# Generated by pormake.
# Topology anh, (6,3)-cn, num edge types: 1
# Building blocks:
#     Node 0, Type 0, BuildingBlock: BETFAJ_clean_sbu_0, # of connection points: 6
#     Node 1, Type 0, BuildingBlock: BETFAJ_clean_sbu_0, # of connection points: 6
#     Node 2, Type 0, BuildingBlock: BETFAJ_clean_sbu_0, # of connection points: 6
#     Node 3, Type 1, BuildingBlock: WUSLED_clean_sbu_0, # of connection points: 3
#     Node 4, Type 1, BuildingBlock: WUSLED_clean_sbu_0, # of connection points: 3
#     Node 5, Type 1, BuildingBlock: WUSLED_clean_sbu_0, # of connection points: 3
#     Node 6, Type 1, BuildingBlock: WUSLED_clean_sbu_0, # of connection points: 3
#     Node 7, Type 1, BuildingBlock: WUSLED_clean_sbu_0, # of connection points: 3
#     Node 8, Type 1, BuildingBlock: WUSLED_clean_sbu_0, # of connection points: 3
#     Edge 9, Type (0, 1), BuildingBlock: OJICUG_clean_linker_0, # of connection points: 2
#     Edge 10, Type (0, 1), BuildingBlock: OJICUG_clean_linker_0, # of connection points: 2
#     Edge 11, Type (0, 1), BuildingBlock: OJICUG_clean_linker_0, # of connection points: 2
#     Edge 12, Type (0, 1), BuildingBlock: OJICUG_clean_linker_0, # of connection points: 2
#     Edge 13, Type (0, 1), BuildingBlock: OJICUG_clean_linker_0, # of connection points: 2
#     Edge 14, Type (0, 1), BuildingBlock: OJICUG_clean_linker_0, # of connection points: 2
#     Edge 15, Type (0, 1), BuildingBlock: OJICUG_clean_linker_0, # of connection points: 2
#     Edge 16, Type (0, 1), BuildingBlock: OJICUG_clean_linker_0, # of connection points: 2
#     Edge 17, Type (0, 1), BuildingBlock: OJICUG_clean_linker_0, # of connection points: 2
#     Edge 18, Type (0, 1), BuildingBlock: OJICUG_clean_linker_0, # of connection points: 2
#     Edge 19, Type (0, 1), BuildingBlock: OJICUG_clean_linker_0, # of connection points: 2
#     Edge 20, Type (0, 1), BuildingBlock: OJICUG_clean_linker_0, # of connection points: 2
#     Edge 21, Type (0, 1), BuildingBlock: OJICUG_clean_linker_0, # of connection points: 2
#     Edge 22, Type (0, 1), BuildingBlock: OJICUG_clean_linker_0, # of connection points: 2
#     Edge 23, Type (0, 1), BuildingBlock: OJICUG_clean_linker_0, # of connection points: 2
#     Edge 24, Type (0, 1), BuildingBlock: OJICUG_clean_linker_0, # of connection points: 2
#     Edge 25, Type (0, 1), BuildingBlock: OJICUG_clean_linker_0, # of connection points: 2
#     Edge 26, Type (0, 1), BuildingBlock: OJICUG_clean_linker_0, # of connection points: 2
# Relax obj value: 0.195
# Max RMSD: 0.215
# Mean RMSD: 0.156
data_MOF--net-anh--node1-BETFAJ_clean_sbu_0--node2-WUSLED_clean_sbu_0--edge1-OJICUG_clean_linker_0
_symmetry_space_group_name_H-M    P1
_symmetry_Int_Tables_number       1
_symmetry_cell_setting            triclinic
loop_
_symmetry_equiv_pos_as_xyz
'x, y, z'
_cell_length_a     31.015772
_cell_length_b     38.110693
_cell_length_c     53.62015
_cell_angle_alpha  94.416673
_cell_angle_beta   88.442496
_cell_angle_gamma 129.33248
loop_
_atom_site_label
_atom_site_type_symbol
_atom_site_fract_x
_atom_site_fract_y
_atom_site_fract_z
_atom_type_partial_charge
Sm0 Sm 0.13987 0.56474 0.18283 0.0
Sm1 Sm 1.0744 0.59501 0.19642 0.0
C2 C 0.18071 0.52616 0.16277 0.0
C3 C 0.22971 0.52867 0.16356 0.0
C4 C 0.2842 0.57012 0.1631 0.0
C5 C 0.3295 0.57042 0.16167 0.0
C6 C 0.32071 0.52932 0.16086 0.0
C7 C 0.26617 0.48825 0.16245 0.0
C8 C 0.22114 0.48798 0.16376 0.0
C9 C 0.12987 0.57264 0.23363 0.0
C10 C 0.2124 0.672 0.1971 0.0
C11 C 1.02112 0.62069 0.21916 0.0
C12 C 0.96847 0.59186 0.23241 0.0
C13 C 0.95627 0.55562 0.24504 0.0
C14 C 0.90136 0.51938 0.25047 0.0
C15 C 0.85771 0.51878 0.24328 0.0
C16 C 0.87082 0.5575 0.23316 0.0
C17 C 0.92583 0.5937 0.22769 0.0
C18 C 1.08508 0.58622 0.14531 0.0
C19 C 1.00493 0.48896 0.18514 0.0
O20 O 0.18589 0.55888 0.15279 0.0
O21 O 0.15002 0.51219 0.18254 0.0
O22 O 1.09125 0.5556 0.21743 0.0
O23 O 0.17562 0.58542 0.22321 0.0
O24 O 0.21466 0.64062 0.18683 0.0
O25 O 0.16452 0.66225 0.20337 0.0
O26 O 1.06434 0.62809 0.22941 0.0
O27 O 1.01627 0.61017 0.19503 0.0
O28 O 0.12309 0.60377 0.1618 0.0
O29 O 1.03939 0.57418 0.15541 0.0
O30 O 1.00759 0.51893 0.20043 0.0
O31 O 1.04851 0.50179 0.17182 0.0
H32 H 0.29164 0.60201 0.16321 0.0
H33 H 0.37116 0.60253 0.16058 0.0
H34 H 0.25785 0.45594 0.16137 0.0
H35 H 0.17932 0.45573 0.16413 0.0
H36 H 0.98847 0.55337 0.2488 0.0
H37 H 0.89266 0.4903 0.25848 0.0
H38 H 0.83819 0.55801 0.22714 0.0
H39 H 0.93425 0.6211 0.21775 0.0
Sm40 Sm 0.63194 1.00433 0.4942 0.0
Sm41 Sm 0.55956 0.03127 0.48816 0.0
C42 C 0.67615 0.96821 0.50936 0.0
C43 C 0.66226 0.92447 0.51466 0.0
C44 C 0.66993 0.91813 0.53911 0.0
C45 C 0.66163 0.87886 0.54435 0.0
C46 C 0.64574 0.84495 0.52522 0.0
C47 C 0.63686 0.85088 0.50081 0.0
C48 C 0.64506 0.89019 0.49558 0.0
C49 C 0.62645 0.02194 0.44622 0.0
C50 C 0.49669 0.92478 0.48155 0.0
C51 C 0.5168 0.07113 0.47836 0.0
C52 C 0.52839 0.11394 0.48752 0.0
C53 C 0.49903 0.12632 0.4773 0.0
C54 C 0.50881 0.16634 0.48642 0.0
C55 C 0.54819 0.19481 0.50602 0.0
C56 C 0.57801 0.18237 0.51597 0.0
C57 C 0.56824 0.14239 0.5068 0.0
C58 C 0.5697 0.0161 0.53629 0.0
C59 C 0.69719 0.11163 0.49487 0.0
O60 O 0.65772 0.98415 0.52472 0.0
O61 O 0.67507 0.97557 0.48603 0.0
O62 O 0.58547 1.00048 0.46054 0.0
O63 O 0.6711 0.03242 0.45654 0.0
O64 O 0.54141 0.93591 0.49319 0.0
O65 O 0.4959 0.95635 0.47365 0.0
O66 O 0.5555 0.0752 0.46502 0.0
O67 O 0.49613 0.04052 0.4946 0.0
O68 O 0.60863 0.03753 0.52115 0.0
O69 O 0.52345 1.00325 0.5266 0.0
O70 O 0.64896 0.09972 0.48748 0.0
O71 O 0.7014 0.08129 0.50162 0.0
H72 H 0.68333 0.94402 0.55418 0.0
H73 H 0.66792 0.8752 0.56344 0.0
H74 H 0.62517 0.82578 0.48554 0.0
H75 H 0.63899 0.89406 0.4765 0.0
H76 H 0.4683 0.10489 0.46233 0.0
H77 H 0.48565 0.17507 0.47803 0.0
H78 H 0.60807 0.20296 0.53126 0.0
H79 H 0.59134 0.13339 0.51495 0.0
Sm80 Sm 0.67465 0.58419 0.87175 0.0
Sm81 Sm 0.59324 0.47393 0.86799 0.0
C82 C 0.72343 0.67019 0.86497 0.0
C83 C 0.70927 0.69838 0.85704 0.0
C84 C 0.68416 0.69035 0.83353 0.0
C85 C 0.67238 0.71829 0.8265 0.0
C86 C 0.6851 0.75466 0.84286 0.0
C87 C 0.71003 0.76239 0.86636 0.0
C88 C 0.72206 0.7347 0.87331 0.0
C89 C 0.65564 0.54336 0.91512 0.0
C90 C 0.53508 0.52321 0.8736 0.0
C91 C 0.54216 0.38851 0.87706 0.0
C92 C 0.54641 0.35391 0.86651 0.0
C93 C 0.50827 0.30876 0.87289 0.0
C94 C 0.51408 0.27648 0.86378 0.0
C95 C 0.55842 0.28888 0.84821 0.0
C96 C 0.59619 0.3342 0.84169 0.0
C97 C 0.5902 0.36631 0.85071 0.0
C98 C 0.62236 0.5057 0.82057 0.0
C99 C 0.73361 0.53665 0.87175 0.0
O100 O 0.72179 0.64268 0.84794 0.0
O101 O 0.70469 0.65261 0.88657 0.0
O102 O 0.62026 0.52926 0.89777 0.0
O103 O 0.70279 0.58276 0.91086 0.0
O104 O 0.58529 0.56246 0.87005 0.0
O105 O 0.52756 0.48492 0.8754 0.0
O106 O 0.58654 0.42358 0.88965 0.0
O107 O 0.52061 0.40001 0.86226 0.0
O108 O 0.63743 0.52872 0.84126 0.0
O109 O 0.59022 0.46298 0.82465 0.0
O110 O 0.68277 0.49716 0.87388 0.0
O111 O 0.74155 0.57446 0.8678 0.0
H112 H 0.67362 0.66255 0.82056 0.0
H113 H 0.65272 0.71108 0.80835 0.0
H114 H 0.72119 0.79043 0.8793 0.0
H115 H 0.74176 0.74187 0.89146 0.0
H116 H 0.47438 0.2986 0.88517 0.0
H117 H 0.48451 0.24204 0.86935 0.0
H118 H 0.63027 0.34485 0.82944 0.0
H119 H 0.62011 0.40103 0.84553 0.0
C120 C 0.7299 0.20316 0.19402 0.0
C121 C 0.71864 0.23332 0.19234 0.0
C122 C 0.81798 0.29742 0.19082 0.0
C123 C 0.76218 0.27995 0.19091 0.0
C124 C 0.82924 0.26735 0.1929 0.0
C125 C 0.7858 0.22082 0.19443 0.0
U126 U 0.62526 0.08486 0.22118 0.0
O127 O 0.60139 0.01993 0.20422 0.0
O128 O 0.53866 0.02958 0.20841 0.0
C129 C 0.54889 1.00179 0.20111 0.0
C130 C 0.68356 0.15329 0.19251 0.0
C131 C 0.50628 0.95346 0.20587 0.0
C132 C 0.45513 0.87467 0.1899 0.0
C133 C 0.50013 0.92084 0.18868 0.0
C134 C 0.42282 0.89266 0.2264 0.0
C135 C 0.41512 0.85998 0.20842 0.0
C136 C 0.46797 0.93905 0.22512 0.0
C137 C 0.62924 0.07718 0.29341 0.0
C138 C 0.6399 0.03835 0.32357 0.0
C139 C 0.59678 0.07191 0.33595 0.0
C140 C 0.60335 0.08598 0.3118 0.0
C141 C 0.61657 0.04917 0.34232 0.0
C142 C 0.64621 0.0522 0.2994 0.0
C143 C 0.6456 0.10004 0.26975 0.0
O144 O 0.69639 0.12739 0.19693 0.0
O145 O 0.63583 0.13901 0.20206 0.0
O146 O 0.60932 0.10148 0.25883 0.0
O147 O 0.67324 0.09341 0.25381 0.0
H148 H 0.67606 0.22073 0.1915 0.0
H149 H 0.75203 0.30212 0.1891 0.0
H150 H 0.87177 0.27976 0.19327 0.0
H151 H 0.79616 0.19864 0.19542 0.0
H152 H 0.45035 0.85077 0.17552 0.0
H153 H 0.52894 0.93126 0.17355 0.0
H154 H 0.3933 0.8825 0.24116 0.0
H155 H 0.47188 0.96362 0.23863 0.0
H156 H 0.65484 0.0203 0.3278 0.0
H157 H 0.57904 0.08109 0.35 0.0
H158 H 0.59053 0.10568 0.30785 0.0
H159 H 0.6665 0.04492 0.28576 0.0
C160 C 0.61971 0.61218 0.55512 0.0
C161 C 0.63234 0.64431 0.57468 0.0
C162 C 0.62666 0.68763 0.54562 0.0
C163 C 0.63585 0.68169 0.56998 0.0
C164 C 0.61379 0.65511 0.52612 0.0
C165 C 0.61041 0.6178 0.53085 0.0
U166 U 0.62373 0.54158 0.60009 0.0
O167 O 0.56986 0.46727 0.60202 0.0
O168 O 0.65974 0.50693 0.59666 0.0
C169 C 0.61103 0.46624 0.59785 0.0
C170 C 0.61579 0.57266 0.55986 0.0
C171 C 0.59914 0.4288 0.58025 0.0
C172 C 0.54206 0.34715 0.56954 0.0
C173 C 0.55115 0.38398 0.5835 0.0
C174 C 0.62834 0.39915 0.54826 0.0
C175 C 0.58093 0.35412 0.55199 0.0
C176 C 0.6374 0.43607 0.56224 0.0
C177 C 0.6486 0.57915 0.66996 0.0
C178 C 0.66478 0.54392 0.70012 0.0
C179 C 0.63905 0.59012 0.71445 0.0
C180 C 0.63738 0.5985 0.68966 0.0
C181 C 0.65198 0.56216 0.71998 0.0
C182 C 0.6628 0.55213 0.67536 0.0
C183 C 0.64297 0.58584 0.64391 0.0
O184 O 0.66238 0.58219 0.56744 0.0
O185 O 0.57245 0.54174 0.57259 0.0
O186 O 0.59286 0.5557 0.63362 0.0
O187 O 0.68278 0.59527 0.62891 0.0
H188 H 0.63938 0.64041 0.59359 0.0
H189 H 0.64512 0.70567 0.58549 0.0
H190 H 0.60717 0.65885 0.50711 0.0
H191 H 0.60065 0.59335 0.51551 0.0
H192 H 0.50553 0.31307 0.57326 0.0
H193 H 0.52139 0.37724 0.59752 0.0
H194 H 0.65884 0.40588 0.5347 0.0
H195 H 0.67503 0.47015 0.55934 0.0
H196 H 0.67572 0.5228 0.70367 0.0
H197 H 0.62825 0.60424 0.72916 0.0
H198 H 0.6261 0.61931 0.68583 0.0
H199 H 0.67155 0.53681 0.6604 0.0
C200 C 1.01786 0.54117 0.89439 0.0
C201 C 0.96496 0.50689 0.90372 0.0
C202 C 0.92572 0.54147 0.88864 0.0
C203 C 0.9199 0.5072 0.90104 0.0
C204 C 0.97919 0.57615 0.87981 0.0
C205 C 1.02413 0.57595 0.88264 0.0
U206 U 0.14002 0.53763 0.91459 0.0
O207 O 0.15978 0.4965 0.89444 0.0
O208 O 0.21883 0.5705 0.89419 0.0
C209 C 0.20915 0.53207 0.88763 0.0
C210 C 1.06422 0.53819 0.893 0.0
C211 C 0.25757 0.53173 0.88867 0.0
C212 C 0.34978 0.56114 0.87346 0.0
C213 C 0.30577 0.56295 0.87531 0.0
C214 C 0.29942 0.49679 0.89855 0.0
C215 C 0.34772 0.52796 0.88494 0.0
C216 C 0.2551 0.49854 0.90032 0.0
C217 C 0.13433 0.54753 0.98914 0.0
C218 C 0.14016 0.54151 0.0336 0.0
C219 C 0.09633 0.57151 1.01981 0.0
C220 C 0.10686 0.56546 0.99476 0.0
C221 C 0.11387 0.56035 0.03957 0.0
C222 C 0.15008 0.53512 1.00876 0.0
C223 C 0.15121 0.54379 0.96363 0.0
O224 O 0.11564 0.57507 0.89864 0.0
O225 O 1.0546 0.50095 0.89894 0.0
O226 O 0.11787 0.50478 0.95016 0.0
O227 O 0.17747 0.57939 0.95033 0.0
H228 H 0.95788 0.47914 0.91262 0.0
H229 H 0.88027 0.48015 0.90863 0.0
H230 H 0.98624 0.60288 0.86978 0.0
H231 H 1.06368 0.6024 0.87467 0.0
H232 H 0.38491 0.58533 0.86231 0.0
H233 H 0.30895 0.58841 0.86564 0.0
H234 H 0.29569 0.47093 0.908 0.0
H235 H 0.21862 0.47349 0.91059 0.0
H236 H 0.15339 0.53183 0.04822 0.0
H237 H 1.07607 0.58618 1.02378 0.0
H238 H 0.0945 0.57544 0.97992 0.0
H239 H 0.17134 0.52125 1.00489 0.0
C240 C 0.98542 0.39501 0.49022 0.0
C241 C 0.94615 0.37195 0.47028 0.0
C242 C 0.89327 0.30151 0.49137 0.0
C243 C 0.9004 0.32564 0.47088 0.0
C244 C 0.9335 0.32467 0.51102 0.0
C245 C 0.97905 0.37099 0.51045 0.0
U246 U 1.08619 0.50711 0.45846 0.0
O247 O 0.17549 0.56166 0.46721 0.0
O248 O 0.11678 0.5754 0.47265 0.0
C249 C 0.16907 0.59207 0.47372 0.0
C250 C 1.03239 0.44419 0.49064 0.0
C251 C 0.21265 0.63931 0.46669 0.0
C252 C 0.25148 0.71867 0.47196 0.0
C253 C 0.20628 0.67231 0.47285 0.0
C254 C 0.30987 0.70006 0.45751 0.0
C255 C 0.30432 0.73318 0.46509 0.0
C256 C 0.26464 0.65368 0.45835 0.0
C257 C 1.06773 0.50064 0.38609 0.0
C258 C 0.12223 0.56122 0.35795 0.0
C259 C 1.04507 0.48476 0.34157 0.0
C260 C 1.03463 0.4701 0.36567 0.0
C261 C 1.08891 0.5305 0.33733 0.0
C262 C 0.11165 0.54639 0.3822 0.0
C263 C 1.05524 0.483 0.41097 0.0
O264 O 1.07773 0.4558 0.47967 0.0
O265 O 1.01963 0.46988 0.48559 0.0
O266 O 1.03368 0.49573 0.42689 0.0
O267 O 1.09257 0.48223 0.42128 0.0
H268 H 0.95056 0.38986 0.4544 0.0
H269 H 0.87062 0.30869 0.45528 0.0
H270 H 0.92902 0.30728 0.52716 0.0
H271 H 1.00896 0.38827 0.52602 0.0
H272 H 0.24575 0.74318 0.47813 0.0
H273 H 0.16712 0.66248 0.47979 0.0
H274 H 0.34978 0.71005 0.45173 0.0
H275 H 0.27131 0.62932 0.45368 0.0
H276 H 0.15612 0.59672 0.35537 0.0
H277 H 1.01931 0.45991 0.32618 0.0
H278 H 1.00075 0.43458 0.36833 0.0
H279 H 0.13765 0.57044 0.39782 0.0
C280 C 0.6323 0.94219 0.8048 0.0
C281 C 0.61979 0.90801 0.78672 0.0
C282 C 0.64702 0.87889 0.81627 0.0
C283 C 0.62702 0.87664 0.7924 0.0
C284 C 0.65992 0.9136 0.83417 0.0
C285 C 0.65256 0.94478 0.82849 0.0
U286 U 0.61244 1.00447 0.75938 0.0
O287 O 0.65002 0.07679 0.76022 0.0
O288 O 0.55912 0.02403 0.76168 0.0
C289 C 0.60165 0.06785 0.76242 0.0
C290 C 0.62472 0.97547 0.79943 0.0
C291 C 0.59945 0.09893 0.77979 0.0
C292 C 0.54998 0.11285 0.80959 0.0
C293 C 0.55548 0.08269 0.79635 0.0
C294 C 0.63303 0.17602 0.79053 0.0
C295 C 0.58816 0.15988 0.80651 0.0
C296 C 0.63848 0.14594 0.77734 0.0
C297 C 0.60615 0.97811 0.68852 0.0
C298 C 0.63594 0.02759 0.65463 0.0
C299 C 0.55967 0.94678 0.64749 0.0
C300 C 0.56541 0.94079 0.67226 0.0
C301 C 0.59495 0.99024 0.63837 0.0
C302 C 0.64134 0.02166 0.67947 0.0
C303 C 0.61143 0.97072 0.7146 0.0
O304 O 0.66656 1.01149 0.78863 0.0
O305 O 0.57582 0.95849 0.78985 0.0
O306 O 0.56656 0.9519 0.72802 0.0
O307 O 0.65752 1.00413 0.72714 0.0
H308 H 0.60422 0.90547 0.76826 0.0
H309 H 0.61615 0.85024 0.77819 0.0
H310 H 0.67641 0.91712 0.85256 0.0
H311 H 0.66283 0.97108 0.84266 0.0
H312 H 0.51533 0.09922 0.82197 0.0
H313 H 0.52441 0.04661 0.79858 0.0
H314 H 0.66281 0.2118 0.78733 0.0
H315 H 0.67221 0.15938 0.7644 0.0
H316 H 0.66332 0.06157 0.64825 0.0
H317 H 0.52804 0.91726 0.63537 0.0
H318 H 0.53796 0.90688 0.67874 0.0
H319 H 0.673 0.05121 0.69156 0.0
C320 C 0.57966 0.36439 0.16113 0.0
C321 C 0.62725 0.36884 0.15565 0.0
C322 C 0.64821 0.37797 0.20021 0.0
C323 C 0.66132 0.37547 0.17509 0.0
C324 C 0.59621 0.36665 0.20536 0.0
C325 C 0.56226 0.36015 0.18589 0.0
U326 U 0.55991 0.38918 0.09552 0.0
O327 O 0.57303 0.45032 0.08659 0.0
O328 O 0.48952 0.38375 0.08158 0.0
C329 C 0.51991 0.42819 0.08182 0.0
C330 C 0.5569 0.37611 0.14304 0.0
C331 C 0.49749 0.44777 0.09556 0.0
C332 C 0.4837 0.47533 0.13473 0.0
C333 C 0.50291 0.4547 0.12174 0.0
C334 C 0.45356 0.48217 0.09541 0.0
C335 C 0.45855 0.48907 0.1217 0.0
C336 C 0.47308 0.46178 0.08245 0.0
C337 C 0.61002 0.386 0.03462 0.0
C338 C 0.57399 0.40639 1.00422 0.0
C339 C 0.66643 0.42931 0.99977 0.0
C340 C 0.65946 0.40768 1.02133 0.0
C341 C 0.62432 0.4301 0.99141 0.0
C342 C 0.56691 0.38457 1.02542 0.0
C343 C 0.60703 0.37411 0.06047 0.0
O344 O 0.59442 0.41534 0.13357 0.0
O345 O 0.51909 0.34392 0.12652 0.0
O346 O 0.55639 0.34149 0.06789 0.0
O347 O 0.63608 0.40975 0.07677 0.0
H348 H 0.64124 0.37218 0.13659 0.0
H349 H 0.70103 0.38408 0.17035 0.0
H350 H 0.58451 0.36747 0.22449 0.0
H351 H 0.52541 0.35653 0.1904 0.0
H352 H 0.48845 0.48044 0.15493 0.0
H353 H 0.52228 0.44436 0.13207 0.0
H354 H 0.43332 0.49148 0.08486 0.0
H355 H 0.46898 0.45683 0.06221 0.0
H356 H 0.54097 0.40687 0.99887 0.0
H357 H 0.70546 0.44664 0.99016 0.0
H358 H 0.69364 0.40993 0.02833 0.0
H359 H 0.52879 0.36916 0.03558 0.0
C360 C 0.36868 0.49691 0.16645 0.0
C361 C 0.36643 0.52781 0.15519 0.0
H362 H 0.3992 0.45995 0.16446 0.0
C363 C 0.4022 0.55165 0.13554 0.0
H364 H 0.34219 0.47864 0.18191 0.0
C365 C 0.43551 0.54143 0.12574 0.0
C366 C 0.43338 0.5071 0.13535 0.0
H367 H 0.40139 0.57567 0.12647 0.0
H368 H 0.46065 0.55868 0.10978 0.0
C369 C 0.4017 0.48649 0.15656 0.0
C370 C 0.80036 0.17534 0.50211 0.0
C371 C 0.74754 0.16028 0.49476 0.0
H372 H 0.88789 0.2316 0.5066 0.0
C373 C 0.74317 0.19214 0.48653 0.0
H374 H 0.8053 0.15176 0.50849 0.0
C375 C 0.79037 0.23771 0.4854 0.0
C376 C 0.84326 0.25279 0.49256 0.0
H377 H 0.70322 0.18195 0.48079 0.0
H378 H 0.78528 0.26129 0.47916 0.0
C379 C 0.84768 0.22113 0.50109 0.0
C380 C 0.65186 0.79957 0.85302 0.0
C381 C 0.67299 0.78479 0.83554 0.0
H382 H 0.62593 0.83958 0.86059 0.0
C383 C 0.68376 0.8 0.81132 0.0
H384 H 0.64206 0.78791 0.87169 0.0
C385 C 0.67479 0.83 0.80495 0.0
C386 C 0.65462 0.84547 0.8226 0.0
H387 H 0.7006 0.78972 0.79746 0.0
H388 H 0.6851 0.84198 0.78636 0.0
C389 C 0.6427 0.82936 0.84663 0.0
C390 C 0.78896 0.43603 0.22964 0.0
C391 C 0.79956 0.47544 0.24106 0.0
H392 H 0.73099 0.37255 0.20816 0.0
C393 C 0.75469 0.47548 0.24496 0.0
H394 H 0.82249 0.43467 0.22648 0.0
C395 C 0.70225 0.43992 0.23429 0.0
C396 C 0.6939 0.40375 0.21952 0.0
H397 H 0.76138 0.50496 0.25415 0.0
H398 H 0.67041 0.44365 0.23526 0.0
C399 C 0.73649 0.40042 0.21896 0.0
C400 C 0.45013 0.84208 0.48303 0.0
C401 C 0.44763 0.87589 0.4767 0.0
H402 H 0.40724 0.771 0.48441 0.0
C403 C 0.39802 0.86238 0.46568 0.0
H404 H 0.48761 0.85111 0.49151 0.0
C405 C 0.35178 0.81615 0.46147 0.0
C406 C 0.35422 0.78237 0.46801 0.0
H407 H 0.39468 0.88749 0.46048 0.0
H408 H 0.31411 0.80684 0.45306 0.0
C409 C 0.40411 0.79599 0.47872 0.0
C410 C 0.51932 0.21027 0.83038 0.0
C411 C 0.56554 0.25494 0.83878 0.0
H412 H 0.49008 0.1456 0.81343 0.0
C413 C 0.61895 0.26728 0.83763 0.0
H414 H 0.47764 0.19968 0.83074 0.0
C415 C 0.62609 0.23619 0.82783 0.0
C416 C 0.58005 0.19185 0.81881 0.0
H417 H 0.65541 0.30108 0.84439 0.0
H418 H 0.66787 0.247 0.82729 0.0
C419 C 0.52648 0.17916 0.8205 0.0
C420 C 0.67795 0.80881 0.54728 0.0
C421 C 0.64017 0.80436 0.53062 0.0
H422 H 0.70385 0.77601 0.56478 0.0
C423 C 0.59767 0.76101 0.51899 0.0
H424 H 0.71189 0.84173 0.55622 0.0
C425 C 0.59318 0.72322 0.52388 0.0
C426 C 0.63101 0.72774 0.54053 0.0
H427 H 0.56735 0.75611 0.50633 0.0
H428 H 0.55953 0.69029 0.51483 0.0
C429 C 0.67339 0.77105 0.55219 0.0
C430 C 0.77577 0.49795 0.87702 0.0
C431 C 0.7832 0.53826 0.87528 0.0
H432 H 0.813 0.46691 0.88193 0.0
C433 C 0.83816 0.57974 0.87804 0.0
H434 H 0.73444 0.46515 0.87499 0.0
C435 C 0.88377 0.58085 0.88252 0.0
C436 C 0.87645 0.54048 0.88427 0.0
H437 H 0.84604 0.61165 0.87714 0.0
H438 H 0.92482 0.61373 0.88501 0.0
C439 C 0.82132 0.49901 0.88131 0.0
C440 C 0.31688 0.73088 0.19725 0.0
C441 C 0.26462 0.71966 0.20139 0.0
H442 H 0.40537 0.78358 0.19696 0.0
C443 C 0.26262 0.75462 0.20937 0.0
H444 H 0.32005 0.70477 0.19136 0.0
C445 C 0.31151 0.79987 0.21239 0.0
C446 C 0.36375 0.81133 0.20764 0.0
H447 H 0.22312 0.74728 0.21277 0.0
H448 H 0.30807 0.82601 0.21761 0.0
C449 C 0.36584 0.77614 0.20041 0.0
C450 C 0.61071 0.27653 0.52414 0.0
C451 C 0.55712 0.23658 0.51649 0.0
H452 H 0.66025 0.34452 0.54132 0.0
C453 C 0.51183 0.23648 0.51958 0.0
H454 H 0.64673 0.27818 0.52177 0.0
C455 C 0.51972 0.27483 0.53049 0.0
C456 C 0.57311 0.31442 0.53866 0.0
H457 H 0.46987 0.20631 0.51416 0.0
H458 H 0.48377 0.27332 0.53267 0.0
C459 C 0.6186 0.31489 0.53507 0.0
C460 C 0.49532 0.56473 0.877 0.0
C461 C 0.48645 0.52348 0.87651 0.0
H462 H 0.46089 0.59889 0.88067 0.0
C463 C 0.43115 0.48347 0.87922 0.0
H464 H 0.53695 0.59655 0.87524 0.0
C465 C 0.38657 0.48474 0.8821 0.0
C466 C 0.39548 0.52611 0.88246 0.0
H467 H 0.4221 0.45095 0.87899 0.0
H468 H 0.34486 0.45295 0.88361 0.0
C469 C 0.45103 0.56604 0.87999 0.0
C470 C 0.95421 0.40682 0.17112 0.0
C471 C 0.95514 0.44019 0.18489 0.0
H472 H 0.91009 0.33572 0.16204 0.0
C473 C 0.90949 0.4263 0.19983 0.0
H474 H 0.98862 0.4163 0.15942 0.0
C475 C 0.86455 0.38007 0.20142 0.0
C476 C 0.86437 0.34665 0.18822 0.0
H477 H 0.90901 0.45114 0.21077 0.0
H478 H 0.83071 0.37051 0.21357 0.0
C479 C 0.9094 0.3606 0.1728 0.0
C480 C 0.14385 0.5949 0.10941 0.0
C481 C 1.09253 0.58139 0.11808 0.0
H482 H 0.19081 0.59922 0.07803 0.0
C483 C 1.04859 0.5626 0.10056 0.0
H484 H 0.17874 0.60998 0.12233 0.0
C485 C 1.05567 0.55681 0.07496 0.0
C486 C 0.10664 0.56916 0.06641 0.0
H487 H 1.00855 0.55194 0.10666 0.0
H488 H 1.02082 0.54151 0.06198 0.0
C489 C 0.15073 0.58868 0.08398 0.0
C490 C 0.66844 0.04476 0.40429 0.0
C491 C 0.62266 0.02798 0.41967 0.0
H492 H 0.70224 0.06442 0.36798 0.0
C493 C 0.57405 0.01731 0.40941 0.0
H494 H 0.70655 0.05342 0.41168 0.0
C495 C 0.57157 0.0237 0.38422 0.0
C496 C 0.61745 0.04039 0.36881 0.0
H497 H 0.53815 1.00436 0.42087 0.0
H498 H 0.53372 1.01539 0.37677 0.0
C499 C 0.6658 0.05071 0.37917 0.0
C500 C 0.61784 0.4912 0.77444 0.0
C501 C 0.63439 0.5223 0.79527 0.0
H502 H 0.60967 0.47905 0.7347 0.0
C503 C 0.65895 0.56743 0.79133 0.0
H504 H 0.59853 0.45607 0.77686 0.0
C505 C 0.66582 0.5809 0.76692 0.0
C506 C 0.64832 0.54941 0.74603 0.0
H507 H 0.67155 0.59193 0.80703 0.0
H508 H 0.68454 0.61585 0.76442 0.0
C509 C 0.62465 0.50451 0.75019 0.0
C510 C 0.62959 0.03058 0.57263 0.0
C511 C 0.57642 1.00927 0.56223 0.0
H512 H 0.67716 0.04123 0.60486 0.0
C513 C 0.52946 0.98144 0.57688 0.0
H514 H 0.66653 0.05218 0.56174 0.0
C515 C 0.53547 0.97502 0.60149 0.0
C516 C 0.58866 0.99662 0.61206 0.0
H517 H 0.48795 0.96457 0.56933 0.0
H518 H 0.49849 0.95369 0.6124 0.0
C519 C 0.63568 0.02449 0.59734 0.0
C520 C 0.69322 0.52881 0.95 0.0
C521 C 0.6481 0.51486 0.93467 0.0
H522 H 0.72122 0.51331 0.98007 0.0
C523 C 0.59582 0.47251 0.9375 0.0
H524 H 0.73406 0.56138 0.94818 0.0
C525 C 0.58884 0.44418 0.95503 0.0
C526 C 0.6336 0.45818 0.97081 0.0
H527 H 0.56026 0.46096 0.92593 0.0
H528 H 0.54809 0.41131 0.95625 0.0
C529 C 0.68601 0.50086 0.96799 0.0
C530 C 0.16468 0.5848 0.27765 0.0
C531 C 0.11994 0.56554 0.26059 0.0
H532 H 0.19012 0.58884 0.31525 0.0
C533 C 1.06531 0.53711 0.26927 0.0
H534 H 0.20726 0.60678 0.27144 0.0
C535 C 1.05546 0.52724 0.29435 0.0
C536 C 0.10002 0.54516 0.31133 0.0
H537 H 1.02998 0.52114 0.25651 0.0
H538 H 1.01273 0.50483 0.30032 0.0
C539 C 0.15485 0.57477 0.30278 0.0
loop_
_geom_bond_atom_site_label_1
_geom_bond_atom_site_label_2
_geom_bond_distance
_geom_bond_site_symmetry_2
_ccdc_geom_bond_type
Sm0 C2 2.846 . S
Sm0 O20 2.543 . S
Sm0 O21 2.450 . S
Sm0 O22 2.681 . S
Sm0 O23 2.464 . S
Sm0 O24 2.396 . S
Sm0 O28 2.386 . S
Sm0 O31 2.408 1_455 S
Sm1 C11 2.846 . S
Sm1 O22 2.386 1_655 S
Sm1 O25 2.408 1_655 S
Sm1 O26 2.543 . S
Sm1 O27 2.450 . S
Sm1 O28 2.681 1_655 S
Sm1 O29 2.464 . S
Sm1 O30 2.396 . S
C2 Sm0 2.846 . S
C2 C3 1.506 . S
C2 O20 1.261 . S
C2 O21 1.242 . S
C3 C2 1.506 . S
C3 C4 1.358 . S
C3 C8 1.382 . S
C4 C3 1.358 . S
C4 C5 1.385 . S
C4 H32 0.930 . S
C5 C4 1.385 . S
C5 C6 1.395 . S
C5 H33 0.929 . S
C6 C5 1.395 . S
C6 C7 1.335 . S
C7 C6 1.335 . S
C7 C8 1.398 . S
C7 H34 0.930 . S
C8 C3 1.382 . S
C8 C7 1.398 . S
C8 H35 0.929 . S
C9 O22 1.271 . S
C9 O23 1.251 . S
C10 O24 1.252 . S
C10 O25 1.272 . S
C11 Sm1 2.846 . S
C11 C12 1.506 . S
C11 O26 1.261 . S
C11 O27 1.242 . S
C12 C11 1.506 . S
C12 C13 1.358 . S
C12 C17 1.382 . S
C13 C12 1.358 . S
C13 C14 1.385 . S
C13 H36 0.930 . S
C14 C13 1.385 . S
C14 C15 1.395 . S
C14 H37 0.929 . S
C15 C14 1.395 . S
C15 C16 1.335 . S
C16 C15 1.335 . S
C16 C17 1.398 . S
C16 H38 0.930 . S
C17 C12 1.382 . S
C17 C16 1.398 . S
C17 H39 0.929 . S
C18 O28 1.271 . S
C18 O29 1.251 1_455 S
C19 O30 1.252 . S
C19 O31 1.272 . S
O20 Sm0 2.543 . S
O20 C2 1.261 . S
O21 Sm0 2.450 . S
O21 C2 1.242 . S
O22 Sm0 2.681 . S
O22 Sm1 2.386 1_455 S
O22 C9 1.271 . S
O23 Sm0 2.464 . S
O23 C9 1.251 . S
O24 Sm0 2.396 . S
O24 C10 1.252 . S
O25 Sm1 2.408 1_455 S
O25 C10 1.272 . S
O26 Sm1 2.543 . S
O26 C11 1.261 . S
O27 Sm1 2.450 . S
O27 C11 1.242 . S
O28 Sm0 2.386 . S
O28 Sm1 2.681 1_455 S
O28 C18 1.271 . S
O29 Sm1 2.464 . S
O29 C18 1.251 1_655 S
O30 Sm1 2.396 . S
O30 C19 1.252 . S
O31 Sm0 2.408 1_655 S
O31 C19 1.272 . S
H32 C4 0.930 . S
H33 C5 0.929 . S
H34 C7 0.930 . S
H35 C8 0.929 . S
H36 C13 0.930 . S
H37 C14 0.929 . S
H38 C16 0.930 . S
H39 C17 0.929 . S
Sm40 C42 2.846 . S
Sm40 O60 2.543 . S
Sm40 O61 2.450 . S
Sm40 O62 2.681 1_565 S
Sm40 O63 2.464 . S
Sm40 O64 2.396 . S
Sm40 O68 2.386 . S
Sm40 O71 2.408 1_565 S
Sm41 C51 2.846 . S
Sm41 O62 2.386 . S
Sm41 O65 2.408 1_545 S
Sm41 O66 2.543 . S
Sm41 O67 2.450 . S
Sm41 O68 2.681 1_545 S
Sm41 O69 2.464 . S
Sm41 O70 2.396 . S
C42 Sm40 2.846 . S
C42 C43 1.506 . S
C42 O60 1.261 . S
C42 O61 1.242 . S
C43 C42 1.506 . S
C43 C44 1.358 . S
C43 C48 1.382 . S
C44 C43 1.358 . S
C44 C45 1.385 . S
C44 H72 0.930 . S
C45 C44 1.385 . S
C45 C46 1.395 . S
C45 H73 0.929 . S
C46 C45 1.395 . S
C46 C47 1.335 . S
C47 C46 1.335 . S
C47 C48 1.398 . S
C47 H74 0.930 . S
C48 C43 1.382 . S
C48 C47 1.398 . S
C48 H75 0.929 . S
C49 O62 1.271 . S
C49 O63 1.251 1_545 S
C50 O64 1.252 . S
C50 O65 1.272 . S
C51 Sm41 2.846 . S
C51 C52 1.506 . S
C51 O66 1.261 . S
C51 O67 1.242 . S
C52 C51 1.506 . S
C52 C53 1.358 . S
C52 C57 1.382 . S
C53 C52 1.358 . S
C53 C54 1.385 . S
C53 H76 0.930 . S
C54 C53 1.385 . S
C54 C55 1.395 . S
C54 H77 0.929 . S
C55 C54 1.395 . S
C55 C56 1.335 . S
C56 C55 1.335 . S
C56 C57 1.398 . S
C56 H78 0.930 . S
C57 C52 1.382 . S
C57 C56 1.398 . S
C57 H79 0.929 . S
C58 O68 1.271 1_545 S
C58 O69 1.251 . S
C59 O70 1.252 . S
C59 O71 1.272 . S
O60 Sm40 2.543 . S
O60 C42 1.261 . S
O61 Sm40 2.450 . S
O61 C42 1.242 . S
O62 Sm40 2.681 1_545 S
O62 Sm41 2.386 . S
O62 C49 1.271 . S
O63 Sm40 2.464 . S
O63 C49 1.251 1_565 S
O64 Sm40 2.396 . S
O64 C50 1.252 . S
O65 Sm41 2.408 1_565 S
O65 C50 1.272 . S
O66 Sm41 2.543 . S
O66 C51 1.261 . S
O67 Sm41 2.450 . S
O67 C51 1.242 . S
O68 Sm40 2.386 . S
O68 Sm41 2.681 1_565 S
O68 C58 1.271 1_565 S
O69 Sm41 2.464 . S
O69 C58 1.251 . S
O70 Sm41 2.396 . S
O70 C59 1.252 . S
O71 Sm40 2.408 1_545 S
O71 C59 1.272 . S
H72 C44 0.930 . S
H73 C45 0.929 . S
H74 C47 0.930 . S
H75 C48 0.929 . S
H76 C53 0.930 . S
H77 C54 0.929 . S
H78 C56 0.930 . S
H79 C57 0.929 . S
Sm80 C82 2.846 . S
Sm80 O100 2.543 . S
Sm80 O101 2.450 . S
Sm80 O102 2.681 . S
Sm80 O103 2.464 . S
Sm80 O104 2.396 . S
Sm80 O108 2.386 . S
Sm80 O111 2.408 . S
Sm81 C91 2.846 . S
Sm81 O102 2.386 . S
Sm81 O105 2.408 . S
Sm81 O106 2.543 . S
Sm81 O107 2.450 . S
Sm81 O108 2.681 . S
Sm81 O109 2.464 . S
Sm81 O110 2.396 . S
C82 Sm80 2.846 . S
C82 C83 1.506 . S
C82 O100 1.261 . S
C82 O101 1.242 . S
C83 C82 1.506 . S
C83 C84 1.358 . S
C83 C88 1.382 . S
C84 C83 1.358 . S
C84 C85 1.385 . S
C84 H112 0.930 . S
C85 C84 1.385 . S
C85 C86 1.395 . S
C85 H113 0.929 . S
C86 C85 1.395 . S
C86 C87 1.335 . S
C87 C86 1.335 . S
C87 C88 1.398 . S
C87 H114 0.930 . S
C88 C83 1.382 . S
C88 C87 1.398 . S
C88 H115 0.929 . S
C89 O102 1.271 . S
C89 O103 1.251 . S
C90 O104 1.252 . S
C90 O105 1.272 . S
C91 Sm81 2.846 . S
C91 C92 1.506 . S
C91 O106 1.261 . S
C91 O107 1.242 . S
C92 C91 1.506 . S
C92 C93 1.358 . S
C92 C97 1.382 . S
C93 C92 1.358 . S
C93 C94 1.385 . S
C93 H116 0.930 . S
C94 C93 1.385 . S
C94 C95 1.395 . S
C94 H117 0.929 . S
C95 C94 1.395 . S
C95 C96 1.335 . S
C96 C95 1.335 . S
C96 C97 1.398 . S
C96 H118 0.930 . S
C97 C92 1.382 . S
C97 C96 1.398 . S
C97 H119 0.929 . S
C98 O108 1.271 . S
C98 O109 1.251 . S
C99 O110 1.252 . S
C99 O111 1.272 . S
O100 Sm80 2.543 . S
O100 C82 1.261 . S
O101 Sm80 2.450 . S
O101 C82 1.242 . S
O102 Sm80 2.681 . S
O102 Sm81 2.386 . S
O102 C89 1.271 . S
O103 Sm80 2.464 . S
O103 C89 1.251 . S
O104 Sm80 2.396 . S
O104 C90 1.252 . S
O105 Sm81 2.408 . S
O105 C90 1.272 . S
O106 Sm81 2.543 . S
O106 C91 1.261 . S
O107 Sm81 2.450 . S
O107 C91 1.242 . S
O108 Sm80 2.386 . S
O108 Sm81 2.681 . S
O108 C98 1.271 . S
O109 Sm81 2.464 . S
O109 C98 1.251 . S
O110 Sm81 2.396 . S
O110 C99 1.252 . S
O111 Sm80 2.408 . S
O111 C99 1.272 . S
H112 C84 0.930 . S
H113 C85 0.929 . S
H114 C87 0.930 . S
H115 C88 0.929 . S
H116 C93 0.930 . S
H117 C94 0.929 . S
H118 C96 0.930 . S
H119 C97 0.929 . S
C120 C121 1.264 . S
C120 C125 1.479 . S
C120 C130 1.465 . S
C121 C120 1.264 . S
C121 C123 1.339 . S
C121 H148 0.931 . S
C122 C123 1.395 . S
C122 C124 1.320 . S
C123 C121 1.339 . S
C123 C122 1.395 . S
C123 H149 0.929 . S
C124 C122 1.320 . S
C124 C125 1.405 . S
C124 H150 0.930 . S
C125 C120 1.479 . S
C125 C124 1.405 . S
C125 H151 0.931 . S
U126 O127 2.454 1_545 S
U126 O128 2.458 1_545 S
U126 C129 2.984 1_545 S
U126 C130 2.847 . S
U126 C143 2.882 . S
U126 O144 2.441 . S
U126 O145 2.420 . S
U126 O146 2.455 1_545 S
U126 O147 2.449 . S
O127 U126 2.454 1_565 S
O127 C129 1.353 . S
O128 U126 2.458 1_565 S
O128 C129 1.286 . S
C129 U126 2.984 1_565 S
C129 O127 1.353 . S
C129 O128 1.286 . S
C129 C131 1.363 . S
C130 C120 1.465 . S
C130 U126 2.847 . S
C130 O144 1.249 . S
C130 O145 1.202 . S
C131 C129 1.363 . S
C131 C133 1.408 . S
C131 C136 1.342 . S
C132 C133 1.310 . S
C132 C135 1.461 . S
C132 H152 0.932 . S
C133 C131 1.408 . S
C133 C132 1.310 . S
C133 H153 0.930 . S
C134 C135 1.474 . S
C134 C136 1.285 . S
C134 H154 0.929 . S
C135 C132 1.461 . S
C135 C134 1.474 . S
C136 C131 1.342 . S
C136 C134 1.285 . S
C136 H155 0.930 . S
C137 C140 1.424 . S
C137 C142 1.245 1_545 S
C137 C143 1.428 . S
C138 C141 1.260 1_565 S
C138 C142 1.477 . S
C138 H156 0.932 . S
C139 C140 1.384 . S
C139 C141 1.479 . S
C139 H157 0.929 . S
C140 C137 1.424 . S
C140 C139 1.384 . S
C140 H158 0.928 . S
C141 C138 1.260 1_545 S
C141 C139 1.479 . S
C142 C137 1.245 1_565 S
C142 C138 1.477 . S
C142 H159 0.932 . S
C143 U126 2.882 . S
C143 C137 1.428 . S
C143 O146 1.301 1_545 S
C143 O147 1.282 . S
O144 U126 2.441 . S
O144 C130 1.249 . S
O145 U126 2.420 . S
O145 C130 1.202 . S
O146 U126 2.455 1_565 S
O146 C143 1.301 1_565 S
O147 U126 2.449 . S
O147 C143 1.282 . S
H148 C121 0.931 . S
H149 C123 0.929 . S
H150 C124 0.930 . S
H151 C125 0.931 . S
H152 C132 0.932 . S
H153 C133 0.930 . S
H154 C134 0.929 . S
H155 C136 0.930 . S
H156 C138 0.932 . S
H157 C139 0.929 . S
H158 C140 0.928 . S
H159 C142 0.932 . S
C160 C161 1.264 . S
C160 C165 1.479 . S
C160 C170 1.465 . S
C161 C160 1.264 . S
C161 C163 1.339 . S
C161 H188 0.931 . S
C162 C163 1.395 . S
C162 C164 1.320 . S
C163 C161 1.339 . S
C163 C162 1.395 . S
C163 H189 0.929 . S
C164 C162 1.320 . S
C164 C165 1.405 . S
C164 H190 0.930 . S
C165 C160 1.479 . S
C165 C164 1.405 . S
C165 H191 0.931 . S
U166 O167 2.454 . S
U166 O168 2.458 . S
U166 C169 2.984 . S
U166 C170 2.847 . S
U166 C183 2.882 . S
U166 O184 2.441 . S
U166 O185 2.420 . S
U166 O186 2.455 . S
U166 O187 2.449 . S
O167 U166 2.454 . S
O167 C169 1.353 . S
O168 U166 2.458 . S
O168 C169 1.286 . S
C169 U166 2.984 . S
C169 O167 1.353 . S
C169 O168 1.286 . S
C169 C171 1.363 . S
C170 C160 1.465 . S
C170 U166 2.847 . S
C170 O184 1.249 . S
C170 O185 1.202 . S
C171 C169 1.363 . S
C171 C173 1.408 . S
C171 C176 1.342 . S
C172 C173 1.310 . S
C172 C175 1.461 . S
C172 H192 0.932 . S
C173 C171 1.408 . S
C173 C172 1.310 . S
C173 H193 0.930 . S
C174 C175 1.474 . S
C174 C176 1.285 . S
C174 H194 0.929 . S
C175 C172 1.461 . S
C175 C174 1.474 . S
C176 C171 1.342 . S
C176 C174 1.285 . S
C176 H195 0.930 . S
C177 C180 1.424 . S
C177 C182 1.245 . S
C177 C183 1.428 . S
C178 C181 1.260 . S
C178 C182 1.477 . S
C178 H196 0.932 . S
C179 C180 1.384 . S
C179 C181 1.479 . S
C179 H197 0.929 . S
C180 C177 1.424 . S
C180 C179 1.384 . S
C180 H198 0.928 . S
C181 C178 1.260 . S
C181 C179 1.479 . S
C182 C177 1.245 . S
C182 C178 1.477 . S
C182 H199 0.932 . S
C183 U166 2.882 . S
C183 C177 1.428 . S
C183 O186 1.301 . S
C183 O187 1.282 . S
O184 U166 2.441 . S
O184 C170 1.249 . S
O185 U166 2.420 . S
O185 C170 1.202 . S
O186 U166 2.455 . S
O186 C183 1.301 . S
O187 U166 2.449 . S
O187 C183 1.282 . S
H188 C161 0.931 . S
H189 C163 0.929 . S
H190 C164 0.930 . S
H191 C165 0.931 . S
H192 C172 0.932 . S
H193 C173 0.930 . S
H194 C174 0.929 . S
H195 C176 0.930 . S
H196 C178 0.932 . S
H197 C179 0.929 . S
H198 C180 0.928 . S
H199 C182 0.932 . S
C200 C201 1.264 . S
C200 C205 1.479 . S
C200 C210 1.465 . S
C201 C200 1.264 . S
C201 C203 1.339 . S
C201 H228 0.931 . S
C202 C203 1.395 . S
C202 C204 1.320 . S
C203 C201 1.339 . S
C203 C202 1.395 . S
C203 H229 0.929 . S
C204 C202 1.320 . S
C204 C205 1.405 . S
C204 H230 0.930 . S
C205 C200 1.479 . S
C205 C204 1.405 . S
C205 H231 0.931 . S
U206 O207 2.454 . S
U206 O208 2.458 . S
U206 C209 2.984 . S
U206 C210 2.847 1_455 S
U206 C223 2.882 . S
U206 O224 2.441 1_455 S
U206 O225 2.420 1_455 S
U206 O226 2.455 . S
U206 O227 2.449 1_455 S
O207 U206 2.454 . S
O207 C209 1.353 . S
O208 U206 2.458 . S
O208 C209 1.286 . S
C209 U206 2.984 . S
C209 O207 1.353 . S
C209 O208 1.286 . S
C209 C211 1.363 . S
C210 C200 1.465 . S
C210 U206 2.847 1_655 S
C210 O224 1.249 . S
C210 O225 1.202 . S
C211 C209 1.363 . S
C211 C213 1.408 . S
C211 C216 1.342 . S
C212 C213 1.310 . S
C212 C215 1.461 . S
C212 H232 0.932 . S
C213 C211 1.408 . S
C213 C212 1.310 . S
C213 H233 0.930 . S
C214 C215 1.474 . S
C214 C216 1.285 . S
C214 H234 0.929 . S
C215 C212 1.461 . S
C215 C214 1.474 . S
C216 C211 1.342 . S
C216 C214 1.285 . S
C216 H235 0.930 . S
C217 C220 1.424 1_455 S
C217 C222 1.245 . S
C217 C223 1.428 . S
C218 C221 1.260 1_556 S
C218 C222 1.477 . S
C218 H236 0.932 1_556 S
C219 C220 1.384 . S
C219 C221 1.479 1_656 S
C219 H237 0.929 1_556 S
C220 C217 1.424 1_655 S
C220 C219 1.384 . S
C220 H238 0.928 . S
C221 C218 1.260 1_554 S
C221 C219 1.479 1_454 S
C222 C217 1.245 . S
C222 C218 1.477 . S
C222 H239 0.932 . S
C223 U206 2.882 . S
C223 C217 1.428 . S
C223 O226 1.301 . S
C223 O227 1.282 1_455 S
O224 U206 2.441 1_655 S
O224 C210 1.249 . S
O225 U206 2.420 1_655 S
O225 C210 1.202 . S
O226 U206 2.455 . S
O226 C223 1.301 . S
O227 U206 2.449 1_655 S
O227 C223 1.282 1_655 S
H228 C201 0.931 . S
H229 C203 0.929 . S
H230 C204 0.930 . S
H231 C205 0.931 . S
H232 C212 0.932 . S
H233 C213 0.930 . S
H234 C214 0.929 . S
H235 C216 0.930 . S
H236 C218 0.932 1_554 S
H237 C219 0.929 1_554 S
H238 C220 0.928 . S
H239 C222 0.932 . S
C240 C241 1.264 . S
C240 C245 1.479 . S
C240 C250 1.465 . S
C241 C240 1.264 . S
C241 C243 1.339 . S
C241 H268 0.931 . S
C242 C243 1.395 . S
C242 C244 1.320 . S
C243 C241 1.339 . S
C243 C242 1.395 . S
C243 H269 0.929 . S
C244 C242 1.320 . S
C244 C245 1.405 . S
C244 H270 0.930 . S
C245 C240 1.479 . S
C245 C244 1.405 . S
C245 H271 0.931 . S
U246 O247 2.454 1_655 S
U246 O248 2.458 1_655 S
U246 C249 2.984 1_655 S
U246 C250 2.847 . S
U246 C263 2.882 . S
U246 O264 2.441 . S
U246 O265 2.420 . S
U246 O266 2.455 1_655 S
U246 O267 2.449 . S
O247 U246 2.454 1_455 S
O247 C249 1.353 . S
O248 U246 2.458 1_455 S
O248 C249 1.286 . S
C249 U246 2.984 1_455 S
C249 O247 1.353 . S
C249 O248 1.286 . S
C249 C251 1.363 . S
C250 C240 1.465 . S
C250 U246 2.847 . S
C250 O264 1.249 . S
C250 O265 1.202 . S
C251 C249 1.363 . S
C251 C253 1.408 . S
C251 C256 1.342 . S
C252 C253 1.310 . S
C252 C255 1.461 . S
C252 H272 0.932 . S
C253 C251 1.408 . S
C253 C252 1.310 . S
C253 H273 0.930 . S
C254 C255 1.474 . S
C254 C256 1.285 . S
C254 H274 0.929 . S
C255 C252 1.461 . S
C255 C254 1.474 . S
C256 C251 1.342 . S
C256 C254 1.285 . S
C256 H275 0.930 . S
C257 C260 1.424 . S
C257 C262 1.245 1_655 S
C257 C263 1.428 . S
C258 C261 1.260 1_455 S
C258 C262 1.477 . S
C258 H276 0.932 . S
C259 C260 1.384 . S
C259 C261 1.479 . S
C259 H277 0.929 . S
C260 C257 1.424 . S
C260 C259 1.384 . S
C260 H278 0.928 . S
C261 C258 1.260 1_655 S
C261 C259 1.479 . S
C262 C257 1.245 1_455 S
C262 C258 1.477 . S
C262 H279 0.932 . S
C263 U246 2.882 . S
C263 C257 1.428 . S
C263 O266 1.301 1_655 S
C263 O267 1.282 . S
O264 U246 2.441 . S
O264 C250 1.249 . S
O265 U246 2.420 . S
O265 C250 1.202 . S
O266 U246 2.455 1_455 S
O266 C263 1.301 1_455 S
O267 U246 2.449 . S
O267 C263 1.282 . S
H268 C241 0.931 . S
H269 C243 0.929 . S
H270 C244 0.930 . S
H271 C245 0.931 . S
H272 C252 0.932 . S
H273 C253 0.930 . S
H274 C254 0.929 . S
H275 C256 0.930 . S
H276 C258 0.932 . S
H277 C259 0.929 . S
H278 C260 0.928 . S
H279 C262 0.932 . S
C280 C281 1.264 . S
C280 C285 1.479 . S
C280 C290 1.465 . S
C281 C280 1.264 . S
C281 C283 1.339 . S
C281 H308 0.931 . S
C282 C283 1.395 . S
C282 C284 1.320 . S
C283 C281 1.339 . S
C283 C282 1.395 . S
C283 H309 0.929 . S
C284 C282 1.320 . S
C284 C285 1.405 . S
C284 H310 0.930 . S
C285 C280 1.479 . S
C285 C284 1.405 . S
C285 H311 0.931 . S
U286 O287 2.454 1_565 S
U286 O288 2.458 1_565 S
U286 C289 2.984 1_565 S
U286 C290 2.847 . S
U286 C303 2.882 . S
U286 O304 2.441 . S
U286 O305 2.420 . S
U286 O306 2.455 1_565 S
U286 O307 2.449 . S
O287 U286 2.454 1_545 S
O287 C289 1.353 . S
O288 U286 2.458 1_545 S
O288 C289 1.286 . S
C289 U286 2.984 1_545 S
C289 O287 1.353 . S
C289 O288 1.286 . S
C289 C291 1.363 . S
C290 C280 1.465 . S
C290 U286 2.847 . S
C290 O304 1.249 . S
C290 O305 1.202 . S
C291 C289 1.363 . S
C291 C293 1.408 . S
C291 C296 1.342 . S
C292 C293 1.310 . S
C292 C295 1.461 . S
C292 H312 0.932 . S
C293 C291 1.408 . S
C293 C292 1.310 . S
C293 H313 0.930 . S
C294 C295 1.474 . S
C294 C296 1.285 . S
C294 H314 0.929 . S
C295 C292 1.461 . S
C295 C294 1.474 . S
C296 C291 1.342 . S
C296 C294 1.285 . S
C296 H315 0.930 . S
C297 C300 1.424 . S
C297 C302 1.245 1_565 S
C297 C303 1.428 . S
C298 C301 1.260 1_545 S
C298 C302 1.477 . S
C298 H316 0.932 . S
C299 C300 1.384 . S
C299 C301 1.479 . S
C299 H317 0.929 . S
C300 C297 1.424 . S
C300 C299 1.384 . S
C300 H318 0.928 . S
C301 C298 1.260 1_565 S
C301 C299 1.479 . S
C302 C297 1.245 1_545 S
C302 C298 1.477 . S
C302 H319 0.932 . S
C303 U286 2.882 . S
C303 C297 1.428 . S
C303 O306 1.301 1_565 S
C303 O307 1.282 . S
O304 U286 2.441 . S
O304 C290 1.249 . S
O305 U286 2.420 . S
O305 C290 1.202 . S
O306 U286 2.455 1_545 S
O306 C303 1.301 1_545 S
O307 U286 2.449 . S
O307 C303 1.282 . S
H308 C281 0.931 . S
H309 C283 0.929 . S
H310 C284 0.930 . S
H311 C285 0.931 . S
H312 C292 0.932 . S
H313 C293 0.930 . S
H314 C294 0.929 . S
H315 C296 0.930 . S
H316 C298 0.932 . S
H317 C299 0.929 . S
H318 C300 0.928 . S
H319 C302 0.932 . S
C320 C321 1.264 . S
C320 C325 1.479 . S
C320 C330 1.465 . S
C321 C320 1.264 . S
C321 C323 1.339 . S
C321 H348 0.931 . S
C322 C323 1.395 . S
C322 C324 1.320 . S
C323 C321 1.339 . S
C323 C322 1.395 . S
C323 H349 0.929 . S
C324 C322 1.320 . S
C324 C325 1.405 . S
C324 H350 0.930 . S
C325 C320 1.479 . S
C325 C324 1.405 . S
C325 H351 0.931 . S
U326 O327 2.454 . S
U326 O328 2.458 . S
U326 C329 2.984 . S
U326 C330 2.847 . S
U326 C343 2.882 . S
U326 O344 2.441 . S
U326 O345 2.420 . S
U326 O346 2.455 . S
U326 O347 2.449 . S
O327 U326 2.454 . S
O327 C329 1.353 . S
O328 U326 2.458 . S
O328 C329 1.286 . S
C329 U326 2.984 . S
C329 O327 1.353 . S
C329 O328 1.286 . S
C329 C331 1.363 . S
C330 C320 1.465 . S
C330 U326 2.847 . S
C330 O344 1.249 . S
C330 O345 1.202 . S
C331 C329 1.363 . S
C331 C333 1.408 . S
C331 C336 1.342 . S
C332 C333 1.310 . S
C332 C335 1.461 . S
C332 H352 0.932 . S
C333 C331 1.408 . S
C333 C332 1.310 . S
C333 H353 0.930 . S
C334 C335 1.474 . S
C334 C336 1.285 . S
C334 H354 0.929 . S
C335 C332 1.461 . S
C335 C334 1.474 . S
C336 C331 1.342 . S
C336 C334 1.285 . S
C336 H355 0.930 . S
C337 C340 1.420 1_554 S
C337 C342 1.245 1_554 S
C337 C343 1.428 . S
C338 C341 1.260 . S
C338 C342 1.477 . S
C338 H356 0.932 . S
C339 C340 1.392 . S
C339 C341 1.479 . S
C339 H357 0.929 . S
C340 C337 1.420 1_556 S
C340 C339 1.392 . S
C340 H358 0.924 1_556 S
C341 C338 1.260 . S
C341 C339 1.479 . S
C342 C337 1.245 1_556 S
C342 C338 1.477 . S
C342 H359 0.932 1_556 S
C343 U326 2.882 . S
C343 C337 1.428 . S
C343 O346 1.301 . S
C343 O347 1.282 . S
O344 U326 2.441 . S
O344 C330 1.249 . S
O345 U326 2.420 . S
O345 C330 1.202 . S
O346 U326 2.455 . S
O346 C343 1.301 . S
O347 U326 2.449 . S
O347 C343 1.282 . S
H348 C321 0.931 . S
H349 C323 0.929 . S
H350 C324 0.930 . S
H351 C325 0.931 . S
H352 C332 0.932 . S
H353 C333 0.930 . S
H354 C334 0.929 . S
H355 C336 0.930 . S
H356 C338 0.932 . S
H357 C339 0.929 . S
H358 C340 0.924 1_554 S
H359 C342 0.932 1_554 S
C360 C361 1.387 . S
C360 H364 0.950 . S
C360 C369 1.390 . S
C361 C360 1.387 . S
C361 C363 1.387 . S
H362 C369 0.950 . S
C363 C361 1.387 . S
C363 C365 1.390 . S
C363 H367 0.950 . S
H364 C360 0.950 . S
C365 C363 1.390 . S
C365 C366 1.387 . S
C365 H368 0.950 . S
C366 C365 1.387 . S
C366 C369 1.387 . S
H367 C363 0.950 . S
H368 C365 0.950 . S
C369 C360 1.390 . S
C369 H362 0.950 . S
C369 C366 1.387 . S
C370 C371 1.387 . S
C370 H374 0.950 . S
C370 C379 1.390 . S
C371 C370 1.387 . S
C371 C373 1.387 . S
H372 C379 0.950 . S
C373 C371 1.387 . S
C373 C375 1.390 . S
C373 H377 0.950 . S
H374 C370 0.950 . S
C375 C373 1.390 . S
C375 C376 1.387 . S
C375 H378 0.950 . S
C376 C375 1.387 . S
C376 C379 1.387 . S
H377 C373 0.950 . S
H378 C375 0.950 . S
C379 C370 1.390 . S
C379 H372 0.950 . S
C379 C376 1.387 . S
C380 C381 1.387 . S
C380 H384 0.950 . S
C380 C389 1.390 . S
C381 C380 1.387 . S
C381 C383 1.387 . S
H382 C389 0.950 . S
C383 C381 1.387 . S
C383 C385 1.390 . S
C383 H387 0.950 . S
H384 C380 0.950 . S
C385 C383 1.390 . S
C385 C386 1.387 . S
C385 H388 0.950 . S
C386 C385 1.387 . S
C386 C389 1.387 . S
H387 C383 0.950 . S
H388 C385 0.950 . S
C389 C380 1.390 . S
C389 H382 0.950 . S
C389 C386 1.387 . S
C390 C391 1.387 . S
C390 H394 0.950 . S
C390 C399 1.390 . S
C391 C390 1.387 . S
C391 C393 1.387 . S
H392 C399 0.950 . S
C393 C391 1.387 . S
C393 C395 1.390 . S
C393 H397 0.950 . S
H394 C390 0.950 . S
C395 C393 1.390 . S
C395 C396 1.387 . S
C395 H398 0.950 . S
C396 C395 1.387 . S
C396 C399 1.387 . S
H397 C393 0.950 . S
H398 C395 0.950 . S
C399 C390 1.390 . S
C399 H392 0.950 . S
C399 C396 1.387 . S
C400 C401 1.387 . S
C400 H404 0.950 . S
C400 C409 1.390 . S
C401 C400 1.387 . S
C401 C403 1.387 . S
H402 C409 0.950 . S
C403 C401 1.387 . S
C403 C405 1.390 . S
C403 H407 0.950 . S
H404 C400 0.950 . S
C405 C403 1.390 . S
C405 C406 1.387 . S
C405 H408 0.950 . S
C406 C405 1.387 . S
C406 C409 1.387 . S
H407 C403 0.950 . S
H408 C405 0.950 . S
C409 C400 1.390 . S
C409 H402 0.950 . S
C409 C406 1.387 . S
C410 C411 1.387 . S
C410 H414 0.950 . S
C410 C419 1.390 . S
C411 C410 1.387 . S
C411 C413 1.387 . S
H412 C419 0.950 . S
C413 C411 1.387 . S
C413 C415 1.390 . S
C413 H417 0.950 . S
H414 C410 0.950 . S
C415 C413 1.390 . S
C415 C416 1.387 . S
C415 H418 0.950 . S
C416 C415 1.387 . S
C416 C419 1.387 . S
H417 C413 0.950 . S
H418 C415 0.950 . S
C419 C410 1.390 . S
C419 H412 0.950 . S
C419 C416 1.387 . S
C420 C421 1.387 . S
C420 H424 0.950 . S
C420 C429 1.390 . S
C421 C420 1.387 . S
C421 C423 1.387 . S
H422 C429 0.950 . S
C423 C421 1.387 . S
C423 C425 1.390 . S
C423 H427 0.950 . S
H424 C420 0.950 . S
C425 C423 1.390 . S
C425 C426 1.387 . S
C425 H428 0.950 . S
C426 C425 1.387 . S
C426 C429 1.387 . S
H427 C423 0.950 . S
H428 C425 0.950 . S
C429 C420 1.390 . S
C429 H422 0.950 . S
C429 C426 1.387 . S
C430 C431 1.387 . S
C430 H434 0.950 . S
C430 C439 1.390 . S
C431 C430 1.387 . S
C431 C433 1.387 . S
H432 C439 0.950 . S
C433 C431 1.387 . S
C433 C435 1.390 . S
C433 H437 0.950 . S
H434 C430 0.950 . S
C435 C433 1.390 . S
C435 C436 1.387 . S
C435 H438 0.950 . S
C436 C435 1.387 . S
C436 C439 1.387 . S
H437 C433 0.950 . S
H438 C435 0.950 . S
C439 C430 1.390 . S
C439 H432 0.950 . S
C439 C436 1.387 . S
C440 C441 1.387 . S
C440 H444 0.950 . S
C440 C449 1.390 . S
C441 C440 1.387 . S
C441 C443 1.387 . S
H442 C449 0.950 . S
C443 C441 1.387 . S
C443 C445 1.390 . S
C443 H447 0.950 . S
H444 C440 0.950 . S
C445 C443 1.390 . S
C445 C446 1.387 . S
C445 H448 0.950 . S
C446 C445 1.387 . S
C446 C449 1.387 . S
H447 C443 0.950 . S
H448 C445 0.950 . S
C449 C440 1.390 . S
C449 H442 0.950 . S
C449 C446 1.387 . S
C450 C451 1.387 . S
C450 H454 0.950 . S
C450 C459 1.390 . S
C451 C450 1.387 . S
C451 C453 1.387 . S
H452 C459 0.950 . S
C453 C451 1.387 . S
C453 C455 1.390 . S
C453 H457 0.950 . S
H454 C450 0.950 . S
C455 C453 1.390 . S
C455 C456 1.387 . S
C455 H458 0.950 . S
C456 C455 1.387 . S
C456 C459 1.387 . S
H457 C453 0.950 . S
H458 C455 0.950 . S
C459 C450 1.390 . S
C459 H452 0.950 . S
C459 C456 1.387 . S
C460 C461 1.387 . S
C460 H464 0.950 . S
C460 C469 1.390 . S
C461 C460 1.387 . S
C461 C463 1.387 . S
H462 C469 0.950 . S
C463 C461 1.387 . S
C463 C465 1.390 . S
C463 H467 0.950 . S
H464 C460 0.950 . S
C465 C463 1.390 . S
C465 C466 1.387 . S
C465 H468 0.950 . S
C466 C465 1.387 . S
C466 C469 1.387 . S
H467 C463 0.950 . S
H468 C465 0.950 . S
C469 C460 1.390 . S
C469 H462 0.950 . S
C469 C466 1.387 . S
C470 C471 1.387 . S
C470 H474 0.950 . S
C470 C479 1.390 . S
C471 C470 1.387 . S
C471 C473 1.387 . S
H472 C479 0.950 . S
C473 C471 1.387 . S
C473 C475 1.390 . S
C473 H477 0.950 . S
H474 C470 0.950 . S
C475 C473 1.390 . S
C475 C476 1.387 . S
C475 H478 0.950 . S
C476 C475 1.387 . S
C476 C479 1.387 . S
H477 C473 0.950 . S
H478 C475 0.950 . S
C479 C470 1.390 . S
C479 H472 0.950 . S
C479 C476 1.387 . S
C480 C481 1.387 . S
C480 H484 0.950 . S
C480 C489 1.390 . S
C481 C480 1.387 . S
C481 C483 1.387 1_455 S
H482 C489 0.950 . S
C483 C481 1.387 1_655 S
C483 C485 1.390 . S
C483 H487 0.950 . S
H484 C480 0.950 . S
C485 C483 1.390 . S
C485 C486 1.387 1_655 S
C485 H488 0.950 . S
C486 C485 1.387 1_455 S
C486 C489 1.387 . S
H487 C483 0.950 . S
H488 C485 0.950 . S
C489 C480 1.390 . S
C489 H482 0.950 . S
C489 C486 1.387 . S
C490 C491 1.387 1_565 S
C490 H494 0.950 . S
C490 C499 1.390 . S
C491 C490 1.387 1_545 S
C491 C493 1.387 . S
H492 C499 0.950 . S
C493 C491 1.387 . S
C493 C495 1.390 . S
C493 H497 0.950 . S
H494 C490 0.950 . S
C495 C493 1.390 . S
C495 C496 1.387 . S
C495 H498 0.950 . S
C496 C495 1.387 . S
C496 C499 1.387 1_545 S
H497 C493 0.950 . S
H498 C495 0.950 . S
C499 C490 1.390 . S
C499 H492 0.950 . S
C499 C496 1.387 1_565 S
C500 C501 1.387 . S
C500 H504 0.950 . S
C500 C509 1.390 . S
C501 C500 1.387 . S
C501 C503 1.387 . S
H502 C509 0.950 . S
C503 C501 1.387 . S
C503 C505 1.390 . S
C503 H507 0.950 . S
H504 C500 0.950 . S
C505 C503 1.390 . S
C505 C506 1.387 . S
C505 H508 0.950 . S
C506 C505 1.387 . S
C506 C509 1.387 . S
H507 C503 0.950 . S
H508 C505 0.950 . S
C509 C500 1.390 . S
C509 H502 0.950 . S
C509 C506 1.387 . S
C510 C511 1.387 . S
C510 H514 0.950 . S
C510 C519 1.390 . S
C511 C510 1.387 . S
C511 C513 1.387 1_545 S
H512 C519 0.950 . S
C513 C511 1.387 1_565 S
C513 C515 1.390 . S
C513 H517 0.950 . S
H514 C510 0.950 . S
C515 C513 1.390 . S
C515 C516 1.387 . S
C515 H518 0.950 . S
C516 C515 1.387 . S
C516 C519 1.387 1_565 S
H517 C513 0.950 . S
H518 C515 0.950 . S
C519 C510 1.390 . S
C519 H512 0.950 . S
C519 C516 1.387 1_545 S
C520 C521 1.387 . S
C520 H524 0.950 . S
C520 C529 1.390 . S
C521 C520 1.387 . S
C521 C523 1.387 . S
H522 C529 0.950 . S
C523 C521 1.387 . S
C523 C525 1.390 . S
C523 H527 0.950 . S
H524 C520 0.950 . S
C525 C523 1.390 . S
C525 C526 1.387 . S
C525 H528 0.950 . S
C526 C525 1.387 . S
C526 C529 1.387 . S
H527 C523 0.950 . S
H528 C525 0.950 . S
C529 C520 1.390 . S
C529 H522 0.950 . S
C529 C526 1.387 . S
C530 C531 1.387 . S
C530 H534 0.950 . S
C530 C539 1.390 . S
C531 C530 1.387 . S
C531 C533 1.387 1_455 S
H532 C539 0.950 . S
C533 C531 1.387 1_655 S
C533 C535 1.390 . S
C533 H537 0.950 . S
H534 C530 0.950 . S
C535 C533 1.390 . S
C535 C536 1.387 . S
C535 H538 0.950 . S
C536 C535 1.387 . S
C536 C539 1.387 1_655 S
H537 C533 0.950 . S
H538 C535 0.950 . S
C539 C530 1.390 . S
C539 H532 0.950 . S
C539 C536 1.387 1_455 S
C361 C6 0.876 . S
C366 C335 0.904 . S
C371 C59 2.085 . S
C376 C242 2.049 . S
C381 C86 1.312 . S
C386 C282 1.340 . S
C391 C15 0.573 . S
C396 C322 0.501 . S
C406 C255 2.155 . S
C401 C50 2.285 . S
C416 C295 1.372 . S
C411 C95 1.369 . S
C421 C46 1.262 . S
C426 C162 1.256 . S
C431 C99 3.244 . S
C436 C202 3.200 . S
C441 C10 2.315 . S
C446 C135 2.203 . S
C456 C175 1.370 . S
C451 C55 1.352 . S
C466 C215 3.110 . S
C461 C90 3.199 . S
C471 C19 2.083 . S
C476 C122 2.053 . S
C486 C221 1.766 . S
C481 C18 1.713 . S
C491 C49 1.342 . S
C496 C141 1.377 . S
C501 C98 1.461 . S
C506 C181 1.504 . S
C516 C301 1.495 . S
C511 C58 1.454 . S
C526 C341 1.112 . S
C521 C89 1.105 . S
C531 C9 1.332 . S
C536 C261 1.365 . S
