# Generated by pormake.
# Topology myd, (4,6)-cn, num edge types: 1
# Building blocks:
#     Node 0, Type 0, BuildingBlock: NAWXER_clean_sbu_0, # of connection points: 4
#     Node 1, Type 0, BuildingBlock: NAWXER_clean_sbu_0, # of connection points: 4
#     Node 2, Type 0, BuildingBlock: NAWXER_clean_sbu_0, # of connection points: 4
#     Node 3, Type 0, BuildingBlock: NAWXER_clean_sbu_0, # of connection points: 4
#     Node 4, Type 0, BuildingBlock: NAWXER_clean_sbu_0, # of connection points: 4
#     Node 5, Type 0, BuildingBlock: NAWXER_clean_sbu_0, # of connection points: 4
#     Node 6, Type 0, BuildingBlock: NAWXER_clean_sbu_0, # of connection points: 4
#     Node 7, Type 0, BuildingBlock: NAWXER_clean_sbu_0, # of connection points: 4
#     Node 8, Type 0, BuildingBlock: NAWXER_clean_sbu_0, # of connection points: 4
#     Node 9, Type 0, BuildingBlock: NAWXER_clean_sbu_0, # of connection points: 4
#     Node 10, Type 0, BuildingBlock: NAWXER_clean_sbu_0, # of connection points: 4
#     Node 11, Type 0, BuildingBlock: NAWXER_clean_sbu_0, # of connection points: 4
#     Node 12, Type 1, BuildingBlock: JUFBIX_clean_sbu_0, # of connection points: 6
#     Node 13, Type 1, BuildingBlock: JUFBIX_clean_sbu_0, # of connection points: 6
#     Node 14, Type 1, BuildingBlock: JUFBIX_clean_sbu_0, # of connection points: 6
#     Node 15, Type 1, BuildingBlock: JUFBIX_clean_sbu_0, # of connection points: 6
#     Node 16, Type 1, BuildingBlock: JUFBIX_clean_sbu_0, # of connection points: 6
#     Node 17, Type 1, BuildingBlock: JUFBIX_clean_sbu_0, # of connection points: 6
#     Node 18, Type 1, BuildingBlock: JUFBIX_clean_sbu_0, # of connection points: 6
#     Node 19, Type 1, BuildingBlock: JUFBIX_clean_sbu_0, # of connection points: 6
#     Edge 20, Type (0, 1), BuildingBlock: AJUNOK_clean_linker_0, # of connection points: 2
#     Edge 21, Type (0, 1), BuildingBlock: AJUNOK_clean_linker_0, # of connection points: 2
#     Edge 22, Type (0, 1), BuildingBlock: AJUNOK_clean_linker_0, # of connection points: 2
#     Edge 23, Type (0, 1), BuildingBlock: AJUNOK_clean_linker_0, # of connection points: 2
#     Edge 24, Type (0, 1), BuildingBlock: AJUNOK_clean_linker_0, # of connection points: 2
#     Edge 25, Type (0, 1), BuildingBlock: AJUNOK_clean_linker_0, # of connection points: 2
#     Edge 26, Type (0, 1), BuildingBlock: AJUNOK_clean_linker_0, # of connection points: 2
#     Edge 27, Type (0, 1), BuildingBlock: AJUNOK_clean_linker_0, # of connection points: 2
#     Edge 28, Type (0, 1), BuildingBlock: AJUNOK_clean_linker_0, # of connection points: 2
#     Edge 29, Type (0, 1), BuildingBlock: AJUNOK_clean_linker_0, # of connection points: 2
#     Edge 30, Type (0, 1), BuildingBlock: AJUNOK_clean_linker_0, # of connection points: 2
#     Edge 31, Type (0, 1), BuildingBlock: AJUNOK_clean_linker_0, # of connection points: 2
#     Edge 32, Type (0, 1), BuildingBlock: AJUNOK_clean_linker_0, # of connection points: 2
#     Edge 33, Type (0, 1), BuildingBlock: AJUNOK_clean_linker_0, # of connection points: 2
#     Edge 34, Type (0, 1), BuildingBlock: AJUNOK_clean_linker_0, # of connection points: 2
#     Edge 35, Type (0, 1), BuildingBlock: AJUNOK_clean_linker_0, # of connection points: 2
#     Edge 36, Type (0, 1), BuildingBlock: AJUNOK_clean_linker_0, # of connection points: 2
#     Edge 37, Type (0, 1), BuildingBlock: AJUNOK_clean_linker_0, # of connection points: 2
#     Edge 38, Type (0, 1), BuildingBlock: AJUNOK_clean_linker_0, # of connection points: 2
#     Edge 39, Type (0, 1), BuildingBlock: AJUNOK_clean_linker_0, # of connection points: 2
#     Edge 40, Type (0, 1), BuildingBlock: AJUNOK_clean_linker_0, # of connection points: 2
#     Edge 41, Type (0, 1), BuildingBlock: AJUNOK_clean_linker_0, # of connection points: 2
#     Edge 42, Type (0, 1), BuildingBlock: AJUNOK_clean_linker_0, # of connection points: 2
#     Edge 43, Type (0, 1), BuildingBlock: AJUNOK_clean_linker_0, # of connection points: 2
#     Edge 44, Type (0, 1), BuildingBlock: AJUNOK_clean_linker_0, # of connection points: 2
#     Edge 45, Type (0, 1), BuildingBlock: AJUNOK_clean_linker_0, # of connection points: 2
#     Edge 46, Type (0, 1), BuildingBlock: AJUNOK_clean_linker_0, # of connection points: 2
#     Edge 47, Type (0, 1), BuildingBlock: AJUNOK_clean_linker_0, # of connection points: 2
#     Edge 48, Type (0, 1), BuildingBlock: AJUNOK_clean_linker_0, # of connection points: 2
#     Edge 49, Type (0, 1), BuildingBlock: AJUNOK_clean_linker_0, # of connection points: 2
#     Edge 50, Type (0, 1), BuildingBlock: AJUNOK_clean_linker_0, # of connection points: 2
#     Edge 51, Type (0, 1), BuildingBlock: AJUNOK_clean_linker_0, # of connection points: 2
#     Edge 52, Type (0, 1), BuildingBlock: AJUNOK_clean_linker_0, # of connection points: 2
#     Edge 53, Type (0, 1), BuildingBlock: AJUNOK_clean_linker_0, # of connection points: 2
#     Edge 54, Type (0, 1), BuildingBlock: AJUNOK_clean_linker_0, # of connection points: 2
#     Edge 55, Type (0, 1), BuildingBlock: AJUNOK_clean_linker_0, # of connection points: 2
#     Edge 56, Type (0, 1), BuildingBlock: AJUNOK_clean_linker_0, # of connection points: 2
#     Edge 57, Type (0, 1), BuildingBlock: AJUNOK_clean_linker_0, # of connection points: 2
#     Edge 58, Type (0, 1), BuildingBlock: AJUNOK_clean_linker_0, # of connection points: 2
#     Edge 59, Type (0, 1), BuildingBlock: AJUNOK_clean_linker_0, # of connection points: 2
#     Edge 60, Type (0, 1), BuildingBlock: AJUNOK_clean_linker_0, # of connection points: 2
#     Edge 61, Type (0, 1), BuildingBlock: AJUNOK_clean_linker_0, # of connection points: 2
#     Edge 62, Type (0, 1), BuildingBlock: AJUNOK_clean_linker_0, # of connection points: 2
#     Edge 63, Type (0, 1), BuildingBlock: AJUNOK_clean_linker_0, # of connection points: 2
#     Edge 64, Type (0, 1), BuildingBlock: AJUNOK_clean_linker_0, # of connection points: 2
#     Edge 65, Type (0, 1), BuildingBlock: AJUNOK_clean_linker_0, # of connection points: 2
#     Edge 66, Type (0, 1), BuildingBlock: AJUNOK_clean_linker_0, # of connection points: 2
#     Edge 67, Type (0, 1), BuildingBlock: AJUNOK_clean_linker_0, # of connection points: 2
# Relax obj value: 0.281
# Max RMSD: 0.243
# Mean RMSD: 0.146
data_MOF--net-myd--node1-NAWXER_clean_sbu_0--node2-JUFBIX_clean_sbu_0--edge1-AJUNOK_clean_linker_0
_symmetry_space_group_name_H-M    P1
_symmetry_Int_Tables_number       1
_symmetry_cell_setting            triclinic
loop_
_symmetry_equiv_pos_as_xyz
'x, y, z'
_cell_length_a     32.007221
_cell_length_b     35.282923
_cell_length_c     34.496672
_cell_angle_alpha  90.26284
_cell_angle_beta   86.653376
_cell_angle_gamma 90.697427
loop_
_atom_site_label
_atom_site_type_symbol
_atom_site_fract_x
_atom_site_fract_y
_atom_site_fract_z
_atom_type_partial_charge
C0 C 0.06244 0.17018 0.27772 0.0
C1 C 0.05718 0.27472 0.37257 0.0
O2 O 0.09352 0.1907 0.28686 0.0
Zn3 Zn 0.06525 0.21724 0.33052 0.0
O4 O 1.02733 0.17299 0.29715 0.0
Zn5 Zn 0.99954 0.20576 0.344 0.0
O6 O 0.95616 0.23008 0.31548 0.0
O7 O 1.02189 0.24547 0.29723 0.0
O8 O 1.02295 0.25565 0.37121 0.0
O9 O 0.09063 0.2613 0.35644 0.0
O10 O 0.05399 0.17247 0.37078 0.0
O11 O 0.9856 0.16703 0.38226 0.0
C12 C 0.98261 0.24829 0.29337 0.0
C13 C 1.02229 0.1554 0.38733 0.0
C14 C 0.09779 0.75253 0.23461 0.0
C15 C 0.05745 0.65631 0.14242 0.0
O16 O 0.12391 0.7332 0.21368 0.0
Zn17 Zn 0.08062 0.70475 0.18796 0.0
O18 O 0.05844 0.74723 0.23275 0.0
Zn19 Zn 1.01529 0.71455 0.20271 0.0
O20 O 0.98817 0.68571 0.24534 0.0
O21 O 0.05462 0.67101 0.23562 0.0
O22 O 1.02648 0.67261 0.16028 0.0
O23 O 0.09466 0.66637 0.149 0.0
O24 O 0.05413 0.75131 0.15764 0.0
O25 O 0.98739 0.75513 0.17637 0.0
C26 C 1.01935 0.66627 0.25463 0.0
C27 C 1.01906 0.76837 0.15653 0.0
C28 C 0.39155 0.99889 0.18492 0.0
C29 C 0.29012 0.97279 0.29521 0.0
O30 O 0.37966 0.96617 0.19682 0.0
Zn31 Zn 0.3399 0.98271 0.23906 0.0
O32 O 0.37635 0.02836 0.20216 0.0
Zn33 Zn 0.3316 0.04293 0.24783 0.0
O34 O 0.3636 0.06934 0.28718 0.0
O35 O 0.37815 1.00845 0.28138 0.0
O36 O 0.29602 1.00776 0.28698 0.0
O37 O 0.30781 0.94743 0.27372 0.0
O38 O 0.29129 1.00585 0.20697 0.0
O39 O 0.28797 0.06706 0.21911 0.0
C40 C 0.38342 0.04053 0.29814 0.0
C41 C 0.27463 0.038 0.2013 0.0
C42 C 0.77199 0.46755 0.24957 0.0
C43 C 0.66631 0.48392 0.35957 0.0
O44 O 0.75642 0.4406 0.27062 0.0
Zn45 Zn 0.71917 0.47164 0.30518 0.0
O46 O 0.76159 0.50168 0.25755 0.0
Zn47 Zn 0.7216 0.53294 0.2967 0.0
O48 O 0.76246 0.56216 0.32594 0.0
O49 O 0.76361 0.50086 0.33718 0.0
O50 O 0.67911 0.51423 0.34213 0.0
O51 O 0.68057 0.45208 0.34769 0.0
O52 O 0.67985 0.49225 0.26286 0.0
O53 O 0.68556 0.5544 0.25855 0.0
C54 C 0.77772 0.53422 0.34345 0.0
C55 C 0.67023 0.5232 0.24658 0.0
C56 C 0.21064 0.41333 0.99754 0.0
C57 C 0.32356 0.32211 0.97539 0.0
O58 O 0.22734 0.40303 0.96489 0.0
Zn59 Zn 0.27227 0.3721 0.9837 0.0
O60 O 0.22889 0.40532 0.02862 0.0
Zn61 Zn 0.2809 0.37198 0.04504 0.0
O62 O 0.32512 0.40395 0.06471 0.0
O63 O 0.32396 0.40664 1.00097 0.0
O64 O 0.31803 0.33326 1.01061 0.0
O65 O 0.3022 0.33613 0.94903 0.0
O66 O 0.23575 0.33221 1.01747 0.0
O67 O 0.25152 0.3351 0.07914 0.0
C68 C 0.34186 0.415 0.03232 0.0
C69 C 0.23028 0.32074 0.05251 0.0
C70 C 0.23264 0.74741 0.49286 0.0
C71 C 0.34166 0.64849 0.50292 0.0
O72 O 0.25302 0.7331 0.46349 0.0
Zn73 Zn 0.28504 0.69518 0.49201 0.0
O74 O 0.23721 0.73371 0.52653 0.0
Zn75 Zn 0.27109 0.6922 0.55513 0.0
O76 O 0.30298 0.72702 0.58844 0.0
O77 O 0.31887 0.733 0.52569 0.0
O78 O 0.32039 0.6565 0.53439 0.0
O79 O 0.33214 0.66384 0.47122 0.0
O80 O 0.23751 0.65563 0.50842 0.0
O81 O 0.22531 0.65691 0.57199 0.0
C82 C 0.324 0.74348 0.56056 0.0
C83 C 0.21688 0.64361 0.53885 0.0
C84 C 0.71724 0.90932 0.5168 0.0
C85 C 0.83139 0.82484 0.47682 0.0
O86 O 0.7325 0.90402 0.48237 0.0
Zn87 Zn 0.77975 0.87252 0.49439 0.0
O88 O 0.73815 0.89856 0.54535 0.0
Zn89 Zn 0.79331 0.86619 0.55418 0.0
O90 O 0.83749 0.89786 0.57428 0.0
O91 O 0.83147 0.90653 0.51169 0.0
O92 O 0.8287 0.83203 0.51324 0.0
O93 O 0.80764 0.84134 0.45397 0.0
O94 O 0.7473 0.82817 0.52577 0.0
O95 O 0.76821 0.82524 0.58584 0.0
C96 C 0.85131 0.91258 0.54244 0.0
C97 C 0.74525 0.81297 0.55943 0.0
C98 C 0.4669 0.75246 0.80483 0.0
C99 C 0.50739 0.6528 0.89269 0.0
O100 O 0.44003 0.73257 0.82487 0.0
Zn101 Zn 0.48296 0.70525 0.85216 0.0
O102 O 0.50598 0.7487 0.8089 0.0
Zn103 Zn 0.54886 0.71798 0.83951 0.0
O104 O 0.57761 0.69387 0.79448 0.0
O105 O 0.51147 0.67563 0.80329 0.0
O106 O 0.53822 0.67175 0.87715 0.0
O107 O 0.47011 0.66296 0.88754 0.0
O108 O 0.50613 0.75263 0.88428 0.0
O109 O 0.57349 0.7594 0.86878 0.0
C110 C 0.54678 0.67378 0.78399 0.0
C111 C 0.54039 0.77145 0.88684 0.0
C112 C 0.51088 0.17186 0.75251 0.0
C113 C 0.50817 0.26976 0.65171 0.0
O114 O 0.47921 0.18981 0.74196 0.0
Zn115 Zn 0.50561 0.21618 0.69764 0.0
O116 O 0.54581 0.17552 0.73263 0.0
Zn117 Zn 0.5705 0.20679 0.68258 0.0
O118 O 0.61459 0.23547 0.70684 0.0
O119 O 0.54936 0.2501 0.72641 0.0
O120 O 0.54365 0.25331 0.65243 0.0
O121 O 0.47675 0.25577 0.67124 0.0
O122 O 0.51583 0.1723 0.65676 0.0
O123 O 0.58389 0.16738 0.64453 0.0
C124 C 0.58882 0.25539 0.72755 0.0
C125 C 0.5469 0.15591 0.63912 0.0
C126 C 0.76864 0.53797 0.70984 0.0
C127 C 0.87885 0.54487 0.8049 0.0
O128 O 0.78022 0.56779 0.72748 0.0
Zn129 Zn 0.82608 0.5458 0.75516 0.0
O130 O 0.78804 0.50699 0.71458 0.0
Zn131 Zn 0.83882 0.48614 0.74512 0.0
O132 O 0.80923 0.44861 0.77909 0.0
O133 O 0.79359 0.50802 0.79375 0.0
O134 O 0.8752 0.51279 0.78782 0.0
O135 O 0.85755 0.57285 0.79404 0.0
O136 O 0.87053 0.53495 0.70899 0.0
O137 O 0.87959 0.47345 0.7022 0.0
C138 C 0.79006 0.47268 0.80118 0.0
C139 C 0.88822 0.50714 0.69097 0.0
C140 C 0.27145 0.97322 0.73736 0.0
C141 C 0.1715 0.98557 0.85323 0.0
O142 O 0.25677 0.94532 0.75761 0.0
Zn143 Zn 0.2236 0.97496 0.79737 0.0
O144 O 0.26293 1.00693 0.74871 0.0
Zn145 Zn 0.226 0.03639 0.79175 0.0
O146 O 0.26772 0.06353 0.82072 0.0
O147 O 0.27105 1.00167 0.82861 0.0
O148 O 0.18427 0.01638 0.83688 0.0
O149 O 0.18596 0.95411 0.84039 0.0
O150 O 0.18173 0.99851 0.75879 0.0
O151 O 0.18872 0.06074 0.75669 0.0
C152 C 0.28453 0.03509 0.83594 0.0
C153 C 0.17186 0.03033 0.74443 0.0
C154 C 0.71796 0.14894 0.04111 0.0
C155 C 0.8266 0.24795 0.05844 0.0
O156 O 0.7272 0.16268 0.07383 0.0
Zn157 Zn 0.77369 0.19628 0.05514 0.0
O158 O 0.7387 0.15959 1.01018 0.0
Zn159 Zn 0.78706 0.19769 0.99185 0.0
O160 O 0.83357 0.16462 0.97206 0.0
O161 O 0.82189 0.1589 0.03535 0.0
O162 O 0.82128 0.23668 0.02385 0.0
O163 O 0.80597 0.23198 0.08684 0.0
O164 O 0.73929 0.2366 0.0255 0.0
O165 O 0.75431 0.23485 0.96242 0.0
C166 C 0.84265 0.14951 1.00403 0.0
C167 C 0.73392 0.24949 0.99166 0.0
Co168 Co 0.05663 0.03217 0.07695 0.0
C169 C 0.05318 0.09317 0.12909 0.0
Co170 Co 0.08252 0.08592 0.0527 0.0
C171 C 0.04234 0.95057 0.0928 0.0
C172 C 0.99774 0.98686 0.12223 0.0
N173 N 0.03207 0.98754 0.09771 0.0
N174 N 1.01589 0.92689 0.11372 0.0
C175 C 0.98798 0.95008 0.1322 0.0
H176 H 0.06829 0.94151 0.07369 0.0
H177 H 0.98079 1.01165 0.13242 0.0
C178 C 0.09022 0.02572 1.00057 0.0
N179 N 0.10502 0.13069 0.03325 0.0
C180 C 0.12579 0.15719 0.05313 0.0
C181 C 0.09973 0.14638 0.99831 0.0
N182 N 0.13285 0.18901 0.03241 0.0
C183 C 0.11689 0.18235 0.99771 0.0
C184 C 0.13947 0.04455 0.09378 0.0
O185 O 0.07191 1.00654 0.02803 0.0
O186 O 0.09791 0.06071 1.00587 0.0
O187 O 0.13445 0.07387 0.07335 0.0
O188 O 0.10991 0.01989 0.097 0.0
O189 O 0.0678 0.11101 0.0995 0.0
H190 H 0.08323 0.133 0.97531 0.0
H191 H 0.1339 0.15396 0.08289 0.0
O192 O 0.04351 0.05829 0.12548 0.0
O193 O 1.0027 0.04632 0.05747 0.0
O194 O 0.03045 0.09849 0.0329 0.0
C195 C 0.99864 0.07705 0.03869 0.0
H196 H 0.96256 0.94129 0.15234 0.0
H197 H 0.11739 0.20214 0.9738 0.0
Co198 Co 0.98325 0.43505 0.10669 0.0
C199 C 0.99732 0.51127 0.09435 0.0
Co200 Co 0.95212 0.45679 0.0559 0.0
C201 C 1.00569 0.37932 0.16059 0.0
C202 C 1.01122 0.43519 0.18393 0.0
N203 N 1.00679 0.41613 0.15036 0.0
N204 N 1.0063 0.37462 0.1992 0.0
C205 C 1.01075 0.40972 0.21402 0.0
H206 H 0.99928 0.35656 0.14079 0.0
H207 H 1.00927 0.46563 0.18719 0.0
C208 C 0.9359 0.38076 0.06842 0.0
N209 N 0.92543 0.47638 1.01344 0.0
C210 C 0.94072 0.49538 0.98144 0.0
C211 C 0.88366 0.47487 1.00982 0.0
N212 N 0.90989 0.50617 0.9587 0.0
C213 C 0.8741 0.49324 0.97657 0.0
C214 C 0.03555 0.434 0.04056 0.0
O215 O 0.95878 0.38681 0.09655 0.0
O216 O 0.93112 0.40739 0.04444 0.0
O217 O 1.00435 0.44799 0.02409 0.0
O218 O 0.0311 0.42396 0.07585 0.0
O219 O 0.97246 0.50588 0.06742 0.0
H220 H 0.86135 0.46093 0.0299 0.0
H221 H 0.97364 0.50137 0.97505 0.0
O222 O 1.00638 0.48367 0.11574 0.0
O223 O 0.93637 0.44573 0.13847 0.0
O224 O 0.90139 0.46508 0.09002 0.0
C225 C 0.90244 0.4567 0.12589 0.0
H226 H 1.00988 0.41676 0.24463 0.0
H227 H 0.84325 0.49589 0.96563 0.0
Co228 Co 0.11004 0.9564 0.48515 0.0
C229 C 0.1637 0.95056 0.41927 0.0
Co230 Co 0.08115 0.92912 0.43559 0.0
C231 C 0.11945 0.98307 0.5647 0.0
C232 C 0.16352 1.00853 0.52345 0.0
N233 N 0.13241 0.98239 0.52664 0.0
N234 N 0.1415 1.00837 0.58533 0.0
C235 C 0.16932 0.02421 0.55922 0.0
H236 H 0.09339 0.96624 0.5766 0.0
H237 H 0.18045 0.01657 0.49668 0.0
C238 C 1.0253 0.93452 0.49838 0.0
N239 N 0.06138 0.90466 0.39321 0.0
C240 C 0.08357 0.8777 0.37379 0.0
C241 C 0.02918 0.91208 0.37097 0.0
N242 N 0.0673 0.86837 0.34017 0.0
C243 C 0.03281 0.88962 0.33803 0.0
C244 C 0.12467 0.87949 0.48216 0.0
O245 O 0.05635 0.94956 0.51461 0.0
O246 O 0.03035 0.92178 0.464 0.0
O247 O 0.10194 0.88203 0.45333 0.0
O248 O 0.13028 0.90896 0.50283 0.0
O249 O 0.13102 0.93641 0.40633 0.0
H250 H 1.00581 0.93345 0.3774 0.0
H251 H 0.11286 0.86671 0.38283 0.0
O252 O 0.16244 0.96272 0.45411 0.0
O253 O 0.09091 1.00337 0.46713 0.0
O254 O 0.06121 0.97661 0.41821 0.0
C255 C 0.0694 1.0063 0.43756 0.0
H256 H 0.19262 0.04551 0.56549 0.0
H257 H 1.01216 0.88925 0.31427 0.0
Co258 Co 0.97862 0.59357 0.47779 0.0
C259 C 0.06183 0.57645 0.49371 0.0
Co260 Co 0.9988 0.53521 0.46205 0.0
C261 C 0.94306 0.66678 0.46674 0.0
C262 C 0.97887 0.66548 0.51727 0.0
N263 N 0.96643 0.6438 0.4877 0.0
N264 N 0.94025 0.70187 0.48216 0.0
C265 C 0.96289 0.70124 0.51388 0.0
H266 H 0.92842 0.65792 0.44063 0.0
H267 H 0.99784 0.65576 0.5401 0.0
C268 C 0.91598 0.55358 0.44524 0.0
N269 N 1.00847 0.48279 0.45318 0.0
C270 C 0.03513 0.46118 0.43043 0.0
C271 C 0.98229 0.45715 0.47113 0.0
N272 N 1.02646 0.42351 0.43463 0.0
C273 C 0.99328 0.42131 0.46013 0.0
C274 C 0.96424 0.54689 0.53948 0.0
O275 O 0.92436 0.58566 0.45975 0.0
O276 O 0.94327 0.52769 0.44547 0.0
O277 O 0.98066 0.52319 0.51547 0.0
O278 O 0.95926 0.58067 0.52849 0.0
O279 O 0.05472 0.54411 0.47842 0.0
H280 H 0.95518 0.46395 0.48991 0.0
H281 H 0.05896 0.47273 0.41012 0.0
O282 O 0.03314 0.60112 0.49549 0.0
O283 O 0.99726 0.60664 0.42721 0.0
O284 O 1.01599 0.54916 0.40884 0.0
C285 C 1.01044 0.58405 0.40067 0.0
H286 H 0.96642 0.72463 0.5339 0.0
H287 H 0.97666 0.39543 0.46856 0.0
Co288 Co 0.4735 0.93448 0.60961 0.0
C289 C 0.49191 1.00927 0.58963 0.0
Co290 Co 0.45394 0.95082 0.55131 0.0
C291 C 0.48807 0.88616 0.6725 0.0
C292 C 0.47851 0.94284 0.69264 0.0
N293 N 0.48517 0.92207 0.66002 0.0
N294 N 0.48126 0.88296 0.71127 0.0
C295 C 0.47607 0.91886 0.7242 0.0
H296 H 0.49042 0.86243 0.65284 0.0
H297 H 0.47148 0.97276 0.69319 0.0
C298 C 0.43374 0.87579 0.57233 0.0
N299 N 0.44237 0.96112 0.49905 0.0
C300 C 0.43535 0.99301 0.47833 0.0
C301 C 0.4467 0.93364 0.47173 0.0
N302 N 0.4357 0.98592 0.4395 0.0
C303 C 0.44216 0.94849 0.43578 0.0
C304 C 0.53805 0.92552 0.55586 0.0
O305 O 0.45096 0.88504 0.60297 0.0
O306 O 0.43391 0.89975 0.54502 0.0
O307 O 0.51107 0.93754 0.5331 0.0
O308 O 0.52667 0.9194 0.59115 0.0
O309 O 0.47309 1.00149 0.55898 0.0
H310 H 0.45473 0.90455 0.47707 0.0
H311 H 0.43206 0.02096 0.49112 0.0
O312 O 0.49509 0.98411 0.61558 0.0
O313 O 0.42111 0.94947 0.62846 0.0
O314 O 0.39752 0.96398 0.57177 0.0
C315 C 0.39145 0.9599 0.60858 0.0
H316 H 0.4682 0.9271 0.75396 0.0
H317 H 0.44417 0.93288 0.40864 0.0
Co318 Co 0.55135 0.5333 0.58319 0.0
C319 C 0.54772 0.59463 0.63523 0.0
Co320 Co 0.58038 0.58608 0.56002 0.0
C321 C 0.53404 0.45248 0.59792 0.0
C322 C 0.48774 0.48926 0.62412 0.0
N323 N 0.52428 0.48955 0.6026 0.0
N324 N 0.50472 0.42917 0.61536 0.0
C325 C 0.47588 0.45246 0.63223 0.0
H326 H 0.56188 0.44278 0.58169 0.0
H327 H 0.4707 0.51431 0.63338 0.0
C328 C 0.58748 0.52595 0.50793 0.0
N329 N 0.60607 0.62954 0.54129 0.0
C330 C 0.63048 0.65337 0.56094 0.0
C331 C 0.60224 0.64601 0.50651 0.0
N332 N 0.64165 0.68423 0.53995 0.0
C333 C 0.62395 0.67989 0.50571 0.0
C334 C 0.63354 0.54245 0.60278 0.0
O335 O 0.56771 0.50717 0.53484 0.0
O336 O 0.59626 0.5606 0.51369 0.0
O337 O 0.63066 0.572 0.58227 0.0
O338 O 0.6027 0.51917 0.6054 0.0
O339 O 0.56505 0.61174 0.60629 0.0
H340 H 0.58404 0.63455 0.48365 0.0
H341 H 0.63852 0.64891 0.59061 0.0
O342 O 0.53675 0.56004 0.63129 0.0
O343 O 0.4995 0.5489 0.56142 0.0
O344 O 0.52987 0.60059 0.53837 0.0
C345 C 0.49743 0.57965 0.54237 0.0
H346 H 0.44862 0.4437 0.65013 0.0
H347 H 0.62626 0.69999 0.48204 0.0
Co348 Co 0.60352 0.45397 0.98535 0.0
C349 C 0.65892 0.45007 0.92008 0.0
Co350 Co 0.5765 0.42804 0.93422 0.0
C351 C 0.61454 0.47757 0.06602 0.0
C352 C 0.65363 0.5079 0.02412 0.0
N353 N 0.62507 0.4795 0.02749 0.0
N354 N 0.63576 0.50348 0.08674 0.0
C355 C 0.66039 0.5224 0.06018 0.0
H356 H 0.59081 0.45834 0.07827 0.0
H357 H 0.66812 0.51815 0.99702 0.0
C358 C 0.51887 0.4316 0.9962 0.0
N359 N 0.55762 0.40431 0.89105 0.0
C360 C 0.58022 0.3782 0.87075 0.0
C361 C 0.52439 0.41092 0.86985 0.0
N362 N 0.56286 0.36826 0.83777 0.0
C363 C 0.52767 0.38873 0.83674 0.0
C364 C 0.61998 0.37767 0.98055 0.0
O365 O 0.54903 0.44688 1.01364 0.0
O366 O 0.52561 0.41892 0.96195 0.0
O367 O 0.59867 0.38074 0.95077 0.0
O368 O 0.62339 0.40644 1.00268 0.0
O369 O 0.62643 0.43711 0.90567 0.0
H370 H 0.5003 0.43139 0.87728 0.0
H371 H 0.61021 0.36805 0.87897 0.0
O372 O 0.65681 0.46062 0.95547 0.0
O373 O 0.58471 0.50103 0.96778 0.0
O374 O 0.55522 0.47578 0.91803 0.0
C375 C 0.56325 0.50489 0.93834 0.0
H376 H 0.68221 0.54501 0.06633 0.0
H377 H 0.50619 0.38788 0.81363 0.0
Co378 Co 0.47888 0.09351 0.97853 0.0
C379 C 0.56157 0.08441 0.9952 0.0
Co380 Co 0.50365 0.03813 0.95792 0.0
C381 C 0.43506 0.16396 0.97458 0.0
C382 C 0.46437 0.15804 0.02843 0.0
N383 N 0.45741 0.13964 0.99503 0.0
N384 N 0.4286 0.19701 0.99352 0.0
C385 C 0.44664 0.19333 0.0276 0.0
H386 H 0.42486 0.15808 0.94581 0.0
H387 H 0.48205 0.14684 0.0515 0.0
C388 C 0.42138 0.04922 0.94007 0.0
N389 N 0.52728 0.99221 0.9403 0.0
C390 C 0.51432 0.95556 0.94392 0.0
C391 C 0.56478 0.99031 0.9205 0.0
N392 N 0.54244 0.93105 0.92704 0.0
C393 C 0.5741 0.95315 0.91239 0.0
C394 C 0.46914 0.03701 0.03429 0.0
O395 O 0.4269 0.07984 0.95873 0.0
O396 O 0.45076 0.025 0.9376 0.0
O397 O 0.48625 0.01574 1.00797 0.0
O398 O 0.46271 0.07158 0.0267 0.0
O399 O 0.55667 0.05269 0.97818 0.0
H400 H 0.58429 1.01458 0.9124 0.0
H401 H 0.48523 0.94713 0.95919 0.0
O402 O 0.53116 0.10716 0.99797 0.0
O403 O 0.4945 0.1153 0.93029 0.0
O404 O 0.51946 0.06141 0.90802 0.0
C405 C 0.51029 0.0959 0.9023 0.0
H406 H 0.44684 0.21458 0.05033 0.0
H407 H 0.60184 0.9432 0.89618 0.0
C408 C 0.06204 0.11329 0.42927 0.0
C409 C 0.02889 0.1181 0.40492 0.0
C410 C 0.07414 0.07704 0.44034 0.0
C411 C 0.05445 0.04414 0.42639 0.0
H412 H 0.07939 0.13773 0.43908 0.0
H413 H 0.10011 0.07482 0.45894 0.0
S414 S 0.9664 0.04166 0.36099 0.0
N415 N 0.97626 0.08725 0.36732 0.0
N416 N 0.9999 0.01901 0.3869 0.0
C417 C 1.02099 0.04864 0.40219 0.0
C418 C 1.00796 0.08564 0.39179 0.0
C419 C 1.01851 0.3354 0.37609 0.0
C420 C 0.05434 0.31514 0.3851 0.0
C421 C 1.01202 0.37265 0.38895 0.0
C422 C 0.0408 0.39143 0.41174 0.0
H423 H 0.99454 0.32201 0.35963 0.0
H424 H 0.98283 0.38619 0.38319 0.0
S425 S 0.14107 0.35261 0.44135 0.0
N426 N 0.12075 0.31793 0.41577 0.0
N427 N 0.1075 0.38789 0.44136 0.0
C428 C 0.07779 0.37245 0.41944 0.0
C429 C 0.08485 0.33437 0.40573 0.0
C430 C 0.9803 0.82725 0.14005 0.0
C431 C 1.01767 0.8066 0.13795 0.0
C432 C 0.97978 0.86577 0.12999 0.0
C433 C 1.01669 0.88585 0.11787 0.0
H434 H 0.9513 0.81401 0.15102 0.0
H435 H 0.95011 0.88015 0.13288 0.0
S436 S 0.12237 0.84383 0.10296 0.0
N437 N 0.09206 0.80819 0.1184 0.0
N438 N 0.09136 0.88073 0.10139 0.0
C439 C 0.0539 0.86494 0.11325 0.0
C440 C 0.05431 0.8254 0.12286 0.0
C441 C 0.0698 0.58816 0.12932 0.0
C442 C 0.04854 0.62143 0.12087 0.0
C443 C 0.05354 0.55254 0.11964 0.0
C444 C 1.0159 0.54912 0.10066 0.0
H445 H 0.09732 0.58946 0.14617 0.0
H446 H 0.06988 0.52748 0.1282 0.0
S447 S 0.95157 0.62825 0.06774 0.0
N448 N 0.99028 0.6492 0.08954 0.0
N449 N 0.96018 0.58231 0.07035 0.0
C450 C 0.99619 0.58237 0.08938 0.0
C451 C 1.01243 0.61854 0.09975 0.0
C452 C 0.41747 0.97883 0.11733 0.0
C453 C 0.41909 1.00423 0.14896 0.0
C454 C 0.43618 0.98814 0.08041 0.0
C455 C 0.45694 0.02317 0.07404 0.0
H456 H 0.39944 0.95273 0.12043 0.0
H457 H 0.4321 0.96893 0.0563 0.0
S458 S 0.47683 0.09613 0.14879 0.0
N459 N 0.44834 0.06338 0.17236 0.0
N460 N 0.48303 0.08072 0.10361 0.0
C461 C 0.46155 0.04724 0.10615 0.0
C462 C 0.44277 0.03782 0.14344 0.0
C463 C 0.65296 0.55093 0.18265 0.0
C464 C 0.64982 0.52051 0.20888 0.0
C465 C 0.64551 0.54562 0.14327 0.0
C466 C 0.63491 0.50966 0.12834 0.0
H467 H 0.66397 0.57848 0.19192 0.0
H468 H 0.64999 0.56963 0.12401 0.0
S469 S 0.6157 0.42209 0.18622 0.0
N470 N 0.62899 0.45433 0.21818 0.0
N471 N 0.61701 0.44417 0.14411 0.0
C472 C 0.62808 0.4798 0.15488 0.0
C473 C 0.63503 0.48531 0.19511 0.0
C474 C 0.38385 0.04962 0.37023 0.0
C475 C 0.40564 0.04036 0.33477 0.0
C476 C 0.39603 0.03481 0.40583 0.0
C477 C 0.43096 1.01107 0.40701 0.0
H478 H 0.35493 0.06517 0.37004 0.0
H479 H 0.376 0.03912 0.43182 0.0
S480 S 0.50472 0.98728 0.32372 0.0
N481 N 0.46766 1.01171 0.30419 0.0
N482 N 0.49195 0.98601 0.37078 0.0
C483 C 0.45605 1.00626 0.37244 0.0
C484 C 0.4431 0.0204 0.33639 0.0
C485 C 0.6159 0.52219 0.40043 0.0
C486 C 0.63837 0.48826 0.39542 0.0
C487 C 0.59727 0.53261 0.43652 0.0
C488 C 0.5997 0.50945 0.46932 0.0
H489 H 0.61453 0.54205 0.37668 0.0
H490 H 0.58234 0.55999 0.43912 0.0
S491 S 0.65025 0.41561 0.47137 0.0
N492 N 0.65872 0.42978 0.42593 0.0
N493 N 0.62281 0.44934 0.49396 0.0
C494 C 0.619 0.47402 0.46433 0.0
C495 C 0.6385 0.46341 0.42732 0.0
C496 C 0.1531 0.44576 0.03602 0.0
C497 C 0.16661 0.42704 1.00157 0.0
C498 C 0.11048 0.44994 0.04654 0.0
C499 C 0.07917 0.43567 0.02318 0.0
H500 H 0.17565 0.45537 0.05627 0.0
H501 H 0.10192 0.46298 0.07436 0.0
S502 S 0.09715 0.38766 0.92819 0.0
N503 N 0.14475 0.39666 0.94235 0.0
N504 N 0.06437 0.40491 0.96246 0.0
C505 C 0.09185 0.41944 0.98728 0.0
C506 C 0.13563 0.41506 0.9764 0.0
C507 C 0.14147 0.62697 0.55364 0.0
C508 C 0.17971 0.61895 0.53338 0.0
C509 C 0.10367 0.61144 0.54163 0.0
C510 C 0.10272 0.58664 0.50948 0.0
H511 H 0.14032 0.64756 0.57707 0.0
H512 H 0.07472 0.62011 0.55678 0.0
S513 S 0.19488 0.55288 0.44976 0.0
N514 N 0.21474 0.58208 0.48164 0.0
N515 N 0.1438 0.5521 0.45997 0.0
C516 C 0.14101 0.57606 0.49093 0.0
C517 C 0.17945 0.59245 0.50264 0.0
C518 C 0.92609 0.9146 0.56152 0.0
C519 C 0.89482 0.92808 0.53791 0.0
C520 C 0.96904 0.91907 0.55045 0.0
C521 C 0.98189 0.93708 0.51546 0.0
H522 H 0.91743 0.89786 0.58704 0.0
H523 H 0.99199 0.90606 0.56786 0.0
S524 S 0.91333 0.98363 0.44737 0.0
N525 N 0.88056 0.96505 0.48102 0.0
N526 N 0.96064 0.97302 0.46027 0.0
C527 C 0.95118 0.95355 0.49362 0.0
C528 C 0.90782 0.94925 0.50487 0.0
C529 C 0.38103 0.59793 0.53558 0.0
C530 C 0.38004 0.62544 0.50608 0.0
C531 C 0.41875 0.5815 0.54557 0.0
C532 C 0.45729 0.59254 0.52709 0.0
H533 H 0.3525 0.59014 0.55226 0.0
H534 H 0.4179 0.5616 0.56944 0.0
S535 S 0.47174 0.66088 0.44562 0.0
N536 N 0.42079 0.66069 0.45649 0.0
N537 N 0.49168 0.63049 0.47556 0.0
C538 C 0.45653 0.61856 0.49617 0.0
C539 C 0.41797 0.63477 0.48556 0.0
C540 C 0.49669 0.58274 0.89798 0.0
C541 C 0.51658 0.61605 0.91043 0.0
C542 C 0.51201 0.54678 0.90683 0.0
C543 C 0.54728 0.54294 0.92903 0.0
H544 H 0.4706 0.58447 0.87943 0.0
H545 H 0.49641 0.52189 0.89584 0.0
S546 S 0.60919 0.62179 0.96993 0.0
N547 N 0.57247 0.64307 0.94669 0.0
N548 N 0.60066 0.57592 0.96431 0.0
C549 C 0.56639 0.57618 0.94279 0.0
C550 C 0.55119 0.6126 0.93327 0.0
C551 C 0.57667 0.82971 0.91172 0.0
C552 C 0.53927 0.81048 0.90406 0.0
C553 C 0.57701 0.86853 0.92124 0.0
C554 C 0.54006 0.89009 0.92313 0.0
H555 H 0.6062 0.81498 0.90912 0.0
H556 H 0.6068 0.88205 0.92608 0.0
S557 S 0.43348 0.85344 0.90637 0.0
N558 N 0.46373 0.81606 0.90051 0.0
N559 N 0.46485 0.88886 0.91737 0.0
C560 C 0.5022 0.87097 0.91706 0.0
C561 C 0.50172 0.8313 0.90774 0.0
C562 C 0.54386 0.33026 0.62972 0.0
C563 C 0.50656 0.30865 0.63512 0.0
C564 C 0.54319 0.36923 0.62159 0.0
C565 C 0.50522 0.38824 0.61831 0.0
H566 H 0.57388 0.31755 0.63394 0.0
H567 H 0.57251 0.38491 0.61985 0.0
S568 S 0.39937 0.34351 0.62248 0.0
N569 N 0.43095 0.30847 0.63186 0.0
N570 N 0.42973 0.38132 0.61545 0.0
C571 C 0.46792 0.36645 0.62073 0.0
C572 C 0.46858 0.32681 0.62937 0.0
C573 C 0.50106 0.11564 0.59954 0.0
C574 C 0.53879 0.12024 0.61821 0.0
C575 C 0.48719 0.07972 0.5879 0.0
C576 C 0.51009 0.04721 0.59561 0.0
H577 H 0.48114 0.13977 0.59557 0.0
H578 H 0.45716 0.07714 0.57511 0.0
S579 S 0.61282 0.04417 0.63978 0.0
N580 N 0.60064 0.08954 0.64038 0.0
N581 N 0.57396 0.02192 0.61949 0.0
C582 C 0.54896 0.0516 0.61212 0.0
C583 C 0.56355 0.08821 0.62311 0.0
C584 C 0.91906 0.48815 0.62486 0.0
C585 C 0.91447 0.51529 0.65484 0.0
C586 C 0.93686 0.49804 0.5879 0.0
C587 C 0.95035 0.53546 0.5796 0.0
H588 H 0.90694 0.4596 0.6293 0.0
H589 H 0.93823 0.47668 0.56523 0.0
S590 S 0.95203 0.61538 0.64978 0.0
N591 N 0.93013 0.57994 0.6749 0.0
N592 N 0.9627 0.59839 0.60572 0.0
C593 C 0.94841 0.56211 0.61001 0.0
C594 C 0.93075 0.55205 0.64754 0.0
C595 C 0.15788 0.05826 0.67999 0.0
C596 C 0.1505 0.02915 0.70729 0.0
C597 C 0.15185 0.05206 0.64047 0.0
C598 C 0.13847 0.01648 0.6266 0.0
H599 H 0.17171 0.08497 0.68853 0.0
H600 H 0.15994 0.07479 0.62035 0.0
S601 S 0.10655 0.93346 0.68764 0.0
N602 N 0.12172 0.96572 0.71877 0.0
N603 N 0.11242 0.95353 0.64454 0.0
C604 C 0.12679 0.9885 0.65419 0.0
C605 C 0.13224 0.99504 0.69451 0.0
C606 C 0.87849 0.56398 0.87468 0.0
C607 C 0.89852 0.54502 0.84292 0.0
C608 C 0.88514 0.55327 0.91303 0.0
C609 C 0.91278 0.52396 0.92106 0.0
H610 H 0.85425 0.58434 0.87001 0.0
H611 H 0.86632 0.56611 0.93655 0.0
S612 S 0.97873 0.47043 0.84867 0.0
N613 N 0.95147 0.4991 0.82236 0.0
N614 N 0.96436 0.47977 0.89446 0.0
C615 C 0.93644 0.50783 0.88986 0.0
C616 C 0.92926 0.51824 0.85078 0.0
C617 C 0.14781 0.96682 0.9219 0.0
C618 C 0.14248 0.98872 0.88847 0.0
C619 C 0.12798 0.97681 0.9582 0.0
C620 C 0.10239 1.00901 0.96202 0.0
H621 H 0.16974 0.94364 0.92066 0.0
H622 H 0.13511 0.96096 0.98376 0.0
S623 S 0.07252 0.07139 0.8823 0.0
N624 N 0.10501 0.04073 0.86093 0.0
N625 N 0.06861 0.05947 0.92859 0.0
C626 C 0.09425 0.029 0.92826 0.0
C627 C 0.11402 0.01884 0.89163 0.0
C628 C 0.65587 0.92043 0.56344 0.0
C629 C 0.67225 0.91946 0.52466 0.0
C630 C 0.61277 0.92207 0.57269 0.0
C631 C 0.58353 0.92324 0.54373 0.0
H632 H 0.6764 0.91857 0.58721 0.0
H633 H 0.60239 0.92229 0.60315 0.0
S634 S 0.60948 0.92464 0.43749 0.0
N635 N 0.65542 0.92188 0.45675 0.0
N636 N 0.57422 0.92582 0.47439 0.0
C637 C 0.59928 0.92407 0.50476 0.0
C638 C 0.64354 0.92203 0.4952 0.0
C639 C 0.64118 0.13742 0.05374 0.0
C640 C 0.6797 0.12565 0.03637 0.0
C641 C 0.60313 0.12289 0.04112 0.0
C642 C 0.60219 0.09558 1.01115 0.0
H643 H 0.64029 0.15994 0.07521 0.0
H644 H 0.57419 0.13408 0.05413 0.0
S645 S 0.69483 0.05241 0.95948 0.0
N646 N 0.71477 0.08313 0.98981 0.0
N647 N 0.64351 0.05506 0.96696 0.0
C648 C 0.64059 0.08167 0.99556 0.0
C649 C 0.67925 0.09694 1.00792 0.0
C650 C 0.41545 0.4156 0.05489 0.0
C651 C 0.38615 0.4288 0.02905 0.0
C652 C 0.45902 0.41872 0.04592 0.0
C653 C 0.47452 0.43504 1.01081 0.0
H654 H 0.40474 0.40017 0.08073 0.0
H655 H 0.4804 0.40602 0.06518 0.0
S656 S 0.4117 0.47991 0.93684 0.0
N657 N 0.37653 0.46334 0.96957 0.0
N658 N 0.45763 0.46901 0.9528 0.0
C659 C 0.44569 0.45108 0.98653 0.0
C660 C 0.40173 0.44806 0.99563 0.0
C661 C 0.91796 0.13371 0.98634 0.0
C662 C 0.88005 0.12497 1.00727 0.0
C663 C 0.95579 0.11676 0.99559 0.0
C664 C 0.95726 0.08981 0.02565 0.0
H665 H 0.91893 0.15556 0.96434 0.0
H666 H 0.98441 0.12585 0.97983 0.0
S667 S 0.8658 0.05395 0.08626 0.0
N668 N 0.84585 0.08544 0.05749 0.0
N669 N 0.91645 0.05309 0.07408 0.0
C670 C 0.9191 0.07899 0.04499 0.0
C671 C 0.88072 0.09672 0.03604 0.0
C672 C 0.08488 0.16148 0.20794 0.0
C673 C 0.0636 0.14737 0.2416 0.0
C674 C 0.08023 0.1442 0.17178 0.0
C675 C 0.05466 0.11165 0.16781 0.0
H676 H 0.10389 0.18703 0.20921 0.0
H677 H 0.09713 0.15655 0.14676 0.0
S678 S 0.99427 0.06221 0.24791 0.0
N679 N 1.01701 0.09833 0.26928 0.0
N680 N 1.00928 0.06512 0.20137 0.0
C681 C 0.03421 0.09656 0.20154 0.0
C682 C 0.03842 0.11458 0.23836 0.0
C683 C 0.95746 0.311 0.27683 0.0
C684 C 0.971 0.27518 0.26409 0.0
C685 C 0.96822 0.34342 0.25499 0.0
C686 C 0.99294 0.34086 0.21989 0.0
H687 H 0.94235 0.31445 0.30554 0.0
H688 H 0.9585 0.37073 0.26644 0.0
S689 S 0.03087 0.25223 0.17213 0.0
N690 N 1.00518 0.23805 0.21244 0.0
N691 N 1.02695 0.29884 0.17192 0.0
C692 C 1.00331 0.30468 0.20538 0.0
C693 C 0.99154 0.27182 0.22722 0.0
C694 C 0.10993 0.77754 0.29909 0.0
C695 C 0.10994 0.78407 0.25901 0.0
C696 C 0.09788 0.80605 0.32566 0.0
C697 C 0.08474 0.84149 0.31275 0.0
H698 H 0.1149 0.74924 0.30986 0.0
H699 H 0.09574 0.79945 0.35635 0.0
S700 S 0.08686 0.87456 0.21111 0.0
N701 N 0.10191 0.82997 0.20787 0.0
N702 N 0.07879 0.88352 0.25797 0.0
C703 C 0.08855 0.84946 0.27301 0.0
C704 C 0.10158 0.82072 0.24607 0.0
C705 C 0.98092 0.64257 0.31525 0.0
C706 C 1.01605 0.64047 0.28896 0.0
C707 C 0.979 0.62242 0.3502 0.0
C708 C 1.01183 0.59883 0.36042 0.0
H709 H 0.95527 0.66114 0.30966 0.0
H710 H 0.95186 0.62624 0.37008 0.0
S711 S 0.10889 0.57983 0.30034 0.0
N712 N 0.08334 0.61019 0.2744 0.0
N713 N 0.07908 0.57216 0.34034 0.0
C714 C 0.04605 0.59451 0.33363 0.0
C715 C 0.04834 0.61542 0.29793 0.0
C716 C 0.21797 1.00761 0.16357 0.0
C717 C 0.24076 0.04046 0.17342 0.0
C718 C 0.18611 1.0088 0.13712 0.0
C719 C 0.17624 0.04272 0.11861 0.0
H720 H 0.22428 0.98071 0.17693 0.0
H721 H 0.16889 0.98295 0.1314 0.0
S722 S 0.22737 0.13665 0.13345 0.0
N723 N 0.25139 0.10781 0.16213 0.0
N724 N 0.19265 0.11014 0.112 0.0
C725 C 0.19944 0.07566 0.12768 0.0
C726 C 0.23128 0.07453 0.15516 0.0
C727 C 0.80547 0.4885 0.18551 0.0
C728 C 0.8017 0.4611 0.21542 0.0
C729 C 0.83638 0.48599 0.15491 0.0
C730 C 0.86509 0.45629 0.15347 0.0
H731 H 0.78493 0.51271 0.18621 0.0
H732 H 0.83914 0.50839 0.1335 0.0
S733 S 0.86635 0.37527 0.22199 0.0
N734 N 0.82737 0.40173 0.23945 0.0
N735 N 0.8857 0.3971 0.18258 0.0
C736 C 0.86034 0.42771 0.18203 0.0
C737 C 0.82858 0.43003 0.21281 0.0
C738 C 0.23642 0.9318 0.33096 0.0
C739 C 0.2632 0.96351 0.33032 0.0
C740 C 0.2058 0.92678 0.36134 0.0
C741 C 0.20135 0.95295 0.39243 0.0
H742 H 0.23746 0.91198 0.30685 0.0
H743 H 0.18434 0.90292 0.35967 0.0
S744 S 0.26798 0.03758 0.40707 0.0
N745 N 0.28632 0.01933 0.3654 0.0
N746 N 0.2291 1.00934 0.42257 0.0
C747 C 0.23004 0.98306 0.39362 0.0
C748 C 0.26082 0.98852 0.36247 0.0
C749 C 0.82381 0.57506 0.38406 0.0
C750 C 0.81164 0.53893 0.37105 0.0
C751 C 0.85617 0.57951 0.4097 0.0
C752 C 0.87784 0.54801 0.42315 0.0
H753 H 0.80853 0.60015 0.37413 0.0
H754 H 0.86517 0.60798 0.41797 0.0
S755 S 0.85722 0.44708 0.39931 0.0
N756 N 0.8234 0.47083 0.37487 0.0
N757 N 0.88362 0.47943 0.42275 0.0
C758 C 0.86529 0.51173 0.41116 0.0
C759 C 0.83243 0.50714 0.38522 0.0
C760 C 0.21432 0.25404 0.0708 0.0
C761 C 0.20021 0.28962 0.05955 0.0
C762 C 0.19085 0.22111 0.06374 0.0
C763 C 0.15303 0.22304 0.04502 0.0
H764 H 0.24511 0.25129 0.0819 0.0
H765 H 0.20373 0.19383 0.07035 0.0
S766 S 0.09945 0.31033 1.01685 0.0
N767 N 0.14384 0.32553 0.03388 0.0
N768 N 0.09969 0.26368 0.02091 0.0
C769 C 0.13704 0.25876 0.03689 0.0
C770 C 0.16068 0.29211 0.04419 0.0
C771 C 0.18087 0.78647 0.45804 0.0
C772 C 0.20518 0.78104 0.4901 0.0
C773 C 0.15344 0.81733 0.45669 0.0
C774 C 0.14971 0.84447 0.48702 0.0
H775 H 0.18263 0.76652 0.43405 0.0
H776 H 0.13574 0.82031 0.43111 0.0
S777 S 0.20776 0.84359 0.57708 0.0
N778 N 0.22416 0.80563 0.55285 0.0
N779 N 0.17339 0.86351 0.54995 0.0
C780 C 0.174 0.83925 0.5192 0.0
C781 C 0.2015 0.80767 0.52079 0.0
C782 C 0.90326 0.80099 0.47071 0.0
C783 C 0.86084 0.79539 0.4637 0.0
C784 C 0.92997 0.77019 0.47381 0.0
C785 C 0.91505 0.73277 0.47034 0.0
H786 H 0.91501 0.82917 0.47697 0.0
H787 H 0.96189 0.77551 0.48136 0.0
S788 S 0.80683 0.70341 0.44989 0.0
N789 N 0.80552 0.7502 0.45118 0.0
N790 N 0.85565 0.692 0.45717 0.0
C791 C 0.87338 0.72695 0.46051 0.0
C792 C 0.84623 0.75842 0.4572 0.0
C793 C 0.36309 0.79961 0.53349 0.0
C794 C 0.35287 0.77622 0.56585 0.0
C795 C 0.39035 0.83063 0.53566 0.0
C796 C 0.40899 0.83992 0.5703 0.0
H797 H 0.3494 0.79438 0.50594 0.0
H798 H 0.3962 0.84784 0.50994 0.0
S799 S 0.39429 0.78718 0.66343 0.0
N800 N 0.36455 0.76393 0.63354 0.0
N801 N 0.41616 0.82246 0.63795 0.0
C802 C 0.39979 0.81646 0.60295 0.0
C803 C 0.37156 0.78472 0.60071 0.0
C804 C 0.57296 0.66474 0.71495 0.0
C805 C 0.54924 0.65123 0.74758 0.0
C806 C 0.57128 0.64664 0.67879 0.0
C807 C 0.5463 0.61386 0.67379 0.0
H808 H 0.59193 0.69024 0.71701 0.0
H809 H 0.5901 0.65847 0.65457 0.0
S810 S 0.47999 0.56592 0.75102 0.0
N811 N 0.50084 0.60255 0.77316 0.0
N812 N 0.49852 0.56798 0.70537 0.0
C813 C 0.5232 0.59952 0.70651 0.0
C814 C 0.52444 0.61834 0.74328 0.0
C815 C 0.4384 0.81484 0.78839 0.0
C816 C 0.45628 0.78047 0.77598 0.0
C817 C 0.44582 0.84807 0.76663 0.0
C818 C 0.4723 0.84815 0.73236 0.0
H819 H 0.42152 0.81672 0.81647 0.0
H820 H 0.43184 0.87404 0.77758 0.0
S821 S 0.52467 0.76364 0.68749 0.0
N822 N 0.49774 0.74711 0.72608 0.0
N823 N 0.51543 0.80951 0.68722 0.0
C824 C 0.48864 0.81317 0.71902 0.0
C825 C 0.4794 0.77935 0.74021 0.0
C826 C 0.5905 0.3229 0.74172 0.0
C827 C 0.60162 0.28618 0.75262 0.0
C828 C 0.57937 0.3503 0.76975 0.0
C829 C 0.57962 0.34187 0.80941 0.0
H830 H 0.58594 0.32915 0.71153 0.0
H831 H 0.56851 0.37757 0.76046 0.0
S832 S 0.61097 0.25125 0.8526 0.0
N833 N 0.61573 0.24381 0.80524 0.0
N834 N 0.59575 0.2956 0.85822 0.0
C835 C 0.59451 0.30645 0.82058 0.0
C836 C 0.60552 0.27852 0.792 0.0
C837 C 0.54499 0.13047 0.80082 0.0
C838 C 0.50899 0.14921 0.78907 0.0
C839 C 0.54528 0.1119 0.83689 0.0
C840 C 0.50976 0.11188 0.8627 0.0
H841 H 0.57358 0.1308 0.7824 0.0
H842 H 0.5738 0.09869 0.84516 0.0
S843 S 0.40626 0.15261 0.84485 0.0
N844 N 0.43586 0.16341 0.80558 0.0
N845 N 0.43667 0.12895 0.87295 0.0
C846 C 0.4732 0.12903 0.85077 0.0
C847 C 0.47271 0.14756 0.8141 0.0
C848 C 0.72549 0.57143 0.66229 0.0
C849 C 0.73394 0.53842 0.68288 0.0
C850 C 0.69424 0.57178 0.63532 0.0
C851 C 0.66951 0.53929 0.6282 0.0
H852 H 0.74348 0.59715 0.66665 0.0
H853 H 0.68886 0.59818 0.62062 0.0
S854 S 0.67856 0.44566 0.6753 0.0
N855 N 0.71495 0.47222 0.69442 0.0
N856 N 0.65574 0.47321 0.64447 0.0
C857 C 0.67759 0.50609 0.64872 0.0
C858 C 0.70986 0.50558 0.6758 0.0
C859 C 0.3126 1.00119 0.67984 0.0
C860 C 0.29682 0.96855 0.69981 0.0
C861 C 0.33918 0.99858 0.64606 0.0
C862 C 0.35061 0.96327 0.63034 0.0
H863 H 0.30606 0.02924 0.69133 0.0
H864 H 0.35353 0.02425 0.63405 0.0
S865 S 0.31464 0.86925 0.66779 0.0
N866 N 0.29197 0.89974 0.69858 0.0
N867 N 0.34186 0.89501 0.63516 0.0
C868 C 0.3328 0.93055 0.6482 0.0
C869 C 0.306 0.93309 0.68285 0.0
C870 C 0.73402 0.43191 0.83324 0.0
C871 C 0.7631 0.46165 0.83557 0.0
C872 C 0.70176 0.42725 0.86216 0.0
C873 C 0.69774 0.45189 0.89459 0.0
H874 H 0.73442 0.41381 0.80777 0.0
H875 H 0.6787 0.40505 0.85818 0.0
S876 S 0.77036 0.53033 0.91696 0.0
N877 N 0.78916 0.51331 0.87488 0.0
N878 N 0.72861 0.50415 0.92933 0.0
C879 C 0.72877 0.47964 0.89883 0.0
C880 C 0.76139 0.48465 0.86921 0.0
C881 C 0.34727 1.00991 0.86695 0.0
C882 C 0.31872 0.03954 0.86299 0.0
C883 C 0.37936 1.01261 0.89293 0.0
C884 C 0.38389 0.04484 0.91659 0.0
H885 H 0.34528 0.98454 0.84931 0.0
H886 H 0.40121 0.98947 0.8939 0.0
S887 S 0.31454 0.1289 0.91987 0.0
N888 N 0.29556 0.10122 0.88628 0.0
N889 N 0.3549 0.10623 0.93583 0.0
C890 C 0.3545 0.07418 0.91383 0.0
C891 C 0.32229 0.07162 0.88682 0.0
C892 C 0.676 0.78484 0.55057 0.0
C893 C 0.71571 0.78125 0.56546 0.0
C894 C 0.6511 0.75301 0.54401 0.0
C895 C 0.66499 0.71657 0.55226 0.0
H896 H 0.66525 0.8123 0.54163 0.0
H897 H 0.62147 0.75673 0.53096 0.0
S898 S 0.76509 0.69219 0.5943 0.0
N899 N 0.76684 0.73888 0.5905 0.0
N900 N 0.71945 0.67861 0.57855 0.0
C901 C 0.7033 0.71271 0.56973 0.0
C902 C 0.72886 0.74527 0.57631 0.0
C903 C 0.68198 0.28766 0.95559 0.0
C904 C 0.70491 0.28214 0.9886 0.0
C905 C 0.6531 0.31747 0.95404 0.0
C906 C 0.64629 0.34334 0.98521 0.0
H907 H 0.68601 0.26864 0.93096 0.0
H908 H 0.63674 0.32074 0.9277 0.0
S909 S 0.69936 0.34182 0.07802 0.0
N910 N 0.71914 0.30554 0.05314 0.0
N911 N 0.66545 0.36108 0.04999 0.0
C912 C 0.66907 0.33799 1.01834 0.0
C913 C 0.69817 0.30762 0.02005 0.0
C914 C 0.34148 0.25555 0.95822 0.0
C915 C 0.35463 0.29241 0.96759 0.0
C916 C 0.3671 0.22435 0.96448 0.0
C917 C 0.4062 0.22924 0.98063 0.0
H918 H 0.31003 0.2505 0.94918 0.0
H919 H 0.35505 0.1961 0.95941 0.0
S920 S 0.45741 0.3208 1.0033 0.0
N921 N 0.41104 0.33261 0.98885 0.0
N922 N 0.4592 0.27409 1.00029 0.0
C923 C 0.42096 0.26625 0.98686 0.0
C924 C 0.39511 0.29784 0.98037 0.0
C925 C 0.86287 0.30547 0.03104 0.0
C926 C 0.85507 0.28104 0.06301 0.0
C927 C 0.88991 0.33677 0.03277 0.0
C928 C 0.91085 0.34506 0.06645 0.0
H929 H 0.84744 0.30076 1.00427 0.0
H930 H 0.89402 0.35486 1.0075 0.0
S931 S 0.90226 0.28962 0.15824 0.0
N932 N 0.87099 0.26695 0.1293 0.0
N933 N 0.92221 0.32578 0.13285 0.0
C934 C 0.90385 0.32061 0.09867 0.0
C935 C 0.87579 0.28874 0.09694 0.0
loop_
_geom_bond_atom_site_label_1
_geom_bond_atom_site_label_2
_geom_bond_distance
_geom_bond_site_symmetry_2
_ccdc_geom_bond_type
C0 O2 1.247 . S
C0 O4 1.258 . S
C1 O8 1.247 1_455 S
C1 O9 1.258 . S
O2 C0 1.247 . S
O2 Zn3 2.028 . S
Zn3 O2 2.028 . S
Zn3 O7 2.035 . S
Zn3 O9 2.035 . S
Zn3 O10 2.028 . S
O4 C0 1.258 . S
O4 Zn5 2.035 1_455 S
Zn5 O4 2.035 1_655 S
Zn5 O6 2.028 . S
Zn5 O8 2.028 . S
Zn5 O11 2.035 1_655 S
O6 Zn5 2.028 . S
O6 C12 1.247 1_655 S
O7 Zn3 2.035 . S
O7 C12 1.258 . S
O8 C1 1.247 1_655 S
O8 Zn5 2.028 . S
O9 C1 1.258 . S
O9 Zn3 2.035 . S
O10 Zn3 2.028 . S
O10 C13 1.247 . S
O11 Zn5 2.035 1_455 S
O11 C13 1.258 . S
C12 O6 1.247 1_455 S
C12 O7 1.258 . S
C13 O10 1.247 . S
C13 O11 1.258 . S
C14 O16 1.247 . S
C14 O18 1.258 1_455 S
C15 O22 1.247 . S
C15 O23 1.258 1_655 S
O16 C14 1.247 . S
O16 Zn17 2.028 . S
Zn17 O16 2.028 . S
Zn17 O21 2.035 . S
Zn17 O23 2.035 . S
Zn17 O24 2.028 . S
O18 C14 1.258 1_655 S
O18 Zn19 2.035 . S
Zn19 O18 2.035 . S
Zn19 O20 2.028 . S
Zn19 O22 2.028 . S
Zn19 O25 2.035 . S
O20 Zn19 2.028 . S
O20 C26 1.262 . S
O21 Zn17 2.035 . S
O21 C26 1.242 1_455 S
O22 C15 1.247 . S
O22 Zn19 2.028 . S
O23 C15 1.258 1_455 S
O23 Zn17 2.035 . S
O24 Zn17 2.028 . S
O24 C27 1.247 . S
O25 Zn19 2.035 . S
O25 C27 1.258 1_655 S
C26 O20 1.262 . S
C26 O21 1.242 1_655 S
C27 O24 1.247 . S
C27 O25 1.258 1_455 S
C28 O30 1.247 1_545 S
C28 O32 1.258 . S
C29 O36 1.247 1_565 S
C29 O37 1.258 . S
O30 C28 1.247 1_565 S
O30 Zn31 2.028 . S
Zn31 O30 2.028 . S
Zn31 O35 2.035 . S
Zn31 O37 2.035 . S
Zn31 O38 2.028 . S
O32 C28 1.258 . S
O32 Zn33 2.035 . S
Zn33 O32 2.035 . S
Zn33 O34 2.028 . S
Zn33 O36 2.028 . S
Zn33 O39 2.035 . S
O34 Zn33 2.028 . S
O34 C40 1.247 1_545 S
O35 Zn31 2.035 . S
O35 C40 1.258 . S
O36 C29 1.247 1_545 S
O36 Zn33 2.028 . S
O37 C29 1.258 . S
O37 Zn31 2.035 . S
O38 Zn31 2.028 . S
O38 C41 1.247 1_565 S
O39 Zn33 2.035 . S
O39 C41 1.258 . S
C40 O34 1.247 1_565 S
C40 O35 1.258 . S
C41 O38 1.247 1_545 S
C41 O39 1.258 . S
C42 O44 1.247 . S
C42 O46 1.258 . S
C43 O50 1.247 . S
C43 O51 1.258 . S
O44 C42 1.247 . S
O44 Zn45 2.028 . S
Zn45 O44 2.028 . S
Zn45 O49 2.035 . S
Zn45 O51 2.035 . S
Zn45 O52 2.028 . S
O46 C42 1.258 . S
O46 Zn47 2.035 . S
Zn47 O46 2.035 . S
Zn47 O48 2.028 . S
Zn47 O50 2.028 . S
Zn47 O53 2.035 . S
O48 Zn47 2.028 . S
O48 C54 1.247 . S
O49 Zn45 2.035 . S
O49 C54 1.258 . S
O50 C43 1.247 . S
O50 Zn47 2.028 . S
O51 C43 1.258 . S
O51 Zn45 2.035 . S
O52 Zn45 2.028 . S
O52 C55 1.247 . S
O53 Zn47 2.035 . S
O53 C55 1.258 . S
C54 O48 1.247 . S
C54 O49 1.258 . S
C55 O52 1.247 . S
C55 O53 1.258 . S
C56 O58 1.247 1_554 S
C56 O60 1.258 . S
C57 O64 1.247 . S
C57 O65 1.258 1_554 S
O58 C56 1.247 1_556 S
O58 Zn59 2.028 . S
Zn59 O58 2.028 . S
Zn59 O63 2.035 . S
Zn59 O65 2.035 . S
Zn59 O66 2.028 . S
O60 C56 1.258 . S
O60 Zn61 2.035 . S
Zn61 O60 2.035 . S
Zn61 O62 2.028 . S
Zn61 O64 2.028 . S
Zn61 O67 2.035 . S
O62 Zn61 2.028 . S
O62 C68 1.247 . S
O63 Zn59 2.035 . S
O63 C68 1.258 1_556 S
O64 C57 1.247 . S
O64 Zn61 2.028 . S
O65 C57 1.258 1_556 S
O65 Zn59 2.035 . S
O66 Zn59 2.028 . S
O66 C69 1.247 1_556 S
O67 Zn61 2.035 . S
O67 C69 1.258 . S
C68 O62 1.247 . S
C68 O63 1.258 1_554 S
C69 O66 1.247 1_554 S
C69 O67 1.258 . S
C70 O72 1.247 . S
C70 O74 1.258 . S
C71 O78 1.247 . S
C71 O79 1.258 . S
O72 C70 1.247 . S
O72 Zn73 2.028 . S
Zn73 O72 2.028 . S
Zn73 O77 2.035 . S
Zn73 O79 2.035 . S
Zn73 O80 2.028 . S
O74 C70 1.258 . S
O74 Zn75 2.035 . S
Zn75 O74 2.035 . S
Zn75 O76 2.028 . S
Zn75 O78 2.028 . S
Zn75 O81 2.035 . S
O76 Zn75 2.028 . S
O76 C82 1.247 . S
O77 Zn73 2.035 . S
O77 C82 1.258 . S
O78 C71 1.247 . S
O78 Zn75 2.028 . S
O79 C71 1.258 . S
O79 Zn73 2.035 . S
O80 Zn73 2.028 . S
O80 C83 1.247 . S
O81 Zn75 2.035 . S
O81 C83 1.258 . S
C82 O76 1.247 . S
C82 O77 1.258 . S
C83 O80 1.247 . S
C83 O81 1.258 . S
C84 O86 1.247 . S
C84 O88 1.258 . S
C85 O92 1.247 . S
C85 O93 1.258 . S
O86 C84 1.247 . S
O86 Zn87 2.028 . S
Zn87 O86 2.028 . S
Zn87 O91 2.035 . S
Zn87 O93 2.035 . S
Zn87 O94 2.028 . S
O88 C84 1.258 . S
O88 Zn89 2.035 . S
Zn89 O88 2.035 . S
Zn89 O90 2.028 . S
Zn89 O92 2.028 . S
Zn89 O95 2.035 . S
O90 Zn89 2.028 . S
O90 C96 1.247 . S
O91 Zn87 2.035 . S
O91 C96 1.258 . S
O92 C85 1.247 . S
O92 Zn89 2.028 . S
O93 C85 1.258 . S
O93 Zn87 2.035 . S
O94 Zn87 2.028 . S
O94 C97 1.247 . S
O95 Zn89 2.035 . S
O95 C97 1.258 . S
C96 O90 1.247 . S
C96 O91 1.258 . S
C97 O94 1.247 . S
C97 O95 1.258 . S
C98 O100 1.247 . S
C98 O102 1.258 . S
C99 O106 1.247 . S
C99 O107 1.258 . S
O100 C98 1.247 . S
O100 Zn101 2.028 . S
Zn101 O100 2.028 . S
Zn101 O105 2.035 . S
Zn101 O107 2.035 . S
Zn101 O108 2.028 . S
O102 C98 1.258 . S
O102 Zn103 2.035 . S
Zn103 O102 2.035 . S
Zn103 O104 2.028 . S
Zn103 O106 2.028 . S
Zn103 O109 2.035 . S
O104 Zn103 2.028 . S
O104 C110 1.247 . S
O105 Zn101 2.035 . S
O105 C110 1.258 . S
O106 C99 1.247 . S
O106 Zn103 2.028 . S
O107 C99 1.258 . S
O107 Zn101 2.035 . S
O108 Zn101 2.028 . S
O108 C111 1.247 . S
O109 Zn103 2.035 . S
O109 C111 1.258 . S
C110 O104 1.247 . S
C110 O105 1.258 . S
C111 O108 1.247 . S
C111 O109 1.258 . S
C112 O114 1.247 . S
C112 O116 1.258 . S
C113 O120 1.247 . S
C113 O121 1.258 . S
O114 C112 1.247 . S
O114 Zn115 2.028 . S
Zn115 O114 2.028 . S
Zn115 O119 2.035 . S
Zn115 O121 2.035 . S
Zn115 O122 2.028 . S
O116 C112 1.258 . S
O116 Zn117 2.035 . S
Zn117 O116 2.035 . S
Zn117 O118 2.028 . S
Zn117 O120 2.028 . S
Zn117 O123 2.035 . S
O118 Zn117 2.028 . S
O118 C124 1.247 . S
O119 Zn115 2.035 . S
O119 C124 1.258 . S
O120 C113 1.247 . S
O120 Zn117 2.028 . S
O121 C113 1.258 . S
O121 Zn115 2.035 . S
O122 Zn115 2.028 . S
O122 C125 1.247 . S
O123 Zn117 2.035 . S
O123 C125 1.258 . S
C124 O118 1.247 . S
C124 O119 1.258 . S
C125 O122 1.247 . S
C125 O123 1.258 . S
C126 O128 1.247 . S
C126 O130 1.258 . S
C127 O134 1.247 . S
C127 O135 1.258 . S
O128 C126 1.247 . S
O128 Zn129 2.028 . S
Zn129 O128 2.028 . S
Zn129 O133 2.035 . S
Zn129 O135 2.035 . S
Zn129 O136 2.028 . S
O130 C126 1.258 . S
O130 Zn131 2.035 . S
Zn131 O130 2.035 . S
Zn131 O132 2.028 . S
Zn131 O134 2.028 . S
Zn131 O137 2.035 . S
O132 Zn131 2.028 . S
O132 C138 1.247 . S
O133 Zn129 2.035 . S
O133 C138 1.258 . S
O134 C127 1.247 . S
O134 Zn131 2.028 . S
O135 C127 1.258 . S
O135 Zn129 2.035 . S
O136 Zn129 2.028 . S
O136 C139 1.247 . S
O137 Zn131 2.035 . S
O137 C139 1.258 . S
C138 O132 1.247 . S
C138 O133 1.258 . S
C139 O136 1.247 . S
C139 O137 1.258 . S
C140 O142 1.247 . S
C140 O144 1.258 1_565 S
C141 O148 1.247 . S
C141 O149 1.258 1_545 S
O142 C140 1.247 . S
O142 Zn143 2.028 . S
Zn143 O142 2.028 . S
Zn143 O147 2.035 . S
Zn143 O149 2.035 . S
Zn143 O150 2.028 . S
O144 C140 1.258 1_545 S
O144 Zn145 2.035 . S
Zn145 O144 2.035 . S
Zn145 O146 2.028 . S
Zn145 O148 2.028 . S
Zn145 O151 2.035 . S
O146 Zn145 2.028 . S
O146 C152 1.247 . S
O147 Zn143 2.035 . S
O147 C152 1.258 1_565 S
O148 C141 1.247 . S
O148 Zn145 2.028 . S
O149 C141 1.258 1_565 S
O149 Zn143 2.035 . S
O150 Zn143 2.028 . S
O150 C153 1.247 . S
O151 Zn145 2.035 . S
O151 C153 1.258 1_545 S
C152 O146 1.247 . S
C152 O147 1.258 1_545 S
C153 O150 1.247 . S
C153 O151 1.258 1_565 S
C154 O156 1.247 . S
C154 O158 1.258 1_554 S
C155 O162 1.247 1_554 S
C155 O163 1.258 . S
O156 C154 1.247 . S
O156 Zn157 2.028 . S
Zn157 O156 2.028 . S
Zn157 O161 2.035 . S
Zn157 O163 2.035 . S
Zn157 O164 2.028 . S
O158 C154 1.258 1_556 S
O158 Zn159 2.035 . S
Zn159 O158 2.035 . S
Zn159 O160 2.028 . S
Zn159 O162 2.028 . S
Zn159 O165 2.035 . S
O160 Zn159 2.028 . S
O160 C166 1.247 1_556 S
O161 Zn157 2.035 . S
O161 C166 1.258 . S
O162 C155 1.247 1_556 S
O162 Zn159 2.028 . S
O163 C155 1.258 . S
O163 Zn157 2.035 . S
O164 Zn157 2.028 . S
O164 C167 1.247 . S
O165 Zn159 2.035 . S
O165 C167 1.258 1_556 S
C166 O160 1.247 1_554 S
C166 O161 1.258 . S
C167 O164 1.247 . S
C167 O165 1.258 1_554 S
Co168 N173 2.057 1_445 S
Co168 O185 2.021 1_544 S
Co168 O188 2.062 1_545 S
Co168 O192 2.117 . S
Co168 O193 2.020 1_455 S
C169 O189 1.259 . S
C169 O192 1.258 . S
Co170 N179 2.057 . S
Co170 O186 2.117 1_554 S
Co170 O187 2.020 . S
Co170 O189 2.021 . S
Co170 O194 2.062 . S
C171 N173 1.316 . S
C171 N174 1.347 . S
C171 H176 0.931 1_655 S
C172 N173 1.375 . S
C172 C175 1.350 . S
C172 H177 0.930 . S
N173 Co168 2.057 1_665 S
N173 C171 1.316 . S
N173 C172 1.375 . S
N174 C171 1.347 . S
N174 C175 1.373 . S
C175 C172 1.350 . S
C175 N174 1.373 . S
C175 H196 0.931 . S
H176 C171 0.931 1_455 S
H177 C172 0.930 . S
C178 O185 1.259 1_545 S
C178 O186 1.258 . S
N179 Co170 2.057 . S
N179 C180 1.316 . S
N179 C181 1.375 1_554 S
C180 N179 1.316 . S
C180 N182 1.347 . S
C180 H191 0.931 . S
C181 N179 1.375 1_556 S
C181 C183 1.350 . S
C181 H190 0.930 . S
N182 C180 1.347 . S
N182 C183 1.373 1_554 S
C183 C181 1.350 . S
C183 N182 1.373 1_556 S
C183 H197 0.931 . S
C184 O187 1.256 . S
C184 O188 1.255 1_545 S
O185 Co168 2.021 1_566 S
O185 C178 1.259 1_565 S
O186 Co170 2.117 1_556 S
O186 C178 1.258 . S
O187 Co170 2.020 . S
O187 C184 1.256 . S
O188 Co168 2.062 1_565 S
O188 C184 1.255 1_565 S
O189 C169 1.259 . S
O189 Co170 2.021 . S
H190 C181 0.930 . S
H191 C180 0.931 . S
O192 Co168 2.117 . S
O192 C169 1.258 . S
O193 Co168 2.020 1_655 S
O193 C195 1.256 . S
O194 Co170 2.062 . S
O194 C195 1.255 1_455 S
C195 O193 1.256 . S
C195 O194 1.255 1_655 S
H196 C175 0.931 . S
H197 C183 0.931 . S
Co198 N203 2.057 . S
Co198 O215 2.021 . S
Co198 O218 2.062 1_655 S
Co198 O222 2.117 . S
Co198 O223 2.020 . S
C199 O219 1.259 . S
C199 O222 1.258 . S
Co200 N209 2.057 1_554 S
Co200 O216 2.117 . S
Co200 O217 2.020 . S
Co200 O219 2.021 . S
Co200 O224 2.062 . S
C201 N203 1.316 . S
C201 N204 1.347 1_655 S
C201 H206 0.931 . S
C202 N203 1.375 1_455 S
C202 C205 1.350 . S
C202 H207 0.930 . S
N203 Co198 2.057 . S
N203 C201 1.316 . S
N203 C202 1.375 1_655 S
N204 C201 1.347 1_455 S
N204 C205 1.373 . S
C205 C202 1.350 . S
C205 N204 1.373 . S
C205 H226 0.931 . S
H206 C201 0.931 . S
H207 C202 0.930 . S
C208 O215 1.259 . S
C208 O216 1.258 . S
N209 Co200 2.057 1_556 S
N209 C210 1.316 . S
N209 C211 1.375 . S
C210 N209 1.316 . S
C210 N212 1.347 . S
C210 H221 0.931 . S
C211 N209 1.375 . S
C211 C213 1.350 . S
C211 H220 0.930 . S
N212 C210 1.347 . S
N212 C213 1.373 . S
C213 C211 1.350 . S
C213 N212 1.373 . S
C213 H227 0.931 . S
C214 O217 1.256 1_455 S
C214 O218 1.255 . S
O215 Co198 2.021 . S
O215 C208 1.259 . S
O216 Co200 2.117 . S
O216 C208 1.258 . S
O217 Co200 2.020 . S
O217 C214 1.256 1_655 S
O218 Co198 2.062 1_455 S
O218 C214 1.255 . S
O219 C199 1.259 . S
O219 Co200 2.021 . S
H220 C211 0.930 . S
H221 C210 0.931 . S
O222 Co198 2.117 . S
O222 C199 1.258 . S
O223 Co198 2.020 . S
O223 C225 1.256 . S
O224 Co200 2.062 . S
O224 C225 1.255 . S
C225 O223 1.256 . S
C225 O224 1.255 . S
H226 C205 0.931 . S
H227 C213 0.931 . S
Co228 N233 2.057 . S
Co228 O245 2.021 . S
Co228 O248 2.062 . S
Co228 O252 2.117 . S
Co228 O253 2.020 . S
C229 O249 1.259 . S
C229 O252 1.258 . S
Co230 N239 2.057 . S
Co230 O246 2.117 1_455 S
Co230 O247 2.020 . S
Co230 O249 2.021 . S
Co230 O254 2.062 . S
C231 N233 1.316 . S
C231 N234 1.347 1_565 S
C231 H236 0.931 . S
C232 N233 1.375 1_545 S
C232 C235 1.350 . S
C232 H237 0.930 . S
N233 Co228 2.057 . S
N233 C231 1.316 . S
N233 C232 1.375 1_565 S
N234 C231 1.347 1_545 S
N234 C235 1.373 . S
C235 C232 1.350 . S
C235 N234 1.373 . S
C235 H256 0.931 . S
H236 C231 0.931 . S
H237 C232 0.930 . S
C238 O245 1.259 1_655 S
C238 O246 1.258 . S
N239 Co230 2.057 . S
N239 C240 1.316 . S
N239 C241 1.375 1_455 S
C240 N239 1.316 . S
C240 N242 1.353 . S
C240 H251 0.931 . S
C241 N239 1.375 1_655 S
C241 C243 1.350 . S
C241 H250 0.930 . S
N242 C240 1.353 . S
N242 C243 1.367 1_455 S
C243 C241 1.350 . S
C243 N242 1.367 1_655 S
C243 H257 0.931 . S
C244 O247 1.256 . S
C244 O248 1.255 . S
O245 Co228 2.021 . S
O245 C238 1.259 1_455 S
O246 Co230 2.117 1_655 S
O246 C238 1.258 . S
O247 Co230 2.020 . S
O247 C244 1.256 . S
O248 Co228 2.062 . S
O248 C244 1.255 . S
O249 C229 1.259 . S
O249 Co230 2.021 . S
H250 C241 0.930 . S
H251 C240 0.931 . S
O252 Co228 2.117 . S
O252 C229 1.258 . S
O253 Co228 2.020 . S
O253 C255 1.256 . S
O254 Co230 2.062 . S
O254 C255 1.255 . S
C255 O253 1.256 . S
C255 O254 1.255 . S
H256 C235 0.931 . S
H257 C243 0.931 . S
Co258 N263 2.057 . S
Co258 O275 2.021 . S
Co258 O278 2.062 . S
Co258 O282 2.120 1_655 S
Co258 O283 2.020 . S
C259 O279 1.259 . S
C259 O282 1.256 . S
Co260 N269 2.057 . S
Co260 O276 2.117 . S
Co260 O277 2.020 . S
Co260 O279 2.021 1_655 S
Co260 O284 2.062 1_655 S
C261 N263 1.316 . S
C261 N264 1.347 . S
C261 H266 0.931 . S
C262 N263 1.375 . S
C262 C265 1.350 . S
C262 H267 0.930 . S
N263 Co258 2.057 . S
N263 C261 1.316 . S
N263 C262 1.375 . S
N264 C261 1.347 . S
N264 C265 1.373 . S
C265 C262 1.350 . S
C265 N264 1.373 . S
C265 H286 0.931 . S
H266 C261 0.931 . S
H267 C262 0.930 . S
C268 O275 1.259 . S
C268 O276 1.258 . S
N269 Co260 2.057 . S
N269 C270 1.316 1_655 S
N269 C271 1.375 . S
C270 N269 1.316 1_455 S
C270 N272 1.347 . S
C270 H281 0.931 . S
C271 N269 1.375 . S
C271 C273 1.350 . S
C271 H280 0.930 . S
N272 C270 1.347 . S
N272 C273 1.373 1_455 S
C273 C271 1.350 . S
C273 N272 1.373 1_655 S
C273 H287 0.931 . S
C274 O277 1.256 . S
C274 O278 1.255 . S
O275 Co258 2.021 . S
O275 C268 1.259 . S
O276 Co260 2.117 . S
O276 C268 1.258 . S
O277 Co260 2.020 . S
O277 C274 1.256 . S
O278 Co258 2.062 . S
O278 C274 1.255 . S
O279 C259 1.259 . S
O279 Co260 2.021 1_455 S
H280 C271 0.930 . S
H281 C270 0.931 . S
O282 Co258 2.120 1_455 S
O282 C259 1.256 . S
O283 Co258 2.020 . S
O283 C285 1.256 . S
O284 Co260 2.062 1_455 S
O284 C285 1.255 1_455 S
C285 O283 1.256 . S
C285 O284 1.255 1_655 S
H286 C265 0.931 . S
H287 C273 0.931 . S
Co288 N293 2.057 . S
Co288 O305 2.021 . S
Co288 O308 2.062 . S
Co288 O312 2.117 . S
Co288 O313 2.020 . S
C289 O309 1.261 . S
C289 O312 1.258 . S
Co290 N299 2.057 . S
Co290 O306 2.117 . S
Co290 O307 2.020 . S
Co290 O309 2.032 . S
Co290 O314 2.062 . S
C291 N293 1.316 . S
C291 N294 1.347 . S
C291 H296 0.931 . S
C292 N293 1.375 . S
C292 C295 1.350 . S
C292 H297 0.930 . S
N293 Co288 2.057 . S
N293 C291 1.316 . S
N293 C292 1.375 . S
N294 C291 1.347 . S
N294 C295 1.373 . S
C295 C292 1.350 . S
C295 N294 1.373 . S
C295 H316 0.931 . S
H296 C291 0.931 . S
H297 C292 0.930 . S
C298 O305 1.259 . S
C298 O306 1.258 . S
N299 Co290 2.057 . S
N299 C300 1.319 . S
N299 C301 1.375 . S
C300 N299 1.319 . S
C300 N302 1.347 . S
C300 H311 0.928 1_565 S
C301 N299 1.375 . S
C301 C303 1.350 . S
C301 H310 0.930 . S
N302 C300 1.347 . S
N302 C303 1.379 . S
C303 C301 1.350 . S
C303 N302 1.379 . S
C303 H317 0.931 . S
C304 O307 1.256 . S
C304 O308 1.255 . S
O305 Co288 2.021 . S
O305 C298 1.259 . S
O306 Co290 2.117 . S
O306 C298 1.258 . S
O307 Co290 2.020 . S
O307 C304 1.256 . S
O308 Co288 2.062 . S
O308 C304 1.255 . S
O309 C289 1.261 . S
O309 Co290 2.032 . S
H310 C301 0.930 . S
H311 C300 0.928 1_545 S
O312 Co288 2.117 . S
O312 C289 1.258 . S
O313 Co288 2.020 . S
O313 C315 1.256 . S
O314 Co290 2.062 . S
O314 C315 1.255 . S
C315 O313 1.256 . S
C315 O314 1.255 . S
H316 C295 0.931 . S
H317 C303 0.931 . S
Co318 N323 2.057 . S
Co318 O335 2.021 . S
Co318 O338 2.062 . S
Co318 O342 2.117 . S
Co318 O343 2.020 . S
C319 O339 1.259 . S
C319 O342 1.258 . S
Co320 N329 2.057 . S
Co320 O336 2.117 . S
Co320 O337 2.020 . S
Co320 O339 2.021 . S
Co320 O344 2.062 . S
C321 N323 1.316 . S
C321 N324 1.347 . S
C321 H326 0.931 . S
C322 N323 1.375 . S
C322 C325 1.350 . S
C322 H327 0.930 . S
N323 Co318 2.057 . S
N323 C321 1.316 . S
N323 C322 1.375 . S
N324 C321 1.347 . S
N324 C325 1.373 . S
C325 C322 1.350 . S
C325 N324 1.373 . S
C325 H346 0.931 . S
H326 C321 0.931 . S
H327 C322 0.930 . S
C328 O335 1.259 . S
C328 O336 1.258 . S
N329 Co320 2.057 . S
N329 C330 1.316 . S
N329 C331 1.375 . S
C330 N329 1.316 . S
C330 N332 1.347 . S
C330 H341 0.931 . S
C331 N329 1.375 . S
C331 C333 1.350 . S
C331 H340 0.930 . S
N332 C330 1.347 . S
N332 C333 1.373 . S
C333 C331 1.350 . S
C333 N332 1.373 . S
C333 H347 0.931 . S
C334 O337 1.256 . S
C334 O338 1.255 . S
O335 Co318 2.021 . S
O335 C328 1.259 . S
O336 Co320 2.117 . S
O336 C328 1.258 . S
O337 Co320 2.020 . S
O337 C334 1.256 . S
O338 Co318 2.062 . S
O338 C334 1.255 . S
O339 C319 1.259 . S
O339 Co320 2.021 . S
H340 C331 0.930 . S
H341 C330 0.931 . S
O342 Co318 2.117 . S
O342 C319 1.258 . S
O343 Co318 2.020 . S
O343 C345 1.256 . S
O344 Co320 2.062 . S
O344 C345 1.255 . S
C345 O343 1.256 . S
C345 O344 1.255 . S
H346 C325 0.931 . S
H347 C333 0.931 . S
Co348 N353 2.057 1_556 S
Co348 O365 2.021 1_556 S
Co348 O368 2.062 . S
Co348 O372 2.117 . S
Co348 O373 2.020 . S
C349 O369 1.259 . S
C349 O372 1.258 . S
Co350 N359 2.057 . S
Co350 O366 2.117 . S
Co350 O367 2.020 . S
Co350 O369 2.021 . S
Co350 O374 2.062 . S
C351 N353 1.316 . S
C351 N354 1.347 . S
C351 H356 0.931 . S
C352 N353 1.375 . S
C352 C355 1.350 . S
C352 H357 0.930 1_554 S
N353 Co348 2.057 1_554 S
N353 C351 1.316 . S
N353 C352 1.375 . S
N354 C351 1.347 . S
N354 C355 1.373 . S
C355 C352 1.350 . S
C355 N354 1.373 . S
C355 H376 0.931 . S
H356 C351 0.931 . S
H357 C352 0.930 1_556 S
C358 O365 1.259 1_556 S
C358 O366 1.258 . S
N359 Co350 2.057 . S
N359 C360 1.316 . S
N359 C361 1.375 . S
C360 N359 1.316 . S
C360 N362 1.347 . S
C360 H371 0.931 . S
C361 N359 1.375 . S
C361 C363 1.350 . S
C361 H370 0.930 . S
N362 C360 1.347 . S
N362 C363 1.373 . S
C363 C361 1.350 . S
C363 N362 1.373 . S
C363 H377 0.931 . S
C364 O367 1.256 . S
C364 O368 1.255 . S
O365 Co348 2.021 1_554 S
O365 C358 1.259 1_554 S
O366 Co350 2.117 . S
O366 C358 1.258 . S
O367 Co350 2.020 . S
O367 C364 1.256 . S
O368 Co348 2.062 . S
O368 C364 1.255 . S
O369 C349 1.259 . S
O369 Co350 2.021 . S
H370 C361 0.930 . S
H371 C360 0.931 . S
O372 Co348 2.117 . S
O372 C349 1.258 . S
O373 Co348 2.020 . S
O373 C375 1.256 . S
O374 Co350 2.062 . S
O374 C375 1.255 . S
C375 O373 1.256 . S
C375 O374 1.255 . S
H376 C355 0.931 . S
H377 C363 0.931 . S
Co378 N383 2.057 . S
Co378 O395 2.021 . S
Co378 O398 2.062 1_556 S
Co378 O402 2.117 . S
Co378 O403 2.020 . S
C379 O399 1.259 . S
C379 O402 1.258 . S
Co380 N389 2.057 1_545 S
Co380 O396 2.117 . S
Co380 O397 2.020 1_546 S
Co380 O399 2.021 . S
Co380 O404 2.062 . S
C381 N383 1.316 . S
C381 N384 1.347 1_556 S
C381 H386 0.931 . S
C382 N383 1.375 . S
C382 C385 1.350 1_556 S
C382 H387 0.931 . S
N383 Co378 2.057 . S
N383 C381 1.316 . S
N383 C382 1.375 . S
N384 C381 1.347 1_554 S
N384 C385 1.373 . S
C385 C382 1.350 1_554 S
C385 N384 1.373 . S
C385 H406 0.931 . S
H386 C381 0.931 . S
H387 C382 0.931 . S
C388 O395 1.259 . S
C388 O396 1.258 . S
N389 Co380 2.057 1_565 S
N389 C390 1.316 . S
N389 C391 1.375 . S
C390 N389 1.316 . S
C390 N392 1.347 . S
C390 H401 0.931 . S
C391 N389 1.375 . S
C391 C393 1.350 . S
C391 H400 0.930 . S
N392 C390 1.347 . S
N392 C393 1.373 . S
C393 C391 1.350 . S
C393 N392 1.373 . S
C393 H407 0.931 . S
C394 O397 1.256 1_545 S
C394 O398 1.255 . S
O395 Co378 2.021 . S
O395 C388 1.259 . S
O396 Co380 2.117 . S
O396 C388 1.258 . S
O397 Co380 2.020 1_564 S
O397 C394 1.256 1_565 S
O398 Co378 2.062 1_554 S
O398 C394 1.255 . S
O399 C379 1.259 . S
O399 Co380 2.021 . S
H400 C391 0.930 . S
H401 C390 0.931 . S
O402 Co378 2.117 . S
O402 C379 1.258 . S
O403 Co378 2.020 . S
O403 C405 1.256 . S
O404 Co380 2.062 . S
O404 C405 1.255 . S
C405 O403 1.256 . S
C405 O404 1.255 . S
H406 C385 0.931 . S
H407 C393 0.931 . S
C408 C409 1.369 . S
C408 C410 1.419 . S
C408 H412 0.930 . S
C409 C408 1.369 . S
C409 C418 1.429 . S
C410 C408 1.419 . S
C410 C411 1.363 . S
C410 H413 0.929 . S
C411 C410 1.363 . S
C411 C417 1.428 1_455 S
H412 C408 0.930 . S
H413 C410 0.929 . S
S414 N415 1.613 . S
S414 N416 1.610 . S
N415 S414 1.613 . S
N415 C418 1.350 1_655 S
N416 S414 1.610 . S
N416 C417 1.351 . S
C417 C411 1.428 1_655 S
C417 N416 1.351 . S
C417 C418 1.434 1_655 S
C418 C409 1.429 . S
C418 N415 1.350 1_455 S
C418 C417 1.434 1_455 S
C419 C420 1.381 . S
C419 C421 1.421 . S
C419 H423 0.915 1_455 S
C420 C419 1.381 . S
C420 C429 1.429 . S
C421 C419 1.421 . S
C421 C422 1.363 . S
C421 H424 0.929 1_455 S
C422 C421 1.363 . S
C422 C428 1.428 . S
H423 C419 0.915 1_655 S
H424 C421 0.929 1_655 S
S425 N426 1.613 . S
S425 N427 1.610 . S
N426 S425 1.613 . S
N426 C429 1.350 . S
N427 S425 1.610 . S
N427 C428 1.351 . S
C428 C422 1.428 . S
C428 N427 1.351 . S
C428 C429 1.434 . S
C429 C420 1.429 . S
C429 N426 1.350 . S
C429 C428 1.434 . S
C430 C431 1.369 1_655 S
C430 C432 1.419 . S
C430 H434 0.930 . S
C431 C430 1.369 1_455 S
C431 C440 1.429 . S
C432 C430 1.419 . S
C432 C433 1.363 . S
C432 H435 0.929 . S
C433 C432 1.363 . S
C433 C439 1.428 1_655 S
H434 C430 0.930 . S
H435 C432 0.929 . S
S436 N437 1.613 . S
S436 N438 1.610 . S
N437 S436 1.613 . S
N437 C440 1.350 . S
N438 S436 1.610 . S
N438 C439 1.351 . S
C439 C433 1.428 1_455 S
C439 N438 1.351 . S
C439 C440 1.434 . S
C440 C431 1.429 . S
C440 N437 1.350 . S
C440 C439 1.434 . S
C441 C442 1.369 1_455 S
C441 C443 1.419 . S
C441 H445 0.930 . S
C442 C441 1.369 1_655 S
C442 C451 1.429 . S
C443 C441 1.419 . S
C443 C444 1.363 1_455 S
C443 H446 0.929 . S
C444 C443 1.363 1_655 S
C444 C450 1.428 . S
H445 C441 0.930 . S
H446 C443 0.929 . S
S447 N448 1.613 . S
S447 N449 1.610 . S
N448 S447 1.613 . S
N448 C451 1.350 . S
N449 S447 1.610 . S
N449 C450 1.351 . S
C450 C444 1.428 . S
C450 N449 1.351 . S
C450 C451 1.434 . S
C451 C442 1.429 . S
C451 N448 1.350 . S
C451 C450 1.434 . S
C452 C453 1.369 . S
C452 C454 1.419 . S
C452 H456 0.930 1_545 S
C453 C452 1.369 . S
C453 C462 1.429 . S
C454 C452 1.419 . S
C454 C455 1.363 . S
C454 H457 0.929 1_545 S
C455 C454 1.363 . S
C455 C461 1.428 . S
H456 C452 0.930 1_565 S
H457 C454 0.929 1_565 S
S458 N459 1.613 . S
S458 N460 1.610 . S
N459 S458 1.613 . S
N459 C462 1.350 . S
N460 S458 1.610 . S
N460 C461 1.351 . S
C461 C455 1.428 . S
C461 N460 1.351 . S
C461 C462 1.434 . S
C462 C453 1.429 . S
C462 N459 1.350 . S
C462 C461 1.434 . S
C463 C464 1.369 . S
C463 C465 1.419 . S
C463 H467 0.930 . S
C464 C463 1.369 . S
C464 C473 1.429 . S
C465 C463 1.419 . S
C465 C466 1.363 . S
C465 H468 0.929 . S
C466 C465 1.363 . S
C466 C472 1.428 . S
H467 C463 0.930 . S
H468 C465 0.929 . S
S469 N470 1.613 . S
S469 N471 1.610 . S
N470 S469 1.613 . S
N470 C473 1.350 . S
N471 S469 1.610 . S
N471 C472 1.351 . S
C472 C466 1.428 . S
C472 N471 1.351 . S
C472 C473 1.434 . S
C473 C464 1.429 . S
C473 N470 1.350 . S
C473 C472 1.434 . S
C474 C475 1.369 1_545 S
C474 C476 1.419 . S
C474 H478 0.930 . S
C475 C474 1.369 1_565 S
C475 C484 1.429 . S
C476 C474 1.419 . S
C476 C477 1.363 . S
C476 H479 0.929 . S
C477 C476 1.363 . S
C477 C483 1.428 1_545 S
H478 C474 0.930 . S
H479 C476 0.929 . S
S480 N481 1.613 . S
S480 N482 1.610 . S
N481 S480 1.613 . S
N481 C484 1.350 . S
N482 S480 1.610 . S
N482 C483 1.351 . S
C483 C477 1.428 1_565 S
C483 N482 1.351 . S
C483 C484 1.434 . S
C484 C475 1.429 . S
C484 N481 1.350 . S
C484 C483 1.434 . S
C485 C486 1.369 . S
C485 C487 1.419 . S
C485 H489 0.930 . S
C486 C485 1.369 . S
C486 C495 1.429 . S
C487 C485 1.419 . S
C487 C488 1.363 . S
C487 H490 0.929 . S
C488 C487 1.363 . S
C488 C494 1.428 . S
H489 C485 0.930 . S
H490 C487 0.929 . S
S491 N492 1.613 . S
S491 N493 1.610 . S
N492 S491 1.613 . S
N492 C495 1.350 . S
N493 S491 1.610 . S
N493 C494 1.351 . S
C494 C488 1.428 . S
C494 N493 1.351 . S
C494 C495 1.434 . S
C495 C486 1.429 . S
C495 N492 1.350 . S
C495 C494 1.434 . S
C496 C497 1.369 . S
C496 C498 1.419 . S
C496 H500 0.930 . S
C497 C496 1.369 . S
C497 C506 1.429 1_554 S
C498 C496 1.419 . S
C498 C499 1.363 . S
C498 H501 0.929 . S
C499 C498 1.363 . S
C499 C505 1.428 1_554 S
H500 C496 0.930 . S
H501 C498 0.929 . S
S502 N503 1.613 . S
S502 N504 1.610 . S
N503 S502 1.613 . S
N503 C506 1.350 . S
N504 S502 1.610 . S
N504 C505 1.351 . S
C505 C499 1.428 1_556 S
C505 N504 1.351 . S
C505 C506 1.434 . S
C506 C497 1.429 1_556 S
C506 N503 1.350 . S
C506 C505 1.434 . S
C507 C508 1.369 . S
C507 C509 1.419 . S
C507 H511 0.930 . S
C508 C507 1.369 . S
C508 C517 1.429 . S
C509 C507 1.419 . S
C509 C510 1.363 . S
C509 H512 0.929 . S
C510 C509 1.363 . S
C510 C516 1.428 . S
H511 C507 0.930 . S
H512 C509 0.929 . S
S513 N514 1.613 . S
S513 N515 1.610 . S
N514 S513 1.613 . S
N514 C517 1.350 . S
N515 S513 1.610 . S
N515 C516 1.351 . S
C516 C510 1.428 . S
C516 N515 1.351 . S
C516 C517 1.434 . S
C517 C508 1.429 . S
C517 N514 1.350 . S
C517 C516 1.434 . S
C518 C519 1.369 . S
C518 C520 1.419 . S
C518 H522 0.930 . S
C519 C518 1.369 . S
C519 C528 1.429 . S
C520 C518 1.419 . S
C520 C521 1.363 . S
C520 H523 0.929 . S
C521 C520 1.363 . S
C521 C527 1.428 . S
H522 C518 0.930 . S
H523 C520 0.929 . S
S524 N525 1.613 . S
S524 N526 1.610 . S
N525 S524 1.613 . S
N525 C528 1.350 . S
N526 S524 1.610 . S
N526 C527 1.351 . S
C527 C521 1.428 . S
C527 N526 1.351 . S
C527 C528 1.434 . S
C528 C519 1.429 . S
C528 N525 1.350 . S
C528 C527 1.434 . S
C529 C530 1.369 . S
C529 C531 1.419 . S
C529 H533 0.930 . S
C530 C529 1.369 . S
C530 C539 1.429 . S
C531 C529 1.419 . S
C531 C532 1.363 . S
C531 H534 0.929 . S
C532 C531 1.363 . S
C532 C538 1.428 . S
H533 C529 0.930 . S
H534 C531 0.929 . S
S535 N536 1.613 . S
S535 N537 1.610 . S
N536 S535 1.613 . S
N536 C539 1.350 . S
N537 S535 1.610 . S
N537 C538 1.351 . S
C538 C532 1.428 . S
C538 N537 1.351 . S
C538 C539 1.434 . S
C539 C530 1.429 . S
C539 N536 1.350 . S
C539 C538 1.434 . S
C540 C541 1.369 . S
C540 C542 1.419 . S
C540 H544 0.930 . S
C541 C540 1.369 . S
C541 C550 1.429 . S
C542 C540 1.419 . S
C542 C543 1.363 . S
C542 H545 0.929 . S
C543 C542 1.363 . S
C543 C549 1.428 . S
H544 C540 0.930 . S
H545 C542 0.929 . S
S546 N547 1.613 . S
S546 N548 1.610 . S
N547 S546 1.613 . S
N547 C550 1.350 . S
N548 S546 1.610 . S
N548 C549 1.351 . S
C549 C543 1.428 . S
C549 N548 1.351 . S
C549 C550 1.434 . S
C550 C541 1.429 . S
C550 N547 1.350 . S
C550 C549 1.434 . S
C551 C552 1.369 . S
C551 C553 1.419 . S
C551 H555 0.930 . S
C552 C551 1.369 . S
C552 C561 1.429 . S
C553 C551 1.419 . S
C553 C554 1.363 . S
C553 H556 0.929 . S
C554 C553 1.363 . S
C554 C560 1.428 . S
H555 C551 0.930 . S
H556 C553 0.929 . S
S557 N558 1.613 . S
S557 N559 1.610 . S
N558 S557 1.613 . S
N558 C561 1.350 . S
N559 S557 1.610 . S
N559 C560 1.351 . S
C560 C554 1.428 . S
C560 N559 1.351 . S
C560 C561 1.434 . S
C561 C552 1.429 . S
C561 N558 1.350 . S
C561 C560 1.434 . S
C562 C563 1.369 . S
C562 C564 1.419 . S
C562 H566 0.930 . S
C563 C562 1.369 . S
C563 C572 1.429 . S
C564 C562 1.419 . S
C564 C565 1.363 . S
C564 H567 0.929 . S
C565 C564 1.363 . S
C565 C571 1.428 . S
H566 C562 0.930 . S
H567 C564 0.929 . S
S568 N569 1.613 . S
S568 N570 1.610 . S
N569 S568 1.613 . S
N569 C572 1.350 . S
N570 S568 1.610 . S
N570 C571 1.351 . S
C571 C565 1.428 . S
C571 N570 1.351 . S
C571 C572 1.434 . S
C572 C563 1.429 . S
C572 N569 1.350 . S
C572 C571 1.434 . S
C573 C574 1.369 . S
C573 C575 1.419 . S
C573 H577 0.930 . S
C574 C573 1.369 . S
C574 C583 1.429 . S
C575 C573 1.419 . S
C575 C576 1.363 . S
C575 H578 0.929 . S
C576 C575 1.363 . S
C576 C582 1.428 . S
H577 C573 0.930 . S
H578 C575 0.929 . S
S579 N580 1.613 . S
S579 N581 1.610 . S
N580 S579 1.613 . S
N580 C583 1.350 . S
N581 S579 1.610 . S
N581 C582 1.351 . S
C582 C576 1.428 . S
C582 N581 1.351 . S
C582 C583 1.434 . S
C583 C574 1.429 . S
C583 N580 1.350 . S
C583 C582 1.434 . S
C584 C585 1.369 . S
C584 C586 1.419 . S
C584 H588 0.930 . S
C585 C584 1.369 . S
C585 C594 1.429 . S
C586 C584 1.419 . S
C586 C587 1.363 . S
C586 H589 0.929 . S
C587 C586 1.363 . S
C587 C593 1.428 . S
H588 C584 0.930 . S
H589 C586 0.929 . S
S590 N591 1.613 . S
S590 N592 1.610 . S
N591 S590 1.613 . S
N591 C594 1.350 . S
N592 S590 1.610 . S
N592 C593 1.351 . S
C593 C587 1.428 . S
C593 N592 1.351 . S
C593 C594 1.434 . S
C594 C585 1.429 . S
C594 N591 1.350 . S
C594 C593 1.434 . S
C595 C596 1.369 1_545 S
C595 C597 1.419 . S
C595 H599 0.930 . S
C596 C595 1.369 1_565 S
C596 C605 1.429 . S
C597 C595 1.419 . S
C597 C598 1.363 . S
C597 H600 0.929 . S
C598 C597 1.363 . S
C598 C604 1.428 1_545 S
H599 C595 0.930 . S
H600 C597 0.929 . S
S601 N602 1.613 . S
S601 N603 1.610 . S
N602 S601 1.613 . S
N602 C605 1.350 . S
N603 S601 1.610 . S
N603 C604 1.351 . S
C604 C598 1.428 1_565 S
C604 N603 1.351 . S
C604 C605 1.434 . S
C605 C596 1.429 . S
C605 N602 1.350 . S
C605 C604 1.434 . S
C606 C607 1.369 . S
C606 C608 1.419 . S
C606 H610 0.930 . S
C607 C606 1.369 . S
C607 C616 1.429 . S
C608 C606 1.419 . S
C608 C609 1.363 . S
C608 H611 0.929 . S
C609 C608 1.363 . S
C609 C615 1.428 . S
H610 C606 0.930 . S
H611 C608 0.929 . S
S612 N613 1.613 . S
S612 N614 1.610 . S
N613 S612 1.613 . S
N613 C616 1.350 . S
N614 S612 1.610 . S
N614 C615 1.351 . S
C615 C609 1.428 . S
C615 N614 1.351 . S
C615 C616 1.434 . S
C616 C607 1.429 . S
C616 N613 1.350 . S
C616 C615 1.434 . S
C617 C618 1.369 1_565 S
C617 C619 1.419 . S
C617 H621 0.930 . S
C618 C617 1.369 1_545 S
C618 C627 1.429 . S
C619 C617 1.419 . S
C619 C620 1.363 1_565 S
C619 H622 0.929 . S
C620 C619 1.363 1_545 S
C620 C626 1.428 . S
H621 C617 0.930 . S
H622 C619 0.929 . S
S623 N624 1.613 . S
S623 N625 1.610 . S
N624 S623 1.613 . S
N624 C627 1.350 . S
N625 S623 1.610 . S
N625 C626 1.351 . S
C626 C620 1.428 . S
C626 N625 1.351 . S
C626 C627 1.434 . S
C627 C618 1.429 . S
C627 N624 1.350 . S
C627 C626 1.434 . S
C628 C629 1.369 . S
C628 C630 1.419 . S
C628 H632 0.930 . S
C629 C628 1.369 . S
C629 C638 1.429 . S
C630 C628 1.419 . S
C630 C631 1.363 . S
C630 H633 0.929 . S
C631 C630 1.363 . S
C631 C637 1.428 . S
H632 C628 0.930 . S
H633 C630 0.929 . S
S634 N635 1.613 . S
S634 N636 1.610 . S
N635 S634 1.613 . S
N635 C638 1.350 . S
N636 S634 1.610 . S
N636 C637 1.351 . S
C637 C631 1.428 . S
C637 N636 1.351 . S
C637 C638 1.434 . S
C638 C629 1.429 . S
C638 N635 1.350 . S
C638 C637 1.434 . S
C639 C640 1.369 1_554 S
C639 C641 1.419 . S
C639 H643 0.930 . S
C640 C639 1.369 1_556 S
C640 C649 1.429 . S
C641 C639 1.419 . S
C641 C642 1.363 1_554 S
C641 H644 0.929 . S
C642 C641 1.363 1_556 S
C642 C648 1.428 . S
H643 C639 0.930 . S
H644 C641 0.929 . S
S645 N646 1.613 . S
S645 N647 1.610 . S
N646 S645 1.613 . S
N646 C649 1.350 . S
N647 S645 1.610 . S
N647 C648 1.351 . S
C648 C642 1.428 . S
C648 N647 1.351 . S
C648 C649 1.434 . S
C649 C640 1.429 . S
C649 N646 1.350 . S
C649 C648 1.434 . S
C650 C651 1.361 1_554 S
C650 C652 1.419 . S
C650 H654 0.930 . S
C651 C650 1.361 1_556 S
C651 C660 1.437 . S
C652 C650 1.419 . S
C652 C653 1.363 1_554 S
C652 H655 0.929 . S
C653 C652 1.363 1_556 S
C653 C659 1.428 . S
H654 C650 0.930 . S
H655 C652 0.929 . S
S656 N657 1.613 . S
S656 N658 1.610 . S
N657 S656 1.613 . S
N657 C660 1.350 . S
N658 S656 1.610 . S
N658 C659 1.351 . S
C659 C653 1.428 . S
C659 N658 1.351 . S
C659 C660 1.434 . S
C660 C651 1.437 . S
C660 N657 1.350 . S
C660 C659 1.434 . S
C661 C662 1.369 . S
C661 C663 1.419 . S
C661 H665 0.930 . S
C662 C661 1.369 . S
C662 C671 1.429 . S
C663 C661 1.419 . S
C663 C664 1.363 . S
C663 H666 0.929 . S
C664 C663 1.363 . S
C664 C670 1.428 . S
H665 C661 0.930 . S
H666 C663 0.929 . S
S667 N668 1.613 . S
S667 N669 1.610 . S
N668 S667 1.613 . S
N668 C671 1.350 . S
N669 S667 1.610 . S
N669 C670 1.351 . S
C670 C664 1.428 . S
C670 N669 1.351 . S
C670 C671 1.434 . S
C671 C662 1.429 . S
C671 N668 1.350 . S
C671 C670 1.434 . S
C672 C673 1.369 . S
C672 C674 1.419 . S
C672 H676 0.930 . S
C673 C672 1.369 . S
C673 C682 1.429 1_455 S
C674 C672 1.419 . S
C674 C675 1.363 . S
C674 H677 0.929 . S
C675 C674 1.363 . S
C675 C681 1.428 1_455 S
H676 C672 0.930 . S
H677 C674 0.929 . S
S678 N679 1.613 . S
S678 N680 1.610 . S
N679 S678 1.613 . S
N679 C682 1.350 . S
N680 S678 1.610 . S
N680 C681 1.351 . S
C681 C675 1.428 1_655 S
C681 N680 1.351 . S
C681 C682 1.434 . S
C682 C673 1.429 1_655 S
C682 N679 1.350 . S
C682 C681 1.434 . S
C683 C684 1.369 . S
C683 C685 1.419 . S
C683 H687 0.930 . S
C684 C683 1.369 . S
C684 C693 1.429 1_455 S
C685 C683 1.419 . S
C685 C686 1.363 . S
C685 H688 0.929 . S
C686 C685 1.363 . S
C686 C692 1.428 1_455 S
H687 C683 0.930 . S
H688 C685 0.929 . S
S689 N690 1.613 . S
S689 N691 1.610 . S
N690 S689 1.613 . S
N690 C693 1.350 . S
N691 S689 1.610 . S
N691 C692 1.351 . S
C692 C686 1.428 1_655 S
C692 N691 1.351 . S
C692 C693 1.434 . S
C693 C684 1.429 1_655 S
C693 N690 1.350 . S
C693 C692 1.434 . S
C694 C695 1.369 . S
C694 C696 1.419 . S
C694 H698 0.930 . S
C695 C694 1.369 . S
C695 C704 1.429 . S
C696 C694 1.419 . S
C696 C697 1.363 . S
C696 H699 0.929 1_455 S
C697 C696 1.363 . S
C697 C703 1.428 . S
H698 C694 0.930 . S
H699 C696 0.929 1_655 S
S700 N701 1.613 . S
S700 N702 1.610 . S
N701 S700 1.613 . S
N701 C704 1.350 . S
N702 S700 1.610 . S
N702 C703 1.351 . S
C703 C697 1.428 . S
C703 N702 1.351 . S
C703 C704 1.434 . S
C704 C695 1.429 . S
C704 N701 1.350 . S
C704 C703 1.434 . S
C705 C706 1.369 1_455 S
C705 C707 1.419 . S
C705 H709 0.930 . S
C706 C705 1.369 1_655 S
C706 C715 1.429 . S
C707 C705 1.419 . S
C707 C708 1.363 1_455 S
C707 H710 0.929 . S
C708 C707 1.363 1_655 S
C708 C714 1.429 . S
H709 C705 0.930 . S
H710 C707 0.929 . S
S711 N712 1.613 . S
S711 N713 1.610 . S
N712 S711 1.613 . S
N712 C715 1.350 . S
N713 S711 1.610 . S
N713 C714 1.351 . S
C714 C708 1.429 . S
C714 N713 1.351 . S
C714 C715 1.434 . S
C715 C706 1.429 . S
C715 N712 1.350 . S
C715 C714 1.434 . S
C716 C717 1.372 . S
C716 C718 1.418 1_545 S
C716 H720 0.928 1_545 S
C717 C716 1.372 . S
C717 C726 1.429 . S
C718 C716 1.418 1_565 S
C718 C719 1.363 1_565 S
C718 H721 0.929 . S
C719 C718 1.363 1_545 S
C719 C725 1.428 . S
H720 C716 0.928 1_565 S
H721 C718 0.929 . S
S722 N723 1.613 . S
S722 N724 1.610 . S
N723 S722 1.613 . S
N723 C726 1.350 . S
N724 S722 1.610 . S
N724 C725 1.351 . S
C725 C719 1.428 . S
C725 N724 1.351 . S
C725 C726 1.434 . S
C726 C717 1.429 . S
C726 N723 1.350 . S
C726 C725 1.434 . S
C727 C728 1.369 . S
C727 C729 1.419 . S
C727 H731 0.930 . S
C728 C727 1.369 . S
C728 C737 1.429 . S
C729 C727 1.419 . S
C729 C730 1.363 . S
C729 H732 0.929 . S
C730 C729 1.363 . S
C730 C736 1.428 . S
H731 C727 0.930 . S
H732 C729 0.929 . S
S733 N734 1.613 . S
S733 N735 1.610 . S
N734 S733 1.613 . S
N734 C737 1.350 . S
N735 S733 1.610 . S
N735 C736 1.351 . S
C736 C730 1.428 . S
C736 N735 1.351 . S
C736 C737 1.434 . S
C737 C728 1.429 . S
C737 N734 1.350 . S
C737 C736 1.434 . S
C738 C739 1.369 . S
C738 C740 1.419 . S
C738 H742 0.930 . S
C739 C738 1.369 . S
C739 C748 1.429 1_565 S
C740 C738 1.419 . S
C740 C741 1.363 . S
C740 H743 0.929 . S
C741 C740 1.363 . S
C741 C747 1.428 1_565 S
H742 C738 0.930 . S
H743 C740 0.929 . S
S744 N745 1.613 . S
S744 N746 1.610 . S
N745 S744 1.613 . S
N745 C748 1.350 . S
N746 S744 1.610 . S
N746 C747 1.351 . S
C747 C741 1.428 1_545 S
C747 N746 1.351 . S
C747 C748 1.434 . S
C748 C739 1.429 1_545 S
C748 N745 1.350 . S
C748 C747 1.434 . S
C749 C750 1.369 . S
C749 C751 1.419 . S
C749 H753 0.930 . S
C750 C749 1.369 . S
C750 C759 1.429 . S
C751 C749 1.419 . S
C751 C752 1.363 . S
C751 H754 0.929 . S
C752 C751 1.363 . S
C752 C758 1.428 . S
H753 C749 0.930 . S
H754 C751 0.929 . S
S755 N756 1.613 . S
S755 N757 1.610 . S
N756 S755 1.613 . S
N756 C759 1.350 . S
N757 S755 1.610 . S
N757 C758 1.351 . S
C758 C752 1.428 . S
C758 N757 1.351 . S
C758 C759 1.434 . S
C759 C750 1.429 . S
C759 N756 1.350 . S
C759 C758 1.434 . S
C760 C761 1.382 . S
C760 C762 1.414 1_554 S
C760 H764 0.922 1_554 S
C761 C760 1.382 . S
C761 C770 1.429 . S
C762 C760 1.414 1_556 S
C762 C763 1.363 1_556 S
C762 H765 0.929 . S
C763 C762 1.363 1_554 S
C763 C769 1.428 . S
H764 C760 0.922 1_556 S
H765 C762 0.929 . S
S766 N767 1.613 . S
S766 N768 1.610 . S
N767 S766 1.613 . S
N767 C770 1.350 . S
N768 S766 1.610 . S
N768 C769 1.351 . S
C769 C763 1.428 . S
C769 N768 1.351 . S
C769 C770 1.434 . S
C770 C761 1.429 . S
C770 N767 1.350 . S
C770 C769 1.434 . S
C771 C772 1.369 . S
C771 C773 1.419 . S
C771 H775 0.930 . S
C772 C771 1.369 . S
C772 C781 1.429 . S
C773 C771 1.419 . S
C773 C774 1.363 . S
C773 H776 0.929 . S
C774 C773 1.363 . S
C774 C780 1.428 . S
H775 C771 0.930 . S
H776 C773 0.929 . S
S777 N778 1.613 . S
S777 N779 1.610 . S
N778 S777 1.613 . S
N778 C781 1.350 . S
N779 S777 1.610 . S
N779 C780 1.351 . S
C780 C774 1.428 . S
C780 N779 1.351 . S
C780 C781 1.434 . S
C781 C772 1.429 . S
C781 N778 1.350 . S
C781 C780 1.434 . S
C782 C783 1.369 . S
C782 C784 1.419 . S
C782 H786 0.930 . S
C783 C782 1.369 . S
C783 C792 1.429 . S
C784 C782 1.419 . S
C784 C785 1.363 . S
C784 H787 0.929 . S
C785 C784 1.363 . S
C785 C791 1.428 . S
H786 C782 0.930 . S
H787 C784 0.929 . S
S788 N789 1.613 . S
S788 N790 1.610 . S
N789 S788 1.613 . S
N789 C792 1.350 . S
N790 S788 1.610 . S
N790 C791 1.351 . S
C791 C785 1.428 . S
C791 N790 1.351 . S
C791 C792 1.434 . S
C792 C783 1.429 . S
C792 N789 1.350 . S
C792 C791 1.434 . S
C793 C794 1.369 . S
C793 C795 1.419 . S
C793 H797 0.930 . S
C794 C793 1.369 . S
C794 C803 1.429 . S
C795 C793 1.419 . S
C795 C796 1.363 . S
C795 H798 0.929 . S
C796 C795 1.363 . S
C796 C802 1.428 . S
H797 C793 0.930 . S
H798 C795 0.929 . S
S799 N800 1.613 . S
S799 N801 1.610 . S
N800 S799 1.613 . S
N800 C803 1.350 . S
N801 S799 1.610 . S
N801 C802 1.351 . S
C802 C796 1.428 . S
C802 N801 1.351 . S
C802 C803 1.434 . S
C803 C794 1.429 . S
C803 N800 1.350 . S
C803 C802 1.434 . S
C804 C805 1.369 . S
C804 C806 1.419 . S
C804 H808 0.930 . S
C805 C804 1.369 . S
C805 C814 1.429 . S
C806 C804 1.419 . S
C806 C807 1.363 . S
C806 H809 0.929 . S
C807 C806 1.363 . S
C807 C813 1.428 . S
H808 C804 0.930 . S
H809 C806 0.929 . S
S810 N811 1.613 . S
S810 N812 1.610 . S
N811 S810 1.613 . S
N811 C814 1.350 . S
N812 S810 1.610 . S
N812 C813 1.351 . S
C813 C807 1.428 . S
C813 N812 1.351 . S
C813 C814 1.434 . S
C814 C805 1.429 . S
C814 N811 1.350 . S
C814 C813 1.434 . S
C815 C816 1.369 . S
C815 C817 1.419 . S
C815 H819 0.930 . S
C816 C815 1.369 . S
C816 C825 1.429 . S
C817 C815 1.419 . S
C817 C818 1.363 . S
C817 H820 0.929 . S
C818 C817 1.363 . S
C818 C824 1.428 . S
H819 C815 0.930 . S
H820 C817 0.929 . S
S821 N822 1.613 . S
S821 N823 1.610 . S
N822 S821 1.613 . S
N822 C825 1.350 . S
N823 S821 1.610 . S
N823 C824 1.351 . S
C824 C818 1.428 . S
C824 N823 1.351 . S
C824 C825 1.434 . S
C825 C816 1.429 . S
C825 N822 1.350 . S
C825 C824 1.434 . S
C826 C827 1.369 . S
C826 C828 1.419 . S
C826 H830 0.930 . S
C827 C826 1.369 . S
C827 C836 1.429 . S
C828 C826 1.419 . S
C828 C829 1.363 . S
C828 H831 0.929 . S
C829 C828 1.363 . S
C829 C835 1.428 . S
H830 C826 0.930 . S
H831 C828 0.929 . S
S832 N833 1.613 . S
S832 N834 1.610 . S
N833 S832 1.613 . S
N833 C836 1.350 . S
N834 S832 1.610 . S
N834 C835 1.351 . S
C835 C829 1.428 . S
C835 N834 1.351 . S
C835 C836 1.434 . S
C836 C827 1.429 . S
C836 N833 1.350 . S
C836 C835 1.434 . S
C837 C838 1.369 . S
C837 C839 1.419 . S
C837 H841 0.930 . S
C838 C837 1.369 . S
C838 C847 1.429 . S
C839 C837 1.419 . S
C839 C840 1.363 . S
C839 H842 0.929 . S
C840 C839 1.363 . S
C840 C846 1.428 . S
H841 C837 0.930 . S
H842 C839 0.929 . S
S843 N844 1.613 . S
S843 N845 1.610 . S
N844 S843 1.613 . S
N844 C847 1.350 . S
N845 S843 1.610 . S
N845 C846 1.351 . S
C846 C840 1.428 . S
C846 N845 1.351 . S
C846 C847 1.434 . S
C847 C838 1.429 . S
C847 N844 1.350 . S
C847 C846 1.434 . S
C848 C849 1.369 . S
C848 C850 1.419 . S
C848 H852 0.930 . S
C849 C848 1.369 . S
C849 C858 1.429 . S
C850 C848 1.419 . S
C850 C851 1.363 . S
C850 H853 0.929 . S
C851 C850 1.363 . S
C851 C857 1.428 . S
H852 C848 0.930 . S
H853 C850 0.929 . S
S854 N855 1.613 . S
S854 N856 1.610 . S
N855 S854 1.613 . S
N855 C858 1.350 . S
N856 S854 1.610 . S
N856 C857 1.351 . S
C857 C851 1.428 . S
C857 N856 1.351 . S
C857 C858 1.434 . S
C858 C849 1.429 . S
C858 N855 1.350 . S
C858 C857 1.434 . S
C859 C860 1.369 . S
C859 C861 1.419 . S
C859 H863 0.930 1_565 S
C860 C859 1.369 . S
C860 C869 1.429 . S
C861 C859 1.419 . S
C861 C862 1.363 . S
C861 H864 0.929 . S
C862 C861 1.363 . S
C862 C868 1.428 . S
H863 C859 0.930 1_545 S
H864 C861 0.929 . S
S865 N866 1.613 . S
S865 N867 1.610 . S
N866 S865 1.613 . S
N866 C869 1.350 . S
N867 S865 1.610 . S
N867 C868 1.351 . S
C868 C862 1.428 . S
C868 N867 1.351 . S
C868 C869 1.434 . S
C869 C860 1.429 . S
C869 N866 1.350 . S
C869 C868 1.434 . S
C870 C871 1.369 . S
C870 C872 1.419 . S
C870 H874 0.930 . S
C871 C870 1.369 . S
C871 C880 1.429 . S
C872 C870 1.419 . S
C872 C873 1.363 . S
C872 H875 0.929 . S
C873 C872 1.363 . S
C873 C879 1.428 . S
H874 C870 0.930 . S
H875 C872 0.929 . S
S876 N877 1.613 . S
S876 N878 1.610 . S
N877 S876 1.613 . S
N877 C880 1.350 . S
N878 S876 1.610 . S
N878 C879 1.351 . S
C879 C873 1.428 . S
C879 N878 1.351 . S
C879 C880 1.434 . S
C880 C871 1.429 . S
C880 N877 1.350 . S
C880 C879 1.434 . S
C881 C882 1.369 . S
C881 C883 1.419 . S
C881 H885 0.930 . S
C882 C881 1.369 . S
C882 C891 1.429 . S
C883 C881 1.419 . S
C883 C884 1.363 . S
C883 H886 0.929 . S
C884 C883 1.363 . S
C884 C890 1.428 . S
H885 C881 0.930 . S
H886 C883 0.929 . S
S887 N888 1.613 . S
S887 N889 1.610 . S
N888 S887 1.613 . S
N888 C891 1.350 . S
N889 S887 1.610 . S
N889 C890 1.351 . S
C890 C884 1.428 . S
C890 N889 1.351 . S
C890 C891 1.434 . S
C891 C882 1.429 . S
C891 N888 1.350 . S
C891 C890 1.434 . S
C892 C893 1.369 . S
C892 C894 1.419 . S
C892 H896 0.930 . S
C893 C892 1.369 . S
C893 C902 1.429 . S
C894 C892 1.419 . S
C894 C895 1.363 . S
C894 H897 0.929 . S
C895 C894 1.363 . S
C895 C901 1.428 . S
H896 C892 0.930 . S
H897 C894 0.929 . S
S898 N899 1.613 . S
S898 N900 1.610 . S
N899 S898 1.613 . S
N899 C902 1.350 . S
N900 S898 1.610 . S
N900 C901 1.351 . S
C901 C895 1.428 . S
C901 N900 1.351 . S
C901 C902 1.434 . S
C902 C893 1.429 . S
C902 N899 1.350 . S
C902 C901 1.434 . S
C903 C904 1.369 . S
C903 C905 1.419 . S
C903 H907 0.930 . S
C904 C903 1.369 . S
C904 C913 1.429 1_556 S
C905 C903 1.419 . S
C905 C906 1.363 . S
C905 H908 0.929 . S
C906 C905 1.363 . S
C906 C912 1.417 1_556 S
H907 C903 0.930 . S
H908 C905 0.929 . S
S909 N910 1.613 . S
S909 N911 1.610 . S
N910 S909 1.613 . S
N910 C913 1.350 . S
N911 S909 1.610 . S
N911 C912 1.358 . S
C912 C906 1.417 1_554 S
C912 N911 1.358 . S
C912 C913 1.440 . S
C913 C904 1.429 1_554 S
C913 N910 1.350 . S
C913 C912 1.440 . S
C914 C915 1.369 1_556 S
C914 C916 1.419 . S
C914 H918 0.930 . S
C915 C914 1.369 1_554 S
C915 C924 1.429 . S
C916 C914 1.419 . S
C916 C917 1.363 1_556 S
C916 H919 0.929 . S
C917 C916 1.363 1_554 S
C917 C923 1.428 . S
H918 C914 0.930 . S
H919 C916 0.929 . S
S920 N921 1.613 . S
S920 N922 1.610 . S
N921 S920 1.613 . S
N921 C924 1.350 . S
N922 S920 1.610 . S
N922 C923 1.351 . S
C923 C917 1.428 . S
C923 N922 1.351 . S
C923 C924 1.434 . S
C924 C915 1.429 . S
C924 N921 1.350 . S
C924 C923 1.434 . S
C925 C926 1.369 . S
C925 C927 1.419 . S
C925 H929 0.930 1_554 S
C926 C925 1.369 . S
C926 C935 1.429 . S
C927 C925 1.419 . S
C927 C928 1.363 . S
C927 H930 0.929 1_554 S
C928 C927 1.363 . S
C928 C934 1.428 . S
H929 C925 0.930 1_556 S
H930 C927 0.929 1_556 S
S931 N932 1.613 . S
S931 N933 1.610 . S
N932 S931 1.613 . S
N932 C935 1.350 . S
N933 S931 1.610 . S
N933 C934 1.351 . S
C934 C928 1.428 . S
C934 N933 1.351 . S
C934 C935 1.434 . S
C935 C926 1.429 . S
C935 N932 1.350 . S
C935 C934 1.434 . S
C409 C13 1.608 . S
C411 C255 1.559 1_545 S
C422 N272 1.613 . S
C420 C1 1.790 . S
C433 N174 1.725 . S
C431 C27 1.706 . S
C442 C15 1.293 . S
C444 C199 1.275 . S
C453 C28 1.716 . S
C455 C394 1.701 . S
C464 C55 1.494 . S
C466 N354 1.491 . S
C477 N302 1.512 1_545 S
C475 C40 1.742 . S
C486 C43 1.706 . S
C488 C328 1.699 . S
C499 C214 1.629 . S
C497 C56 1.621 . S
C510 C259 1.764 . S
C508 C83 1.775 . S
C519 C96 1.683 . S
C521 C238 1.696 . S
C530 C71 1.848 . S
C532 C345 1.817 . S
C543 C375 1.554 . S
C541 C99 1.609 . S
C554 N392 1.605 . S
C552 C111 1.792 . S
C563 C113 1.704 . S
C565 N324 1.729 . S
C576 C289 1.280 1_545 S
C574 C125 1.292 . S
C585 C139 1.720 . S
C587 C274 1.701 . S
C596 C153 1.492 . S
C598 N234 1.491 . S
C609 N212 1.512 . S
C607 C127 1.743 . S
C618 C141 1.711 . S
C620 C178 1.696 . S
C631 C304 1.626 . S
C629 C84 1.624 . S
C642 C379 1.763 . S
C640 C154 1.777 1_556 S
C651 C68 1.676 1_556 S
C653 C358 1.699 . S
C662 C166 1.850 . S
C664 C195 1.813 . S
C675 C169 1.484 . S
C673 C0 1.503 . S
C684 C12 1.161 . S
C686 N204 1.148 . S
C697 N242 1.244 . S
C695 C14 1.407 . S
C708 C285 1.797 . S
C706 C26 1.774 . S
C717 C41 1.591 . S
C719 C184 1.554 . S
C728 C42 1.692 . S
C730 C225 1.648 . S
C741 C229 1.379 . S
C739 C29 1.424 . S
C750 C54 1.575 . S
C752 C268 1.536 . S
C761 C69 1.210 . S
C763 N182 1.147 . S
C774 C244 1.837 . S
C772 C70 1.839 . S
C783 C85 1.236 . S
C785 N264 1.231 . S
C794 C82 1.564 . S
C796 C298 1.535 . S
C807 C319 1.483 . S
C805 C110 1.501 . S
C816 C98 1.161 . S
C818 N294 1.150 . S
C827 C124 1.410 . S
C829 N362 1.237 . S
C838 C112 1.770 . S
C840 C405 1.795 . S
C849 C126 1.589 . S
C851 C334 1.558 . S
C862 C315 1.648 . S
C860 C140 1.692 . S
C871 C138 1.424 . S
C873 C349 1.375 . S
C884 C388 1.538 . S
C882 C152 1.579 . S
C895 N332 1.143 . S
C893 C97 1.209 . S
C906 C364 1.839 . S
C904 C167 1.843 1_556 S
C917 N384 1.226 . S
C915 C57 1.244 . S
C926 C155 1.560 . S
C928 C208 1.534 . S
