# Generated by pormake.
# Topology gar, (4,6)-cn, num edge types: 1
# Building blocks:
#     Node 0, Type 0, BuildingBlock: NAHDIM_clean_sbu_0, # of connection points: 4
#     Node 1, Type 0, BuildingBlock: NAHDIM_clean_sbu_0, # of connection points: 4
#     Node 2, Type 0, BuildingBlock: NAHDIM_clean_sbu_0, # of connection points: 4
#     Node 3, Type 0, BuildingBlock: NAHDIM_clean_sbu_0, # of connection points: 4
#     Node 4, Type 0, BuildingBlock: NAHDIM_clean_sbu_0, # of connection points: 4
#     Node 5, Type 0, BuildingBlock: NAHDIM_clean_sbu_0, # of connection points: 4
#     Node 6, Type 0, BuildingBlock: NAHDIM_clean_sbu_0, # of connection points: 4
#     Node 7, Type 0, BuildingBlock: NAHDIM_clean_sbu_0, # of connection points: 4
#     Node 8, Type 0, BuildingBlock: NAHDIM_clean_sbu_0, # of connection points: 4
#     Node 9, Type 0, BuildingBlock: NAHDIM_clean_sbu_0, # of connection points: 4
#     Node 10, Type 0, BuildingBlock: NAHDIM_clean_sbu_0, # of connection points: 4
#     Node 11, Type 0, BuildingBlock: NAHDIM_clean_sbu_0, # of connection points: 4
#     Node 12, Type 0, BuildingBlock: NAHDIM_clean_sbu_0, # of connection points: 4
#     Node 13, Type 0, BuildingBlock: NAHDIM_clean_sbu_0, # of connection points: 4
#     Node 14, Type 0, BuildingBlock: NAHDIM_clean_sbu_0, # of connection points: 4
#     Node 15, Type 0, BuildingBlock: NAHDIM_clean_sbu_0, # of connection points: 4
#     Node 16, Type 0, BuildingBlock: NAHDIM_clean_sbu_0, # of connection points: 4
#     Node 17, Type 0, BuildingBlock: NAHDIM_clean_sbu_0, # of connection points: 4
#     Node 18, Type 0, BuildingBlock: NAHDIM_clean_sbu_0, # of connection points: 4
#     Node 19, Type 0, BuildingBlock: NAHDIM_clean_sbu_0, # of connection points: 4
#     Node 20, Type 0, BuildingBlock: NAHDIM_clean_sbu_0, # of connection points: 4
#     Node 21, Type 0, BuildingBlock: NAHDIM_clean_sbu_0, # of connection points: 4
#     Node 22, Type 0, BuildingBlock: NAHDIM_clean_sbu_0, # of connection points: 4
#     Node 23, Type 0, BuildingBlock: NAHDIM_clean_sbu_0, # of connection points: 4
#     Node 24, Type 1, BuildingBlock: MIFKUJ_clean_sbu_0, # of connection points: 6
#     Node 25, Type 1, BuildingBlock: MIFKUJ_clean_sbu_0, # of connection points: 6
#     Node 26, Type 1, BuildingBlock: MIFKUJ_clean_sbu_0, # of connection points: 6
#     Node 27, Type 1, BuildingBlock: MIFKUJ_clean_sbu_0, # of connection points: 6
#     Node 28, Type 1, BuildingBlock: MIFKUJ_clean_sbu_0, # of connection points: 6
#     Node 29, Type 1, BuildingBlock: MIFKUJ_clean_sbu_0, # of connection points: 6
#     Node 30, Type 1, BuildingBlock: MIFKUJ_clean_sbu_0, # of connection points: 6
#     Node 31, Type 1, BuildingBlock: MIFKUJ_clean_sbu_0, # of connection points: 6
#     Node 32, Type 1, BuildingBlock: MIFKUJ_clean_sbu_0, # of connection points: 6
#     Node 33, Type 1, BuildingBlock: MIFKUJ_clean_sbu_0, # of connection points: 6
#     Node 34, Type 1, BuildingBlock: MIFKUJ_clean_sbu_0, # of connection points: 6
#     Node 35, Type 1, BuildingBlock: MIFKUJ_clean_sbu_0, # of connection points: 6
#     Node 36, Type 1, BuildingBlock: MIFKUJ_clean_sbu_0, # of connection points: 6
#     Node 37, Type 1, BuildingBlock: MIFKUJ_clean_sbu_0, # of connection points: 6
#     Node 38, Type 1, BuildingBlock: MIFKUJ_clean_sbu_0, # of connection points: 6
#     Node 39, Type 1, BuildingBlock: MIFKUJ_clean_sbu_0, # of connection points: 6
#     Edge 40, Type (0, 1), BuildingBlock: XIVTED_clean_linker_0, # of connection points: 2
#     Edge 41, Type (0, 1), BuildingBlock: XIVTED_clean_linker_0, # of connection points: 2
#     Edge 42, Type (0, 1), BuildingBlock: XIVTED_clean_linker_0, # of connection points: 2
#     Edge 43, Type (0, 1), BuildingBlock: XIVTED_clean_linker_0, # of connection points: 2
#     Edge 44, Type (0, 1), BuildingBlock: XIVTED_clean_linker_0, # of connection points: 2
#     Edge 45, Type (0, 1), BuildingBlock: XIVTED_clean_linker_0, # of connection points: 2
#     Edge 46, Type (0, 1), BuildingBlock: XIVTED_clean_linker_0, # of connection points: 2
#     Edge 47, Type (0, 1), BuildingBlock: XIVTED_clean_linker_0, # of connection points: 2
#     Edge 48, Type (0, 1), BuildingBlock: XIVTED_clean_linker_0, # of connection points: 2
#     Edge 49, Type (0, 1), BuildingBlock: XIVTED_clean_linker_0, # of connection points: 2
#     Edge 50, Type (0, 1), BuildingBlock: XIVTED_clean_linker_0, # of connection points: 2
#     Edge 51, Type (0, 1), BuildingBlock: XIVTED_clean_linker_0, # of connection points: 2
#     Edge 52, Type (0, 1), BuildingBlock: XIVTED_clean_linker_0, # of connection points: 2
#     Edge 53, Type (0, 1), BuildingBlock: XIVTED_clean_linker_0, # of connection points: 2
#     Edge 54, Type (0, 1), BuildingBlock: XIVTED_clean_linker_0, # of connection points: 2
#     Edge 55, Type (0, 1), BuildingBlock: XIVTED_clean_linker_0, # of connection points: 2
#     Edge 56, Type (0, 1), BuildingBlock: XIVTED_clean_linker_0, # of connection points: 2
#     Edge 57, Type (0, 1), BuildingBlock: XIVTED_clean_linker_0, # of connection points: 2
#     Edge 58, Type (0, 1), BuildingBlock: XIVTED_clean_linker_0, # of connection points: 2
#     Edge 59, Type (0, 1), BuildingBlock: XIVTED_clean_linker_0, # of connection points: 2
#     Edge 60, Type (0, 1), BuildingBlock: XIVTED_clean_linker_0, # of connection points: 2
#     Edge 61, Type (0, 1), BuildingBlock: XIVTED_clean_linker_0, # of connection points: 2
#     Edge 62, Type (0, 1), BuildingBlock: XIVTED_clean_linker_0, # of connection points: 2
#     Edge 63, Type (0, 1), BuildingBlock: XIVTED_clean_linker_0, # of connection points: 2
#     Edge 64, Type (0, 1), BuildingBlock: XIVTED_clean_linker_0, # of connection points: 2
#     Edge 65, Type (0, 1), BuildingBlock: XIVTED_clean_linker_0, # of connection points: 2
#     Edge 66, Type (0, 1), BuildingBlock: XIVTED_clean_linker_0, # of connection points: 2
#     Edge 67, Type (0, 1), BuildingBlock: XIVTED_clean_linker_0, # of connection points: 2
#     Edge 68, Type (0, 1), BuildingBlock: XIVTED_clean_linker_0, # of connection points: 2
#     Edge 69, Type (0, 1), BuildingBlock: XIVTED_clean_linker_0, # of connection points: 2
#     Edge 70, Type (0, 1), BuildingBlock: XIVTED_clean_linker_0, # of connection points: 2
#     Edge 71, Type (0, 1), BuildingBlock: XIVTED_clean_linker_0, # of connection points: 2
#     Edge 72, Type (0, 1), BuildingBlock: XIVTED_clean_linker_0, # of connection points: 2
#     Edge 73, Type (0, 1), BuildingBlock: XIVTED_clean_linker_0, # of connection points: 2
#     Edge 74, Type (0, 1), BuildingBlock: XIVTED_clean_linker_0, # of connection points: 2
#     Edge 75, Type (0, 1), BuildingBlock: XIVTED_clean_linker_0, # of connection points: 2
#     Edge 76, Type (0, 1), BuildingBlock: XIVTED_clean_linker_0, # of connection points: 2
#     Edge 77, Type (0, 1), BuildingBlock: XIVTED_clean_linker_0, # of connection points: 2
#     Edge 78, Type (0, 1), BuildingBlock: XIVTED_clean_linker_0, # of connection points: 2
#     Edge 79, Type (0, 1), BuildingBlock: XIVTED_clean_linker_0, # of connection points: 2
#     Edge 80, Type (0, 1), BuildingBlock: XIVTED_clean_linker_0, # of connection points: 2
#     Edge 81, Type (0, 1), BuildingBlock: XIVTED_clean_linker_0, # of connection points: 2
#     Edge 82, Type (0, 1), BuildingBlock: XIVTED_clean_linker_0, # of connection points: 2
#     Edge 83, Type (0, 1), BuildingBlock: XIVTED_clean_linker_0, # of connection points: 2
#     Edge 84, Type (0, 1), BuildingBlock: XIVTED_clean_linker_0, # of connection points: 2
#     Edge 85, Type (0, 1), BuildingBlock: XIVTED_clean_linker_0, # of connection points: 2
#     Edge 86, Type (0, 1), BuildingBlock: XIVTED_clean_linker_0, # of connection points: 2
#     Edge 87, Type (0, 1), BuildingBlock: XIVTED_clean_linker_0, # of connection points: 2
#     Edge 88, Type (0, 1), BuildingBlock: XIVTED_clean_linker_0, # of connection points: 2
#     Edge 89, Type (0, 1), BuildingBlock: XIVTED_clean_linker_0, # of connection points: 2
#     Edge 90, Type (0, 1), BuildingBlock: XIVTED_clean_linker_0, # of connection points: 2
#     Edge 91, Type (0, 1), BuildingBlock: XIVTED_clean_linker_0, # of connection points: 2
#     Edge 92, Type (0, 1), BuildingBlock: XIVTED_clean_linker_0, # of connection points: 2
#     Edge 93, Type (0, 1), BuildingBlock: XIVTED_clean_linker_0, # of connection points: 2
#     Edge 94, Type (0, 1), BuildingBlock: XIVTED_clean_linker_0, # of connection points: 2
#     Edge 95, Type (0, 1), BuildingBlock: XIVTED_clean_linker_0, # of connection points: 2
#     Edge 96, Type (0, 1), BuildingBlock: XIVTED_clean_linker_0, # of connection points: 2
#     Edge 97, Type (0, 1), BuildingBlock: XIVTED_clean_linker_0, # of connection points: 2
#     Edge 98, Type (0, 1), BuildingBlock: XIVTED_clean_linker_0, # of connection points: 2
#     Edge 99, Type (0, 1), BuildingBlock: XIVTED_clean_linker_0, # of connection points: 2
#     Edge 100, Type (0, 1), BuildingBlock: XIVTED_clean_linker_0, # of connection points: 2
#     Edge 101, Type (0, 1), BuildingBlock: XIVTED_clean_linker_0, # of connection points: 2
#     Edge 102, Type (0, 1), BuildingBlock: XIVTED_clean_linker_0, # of connection points: 2
#     Edge 103, Type (0, 1), BuildingBlock: XIVTED_clean_linker_0, # of connection points: 2
#     Edge 104, Type (0, 1), BuildingBlock: XIVTED_clean_linker_0, # of connection points: 2
#     Edge 105, Type (0, 1), BuildingBlock: XIVTED_clean_linker_0, # of connection points: 2
#     Edge 106, Type (0, 1), BuildingBlock: XIVTED_clean_linker_0, # of connection points: 2
#     Edge 107, Type (0, 1), BuildingBlock: XIVTED_clean_linker_0, # of connection points: 2
#     Edge 108, Type (0, 1), BuildingBlock: XIVTED_clean_linker_0, # of connection points: 2
#     Edge 109, Type (0, 1), BuildingBlock: XIVTED_clean_linker_0, # of connection points: 2
#     Edge 110, Type (0, 1), BuildingBlock: XIVTED_clean_linker_0, # of connection points: 2
#     Edge 111, Type (0, 1), BuildingBlock: XIVTED_clean_linker_0, # of connection points: 2
#     Edge 112, Type (0, 1), BuildingBlock: XIVTED_clean_linker_0, # of connection points: 2
#     Edge 113, Type (0, 1), BuildingBlock: XIVTED_clean_linker_0, # of connection points: 2
#     Edge 114, Type (0, 1), BuildingBlock: XIVTED_clean_linker_0, # of connection points: 2
#     Edge 115, Type (0, 1), BuildingBlock: XIVTED_clean_linker_0, # of connection points: 2
#     Edge 116, Type (0, 1), BuildingBlock: XIVTED_clean_linker_0, # of connection points: 2
#     Edge 117, Type (0, 1), BuildingBlock: XIVTED_clean_linker_0, # of connection points: 2
#     Edge 118, Type (0, 1), BuildingBlock: XIVTED_clean_linker_0, # of connection points: 2
#     Edge 119, Type (0, 1), BuildingBlock: XIVTED_clean_linker_0, # of connection points: 2
#     Edge 120, Type (0, 1), BuildingBlock: XIVTED_clean_linker_0, # of connection points: 2
#     Edge 121, Type (0, 1), BuildingBlock: XIVTED_clean_linker_0, # of connection points: 2
#     Edge 122, Type (0, 1), BuildingBlock: XIVTED_clean_linker_0, # of connection points: 2
#     Edge 123, Type (0, 1), BuildingBlock: XIVTED_clean_linker_0, # of connection points: 2
#     Edge 124, Type (0, 1), BuildingBlock: XIVTED_clean_linker_0, # of connection points: 2
#     Edge 125, Type (0, 1), BuildingBlock: XIVTED_clean_linker_0, # of connection points: 2
#     Edge 126, Type (0, 1), BuildingBlock: XIVTED_clean_linker_0, # of connection points: 2
#     Edge 127, Type (0, 1), BuildingBlock: XIVTED_clean_linker_0, # of connection points: 2
#     Edge 128, Type (0, 1), BuildingBlock: XIVTED_clean_linker_0, # of connection points: 2
#     Edge 129, Type (0, 1), BuildingBlock: XIVTED_clean_linker_0, # of connection points: 2
#     Edge 130, Type (0, 1), BuildingBlock: XIVTED_clean_linker_0, # of connection points: 2
#     Edge 131, Type (0, 1), BuildingBlock: XIVTED_clean_linker_0, # of connection points: 2
#     Edge 132, Type (0, 1), BuildingBlock: XIVTED_clean_linker_0, # of connection points: 2
#     Edge 133, Type (0, 1), BuildingBlock: XIVTED_clean_linker_0, # of connection points: 2
#     Edge 134, Type (0, 1), BuildingBlock: XIVTED_clean_linker_0, # of connection points: 2
#     Edge 135, Type (0, 1), BuildingBlock: XIVTED_clean_linker_0, # of connection points: 2
# Relax obj value: 0.113
# Max RMSD: 0.282
# Mean RMSD: 0.159
data_MOF--net-gar--node1-NAHDIM_clean_sbu_0--node2-MIFKUJ_clean_sbu_0--edge1-XIVTED_clean_linker_0
_symmetry_space_group_name_H-M    P1
_symmetry_Int_Tables_number       1
_symmetry_cell_setting            triclinic
loop_
_symmetry_equiv_pos_as_xyz
'x, y, z'
_cell_length_a     57.432647
_cell_length_b     56.302139
_cell_length_c     53.01441
_cell_angle_alpha  94.72696
_cell_angle_beta   95.02658
_cell_angle_gamma 99.560215
loop_
_atom_site_label
_atom_site_type_symbol
_atom_site_fract_x
_atom_site_fract_y
_atom_site_fract_z
_atom_type_partial_charge
C0 C 0.04765 0.24739 0.36623 0.0
O1 O 0.03753 0.22801 0.3759 0.0
O2 O 0.01246 0.24091 0.41551 0.0
Zn3 Zn 0.01484 0.26925 0.39458 0.0
O4 O 0.02226 0.30075 0.41688 0.0
C5 C 0.97597 0.26679 0.3526 0.0
O6 O 0.99176 0.26671 0.33612 0.0
O7 O 0.04029 0.26726 0.37076 0.0
C8 C 0.01349 0.30348 0.43791 0.0
O9 O -0.0001 0.28506 0.44588 0.0
C10 C 0.02415 0.23934 0.43661 0.0
O11 O 0.03978 0.25792 0.44736 0.0
O12 O 0.9825 0.26773 0.37624 0.0
C13 C 0.9761 0.7852 0.67617 0.0
O14 O 0.98365 0.80081 0.66033 0.0
O15 O 0.00201 0.72437 0.63931 0.0
Zn16 Zn 0.0101 0.75904 0.6546 0.0
O17 O 0.01101 0.78091 0.62613 0.0
C18 C 0.05803 0.75442 0.66222 0.0
O19 O 0.05199 0.74431 0.63881 0.0
O20 O 0.98525 0.7662 0.67753 0.0
C21 C 0.02858 0.7972 0.62354 0.0
O22 O 0.04753 0.80043 0.64004 0.0
C23 C 0.9941 0.71799 0.61616 0.0
O24 O 0.98932 0.73449 0.60132 0.0
O25 O 0.04249 0.76292 0.67417 0.0
C26 C 0.5704 0.76658 0.88651 0.0
O27 O 0.56911 0.76415 0.91081 0.0
O28 O 0.52115 0.74373 0.91444 0.0
Zn29 Zn 0.52289 0.77071 0.89159 0.0
O30 O 0.52564 0.80206 0.91379 0.0
C31 C 0.48199 0.74549 0.85844 0.0
O32 O 0.49042 0.72622 0.86467 0.0
O33 O 0.55215 0.77038 0.87313 0.0
C34 C 0.50671 0.80786 0.92122 0.0
O35 O 0.48634 0.79363 0.91365 0.0
C36 C 0.50369 0.7349 0.92593 0.0
O37 O 0.4836 0.74306 0.92285 0.0
O38 O 0.49333 0.76633 0.867 0.0
C39 C 0.46545 0.25732 0.19204 0.0
O40 O 0.48367 0.2553 0.20802 0.0
O41 O 0.4919 0.22196 0.12794 0.0
Zn42 Zn 0.4965 0.25352 0.15032 0.0
O43 O 0.4996 0.28019 0.12725 0.0
C44 C 0.53304 0.23741 0.18154 0.0
O45 O 0.5198 0.21623 0.17408 0.0
O46 O 0.46746 0.25631 0.16829 0.0
C47 C 0.51864 0.29237 0.12125 0.0
O48 O 0.53925 0.28819 0.13093 0.0
C49 C 0.509 0.21814 0.11534 0.0
O50 O 0.5283 0.23467 0.11752 0.0
O51 O 0.52618 0.25646 0.17467 0.0
C52 C 0.97574 0.7622 0.16595 0.0
O53 O 0.97378 0.75738 0.14109 0.0
O54 O 0.01869 0.73297 0.1398 0.0
Zn55 Zn 0.02305 0.76709 0.15628 0.0
O56 O 0.022 0.79122 0.13017 0.0
C57 C 0.07195 0.76951 0.16694 0.0
O58 O 0.06884 0.76217 0.14252 0.0
O59 O 0.99629 0.76768 0.17798 0.0
C60 C 0.01301 0.81001 0.13521 0.0
O61 O 0.00485 0.81338 0.15737 0.0
C62 C 0.02137 0.72598 0.117 0.0
O63 O 0.02781 0.74207 0.10122 0.0
O64 O 0.05424 0.77406 0.178 0.0
C65 C 0.53832 0.73882 0.36269 0.0
O66 O 0.52683 0.7173 0.36605 0.0
O67 O 0.50581 0.72246 0.41343 0.0
Zn68 Zn 0.50785 0.75444 0.39864 0.0
O69 O 0.51599 0.78268 0.42541 0.0
C70 C 0.46733 0.74005 0.36103 0.0
O71 O 0.47722 0.72095 0.35634 0.0
O72 O 0.53329 0.7574 0.37481 0.0
C73 C 0.50057 0.79107 0.43761 0.0
O74 O 0.47832 0.78012 0.43381 0.0
C75 C 0.51356 0.71926 0.43587 0.0
O76 O 0.52319 0.73806 0.45192 0.0
O77 O 0.47706 0.75633 0.37857 0.0
C78 C 0.48517 0.28493 0.69805 0.0
O79 O 0.4991 0.3054 0.69547 0.0
O80 O 0.50368 0.23371 0.63825 0.0
Zn81 Zn 0.51104 0.26638 0.65884 0.0
O82 O 0.50741 0.29372 0.63743 0.0
C83 C 0.55926 0.25961 0.66934 0.0
O84 O 0.55345 0.24473 0.64851 0.0
O85 O 0.48736 0.26586 0.68458 0.0
C86 C 0.52264 0.30237 0.62312 0.0
O87 O 0.5419 0.29286 0.62129 0.0
C88 C 0.50654 0.22858 0.61503 0.0
O89 O 0.51481 0.24588 0.60136 0.0
O90 O 0.54403 0.27153 0.67746 0.0
C91 C 0.03301 0.23483 0.8533 0.0
O92 O 0.02169 0.21361 0.85788 0.0
O93 O 0.00641 0.22156 0.90854 0.0
Zn94 Zn 0.00468 0.25164 0.89089 0.0
O95 O 0.01204 0.28188 0.9152 0.0
C96 C 0.96144 0.235 0.85569 0.0
O97 O 0.97135 0.21642 0.84875 0.0
O98 O 0.02855 0.25384 0.86514 0.0
C99 C 0.01482 0.30134 0.90442 0.0
O100 O 0.01325 0.29992 0.87944 0.0
C101 C 0.01291 0.2208 0.93196 0.0
O102 O 0.018 0.24097 0.94722 0.0
O103 O 0.9722 0.25096 0.87302 0.0
C104 C 0.38265 0.06705 0.26021 0.0
O105 O 0.40508 0.07078 0.25589 0.0
O106 O 0.41925 0.02473 0.25052 0.0
Zn107 Zn 0.39422 0.02219 0.27483 0.0
O108 O 0.41181 0.02656 0.30993 0.0
C109 C 0.36606 0.97962 0.24665 0.0
O110 O 0.37211 0.99117 0.22702 0.0
O111 O 0.37409 0.04764 0.26923 0.0
C112 C 0.4184 0.00776 0.31781 0.0
O113 O 0.41178 0.98696 0.30386 0.0
C114 C 0.43069 0.0079 0.24484 0.0
O115 O 0.4253 0.98691 0.25395 0.0
O116 O 0.37325 0.98953 0.26897 0.0
C117 C 0.2968 0.08186 0.48689 0.0
O118 O 0.28151 0.07785 0.46644 0.0
O119 O 0.27385 0.13938 0.53707 0.0
Zn120 Zn 0.27016 0.11992 0.50278 0.0
O121 O 0.27368 0.14199 0.47437 0.0
C122 C 0.21968 0.10979 0.49705 0.0
O123 O 0.22329 0.13348 0.49736 0.0
O124 O 0.29528 0.09862 0.50395 0.0
C125 C 0.26382 0.13413 0.45216 0.0
O126 O 0.25198 0.11187 0.44825 0.0
C127 C 0.26929 0.16057 0.54168 0.0
O128 O 0.26191 0.17209 0.52281 0.0
O129 O 0.23752 0.09912 0.49854 0.0
C130 C 0.18793 0.97908 0.77945 0.0
O131 O 0.1849 0.99139 0.75977 0.0
O132 O 0.13605 0.00274 0.76294 0.0
Zn133 Zn 0.15327 0.00569 0.79821 0.0
O134 O 0.13088 -0.0009 0.82541 0.0
C135 C 0.16161 0.05641 0.79655 0.0
O136 O 0.1394 0.05081 0.78661 0.0
O137 O 0.17625 0.98224 0.79841 0.0
C138 C 0.11064 0.00549 0.82558 0.0
O139 O 0.10302 0.01723 0.80701 0.0
C140 C 0.11606 0.99017 0.75428 0.0
O141 O 0.10384 0.97642 0.7691 0.0
O142 O 0.17193 0.03972 0.80442 0.0
C143 C 0.22094 0.92059 0.03753 0.0
O144 O 0.22952 0.91152 0.05768 0.0
O145 O 0.25116 0.87022 0.03824 0.0
Zn146 Zn 0.25431 0.89569 0.01365 0.0
O147 O 0.25228 0.87773 0.97868 0.0
C148 C 0.29632 0.92291 0.04394 0.0
O149 O 0.28562 0.9145 0.0631 0.0
O150 O 0.22857 0.91589 0.01619 0.0
C151 C 0.27148 0.87473 0.9696 0.0
O152 O 0.29182 0.88485 0.98236 0.0
C153 C 0.26738 0.85756 0.04145 0.0
O154 O 0.28633 0.86188 0.02924 0.0
O155 O 0.28608 0.91763 0.02148 0.0
C156 C 0.22891 0.43208 0.06148 0.0
O157 O 0.24113 0.4295 0.08292 0.0
O158 O 0.25548 0.37833 0.06957 0.0
Zn159 Zn 0.25725 0.39881 0.03988 0.0
O160 O 0.25104 0.37868 0.00576 0.0
C161 C 0.3081 0.40963 0.04571 0.0
O162 O 0.30528 0.38655 0.04924 0.0
O163 O 0.23283 0.42075 0.04098 0.0
C164 C 0.25919 0.35961 -0.00054 0.0
O165 O 0.27244 0.35064 0.01642 0.0
C166 C 0.24224 0.3578 0.06939 0.0
O167 O 0.22852 0.34847 0.0486 0.0
O168 O 0.28985 0.41939 0.04187 0.0
C169 C 0.81063 0.12256 0.00074 0.0
O170 O 0.81405 0.14626 0.00124 0.0
O171 O 0.76435 0.1452 0.0422 0.0
Zn172 Zn 0.76368 0.13081 0.00603 0.0
O173 O 0.76781 0.15819 0.98388 0.0
C174 C 0.72256 0.09521 0.01049 0.0
O175 O 0.73485 0.09251 0.03184 0.0
O176 O 0.78987 0.11122 0.00254 0.0
C177 C 0.75231 0.17181 0.98183 0.0
O178 O 0.73308 0.16724 0.99358 0.0
C179 C 0.77631 0.166 0.04997 0.0
O180 O 0.78944 0.17786 0.03443 0.0
O181 O 0.73167 0.11018 0.99589 0.0
C182 C 0.17778 0.46635 0.29357 0.0
O183 O 0.1725 0.47776 0.31435 0.0
O184 O 0.12122 0.48483 0.23947 0.0
Zn185 Zn 0.14607 0.49431 0.26991 0.0
O186 O 0.12923 0.49551 0.30173 0.0
C187 C 0.15757 0.54277 0.25464 0.0
O188 O 0.13593 0.53761 0.24304 0.0
O189 O 0.16829 0.47024 0.27206 0.0
C190 C 0.12447 0.51492 0.31247 0.0
O191 O 0.13159 0.5356 0.30338 0.0
C192 C 0.10053 0.48981 0.24106 0.0
O193 O 0.09571 0.50047 0.26245 0.0
O194 O 0.16566 0.527 0.267 0.0
C195 C 0.73245 0.93591 0.56655 0.0
O196 O 0.74131 0.9308 0.58875 0.0
O197 O 0.75865 0.8833 0.57791 0.0
Zn198 Zn 0.76087 0.9016 0.54664 0.0
O199 O 0.75228 0.87919 0.51439 0.0
C200 C 0.80539 0.9372 0.55839 0.0
O201 O 0.79389 0.94885 0.57428 0.0
O202 O 0.73864 0.92599 0.54638 0.0
C203 C 0.76585 0.86494 0.50693 0.0
O204 O 0.78524 0.86362 0.52147 0.0
C205 C 0.74881 0.86131 0.57788 0.0
O206 O 0.7389 0.8491 0.55636 0.0
O207 O 0.79476 0.91777 0.54556 0.0
C208 C 0.84962 0.04473 0.27115 0.0
O209 O 0.8523 0.03399 0.29203 0.0
O210 O 0.90209 0.0156 0.22473 0.0
Zn211 Zn 0.8819 0.01427 0.25415 0.0
O212 O 0.90116 0.01908 0.28846 0.0
C213 C 0.86848 0.96261 0.24525 0.0
O214 O 0.89066 0.96423 0.24026 0.0
O215 O 0.86089 0.03945 0.25245 0.0
C216 C 0.9188 0.00899 0.29454 0.0
O217 O 0.92663 0.99516 0.2772 0.0
C218 C 0.92272 0.02799 0.22462 0.0
O219 O 0.93288 0.04152 0.24531 0.0
O220 O 0.86056 0.98182 0.25131 0.0
C221 C 0.30986 0.58895 0.49457 0.0
O222 O 0.30279 0.59876 0.47425 0.0
O223 O 0.28577 0.63881 0.55283 0.0
Zn224 Zn 0.28149 0.62016 0.51835 0.0
O225 O 0.28736 0.64407 0.49252 0.0
C226 C 0.23826 0.58947 0.52757 0.0
O227 O 0.25182 0.58389 0.54667 0.0
O228 O 0.30308 0.5954 0.51589 0.0
C229 C 0.27334 0.65913 0.4897 0.0
O230 O 0.25537 0.65841 0.5035 0.0
C231 C 0.30006 0.65871 0.55862 0.0
O232 O 0.31448 0.6669 0.54217 0.0
O233 O 0.24737 0.6039 0.51247 0.0
C234 C 0.33768 0.54855 0.7298 0.0
O235 O 0.34051 0.5393 0.70693 0.0
O236 O 0.39281 0.52318 0.71858 0.0
Zn237 Zn 0.37307 0.52001 0.74836 0.0
O238 O 0.39448 0.52773 0.78101 0.0
C239 C 0.33607 0.47638 0.73653 0.0
O240 O 0.32531 0.48905 0.72098 0.0
O241 O 0.34968 0.54297 0.74902 0.0
C242 C 0.40911 0.51427 0.78786 0.0
O243 O 0.41127 0.49537 0.77255 0.0
C244 C 0.39816 0.5043 0.70732 0.0
O245 O 0.3902 0.48309 0.71488 0.0
O246 O 0.35578 0.48592 0.74899 0.0
C247 C 0.66926 0.97421 0.8078 0.0
O248 O 0.66446 0.984 0.82967 0.0
O249 O 0.62006 -0.00081 0.7497 0.0
Zn250 Zn 0.63652 0.00283 0.78504 0.0
O251 O 0.61149 0.99684 0.80917 0.0
C252 C 0.6478 0.0535 0.78 0.0
O253 O 0.62882 0.04808 0.76353 0.0
O254 O 0.65917 0.97945 0.78719 0.0
C255 C 0.59461 0.00888 0.80782 0.0
O256 O 0.59447 0.02509 0.79141 0.0
C257 C 0.60077 0.98483 0.74211 0.0
O258 O 0.59122 0.96969 0.75746 0.0
O259 O 0.65483 0.03693 0.79202 0.0
C260 C 0.79612 0.58558 0.98742 0.0
O261 O 0.78428 0.58567 0.96508 0.0
O262 O 0.76594 0.63919 0.0363 0.0
Zn263 Zn 0.76699 0.62056 0.00231 0.0
O264 O 0.7742 0.64268 0.97448 0.0
C265 C 0.71701 0.61084 0.99628 0.0
O266 O 0.72131 0.63435 0.00238 0.0
O267 O 0.79176 0.5991 0.0062 0.0
C268 C 0.76956 0.66402 0.97449 0.0
O269 O 0.7595 0.67297 0.99355 0.0
C270 C 0.77922 0.65865 0.0462 0.0
O271 O 0.79645 0.66896 0.0339 0.0
O272 O 0.73446 0.59988 0.99386 0.0
C273 C 0.87413 0.55793 0.75193 0.0
O274 O 0.88742 0.55038 0.73509 0.0
O275 O 0.9159 0.51911 0.75605 0.0
Zn276 Zn 0.89145 0.52189 0.78047 0.0
O277 O 0.90938 0.52736 0.81527 0.0
C278 C 0.86196 0.47993 0.75489 0.0
O279 O 0.86896 0.4908 0.73517 0.0
O280 O 0.87332 0.54861 0.77296 0.0
C281 C 0.92229 0.51152 0.81933 0.0
O282 O 0.92152 0.49344 0.80176 0.0
C283 C 0.93568 0.5335 0.75857 0.0
O284 O 0.93978 0.55151 0.77667 0.0
O285 O 0.86896 0.49021 0.77712 0.0
C286 C 0.71721 0.42216 0.54355 0.0
O287 O 0.72565 0.41245 0.56332 0.0
O288 O 0.74323 0.36876 0.54258 0.0
Zn289 Zn 0.7476 0.39438 0.51819 0.0
O290 O 0.74394 0.37626 0.48304 0.0
C291 C 0.79157 0.41789 0.54772 0.0
O292 O 0.78086 0.40953 0.5669 0.0
O293 O 0.7237 0.41673 0.52179 0.0
C294 C 0.76258 0.37243 0.47325 0.0
O295 O 0.78342 0.38192 0.48531 0.0
C296 C 0.75849 0.35488 0.54492 0.0
O297 O 0.77704 0.35806 0.53194 0.0
O298 O 0.78057 0.41418 0.52552 0.0
C299 C 0.68775 0.47826 0.29583 0.0
O300 O 0.69806 0.49765 0.31069 0.0
O301 O 0.63026 0.50473 0.25472 0.0
Zn302 Zn 0.64758 0.50385 0.28911 0.0
O303 O 0.62489 0.4981 0.31581 0.0
C304 C 0.65917 0.55443 0.30053 0.0
O305 O 0.63589 0.55119 0.29934 0.0
O306 O 0.66667 0.47713 0.28563 0.0
C307 C 0.63364 0.50024 0.33889 0.0
O308 O 0.65681 0.50567 0.34413 0.0
C309 C 0.60911 0.50814 0.24956 0.0
O310 O 0.59576 0.51111 0.26807 0.0
O311 O 0.66915 0.53604 0.29756 0.0
Zn312 Zn 0.03545 0.00298 0.03651 0.0
Zn313 Zn 0.98918 0.01587 0.00698 0.0
C314 C 0.02864 0.95126 0.03344 0.0
O315 O 0.04721 0.95488 0.02052 0.0
C316 C 0.00934 0.0551 0.98404 0.0
O317 O 0.99826 0.03951 0.96527 0.0
O318 O 0.06937 0.00293 0.05022 0.0
O319 O 0.03703 0.00631 -0.00095 0.0
O320 O 0.00051 0.99338 0.98095 0.0
C321 C 0.08661 0.01219 0.03865 0.0
O322 O 0.08251 0.02545 0.02004 0.0
O323 O 0.01936 0.96926 0.04082 0.0
C324 C 0.95282 0.0412 0.01031 0.0
O325 O 0.96896 0.05076 0.0291 0.0
O326 O 0.95648 0.02306 0.99614 0.0
O327 O 0.98615 0.00543 0.04204 0.0
O328 O 0.02055 0.0254 0.05961 0.0
O329 O 0.00975 0.04883 0.00658 0.0
C330 C 0.02283 0.99698 0.9797 0.0
C331 C 0.99879 0.01727 0.06129 0.0
Zn332 Zn 0.26794 0.75929 0.29106 0.0
Zn333 Zn 0.27387 0.75707 0.23502 0.0
C334 C 0.23984 0.71424 0.28853 0.0
O335 O 0.2281 0.72861 0.30114 0.0
C336 C 0.29775 0.80356 0.22975 0.0
O337 O 0.30857 0.78995 0.21504 0.0
O338 O 0.26841 0.76148 0.32935 0.0
O339 O 0.30099 0.77263 0.28331 0.0
O340 O 0.30113 0.74414 0.25252 0.0
C341 C 0.28565 0.75314 0.33999 0.0
O342 O 0.30177 0.74681 0.32596 0.0
O343 O 0.25985 0.7231 0.2816 0.0
C344 C 0.25466 0.75586 0.18396 0.0
O345 O 0.23625 0.75907 0.19601 0.0
O346 O 0.27326 0.75201 0.19669 0.0
O347 O 0.24082 0.7451 0.24335 0.0
O348 O 0.24078 0.77334 0.2745 0.0
O349 O 0.28132 0.79348 0.24191 0.0
C350 C 0.31211 0.75851 0.27112 0.0
C351 C 0.22985 0.75938 0.25553 0.0
Zn352 Zn 0.48731 0.00721 0.53105 0.0
Zn353 Zn 0.54072 0.01089 0.52892 0.0
C354 C 0.4863 0.05186 0.55595 0.0
O355 O 0.47368 0.03638 0.56884 0.0
C356 C 0.54254 0.96386 0.50805 0.0
O357 O 0.55887 0.97699 0.49674 0.0
O358 O 0.4513 0.0021 0.52792 0.0
O359 O 0.49691 0.99476 0.49761 0.0
O360 O 0.52747 0.02396 0.49724 0.0
C361 C 0.44087 0.00549 0.50665 0.0
O362 O 0.45339 0.00872 0.48725 0.0
O363 O 0.49574 0.04372 0.53697 0.0
C364 C 0.58605 0.0083 0.55215 0.0
O365 O 0.5722 0.00062 0.5693 0.0
O366 O 0.57681 0.01576 0.53223 0.0
O367 O 0.53127 0.0232 0.56248 0.0
O368 O 0.50076 0.99396 0.56239 0.0
O369 O 0.53111 0.97443 0.52368 0.0
C370 C 0.51008 0.00911 0.48542 0.0
C371 C 0.51861 0.00806 0.57437 0.0
Zn372 Zn 0.28251 0.26074 0.76875 0.0
Zn373 Zn 0.23052 0.26723 0.76855 0.0
C374 C 0.2823 0.23173 0.72357 0.0
O375 O 0.29225 0.22004 0.74082 0.0
C376 C 0.23297 0.29484 0.81495 0.0
O377 O 0.22132 0.30644 0.79899 0.0
O378 O 0.31794 0.26158 0.77461 0.0
O379 O 0.27762 0.29517 0.77755 0.0
O380 O 0.24633 0.2944 0.75032 0.0
C381 C 0.33067 0.2798 0.76702 0.0
O382 O 0.32025 0.29676 0.75781 0.0
O383 O 0.27545 0.25133 0.73077 0.0
C384 C 0.18414 0.2481 0.77585 0.0
O385 O 0.19644 0.2329 0.78585 0.0
O386 O 0.19498 0.26578 0.76558 0.0
O387 O 0.23539 0.23373 0.75704 0.0
O388 O 0.26477 0.23344 0.78621 0.0
O389 O 0.24017 0.27586 0.80637 0.0
C390 C 0.26553 0.30589 0.76235 0.0
C391 C 0.24605 0.2224 0.77284 0.0
Zn392 Zn 0.02233 0.98507 0.5275 0.0
Zn393 Zn 0.01033 0.03526 0.52391 0.0
C394 C 0.05402 0.99292 0.57227 0.0
O395 O 0.068 0.98693 0.55537 0.0
C396 C 0.97948 0.02499 0.47955 0.0
O397 O 0.96751 0.03574 0.4957 0.0
O398 O 0.02722 0.95038 0.52401 0.0
O399 O 0.98683 0.98519 0.52199 0.0
O400 O 0.98695 0.01913 0.54583 0.0
C401 C 0.01034 0.93235 0.52077 0.0
O402 O 0.98847 0.93601 0.51599 0.0
O403 O 0.03276 0.99458 0.56479 0.0
C404 C 0.01876 0.07871 0.50405 0.0
O405 O 0.03006 0.0645 0.49065 0.0
O406 O 0.00797 0.0705 0.52232 0.0
O407 O 0.0448 0.03608 0.53363 0.0
O408 O 0.04605 0.00444 0.50724 0.0
O409 O -0.00014 0.02087 0.48743 0.0
C410 C 0.97629 0.99829 0.53632 0.0
C411 C 0.05587 0.02507 0.5181 0.0
Zn412 Zn 0.27375 0.79041 0.75697 0.0
Zn413 Zn 0.26826 0.73735 0.76656 0.0
C414 C 0.22986 0.78489 0.72897 0.0
O415 O 0.24458 0.79604 0.71437 0.0
C416 C 0.31181 0.73187 0.79179 0.0
O417 O 0.29652 0.71867 0.80425 0.0
O418 O 0.27679 0.82686 0.75658 0.0
O419 O 0.2862 0.78439 0.79205 0.0
O420 O 0.25596 0.75588 0.79557 0.0
C421 C 0.2688 0.83651 0.77585 0.0
O422 O 0.2617 0.82283 0.79354 0.0
O423 O 0.23812 0.77958 0.75044 0.0
C424 C 0.25168 0.68651 0.74819 0.0
O425 O 0.24405 0.69511 0.72735 0.0
O426 O 0.25964 0.7011 0.76783 0.0
O427 O 0.25997 0.74367 0.73028 0.0
O428 O 0.28848 0.77452 0.72818 0.0
O429 O 0.30408 0.74311 0.77387 0.0
C430 C 0.27146 0.77369 0.80568 0.0
C431 C 0.27541 0.75508 0.71786 0.0
Zn432 Zn 0.50184 0.01129 0.99742 0.0
Zn433 Zn 0.51548 0.00956 0.05074 0.0
C434 C 0.54808 0.03227 0.98664 0.0
O435 O 0.53513 0.04369 0.97181 0.0
C436 C 0.4698 0.98977 0.06509 0.0
O437 O 0.48314 0.97972 0.08096 0.0
O438 O 0.49301 0.0101 0.95964 0.0
O439 O 0.49007 0.97838 0.00828 0.0
O440 O 0.52405 0.98026 0.03124 0.0
C441 C 0.49228 0.9902 0.94612 0.0
O442 O 0.49228 0.97036 0.95749 0.0
O443 O 0.53778 0.01681 3e-05 0.0
C444 C 0.52687 0.02903 0.10241 0.0
O445 O 0.52466 0.04912 0.0922 0.0
O446 O 0.52652 0.00987 0.08782 0.0
O447 O 0.5259 0.0431 0.04042 0.0
O448 O 0.49262 0.04068 0.01584 0.0
O449 O 0.47962 0.00378 0.04999 0.0
C450 C 0.50647 0.96784 0.0171 0.0
C451 C 0.50957 0.05329 0.03071 0.0
Zn452 Zn 0.26123 0.23363 0.25146 0.0
Zn453 Zn 0.24997 0.27783 0.28505 0.0
C454 C 0.30161 0.25887 0.23472 0.0
O455 O 0.28792 0.25028 0.21369 0.0
C456 C 0.20921 0.26047 0.30942 0.0
O457 O 0.22558 0.26304 0.32884 0.0
O458 O 0.27018 0.20229 0.23724 0.0
O459 O 0.24852 0.22527 0.28408 0.0
O460 O 0.26929 0.2576 0.30608 0.0
C461 C 0.28787 0.19804 0.25129 0.0
O462 O 0.29605 0.21262 0.27191 0.0
O463 O 0.29337 0.25589 0.25598 0.0
C464 C 0.26569 0.32941 0.29301 0.0
O465 O 0.27863 0.32519 0.27445 0.0
O466 O 0.25409 0.31161 0.30242 0.0
O467 O 0.2537 0.28286 0.24782 0.0
O468 O 0.24 0.24728 0.22649 0.0
O469 O 0.21531 0.26512 0.28763 0.0
C470 C 0.26031 0.23525 0.30463 0.0
C471 C 0.24472 0.27021 0.22717 0.0
Zn472 Zn 0.51842 0.48626 0.02024 0.0
Zn473 Zn 0.50485 0.53614 0.01586 0.0
C474 C 0.54712 0.49645 0.06583 0.0
O475 O 0.56067 0.48768 0.05 0.0
C476 C 0.47657 0.53109 0.97028 0.0
O477 O 0.46414 0.54083 0.98669 0.0
O478 O 0.52274 0.45142 0.02063 0.0
O479 O 0.48368 0.48503 0.00925 0.0
O480 O 0.48001 0.51688 0.03442 0.0
C481 C 0.50778 0.43961 0.03331 0.0
O482 O 0.49162 0.45054 0.04299 0.0
O483 O 0.52629 0.49878 0.05738 0.0
C484 C 0.51635 0.58354 0.00554 0.0
O485 O 0.53175 0.57254 0.99446 0.0
O486 O 0.50148 0.5714 0.01807 0.0
O487 O 0.53965 0.53659 0.0258 0.0
O488 O 0.54301 0.50464 0.00065 0.0
O489 O 0.49633 0.52565 0.97836 0.0
C490 C 0.47122 0.49603 0.0233 0.0
C491 C 0.55184 0.52561 0.01139 0.0
Zn492 Zn 0.75249 0.28065 0.2586 0.0
Zn493 Zn 0.75617 0.23017 0.27362 0.0
C494 C 0.70577 0.26566 0.23429 0.0
O495 O 0.71708 0.27173 0.21466 0.0
C496 C 0.80128 0.23977 0.29949 0.0
O497 O 0.78794 0.22974 0.316 0.0
O498 O 0.75298 0.31575 0.25335 0.0
O499 O 0.76707 0.28001 0.29409 0.0
O500 O 0.74209 0.24816 0.30197 0.0
C501 C 0.76448 0.33302 0.26886 0.0
O502 O 0.77945 0.32825 0.28715 0.0
O503 O 0.71732 0.26734 0.25613 0.0
C504 C 0.76437 0.18394 0.26116 0.0
O505 O 0.77113 0.19594 0.24209 0.0
O506 O 0.7554 0.19478 0.27895 0.0
O507 O 0.74324 0.23048 0.23696 0.0
O508 O 0.76689 0.26378 0.23049 0.0
O509 O 0.79149 0.24292 0.27785 0.0
C510 C 0.75482 0.26867 0.30951 0.0
C511 C 0.75593 0.24266 0.22241 0.0
Zn512 Zn 0.01586 0.51652 0.50771 0.0
Zn513 Zn 0.01261 0.50378 0.56146 0.0
C514 C 0.06118 0.54339 0.51616 0.0
O515 O 0.04883 0.55738 0.50403 0.0
C516 C 0.96698 0.47673 0.56387 0.0
O517 O 0.9802 0.4644 0.57727 0.0
O518 O 0.01876 0.51972 0.4704 0.0
O519 O 0.00111 0.48191 0.50936 0.0
O520 O 0.02648 0.4783 0.54153 0.0
C521 C 0.03059 0.5043 0.46157 0.0
O522 O 0.03774 0.48897 0.47661 0.0
O523 O 0.05037 0.52338 0.52219 0.0
C524 C 0.02994 0.51568 0.61526 0.0
O525 O 0.04261 0.53503 0.6079 0.0
O526 O 0.01805 0.49969 0.59862 0.0
O527 O 0.02179 0.53967 0.55876 0.0
O528 O -0.00051 0.54198 0.52346 0.0
O529 O 0.97697 0.49502 0.55388 0.0
C530 C 0.01368 0.46906 0.52121 0.0
C531 C 0.00908 0.55134 0.54532 0.0
Zn532 Zn 0.78545 0.75286 0.2704 0.0
Zn533 Zn 0.73683 0.76716 0.27883 0.0
C534 C 0.77111 0.72318 0.22498 0.0
O535 O 0.77898 0.70835 0.24021 0.0
C536 C 0.74144 0.79646 0.32416 0.0
O537 O 0.73057 0.80829 0.30777 0.0
O538 O 0.81961 0.75071 0.26591 0.0
O539 O 0.78638 0.78764 0.28302 0.0
O540 O 0.7546 0.79255 0.25934 0.0
C541 C 0.82624 0.76423 0.24883 0.0
O542 O 0.81147 0.77736 0.23914 0.0
O543 O 0.77035 0.74469 0.23393 0.0
C544 C 0.69146 0.75291 0.28977 0.0
O545 O 0.70419 0.73962 0.30243 0.0
O546 O 0.7018 0.7685 0.27651 0.0
O547 O 0.73734 0.73175 0.26934 0.0
O548 O 0.77027 0.72754 0.29149 0.0
O549 O 0.74762 0.77673 0.31618 0.0
C550 C 0.77561 0.80075 0.26939 0.0
C551 C 0.74887 0.71917 0.28292 0.0
Zn552 Zn 0.7594 0.26863 0.79389 0.0
Zn553 Zn 0.76575 0.25826 0.73904 0.0
C554 C 0.72921 0.22621 0.80035 0.0
O555 O 0.71783 0.24313 0.80889 0.0
C556 C 0.79073 0.30443 0.73275 0.0
O557 O 0.80111 0.2905 0.71791 0.0
O558 O 0.75768 0.27816 0.83116 0.0
O559 O 0.79386 0.27578 0.78672 0.0
O560 O 0.79148 0.24468 0.75809 0.0
C561 C 0.77598 0.27979 0.84697 0.0
O562 O 0.79682 0.28083 0.83833 0.0
O563 O 0.7493 0.23243 0.79222 0.0
C564 C 0.74719 0.25115 0.68635 0.0
O565 O 0.72694 0.24949 0.69634 0.0
O566 O 0.76619 0.25198 0.70092 0.0
O567 O 0.73254 0.24745 0.74695 0.0
O568 O 0.73327 0.28046 0.77224 0.0
O569 O 0.77423 0.29473 0.74506 0.0
C570 C 0.80337 0.25927 0.77601 0.0
C571 C 0.72186 0.26372 0.75601 0.0
Zn572 Zn 0.78079 0.74479 0.76253 0.0
Zn573 Zn 0.76655 0.79037 0.79459 0.0
C574 C 0.81878 0.76992 0.73946 0.0
O575 O 0.80353 0.76157 0.71951 0.0
C576 C 0.72811 0.77412 0.81982 0.0
O577 O 0.74513 0.78322 0.83791 0.0
O578 O 0.78516 0.7119 0.74718 0.0
O579 O 0.77455 0.7388 0.79831 0.0
O580 O 0.78772 0.77497 0.81864 0.0
C581 C 0.80556 0.70675 0.75309 0.0
O582 O 0.8214 0.72238 0.76802 0.0
O583 O 0.81276 0.76628 0.76154 0.0
C584 C 0.75108 0.83321 0.79233 0.0
O585 O 0.7402 0.81913 0.77232 0.0
O586 O 0.76527 0.82485 0.80766 0.0
O587 O 0.77395 0.79345 0.75826 0.0
O588 O 0.75644 0.75778 0.74022 0.0
O589 O 0.73281 0.77376 0.79679 0.0
C590 C 0.78318 0.75206 0.81862 0.0
C591 C 0.76197 0.78046 0.73925 0.0
Zn592 Zn 0.53826 0.50697 0.54023 0.0
Zn593 Zn 0.49173 0.50701 0.50475 0.0
C594 C 0.52398 0.46493 0.56351 0.0
O595 O 0.52855 0.48156 0.58302 0.0
C596 C 0.503 0.54876 0.48143 0.0
O597 O 0.49627 0.5317 0.46251 0.0
O598 O 0.57131 0.51019 0.55813 0.0
O599 O 0.54322 0.51376 0.50422 0.0
O600 O 0.51229 0.48922 0.48371 0.0
C601 C 0.5893 0.52119 0.54889 0.0
O602 O 0.58604 0.53551 0.53104 0.0
O603 O 0.52621 0.47127 0.54125 0.0
C604 C 0.44032 0.49355 0.49736 0.0
O605 O 0.4435 0.48094 0.51675 0.0
O606 O 0.45835 0.50356 0.48742 0.0
O607 O 0.48765 0.49886 0.54049 0.0
O608 O 0.51726 0.52537 0.56039 0.0
O609 O 0.50376 0.54275 0.50406 0.0
C610 C 0.53381 0.49966 0.48472 0.0
C611 C 0.49647 0.5132 0.55998 0.0
Zn612 Zn 0.98401 0.50299 0.03234 0.0
Zn613 Zn 0.03723 0.50665 0.03227 0.0
C614 C 0.98829 0.54808 0.06094 0.0
O615 O 0.97394 0.53413 0.07374 0.0
C616 C 0.03966 0.46576 0.00092 0.0
O617 O 0.05283 0.48339 0.99117 0.0
O618 O 0.94824 0.50145 0.02852 0.0
O619 O 0.99398 0.49297 0.99845 0.0
O620 O 0.0242 0.52316 0.00269 0.0
C621 C 0.93865 0.50619 0.00738 0.0
O622 O 0.95163 0.50906 0.9883 0.0
O623 O 0.9961 0.53868 0.04149 0.0
C624 C 0.08318 0.50585 0.0562 0.0
O625 O 0.07 0.4983 0.07396 0.0
O626 O 0.07325 0.51275 0.03633 0.0
O627 O 0.02661 0.51319 0.06711 0.0
O628 O 0.99463 0.48496 0.06136 0.0
O629 O 0.02977 0.47081 0.02076 0.0
C630 C 0.00763 0.50901 0.98868 0.0
C631 C 0.01215 0.49705 0.07577 0.0
H632 H 0.02 0.21021 0.98156 0.0
H633 H 0.02154 0.07077 0.93932 0.0
H634 H 0.01265 0.17799 0.90387 0.0
H635 H 0.01405 0.09678 0.01652 0.0
H636 H 0.02618 0.11213 0.92781 0.0
H637 H 0.02427 0.1707 0.99616 0.0
C638 C 0.01935 0.19489 0.96759 0.0
C639 C 0.01575 0.19736 0.94145 0.0
C640 C 0.02378 0.10892 0.94736 0.0
C641 C 0.02093 0.15239 0.95799 0.0
C642 C 0.02126 0.0853 0.95397 0.0
C643 C 0.01717 0.08036 0.97883 0.0
C644 C 0.02199 0.12782 0.96568 0.0
C645 C 0.01719 0.09987 0.99712 0.0
C646 C 0.02182 0.1724 0.97595 0.0
C647 C 0.01514 0.17693 0.9242 0.0
N648 N 0.01921 0.12281 0.99009 0.0
N649 N 0.01769 0.15539 0.93278 0.0
H650 H 0.08775 0.79043 0.21552 0.0
H651 H 0.2008 0.72624 0.22188 0.0
H652 H 0.1085 0.74871 0.15189 0.0
H653 H 0.20203 0.79329 0.26828 0.0
H654 H 0.1619 0.72933 0.20189 0.0
H655 H 0.12559 0.78788 0.23999 0.0
C656 C 0.10027 0.78084 0.2067 0.0
C657 C 0.09501 0.76974 0.18165 0.0
C658 C 0.17062 0.74334 0.2165 0.0
C659 C 0.13768 0.7664 0.20953 0.0
C660 C 0.19282 0.74159 0.22802 0.0
C661 C 0.2049 0.75982 0.24643 0.0
C662 C 0.16017 0.76334 0.22355 0.0
C663 C 0.19338 0.77897 0.25398 0.0
C664 C 0.12176 0.77944 0.22063 0.0
C665 C 0.11181 0.75759 0.17108 0.0
N666 N 0.17159 0.78035 0.24234 0.0
N667 N 0.13226 0.75607 0.18515 0.0
H668 H 0.47182 0.81687 0.46332 0.0
H669 H 0.57057 0.93574 0.48569 0.0
H670 H 0.54456 0.81916 0.44731 0.0
H671 H 0.50298 0.93174 0.5163 0.0
H672 H 0.56128 0.89247 0.47278 0.0
H673 H 0.48274 0.8581 0.48445 0.0
C674 C 0.49013 0.8259 0.4645 0.0
C675 C 0.50724 0.81464 0.45325 0.0
C676 C 0.5485 0.90094 0.48249 0.0
C677 C 0.51976 0.86179 0.47718 0.0
C678 C 0.55376 0.9257 0.48978 0.0
C679 C 0.53743 0.93736 0.50189 0.0
C680 C 0.52656 0.88768 0.487 0.0
C681 C 0.51604 0.9234 0.50695 0.0
C682 C 0.49633 0.84944 0.47656 0.0
C683 C 0.5307 0.82717 0.45547 0.0
N684 N 0.51109 0.89928 0.49921 0.0
N685 N 0.53618 0.85012 0.46693 0.0
H686 H 0.4707 0.32332 0.72354 0.0
H687 H 0.35554 0.24214 0.7663 0.0
H688 H 0.45516 0.24535 0.71019 0.0
H689 H 0.36375 0.31927 0.76215 0.0
H690 H 0.39623 0.24339 0.75506 0.0
H691 H 0.4357 0.32227 0.74681 0.0
C692 C 0.4601 0.30596 0.72574 0.0
C693 C 0.46567 0.28441 0.71458 0.0
C694 C 0.3892 0.26007 0.75698 0.0
C695 C 0.42561 0.2831 0.74119 0.0
C696 C 0.36607 0.25939 0.76355 0.0
C697 C 0.35622 0.28059 0.76484 0.0
C698 C 0.40253 0.28212 0.7519 0.0
C699 C 0.37058 0.30244 0.76102 0.0
C700 C 0.4401 0.30538 0.739 0.0
C701 C 0.45136 0.26243 0.7182 0.0
N702 N 0.39294 0.30262 0.75453 0.0
N703 N 0.43187 0.26235 0.73102 0.0
H704 H 0.99049 0.79856 0.58904 0.0
H705 H 0.05285 0.91984 0.53709 0.0
H706 H 0.06315 0.83289 0.61155 0.0
H707 H 0.97797 0.89087 0.52191 0.0
H708 H 0.05862 0.88362 0.55737 0.0
H709 H 0.98732 0.82799 0.55807 0.0
C710 C 0.00585 0.81215 0.58733 0.0
C711 C 0.02703 0.81347 0.60318 0.0
C712 C 0.04097 0.88503 0.5493 0.0
C713 C 0.02351 0.84718 0.56773 0.0
C714 C 0.03767 0.90568 0.53759 0.0
C715 C 0.0148 0.90861 0.52816 0.0
C716 C 0.02128 0.86718 0.55165 0.0
C717 C 0.99587 0.88954 0.52919 0.0
C718 C 0.00402 0.82894 0.56962 0.0
C719 C 0.04639 0.83136 0.59996 0.0
N720 N -0.00052 0.86978 0.54107 0.0
N721 N 0.04411 0.84762 0.58275 0.0
H722 H 0.46119 0.78086 0.83769 0.0
H723 H 0.33303 0.69998 0.81729 0.0
H724 H 0.44847 0.70454 0.84731 0.0
H725 H 0.34893 0.76621 0.78172 0.0
H726 H 0.37523 0.70242 0.83011 0.0
H727 H 0.42025 0.77695 0.81831 0.0
C728 C 0.44987 0.76324 0.83551 0.0
C729 C 0.45822 0.74301 0.84428 0.0
C730 C 0.36955 0.71635 0.81935 0.0
C731 C 0.41138 0.73854 0.82244 0.0
C732 C 0.34544 0.71506 0.81215 0.0
C733 C 0.33748 0.73301 0.79855 0.0
C734 C 0.38587 0.73597 0.81331 0.0
C735 C 0.35437 0.752 0.7922 0.0
C736 C 0.42654 0.76104 0.8244 0.0
C737 C 0.44281 0.72063 0.84088 0.0
N738 N 0.37782 0.75315 0.79989 0.0
N739 N 0.42006 0.71906 0.83051 0.0
H740 H 0.4704 0.18216 0.10115 0.0
H741 H 0.54748 0.08773 0.04952 0.0
H742 H 0.5454 0.20114 0.09422 0.0
H743 H 0.47156 0.07703 0.03105 0.0
H744 H 0.5469 0.12895 0.06743 0.0
H745 H 0.47005 0.14297 0.07706 0.0
C746 C 0.48675 0.17814 0.09448 0.0
C747 C 0.50799 0.19489 0.09981 0.0
C748 C 0.53038 0.11771 0.05922 0.0
C749 C 0.50771 0.15017 0.07247 0.0
C750 C 0.5307 0.09417 0.04904 0.0
C751 C 0.50953 0.07897 0.03887 0.0
C752 C 0.50867 0.126 0.05967 0.0
C753 C 0.48829 0.08823 0.03864 0.0
C754 C 0.4865 0.15584 0.08065 0.0
C755 C 0.52862 0.18878 0.0906 0.0
N756 N 0.48834 0.1111 0.04923 0.0
N757 N 0.52801 0.16685 0.07761 0.0
H758 H 0.06859 0.28028 0.33596 0.0
H759 H 0.19031 0.23379 0.3455 0.0
H760 H 0.07609 0.21313 0.36702 0.0
H761 H 0.17099 0.27418 0.28358 0.0
H762 H 0.14913 0.22786 0.3557 0.0
H763 H 0.10668 0.28053 0.31819 0.0
C764 C 0.07813 0.2655 0.33883 0.0
C765 C 0.06924 0.24673 0.35311 0.0
C766 C 0.15384 0.23775 0.33968 0.0
C767 C 0.1128 0.24713 0.33324 0.0
C768 C 0.1773 0.2412 0.33391 0.0
C769 C 0.18398 0.25451 0.31371 0.0
C770 C 0.13707 0.24824 0.32557 0.0
C771 C 0.16647 0.2637 0.29924 0.0
C772 C 0.09977 0.26561 0.32862 0.0
C773 C 0.08227 0.22797 0.35616 0.0
N774 N 0.14383 0.26075 0.30572 0.0
N775 N 0.10356 0.22884 0.34666 0.0
H776 H 0.96807 0.0496 0.21757 0.0
H777 H 0.95275 0.00248 0.06943 0.0
H778 H 0.90506 0.00479 0.17792 0.0
H779 H 0.02004 0.03862 0.10843 0.0
H780 H 0.93486 0.00576 0.10904 0.0
H781 H 0.98728 0.04803 0.17802 0.0
C782 C 0.95827 0.03945 0.2006 0.0
C783 C 0.93489 0.0273 0.2011 0.0
C784 C 0.95355 0.01299 0.10907 0.0
C785 C 0.95672 0.02554 0.15586 0.0
C786 C 0.96384 0.01114 0.08636 0.0
C787 C 0.98804 0.02015 0.08555 0.0
C788 C 0.96743 0.024 0.13138 0.0
C789 C 0.00135 0.03135 0.10818 0.0
C790 C 0.96926 0.03856 0.17805 0.0
C791 C 0.92308 0.01442 0.17853 0.0
N792 N 0.99087 0.03294 0.13023 0.0
N793 N 0.93409 0.01393 0.15691 0.0
H794 H 0.31165 0.6697 0.46289 0.0
H795 H 0.24938 0.75072 0.37087 0.0
H796 H 0.2432 0.68896 0.47334 0.0
H797 H 0.32156 0.73891 0.36857 0.0
H798 H 0.24768 0.73142 0.41061 0.0
H799 H 0.31639 0.69746 0.43004 0.0
C800 C 0.29764 0.67984 0.45833 0.0
C801 C 0.2769 0.67683 0.4707 0.0
C802 C 0.26399 0.7334 0.40159 0.0
C803 C 0.28216 0.70867 0.43299 0.0
C804 C 0.26501 0.74453 0.37898 0.0
C805 C 0.28553 0.74611 0.36622 0.0
C806 C 0.2836 0.72375 0.41133 0.0
C807 C 0.30525 0.73776 0.37756 0.0
C808 C 0.30039 0.69579 0.43963 0.0
C809 C 0.25943 0.69063 0.46417 0.0
N810 N 0.30369 0.72669 0.39926 0.0
N811 N 0.26234 0.70579 0.44557 0.0
H812 H 0.61362 0.01789 0.70897 0.0
H813 H 0.50514 0.97021 0.60279 0.0
H814 H 0.55882 0.95783 0.71888 0.0
H815 H 0.55147 0.03939 0.60617 0.0
H816 H 0.52419 0.96397 0.6445 0.0
H817 H 0.59159 0.02394 0.66954 0.0
C818 C 0.59697 0.00585 0.70279 0.0
C819 C 0.58804 0.98733 0.7173 0.0
C820 C 0.52994 0.98059 0.63614 0.0
C821 C 0.56252 0.99432 0.67201 0.0
C822 C 0.51902 0.98421 0.61245 0.0
C823 C 0.52693 0.00522 0.6009 0.0
C824 C 0.54888 0.99807 0.64811 0.0
C825 C 0.54499 0.02277 0.6142 0.0
C826 C 0.58429 0.00943 0.6803 0.0
C827 C 0.56634 0.97235 0.70827 0.0
N828 N 0.55548 0.01869 0.63692 0.0
N829 N 0.55427 0.97615 0.68611 0.0
H830 H 0.27517 0.31985 0.97815 0.0
H831 H 0.21814 0.33385 0.83801 0.0
H832 H 0.23317 0.37415 0.95978 0.0
H833 H 0.25667 0.27632 0.8543 0.0
H834 H 0.22398 0.34859 0.88284 0.0
H835 H 0.26882 0.30323 0.93337 0.0
C836 C 0.26454 0.32822 0.96477 0.0
C837 C 0.25473 0.34849 0.97277 0.0
C838 C 0.23119 0.33273 0.87673 0.0
C839 C 0.24752 0.32962 0.92154 0.0
C840 C 0.22789 0.32428 0.85102 0.0
C841 C 0.23694 0.30379 0.84231 0.0
C842 C 0.24371 0.32069 0.89407 0.0
C843 C 0.24939 0.29219 0.86019 0.0
C844 C 0.26096 0.31873 0.93921 0.0
C845 C 0.24113 0.35856 0.95456 0.0
N846 N 0.25244 0.30083 0.88526 0.0
N847 N 0.238 0.34907 0.92987 0.0
H848 H 0.95748 0.99133 0.31486 0.0
H849 H 0.93721 0.0332 0.45791 0.0
H850 H 0.90328 0.03183 0.33564 0.0
H851 H 0.00058 0.00677 0.43912 0.0
H852 H 0.92304 0.02906 0.41297 0.0
H853 H 0.9725 0.9939 0.35997 0.0
C854 C 0.9488 0.00084 0.32885 0.0
C855 C 0.92907 0.01137 0.32143 0.0
C856 C 0.94004 0.0241 0.41859 0.0
C857 C 0.94599 0.01413 0.37295 0.0
C858 C 0.94813 0.02637 0.44433 0.0
C859 C 0.97019 0.02042 0.45234 0.0
C860 C 0.95401 0.01574 0.40052 0.0
C861 C 0.98347 0.01158 0.43378 0.0
C862 C 0.95738 0.00227 0.35457 0.0
C863 C 0.91854 0.02345 0.34039 0.0
N864 N 0.97518 0.00955 0.40867 0.0
N865 N 0.92706 0.02439 0.36521 0.0
H866 H 0.32826 0.70172 0.57861 0.0
H867 H 0.2433 0.72243 0.68671 0.0
H868 H 0.26712 0.65031 0.59232 0.0
H869 H 0.31434 0.76325 0.69071 0.0
H870 H 0.24997 0.69987 0.64773 0.0
H871 H 0.32232 0.72761 0.6163 0.0
C872 C 0.3137 0.69581 0.58959 0.0
C873 C 0.29815 0.6738 0.58228 0.0
C874 C 0.26413 0.71378 0.65703 0.0
C875 C 0.29109 0.70344 0.62494 0.0
C876 C 0.26032 0.72673 0.67929 0.0
C877 C 0.27846 0.74443 0.69222 0.0
C878 C 0.28623 0.71858 0.6474 0.0
C879 C 0.29993 0.74965 0.68135 0.0
C880 C 0.31032 0.71061 0.61102 0.0
C881 C 0.27959 0.66706 0.59718 0.0
N882 N 0.30333 0.7366 0.65958 0.0
N883 N 0.27652 0.68187 0.61765 0.0
H884 H 0.56185 0.03764 0.81736 0.0
H885 H 0.50103 0.95234 0.91487 0.0
H886 H 0.58312 0.97049 0.83551 0.0
H887 H 0.4993 0.02892 0.91769 0.0
H888 H 0.52195 0.95525 0.87685 0.0
H889 H 0.5308 0.03119 0.84615 0.0
C890 C 0.55988 0.02146 0.82726 0.0
C891 C 0.57526 0.00471 0.82433 0.0
C892 C 0.51663 0.97131 0.88557 0.0
C893 C 0.53964 0.99711 0.85685 0.0
C894 C 0.50452 0.96967 0.90718 0.0
C895 C 0.49885 0.99054 0.91982 0.0
C896 C 0.52292 0.99393 0.87644 0.0
C897 C 0.50364 0.01243 0.90878 0.0
C898 C 0.54217 0.01781 0.84363 0.0
C899 C 0.57185 0.98401 0.8375 0.0
N900 N 0.51572 0.01363 0.88787 0.0
N901 N 0.55442 0.98082 0.85325 0.0
H902 H 0.2638 0.3745 0.11705 0.0
H903 H 0.22753 0.25009 0.17846 0.0
H904 H 0.22057 0.31135 0.07461 0.0
H905 H 0.25738 0.31831 0.22184 0.0
H906 H 0.22629 0.27109 0.1397 0.0
H907 H 0.26349 0.35299 0.15512 0.0
C908 C 0.25425 0.35608 0.11571 0.0
C909 C 0.24218 0.34474 0.09256 0.0
C910 C 0.23301 0.28141 0.15776 0.0
C911 C 0.24178 0.31989 0.13625 0.0
C912 C 0.23372 0.26944 0.17989 0.0
C913 C 0.24261 0.2824 0.2035 0.0
C914 C 0.24143 0.30646 0.15925 0.0
C915 C 0.25041 0.30748 0.20414 0.0
C916 C 0.25402 0.3438 0.13751 0.0
C917 C 0.23008 0.32083 0.09206 0.0
N918 N 0.24974 0.31861 0.1824 0.0
N919 N 0.23024 0.30916 0.11356 0.0
H920 H 0.19577 0.92857 0.07802 0.0
H921 H 0.12384 0.01976 0.00971 0.0
H922 H 0.205 0.94861 0.00219 0.0
H923 H 0.10145 0.98438 0.07495 0.0
H924 H 0.15844 -0.00029 0.01113 0.0
H925 H 0.16543 0.95421 0.08098 0.0
C926 C 0.19148 0.93842 0.06202 0.0
C927 C 0.20282 0.9363 0.03974 0.0
C928 C 0.14607 0.99653 0.02528 0.0
C929 C 0.16831 0.96583 0.04313 0.0
C930 C 0.12639 0.00812 0.02462 0.0
C931 C 0.10958 0.0036 0.04212 0.0
C932 C 0.14908 0.98042 0.04366 0.0
C933 C 0.11386 0.98828 0.06098 0.0
C934 C 0.17416 0.95303 0.06374 0.0
C935 C 0.19658 0.94953 0.01964 0.0
N936 N 0.13311 0.97711 0.06115 0.0
N937 N 0.17975 0.96372 0.02182 0.0
H938 H 0.70082 0.56176 0.98543 0.0
H939 H 0.57279 0.57198 0.0274 0.0
H940 H 0.67711 0.62925 0.00457 0.0
H941 H 0.58638 0.50659 0.98725 0.0
H942 H 0.61234 0.59211 0.02137 0.0
H943 H 0.66022 0.54018 0.98737 0.0
C944 C 0.68709 0.57205 0.98983 0.0
C945 C 0.69243 0.59736 0.99502 0.0
C946 C 0.60673 0.57339 0.01374 0.0
C947 C 0.64622 0.57282 0.99751 0.0
C948 C 0.58409 0.56179 0.01726 0.0
C949 C 0.57615 0.53752 0.00773 0.0
C950 C 0.62187 0.56065 0.00086 0.0
C951 C 0.59175 0.52534 0.99483 0.0
C952 C 0.66396 0.55972 0.99092 0.0
C953 C 0.67394 0.60975 0.00056 0.0
N954 N 0.61398 0.53701 0.99187 0.0
N955 N 0.65178 0.59736 0.00185 0.0
H956 H 0.67413 0.43924 0.26042 0.0
H957 H 0.78158 0.37308 0.30253 0.0
H958 H 0.73084 0.47146 0.31814 0.0
H959 H 0.73047 0.34764 0.23725 0.0
H960 H 0.76467 0.41008 0.30762 0.0
H961 H 0.69532 0.406 0.25129 0.0
C962 C 0.69106 0.43933 0.27121 0.0
C963 C 0.70066 0.45812 0.29019 0.0
C964 C 0.75737 0.39652 0.29199 0.0
C965 C 0.72512 0.42 0.27976 0.0
C966 C 0.76707 0.37542 0.28901 0.0
C967 C 0.7573 0.3571 0.26956 0.0
C968 C 0.73766 0.39924 0.27552 0.0
C969 C 0.7385 0.36117 0.25262 0.0
C970 C 0.70323 0.42037 0.26588 0.0
C971 C 0.72276 0.45732 0.30339 0.0
N972 N 0.72915 0.38166 0.25618 0.0
N973 N 0.73419 0.43847 0.29805 0.0
H974 H 0.82305 0.41961 0.58989 0.0
H975 H 0.93407 0.49118 0.53035 0.0
H976 H 0.81783 0.44192 0.5139 0.0
H977 H 0.94045 0.44666 0.59225 0.0
H978 H 0.89075 0.47889 0.52712 0.0
H979 H 0.86558 0.43561 0.5944 0.0
C980 C 0.83079 0.42807 0.57424 0.0
C981 C 0.81689 0.4293 0.55143 0.0
C982 C 0.9017 0.47187 0.54139 0.0
C983 C 0.86556 0.44764 0.55649 0.0
C984 C 0.92636 0.47889 0.54327 0.0
C985 C 0.94086 0.46981 0.56149 0.0
C986 C 0.89154 0.456 0.55812 0.0
C987 C 0.92998 0.45395 0.57778 0.0
C988 C 0.8551 0.43709 0.57678 0.0
C989 C 0.82793 0.44046 0.53177 0.0
N990 N 0.90599 0.44762 0.57576 0.0
N991 N 0.85164 0.44919 0.53474 0.0
H992 H 0.33439 0.06277 0.26065 0.0
H993 H 0.33487 0.20187 0.2492 0.0
H994 H 0.39647 0.11248 0.24625 0.0
H995 H 0.26994 0.14974 0.23947 0.0
H996 H 0.35753 0.16892 0.2466 0.0
H997 H 0.31013 0.0937 0.25227 0.0
C998 C 0.34291 0.08015 0.25566 0.0
C999 C 0.36755 0.08516 0.25443 0.0
C1000 C 0.33833 0.16457 0.24456 0.0
C1001 C 0.33991 0.1205 0.24478 0.0
C1002 C 0.32542 0.18337 0.24599 0.0
C1003 C 0.30062 0.17834 0.24449 0.0
C1004 C 0.32634 0.14053 0.2423 0.0
C1005 C 0.2891 0.15419 0.24048 0.0
C1006 C 0.32902 0.09771 0.25071 0.0
C1007 C 0.37759 0.10787 0.24761 0.0
N1008 N 0.30211 0.13605 0.23998 0.0
N1009 N 0.36377 0.12477 0.2433 0.0
H1010 H 0.31059 0.0504 0.45121 0.0
H1011 H 0.41499 0.01765 0.54538 0.0
H1012 H 0.32623 0.07967 0.52988 0.0
H1013 H 0.41138 0.00603 0.46354 0.0
H1014 H 0.37761 0.03323 0.54114 0.0
H1015 H 0.34307 0.02748 0.4566 0.0
C1016 C 0.32075 0.05191 0.46965 0.0
C1017 C 0.31581 0.06716 0.49006 0.0
C1018 C 0.38487 0.02698 0.52413 0.0
C1019 C 0.35285 0.04081 0.4964 0.0
C1020 C 0.40609 0.01789 0.52655 0.0
C1021 C 0.41639 0.01068 0.50477 0.0
C1022 C 0.3738 0.02868 0.49979 0.0
C1023 C 0.40416 0.01157 0.48083 0.0
C1024 C 0.33929 0.03883 0.4727 0.0
C1025 C 0.32955 0.06833 0.51354 0.0
N1026 N 0.3836 0.02055 0.47898 0.0
N1027 N 0.34745 0.05538 0.51606 0.0
H1028 H 0.64238 0.59691 0.29993 0.0
H1029 H 0.76824 0.68351 0.30585 0.0
H1030 H 0.70773 0.56833 0.30479 0.0
H1031 H 0.70249 0.69898 0.27042 0.0
H1032 H 0.7471 0.64329 0.31328 0.0
H1033 H 0.66511 0.63718 0.29813 0.0
C1034 C 0.66154 0.59911 0.30087 0.0
C1035 C 0.67314 0.57916 0.30222 0.0
C1036 C 0.73744 0.65565 0.30397 0.0
C1037 C 0.6993 0.62532 0.30011 0.0
C1038 C 0.74944 0.67854 0.29974 0.0
C1039 C 0.73712 0.69471 0.28761 0.0
C1040 C 0.71298 0.64923 0.29638 0.0
C1041 C 0.71277 0.68728 0.27999 0.0
C1042 C 0.6745 0.62212 0.29972 0.0
C1043 C 0.69807 0.58321 0.30352 0.0
N1044 N 0.70154 0.66521 0.28463 0.0
N1045 N 0.71037 0.60588 0.30232 0.0
H1046 H 0.841 0.45359 0.79072 0.0
H1047 H 0.81546 0.33081 0.70007 0.0
H1048 H 0.85133 0.44976 0.71088 0.0
H1049 H 0.78373 0.33816 0.77052 0.0
H1050 H 0.83003 0.37429 0.70465 0.0
H1051 H 0.8209 0.4113 0.78471 0.0
C1052 C 0.83889 0.44393 0.7719 0.0
C1053 C 0.848 0.45516 0.75129 0.0
C1054 C 0.81974 0.36646 0.71904 0.0
C1055 C 0.82527 0.40685 0.74439 0.0
C1056 C 0.81152 0.34162 0.7165 0.0
C1057 C 0.79849 0.33088 0.73502 0.0
C1058 C 0.81524 0.38069 0.74047 0.0
C1059 C 0.79372 0.34577 0.75581 0.0
C1060 C 0.82738 0.41983 0.76849 0.0
C1061 C 0.84467 0.44183 0.72732 0.0
N1062 N 0.80232 0.36996 0.75813 0.0
N1063 N 0.8338 0.41831 0.7246 0.0
H1064 H 0.03389 0.81273 0.09061 0.0
H1065 H 0.99403 0.93894 0.06475 0.0
H1066 H 0.99026 0.8489 0.13779 0.0
H1067 H 0.04734 0.90986 0.02534 0.0
H1068 H 0.9871 0.90228 0.08652 0.0
H1069 H 0.0341 0.84472 0.06193 0.0
C1070 C 0.02423 0.82729 0.09485 0.0
C1071 C 0.01225 0.82829 0.11678 0.0
C1072 C 0.00015 0.90381 0.07292 0.0
C1073 C 0.01232 0.86481 0.08402 0.0
C1074 C 0.00405 0.92471 0.06038 0.0
C1075 C 0.02153 0.92764 0.04343 0.0
C1076 C 0.01381 0.88566 0.06851 0.0
C1077 C 0.03385 0.90848 0.03843 0.0
C1078 C 0.02436 0.84553 0.07848 0.0
C1079 C -6e-05 0.84752 0.12126 0.0
N1080 N 0.02992 0.8884 0.05112 0.0
N1081 N 0.00038 0.86504 0.1051 0.0
H1082 H 0.93272 0.20459 0.818 0.0
H1083 H 0.83531 0.29096 0.80896 0.0
H1084 H 0.93758 0.27253 0.86403 0.0
H1085 H 0.82681 0.22151 0.76492 0.0
H1086 H 0.87398 0.2851 0.82741 0.0
H1087 H 0.89482 0.2108 0.79684 0.0
C1088 C 0.92583 0.22078 0.82368 0.0
C1089 C 0.93833 0.23804 0.84287 0.0
C1090 C 0.86374 0.27112 0.81367 0.0
C1091 C 0.89513 0.24529 0.81867 0.0
C1092 C 0.8416 0.27446 0.80311 0.0
C1093 C 0.82767 0.25659 0.78554 0.0
C1094 C 0.87213 0.24973 0.80668 0.0
C1095 C 0.83694 0.23574 0.77844 0.0
C1096 C 0.90422 0.22432 0.81157 0.0
C1097 C 0.92858 0.25869 0.84941 0.0
N1098 N 0.85857 0.23281 0.78915 0.0
N1099 N 0.90761 0.26171 0.83735 0.0
H1100 H 0.51793 0.20938 0.56922 0.0
H1101 H 0.4696 0.0733 0.59678 0.0
H1102 H 0.48587 0.18926 0.6368 0.0
H1103 H 0.509 0.09016 0.53291 0.0
H1104 H 0.47352 0.11622 0.60981 0.0
H1105 H 0.51275 0.16637 0.55364 0.0
C1106 C 0.50967 0.19597 0.58069 0.0
C1107 C 0.50239 0.20293 0.6044 0.0
C1108 C 0.48136 0.11064 0.59294 0.0
C1109 C 0.49649 0.15385 0.58674 0.0
C1110 C 0.47912 0.08605 0.58545 0.0
C1111 C 0.48905 0.07808 0.56373 0.0
C1112 C 0.49359 0.12759 0.57864 0.0
C1113 C 0.50115 0.09553 0.54983 0.0
C1114 C 0.50682 0.17144 0.57183 0.0
C1115 C 0.49186 0.18478 0.61848 0.0
N1116 N 0.50309 0.11953 0.55753 0.0
N1117 N 0.48927 0.16115 0.60946 0.0
H1118 H 0.56473 0.78053 0.34996 0.0
H1119 H 0.66205 0.71179 0.29642 0.0
H1120 H 0.55641 0.70267 0.3378 0.0
H1121 H 0.66336 0.78791 0.29043 0.0
H1122 H 0.62181 0.70803 0.30862 0.0
H1123 H 0.59932 0.78389 0.3258 0.0
C1124 C 0.57004 0.76415 0.34203 0.0
C1125 C 0.55787 0.74127 0.34623 0.0
C1126 C 0.63066 0.72552 0.30428 0.0
C1127 C 0.5974 0.74501 0.31864 0.0
C1128 C 0.65364 0.72766 0.29734 0.0
C1129 C 0.66598 0.75022 0.29265 0.0
C1130 C 0.6201 0.74622 0.30714 0.0
C1131 C 0.65432 0.7702 0.2939 0.0
C1132 C 0.58973 0.76609 0.32815 0.0
C1133 C 0.56539 0.72067 0.3353 0.0
N1134 N 0.63209 0.76783 0.30151 0.0
N1135 N 0.58483 0.72305 0.32228 0.0
H1136 H 0.00242 0.19529 0.41368 0.0
H1137 H 0.01554 0.12048 0.53351 0.0
H1138 H 0.03822 0.23049 0.48542 0.0
H1139 H 0.0183 0.09145 0.45614 0.0
H1140 H 0.01506 0.16079 0.51843 0.0
H1141 H 0.9987 0.15654 0.43161 0.0
C1142 C 0.00935 0.19492 0.43329 0.0
C1143 C 0.02086 0.21613 0.44802 0.0
C1144 C 0.01568 0.14547 0.50489 0.0
C1145 C 0.01645 0.17179 0.46866 0.0
C1146 C 0.01583 0.12258 0.51341 0.0
C1147 C 0.01712 0.1028 0.49601 0.0
C1148 C 0.01616 0.14815 0.47882 0.0
C1149 C 0.01755 0.10633 0.47019 0.0
C1150 C 0.00726 0.17278 0.44346 0.0
C1151 C 0.02944 0.2145 0.47335 0.0
N1152 N 0.01695 0.12852 0.46237 0.0
N1153 N 0.02707 0.19262 0.48295 0.0
H1154 H 0.56095 0.20283 0.1789 0.0
H1155 H 0.67336 0.27743 0.26584 0.0
H1156 H 0.56026 0.27521 0.21235 0.0
H1157 H 0.67949 0.23726 0.1946 0.0
H1158 H 0.62979 0.26852 0.25661 0.0
H1159 H 0.6028 0.20712 0.19535 0.0
C1160 C 0.56947 0.21944 0.19013 0.0
C1161 C 0.55723 0.23879 0.19416 0.0
C1162 C 0.64078 0.26144 0.24326 0.0
C1163 C 0.60479 0.24355 0.21321 0.0
C1164 C 0.66549 0.26636 0.24854 0.0
C1165 C 0.67984 0.25811 0.23084 0.0
C1166 C 0.63059 0.2476 0.22056 0.0
C1167 C 0.66894 0.24404 0.20859 0.0
C1168 C 0.59331 0.22187 0.19937 0.0
C1169 C 0.56917 0.25997 0.20869 0.0
N1170 N 0.6449 0.23912 0.2041 0.0
N1171 N 0.59238 0.26182 0.21775 0.0
H1172 H 0.54576 0.84036 0.94309 0.0
H1173 H 0.46827 0.9342 0.99739 0.0
H1174 H 0.46917 0.82644 0.93779 0.0
H1175 H 0.54424 0.94383 0.01496 0.0
H1176 H 0.46848 0.89403 0.97657 0.0
H1177 H 0.54597 0.87791 0.97004 0.0
C1178 C 0.529 0.84516 0.94763 0.0
C1179 C 0.5074 0.83032 0.93802 0.0
C1180 C 0.48511 0.90477 0.98519 0.0
C1181 C 0.50753 0.87316 0.96882 0.0
C1182 C 0.48499 0.92771 0.9971 0.0
C1183 C 0.50629 0.94239 0.00776 0.0
C1184 C 0.50674 0.89648 0.98363 0.0
C1185 C 0.52742 0.93304 0.00698 0.0
C1186 C 0.52915 0.86654 0.96309 0.0
C1187 C 0.48625 0.83735 0.94465 0.0
N1188 N 0.52717 0.91075 0.9948 0.0
N1189 N 0.48685 0.85831 0.95949 0.0
H1190 H 0.94514 0.8164 0.66794 0.0
H1191 H 0.85908 0.7663 0.76947 0.0
H1192 H 0.95983 0.76118 0.7159 0.0
H1193 H 0.83481 0.79375 0.70011 0.0
H1194 H 0.89991 0.77459 0.75786 0.0
H1195 H 0.90845 0.81814 0.68764 0.0
C1196 C 0.94085 0.80489 0.68287 0.0
C1197 C 0.95541 0.78838 0.69006 0.0
C1198 C 0.88565 0.77917 0.74546 0.0
C1199 C 0.91358 0.79048 0.71276 0.0
C1200 C 0.86243 0.77465 0.75215 0.0
C1201 C 0.84361 0.77921 0.73559 0.0
C1202 C 0.88999 0.78869 0.72233 0.0
C1203 C 0.84885 0.78981 0.71327 0.0
C1204 C 0.91988 0.80587 0.69403 0.0
C1205 C 0.94895 0.77395 0.70957 0.0
N1206 N 0.87155 0.7941 0.70722 0.0
N1207 N 0.92842 0.77525 0.72018 0.0
H1208 H 0.12288 0.98583 0.86933 0.0
H1209 H 0.002 0.99719 0.93079 0.0
H1210 H 0.06527 0.01346 0.83054 0.0
H1211 H 0.067 0.9881 0.97326 0.0
H1212 H 0.02197 0.99609 0.8916 0.0
H1213 H 0.09963 0.97961 0.90534 0.0
C1214 C 0.10529 0.99048 0.8683 0.0
C1215 C 0.09614 0.00042 0.84695 0.0
C1216 C 0.03172 0.9941 0.90951 0.0
C1217 C 0.06932 0.99326 0.88821 0.0
C1218 C 0.0203 0.99456 0.93181 0.0
C1219 C 0.03294 0.99296 0.95531 0.0
C1220 C 0.05578 0.99168 0.9108 0.0
C1221 C 0.05666 0.98968 0.95558 0.0
C1222 C 0.09201 0.98694 0.88891 0.0
C1223 C 0.07314 0.00596 0.8467 0.0
N1224 N 0.0673 0.98923 0.93373 0.0
N1225 N 0.06054 0.00239 0.86707 0.0
H1226 H 0.71921 0.33791 0.56813 0.0
H1227 H 0.7868 0.26331 0.6614 0.0
H1228 H 0.7915 0.32823 0.56146 0.0
H1229 H 0.71053 0.25743 0.65257 0.0
H1230 H 0.7889 0.28498 0.62332 0.0
H1231 H 0.7156 0.30733 0.59832 0.0
C1232 C 0.7343 0.32929 0.57296 0.0
C1233 C 0.75575 0.33576 0.56243 0.0
C1234 C 0.77168 0.27856 0.62948 0.0
C1235 C 0.75177 0.30077 0.59701 0.0
C1236 C 0.77046 0.26609 0.65116 0.0
C1237 C 0.74848 0.25888 0.66045 0.0
C1238 C 0.75082 0.28405 0.61721 0.0
C1239 C 0.72789 0.26291 0.64633 0.0
C1240 C 0.73219 0.31172 0.59007 0.0
C1241 C 0.77466 0.32385 0.5692 0.0
N1242 N 0.7296 0.2756 0.62569 0.0
N1243 N 0.77232 0.30711 0.58629 0.0
H1244 H 0.43914 0.04815 0.34986 0.0
H1245 H 0.49328 0.97045 0.4515 0.0
H1246 H 0.43456 0.97057 0.33933 0.0
H1247 H 0.50988 0.04838 0.45808 0.0
H1248 H 0.4737 0.97069 0.40893 0.0
H1249 H 0.4661 0.04936 0.38869 0.0
C1250 C 0.44377 0.0314 0.3557 0.0
C1251 C 0.43441 0.0092 0.34146 0.0
C1252 C 0.4819 0.98779 0.41941 0.0
C1253 C 0.46529 0.01049 0.38556 0.0
C1254 C 0.49316 0.98762 0.44366 0.0
C1255 C 0.50311 0.00941 0.45816 0.0
C1256 C 0.48012 0.00998 0.40975 0.0
C1257 C 0.50251 0.0312 0.44729 0.0
C1258 C 0.45927 0.03213 0.37774 0.0
C1259 C 0.44117 0.98809 0.34976 0.0
N1260 N 0.49078 0.03098 0.42379 0.0
N1261 N 0.45607 0.98927 0.37128 0.0
H1262 H 0.7505 0.63799 0.07973 0.0
H1263 H 0.77836 0.75136 0.18566 0.0
H1264 H 0.79827 0.70371 0.07029 0.0
H1265 H 0.75537 0.67783 0.20195 0.0
H1266 H 0.77786 0.73683 0.14054 0.0
H1267 H 0.74463 0.65515 0.12199 0.0
C1268 C 0.7597 0.65609 0.08648 0.0
C1269 C 0.77511 0.66935 0.07153 0.0
C1270 C 0.77262 0.72398 0.15399 0.0
C1271 C 0.76823 0.68916 0.11988 0.0
C1272 C 0.77267 0.73226 0.17962 0.0
C1273 C 0.76691 0.71571 0.19745 0.0
C1274 C 0.76641 0.69908 0.14624 0.0
C1275 C 0.76001 0.69113 0.18877 0.0
C1276 C 0.75633 0.66585 0.11063 0.0
C1277 C 0.78643 0.69276 0.08129 0.0
N1278 N 0.75999 0.68355 0.1638 0.0
N1279 N 0.78279 0.70195 0.1049 0.0
H1280 H 0.14022 0.00928 0.71651 0.0
H1281 H 0.02745 0.99047 0.61285 0.0
H1282 H 0.07063 0.97455 0.73146 0.0
H1283 H 0.09977 0.00037 0.59389 0.0
H1284 H 0.04213 0.99072 0.65778 0.0
H1285 H 0.12473 0.01194 0.67269 0.0
C1286 C 0.12165 0.00222 0.71059 0.0
C1287 C 0.1067 0.99157 0.72765 0.0
C1288 C 0.05473 0.99294 0.64375 0.0
C1289 C 0.08884 0.99477 0.6775 0.0
C1290 C 0.04641 0.99298 0.61817 0.0
C1291 C 0.06244 0.99533 0.59963 0.0
C1292 C 0.07925 0.99562 0.65079 0.0
C1293 C 0.08679 0.99837 0.60754 0.0
C1294 C 0.11285 0.00372 0.68554 0.0
C1295 C 0.0828 0.98275 0.71888 0.0
N1296 N 0.09445 0.99845 0.63252 0.0
N1297 N 0.07456 0.98461 0.69438 0.0
H1298 H 0.799 0.36379 0.4463 0.0
H1299 H 0.72014 0.26455 0.34249 0.0
H1300 H 0.72317 0.34348 0.44671 0.0
H1301 H 0.79197 0.29896 0.33585 0.0
H1302 H 0.72158 0.28869 0.38374 0.0
H1303 H 0.79724 0.33587 0.40843 0.0
C1304 C 0.78192 0.3535 0.43837 0.0
C1305 C 0.76118 0.35612 0.44962 0.0
C1306 C 0.73704 0.29074 0.37327 0.0
C1307 C 0.75904 0.32383 0.40613 0.0
C1308 C 0.73629 0.27685 0.34992 0.0
C1309 C 0.7559 0.27995 0.33577 0.0
C1310 C 0.75766 0.30748 0.38245 0.0
C1311 C 0.77636 0.29623 0.34606 0.0
C1312 C 0.78093 0.33749 0.41672 0.0
C1313 C 0.73957 0.34217 0.43851 0.0
N1314 N 0.77666 0.30939 0.36868 0.0
N1315 N 0.73905 0.32657 0.41733 0.0
H1316 H 0.45036 0.0507 0.22844 0.0
H1317 H 0.52131 0.9883 0.1279 0.0
H1318 H 0.45503 0.97474 0.22353 0.0
H1319 H 0.52102 0.06515 0.13774 0.0
H1320 H 0.50276 0.98387 0.16732 0.0
H1321 H 0.48071 0.05708 0.19917 0.0
C1322 C 0.45783 0.03535 0.22126 0.0
C1323 C 0.4499 0.01207 0.22813 0.0
C1324 C 0.50716 0.00177 0.16111 0.0
C1325 C 0.48473 0.01926 0.19457 0.0
C1326 C 0.5179 0.00434 0.13865 0.0
C1327 C 0.52219 0.02706 0.12917 0.0
C1328 C 0.50061 0.02203 0.17405 0.0
C1329 C 0.51761 0.04721 0.14407 0.0
C1330 C 0.47529 0.03904 0.20465 0.0
C1331 C 0.46047 0.99294 0.21853 0.0
N1332 N 0.50665 0.04416 0.16552 0.0
N1333 N 0.47716 0.99691 0.20198 0.0
H1334 H 0.76628 0.71163 0.97042 0.0
H1335 H 0.78634 0.70497 0.8235 0.0
H1336 H 0.78452 0.64916 0.92905 0.0
H1337 H 0.78522 0.77237 0.86811 0.0
H1338 H 0.78586 0.68447 0.8622 0.0
H1339 H 0.77298 0.73436 0.93353 0.0
C1340 C 0.77178 0.70271 0.95363 0.0
C1341 C 0.77469 0.67837 0.95279 0.0
C1342 C 0.78592 0.70377 0.86363 0.0
C1343 C 0.78232 0.7043 0.91048 0.0
C1344 C 0.78616 0.71552 0.84151 0.0
C1345 C 0.78561 0.74041 0.84253 0.0
C1346 C 0.7848 0.71689 0.88705 0.0
C1347 C 0.7856 0.75315 0.86644 0.0
C1348 C 0.77569 0.71574 0.93261 0.0
C1349 C 0.78198 0.66783 0.93056 0.0
N1350 N 0.78489 0.74119 0.88775 0.0
N1351 N 0.78535 0.68079 0.91026 0.0
H1352 H 0.81005 0.07338 0.9946 0.0
H1353 H 0.94997 0.08804 0.02248 0.0
H1354 H 0.85752 0.14221 0.00306 0.0
H1355 H 0.90801 0.02077 0.98754 0.0
H1356 H 0.91526 0.10736 0.01759 0.0
H1357 H 0.84457 0.05282 0.99383 0.0
C1358 C 0.82768 0.08416 0.99619 0.0
C1359 C 0.83092 0.10957 -0.00092 0.0
C1360 C 0.91356 0.08841 0.0108 0.0
C1361 C 0.87028 0.08622 0.99832 0.0
C1362 C 0.93338 0.07732 0.0137 0.0
C1363 C 0.9318 0.05273 0.00552 0.0
C1364 C 0.89176 0.07479 1e-05 0.0
C1365 C 0.90992 0.0398 0.99404 0.0
C1366 C 0.84732 0.07241 0.99563 0.0
C1367 C 0.85413 0.12262 0.00091 0.0
N1368 N 0.89058 0.05093 0.99187 0.0
N1369 N 0.87287 0.1108 0.00072 0.0
H1370 H 0.32191 0.45891 0.04671 0.0
H1371 H 0.45109 0.44896 0.00923 0.0
H1372 H 0.34905 0.39182 0.04126 0.0
H1373 H 0.43601 0.51547 0.04548 0.0
H1374 H 0.41169 0.4286 0.01604 0.0
H1375 H 0.36179 0.48086 0.04215 0.0
C1376 C 0.33624 0.44881 0.04465 0.0
C1377 C 0.33214 0.42348 0.04432 0.0
C1378 C 0.41699 0.44763 0.02259 0.0
C1379 C 0.37751 0.44839 0.03878 0.0
C1380 C 0.43949 0.45934 0.01863 0.0
C1381 C 0.44697 0.48397 0.02696 0.0
C1382 C 0.40155 0.46065 0.03457 0.0
C1383 C 0.43102 0.49643 0.0389 0.0
C1384 C 0.35895 0.46135 0.04212 0.0
C1385 C 0.35136 0.41133 0.04167 0.0
N1386 N 0.40895 0.48465 0.04225 0.0
N1387 N 0.37313 0.42386 0.03878 0.0
H1388 H 0.32797 0.57085 0.77453 0.0
H1389 H 0.24552 0.65299 0.70656 0.0
H1390 H 0.30919 0.5652 0.69332 0.0
H1391 H 0.27112 0.66367 0.78644 0.0
H1392 H 0.26273 0.61617 0.70257 0.0
H1393 H 0.30197 0.60058 0.78008 0.0
C1394 C 0.31831 0.57577 0.75784 0.0
C1395 C 0.32101 0.56569 0.73336 0.0
C1396 C 0.26428 0.62639 0.72104 0.0
C1397 C 0.29108 0.59978 0.73966 0.0
C1398 C 0.25432 0.64736 0.7234 0.0
C1399 C 0.25715 0.66167 0.74681 0.0
C1400 C 0.27717 0.61967 0.74225 0.0
C1401 C 0.26868 0.65336 0.76795 0.0
C1402 C 0.30341 0.59274 0.76105 0.0
C1403 C 0.30783 0.57265 0.71251 0.0
N1404 N 0.27851 0.63308 0.76509 0.0
N1405 N 0.29357 0.58938 0.71612 0.0
H1406 H 0.2048 0.60305 0.49462 0.0
H1407 H 0.09325 0.51984 0.54134 0.0
H1408 H 0.21248 0.55692 0.55488 0.0
H1409 H 0.08877 0.58139 0.4988 0.0
H1410 H 0.13678 0.52995 0.54405 0.0
H1411 H 0.16187 0.59136 0.49254 0.0
C1412 C 0.19747 0.59032 0.50733 0.0
C1413 C 0.21228 0.58103 0.52504 0.0
C1414 C 0.12618 0.54125 0.53425 0.0
C1415 C 0.16298 0.56763 0.52282 0.0
C1416 C 0.10139 0.53552 0.53273 0.0
C1417 C 0.08735 0.54979 0.51983 0.0
C1418 C 0.13687 0.56117 0.52252 0.0
C1419 C 0.09881 0.56987 0.50897 0.0
C1420 C 0.17292 0.58375 0.50622 0.0
C1421 C 0.20171 0.56459 0.54101 0.0
N1422 N 0.12283 0.57485 0.51043 0.0
N1423 N 0.17765 0.5584 0.53954 0.0
H1424 H 0.68772 0.9565 0.76609 0.0
H1425 H 0.75013 0.86043 0.83778 0.0
H1426 H 0.68885 0.95247 0.84716 0.0
H1427 H 0.73913 0.86139 0.75637 0.0
H1428 H 0.73417 0.89835 0.84307 0.0
H1429 H 0.71288 0.92591 0.76372 0.0
C1430 C 0.69331 0.94921 0.78345 0.0
C1431 C 0.68586 0.9568 0.80681 0.0
C1432 C 0.7356 0.89038 0.82409 0.0
C1433 C 0.71473 0.92149 0.8042 0.0
C1434 C 0.74483 0.8689 0.8211 0.0
C1435 C 0.74564 0.85775 0.79662 0.0
C1436 C 0.72745 0.90066 0.80242 0.0
C1437 C 0.73847 0.86927 0.77558 0.0
C1438 C 0.70776 0.93173 0.7821 0.0
C1439 C 0.69402 0.94695 0.82872 0.0
N1440 N 0.72956 0.88996 0.77897 0.0
N1441 N 0.70785 0.92956 0.82686 0.0
H1442 H 0.71267 0.95721 0.60576 0.0
H1443 H 0.61586 0.00559 0.51451 0.0
H1444 H 0.71017 0.95016 0.52381 0.0
H1445 H 0.61265 0.00123 0.59505 0.0
H1446 H 0.65439 0.99208 0.51823 0.0
H1447 H 0.67995 0.97985 0.60268 0.0
C1448 C 0.70539 0.96058 0.58711 0.0
C1449 C 0.71404 0.9515 0.565 0.0
C1450 C 0.64537 0.9944 0.53512 0.0
C1451 C 0.67645 0.97745 0.56134 0.0
C1452 C 0.62347 0.00227 0.53305 0.0
C1453 C 0.61095 0.00434 0.55447 0.0
C1454 C 0.65482 0.98872 0.55881 0.0
C1455 C 0.62158 -0.00035 0.57799 0.0
C1456 C 0.68666 0.9735 0.58537 0.0
C1457 C 0.70394 0.95661 0.54137 0.0
N1458 N 0.64278 0.99191 0.57949 0.0
N1459 N 0.68558 0.96909 0.54015 0.0
H1460 H 0.35333 0.44622 0.76831 0.0
H1461 H 0.24689 0.33452 0.72895 0.0
H1462 H 0.29417 0.44944 0.71325 0.0
H1463 H 0.3042 0.3357 0.78774 0.0
H1464 H 0.2634 0.37638 0.72246 0.0
H1465 H 0.33532 0.40528 0.77487 0.0
C1466 C 0.33652 0.43831 0.75755 0.0
C1467 C 0.32524 0.45133 0.74019 0.0
C1468 C 0.27227 0.36744 0.73681 0.0
C1469 C 0.30441 0.40423 0.74769 0.0
C1470 C 0.26284 0.34358 0.74055 0.0
C1471 C 0.27424 0.33152 0.75882 0.0
C1472 C 0.29323 0.37923 0.75141 0.0
C1473 C 0.29486 0.34416 0.77332 0.0
C1474 C 0.3262 0.41489 0.76136 0.0
C1475 C 0.30348 0.44007 0.72682 0.0
N1476 N 0.30369 0.36722 0.76924 0.0
N1477 N 0.29376 0.41712 0.73083 0.0
H1478 H 0.20475 0.55843 0.27072 0.0
H1479 H 0.19276 0.69638 0.28117 0.0
H1480 H 0.14161 0.58347 0.24128 0.0
H1481 H 0.2612 0.67487 0.27777 0.0
H1482 H 0.17365 0.65446 0.26953 0.0
H1483 H 0.22603 0.60035 0.27596 0.0
C1484 C 0.19543 0.5727 0.26517 0.0
C1485 C 0.17132 0.5675 0.25573 0.0
C1486 C 0.19284 0.65888 0.27117 0.0
C1487 C 0.19542 0.61528 0.26194 0.0
C1488 C 0.20377 0.68276 0.278 0.0
C1489 C 0.22858 0.68898 0.28063 0.0
C1490 C 0.20681 0.64095 0.2674 0.0
C1491 C 0.242 0.67072 0.27595 0.0
C1492 C 0.2076 0.59655 0.26808 0.0
C1493 C 0.16015 0.58664 0.2487 0.0
N1494 N 0.23092 0.64736 0.26985 0.0
N1495 N 0.17221 0.60972 0.25226 0.0
H1496 H 0.50027 0.67698 0.40522 0.0
H1497 H 0.51343 0.58987 0.51538 0.0
H1498 H 0.52492 0.70469 0.48305 0.0
H1499 H 0.50218 0.56606 0.43504 0.0
H1500 H 0.51704 0.63199 0.50499 0.0
H1501 H 0.49945 0.63604 0.41688 0.0
C1502 C 0.50546 0.67447 0.42483 0.0
C1503 C 0.51265 0.69435 0.44319 0.0
C1504 C 0.51393 0.61749 0.4897 0.0
C1505 C 0.5118 0.64724 0.45674 0.0
C1506 C 0.51191 0.59348 0.49561 0.0
C1507 C 0.50735 0.5744 0.47606 0.0
C1508 C 0.51122 0.62231 0.46411 0.0
C1509 C 0.50555 0.58011 0.45078 0.0
C1510 C 0.50509 0.65102 0.43147 0.0
C1511 C 0.51927 0.68988 0.46828 0.0
N1512 N 0.50734 0.60348 0.44558 0.0
N1513 N 0.51862 0.66676 0.47437 0.0
H1514 H 0.58035 0.2925 0.70957 0.0
H1515 H 0.69186 0.22582 0.7296 0.0
H1516 H 0.59176 0.23036 0.66193 0.0
H1517 H 0.69441 0.29943 0.76138 0.0
H1518 H 0.6519 0.22515 0.71018 0.0
H1519 H 0.61939 0.29375 0.7333 0.0
C1520 C 0.59103 0.27916 0.70411 0.0
C1521 C 0.58281 0.2613 0.68372 0.0
C1522 C 0.66111 0.24149 0.72141 0.0
C1523 C 0.62706 0.26248 0.71086 0.0
C1524 C 0.68397 0.24189 0.73258 0.0
C1525 C 0.69667 0.26288 0.7468 0.0
C1526 C 0.65064 0.26219 0.72447 0.0
C1527 C 0.68528 0.28294 0.7504 0.0
C1528 C 0.61325 0.27991 0.71762 0.0
C1529 C 0.59735 0.24449 0.67742 0.0
N1530 N 0.66286 0.28218 0.73912 0.0
N1531 N 0.61866 0.24545 0.69099 0.0
H1532 H 0.02805 0.34531 0.88731 0.0
H1533 H 0.01852 0.42316 0.01781 0.0
H1534 H 0.01117 0.31189 0.9554 0.0
H1535 H 0.05216 0.45196 0.95444 0.0
H1536 H 0.01274 0.38242 0.99503 0.0
H1537 H 0.03402 0.38488 0.9114 0.0
C1538 C 0.02563 0.34629 0.90738 0.0
C1539 C 0.01912 0.32526 0.91936 0.0
C1540 C 0.02145 0.39772 0.98625 0.0
C1541 C 0.02583 0.37068 0.94714 0.0
C1542 C 0.02468 0.42092 -0.00083 0.0
C1543 C 0.03587 0.44096 0.98802 0.0
C1544 C 0.02924 0.3947 0.96197 0.0
C1545 C 0.04353 0.43707 0.96385 0.0
C1546 C 0.02909 0.36893 0.92116 0.0
C1547 C 0.01627 0.32767 0.94545 0.0
N1548 N 0.04 0.41446 0.95165 0.0
N1549 N 0.01954 0.35004 0.9585 0.0
H1550 H 0.97189 0.76094 0.21712 0.0
H1551 H 0.83829 0.78124 0.20466 0.0
H1552 H 0.93082 0.76263 0.14527 0.0
H1553 H 0.86569 0.74659 0.26778 0.0
H1554 H 0.87494 0.78033 0.18539 0.0
H1555 H 0.93562 0.76079 0.2386 0.0
C1556 C 0.95528 0.7613 0.2059 0.0
C1557 C 0.95431 0.76186 0.17939 0.0
C1558 C 0.87298 0.77289 0.20344 0.0
C1559 C 0.91317 0.76191 0.20375 0.0
C1560 C 0.85209 0.77351 0.21458 0.0
C1561 C 0.84893 0.76394 0.23789 0.0
C1562 C 0.89109 0.7629 0.21576 0.0
C1563 C 0.86744 0.75407 0.24974 0.0
C1564 C 0.93466 0.76109 0.21814 0.0
C1565 C 0.93237 0.76217 0.16572 0.0
N1566 N 0.88791 0.7539 0.23857 0.0
N1567 N 0.91272 0.76237 0.17808 0.0
H1568 H 0.47878 0.30461 0.09774 0.0
H1569 H 0.54731 0.41792 0.03649 0.0
H1570 H 0.55523 0.32374 0.10521 0.0
H1571 H 0.4725 0.40572 0.04566 0.0
H1572 H 0.55044 0.37942 0.05423 0.0
H1573 H 0.47626 0.33763 0.07139 0.0
C1574 C 0.49509 0.3157 0.09377 0.0
C1575 C 0.51726 0.31157 0.10401 0.0
C1576 C 0.53332 0.38509 0.05203 0.0
C1577 C 0.51445 0.34956 0.0737 0.0
C1578 C 0.5315 0.40691 0.04175 0.0
C1579 C 0.50965 0.41502 0.03984 0.0
C1580 C 0.51309 0.37133 0.06011 0.0
C1581 C 0.48973 0.40023 0.04707 0.0
C1582 C 0.49362 0.33458 0.07867 0.0
C1583 C 0.53776 0.32642 0.09791 0.0
N1584 N 0.49195 0.37919 0.05699 0.0
N1585 N 0.53587 0.34491 0.08327 0.0
H1586 H 0.93979 0.26736 0.38243 0.0
H1587 H 0.83623 0.25119 0.26785 0.0
H1588 H 0.95389 0.26262 0.30364 0.0
H1589 H 0.82524 0.24359 0.3465 0.0
H1590 H 0.87933 0.25978 0.28005 0.0
H1591 H 0.89772 0.26319 0.369 0.0
C1592 C 0.93406 0.26548 0.36224 0.0
C1593 C 0.95045 0.26517 0.34414 0.0
C1594 C 0.86741 0.25631 0.29457 0.0
C1595 C 0.90195 0.26031 0.32854 0.0
C1596 C 0.84286 0.25152 0.28766 0.0
C1597 C 0.82717 0.24654 0.30618 0.0
C1598 C 0.87616 0.25633 0.32018 0.0
C1599 C 0.83666 0.24712 0.33154 0.0
C1600 C 0.90995 0.26307 0.35457 0.0
C1601 C 0.94186 0.26284 0.31825 0.0
N1602 N 0.86048 0.25188 0.33775 0.0
N1603 N 0.91813 0.26041 0.31118 0.0
H1604 H 0.98042 0.69799 0.56695 0.0
H1605 H 0.022 0.57308 0.59347 0.0
H1606 H 0.00564 0.6803 0.64105 0.0
H1607 H 0.98803 0.58482 0.52072 0.0
H1608 H 0.01616 0.6127 0.61068 0.0
H1609 H 0.98249 0.65688 0.54929 0.0
C1610 C 0.98619 0.68543 0.57955 0.0
C1611 C 0.993 0.69266 0.60551 0.0
C1612 C 0.00992 0.60668 0.59096 0.0
C1613 C 0.99559 0.64576 0.58539 0.0
C1614 C 0.01336 0.58402 0.58103 0.0
C1615 C 0.00561 0.57561 0.55553 0.0
C1616 C 0.99874 0.62126 0.5753 0.0
C1617 C 0.99432 0.59061 0.54048 0.0
C1618 C 0.98739 0.66199 0.56944 0.0
C1619 C 0.0003 0.67561 0.62092 0.0
N1620 N 0.99131 0.61279 0.55057 0.0
N1621 N 0.00154 0.65305 0.61059 0.0
H1622 H 0.611 0.756 0.90996 0.0
H1623 H 0.68583 0.77174 0.79003 0.0
H1624 H 0.58072 0.77231 0.83731 0.0
H1625 H 0.71494 0.76193 0.86552 0.0
H1626 H 0.64605 0.76691 0.80479 0.0
H1627 H 0.64808 0.75352 0.89195 0.0
C1628 C 0.61213 0.75906 0.89016 0.0
C1629 C 0.59275 0.7646 0.8752 0.0
C1630 C 0.66114 0.76555 0.81799 0.0
C1631 C 0.63542 0.76176 0.85431 0.0
C1632 C 0.68379 0.76812 0.80954 0.0
C1633 C 0.70368 0.76743 0.82666 0.0
C1634 C 0.65852 0.76213 0.84365 0.0
C1635 C 0.70011 0.76286 0.85176 0.0
C1636 C 0.63336 0.75759 0.87984 0.0
C1637 C 0.59527 0.76815 0.84958 0.0
N1638 N 0.67804 0.76054 0.8595 0.0
N1639 N 0.6163 0.76681 0.83995 0.0
H1640 H 0.40621 0.46741 0.6745 0.0
H1641 H 0.50152 0.54766 0.60117 0.0
H1642 H 0.42496 0.54485 0.69213 0.0
H1643 H 0.46205 0.47755 0.57102 0.0
H1644 H 0.4782 0.54614 0.63807 0.0
H1645 H 0.43137 0.46997 0.6398 0.0
C1646 C 0.41564 0.48498 0.67109 0.0
C1647 C 0.41337 0.50596 0.68618 0.0
C1648 C 0.47474 0.53116 0.6233 0.0
C1649 C 0.44242 0.509 0.64645 0.0
C1650 C 0.48807 0.53197 0.60237 0.0
C1651 C 0.48359 0.5128 0.58294 0.0
C1652 C 0.45719 0.51085 0.62489 0.0
C1653 C 0.46595 0.49288 0.58539 0.0
C1654 C 0.42999 0.48643 0.65122 0.0
C1655 C 0.42608 0.52824 0.68084 0.0
N1656 N 0.4535 0.49241 0.60595 0.0
N1657 N 0.44015 0.52919 0.66143 0.0
H1658 H 0.71969 0.19892 0.96502 0.0
H1659 H 0.81079 0.27525 0.88396 0.0
H1660 H 0.79333 0.19202 0.96369 0.0
H1661 H 0.73464 0.26763 0.86902 0.0
H1662 H 0.80544 0.25346 0.92151 0.0
H1663 H 0.72585 0.23167 0.93729 0.0
C1664 C 0.73719 0.20442 0.95907 0.0
C1665 C 0.75595 0.1925 0.96635 0.0
C1666 C 0.78992 0.25691 0.91024 0.0
C1667 C 0.76314 0.23006 0.93499 0.0
C1668 C 0.79294 0.2695 0.88887 0.0
C1669 C 0.77312 0.27282 0.87297 0.0
C1670 C 0.76692 0.2476 0.91579 0.0
C1671 C 0.75044 0.26519 0.88051 0.0
C1672 C 0.74068 0.22311 0.94329 0.0
C1673 C 0.77828 0.20046 0.95822 0.0
N1674 N 0.74793 0.25257 0.90118 0.0
N1675 N 0.78122 0.21866 0.9429 0.0
H1676 H 0.06084 0.51016 0.23484 0.0
H1677 H 0.02277 0.45483 0.09091 0.0
H1678 H 0.10018 0.46206 0.19581 0.0
H1679 H 0.01563 0.52701 0.11895 0.0
H1680 H 0.041 0.44913 0.13332 0.0
H1681 H 0.03402 0.50805 0.19603 0.0
C1682 C 0.06366 0.49887 0.21823 0.0
C1683 C 0.08296 0.48649 0.21844 0.0
C1684 C 0.0349 0.46596 0.13025 0.0
C1685 C 0.05214 0.48383 0.17419 0.0
C1686 C 0.02432 0.4691 0.10628 0.0
C1687 C 0.01761 0.49131 0.1018 0.0
C1688 C 0.03826 0.48504 0.14972 0.0
C1689 C 0.02047 0.50958 0.12193 0.0
C1690 C 0.04836 0.49774 0.19612 0.0
C1691 C 0.08568 0.47211 0.19634 0.0
N1692 N 0.03062 0.50606 0.1451 0.0
N1693 N 0.07045 0.47123 0.17499 0.0
H1694 H 0.79021 0.83205 0.4848 0.0
H1695 H 0.7227 0.83285 0.3471 0.0
H1696 H 0.73082 0.86868 0.46988 0.0
H1697 H 0.76777 0.78064 0.36338 0.0
H1698 H 0.7276 0.84761 0.39197 0.0
H1699 H 0.78391 0.81388 0.44055 0.0
C1700 C 0.77575 0.83613 0.47231 0.0
C1701 C 0.7611 0.85203 0.48104 0.0
C1702 C 0.7364 0.83288 0.38582 0.0
C1703 C 0.75401 0.83153 0.43045 0.0
C1704 C 0.73371 0.8245 0.36012 0.0
C1705 C 0.74489 0.80549 0.35144 0.0
C1706 C 0.75057 0.8224 0.4031 0.0
C1707 C 0.75884 0.79533 0.36929 0.0
C1708 C 0.77218 0.82575 0.44708 0.0
C1709 C 0.74261 0.85661 0.46403 0.0
N1710 N 0.7614 0.80401 0.39432 0.0
N1711 N 0.73974 0.84658 0.43954 0.0
H1712 H 0.40478 0.54876 0.82564 0.0
H1713 H 0.49378 0.50669 0.93072 0.0
H1714 H 0.44179 0.48936 0.80942 0.0
H1715 H 0.44033 0.54963 0.94744 0.0
H1716 H 0.47926 0.50355 0.88531 0.0
H1717 H 0.42271 0.5534 0.86949 0.0
C1718 C 0.41682 0.53678 0.83123 0.0
C1719 C 0.42163 0.5185 0.81385 0.0
C1720 C 0.47078 0.51362 0.89902 0.0
C1721 C 0.44219 0.52368 0.86422 0.0
C1722 C 0.47903 0.51542 0.92486 0.0
C1723 C 0.46818 0.52835 0.94288 0.0
C1724 C 0.4518 0.52511 0.89125 0.0
C1725 C 0.44917 0.53935 0.93428 0.0
C1726 C 0.42699 0.53938 0.85634 0.0
C1727 C 0.43748 0.5036 0.82224 0.0
N1728 N 0.44167 0.53755 0.90913 0.0
N1729 N 0.44716 0.50646 0.8469 0.0
H1730 H 0.79866 0.21052 0.07231 0.0
H1731 H 0.73297 0.19901 0.19894 0.0
H1732 H 0.74891 0.14762 0.08595 0.0
H1733 H 0.78394 0.26156 0.18695 0.0
H1734 H 0.73818 0.18036 0.15718 0.0
H1735 H 0.79347 0.22972 0.11401 0.0
C1736 C 0.78671 0.20069 0.0841 0.0
C1737 C 0.7742 0.17741 0.07561 0.0
C1738 C 0.74821 0.19819 0.16362 0.0
C1739 C 0.76808 0.19936 0.1233 0.0
C1740 C 0.74521 0.20889 0.18748 0.0
C1741 C 0.75809 0.23189 0.19651 0.0
C1742 C 0.7642 0.21052 0.14857 0.0
C1743 C 0.77365 0.24381 0.18076 0.0
C1744 C 0.78373 0.2117 0.10789 0.0
C1745 C 0.75895 0.16558 0.0917 0.0
N1746 N 0.77631 0.23296 0.15756 0.0
N1747 N 0.7563 0.1767 0.11473 0.0
H1748 H 0.10738 0.55213 0.33724 0.0
H1749 H 0.0427 0.46724 0.43281 0.0
H1750 H 0.10599 0.47506 0.33497 0.0
H1751 H 0.03875 0.54313 0.43336 0.0
H1752 H 0.0635 0.46962 0.3948 0.0
H1753 H 0.08086 0.54935 0.37101 0.0
C1754 C 0.10155 0.53464 0.34387 0.0
C1755 C 0.10903 0.51381 0.33336 0.0
C1756 C 0.05791 0.48575 0.40298 0.0
C1757 C 0.07858 0.5105 0.37178 0.0
C1758 C 0.04596 0.48437 0.42465 0.0
C1759 C 0.03917 0.50506 0.43626 0.0
C1760 C 0.06343 0.50808 0.39298 0.0
C1761 C 0.04366 0.52675 0.42488 0.0
C1762 C 0.08632 0.53306 0.36304 0.0
C1763 C 0.1008 0.49162 0.34256 0.0
N1764 N 0.05584 0.5278 0.40398 0.0
N1765 N 0.08609 0.49058 0.36126 0.0
H1766 H 0.76539 0.88204 0.62594 0.0
H1767 H 0.74267 0.75824 0.69188 0.0
H1768 H 0.73306 0.8136 0.58449 0.0
H1769 H 0.77174 0.82826 0.7319 0.0
H1770 H 0.73797 0.77772 0.65241 0.0
H1771 H 0.76696 0.86222 0.66504 0.0
C1772 C 0.75857 0.86283 0.62505 0.0
C1773 C 0.74915 0.84947 0.60184 0.0
C1774 C 0.74529 0.78878 0.66989 0.0
C1775 C 0.75094 0.82653 0.64673 0.0
C1776 C 0.74794 0.77767 0.69242 0.0
C1777 C 0.75772 0.79159 0.71525 0.0
C1778 C 0.75247 0.81395 0.67025 0.0
C1779 C 0.76424 0.81672 0.71479 0.0
C1780 C 0.75945 0.85149 0.64744 0.0
C1781 C 0.7405 0.82461 0.60194 0.0
N1782 N 0.76157 0.82701 0.69271 0.0
N1783 N 0.74168 0.81391 0.62402 0.0
H1784 H 0.69384 0.43165 0.58509 0.0
H1785 H 0.62717 0.52893 0.52082 0.0
H1786 H 0.70274 0.45205 0.50934 0.0
H1787 H 0.60315 0.49256 0.58484 0.0
H1788 H 0.66071 0.50732 0.5215 0.0
H1789 H 0.66573 0.45961 0.58962 0.0
C1790 C 0.68997 0.44207 0.56944 0.0
C1791 C 0.70051 0.43935 0.54671 0.0
C1792 C 0.64826 0.50432 0.5356 0.0
C1793 C 0.66858 0.47156 0.55192 0.0
C1794 C 0.6292 0.51683 0.5354 0.0
C1795 C 0.61216 0.5124 0.55267 0.0
C1796 C 0.65042 0.4874 0.55331 0.0
C1797 C 0.61575 0.49641 0.57105 0.0
C1798 C 0.67393 0.45802 0.57206 0.0
C1799 C 0.69487 0.45339 0.52711 0.0
N1800 N 0.63438 0.48434 0.57076 0.0
N1801 N 0.67928 0.46887 0.53016 0.0
H1802 H 0.20483 0.06042 0.49373 0.0
H1803 H 0.0747 0.07284 0.52681 0.0
H1804 H 0.17888 0.12815 0.50014 0.0
H1805 H 0.09106 0.0045 0.49709 0.0
H1806 H 0.11397 0.09276 0.51924 0.0
H1807 H 0.1644 0.0389 0.4965 0.0
C1808 C 0.19065 0.07075 0.49556 0.0
C1809 C 0.19528 0.09615 0.49687 0.0
C1810 C 0.10902 0.07343 0.51422 0.0
C1811 C 0.14921 0.0717 0.50023 0.0
C1812 C 0.08659 0.06198 0.51866 0.0
C1813 C 0.0796 0.03693 0.51264 0.0
C1814 C 0.12489 0.05976 0.50398 0.0
C1815 C 0.09575 0.02387 0.50194 0.0
C1816 C 0.16761 0.05845 0.49708 0.0
C1817 C 0.17622 0.10859 0.49914 0.0
N1818 N 0.1178 0.03542 0.49814 0.0
N1819 N 0.15413 0.09627 0.50096 0.0
H1820 H 0.21078 0.9631 0.7397 0.0
H1821 H 0.26198 0.86427 0.81789 0.0
H1822 H 0.20181 0.95405 0.81855 0.0
H1823 H 0.26355 0.8652 0.73676 0.0
H1824 H 0.24622 0.90184 0.81941 0.0
H1825 H 0.23546 0.93154 0.73917 0.0
C1826 C 0.21413 0.95462 0.75695 0.0
C1827 C 0.20401 0.96108 0.77916 0.0
C1828 C 0.25022 0.89404 0.80127 0.0
C1829 C 0.23233 0.9251 0.77867 0.0
C1830 C 0.25932 0.87261 0.8004 0.0
C1831 C 0.26382 0.86146 0.77711 0.0
C1832 C 0.24534 0.9044 0.77864 0.0
C1833 C 0.26028 0.8732 0.7551 0.0
C1834 C 0.22822 0.93662 0.75661 0.0
C1835 C 0.20903 0.94953 0.80094 0.0
N1836 N 0.25091 0.89392 0.75634 0.0
N1837 N 0.22273 0.93207 0.8001 0.0
H1838 H 0.32218 0.94616 0.0094 0.0
H1839 H 0.44356 0.96734 0.09959 0.0
H1840 H 0.32656 0.93043 0.08785 0.0
H1841 H 0.43664 0.99757 0.02764 0.0
H1842 H 0.40062 0.95412 0.09577 0.0
H1843 H 0.36387 0.96557 0.01573 0.0
C1844 C 0.33185 0.94694 0.02802 0.0
C1845 C 0.3209 0.93651 0.04809 0.0
C1846 C 0.40844 0.96382 0.0809 0.0
C1847 C 0.36868 0.95854 0.05539 0.0
C1848 C 0.43298 0.97132 0.08303 0.0
C1849 C 0.44369 0.98343 0.06381 0.0
C1850 C 0.39451 0.96819 0.05924 0.0
C1851 C 0.42909 0.98826 0.04288 0.0
C1852 C 0.35565 0.95807 0.03162 0.0
C1853 C 0.33428 0.93817 0.07182 0.0
N1854 N 0.40525 0.9804 0.04103 0.0
N1855 N 0.35753 0.94875 0.07474 0.0
H1856 H 0.88296 0.59177 0.71838 0.0
H1857 H 0.77839 0.66203 0.75333 0.0
H1858 H 0.83539 0.56897 0.77387 0.0
H1859 H 0.84659 0.69805 0.73609 0.0
H1860 H 0.79242 0.62301 0.74835 0.0
H1861 H 0.86281 0.62633 0.7126 0.0
C1862 C 0.8681 0.59387 0.72911 0.0
C1863 C 0.86101 0.57772 0.74689 0.0
C1864 C 0.80405 0.63947 0.74517 0.0
C1865 C 0.83774 0.61679 0.73999 0.0
C1866 C 0.79603 0.66158 0.74778 0.0
C1867 C 0.81147 0.68308 0.74517 0.0
C1868 C 0.8274 0.63904 0.73938 0.0
C1869 C 0.83427 0.68176 0.73834 0.0
C1870 C 0.85666 0.61355 0.72579 0.0
C1871 C 0.84161 0.58124 0.76024 0.0
N1872 N 0.8416 0.66008 0.73572 0.0
N1873 N 0.83063 0.60047 0.75656 0.0
H1874 H 0.81301 0.5582 0.9504 0.0
H1875 H 0.9117 0.5171 0.04569 0.0
H1876 H 0.82187 0.57845 0.03145 0.0
H1877 H 0.91106 0.51027 0.96394 0.0
H1878 H 0.87476 0.53354 0.04125 0.0
H1879 H 0.84513 0.53494 0.95555 0.0
C1880 C 0.82161 0.55767 0.96931 0.0
C1881 C 0.81484 0.57049 0.9905 0.0
C1882 C 0.8826 0.52819 0.02429 0.0
C1883 C 0.85165 0.54377 0.99654 0.0
C1884 C 0.90358 0.51864 0.02681 0.0
C1885 C 0.91456 0.51245 0.00516 0.0
C1886 C 0.87248 0.53141 -4e-05 0.0
C1887 C 0.90332 0.51498 0.98116 0.0
C1888 C 0.83998 0.54438 0.97224 0.0
C1889 C 0.82661 0.56901 0.01455 0.0
N1890 N 0.883 0.52437 0.97923 0.0
N1891 N 0.84449 0.55598 0.01691 0.0
H1892 H 0.20788 0.07533 0.81546 0.0
H1893 H 0.20632 0.19553 0.74665 0.0
H1894 H 0.14556 0.09397 0.77569 0.0
H1895 H 0.26099 0.1919 0.80687 0.0
H1896 H 0.1865 0.15563 0.75397 0.0
H1897 H 0.2298 0.11581 0.81046 0.0
C1898 C 0.19877 0.08794 0.80587 0.0
C1899 C 0.17486 0.0812 0.79586 0.0
C1900 C 0.20282 0.16349 0.76565 0.0
C1901 C 0.19984 0.12713 0.78984 0.0
C1902 C 0.21427 0.18631 0.76141 0.0
C1903 C 0.2353 0.19726 0.77634 0.0
C1904 C 0.21246 0.15117 0.78481 0.0
C1905 C 0.24476 0.18418 0.79501 0.0
C1906 C 0.21129 0.11098 0.80304 0.0
C1907 C 0.16394 0.09826 0.78364 0.0
N1908 N 0.23324 0.16173 0.79875 0.0
N1909 N 0.17655 0.12029 0.78082 0.0
H1910 H 0.356 0.94943 0.20251 0.0
H1911 H 0.28938 0.83718 0.26689 0.0
H1912 H 0.34569 0.95286 0.28235 0.0
H1913 H 0.32203 0.83025 0.19697 0.0
H1914 H 0.30326 0.88113 0.27025 0.0
H1915 H 0.33653 0.90704 0.19753 0.0
C1916 C 0.34945 0.94134 0.21895 0.0
C1917 C 0.35265 0.95462 0.24293 0.0
C1918 C 0.30726 0.86992 0.25415 0.0
C1919 C 0.33036 0.9062 0.23733 0.0
C1920 C 0.29931 0.84493 0.25219 0.0
C1921 C 0.30477 0.8301 0.23175 0.0
C1922 C 0.32041 0.88006 0.23532 0.0
C1923 C 0.31767 0.841 0.2132 0.0
C1924 C 0.33843 0.91713 0.2161 0.0
C1925 C 0.34377 0.94321 0.26356 0.0
N1926 N 0.32503 0.86532 0.21542 0.0
N1927 N 0.33307 0.9196 0.2603 0.0
H1928 H 0.54744 0.32192 0.58563 0.0
H1929 H 0.50164 0.44615 0.60228 0.0
H1930 H 0.4907 0.3324 0.63139 0.0
H1931 H 0.53465 0.42564 0.53573 0.0
H1932 H 0.49786 0.40457 0.61355 0.0
H1933 H 0.54387 0.35987 0.56727 0.0
C1934 C 0.53413 0.33209 0.59167 0.0
C1935 C 0.51949 0.3241 0.61023 0.0
C1936 C 0.50563 0.40904 0.59628 0.0
C1937 C 0.51546 0.36749 0.58948 0.0
C1938 C 0.50783 0.43276 0.58988 0.0
C1939 C 0.51857 0.43926 0.56814 0.0
C1940 C 0.51475 0.39184 0.58115 0.0
C1941 C 0.5262 0.42127 0.55263 0.0
C1942 C 0.53203 0.35366 0.58109 0.0
C1943 C 0.50243 0.33791 0.61722 0.0
N1944 N 0.52452 0.39839 0.55968 0.0
N1945 N 0.5011 0.35908 0.60709 0.0
H1946 H 0.44157 0.709 0.32199 0.0
H1947 H 0.34193 0.79162 0.30436 0.0
H1948 H 0.44319 0.77785 0.36514 0.0
H1949 H 0.33832 0.72295 0.26017 0.0
H1950 H 0.38068 0.78785 0.32435 0.0
H1951 H 0.40511 0.71442 0.29724 0.0
C1952 C 0.43429 0.72525 0.32625 0.0
C1953 C 0.44538 0.74294 0.34576 0.0
C1954 C 0.37156 0.77363 0.31017 0.0
C1955 C 0.40381 0.74928 0.31748 0.0
C1956 C 0.3494 0.7758 0.29869 0.0
C1957 C 0.33678 0.75746 0.28072 0.0
C1958 C 0.38123 0.75289 0.30381 0.0
C1959 C 0.34745 0.73748 0.27397 0.0
C1960 C 0.41352 0.72835 0.31207 0.0
C1961 C 0.43522 0.76367 0.35038 0.0
N1962 N 0.36902 0.7356 0.28572 0.0
N1963 N 0.41501 0.76622 0.33639 0.0
H1964 H 0.00467 0.68882 0.14411 0.0
H1965 H 0.01246 0.5836 0.03572 0.0
H1966 H 0.02868 0.70333 0.07106 0.0
H1967 H 0.97856 0.57226 0.10433 0.0
H1968 H 0.02136 0.62717 0.04912 0.0
H1969 H 0.99776 0.64571 0.13057 0.0
C1970 C 0.00852 0.68295 0.12518 0.0
C1971 C 0.01723 0.69977 0.10867 0.0
C1972 C 0.012 0.6151 0.06121 0.0
C1973 C 0.00934 0.65017 0.09301 0.0
C1974 C 0.00698 0.59025 0.05363 0.0
C1975 C 0.99468 0.57429 0.06891 0.0
C1976 C 0.0048 0.62396 0.08429 0.0
C1977 C 0.98798 0.58388 0.09189 0.0
C1978 C 0.00453 0.65827 0.11745 0.0
C1979 C 0.02188 0.691 0.08437 0.0
N1980 N 0.99312 0.60805 0.09885 0.0
N1981 N 0.01788 0.66677 0.07726 0.0
H1982 H 0.04942 0.19762 0.82815 0.0
H1983 H 0.15682 0.28379 0.77715 0.0
H1984 H 0.05981 0.27566 0.83911 0.0
H1985 H 0.15407 0.20753 0.78382 0.0
H1986 H 0.11677 0.28043 0.79093 0.0
H1987 H 0.08327 0.2005 0.80312 0.0
C1988 C 0.05868 0.21538 0.82512 0.0
C1989 C 0.05199 0.23643 0.83607 0.0
C1990 C 0.12485 0.2644 0.789 0.0
C1991 C 0.09079 0.23984 0.80741 0.0
C1992 C 0.14759 0.26627 0.78099 0.0
C1993 C 0.15879 0.24595 0.77965 0.0
C1994 C 0.11329 0.24202 0.79542 0.0
C1995 C 0.14615 0.2237 0.78494 0.0
C1996 C 0.07803 0.21701 0.81082 0.0
C1997 C 0.06454 0.25895 0.83128 0.0
N1998 N 0.12415 0.22237 0.79276 0.0
N1999 N 0.08348 0.26007 0.81746 0.0
H2000 H 0.544 0.71768 0.94006 0.0
H2001 H 0.47821 0.60724 0.00754 0.0
H2002 H 0.46903 0.70709 0.94877 0.0
H2003 H 0.55137 0.61673 0.99153 0.0
H2004 H 0.47535 0.64675 0.99211 0.0
H2005 H 0.54775 0.68366 0.96457 0.0
C2006 C 0.52829 0.70822 0.94719 0.0
C2007 C 0.5061 0.71508 0.94207 0.0
C2008 C 0.49209 0.64028 0.99231 0.0
C2009 C 0.51028 0.67586 0.97023 0.0
C2010 C 0.49376 0.61784 0.00126 0.0
C2011 C 0.51499 0.60867 0.00054 0.0
C2012 C 0.51183 0.65351 0.98278 0.0
C2013 C 0.53458 0.62301 0.9921 0.0
C2014 C 0.53046 0.68878 0.96126 0.0
C2015 C 0.48645 0.70229 0.95211 0.0
N2016 N 0.53247 0.6446 0.98341 0.0
N2017 N 0.48895 0.68312 0.96555 0.0
H2018 H 0.07638 0.769 0.71186 0.0
H2019 H 0.21007 0.7796 0.68007 0.0
H2020 H 0.09635 0.74603 0.6383 0.0
H2021 H 0.19183 0.77536 0.75702 0.0
H2022 H 0.16805 0.77061 0.66468 0.0
H2023 H 0.11824 0.77457 0.72924 0.0
C2024 C 0.08952 0.76507 0.69941 0.0
C2025 C 0.08289 0.75713 0.67356 0.0
C2026 C 0.17318 0.7715 0.68493 0.0
C2027 C 0.13056 0.76362 0.69322 0.0
C2028 C 0.19717 0.77674 0.69375 0.0
C2029 C 0.2044 0.77829 0.71987 0.0
C2030 C 0.15617 0.76816 0.70234 0.0
C2031 C 0.18694 0.77424 0.73672 0.0
C2032 C 0.11333 0.76815 0.70935 0.0
C2033 C 0.10061 0.7522 0.65831 0.0
N2034 N 0.16352 0.76958 0.72768 0.0
N2035 N 0.12361 0.75572 0.66831 0.0
H2036 H 0.00867 0.31488 0.48822 0.0
H2037 H 0.00037 0.45041 0.47211 0.0
H2038 H 0.02504 0.34715 0.41937 0.0
H2039 H 0.02919 0.43172 0.54436 0.0
H2040 H 0.00298 0.41027 0.45286 0.0
H2041 H 0.01067 0.35559 0.50995 0.0
C2042 C 0.01284 0.33051 0.47776 0.0
C2043 C 0.01661 0.3277 0.45195 0.0
C2044 C 0.00881 0.415 0.47291 0.0
C2045 C 0.01844 0.37387 0.47643 0.0
C2046 C 0.00723 0.43785 0.48398 0.0
C2047 C 0.01476 0.44448 0.50988 0.0
C2048 C 0.01735 0.39835 0.48793 0.0
C2049 C 0.02338 0.42735 0.52429 0.0
C2050 C 0.01406 0.35363 0.49017 0.0
C2051 C 0.02205 0.34851 0.43928 0.0
N2052 N 0.02423 0.40488 0.51315 0.0
N2053 N 0.02244 0.37071 0.45155 0.0
H2054 H 0.45126 0.254 0.24017 0.0
H2055 H 0.32185 0.28007 0.19614 0.0
H2056 H 0.42796 0.2706 0.165 0.0
H2057 H 0.33928 0.2545 0.26871 0.0
H2058 H 0.36337 0.28409 0.18814 0.0
H2059 H 0.41275 0.26007 0.25401 0.0
C2060 C 0.43814 0.25903 0.22664 0.0
C2061 C 0.44275 0.26153 0.20131 0.0
C2062 C 0.35827 0.2779 0.206 0.0
C2063 C 0.39894 0.26876 0.21706 0.0
C2064 C 0.33458 0.27577 0.21063 0.0
C2065 C 0.32715 0.2668 0.23301 0.0
C2066 C 0.37469 0.27066 0.22371 0.0
C2067 C 0.34435 0.26158 0.25123 0.0
C2068 C 0.41621 0.26253 0.23456 0.0
C2069 C 0.42515 0.26818 0.18462 0.0
N2070 N 0.36734 0.2632 0.246 0.0
N2071 N 0.40408 0.27148 0.19277 0.0
H2072 H 0.58486 0.4895 0.33535 0.0
H2073 H 0.58182 0.50793 0.48604 0.0
H2074 H 0.64705 0.50507 0.38997 0.0
H2075 H 0.51831 0.48492 0.43421 0.0
H2076 H 0.60562 0.50613 0.45053 0.0
H2077 H 0.55986 0.48694 0.37058 0.0
C2078 C 0.59326 0.49228 0.35471 0.0
C2079 C 0.61811 0.49761 0.35971 0.0
C2080 C 0.5865 0.50136 0.4468 0.0
C2081 C 0.58964 0.49475 0.40001 0.0
C2082 C 0.57285 0.50249 0.46712 0.0
C2083 C 0.548 0.4968 0.46307 0.0
C2084 C 0.57532 0.49466 0.42202 0.0
C2085 C 0.53743 0.48946 0.43815 0.0
C2086 C 0.57898 0.49079 0.3748 0.0
C2087 C 0.62801 0.50099 0.38516 0.0
N2088 N 0.55116 0.48879 0.41848 0.0
N2089 N 0.61376 0.49961 0.40428 0.0
H2090 H 0.30119 0.83181 0.05815 0.0
H2091 H 0.21755 0.76214 0.15106 0.0
H2092 H 0.22832 0.83952 0.06445 0.0
H2093 H 0.29361 0.76633 0.15757 0.0
H2094 H 0.21991 0.78289 0.11256 0.0
H2095 H 0.29741 0.80132 0.08859 0.0
C2096 C 0.28436 0.82699 0.0658 0.0
C2097 C 0.26511 0.83841 0.05897 0.0
C2098 C 0.23606 0.77899 0.1222 0.0
C2099 C 0.26063 0.80344 0.09354 0.0
C2100 C 0.23472 0.76701 0.14411 0.0
C2101 C 0.25547 0.76286 0.15778 0.0
C2102 C 0.25831 0.78696 0.1139 0.0
C2103 C 0.27719 0.76932 0.14772 0.0
C2104 C 0.28222 0.80958 0.08314 0.0
C2105 C 0.2437 0.83138 0.06938 0.0
N2106 N 0.2781 0.78141 0.12655 0.0
N2107 N 0.24207 0.81442 0.08621 0.0
H2108 H 0.9324 0.54869 0.85781 0.0
H2109 H -0.00053 0.47326 0.95034 0.0
H2110 H 0.94903 0.47863 0.83457 0.0
H2111 H 0.00293 0.55014 0.96617 0.0
H2112 H 0.98226 0.47554 0.90706 0.0
H2113 H 0.95856 0.55035 0.89728 0.0
C2114 C 0.94157 0.53371 0.86097 0.0
C2115 C 0.93832 0.51336 0.84302 0.0
C2116 C 0.98717 0.49205 0.91975 0.0
C2117 C 0.96824 0.5152 0.8879 0.0
C2118 C 0.99705 0.49073 0.94438 0.0
C2119 C 0.0026 0.51156 0.96158 0.0
C2120 C 0.9822 0.51427 0.91252 0.0
C2121 C 0.99905 0.53376 0.95321 0.0
C2122 C 0.95662 0.53475 0.88338 0.0
C2123 C 0.95083 0.49458 0.84795 0.0
N2124 N 0.98861 0.5345 0.92929 0.0
N2125 N 0.96505 0.49587 0.87 0.0
H2126 H 0.28524 0.14194 0.58457 0.0
H2127 H 0.26474 0.25168 0.68165 0.0
H2128 H 0.25842 0.20428 0.55964 0.0
H2129 H 0.29393 0.18966 0.70367 0.0
H2130 H 0.26157 0.23495 0.63694 0.0
H2131 H 0.28804 0.15955 0.62841 0.0
C2132 C 0.27997 0.15939 0.58829 0.0
C2133 C 0.27157 0.17163 0.56833 0.0
C2134 C 0.26865 0.22506 0.65162 0.0
C2135 C 0.27469 0.192 0.61879 0.0
C2136 C 0.27043 0.23457 0.67711 0.0
C2137 C 0.27964 0.22207 0.69645 0.0
C2138 C 0.2761 0.20291 0.6455 0.0
C2139 C 0.28676 0.19999 0.68948 0.0
C2140 C 0.28156 0.16946 0.61341 0.0
C2141 C 0.26502 0.19421 0.57443 0.0
N2142 N 0.28484 0.19116 0.66465 0.0
N2143 N 0.26668 0.20367 0.59914 0.0
H2144 H 0.63358 0.50624 0.20791 0.0
H2145 H 0.52188 0.50595 0.10628 0.0
H2146 H 0.56387 0.51163 0.22993 0.0
H2147 H 0.5922 0.49891 0.08746 0.0
H2148 H 0.53682 0.51107 0.15162 0.0
H2149 H 0.6186 0.50629 0.16368 0.0
C2150 C 0.61507 0.50744 0.20346 0.0
C2151 C 0.59993 0.50876 0.22271 0.0
C2152 C 0.54895 0.50856 0.1375 0.0
C2153 C 0.58253 0.50881 0.17175 0.0
C2154 C 0.54047 0.50572 0.11166 0.0
C2155 C 0.55579 0.50181 0.09309 0.0
C2156 C 0.57289 0.50754 0.14468 0.0
C2157 C 0.57968 0.50165 0.10109 0.0
C2158 C 0.60651 0.50751 0.17811 0.0
C2159 C 0.57615 0.51049 0.21569 0.0
N2160 N 0.58743 0.50435 0.12622 0.0
N2161 N 0.56812 0.51034 0.19072 0.0
H2162 H 0.3094 0.86629 0.945 0.0
H2163 H 0.23394 0.77124 0.83494 0.0
H2164 H 0.23313 0.84641 0.94065 0.0
H2165 H 0.3083 0.80096 0.83588 0.0
H2166 H 0.23346 0.79465 0.87613 0.0
H2167 H 0.30937 0.83899 0.90703 0.0
C2168 C 0.29259 0.85622 0.93601 0.0
C2169 C 0.27122 0.85876 0.94597 0.0
C2170 C 0.24989 0.79582 0.86737 0.0
C2171 C 0.27106 0.82719 0.90235 0.0
C2172 C 0.25022 0.78233 0.84403 0.0
C2173 C 0.27116 0.78431 0.83199 0.0
C2174 C 0.27071 0.81114 0.87866 0.0
C2175 C 0.29172 0.79907 0.84441 0.0
C2176 C 0.29259 0.84055 0.91431 0.0
C2177 C 0.25001 0.84512 0.93351 0.0
N2178 N 0.29094 0.81196 0.86695 0.0
N2179 N 0.25045 0.82989 0.9123 0.0
H2180 H 0.97689 0.56417 0.75286 0.0
H2181 H 0.0065 0.47787 0.63731 0.0
H2182 H 0.93612 0.49382 0.72559 0.0
H2183 H 0.0391 0.55305 0.65334 0.0
H2184 H 0.9877 0.48053 0.67665 0.0
H2185 H 0.00576 0.55775 0.72267 0.0
C2186 C 0.9741 0.54733 0.74066 0.0
C2187 C 0.9539 0.52965 0.74144 0.0
C2188 C 0.99927 0.49636 0.67179 0.0
C2189 C 0.9869 0.52211 0.70723 0.0
C2190 C 0.01013 0.49482 0.64939 0.0
C2191 C 0.02398 0.51541 0.64177 0.0
C2192 C 0.00216 0.51869 0.6866 0.0
C2193 C 0.02832 0.5368 0.65835 0.0
C2194 C 0.99059 0.54367 0.72351 0.0
C2195 C 0.95124 0.5081 0.72537 0.0
N2196 N 0.01706 0.53802 0.67981 0.0
N2197 N 0.96748 0.505 0.70885 0.0
H2198 H 0.28362 0.18241 0.45348 0.0
H2199 H 0.24606 0.18677 0.30501 0.0
H2200 H 0.24663 0.12152 0.40243 0.0
H2201 H 0.27942 0.25046 0.35423 0.0
H2202 H 0.24812 0.16272 0.34077 0.0
H2203 H 0.28415 0.20766 0.41782 0.0
C2204 C 0.27569 0.17433 0.4348 0.0
C2205 C 0.26502 0.14979 0.43098 0.0
C2206 C 0.25504 0.18194 0.34389 0.0
C2207 C 0.26558 0.17854 0.39019 0.0
C2208 C 0.25385 0.19577 0.32339 0.0
C2209 C 0.26246 0.22077 0.32659 0.0
C2210 C 0.2649 0.19306 0.368 0.0
C2211 C 0.27254 0.23125 0.3509 0.0
C2212 C 0.27598 0.18876 0.41448 0.0
C2213 C 0.255 0.14032 0.40638 0.0
N2214 N 0.27342 0.21735 0.37074 0.0
N2215 N 0.25552 0.15468 0.38702 0.0
H2216 H 0.32214 0.55961 0.53038 0.0
H2217 H 0.42697 0.51963 0.45874 0.0
H2218 H 0.33457 0.57778 0.45461 0.0
H2219 H 0.40137 0.48632 0.52387 0.0
H2220 H 0.3923 0.53962 0.45555 0.0
H2221 H 0.35055 0.53187 0.52775 0.0
C2222 C 0.33077 0.5577 0.51315 0.0
C2223 C 0.32611 0.57119 0.49277 0.0
C2224 C 0.39407 0.52762 0.47028 0.0
C2225 C 0.35873 0.53951 0.48965 0.0
C2226 C 0.41384 0.51614 0.47207 0.0
C2227 C 0.41725 0.50148 0.49178 0.0
C2228 C 0.37778 0.52469 0.48854 0.0
C2229 C 0.39959 0.49757 0.50846 0.0
C2230 C 0.3469 0.54175 0.5116 0.0
C2231 C 0.33769 0.56782 0.47082 0.0
N2232 N 0.38084 0.50943 0.50671 0.0
N2233 N 0.35365 0.55251 0.46995 0.0
H2234 H 0.8342 0.91655 0.52812 0.0
H2235 H 0.94801 0.02066 0.56639 0.0
H2236 H 0.8341 0.97864 0.58164 0.0
H2237 H 0.9472 0.95663 0.51531 0.0
H2238 H 0.90637 0.00614 0.57218 0.0
H2239 H 0.87563 0.93153 0.52313 0.0
C2240 C 0.84288 0.93337 0.53885 0.0
C2241 C 0.8306 0.94636 0.55534 0.0
C2242 C 0.91535 0.99527 0.55975 0.0
C2243 C 0.87827 0.96368 0.54968 0.0
C2244 C 0.93912 0.00355 0.55642 0.0
C2245 C 0.95119 0.98982 0.54038 0.0
C2246 C 0.90355 0.97315 0.54689 0.0
C2247 C 0.93873 0.9678 0.52795 0.0
C2248 C 0.86661 0.94192 0.53599 0.0
C2249 C 0.84286 0.96803 0.56872 0.0
N2250 N 0.91565 0.9602 0.53146 0.0
N2251 N 0.86603 0.97603 0.56559 0.0
H2252 H 0.83483 0.0649 0.22881 0.0
H2253 H 0.7702 0.15977 0.3038 0.0
H2254 H 0.82786 0.06546 0.30927 0.0
H2255 H 0.77319 0.15321 0.22253 0.0
H2256 H 0.7878 0.12301 0.30628 0.0
H2257 H 0.80953 0.09545 0.22618 0.0
C2258 C 0.82796 0.07144 0.24595 0.0
C2259 C 0.83366 0.06275 0.26934 0.0
C2260 C 0.78427 0.12946 0.28788 0.0
C2261 C 0.80458 0.09791 0.2665 0.0
C2262 C 0.77408 0.15032 0.28645 0.0
C2263 C 0.77052 0.15967 0.26296 0.0
C2264 C 0.79086 0.11802 0.26566 0.0
C2265 C 0.77597 0.14682 0.24109 0.0
C2266 C 0.81339 0.08885 0.24443 0.0
C2267 C 0.824 0.07174 0.29086 0.0
N2268 N 0.78606 0.12684 0.24301 0.0
N2269 N 0.81009 0.089 0.28898 0.0
H2270 H 0.6915 0.09885 0.96939 0.0
H2271 H 0.58061 0.01776 0.0205 0.0
H2272 H 0.69675 0.06337 0.03832 0.0
H2273 H 0.57516 0.06083 0.95723 0.0
H2274 H 0.62381 0.03038 0.02468 0.0
H2275 H 0.64951 0.08096 0.9619 0.0
C2276 C 0.68388 0.08714 0.98287 0.0
C2277 C 0.69765 0.08277 0.00464 0.0
C2278 C 0.61314 0.03695 0.00981 0.0
C2279 C 0.64946 0.06228 0.99622 0.0
C2280 C 0.5885 0.02973 0.00739 0.0
C2281 C 0.57425 0.03841 0.98861 0.0
C2282 C 0.62357 0.05287 0.99326 0.0
C2283 C 0.58542 0.05385 0.97212 0.0
C2284 C 0.65986 0.07697 0.97861 0.0
C2285 C 0.68679 0.06736 0.02137 0.0
N2286 N 0.60938 0.06063 0.97489 0.0
N2287 N 0.66329 0.05778 0.01688 0.0
H2288 H 0.20087 0.44801 0.2555 0.0
H2289 H 0.24303 0.34613 0.33243 0.0
H2290 H 0.19265 0.44535 0.33543 0.0
H2291 H 0.273 0.36749 0.26415 0.0
H2292 H 0.22504 0.38261 0.33476 0.0
H2293 H 0.2272 0.41819 0.25832 0.0
C2294 C 0.20466 0.44119 0.27366 0.0
C2295 C 0.19442 0.44902 0.29522 0.0
C2296 C 0.23593 0.37952 0.31954 0.0
C2297 C 0.22446 0.41486 0.29857 0.0
C2298 C 0.24623 0.35873 0.31823 0.0
C2299 C 0.25933 0.35363 0.29792 0.0
C2300 C 0.23839 0.39503 0.30015 0.0
C2301 C 0.26297 0.37063 0.28009 0.0
C2302 C 0.21982 0.42431 0.27531 0.0
C2303 C 0.20012 0.43975 0.31832 0.0
N2304 N 0.25217 0.39035 0.28135 0.0
N2305 N 0.21454 0.42291 0.31933 0.0
H2306 H 0.21186 0.45409 0.10231 0.0
H2307 H 0.11142 0.50346 0.01716 0.0
H2308 H 0.20321 0.44473 0.02018 0.0
H2309 H 0.11118 0.49802 0.09787 0.0
H2310 H 0.14957 0.48928 0.01867 0.0
H2311 H 0.17922 0.477 0.10152 0.0
C2312 C 0.20322 0.45698 0.0841 0.0
C2313 C 0.21014 0.44724 0.06128 0.0
C2314 C 0.14129 0.4915 0.03609 0.0
C2315 C 0.1728 0.47356 0.06026 0.0
C2316 C 0.11961 0.49978 0.03528 0.0
C2317 C 0.10801 0.50173 0.0574 0.0
C2318 C 0.15147 0.48529 0.05919 0.0
C2319 C 0.1194 0.49657 0.08032 0.0
C2320 C 0.18457 0.47006 0.08367 0.0
C2321 C 0.19833 0.45169 0.03825 0.0
N2322 N 0.14038 0.48843 0.08059 0.0
N2323 N 0.18019 0.46443 0.03833 0.0
H2324 H 0.82034 0.95208 0.24774 0.0
H2325 H 0.82309 0.81725 0.27805 0.0
H2326 H 0.88253 0.91861 0.24415 0.0
H2327 H 0.75769 0.83862 0.2495 0.0
H2328 H 0.84482 0.85614 0.26973 0.0
H2329 H 0.79662 0.91231 0.25166 0.0
C2330 C 0.82898 0.93638 0.24763 0.0
C2331 C 0.85349 0.93867 0.24577 0.0
C2332 C 0.82573 0.85234 0.26516 0.0
C2333 C 0.82657 0.89341 0.25051 0.0
C2334 C 0.81323 0.83015 0.27004 0.0
C2335 C 0.78848 0.82463 0.26442 0.0
C2336 C 0.81344 0.86947 0.25501 0.0
C2337 C 0.77677 0.84213 0.25402 0.0
C2338 C 0.81541 0.91373 0.24978 0.0
C2339 C 0.86373 0.91772 0.24559 0.0
N2340 N 0.78936 0.86394 0.24982 0.0
N2341 N 0.85027 0.89604 0.24821 0.0
H2342 H 0.69392 0.06997 0.80015 0.0
H2343 H 0.68231 0.20871 0.80092 0.0
H2344 H 0.63071 0.0942 0.76963 0.0
H2345 H 0.74988 0.18563 0.79553 0.0
H2346 H 0.66293 0.16645 0.79706 0.0
H2347 H 0.71467 0.11223 0.80589 0.0
C2348 C 0.68441 0.08417 0.7948 0.0
C2349 C 0.6606 0.07866 0.78436 0.0
C2350 C 0.682 0.17063 0.79675 0.0
C2351 C 0.68401 0.12664 0.79109 0.0
C2352 C 0.6931 0.19473 0.79907 0.0
C2353 C 0.71772 0.20063 0.7985 0.0
C2354 C 0.69564 0.15227 0.79423 0.0
C2355 C 0.73081 0.18177 0.79592 0.0
C2356 C 0.69627 0.10817 0.79795 0.0
C2357 C 0.6491 0.09766 0.77762 0.0
N2358 N 0.7196 0.15833 0.79399 0.0
N2359 N 0.66088 0.12082 0.78124 0.0
loop_
_geom_bond_atom_site_label_1
_geom_bond_atom_site_label_2
_geom_bond_distance
_geom_bond_site_symmetry_2
_ccdc_geom_bond_type
C0 O1 1.160 . S
C0 O7 1.185 . S
O1 C0 1.160 . S
O2 Zn3 1.899 . S
O2 C10 1.284 . S
Zn3 O2 1.899 . S
Zn3 O4 2.032 . S
Zn3 O7 2.086 . S
Zn3 O12 1.977 1_455 S
O4 Zn3 2.032 . S
O4 C8 1.278 . S
C5 O6 1.203 . S
C5 O12 1.267 . S
O6 C5 1.203 . S
O7 C0 1.185 . S
O7 Zn3 2.086 . S
C8 O4 1.278 . S
C8 O9 1.211 . S
O9 C8 1.211 . S
C10 O2 1.284 . S
C10 O11 1.273 . S
O11 C10 1.273 . S
O12 Zn3 1.977 1_655 S
O12 C5 1.267 . S
C13 O14 1.160 . S
C13 O20 1.185 . S
O14 C13 1.160 . S
O15 Zn16 1.897 . S
O15 C23 1.294 . S
Zn16 O15 1.897 . S
Zn16 O17 2.032 1_455 S
Zn16 O20 2.086 1_455 S
Zn16 O25 1.977 . S
O17 Zn16 2.032 1_655 S
O17 C21 1.278 1_655 S
C18 O19 1.203 . S
C18 O25 1.267 . S
O19 C18 1.203 . S
O20 C13 1.185 . S
O20 Zn16 2.086 1_655 S
C21 O17 1.278 1_455 S
C21 O22 1.211 . S
O22 C21 1.211 . S
C23 O15 1.294 . S
C23 O24 1.273 . S
O24 C23 1.273 . S
O25 Zn16 1.977 . S
O25 C18 1.267 . S
C26 O27 1.160 . S
C26 O33 1.185 . S
O27 C26 1.160 . S
O28 Zn29 1.899 . S
O28 C36 1.284 . S
Zn29 O28 1.899 . S
Zn29 O30 2.032 . S
Zn29 O33 2.086 . S
Zn29 O38 1.977 . S
O30 Zn29 2.032 . S
O30 C34 1.278 . S
C31 O32 1.203 . S
C31 O38 1.267 . S
O32 C31 1.203 . S
O33 C26 1.185 . S
O33 Zn29 2.086 . S
C34 O30 1.278 . S
C34 O35 1.211 . S
O35 C34 1.211 . S
C36 O28 1.284 . S
C36 O37 1.273 . S
O37 C36 1.273 . S
O38 Zn29 1.977 . S
O38 C31 1.267 . S
C39 O40 1.160 . S
C39 O46 1.185 . S
O40 C39 1.160 . S
O41 Zn42 1.899 . S
O41 C49 1.284 . S
Zn42 O41 1.899 . S
Zn42 O43 2.032 . S
Zn42 O46 2.086 . S
Zn42 O51 1.977 . S
O43 Zn42 2.032 . S
O43 C47 1.278 . S
C44 O45 1.203 . S
C44 O51 1.267 . S
O45 C44 1.203 . S
O46 C39 1.185 . S
O46 Zn42 2.086 . S
C47 O43 1.278 . S
C47 O48 1.211 . S
O48 C47 1.211 . S
C49 O41 1.284 . S
C49 O50 1.273 . S
O50 C49 1.273 . S
O51 Zn42 1.977 . S
O51 C44 1.267 . S
C52 O53 1.160 . S
C52 O59 1.185 1_655 S
O53 C52 1.160 . S
O54 Zn55 1.899 . S
O54 C62 1.284 . S
Zn55 O54 1.899 . S
Zn55 O56 2.032 . S
Zn55 O59 2.086 . S
Zn55 O64 1.977 . S
O56 Zn55 2.032 . S
O56 C60 1.278 . S
C57 O58 1.203 . S
C57 O64 1.267 . S
O58 C57 1.203 . S
O59 C52 1.185 1_455 S
O59 Zn55 2.086 . S
C60 O56 1.278 . S
C60 O61 1.211 . S
O61 C60 1.211 . S
C62 O54 1.284 . S
C62 O63 1.273 . S
O63 C62 1.273 . S
O64 Zn55 1.977 . S
O64 C57 1.267 . S
C65 O66 1.160 . S
C65 O72 1.185 . S
O66 C65 1.160 . S
O67 Zn68 1.899 . S
O67 C75 1.284 . S
Zn68 O67 1.899 . S
Zn68 O69 2.032 . S
Zn68 O72 2.086 . S
Zn68 O77 1.977 . S
O69 Zn68 2.032 . S
O69 C73 1.278 . S
C70 O71 1.203 . S
C70 O77 1.267 . S
O71 C70 1.203 . S
O72 C65 1.185 . S
O72 Zn68 2.086 . S
C73 O69 1.278 . S
C73 O74 1.211 . S
O74 C73 1.211 . S
C75 O67 1.284 . S
C75 O76 1.273 . S
O76 C75 1.273 . S
O77 Zn68 1.977 . S
O77 C70 1.267 . S
C78 O79 1.160 . S
C78 O85 1.185 . S
O79 C78 1.160 . S
O80 Zn81 1.899 . S
O80 C88 1.284 . S
Zn81 O80 1.899 . S
Zn81 O82 2.032 . S
Zn81 O85 2.086 . S
Zn81 O90 1.977 . S
O82 Zn81 2.032 . S
O82 C86 1.278 . S
C83 O84 1.203 . S
C83 O90 1.267 . S
O84 C83 1.203 . S
O85 C78 1.185 . S
O85 Zn81 2.086 . S
C86 O82 1.278 . S
C86 O87 1.211 . S
O87 C86 1.211 . S
C88 O80 1.284 . S
C88 O89 1.273 . S
O89 C88 1.273 . S
O90 Zn81 1.977 . S
O90 C83 1.267 . S
C91 O92 1.160 . S
C91 O98 1.185 . S
O92 C91 1.160 . S
O93 Zn94 1.898 . S
O93 C101 1.279 1_455 S
Zn94 O93 1.898 . S
Zn94 O95 2.032 . S
Zn94 O98 2.086 . S
Zn94 O103 1.977 1_455 S
O95 Zn94 2.032 . S
O95 C99 1.307 . S
C96 O97 1.203 . S
C96 O103 1.267 . S
O97 C96 1.203 . S
O98 C91 1.185 . S
O98 Zn94 2.086 . S
C99 O95 1.307 . S
C99 O100 1.173 1_455 S
O100 C99 1.173 1_655 S
C101 O93 1.279 1_655 S
C101 O102 1.273 . S
O102 C101 1.273 . S
O103 Zn94 1.977 1_655 S
O103 C96 1.267 . S
C104 O105 1.160 . S
C104 O111 1.185 . S
O105 C104 1.160 . S
O106 Zn107 1.899 . S
O106 C114 1.284 . S
Zn107 O106 1.899 . S
Zn107 O108 2.032 . S
Zn107 O111 2.086 . S
Zn107 O116 1.977 1_545 S
O108 Zn107 2.032 . S
O108 C112 1.278 . S
C109 O110 1.203 . S
C109 O116 1.267 . S
O110 C109 1.203 . S
O111 C104 1.185 . S
O111 Zn107 2.086 . S
C112 O108 1.278 . S
C112 O113 1.211 . S
O113 C112 1.211 . S
C114 O106 1.284 . S
C114 O115 1.273 . S
O115 C114 1.273 . S
O116 Zn107 1.977 1_565 S
O116 C109 1.267 . S
C117 O118 1.160 . S
C117 O124 1.185 . S
O118 C117 1.160 . S
O119 Zn120 1.899 . S
O119 C127 1.284 . S
Zn120 O119 1.899 . S
Zn120 O121 2.032 . S
Zn120 O124 2.086 . S
Zn120 O129 1.977 . S
O121 Zn120 2.032 . S
O121 C125 1.278 . S
C122 O123 1.203 . S
C122 O129 1.267 . S
O123 C122 1.203 . S
O124 C117 1.185 . S
O124 Zn120 2.086 . S
C125 O121 1.278 . S
C125 O126 1.211 . S
O126 C125 1.211 . S
C127 O119 1.284 . S
C127 O128 1.273 . S
O128 C127 1.273 . S
O129 Zn120 1.977 . S
O129 C122 1.267 . S
C130 O131 1.160 . S
C130 O137 1.185 . S
O131 C130 1.160 . S
O132 Zn133 1.899 . S
O132 C140 1.284 . S
Zn133 O132 1.899 . S
Zn133 O134 2.024 1_545 S
Zn133 O137 2.086 1_545 S
Zn133 O142 1.977 . S
O134 Zn133 2.024 1_565 S
O134 C138 1.257 1_565 S
C135 O136 1.203 . S
C135 O142 1.267 . S
O136 C135 1.203 . S
O137 C130 1.185 . S
O137 Zn133 2.086 1_565 S
C138 O134 1.257 1_545 S
C138 O139 1.211 . S
O139 C138 1.211 . S
C140 O132 1.284 . S
C140 O141 1.273 . S
O141 C140 1.273 . S
O142 Zn133 1.977 . S
O142 C135 1.267 . S
C143 O144 1.160 . S
C143 O150 1.185 . S
O144 C143 1.160 . S
O145 Zn146 1.899 . S
O145 C153 1.284 . S
Zn146 O145 1.899 . S
Zn146 O147 2.032 1_554 S
Zn146 O150 2.086 . S
Zn146 O155 1.977 . S
O147 Zn146 2.032 1_556 S
O147 C151 1.278 . S
C148 O149 1.203 . S
C148 O155 1.267 . S
O149 C148 1.203 . S
O150 C143 1.185 . S
O150 Zn146 2.086 . S
C151 O147 1.278 . S
C151 O152 1.211 . S
O152 C151 1.211 . S
C153 O145 1.284 . S
C153 O154 1.273 . S
O154 C153 1.273 . S
O155 Zn146 1.977 . S
O155 C148 1.267 . S
C156 O157 1.160 . S
C156 O163 1.185 . S
O157 C156 1.160 . S
O158 Zn159 1.899 . S
O158 C166 1.284 . S
Zn159 O158 1.899 . S
Zn159 O160 2.032 . S
Zn159 O163 2.086 . S
Zn159 O168 1.977 . S
O160 Zn159 2.032 . S
O160 C164 1.278 . S
C161 O162 1.203 . S
C161 O168 1.267 . S
O162 C161 1.203 . S
O163 C156 1.185 . S
O163 Zn159 2.086 . S
C164 O160 1.278 . S
C164 O165 1.211 . S
O165 C164 1.211 . S
C166 O158 1.284 . S
C166 O167 1.273 . S
O167 C166 1.273 . S
O168 Zn159 1.977 . S
O168 C161 1.267 . S
C169 O170 1.160 . S
C169 O176 1.185 . S
O170 C169 1.160 . S
O171 Zn172 1.899 . S
O171 C179 1.284 . S
Zn172 O171 1.899 . S
Zn172 O173 2.032 . S
Zn172 O176 2.086 . S
Zn172 O181 1.977 . S
O173 Zn172 2.032 . S
O173 C177 1.278 1_554 S
C174 O175 1.203 . S
C174 O181 1.267 . S
O175 C174 1.203 . S
O176 C169 1.185 . S
O176 Zn172 2.086 . S
C177 O173 1.278 1_556 S
C177 O178 1.211 . S
O178 C177 1.211 . S
C179 O171 1.284 . S
C179 O180 1.273 . S
O180 C179 1.273 . S
O181 Zn172 1.977 . S
O181 C174 1.267 . S
C182 O183 1.160 . S
C182 O189 1.185 . S
O183 C182 1.160 . S
O184 Zn185 1.899 . S
O184 C192 1.284 . S
Zn185 O184 1.899 . S
Zn185 O186 2.032 . S
Zn185 O189 2.086 . S
Zn185 O194 1.977 . S
O186 Zn185 2.032 . S
O186 C190 1.278 . S
C187 O188 1.203 . S
C187 O194 1.267 . S
O188 C187 1.203 . S
O189 C182 1.185 . S
O189 Zn185 2.086 . S
C190 O186 1.278 . S
C190 O191 1.211 . S
O191 C190 1.211 . S
C192 O184 1.284 . S
C192 O193 1.273 . S
O193 C192 1.273 . S
O194 Zn185 1.977 . S
O194 C187 1.267 . S
C195 O196 1.160 . S
C195 O202 1.185 . S
O196 C195 1.160 . S
O197 Zn198 1.899 . S
O197 C205 1.284 . S
Zn198 O197 1.899 . S
Zn198 O199 2.032 . S
Zn198 O202 2.086 . S
Zn198 O207 1.977 . S
O199 Zn198 2.032 . S
O199 C203 1.278 . S
C200 O201 1.203 . S
C200 O207 1.267 . S
O201 C200 1.203 . S
O202 C195 1.185 . S
O202 Zn198 2.086 . S
C203 O199 1.278 . S
C203 O204 1.211 . S
O204 C203 1.211 . S
C205 O197 1.284 . S
C205 O206 1.273 . S
O206 C205 1.273 . S
O207 Zn198 1.977 . S
O207 C200 1.267 . S
C208 O209 1.160 . S
C208 O215 1.185 . S
O209 C208 1.160 . S
O210 Zn211 1.899 . S
O210 C218 1.284 . S
Zn211 O210 1.899 . S
Zn211 O212 2.032 . S
Zn211 O215 2.086 . S
Zn211 O220 1.977 1_545 S
O212 Zn211 2.032 . S
O212 C216 1.278 . S
C213 O214 1.203 . S
C213 O220 1.267 . S
O214 C213 1.203 . S
O215 C208 1.185 . S
O215 Zn211 2.086 . S
C216 O212 1.278 . S
C216 O217 1.211 1_545 S
O217 C216 1.211 1_565 S
C218 O210 1.284 . S
C218 O219 1.273 . S
O219 C218 1.273 . S
O220 Zn211 1.977 1_565 S
O220 C213 1.267 . S
C221 O222 1.160 . S
C221 O228 1.185 . S
O222 C221 1.160 . S
O223 Zn224 1.899 . S
O223 C231 1.284 . S
Zn224 O223 1.899 . S
Zn224 O225 2.032 . S
Zn224 O228 2.086 . S
Zn224 O233 1.977 . S
O225 Zn224 2.032 . S
O225 C229 1.278 . S
C226 O227 1.203 . S
C226 O233 1.267 . S
O227 C226 1.203 . S
O228 C221 1.185 . S
O228 Zn224 2.086 . S
C229 O225 1.278 . S
C229 O230 1.211 . S
O230 C229 1.211 . S
C231 O223 1.284 . S
C231 O232 1.273 . S
O232 C231 1.273 . S
O233 Zn224 1.977 . S
O233 C226 1.267 . S
C234 O235 1.160 . S
C234 O241 1.185 . S
O235 C234 1.160 . S
O236 Zn237 1.899 . S
O236 C244 1.284 . S
Zn237 O236 1.899 . S
Zn237 O238 2.032 . S
Zn237 O241 2.086 . S
Zn237 O246 1.977 . S
O238 Zn237 2.032 . S
O238 C242 1.278 . S
C239 O240 1.203 . S
C239 O246 1.267 . S
O240 C239 1.203 . S
O241 C234 1.185 . S
O241 Zn237 2.086 . S
C242 O238 1.278 . S
C242 O243 1.211 . S
O243 C242 1.211 . S
C244 O236 1.284 . S
C244 O245 1.273 . S
O245 C244 1.273 . S
O246 Zn237 1.977 . S
O246 C239 1.267 . S
C247 O248 1.160 . S
C247 O254 1.185 . S
O248 C247 1.160 . S
O249 Zn250 1.899 . S
O249 C257 1.284 . S
Zn250 O249 1.899 . S
Zn250 O251 2.032 . S
Zn250 O254 2.086 . S
Zn250 O259 1.977 1_565 S
O251 Zn250 2.032 . S
O251 C255 1.278 1_565 S
C252 O253 1.203 . S
C252 O259 1.267 . S
O253 C252 1.203 . S
O254 C247 1.185 . S
O254 Zn250 2.086 . S
C255 O251 1.278 1_545 S
C255 O256 1.211 . S
O256 C255 1.211 . S
C257 O249 1.284 . S
C257 O258 1.273 1_565 S
O258 C257 1.273 1_545 S
O259 Zn250 1.977 1_545 S
O259 C252 1.267 . S
C260 O261 1.160 . S
C260 O267 1.185 1_554 S
O261 C260 1.160 . S
O262 Zn263 1.899 . S
O262 C270 1.284 . S
Zn263 O262 1.899 . S
Zn263 O264 2.032 1_554 S
Zn263 O267 2.086 1_554 S
Zn263 O272 1.977 1_554 S
O264 Zn263 2.032 1_556 S
O264 C268 1.278 . S
C265 O266 1.200 1_556 S
C265 O272 1.268 . S
O266 C265 1.200 1_554 S
O267 C260 1.185 1_556 S
O267 Zn263 2.086 1_556 S
C268 O264 1.278 . S
C268 O269 1.211 . S
O269 C268 1.211 . S
C270 O262 1.284 . S
C270 O271 1.273 . S
O271 C270 1.273 . S
O272 Zn263 1.977 1_556 S
O272 C265 1.268 . S
C273 O274 1.160 . S
C273 O280 1.185 . S
O274 C273 1.160 . S
O275 Zn276 1.899 . S
O275 C283 1.284 . S
Zn276 O275 1.899 . S
Zn276 O277 2.032 . S
Zn276 O280 2.086 . S
Zn276 O285 1.977 . S
O277 Zn276 2.032 . S
O277 C281 1.278 . S
C278 O279 1.203 . S
C278 O285 1.267 . S
O279 C278 1.203 . S
O280 C273 1.185 . S
O280 Zn276 2.086 . S
C281 O277 1.278 . S
C281 O282 1.211 . S
O282 C281 1.211 . S
C283 O275 1.284 . S
C283 O284 1.273 . S
O284 C283 1.273 . S
O285 Zn276 1.977 . S
O285 C278 1.267 . S
C286 O287 1.160 . S
C286 O293 1.185 . S
O287 C286 1.160 . S
O288 Zn289 1.899 . S
O288 C296 1.284 . S
Zn289 O288 1.899 . S
Zn289 O290 2.032 . S
Zn289 O293 2.086 . S
Zn289 O298 1.977 . S
O290 Zn289 2.032 . S
O290 C294 1.278 . S
C291 O292 1.203 . S
C291 O298 1.267 . S
O292 C291 1.203 . S
O293 C286 1.185 . S
O293 Zn289 2.086 . S
C294 O290 1.278 . S
C294 O295 1.211 . S
O295 C294 1.211 . S
C296 O288 1.284 . S
C296 O297 1.273 . S
O297 C296 1.273 . S
O298 Zn289 1.977 . S
O298 C291 1.267 . S
C299 O300 1.160 . S
C299 O306 1.185 . S
O300 C299 1.160 . S
O301 Zn302 1.899 . S
O301 C309 1.284 . S
Zn302 O301 1.899 . S
Zn302 O303 2.032 . S
Zn302 O306 2.086 . S
Zn302 O311 1.977 . S
O303 Zn302 2.032 . S
O303 C307 1.278 . S
C304 O305 1.203 . S
C304 O311 1.267 . S
O305 C304 1.203 . S
O306 C299 1.185 . S
O306 Zn302 2.086 . S
C307 O303 1.278 . S
C307 O308 1.211 . S
O308 C307 1.211 . S
C309 O301 1.284 . S
C309 O310 1.273 . S
O310 C309 1.273 . S
O311 Zn302 1.977 . S
O311 C304 1.267 . S
Zn312 O318 1.969 . S
Zn312 O319 1.965 1_565 S
Zn312 O323 2.024 . S
Zn312 O328 1.969 . S
Zn313 O320 1.969 1_654 S
Zn313 O326 1.969 1_554 S
Zn313 O327 1.965 . S
Zn313 O329 2.024 1_655 S
C314 O315 1.229 . S
C314 O323 1.058 . S
O315 C314 1.229 . S
C316 O317 1.229 1_454 S
C316 O329 1.058 . S
O317 C316 1.229 1_656 S
O318 Zn312 1.969 . S
O318 C321 1.267 . S
O319 Zn312 1.965 1_545 S
O319 C330 1.260 1_554 S
O320 Zn313 1.969 1_456 S
O320 C330 1.258 . S
C321 O318 1.267 . S
C321 O322 1.228 . S
O322 C321 1.228 . S
O323 Zn312 2.024 . S
O323 C314 1.058 . S
C324 O325 1.228 . S
C324 O326 1.267 1_554 S
O325 C324 1.228 . S
O326 Zn313 1.969 1_556 S
O326 C324 1.267 1_556 S
O327 Zn313 1.965 . S
O327 C331 1.249 1_655 S
O328 Zn312 1.969 . S
O328 C331 1.277 1_565 S
O329 Zn313 2.024 1_455 S
O329 C316 1.058 . S
C330 O319 1.260 1_556 S
C330 O320 1.258 . S
C331 O327 1.249 1_455 S
C331 O328 1.277 1_545 S
Zn332 O338 1.969 . S
Zn332 O339 1.965 . S
Zn332 O343 2.024 . S
Zn332 O348 1.969 . S
Zn333 O340 1.969 . S
Zn333 O346 1.969 . S
Zn333 O347 1.965 . S
Zn333 O349 2.024 . S
C334 O335 1.229 . S
C334 O343 1.058 . S
O335 C334 1.229 . S
C336 O337 1.229 . S
C336 O349 1.058 . S
O337 C336 1.229 . S
O338 Zn332 1.969 . S
O338 C341 1.267 . S
O339 Zn332 1.965 . S
O339 C350 1.260 . S
O340 Zn333 1.969 . S
O340 C350 1.258 . S
C341 O338 1.267 . S
C341 O342 1.228 . S
O342 C341 1.228 . S
O343 Zn332 2.024 . S
O343 C334 1.058 . S
C344 O345 1.228 . S
C344 O346 1.267 . S
O345 C344 1.228 . S
O346 Zn333 1.969 . S
O346 C344 1.267 . S
O347 Zn333 1.965 . S
O347 C351 1.260 . S
O348 Zn332 1.969 . S
O348 C351 1.258 . S
O349 Zn333 2.024 . S
O349 C336 1.058 . S
C350 O339 1.260 . S
C350 O340 1.258 . S
C351 O347 1.260 . S
C351 O348 1.258 . S
Zn352 O358 1.969 . S
Zn352 O359 1.965 . S
Zn352 O363 2.024 . S
Zn352 O368 1.969 . S
Zn353 O360 1.969 1_565 S
Zn353 O366 1.969 . S
Zn353 O367 1.965 1_565 S
Zn353 O369 2.024 . S
C354 O355 1.229 . S
C354 O363 1.058 . S
O355 C354 1.229 . S
C356 O357 1.229 . S
C356 O369 1.058 . S
O357 C356 1.229 . S
O358 Zn352 1.969 . S
O358 C361 1.267 . S
O359 Zn352 1.965 . S
O359 C370 1.260 . S
O360 Zn353 1.969 1_545 S
O360 C370 1.258 . S
C361 O358 1.267 . S
C361 O362 1.228 . S
O362 C361 1.228 . S
O363 Zn352 2.024 . S
O363 C354 1.058 . S
C364 O365 1.228 . S
C364 O366 1.267 . S
O365 C364 1.228 . S
O366 Zn353 1.969 . S
O366 C364 1.267 . S
O367 Zn353 1.965 1_545 S
O367 C371 1.260 . S
O368 Zn352 1.969 . S
O368 C371 1.258 . S
O369 Zn353 2.024 . S
O369 C356 1.058 . S
C370 O359 1.260 . S
C370 O360 1.258 . S
C371 O367 1.260 . S
C371 O368 1.258 . S
Zn372 O378 1.969 . S
Zn372 O379 1.965 . S
Zn372 O383 2.024 . S
Zn372 O388 1.969 . S
Zn373 O380 1.969 . S
Zn373 O386 1.969 . S
Zn373 O387 1.965 . S
Zn373 O389 2.024 . S
C374 O375 1.229 . S
C374 O383 1.058 . S
O375 C374 1.229 . S
C376 O377 1.229 . S
C376 O389 1.058 . S
O377 C376 1.229 . S
O378 Zn372 1.969 . S
O378 C381 1.267 . S
O379 Zn372 1.965 . S
O379 C390 1.260 . S
O380 Zn373 1.969 . S
O380 C390 1.258 . S
C381 O378 1.267 . S
C381 O382 1.228 . S
O382 C381 1.228 . S
O383 Zn372 2.024 . S
O383 C374 1.058 . S
C384 O385 1.228 . S
C384 O386 1.267 . S
O385 C384 1.228 . S
O386 Zn373 1.969 . S
O386 C384 1.267 . S
O387 Zn373 1.965 . S
O387 C391 1.260 . S
O388 Zn372 1.969 . S
O388 C391 1.258 . S
O389 Zn373 2.024 . S
O389 C376 1.058 . S
C390 O379 1.260 . S
C390 O380 1.258 . S
C391 O387 1.260 . S
C391 O388 1.258 . S
Zn392 O398 1.969 . S
Zn392 O399 1.965 1_455 S
Zn392 O403 2.024 1_565 S
Zn392 O408 1.969 1_565 S
Zn393 O400 1.969 1_455 S
Zn393 O406 1.969 1_455 S
Zn393 O407 1.965 . S
Zn393 O409 2.024 . S
C394 O395 1.229 1_545 S
C394 O403 1.058 . S
O395 C394 1.229 1_565 S
C396 O397 1.229 . S
C396 O409 1.058 1_655 S
O397 C396 1.229 . S
O398 Zn392 1.969 . S
O398 C401 1.267 . S
O399 Zn392 1.965 1_655 S
O399 C410 1.244 1_565 S
O400 Zn393 1.969 1_655 S
O400 C410 1.279 . S
C401 O398 1.267 . S
C401 O402 1.228 . S
O402 C401 1.228 . S
O403 Zn392 2.024 1_545 S
O403 C394 1.058 . S
C404 O405 1.228 . S
C404 O406 1.267 1_455 S
O405 C404 1.228 . S
O406 Zn393 1.969 1_655 S
O406 C404 1.267 1_655 S
O407 Zn393 1.965 . S
O407 C411 1.260 . S
O408 Zn392 1.969 1_545 S
O408 C411 1.258 . S
O409 Zn393 2.024 . S
O409 C396 1.058 1_455 S
C410 O399 1.244 1_545 S
C410 O400 1.279 . S
C411 O407 1.260 . S
C411 O408 1.258 . S
Zn412 O418 1.969 . S
Zn412 O419 1.965 . S
Zn412 O423 2.024 . S
Zn412 O428 1.969 . S
Zn413 O420 1.969 . S
Zn413 O426 1.969 . S
Zn413 O427 1.965 . S
Zn413 O429 2.024 . S
C414 O415 1.229 . S
C414 O423 1.058 . S
O415 C414 1.229 . S
C416 O417 1.229 . S
C416 O429 1.058 . S
O417 C416 1.229 . S
O418 Zn412 1.969 . S
O418 C421 1.267 . S
O419 Zn412 1.965 . S
O419 C430 1.260 . S
O420 Zn413 1.969 . S
O420 C430 1.258 . S
C421 O418 1.267 . S
C421 O422 1.228 . S
O422 C421 1.228 . S
O423 Zn412 2.024 . S
O423 C414 1.058 . S
C424 O425 1.228 . S
C424 O426 1.267 . S
O425 C424 1.228 . S
O426 Zn413 1.969 . S
O426 C424 1.267 . S
O427 Zn413 1.965 . S
O427 C431 1.260 . S
O428 Zn412 1.969 . S
O428 C431 1.258 . S
O429 Zn413 2.024 . S
O429 C416 1.058 . S
C430 O419 1.260 . S
C430 O420 1.258 . S
C431 O427 1.260 . S
C431 O428 1.258 . S
Zn432 O438 1.969 1_554 S
Zn432 O439 1.965 1_545 S
Zn432 O443 2.024 . S
Zn432 O448 1.969 . S
Zn433 O440 1.969 . S
Zn433 O446 1.969 . S
Zn433 O447 1.965 1_565 S
Zn433 O449 2.033 . S
C434 O435 1.229 . S
C434 O443 1.058 . S
O435 C434 1.229 . S
C436 O437 1.229 . S
C436 O449 1.083 . S
O437 C436 1.229 . S
O438 Zn432 1.969 1_556 S
O438 C441 1.267 . S
O439 Zn432 1.965 1_565 S
O439 C450 1.260 . S
O440 Zn433 1.969 . S
O440 C450 1.258 . S
C441 O438 1.267 . S
C441 O442 1.228 . S
O442 C441 1.228 . S
O443 Zn432 2.024 . S
O443 C434 1.058 . S
C444 O445 1.199 1_565 S
C444 O446 1.288 . S
O445 C444 1.199 1_545 S
O446 Zn433 1.969 . S
O446 C444 1.288 . S
O447 Zn433 1.965 1_545 S
O447 C451 1.260 . S
O448 Zn432 1.969 . S
O448 C451 1.258 . S
O449 Zn433 2.033 . S
O449 C436 1.083 . S
C450 O439 1.260 . S
C450 O440 1.258 . S
C451 O447 1.260 . S
C451 O448 1.258 . S
Zn452 O458 1.969 . S
Zn452 O459 1.965 . S
Zn452 O463 2.024 . S
Zn452 O468 1.969 . S
Zn453 O460 1.969 . S
Zn453 O466 1.969 . S
Zn453 O467 1.965 . S
Zn453 O469 2.024 . S
C454 O455 1.229 . S
C454 O463 1.058 . S
O455 C454 1.229 . S
C456 O457 1.229 . S
C456 O469 1.058 . S
O457 C456 1.229 . S
O458 Zn452 1.969 . S
O458 C461 1.267 . S
O459 Zn452 1.965 . S
O459 C470 1.260 . S
O460 Zn453 1.969 . S
O460 C470 1.258 . S
C461 O458 1.267 . S
C461 O462 1.228 . S
O462 C461 1.228 . S
O463 Zn452 2.024 . S
O463 C454 1.058 . S
C464 O465 1.228 . S
C464 O466 1.267 . S
O465 C464 1.228 . S
O466 Zn453 1.969 . S
O466 C464 1.267 . S
O467 Zn453 1.965 . S
O467 C471 1.260 . S
O468 Zn452 1.969 . S
O468 C471 1.258 . S
O469 Zn453 2.024 . S
O469 C456 1.058 . S
C470 O459 1.260 . S
C470 O460 1.258 . S
C471 O467 1.260 . S
C471 O468 1.258 . S
Zn472 O478 1.969 . S
Zn472 O479 1.965 . S
Zn472 O483 2.024 . S
Zn472 O488 1.969 . S
Zn473 O480 1.969 1_556 S
Zn473 O486 1.969 1_556 S
Zn473 O487 1.965 1_556 S
Zn473 O489 2.024 . S
C474 O475 1.229 . S
C474 O483 1.058 . S
O475 C474 1.229 . S
C476 O477 1.229 . S
C476 O489 1.058 . S
O477 C476 1.229 . S
O478 Zn472 1.969 . S
O478 C481 1.267 . S
O479 Zn472 1.965 . S
O479 C490 1.260 . S
O480 Zn473 1.969 1_554 S
O480 C490 1.258 . S
C481 O478 1.267 . S
C481 O482 1.228 . S
O482 C481 1.228 . S
O483 Zn472 2.024 . S
O483 C474 1.058 . S
C484 O485 1.228 . S
C484 O486 1.267 1_556 S
O485 C484 1.228 . S
O486 Zn473 1.969 1_554 S
O486 C484 1.267 1_554 S
O487 Zn473 1.965 1_554 S
O487 C491 1.260 . S
O488 Zn472 1.969 . S
O488 C491 1.258 . S
O489 Zn473 2.024 . S
O489 C476 1.058 . S
C490 O479 1.260 . S
C490 O480 1.258 . S
C491 O487 1.260 . S
C491 O488 1.258 . S
Zn492 O498 1.969 . S
Zn492 O499 1.965 . S
Zn492 O503 2.024 . S
Zn492 O508 1.969 . S
Zn493 O500 1.969 . S
Zn493 O506 1.969 . S
Zn493 O507 1.965 . S
Zn493 O509 2.024 . S
C494 O495 1.229 . S
C494 O503 1.058 . S
O495 C494 1.229 . S
C496 O497 1.229 . S
C496 O509 1.058 . S
O497 C496 1.229 . S
O498 Zn492 1.969 . S
O498 C501 1.267 . S
O499 Zn492 1.965 . S
O499 C510 1.260 . S
O500 Zn493 1.969 . S
O500 C510 1.258 . S
C501 O498 1.267 . S
C501 O502 1.228 . S
O502 C501 1.228 . S
O503 Zn492 2.024 . S
O503 C494 1.058 . S
C504 O505 1.228 . S
C504 O506 1.267 . S
O505 C504 1.228 . S
O506 Zn493 1.969 . S
O506 C504 1.267 . S
O507 Zn493 1.965 . S
O507 C511 1.260 . S
O508 Zn492 1.969 . S
O508 C511 1.258 . S
O509 Zn493 2.024 . S
O509 C496 1.058 . S
C510 O499 1.260 . S
C510 O500 1.258 . S
C511 O507 1.260 . S
C511 O508 1.258 . S
Zn512 O518 1.969 . S
Zn512 O519 1.965 . S
Zn512 O523 2.024 . S
Zn512 O528 1.969 . S
Zn513 O520 1.969 1_655 S
Zn513 O526 1.969 . S
Zn513 O527 1.965 1_655 S
Zn513 O529 2.024 . S
C514 O515 1.229 . S
C514 O523 1.058 . S
O515 C514 1.229 . S
C516 O517 1.229 . S
C516 O529 1.058 . S
O517 C516 1.229 . S
O518 Zn512 1.969 . S
O518 C521 1.267 . S
O519 Zn512 1.965 . S
O519 C530 1.260 . S
O520 Zn513 1.969 1_455 S
O520 C530 1.258 . S
C521 O518 1.267 . S
C521 O522 1.228 . S
O522 C521 1.228 . S
O523 Zn512 2.024 . S
O523 C514 1.058 . S
C524 O525 1.228 . S
C524 O526 1.267 . S
O525 C524 1.228 . S
O526 Zn513 1.969 . S
O526 C524 1.267 . S
O527 Zn513 1.965 1_455 S
O527 C531 1.260 . S
O528 Zn512 1.969 . S
O528 C531 1.258 . S
O529 Zn513 2.024 . S
O529 C516 1.058 . S
C530 O519 1.260 . S
C530 O520 1.258 . S
C531 O527 1.260 . S
C531 O528 1.258 . S
Zn532 O538 1.969 . S
Zn532 O539 1.965 . S
Zn532 O543 2.024 . S
Zn532 O548 1.969 . S
Zn533 O540 1.969 . S
Zn533 O546 1.969 . S
Zn533 O547 1.965 . S
Zn533 O549 2.024 . S
C534 O535 1.229 . S
C534 O543 1.058 . S
O535 C534 1.229 . S
C536 O537 1.229 . S
C536 O549 1.058 . S
O537 C536 1.229 . S
O538 Zn532 1.969 . S
O538 C541 1.267 . S
O539 Zn532 1.965 . S
O539 C550 1.260 . S
O540 Zn533 1.969 . S
O540 C550 1.258 . S
C541 O538 1.267 . S
C541 O542 1.228 . S
O542 C541 1.228 . S
O543 Zn532 2.024 . S
O543 C534 1.058 . S
C544 O545 1.228 . S
C544 O546 1.267 . S
O545 C544 1.228 . S
O546 Zn533 1.969 . S
O546 C544 1.267 . S
O547 Zn533 1.965 . S
O547 C551 1.260 . S
O548 Zn532 1.969 . S
O548 C551 1.258 . S
O549 Zn533 2.024 . S
O549 C536 1.058 . S
C550 O539 1.260 . S
C550 O540 1.258 . S
C551 O547 1.260 . S
C551 O548 1.258 . S
Zn552 O558 1.969 . S
Zn552 O559 1.965 . S
Zn552 O563 2.024 . S
Zn552 O568 1.969 . S
Zn553 O560 1.969 . S
Zn553 O566 1.969 . S
Zn553 O567 1.965 . S
Zn553 O569 2.024 . S
C554 O555 1.229 . S
C554 O563 1.058 . S
O555 C554 1.229 . S
C556 O557 1.229 . S
C556 O569 1.058 . S
O557 C556 1.229 . S
O558 Zn552 1.969 . S
O558 C561 1.267 . S
O559 Zn552 1.965 . S
O559 C570 1.260 . S
O560 Zn553 1.969 . S
O560 C570 1.258 . S
C561 O558 1.267 . S
C561 O562 1.228 . S
O562 C561 1.228 . S
O563 Zn552 2.024 . S
O563 C554 1.058 . S
C564 O565 1.228 . S
C564 O566 1.267 . S
O565 C564 1.228 . S
O566 Zn553 1.969 . S
O566 C564 1.267 . S
O567 Zn553 1.965 . S
O567 C571 1.260 . S
O568 Zn552 1.969 . S
O568 C571 1.258 . S
O569 Zn553 2.024 . S
O569 C556 1.058 . S
C570 O559 1.260 . S
C570 O560 1.258 . S
C571 O567 1.260 . S
C571 O568 1.258 . S
Zn572 O578 1.969 . S
Zn572 O579 1.965 . S
Zn572 O583 2.024 . S
Zn572 O588 1.969 . S
Zn573 O580 1.969 . S
Zn573 O586 1.969 . S
Zn573 O587 1.965 . S
Zn573 O589 2.024 . S
C574 O575 1.229 . S
C574 O583 1.058 . S
O575 C574 1.229 . S
C576 O577 1.229 . S
C576 O589 1.058 . S
O577 C576 1.229 . S
O578 Zn572 1.969 . S
O578 C581 1.267 . S
O579 Zn572 1.965 . S
O579 C590 1.260 . S
O580 Zn573 1.969 . S
O580 C590 1.258 . S
C581 O578 1.267 . S
C581 O582 1.228 . S
O582 C581 1.228 . S
O583 Zn572 2.024 . S
O583 C574 1.058 . S
C584 O585 1.228 . S
C584 O586 1.267 . S
O585 C584 1.228 . S
O586 Zn573 1.969 . S
O586 C584 1.267 . S
O587 Zn573 1.965 . S
O587 C591 1.260 . S
O588 Zn572 1.969 . S
O588 C591 1.258 . S
O589 Zn573 2.024 . S
O589 C576 1.058 . S
C590 O579 1.260 . S
C590 O580 1.258 . S
C591 O587 1.260 . S
C591 O588 1.258 . S
Zn592 O598 1.969 . S
Zn592 O599 1.965 . S
Zn592 O603 2.024 . S
Zn592 O608 1.969 . S
Zn593 O600 1.969 . S
Zn593 O606 1.969 . S
Zn593 O607 1.965 . S
Zn593 O609 2.024 . S
C594 O595 1.229 . S
C594 O603 1.058 . S
O595 C594 1.229 . S
C596 O597 1.229 . S
C596 O609 1.058 . S
O597 C596 1.229 . S
O598 Zn592 1.969 . S
O598 C601 1.267 . S
O599 Zn592 1.965 . S
O599 C610 1.260 . S
O600 Zn593 1.969 . S
O600 C610 1.258 . S
C601 O598 1.267 . S
C601 O602 1.228 . S
O602 C601 1.228 . S
O603 Zn592 2.024 . S
O603 C594 1.058 . S
C604 O605 1.228 . S
C604 O606 1.267 . S
O605 C604 1.228 . S
O606 Zn593 1.969 . S
O606 C604 1.267 . S
O607 Zn593 1.965 . S
O607 C611 1.260 . S
O608 Zn592 1.969 . S
O608 C611 1.258 . S
O609 Zn593 2.024 . S
O609 C596 1.058 . S
C610 O599 1.260 . S
C610 O600 1.258 . S
C611 O607 1.260 . S
C611 O608 1.258 . S
Zn612 O618 1.969 . S
Zn612 O619 1.965 . S
Zn612 O623 2.024 1_655 S
Zn612 O628 1.969 1_655 S
Zn613 O620 1.969 1_554 S
Zn613 O626 1.969 1_554 S
Zn613 O627 1.965 . S
Zn613 O629 2.024 . S
C614 O615 1.229 . S
C614 O623 1.058 . S
O615 C614 1.229 . S
C616 O617 1.229 . S
C616 O629 1.058 1_556 S
O617 C616 1.229 . S
O618 Zn612 1.969 . S
O618 C621 1.267 . S
O619 Zn612 1.965 . S
O619 C630 1.260 1_654 S
O620 Zn613 1.969 1_556 S
O620 C630 1.258 . S
C621 O618 1.267 . S
C621 O622 1.228 . S
O622 C621 1.228 . S
O623 Zn612 2.024 1_455 S
O623 C614 1.058 . S
C624 O625 1.228 . S
C624 O626 1.267 1_554 S
O625 C624 1.228 . S
O626 Zn613 1.969 1_556 S
O626 C624 1.267 1_556 S
O627 Zn613 1.965 . S
O627 C631 1.260 . S
O628 Zn612 1.969 1_455 S
O628 C631 1.258 . S
O629 Zn613 2.024 . S
O629 C616 1.058 1_554 S
C630 O619 1.260 1_456 S
C630 O620 1.258 . S
C631 O627 1.260 . S
C631 O628 1.258 . S
H632 C638 0.930 . S
H633 C642 0.930 . S
H634 C647 0.929 . S
H635 C645 0.929 . S
H636 C640 0.929 . S
H637 C646 0.929 . S
C638 H632 0.930 . S
C638 C639 1.367 . S
C638 C646 1.378 . S
C639 C638 1.367 . S
C639 C647 1.433 1_655 S
C640 H636 0.929 . S
C640 C642 1.378 . S
C640 C644 1.350 . S
C641 C644 1.463 . S
C641 C646 1.350 1_455 S
C641 N649 1.427 . S
C642 H633 0.930 . S
C642 C640 1.378 . S
C642 C643 1.367 . S
C643 C642 1.367 . S
C643 C645 1.433 1_456 S
C644 C640 1.350 . S
C644 C641 1.463 . S
C644 N648 1.427 1_455 S
C645 H635 0.929 . S
C645 C643 1.433 1_654 S
C645 N648 1.384 1_554 S
C646 H637 0.929 . S
C646 C638 1.378 . S
C646 C641 1.350 1_655 S
C647 H634 0.929 . S
C647 C639 1.433 1_455 S
C647 N649 1.384 . S
N648 C644 1.427 1_655 S
N648 C645 1.384 1_556 S
N649 C641 1.427 . S
N649 C647 1.384 . S
H650 C656 0.930 . S
H651 C660 0.930 . S
H652 C665 0.929 . S
H653 C663 0.929 . S
H654 C658 0.929 . S
H655 C664 0.929 . S
C656 H650 0.930 . S
C656 C657 1.367 . S
C656 C664 1.378 . S
C657 C656 1.367 . S
C657 C665 1.433 . S
C658 H654 0.929 . S
C658 C660 1.378 . S
C658 C662 1.350 . S
C659 C662 1.463 . S
C659 C664 1.350 . S
C659 N667 1.427 . S
C660 H651 0.930 . S
C660 C658 1.378 . S
C660 C661 1.367 . S
C661 C660 1.367 . S
C661 C663 1.433 . S
C662 C658 1.350 . S
C662 C659 1.463 . S
C662 N666 1.427 . S
C663 H653 0.929 . S
C663 C661 1.433 . S
C663 N666 1.384 . S
C664 H655 0.929 . S
C664 C656 1.378 . S
C664 C659 1.350 . S
C665 H652 0.929 . S
C665 C657 1.433 . S
C665 N667 1.384 . S
N666 C662 1.427 . S
N666 C663 1.384 . S
N667 C659 1.427 . S
N667 C665 1.384 . S
H668 C674 0.930 . S
H669 C678 0.930 . S
H670 C683 0.929 . S
H671 C681 0.929 . S
H672 C676 0.929 . S
H673 C682 0.929 . S
C674 H668 0.930 . S
C674 C675 1.367 . S
C674 C682 1.378 . S
C675 C674 1.367 . S
C675 C683 1.433 . S
C676 H672 0.929 . S
C676 C678 1.378 . S
C676 C680 1.350 . S
C677 C680 1.463 . S
C677 C682 1.350 . S
C677 N685 1.427 . S
C678 H669 0.930 . S
C678 C676 1.378 . S
C678 C679 1.367 . S
C679 C678 1.367 . S
C679 C681 1.433 . S
C680 C676 1.350 . S
C680 C677 1.463 . S
C680 N684 1.427 . S
C681 H671 0.929 . S
C681 C679 1.433 . S
C681 N684 1.384 . S
C682 H673 0.929 . S
C682 C674 1.378 . S
C682 C677 1.350 . S
C683 H670 0.929 . S
C683 C675 1.433 . S
C683 N685 1.384 . S
N684 C680 1.427 . S
N684 C681 1.384 . S
N685 C677 1.427 . S
N685 C683 1.384 . S
H686 C692 0.930 . S
H687 C696 0.930 . S
H688 C701 0.929 . S
H689 C699 0.929 . S
H690 C694 0.929 . S
H691 C700 0.929 . S
C692 H686 0.930 . S
C692 C693 1.367 . S
C692 C700 1.378 . S
C693 C692 1.367 . S
C693 C701 1.433 . S
C694 H690 0.929 . S
C694 C696 1.378 . S
C694 C698 1.350 . S
C695 C698 1.463 . S
C695 C700 1.350 . S
C695 N703 1.427 . S
C696 H687 0.930 . S
C696 C694 1.378 . S
C696 C697 1.367 . S
C697 C696 1.367 . S
C697 C699 1.433 . S
C698 C694 1.350 . S
C698 C695 1.463 . S
C698 N702 1.427 . S
C699 H689 0.929 . S
C699 C697 1.433 . S
C699 N702 1.384 . S
C700 H691 0.929 . S
C700 C692 1.378 . S
C700 C695 1.350 . S
C701 H688 0.929 . S
C701 C693 1.433 . S
C701 N703 1.384 . S
N702 C698 1.427 . S
N702 C699 1.384 . S
N703 C695 1.427 . S
N703 C701 1.384 . S
H704 C710 0.930 . S
H705 C714 0.930 . S
H706 C719 0.929 . S
H707 C717 0.907 1_655 S
H708 C712 0.929 . S
H709 C718 0.929 . S
C710 H704 0.930 . S
C710 C711 1.367 1_655 S
C710 C718 1.378 . S
C711 C710 1.367 1_455 S
C711 C719 1.433 . S
C712 H708 0.929 . S
C712 C714 1.378 . S
C712 C716 1.350 . S
C713 C716 1.463 . S
C713 C718 1.350 1_455 S
C713 N721 1.427 . S
C714 H705 0.930 . S
C714 C712 1.378 . S
C714 C715 1.367 . S
C715 C714 1.367 . S
C715 C717 1.456 . S
C716 C712 1.350 . S
C716 C713 1.463 . S
C716 N720 1.427 1_455 S
C717 H707 0.907 1_455 S
C717 C715 1.456 . S
C717 N720 1.385 1_455 S
C718 H709 0.929 . S
C718 C710 1.378 . S
C718 C713 1.350 1_655 S
C719 H706 0.929 . S
C719 C711 1.433 . S
C719 N721 1.384 . S
N720 C716 1.427 1_655 S
N720 C717 1.385 1_655 S
N721 C713 1.427 . S
N721 C719 1.384 . S
H722 C728 0.930 . S
H723 C732 0.930 . S
H724 C737 0.929 . S
H725 C735 0.929 . S
H726 C730 0.929 . S
H727 C736 0.929 . S
C728 H722 0.930 . S
C728 C729 1.367 . S
C728 C736 1.378 . S
C729 C728 1.367 . S
C729 C737 1.433 . S
C730 H726 0.929 . S
C730 C732 1.378 . S
C730 C734 1.350 . S
C731 C734 1.463 . S
C731 C736 1.350 . S
C731 N739 1.427 . S
C732 H723 0.930 . S
C732 C730 1.378 . S
C732 C733 1.367 . S
C733 C732 1.367 . S
C733 C735 1.433 . S
C734 C730 1.350 . S
C734 C731 1.463 . S
C734 N738 1.427 . S
C735 H725 0.929 . S
C735 C733 1.433 . S
C735 N738 1.384 . S
C736 H727 0.929 . S
C736 C728 1.378 . S
C736 C731 1.350 . S
C737 H724 0.929 . S
C737 C729 1.433 . S
C737 N739 1.384 . S
N738 C734 1.427 . S
N738 C735 1.384 . S
N739 C731 1.427 . S
N739 C737 1.384 . S
H740 C746 0.930 . S
H741 C750 0.930 . S
H742 C755 0.929 . S
H743 C753 0.929 . S
H744 C748 0.929 . S
H745 C754 0.929 . S
C746 H740 0.930 . S
C746 C747 1.367 . S
C746 C754 1.378 . S
C747 C746 1.367 . S
C747 C755 1.433 . S
C748 H744 0.929 . S
C748 C750 1.378 . S
C748 C752 1.350 . S
C749 C752 1.463 . S
C749 C754 1.350 . S
C749 N757 1.427 . S
C750 H741 0.930 . S
C750 C748 1.378 . S
C750 C751 1.367 . S
C751 C750 1.367 . S
C751 C753 1.433 . S
C752 C748 1.350 . S
C752 C749 1.463 . S
C752 N756 1.427 . S
C753 H743 0.929 . S
C753 C751 1.433 . S
C753 N756 1.384 . S
C754 H745 0.929 . S
C754 C746 1.378 . S
C754 C749 1.350 . S
C755 H742 0.929 . S
C755 C747 1.433 . S
C755 N757 1.384 . S
N756 C752 1.427 . S
N756 C753 1.384 . S
N757 C749 1.427 . S
N757 C755 1.384 . S
H758 C764 0.930 . S
H759 C768 0.930 . S
H760 C773 0.929 . S
H761 C771 0.929 . S
H762 C766 0.929 . S
H763 C772 0.929 . S
C764 H758 0.930 . S
C764 C765 1.367 . S
C764 C772 1.378 . S
C765 C764 1.367 . S
C765 C773 1.433 . S
C766 H762 0.929 . S
C766 C768 1.378 . S
C766 C770 1.350 . S
C767 C770 1.463 . S
C767 C772 1.350 . S
C767 N775 1.427 . S
C768 H759 0.930 . S
C768 C766 1.378 . S
C768 C769 1.367 . S
C769 C768 1.367 . S
C769 C771 1.433 . S
C770 C766 1.350 . S
C770 C767 1.463 . S
C770 N774 1.427 . S
C771 H761 0.929 . S
C771 C769 1.433 . S
C771 N774 1.384 . S
C772 H763 0.929 . S
C772 C764 1.378 . S
C772 C767 1.350 . S
C773 H760 0.929 . S
C773 C765 1.433 . S
C773 N775 1.384 . S
N774 C770 1.427 . S
N774 C771 1.384 . S
N775 C767 1.427 . S
N775 C773 1.384 . S
H776 C782 0.930 1_565 S
H777 C786 0.930 . S
H778 C791 0.929 . S
H779 C789 0.954 . S
H780 C784 0.929 . S
H781 C790 0.929 1_565 S
C782 H776 0.930 1_545 S
C782 C783 1.367 . S
C782 C790 1.378 . S
C783 C782 1.367 . S
C783 C791 1.433 . S
C784 H780 0.929 . S
C784 C786 1.378 . S
C784 C788 1.350 . S
C785 C788 1.463 . S
C785 C790 1.350 . S
C785 N793 1.427 . S
C786 H777 0.930 . S
C786 C784 1.378 . S
C786 C787 1.367 . S
C787 C786 1.367 . S
C787 C789 1.422 1_655 S
C788 C784 1.350 . S
C788 C785 1.463 . S
C788 N792 1.427 . S
C789 H779 0.954 . S
C789 C787 1.422 1_455 S
C789 N792 1.368 1_455 S
C790 H781 0.929 1_545 S
C790 C782 1.378 . S
C790 C785 1.350 . S
C791 H778 0.929 . S
C791 C783 1.433 . S
C791 N793 1.384 . S
N792 C788 1.427 . S
N792 C789 1.368 1_655 S
N793 C785 1.427 . S
N793 C791 1.384 . S
H794 C800 0.930 . S
H795 C804 0.930 . S
H796 C809 0.929 . S
H797 C807 0.929 . S
H798 C802 0.929 . S
H799 C808 0.929 . S
C800 H794 0.930 . S
C800 C801 1.367 . S
C800 C808 1.378 . S
C801 C800 1.367 . S
C801 C809 1.433 . S
C802 H798 0.929 . S
C802 C804 1.378 . S
C802 C806 1.350 . S
C803 C806 1.463 . S
C803 C808 1.350 . S
C803 N811 1.427 . S
C804 H795 0.930 . S
C804 C802 1.378 . S
C804 C805 1.367 . S
C805 C804 1.367 . S
C805 C807 1.433 . S
C806 C802 1.350 . S
C806 C803 1.463 . S
C806 N810 1.427 . S
C807 H797 0.929 . S
C807 C805 1.433 . S
C807 N810 1.384 . S
C808 H799 0.929 . S
C808 C800 1.378 . S
C808 C803 1.350 . S
C809 H796 0.929 . S
C809 C801 1.433 . S
C809 N811 1.384 . S
N810 C806 1.427 . S
N810 C807 1.384 . S
N811 C803 1.427 . S
N811 C809 1.384 . S
H812 C818 0.930 . S
H813 C822 0.930 . S
H814 C827 0.929 . S
H815 C825 0.929 . S
H816 C820 0.929 . S
H817 C826 0.929 . S
C818 H812 0.930 . S
C818 C819 1.367 . S
C818 C826 1.378 . S
C819 C818 1.367 . S
C819 C827 1.433 1_565 S
C820 H816 0.929 . S
C820 C822 1.378 . S
C820 C824 1.350 . S
C821 C824 1.463 . S
C821 C826 1.348 1_545 S
C821 N829 1.428 . S
C822 H813 0.930 . S
C822 C820 1.378 . S
C822 C823 1.367 . S
C823 C822 1.367 . S
C823 C825 1.433 1_545 S
C824 C820 1.350 . S
C824 C821 1.463 . S
C824 N828 1.427 1_545 S
C825 H815 0.929 . S
C825 C823 1.433 1_565 S
C825 N828 1.384 . S
C826 H817 0.929 . S
C826 C818 1.378 . S
C826 C821 1.348 1_565 S
C827 H814 0.929 . S
C827 C819 1.433 1_545 S
C827 N829 1.384 . S
N828 C824 1.427 1_565 S
N828 C825 1.384 . S
N829 C821 1.428 . S
N829 C827 1.384 . S
H830 C836 0.930 . S
H831 C840 0.930 . S
H832 C845 0.929 . S
H833 C843 0.929 . S
H834 C838 0.929 . S
H835 C844 0.929 . S
C836 H830 0.930 . S
C836 C837 1.367 . S
C836 C844 1.378 . S
C837 C836 1.367 . S
C837 C845 1.433 . S
C838 H834 0.929 . S
C838 C840 1.378 . S
C838 C842 1.350 . S
C839 C842 1.463 . S
C839 C844 1.350 . S
C839 N847 1.427 . S
C840 H831 0.930 . S
C840 C838 1.378 . S
C840 C841 1.367 . S
C841 C840 1.367 . S
C841 C843 1.433 . S
C842 C838 1.350 . S
C842 C839 1.463 . S
C842 N846 1.427 . S
C843 H833 0.929 . S
C843 C841 1.433 . S
C843 N846 1.384 . S
C844 H835 0.929 . S
C844 C836 1.378 . S
C844 C839 1.350 . S
C845 H832 0.929 . S
C845 C837 1.433 . S
C845 N847 1.384 . S
N846 C842 1.427 . S
N846 C843 1.384 . S
N847 C839 1.427 . S
N847 C845 1.384 . S
H848 C854 0.930 . S
H849 C858 0.930 . S
H850 C863 0.929 . S
H851 C861 0.929 . S
H852 C856 0.929 . S
H853 C862 0.929 . S
C854 H848 0.930 . S
C854 C855 1.367 1_565 S
C854 C862 1.378 . S
C855 C854 1.367 1_545 S
C855 C863 1.433 . S
C856 H852 0.929 . S
C856 C858 1.378 . S
C856 C860 1.350 . S
C857 C860 1.463 . S
C857 C862 1.350 1_545 S
C857 N865 1.427 . S
C858 H849 0.930 . S
C858 C856 1.378 . S
C858 C859 1.367 . S
C859 C858 1.367 . S
C859 C861 1.433 1_545 S
C860 C856 1.350 . S
C860 C857 1.463 . S
C860 N864 1.427 1_545 S
C861 H851 0.929 . S
C861 C859 1.433 1_565 S
C861 N864 1.384 . S
C862 H853 0.929 . S
C862 C854 1.378 . S
C862 C857 1.350 1_565 S
C863 H850 0.929 . S
C863 C855 1.433 . S
C863 N865 1.384 . S
N864 C860 1.427 1_565 S
N864 C861 1.384 . S
N865 C857 1.427 . S
N865 C863 1.384 . S
H866 C872 0.930 . S
H867 C876 0.930 . S
H868 C881 0.929 . S
H869 C879 0.929 . S
H870 C874 0.929 . S
H871 C880 0.929 . S
C872 H866 0.930 . S
C872 C873 1.367 . S
C872 C880 1.378 . S
C873 C872 1.367 . S
C873 C881 1.433 . S
C874 H870 0.929 . S
C874 C876 1.378 . S
C874 C878 1.350 . S
C875 C878 1.463 . S
C875 C880 1.350 . S
C875 N883 1.427 . S
C876 H867 0.930 . S
C876 C874 1.378 . S
C876 C877 1.367 . S
C877 C876 1.367 . S
C877 C879 1.433 . S
C878 C874 1.350 . S
C878 C875 1.463 . S
C878 N882 1.427 . S
C879 H869 0.929 . S
C879 C877 1.433 . S
C879 N882 1.384 . S
C880 H871 0.929 . S
C880 C872 1.378 . S
C880 C875 1.350 . S
C881 H868 0.929 . S
C881 C873 1.433 . S
C881 N883 1.384 . S
N882 C878 1.427 . S
N882 C879 1.384 . S
N883 C875 1.427 . S
N883 C881 1.384 . S
H884 C890 0.930 . S
H885 C894 0.930 1_565 S
H886 C899 0.929 . S
H887 C897 0.929 . S
H888 C892 0.942 . S
H889 C898 0.929 . S
C890 H884 0.930 . S
C890 C891 1.351 1_545 S
C890 C898 1.378 . S
C891 C890 1.351 1_565 S
C891 C899 1.446 . S
C892 H888 0.942 . S
C892 C894 1.375 1_565 S
C892 C896 1.339 1_565 S
C893 C896 1.463 . S
C893 C898 1.350 . S
C893 N901 1.427 1_545 S
C894 H885 0.930 1_545 S
C894 C892 1.375 1_545 S
C894 C895 1.367 . S
C895 C894 1.367 . S
C895 C897 1.433 . S
C896 C892 1.339 1_545 S
C896 C893 1.463 . S
C896 N900 1.427 . S
C897 H887 0.929 . S
C897 C895 1.433 . S
C897 N900 1.384 . S
C898 H889 0.929 . S
C898 C890 1.378 . S
C898 C893 1.350 . S
C899 H886 0.929 . S
C899 C891 1.446 . S
C899 N901 1.384 . S
N900 C896 1.427 . S
N900 C897 1.384 . S
N901 C893 1.427 1_565 S
N901 C899 1.384 . S
H902 C908 0.930 . S
H903 C912 0.930 . S
H904 C917 0.929 . S
H905 C915 0.929 . S
H906 C910 0.929 . S
H907 C916 0.929 . S
C908 H902 0.930 . S
C908 C909 1.367 . S
C908 C916 1.378 . S
C909 C908 1.367 . S
C909 C917 1.433 . S
C910 H906 0.929 . S
C910 C912 1.378 . S
C910 C914 1.350 . S
C911 C914 1.463 . S
C911 C916 1.350 . S
C911 N919 1.427 . S
C912 H903 0.930 . S
C912 C910 1.378 . S
C912 C913 1.367 . S
C913 C912 1.367 . S
C913 C915 1.433 . S
C914 C910 1.350 . S
C914 C911 1.463 . S
C914 N918 1.427 . S
C915 H905 0.929 . S
C915 C913 1.433 . S
C915 N918 1.384 . S
C916 H907 0.929 . S
C916 C908 1.378 . S
C916 C911 1.350 . S
C917 H904 0.929 . S
C917 C909 1.433 . S
C917 N919 1.384 . S
N918 C914 1.427 . S
N918 C915 1.384 . S
N919 C911 1.427 . S
N919 C917 1.384 . S
H920 C926 0.930 . S
H921 C930 0.930 . S
H922 C935 0.929 1_556 S
H923 C933 0.929 . S
H924 C928 0.929 . S
H925 C934 0.929 . S
C926 H920 0.930 . S
C926 C927 1.367 . S
C926 C934 1.378 . S
C927 C926 1.367 . S
C927 C935 1.433 . S
C928 H924 0.929 . S
C928 C930 1.378 . S
C928 C932 1.350 . S
C929 C932 1.463 . S
C929 C934 1.350 . S
C929 N937 1.427 . S
C930 H921 0.930 . S
C930 C928 1.378 . S
C930 C931 1.367 . S
C931 C930 1.367 . S
C931 C933 1.433 . S
C932 C928 1.350 . S
C932 C929 1.463 . S
C932 N936 1.427 . S
C933 H923 0.929 . S
C933 C931 1.433 . S
C933 N936 1.384 . S
C934 H925 0.929 . S
C934 C926 1.378 . S
C934 C929 1.350 . S
C935 H922 0.929 1_554 S
C935 C927 1.433 . S
C935 N937 1.384 . S
N936 C932 1.427 . S
N936 C933 1.384 . S
N937 C929 1.427 . S
N937 C935 1.384 . S
H938 C944 0.930 . S
H939 C948 0.930 . S
H940 C953 0.929 . S
H941 C951 0.929 1_556 S
H942 C946 0.929 . S
H943 C952 0.929 . S
C944 H938 0.930 . S
C944 C945 1.367 . S
C944 C952 1.378 . S
C945 C944 1.367 . S
C945 C953 1.433 1_556 S
C946 H942 0.929 . S
C946 C948 1.378 . S
C946 C950 1.350 . S
C947 C950 1.463 . S
C947 C952 1.350 1_554 S
C947 N955 1.427 . S
C948 H939 0.930 . S
C948 C946 1.378 . S
C948 C949 1.367 . S
C949 C948 1.367 . S
C949 C951 1.433 . S
C950 C946 1.350 . S
C950 C947 1.463 . S
C950 N954 1.425 1_554 S
C951 H941 0.929 1_554 S
C951 C949 1.433 . S
C951 N954 1.381 1_554 S
C952 H943 0.929 . S
C952 C944 1.378 . S
C952 C947 1.350 1_556 S
C953 H940 0.929 . S
C953 C945 1.433 1_554 S
C953 N955 1.384 . S
N954 C950 1.425 1_556 S
N954 C951 1.381 1_556 S
N955 C947 1.427 . S
N955 C953 1.384 . S
H956 C962 0.930 . S
H957 C966 0.930 . S
H958 C971 0.929 . S
H959 C969 0.929 . S
H960 C964 0.929 . S
H961 C970 0.929 . S
C962 H956 0.930 . S
C962 C963 1.367 . S
C962 C970 1.378 . S
C963 C962 1.367 . S
C963 C971 1.433 . S
C964 H960 0.929 . S
C964 C966 1.378 . S
C964 C968 1.350 . S
C965 C968 1.463 . S
C965 C970 1.350 . S
C965 N973 1.427 . S
C966 H957 0.930 . S
C966 C964 1.378 . S
C966 C967 1.367 . S
C967 C966 1.367 . S
C967 C969 1.433 . S
C968 C964 1.350 . S
C968 C965 1.463 . S
C968 N972 1.427 . S
C969 H959 0.929 . S
C969 C967 1.433 . S
C969 N972 1.384 . S
C970 H961 0.929 . S
C970 C962 1.378 . S
C970 C965 1.350 . S
C971 H958 0.929 . S
C971 C963 1.433 . S
C971 N973 1.384 . S
N972 C968 1.427 . S
N972 C969 1.384 . S
N973 C965 1.427 . S
N973 C971 1.384 . S
H974 C980 0.930 . S
H975 C984 0.930 . S
H976 C989 0.929 . S
H977 C987 0.929 . S
H978 C982 0.929 . S
H979 C988 0.929 . S
C980 H974 0.930 . S
C980 C981 1.367 . S
C980 C988 1.378 . S
C981 C980 1.367 . S
C981 C989 1.433 . S
C982 H978 0.929 . S
C982 C984 1.378 . S
C982 C986 1.350 . S
C983 C986 1.463 . S
C983 C988 1.350 . S
C983 N991 1.427 . S
C984 H975 0.930 . S
C984 C982 1.378 . S
C984 C985 1.367 . S
C985 C984 1.367 . S
C985 C987 1.433 . S
C986 C982 1.350 . S
C986 C983 1.463 . S
C986 N990 1.427 . S
C987 H977 0.929 . S
C987 C985 1.433 . S
C987 N990 1.384 . S
C988 H979 0.929 . S
C988 C980 1.378 . S
C988 C983 1.350 . S
C989 H976 0.929 . S
C989 C981 1.433 . S
C989 N991 1.384 . S
N990 C986 1.427 . S
N990 C987 1.384 . S
N991 C983 1.427 . S
N991 C989 1.384 . S
H992 C998 0.930 . S
H993 C1002 0.930 . S
H994 C1007 0.929 . S
H995 C1005 0.929 . S
H996 C1000 0.929 . S
H997 C1006 0.929 . S
C998 H992 0.930 . S
C998 C999 1.367 . S
C998 C1006 1.378 . S
C999 C998 1.367 . S
C999 C1007 1.433 . S
C1000 H996 0.929 . S
C1000 C1002 1.378 . S
C1000 C1004 1.350 . S
C1001 C1004 1.463 . S
C1001 C1006 1.350 . S
C1001 N1009 1.427 . S
C1002 H993 0.930 . S
C1002 C1000 1.378 . S
C1002 C1003 1.367 . S
C1003 C1002 1.367 . S
C1003 C1005 1.433 . S
C1004 C1000 1.350 . S
C1004 C1001 1.463 . S
C1004 N1008 1.427 . S
C1005 H995 0.929 . S
C1005 C1003 1.433 . S
C1005 N1008 1.384 . S
C1006 H997 0.929 . S
C1006 C998 1.378 . S
C1006 C1001 1.350 . S
C1007 H994 0.929 . S
C1007 C999 1.433 . S
C1007 N1009 1.384 . S
N1008 C1004 1.427 . S
N1008 C1005 1.384 . S
N1009 C1001 1.427 . S
N1009 C1007 1.384 . S
H1010 C1016 0.930 . S
H1011 C1020 0.930 . S
H1012 C1025 0.929 . S
H1013 C1023 0.929 . S
H1014 C1018 0.929 . S
H1015 C1024 0.929 . S
C1016 H1010 0.930 . S
C1016 C1017 1.367 . S
C1016 C1024 1.378 . S
C1017 C1016 1.367 . S
C1017 C1025 1.433 . S
C1018 H1014 0.929 . S
C1018 C1020 1.378 . S
C1018 C1022 1.350 . S
C1019 C1022 1.463 . S
C1019 C1024 1.350 . S
C1019 N1027 1.427 . S
C1020 H1011 0.930 . S
C1020 C1018 1.378 . S
C1020 C1021 1.367 . S
C1021 C1020 1.367 . S
C1021 C1023 1.433 . S
C1022 C1018 1.350 . S
C1022 C1019 1.463 . S
C1022 N1026 1.427 . S
C1023 H1013 0.929 . S
C1023 C1021 1.433 . S
C1023 N1026 1.384 . S
C1024 H1015 0.929 . S
C1024 C1016 1.378 . S
C1024 C1019 1.350 . S
C1025 H1012 0.929 . S
C1025 C1017 1.433 . S
C1025 N1027 1.384 . S
N1026 C1022 1.427 . S
N1026 C1023 1.384 . S
N1027 C1019 1.427 . S
N1027 C1025 1.384 . S
H1028 C1034 0.930 . S
H1029 C1038 0.930 . S
H1030 C1043 0.929 . S
H1031 C1041 0.929 . S
H1032 C1036 0.929 . S
H1033 C1042 0.929 . S
C1034 H1028 0.930 . S
C1034 C1035 1.367 . S
C1034 C1042 1.378 . S
C1035 C1034 1.367 . S
C1035 C1043 1.433 . S
C1036 H1032 0.929 . S
C1036 C1038 1.378 . S
C1036 C1040 1.350 . S
C1037 C1040 1.463 . S
C1037 C1042 1.350 . S
C1037 N1045 1.427 . S
C1038 H1029 0.930 . S
C1038 C1036 1.378 . S
C1038 C1039 1.367 . S
C1039 C1038 1.367 . S
C1039 C1041 1.433 . S
C1040 C1036 1.350 . S
C1040 C1037 1.463 . S
C1040 N1044 1.427 . S
C1041 H1031 0.929 . S
C1041 C1039 1.433 . S
C1041 N1044 1.384 . S
C1042 H1033 0.929 . S
C1042 C1034 1.378 . S
C1042 C1037 1.350 . S
C1043 H1030 0.929 . S
C1043 C1035 1.433 . S
C1043 N1045 1.384 . S
N1044 C1040 1.427 . S
N1044 C1041 1.384 . S
N1045 C1037 1.427 . S
N1045 C1043 1.384 . S
H1046 C1052 0.930 . S
H1047 C1056 0.930 . S
H1048 C1061 0.929 . S
H1049 C1059 0.929 . S
H1050 C1054 0.929 . S
H1051 C1060 0.929 . S
C1052 H1046 0.930 . S
C1052 C1053 1.367 . S
C1052 C1060 1.378 . S
C1053 C1052 1.367 . S
C1053 C1061 1.433 . S
C1054 H1050 0.929 . S
C1054 C1056 1.378 . S
C1054 C1058 1.350 . S
C1055 C1058 1.463 . S
C1055 C1060 1.350 . S
C1055 N1063 1.427 . S
C1056 H1047 0.930 . S
C1056 C1054 1.378 . S
C1056 C1057 1.367 . S
C1057 C1056 1.367 . S
C1057 C1059 1.433 . S
C1058 C1054 1.350 . S
C1058 C1055 1.463 . S
C1058 N1062 1.427 . S
C1059 H1049 0.929 . S
C1059 C1057 1.433 . S
C1059 N1062 1.384 . S
C1060 H1051 0.929 . S
C1060 C1052 1.378 . S
C1060 C1055 1.350 . S
C1061 H1048 0.929 . S
C1061 C1053 1.433 . S
C1061 N1063 1.384 . S
N1062 C1058 1.427 . S
N1062 C1059 1.384 . S
N1063 C1055 1.427 . S
N1063 C1061 1.384 . S
H1064 C1070 0.930 . S
H1065 C1074 0.930 . S
H1066 C1079 0.929 . S
H1067 C1077 0.929 1_655 S
H1068 C1072 0.929 . S
H1069 C1078 0.929 . S
C1070 H1064 0.930 . S
C1070 C1071 1.367 . S
C1070 C1078 1.378 . S
C1071 C1070 1.367 . S
C1071 C1079 1.433 . S
C1072 H1068 0.929 . S
C1072 C1074 1.378 . S
C1072 C1076 1.350 . S
C1073 C1076 1.463 . S
C1073 C1078 1.350 . S
C1073 N1081 1.427 . S
C1074 H1065 0.930 . S
C1074 C1072 1.378 . S
C1074 C1075 1.367 . S
C1075 C1074 1.367 . S
C1075 C1077 1.433 . S
C1076 C1072 1.350 . S
C1076 C1073 1.463 . S
C1076 N1080 1.427 . S
C1077 H1067 0.929 1_455 S
C1077 C1075 1.433 . S
C1077 N1080 1.384 . S
C1078 H1069 0.929 . S
C1078 C1070 1.378 . S
C1078 C1073 1.350 . S
C1079 H1066 0.929 . S
C1079 C1071 1.433 . S
C1079 N1081 1.384 . S
N1080 C1076 1.427 . S
N1080 C1077 1.384 . S
N1081 C1073 1.427 . S
N1081 C1079 1.384 . S
H1082 C1088 0.930 . S
H1083 C1092 0.930 . S
H1084 C1097 0.929 . S
H1085 C1095 0.929 . S
H1086 C1090 0.929 . S
H1087 C1096 0.929 . S
C1088 H1082 0.930 . S
C1088 C1089 1.367 . S
C1088 C1096 1.378 . S
C1089 C1088 1.367 . S
C1089 C1097 1.433 . S
C1090 H1086 0.929 . S
C1090 C1092 1.378 . S
C1090 C1094 1.350 . S
C1091 C1094 1.463 . S
C1091 C1096 1.350 . S
C1091 N1099 1.427 . S
C1092 H1083 0.930 . S
C1092 C1090 1.378 . S
C1092 C1093 1.367 . S
C1093 C1092 1.367 . S
C1093 C1095 1.433 . S
C1094 C1090 1.350 . S
C1094 C1091 1.463 . S
C1094 N1098 1.427 . S
C1095 H1085 0.929 . S
C1095 C1093 1.433 . S
C1095 N1098 1.384 . S
C1096 H1087 0.929 . S
C1096 C1088 1.378 . S
C1096 C1091 1.350 . S
C1097 H1084 0.929 . S
C1097 C1089 1.433 . S
C1097 N1099 1.384 . S
N1098 C1094 1.427 . S
N1098 C1095 1.384 . S
N1099 C1091 1.427 . S
N1099 C1097 1.384 . S
H1100 C1106 0.930 . S
H1101 C1110 0.930 . S
H1102 C1115 0.929 . S
H1103 C1113 0.929 . S
H1104 C1108 0.929 . S
H1105 C1114 0.929 . S
C1106 H1100 0.930 . S
C1106 C1107 1.367 . S
C1106 C1114 1.378 . S
C1107 C1106 1.367 . S
C1107 C1115 1.433 . S
C1108 H1104 0.929 . S
C1108 C1110 1.378 . S
C1108 C1112 1.350 . S
C1109 C1112 1.463 . S
C1109 C1114 1.350 . S
C1109 N1117 1.427 . S
C1110 H1101 0.930 . S
C1110 C1108 1.378 . S
C1110 C1111 1.367 . S
C1111 C1110 1.367 . S
C1111 C1113 1.433 . S
C1112 C1108 1.350 . S
C1112 C1109 1.463 . S
C1112 N1116 1.427 . S
C1113 H1103 0.929 . S
C1113 C1111 1.433 . S
C1113 N1116 1.384 . S
C1114 H1105 0.929 . S
C1114 C1106 1.378 . S
C1114 C1109 1.350 . S
C1115 H1102 0.929 . S
C1115 C1107 1.433 . S
C1115 N1117 1.384 . S
N1116 C1112 1.427 . S
N1116 C1113 1.384 . S
N1117 C1109 1.427 . S
N1117 C1115 1.384 . S
H1118 C1124 0.930 . S
H1119 C1128 0.930 . S
H1120 C1133 0.929 . S
H1121 C1131 0.929 . S
H1122 C1126 0.929 . S
H1123 C1132 0.929 . S
C1124 H1118 0.930 . S
C1124 C1125 1.367 . S
C1124 C1132 1.378 . S
C1125 C1124 1.367 . S
C1125 C1133 1.433 . S
C1126 H1122 0.929 . S
C1126 C1128 1.378 . S
C1126 C1130 1.350 . S
C1127 C1130 1.463 . S
C1127 C1132 1.350 . S
C1127 N1135 1.427 . S
C1128 H1119 0.930 . S
C1128 C1126 1.378 . S
C1128 C1129 1.367 . S
C1129 C1128 1.367 . S
C1129 C1131 1.433 . S
C1130 C1126 1.350 . S
C1130 C1127 1.463 . S
C1130 N1134 1.427 . S
C1131 H1121 0.929 . S
C1131 C1129 1.433 . S
C1131 N1134 1.384 . S
C1132 H1123 0.929 . S
C1132 C1124 1.378 . S
C1132 C1127 1.350 . S
C1133 H1120 0.929 . S
C1133 C1125 1.433 . S
C1133 N1135 1.384 . S
N1134 C1130 1.427 . S
N1134 C1131 1.384 . S
N1135 C1127 1.427 . S
N1135 C1133 1.384 . S
H1136 C1142 0.930 . S
H1137 C1146 0.930 . S
H1138 C1151 0.929 . S
H1139 C1149 0.929 . S
H1140 C1144 0.929 . S
H1141 C1150 0.929 . S
C1142 H1136 0.930 . S
C1142 C1143 1.367 . S
C1142 C1150 1.378 . S
C1143 C1142 1.367 . S
C1143 C1151 1.433 . S
C1144 H1140 0.929 . S
C1144 C1146 1.378 . S
C1144 C1148 1.350 . S
C1145 C1148 1.463 . S
C1145 C1150 1.350 . S
C1145 N1153 1.427 . S
C1146 H1137 0.930 . S
C1146 C1144 1.378 . S
C1146 C1147 1.367 . S
C1147 C1146 1.367 . S
C1147 C1149 1.433 . S
C1148 C1144 1.350 . S
C1148 C1145 1.463 . S
C1148 N1152 1.427 . S
C1149 H1139 0.929 . S
C1149 C1147 1.433 . S
C1149 N1152 1.384 . S
C1150 H1141 0.929 . S
C1150 C1142 1.378 . S
C1150 C1145 1.350 . S
C1151 H1138 0.929 . S
C1151 C1143 1.433 . S
C1151 N1153 1.384 . S
N1152 C1148 1.427 . S
N1152 C1149 1.384 . S
N1153 C1145 1.427 . S
N1153 C1151 1.384 . S
H1154 C1160 0.930 . S
H1155 C1164 0.930 . S
H1156 C1169 0.929 . S
H1157 C1167 0.929 . S
H1158 C1162 0.929 . S
H1159 C1168 0.929 . S
C1160 H1154 0.930 . S
C1160 C1161 1.367 . S
C1160 C1168 1.378 . S
C1161 C1160 1.367 . S
C1161 C1169 1.433 . S
C1162 H1158 0.929 . S
C1162 C1164 1.378 . S
C1162 C1166 1.350 . S
C1163 C1166 1.463 . S
C1163 C1168 1.350 . S
C1163 N1171 1.427 . S
C1164 H1155 0.930 . S
C1164 C1162 1.378 . S
C1164 C1165 1.367 . S
C1165 C1164 1.367 . S
C1165 C1167 1.433 . S
C1166 C1162 1.350 . S
C1166 C1163 1.463 . S
C1166 N1170 1.427 . S
C1167 H1157 0.929 . S
C1167 C1165 1.433 . S
C1167 N1170 1.384 . S
C1168 H1159 0.929 . S
C1168 C1160 1.378 . S
C1168 C1163 1.350 . S
C1169 H1156 0.929 . S
C1169 C1161 1.433 . S
C1169 N1171 1.384 . S
N1170 C1166 1.427 . S
N1170 C1167 1.384 . S
N1171 C1163 1.427 . S
N1171 C1169 1.384 . S
H1172 C1178 0.930 . S
H1173 C1182 0.930 . S
H1174 C1187 0.929 . S
H1175 C1185 0.929 . S
H1176 C1180 0.929 . S
H1177 C1186 0.929 . S
C1178 H1172 0.930 . S
C1178 C1179 1.367 . S
C1178 C1186 1.378 . S
C1179 C1178 1.367 . S
C1179 C1187 1.433 . S
C1180 H1176 0.929 . S
C1180 C1182 1.378 . S
C1180 C1184 1.350 . S
C1181 C1184 1.463 . S
C1181 C1186 1.350 . S
C1181 N1189 1.427 . S
C1182 H1173 0.930 . S
C1182 C1180 1.378 . S
C1182 C1183 1.367 1_556 S
C1183 C1182 1.367 1_554 S
C1183 C1185 1.433 . S
C1184 C1180 1.350 . S
C1184 C1181 1.463 . S
C1184 N1188 1.427 1_556 S
C1185 H1175 0.929 . S
C1185 C1183 1.433 . S
C1185 N1188 1.384 . S
C1186 H1177 0.929 . S
C1186 C1178 1.378 . S
C1186 C1181 1.350 . S
C1187 H1174 0.929 . S
C1187 C1179 1.433 . S
C1187 N1189 1.384 . S
N1188 C1184 1.427 1_554 S
N1188 C1185 1.384 . S
N1189 C1181 1.427 . S
N1189 C1187 1.384 . S
H1190 C1196 0.930 . S
H1191 C1200 0.930 . S
H1192 C1205 0.929 . S
H1193 C1203 0.929 . S
H1194 C1198 0.929 . S
H1195 C1204 0.929 . S
C1196 H1190 0.930 . S
C1196 C1197 1.367 . S
C1196 C1204 1.378 . S
C1197 C1196 1.367 . S
C1197 C1205 1.433 . S
C1198 H1194 0.929 . S
C1198 C1200 1.378 . S
C1198 C1202 1.350 . S
C1199 C1202 1.463 . S
C1199 C1204 1.350 . S
C1199 N1207 1.427 . S
C1200 H1191 0.930 . S
C1200 C1198 1.378 . S
C1200 C1201 1.367 . S
C1201 C1200 1.367 . S
C1201 C1203 1.433 . S
C1202 C1198 1.350 . S
C1202 C1199 1.463 . S
C1202 N1206 1.427 . S
C1203 H1193 0.929 . S
C1203 C1201 1.433 . S
C1203 N1206 1.384 . S
C1204 H1195 0.929 . S
C1204 C1196 1.378 . S
C1204 C1199 1.350 . S
C1205 H1192 0.929 . S
C1205 C1197 1.433 . S
C1205 N1207 1.384 . S
N1206 C1202 1.427 . S
N1206 C1203 1.384 . S
N1207 C1199 1.427 . S
N1207 C1205 1.384 . S
H1208 C1214 0.930 . S
H1209 C1218 0.930 . S
H1210 C1223 0.929 . S
H1211 C1221 0.929 . S
H1212 C1216 0.929 . S
H1213 C1222 0.929 . S
C1214 H1208 0.930 . S
C1214 C1215 1.367 1_565 S
C1214 C1222 1.378 . S
C1215 C1214 1.367 1_545 S
C1215 C1223 1.433 . S
C1216 H1212 0.929 . S
C1216 C1218 1.378 . S
C1216 C1220 1.350 . S
C1217 C1220 1.463 . S
C1217 C1222 1.350 1_545 S
C1217 N1225 1.427 . S
C1218 H1209 0.930 . S
C1218 C1216 1.378 . S
C1218 C1219 1.367 1_545 S
C1219 C1218 1.367 1_565 S
C1219 C1221 1.433 . S
C1220 C1216 1.350 . S
C1220 C1217 1.463 . S
C1220 N1224 1.427 1_545 S
C1221 H1211 0.929 . S
C1221 C1219 1.433 . S
C1221 N1224 1.384 . S
C1222 H1213 0.929 . S
C1222 C1214 1.378 . S
C1222 C1217 1.350 1_565 S
C1223 H1210 0.929 . S
C1223 C1215 1.433 . S
C1223 N1225 1.384 . S
N1224 C1220 1.427 1_565 S
N1224 C1221 1.384 . S
N1225 C1217 1.427 . S
N1225 C1223 1.384 . S
H1226 C1232 0.930 . S
H1227 C1236 0.930 . S
H1228 C1241 0.929 . S
H1229 C1239 0.929 . S
H1230 C1234 0.929 . S
H1231 C1240 0.929 . S
C1232 H1226 0.930 . S
C1232 C1233 1.367 . S
C1232 C1240 1.378 . S
C1233 C1232 1.367 . S
C1233 C1241 1.433 . S
C1234 H1230 0.929 . S
C1234 C1236 1.378 . S
C1234 C1238 1.350 . S
C1235 C1238 1.463 . S
C1235 C1240 1.350 . S
C1235 N1243 1.427 . S
C1236 H1227 0.930 . S
C1236 C1234 1.378 . S
C1236 C1237 1.367 . S
C1237 C1236 1.367 . S
C1237 C1239 1.433 . S
C1238 C1234 1.350 . S
C1238 C1235 1.463 . S
C1238 N1242 1.427 . S
C1239 H1229 0.929 . S
C1239 C1237 1.433 . S
C1239 N1242 1.384 . S
C1240 H1231 0.929 . S
C1240 C1232 1.378 . S
C1240 C1235 1.350 . S
C1241 H1228 0.929 . S
C1241 C1233 1.433 . S
C1241 N1243 1.384 . S
N1242 C1238 1.427 . S
N1242 C1239 1.384 . S
N1243 C1235 1.427 . S
N1243 C1241 1.384 . S
H1244 C1250 0.930 . S
H1245 C1254 0.930 1_565 S
H1246 C1259 0.929 1_565 S
H1247 C1257 0.929 . S
H1248 C1252 0.929 1_565 S
H1249 C1258 0.929 . S
C1250 H1244 0.930 . S
C1250 C1251 1.367 . S
C1250 C1258 1.378 . S
C1251 C1250 1.367 . S
C1251 C1259 1.433 . S
C1252 H1248 0.929 1_545 S
C1252 C1254 1.378 . S
C1252 C1256 1.350 . S
C1253 C1256 1.463 . S
C1253 C1258 1.350 . S
C1253 N1261 1.427 . S
C1254 H1245 0.930 1_545 S
C1254 C1252 1.378 . S
C1254 C1255 1.367 . S
C1255 C1254 1.367 . S
C1255 C1257 1.433 . S
C1256 C1252 1.350 . S
C1256 C1253 1.463 . S
C1256 N1260 1.427 . S
C1257 H1247 0.929 . S
C1257 C1255 1.433 . S
C1257 N1260 1.384 . S
C1258 H1249 0.929 . S
C1258 C1250 1.378 . S
C1258 C1253 1.350 . S
C1259 H1246 0.929 1_545 S
C1259 C1251 1.433 . S
C1259 N1261 1.384 . S
N1260 C1256 1.427 . S
N1260 C1257 1.384 . S
N1261 C1253 1.427 . S
N1261 C1259 1.384 . S
H1262 C1268 0.930 . S
H1263 C1272 0.930 . S
H1264 C1277 0.929 . S
H1265 C1275 0.929 . S
H1266 C1270 0.929 . S
H1267 C1276 0.929 . S
C1268 H1262 0.930 . S
C1268 C1269 1.367 . S
C1268 C1276 1.378 . S
C1269 C1268 1.367 . S
C1269 C1277 1.433 . S
C1270 H1266 0.929 . S
C1270 C1272 1.378 . S
C1270 C1274 1.350 . S
C1271 C1274 1.463 . S
C1271 C1276 1.350 . S
C1271 N1279 1.427 . S
C1272 H1263 0.930 . S
C1272 C1270 1.378 . S
C1272 C1273 1.367 . S
C1273 C1272 1.367 . S
C1273 C1275 1.433 . S
C1274 C1270 1.350 . S
C1274 C1271 1.463 . S
C1274 N1278 1.427 . S
C1275 H1265 0.929 . S
C1275 C1273 1.433 . S
C1275 N1278 1.384 . S
C1276 H1267 0.929 . S
C1276 C1268 1.378 . S
C1276 C1271 1.350 . S
C1277 H1264 0.929 . S
C1277 C1269 1.433 . S
C1277 N1279 1.384 . S
N1278 C1274 1.427 . S
N1278 C1275 1.384 . S
N1279 C1271 1.427 . S
N1279 C1277 1.384 . S
H1280 C1286 0.930 . S
H1281 C1290 0.930 . S
H1282 C1295 0.929 . S
H1283 C1293 0.929 . S
H1284 C1288 0.929 . S
H1285 C1294 0.929 . S
C1286 H1280 0.930 . S
C1286 C1287 1.367 . S
C1286 C1294 1.378 . S
C1287 C1286 1.367 . S
C1287 C1295 1.433 . S
C1288 H1284 0.929 . S
C1288 C1290 1.378 . S
C1288 C1292 1.350 . S
C1289 C1292 1.463 . S
C1289 C1294 1.350 . S
C1289 N1297 1.427 . S
C1290 H1281 0.930 . S
C1290 C1288 1.378 . S
C1290 C1291 1.367 . S
C1291 C1290 1.367 . S
C1291 C1293 1.433 . S
C1292 C1288 1.350 . S
C1292 C1289 1.463 . S
C1292 N1296 1.427 . S
C1293 H1283 0.929 . S
C1293 C1291 1.433 . S
C1293 N1296 1.384 . S
C1294 H1285 0.929 . S
C1294 C1286 1.378 . S
C1294 C1289 1.350 . S
C1295 H1282 0.929 . S
C1295 C1287 1.433 . S
C1295 N1297 1.384 . S
N1296 C1292 1.427 . S
N1296 C1293 1.384 . S
N1297 C1289 1.427 . S
N1297 C1295 1.384 . S
H1298 C1304 0.930 . S
H1299 C1308 0.930 . S
H1300 C1313 0.929 . S
H1301 C1311 0.929 . S
H1302 C1306 0.929 . S
H1303 C1312 0.929 . S
C1304 H1298 0.930 . S
C1304 C1305 1.367 . S
C1304 C1312 1.378 . S
C1305 C1304 1.367 . S
C1305 C1313 1.433 . S
C1306 H1302 0.929 . S
C1306 C1308 1.378 . S
C1306 C1310 1.350 . S
C1307 C1310 1.463 . S
C1307 C1312 1.350 . S
C1307 N1315 1.427 . S
C1308 H1299 0.930 . S
C1308 C1306 1.378 . S
C1308 C1309 1.367 . S
C1309 C1308 1.367 . S
C1309 C1311 1.433 . S
C1310 C1306 1.350 . S
C1310 C1307 1.463 . S
C1310 N1314 1.427 . S
C1311 H1301 0.929 . S
C1311 C1309 1.433 . S
C1311 N1314 1.384 . S
C1312 H1303 0.929 . S
C1312 C1304 1.378 . S
C1312 C1307 1.350 . S
C1313 H1300 0.929 . S
C1313 C1305 1.433 . S
C1313 N1315 1.384 . S
N1314 C1310 1.427 . S
N1314 C1311 1.384 . S
N1315 C1307 1.427 . S
N1315 C1313 1.384 . S
H1316 C1322 0.930 . S
H1317 C1326 0.930 . S
H1318 C1331 0.929 . S
H1319 C1329 0.929 . S
H1320 C1324 0.929 . S
H1321 C1330 0.929 . S
C1322 H1316 0.930 . S
C1322 C1323 1.367 . S
C1322 C1330 1.378 . S
C1323 C1322 1.367 . S
C1323 C1331 1.433 . S
C1324 H1320 0.929 . S
C1324 C1326 1.378 . S
C1324 C1328 1.350 1_565 S
C1325 C1328 1.463 . S
C1325 C1330 1.350 . S
C1325 N1333 1.427 . S
C1326 H1317 0.930 . S
C1326 C1324 1.378 . S
C1326 C1327 1.367 . S
C1327 C1326 1.367 . S
C1327 C1329 1.433 1_565 S
C1328 C1324 1.350 1_545 S
C1328 C1325 1.463 . S
C1328 N1332 1.427 . S
C1329 H1319 0.929 . S
C1329 C1327 1.433 1_545 S
C1329 N1332 1.384 . S
C1330 H1321 0.929 . S
C1330 C1322 1.378 . S
C1330 C1325 1.350 . S
C1331 H1318 0.929 . S
C1331 C1323 1.433 . S
C1331 N1333 1.384 . S
N1332 C1328 1.427 . S
N1332 C1329 1.384 . S
N1333 C1325 1.427 . S
N1333 C1331 1.384 . S
H1334 C1340 0.930 . S
H1335 C1344 0.930 . S
H1336 C1349 0.929 . S
H1337 C1347 0.929 . S
H1338 C1342 0.929 . S
H1339 C1348 0.929 . S
C1340 H1334 0.930 . S
C1340 C1341 1.367 . S
C1340 C1348 1.378 . S
C1341 C1340 1.367 . S
C1341 C1349 1.433 . S
C1342 H1338 0.929 . S
C1342 C1344 1.378 . S
C1342 C1346 1.350 . S
C1343 C1346 1.463 . S
C1343 C1348 1.350 . S
C1343 N1351 1.427 . S
C1344 H1335 0.930 . S
C1344 C1342 1.378 . S
C1344 C1345 1.367 . S
C1345 C1344 1.367 . S
C1345 C1347 1.433 . S
C1346 C1342 1.350 . S
C1346 C1343 1.463 . S
C1346 N1350 1.427 . S
C1347 H1337 0.929 . S
C1347 C1345 1.433 . S
C1347 N1350 1.384 . S
C1348 H1339 0.929 . S
C1348 C1340 1.378 . S
C1348 C1343 1.350 . S
C1349 H1336 0.929 . S
C1349 C1341 1.433 . S
C1349 N1351 1.384 . S
N1350 C1346 1.427 . S
N1350 C1347 1.384 . S
N1351 C1343 1.427 . S
N1351 C1349 1.384 . S
H1352 C1358 0.930 . S
H1353 C1362 0.930 . S
H1354 C1367 0.929 . S
H1355 C1365 0.929 . S
H1356 C1360 0.929 . S
H1357 C1366 0.929 . S
C1358 H1352 0.930 . S
C1358 C1359 1.367 . S
C1358 C1366 1.378 . S
C1359 C1358 1.367 . S
C1359 C1367 1.433 . S
C1360 H1356 0.929 . S
C1360 C1362 1.378 . S
C1360 C1364 1.350 1_556 S
C1361 C1364 1.463 . S
C1361 C1366 1.350 . S
C1361 N1369 1.427 . S
C1362 H1353 0.930 . S
C1362 C1360 1.378 . S
C1362 C1363 1.367 . S
C1363 C1362 1.367 . S
C1363 C1365 1.433 1_556 S
C1364 C1360 1.350 1_554 S
C1364 C1361 1.463 . S
C1364 N1368 1.427 . S
C1365 H1355 0.929 . S
C1365 C1363 1.433 1_554 S
C1365 N1368 1.384 . S
C1366 H1357 0.929 . S
C1366 C1358 1.378 . S
C1366 C1361 1.350 . S
C1367 H1354 0.929 . S
C1367 C1359 1.433 . S
C1367 N1369 1.384 . S
N1368 C1364 1.427 . S
N1368 C1365 1.384 . S
N1369 C1361 1.427 . S
N1369 C1367 1.384 . S
H1370 C1376 0.930 . S
H1371 C1380 0.930 . S
H1372 C1385 0.929 . S
H1373 C1383 0.929 . S
H1374 C1378 0.929 . S
H1375 C1384 0.929 . S
C1376 H1370 0.930 . S
C1376 C1377 1.367 . S
C1376 C1384 1.378 . S
C1377 C1376 1.367 . S
C1377 C1385 1.433 . S
C1378 H1374 0.929 . S
C1378 C1380 1.378 . S
C1378 C1382 1.350 . S
C1379 C1382 1.463 . S
C1379 C1384 1.350 . S
C1379 N1387 1.427 . S
C1380 H1371 0.930 . S
C1380 C1378 1.378 . S
C1380 C1381 1.367 . S
C1381 C1380 1.367 . S
C1381 C1383 1.433 . S
C1382 C1378 1.350 . S
C1382 C1379 1.463 . S
C1382 N1386 1.427 . S
C1383 H1373 0.929 . S
C1383 C1381 1.433 . S
C1383 N1386 1.384 . S
C1384 H1375 0.929 . S
C1384 C1376 1.378 . S
C1384 C1379 1.350 . S
C1385 H1372 0.929 . S
C1385 C1377 1.433 . S
C1385 N1387 1.384 . S
N1386 C1382 1.427 . S
N1386 C1383 1.384 . S
N1387 C1379 1.427 . S
N1387 C1385 1.384 . S
H1388 C1394 0.930 . S
H1389 C1398 0.930 . S
H1390 C1403 0.929 . S
H1391 C1401 0.929 . S
H1392 C1396 0.929 . S
H1393 C1402 0.929 . S
C1394 H1388 0.930 . S
C1394 C1395 1.367 . S
C1394 C1402 1.378 . S
C1395 C1394 1.367 . S
C1395 C1403 1.433 . S
C1396 H1392 0.929 . S
C1396 C1398 1.378 . S
C1396 C1400 1.350 . S
C1397 C1400 1.463 . S
C1397 C1402 1.350 . S
C1397 N1405 1.427 . S
C1398 H1389 0.930 . S
C1398 C1396 1.378 . S
C1398 C1399 1.367 . S
C1399 C1398 1.367 . S
C1399 C1401 1.433 . S
C1400 C1396 1.350 . S
C1400 C1397 1.463 . S
C1400 N1404 1.427 . S
C1401 H1391 0.929 . S
C1401 C1399 1.433 . S
C1401 N1404 1.384 . S
C1402 H1393 0.929 . S
C1402 C1394 1.378 . S
C1402 C1397 1.350 . S
C1403 H1390 0.929 . S
C1403 C1395 1.433 . S
C1403 N1405 1.384 . S
N1404 C1400 1.427 . S
N1404 C1401 1.384 . S
N1405 C1397 1.427 . S
N1405 C1403 1.384 . S
H1406 C1412 0.930 . S
H1407 C1416 0.930 . S
H1408 C1421 0.929 . S
H1409 C1419 0.929 . S
H1410 C1414 0.929 . S
H1411 C1420 0.929 . S
C1412 H1406 0.930 . S
C1412 C1413 1.367 . S
C1412 C1420 1.378 . S
C1413 C1412 1.367 . S
C1413 C1421 1.433 . S
C1414 H1410 0.929 . S
C1414 C1416 1.378 . S
C1414 C1418 1.350 . S
C1415 C1418 1.463 . S
C1415 C1420 1.350 . S
C1415 N1423 1.427 . S
C1416 H1407 0.930 . S
C1416 C1414 1.378 . S
C1416 C1417 1.367 . S
C1417 C1416 1.367 . S
C1417 C1419 1.433 . S
C1418 C1414 1.350 . S
C1418 C1415 1.463 . S
C1418 N1422 1.427 . S
C1419 H1409 0.929 . S
C1419 C1417 1.433 . S
C1419 N1422 1.384 . S
C1420 H1411 0.929 . S
C1420 C1412 1.378 . S
C1420 C1415 1.350 . S
C1421 H1408 0.929 . S
C1421 C1413 1.433 . S
C1421 N1423 1.384 . S
N1422 C1418 1.427 . S
N1422 C1419 1.384 . S
N1423 C1415 1.427 . S
N1423 C1421 1.384 . S
H1424 C1430 0.930 . S
H1425 C1434 0.930 . S
H1426 C1439 0.929 . S
H1427 C1437 0.929 . S
H1428 C1432 0.929 . S
H1429 C1438 0.929 . S
C1430 H1424 0.930 . S
C1430 C1431 1.367 . S
C1430 C1438 1.378 . S
C1431 C1430 1.367 . S
C1431 C1439 1.433 . S
C1432 H1428 0.929 . S
C1432 C1434 1.378 . S
C1432 C1436 1.350 . S
C1433 C1436 1.463 . S
C1433 C1438 1.350 . S
C1433 N1441 1.427 . S
C1434 H1425 0.930 . S
C1434 C1432 1.378 . S
C1434 C1435 1.367 . S
C1435 C1434 1.367 . S
C1435 C1437 1.433 . S
C1436 C1432 1.350 . S
C1436 C1433 1.463 . S
C1436 N1440 1.427 . S
C1437 H1427 0.929 . S
C1437 C1435 1.433 . S
C1437 N1440 1.384 . S
C1438 H1429 0.929 . S
C1438 C1430 1.378 . S
C1438 C1433 1.350 . S
C1439 H1426 0.929 . S
C1439 C1431 1.433 . S
C1439 N1441 1.384 . S
N1440 C1436 1.427 . S
N1440 C1437 1.384 . S
N1441 C1433 1.427 . S
N1441 C1439 1.384 . S
H1442 C1448 0.930 . S
H1443 C1452 0.930 . S
H1444 C1457 0.929 . S
H1445 C1455 0.929 . S
H1446 C1450 0.929 . S
H1447 C1456 0.929 . S
C1448 H1442 0.930 . S
C1448 C1449 1.367 . S
C1448 C1456 1.378 . S
C1449 C1448 1.367 . S
C1449 C1457 1.433 . S
C1450 H1446 0.929 . S
C1450 C1452 1.378 . S
C1450 C1454 1.350 . S
C1451 C1454 1.463 . S
C1451 C1456 1.350 . S
C1451 N1459 1.427 . S
C1452 H1443 0.930 . S
C1452 C1450 1.378 . S
C1452 C1453 1.367 . S
C1453 C1452 1.367 . S
C1453 C1455 1.433 . S
C1454 C1450 1.350 . S
C1454 C1451 1.463 . S
C1454 N1458 1.427 . S
C1455 H1445 0.929 . S
C1455 C1453 1.433 . S
C1455 N1458 1.384 . S
C1456 H1447 0.929 . S
C1456 C1448 1.378 . S
C1456 C1451 1.350 . S
C1457 H1444 0.929 . S
C1457 C1449 1.433 . S
C1457 N1459 1.384 . S
N1458 C1454 1.427 . S
N1458 C1455 1.384 . S
N1459 C1451 1.427 . S
N1459 C1457 1.384 . S
H1460 C1466 0.930 . S
H1461 C1470 0.930 . S
H1462 C1475 0.929 . S
H1463 C1473 0.929 . S
H1464 C1468 0.929 . S
H1465 C1474 0.929 . S
C1466 H1460 0.930 . S
C1466 C1467 1.367 . S
C1466 C1474 1.378 . S
C1467 C1466 1.367 . S
C1467 C1475 1.433 . S
C1468 H1464 0.929 . S
C1468 C1470 1.378 . S
C1468 C1472 1.350 . S
C1469 C1472 1.463 . S
C1469 C1474 1.350 . S
C1469 N1477 1.427 . S
C1470 H1461 0.930 . S
C1470 C1468 1.378 . S
C1470 C1471 1.367 . S
C1471 C1470 1.367 . S
C1471 C1473 1.433 . S
C1472 C1468 1.350 . S
C1472 C1469 1.463 . S
C1472 N1476 1.427 . S
C1473 H1463 0.929 . S
C1473 C1471 1.433 . S
C1473 N1476 1.384 . S
C1474 H1465 0.929 . S
C1474 C1466 1.378 . S
C1474 C1469 1.350 . S
C1475 H1462 0.929 . S
C1475 C1467 1.433 . S
C1475 N1477 1.384 . S
N1476 C1472 1.427 . S
N1476 C1473 1.384 . S
N1477 C1469 1.427 . S
N1477 C1475 1.384 . S
H1478 C1484 0.930 . S
H1479 C1488 0.930 . S
H1480 C1493 0.929 . S
H1481 C1491 0.929 . S
H1482 C1486 0.929 . S
H1483 C1492 0.929 . S
C1484 H1478 0.930 . S
C1484 C1485 1.367 . S
C1484 C1492 1.378 . S
C1485 C1484 1.367 . S
C1485 C1493 1.433 . S
C1486 H1482 0.929 . S
C1486 C1488 1.378 . S
C1486 C1490 1.350 . S
C1487 C1490 1.463 . S
C1487 C1492 1.350 . S
C1487 N1495 1.427 . S
C1488 H1479 0.930 . S
C1488 C1486 1.378 . S
C1488 C1489 1.367 . S
C1489 C1488 1.367 . S
C1489 C1491 1.433 . S
C1490 C1486 1.350 . S
C1490 C1487 1.463 . S
C1490 N1494 1.427 . S
C1491 H1481 0.929 . S
C1491 C1489 1.433 . S
C1491 N1494 1.384 . S
C1492 H1483 0.929 . S
C1492 C1484 1.378 . S
C1492 C1487 1.350 . S
C1493 H1480 0.929 . S
C1493 C1485 1.433 . S
C1493 N1495 1.384 . S
N1494 C1490 1.427 . S
N1494 C1491 1.384 . S
N1495 C1487 1.427 . S
N1495 C1493 1.384 . S
H1496 C1502 0.930 . S
H1497 C1506 0.930 . S
H1498 C1511 0.929 . S
H1499 C1509 0.929 . S
H1500 C1504 0.929 . S
H1501 C1510 0.929 . S
C1502 H1496 0.930 . S
C1502 C1503 1.367 . S
C1502 C1510 1.378 . S
C1503 C1502 1.367 . S
C1503 C1511 1.433 . S
C1504 H1500 0.929 . S
C1504 C1506 1.378 . S
C1504 C1508 1.350 . S
C1505 C1508 1.463 . S
C1505 C1510 1.350 . S
C1505 N1513 1.427 . S
C1506 H1497 0.930 . S
C1506 C1504 1.378 . S
C1506 C1507 1.367 . S
C1507 C1506 1.367 . S
C1507 C1509 1.433 . S
C1508 C1504 1.350 . S
C1508 C1505 1.463 . S
C1508 N1512 1.427 . S
C1509 H1499 0.929 . S
C1509 C1507 1.433 . S
C1509 N1512 1.384 . S
C1510 H1501 0.929 . S
C1510 C1502 1.378 . S
C1510 C1505 1.350 . S
C1511 H1498 0.929 . S
C1511 C1503 1.433 . S
C1511 N1513 1.384 . S
N1512 C1508 1.427 . S
N1512 C1509 1.384 . S
N1513 C1505 1.427 . S
N1513 C1511 1.384 . S
H1514 C1520 0.930 . S
H1515 C1524 0.930 . S
H1516 C1529 0.929 . S
H1517 C1527 0.929 . S
H1518 C1522 0.929 . S
H1519 C1528 0.929 . S
C1520 H1514 0.930 . S
C1520 C1521 1.367 . S
C1520 C1528 1.378 . S
C1521 C1520 1.367 . S
C1521 C1529 1.433 . S
C1522 H1518 0.929 . S
C1522 C1524 1.378 . S
C1522 C1526 1.350 . S
C1523 C1526 1.463 . S
C1523 C1528 1.350 . S
C1523 N1531 1.427 . S
C1524 H1515 0.930 . S
C1524 C1522 1.378 . S
C1524 C1525 1.367 . S
C1525 C1524 1.367 . S
C1525 C1527 1.433 . S
C1526 C1522 1.350 . S
C1526 C1523 1.463 . S
C1526 N1530 1.427 . S
C1527 H1517 0.929 . S
C1527 C1525 1.433 . S
C1527 N1530 1.384 . S
C1528 H1519 0.929 . S
C1528 C1520 1.378 . S
C1528 C1523 1.350 . S
C1529 H1516 0.929 . S
C1529 C1521 1.433 . S
C1529 N1531 1.384 . S
N1530 C1526 1.427 . S
N1530 C1527 1.384 . S
N1531 C1523 1.427 . S
N1531 C1529 1.384 . S
H1532 C1538 0.930 . S
H1533 C1542 0.930 . S
H1534 C1547 0.929 . S
H1535 C1545 0.929 . S
H1536 C1540 0.926 1_554 S
H1537 C1546 0.929 . S
C1538 H1532 0.930 . S
C1538 C1539 1.367 1_655 S
C1538 C1546 1.378 . S
C1539 C1538 1.367 1_455 S
C1539 C1547 1.433 . S
C1540 H1536 0.926 1_556 S
C1540 C1542 1.378 1_556 S
C1540 C1544 1.350 . S
C1541 C1544 1.463 . S
C1541 C1546 1.350 1_455 S
C1541 N1549 1.427 . S
C1542 H1533 0.930 . S
C1542 C1540 1.378 1_554 S
C1542 C1543 1.367 1_554 S
C1543 C1542 1.367 1_556 S
C1543 C1545 1.433 1_455 S
C1544 C1540 1.350 . S
C1544 C1541 1.463 . S
C1544 N1548 1.427 1_455 S
C1545 H1535 0.929 . S
C1545 C1543 1.433 1_655 S
C1545 N1548 1.384 . S
C1546 H1537 0.929 . S
C1546 C1538 1.378 . S
C1546 C1541 1.350 1_655 S
C1547 H1534 0.929 . S
C1547 C1539 1.433 . S
C1547 N1549 1.384 . S
N1548 C1544 1.427 1_655 S
N1548 C1545 1.384 . S
N1549 C1541 1.427 . S
N1549 C1547 1.384 . S
H1550 C1556 0.930 . S
H1551 C1560 0.930 . S
H1552 C1565 0.929 . S
H1553 C1563 0.929 . S
H1554 C1558 0.929 . S
H1555 C1564 0.929 . S
C1556 H1550 0.930 . S
C1556 C1557 1.367 . S
C1556 C1564 1.378 . S
C1557 C1556 1.367 . S
C1557 C1565 1.433 . S
C1558 H1554 0.929 . S
C1558 C1560 1.378 . S
C1558 C1562 1.350 . S
C1559 C1562 1.463 . S
C1559 C1564 1.350 . S
C1559 N1567 1.427 . S
C1560 H1551 0.930 . S
C1560 C1558 1.378 . S
C1560 C1561 1.367 . S
C1561 C1560 1.367 . S
C1561 C1563 1.433 . S
C1562 C1558 1.350 . S
C1562 C1559 1.463 . S
C1562 N1566 1.427 . S
C1563 H1553 0.929 . S
C1563 C1561 1.433 . S
C1563 N1566 1.384 . S
C1564 H1555 0.929 . S
C1564 C1556 1.378 . S
C1564 C1559 1.350 . S
C1565 H1552 0.929 . S
C1565 C1557 1.433 . S
C1565 N1567 1.384 . S
N1566 C1562 1.427 . S
N1566 C1563 1.384 . S
N1567 C1559 1.427 . S
N1567 C1565 1.384 . S
H1568 C1574 0.930 . S
H1569 C1578 0.930 . S
H1570 C1583 0.929 . S
H1571 C1581 0.929 . S
H1572 C1576 0.929 . S
H1573 C1582 0.929 . S
C1574 H1568 0.930 . S
C1574 C1575 1.367 . S
C1574 C1582 1.378 . S
C1575 C1574 1.367 . S
C1575 C1583 1.433 . S
C1576 H1572 0.929 . S
C1576 C1578 1.378 . S
C1576 C1580 1.350 . S
C1577 C1580 1.463 . S
C1577 C1582 1.350 . S
C1577 N1585 1.427 . S
C1578 H1569 0.930 . S
C1578 C1576 1.378 . S
C1578 C1579 1.367 . S
C1579 C1578 1.367 . S
C1579 C1581 1.433 . S
C1580 C1576 1.350 . S
C1580 C1577 1.463 . S
C1580 N1584 1.427 . S
C1581 H1571 0.929 . S
C1581 C1579 1.433 . S
C1581 N1584 1.384 . S
C1582 H1573 0.929 . S
C1582 C1574 1.378 . S
C1582 C1577 1.350 . S
C1583 H1570 0.929 . S
C1583 C1575 1.433 . S
C1583 N1585 1.384 . S
N1584 C1580 1.427 . S
N1584 C1581 1.384 . S
N1585 C1577 1.427 . S
N1585 C1583 1.384 . S
H1586 C1592 0.930 . S
H1587 C1596 0.930 . S
H1588 C1601 0.929 . S
H1589 C1599 0.929 . S
H1590 C1594 0.929 . S
H1591 C1600 0.929 . S
C1592 H1586 0.930 . S
C1592 C1593 1.367 . S
C1592 C1600 1.378 . S
C1593 C1592 1.367 . S
C1593 C1601 1.433 . S
C1594 H1590 0.929 . S
C1594 C1596 1.378 . S
C1594 C1598 1.350 . S
C1595 C1598 1.463 . S
C1595 C1600 1.350 . S
C1595 N1603 1.427 . S
C1596 H1587 0.930 . S
C1596 C1594 1.378 . S
C1596 C1597 1.367 . S
C1597 C1596 1.367 . S
C1597 C1599 1.433 . S
C1598 C1594 1.350 . S
C1598 C1595 1.463 . S
C1598 N1602 1.427 . S
C1599 H1589 0.929 . S
C1599 C1597 1.433 . S
C1599 N1602 1.384 . S
C1600 H1591 0.929 . S
C1600 C1592 1.378 . S
C1600 C1595 1.350 . S
C1601 H1588 0.929 . S
C1601 C1593 1.433 . S
C1601 N1603 1.384 . S
N1602 C1598 1.427 . S
N1602 C1599 1.384 . S
N1603 C1595 1.427 . S
N1603 C1601 1.384 . S
H1604 C1610 0.930 . S
H1605 C1614 0.930 . S
H1606 C1619 0.929 . S
H1607 C1617 0.929 . S
H1608 C1612 0.929 . S
H1609 C1618 0.929 . S
C1610 H1604 0.930 . S
C1610 C1611 1.367 . S
C1610 C1618 1.378 . S
C1611 C1610 1.367 . S
C1611 C1619 1.433 1_455 S
C1612 H1608 0.929 . S
C1612 C1614 1.378 . S
C1612 C1616 1.350 1_655 S
C1613 C1616 1.463 . S
C1613 C1618 1.350 . S
C1613 N1621 1.427 1_455 S
C1614 H1605 0.930 . S
C1614 C1612 1.378 . S
C1614 C1615 1.367 1_655 S
C1615 C1614 1.367 1_455 S
C1615 C1617 1.433 . S
C1616 C1612 1.350 1_455 S
C1616 C1613 1.463 . S
C1616 N1620 1.427 . S
C1617 H1607 0.929 . S
C1617 C1615 1.433 . S
C1617 N1620 1.384 . S
C1618 H1609 0.929 . S
C1618 C1610 1.378 . S
C1618 C1613 1.350 . S
C1619 H1606 0.929 . S
C1619 C1611 1.433 1_655 S
C1619 N1621 1.384 . S
N1620 C1616 1.427 . S
N1620 C1617 1.384 . S
N1621 C1613 1.427 1_655 S
N1621 C1619 1.384 . S
H1622 C1628 0.930 . S
H1623 C1632 0.930 . S
H1624 C1637 0.929 . S
H1625 C1635 0.929 . S
H1626 C1630 0.929 . S
H1627 C1636 0.929 . S
C1628 H1622 0.930 . S
C1628 C1629 1.367 . S
C1628 C1636 1.378 . S
C1629 C1628 1.367 . S
C1629 C1637 1.433 . S
C1630 H1626 0.929 . S
C1630 C1632 1.378 . S
C1630 C1634 1.350 . S
C1631 C1634 1.463 . S
C1631 C1636 1.350 . S
C1631 N1639 1.427 . S
C1632 H1623 0.930 . S
C1632 C1630 1.378 . S
C1632 C1633 1.367 . S
C1633 C1632 1.367 . S
C1633 C1635 1.433 . S
C1634 C1630 1.350 . S
C1634 C1631 1.463 . S
C1634 N1638 1.427 . S
C1635 H1625 0.929 . S
C1635 C1633 1.433 . S
C1635 N1638 1.384 . S
C1636 H1627 0.929 . S
C1636 C1628 1.378 . S
C1636 C1631 1.350 . S
C1637 H1624 0.929 . S
C1637 C1629 1.433 . S
C1637 N1639 1.384 . S
N1638 C1634 1.427 . S
N1638 C1635 1.384 . S
N1639 C1631 1.427 . S
N1639 C1637 1.384 . S
H1640 C1646 0.930 . S
H1641 C1650 0.930 . S
H1642 C1655 0.929 . S
H1643 C1653 0.929 . S
H1644 C1648 0.929 . S
H1645 C1654 0.929 . S
C1646 H1640 0.930 . S
C1646 C1647 1.367 . S
C1646 C1654 1.378 . S
C1647 C1646 1.367 . S
C1647 C1655 1.433 . S
C1648 H1644 0.929 . S
C1648 C1650 1.378 . S
C1648 C1652 1.350 . S
C1649 C1652 1.463 . S
C1649 C1654 1.350 . S
C1649 N1657 1.427 . S
C1650 H1641 0.930 . S
C1650 C1648 1.378 . S
C1650 C1651 1.367 . S
C1651 C1650 1.367 . S
C1651 C1653 1.433 . S
C1652 C1648 1.350 . S
C1652 C1649 1.463 . S
C1652 N1656 1.427 . S
C1653 H1643 0.929 . S
C1653 C1651 1.433 . S
C1653 N1656 1.384 . S
C1654 H1645 0.929 . S
C1654 C1646 1.378 . S
C1654 C1649 1.350 . S
C1655 H1642 0.929 . S
C1655 C1647 1.433 . S
C1655 N1657 1.384 . S
N1656 C1652 1.427 . S
N1656 C1653 1.384 . S
N1657 C1649 1.427 . S
N1657 C1655 1.384 . S
H1658 C1664 0.930 . S
H1659 C1668 0.930 . S
H1660 C1673 0.929 . S
H1661 C1671 0.929 . S
H1662 C1666 0.929 . S
H1663 C1672 0.929 . S
C1664 H1658 0.930 . S
C1664 C1665 1.367 . S
C1664 C1672 1.378 . S
C1665 C1664 1.367 . S
C1665 C1673 1.433 . S
C1666 H1662 0.929 . S
C1666 C1668 1.378 . S
C1666 C1670 1.350 . S
C1667 C1670 1.463 . S
C1667 C1672 1.350 . S
C1667 N1675 1.427 . S
C1668 H1659 0.930 . S
C1668 C1666 1.378 . S
C1668 C1669 1.367 . S
C1669 C1668 1.367 . S
C1669 C1671 1.433 . S
C1670 C1666 1.350 . S
C1670 C1667 1.463 . S
C1670 N1674 1.427 . S
C1671 H1661 0.929 . S
C1671 C1669 1.433 . S
C1671 N1674 1.384 . S
C1672 H1663 0.929 . S
C1672 C1664 1.378 . S
C1672 C1667 1.350 . S
C1673 H1660 0.929 . S
C1673 C1665 1.433 . S
C1673 N1675 1.384 . S
N1674 C1670 1.427 . S
N1674 C1671 1.384 . S
N1675 C1667 1.427 . S
N1675 C1673 1.384 . S
H1676 C1682 0.930 . S
H1677 C1686 0.930 . S
H1678 C1691 0.929 . S
H1679 C1689 0.929 . S
H1680 C1684 0.929 . S
H1681 C1690 0.929 . S
C1682 H1676 0.930 . S
C1682 C1683 1.367 . S
C1682 C1690 1.378 . S
C1683 C1682 1.367 . S
C1683 C1691 1.433 . S
C1684 H1680 0.929 . S
C1684 C1686 1.378 . S
C1684 C1688 1.350 . S
C1685 C1688 1.463 . S
C1685 C1690 1.350 . S
C1685 N1693 1.427 . S
C1686 H1677 0.930 . S
C1686 C1684 1.378 . S
C1686 C1687 1.367 . S
C1687 C1686 1.367 . S
C1687 C1689 1.433 . S
C1688 C1684 1.350 . S
C1688 C1685 1.463 . S
C1688 N1692 1.427 . S
C1689 H1679 0.929 . S
C1689 C1687 1.433 . S
C1689 N1692 1.384 . S
C1690 H1681 0.929 . S
C1690 C1682 1.378 . S
C1690 C1685 1.350 . S
C1691 H1678 0.929 . S
C1691 C1683 1.433 . S
C1691 N1693 1.384 . S
N1692 C1688 1.427 . S
N1692 C1689 1.384 . S
N1693 C1685 1.427 . S
N1693 C1691 1.384 . S
H1694 C1700 0.930 . S
H1695 C1704 0.930 . S
H1696 C1709 0.929 . S
H1697 C1707 0.929 . S
H1698 C1702 0.929 . S
H1699 C1708 0.929 . S
C1700 H1694 0.930 . S
C1700 C1701 1.367 . S
C1700 C1708 1.378 . S
C1701 C1700 1.367 . S
C1701 C1709 1.433 . S
C1702 H1698 0.929 . S
C1702 C1704 1.378 . S
C1702 C1706 1.350 . S
C1703 C1706 1.463 . S
C1703 C1708 1.350 . S
C1703 N1711 1.427 . S
C1704 H1695 0.930 . S
C1704 C1702 1.378 . S
C1704 C1705 1.367 . S
C1705 C1704 1.367 . S
C1705 C1707 1.433 . S
C1706 C1702 1.350 . S
C1706 C1703 1.463 . S
C1706 N1710 1.427 . S
C1707 H1697 0.929 . S
C1707 C1705 1.433 . S
C1707 N1710 1.384 . S
C1708 H1699 0.929 . S
C1708 C1700 1.378 . S
C1708 C1703 1.350 . S
C1709 H1696 0.929 . S
C1709 C1701 1.433 . S
C1709 N1711 1.384 . S
N1710 C1706 1.427 . S
N1710 C1707 1.384 . S
N1711 C1703 1.427 . S
N1711 C1709 1.384 . S
H1712 C1718 0.930 . S
H1713 C1722 0.930 . S
H1714 C1727 0.929 . S
H1715 C1725 0.929 . S
H1716 C1720 0.929 . S
H1717 C1726 0.929 . S
C1718 H1712 0.930 . S
C1718 C1719 1.367 . S
C1718 C1726 1.378 . S
C1719 C1718 1.367 . S
C1719 C1727 1.433 . S
C1720 H1716 0.929 . S
C1720 C1722 1.378 . S
C1720 C1724 1.350 . S
C1721 C1724 1.463 . S
C1721 C1726 1.350 . S
C1721 N1729 1.427 . S
C1722 H1713 0.930 . S
C1722 C1720 1.378 . S
C1722 C1723 1.367 . S
C1723 C1722 1.367 . S
C1723 C1725 1.433 . S
C1724 C1720 1.350 . S
C1724 C1721 1.463 . S
C1724 N1728 1.427 . S
C1725 H1715 0.929 . S
C1725 C1723 1.433 . S
C1725 N1728 1.384 . S
C1726 H1717 0.929 . S
C1726 C1718 1.378 . S
C1726 C1721 1.350 . S
C1727 H1714 0.929 . S
C1727 C1719 1.433 . S
C1727 N1729 1.384 . S
N1728 C1724 1.427 . S
N1728 C1725 1.384 . S
N1729 C1721 1.427 . S
N1729 C1727 1.384 . S
H1730 C1736 0.930 . S
H1731 C1740 0.930 . S
H1732 C1745 0.929 . S
H1733 C1743 0.929 . S
H1734 C1738 0.929 . S
H1735 C1744 0.929 . S
C1736 H1730 0.930 . S
C1736 C1737 1.367 . S
C1736 C1744 1.378 . S
C1737 C1736 1.367 . S
C1737 C1745 1.433 . S
C1738 H1734 0.929 . S
C1738 C1740 1.378 . S
C1738 C1742 1.350 . S
C1739 C1742 1.463 . S
C1739 C1744 1.350 . S
C1739 N1747 1.427 . S
C1740 H1731 0.930 . S
C1740 C1738 1.378 . S
C1740 C1741 1.367 . S
C1741 C1740 1.367 . S
C1741 C1743 1.433 . S
C1742 C1738 1.350 . S
C1742 C1739 1.463 . S
C1742 N1746 1.427 . S
C1743 H1733 0.929 . S
C1743 C1741 1.433 . S
C1743 N1746 1.384 . S
C1744 H1735 0.929 . S
C1744 C1736 1.378 . S
C1744 C1739 1.350 . S
C1745 H1732 0.929 . S
C1745 C1737 1.433 . S
C1745 N1747 1.384 . S
N1746 C1742 1.427 . S
N1746 C1743 1.384 . S
N1747 C1739 1.427 . S
N1747 C1745 1.384 . S
H1748 C1754 0.930 . S
H1749 C1758 0.930 . S
H1750 C1763 0.929 . S
H1751 C1761 0.929 . S
H1752 C1756 0.929 . S
H1753 C1762 0.929 . S
C1754 H1748 0.930 . S
C1754 C1755 1.367 . S
C1754 C1762 1.378 . S
C1755 C1754 1.367 . S
C1755 C1763 1.433 . S
C1756 H1752 0.929 . S
C1756 C1758 1.378 . S
C1756 C1760 1.350 . S
C1757 C1760 1.463 . S
C1757 C1762 1.350 . S
C1757 N1765 1.427 . S
C1758 H1749 0.930 . S
C1758 C1756 1.378 . S
C1758 C1759 1.367 . S
C1759 C1758 1.367 . S
C1759 C1761 1.433 . S
C1760 C1756 1.350 . S
C1760 C1757 1.463 . S
C1760 N1764 1.427 . S
C1761 H1751 0.929 . S
C1761 C1759 1.433 . S
C1761 N1764 1.384 . S
C1762 H1753 0.929 . S
C1762 C1754 1.378 . S
C1762 C1757 1.350 . S
C1763 H1750 0.929 . S
C1763 C1755 1.433 . S
C1763 N1765 1.384 . S
N1764 C1760 1.427 . S
N1764 C1761 1.384 . S
N1765 C1757 1.427 . S
N1765 C1763 1.384 . S
H1766 C1772 0.930 . S
H1767 C1776 0.930 . S
H1768 C1781 0.929 . S
H1769 C1779 0.929 . S
H1770 C1774 0.929 . S
H1771 C1780 0.929 . S
C1772 H1766 0.930 . S
C1772 C1773 1.367 . S
C1772 C1780 1.378 . S
C1773 C1772 1.367 . S
C1773 C1781 1.433 . S
C1774 H1770 0.929 . S
C1774 C1776 1.378 . S
C1774 C1778 1.350 . S
C1775 C1778 1.463 . S
C1775 C1780 1.350 . S
C1775 N1783 1.427 . S
C1776 H1767 0.930 . S
C1776 C1774 1.378 . S
C1776 C1777 1.367 . S
C1777 C1776 1.367 . S
C1777 C1779 1.433 . S
C1778 C1774 1.350 . S
C1778 C1775 1.463 . S
C1778 N1782 1.427 . S
C1779 H1769 0.929 . S
C1779 C1777 1.433 . S
C1779 N1782 1.384 . S
C1780 H1771 0.929 . S
C1780 C1772 1.378 . S
C1780 C1775 1.350 . S
C1781 H1768 0.929 . S
C1781 C1773 1.433 . S
C1781 N1783 1.384 . S
N1782 C1778 1.427 . S
N1782 C1779 1.384 . S
N1783 C1775 1.427 . S
N1783 C1781 1.384 . S
H1784 C1790 0.930 . S
H1785 C1794 0.930 . S
H1786 C1799 0.929 . S
H1787 C1797 0.929 . S
H1788 C1792 0.929 . S
H1789 C1798 0.929 . S
C1790 H1784 0.930 . S
C1790 C1791 1.367 . S
C1790 C1798 1.378 . S
C1791 C1790 1.367 . S
C1791 C1799 1.433 . S
C1792 H1788 0.929 . S
C1792 C1794 1.378 . S
C1792 C1796 1.350 . S
C1793 C1796 1.463 . S
C1793 C1798 1.350 . S
C1793 N1801 1.427 . S
C1794 H1785 0.930 . S
C1794 C1792 1.378 . S
C1794 C1795 1.367 . S
C1795 C1794 1.367 . S
C1795 C1797 1.433 . S
C1796 C1792 1.350 . S
C1796 C1793 1.463 . S
C1796 N1800 1.427 . S
C1797 H1787 0.929 . S
C1797 C1795 1.433 . S
C1797 N1800 1.384 . S
C1798 H1789 0.929 . S
C1798 C1790 1.378 . S
C1798 C1793 1.350 . S
C1799 H1786 0.929 . S
C1799 C1791 1.433 . S
C1799 N1801 1.384 . S
N1800 C1796 1.427 . S
N1800 C1797 1.384 . S
N1801 C1793 1.427 . S
N1801 C1799 1.384 . S
H1802 C1808 0.930 . S
H1803 C1812 0.930 . S
H1804 C1817 0.929 . S
H1805 C1815 0.929 . S
H1806 C1810 0.929 . S
H1807 C1816 0.929 . S
C1808 H1802 0.930 . S
C1808 C1809 1.367 . S
C1808 C1816 1.378 . S
C1809 C1808 1.367 . S
C1809 C1817 1.433 . S
C1810 H1806 0.929 . S
C1810 C1812 1.378 . S
C1810 C1814 1.350 . S
C1811 C1814 1.463 . S
C1811 C1816 1.350 . S
C1811 N1819 1.427 . S
C1812 H1803 0.930 . S
C1812 C1810 1.378 . S
C1812 C1813 1.367 . S
C1813 C1812 1.367 . S
C1813 C1815 1.433 . S
C1814 C1810 1.350 . S
C1814 C1811 1.463 . S
C1814 N1818 1.427 . S
C1815 H1805 0.929 . S
C1815 C1813 1.433 . S
C1815 N1818 1.384 . S
C1816 H1807 0.929 . S
C1816 C1808 1.378 . S
C1816 C1811 1.350 . S
C1817 H1804 0.929 . S
C1817 C1809 1.433 . S
C1817 N1819 1.384 . S
N1818 C1814 1.427 . S
N1818 C1815 1.384 . S
N1819 C1811 1.427 . S
N1819 C1817 1.384 . S
H1820 C1826 0.930 . S
H1821 C1830 0.930 . S
H1822 C1835 0.929 . S
H1823 C1833 0.929 . S
H1824 C1828 0.929 . S
H1825 C1834 0.929 . S
C1826 H1820 0.930 . S
C1826 C1827 1.367 . S
C1826 C1834 1.378 . S
C1827 C1826 1.367 . S
C1827 C1835 1.433 . S
C1828 H1824 0.929 . S
C1828 C1830 1.378 . S
C1828 C1832 1.350 . S
C1829 C1832 1.463 . S
C1829 C1834 1.350 . S
C1829 N1837 1.427 . S
C1830 H1821 0.930 . S
C1830 C1828 1.378 . S
C1830 C1831 1.367 . S
C1831 C1830 1.367 . S
C1831 C1833 1.433 . S
C1832 C1828 1.350 . S
C1832 C1829 1.463 . S
C1832 N1836 1.427 . S
C1833 H1823 0.929 . S
C1833 C1831 1.433 . S
C1833 N1836 1.384 . S
C1834 H1825 0.929 . S
C1834 C1826 1.378 . S
C1834 C1829 1.350 . S
C1835 H1822 0.929 . S
C1835 C1827 1.433 . S
C1835 N1837 1.384 . S
N1836 C1832 1.427 . S
N1836 C1833 1.384 . S
N1837 C1829 1.427 . S
N1837 C1835 1.384 . S
H1838 C1844 0.930 . S
H1839 C1848 0.923 1_556 S
H1840 C1853 0.929 . S
H1841 C1851 0.929 1_545 S
H1842 C1846 0.935 . S
H1843 C1852 0.929 . S
C1844 H1838 0.930 . S
C1844 C1845 1.367 . S
C1844 C1852 1.378 . S
C1845 C1844 1.367 . S
C1845 C1853 1.433 . S
C1846 H1842 0.935 . S
C1846 C1848 1.378 . S
C1846 C1850 1.350 . S
C1847 C1850 1.463 . S
C1847 C1852 1.350 . S
C1847 N1855 1.427 . S
C1848 H1839 0.923 1_554 S
C1848 C1846 1.378 . S
C1848 C1849 1.367 . S
C1849 C1848 1.367 . S
C1849 C1851 1.433 . S
C1850 C1846 1.350 . S
C1850 C1847 1.463 . S
C1850 N1854 1.427 . S
C1851 H1841 0.929 1_565 S
C1851 C1849 1.433 . S
C1851 N1854 1.384 . S
C1852 H1843 0.929 . S
C1852 C1844 1.378 . S
C1852 C1847 1.350 . S
C1853 H1840 0.929 . S
C1853 C1845 1.433 . S
C1853 N1855 1.384 . S
N1854 C1850 1.427 . S
N1854 C1851 1.384 . S
N1855 C1847 1.427 . S
N1855 C1853 1.384 . S
H1856 C1862 0.930 . S
H1857 C1866 0.930 . S
H1858 C1871 0.929 . S
H1859 C1869 0.929 . S
H1860 C1864 0.929 . S
H1861 C1870 0.929 . S
C1862 H1856 0.930 . S
C1862 C1863 1.367 . S
C1862 C1870 1.378 . S
C1863 C1862 1.367 . S
C1863 C1871 1.433 . S
C1864 H1860 0.929 . S
C1864 C1866 1.378 . S
C1864 C1868 1.350 . S
C1865 C1868 1.463 . S
C1865 C1870 1.350 . S
C1865 N1873 1.427 . S
C1866 H1857 0.930 . S
C1866 C1864 1.378 . S
C1866 C1867 1.367 . S
C1867 C1866 1.367 . S
C1867 C1869 1.433 . S
C1868 C1864 1.350 . S
C1868 C1865 1.463 . S
C1868 N1872 1.427 . S
C1869 H1859 0.929 . S
C1869 C1867 1.433 . S
C1869 N1872 1.384 . S
C1870 H1861 0.929 . S
C1870 C1862 1.378 . S
C1870 C1865 1.350 . S
C1871 H1858 0.929 . S
C1871 C1863 1.433 . S
C1871 N1873 1.384 . S
N1872 C1868 1.427 . S
N1872 C1869 1.384 . S
N1873 C1865 1.427 . S
N1873 C1871 1.384 . S
H1874 C1880 0.930 . S
H1875 C1884 0.930 . S
H1876 C1889 0.929 . S
H1877 C1887 0.929 1_556 S
H1878 C1882 0.929 . S
H1879 C1888 0.929 . S
C1880 H1874 0.930 . S
C1880 C1881 1.367 1_556 S
C1880 C1888 1.378 . S
C1881 C1880 1.367 1_554 S
C1881 C1889 1.433 . S
C1882 H1878 0.929 . S
C1882 C1884 1.378 . S
C1882 C1886 1.350 . S
C1883 C1886 1.463 . S
C1883 C1888 1.350 1_554 S
C1883 N1891 1.427 . S
C1884 H1875 0.930 . S
C1884 C1882 1.378 . S
C1884 C1885 1.367 . S
C1885 C1884 1.367 . S
C1885 C1887 1.433 . S
C1886 C1882 1.350 . S
C1886 C1883 1.463 . S
C1886 N1890 1.427 . S
C1887 H1877 0.929 1_554 S
C1887 C1885 1.433 . S
C1887 N1890 1.384 . S
C1888 H1879 0.929 . S
C1888 C1880 1.378 . S
C1888 C1883 1.350 1_556 S
C1889 H1876 0.929 . S
C1889 C1881 1.433 . S
C1889 N1891 1.384 . S
N1890 C1886 1.427 . S
N1890 C1887 1.384 . S
N1891 C1883 1.427 . S
N1891 C1889 1.384 . S
H1892 C1898 0.930 . S
H1893 C1902 0.930 . S
H1894 C1907 0.929 . S
H1895 C1905 0.929 . S
H1896 C1900 0.929 . S
H1897 C1906 0.929 . S
C1898 H1892 0.930 . S
C1898 C1899 1.367 . S
C1898 C1906 1.378 . S
C1899 C1898 1.367 . S
C1899 C1907 1.433 . S
C1900 H1896 0.929 . S
C1900 C1902 1.378 . S
C1900 C1904 1.350 . S
C1901 C1904 1.463 . S
C1901 C1906 1.350 . S
C1901 N1909 1.427 . S
C1902 H1893 0.930 . S
C1902 C1900 1.378 . S
C1902 C1903 1.367 . S
C1903 C1902 1.367 . S
C1903 C1905 1.433 . S
C1904 C1900 1.350 . S
C1904 C1901 1.463 . S
C1904 N1908 1.427 . S
C1905 H1895 0.929 . S
C1905 C1903 1.433 . S
C1905 N1908 1.384 . S
C1906 H1897 0.929 . S
C1906 C1898 1.378 . S
C1906 C1901 1.350 . S
C1907 H1894 0.929 . S
C1907 C1899 1.433 . S
C1907 N1909 1.384 . S
N1908 C1904 1.427 . S
N1908 C1905 1.384 . S
N1909 C1901 1.427 . S
N1909 C1907 1.384 . S
H1910 C1916 0.930 . S
H1911 C1920 0.930 . S
H1912 C1925 0.929 . S
H1913 C1923 0.929 . S
H1914 C1918 0.929 . S
H1915 C1924 0.929 . S
C1916 H1910 0.930 . S
C1916 C1917 1.367 . S
C1916 C1924 1.378 . S
C1917 C1916 1.367 . S
C1917 C1925 1.433 . S
C1918 H1914 0.929 . S
C1918 C1920 1.378 . S
C1918 C1922 1.350 . S
C1919 C1922 1.463 . S
C1919 C1924 1.350 . S
C1919 N1927 1.427 . S
C1920 H1911 0.930 . S
C1920 C1918 1.378 . S
C1920 C1921 1.367 . S
C1921 C1920 1.367 . S
C1921 C1923 1.433 . S
C1922 C1918 1.350 . S
C1922 C1919 1.463 . S
C1922 N1926 1.427 . S
C1923 H1913 0.929 . S
C1923 C1921 1.433 . S
C1923 N1926 1.384 . S
C1924 H1915 0.929 . S
C1924 C1916 1.378 . S
C1924 C1919 1.350 . S
C1925 H1912 0.929 . S
C1925 C1917 1.433 . S
C1925 N1927 1.384 . S
N1926 C1922 1.427 . S
N1926 C1923 1.384 . S
N1927 C1919 1.427 . S
N1927 C1925 1.384 . S
H1928 C1934 0.930 . S
H1929 C1938 0.930 . S
H1930 C1943 0.929 . S
H1931 C1941 0.929 . S
H1932 C1936 0.929 . S
H1933 C1942 0.929 . S
C1934 H1928 0.930 . S
C1934 C1935 1.367 . S
C1934 C1942 1.378 . S
C1935 C1934 1.367 . S
C1935 C1943 1.433 . S
C1936 H1932 0.929 . S
C1936 C1938 1.378 . S
C1936 C1940 1.350 . S
C1937 C1940 1.463 . S
C1937 C1942 1.350 . S
C1937 N1945 1.427 . S
C1938 H1929 0.930 . S
C1938 C1936 1.378 . S
C1938 C1939 1.367 . S
C1939 C1938 1.367 . S
C1939 C1941 1.433 . S
C1940 C1936 1.350 . S
C1940 C1937 1.463 . S
C1940 N1944 1.427 . S
C1941 H1931 0.929 . S
C1941 C1939 1.433 . S
C1941 N1944 1.384 . S
C1942 H1933 0.929 . S
C1942 C1934 1.378 . S
C1942 C1937 1.350 . S
C1943 H1930 0.929 . S
C1943 C1935 1.433 . S
C1943 N1945 1.384 . S
N1944 C1940 1.427 . S
N1944 C1941 1.384 . S
N1945 C1937 1.427 . S
N1945 C1943 1.384 . S
H1946 C1952 0.930 . S
H1947 C1956 0.930 . S
H1948 C1961 0.929 . S
H1949 C1959 0.929 . S
H1950 C1954 0.929 . S
H1951 C1960 0.929 . S
C1952 H1946 0.930 . S
C1952 C1953 1.367 . S
C1952 C1960 1.378 . S
C1953 C1952 1.367 . S
C1953 C1961 1.433 . S
C1954 H1950 0.929 . S
C1954 C1956 1.378 . S
C1954 C1958 1.350 . S
C1955 C1958 1.463 . S
C1955 C1960 1.350 . S
C1955 N1963 1.427 . S
C1956 H1947 0.930 . S
C1956 C1954 1.378 . S
C1956 C1957 1.367 . S
C1957 C1956 1.367 . S
C1957 C1959 1.433 . S
C1958 C1954 1.350 . S
C1958 C1955 1.463 . S
C1958 N1962 1.427 . S
C1959 H1949 0.929 . S
C1959 C1957 1.433 . S
C1959 N1962 1.384 . S
C1960 H1951 0.929 . S
C1960 C1952 1.378 . S
C1960 C1955 1.350 . S
C1961 H1948 0.929 . S
C1961 C1953 1.433 . S
C1961 N1963 1.384 . S
N1962 C1958 1.427 . S
N1962 C1959 1.384 . S
N1963 C1955 1.427 . S
N1963 C1961 1.384 . S
H1964 C1970 0.930 . S
H1965 C1974 0.930 . S
H1966 C1979 0.929 . S
H1967 C1977 0.929 . S
H1968 C1972 0.929 . S
H1969 C1978 0.929 . S
C1970 H1964 0.930 . S
C1970 C1971 1.367 . S
C1970 C1978 1.378 . S
C1971 C1970 1.367 . S
C1971 C1979 1.433 . S
C1972 H1968 0.929 . S
C1972 C1974 1.378 . S
C1972 C1976 1.350 . S
C1973 C1976 1.463 . S
C1973 C1978 1.350 . S
C1973 N1981 1.427 . S
C1974 H1965 0.930 . S
C1974 C1972 1.378 . S
C1974 C1975 1.367 . S
C1975 C1974 1.367 . S
C1975 C1977 1.433 . S
C1976 C1972 1.350 . S
C1976 C1973 1.463 . S
C1976 N1980 1.427 . S
C1977 H1967 0.929 . S
C1977 C1975 1.433 . S
C1977 N1980 1.384 . S
C1978 H1969 0.929 . S
C1978 C1970 1.378 . S
C1978 C1973 1.350 . S
C1979 H1966 0.929 . S
C1979 C1971 1.433 . S
C1979 N1981 1.384 . S
N1980 C1976 1.427 . S
N1980 C1977 1.384 . S
N1981 C1973 1.427 . S
N1981 C1979 1.384 . S
H1982 C1988 0.930 . S
H1983 C1992 0.930 . S
H1984 C1997 0.929 . S
H1985 C1995 0.929 . S
H1986 C1990 0.929 . S
H1987 C1996 0.929 . S
C1988 H1982 0.930 . S
C1988 C1989 1.367 . S
C1988 C1996 1.378 . S
C1989 C1988 1.367 . S
C1989 C1997 1.433 . S
C1990 H1986 0.929 . S
C1990 C1992 1.378 . S
C1990 C1994 1.350 . S
C1991 C1994 1.463 . S
C1991 C1996 1.350 . S
C1991 N1999 1.427 . S
C1992 H1983 0.930 . S
C1992 C1990 1.378 . S
C1992 C1993 1.367 . S
C1993 C1992 1.367 . S
C1993 C1995 1.433 . S
C1994 C1990 1.350 . S
C1994 C1991 1.463 . S
C1994 N1998 1.427 . S
C1995 H1985 0.929 . S
C1995 C1993 1.433 . S
C1995 N1998 1.384 . S
C1996 H1987 0.929 . S
C1996 C1988 1.378 . S
C1996 C1991 1.350 . S
C1997 H1984 0.929 . S
C1997 C1989 1.433 . S
C1997 N1999 1.384 . S
N1998 C1994 1.427 . S
N1998 C1995 1.384 . S
N1999 C1991 1.427 . S
N1999 C1997 1.384 . S
H2000 C2006 0.930 . S
H2001 C2010 0.930 1_554 S
H2002 C2015 0.929 . S
H2003 C2013 0.929 . S
H2004 C2008 0.929 . S
H2005 C2014 0.929 . S
C2006 H2000 0.930 . S
C2006 C2007 1.367 . S
C2006 C2014 1.378 . S
C2007 C2006 1.367 . S
C2007 C2015 1.433 . S
C2008 H2004 0.929 . S
C2008 C2010 1.378 . S
C2008 C2012 1.350 . S
C2009 C2012 1.463 . S
C2009 C2014 1.350 . S
C2009 N2017 1.427 . S
C2010 H2001 0.930 1_556 S
C2010 C2008 1.378 . S
C2010 C2011 1.367 . S
C2011 C2010 1.367 . S
C2011 C2013 1.433 . S
C2012 C2008 1.350 . S
C2012 C2009 1.463 . S
C2012 N2016 1.427 . S
C2013 H2003 0.929 . S
C2013 C2011 1.433 . S
C2013 N2016 1.384 . S
C2014 H2005 0.929 . S
C2014 C2006 1.378 . S
C2014 C2009 1.350 . S
C2015 H2002 0.929 . S
C2015 C2007 1.433 . S
C2015 N2017 1.384 . S
N2016 C2012 1.427 . S
N2016 C2013 1.384 . S
N2017 C2009 1.427 . S
N2017 C2015 1.384 . S
H2018 C2024 0.930 . S
H2019 C2028 0.930 . S
H2020 C2033 0.929 . S
H2021 C2031 0.929 . S
H2022 C2026 0.929 . S
H2023 C2032 0.929 . S
C2024 H2018 0.930 . S
C2024 C2025 1.367 . S
C2024 C2032 1.378 . S
C2025 C2024 1.367 . S
C2025 C2033 1.433 . S
C2026 H2022 0.929 . S
C2026 C2028 1.378 . S
C2026 C2030 1.350 . S
C2027 C2030 1.463 . S
C2027 C2032 1.350 . S
C2027 N2035 1.427 . S
C2028 H2019 0.930 . S
C2028 C2026 1.378 . S
C2028 C2029 1.367 . S
C2029 C2028 1.367 . S
C2029 C2031 1.433 . S
C2030 C2026 1.350 . S
C2030 C2027 1.463 . S
C2030 N2034 1.427 . S
C2031 H2021 0.929 . S
C2031 C2029 1.433 . S
C2031 N2034 1.384 . S
C2032 H2023 0.929 . S
C2032 C2024 1.378 . S
C2032 C2027 1.350 . S
C2033 H2020 0.929 . S
C2033 C2025 1.433 . S
C2033 N2035 1.384 . S
N2034 C2030 1.427 . S
N2034 C2031 1.384 . S
N2035 C2027 1.427 . S
N2035 C2033 1.384 . S
H2036 C2042 0.930 . S
H2037 C2046 0.930 . S
H2038 C2051 0.929 . S
H2039 C2049 0.929 . S
H2040 C2044 0.929 . S
H2041 C2050 0.929 . S
C2042 H2036 0.930 . S
C2042 C2043 1.367 . S
C2042 C2050 1.378 . S
C2043 C2042 1.367 . S
C2043 C2051 1.433 . S
C2044 H2040 0.929 . S
C2044 C2046 1.378 . S
C2044 C2048 1.350 . S
C2045 C2048 1.463 . S
C2045 C2050 1.350 . S
C2045 N2053 1.427 . S
C2046 H2037 0.930 . S
C2046 C2044 1.378 . S
C2046 C2047 1.367 . S
C2047 C2046 1.367 . S
C2047 C2049 1.433 . S
C2048 C2044 1.350 . S
C2048 C2045 1.463 . S
C2048 N2052 1.427 . S
C2049 H2039 0.929 . S
C2049 C2047 1.433 . S
C2049 N2052 1.384 . S
C2050 H2041 0.929 . S
C2050 C2042 1.378 . S
C2050 C2045 1.350 . S
C2051 H2038 0.929 . S
C2051 C2043 1.433 . S
C2051 N2053 1.384 . S
N2052 C2048 1.427 . S
N2052 C2049 1.384 . S
N2053 C2045 1.427 . S
N2053 C2051 1.384 . S
H2054 C2060 0.930 . S
H2055 C2064 0.930 . S
H2056 C2069 0.929 . S
H2057 C2067 0.929 . S
H2058 C2062 0.929 . S
H2059 C2068 0.929 . S
C2060 H2054 0.930 . S
C2060 C2061 1.367 . S
C2060 C2068 1.378 . S
C2061 C2060 1.367 . S
C2061 C2069 1.433 . S
C2062 H2058 0.929 . S
C2062 C2064 1.378 . S
C2062 C2066 1.350 . S
C2063 C2066 1.463 . S
C2063 C2068 1.350 . S
C2063 N2071 1.427 . S
C2064 H2055 0.930 . S
C2064 C2062 1.378 . S
C2064 C2065 1.367 . S
C2065 C2064 1.367 . S
C2065 C2067 1.433 . S
C2066 C2062 1.350 . S
C2066 C2063 1.463 . S
C2066 N2070 1.427 . S
C2067 H2057 0.929 . S
C2067 C2065 1.433 . S
C2067 N2070 1.384 . S
C2068 H2059 0.929 . S
C2068 C2060 1.378 . S
C2068 C2063 1.350 . S
C2069 H2056 0.929 . S
C2069 C2061 1.433 . S
C2069 N2071 1.384 . S
N2070 C2066 1.427 . S
N2070 C2067 1.384 . S
N2071 C2063 1.427 . S
N2071 C2069 1.384 . S
H2072 C2078 0.930 . S
H2073 C2082 0.930 . S
H2074 C2087 0.929 . S
H2075 C2085 0.929 . S
H2076 C2080 0.929 . S
H2077 C2086 0.929 . S
C2078 H2072 0.930 . S
C2078 C2079 1.367 . S
C2078 C2086 1.378 . S
C2079 C2078 1.367 . S
C2079 C2087 1.433 . S
C2080 H2076 0.929 . S
C2080 C2082 1.378 . S
C2080 C2084 1.350 . S
C2081 C2084 1.463 . S
C2081 C2086 1.350 . S
C2081 N2089 1.427 . S
C2082 H2073 0.930 . S
C2082 C2080 1.378 . S
C2082 C2083 1.367 . S
C2083 C2082 1.367 . S
C2083 C2085 1.433 . S
C2084 C2080 1.350 . S
C2084 C2081 1.463 . S
C2084 N2088 1.427 . S
C2085 H2075 0.929 . S
C2085 C2083 1.433 . S
C2085 N2088 1.384 . S
C2086 H2077 0.929 . S
C2086 C2078 1.378 . S
C2086 C2081 1.350 . S
C2087 H2074 0.929 . S
C2087 C2079 1.433 . S
C2087 N2089 1.384 . S
N2088 C2084 1.427 . S
N2088 C2085 1.384 . S
N2089 C2081 1.427 . S
N2089 C2087 1.384 . S
H2090 C2096 0.930 . S
H2091 C2100 0.930 . S
H2092 C2105 0.929 . S
H2093 C2103 0.929 . S
H2094 C2098 0.929 . S
H2095 C2104 0.929 . S
C2096 H2090 0.930 . S
C2096 C2097 1.367 . S
C2096 C2104 1.378 . S
C2097 C2096 1.367 . S
C2097 C2105 1.433 . S
C2098 H2094 0.929 . S
C2098 C2100 1.378 . S
C2098 C2102 1.350 . S
C2099 C2102 1.463 . S
C2099 C2104 1.350 . S
C2099 N2107 1.427 . S
C2100 H2091 0.930 . S
C2100 C2098 1.378 . S
C2100 C2101 1.367 . S
C2101 C2100 1.367 . S
C2101 C2103 1.433 . S
C2102 C2098 1.350 . S
C2102 C2099 1.463 . S
C2102 N2106 1.427 . S
C2103 H2093 0.929 . S
C2103 C2101 1.433 . S
C2103 N2106 1.384 . S
C2104 H2095 0.929 . S
C2104 C2096 1.378 . S
C2104 C2099 1.350 . S
C2105 H2092 0.929 . S
C2105 C2097 1.433 . S
C2105 N2107 1.384 . S
N2106 C2102 1.427 . S
N2106 C2103 1.384 . S
N2107 C2099 1.427 . S
N2107 C2105 1.384 . S
H2108 C2114 0.930 . S
H2109 C2118 0.915 1_455 S
H2110 C2123 0.929 . S
H2111 C2121 0.929 . S
H2112 C2116 0.929 . S
H2113 C2122 0.929 . S
C2114 H2108 0.930 . S
C2114 C2115 1.367 . S
C2114 C2122 1.378 . S
C2115 C2114 1.367 . S
C2115 C2123 1.433 . S
C2116 H2112 0.929 . S
C2116 C2118 1.388 . S
C2116 C2120 1.350 . S
C2117 C2120 1.463 . S
C2117 C2122 1.350 . S
C2117 N2125 1.427 . S
C2118 H2109 0.915 1_655 S
C2118 C2116 1.388 . S
C2118 C2119 1.372 . S
C2119 C2118 1.372 . S
C2119 C2121 1.433 . S
C2120 C2116 1.350 . S
C2120 C2117 1.463 . S
C2120 N2124 1.427 . S
C2121 H2111 0.929 . S
C2121 C2119 1.433 . S
C2121 N2124 1.384 . S
C2122 H2113 0.929 . S
C2122 C2114 1.378 . S
C2122 C2117 1.350 . S
C2123 H2110 0.929 . S
C2123 C2115 1.433 . S
C2123 N2125 1.384 . S
N2124 C2120 1.427 . S
N2124 C2121 1.384 . S
N2125 C2117 1.427 . S
N2125 C2123 1.384 . S
H2126 C2132 0.930 . S
H2127 C2136 0.930 . S
H2128 C2141 0.929 . S
H2129 C2139 0.929 . S
H2130 C2134 0.929 . S
H2131 C2140 0.929 . S
C2132 H2126 0.930 . S
C2132 C2133 1.367 . S
C2132 C2140 1.378 . S
C2133 C2132 1.367 . S
C2133 C2141 1.433 . S
C2134 H2130 0.929 . S
C2134 C2136 1.378 . S
C2134 C2138 1.350 . S
C2135 C2138 1.463 . S
C2135 C2140 1.350 . S
C2135 N2143 1.427 . S
C2136 H2127 0.930 . S
C2136 C2134 1.378 . S
C2136 C2137 1.367 . S
C2137 C2136 1.367 . S
C2137 C2139 1.433 . S
C2138 C2134 1.350 . S
C2138 C2135 1.463 . S
C2138 N2142 1.427 . S
C2139 H2129 0.929 . S
C2139 C2137 1.433 . S
C2139 N2142 1.384 . S
C2140 H2131 0.929 . S
C2140 C2132 1.378 . S
C2140 C2135 1.350 . S
C2141 H2128 0.929 . S
C2141 C2133 1.433 . S
C2141 N2143 1.384 . S
N2142 C2138 1.427 . S
N2142 C2139 1.384 . S
N2143 C2135 1.427 . S
N2143 C2141 1.384 . S
H2144 C2150 0.930 . S
H2145 C2154 0.930 . S
H2146 C2159 0.929 . S
H2147 C2157 0.929 . S
H2148 C2152 0.929 . S
H2149 C2158 0.929 . S
C2150 H2144 0.930 . S
C2150 C2151 1.367 . S
C2150 C2158 1.378 . S
C2151 C2150 1.367 . S
C2151 C2159 1.433 . S
C2152 H2148 0.929 . S
C2152 C2154 1.378 . S
C2152 C2156 1.350 . S
C2153 C2156 1.463 . S
C2153 C2158 1.350 . S
C2153 N2161 1.427 . S
C2154 H2145 0.930 . S
C2154 C2152 1.378 . S
C2154 C2155 1.367 . S
C2155 C2154 1.367 . S
C2155 C2157 1.433 . S
C2156 C2152 1.350 . S
C2156 C2153 1.463 . S
C2156 N2160 1.427 . S
C2157 H2147 0.929 . S
C2157 C2155 1.433 . S
C2157 N2160 1.384 . S
C2158 H2149 0.929 . S
C2158 C2150 1.378 . S
C2158 C2153 1.350 . S
C2159 H2146 0.929 . S
C2159 C2151 1.433 . S
C2159 N2161 1.384 . S
N2160 C2156 1.427 . S
N2160 C2157 1.384 . S
N2161 C2153 1.427 . S
N2161 C2159 1.384 . S
H2162 C2168 0.930 . S
H2163 C2172 0.930 . S
H2164 C2177 0.929 . S
H2165 C2175 0.929 . S
H2166 C2170 0.929 . S
H2167 C2176 0.929 . S
C2168 H2162 0.930 . S
C2168 C2169 1.367 . S
C2168 C2176 1.378 . S
C2169 C2168 1.367 . S
C2169 C2177 1.433 . S
C2170 H2166 0.929 . S
C2170 C2172 1.378 . S
C2170 C2174 1.350 . S
C2171 C2174 1.463 . S
C2171 C2176 1.350 . S
C2171 N2179 1.427 . S
C2172 H2163 0.930 . S
C2172 C2170 1.378 . S
C2172 C2173 1.367 . S
C2173 C2172 1.367 . S
C2173 C2175 1.433 . S
C2174 C2170 1.350 . S
C2174 C2171 1.463 . S
C2174 N2178 1.427 . S
C2175 H2165 0.929 . S
C2175 C2173 1.433 . S
C2175 N2178 1.384 . S
C2176 H2167 0.929 . S
C2176 C2168 1.378 . S
C2176 C2171 1.350 . S
C2177 H2164 0.929 . S
C2177 C2169 1.433 . S
C2177 N2179 1.384 . S
N2178 C2174 1.427 . S
N2178 C2175 1.384 . S
N2179 C2171 1.427 . S
N2179 C2177 1.384 . S
H2180 C2186 0.930 . S
H2181 C2190 0.930 . S
H2182 C2195 0.929 . S
H2183 C2193 0.929 1_455 S
H2184 C2188 0.929 . S
H2185 C2194 0.929 . S
C2186 H2180 0.930 . S
C2186 C2187 1.367 . S
C2186 C2194 1.378 . S
C2187 C2186 1.367 . S
C2187 C2195 1.433 . S
C2188 H2184 0.929 . S
C2188 C2190 1.378 . S
C2188 C2192 1.350 . S
C2189 C2192 1.463 . S
C2189 C2194 1.350 . S
C2189 N2197 1.427 . S
C2190 H2181 0.930 . S
C2190 C2188 1.378 . S
C2190 C2191 1.367 . S
C2191 C2190 1.367 . S
C2191 C2193 1.433 . S
C2192 C2188 1.350 . S
C2192 C2189 1.463 . S
C2192 N2196 1.427 . S
C2193 H2183 0.929 1_655 S
C2193 C2191 1.433 . S
C2193 N2196 1.384 . S
C2194 H2185 0.929 . S
C2194 C2186 1.378 . S
C2194 C2189 1.350 . S
C2195 H2182 0.929 . S
C2195 C2187 1.433 . S
C2195 N2197 1.384 . S
N2196 C2192 1.427 . S
N2196 C2193 1.384 . S
N2197 C2189 1.427 . S
N2197 C2195 1.384 . S
H2198 C2204 0.930 . S
H2199 C2208 0.930 . S
H2200 C2213 0.929 . S
H2201 C2211 0.929 . S
H2202 C2206 0.929 . S
H2203 C2212 0.929 . S
C2204 H2198 0.930 . S
C2204 C2205 1.367 . S
C2204 C2212 1.378 . S
C2205 C2204 1.367 . S
C2205 C2213 1.433 . S
C2206 H2202 0.929 . S
C2206 C2208 1.378 . S
C2206 C2210 1.350 . S
C2207 C2210 1.463 . S
C2207 C2212 1.350 . S
C2207 N2215 1.427 . S
C2208 H2199 0.930 . S
C2208 C2206 1.378 . S
C2208 C2209 1.367 . S
C2209 C2208 1.367 . S
C2209 C2211 1.433 . S
C2210 C2206 1.350 . S
C2210 C2207 1.463 . S
C2210 N2214 1.427 . S
C2211 H2201 0.929 . S
C2211 C2209 1.433 . S
C2211 N2214 1.384 . S
C2212 H2203 0.929 . S
C2212 C2204 1.378 . S
C2212 C2207 1.350 . S
C2213 H2200 0.929 . S
C2213 C2205 1.433 . S
C2213 N2215 1.384 . S
N2214 C2210 1.427 . S
N2214 C2211 1.384 . S
N2215 C2207 1.427 . S
N2215 C2213 1.384 . S
H2216 C2222 0.930 . S
H2217 C2226 0.930 . S
H2218 C2231 0.929 . S
H2219 C2229 0.929 . S
H2220 C2224 0.929 . S
H2221 C2230 0.929 . S
C2222 H2216 0.930 . S
C2222 C2223 1.367 . S
C2222 C2230 1.378 . S
C2223 C2222 1.367 . S
C2223 C2231 1.433 . S
C2224 H2220 0.929 . S
C2224 C2226 1.378 . S
C2224 C2228 1.350 . S
C2225 C2228 1.463 . S
C2225 C2230 1.350 . S
C2225 N2233 1.427 . S
C2226 H2217 0.930 . S
C2226 C2224 1.378 . S
C2226 C2227 1.367 . S
C2227 C2226 1.367 . S
C2227 C2229 1.433 . S
C2228 C2224 1.350 . S
C2228 C2225 1.463 . S
C2228 N2232 1.427 . S
C2229 H2219 0.929 . S
C2229 C2227 1.433 . S
C2229 N2232 1.384 . S
C2230 H2221 0.929 . S
C2230 C2222 1.378 . S
C2230 C2225 1.350 . S
C2231 H2218 0.929 . S
C2231 C2223 1.433 . S
C2231 N2233 1.384 . S
N2232 C2228 1.427 . S
N2232 C2229 1.384 . S
N2233 C2225 1.427 . S
N2233 C2231 1.384 . S
H2234 C2240 0.930 . S
H2235 C2244 0.930 . S
H2236 C2249 0.929 . S
H2237 C2247 0.943 . S
H2238 C2242 0.929 . S
H2239 C2248 0.929 . S
C2240 H2234 0.930 . S
C2240 C2241 1.367 . S
C2240 C2248 1.378 . S
C2241 C2240 1.367 . S
C2241 C2249 1.433 . S
C2242 H2238 0.929 . S
C2242 C2244 1.378 . S
C2242 C2246 1.350 . S
C2243 C2246 1.463 . S
C2243 C2248 1.350 . S
C2243 N2251 1.427 . S
C2244 H2235 0.930 . S
C2244 C2242 1.378 . S
C2244 C2245 1.367 . S
C2245 C2244 1.367 . S
C2245 C2247 1.433 . S
C2246 C2242 1.350 . S
C2246 C2243 1.463 . S
C2246 N2250 1.427 . S
C2247 H2237 0.943 . S
C2247 C2245 1.433 . S
C2247 N2250 1.384 . S
C2248 H2239 0.929 . S
C2248 C2240 1.378 . S
C2248 C2243 1.350 . S
C2249 H2236 0.929 . S
C2249 C2241 1.433 . S
C2249 N2251 1.384 . S
N2250 C2246 1.427 . S
N2250 C2247 1.384 . S
N2251 C2243 1.427 . S
N2251 C2249 1.384 . S
H2252 C2258 0.930 . S
H2253 C2262 0.930 . S
H2254 C2267 0.929 . S
H2255 C2265 0.929 . S
H2256 C2260 0.929 . S
H2257 C2266 0.929 . S
C2258 H2252 0.930 . S
C2258 C2259 1.367 . S
C2258 C2266 1.378 . S
C2259 C2258 1.367 . S
C2259 C2267 1.433 . S
C2260 H2256 0.929 . S
C2260 C2262 1.378 . S
C2260 C2264 1.350 . S
C2261 C2264 1.463 . S
C2261 C2266 1.350 . S
C2261 N2269 1.427 . S
C2262 H2253 0.930 . S
C2262 C2260 1.378 . S
C2262 C2263 1.367 . S
C2263 C2262 1.367 . S
C2263 C2265 1.433 . S
C2264 C2260 1.350 . S
C2264 C2261 1.463 . S
C2264 N2268 1.427 . S
C2265 H2255 0.929 . S
C2265 C2263 1.433 . S
C2265 N2268 1.384 . S
C2266 H2257 0.929 . S
C2266 C2258 1.378 . S
C2266 C2261 1.350 . S
C2267 H2254 0.929 . S
C2267 C2259 1.433 . S
C2267 N2269 1.384 . S
N2268 C2264 1.427 . S
N2268 C2265 1.384 . S
N2269 C2261 1.427 . S
N2269 C2267 1.384 . S
H2270 C2276 0.930 1_556 S
H2271 C2280 0.930 . S
H2272 C2285 0.929 . S
H2273 C2283 0.929 1_556 S
H2274 C2278 0.929 . S
H2275 C2284 0.929 1_556 S
C2276 H2270 0.930 1_554 S
C2276 C2277 1.367 . S
C2276 C2284 1.378 . S
C2277 C2276 1.367 . S
C2277 C2285 1.433 . S
C2278 H2274 0.929 . S
C2278 C2280 1.378 . S
C2278 C2282 1.350 . S
C2279 C2282 1.463 . S
C2279 C2284 1.350 . S
C2279 N2287 1.427 . S
C2280 H2271 0.930 . S
C2280 C2278 1.378 . S
C2280 C2281 1.367 . S
C2281 C2280 1.367 . S
C2281 C2283 1.433 . S
C2282 C2278 1.350 . S
C2282 C2279 1.463 . S
C2282 N2286 1.427 . S
C2283 H2273 0.929 1_554 S
C2283 C2281 1.433 . S
C2283 N2286 1.384 . S
C2284 H2275 0.929 1_554 S
C2284 C2276 1.378 . S
C2284 C2279 1.350 . S
C2285 H2272 0.929 . S
C2285 C2277 1.433 . S
C2285 N2287 1.384 . S
N2286 C2282 1.427 . S
N2286 C2283 1.384 . S
N2287 C2279 1.427 . S
N2287 C2285 1.384 . S
H2288 C2294 0.930 . S
H2289 C2298 0.930 . S
H2290 C2303 0.929 . S
H2291 C2301 0.929 . S
H2292 C2296 0.929 . S
H2293 C2302 0.929 . S
C2294 H2288 0.930 . S
C2294 C2295 1.367 . S
C2294 C2302 1.378 . S
C2295 C2294 1.367 . S
C2295 C2303 1.433 . S
C2296 H2292 0.929 . S
C2296 C2298 1.378 . S
C2296 C2300 1.350 . S
C2297 C2300 1.463 . S
C2297 C2302 1.350 . S
C2297 N2305 1.427 . S
C2298 H2289 0.930 . S
C2298 C2296 1.378 . S
C2298 C2299 1.367 . S
C2299 C2298 1.367 . S
C2299 C2301 1.433 . S
C2300 C2296 1.350 . S
C2300 C2297 1.463 . S
C2300 N2304 1.427 . S
C2301 H2291 0.929 . S
C2301 C2299 1.433 . S
C2301 N2304 1.384 . S
C2302 H2293 0.929 . S
C2302 C2294 1.378 . S
C2302 C2297 1.350 . S
C2303 H2290 0.929 . S
C2303 C2295 1.433 . S
C2303 N2305 1.384 . S
N2304 C2300 1.427 . S
N2304 C2301 1.384 . S
N2305 C2297 1.427 . S
N2305 C2303 1.384 . S
H2306 C2312 0.930 . S
H2307 C2316 0.930 . S
H2308 C2321 0.929 . S
H2309 C2319 0.929 1_556 S
H2310 C2314 0.929 . S
H2311 C2320 0.929 . S
C2312 H2306 0.930 . S
C2312 C2313 1.367 . S
C2312 C2320 1.378 . S
C2313 C2312 1.367 . S
C2313 C2321 1.433 . S
C2314 H2310 0.929 . S
C2314 C2316 1.378 . S
C2314 C2318 1.350 . S
C2315 C2318 1.463 . S
C2315 C2320 1.350 . S
C2315 N2323 1.427 . S
C2316 H2307 0.930 . S
C2316 C2314 1.378 . S
C2316 C2317 1.367 . S
C2317 C2316 1.367 . S
C2317 C2319 1.433 . S
C2318 C2314 1.350 . S
C2318 C2315 1.463 . S
C2318 N2322 1.427 . S
C2319 H2309 0.929 1_554 S
C2319 C2317 1.433 . S
C2319 N2322 1.384 . S
C2320 H2311 0.929 . S
C2320 C2312 1.378 . S
C2320 C2315 1.350 . S
C2321 H2308 0.929 . S
C2321 C2313 1.433 . S
C2321 N2323 1.384 . S
N2322 C2318 1.427 . S
N2322 C2319 1.384 . S
N2323 C2315 1.427 . S
N2323 C2321 1.384 . S
H2324 C2330 0.930 . S
H2325 C2334 0.930 . S
H2326 C2339 0.929 . S
H2327 C2337 0.929 . S
H2328 C2332 0.929 . S
H2329 C2338 0.929 . S
C2330 H2324 0.930 . S
C2330 C2331 1.367 . S
C2330 C2338 1.378 . S
C2331 C2330 1.367 . S
C2331 C2339 1.433 . S
C2332 H2328 0.929 . S
C2332 C2334 1.378 . S
C2332 C2336 1.350 . S
C2333 C2336 1.463 . S
C2333 C2338 1.350 . S
C2333 N2341 1.427 . S
C2334 H2325 0.930 . S
C2334 C2332 1.378 . S
C2334 C2335 1.367 . S
C2335 C2334 1.367 . S
C2335 C2337 1.433 . S
C2336 C2332 1.350 . S
C2336 C2333 1.463 . S
C2336 N2340 1.427 . S
C2337 H2327 0.929 . S
C2337 C2335 1.433 . S
C2337 N2340 1.384 . S
C2338 H2329 0.929 . S
C2338 C2330 1.378 . S
C2338 C2333 1.350 . S
C2339 H2326 0.929 . S
C2339 C2331 1.433 . S
C2339 N2341 1.384 . S
N2340 C2336 1.427 . S
N2340 C2337 1.384 . S
N2341 C2333 1.427 . S
N2341 C2339 1.384 . S
H2342 C2348 0.930 . S
H2343 C2352 0.930 . S
H2344 C2357 0.929 . S
H2345 C2355 0.929 . S
H2346 C2350 0.929 . S
H2347 C2356 0.929 . S
C2348 H2342 0.930 . S
C2348 C2349 1.367 . S
C2348 C2356 1.378 . S
C2349 C2348 1.367 . S
C2349 C2357 1.433 . S
C2350 H2346 0.929 . S
C2350 C2352 1.378 . S
C2350 C2354 1.350 . S
C2351 C2354 1.463 . S
C2351 C2356 1.350 . S
C2351 N2359 1.427 . S
C2352 H2343 0.930 . S
C2352 C2350 1.378 . S
C2352 C2353 1.367 . S
C2353 C2352 1.367 . S
C2353 C2355 1.433 . S
C2354 C2350 1.350 . S
C2354 C2351 1.463 . S
C2354 N2358 1.427 . S
C2355 H2345 0.929 . S
C2355 C2353 1.433 . S
C2355 N2358 1.384 . S
C2356 H2347 0.929 . S
C2356 C2348 1.378 . S
C2356 C2351 1.350 . S
C2357 H2344 0.929 . S
C2357 C2349 1.433 . S
C2357 N2359 1.384 . S
N2358 C2354 1.427 . S
N2358 C2355 1.384 . S
N2359 C2351 1.427 . S
N2359 C2357 1.384 . S
C639 C101 1.421 . S
C643 C316 1.272 1_556 S
C657 C57 1.479 . S
C661 C351 1.485 . S
C675 C73 1.109 . S
C679 C356 1.050 . S
C697 C381 1.377 . S
C693 C78 1.384 . S
C711 C21 1.495 . S
C715 C401 1.469 . S
C733 C416 1.005 . S
C729 C31 1.087 . S
C751 C451 1.516 . S
C747 C49 1.553 . S
C765 C0 1.305 . S
C769 C456 1.196 . S
C787 C331 1.496 1_655 S
C783 C218 1.563 . S
C801 C229 0.977 . S
C805 C341 0.985 . S
C823 C371 1.416 . S
C819 C257 1.448 . S
C841 C376 1.124 . S
C837 C164 1.177 1_556 S
C855 C216 1.163 . S
C859 C396 1.112 . S
C877 C431 1.419 . S
C873 C231 1.450 . S
C895 C441 0.976 . S
C891 C255 0.990 1_565 S
C913 C471 1.493 . S
C909 C166 1.555 . S
C931 C321 1.281 . S
C927 C143 1.339 . S
C945 C265 1.725 . S
C949 C491 1.746 . S
C967 C501 1.370 . S
C963 C299 1.413 . S
C985 C516 1.013 . S
C981 C291 1.048 . S
C999 C104 1.281 . S
C1003 C461 1.205 . S
C1017 C117 1.465 . S
C1021 C361 1.439 . S
C1035 C304 1.649 . S
C1039 C551 1.684 . S
C1057 C556 0.932 . S
C1053 C278 1.006 . S
C1075 C314 1.228 . S
C1071 C60 1.420 . S
C1093 C570 1.404 . S
C1089 C96 1.418 . S
C1107 C88 1.077 . S
C1111 C354 0.998 . S
C1125 C65 1.340 . S
C1129 C544 1.284 . S
C1147 C404 1.392 . S
C1143 C10 1.453 . S
C1161 C44 1.024 . S
C1165 C494 0.971 . S
C1183 C450 1.440 . S
C1179 C34 1.429 . S
C1201 C574 1.154 . S
C1197 C13 1.328 . S
C1219 C330 1.448 1_565 S
C1215 C138 1.509 . S
C1237 C564 0.911 . S
C1233 C296 0.936 . S
C1251 C112 1.339 . S
C1255 C370 1.346 . S
C1269 C270 1.157 . S
C1273 C534 1.077 . S
C1287 C140 1.138 . S
C1291 C394 1.060 . S
C1309 C510 1.359 . S
C1305 C294 1.328 . S
C1323 C114 0.961 . S
C1327 C444 0.941 . S
C1341 C268 1.503 . S
C1345 C590 1.443 . S
C1359 C169 1.381 . S
C1363 C324 1.238 1_556 S
C1377 C161 1.683 . S
C1381 C490 1.674 . S
C1395 C234 1.433 . S
C1399 C424 1.320 . S
C1413 C226 0.998 . S
C1417 C514 0.955 . S
C1435 C584 1.176 . S
C1431 C247 1.316 . S
C1449 C195 1.462 . S
C1453 C364 1.377 . S
C1471 C390 1.607 . S
C1467 C239 1.609 . S
C1489 C334 0.890 . S
C1485 C187 0.949 . S
C1503 C75 1.417 . S
C1507 C596 1.256 . S
C1525 C571 1.486 . S
C1521 C83 1.480 . S
C1539 C99 1.107 . S
C1543 C616 1.062 . S
C1557 C52 1.384 . S
C1561 C541 1.361 . S
C1575 C47 1.494 . S
C1579 C481 1.474 . S
C1597 C496 1.012 . S
C1593 C5 1.081 . S
C1615 C531 1.523 . S
C1611 C23 1.549 . S
C1633 C576 1.203 . S
C1629 C26 1.297 . S
C1651 C611 1.513 . S
C1647 C244 1.565 . S
C1665 C177 0.975 . S
C1669 C561 0.981 . S
C1687 C631 1.422 . S
C1683 C192 1.445 . S
C1705 C536 1.126 . S
C1701 C203 1.169 . S
C1723 C476 1.136 . S
C1719 C242 1.168 . S
C1737 C179 1.453 . S
C1741 C511 1.416 . S
C1759 C521 0.980 . S
C1755 C190 0.988 . S
C1773 C205 1.555 . S
C1777 C591 1.493 . S
C1795 C601 1.288 . S
C1791 C286 1.343 . S
C1809 C122 1.724 . S
C1813 C411 1.751 . S
C1831 C421 1.373 . S
C1827 C130 1.409 . S
C1849 C436 1.000 . S
C1845 C148 1.061 . S
C1867 C581 1.229 . S
C1863 C273 1.292 . S
C1881 C260 1.465 . S
C1885 C621 1.439 . S
C1903 C391 1.675 . S
C1899 C135 1.662 . S
C1921 C336 0.965 . S
C1917 C109 0.998 . S
C1935 C86 1.414 . S
C1939 C594 1.253 . S
C1957 C350 1.403 . S
C1953 C70 1.419 . S
C1971 C62 1.082 . S
C1975 C614 1.011 . S
C1989 C91 1.329 . S
C1993 C384 1.301 . S
C2007 C36 1.453 . S
C2011 C484 1.392 . S
C2029 C414 0.974 . S
C2025 C18 1.041 . S
C2043 C8 1.424 . S
C2047 C530 1.445 . S
C2061 C39 1.325 . S
C2065 C454 1.164 . S
C2083 C610 1.444 . S
C2079 C307 1.510 . S
C2097 C153 0.927 . S
C2101 C344 0.885 . S
C2119 C630 1.347 1_655 S
C2115 C281 1.339 . S
C2133 C127 1.158 . S
C2137 C374 1.078 . S
C2151 C309 1.139 . S
C2155 C474 1.068 . S
C2173 C430 1.360 . S
C2169 C151 1.327 . S
C2187 C283 0.957 . S
C2191 C524 0.919 . S
C2209 C470 1.436 . S
C2205 C125 1.503 . S
C2227 C604 1.231 . S
C2223 C221 1.383 . S
C2245 C410 1.674 1_565 S
C2241 C200 1.681 . S
C2259 C208 1.432 . S
C2263 C504 1.322 . S
C2281 C434 0.958 . S
C2277 C174 0.992 . S
C2295 C182 1.314 . S
C2299 C464 1.166 . S
C2313 C156 1.463 . S
C2317 C624 1.372 . S
C2335 C550 1.603 . S
C2331 C213 1.613 . S
C2353 C554 0.902 . S
C2349 C252 0.947 . S
