# Generated by pormake.
# Topology pyr, (3,6)-cn, num edge types: 1
# Building blocks:
#     Node 0, Type 0, BuildingBlock: OLANEW_clean_sbu_2, # of connection points: 3
#     Node 1, Type 0, BuildingBlock: OLANEW_clean_sbu_2, # of connection points: 3
#     Node 2, Type 0, BuildingBlock: OLANEW_clean_sbu_2, # of connection points: 3
#     Node 3, Type 0, BuildingBlock: OLANEW_clean_sbu_2, # of connection points: 3
#     Node 4, Type 0, BuildingBlock: OLANEW_clean_sbu_2, # of connection points: 3
#     Node 5, Type 0, BuildingBlock: OLANEW_clean_sbu_2, # of connection points: 3
#     Node 6, Type 0, BuildingBlock: OLANEW_clean_sbu_2, # of connection points: 3
#     Node 7, Type 0, BuildingBlock: OLANEW_clean_sbu_2, # of connection points: 3
#     Node 8, Type 1, BuildingBlock: MIDCAF_clean_sbu_0, # of connection points: 6
#     Node 9, Type 1, BuildingBlock: MIDCAF_clean_sbu_0, # of connection points: 6
#     Node 10, Type 1, BuildingBlock: MIDCAF_clean_sbu_0, # of connection points: 6
#     Node 11, Type 1, BuildingBlock: MIDCAF_clean_sbu_0, # of connection points: 6
#     Edge 12, Type (0, 1), BuildingBlock: KIFKEQ_clean_linker_1, # of connection points: 2
#     Edge 13, Type (0, 1), BuildingBlock: KIFKEQ_clean_linker_1, # of connection points: 2
#     Edge 14, Type (0, 1), BuildingBlock: KIFKEQ_clean_linker_1, # of connection points: 2
#     Edge 15, Type (0, 1), BuildingBlock: KIFKEQ_clean_linker_1, # of connection points: 2
#     Edge 16, Type (0, 1), BuildingBlock: KIFKEQ_clean_linker_1, # of connection points: 2
#     Edge 17, Type (0, 1), BuildingBlock: KIFKEQ_clean_linker_1, # of connection points: 2
#     Edge 18, Type (0, 1), BuildingBlock: KIFKEQ_clean_linker_1, # of connection points: 2
#     Edge 19, Type (0, 1), BuildingBlock: KIFKEQ_clean_linker_1, # of connection points: 2
#     Edge 20, Type (0, 1), BuildingBlock: KIFKEQ_clean_linker_1, # of connection points: 2
#     Edge 21, Type (0, 1), BuildingBlock: KIFKEQ_clean_linker_1, # of connection points: 2
#     Edge 22, Type (0, 1), BuildingBlock: KIFKEQ_clean_linker_1, # of connection points: 2
#     Edge 23, Type (0, 1), BuildingBlock: KIFKEQ_clean_linker_1, # of connection points: 2
#     Edge 24, Type (0, 1), BuildingBlock: KIFKEQ_clean_linker_1, # of connection points: 2
#     Edge 25, Type (0, 1), BuildingBlock: KIFKEQ_clean_linker_1, # of connection points: 2
#     Edge 26, Type (0, 1), BuildingBlock: KIFKEQ_clean_linker_1, # of connection points: 2
#     Edge 27, Type (0, 1), BuildingBlock: KIFKEQ_clean_linker_1, # of connection points: 2
#     Edge 28, Type (0, 1), BuildingBlock: KIFKEQ_clean_linker_1, # of connection points: 2
#     Edge 29, Type (0, 1), BuildingBlock: KIFKEQ_clean_linker_1, # of connection points: 2
#     Edge 30, Type (0, 1), BuildingBlock: KIFKEQ_clean_linker_1, # of connection points: 2
#     Edge 31, Type (0, 1), BuildingBlock: KIFKEQ_clean_linker_1, # of connection points: 2
#     Edge 32, Type (0, 1), BuildingBlock: KIFKEQ_clean_linker_1, # of connection points: 2
#     Edge 33, Type (0, 1), BuildingBlock: KIFKEQ_clean_linker_1, # of connection points: 2
#     Edge 34, Type (0, 1), BuildingBlock: KIFKEQ_clean_linker_1, # of connection points: 2
#     Edge 35, Type (0, 1), BuildingBlock: KIFKEQ_clean_linker_1, # of connection points: 2
# Relax obj value: 0.074
# Max RMSD: 0.157
# Mean RMSD: 0.119
data_MOF--net-pry--node1-OLANEW_clean_sbu_2--node2-MIDCAF_clean_sbu_0--edge1-KIFKEQ_clean_linker_1
_symmetry_space_group_name_H-M    P1
_symmetry_Int_Tables_number       1
_symmetry_cell_setting            triclinic
loop_
_symmetry_equiv_pos_as_xyz
'x, y, z'
_cell_length_a     38.297829
_cell_length_b     38.441584
_cell_length_c     37.701906
_cell_angle_alpha  94.315378
_cell_angle_beta   89.343702
_cell_angle_gamma 95.675886
loop_
_atom_site_label
_atom_site_type_symbol
_atom_site_fract_x
_atom_site_fract_y
_atom_site_fract_z
_atom_type_partial_charge
O0 O 0.29828 0.24208 0.24375 0.0
Cd1 Cd 0.24911 0.27147 0.26989 0.0
O2 O 0.30585 0.20997 0.28864 0.0
Cd3 Cd 0.26275 0.22593 0.32306 0.0
O4 O 0.22856 0.21589 0.36909 0.0
C5 C 0.19551 0.20861 0.36661 0.0
O6 O 0.18049 0.20929 0.33555 0.0
C7 C 0.31473 0.21952 0.25795 0.0
C8 C 0.21979 0.31305 0.22222 0.0
O9 O 0.24314 0.32657 0.24463 0.0
O10 O 0.21053 0.28009 0.22228 0.0
O11 O 0.33351 0.77733 0.85761 0.0
Cd12 Cd 0.2995 0.73311 0.81809 0.0
O13 O 0.29141 0.81029 0.85037 0.0
Cd14 Cd 0.25818 0.85352 0.84883 0.0
O15 O 0.21526 0.87342 0.82057 0.0
C16 C 0.21561 0.90512 0.81301 0.0
O17 O 0.24192 0.92774 0.82406 0.0
C18 C 0.32068 0.80636 0.86449 0.0
C19 C 0.34031 0.69521 0.77023 0.0
O20 O 0.32961 0.72423 0.76238 0.0
O21 O 0.33198 0.68432 0.80081 0.0
O22 O 0.82764 0.32445 0.7745 0.0
Cd23 Cd 0.78795 0.29127 0.73056 0.0
O24 O 0.81335 0.28284 0.8099 0.0
Cd25 Cd 0.80779 0.25306 0.85749 0.0
O26 O 0.77979 0.21328 0.88911 0.0
C27 C 0.76584 0.22128 0.91901 0.0
O28 O 0.77 0.25401 0.93229 0.0
C29 C 0.8312 0.31163 0.80422 0.0
C30 C 0.74565 0.33216 0.69454 0.0
O31 O 0.73507 0.31881 0.72339 0.0
O32 O 0.77634 0.32649 0.68298 0.0
O33 O 0.88773 0.84382 0.26425 0.0
Cd34 Cd 0.86698 0.81885 0.20566 0.0
O35 O 0.84841 0.80828 0.28928 0.0
Cd36 Cd 0.81468 0.78373 0.32963 0.0
O37 O 0.77338 0.75133 0.35605 0.0
C38 C 0.77013 0.75373 0.38969 0.0
O39 O 0.79203 0.77603 0.40862 0.0
C40 C 0.8732 0.83294 0.29239 0.0
C41 C 0.89935 0.7601 0.1795 0.0
O42 O 0.91125 0.79089 0.17152 0.0
O43 O 0.87256 0.75725 0.20017 0.0
O44 O 0.95222 0.89073 0.90854 0.0
Cd45 Cd 0.92077 0.87404 0.96283 0.0
O46 O 0.94993 0.94735 0.92084 0.0
Cd47 Cd 0.91292 0.94146 0.96487 0.0
O48 O 0.8613 0.9478 0.98837 0.0
C49 C 0.84608 0.97397 0.98003 0.0
O50 O 0.86252 0.9961 0.95911 0.0
C51 C 0.96031 0.92221 0.90089 0.0
C52 C 0.94109 0.81147 0.98571 0.0
O53 O 0.916 0.81132 0.96348 0.0
O54 O 0.95647 0.84122 0.99731 0.0
O55 O 0.5928 0.02268 0.41317 0.0
Cd56 Cd 0.61556 0.00605 0.46924 0.0
O57 O 0.60317 0.07792 0.43192 0.0
Cd58 Cd 0.60338 0.13506 0.43478 0.0
O59 O 0.60397 0.18995 0.45531 0.0
C60 C 0.57521 0.20065 0.46651 0.0
O61 O 0.54657 0.17876 0.46425 0.0
C62 C 0.59143 0.05481 0.40791 0.0
C63 C 0.68724 0.99777 0.46954 0.0
O64 O 0.66461 0.97142 0.4622 0.0
O65 O 0.67598 0.02795 0.47589 0.0
O66 O 0.53786 0.715 0.14556 0.0
Cd67 Cd 0.57664 0.66973 0.15452 0.0
O68 O 0.49238 0.67749 0.13086 0.0
Cd69 Cd 0.43745 0.66015 0.11796 0.0
O70 O 0.38589 0.62963 0.11406 0.0
C71 C 0.37916 0.60718 0.08791 0.0
O72 O 0.40311 0.60336 0.06307 0.0
C73 C 0.50602 0.70899 0.13583 0.0
C74 C 0.57291 0.64724 0.22315 0.0
O75 O 0.59454 0.67333 0.21574 0.0
O76 O 0.55303 0.63222 0.19823 0.0
O77 O 0.11156 0.51917 0.68659 0.0
Cd78 Cd 0.14001 0.5542 0.64105 0.0
O79 O 0.13162 0.46985 0.66623 0.0
Cd80 Cd 0.13395 0.41318 0.6642 0.0
O81 O 0.12449 0.35738 0.64743 0.0
C82 C 0.09516 0.34189 0.65612 0.0
O83 O 0.07333 0.35971 0.67553 0.0
C84 C 0.11343 0.48658 0.6888 0.0
C85 C 0.21063 0.54508 0.62898 0.0
O86 O 0.20161 0.56788 0.65304 0.0
O87 O 0.18626 0.52625 0.61138 0.0
Zn88 Zn 0.96058 0.03729 0.61452 0.0
Zn89 Zn 0.05946 0.97425 0.54021 0.0
Zn90 Zn 0.01083 0.00862 0.57583 0.0
C91 C 0.07182 0.04722 0.52992 0.0
C92 C 0.99447 0.94914 0.51054 0.0
O93 O 0.01175 0.99235 0.6312 0.0
O94 O 0.96832 0.01661 0.6599 0.0
C95 C 0.00816 0.09182 0.59064 0.0
O96 O 0.04622 0.04947 0.55217 0.0
O97 O 0.08168 0.01764 0.51974 0.0
O98 O 0.0257 0.94117 0.5108 0.0
O99 O 0.98494 0.97438 0.53184 0.0
O100 O 0.98009 0.08628 0.60815 0.0
O101 O 0.02363 0.06597 0.57626 0.0
O102 O 0.95888 0.99262 0.55008 0.0
O103 O 0.92013 0.01726 0.5854 0.0
C104 C 0.92699 0.99861 0.55774 0.0
O105 O 0.04037 0.97961 0.6131 0.0
O106 O 0.08348 0.9583 0.58139 0.0
C107 C 0.9934 0.99767 0.65966 0.0
C108 C 0.06838 0.96342 0.61096 0.0
Zn109 Zn 0.496 0.06265 0.03351 0.0
Zn110 Zn 0.55055 0.98847 0.11458 0.0
Zn111 Zn 0.5233 0.02241 0.07743 0.0
C112 C 0.59826 0.99521 0.06437 0.0
C113 C 0.49315 0.94709 0.09685 0.0
O114 O 0.49688 0.06166 0.11124 0.0
O115 O 0.47729 0.0947 0.07166 0.0
C116 C 0.56763 0.0697 0.02036 0.0
O117 O 0.57978 0.02129 0.06243 0.0
O118 O 0.58707 0.97019 0.08253 0.0
O119 O 0.50964 0.95516 0.12551 0.0
O120 O 0.49756 0.96753 0.07121 0.0
O121 O 0.53977 0.07927 0.00833 0.0
O122 O 0.56631 0.04863 0.04555 0.0
O123 O 0.48408 0.98771 0.04437 0.0
O124 O 0.46319 0.02478 0.00985 0.0
C125 C 0.46334 0.99396 0.01935 0.0
O126 O 0.51848 0.04473 0.13372 0.0
O127 O 0.56667 0.02512 0.15212 0.0
C128 C 0.48046 0.08784 0.10366 0.0
C129 C 0.54245 0.04484 0.1575 0.0
Zn130 Zn 0.5829 0.57212 0.5911 0.0
Zn131 Zn 0.50302 0.49553 0.49658 0.0
Zn132 Zn 0.54308 0.53357 0.54283 0.0
C133 C 0.54042 0.44897 0.52845 0.0
C134 C 0.54492 0.54191 0.45792 0.0
O135 O 0.50874 0.55921 0.58282 0.0
O136 O 0.545 0.5849 0.6244 0.0
C137 C 0.60325 0.50428 0.58935 0.0
O138 O 0.55524 0.47804 0.54307 0.0
O139 O 0.5147 0.44889 0.50789 0.0
O140 O 0.52371 0.51473 0.45321 0.0
O141 O 0.5544 0.55374 0.48963 0.0
O142 O 0.61244 0.53491 0.60263 0.0
O143 O 0.57724 0.49865 0.56754 0.0
O144 O 0.57621 0.57391 0.51488 0.0
O145 O 0.60281 0.60749 0.55881 0.0
C146 C 0.59703 0.60089 0.52597 0.0
O147 O 0.48706 0.53762 0.55831 0.0
O148 O 0.45725 0.50987 0.51295 0.0
C149 C 0.51418 0.57737 0.6128 0.0
C150 C 0.45764 0.52729 0.54268 0.0
Zn151 Zn 0.09682 0.5442 0.97954 0.0
Zn152 Zn 0.00679 0.47174 0.05873 0.0
Zn153 Zn 0.0535 0.50543 0.0181 0.0
C154 C 0.07423 0.45529 0.0779 0.0
C155 C 0.99227 0.44571 0.98858 0.0
O156 O 0.03973 0.56077 0.02164 0.0
O157 O 0.07777 0.59009 0.98756 0.0
C158 C 0.13792 0.51722 0.02861 0.0
O159 O 0.08447 0.47801 0.05546 0.0
O160 O 0.04187 0.4478 0.08346 0.0
O161 O 0.98035 0.44389 0.01981 0.0
O162 O 0.02003 0.46648 0.98264 0.0
O163 O 0.14022 0.53745 0.00373 0.0
O164 O 0.10791 0.502 0.03766 0.0
O165 O 0.04643 0.48375 0.96184 0.0
O166 O 0.08651 0.51737 0.93389 0.0
C167 C 0.06285 0.49209 0.93316 0.0
O168 O 0.022 0.54293 0.04873 0.0
O169 O 0.98587 0.51228 0.0836 0.0
C170 C 0.0512 0.5894 0.00767 0.0
C171 C 0.99818 0.54149 0.07321 0.0
H172 H 0.21963 0.19914 0.43292 0.0
H173 H 0.12542 0.18599 0.36933 0.0
H174 H 0.18866 0.16754 0.4794 0.0
H175 H 0.09461 0.15407 0.41579 0.0
H176 H 0.04355 0.10673 0.51283 0.0
H177 H 0.07227 0.15391 0.4791 0.0
H178 H 0.16872 0.10431 0.47819 0.0
H179 H 0.14026 0.05778 0.5117 0.0
C180 C 0.19217 0.19003 0.42905 0.0
C181 C 0.17519 0.19461 0.39709 0.0
C182 C 0.17445 0.17187 0.4557 0.0
C183 C 0.13931 0.15794 0.4511 0.0
C184 C 0.1216 0.16464 0.42025 0.0
C185 C 0.13937 0.18274 0.39349 0.0
C186 C 0.07111 0.10655 0.50615 0.0
C187 C 0.08971 0.07864 0.5148 0.0
C188 C 0.08745 0.13333 0.48663 0.0
C189 C 0.12276 0.13281 0.47592 0.0
C190 C 0.14166 0.10579 0.48634 0.0
C191 C 0.12529 0.07896 0.50534 0.0
H192 H 0.39022 0.81291 0.88011 0.0
H193 H 0.2953 0.86256 0.90252 0.0
H194 H 0.42289 0.85729 0.91926 0.0
H195 H 0.3278 0.90667 0.94271 0.0
H196 H 0.40527 1.00091 0.98031 0.0
H197 H 0.37011 0.9559 0.94403 0.0
H198 H 0.43287 0.87757 0.97909 0.0
H199 H 0.46942 0.92342 0.01338 0.0
C200 C 0.37625 0.83329 0.89354 0.0
C201 C 0.34016 0.83436 0.88785 0.0
C202 C 0.39498 0.85864 0.91634 0.0
C203 C 0.3781 0.88562 0.9345 0.0
C204 C 0.34189 0.88664 0.92884 0.0
C205 C 0.32318 0.86138 0.9057 0.0
C206 C 0.41148 0.97403 0.98045 0.0
C207 C 0.44 0.96561 1.00027 0.0
C208 C 0.39104 0.94809 0.9598 0.0
C209 C 0.39847 0.91291 0.95845 0.0
C210 C 0.42649 0.90439 0.97903 0.0
C211 C 0.44711 0.93049 0.99943 0.0
H212 H 0.67821 0.34612 0.71024 0.0
H213 H 0.76237 0.36697 0.63512 0.0
H214 H 0.64261 0.38423 0.68023 0.0
H215 H 0.72665 0.40476 0.60501 0.0
H216 H 0.57821 0.4371 0.60223 0.0
H217 H 0.61169 0.39152 0.62333 0.0
H218 H 0.70632 0.46265 0.62204 0.0
H219 H 0.67311 0.50743 0.60022 0.0
C220 C 0.68902 0.35859 0.68717 0.0
C221 C 0.72328 0.35379 0.6753 0.0
C222 C 0.66849 0.38018 0.6698 0.0
C223 C 0.68186 0.39757 0.64032 0.0
C224 C 0.71576 0.392 0.62789 0.0
C225 C 0.7362 0.3703 0.64513 0.0
C226 C 0.60631 0.44245 0.60547 0.0
C227 C 0.6232 0.4755 0.59912 0.0
C228 C 0.62538 0.41663 0.61804 0.0
C229 C 0.66168 0.42349 0.6243 0.0
C230 C 0.67853 0.45634 0.61703 0.0
C231 C 0.65948 0.48208 0.60478 0.0
H232 H 0.94985 0.75601 0.12761 0.0
H233 H 0.88514 0.6929 0.19788 0.0
H234 H 0.97426 0.70343 0.10169 0.0
H235 H 0.91017 0.64069 0.17279 0.0
H236 H 0.0349 0.60512 0.08955 0.0
H237 H 0.01203 0.65871 0.11529 0.0
H238 H 0.9081 0.60373 0.1184 0.0
H239 H 0.93115 0.55037 0.09303 0.0
C240 C 0.94109 0.73099 0.13777 0.0
C241 C 0.91546 0.72861 0.16474 0.0
C242 C 0.9552 0.70088 0.12302 0.0
C243 C 0.94408 0.6678 0.13507 0.0
C244 C 0.91887 0.66563 0.16243 0.0
C245 C 0.90466 0.69562 0.17699 0.0
C246 C 0.00716 0.60471 0.0956 0.0
C247 C 0.98467 0.57383 0.089 0.0
C248 C 0.99404 0.63535 0.11027 0.0
C249 C 0.95822 0.63553 0.11896 0.0
C250 C 0.93589 0.60442 0.11252 0.0
C251 C 0.94903 0.57387 0.0979 0.0
H252 H 0.36007 0.17596 0.28252 0.0
H253 H 0.33405 0.22548 0.18844 0.0
H254 H 0.40505 0.14662 0.2491 0.0
H255 H 0.378 0.19533 0.15481 0.0
H256 H 0.47414 0.15755 0.10528 0.0
H257 H 0.43856 0.19187 0.14572 0.0
H258 H 0.41051 0.10044 0.20401 0.0
H259 H 0.44712 0.06652 0.16386 0.0
C260 C 0.36396 0.18065 0.25471 0.0
C261 C 0.34338 0.2031 0.23817 0.0
C262 C 0.38965 0.16363 0.23549 0.0
C263 C 0.39529 0.1685 0.19919 0.0
C264 C 0.37499 0.19138 0.18286 0.0
C265 C 0.34952 0.20856 0.20212 0.0
C266 C 0.46087 0.14502 0.12718 0.0
C267 C 0.46348 0.10944 0.1316 0.0
C268 C 0.4402 0.16459 0.1502 0.0
C269 C 0.42107 0.14887 0.17786 0.0
C270 C 0.42507 0.11359 0.18327 0.0
C271 C 0.44617 0.0941 0.16039 0.0
H272 H 0.21058 0.96974 0.78885 0.0
H273 H 0.16004 0.86386 0.78185 0.0
H274 H 0.17114 0.98507 0.74353 0.0
H275 H 0.1209 0.87917 0.73605 0.0
H276 H 0.04158 0.92677 0.66675 0.0
H277 H 0.0731 0.91495 0.72041 0.0
H278 H 0.16783 0.96883 0.67964 0.0
H279 H 0.13616 0.98126 0.62721 0.0
C280 C 0.19085 0.9498 0.77793 0.0
C281 C 0.18884 0.91544 0.78868 0.0
C282 C 0.16831 0.95856 0.75183 0.0
C283 C 0.14319 0.93321 0.7358 0.0
C284 C 0.13985 0.89935 0.74793 0.0
C285 C 0.16246 0.89054 0.77406 0.0
C286 C 0.06893 0.93655 0.66985 0.0
C287 C 0.08634 0.95543 0.64334 0.0
C288 C 0.08709 0.92949 0.70024 0.0
C289 C 0.12292 0.94133 0.70451 0.0
C290 C 0.14012 0.96001 0.67766 0.0
C291 C 0.1221 0.96681 0.64743 0.0
H292 H 0.8679 0.28365 0.85522 0.0
H293 H 0.85072 0.38173 0.8129 0.0
H294 H 0.91014 0.31443 0.89733 0.0
H295 H 0.89182 0.41288 0.85581 0.0
H296 H 0.98615 0.45963 0.91864 0.0
H297 H 0.95061 0.42544 0.87256 0.0
H298 H 0.9145 0.35144 0.94916 0.0
H299 H 0.9523 0.38403 0.99381 0.0
C300 C 0.8726 0.31189 0.85544 0.0
C301 C 0.85559 0.3303 0.83111 0.0
C302 C 0.89695 0.32964 0.87954 0.0
C303 C 0.90456 0.36633 0.88022 0.0
C304 C 0.88734 0.38463 0.85579 0.0
C305 C 0.86342 0.36681 0.83138 0.0
C306 C 0.9719 0.43524 0.92501 0.0
C307 C 0.97291 0.4241 0.95952 0.0
C308 C 0.95068 0.41602 0.8989 0.0
C309 C 0.92938 0.38553 0.90697 0.0
C310 C 0.93086 0.37428 0.94152 0.0
C311 C 0.95238 0.39322 0.96733 0.0
H312 H 0.71981 0.70546 0.35859 0.0
H313 H 0.75715 0.75192 0.46083 0.0
H314 H 0.67387 0.66929 0.38823 0.0
H315 H 0.71195 0.71548 0.49027 0.0
H316 H 0.61051 0.67134 0.53452 0.0
H317 H 0.64927 0.70906 0.49889 0.0
H318 H 0.6669 0.61983 0.4265 0.0
H319 H 0.62752 0.58212 0.46226 0.0
C320 C 0.71827 0.70795 0.38736 0.0
C321 C 0.74214 0.73167 0.40735 0.0
C322 C 0.69203 0.68711 0.40432 0.0
C323 C 0.68905 0.68964 0.44161 0.0
C324 C 0.71301 0.71333 0.46148 0.0
C325 C 0.73915 0.73409 0.44458 0.0
C326 C 0.62223 0.65993 0.51065 0.0
C327 C 0.61595 0.62391 0.50101 0.0
C328 C 0.64463 0.68146 0.49037 0.0
C329 C 0.66168 0.66739 0.46017 0.0
C330 C 0.65407 0.63155 0.44951 0.0
C331 C 0.63148 0.60995 0.46988 0.0
H332 H 0.22218 0.38477 0.22471 0.0
H333 H 0.17985 0.29058 0.16404 0.0
H334 H 0.19016 0.41994 0.18732 0.0
H335 H 0.14908 0.3256 0.12592 0.0
H336 H 0.06132 0.38999 0.09985 0.0
H337 H 0.09925 0.357 0.13221 0.0
H338 H 0.18202 0.44184 0.12977 0.0
H339 H 0.14258 0.47589 0.09891 0.0
C340 C 0.20647 0.37162 0.20305 0.0
C341 C 0.20315 0.33483 0.19767 0.0
C342 C 0.18829 0.39182 0.18145 0.0
C343 C 0.1666 0.37566 0.15381 0.0
C344 C 0.16477 0.33895 0.14748 0.0
C345 C 0.18257 0.31882 0.16926 0.0
C346 C 0.08764 0.40172 0.1061 0.0
C347 C 0.09917 0.43549 0.09617 0.0
C348 C 0.10963 0.38253 0.12437 0.0
C349 C 0.14402 0.39639 0.13324 0.0
C350 C 0.15572 0.43025 0.12334 0.0
C351 C 0.13343 0.4496 0.10503 0.0
H352 H 0.74673 0.15282 0.89574 0.0
H353 H 0.731 0.23002 0.98231 0.0
H354 H 0.70311 0.11151 0.92189 0.0
H355 H 0.68711 0.18894 0.00808 0.0
H356 H 0.62305 0.10126 0.05877 0.0
H357 H 0.676 0.13365 0.03629 0.0
H358 H 0.63916 0.10809 0.92867 0.0
H359 H 0.58692 0.07501 0.95135 0.0
C360 C 0.73425 0.1609 0.92052 0.0
C361 C 0.74217 0.19489 0.93675 0.0
C362 C 0.70912 0.13725 0.93541 0.0
C363 C 0.69142 0.14697 0.96695 0.0
C364 C 0.70046 0.18043 0.98396 0.0
C365 C 0.7255 0.20411 0.96903 0.0
C366 C 0.62701 0.10167 0.0303 0.0
C367 C 0.60149 0.08501 0.00671 0.0
C368 C 0.65701 0.12059 0.01742 0.0
C369 C 0.66185 0.1235 0.98066 0.0
C370 C 0.6366 0.10595 0.95708 0.0
C371 C 0.60661 0.08714 0.97001 0.0
H372 H 0.90367 0.89914 0.30637 0.0
H373 H 0.87059 0.8045 0.35749 0.0
H374 H 0.9275 0.9264 0.36235 0.0
H375 H 0.89393 0.83219 0.41407 0.0
H376 H 0.98836 0.87978 0.48795 0.0
H377 H 0.95359 0.8511 0.43802 0.0
H378 H 0.91152 0.94895 0.4221 0.0
H379 H 0.94765 0.97765 0.47094 0.0
C380 C 0.90105 0.88429 0.32973 0.0
C381 C 0.88498 0.84971 0.32749 0.0
C382 C 0.91445 0.90006 0.36194 0.0
C383 C 0.91245 0.88158 0.39279 0.0
C384 C 0.8959 0.84711 0.39076 0.0
C385 C 0.88217 0.83137 0.35844 0.0
C386 C 0.97117 0.89491 0.4741 0.0
C387 C 0.96996 0.93078 0.48376 0.0
C388 C 0.95108 0.87846 0.44568 0.0
C389 C 0.92973 0.89771 0.42606 0.0
C390 C 0.92775 0.93338 0.43657 0.0
C391 C 0.94782 0.94973 0.46499 0.0
H392 H 0.36322 0.63105 0.77758 0.0
H393 H 0.36635 0.71364 0.70562 0.0
H394 H 0.40113 0.59905 0.73742 0.0
H395 H 0.40501 0.68202 0.66584 0.0
H396 H 0.50722 0.58051 0.68438 0.0
H397 H 0.46218 0.60656 0.72065 0.0
H398 H 0.41024 0.63018 0.62541 0.0
H399 H 0.45639 0.60502 0.58914 0.0
C400 C 0.37197 0.64238 0.75317 0.0
C401 C 0.36204 0.67507 0.74498 0.0
C402 C 0.3938 0.62408 0.73018 0.0
C403 C 0.40636 0.63808 0.69852 0.0
C404 C 0.39555 0.67029 0.68981 0.0
C405 C 0.37361 0.68856 0.71277 0.0
C406 C 0.48598 0.59101 0.67124 0.0
C407 C 0.48492 0.59034 0.63402 0.0
C408 C 0.46 0.60569 0.69198 0.0
C409 C 0.43245 0.62033 0.67597 0.0
C410 C 0.43123 0.61936 0.63859 0.0
C411 C 0.45737 0.60464 0.61781 0.0
H412 H 0.97428 0.87564 0.84501 0.0
H413 H 0.98621 0.98599 0.87928 0.0
H414 H 0.99284 0.88958 0.78508 0.0
H415 H 0.00426 0.9998 0.81953 0.0
H416 H 0.95733 0.93989 0.68236 0.0
H417 H 0.95996 0.91751 0.74105 0.0
H418 H 0.04591 0.99592 0.76923 0.0
H419 H 0.04287 0.01832 0.7101 0.0
C420 C 0.98159 0.90278 0.84002 0.0
C421 C 0.97816 0.92974 0.8668 0.0
C422 C 0.9921 0.91075 0.80564 0.0
C423 C 0.9996 0.94581 0.79744 0.0
C424 C 0.9989 0.97251 0.82495 0.0
C425 C 0.98824 0.96458 0.85921 0.0
C426 C 0.97735 0.95161 0.70087 0.0
C427 C 0.99996 0.98059 0.69204 0.0
C428 C 0.97906 0.93874 0.73438 0.0
C429 C 0.00309 0.95502 0.75988 0.0
C430 C 0.02695 0.98303 0.75024 0.0
C431 C 0.02536 0.99575 0.71651 0.0
H432 H 0.60682 0.11445 0.37226 0.0
H433 H 0.54236 0.01554 0.36706 0.0
H434 H 0.58672 0.12517 0.31306 0.0
H435 H 0.52309 0.02564 0.30792 0.0
H436 H 0.48723 0.04511 0.20379 0.0
H437 H 0.49186 0.05866 0.26813 0.0
H438 H 0.60075 0.09739 0.25528 0.0
H439 H 0.5956 0.08464 0.19132 0.0
C440 C 0.58764 0.09548 0.35897 0.0
C441 C 0.57621 0.06414 0.37434 0.0
C442 C 0.57633 0.10147 0.3249 0.0
C443 C 0.55327 0.07628 0.30564 0.0
C444 C 0.54037 0.04592 0.32205 0.0
C445 C 0.5518 0.03989 0.35586 0.0
C446 C 0.51145 0.0584 0.21461 0.0
C447 C 0.54099 0.06406 0.19269 0.0
C448 C 0.51436 0.06561 0.25152 0.0
C449 C 0.54688 0.0785 0.26699 0.0
C450 C 0.57526 0.08768 0.24445 0.0
C451 C 0.57236 0.08034 0.20772 0.0
H452 H 0.60941 0.67455 0.2829 0.0
H453 H 0.53281 0.59025 0.24479 0.0
H454 H 0.60782 0.65092 0.34162 0.0
H455 H 0.53115 0.56707 0.30302 0.0
H456 H 0.56231 0.51116 0.3945 0.0
H457 H 0.5728 0.53861 0.33874 0.0
H458 H 0.56476 0.64036 0.39345 0.0
H459 H 0.55417 0.61254 0.4497 0.0
C460 C 0.59219 0.6511 0.28705 0.0
C461 C 0.57136 0.63415 0.25913 0.0
C462 C 0.59124 0.6377 0.32065 0.0
C463 C 0.5697 0.60695 0.32673 0.0
C464 C 0.54853 0.59044 0.29894 0.0
C465 C 0.54932 0.60387 0.2656 0.0
C466 C 0.56339 0.53946 0.39472 0.0
C467 C 0.55746 0.55978 0.42629 0.0
C468 C 0.56922 0.55515 0.36281 0.0
C469 C 0.56896 0.59154 0.36166 0.0
C470 C 0.56513 0.61224 0.39361 0.0
C471 C 0.5592 0.5964 0.42574 0.0
H472 H 0.04551 0.48872 0.70889 0.0
H473 H 0.14135 0.44724 0.73615 0.0
H474 H 0.02002 0.47426 0.76611 0.0
H475 H 0.11731 0.43525 0.7946 0.0
H476 H 0.07875 0.42848 0.90341 0.0
H477 H 0.08071 0.4122 0.83927 0.0
H478 H 0.03069 0.50518 0.82005 0.0
H479 H 0.02795 0.52005 0.88332 0.0
C480 C 0.0608 0.47578 0.72699 0.0
C481 C 0.09544 0.46945 0.71852 0.0
C482 C 0.04639 0.46777 0.75994 0.0
C483 C 0.06692 0.45471 0.78573 0.0
C484 C 0.10049 0.44521 0.77567 0.0
C485 C 0.11448 0.45223 0.74217 0.0
C486 C 0.06667 0.44423 0.88526 0.0
C487 C 0.05301 0.47534 0.89798 0.0
C488 C 0.06822 0.4353 0.84852 0.0
C489 C 0.0565 0.45764 0.82411 0.0
C490 C 0.0397 0.4869 0.83754 0.0
C491 C 0.03812 0.49564 0.874 0.0
H492 H 0.80725 0.02801 0.96837 0.0
H493 H 0.80263 0.93032 0.01878 0.0
H494 H 0.74653 0.03434 0.98597 0.0
H495 H 0.74215 0.93691 0.03668 0.0
H496 H 0.62467 0.93907 0.03025 0.0
H497 H 0.68451 0.93493 0.00849 0.0
H498 H 0.7106 0.04468 0.04036 0.0
H499 H 0.65075 0.04826 0.06282 0.0
C500 C 0.79336 0.00796 0.98334 0.0
C501 C 0.80976 0.97858 0.99208 0.0
C502 C 0.75861 0.01169 0.99351 0.0
C503 C 0.73946 0.98601 0.01245 0.0
C504 C 0.75601 0.95686 0.02155 0.0
C505 C 0.79077 0.95321 0.01153 0.0
C506 C 0.64312 0.9624 0.03205 0.0
C507 C 0.63294 0.99433 0.04722 0.0
C508 C 0.6774 0.95999 0.01985 0.0
C509 C 0.70235 0.98943 0.02283 0.0
C510 C 0.69186 0.02165 0.03716 0.0
C511 C 0.65749 0.02396 0.0495 0.0
H512 H 0.74163 0.04912 0.47681 0.0
H513 H 0.71837 0.93653 0.4698 0.0
H514 H 0.80273 0.04261 0.48898 0.0
H515 H 0.77996 0.92999 0.48181 0.0
H516 H 0.87329 0.94851 0.56612 0.0
H517 H 0.81661 0.94361 0.53598 0.0
H518 H 0.85757 0.02176 0.46574 0.0
H519 H 0.91388 0.02699 0.4966 0.0
C520 C 0.74968 0.02293 0.47729 0.0
C521 C 0.72506 0.99338 0.47264 0.0
C522 C 0.78484 0.01916 0.48397 0.0
C523 C 0.79626 0.98575 0.48634 0.0
C524 C 0.77192 0.95608 0.48034 0.0
C525 C 0.73669 0.95985 0.47336 0.0
C526 C 0.87046 0.96346 0.54325 0.0
C527 C 0.89796 0.98754 0.53307 0.0
C528 C 0.83805 0.96074 0.526 0.0
C529 C 0.83248 0.98257 0.49867 0.0
C530 C 0.86093 0.00486 0.48693 0.0
C531 C 0.89328 0.00754 0.50421 0.0
H532 H 0.35132 0.56859 0.02953 0.0
H533 H 0.32876 0.59819 0.13953 0.0
H534 H 0.29307 0.5379 0.02282 0.0
H535 H 0.27074 0.56592 0.13344 0.0
H536 H 0.19148 0.47718 0.01337 0.0
H537 H 0.25178 0.49122 0.03433 0.0
H538 H 0.21721 0.5732 0.10746 0.0
H539 H 0.15716 0.55757 0.08765 0.0
C540 C 0.33409 0.56799 0.05251 0.0
C541 C 0.34453 0.58624 0.08491 0.0
C542 C 0.30067 0.54996 0.04881 0.0
C543 C 0.27688 0.54925 0.0776 0.0
C544 C 0.28799 0.56631 0.1105 0.0
C545 C 0.32131 0.58479 0.11403 0.0
C546 C 0.19677 0.49693 0.0352 0.0
C547 C 0.16987 0.51602 0.04932 0.0
C548 C 0.23136 0.50551 0.04679 0.0
C549 C 0.23973 0.53405 0.07197 0.0
C550 C 0.21205 0.55096 0.08825 0.0
C551 C 0.17748 0.54198 0.07701 0.0
H552 H 0.23695 0.50428 0.57497 0.0
H553 H 0.26895 0.57852 0.66321 0.0
H554 H 0.29801 0.50221 0.55718 0.0
H555 H 0.3305 0.57627 0.64518 0.0
H556 H 0.43755 0.52573 0.6127 0.0
H557 H 0.37832 0.53128 0.63705 0.0
H558 H 0.34191 0.54843 0.5324 0.0
H559 H 0.40074 0.54365 0.50849 0.0
C560 C 0.25701 0.51995 0.59077 0.0
C561 C 0.24804 0.54177 0.62034 0.0
C562 C 0.29198 0.51889 0.58045 0.0
C563 C 0.31888 0.5394 0.59957 0.0
C564 C 0.31021 0.56019 0.63002 0.0
C565 C 0.27503 0.56153 0.64021 0.0
C566 C 0.41698 0.53158 0.59524 0.0
C567 C 0.42368 0.53468 0.55885 0.0
C568 C 0.38317 0.53456 0.60908 0.0
C569 C 0.35553 0.53985 0.58647 0.0
C570 C 0.36262 0.54385 0.55032 0.0
C571 C 0.39628 0.54125 0.53667 0.0
H572 H 0.99115 0.80309 0.03478 0.0
H573 H 0.91791 0.7446 0.96092 0.0
H574 H 0.01455 0.74876 0.0481 0.0
H575 H 0.94186 0.6905 0.97355 0.0
H576 H 0.98056 0.59419 0.01374 0.0
H577 H 0.95041 0.64765 0.01636 0.0
H578 H 0.05071 0.70984 0.01428 0.0
H579 H 0.08051 0.65668 0.01284 0.0
C580 C 0.97988 0.77863 0.02156 0.0
C581 C 0.95298 0.77824 0.99642 0.0
C582 C 0.99335 0.7475 0.02913 0.0
C583 C 0.98034 0.7153 0.01163 0.0
C584 C 0.95229 0.71475 0.98779 0.0
C585 C 0.93873 0.74586 0.98031 0.0
C586 C 0.99603 0.61939 0.01473 0.0
C587 C 0.03283 0.62139 0.01334 0.0
C588 C 0.97882 0.64996 0.01589 0.0
C589 C 0.99813 0.68305 0.01538 0.0
C590 C 0.03498 0.68491 0.01523 0.0
C591 C 0.0521 0.65443 0.01407 0.0
H592 H 0.50111 0.76663 0.18025 0.0
H593 H 0.46881 0.71955 0.07691 0.0
H594 H 0.48175 0.82221 0.16537 0.0
H595 H 0.45027 0.77596 0.06129 0.0
H596 H 0.50689 0.89519 0.04757 0.0
H597 H 0.49401 0.83261 0.0541 0.0
H598 H 0.43046 0.85547 0.14657 0.0
H599 H 0.44259 0.91821 0.13926 0.0
C600 C 0.48877 0.768 0.15473 0.0
C601 C 0.4863 0.73897 0.12975 0.0
C602 C 0.47756 0.79976 0.1462 0.0
C603 C 0.46448 0.80341 0.11214 0.0
C604 C 0.46011 0.77376 0.08777 0.0
C605 C 0.47053 0.74156 0.09673 0.0
C606 C 0.48808 0.88681 0.06765 0.0
C607 C 0.47495 0.91149 0.09233 0.0
C608 C 0.48099 0.8509 0.07167 0.0
C609 C 0.46141 0.8392 0.101 0.0
C610 C 0.44562 0.8638 0.12373 0.0
C611 C 0.45238 0.89965 0.11944 0.0
H612 H 0.13054 0.29902 0.60971 0.0
H613 H 0.03619 0.30121 0.67349 0.0
H614 H 0.11129 0.23892 0.58689 0.0
H615 H 0.01754 0.24145 0.65152 0.0
H616 H 0.97314 0.14896 0.58644 0.0
H617 H 0.99615 0.21002 0.59743 0.0
H618 H 0.10088 0.17859 0.60545 0.0
H619 H 0.07765 0.11714 0.5932 0.0
C620 C 0.10583 0.28664 0.61901 0.0
C621 C 0.08478 0.30498 0.64328 0.0
C622 C 0.09486 0.25222 0.60597 0.0
C623 C 0.06264 0.23554 0.61693 0.0
C624 C 0.04207 0.25377 0.64173 0.0
C625 C 0.05292 0.28802 0.65462 0.0
C626 C 1.00119 0.15518 0.58976 0.0
C627 C 0.02359 0.12841 0.58939 0.0
C628 C 0.01436 0.19012 0.59637 0.0
C629 C 0.05021 0.19912 0.60339 0.0
C630 C 0.07311 0.17253 0.60027 0.0
C631 C 0.05987 0.13738 0.59322 0.0
H632 H 0.63007 0.24962 0.48609 0.0
H633 H 0.51691 0.23411 0.48177 0.0
H634 H 0.62688 0.30979 0.51104 0.0
H635 H 0.51364 0.29413 0.50507 0.0
H636 H 0.60146 0.42631 0.50335 0.0
H637 H 0.61347 0.36503 0.4939 0.0
H638 H 0.52055 0.33425 0.55474 0.0
H639 H 0.50778 0.39529 0.56201 0.0
C640 C 0.60453 0.25908 0.49039 0.0
C641 C 0.57373 0.2371 0.48188 0.0
C642 C 0.60269 0.2936 0.50464 0.0
C643 C 0.57001 0.30695 0.51042 0.0
C644 C 0.5393 0.2847 0.50201 0.0
C645 C 0.54114 0.25024 0.48818 0.0
C646 C 0.58439 0.4064 0.51561 0.0
C647 C 0.55373 0.41518 0.53329 0.0
C648 C 0.59116 0.37124 0.51021 0.0
C649 C 0.56744 0.34444 0.52271 0.0
C650 C 0.53875 0.35399 0.54367 0.0
C651 C 0.53166 0.38896 0.54837 0.0
loop_
_geom_bond_atom_site_label_1
_geom_bond_atom_site_label_2
_geom_bond_distance
_geom_bond_site_symmetry_2
_ccdc_geom_bond_type
O0 Cd1 2.300 . S
O0 C7 1.275 . S
Cd1 O0 2.300 . S
Cd1 O9 2.381 . S
Cd1 O10 2.378 . S
O2 Cd3 2.385 . S
O2 C7 1.255 . S
Cd3 O2 2.385 . S
Cd3 O4 2.317 . S
O4 Cd3 2.317 . S
O4 C5 1.232 . S
C5 O4 1.232 . S
C5 O6 1.218 . S
O6 C5 1.218 . S
C7 O0 1.275 . S
C7 O2 1.255 . S
C8 O9 1.258 . S
C8 O10 1.256 . S
O9 Cd1 2.381 . S
O9 C8 1.258 . S
O10 Cd1 2.378 . S
O10 C8 1.256 . S
O11 Cd12 2.300 . S
O11 C18 1.275 . S
Cd12 O11 2.300 . S
Cd12 O20 2.381 . S
Cd12 O21 2.378 . S
O13 Cd14 2.385 . S
O13 C18 1.255 . S
Cd14 O13 2.385 . S
Cd14 O15 2.317 . S
O15 Cd14 2.317 . S
O15 C16 1.232 . S
C16 O15 1.232 . S
C16 O17 1.218 . S
O17 C16 1.218 . S
C18 O11 1.275 . S
C18 O13 1.255 . S
C19 O20 1.258 . S
C19 O21 1.256 . S
O20 Cd12 2.381 . S
O20 C19 1.258 . S
O21 Cd12 2.378 . S
O21 C19 1.256 . S
O22 Cd23 2.300 . S
O22 C29 1.275 . S
Cd23 O22 2.300 . S
Cd23 O31 2.381 . S
Cd23 O32 2.378 . S
O24 Cd25 2.385 . S
O24 C29 1.255 . S
Cd25 O24 2.385 . S
Cd25 O26 2.317 . S
O26 Cd25 2.317 . S
O26 C27 1.232 . S
C27 O26 1.232 . S
C27 O28 1.218 . S
O28 C27 1.218 . S
C29 O22 1.275 . S
C29 O24 1.255 . S
C30 O31 1.258 . S
C30 O32 1.256 . S
O31 Cd23 2.381 . S
O31 C30 1.258 . S
O32 Cd23 2.378 . S
O32 C30 1.256 . S
O33 Cd34 2.300 . S
O33 C40 1.275 . S
Cd34 O33 2.300 . S
Cd34 O42 2.381 . S
Cd34 O43 2.378 . S
O35 Cd36 2.385 . S
O35 C40 1.255 . S
Cd36 O35 2.385 . S
Cd36 O37 2.317 . S
O37 Cd36 2.317 . S
O37 C38 1.232 . S
C38 O37 1.232 . S
C38 O39 1.218 . S
O39 C38 1.218 . S
C40 O33 1.275 . S
C40 O35 1.255 . S
C41 O42 1.258 . S
C41 O43 1.256 . S
O42 Cd34 2.381 . S
O42 C41 1.258 . S
O43 Cd34 2.378 . S
O43 C41 1.256 . S
O44 Cd45 2.300 . S
O44 C51 1.275 . S
Cd45 O44 2.300 . S
Cd45 O53 2.381 . S
Cd45 O54 2.378 1_556 S
O46 Cd47 2.385 1_566 S
O46 C51 1.255 . S
Cd47 O46 2.385 1_544 S
Cd47 O48 2.317 1_545 S
O48 Cd47 2.317 1_565 S
O48 C49 1.232 . S
C49 O48 1.232 . S
C49 O50 1.218 1_564 S
O50 C49 1.218 1_546 S
C51 O44 1.275 . S
C51 O46 1.255 . S
C52 O53 1.287 . S
C52 O54 1.234 1_556 S
O53 Cd45 2.381 . S
O53 C52 1.287 . S
O54 Cd45 2.378 1_554 S
O54 C52 1.234 1_554 S
O55 Cd56 2.300 . S
O55 C62 1.275 . S
Cd56 O55 2.300 . S
Cd56 O64 2.381 . S
Cd56 O65 2.378 . S
O57 Cd58 2.385 . S
O57 C62 1.255 . S
Cd58 O57 2.385 . S
Cd58 O59 2.317 . S
O59 Cd58 2.317 . S
O59 C60 1.232 . S
C60 O59 1.232 . S
C60 O61 1.218 . S
O61 C60 1.218 . S
C62 O55 1.275 . S
C62 O57 1.255 . S
C63 O64 1.258 . S
C63 O65 1.256 . S
O64 Cd56 2.381 . S
O64 C63 1.258 . S
O65 Cd56 2.378 . S
O65 C63 1.256 . S
O66 Cd67 2.300 . S
O66 C73 1.275 . S
Cd67 O66 2.300 . S
Cd67 O75 2.381 . S
Cd67 O76 2.378 . S
O68 Cd69 2.385 . S
O68 C73 1.255 . S
Cd69 O68 2.385 . S
Cd69 O70 2.317 . S
O70 Cd69 2.317 . S
O70 C71 1.232 . S
C71 O70 1.232 . S
C71 O72 1.218 . S
O72 C71 1.218 . S
C73 O66 1.275 . S
C73 O68 1.255 . S
C74 O75 1.258 . S
C74 O76 1.256 . S
O75 Cd67 2.381 . S
O75 C74 1.258 . S
O76 Cd67 2.378 . S
O76 C74 1.256 . S
O77 Cd78 2.300 . S
O77 C84 1.275 . S
Cd78 O77 2.300 . S
Cd78 O86 2.381 . S
Cd78 O87 2.378 . S
O79 Cd80 2.385 . S
O79 C84 1.255 . S
Cd80 O79 2.385 . S
Cd80 O81 2.317 . S
O81 Cd80 2.317 . S
O81 C82 1.232 . S
C82 O81 1.232 . S
C82 O83 1.218 . S
O83 C82 1.218 . S
C84 O77 1.275 . S
C84 O79 1.255 . S
C85 O86 1.258 . S
C85 O87 1.256 . S
O86 Cd78 2.381 . S
O86 C85 1.258 . S
O87 Cd78 2.378 . S
O87 C85 1.256 . S
Zn88 O94 1.920 . S
Zn88 O100 1.898 . S
Zn88 O103 1.905 . S
Zn89 O97 1.905 1_565 S
Zn89 O98 1.898 . S
Zn89 O106 1.920 . S
Zn90 O93 2.080 1_455 S
Zn90 O96 2.114 . S
Zn90 O99 2.120 1_445 S
Zn90 O101 2.120 . S
Zn90 O102 2.114 1_455 S
Zn90 O105 2.080 . S
C91 O96 1.166 . S
C91 O97 1.182 . S
C92 O98 1.167 1_655 S
C92 O99 1.299 . S
O93 Zn90 2.080 1_655 S
O93 C107 1.305 . S
O94 Zn88 1.920 . S
O94 C107 1.234 . S
C95 O100 1.167 1_455 S
C95 O101 1.299 . S
O96 Zn90 2.114 . S
O96 C91 1.166 . S
O97 Zn89 1.905 1_545 S
O97 C91 1.182 . S
O98 Zn89 1.898 . S
O98 C92 1.167 1_455 S
O99 Zn90 2.120 1_665 S
O99 C92 1.299 . S
O100 Zn88 1.898 . S
O100 C95 1.167 1_655 S
O101 Zn90 2.120 . S
O101 C95 1.299 . S
O102 Zn90 2.114 1_655 S
O102 C104 1.166 . S
O103 Zn88 1.905 . S
O103 C104 1.182 . S
C104 O102 1.166 . S
C104 O103 1.182 . S
O105 Zn90 2.080 . S
O105 C108 1.305 1_545 S
O106 Zn89 1.920 . S
O106 C108 1.234 . S
C107 O93 1.305 . S
C107 O94 1.234 . S
C108 O105 1.305 1_565 S
C108 O106 1.234 . S
Zn109 O115 1.920 . S
Zn109 O121 1.898 . S
Zn109 O124 1.898 1_554 S
Zn110 O118 1.905 . S
Zn110 O119 1.898 . S
Zn110 O127 1.913 1_565 S
Zn111 O114 2.080 . S
Zn111 O117 2.115 . S
Zn111 O120 2.120 1_545 S
Zn111 O122 2.120 . S
Zn111 O123 2.114 . S
Zn111 O126 2.080 . S
C112 O117 1.163 1_565 S
C112 O118 1.191 . S
C113 O119 1.167 . S
C113 O120 1.299 . S
O114 Zn111 2.080 . S
O114 C128 1.305 . S
O115 Zn109 1.920 . S
O115 C128 1.234 . S
C116 O121 1.167 . S
C116 O122 1.299 . S
O117 Zn111 2.115 . S
O117 C112 1.163 1_545 S
O118 Zn110 1.905 . S
O118 C112 1.191 . S
O119 Zn110 1.898 . S
O119 C113 1.167 . S
O120 Zn111 2.120 1_565 S
O120 C113 1.299 . S
O121 Zn109 1.898 . S
O121 C116 1.167 . S
O122 Zn111 2.120 . S
O122 C116 1.299 . S
O123 Zn111 2.114 . S
O123 C125 1.166 . S
O124 Zn109 1.898 1_556 S
O124 C125 1.179 1_556 S
C125 O123 1.166 . S
C125 O124 1.179 1_554 S
O126 Zn111 2.080 . S
O126 C129 1.305 . S
O127 Zn110 1.913 1_545 S
O127 C129 1.245 . S
C128 O114 1.305 . S
C128 O115 1.234 . S
C129 O126 1.305 . S
C129 O127 1.245 . S
Zn130 O136 1.920 . S
Zn130 O142 1.898 . S
Zn130 O145 1.905 . S
Zn131 O139 1.905 . S
Zn131 O140 1.898 . S
Zn131 O148 1.920 . S
Zn132 O135 2.080 . S
Zn132 O138 2.114 . S
Zn132 O141 2.120 . S
Zn132 O143 2.120 . S
Zn132 O144 2.114 . S
Zn132 O147 2.080 . S
C133 O138 1.166 . S
C133 O139 1.182 . S
C134 O140 1.167 . S
C134 O141 1.299 . S
O135 Zn132 2.080 . S
O135 C149 1.305 . S
O136 Zn130 1.920 . S
O136 C149 1.234 . S
C137 O142 1.167 . S
C137 O143 1.299 . S
O138 Zn132 2.114 . S
O138 C133 1.166 . S
O139 Zn131 1.905 . S
O139 C133 1.182 . S
O140 Zn131 1.898 . S
O140 C134 1.167 . S
O141 Zn132 2.120 . S
O141 C134 1.299 . S
O142 Zn130 1.898 . S
O142 C137 1.167 . S
O143 Zn132 2.120 . S
O143 C137 1.299 . S
O144 Zn132 2.114 . S
O144 C146 1.166 . S
O145 Zn130 1.905 . S
O145 C146 1.182 . S
C146 O144 1.166 . S
C146 O145 1.182 . S
O147 Zn132 2.080 . S
O147 C150 1.305 . S
O148 Zn131 1.920 . S
O148 C150 1.234 . S
C149 O135 1.305 . S
C149 O136 1.234 . S
C150 O147 1.305 . S
C150 O148 1.234 . S
Zn151 O157 1.920 . S
Zn151 O163 1.898 . S
Zn151 O166 1.905 . S
Zn152 O160 1.905 1_655 S
Zn152 O161 1.898 . S
Zn152 O169 1.920 . S
Zn153 O156 2.080 1_554 S
Zn153 O159 2.114 . S
Zn153 O162 2.120 1_554 S
Zn153 O164 2.120 . S
Zn153 O165 2.114 1_554 S
Zn153 O168 2.080 . S
C154 O159 1.166 . S
C154 O160 1.182 . S
C155 O161 1.167 1_556 S
C155 O162 1.299 1_655 S
O156 Zn153 2.080 1_556 S
O156 C170 1.305 . S
O157 Zn151 1.920 . S
O157 C170 1.234 . S
C158 O163 1.167 1_554 S
C158 O164 1.299 . S
O159 Zn153 2.114 . S
O159 C154 1.166 . S
O160 Zn152 1.905 1_455 S
O160 C154 1.182 . S
O161 Zn152 1.898 . S
O161 C155 1.167 1_554 S
O162 Zn153 2.120 1_556 S
O162 C155 1.299 1_455 S
O163 Zn151 1.898 . S
O163 C158 1.167 1_556 S
O164 Zn153 2.120 . S
O164 C158 1.299 . S
O165 Zn153 2.114 1_556 S
O165 C167 1.166 . S
O166 Zn151 1.905 . S
O166 C167 1.182 . S
C167 O165 1.166 . S
C167 O166 1.182 . S
O168 Zn153 2.080 . S
O168 C171 1.305 . S
O169 Zn152 1.920 . S
O169 C171 1.234 1_655 S
C170 O156 1.305 . S
C170 O157 1.234 . S
C171 O168 1.305 . S
C171 O169 1.234 1_455 S
H172 C180 0.950 . S
H173 C185 0.950 . S
H174 C182 0.950 . S
H175 C184 0.950 . S
H176 C186 0.950 . S
H177 C188 0.950 . S
H178 C190 0.950 . S
H179 C191 0.950 . S
C180 H172 0.950 . S
C180 C181 1.386 . S
C180 C182 1.391 . S
C181 C180 1.386 . S
C181 C185 1.393 . S
C182 H174 0.950 . S
C182 C180 1.391 . S
C182 C183 1.400 . S
C183 C182 1.400 . S
C183 C184 1.398 . S
C183 C189 1.491 . S
C184 H175 0.950 . S
C184 C183 1.398 . S
C184 C185 1.391 . S
C185 H173 0.950 . S
C185 C181 1.393 . S
C185 C184 1.391 . S
C186 H176 0.950 . S
C186 C187 1.386 . S
C186 C188 1.391 . S
C187 C186 1.386 . S
C187 C191 1.393 . S
C188 H177 0.950 . S
C188 C186 1.391 . S
C188 C189 1.400 . S
C189 C183 1.491 . S
C189 C188 1.400 . S
C189 C190 1.398 . S
C190 H178 0.950 . S
C190 C189 1.398 . S
C190 C191 1.391 . S
C191 H179 0.950 . S
C191 C187 1.393 . S
C191 C190 1.391 . S
H192 C200 0.950 . S
H193 C205 0.950 . S
H194 C202 0.950 . S
H195 C204 0.950 . S
H196 C206 0.969 . S
H197 C208 0.950 . S
H198 C210 0.950 . S
H199 C211 0.950 1_545 S
C200 H192 0.950 . S
C200 C201 1.386 . S
C200 C202 1.391 . S
C201 C200 1.386 . S
C201 C205 1.393 . S
C202 H194 0.950 . S
C202 C200 1.391 . S
C202 C203 1.400 . S
C203 C202 1.400 . S
C203 C204 1.398 . S
C203 C209 1.491 . S
C204 H195 0.950 . S
C204 C203 1.398 . S
C204 C205 1.391 . S
C205 H193 0.950 . S
C205 C201 1.393 . S
C205 C204 1.391 . S
C206 H196 0.969 . S
C206 C207 1.386 . S
C206 C208 1.391 . S
C207 C206 1.386 . S
C207 C211 1.393 . S
C208 H197 0.950 . S
C208 C206 1.391 . S
C208 C209 1.400 . S
C209 C203 1.491 . S
C209 C208 1.400 . S
C209 C210 1.398 . S
C210 H198 0.950 . S
C210 C209 1.398 . S
C210 C211 1.391 . S
C211 H199 0.950 1_565 S
C211 C207 1.393 . S
C211 C210 1.391 . S
H212 C220 0.950 . S
H213 C225 0.950 . S
H214 C222 0.950 . S
H215 C224 0.950 . S
H216 C226 0.950 . S
H217 C228 0.950 . S
H218 C230 0.950 . S
H219 C231 0.950 . S
C220 H212 0.950 . S
C220 C221 1.386 . S
C220 C222 1.391 . S
C221 C220 1.386 . S
C221 C225 1.393 . S
C222 H214 0.950 . S
C222 C220 1.391 . S
C222 C223 1.400 . S
C223 C222 1.400 . S
C223 C224 1.398 . S
C223 C229 1.491 . S
C224 H215 0.950 . S
C224 C223 1.398 . S
C224 C225 1.391 . S
C225 H213 0.950 . S
C225 C221 1.393 . S
C225 C224 1.391 . S
C226 H216 0.950 . S
C226 C227 1.386 . S
C226 C228 1.391 . S
C227 C226 1.386 . S
C227 C231 1.393 . S
C228 H217 0.950 . S
C228 C226 1.391 . S
C228 C229 1.400 . S
C229 C223 1.491 . S
C229 C228 1.400 . S
C229 C230 1.398 . S
C230 H218 0.950 . S
C230 C229 1.398 . S
C230 C231 1.391 . S
C231 H219 0.950 . S
C231 C227 1.393 . S
C231 C230 1.391 . S
H232 C240 0.950 . S
H233 C245 0.950 . S
H234 C242 0.950 . S
H235 C244 0.950 1_455 S
H236 C246 0.950 . S
H237 C248 0.950 . S
H238 C250 0.950 . S
H239 C251 0.950 . S
C240 H232 0.950 . S
C240 C241 1.386 . S
C240 C242 1.391 . S
C241 C240 1.386 . S
C241 C245 1.393 . S
C242 H234 0.950 . S
C242 C240 1.391 . S
C242 C243 1.400 . S
C243 C242 1.400 . S
C243 C244 1.398 . S
C243 C249 1.491 . S
C244 H235 0.950 1_655 S
C244 C243 1.398 . S
C244 C245 1.391 . S
C245 H233 0.950 . S
C245 C241 1.393 . S
C245 C244 1.391 . S
C246 H236 0.950 . S
C246 C247 1.386 . S
C246 C248 1.391 . S
C247 C246 1.386 . S
C247 C251 1.393 1_455 S
C248 H237 0.950 . S
C248 C246 1.391 . S
C248 C249 1.400 1_455 S
C249 C243 1.491 . S
C249 C248 1.400 1_655 S
C249 C250 1.398 . S
C250 H238 0.950 . S
C250 C249 1.398 . S
C250 C251 1.391 . S
C251 H239 0.950 . S
C251 C247 1.393 1_655 S
C251 C250 1.391 . S
H252 C260 0.950 . S
H253 C265 0.950 . S
H254 C262 0.950 . S
H255 C264 0.950 . S
H256 C266 0.950 . S
H257 C268 0.950 . S
H258 C270 0.950 . S
H259 C271 0.950 . S
C260 H252 0.950 . S
C260 C261 1.386 . S
C260 C262 1.391 . S
C261 C260 1.386 . S
C261 C265 1.393 . S
C262 H254 0.950 . S
C262 C260 1.391 . S
C262 C263 1.400 . S
C263 C262 1.400 . S
C263 C264 1.398 . S
C263 C269 1.491 . S
C264 H255 0.950 . S
C264 C263 1.398 . S
C264 C265 1.391 . S
C265 H253 0.950 . S
C265 C261 1.393 . S
C265 C264 1.391 . S
C266 H256 0.950 . S
C266 C267 1.386 . S
C266 C268 1.391 . S
C267 C266 1.386 . S
C267 C271 1.393 . S
C268 H257 0.950 . S
C268 C266 1.391 . S
C268 C269 1.400 . S
C269 C263 1.491 . S
C269 C268 1.400 . S
C269 C270 1.398 . S
C270 H258 0.950 . S
C270 C269 1.398 . S
C270 C271 1.391 . S
C271 H259 0.950 . S
C271 C267 1.393 . S
C271 C270 1.391 . S
H272 C280 0.950 . S
H273 C285 0.950 . S
H274 C282 0.950 . S
H275 C284 0.950 . S
H276 C286 0.950 . S
H277 C288 0.950 . S
H278 C290 0.950 . S
H279 C291 0.950 1_545 S
C280 H272 0.950 . S
C280 C281 1.386 . S
C280 C282 1.391 . S
C281 C280 1.386 . S
C281 C285 1.393 . S
C282 H274 0.950 . S
C282 C280 1.391 . S
C282 C283 1.400 . S
C283 C282 1.400 . S
C283 C284 1.398 . S
C283 C289 1.491 . S
C284 H275 0.950 . S
C284 C283 1.398 . S
C284 C285 1.391 . S
C285 H273 0.950 . S
C285 C281 1.393 . S
C285 C284 1.391 . S
C286 H276 0.950 . S
C286 C287 1.386 . S
C286 C288 1.391 . S
C287 C286 1.386 . S
C287 C291 1.393 . S
C288 H277 0.950 . S
C288 C286 1.391 . S
C288 C289 1.400 . S
C289 C283 1.491 . S
C289 C288 1.400 . S
C289 C290 1.398 . S
C290 H278 0.950 . S
C290 C289 1.398 . S
C290 C291 1.391 . S
C291 H279 0.950 1_565 S
C291 C287 1.393 . S
C291 C290 1.391 . S
H292 C300 0.950 . S
H293 C305 0.950 . S
H294 C302 0.950 . S
H295 C304 0.950 . S
H296 C306 0.950 . S
H297 C308 0.950 . S
H298 C310 0.950 . S
H299 C311 0.950 . S
C300 H292 0.950 . S
C300 C301 1.386 . S
C300 C302 1.391 . S
C301 C300 1.386 . S
C301 C305 1.393 . S
C302 H294 0.950 . S
C302 C300 1.391 . S
C302 C303 1.400 . S
C303 C302 1.400 . S
C303 C304 1.398 . S
C303 C309 1.491 . S
C304 H295 0.950 . S
C304 C303 1.398 . S
C304 C305 1.391 . S
C305 H293 0.950 . S
C305 C301 1.393 . S
C305 C304 1.391 . S
C306 H296 0.950 . S
C306 C307 1.386 . S
C306 C308 1.391 . S
C307 C306 1.386 . S
C307 C311 1.393 . S
C308 H297 0.950 . S
C308 C306 1.391 . S
C308 C309 1.400 . S
C309 C303 1.491 . S
C309 C308 1.400 . S
C309 C310 1.398 . S
C310 H298 0.950 . S
C310 C309 1.398 . S
C310 C311 1.391 . S
C311 H299 0.950 . S
C311 C307 1.393 . S
C311 C310 1.391 . S
H312 C320 0.950 . S
H313 C325 0.950 . S
H314 C322 0.950 . S
H315 C324 0.950 . S
H316 C326 0.950 . S
H317 C328 0.950 . S
H318 C330 0.950 . S
H319 C331 0.950 . S
C320 H312 0.950 . S
C320 C321 1.386 . S
C320 C322 1.391 . S
C321 C320 1.386 . S
C321 C325 1.393 . S
C322 H314 0.950 . S
C322 C320 1.391 . S
C322 C323 1.400 . S
C323 C322 1.400 . S
C323 C324 1.398 . S
C323 C329 1.491 . S
C324 H315 0.950 . S
C324 C323 1.398 . S
C324 C325 1.391 . S
C325 H313 0.950 . S
C325 C321 1.393 . S
C325 C324 1.391 . S
C326 H316 0.950 . S
C326 C327 1.386 . S
C326 C328 1.391 . S
C327 C326 1.386 . S
C327 C331 1.393 . S
C328 H317 0.950 . S
C328 C326 1.391 . S
C328 C329 1.400 . S
C329 C323 1.491 . S
C329 C328 1.400 . S
C329 C330 1.398 . S
C330 H318 0.950 . S
C330 C329 1.398 . S
C330 C331 1.391 . S
C331 H319 0.950 . S
C331 C327 1.393 . S
C331 C330 1.391 . S
H332 C340 0.950 . S
H333 C345 0.950 . S
H334 C342 0.950 . S
H335 C344 0.950 . S
H336 C346 0.950 . S
H337 C348 0.950 . S
H338 C350 0.950 . S
H339 C351 0.950 . S
C340 H332 0.950 . S
C340 C341 1.386 . S
C340 C342 1.391 . S
C341 C340 1.386 . S
C341 C345 1.393 . S
C342 H334 0.950 . S
C342 C340 1.391 . S
C342 C343 1.400 . S
C343 C342 1.400 . S
C343 C344 1.398 . S
C343 C349 1.491 . S
C344 H335 0.950 . S
C344 C343 1.398 . S
C344 C345 1.391 . S
C345 H333 0.950 . S
C345 C341 1.393 . S
C345 C344 1.391 . S
C346 H336 0.950 . S
C346 C347 1.386 . S
C346 C348 1.391 . S
C347 C346 1.386 . S
C347 C351 1.393 . S
C348 H337 0.950 . S
C348 C346 1.391 . S
C348 C349 1.400 . S
C349 C343 1.491 . S
C349 C348 1.400 . S
C349 C350 1.398 . S
C350 H338 0.950 . S
C350 C349 1.398 . S
C350 C351 1.391 . S
C351 H339 0.950 . S
C351 C347 1.393 . S
C351 C350 1.391 . S
H352 C360 0.950 . S
H353 C365 0.950 . S
H354 C362 0.950 . S
H355 C364 0.950 1_554 S
H356 C366 0.950 . S
H357 C368 0.950 . S
H358 C370 0.950 . S
H359 C371 0.950 . S
C360 H352 0.950 . S
C360 C361 1.386 . S
C360 C362 1.391 . S
C361 C360 1.386 . S
C361 C365 1.393 . S
C362 H354 0.950 . S
C362 C360 1.391 . S
C362 C363 1.400 . S
C363 C362 1.400 . S
C363 C364 1.398 . S
C363 C369 1.491 . S
C364 H355 0.950 1_556 S
C364 C363 1.398 . S
C364 C365 1.391 . S
C365 H353 0.950 . S
C365 C361 1.393 . S
C365 C364 1.391 . S
C366 H356 0.950 . S
C366 C367 1.386 . S
C366 C368 1.391 . S
C367 C366 1.386 . S
C367 C371 1.393 1_554 S
C368 H357 0.950 . S
C368 C366 1.391 . S
C368 C369 1.400 1_554 S
C369 C363 1.491 . S
C369 C368 1.400 1_556 S
C369 C370 1.398 . S
C370 H358 0.950 . S
C370 C369 1.398 . S
C370 C371 1.391 . S
C371 H359 0.950 . S
C371 C367 1.393 1_556 S
C371 C370 1.391 . S
H372 C380 0.950 . S
H373 C385 0.950 . S
H374 C382 0.950 . S
H375 C384 0.950 . S
H376 C386 0.950 . S
H377 C388 0.950 . S
H378 C390 0.950 . S
H379 C391 0.950 . S
C380 H372 0.950 . S
C380 C381 1.386 . S
C380 C382 1.391 . S
C381 C380 1.386 . S
C381 C385 1.393 . S
C382 H374 0.950 . S
C382 C380 1.391 . S
C382 C383 1.400 . S
C383 C382 1.400 . S
C383 C384 1.398 . S
C383 C389 1.491 . S
C384 H375 0.950 . S
C384 C383 1.398 . S
C384 C385 1.391 . S
C385 H373 0.950 . S
C385 C381 1.393 . S
C385 C384 1.391 . S
C386 H376 0.950 . S
C386 C387 1.386 . S
C386 C388 1.391 . S
C387 C386 1.386 . S
C387 C391 1.393 . S
C388 H377 0.950 . S
C388 C386 1.391 . S
C388 C389 1.400 . S
C389 C383 1.491 . S
C389 C388 1.400 . S
C389 C390 1.398 . S
C390 H378 0.950 . S
C390 C389 1.398 . S
C390 C391 1.391 . S
C391 H379 0.950 . S
C391 C387 1.393 . S
C391 C390 1.391 . S
H392 C400 0.950 . S
H393 C405 0.950 . S
H394 C402 0.950 . S
H395 C404 0.950 . S
H396 C406 0.950 . S
H397 C408 0.950 . S
H398 C410 0.950 . S
H399 C411 0.950 . S
C400 H392 0.950 . S
C400 C401 1.386 . S
C400 C402 1.391 . S
C401 C400 1.386 . S
C401 C405 1.393 . S
C402 H394 0.950 . S
C402 C400 1.391 . S
C402 C403 1.400 . S
C403 C402 1.400 . S
C403 C404 1.398 . S
C403 C409 1.491 . S
C404 H395 0.950 . S
C404 C403 1.398 . S
C404 C405 1.391 . S
C405 H393 0.950 . S
C405 C401 1.393 . S
C405 C404 1.391 . S
C406 H396 0.950 . S
C406 C407 1.386 . S
C406 C408 1.391 . S
C407 C406 1.386 . S
C407 C411 1.393 . S
C408 H397 0.950 . S
C408 C406 1.391 . S
C408 C409 1.400 . S
C409 C403 1.491 . S
C409 C408 1.400 . S
C409 C410 1.398 . S
C410 H398 0.950 . S
C410 C409 1.398 . S
C410 C411 1.391 . S
C411 H399 0.950 . S
C411 C407 1.393 . S
C411 C410 1.391 . S
H412 C420 0.950 1_455 S
H413 C425 0.950 1_545 S
H414 C422 0.950 1_455 S
H415 C424 0.950 1_545 S
H416 C426 0.950 . S
H417 C428 0.950 . S
H418 C430 0.950 . S
H419 C431 0.950 . S
C420 H412 0.950 1_655 S
C420 C421 1.386 . S
C420 C422 1.391 . S
C421 C420 1.386 . S
C421 C425 1.393 . S
C422 H414 0.950 1_655 S
C422 C420 1.391 . S
C422 C423 1.400 . S
C423 C422 1.400 . S
C423 C424 1.398 . S
C423 C429 1.491 . S
C424 H415 0.950 1_565 S
C424 C423 1.398 . S
C424 C425 1.391 . S
C425 H413 0.950 1_565 S
C425 C421 1.393 . S
C425 C424 1.391 . S
C426 H416 0.950 . S
C426 C427 1.386 . S
C426 C428 1.391 . S
C427 C426 1.386 . S
C427 C431 1.393 1_645 S
C428 H417 0.950 . S
C428 C426 1.391 . S
C428 C429 1.400 1_545 S
C429 C423 1.491 . S
C429 C428 1.400 1_565 S
C429 C430 1.398 1_655 S
C430 H418 0.950 . S
C430 C429 1.398 1_455 S
C430 C431 1.391 . S
C431 H419 0.950 . S
C431 C427 1.393 1_465 S
C431 C430 1.391 . S
H432 C440 0.950 . S
H433 C445 0.950 . S
H434 C442 0.950 . S
H435 C444 0.950 . S
H436 C446 0.950 1_565 S
H437 C448 0.950 . S
H438 C450 0.950 . S
H439 C451 0.950 . S
C440 H432 0.950 . S
C440 C441 1.386 . S
C440 C442 1.391 . S
C441 C440 1.386 . S
C441 C445 1.393 . S
C442 H434 0.950 . S
C442 C440 1.391 . S
C442 C443 1.400 . S
C443 C442 1.400 . S
C443 C444 1.398 . S
C443 C449 1.491 . S
C444 H435 0.950 . S
C444 C443 1.398 . S
C444 C445 1.391 . S
C445 H433 0.950 . S
C445 C441 1.393 . S
C445 C444 1.391 . S
C446 H436 0.950 1_545 S
C446 C447 1.386 . S
C446 C448 1.391 . S
C447 C446 1.386 . S
C447 C451 1.393 . S
C448 H437 0.950 . S
C448 C446 1.391 . S
C448 C449 1.400 . S
C449 C443 1.491 . S
C449 C448 1.400 . S
C449 C450 1.398 . S
C450 H438 0.950 . S
C450 C449 1.398 . S
C450 C451 1.391 . S
C451 H439 0.950 . S
C451 C447 1.393 . S
C451 C450 1.391 . S
H452 C460 0.950 . S
H453 C465 0.950 . S
H454 C462 0.950 . S
H455 C464 0.950 . S
H456 C466 0.950 . S
H457 C468 0.950 . S
H458 C470 0.950 . S
H459 C471 0.950 . S
C460 H452 0.950 . S
C460 C461 1.386 . S
C460 C462 1.391 . S
C461 C460 1.386 . S
C461 C465 1.393 . S
C462 H454 0.950 . S
C462 C460 1.391 . S
C462 C463 1.400 . S
C463 C462 1.400 . S
C463 C464 1.398 . S
C463 C469 1.491 . S
C464 H455 0.950 . S
C464 C463 1.398 . S
C464 C465 1.391 . S
C465 H453 0.950 . S
C465 C461 1.393 . S
C465 C464 1.391 . S
C466 H456 0.950 . S
C466 C467 1.386 . S
C466 C468 1.391 . S
C467 C466 1.386 . S
C467 C471 1.393 . S
C468 H457 0.950 . S
C468 C466 1.391 . S
C468 C469 1.400 . S
C469 C463 1.491 . S
C469 C468 1.400 . S
C469 C470 1.398 . S
C470 H458 0.950 . S
C470 C469 1.398 . S
C470 C471 1.391 . S
C471 H459 0.950 . S
C471 C467 1.393 . S
C471 C470 1.391 . S
H472 C480 0.950 . S
H473 C485 0.950 . S
H474 C482 0.950 . S
H475 C484 0.950 . S
H476 C486 0.950 . S
H477 C488 0.950 . S
H478 C490 0.950 . S
H479 C491 0.950 . S
C480 H472 0.950 . S
C480 C481 1.386 . S
C480 C482 1.391 . S
C481 C480 1.386 . S
C481 C485 1.393 . S
C482 H474 0.950 . S
C482 C480 1.391 . S
C482 C483 1.400 . S
C483 C482 1.400 . S
C483 C484 1.398 . S
C483 C489 1.491 . S
C484 H475 0.950 . S
C484 C483 1.398 . S
C484 C485 1.391 . S
C485 H473 0.950 . S
C485 C481 1.393 . S
C485 C484 1.391 . S
C486 H476 0.950 . S
C486 C487 1.386 . S
C486 C488 1.391 . S
C487 C486 1.386 . S
C487 C491 1.393 . S
C488 H477 0.950 . S
C488 C486 1.391 . S
C488 C489 1.400 . S
C489 C483 1.491 . S
C489 C488 1.400 . S
C489 C490 1.398 . S
C490 H478 0.950 . S
C490 C489 1.398 . S
C490 C491 1.391 . S
C491 H479 0.950 . S
C491 C487 1.393 . S
C491 C490 1.391 . S
H492 C500 0.950 . S
H493 C505 0.950 . S
H494 C502 0.950 . S
H495 C504 0.950 . S
H496 C506 0.950 . S
H497 C508 0.950 . S
H498 C510 0.950 . S
H499 C511 0.950 . S
C500 H492 0.950 . S
C500 C501 1.386 1_545 S
C500 C502 1.391 . S
C501 C500 1.386 1_565 S
C501 C505 1.393 . S
C502 H494 0.950 . S
C502 C500 1.391 . S
C502 C503 1.400 1_545 S
C503 C502 1.400 1_565 S
C503 C504 1.398 . S
C503 C509 1.491 . S
C504 H495 0.950 . S
C504 C503 1.398 . S
C504 C505 1.391 . S
C505 H493 0.950 . S
C505 C501 1.393 . S
C505 C504 1.391 . S
C506 H496 0.950 . S
C506 C507 1.386 1_565 S
C506 C508 1.391 . S
C507 C506 1.386 1_545 S
C507 C511 1.393 . S
C508 H497 0.950 . S
C508 C506 1.391 . S
C508 C509 1.400 . S
C509 C503 1.491 . S
C509 C508 1.400 . S
C509 C510 1.398 1_565 S
C510 H498 0.950 . S
C510 C509 1.398 1_545 S
C510 C511 1.391 . S
C511 H499 0.950 . S
C511 C507 1.393 . S
C511 C510 1.391 . S
H512 C520 0.950 . S
H513 C525 0.950 . S
H514 C522 0.950 . S
H515 C524 0.950 . S
H516 C526 0.950 . S
H517 C528 0.950 . S
H518 C530 0.950 . S
H519 C531 0.950 . S
C520 H512 0.950 . S
C520 C521 1.386 . S
C520 C522 1.391 . S
C521 C520 1.386 . S
C521 C525 1.393 . S
C522 H514 0.950 . S
C522 C520 1.391 . S
C522 C523 1.400 . S
C523 C522 1.400 . S
C523 C524 1.398 . S
C523 C529 1.491 . S
C524 H515 0.950 . S
C524 C523 1.398 . S
C524 C525 1.391 . S
C525 H513 0.950 . S
C525 C521 1.393 . S
C525 C524 1.391 . S
C526 H516 0.950 . S
C526 C527 1.386 . S
C526 C528 1.391 . S
C527 C526 1.386 . S
C527 C531 1.393 . S
C528 H517 0.950 . S
C528 C526 1.391 . S
C528 C529 1.400 . S
C529 C523 1.491 . S
C529 C528 1.400 . S
C529 C530 1.398 . S
C530 H518 0.950 . S
C530 C529 1.398 . S
C530 C531 1.391 . S
C531 H519 0.950 . S
C531 C527 1.393 . S
C531 C530 1.391 . S
H532 C540 0.950 . S
H533 C545 0.950 . S
H534 C542 0.950 . S
H535 C544 0.950 . S
H536 C546 0.950 . S
H537 C548 0.950 . S
H538 C550 0.950 . S
H539 C551 0.950 . S
C540 H532 0.950 . S
C540 C541 1.386 . S
C540 C542 1.391 . S
C541 C540 1.386 . S
C541 C545 1.393 . S
C542 H534 0.950 . S
C542 C540 1.391 . S
C542 C543 1.400 . S
C543 C542 1.400 . S
C543 C544 1.398 . S
C543 C549 1.491 . S
C544 H535 0.950 . S
C544 C543 1.398 . S
C544 C545 1.391 . S
C545 H533 0.950 . S
C545 C541 1.393 . S
C545 C544 1.391 . S
C546 H536 0.950 . S
C546 C547 1.386 . S
C546 C548 1.391 . S
C547 C546 1.386 . S
C547 C551 1.393 . S
C548 H537 0.950 . S
C548 C546 1.391 . S
C548 C549 1.400 . S
C549 C543 1.491 . S
C549 C548 1.400 . S
C549 C550 1.398 . S
C550 H538 0.950 . S
C550 C549 1.398 . S
C550 C551 1.391 . S
C551 H539 0.950 . S
C551 C547 1.393 . S
C551 C550 1.391 . S
H552 C560 0.950 . S
H553 C565 0.950 . S
H554 C562 0.950 . S
H555 C564 0.950 . S
H556 C566 0.950 . S
H557 C568 0.950 . S
H558 C570 0.950 . S
H559 C571 0.950 . S
C560 H552 0.950 . S
C560 C561 1.386 . S
C560 C562 1.391 . S
C561 C560 1.386 . S
C561 C565 1.393 . S
C562 H554 0.950 . S
C562 C560 1.391 . S
C562 C563 1.400 . S
C563 C562 1.400 . S
C563 C564 1.398 . S
C563 C569 1.491 . S
C564 H555 0.950 . S
C564 C563 1.398 . S
C564 C565 1.391 . S
C565 H553 0.950 . S
C565 C561 1.393 . S
C565 C564 1.391 . S
C566 H556 0.950 . S
C566 C567 1.386 . S
C566 C568 1.391 . S
C567 C566 1.386 . S
C567 C571 1.393 . S
C568 H557 0.950 . S
C568 C566 1.391 . S
C568 C569 1.400 . S
C569 C563 1.491 . S
C569 C568 1.400 . S
C569 C570 1.398 . S
C570 H558 0.950 . S
C570 C569 1.398 . S
C570 C571 1.391 . S
C571 H559 0.950 . S
C571 C567 1.393 . S
C571 C570 1.391 . S
H572 C580 0.950 . S
H573 C585 0.954 . S
H574 C582 0.950 . S
H575 C584 0.950 . S
H576 C586 0.950 1_655 S
H577 C588 0.950 . S
H578 C590 0.950 . S
H579 C591 0.953 . S
C580 H572 0.950 . S
C580 C581 1.417 . S
C580 C582 1.391 . S
C581 C580 1.417 . S
C581 C585 1.369 1_454 S
C582 H574 0.950 . S
C582 C580 1.391 . S
C582 C583 1.403 . S
C583 C582 1.403 . S
C583 C584 1.395 1_454 S
C583 C589 1.492 1_554 S
C584 H575 0.950 . S
C584 C583 1.395 1_656 S
C584 C585 1.389 . S
C585 H573 0.954 . S
C585 C581 1.369 1_656 S
C585 C584 1.389 . S
C586 H576 0.950 1_455 S
C586 C587 1.386 . S
C586 C588 1.391 1_455 S
C587 C586 1.386 . S
C587 C591 1.392 1_556 S
C588 H577 0.950 . S
C588 C586 1.391 1_655 S
C588 C589 1.400 1_655 S
C589 C583 1.492 1_556 S
C589 C588 1.400 1_455 S
C589 C590 1.398 1_556 S
C590 H578 0.950 . S
C590 C589 1.398 1_554 S
C590 C591 1.389 . S
C591 H579 0.953 . S
C591 C587 1.392 1_554 S
C591 C590 1.389 . S
H592 C600 0.950 . S
H593 C605 0.950 . S
H594 C602 0.950 . S
H595 C604 0.950 . S
H596 C606 0.950 . S
H597 C608 0.950 . S
H598 C610 0.950 . S
H599 C611 0.950 . S
C600 H592 0.950 . S
C600 C601 1.386 . S
C600 C602 1.391 . S
C601 C600 1.386 . S
C601 C605 1.393 . S
C602 H594 0.950 . S
C602 C600 1.391 . S
C602 C603 1.400 . S
C603 C602 1.400 . S
C603 C604 1.398 . S
C603 C609 1.491 . S
C604 H595 0.950 . S
C604 C603 1.398 . S
C604 C605 1.391 . S
C605 H593 0.950 . S
C605 C601 1.393 . S
C605 C604 1.391 . S
C606 H596 0.950 . S
C606 C607 1.386 . S
C606 C608 1.391 . S
C607 C606 1.386 . S
C607 C611 1.393 . S
C608 H597 0.950 . S
C608 C606 1.391 . S
C608 C609 1.400 . S
C609 C603 1.491 . S
C609 C608 1.400 . S
C609 C610 1.398 . S
C610 H598 0.950 . S
C610 C609 1.398 . S
C610 C611 1.391 . S
C611 H599 0.950 . S
C611 C607 1.393 . S
C611 C610 1.391 . S
H612 C620 0.950 . S
H613 C625 0.950 . S
H614 C622 0.950 . S
H615 C624 0.950 . S
H616 C626 0.950 1_655 S
H617 C628 0.950 1_655 S
H618 C630 0.950 . S
H619 C631 0.950 . S
C620 H612 0.950 . S
C620 C621 1.386 . S
C620 C622 1.391 . S
C621 C620 1.386 . S
C621 C625 1.393 . S
C622 H614 0.950 . S
C622 C620 1.391 . S
C622 C623 1.400 . S
C623 C622 1.400 . S
C623 C624 1.398 . S
C623 C629 1.491 . S
C624 H615 0.950 . S
C624 C623 1.398 . S
C624 C625 1.391 . S
C625 H613 0.950 . S
C625 C621 1.393 . S
C625 C624 1.391 . S
C626 H616 0.950 1_455 S
C626 C627 1.386 . S
C626 C628 1.391 . S
C627 C626 1.386 . S
C627 C631 1.393 . S
C628 H617 0.950 1_455 S
C628 C626 1.391 . S
C628 C629 1.400 . S
C629 C623 1.491 . S
C629 C628 1.400 . S
C629 C630 1.398 . S
C630 H618 0.950 . S
C630 C629 1.398 . S
C630 C631 1.391 . S
C631 H619 0.950 . S
C631 C627 1.393 . S
C631 C630 1.391 . S
H632 C640 0.950 . S
H633 C645 0.950 . S
H634 C642 0.950 . S
H635 C644 0.950 . S
H636 C646 0.950 . S
H637 C648 0.950 . S
H638 C650 0.950 . S
H639 C651 0.950 . S
C640 H632 0.950 . S
C640 C641 1.386 . S
C640 C642 1.391 . S
C641 C640 1.386 . S
C641 C645 1.393 . S
C642 H634 0.950 . S
C642 C640 1.391 . S
C642 C643 1.400 . S
C643 C642 1.400 . S
C643 C644 1.398 . S
C643 C649 1.491 . S
C644 H635 0.950 . S
C644 C643 1.398 . S
C644 C645 1.391 . S
C645 H633 0.950 . S
C645 C641 1.393 . S
C645 C644 1.391 . S
C646 H636 0.950 . S
C646 C647 1.386 . S
C646 C648 1.391 . S
C647 C646 1.386 . S
C647 C651 1.393 . S
C648 H637 0.950 . S
C648 C646 1.391 . S
C648 C649 1.400 . S
C649 C643 1.491 . S
C649 C648 1.400 . S
C649 C650 1.398 . S
C650 H638 0.950 . S
C650 C649 1.398 . S
C650 C651 1.391 . S
C651 H639 0.950 . S
C651 C647 1.393 . S
C651 C650 1.391 . S
C181 C5 1.656 . S
C187 C91 1.727 . S
C201 C18 1.560 . S
C207 C125 1.503 1_566 S
C227 C137 1.238 . S
C221 C30 1.300 . S
C241 C41 1.258 . S
C247 C171 1.171 . S
C267 C128 1.689 . S
C261 C7 1.716 . S
C287 C108 1.660 . S
C281 C16 1.580 . S
C307 C155 1.386 . S
C301 C29 1.468 . S
C327 C146 1.079 . S
C321 C38 0.976 . S
C341 C8 1.683 . S
C347 C154 1.553 . S
C367 C116 1.564 . S
C361 C27 1.484 . S
C381 C40 1.486 . S
C387 C92 1.359 . S
C401 C19 1.255 . S
C407 C149 1.200 . S
C427 C107 1.575 . S
C421 C51 1.670 . S
C441 C62 1.623 . S
C447 C129 1.645 . S
C461 C74 1.466 . S
C467 C134 1.456 . S
C481 C84 1.361 . S
C487 C167 1.392 . S
C501 C49 1.917 . S
C507 C112 1.844 1_545 S
C527 C104 1.541 . S
C521 C63 1.564 . S
C547 C158 1.427 . S
C541 C71 1.217 . S
C567 C150 1.232 . S
C561 C85 1.282 . S
C581 C52 1.692 1_454 S
C587 C170 1.601 . S
C607 C113 1.802 . S
C601 C73 1.783 . S
C627 C95 1.408 . S
C621 C82 1.114 . S
C641 C60 1.349 . S
C647 C133 1.637 . S
