# Generated by pormake.
# Topology scu, (8,4)-cn, num edge types: 1
# Building blocks:
#     Node 0, Type 0, BuildingBlock: TAGTUT_clean_sbu_3, # of connection points: 8
#     Node 1, Type 1, BuildingBlock: MUDLON_clean_sbu_0, # of connection points: 4
#     Node 2, Type 1, BuildingBlock: MUDLON_clean_sbu_0, # of connection points: 4
#     Edge 3, Type (0, 1), BuildingBlock: UVAHIK_clean_linker_0, # of connection points: 2
#     Edge 4, Type (0, 1), BuildingBlock: UVAHIK_clean_linker_0, # of connection points: 2
#     Edge 5, Type (0, 1), BuildingBlock: UVAHIK_clean_linker_0, # of connection points: 2
#     Edge 6, Type (0, 1), BuildingBlock: UVAHIK_clean_linker_0, # of connection points: 2
#     Edge 7, Type (0, 1), BuildingBlock: UVAHIK_clean_linker_0, # of connection points: 2
#     Edge 8, Type (0, 1), BuildingBlock: UVAHIK_clean_linker_0, # of connection points: 2
#     Edge 9, Type (0, 1), BuildingBlock: UVAHIK_clean_linker_0, # of connection points: 2
#     Edge 10, Type (0, 1), BuildingBlock: UVAHIK_clean_linker_0, # of connection points: 2
# Relax obj value: 0.056
# Max RMSD: 0.118
# Mean RMSD: 0.087
data_MOF--net-scu--node1-TAGTUT_clean_sbu_3--node2-MUDLON_clean_sbu_0--edge1-UVAHIK_clean_linker_0
_symmetry_space_group_name_H-M    P1
_symmetry_Int_Tables_number       1
_symmetry_cell_setting            triclinic
loop_
_symmetry_equiv_pos_as_xyz
'x, y, z'
_cell_length_a     33.555803
_cell_length_b     28.918646
_cell_length_c     26.499279
_cell_angle_alpha  89.97153
_cell_angle_beta   90.895094
_cell_angle_gamma 90.168821
loop_
_atom_site_label
_atom_site_type_symbol
_atom_site_fract_x
_atom_site_fract_y
_atom_site_fract_z
_atom_type_partial_charge
C0 C 0.01529 0.92176 0.08054 0.0
C1 C 0.87163 0.99242 0.079 0.0
C2 C 0.89994 0.03436 0.92777 0.0
Mg3 Mg 0.09478 0.95351 0.02163 0.0
Mg4 Mg 0.10696 0.06087 0.98285 0.0
O5 O 0.07444 0.00802 0.9818 0.0
Mg6 Mg 0.01928 0.01177 0.00855 0.0
O7 O 0.96419 0.0107 0.03598 0.0
Mg8 Mg 0.94395 0.95275 0.00272 0.0
Mg9 Mg 0.93118 0.0631 0.03225 0.0
C10 C 0.028 0.10193 0.93196 0.0
O11 O 0.03267 0.07225 0.06249 0.0
O12 O 0.15032 0.95634 0.96875 0.0
O13 O 0.97489 0.11238 0.06373 0.0
O14 O 0.128 -0.00062 0.08109 0.0
O15 O 0.1552 0.03011 0.94238 0.0
O16 O 0.12636 0.07378 0.05926 0.0
O17 O 1.00216 0.95178 0.95609 0.0
O18 O 0.05853 0.91069 0.96487 0.0
C19 C 0.02314 0.91578 0.94668 0.0
C20 C 0.16717 0.98803 0.94227 0.0
O21 O 1.00642 0.06846 0.94854 0.0
O22 O 0.88889 0.95962 0.05494 0.0
O23 O 0.06508 0.10657 0.94401 0.0
O24 O 0.9099 0.99321 0.94037 0.0
O25 O 0.88337 0.03465 0.0766 0.0
O26 O 0.90819 0.0689 0.9561 0.0
O27 O 0.03631 0.95645 0.06662 0.0
O28 O 0.97979 0.91499 0.06367 0.0
C29 C 0.13562 0.04195 0.09062 0.0
C30 C 0.0121 0.10767 0.07527 0.0
Mg31 Mg 1.00358 0.49446 0.49516 0.0
C32 C 0.06272 0.4204 0.46622 0.0
O33 O 0.0463 0.39864 0.50419 0.0
C34 C 0.01325 0.58549 0.54814 0.0
O35 O 1.00293 0.59966 0.50272 0.0
C36 C 0.95034 0.44442 0.56817 0.0
O37 O 0.94931 0.48584 0.58847 0.0
O38 O 0.96798 0.43912 0.52648 0.0
O39 O 0.054 0.46261 0.45862 0.0
O40 O 0.97499 0.5348 0.43602 0.0
C41 C 0.98355 0.5271 0.39023 0.0
O42 O 1.00211 0.48864 0.37892 0.0
O43 O 0.01864 0.54249 0.55571 0.0
Mg44 Mg 0.50731 0.01245 0.50614 0.0
C45 C 0.46167 0.06887 0.42881 0.0
O46 O 0.49322 0.05855 0.40239 0.0
C47 C 0.57105 0.01119 0.58072 0.0
O48 O 0.55984 0.96806 0.57385 0.0
C49 C 0.43877 0.95318 0.54112 0.0
O50 O 0.42359 0.96751 0.49788 0.0
O51 O 0.4749 0.96287 0.55181 0.0
O52 O 0.46129 0.05811 0.47537 0.0
O53 O 0.53992 0.98562 0.4422 0.0
C54 C 0.56175 0.94988 0.43961 0.0
O55 O 0.56388 0.92132 0.4781 0.0
O56 O 0.55239 0.04265 0.55657 0.0
C57 C 0.02172 0.19023 0.09976 0.0
C58 C 0.03145 0.14356 0.10667 0.0
C59 C 0.03724 0.22386 0.13242 0.0
C60 C 0.10765 0.24198 0.24346 0.0
H61 H 0.03316 0.34056 0.27145 0.0
C62 C 0.08666 0.34547 0.43017 0.0
C63 C 0.08073 0.39339 0.42489 0.0
C64 C 0.09317 0.31789 0.38772 0.0
C65 C 0.05457 0.31364 0.26353 0.0
H66 H 0.06611 0.09533 0.15172 0.0
H67 H 0.09106 0.15321 0.21089 0.0
H68 H 0.01856 0.287 0.20364 0.0
H69 H 0.08149 0.45048 0.37158 0.0
H70 H 0.09169 0.40206 0.29768 0.0
H71 H 0.14169 0.26737 0.3072 0.0
C72 C 0.07269 0.16465 0.17939 0.0
C73 C 0.04642 0.28289 0.22422 0.0
C74 C 0.05814 0.13121 0.14566 0.0
C75 C 0.08546 0.41366 0.37705 0.0
C76 C 0.09133 0.38601 0.33463 0.0
C77 C 0.11524 0.27222 0.28385 0.0
C78 C 0.06166 0.21143 0.17403 0.0
C79 C 0.07262 0.24629 0.21364 0.0
C80 C 0.09348 0.33776 0.33939 0.0
C81 C 0.08861 0.30815 0.29423 0.0
H82 H 1.0018 0.20068 0.06929 0.0
H83 H 0.02923 0.25955 0.12547 0.0
H84 H 0.12903 0.21494 0.23618 0.0
H85 H 0.08351 0.32883 0.46652 0.0
H86 H 0.09464 0.28069 0.39223 0.0
C87 C 0.83182 0.93623 0.13029 0.0
C88 C 0.83721 0.98118 0.11118 0.0
C89 C 0.80003 0.9263 0.1622 0.0
C90 C 0.70038 0.96502 0.19655 0.0
H91 H 0.7228 0.91125 0.32797 0.0
C92 C 0.59004 0.97917 0.35886 0.0
C93 C 0.58849 0.94446 0.39594 0.0
C94 C 0.61805 0.97726 0.32057 0.0
C95 C 0.71572 0.92533 0.29105 0.0
H96 H 0.81295 0.05062 0.10966 0.0
H97 H 0.75707 0.03297 0.16437 0.0
H98 H 0.77633 0.9195 0.26727 0.0
H99 H 0.61417 0.87933 0.42043 0.0
H100 H 0.66247 0.87525 0.35251 0.0
H101 H 0.63989 0.9707 0.21966 0.0
C102 C 0.7776 0.00556 0.15493 0.0
C103 C 0.74651 0.93023 0.25639 0.0
C104 C 0.80973 0.0157 0.12387 0.0
C105 C 0.61466 0.90675 0.39258 0.0
C106 C 0.64258 0.90462 0.35385 0.0
C107 C 0.6695 0.95951 0.23081 0.0
C108 C 0.77259 0.96089 0.17471 0.0
C109 C 0.73929 0.95112 0.2093 0.0
C110 C 0.64509 0.9403 0.3178 0.0
C111 C 0.67692 0.94071 0.27908 0.0
H112 H 0.85259 0.90893 0.12138 0.0
H113 H 0.79675 0.89156 0.1769 0.0
H114 H 0.69393 0.98062 0.16016 0.0
H115 H 0.57048 0.00885 0.36026 0.0
H116 H 0.61937 0.00584 0.29424 0.0
C117 C 0.04608 0.84555 0.09582 0.0
C118 C 0.03133 0.88702 0.11532 0.0
C119 C 0.04823 0.8061 0.12623 0.0
C120 C 0.03617 0.76258 0.25773 0.0
H121 H 0.98869 0.65653 0.18994 0.0
C122 C 0.97146 0.61034 0.36915 0.0
C123 C 0.98292 0.56587 0.3537 0.0
C124 C 0.97868 0.64872 0.33859 0.0
C125 C 1.00234 0.68565 0.2093 0.0
H126 H 1.00898 0.92109 0.18162 0.0
H127 H 0.01277 0.85253 0.23506 0.0
H128 H 1.00546 0.72521 0.14135 0.0
H129 H 1.00837 0.52655 0.29241 0.0
H130 H 0.02057 0.59357 0.23893 0.0
H131 H 0.0321 0.72323 0.3259 0.0
C132 C 0.02344 0.85022 0.19679 0.0
C133 C 0.01226 0.72495 0.18144 0.0
C134 C 0.02142 0.88961 0.16636 0.0
C135 C 0.99922 0.56031 0.30552 0.0
C136 C 1.00627 0.59872 0.27484 0.0
C137 C 0.0261 0.72334 0.28562 0.0
C138 C 0.03513 0.8075 0.17642 0.0
C139 C 0.0289 0.76409 0.20539 0.0
C140 C 0.99724 0.64347 0.29178 0.0
C141 C 1.00862 0.68468 0.26179 0.0
H142 H 0.05307 0.84276 0.05615 0.0
H143 H 0.058 0.77393 0.10965 0.0
H144 H 0.04937 0.79188 0.27725 0.0
H145 H 0.95861 0.61589 0.40589 0.0
H146 H 0.97055 0.6827 0.35213 0.0
C147 C 0.17479 0.01873 0.16786 0.0
C148 C 0.15908 0.05391 0.13685 0.0
C149 C 0.20159 0.02919 0.20712 0.0
C150 C 0.24929 0.05982 0.29916 0.0
H151 H 0.33225 0.14712 0.264 0.0
C152 C 0.38794 0.08452 0.42776 0.0
C153 C 0.42446 0.08363 0.40243 0.0
C154 C 0.35205 0.09049 0.40086 0.0
C155 C 0.30931 0.12268 0.2745 0.0
H156 H 0.15718 0.12819 0.12532 0.0
H157 H 0.20354 0.14648 0.19441 0.0
H158 H 0.27444 0.1376 0.20825 0.0
H159 H 0.45194 0.09117 0.32931 0.0
H160 H 0.38972 0.10102 0.28262 0.0
H161 H 0.28524 0.04293 0.36388 0.0
C162 C 0.19582 0.11063 0.1875 0.0
C163 C 0.27584 0.11763 0.2428 0.0
C164 C 0.16905 0.10013 0.14803 0.0
C165 C 0.4244 0.0916 0.35009 0.0
C166 C 0.38859 0.09752 0.32325 0.0
C167 C 0.28281 0.06478 0.33079 0.0
C168 C 0.21327 0.07516 0.21668 0.0
C169 C 0.24587 0.08525 0.25404 0.0
C170 C 0.35185 0.09577 0.34805 0.0
C171 C 0.31376 0.09543 0.31822 0.0
H172 H 0.16778 0.98274 0.16053 0.0
H173 H 0.21463 0.00088 0.22836 0.0
H174 H 0.22653 0.03507 0.30943 0.0
H175 H 0.38687 0.07861 0.46808 0.0
H176 H 0.32436 0.08973 0.42131 0.0
C177 C 0.01793 0.83318 0.92303 0.0
C178 C 1.00797 0.87933 0.91272 0.0
C179 C 0.01219 0.79913 0.88645 0.0
C180 C 0.96838 0.77408 0.75926 0.0
H181 H 0.05986 0.69273 0.75118 0.0
C182 C 1.00226 0.6648 0.58272 0.0
C183 C 0.01354 0.61854 0.59077 0.0
C184 C 0.99916 0.69536 0.62325 0.0
C185 C 0.03388 0.71477 0.75324 0.0
H186 H 0.98177 0.92592 0.85766 0.0
H187 H 0.97269 0.86651 0.79263 0.0
H188 H 0.05564 0.74751 0.8203 0.0
H189 H 0.03108 0.56833 0.6477 0.0
H190 H 0.02608 0.62196 0.7185 0.0
H191 H 0.9474 0.74183 0.69099 0.0
C192 C 0.98434 0.85636 0.8293 0.0
C193 C 0.0313 0.74611 0.79303 0.0
C194 C 0.98947 0.89043 0.86647 0.0
C195 C 0.02249 0.60378 0.64019 0.0
C196 C 0.01963 0.63448 0.68072 0.0
C197 C 0.97114 0.74284 0.71914 0.0
C198 C 0.99717 0.81067 0.83826 0.0
C199 C 0.99852 0.77618 0.79664 0.0
C200 C 1.00753 0.68046 0.67271 0.0
C201 C 1.00399 0.71295 0.7157 0.0
H202 H 0.03183 0.82375 0.95875 0.0
H203 H 0.02115 0.76406 0.89527 0.0
H204 H 0.94259 0.79639 0.76107 0.0
H205 H 0.99515 0.67736 0.54515 0.0
H206 H 0.99039 0.73076 0.61582 0.0
C207 C 0.20953 0.92913 0.89768 0.0
C208 C 0.19936 0.97555 0.9069 0.0
C209 C 0.23636 0.91792 0.85948 0.0
C210 C 0.31004 0.91014 0.78964 0.0
H211 H 0.29122 0.97682 0.66451 0.0
C212 C 0.42598 0.93187 0.63132 0.0
C213 C 0.41201 0.93621 0.5812 0.0
C214 C 0.39923 0.92578 0.6708 0.0
C215 C 0.29662 0.95727 0.6988 0.0
H216 H 0.21141 0.04659 0.88491 0.0
H217 H 0.25772 0.02699 0.81897 0.0
H218 H 0.24718 0.98871 0.73517 0.0
H219 H 0.3593 0.93299 0.53287 0.0
H220 H 0.31282 0.92173 0.60155 0.0
H221 H 0.36008 0.87928 0.75311 0.0
C222 C 0.24452 -0.00077 0.84058 0.0
C223 C 0.27163 0.96458 0.73957 0.0
C224 C 0.21804 0.01043 0.87867 0.0
C225 C 0.37107 0.93038 0.57106 0.0
C226 C 0.34437 0.92419 0.61048 0.0
C227 C 0.33538 0.90303 0.74875 0.0
C228 C 0.25324 0.95289 0.82968 0.0
C229 C 0.27843 0.94179 0.78571 0.0
C230 C 0.35796 0.92378 0.66097 0.0
C231 C 0.32919 0.92698 0.70303 0.0
H232 H 0.19576 0.90139 0.9187 0.0
H233 H 0.24263 0.88189 0.85192 0.0
H234 H 0.31596 0.8921 0.82478 0.0
H235 H 0.45736 0.93601 0.64051 0.0
H236 H 0.41073 0.92573 0.70921 0.0
C237 C 0.03293 0.17382 0.87981 0.0
C238 C 1.01046 0.13542 0.89549 0.0
C239 C 0.01832 0.20337 0.84234 0.0
C240 C 0.92995 0.24756 0.77852 0.0
H241 H 1.00316 0.27189 0.66972 0.0
C242 C 0.94807 0.35864 0.58061 0.0
C243 C 0.93986 0.40328 0.59862 0.0
C244 C 0.94704 0.32064 0.61312 0.0
C245 C 0.98203 0.26495 0.6993 0.0
H246 H 0.95459 0.09877 0.88428 0.0
H247 H 0.92844 0.15157 0.81968 0.0
H248 H 0.02139 0.21683 0.73553 0.0
H249 H 0.92012 0.44226 0.66352 0.0
H250 H 0.91849 0.37589 0.72022 0.0
H251 H 0.89117 0.29723 0.74294 0.0
C252 C 0.95746 0.15838 0.83663 0.0
C253 C 0.9927 0.23379 0.73725 0.0
C254 C 0.97237 0.12832 0.8738 0.0
C255 C 0.92694 0.4084 0.64854 0.0
C256 C 0.92581 0.37031 0.68103 0.0
C257 C 0.91942 0.27938 0.74071 0.0
C258 C 0.98074 0.1956 0.8199 0.0
C259 C 0.96715 0.22544 0.77768 0.0
C260 C 0.93761 0.32643 0.66421 0.0
C261 C 0.94566 0.28882 0.70108 0.0
H262 H 0.06228 0.18068 0.89573 0.0
H263 H 0.03663 0.23221 0.83051 0.0
H264 H 0.90977 0.24163 0.80939 0.0
H265 H 0.95769 0.35333 0.54222 0.0
H266 H 0.95562 0.28704 0.59891 0.0
C267 C 0.86154 0.00199 0.85426 0.0
C268 C 0.87377 0.04076 0.88259 0.0
C269 C 0.83077 0.00555 0.81853 0.0
C270 C 0.76968 0.08019 0.7382 0.0
H271 H 0.68717 0.99028 0.76737 0.0
C272 C 0.61801 0.06675 0.62566 0.0
C273 C 0.60551 0.0213 0.61472 0.0
C274 C 0.6508 0.07473 0.65821 0.0
C275 C 0.70999 0.01538 0.75832 0.0
H276 H 0.86568 0.11473 0.89184 0.0
H277 H 0.81186 0.12084 0.82849 0.0
H278 H 0.74669 0.99392 0.8206 0.0
H279 H 0.61834 0.94877 0.62846 0.0
H280 H 0.67502 0.96254 0.68368 0.0
H281 H 0.73317 0.10061 0.67469 0.0
C282 C 0.826 0.08767 0.83478 0.0
C283 C 0.74406 0.01749 0.78892 0.0
C284 C 0.85675 0.08407 0.87106 0.0
C285 C 0.6267 0.98426 0.63638 0.0
C286 C 0.65923 0.99217 0.66845 0.0
C287 C 0.73552 0.07774 0.70696 0.0
C288 C 0.81169 0.048 0.80979 0.0
C289 C 0.77464 0.04914 0.7786 0.0
C290 C 0.67152 0.0374 0.68036 0.0
C291 C 0.70574 0.04446 0.71605 0.0
H292 H 0.87424 0.96818 0.86148 0.0
H293 H 0.82074 0.97458 0.79907 0.0
H294 H 0.79281 0.10509 0.7297 0.0
H295 H 0.60238 0.09602 0.6094 0.0
H296 H 0.65949 0.11001 0.66669 0.0
loop_
_geom_bond_atom_site_label_1
_geom_bond_atom_site_label_2
_geom_bond_distance
_geom_bond_site_symmetry_2
_ccdc_geom_bond_type
C0 O27 1.312 1_655 S
C0 O28 1.208 . S
C1 O22 1.331 . S
C1 O25 1.244 1_565 S
C2 O24 1.264 1_545 S
C2 O26 1.273 . S
Mg3 O5 1.939 1_565 S
Mg3 O12 2.092 . S
Mg3 O14 2.012 1_556 S
Mg3 O18 2.041 . S
Mg3 O27 2.282 1_556 S
Mg4 O5 1.963 . S
Mg4 O15 1.942 . S
Mg4 O16 1.955 1_556 S
Mg4 O23 1.986 . S
O5 Mg3 1.939 1_545 S
O5 Mg4 1.963 . S
O5 Mg6 1.937 1_556 S
Mg6 O5 1.937 1_554 S
Mg6 O7 1.893 1_455 S
Mg6 O11 2.017 . S
Mg6 O17 2.107 1_444 S
Mg6 O21 2.008 1_454 S
Mg6 O27 2.121 1_545 S
O7 Mg6 1.893 1_655 S
O7 Mg8 1.936 1_545 S
O7 Mg9 1.963 . S
Mg8 O7 1.936 1_565 S
Mg8 O17 2.291 1_554 S
Mg8 O22 2.081 . S
Mg8 O24 2.023 1_554 S
Mg8 O28 2.031 . S
Mg9 O7 1.963 . S
Mg9 O13 1.986 . S
Mg9 O25 1.942 . S
Mg9 O26 1.955 1_554 S
C10 O21 1.191 1_455 S
C10 O23 1.307 . S
O11 Mg6 2.017 . S
O11 C30 1.191 1_455 S
O12 Mg3 2.092 . S
O12 C20 1.331 . S
O13 Mg9 1.986 . S
O13 C30 1.307 . S
O14 Mg3 2.012 1_554 S
O14 C29 1.264 1_565 S
O15 Mg4 1.942 . S
O15 C20 1.244 1_545 S
O16 Mg4 1.955 1_554 S
O16 C29 1.273 . S
O17 Mg6 2.107 1_666 S
O17 Mg8 2.291 1_556 S
O17 C19 1.312 1_655 S
O18 Mg3 2.041 . S
O18 C19 1.208 . S
C19 O17 1.312 1_455 S
C19 O18 1.208 . S
C20 O12 1.331 . S
C20 O15 1.244 1_565 S
O21 Mg6 2.008 1_656 S
O21 C10 1.191 1_655 S
O22 C1 1.331 . S
O22 Mg8 2.081 . S
O23 Mg4 1.986 . S
O23 C10 1.307 . S
O24 C2 1.264 1_565 S
O24 Mg8 2.023 1_556 S
O25 C1 1.244 1_545 S
O25 Mg9 1.942 . S
O26 C2 1.273 . S
O26 Mg9 1.955 1_556 S
O27 C0 1.312 1_455 S
O27 Mg3 2.282 1_554 S
O27 Mg6 2.121 1_565 S
O28 C0 1.208 . S
O28 Mg8 2.031 . S
C29 O14 1.264 1_545 S
C29 O16 1.273 . S
C30 O11 1.191 1_655 S
C30 O13 1.307 . S
Mg31 O38 2.141 . S
Mg31 O39 2.048 . S
Mg31 O40 2.048 . S
Mg31 O43 2.141 . S
C32 O33 1.313 . S
C32 O39 1.195 1_455 S
O33 C32 1.313 . S
C34 O35 1.245 . S
C34 O43 1.289 1_455 S
O35 C34 1.245 . S
C36 O37 1.245 . S
C36 O38 1.289 1_455 S
O37 C36 1.245 . S
O38 Mg31 2.141 . S
O38 C36 1.289 1_655 S
O39 Mg31 2.048 . S
O39 C32 1.195 1_655 S
O40 Mg31 2.048 . S
O40 C41 1.195 1_655 S
C41 O40 1.195 1_455 S
C41 O42 1.313 . S
O42 C41 1.313 . S
O43 Mg31 2.141 . S
O43 C34 1.289 1_655 S
Mg44 O51 2.141 . S
Mg44 O52 2.048 . S
Mg44 O53 2.048 . S
Mg44 O56 2.141 . S
C45 O46 1.313 . S
C45 O52 1.195 1_565 S
O46 C45 1.313 . S
C47 O48 1.245 . S
C47 O56 1.289 1_565 S
O48 C47 1.245 . S
C49 O50 1.245 . S
C49 O51 1.289 1_565 S
O50 C49 1.245 . S
O51 Mg44 2.141 . S
O51 C49 1.289 1_545 S
O52 Mg44 2.048 . S
O52 C45 1.195 1_545 S
O53 Mg44 2.048 . S
O53 C54 1.195 1_545 S
C54 O53 1.195 1_565 S
C54 O55 1.313 . S
O55 C54 1.313 . S
O56 Mg44 2.141 . S
O56 C47 1.289 1_545 S
C57 C58 1.356 . S
C57 C59 1.327 . S
C57 H82 0.950 . S
C58 C57 1.356 . S
C58 C74 1.342 1_655 S
C59 C57 1.327 . S
C59 C78 1.429 . S
C59 H83 0.950 . S
C60 C77 1.574 . S
C60 C79 1.366 . S
C60 H84 0.949 . S
H61 C65 0.949 . S
C62 C63 1.362 . S
C62 C64 1.327 . S
C62 H85 0.950 . S
C63 C62 1.362 . S
C63 C75 1.336 1_455 S
C64 C62 1.327 . S
C64 C80 1.435 . S
C64 H86 0.950 . S
C65 H61 0.949 . S
C65 C73 1.574 . S
C65 C81 1.364 1_655 S
H66 C74 0.950 . S
H67 C72 0.950 . S
H68 C73 0.949 . S
H69 C75 0.950 . S
H70 C76 0.950 . S
H71 C77 0.949 . S
C72 H67 0.950 . S
C72 C74 1.327 . S
C72 C78 1.428 1_455 S
C73 C65 1.574 . S
C73 H68 0.949 . S
C73 C79 1.370 1_655 S
C74 C58 1.342 1_455 S
C74 H66 0.950 . S
C74 C72 1.327 . S
C75 C63 1.336 1_655 S
C75 H69 0.950 . S
C75 C76 1.327 . S
C76 H70 0.950 . S
C76 C75 1.327 . S
C76 C80 1.422 1_655 S
C77 C60 1.574 . S
C77 H71 0.949 . S
C77 C81 1.372 . S
C78 C59 1.429 . S
C78 C72 1.428 1_655 S
C78 C79 1.523 1_655 S
C79 C60 1.366 . S
C79 C73 1.370 1_455 S
C79 C78 1.523 1_455 S
C80 C64 1.435 . S
C80 C76 1.422 1_455 S
C80 C81 1.523 . S
C81 C65 1.364 1_455 S
C81 C77 1.372 . S
C81 C80 1.523 . S
H82 C57 0.950 . S
H83 C59 0.950 . S
H84 C60 0.949 . S
H85 C62 0.950 . S
H86 C64 0.950 . S
C87 C88 1.349 . S
C87 C89 1.327 . S
C87 H112 0.950 . S
C88 C87 1.349 . S
C88 C104 1.349 1_565 S
C89 C87 1.327 . S
C89 C108 1.429 . S
C89 H113 0.950 . S
C90 C107 1.574 . S
C90 C109 1.368 1_545 S
C90 H114 0.949 . S
H91 C95 0.949 . S
C92 C93 1.349 . S
C92 C94 1.327 . S
C92 H115 0.950 . S
C93 C92 1.349 . S
C93 C105 1.349 1_545 S
C94 C92 1.327 . S
C94 C110 1.441 . S
C94 H116 0.950 . S
C95 H91 0.949 . S
C95 C103 1.574 . S
C95 C111 1.370 . S
H96 C104 0.950 . S
H97 C102 0.950 . S
H98 C103 0.949 . S
H99 C105 0.950 . S
H100 C106 0.950 . S
H101 C107 0.949 . S
C102 H97 0.950 . S
C102 C104 1.327 . S
C102 C108 1.429 1_545 S
C103 C95 1.574 . S
C103 H98 0.949 . S
C103 C109 1.368 . S
C104 C88 1.349 1_545 S
C104 H96 0.950 . S
C104 C102 1.327 . S
C105 C93 1.349 1_565 S
C105 H99 0.950 . S
C105 C106 1.327 . S
C106 H100 0.950 . S
C106 C105 1.327 . S
C106 C110 1.417 1_565 S
C107 C90 1.574 . S
C107 H101 0.949 . S
C107 C111 1.367 1_545 S
C108 C89 1.429 . S
C108 C102 1.429 1_565 S
C108 C109 1.523 . S
C109 C90 1.368 1_565 S
C109 C103 1.368 . S
C109 C108 1.523 . S
C110 C94 1.441 . S
C110 C106 1.417 1_545 S
C110 C111 1.523 1_545 S
C111 C95 1.370 . S
C111 C107 1.367 1_565 S
C111 C110 1.523 1_565 S
H112 C87 0.950 . S
H113 C89 0.950 . S
H114 C90 0.949 . S
H115 C92 0.950 . S
H116 C94 0.950 . S
C117 C118 1.349 . S
C117 C119 1.327 . S
C117 H142 0.950 . S
C118 C117 1.349 . S
C118 C134 1.349 1_455 S
C119 C117 1.327 . S
C119 C138 1.429 . S
C119 H143 0.950 . S
C120 C137 1.574 . S
C120 C139 1.368 1_655 S
C120 H144 0.949 . S
H121 C125 0.949 . S
C122 C123 1.341 1_655 S
C122 C124 1.327 . S
C122 H145 0.950 . S
C123 C122 1.341 1_455 S
C123 C135 1.357 . S
C124 C122 1.327 . S
C124 C140 1.429 1_655 S
C124 H146 0.950 . S
C125 H121 0.949 . S
C125 C133 1.574 . S
C125 C141 1.368 . S
H126 C134 0.950 . S
H127 C132 0.950 . S
H128 C133 0.949 . S
H129 C135 0.950 . S
H130 C136 0.950 . S
H131 C137 0.949 . S
C132 H127 0.950 . S
C132 C134 1.327 . S
C132 C138 1.429 1_655 S
C133 C125 1.574 . S
C133 H128 0.949 . S
C133 C139 1.368 . S
C134 C118 1.349 1_655 S
C134 H126 0.950 . S
C134 C132 1.327 . S
C135 C123 1.357 . S
C135 H129 0.950 . S
C135 C136 1.327 . S
C136 H130 0.950 . S
C136 C135 1.327 . S
C136 C140 1.429 . S
C137 C120 1.574 . S
C137 H131 0.949 . S
C137 C141 1.368 1_655 S
C138 C119 1.429 . S
C138 C132 1.429 1_455 S
C138 C139 1.523 . S
C139 C120 1.368 1_455 S
C139 C133 1.368 . S
C139 C138 1.523 . S
C140 C124 1.429 1_455 S
C140 C136 1.429 . S
C140 C141 1.523 . S
C141 C125 1.368 . S
C141 C137 1.368 1_455 S
C141 C140 1.523 . S
H142 C117 0.950 . S
H143 C119 0.950 . S
H144 C120 0.949 . S
H145 C122 0.950 . S
H146 C124 0.950 . S
C147 C148 1.349 1_565 S
C147 C149 1.327 . S
C147 H172 0.950 . S
C148 C147 1.349 1_545 S
C148 C164 1.349 . S
C149 C147 1.327 . S
C149 C168 1.429 1_565 S
C149 H173 0.950 . S
C150 C167 1.574 . S
C150 C169 1.368 . S
C150 H174 0.949 . S
H151 C155 0.949 . S
C152 C153 1.349 . S
C152 C154 1.327 . S
C152 H175 0.950 . S
C153 C152 1.349 . S
C153 C165 1.349 1_545 S
C154 C152 1.327 . S
C154 C170 1.429 . S
C154 H176 0.950 . S
C155 H151 0.949 . S
C155 C163 1.574 . S
C155 C171 1.368 1_565 S
H156 C164 0.950 . S
H157 C162 0.950 . S
H158 C163 0.949 . S
H159 C165 0.950 . S
H160 C166 0.950 . S
H161 C167 0.949 . S
C162 H157 0.950 . S
C162 C164 1.327 . S
C162 C168 1.429 . S
C163 C155 1.574 . S
C163 H158 0.949 . S
C163 C169 1.368 1_565 S
C164 C148 1.349 . S
C164 H156 0.950 . S
C164 C162 1.327 . S
C165 C153 1.349 1_565 S
C165 H159 0.950 . S
C165 C166 1.327 . S
C166 H160 0.950 . S
C166 C165 1.327 . S
C166 C170 1.429 1_565 S
C167 C150 1.574 . S
C167 H161 0.949 . S
C167 C171 1.368 . S
C168 C149 1.429 1_545 S
C168 C162 1.429 . S
C168 C169 1.523 . S
C169 C150 1.368 . S
C169 C163 1.368 1_545 S
C169 C168 1.523 . S
C170 C154 1.429 . S
C170 C166 1.429 1_545 S
C170 C171 1.523 . S
C171 C155 1.368 1_545 S
C171 C167 1.368 . S
C171 C170 1.523 . S
H172 C147 0.950 . S
H173 C149 0.950 . S
H174 C150 0.949 . S
H175 C152 0.950 . S
H176 C154 0.950 . S
C177 C178 1.349 . S
C177 C179 1.327 . S
C177 H202 0.950 . S
C178 C177 1.349 . S
C178 C194 1.349 1_655 S
C179 C177 1.327 . S
C179 C198 1.429 . S
C179 H203 0.950 . S
C180 C197 1.574 . S
C180 C199 1.353 1_455 S
C180 H204 0.949 . S
H181 C185 0.949 . S
C182 C183 1.362 . S
C182 C184 1.327 . S
C182 H205 0.950 . S
C183 C182 1.362 . S
C183 C195 1.336 1_455 S
C184 C182 1.327 . S
C184 C200 1.429 . S
C184 H206 0.950 . S
C185 H181 0.949 . S
C185 C193 1.574 . S
C185 C201 1.371 . S
H186 C194 0.950 . S
H187 C192 0.950 . S
H188 C193 0.949 . S
H189 C195 0.950 . S
H190 C196 0.950 . S
H191 C197 0.949 . S
C192 H187 0.950 . S
C192 C194 1.327 . S
C192 C198 1.429 1_455 S
C193 C185 1.574 . S
C193 H188 0.949 . S
C193 C199 1.384 . S
C194 C178 1.349 1_455 S
C194 H186 0.950 . S
C194 C192 1.327 . S
C195 C183 1.336 1_655 S
C195 H189 0.950 . S
C195 C196 1.327 . S
C196 H190 0.950 . S
C196 C195 1.327 . S
C196 C200 1.428 1_655 S
C197 C180 1.574 . S
C197 H191 0.949 . S
C197 C201 1.366 1_455 S
C198 C179 1.429 . S
C198 C192 1.429 1_655 S
C198 C199 1.524 . S
C199 C180 1.353 1_655 S
C199 C193 1.384 . S
C199 C198 1.524 . S
C200 C184 1.429 . S
C200 C196 1.428 1_455 S
C200 C201 1.523 1_455 S
C201 C185 1.371 . S
C201 C197 1.366 1_655 S
C201 C200 1.523 1_655 S
H202 C177 0.950 . S
H203 C179 0.950 . S
H204 C180 0.949 . S
H205 C182 0.950 . S
H206 C184 0.950 . S
C207 C208 1.349 . S
C207 C209 1.327 . S
C207 H232 0.950 . S
C208 C207 1.349 . S
C208 C224 1.349 1_565 S
C209 C207 1.327 . S
C209 C228 1.429 . S
C209 H233 0.950 . S
C210 C227 1.574 . S
C210 C229 1.368 1_545 S
C210 H234 0.949 . S
H211 C215 0.949 . S
C212 C213 1.349 . S
C212 C214 1.327 . S
C212 H235 0.950 . S
C213 C212 1.349 . S
C213 C225 1.349 1_545 S
C214 C212 1.327 . S
C214 C230 1.441 . S
C214 H236 0.950 . S
C215 H211 0.949 . S
C215 C223 1.574 . S
C215 C231 1.370 . S
H216 C224 0.950 . S
H217 C222 0.950 . S
H218 C223 0.949 . S
H219 C225 0.950 . S
H220 C226 0.950 . S
H221 C227 0.949 . S
C222 H217 0.950 . S
C222 C224 1.327 . S
C222 C228 1.429 1_545 S
C223 C215 1.574 . S
C223 H218 0.949 . S
C223 C229 1.368 . S
C224 C208 1.349 1_545 S
C224 H216 0.950 . S
C224 C222 1.327 . S
C225 C213 1.349 1_565 S
C225 H219 0.950 . S
C225 C226 1.327 . S
C226 H220 0.950 . S
C226 C225 1.327 . S
C226 C230 1.416 1_565 S
C227 C210 1.574 . S
C227 H221 0.949 . S
C227 C231 1.367 1_545 S
C228 C209 1.429 . S
C228 C222 1.429 1_565 S
C228 C229 1.523 . S
C229 C210 1.368 1_565 S
C229 C223 1.368 . S
C229 C228 1.523 . S
C230 C214 1.441 . S
C230 C226 1.416 1_545 S
C230 C231 1.523 1_545 S
C231 C215 1.370 . S
C231 C227 1.367 1_565 S
C231 C230 1.523 1_565 S
H232 C207 0.950 . S
H233 C209 0.950 . S
H234 C210 0.949 . S
H235 C212 0.950 . S
H236 C214 0.950 . S
C237 C238 1.349 . S
C237 C239 1.327 . S
C237 H262 0.950 . S
C238 C237 1.349 . S
C238 C254 1.349 1_455 S
C239 C237 1.327 . S
C239 C258 1.429 . S
C239 H263 0.950 . S
C240 C257 1.574 . S
C240 C259 1.368 1_655 S
C240 H264 0.949 . S
H241 C245 0.949 . S
C242 C243 1.339 1_655 S
C242 C244 1.327 . S
C242 H265 0.950 . S
C243 C242 1.339 1_455 S
C243 C255 1.359 . S
C244 C242 1.327 . S
C244 C260 1.429 1_655 S
C244 H266 0.950 . S
C245 H241 0.949 . S
C245 C253 1.574 . S
C245 C261 1.368 . S
H246 C254 0.950 . S
H247 C252 0.950 . S
H248 C253 0.949 . S
H249 C255 0.950 . S
H250 C256 0.950 . S
H251 C257 0.949 . S
C252 H247 0.950 . S
C252 C254 1.327 . S
C252 C258 1.429 1_655 S
C253 C245 1.574 . S
C253 H248 0.949 . S
C253 C259 1.368 . S
C254 C238 1.349 1_655 S
C254 H246 0.950 . S
C254 C252 1.327 . S
C255 C243 1.359 . S
C255 H249 0.950 . S
C255 C256 1.327 . S
C256 H250 0.950 . S
C256 C255 1.327 . S
C256 C260 1.429 . S
C257 C240 1.574 . S
C257 H251 0.949 . S
C257 C261 1.368 1_655 S
C258 C239 1.429 . S
C258 C252 1.429 1_455 S
C258 C259 1.523 . S
C259 C240 1.368 1_455 S
C259 C253 1.368 . S
C259 C258 1.523 . S
C260 C244 1.429 1_455 S
C260 C256 1.429 . S
C260 C261 1.523 . S
C261 C245 1.368 . S
C261 C257 1.368 1_455 S
C261 C260 1.523 . S
H262 C237 0.950 . S
H263 C239 0.950 . S
H264 C240 0.949 . S
H265 C242 0.950 . S
H266 C244 0.950 . S
C267 C268 1.349 1_565 S
C267 C269 1.327 . S
C267 H292 0.950 . S
C268 C267 1.349 1_545 S
C268 C284 1.349 . S
C269 C267 1.327 . S
C269 C288 1.429 1_565 S
C269 H293 0.950 . S
C270 C287 1.574 . S
C270 C289 1.368 . S
C270 H294 0.949 . S
H271 C275 0.949 . S
C272 C273 1.349 . S
C272 C274 1.327 . S
C272 H295 0.950 . S
C273 C272 1.349 . S
C273 C285 1.349 1_545 S
C274 C272 1.327 . S
C274 C290 1.429 . S
C274 H296 0.950 . S
C275 H271 0.949 . S
C275 C283 1.574 . S
C275 C291 1.368 1_565 S
H276 C284 0.950 . S
H277 C282 0.950 . S
H278 C283 0.949 . S
H279 C285 0.950 . S
H280 C286 0.950 . S
H281 C287 0.949 . S
C282 H277 0.950 . S
C282 C284 1.327 . S
C282 C288 1.429 . S
C283 C275 1.574 . S
C283 H278 0.949 . S
C283 C289 1.368 1_565 S
C284 C268 1.349 . S
C284 H276 0.950 . S
C284 C282 1.327 . S
C285 C273 1.349 1_565 S
C285 H279 0.950 . S
C285 C286 1.327 . S
C286 H280 0.950 . S
C286 C285 1.327 . S
C286 C290 1.429 1_565 S
C287 C270 1.574 . S
C287 H281 0.949 . S
C287 C291 1.368 . S
C288 C269 1.429 1_545 S
C288 C282 1.429 . S
C288 C289 1.523 . S
C289 C270 1.368 . S
C289 C283 1.368 1_545 S
C289 C288 1.523 . S
C290 C274 1.429 . S
C290 C286 1.429 1_545 S
C290 C291 1.523 . S
C291 C275 1.368 1_545 S
C291 C287 1.368 . S
C291 C290 1.523 . S
H292 C267 0.950 . S
H293 C269 0.950 . S
H294 C270 0.949 . S
H295 C272 0.950 . S
H296 C274 0.950 . S
C58 C30 1.282 . S
C63 C32 1.308 . S
C88 C1 1.558 . S
C93 C54 1.577 1_545 S
C118 C0 1.274 1_455 S
C123 C41 1.321 . S
C148 C29 1.597 . S
C153 C45 1.621 1_545 S
C178 C19 1.206 1_655 S
C183 C34 1.247 . S
C208 C20 1.477 . S
C213 C49 1.489 1_545 S
C243 C36 1.233 . S
C238 C10 1.210 . S
C268 C2 1.514 . S
C273 C47 1.532 1_545 S
