# Generated by pormake.
# Topology scu, (8,4)-cn, num edge types: 1
# Building blocks:
#     Node 0, Type 0, BuildingBlock: TAGTUT_clean_sbu_3, # of connection points: 8
#     Node 1, Type 1, BuildingBlock: KOZSID_clean_sbu_0, # of connection points: 4
#     Node 2, Type 1, BuildingBlock: KOZSID_clean_sbu_0, # of connection points: 4
#     Edge 3, Type (0, 1), BuildingBlock: ZUJKAS_clean_linker_0, # of connection points: 2
#     Edge 4, Type (0, 1), BuildingBlock: ZUJKAS_clean_linker_0, # of connection points: 2
#     Edge 5, Type (0, 1), BuildingBlock: ZUJKAS_clean_linker_0, # of connection points: 2
#     Edge 6, Type (0, 1), BuildingBlock: ZUJKAS_clean_linker_0, # of connection points: 2
#     Edge 7, Type (0, 1), BuildingBlock: ZUJKAS_clean_linker_0, # of connection points: 2
#     Edge 8, Type (0, 1), BuildingBlock: ZUJKAS_clean_linker_0, # of connection points: 2
#     Edge 9, Type (0, 1), BuildingBlock: ZUJKAS_clean_linker_0, # of connection points: 2
#     Edge 10, Type (0, 1), BuildingBlock: ZUJKAS_clean_linker_0, # of connection points: 2
# Relax obj value: 0.024
# Max RMSD: 0.105
# Mean RMSD: 0.060
data_MOF--net-scu--node1-TAGTUT_clean_sbu_3--node2-KOZSID_clean_sbu_0--edge1-ZUJKAS_clean_linker_0
_symmetry_space_group_name_H-M    P1
_symmetry_Int_Tables_number       1
_symmetry_cell_setting            triclinic
loop_
_symmetry_equiv_pos_as_xyz
'x, y, z'
_cell_length_a     38.115917
_cell_length_b     32.843144
_cell_length_c     26.626967
_cell_angle_alpha  86.070009
_cell_angle_beta   87.876223
_cell_angle_gamma 90.005641
loop_
_atom_site_label
_atom_site_type_symbol
_atom_site_fract_x
_atom_site_fract_y
_atom_site_fract_z
_atom_type_partial_charge
C0 C 1.00162 0.92196 0.07124 0.0
C1 C 0.87444 0.9897 0.06805 0.0
C2 C 0.90296 0.02279 0.91422 0.0
Mg3 Mg 0.07279 0.95011 0.00615 0.0
Mg4 Mg 0.0858 0.04748 0.97576 0.0
O5 O 0.05661 0.00222 0.97008 0.0
Mg6 Mg 0.00699 0.00486 0.99735 0.0
O7 O 0.95733 0.00305 0.02473 0.0
Mg8 Mg 0.93983 0.9524 0.99535 0.0
Mg9 Mg 0.92947 0.04966 0.01383 0.0
C10 C 0.01886 0.09024 0.92653 0.0
O11 O 0.01682 0.05587 0.05032 0.0
O12 O 0.12359 0.95659 0.95272 0.0
O13 O 0.96644 0.092 0.04389 0.0
O14 O 0.10229 0.98252 0.06617 0.0
O15 O 0.12907 0.02423 0.93331 0.0
O16 O 0.10348 0.04997 0.05166 0.0
O17 O 0.99212 0.95467 0.94692 0.0
O18 O 0.04141 0.91782 0.94847 0.0
C19 C 0.01005 0.92393 0.93377 0.0
C20 C 0.13969 0.98747 0.92978 0.0
O21 O 0.99861 0.05946 0.93914 0.0
O22 O 0.88943 0.95905 0.04829 0.0
O23 O 0.05076 0.09226 0.94045 0.0
O24 O 0.91119 0.98693 0.93121 0.0
O25 O 0.88613 0.02627 0.06023 0.0
O26 O 0.91021 0.05397 0.93802 0.0
O27 O 0.02044 0.9523 0.05365 0.0
O28 O 0.97005 0.91759 0.05747 0.0
C29 C 0.11064 0.01787 0.07908 0.0
C30 C 0.99798 0.08734 0.05917 0.0
C31 C 0.06467 0.56335 0.43966 0.0
C32 C 0.10028 0.57248 0.43768 0.0
C33 C 0.1149 0.54869 0.4753 0.0
C34 C 0.08757 0.52628 0.49772 0.0
N35 N 0.05634 0.53412 0.47654 0.0
Co36 Co 0.01008 0.5073 0.49613 0.0
N37 N 0.03103 0.47525 0.55437 0.0
C38 C 0.06433 0.47768 0.56989 0.0
C39 C 0.07068 0.45309 0.6122 0.0
C40 C 0.03965 0.43357 0.62435 0.0
C41 C 0.01616 0.44719 0.58825 0.0
N42 N 0.96412 0.4792 0.5146 0.0
C43 C 0.95608 0.44921 0.55077 0.0
C44 C 0.92142 0.43657 0.54903 0.0
C45 C 0.90699 0.45936 0.51036 0.0
C46 C 0.9336 0.4843 0.4906 0.0
N47 N 0.98882 0.54071 0.43911 0.0
C48 C 0.95482 0.54064 0.42612 0.0
C49 C 0.9474 0.5688 0.3877 0.0
C50 C 0.9784 0.58844 0.37572 0.0
C51 C 1.00318 0.57074 0.40737 0.0
N52 N 0.02208 0.46324 0.45106 0.0
C53 C 0.03848 0.40036 0.38736 0.0
C54 C 0.00773 0.42303 0.38193 0.0
C55 C 1.00004 0.4539 0.41399 0.0
C56 C 0.06093 0.40959 0.42525 0.0
C57 C 0.05239 0.44107 0.45626 0.0
N58 N 0.99807 0.55135 0.54113 0.0
C59 C 0.95562 0.59721 0.57649 0.0
C60 C 0.98138 0.61453 0.60434 0.0
C61 C 0.01565 0.59973 0.59985 0.0
C62 C 0.02332 0.5684 0.56843 0.0
C63 C 0.96446 0.56592 0.5454 0.0
H64 H 0.04994 0.55862 0.5667 0.0
H65 H 0.94361 0.55404 0.52524 0.0
H66 H 0.97595 0.46954 0.40821 0.0
H67 H 0.0707 0.44678 0.48419 0.0
C68 C 0.08972 0.50078 0.5416 0.0
C69 C 0.0397 0.58434 0.40694 0.0
C70 C 0.98057 0.43117 0.58656 0.0
C71 C 0.93052 0.51352 0.45046 0.0
H72 H 0.11411 0.59466 0.41229 0.0
H73 H 0.14203 0.54861 0.48599 0.0
H74 H 0.09518 0.44909 0.63123 0.0
H75 H 0.03503 0.4112 0.65569 0.0
H76 H 0.90801 0.41312 0.57301 0.0
H77 H 0.88031 0.45784 0.498 0.0
H78 H 0.92234 0.57468 0.37082 0.0
H79 H 0.98205 0.61336 0.3473 0.0
H80 H 0.98922 0.41648 0.35361 0.0
H81 H 0.08516 0.39289 0.43066 0.0
H82 H 0.92861 0.60732 0.57908 0.0
H83 H 0.0367 0.6126 0.62001 0.0
C84 C 0.4617 0.952 0.58599 0.0
C85 C 0.45333 0.91453 0.6109 0.0
C86 C 0.47109 0.8857 0.5857 0.0
C87 C 0.48942 0.90716 0.54732 0.0
N88 N 0.48486 0.94802 0.54687 0.0
Co89 Co 0.50712 0.99064 0.49843 0.0
N90 N 0.52983 0.94793 0.458 0.0
C91 C 0.52578 0.90702 0.46531 0.0
C92 C 0.54419 0.88549 0.43083 0.0
C93 C 0.56147 0.91434 0.40001 0.0
C94 C 0.55277 0.95191 0.41793 0.0
N95 N 0.53061 0.03323 0.45085 0.0
C96 C 0.55507 0.02897 0.41322 0.0
C97 C 0.56695 0.06655 0.39223 0.0
C98 C 0.54958 0.09558 0.4177 0.0
C99 C 0.52836 0.07422 0.45287 0.0
N100 N 0.48316 0.03327 0.538 0.0
C101 C 0.48503 0.07424 0.52837 0.0
C102 C 0.46355 0.09556 0.5595 0.0
C103 C 0.4464 0.06651 0.59029 0.0
C104 C 0.45866 0.02897 0.57632 0.0
N105 N 0.54883 0.99159 0.54128 0.0
C106 C 0.61099 0.99518 0.59554 0.0
C107 C 0.59152 0.03025 0.58354 0.0
C108 C 0.56087 0.02778 0.5569 0.0
C109 C 0.59818 0.95791 0.58122 0.0
C110 C 0.56728 0.95681 0.55427 0.0
N111 N 0.46543 0.99013 0.45556 0.0
C112 C 0.42211 0.02731 0.40667 0.0
C113 C 0.40323 0.99164 0.40092 0.0
C114 C 0.41664 0.95483 0.42171 0.0
C115 C 0.44754 0.95477 0.4488 0.0
C116 C 0.45282 0.02586 0.43356 0.0
H117 H 0.4562 0.9259 0.46454 0.0
H118 H 0.46563 0.05427 0.43641 0.0
H119 H 0.54765 0.0558 0.549 0.0
H120 H 0.55908 0.92762 0.54374 0.0
C121 C 0.50772 0.88967 0.50798 0.0
C122 C 0.44507 0.99004 0.5987 0.0
C123 C 0.56895 0.99009 0.39795 0.0
C124 C 0.50662 0.09164 0.48901 0.0
H125 H 0.43531 0.90858 0.64294 0.0
H126 H 0.46966 0.85292 0.59318 0.0
H127 H 0.54597 0.85269 0.42949 0.0
H128 H 0.57942 0.90837 0.36892 0.0
H129 H 0.58666 0.07244 0.36234 0.0
H130 H 0.55268 0.12836 0.41203 0.0
H131 H 0.46013 0.1283 0.55905 0.0
H132 H 0.42656 0.07235 0.61899 0.0
H133 H 0.59979 0.05972 0.59484 0.0
H134 H 0.61231 0.92982 0.58971 0.0
H135 H 0.41331 0.05646 0.39024 0.0
H136 H 0.40297 0.92632 0.41816 0.0
H137 H 0.05699 0.08303 0.11558 0.0
H138 H 0.07658 0.13267 0.17338 0.0
H139 H 0.99001 0.21111 0.13293 0.0
H140 H 0.97051 0.16236 0.07465 0.0
H141 H 0.08486 0.23244 0.14855 0.0
H142 H 0.98784 0.17185 0.2965 0.0
H143 H 0.00637 0.14074 0.24879 0.0
H144 H 0.97329 0.17773 0.23281 0.0
C145 C 0.04254 0.11121 0.11813 0.0
C146 C 0.01213 0.11865 0.09047 0.0
C147 C 0.05372 0.1394 0.15131 0.0
C148 C 0.03456 0.17525 0.15735 0.0
C149 C 0.005 0.18344 0.12867 0.0
H150 H 0.03275 0.40142 0.28552 0.0
H151 H 0.03954 0.34409 0.23218 0.0
C152 C 0.99389 0.15547 0.0955 0.0
C153 C 0.04372 0.2034 0.19565 0.0
H154 H 0.01395 0.23579 0.30837 0.0
C155 C 0.06987 0.23288 0.18395 0.0
C156 C 0.0243 0.20342 0.24183 0.0
C157 C 0.99647 0.17164 0.2562 0.0
C158 C 0.07582 0.26392 0.2164 0.0
C159 C 0.05473 0.26554 0.26108 0.0
C160 C 0.03002 0.23457 0.27402 0.0
C161 C 0.05518 0.30104 0.2924 0.0
C162 C 0.10405 0.2952 0.20212 0.0
C163 C 0.06155 0.29579 0.34402 0.0
C164 C 0.05744 0.32849 0.37469 0.0
C165 C 0.04641 0.36679 0.35427 0.0
C166 C 0.04099 0.37217 0.30233 0.0
C167 C 0.04529 0.33958 0.27171 0.0
H168 H 0.12461 0.28287 0.17669 0.0
H169 H 0.09215 0.32211 0.18183 0.0
H170 H 0.11662 0.30555 0.236 0.0
H171 H 0.0688 0.26613 0.36076 0.0
H172 H 0.06147 0.32339 0.41468 0.0
H173 H 0.83034 0.04843 0.09988 0.0
H174 H 0.77996 0.04073 0.15815 0.0
H175 H 0.79499 0.91039 0.17107 0.0
H176 H 0.84598 0.91769 0.1116 0.0
H177 H 0.72362 0.93562 0.16071 0.0
H178 H 0.78741 0.01462 0.31027 0.0
H179 H 0.78948 0.04372 0.25069 0.0
H180 H 0.81181 0.99549 0.25747 0.0
C181 C 0.82318 0.01797 0.11497 0.0
C182 C 0.8426 0.98366 0.10147 0.0
C183 C 0.79433 0.01372 0.1485 0.0
C184 C 0.78427 0.97515 0.16982 0.0
C185 C 0.80266 0.9405 0.15534 0.0
H186 H 0.6328 0.96208 0.42521 0.0
H187 H 0.68532 0.95383 0.37077 0.0
C188 C 0.83171 0.94471 0.12138 0.0
C189 C 0.75444 0.97186 0.20713 0.0
H190 H 0.72464 0.00959 0.31705 0.0
C191 C 0.72392 0.95126 0.19528 0.0
C192 C 0.75511 0.9918 0.25254 0.0
C193 C 0.78784 0.0123 0.26882 0.0
C194 C 0.69344 0.95172 0.22659 0.0
C195 C 0.6934 0.97409 0.27023 0.0
C196 C 0.72448 0.99301 0.28319 0.0
C197 C 0.66141 0.97869 0.30282 0.0
C198 C 0.66162 0.92826 0.2126 0.0
C199 C 0.63078 0.99613 0.28292 0.0
C200 C 0.60082 0.00068 0.31395 0.0
C201 C 0.60131 0.98851 0.36543 0.0
C202 C 0.63208 0.97187 0.38556 0.0
C203 C 0.66193 0.96706 0.35453 0.0
H204 H 0.66904 0.90326 0.18822 0.0
H205 H 0.64695 0.91494 0.24663 0.0
H206 H 0.64385 0.94922 0.19125 0.0
H207 H 0.63006 0.00631 0.24342 0.0
H208 H 0.57718 0.0133 0.29777 0.0
H209 H 0.97001 0.85171 0.10934 0.0
H210 H 0.99156 0.80188 0.17247 0.0
H211 H 0.08709 0.87115 0.17992 0.0
H212 H 0.06563 0.92179 0.11608 0.0
H213 H 0.09431 0.78093 0.17497 0.0
H214 H 0.99995 0.82627 0.32394 0.0
H215 H 0.97959 0.81936 0.26536 0.0
H216 H 0.01158 0.85927 0.26872 0.0
C217 C 0.99565 0.85656 0.12415 0.0
C218 C 0.016 0.891 0.10785 0.0
C219 C 0.00787 0.82802 0.16035 0.0
C220 C 0.0406 0.83326 0.18127 0.0
C221 C 0.06162 0.86684 0.1643 0.0
H222 H 0.05755 0.65763 0.43992 0.0
H223 H 0.06929 0.72158 0.38882 0.0
C224 C 0.04934 0.89566 0.12788 0.0
C225 C 0.05194 0.80327 0.22119 0.0
H226 H 0.02246 0.75786 0.33358 0.0
C227 C 0.07926 0.7763 0.21029 0.0
C228 C 0.03275 0.79792 0.26756 0.0
C229 C 0.00455 0.82751 0.28241 0.0
C230 C 0.08594 0.74202 0.24301 0.0
C231 C 0.06422 0.73436 0.28695 0.0
C232 C 0.0389 0.76334 0.29966 0.0
C233 C 0.06421 0.6948 0.31731 0.0
C234 C 0.11555 0.71388 0.22946 0.0
C235 C 0.05818 0.65839 0.29412 0.0
C236 C 0.05189 0.62196 0.32323 0.0
C237 C 0.05076 0.62162 0.37592 0.0
C238 C 0.05822 0.65749 0.39922 0.0
C239 C 0.06494 0.69385 0.37011 0.0
H240 H 0.13711 0.73105 0.20823 0.0
H241 H 0.12636 0.69772 0.26346 0.0
H242 H 0.10571 0.69087 0.20475 0.0
H243 H 0.05646 0.65846 0.25362 0.0
H244 H 0.04626 0.59445 0.30474 0.0
H245 H 0.12363 0.95776 0.15205 0.0
H246 H 0.16931 0.95694 0.21383 0.0
H247 H 0.19552 0.08189 0.16726 0.0
H248 H 0.14979 0.08301 0.10482 0.0
H249 H 0.25282 0.02752 0.16423 0.0
H250 H 0.17973 0.00919 0.34843 0.0
H251 H 0.16706 0.9737 0.30393 0.0
H252 H 0.15924 0.0273 0.29102 0.0
C253 C 0.13851 0.98546 0.15561 0.0
C254 C 0.13313 0.02041 0.12315 0.0
C255 C 0.16458 0.98494 0.1912 0.0
C256 C 0.18577 0.01937 0.19532 0.0
C257 C 0.17939 0.05499 0.16476 0.0
H258 H 0.35004 0.04687 0.40879 0.0
H259 H 0.2972 0.05329 0.35947 0.0
C260 C 0.15311 0.05565 0.12926 0.0
C261 C 0.21668 0.01667 0.22781 0.0
H262 H 0.24133 0.99612 0.34903 0.0
C263 C 0.25031 0.02096 0.20468 0.0
C264 C 0.21336 0.00816 0.28058 0.0
C265 C 0.17791 0.00466 0.30764 0.0
C266 C 0.28071 0.01619 0.23275 0.0
C267 C 0.27742 0.00645 0.28529 0.0
C268 C 0.24379 0.00306 0.30863 0.0
C269 C 0.30867 0.00092 0.31674 0.0
C270 C 0.31615 0.02197 0.20603 0.0
C271 C 0.33231 0.96879 0.30985 0.0
C272 C 0.36262 0.96502 0.33801 0.0
C273 C 0.36987 0.99345 0.37345 0.0
C274 C 0.34554 0.02487 0.38121 0.0
C275 C 0.31521 0.02846 0.35329 0.0
H276 H 0.3141 0.03791 0.16808 0.0
H277 H 0.33396 0.03971 0.22842 0.0
H278 H 0.32824 0.99166 0.20132 0.0
H279 H 0.32749 0.94686 0.28228 0.0
H280 H 0.38086 0.94057 0.33105 0.0
H281 H 0.95499 0.93481 0.87061 0.0
H282 H 0.93282 0.8856 0.81366 0.0
H283 H 0.00778 0.79674 0.86928 0.0
H284 H 0.03012 0.84534 0.92546 0.0
H285 H 0.97991 0.847 0.73863 0.0
H286 H 0.91124 0.73465 0.87248 0.0
H287 H 0.91834 0.78713 0.88626 0.0
H288 H 0.95319 0.75048 0.893 0.0
C289 C 0.96632 0.90456 0.87111 0.0
C290 C 0.99438 0.89395 0.90228 0.0
C291 C 0.95368 0.8766 0.83862 0.0
C292 C 0.96844 0.83749 0.83786 0.0
C293 C 0.99572 0.82659 0.86994 0.0
H294 H 0.00569 0.62416 0.69797 0.0
H295 H 0.99475 0.68076 0.75106 0.0
C296 C 0.00863 0.85453 0.90172 0.0
C297 C 0.95814 0.80869 0.8008 0.0
H298 H 0.93254 0.70984 0.79394 0.0
C299 C 0.96862 0.81735 0.75017 0.0
C300 C 0.94347 0.77019 0.81629 0.0
C301 C 0.93059 0.76009 0.86993 0.0
C302 C 0.96765 0.78716 0.71538 0.0
C303 C 0.95519 0.74767 0.73175 0.0
C304 C 0.94226 0.74006 0.78157 0.0
C305 C 0.95961 0.71265 0.69994 0.0
C306 C 0.98244 0.79685 0.66253 0.0
C307 C 0.94305 0.71151 0.65386 0.0
C308 C 0.94967 0.67936 0.62298 0.0
C309 C 0.97279 0.64774 0.63789 0.0
C310 C 0.98834 0.64842 0.68487 0.0
C311 C 0.98183 0.68055 0.71551 0.0
H312 H 0.9963 0.82672 0.65852 0.0
H313 H 1.00104 0.77274 0.65146 0.0
H314 H 0.96072 0.79801 0.63586 0.0
H315 H 0.92539 0.73569 0.64153 0.0
H316 H 0.93736 0.67982 0.58694 0.0
H317 H 0.16634 0.91606 0.89442 0.0
H318 H 0.21774 0.90926 0.83691 0.0
H319 H 0.23647 0.03881 0.83586 0.0
H320 H 0.18568 0.046 0.89208 0.0
H321 H 0.2356 0.01004 0.74013 0.0
H322 H 0.32342 0.91797 0.86583 0.0
H323 H 0.28002 0.89802 0.85896 0.0
H324 H 0.28545 0.94443 0.88968 0.0
C325 C 0.18164 0.94296 0.88222 0.0
C326 C 0.17169 0.98157 0.89768 0.0
C327 C 0.21102 0.93903 0.84952 0.0
C328 C 0.23094 0.97357 0.83229 0.0
C329 C 0.22139 0.01181 0.84852 0.0
H330 H 0.43675 0.01352 0.69473 0.0
H331 H 0.3836 0.0071 0.74997 0.0
C332 C 0.19222 0.01579 0.88075 0.0
C333 C 0.26111 0.97108 0.79589 0.0
H334 H 0.34553 0.93732 0.78381 0.0
C335 C 0.25955 0.99383 0.74942 0.0
C336 C 0.29237 0.95027 0.80847 0.0
C337 C 0.29576 0.92647 0.85854 0.0
C338 C 0.28868 0.9972 0.71564 0.0
C339 C 0.32003 0.97652 0.72823 0.0
C340 C 0.3214 0.95306 0.77426 0.0
C341 C 0.35205 0.98015 0.69488 0.0
C342 C 0.28604 0.02423 0.66773 0.0
C343 C 0.35189 0.96703 0.64581 0.0
C344 C 0.38196 0.97122 0.61425 0.0
C345 C 0.41268 0.98829 0.63143 0.0
C346 C 0.41307 0.00093 0.68065 0.0
C347 C 0.38291 0.99693 0.71216 0.0
H348 H 0.26349 0.04558 0.66968 0.0
H349 H 0.31045 0.04233 0.65964 0.0
H350 H 0.28218 0.00492 0.63577 0.0
H351 H 0.3286 0.95327 0.63206 0.0
H352 H 0.38142 0.96073 0.57658 0.0
H353 H 0.95053 0.11022 0.90635 0.0
H354 H 0.9297 0.16806 0.85252 0.0
H355 H 0.03683 0.20636 0.81967 0.0
H356 H 0.05763 0.1492 0.87336 0.0
H357 H 0.99279 0.26927 0.84612 0.0
H358 H 0.93587 0.18044 0.69775 0.0
H359 H 0.92027 0.16847 0.76163 0.0
H360 H 0.96497 0.15768 0.74366 0.0
C361 C 0.96956 0.1307 0.88728 0.0
C362 C 0.00567 0.12482 0.89395 0.0
C363 C 0.95765 0.16376 0.85654 0.0
C364 C 0.98177 0.19123 0.83175 0.0
C365 C 0.01777 0.18551 0.83854 0.0
H366 H 1.00343 0.3539 0.57839 0.0
H367 H 0.99479 0.29559 0.6401 0.0
C368 C 0.02961 0.15275 0.8693 0.0
C369 C 0.97022 0.22644 0.79883 0.0
H370 H 0.93704 0.25181 0.68356 0.0
C371 C 0.98006 0.26564 0.81092 0.0
C372 C 0.95368 0.22137 0.753 0.0
C373 C 0.9432 0.17977 0.7378 0.0
C374 C 0.97568 0.29973 0.77715 0.0
C375 C 0.96021 0.29452 0.7305 0.0
C376 C 0.94867 0.25563 0.71952 0.0
C377 C 0.96038 0.32788 0.69022 0.0
C378 C 0.98979 0.34048 0.79031 0.0
C379 C 0.94293 0.36486 0.69719 0.0
C380 C 0.94815 0.39822 0.66217 0.0
C381 C 0.97046 0.39466 0.6196 0.0
C382 C 0.9861 0.35702 0.61108 0.0
C383 C 0.98109 0.32384 0.64616 0.0
H384 H 0.00652 0.33762 0.82366 0.0
H385 H 0.0055 0.35522 0.7581 0.0
H386 H 0.96754 0.36092 0.79903 0.0
H387 H 0.92644 0.36835 0.73061 0.0
H388 H 0.93594 0.42716 0.6692 0.0
H389 H 0.86281 0.08829 0.8815 0.0
H390 H 0.8166 0.0882 0.81976 0.0
H391 H 0.8449 0.96563 0.78631 0.0
H392 H 0.89112 0.96549 0.84723 0.0
H393 H 0.82712 0.01636 0.70036 0.0
H394 H 0.72677 0.01983 0.85709 0.0
H395 H 0.75826 0.06079 0.85275 0.0
H396 H 0.77248 0.0094 0.86773 0.0
C397 C 0.85975 0.06169 0.86015 0.0
C398 C 0.88038 0.0267 0.86988 0.0
C399 C 0.83312 0.06155 0.8252 0.0
C400 C 0.82681 0.02654 0.79931 0.0
C401 C 0.8491 0.99284 0.80616 0.0
H402 H 0.63462 0.94431 0.67323 0.0
H403 H 0.68812 0.95165 0.72028 0.0
C404 C 0.87554 0.99285 0.84111 0.0
C405 C 0.79561 0.02353 0.7679 0.0
H406 H 0.70596 0.01865 0.77497 0.0
C407 C 0.80061 0.01714 0.71653 0.0
C408 C 0.76106 0.02368 0.78935 0.0
C409 C 0.75411 0.02845 0.84482 0.0
C410 C 0.77198 0.01118 0.68597 0.0
C411 C 0.73743 0.01198 0.70728 0.0
C412 C 0.73246 0.01819 0.75868 0.0
C413 C 0.706 0.0064 0.67702 0.0
C414 C 0.77897 0.0031 0.63141 0.0
C415 C 0.69831 0.03469 0.63709 0.0
C416 C 0.66788 0.0305 0.61013 0.0
C417 C 0.64433 -0.00198 0.62265 0.0
C418 C 0.65234 0.9694 0.66228 0.0
C419 C 0.68278 0.97371 0.68939 0.0
H420 H 0.80652 0.99342 0.62413 0.0
H421 H 0.76104 0.97913 0.61969 0.0
H422 H 0.77432 0.03148 0.60756 0.0
H423 H 0.71555 0.06047 0.62733 0.0
H424 H 0.66273 0.05286 0.5795 0.0
loop_
_geom_bond_atom_site_label_1
_geom_bond_atom_site_label_2
_geom_bond_distance
_geom_bond_site_symmetry_2
_ccdc_geom_bond_type
C0 O27 1.312 1_655 S
C0 O28 1.208 . S
C1 O22 1.331 . S
C1 O25 1.244 1_565 S
C2 O24 1.264 1_545 S
C2 O26 1.273 . S
Mg3 O5 1.936 1_565 S
Mg3 O12 2.081 . S
Mg3 O14 2.023 1_556 S
Mg3 O18 2.031 . S
Mg3 O27 2.291 1_556 S
Mg4 O5 1.963 . S
Mg4 O15 1.942 . S
Mg4 O16 1.955 1_556 S
Mg4 O23 1.986 . S
O5 Mg3 1.936 1_545 S
O5 Mg4 1.963 . S
O5 Mg6 1.909 1_556 S
Mg6 O5 1.909 1_554 S
Mg6 O7 1.921 1_455 S
Mg6 O11 2.029 . S
Mg6 O17 2.100 1_444 S
Mg6 O21 1.997 1_454 S
Mg6 O27 2.126 1_545 S
O7 Mg6 1.921 1_655 S
O7 Mg8 1.936 1_545 S
O7 Mg9 1.963 . S
Mg8 O7 1.936 1_565 S
Mg8 O17 2.291 1_554 S
Mg8 O22 2.081 . S
Mg8 O24 2.023 1_554 S
Mg8 O28 2.031 . S
Mg9 O7 1.963 . S
Mg9 O13 1.986 . S
Mg9 O25 1.942 . S
Mg9 O26 1.955 1_554 S
C10 O21 1.191 1_455 S
C10 O23 1.307 . S
O11 Mg6 2.029 . S
O11 C30 1.191 1_455 S
O12 Mg3 2.081 . S
O12 C20 1.331 . S
O13 Mg9 1.986 . S
O13 C30 1.307 . S
O14 Mg3 2.023 1_554 S
O14 C29 1.264 1_565 S
O15 Mg4 1.942 . S
O15 C20 1.244 1_545 S
O16 Mg4 1.955 1_554 S
O16 C29 1.273 . S
O17 Mg6 2.100 1_666 S
O17 Mg8 2.291 1_556 S
O17 C19 1.312 1_655 S
O18 Mg3 2.031 . S
O18 C19 1.208 . S
C19 O17 1.312 1_455 S
C19 O18 1.208 . S
C20 O12 1.331 . S
C20 O15 1.244 1_565 S
O21 Mg6 1.997 1_656 S
O21 C10 1.191 1_655 S
O22 C1 1.331 . S
O22 Mg8 2.081 . S
O23 Mg4 1.986 . S
O23 C10 1.307 . S
O24 C2 1.264 1_565 S
O24 Mg8 2.023 1_556 S
O25 C1 1.244 1_545 S
O25 Mg9 1.942 . S
O26 C2 1.273 . S
O26 Mg9 1.955 1_556 S
O27 C0 1.312 1_455 S
O27 Mg3 2.291 1_554 S
O27 Mg6 2.126 1_565 S
O28 C0 1.208 . S
O28 Mg8 2.031 . S
C29 O14 1.264 1_545 S
C29 O16 1.273 . S
C30 O11 1.191 1_655 S
C30 O13 1.307 . S
C31 C32 1.443 . S
C31 N35 1.376 . S
C31 C69 1.389 . S
C32 C31 1.443 . S
C32 C33 1.340 . S
C32 H72 0.951 . S
C33 C32 1.340 . S
C33 C34 1.439 . S
C33 H73 0.950 . S
C34 C33 1.439 . S
C34 N35 1.374 . S
C34 C68 1.395 . S
N35 C31 1.376 . S
N35 C34 1.374 . S
N35 Co36 2.008 . S
Co36 N35 2.008 . S
Co36 N37 1.995 . S
Co36 N42 2.008 1_455 S
Co36 N47 1.995 1_455 S
Co36 N52 2.282 . S
Co36 N58 2.282 . S
N37 Co36 1.995 . S
N37 C38 1.376 . S
N37 C41 1.383 . S
C38 N37 1.376 . S
C38 C39 1.446 . S
C38 C68 1.391 . S
C39 C38 1.446 . S
C39 C40 1.339 . S
C39 H74 0.949 . S
C40 C39 1.339 . S
C40 C41 1.439 . S
C40 H75 0.950 . S
C41 N37 1.383 . S
C41 C40 1.439 . S
C41 C70 1.392 . S
N42 Co36 2.008 1_655 S
N42 C43 1.376 . S
N42 C46 1.374 . S
C43 N42 1.376 . S
C43 C44 1.443 . S
C43 C70 1.389 1_655 S
C44 C43 1.443 . S
C44 C45 1.340 . S
C44 H76 0.951 . S
C45 C44 1.340 . S
C45 C46 1.439 . S
C45 H77 0.950 . S
C46 N42 1.374 . S
C46 C45 1.439 . S
C46 C71 1.395 . S
N47 Co36 1.995 1_655 S
N47 C48 1.376 . S
N47 C51 1.383 . S
C48 N47 1.376 . S
C48 C49 1.446 . S
C48 C71 1.391 . S
C49 C48 1.446 . S
C49 C50 1.339 . S
C49 H78 0.949 . S
C50 C49 1.339 . S
C50 C51 1.439 . S
C50 H79 0.950 . S
C51 N47 1.383 . S
C51 C50 1.439 . S
C51 C69 1.392 1_655 S
N52 Co36 2.282 . S
N52 C55 1.332 1_455 S
N52 C57 1.332 . S
C53 C54 1.386 1_455 S
C53 C56 1.388 . S
C54 C53 1.386 1_655 S
C54 C55 1.382 . S
C54 H80 0.950 . S
C55 N52 1.332 1_655 S
C55 C54 1.382 . S
C55 H66 0.952 . S
C56 C53 1.388 . S
C56 C57 1.382 . S
C56 H81 0.950 . S
C57 N52 1.332 . S
C57 C56 1.382 . S
C57 H67 0.948 . S
N58 Co36 2.282 . S
N58 C62 1.332 . S
N58 C63 1.332 1_455 S
C59 C60 1.388 1_655 S
C59 C63 1.382 . S
C59 H82 0.950 . S
C60 C59 1.388 1_455 S
C60 C61 1.386 . S
C61 C60 1.386 . S
C61 C62 1.382 . S
C61 H83 0.950 . S
C62 N58 1.332 . S
C62 C61 1.382 . S
C62 H64 0.952 . S
C63 N58 1.332 1_655 S
C63 C59 1.382 . S
C63 H65 0.948 . S
H64 C62 0.952 . S
H65 C63 0.948 . S
H66 C55 0.952 . S
H67 C57 0.948 . S
C68 C34 1.395 . S
C68 C38 1.391 . S
C69 C31 1.389 . S
C69 C51 1.392 1_455 S
C70 C41 1.392 . S
C70 C43 1.389 1_455 S
C71 C46 1.395 . S
C71 C48 1.391 . S
H72 C32 0.951 . S
H73 C33 0.950 . S
H74 C39 0.949 . S
H75 C40 0.950 . S
H76 C44 0.951 . S
H77 C45 0.950 . S
H78 C49 0.949 . S
H79 C50 0.950 . S
H80 C54 0.950 . S
H81 C56 0.950 . S
H82 C59 0.950 . S
H83 C61 0.950 . S
C84 C85 1.443 . S
C84 N88 1.376 . S
C84 C122 1.363 1_565 S
C85 C84 1.443 . S
C85 C86 1.340 . S
C85 H125 0.951 . S
C86 C85 1.340 . S
C86 C87 1.439 . S
C86 H126 0.950 . S
C87 C86 1.439 . S
C87 N88 1.374 . S
C87 C121 1.395 . S
N88 C84 1.376 . S
N88 C87 1.374 . S
N88 Co89 2.008 1_565 S
Co89 N88 2.008 1_545 S
Co89 N90 1.995 1_545 S
Co89 N95 2.008 . S
Co89 N100 1.995 . S
Co89 N105 2.282 1_545 S
Co89 N111 2.282 . S
N90 Co89 1.995 1_565 S
N90 C91 1.376 . S
N90 C94 1.383 . S
C91 N90 1.376 . S
C91 C92 1.446 . S
C91 C121 1.391 . S
C92 C91 1.446 . S
C92 C93 1.339 . S
C92 H127 0.949 . S
C93 C92 1.339 . S
C93 C94 1.439 . S
C93 H128 0.950 . S
C94 N90 1.383 . S
C94 C93 1.439 . S
C94 C123 1.392 1_565 S
N95 Co89 2.008 . S
N95 C96 1.376 . S
N95 C99 1.374 . S
C96 N95 1.376 . S
C96 C97 1.443 . S
C96 C123 1.389 . S
C97 C96 1.443 . S
C97 C98 1.340 . S
C97 H129 0.951 . S
C98 C97 1.340 . S
C98 C99 1.439 . S
C98 H130 0.950 . S
C99 N95 1.374 . S
C99 C98 1.439 . S
C99 C124 1.395 . S
N100 Co89 1.995 . S
N100 C101 1.376 . S
N100 C104 1.383 . S
C101 N100 1.376 . S
C101 C102 1.446 . S
C101 C124 1.391 . S
C102 C101 1.446 . S
C102 C103 1.339 . S
C102 H131 0.949 . S
C103 C102 1.339 . S
C103 C104 1.439 . S
C103 H132 0.950 . S
C104 N100 1.383 . S
C104 C103 1.439 . S
C104 C122 1.417 . S
N105 Co89 2.282 1_565 S
N105 C108 1.332 1_565 S
N105 C110 1.332 . S
C106 C107 1.386 . S
C106 C109 1.388 1_545 S
C107 C106 1.386 . S
C107 C108 1.382 . S
C107 H133 0.950 . S
C108 N105 1.332 1_545 S
C108 C107 1.382 . S
C108 H119 0.952 . S
C109 C106 1.388 1_565 S
C109 C110 1.382 . S
C109 H134 0.950 . S
C110 N105 1.332 . S
C110 C109 1.382 . S
C110 H120 0.948 . S
N111 Co89 2.282 . S
N111 C115 1.332 1_545 S
N111 C116 1.332 . S
C112 C113 1.388 . S
C112 C116 1.382 . S
C112 H135 0.950 . S
C113 C112 1.388 . S
C113 C114 1.386 1_545 S
C114 C113 1.386 1_565 S
C114 C115 1.382 . S
C114 H136 0.950 . S
C115 N111 1.332 1_565 S
C115 C114 1.382 . S
C115 H117 0.952 . S
C116 N111 1.332 . S
C116 C112 1.382 . S
C116 H118 0.948 . S
H117 C115 0.952 . S
H118 C116 0.948 . S
H119 C108 0.952 . S
H120 C110 0.948 . S
C121 C87 1.395 . S
C121 C91 1.391 . S
C122 C84 1.363 1_545 S
C122 C104 1.417 . S
C123 C94 1.392 1_545 S
C123 C96 1.389 . S
C124 C99 1.395 . S
C124 C101 1.391 . S
H125 C85 0.951 . S
H126 C86 0.950 . S
H127 C92 0.949 . S
H128 C93 0.950 . S
H129 C97 0.951 . S
H130 C98 0.950 . S
H131 C102 0.949 . S
H132 C103 0.950 . S
H133 C107 0.950 . S
H134 C109 0.950 . S
H135 C112 0.950 . S
H136 C114 0.950 . S
H137 C145 0.929 . S
H138 C147 0.930 . S
H139 C149 0.930 . S
H140 C152 0.929 . S
H141 C155 0.930 . S
H142 C157 0.960 . S
H143 C157 0.960 . S
H144 C157 0.960 . S
C145 H137 0.929 . S
C145 C146 1.377 . S
C145 C147 1.384 . S
C146 C145 1.377 . S
C146 C152 1.390 1_455 S
C147 H138 0.930 . S
C147 C145 1.384 . S
C147 C148 1.372 . S
C148 C147 1.372 . S
C148 C149 1.400 1_455 S
C148 C153 1.490 . S
C149 H139 0.930 . S
C149 C148 1.400 1_655 S
C149 C152 1.386 . S
H150 C166 0.930 . S
H151 C167 0.931 . S
C152 H140 0.929 . S
C152 C146 1.390 1_655 S
C152 C149 1.386 . S
C153 C148 1.490 . S
C153 C155 1.395 . S
C153 C156 1.403 1_455 S
H154 C160 0.930 . S
C155 H141 0.930 . S
C155 C153 1.395 . S
C155 C158 1.403 . S
C156 C153 1.403 1_655 S
C156 C157 1.524 . S
C156 C160 1.400 . S
C157 H142 0.960 . S
C157 H143 0.960 . S
C157 H144 0.960 . S
C157 C156 1.524 . S
C158 C155 1.403 . S
C158 C159 1.392 . S
C158 C162 1.495 . S
C159 C158 1.392 . S
C159 C160 1.385 1_455 S
C159 C161 1.478 . S
C160 H154 0.930 . S
C160 C156 1.400 . S
C160 C159 1.385 1_655 S
C161 C159 1.478 . S
C161 C163 1.381 . S
C161 C167 1.383 . S
C162 C158 1.495 . S
C162 H168 0.959 . S
C162 H169 0.961 . S
C162 H170 0.960 . S
C163 C161 1.381 . S
C163 C164 1.394 . S
C163 H171 0.930 . S
C164 C163 1.394 . S
C164 C165 1.383 . S
C164 H172 0.929 . S
C165 C164 1.383 . S
C165 C166 1.377 . S
C166 H150 0.930 . S
C166 C165 1.377 . S
C166 C167 1.379 . S
C167 H151 0.931 . S
C167 C161 1.383 . S
C167 C166 1.379 . S
H168 C162 0.959 . S
H169 C162 0.961 . S
H170 C162 0.960 . S
H171 C163 0.930 . S
H172 C164 0.929 . S
H173 C181 0.929 . S
H174 C183 0.930 . S
H175 C185 0.930 . S
H176 C188 0.929 . S
H177 C191 0.930 . S
H178 C193 0.960 . S
H179 C193 0.960 . S
H180 C193 0.960 . S
C181 H173 0.929 . S
C181 C182 1.377 1_545 S
C181 C183 1.384 . S
C182 C181 1.377 1_565 S
C182 C188 1.390 . S
C183 H174 0.930 . S
C183 C181 1.384 . S
C183 C184 1.372 1_545 S
C184 C183 1.372 1_565 S
C184 C185 1.400 . S
C184 C189 1.490 . S
C185 H175 0.930 . S
C185 C184 1.400 . S
C185 C188 1.386 . S
H186 C202 0.930 . S
H187 C203 0.931 . S
C188 H176 0.929 . S
C188 C182 1.390 . S
C188 C185 1.386 . S
C189 C184 1.490 . S
C189 C191 1.395 . S
C189 C192 1.403 1_565 S
H190 C196 0.930 . S
C191 H177 0.930 . S
C191 C189 1.395 . S
C191 C194 1.403 . S
C192 C189 1.403 1_545 S
C192 C193 1.524 . S
C192 C196 1.400 . S
C193 H178 0.960 . S
C193 H179 0.960 . S
C193 H180 0.960 . S
C193 C192 1.524 . S
C194 C191 1.403 . S
C194 C195 1.392 . S
C194 C198 1.495 . S
C195 C194 1.392 . S
C195 C196 1.385 1_565 S
C195 C197 1.478 . S
C196 H190 0.930 . S
C196 C192 1.400 . S
C196 C195 1.385 1_545 S
C197 C195 1.478 . S
C197 C199 1.381 1_565 S
C197 C203 1.383 . S
C198 C194 1.495 . S
C198 H204 0.959 . S
C198 H205 0.961 . S
C198 H206 0.960 . S
C199 C197 1.381 1_545 S
C199 C200 1.394 . S
C199 H207 0.930 . S
C200 C199 1.394 . S
C200 C201 1.383 1_545 S
C200 H208 0.929 . S
C201 C200 1.383 1_565 S
C201 C202 1.377 . S
C202 H186 0.930 . S
C202 C201 1.377 . S
C202 C203 1.379 . S
C203 H187 0.931 . S
C203 C197 1.383 . S
C203 C202 1.379 . S
H204 C198 0.959 . S
H205 C198 0.961 . S
H206 C198 0.960 . S
H207 C199 0.930 . S
H208 C200 0.929 . S
H209 C217 0.929 . S
H210 C219 0.930 . S
H211 C221 0.930 . S
H212 C224 0.929 . S
H213 C227 0.930 . S
H214 C229 0.960 . S
H215 C229 0.960 . S
H216 C229 0.966 . S
C217 H209 0.929 . S
C217 C218 1.377 1_655 S
C217 C219 1.384 . S
C218 C217 1.377 1_455 S
C218 C224 1.390 . S
C219 H210 0.930 . S
C219 C217 1.384 . S
C219 C220 1.372 1_655 S
C220 C219 1.372 1_455 S
C220 C221 1.400 . S
C220 C225 1.490 . S
C221 H211 0.930 . S
C221 C220 1.400 . S
C221 C224 1.386 . S
H222 C238 0.930 . S
H223 C239 0.931 . S
C224 H212 0.929 . S
C224 C218 1.390 . S
C224 C221 1.386 . S
C225 C220 1.490 . S
C225 C227 1.395 . S
C225 C228 1.403 1_455 S
H226 C232 0.930 . S
C227 H213 0.930 . S
C227 C225 1.395 . S
C227 C230 1.403 . S
C228 C225 1.403 1_655 S
C228 C229 1.524 . S
C228 C232 1.400 . S
C229 H214 0.960 . S
C229 H215 0.960 . S
C229 H216 0.966 . S
C229 C228 1.524 . S
C230 C227 1.403 . S
C230 C231 1.392 . S
C230 C234 1.495 . S
C231 C230 1.392 . S
C231 C232 1.385 1_455 S
C231 C233 1.478 . S
C232 H226 0.930 . S
C232 C228 1.400 . S
C232 C231 1.385 1_655 S
C233 C231 1.478 . S
C233 C235 1.381 1_455 S
C233 C239 1.383 . S
C234 C230 1.495 . S
C234 H240 0.959 . S
C234 H241 0.961 . S
C234 H242 0.960 . S
C235 C233 1.381 1_655 S
C235 C236 1.394 . S
C235 H243 0.930 . S
C236 C235 1.394 . S
C236 C237 1.383 1_655 S
C236 H244 0.929 . S
C237 C236 1.383 1_455 S
C237 C238 1.377 . S
C238 H222 0.930 . S
C238 C237 1.377 . S
C238 C239 1.379 . S
C239 H223 0.931 . S
C239 C233 1.383 . S
C239 C238 1.379 . S
H240 C234 0.959 . S
H241 C234 0.961 . S
H242 C234 0.960 . S
H243 C235 0.930 . S
H244 C236 0.929 . S
H245 C253 0.929 . S
H246 C255 0.930 . S
H247 C257 0.930 . S
H248 C260 0.929 . S
H249 C263 0.930 . S
H250 C265 0.960 . S
H251 C265 0.960 1_565 S
H252 C265 0.960 . S
C253 H245 0.929 . S
C253 C254 1.377 1_565 S
C253 C255 1.384 . S
C254 C253 1.377 1_545 S
C254 C260 1.390 . S
C255 H246 0.930 . S
C255 C253 1.384 . S
C255 C256 1.372 1_565 S
C256 C255 1.372 1_545 S
C256 C257 1.400 . S
C256 C261 1.490 . S
C257 H247 0.930 . S
C257 C256 1.400 . S
C257 C260 1.386 . S
H258 C274 0.930 . S
H259 C275 0.931 . S
C260 H248 0.929 . S
C260 C254 1.390 . S
C260 C257 1.386 . S
C261 C256 1.490 . S
C261 C263 1.395 1_545 S
C261 C264 1.403 . S
H262 C268 0.930 . S
C263 H249 0.930 . S
C263 C261 1.395 1_565 S
C263 C266 1.403 . S
C264 C261 1.403 . S
C264 C265 1.524 . S
C264 C268 1.400 . S
C265 H250 0.960 . S
C265 H251 0.960 1_545 S
C265 H252 0.960 . S
C265 C264 1.524 . S
C266 C263 1.403 . S
C266 C267 1.392 1_565 S
C266 C270 1.495 . S
C267 C266 1.392 1_545 S
C267 C268 1.385 . S
C267 C269 1.478 . S
C268 H262 0.930 . S
C268 C264 1.400 . S
C268 C267 1.385 . S
C269 C267 1.478 . S
C269 C271 1.381 1_545 S
C269 C275 1.383 . S
C270 C266 1.495 . S
C270 H276 0.959 . S
C270 H277 0.961 1_565 S
C270 H278 0.960 . S
C271 C269 1.381 1_565 S
C271 C272 1.394 . S
C271 H279 0.930 . S
C272 C271 1.394 . S
C272 C273 1.383 1_565 S
C272 H280 0.929 . S
C273 C272 1.383 1_545 S
C273 C274 1.377 . S
C274 H258 0.930 . S
C274 C273 1.377 . S
C274 C275 1.379 . S
C275 H259 0.931 . S
C275 C269 1.383 . S
C275 C274 1.379 . S
H276 C270 0.959 . S
H277 C270 0.961 1_545 S
H278 C270 0.960 . S
H279 C271 0.930 . S
H280 C272 0.929 . S
H281 C289 0.929 . S
H282 C291 0.930 . S
H283 C293 0.930 . S
H284 C296 0.929 . S
H285 C299 0.930 . S
H286 C301 0.960 . S
H287 C301 0.960 . S
H288 C301 0.960 . S
C289 H281 0.929 . S
C289 C290 1.377 1_655 S
C289 C291 1.384 . S
C290 C289 1.377 1_455 S
C290 C296 1.390 . S
C291 H282 0.930 . S
C291 C289 1.384 . S
C291 C292 1.372 1_655 S
C292 C291 1.372 1_455 S
C292 C293 1.400 . S
C292 C297 1.490 . S
C293 H283 0.930 . S
C293 C292 1.400 . S
C293 C296 1.386 . S
H294 C310 0.930 . S
H295 C311 0.931 . S
C296 H284 0.929 . S
C296 C290 1.390 . S
C296 C293 1.386 . S
C297 C292 1.490 . S
C297 C299 1.395 . S
C297 C300 1.403 1_455 S
H298 C304 0.930 . S
C299 H285 0.930 . S
C299 C297 1.395 . S
C299 C302 1.403 . S
C300 C297 1.403 1_655 S
C300 C301 1.524 . S
C300 C304 1.400 . S
C301 H286 0.960 . S
C301 H287 0.960 . S
C301 H288 0.960 . S
C301 C300 1.524 . S
C302 C299 1.403 . S
C302 C303 1.392 . S
C302 C306 1.495 . S
C303 C302 1.392 . S
C303 C304 1.385 1_455 S
C303 C305 1.478 . S
C304 H298 0.930 . S
C304 C300 1.400 . S
C304 C303 1.385 1_655 S
C305 C303 1.478 . S
C305 C307 1.381 1_455 S
C305 C311 1.383 . S
C306 C302 1.495 . S
C306 H312 0.959 . S
C306 H313 0.961 . S
C306 H314 0.960 . S
C307 C305 1.381 1_655 S
C307 C308 1.394 . S
C307 H315 0.930 . S
C308 C307 1.394 . S
C308 C309 1.383 1_655 S
C308 H316 0.929 . S
C309 C308 1.383 1_455 S
C309 C310 1.377 . S
C310 H294 0.930 . S
C310 C309 1.377 . S
C310 C311 1.379 . S
C311 H295 0.931 . S
C311 C305 1.383 . S
C311 C310 1.379 . S
H312 C306 0.959 . S
H313 C306 0.961 . S
H314 C306 0.960 . S
H315 C307 0.930 . S
H316 C308 0.929 . S
H317 C325 0.929 . S
H318 C327 0.930 . S
H319 C329 0.930 . S
H320 C332 0.929 . S
H321 C335 0.930 . S
H322 C337 0.960 . S
H323 C337 0.960 1_565 S
H324 C337 0.960 . S
C325 H317 0.929 . S
C325 C326 1.377 . S
C325 C327 1.384 . S
C326 C325 1.377 . S
C326 C332 1.390 1_565 S
C327 H318 0.930 . S
C327 C325 1.384 . S
C327 C328 1.372 . S
C328 C327 1.372 . S
C328 C329 1.400 1_565 S
C328 C333 1.490 . S
C329 H319 0.930 . S
C329 C328 1.400 1_545 S
C329 C332 1.386 . S
H330 C346 0.930 . S
H331 C347 0.931 . S
C332 H320 0.929 . S
C332 C326 1.390 1_545 S
C332 C329 1.386 . S
C333 C328 1.490 . S
C333 C335 1.395 . S
C333 C336 1.403 1_565 S
H334 C340 0.930 . S
C335 H321 0.930 . S
C335 C333 1.395 . S
C335 C338 1.403 . S
C336 C333 1.403 1_545 S
C336 C337 1.524 . S
C336 C340 1.400 . S
C337 H322 0.960 . S
C337 H323 0.960 1_545 S
C337 H324 0.960 . S
C337 C336 1.524 . S
C338 C335 1.403 . S
C338 C339 1.392 . S
C338 C342 1.495 . S
C339 C338 1.392 . S
C339 C340 1.385 1_565 S
C339 C341 1.478 . S
C340 H334 0.930 . S
C340 C336 1.400 . S
C340 C339 1.385 1_545 S
C341 C339 1.478 . S
C341 C343 1.381 . S
C341 C347 1.383 1_565 S
C342 C338 1.495 . S
C342 H348 0.959 . S
C342 H349 0.961 1_565 S
C342 H350 0.960 . S
C343 C341 1.381 . S
C343 C344 1.394 . S
C343 H351 0.930 . S
C344 C343 1.394 . S
C344 C345 1.367 1_565 S
C344 H352 0.929 . S
C345 C344 1.367 1_545 S
C345 C346 1.393 . S
C346 H330 0.930 . S
C346 C345 1.393 . S
C346 C347 1.379 . S
C347 H331 0.931 . S
C347 C341 1.383 1_545 S
C347 C346 1.379 . S
H348 C342 0.959 . S
H349 C342 0.961 1_545 S
H350 C342 0.960 . S
H351 C343 0.930 . S
H352 C344 0.929 . S
H353 C361 0.929 . S
H354 C363 0.930 . S
H355 C365 0.930 . S
H356 C368 0.929 . S
H357 C371 0.930 . S
H358 C373 0.960 . S
H359 C373 0.960 . S
H360 C373 0.960 . S
C361 H353 0.929 . S
C361 C362 1.377 1_655 S
C361 C363 1.384 . S
C362 C361 1.377 1_455 S
C362 C368 1.390 . S
C363 H354 0.930 . S
C363 C361 1.384 . S
C363 C364 1.372 1_655 S
C364 C363 1.372 1_455 S
C364 C365 1.400 . S
C364 C369 1.490 . S
C365 H355 0.930 . S
C365 C364 1.400 . S
C365 C368 1.386 . S
H366 C382 0.930 . S
H367 C383 0.931 . S
C368 H356 0.929 . S
C368 C362 1.390 . S
C368 C365 1.386 . S
C369 C364 1.490 . S
C369 C371 1.395 1_455 S
C369 C372 1.403 . S
H370 C376 0.930 . S
C371 H357 0.930 . S
C371 C369 1.395 1_655 S
C371 C374 1.403 . S
C372 C369 1.403 . S
C372 C373 1.524 . S
C372 C376 1.400 . S
C373 H358 0.960 . S
C373 H359 0.960 . S
C373 H360 0.960 . S
C373 C372 1.524 . S
C374 C371 1.403 . S
C374 C375 1.392 1_655 S
C374 C378 1.495 . S
C375 C374 1.392 1_455 S
C375 C376 1.385 . S
C375 C377 1.478 . S
C376 H370 0.930 . S
C376 C372 1.400 . S
C376 C375 1.385 . S
C377 C375 1.478 . S
C377 C379 1.381 1_455 S
C377 C383 1.383 . S
C378 C374 1.495 . S
C378 H384 0.959 . S
C378 H385 0.961 . S
C378 H386 0.960 . S
C379 C377 1.381 1_655 S
C379 C380 1.394 . S
C379 H387 0.930 . S
C380 C379 1.394 . S
C380 C381 1.383 1_655 S
C380 H388 0.929 . S
C381 C380 1.383 1_455 S
C381 C382 1.377 . S
C382 H366 0.930 . S
C382 C381 1.377 . S
C382 C383 1.379 . S
C383 H367 0.931 . S
C383 C377 1.383 . S
C383 C382 1.379 . S
H384 C378 0.959 . S
H385 C378 0.961 . S
H386 C378 0.960 . S
H387 C379 0.930 . S
H388 C380 0.929 . S
H389 C397 0.929 . S
H390 C399 0.930 . S
H391 C401 0.930 . S
H392 C404 0.929 . S
H393 C407 0.930 . S
H394 C409 0.960 . S
H395 C409 0.960 . S
H396 C409 0.960 . S
C397 H389 0.929 . S
C397 C398 1.377 . S
C397 C399 1.384 . S
C398 C397 1.377 . S
C398 C404 1.390 1_545 S
C399 H390 0.930 . S
C399 C397 1.384 . S
C399 C400 1.372 . S
C400 C399 1.372 . S
C400 C401 1.400 1_545 S
C400 C405 1.490 . S
C401 H391 0.930 . S
C401 C400 1.400 1_565 S
C401 C404 1.386 . S
H402 C418 0.930 . S
H403 C419 0.931 . S
C404 H392 0.929 . S
C404 C398 1.390 1_565 S
C404 C401 1.386 . S
C405 C400 1.490 . S
C405 C407 1.395 1_545 S
C405 C408 1.403 . S
H406 C412 0.930 . S
C407 H393 0.930 . S
C407 C405 1.395 1_565 S
C407 C410 1.403 . S
C408 C405 1.403 . S
C408 C409 1.524 . S
C408 C412 1.400 . S
C409 H394 0.960 . S
C409 H395 0.960 . S
C409 H396 0.960 . S
C409 C408 1.524 . S
C410 C407 1.403 . S
C410 C411 1.392 1_565 S
C410 C414 1.495 . S
C411 C410 1.392 1_545 S
C411 C412 1.385 . S
C411 C413 1.478 . S
C412 H406 0.930 . S
C412 C408 1.400 . S
C412 C411 1.385 . S
C413 C411 1.478 . S
C413 C415 1.381 . S
C413 C419 1.383 1_545 S
C414 C410 1.495 . S
C414 H420 0.959 . S
C414 H421 0.961 . S
C414 H422 0.955 1_565 S
C415 C413 1.381 . S
C415 C416 1.394 . S
C415 H423 0.930 . S
C416 C415 1.394 . S
C416 C417 1.383 . S
C416 H424 0.929 . S
C417 C416 1.383 . S
C417 C418 1.377 1_545 S
C418 H402 0.930 . S
C418 C417 1.377 1_565 S
C418 C419 1.379 . S
C419 H403 0.931 . S
C419 C413 1.383 1_565 S
C419 C418 1.379 . S
H420 C414 0.959 . S
H421 C414 0.961 . S
H422 C414 0.955 1_545 S
H423 C415 0.930 . S
H424 C416 0.929 . S
C146 C30 1.240 1_455 S
C165 C53 1.268 . S
C182 C1 1.667 . S
C201 C123 1.704 1_565 S
C218 C0 1.337 1_455 S
C237 C69 1.392 . S
C254 C29 1.574 . S
C273 C113 1.599 . S
C290 C19 1.237 . S
C309 C60 1.282 . S
C326 C20 1.663 . S
C345 C122 1.699 . S
C381 C70 1.384 . S
C362 C10 1.360 . S
C398 C2 1.579 . S
C417 C106 1.610 . S
