# Generated by pormake.
# Topology myd, (4,6)-cn, num edge types: 1
# Building blocks:
#     Node 0, Type 0, BuildingBlock: NAWXER_clean_sbu_0, # of connection points: 4
#     Node 1, Type 0, BuildingBlock: NAWXER_clean_sbu_0, # of connection points: 4
#     Node 2, Type 0, BuildingBlock: NAWXER_clean_sbu_0, # of connection points: 4
#     Node 3, Type 0, BuildingBlock: NAWXER_clean_sbu_0, # of connection points: 4
#     Node 4, Type 0, BuildingBlock: NAWXER_clean_sbu_0, # of connection points: 4
#     Node 5, Type 0, BuildingBlock: NAWXER_clean_sbu_0, # of connection points: 4
#     Node 6, Type 0, BuildingBlock: NAWXER_clean_sbu_0, # of connection points: 4
#     Node 7, Type 0, BuildingBlock: NAWXER_clean_sbu_0, # of connection points: 4
#     Node 8, Type 0, BuildingBlock: NAWXER_clean_sbu_0, # of connection points: 4
#     Node 9, Type 0, BuildingBlock: NAWXER_clean_sbu_0, # of connection points: 4
#     Node 10, Type 0, BuildingBlock: NAWXER_clean_sbu_0, # of connection points: 4
#     Node 11, Type 0, BuildingBlock: NAWXER_clean_sbu_0, # of connection points: 4
#     Node 12, Type 1, BuildingBlock: VOLQOD_clean_sbu_1, # of connection points: 6
#     Node 13, Type 1, BuildingBlock: VOLQOD_clean_sbu_1, # of connection points: 6
#     Node 14, Type 1, BuildingBlock: VOLQOD_clean_sbu_1, # of connection points: 6
#     Node 15, Type 1, BuildingBlock: VOLQOD_clean_sbu_1, # of connection points: 6
#     Node 16, Type 1, BuildingBlock: VOLQOD_clean_sbu_1, # of connection points: 6
#     Node 17, Type 1, BuildingBlock: VOLQOD_clean_sbu_1, # of connection points: 6
#     Node 18, Type 1, BuildingBlock: VOLQOD_clean_sbu_1, # of connection points: 6
#     Node 19, Type 1, BuildingBlock: VOLQOD_clean_sbu_1, # of connection points: 6
#     Edge 20, Type (0, 1), BuildingBlock: ZUJKAS_clean_linker_0, # of connection points: 2
#     Edge 21, Type (0, 1), BuildingBlock: ZUJKAS_clean_linker_0, # of connection points: 2
#     Edge 22, Type (0, 1), BuildingBlock: ZUJKAS_clean_linker_0, # of connection points: 2
#     Edge 23, Type (0, 1), BuildingBlock: ZUJKAS_clean_linker_0, # of connection points: 2
#     Edge 24, Type (0, 1), BuildingBlock: ZUJKAS_clean_linker_0, # of connection points: 2
#     Edge 25, Type (0, 1), BuildingBlock: ZUJKAS_clean_linker_0, # of connection points: 2
#     Edge 26, Type (0, 1), BuildingBlock: ZUJKAS_clean_linker_0, # of connection points: 2
#     Edge 27, Type (0, 1), BuildingBlock: ZUJKAS_clean_linker_0, # of connection points: 2
#     Edge 28, Type (0, 1), BuildingBlock: ZUJKAS_clean_linker_0, # of connection points: 2
#     Edge 29, Type (0, 1), BuildingBlock: ZUJKAS_clean_linker_0, # of connection points: 2
#     Edge 30, Type (0, 1), BuildingBlock: ZUJKAS_clean_linker_0, # of connection points: 2
#     Edge 31, Type (0, 1), BuildingBlock: ZUJKAS_clean_linker_0, # of connection points: 2
#     Edge 32, Type (0, 1), BuildingBlock: ZUJKAS_clean_linker_0, # of connection points: 2
#     Edge 33, Type (0, 1), BuildingBlock: ZUJKAS_clean_linker_0, # of connection points: 2
#     Edge 34, Type (0, 1), BuildingBlock: ZUJKAS_clean_linker_0, # of connection points: 2
#     Edge 35, Type (0, 1), BuildingBlock: ZUJKAS_clean_linker_0, # of connection points: 2
#     Edge 36, Type (0, 1), BuildingBlock: ZUJKAS_clean_linker_0, # of connection points: 2
#     Edge 37, Type (0, 1), BuildingBlock: ZUJKAS_clean_linker_0, # of connection points: 2
#     Edge 38, Type (0, 1), BuildingBlock: ZUJKAS_clean_linker_0, # of connection points: 2
#     Edge 39, Type (0, 1), BuildingBlock: ZUJKAS_clean_linker_0, # of connection points: 2
#     Edge 40, Type (0, 1), BuildingBlock: ZUJKAS_clean_linker_0, # of connection points: 2
#     Edge 41, Type (0, 1), BuildingBlock: ZUJKAS_clean_linker_0, # of connection points: 2
#     Edge 42, Type (0, 1), BuildingBlock: ZUJKAS_clean_linker_0, # of connection points: 2
#     Edge 43, Type (0, 1), BuildingBlock: ZUJKAS_clean_linker_0, # of connection points: 2
#     Edge 44, Type (0, 1), BuildingBlock: ZUJKAS_clean_linker_0, # of connection points: 2
#     Edge 45, Type (0, 1), BuildingBlock: ZUJKAS_clean_linker_0, # of connection points: 2
#     Edge 46, Type (0, 1), BuildingBlock: ZUJKAS_clean_linker_0, # of connection points: 2
#     Edge 47, Type (0, 1), BuildingBlock: ZUJKAS_clean_linker_0, # of connection points: 2
#     Edge 48, Type (0, 1), BuildingBlock: ZUJKAS_clean_linker_0, # of connection points: 2
#     Edge 49, Type (0, 1), BuildingBlock: ZUJKAS_clean_linker_0, # of connection points: 2
#     Edge 50, Type (0, 1), BuildingBlock: ZUJKAS_clean_linker_0, # of connection points: 2
#     Edge 51, Type (0, 1), BuildingBlock: ZUJKAS_clean_linker_0, # of connection points: 2
#     Edge 52, Type (0, 1), BuildingBlock: ZUJKAS_clean_linker_0, # of connection points: 2
#     Edge 53, Type (0, 1), BuildingBlock: ZUJKAS_clean_linker_0, # of connection points: 2
#     Edge 54, Type (0, 1), BuildingBlock: ZUJKAS_clean_linker_0, # of connection points: 2
#     Edge 55, Type (0, 1), BuildingBlock: ZUJKAS_clean_linker_0, # of connection points: 2
#     Edge 56, Type (0, 1), BuildingBlock: ZUJKAS_clean_linker_0, # of connection points: 2
#     Edge 57, Type (0, 1), BuildingBlock: ZUJKAS_clean_linker_0, # of connection points: 2
#     Edge 58, Type (0, 1), BuildingBlock: ZUJKAS_clean_linker_0, # of connection points: 2
#     Edge 59, Type (0, 1), BuildingBlock: ZUJKAS_clean_linker_0, # of connection points: 2
#     Edge 60, Type (0, 1), BuildingBlock: ZUJKAS_clean_linker_0, # of connection points: 2
#     Edge 61, Type (0, 1), BuildingBlock: ZUJKAS_clean_linker_0, # of connection points: 2
#     Edge 62, Type (0, 1), BuildingBlock: ZUJKAS_clean_linker_0, # of connection points: 2
#     Edge 63, Type (0, 1), BuildingBlock: ZUJKAS_clean_linker_0, # of connection points: 2
#     Edge 64, Type (0, 1), BuildingBlock: ZUJKAS_clean_linker_0, # of connection points: 2
#     Edge 65, Type (0, 1), BuildingBlock: ZUJKAS_clean_linker_0, # of connection points: 2
#     Edge 66, Type (0, 1), BuildingBlock: ZUJKAS_clean_linker_0, # of connection points: 2
#     Edge 67, Type (0, 1), BuildingBlock: ZUJKAS_clean_linker_0, # of connection points: 2
# Relax obj value: 0.200
# Max RMSD: 0.164
# Mean RMSD: 0.124
data_MOF--net-myd--node1-NAWXER_clean_sbu_0--node2-VOLQOD_clean_sbu_1--edge1-ZUJKAS_clean_linker_0
_symmetry_space_group_name_H-M    P1
_symmetry_Int_Tables_number       1
_symmetry_cell_setting            triclinic
loop_
_symmetry_equiv_pos_as_xyz
'x, y, z'
_cell_length_a     59.9273
_cell_length_b     60.015026
_cell_length_c     60.049117
_cell_angle_alpha  91.102268
_cell_angle_beta   90.081357
_cell_angle_gamma 91.139343
loop_
_atom_site_label
_atom_site_type_symbol
_atom_site_fract_x
_atom_site_fract_y
_atom_site_fract_z
_atom_type_partial_charge
C0 C 0.98907 0.2186 0.28246 0.0
C1 C 0.98984 0.27663 0.34098 0.0
O2 O 0.00862 0.22549 0.28834 0.0
Zn3 Zn 0.02424 0.24812 0.31166 0.0
O4 O 0.97202 0.22634 0.29233 0.0
Zn5 Zn 0.98846 0.24659 0.31256 0.0
O6 O 0.00298 0.26987 0.28963 0.0
O7 O 0.03972 0.26826 0.29168 0.0
O8 O 0.97279 0.26621 0.33314 0.0
O9 O 0.00934 0.27112 0.33439 0.0
O10 O 0.04091 0.22817 0.33028 0.0
O11 O 0.0045 0.22351 0.33366 0.0
C12 C 0.02235 0.27659 0.28319 0.0
C13 C 0.02435 0.21789 0.33882 0.0
C14 C 0.99857 0.77708 0.21615 0.0
C15 C 0.99814 0.72032 0.1568 0.0
O16 O 0.01807 0.77091 0.21018 0.0
Zn17 Zn 0.03328 0.74882 0.18667 0.0
O18 O 0.98142 0.76866 0.20644 0.0
Zn19 Zn 0.99743 0.74888 0.18633 0.0
O20 O 0.01208 0.72624 0.20891 0.0
O21 O 0.04877 0.72845 0.206 0.0
O22 O 0.98121 0.72889 0.16612 0.0
O23 O 0.01781 0.72652 0.16298 0.0
O24 O 0.04985 0.76954 0.16815 0.0
O25 O 0.01331 0.772 0.16457 0.0
C26 C 0.03144 0.7199 0.21494 0.0
C27 C 0.03306 0.77847 0.1592 0.0
C28 C 0.36143 0.98449 0.2189 0.0
C29 C 0.3048 0.97594 0.27622 0.0
O30 O 0.35268 0.96653 0.22598 0.0
Zn31 Zn 0.33356 0.97985 0.24796 0.0
O32 O 0.35582 0.00326 0.2276 0.0
Zn33 Zn 0.33322 0.01502 0.2528 0.0
O34 O 0.35229 0.0293 0.2751 0.0
O35 O 0.35607 0.99282 0.27309 0.0
O36 O 0.31044 0.99634 0.27304 0.0
O37 O 0.3142 0.96057 0.26505 0.0
O38 O 0.31015 0.99707 0.22764 0.0
O39 O 0.31287 0.03299 0.23597 0.0
C40 C 0.36139 0.01178 0.28202 0.0
C41 C 0.30384 0.01709 0.22466 0.0
C42 C 0.72509 0.49149 0.21615 0.0
C43 C 0.66937 0.49535 0.27509 0.0
O44 O 0.71541 0.47539 0.22594 0.0
Zn45 Zn 0.69674 0.49312 0.24521 0.0
O46 O 0.72005 0.51159 0.22139 0.0
Zn47 Zn 0.6981 0.52845 0.2443 0.0
O48 O 0.7188 0.54542 0.2628 0.0
O49 O 0.72108 0.50903 0.26657 0.0
O50 O 0.67543 0.5147 0.26833 0.0
O51 O 0.67762 0.47804 0.26611 0.0
O52 O 0.67414 0.50794 0.2223 0.0
O53 O 0.67922 0.54449 0.22468 0.0
C54 C 0.72785 0.52885 0.27176 0.0
C55 C 0.66925 0.52758 0.21603 0.0
C56 C 0.23944 0.34973 0.98912 0.0
C57 C 0.29253 0.28929 0.98837 0.0
O58 O 0.24699 0.33925 0.97226 0.0
Zn59 Zn 0.26628 0.31968 0.98821 0.0
O60 O 0.24611 0.34483 0.0087 0.0
Zn61 Zn 0.268 0.32163 0.02369 0.0
O62 O 0.29053 0.34043 0.03824 0.0
O63 O 0.29212 0.34113 0.00155 0.0
O64 O 0.28804 0.29652 0.00807 0.0
O65 O 0.28343 0.29812 0.97164 0.0
O66 O 0.24299 0.29866 0.0053 0.0
O67 O 0.24767 0.30376 0.0415 0.0
C68 C 0.29983 0.34745 0.02062 0.0
C69 C 0.23749 0.29403 0.02533 0.0
C70 C 0.23538 0.70483 0.48522 0.0
C71 C 0.29435 0.64921 0.48769 0.0
O72 O 0.24464 0.69516 0.46872 0.0
Zn73 Zn 0.26411 0.67602 0.48561 0.0
O74 O 0.24098 0.69962 0.50504 0.0
Zn75 Zn 0.26345 0.6777 0.52119 0.0
O76 O 0.28236 0.69867 0.53754 0.0
O77 O 0.28679 0.69955 0.501 0.0
O78 O 0.28763 0.65567 0.50699 0.0
O79 O 0.28487 0.65646 0.47037 0.0
O80 O 0.24107 0.65353 0.50099 0.0
O81 O 0.24376 0.65811 0.53745 0.0
C82 C 0.29224 0.70654 0.5206 0.0
C83 C 0.23483 0.64829 0.52066 0.0
C84 C 0.73576 0.84185 0.49225 0.0
C85 C 0.79761 0.79055 0.48425 0.0
O86 O 0.7447 0.83487 0.47433 0.0
Zn87 Zn 0.76705 0.81651 0.48772 0.0
O88 O 0.74363 0.83583 0.51102 0.0
Zn89 Zn 0.76957 0.81518 0.52307 0.0
O90 O 0.78956 0.83575 0.53905 0.0
O91 O 0.79027 0.83986 0.50265 0.0
O92 O 0.79271 0.79503 0.50462 0.0
O93 O 0.78663 0.79942 0.4687 0.0
O94 O 0.74744 0.79067 0.50296 0.0
O95 O 0.75272 0.7929 0.53933 0.0
C96 C 0.79755 0.84544 0.5221 0.0
C97 C 0.74339 0.78341 0.52252 0.0
C98 C 0.4883 0.77243 0.78891 0.0
C99 C 0.49196 0.71575 0.8462 0.0
O100 O 0.47186 0.76278 0.79835 0.0
Zn101 Zn 0.48932 0.74479 0.81838 0.0
O102 O 0.50822 0.7679 0.79483 0.0
Zn103 Zn 0.52494 0.74727 0.81782 0.0
O104 O 0.54207 0.72878 0.79776 0.0
O105 O 0.50566 0.72248 0.79558 0.0
O106 O 0.5112 0.72317 0.84016 0.0
O107 O 0.47446 0.7241 0.83808 0.0
O108 O 0.50365 0.76949 0.84053 0.0
O109 O 0.54028 0.76905 0.83675 0.0
C110 C 0.52554 0.718 0.78929 0.0
C111 C 0.52306 0.77726 0.8458 0.0
C112 C 0.50773 0.21937 0.70861 0.0
C113 C 0.50904 0.27473 0.65026 0.0
O114 O 0.49115 0.22844 0.69948 0.0
Zn115 Zn 0.50799 0.24694 0.67918 0.0
O116 O 0.52758 0.22478 0.70256 0.0
Zn117 Zn 0.5435 0.24679 0.67946 0.0
O118 O 0.56016 0.26691 0.69911 0.0
O119 O 0.52366 0.27072 0.70136 0.0
O120 O 0.52869 0.26895 0.65608 0.0
O121 O 0.49204 0.2659 0.65945 0.0
O122 O 0.52304 0.22303 0.65716 0.0
O123 O 0.55968 0.22622 0.66089 0.0
C124 C 0.54342 0.27667 0.70748 0.0
C125 C 0.54271 0.21674 0.65188 0.0
C126 C 0.79396 0.48812 0.72307 0.0
C127 C 0.85375 0.48435 0.77856 0.0
O128 O 0.80182 0.50725 0.72941 0.0
Zn129 Zn 0.82722 0.52101 0.7512 0.0
O130 O 0.80236 0.47052 0.73075 0.0
Zn131 Zn 0.82461 0.48537 0.74978 0.0
O132 O 0.80416 0.50169 0.77402 0.0
O133 O 0.80922 0.53818 0.7719 0.0
O134 O 0.84391 0.46809 0.76851 0.0
O135 O 0.84908 0.50434 0.77334 0.0
O136 O 0.84713 0.53619 0.73084 0.0
O137 O 0.84632 0.4997 0.72566 0.0
C138 C 0.79972 0.52147 0.78088 0.0
C139 C 0.8534 0.51905 0.71997 0.0
C140 C 0.22171 0.99124 0.72016 0.0
C141 C 0.16517 0.99512 0.77898 0.0
O142 O 0.21204 0.97484 0.72953 0.0
Zn143 Zn 0.19227 0.99224 0.74838 0.0
O144 O 0.21592 0.01116 0.72525 0.0
Zn145 Zn 0.19292 0.02788 0.747 0.0
O146 O 0.2134 0.04554 0.76549 0.0
O147 O 0.21596 0.00917 0.76961 0.0
O148 O 0.17112 0.01428 0.77169 0.0
O149 O 0.17292 0.97764 0.76981 0.0
O150 O 0.17027 0.00579 0.72452 0.0
O151 O 0.17349 0.04245 0.72625 0.0
C152 C 0.22251 0.02908 0.77469 0.0
C153 C 0.16474 0.02493 0.71747 0.0
C154 C 0.73333 0.15599 0.01841 0.0
C155 C 0.79471 0.20903 0.02818 0.0
O156 O 0.74149 0.16382 0.03651 0.0
Zn157 Zn 0.76373 0.18287 0.02348 0.0
O158 O 0.74135 0.16235 -0.00028 0.0
Zn159 Zn 0.76704 0.18478 0.98836 0.0
O160 O 0.78729 0.1655 0.97231 0.0
O161 O 0.78688 0.16005 0.00855 0.0
O162 O 0.79015 0.20487 0.00763 0.0
O163 O 0.78312 0.19987 0.04329 0.0
O164 O 0.74424 0.20829 0.00835 0.0
O165 O 0.75072 0.20699 0.97224 0.0
C166 C 0.79455 0.1553 0.98913 0.0
C167 C 0.74081 0.2158 0.98881 0.0
O168 O 0.09261 0.04161 0.09337 0.0
Zn169 Zn 0.06112 0.041 0.0816 0.0
O170 O 0.06039 0.05173 0.05127 0.0
Zn171 Zn 0.0463 0.08064 0.05146 0.0
Zn172 Zn 0.09092 0.05468 0.04022 0.0
Zn173 Zn 0.04322 0.03076 0.03227 0.0
O174 O 0.02039 0.0804 0.0302 0.0
O175 O 0.0138 0.04436 0.02287 0.0
O176 O 0.04183 0.05909 0.10245 0.0
O177 O 0.03334 0.08784 0.0816 0.0
O178 O 0.06827 0.10543 0.04453 0.0
O179 O 0.09898 0.08704 0.03606 0.0
O180 O 0.09434 0.03868 0.01045 0.0
O181 O 0.05072 0.00914 0.08211 0.0
O182 O 0.06062 0.02375 0.00421 0.0
O183 O 0.03805 0.00138 0.04799 0.0
C184 C 0.11159 0.04154 0.08382 0.0
C185 C 0.00825 0.06475 0.02168 0.0
C186 C 0.0887 0.10527 0.03871 0.0
C187 C 0.03236 0.07771 0.10001 0.0
C188 C 0.08067 0.02756 0.99805 0.0
C189 C 0.04221 0.99548 0.06785 0.0
O190 O 0.11335 0.04419 0.06286 0.0
O191 O 0.93836 0.45981 0.09091 0.0
Zn192 Zn 0.97026 0.45772 0.08044 0.0
O193 O 0.97159 0.44479 0.05042 0.0
Zn194 Zn 0.98757 0.41696 0.05138 0.0
Zn195 Zn 0.94129 0.43923 0.03981 0.0
Zn196 Zn 0.98687 0.46485 0.02987 0.0
O197 O 0.01391 0.41736 0.03088 0.0
O198 O 0.01714 0.45285 0.02121 0.0
O199 O 0.98711 0.43969 0.10307 0.0
O200 O 0.99955 0.41185 0.08202 0.0
O201 O 0.96733 0.39054 0.04486 0.0
O202 O 0.93482 0.40647 0.03885 0.0
O203 O 0.93708 0.4503 0.00879 0.0
O204 O 0.98219 0.4892 0.07989 0.0
O205 O 0.96919 0.46753 0.00112 0.0
O206 O 0.99083 0.49537 0.04445 0.0
C207 C 0.91962 0.45838 0.0809 0.0
C208 C 0.02459 0.43309 0.02141 0.0
C209 C 0.94649 0.38914 0.04087 0.0
C210 C 0.99795 0.42172 0.10087 0.0
C211 C 0.94962 0.46089 0.99537 0.0
C212 C 0.98883 0.5022 0.0646 0.0
O213 O 0.91832 0.45233 0.06048 0.0
O214 O 0.10068 0.91069 0.47058 0.0
Zn215 Zn 0.09408 0.94258 0.46358 0.0
O216 O 0.0643 0.94516 0.45066 0.0
Zn217 Zn 0.0667 0.95541 0.42017 0.0
Zn218 Zn 0.04956 0.91583 0.4505 0.0
Zn219 Zn 0.04697 0.96682 0.46785 0.0
O220 O 0.05687 0.98699 0.41777 0.0
O221 O 0.04105 0.99483 0.45028 0.0
O222 O 0.11784 0.95079 0.44129 0.0
O223 O 0.09857 0.95481 0.41004 0.0
O224 O 0.04803 0.93635 0.39902 0.0
O225 O 0.03807 0.90768 0.41985 0.0
O226 O 0.02246 0.9166 0.47027 0.0
O227 O 0.09738 0.96135 0.49178 0.0
O228 O 0.01817 0.95252 0.47882 0.0
O229 O 0.06429 0.97718 0.49489 0.0
C230 C 0.09037 0.89213 0.46744 0.0
C231 C 0.04677 0.00047 0.43069 0.0
C232 C 0.03813 0.91756 0.40128 0.0
C233 C 0.11709 0.9538 0.42036 0.0
C234 C 0.01139 0.93224 0.47939 0.0
C235 C 0.08392 0.97403 0.50217 0.0
O236 O 0.07058 0.89137 0.4596 0.0
O237 O 0.9982 0.59027 0.41669 0.0
Zn238 Zn 0.98672 0.58394 0.44743 0.0
O239 O 0.97018 0.5556 0.44763 0.0
Zn240 Zn 0.94002 0.56047 0.45829 0.0
Zn241 Zn 0.96931 0.54287 0.41749 0.0
Zn242 Zn 0.98423 0.53482 0.4676 0.0
O243 O 0.93414 0.54669 0.48801 0.0
O244 O 0.96671 0.53181 0.49599 0.0
O245 O 0.96732 0.61011 0.45606 0.0
O246 O 0.9349 0.59299 0.4625 0.0
O247 O 0.91726 0.55018 0.43584 0.0
O248 O 0.93771 0.54232 0.40598 0.0
O249 O 0.97882 0.51091 0.41748 0.0
O250 O 0.0136 0.58224 0.46743 0.0
O251 O 0.98639 0.50417 0.45296 0.0
O252 O 0.01446 0.54663 0.47711 0.0
C253 C 0.99803 0.57968 0.39811 0.0
C254 C 0.94687 0.53677 0.50141 0.0
C255 C 0.91881 0.5447 0.41534 0.0
C256 C 0.94672 0.61074 0.46124 0.0
C257 C 0.98421 0.49756 0.43274 0.0
C258 C 0.02312 0.5662 0.47706 0.0
O259 O 0.98823 0.56071 0.39596 0.0
O260 O 0.43341 0.97049 0.58957 0.0
Zn261 Zn 0.4649 0.96198 0.5815 0.0
O262 O 0.46632 0.94876 0.55148 0.0
Zn263 Zn 0.47826 0.91881 0.55335 0.0
Zn264 Zn 0.43629 0.94742 0.53884 0.0
Zn265 Zn 0.48577 0.96654 0.5322 0.0
O266 O 0.50813 0.91657 0.53841 0.0
O267 O 0.51327 0.94959 0.52301 0.0
O268 O 0.47337 0.94 0.60498 0.0
O269 O 0.48176 0.90977 0.58518 0.0
O270 O 0.45718 0.89609 0.53968 0.0
O271 O 0.42728 0.91575 0.5319 0.0
O272 O 0.43471 0.96424 0.5102 0.0
O273 O 0.48493 0.98926 0.58363 0.0
O274 O 0.46962 0.97572 0.50425 0.0
O275 O 0.49663 0.99411 0.54884 0.0
C276 C 0.41462 0.96768 0.57986 0.0
C277 C 0.51989 0.93 0.52693 0.0
C278 C 0.43721 0.89723 0.53266 0.0
C279 C 0.47921 0.91973 0.60388 0.0
C280 C 0.44925 0.97404 0.49818 0.0
C281 C 0.4958 0.00039 0.56921 0.0
O282 O 0.4133 0.95902 0.56037 0.0
O283 O 0.59071 0.51989 0.58675 0.0
Zn284 Zn 0.56021 0.52936 0.57691 0.0
O285 O 0.56143 0.54193 0.54714 0.0
Zn286 Zn 0.55085 0.57247 0.54841 0.0
Zn287 Zn 0.59228 0.54173 0.53654 0.0
Zn288 Zn 0.54232 0.52424 0.52678 0.0
O289 O 0.52216 0.57569 0.53106 0.0
O290 O 0.51503 0.54142 0.51797 0.0
O291 O 0.54973 0.55158 0.60006 0.0
O292 O 0.54458 0.58168 0.57998 0.0
O293 O 0.57457 0.59434 0.53845 0.0
O294 O 0.60429 0.57324 0.53374 0.0
O295 O 0.59393 0.52704 0.50619 0.0
O296 O 0.54072 0.50174 0.57693 0.0
O297 O 0.55897 0.51639 0.49858 0.0
O298 O 0.53197 0.49569 0.54129 0.0
C299 C 0.60973 0.51893 0.57741 0.0
C300 C 0.50961 0.56176 0.52041 0.0
C301 C 0.5953 0.59231 0.53434 0.0
C302 C 0.54469 0.57202 0.59865 0.0
C303 C 0.57944 0.51818 0.49304 0.0
C304 C 0.53168 0.48971 0.56155 0.0
O305 O 0.61271 0.52595 0.55773 0.0
O306 O 0.6104 0.42708 0.96518 0.0
Zn307 Zn 0.5979 0.45779 0.96032 0.0
O308 O 0.56708 0.45593 0.94945 0.0
Zn309 Zn 0.56569 0.46804 0.91951 0.0
Zn310 Zn 0.55714 0.42469 0.94899 0.0
Zn311 Zn 0.54746 0.47325 0.96881 0.0
O312 O 0.54436 0.49338 0.91774 0.0
O313 O 0.5339 0.49904 0.95277 0.0
O314 O 0.61808 0.47371 0.93872 0.0
O315 O 0.59543 0.48094 0.91063 0.0
O316 O 0.55758 0.44412 0.89679 0.0
O317 O 0.552 0.41421 0.91742 0.0
O318 O 0.52843 0.42036 0.96629 0.0
O319 O 0.59926 0.47516 0.98929 0.0
O320 O 0.52222 0.45421 0.98024 0.0
O321 O 0.56434 0.48559 0.99525 0.0
C322 C 0.6015 0.40761 0.96539 0.0
C323 C 0.53368 0.50448 0.93237 0.0
C324 C 0.55288 0.42344 0.89852 0.0
C325 C 0.61462 0.48208 0.91973 0.0
C326 C 0.51668 0.43371 0.97791 0.0
C327 C 0.58476 0.48519 0.00107 0.0
O328 O 0.5809 0.40448 0.96077 0.0
O329 O 0.48355 0.08914 0.91803 0.0
Zn330 Zn 0.47662 0.07994 0.94931 0.0
O331 O 0.46366 0.04988 0.94964 0.0
Zn332 Zn 0.4339 0.05112 0.96274 0.0
Zn333 Zn 0.46195 0.0379 0.91912 0.0
Zn334 Zn 0.48211 0.03066 0.96762 0.0
O335 O 0.4316 0.0333 0.99067 0.0
O336 O 0.46606 0.02136 0.99554 0.0
O337 O 0.45543 0.10283 0.96109 0.0
O338 O 0.42574 0.0826 0.97057 0.0
O339 O 0.41058 0.04089 0.94078 0.0
O340 O 0.42981 0.03322 0.9101 0.0
O341 O 0.47741 0.00842 0.91633 0.0
O342 O 0.50497 0.08163 0.96711 0.0
O343 O 0.49019 0.00279 0.95048 0.0
O344 O 0.51042 0.04668 0.97714 0.0
C345 C 0.48223 0.07947 0.89901 0.0
C346 C 0.44595 0.02306 0.00208 0.0
C347 C 0.41131 0.03498 0.92033 0.0
C348 C 0.43569 0.1014 0.96876 0.0
C349 C 0.48754 0.99643 0.93027 0.0
C350 C 0.5167 0.06705 0.97654 0.0
O351 O 0.47498 0.05944 0.89693 0.0
H352 H 0.06292 0.1952 0.3466 0.0
H353 H 0.06627 0.15942 0.3653 0.0
H354 H 0.99621 0.16013 0.38142 0.0
H355 H 0.99263 0.1956 0.36267 0.0
H356 H 0.05556 0.14442 0.40937 0.0
H357 H 0.00341 0.10239 0.34388 0.0
H358 H 0.01529 0.13001 0.34068 0.0
H359 H 0.99071 0.12591 0.35734 0.0
C360 C 0.04831 0.18791 0.35443 0.0
C361 C 0.02746 0.19814 0.3529 0.0
C362 C 0.05024 0.16746 0.36508 0.0
C363 C 0.03138 0.15694 0.37435 0.0
C364 C 0.01087 0.16776 0.37399 0.0
H365 H 0.02923 0.03584 0.45423 0.0
H366 H 0.02494 0.07414 0.44159 0.0
C367 C 0.0089 0.18809 0.36332 0.0
C368 C 0.03278 0.13411 0.38325 0.0
H369 H 0.01362 0.08067 0.37453 0.0
C370 C 0.04639 0.13046 0.40181 0.0
C371 C 0.02098 0.1159 0.37316 0.0
C372 C 0.00692 0.11861 0.35254 0.0
C373 C 0.04838 0.10905 0.41067 0.0
C374 C 0.03624 0.09093 0.40082 0.0
C375 C 0.02272 0.09462 0.3822 0.0
C376 C 0.03829 0.06774 0.40866 0.0
C377 C 0.06391 0.10589 0.4301 0.0
C378 C 0.04656 0.0513 0.39415 0.0
C379 C 0.04886 0.02944 0.40122 0.0
C380 C 0.04283 0.02345 0.42299 0.0
C381 C 0.03407 0.03986 0.43738 0.0
C382 C 0.03179 0.06181 0.43025 0.0
H383 H 0.07561 0.12033 0.43254 0.0
H384 H 0.05393 0.10407 0.44553 0.0
H385 H 0.07378 0.09056 0.4277 0.0
H386 H 0.05156 0.05547 0.37738 0.0
H387 H 0.05562 0.0173 0.38963 0.0
H388 H 0.95184 0.29314 0.3606 0.0
H389 H 0.94856 0.32827 0.38186 0.0
H390 H 0.01941 0.34039 0.37514 0.0
H391 H 0.02296 0.30524 0.35491 0.0
H392 H 0.00619 0.3529 0.41526 0.0
H393 H 0.94915 0.38751 0.35217 0.0
H394 H 0.93868 0.36285 0.36534 0.0
H395 H 0.96297 0.3614 0.34785 0.0
C396 C 0.96673 0.30318 0.36394 0.0
C397 C 0.98762 0.29645 0.35586 0.0
C398 C 0.96482 0.32334 0.37593 0.0
C399 C 0.98367 0.33727 0.37965 0.0
C400 C 0.0046 0.33003 0.37244 0.0
H401 H 0.99307 0.47915 0.39195 0.0
H402 H 0.99285 0.43968 0.38136 0.0
C403 C 0.00658 0.30986 0.36079 0.0
C404 C 0.98188 0.35987 0.39002 0.0
H405 H 0.95922 0.41092 0.38244 0.0
C406 C 0.99581 0.36557 0.40819 0.0
C407 C 0.96854 0.37647 0.3806 0.0
C408 C 0.95413 0.37189 0.3603 0.0
C409 C 0.99732 0.38752 0.41673 0.0
C410 C 0.98395 0.4041 0.40732 0.0
C411 C 0.96947 0.39821 0.38965 0.0
C412 C 0.98556 0.42794 0.41449 0.0
C413 C 0.014 0.39287 0.43501 0.0
C414 C 0.98187 0.43456 0.43674 0.0
C415 C 0.98246 0.45719 0.44293 0.0
C416 C 0.98622 0.47361 0.42689 0.0
C417 C 0.99011 0.46691 0.4047 0.0
C418 C 0.9899 0.44434 0.39861 0.0
H419 H 0.027 0.37997 0.43601 0.0
H420 H 0.02238 0.40928 0.43244 0.0
H421 H 0.00521 0.39349 0.45125 0.0
H422 H 0.97795 0.42231 0.44921 0.0
H423 H 0.97908 0.46184 0.4601 0.0
H424 H 0.00238 0.79319 0.12991 0.0
H425 H 0.00387 0.82752 0.10886 0.0
H426 H 0.07045 0.84149 0.13348 0.0
H427 H 0.06925 0.80674 0.1543 0.0
H428 H 0.00728 0.86793 0.12867 0.0
H429 H 0.07644 0.85785 0.06836 0.0
H430 H 0.06388 0.83458 0.08269 0.0
H431 H 0.08437 0.85227 0.09652 0.0
C432 C 0.01754 0.80332 0.1305 0.0
C433 C 0.03566 0.79733 0.14387 0.0
C434 C 0.01836 0.82294 0.11843 0.0
C435 C 0.03728 0.83705 0.1195 0.0
C436 C 0.05583 0.83065 0.13205 0.0
H437 H 0.04444 0.97863 0.10963 0.0
H438 H 0.0418 0.93973 0.12033 0.0
C439 C 0.0551 0.81084 0.14402 0.0
C440 C 0.03646 0.85947 0.10958 0.0
H441 H 0.06348 0.89502 0.07445 0.0
C442 C 0.01945 0.87374 0.11662 0.0
C443 C 0.05218 0.86698 0.09371 0.0
C444 C 0.07012 0.85205 0.08469 0.0
C445 C 0.01812 0.89551 0.10877 0.0
C446 C 0.03446 0.90339 0.09376 0.0
C447 C 0.05106 0.88895 0.08609 0.0
C448 C 0.03534 0.92697 0.08696 0.0
C449 C 0.9993 0.90996 0.11673 0.0
C450 C 0.03271 0.9327 0.06457 0.0
C451 C 0.03418 0.95505 0.05833 0.0
C452 C 0.03857 0.97198 0.07438 0.0
C453 C 0.04099 0.96608 0.09681 0.0
C454 C 0.03942 0.94383 0.10301 0.0
H455 H 0.98501 0.8998 0.12296 0.0
H456 H 0.00536 0.92095 0.13063 0.0
H457 H 0.99329 0.92069 0.10319 0.0
H458 H 0.02962 0.91987 0.05195 0.0
H459 H 0.0324 0.959 0.0409 0.0
H460 H 0.02875 0.70722 0.12621 0.0
H461 H 0.02784 0.67324 0.10325 0.0
H462 H 0.96187 0.6573 0.12768 0.0
H463 H 0.96245 0.69168 0.1503 0.0
H464 H 0.02619 0.63318 0.12123 0.0
H465 H 0.95546 0.63994 0.06258 0.0
H466 H 0.96723 0.66378 0.07756 0.0
H467 H 0.94738 0.64551 0.09087 0.0
C468 C 0.01382 0.69675 0.12629 0.0
C469 C 0.99572 0.702 0.14016 0.0
C470 C 0.01332 0.67735 0.11313 0.0
C471 C 0.99477 0.66276 0.11365 0.0
C472 C 0.97617 0.66853 0.12663 0.0
H473 H 0.98937 0.52172 0.10601 0.0
H474 H 0.99281 0.56127 0.11549 0.0
C475 C 0.97656 0.68813 0.13965 0.0
C476 C 0.99615 0.64031 0.10309 0.0
H477 H 0.96845 0.60282 0.06908 0.0
C478 C 0.01373 0.62669 0.10955 0.0
C479 C 0.98008 0.6319 0.08767 0.0
C480 C 0.96161 0.64614 0.07908 0.0
C481 C 0.01513 0.60461 0.1018 0.0
C482 C 0.99826 0.59577 0.08755 0.0
C483 C 0.98125 0.60962 0.08021 0.0
C484 C 0.99712 0.57178 0.08148 0.0
C485 C 0.0345 0.59084 0.10918 0.0
C486 C 0.99822 0.5646 0.05915 0.0
C487 C 0.99624 0.54189 0.05361 0.0
C488 C 0.99287 0.52605 0.07033 0.0
C489 C 0.99202 0.5334 0.0927 0.0
C490 C 0.99406 0.55602 0.09818 0.0
H491 H 0.04905 0.60155 0.11425 0.0
H492 H 0.02936 0.58092 0.12378 0.0
H493 H 0.03979 0.57915 0.09573 0.0
H494 H 0.00048 0.57658 0.04603 0.0
H495 H 0.99685 0.53681 0.03622 0.0
H496 H 0.36369 0.95249 0.18609 0.0
H497 H 0.38271 0.95565 0.15029 0.0
H498 H 0.41162 0.01898 0.17159 0.0
H499 H 0.39186 0.01633 0.20702 0.0
H500 H 0.39111 0.02289 0.13379 0.0
H501 H 0.44461 0.94907 0.12675 0.0
H502 H 0.41619 0.94144 0.13265 0.0
H503 H 0.43212 0.95776 0.15276 0.0
C504 C 0.37456 0.9668 0.18334 0.0
C505 C 0.3762 0.98423 0.19926 0.0
C506 C 0.38555 0.96854 0.1629 0.0
C507 C 0.39877 0.98747 0.15827 0.0
C508 C 0.40149 0.00423 0.17476 0.0
H509 H 0.47333 0.0108 0.03606 0.0
H510 H 0.46236 0.00094 0.07391 0.0
C511 C 0.39021 0.00269 0.195 0.0
C512 C 0.40735 0.99124 0.13545 0.0
H513 H 0.43675 0.96779 0.09262 0.0
C514 C 0.4013 0.01092 0.12492 0.0
C515 C 0.42077 0.97572 0.12388 0.0
C516 C 0.429 0.95493 0.13469 0.0
C517 C 0.40795 0.01537 0.10309 0.0
C518 C 0.42035 0.99934 0.0911 0.0
C519 C 0.42689 0.97987 0.10173 0.0
C520 C 0.42689 0.00283 0.06762 0.0
C521 C 0.40185 0.03741 0.09325 0.0
C522 C 0.41056 0.00635 0.05136 0.0
C523 C 0.41675 0.01227 0.02983 0.0
C524 C 0.43941 0.01435 0.02406 0.0
C525 C 0.45573 0.00941 0.04 0.0
C526 C 0.4495 0.00376 0.06163 0.0
H527 H 0.3983 0.05011 0.10641 0.0
H528 H 0.41543 0.04398 0.0825 0.0
H529 H 0.38656 0.03509 0.08294 0.0
H530 H 0.393 0.00511 0.05548 0.0
H531 H 0.40378 0.01563 0.01785 0.0
H532 H 0.63657 0.49853 0.20211 0.0
H533 H 0.61792 0.4979 0.1659 0.0
H534 H 0.64993 0.56059 0.15004 0.0
H535 H 0.66823 0.56166 0.18657 0.0
H536 H 0.60546 0.55419 0.13162 0.0
H537 H 0.66164 0.48344 0.11458 0.0
H538 H 0.64396 0.47955 0.13835 0.0
H539 H 0.66479 0.50155 0.13875 0.0
C540 C 0.63914 0.51248 0.19116 0.0
C541 C 0.65413 0.52994 0.19692 0.0
C542 C 0.6285 0.5121 0.17051 0.0
C543 C 0.63304 0.52892 0.1552 0.0
C544 C 0.64636 0.54741 0.16166 0.0
H545 H 0.6269 0.49755 0.01411 0.0
H546 H 0.63864 0.51253 0.05046 0.0
C547 C 0.65679 0.54798 0.18251 0.0
C548 C 0.62653 0.52555 0.13166 0.0
H549 H 0.63424 0.49031 0.08733 0.0
C550 C 0.61177 0.54032 0.12182 0.0
C551 C 0.63533 0.50778 0.11884 0.0
C552 C 0.65248 0.49229 0.12806 0.0
C553 C 0.60496 0.53728 0.09954 0.0
C554 C 0.61287 0.51877 0.08712 0.0
C555 C 0.6281 0.50444 0.09689 0.0
C556 C 0.60526 0.51326 0.06419 0.0
C557 C 0.5896 0.55399 0.08951 0.0
C558 C 0.58256 0.50905 0.05973 0.0
C559 C 0.57579 0.5007 0.03889 0.0
C560 C 0.59166 0.49599 0.02232 0.0
C561 C 0.61431 0.50081 0.02662 0.0
C562 C 0.62102 0.50946 0.04733 0.0
H563 H 0.59105 0.57043 0.09828 0.0
H564 H 0.59321 0.55631 0.07156 0.0
H565 H 0.57208 0.54791 0.09115 0.0
H566 H 0.57017 0.51127 0.07265 0.0
H567 H 0.55822 0.49706 0.03609 0.0
H568 H 0.36367 0.04353 0.31534 0.0
H569 H 0.38286 0.0407 0.35114 0.0
H570 H 0.41178 0.97885 0.32904 0.0
H571 H 0.392 0.98119 0.29362 0.0
H572 H 0.39135 0.97372 0.36708 0.0
H573 H 0.44531 0.04943 0.37434 0.0
H574 H 0.41679 0.05583 0.36862 0.0
H575 H 0.43264 0.04039 0.34833 0.0
C576 C 0.37458 0.02964 0.31792 0.0
C577 C 0.37624 0.01252 0.30173 0.0
C578 C 0.38565 0.02808 0.33838 0.0
C579 C 0.39893 0.00963 0.34279 0.0
C580 C 0.40161 0.99322 0.32607 0.0
H581 H 0.47611 0.98666 0.46346 0.0
H582 H 0.46443 0.99644 0.42584 0.0
C583 C 0.39031 0.99459 0.30581 0.0
C584 C 0.40779 0.00592 0.36554 0.0
H585 H 0.43857 0.02958 0.40808 0.0
C586 C 0.40184 0.98589 0.37592 0.0
C587 C 0.42162 0.02169 0.37708 0.0
C588 C 0.42966 0.04293 0.36643 0.0
C589 C 0.40903 0.9813 0.39753 0.0
C590 C 0.42197 0.99748 0.40949 0.0
C591 C 0.42836 0.01734 0.39901 0.0
C592 C 0.42907 0.99383 0.4328 0.0
C593 C 0.40292 0.95895 0.4072 0.0
C594 C 0.41308 0.98985 0.44939 0.0
C595 C 0.41967 0.98403 0.47079 0.0
C596 C 0.44243 0.98242 0.47617 0.0
C597 C 0.45845 0.98767 0.45987 0.0
C598 C 0.45181 0.99329 0.43835 0.0
H599 H 0.39878 0.94635 0.39395 0.0
H600 H 0.41674 0.95258 0.41747 0.0
H601 H 0.388 0.96074 0.41796 0.0
H602 H 0.39544 0.99073 0.44563 0.0
H603 H 0.40689 0.98041 0.48301 0.0
H604 H 0.66572 0.4612 0.30443 0.0
H605 H 0.64599 0.46166 0.34006 0.0
H606 H 0.61945 0.52602 0.32515 0.0
H607 H 0.63983 0.52602 0.28998 0.0
H608 H 0.63927 0.52723 0.36386 0.0
H609 H 0.58297 0.45302 0.36092 0.0
H610 H 0.61135 0.44614 0.35493 0.0
H611 H 0.59642 0.46378 0.33637 0.0
C612 C 0.65524 0.47519 0.30853 0.0
C613 C 0.65441 0.49364 0.29452 0.0
C614 C 0.64386 0.47538 0.32886 0.0
C615 C 0.63106 0.49379 0.33524 0.0
C616 C 0.62923 0.51164 0.32061 0.0
H617 H 0.55283 0.50894 0.45675 0.0
H618 H 0.56484 0.50172 0.41837 0.0
C619 C 0.64087 0.51162 0.30051 0.0
C620 C 0.62193 0.49583 0.35814 0.0
H621 H 0.58994 0.46952 0.3971 0.0
C622 C 0.6283 0.51468 0.371 0.0
C623 C 0.60749 0.47956 0.36746 0.0
C624 C 0.59897 0.45961 0.35411 0.0
C625 C 0.62096 0.5176 0.39297 0.0
C626 C 0.60744 0.50083 0.40267 0.0
C627 C 0.60062 0.48217 0.38973 0.0
C628 C 0.6001 0.50269 0.42617 0.0
C629 C 0.62753 0.53884 0.40543 0.0
C630 C 0.61593 0.50484 0.44337 0.0
C631 C 0.60916 0.50922 0.46522 0.0
C632 C 0.5864 0.51115 0.47037 0.0
C633 C 0.5705 0.50763 0.45333 0.0
C634 C 0.57732 0.50348 0.43139 0.0
H635 H 0.63219 0.55239 0.39386 0.0
H636 H 0.61374 0.5447 0.41626 0.0
H637 H 0.64223 0.53572 0.41609 0.0
H638 H 0.63358 0.5037 0.43978 0.0
H639 H 0.62182 0.51151 0.478 0.0
H640 H 0.20836 0.35152 0.9559 0.0
H641 H 0.17384 0.37259 0.95679 0.0
H642 H 0.19517 0.40535 0.01801 0.0
H643 H 0.22923 0.38371 0.01763 0.0
H644 H 0.15649 0.38526 0.02306 0.0
H645 H 0.15244 0.43456 0.94632 0.0
H646 H 0.15791 0.40578 0.94043 0.0
H647 H 0.17802 0.42252 0.95595 0.0
C648 C 0.20596 0.36371 0.96917 0.0
C649 C 0.22134 0.36584 0.98681 0.0
C650 C 0.18627 0.37586 0.9696 0.0
C651 C 0.18193 0.39067 0.98741 0.0
C652 C 0.19814 0.39401 0.00412 0.0
H653 H 0.05809 0.46293 0.01082 0.0
H654 H 0.09664 0.45422 0.00064 0.0
C655 C 0.21759 0.38163 0.00389 0.0
C656 C 0.15931 0.39982 0.99061 0.0
H657 H 0.11745 0.42777 0.9652 0.0
C658 C 0.14814 0.39484 0.01049 0.0
C659 C 0.14837 0.41239 0.97429 0.0
C660 C 0.1599 0.41933 0.95315 0.0
C661 C 0.12621 0.40149 0.01428 0.0
C662 C 0.11485 0.41295 0.99748 0.0
C663 C 0.12615 0.41867 0.97788 0.0
C664 C 0.09105 0.4185 0.00011 0.0
C665 C 0.11537 0.39608 0.03626 0.0
C666 C 0.07506 0.40131 0.0023 0.0
C667 C 0.0532 0.40618 0.00829 0.0
C668 C 0.04683 0.42837 0.01195 0.0
C669 C 0.0625 0.44567 0.0082 0.0
C670 C 0.08451 0.44074 0.00236 0.0
H671 H 0.12796 0.3928 0.04933 0.0
H672 H 0.10469 0.4099 0.04217 0.0
H673 H 0.10468 0.38087 0.03414 0.0
H674 H 0.07974 0.38405 0.00024 0.0
H675 H 0.04147 0.39248 0.01071 0.0
H676 H 0.21213 0.62592 0.48774 0.0
H677 H 0.17756 0.60454 0.49099 0.0
H678 H 0.18021 0.61217 0.56254 0.0
H679 H 0.21479 0.63449 0.5594 0.0
H680 H 0.16349 0.56688 0.51157 0.0
H681 H 0.12199 0.64164 0.54772 0.0
H682 H 0.14983 0.64318 0.53649 0.0
H683 H 0.14495 0.63069 0.56304 0.0
C684 C 0.20559 0.6229 0.50425 0.0
C685 C 0.21599 0.6323 0.5233 0.0
C686 C 0.18584 0.61053 0.50607 0.0
C687 C 0.17608 0.60713 0.52697 0.0
C688 C 0.18722 0.61504 0.54622 0.0
H689 H 0.04499 0.53918 0.50587 0.0
H690 H 0.08132 0.54629 0.52368 0.0
C691 C 0.20702 0.62768 0.54439 0.0
C692 C 0.15325 0.59728 0.52776 0.0
H693 H 0.0991 0.61239 0.53477 0.0
C694 C 0.14936 0.57654 0.51709 0.0
C695 C 0.13491 0.61002 0.53499 0.0
C696 C 0.13797 0.63267 0.54609 0.0
C697 C 0.12765 0.56908 0.51168 0.0
C698 C 0.1094 0.5825 0.5177 0.0
C699 C 0.1132 0.60225 0.53012 0.0
C700 C 0.0868 0.57829 0.50838 0.0
C701 C 0.12461 0.54786 0.49801 0.0
C702 C 0.07759 0.5942 0.49444 0.0
C703 C 0.05681 0.59036 0.48451 0.0
C704 C 0.04485 0.57042 0.48821 0.0
C705 C 0.05393 0.5546 0.50249 0.0
C706 C 0.07469 0.55859 0.51263 0.0
H707 H 0.14072 0.54145 0.49169 0.0
H708 H 0.11675 0.53483 0.50844 0.0
H709 H 0.11346 0.55058 0.48357 0.0
H710 H 0.08669 0.60951 0.4909 0.0
H711 H 0.05033 0.60289 0.47361 0.0
H712 H 0.81847 0.86727 0.48853 0.0
H713 H 0.85378 0.88772 0.49012 0.0
H714 H 0.85594 0.88052 0.56143 0.0
H715 H 0.82063 0.85907 0.55989 0.0
H716 H 0.86979 0.92496 0.51 0.0
H717 H 0.9131 0.85121 0.54293 0.0
H718 H 0.88456 0.84965 0.53345 0.0
H719 H 0.89127 0.86227 0.56008 0.0
C720 C 0.82623 0.87018 0.50466 0.0
C721 C 0.81686 0.86117 0.52406 0.0
C722 C 0.84647 0.88199 0.50553 0.0
C723 C 0.85781 0.88525 0.52581 0.0
C724 C 0.84777 0.8777 0.5455 0.0
H725 H 0.98634 0.95844 0.50743 0.0
H726 H 0.94978 0.94927 0.52348 0.0
C727 C 0.8275 0.86562 0.54462 0.0
C728 C 0.88076 0.89508 0.52554 0.0
H729 H 0.9354 0.88151 0.53228 0.0
C730 C 0.88417 0.91565 0.51518 0.0
C731 C 0.89949 0.88281 0.53221 0.0
C732 C 0.89706 0.86019 0.54264 0.0
C733 C 0.9057 0.92363 0.51002 0.0
C734 C 0.92441 0.911 0.51604 0.0
C735 C 0.92104 0.89115 0.52768 0.0
C736 C 0.94727 0.91644 0.50797 0.0
C737 C 0.90808 0.9447 0.49681 0.0
C738 C 0.95843 0.90075 0.49468 0.0
C739 C 0.97942 0.90575 0.48586 0.0
C740 C 0.9897 0.92669 0.48998 0.0
C741 C 0.97875 0.94226 0.50373 0.0
C742 C 0.9578 0.93709 0.51282 0.0
H743 H 0.89193 0.94977 0.48954 0.0
H744 H 0.91422 0.95848 0.50794 0.0
H745 H 0.92028 0.94257 0.48308 0.0
H746 H 0.95067 0.8847 0.49069 0.0
H747 H 0.98732 0.89336 0.47534 0.0
H748 H 0.31835 0.63739 0.45033 0.0
H749 H 0.35395 0.61781 0.44916 0.0
H750 H 0.35154 0.61064 0.52045 0.0
H751 H 0.31609 0.62958 0.52172 0.0
H752 H 0.39265 0.63142 0.46885 0.0
H753 H 0.36877 0.54884 0.501 0.0
H754 H 0.34839 0.56823 0.49138 0.0
H755 H 0.35931 0.57059 0.51932 0.0
C756 C 0.32518 0.63118 0.46567 0.0
C757 C 0.31432 0.63504 0.48611 0.0
C758 C 0.34556 0.62007 0.46499 0.0
C759 C 0.35529 0.61245 0.48468 0.0
C760 C 0.34415 0.61582 0.50496 0.0
H761 H 0.48991 0.60212 0.52702 0.0
H762 H 0.45307 0.61333 0.51473 0.0
C763 C 0.32389 0.62685 0.50566 0.0
C764 C 0.37792 0.60275 0.48463 0.0
H765 H 0.4076 0.56 0.50577 0.0
C766 C 0.39589 0.61559 0.47655 0.0
C767 C 0.38219 0.58193 0.4943 0.0
C768 C 0.36359 0.56651 0.50176 0.0
C769 C 0.41805 0.60884 0.47911 0.0
C770 C 0.42239 0.58896 0.49054 0.0
C771 C 0.40436 0.57544 0.49736 0.0
C772 C 0.44539 0.5825 0.49675 0.0
C773 C 0.43656 0.62322 0.46972 0.0
C774 C 0.45325 0.56122 0.49119 0.0
C775 C 0.47428 0.55461 0.49848 0.0
C776 C 0.48786 0.56914 0.51154 0.0
C777 C 0.48003 0.59054 0.51684 0.0
C778 C 0.45898 0.59707 0.50966 0.0
H779 H 0.43063 0.63282 0.4553 0.0
H780 H 0.4424 0.63539 0.48271 0.0
H781 H 0.45095 0.61308 0.46432 0.0
H782 H 0.44302 0.54962 0.48138 0.0
H783 H 0.47974 0.53801 0.49409 0.0
H784 H 0.52656 0.6941 0.86488 0.0
H785 H 0.52535 0.65886 0.88411 0.0
H786 H 0.45345 0.65743 0.88036 0.0
H787 H 0.45452 0.69269 0.8603 0.0
H788 H 0.50688 0.64445 0.92235 0.0
H789 H 0.46895 0.59914 0.84945 0.0
H790 H 0.47938 0.62744 0.84779 0.0
H791 H 0.45306 0.62163 0.86099 0.0
C792 C 0.51041 0.68648 0.86827 0.0
C793 C 0.49063 0.69611 0.86076 0.0
C794 C 0.50976 0.6663 0.87936 0.0
C795 C 0.48935 0.65526 0.88331 0.0
C796 C 0.46943 0.6654 0.87702 0.0
H797 H 0.50552 0.5305 0.95732 0.0
H798 H 0.48993 0.56635 0.94717 0.0
C799 C 0.47006 0.68564 0.86572 0.0
C800 C 0.48952 0.63265 0.8929 0.0
H801 H 0.47996 0.5777 0.87956 0.0
C802 C 0.5007 0.62984 0.91319 0.0
C803 C 0.48159 0.61362 0.88079 0.0
C804 C 0.47021 0.61545 0.85847 0.0
C805 C 0.50525 0.60855 0.92113 0.0
C806 C 0.4978 0.5895 0.90874 0.0
C807 C 0.48557 0.59233 0.88906 0.0
C808 C 0.50486 0.5667 0.91437 0.0
C809 C 0.51926 0.60672 0.94191 0.0
C810 C 0.51747 0.55446 0.89892 0.0
C811 C 0.52606 0.53386 0.90449 0.0
C812 C 0.52235 0.52507 0.92574 0.0
C813 C 0.50891 0.53691 0.9409 0.0
C814 C 0.50009 0.55747 0.93518 0.0
H815 H 0.52753 0.62284 0.94671 0.0
H816 H 0.50843 0.60154 0.95593 0.0
H817 H 0.53233 0.59402 0.93957 0.0
H818 H 0.52132 0.5612 0.88272 0.0
H819 H 0.53628 0.52522 0.89237 0.0
H820 H 0.55535 0.81007 0.84577 0.0
H821 H 0.55331 0.84682 0.86395 0.0
H822 H 0.49244 0.82642 0.89678 0.0
H823 H 0.49396 0.79007 0.87796 0.0
H824 H 0.48658 0.86302 0.87469 0.0
H825 H 0.56379 0.87385 0.92481 0.0
H826 H 0.56933 0.86639 0.89631 0.0
H827 H 0.5545 0.84706 0.91375 0.0
C828 C 0.54191 0.81324 0.85737 0.0
C829 C 0.52474 0.7973 0.86038 0.0
C830 C 0.5408 0.83424 0.86783 0.0
C831 C 0.52277 0.83939 0.88184 0.0
C832 C 0.50647 0.82287 0.886 0.0
H833 H 0.50132 0.96256 0.95656 0.0
H834 H 0.51106 0.92477 0.94477 0.0
C835 C 0.50737 0.80208 0.87528 0.0
C836 C 0.51921 0.86261 0.8898 0.0
H837 H 0.54333 0.90694 0.91785 0.0
C838 C 0.49895 0.87252 0.88429 0.0
C839 C 0.53528 0.87502 0.90241 0.0
C840 C 0.55685 0.86497 0.90987 0.0
C841 C 0.49433 0.89446 0.89088 0.0
C842 C 0.51074 0.90718 0.90269 0.0
C843 C 0.53091 0.89725 0.9085 0.0
C844 C 0.50688 0.93064 0.90959 0.0
C845 C 0.47169 0.90359 0.88548 0.0
C846 C 0.50193 0.94665 0.89367 0.0
C847 C 0.49608 0.96818 0.90035 0.0
C848 C 0.49545 0.97421 0.92308 0.0
C849 C 0.50156 0.95845 0.93893 0.0
C850 C 0.50717 0.93685 0.93223 0.0
H851 H 0.45915 0.89003 0.88219 0.0
H852 H 0.4655 0.91437 0.89928 0.0
H853 H 0.47298 0.91372 0.87025 0.0
H854 H 0.50216 0.94236 0.87607 0.0
H855 H 0.49178 0.97999 0.88771 0.0
H856 H 0.47386 0.30267 0.64609 0.0
H857 H 0.47329 0.33727 0.62526 0.0
H858 H 0.5381 0.32282 0.59797 0.0
H859 H 0.5391 0.28868 0.61938 0.0
H860 H 0.53833 0.36206 0.6178 0.0
H861 H 0.46473 0.35641 0.56206 0.0
H862 H 0.45771 0.35072 0.59044 0.0
H863 H 0.47597 0.33235 0.5754 0.0
C864 C 0.48771 0.3066 0.63519 0.0
C865 C 0.50661 0.29311 0.6345 0.0
C866 C 0.48731 0.32633 0.62316 0.0
C867 C 0.50559 0.3326 0.60991 0.0
C868 C 0.52381 0.31833 0.60809 0.0
H869 H 0.5232 0.45394 0.5335 0.0
H870 H 0.51465 0.41552 0.54423 0.0
C871 C 0.52438 0.29884 0.62035 0.0
C872 C 0.50726 0.3553 0.60061 0.0
H873 H 0.48035 0.39318 0.56895 0.0
C874 C 0.52574 0.36872 0.60692 0.0
C875 C 0.49091 0.36401 0.58632 0.0
C876 C 0.47134 0.35003 0.57797 0.0
C877 C 0.52816 0.39067 0.59973 0.0
C878 C 0.51128 0.39976 0.58638 0.0
C879 C 0.49305 0.38625 0.57952 0.0
C880 C 0.51264 0.42329 0.57949 0.0
C881 C 0.54891 0.40387 0.6064 0.0
C882 C 0.51335 0.44045 0.59567 0.0
C883 C 0.51846 0.46229 0.58967 0.0
C884 C 0.52263 0.46744 0.56729 0.0
C885 C 0.52016 0.4505 0.55089 0.0
C886 C 0.51526 0.42855 0.55697 0.0
H887 H 0.56267 0.39282 0.61131 0.0
H888 H 0.55486 0.41451 0.59261 0.0
H889 H 0.54507 0.41484 0.62092 0.0
H890 H 0.51092 0.43676 0.6131 0.0
H891 H 0.51991 0.47501 0.60267 0.0
H892 H 0.51378 0.20162 0.62001 0.0
H893 H 0.51281 0.16456 0.60245 0.0
H894 H 0.5751 0.14935 0.63425 0.0
H895 H 0.57648 0.18676 0.65151 0.0
H896 H 0.56858 0.12934 0.58983 0.0
H897 H 0.49772 0.11488 0.6475 0.0
H898 H 0.49409 0.13829 0.62977 0.0
H899 H 0.51624 0.13887 0.65004 0.0
C900 C 0.52758 0.1906 0.62278 0.0
C901 C 0.54502 0.19686 0.63738 0.0
C902 C 0.527 0.16947 0.61276 0.0
C903 C 0.54361 0.15415 0.61752 0.0
C904 C 0.56208 0.16098 0.6305 0.0
H905 H 0.50808 0.01349 0.61129 0.0
H906 H 0.5242 0.04946 0.62323 0.0
C907 C 0.56285 0.18232 0.64032 0.0
C908 C 0.54 0.13039 0.61147 0.0
H909 H 0.50368 0.087 0.6198 0.0
C910 C 0.55452 0.11994 0.59644 0.0
C911 C 0.52198 0.11811 0.62063 0.0
C912 C 0.50673 0.12801 0.63806 0.0
C913 C 0.55089 0.09761 0.58963 0.0
C914 C 0.53205 0.08576 0.59781 0.0
C915 C 0.51805 0.0961 0.61342 0.0
C916 C 0.52577 0.06291 0.59004 0.0
C917 C 0.56734 0.08695 0.57394 0.0
C918 C 0.52163 0.05836 0.56738 0.0
C919 C 0.51265 0.0377 0.56049 0.0
C920 C 0.5072 0.02142 0.57621 0.0
C921 C 0.5119 0.02579 0.59881 0.0
C922 C 0.5212 0.04629 0.60564 0.0
H923 H 0.58408 0.09518 0.57531 0.0
H924 H 0.56903 0.06892 0.57723 0.0
H925 H 0.56144 0.08877 0.55655 0.0
H926 H 0.52441 0.0711 0.5551 0.0
H927 H 0.50911 0.03486 0.54295 0.0
H928 H 0.87738 0.55555 0.70549 0.0
H929 H 0.89723 0.55904 0.66998 0.0
H930 H 0.87873 0.49106 0.65253 0.0
H931 H 0.85993 0.48716 0.68809 0.0
H932 H 0.91978 0.49919 0.64026 0.0
H933 H 0.86673 0.5679 0.61172 0.0
H934 H 0.88194 0.5745 0.63682 0.0
H935 H 0.86077 0.55279 0.63673 0.0
C936 C 0.87777 0.54132 0.69414 0.0
C937 C 0.86698 0.52114 0.69955 0.0
C938 C 0.88895 0.54338 0.67378 0.0
C939 C 0.88903 0.52547 0.65834 0.0
C940 C 0.87887 0.50514 0.6641 0.0
H941 H 0.90387 0.53272 0.51595 0.0
H942 H 0.89105 0.52899 0.55437 0.0
C943 C 0.86808 0.50295 0.6845 0.0
C944 C 0.89907 0.52772 0.63589 0.0
H945 H 0.89587 0.55692 0.58782 0.0
C946 C 0.91458 0.51185 0.62879 0.0
C947 C 0.89201 0.54401 0.62081 0.0
C948 C 0.87429 0.56063 0.62678 0.0
C949 C 0.92292 0.51153 0.60696 0.0
C950 C 0.91624 0.52813 0.59204 0.0
C951 C 0.90104 0.54424 0.59927 0.0
C952 C 0.92425 0.52884 0.56867 0.0
C953 C 0.93807 0.49288 0.59994 0.0
C954 C 0.94717 0.52978 0.56387 0.0
C955 C 0.95451 0.53136 0.54187 0.0
C956 C 0.93907 0.53267 0.52432 0.0
C957 C 0.91615 0.53171 0.52913 0.0
C958 C 0.90882 0.52967 0.55108 0.0
H959 H 0.93587 0.47814 0.61071 0.0
H960 H 0.93494 0.48752 0.5824 0.0
H961 H 0.9557 0.4987 0.60148 0.0
H962 H 0.9594 0.52985 0.57715 0.0
H963 H 0.97229 0.53244 0.53871 0.0
H964 H 0.1411 0.9908 0.69781 0.0
H965 H 0.12331 0.99031 0.66141 0.0
H966 H 0.13744 0.06068 0.65527 0.0
H967 H 0.15595 0.06123 0.69178 0.0
H968 H 0.08889 0.01211 0.64195 0.0
H969 H 0.17013 0.03364 0.602 0.0
H970 H 0.1681 0.02642 0.63094 0.0
H971 H 0.15981 0.05346 0.62209 0.0
C972 C 0.1402 0.0063 0.68893 0.0
C973 C 0.15028 0.02599 0.69754 0.0
C974 C 0.12994 0.00599 0.6681 0.0
C975 C 0.12949 0.02534 0.65543 0.0
C976 C 0.13806 0.04545 0.66461 0.0
H977 H 0.0631 0.00758 0.52499 0.0
H978 H 0.0734 0.02398 0.56123 0.0
C979 C 0.14845 0.04577 0.68553 0.0
C980 C 0.12157 0.02358 0.63206 0.0
H981 H 0.14029 0.02377 0.57838 0.0
C982 C 0.09996 0.01499 0.62798 0.0
C983 C 0.13621 0.02712 0.61394 0.0
C984 C 0.15992 0.03551 0.61733 0.0
C985 C 0.09292 0.00886 0.60639 0.0
C986 C 0.10775 0.01194 0.58832 0.0
C987 C 0.12898 0.02148 0.59228 0.0
C988 C 0.10233 0.00349 0.56556 0.0
C989 C 0.07019 0.99792 0.60333 0.0
C990 C 0.11573 0.9872 0.55553 0.0
C991 C 0.11008 0.978 0.53468 0.0
C992 C 0.09085 0.98486 0.5235 0.0
C993 C 0.07786 0.0017 0.53329 0.0
C994 C 0.08365 0.01104 0.55405 0.0
H995 H 0.06299 0.99234 0.61938 0.0
H996 H 0.05863 0.01004 0.59607 0.0
H997 H 0.07105 0.98328 0.59179 0.0
H998 H 0.13027 0.98119 0.56411 0.0
H999 H 0.12047 0.96512 0.52761 0.0
H1000 H 0.86069 0.4455 0.80084 0.0
H1001 H 0.88035 0.44158 0.83637 0.0
H1002 H 0.89987 0.51107 0.83552 0.0
H1003 H 0.88022 0.51523 0.80027 0.0
H1004 H 0.92578 0.45174 0.85138 0.0
H1005 H 0.86219 0.50421 0.89304 0.0
H1006 H 0.85815 0.49219 0.86551 0.0
H1007 H 0.87566 0.5166 0.86946 0.0
C1008 C 0.86951 0.45984 0.808 0.0
C1009 C 0.86864 0.48074 0.79785 0.0
C1010 C 0.88071 0.45758 0.82831 0.0
C1011 C 0.89117 0.47615 0.83874 0.0
C1012 C 0.89155 0.49664 0.82793 0.0
H1013 H 0.97265 0.47879 0.96015 0.0
H1014 H 0.95943 0.48276 0.9218 0.0
C1015 C 0.88035 0.49894 0.80773 0.0
C1016 C 0.90034 0.47456 0.86159 0.0
H1017 H 0.89271 0.49341 0.91501 0.0
C1018 C 0.91862 0.46085 0.86532 0.0
C1019 C 0.89076 0.48629 0.87975 0.0
C1020 C 0.87049 0.50051 0.87689 0.0
C1021 C 0.9277 0.45872 0.88677 0.0
C1022 C 0.91834 0.47078 0.90484 0.0
C1023 C 0.89998 0.48436 0.90109 0.0
C1024 C 0.92654 0.46871 0.92802 0.0
C1025 C 0.94687 0.44319 0.89004 0.0
C1026 C 0.91225 0.46009 0.94434 0.0
C1027 C 0.91966 0.45792 0.96623 0.0
C1028 C 0.94155 0.46447 0.97235 0.0
C1029 C 0.95572 0.47355 0.95603 0.0
C1030 C 0.94826 0.47566 0.93406 0.0
H1031 H 0.94899 0.43167 0.87553 0.0
H1032 H 0.96254 0.45316 0.89222 0.0
H1033 H 0.94434 0.43318 0.90522 0.0
H1034 H 0.89537 0.45476 0.94006 0.0
H1035 H 0.90824 0.45091 0.97831 0.0
H1036 H 0.15429 0.95832 0.8037 0.0
H1037 H 0.1355 0.9579 0.83998 0.0
H1038 H 0.12696 0.02896 0.83704 0.0
H1039 H 0.14515 0.02949 0.80088 0.0
H1040 H 0.14997 0.97907 0.87766 0.0
H1041 H 0.06594 0.00887 0.85731 0.0
H1042 H 0.08498 0.99904 0.83619 0.0
H1043 H 0.08718 0.02729 0.84682 0.0
C1044 C 0.14794 0.97376 0.81056 0.0
C1045 C 0.15123 0.99393 0.79934 0.0
C1046 C 0.13728 0.9735 0.83133 0.0
C1047 C 0.12955 0.99335 0.84114 0.0
C1048 C 0.13227 0.01335 0.82963 0.0
H1049 H 0.12022 0.03666 0.97693 0.0
H1050 H 0.13127 0.02529 0.93937 0.0
C1051 C 0.14285 0.01362 0.80895 0.0
C1052 C 0.12048 0.99378 0.86417 0.0
H1053 H 0.07777 0.01416 0.8956 0.0
C1054 C 0.134 0.98639 0.88156 0.0
C1055 C 0.09951 0.003 0.8693 0.0
C1056 C 0.08348 0.00977 0.85137 0.0
C1057 C 0.12766 0.9891 0.90395 0.0
C1058 C 0.1075 -6e-05 0.90912 0.0
C1059 C 0.09341 0.00618 0.8917 0.0
C1060 C 0.10114 0.00587 0.93239 0.0
C1061 C 0.14274 0.98043 0.92183 0.0
C1062 C 0.0803 0.9992 0.94088 0.0
C1063 C 0.07379 0.00592 0.96232 0.0
C1064 C 0.08798 0.01954 0.97571 0.0
C1065 C 0.10893 0.02604 0.9672 0.0
C1066 C 0.11536 0.01941 0.94574 0.0
H1067 H 0.15294 0.96646 0.9154 0.0
H1068 H 0.15437 0.994 0.92751 0.0
H1069 H 0.13301 0.97459 0.9364 0.0
H1070 H 0.06898 0.98888 0.93085 0.0
H1071 H 0.05753 0.0006 0.96829 0.0
H1072 H 0.71293 0.85851 0.52784 0.0
H1073 H 0.67724 0.87718 0.52774 0.0
H1074 H 0.67657 0.87506 0.45591 0.0
H1075 H 0.71231 0.85582 0.45582 0.0
H1076 H 0.66309 0.9164 0.50988 0.0
H1077 H 0.61811 0.84307 0.47183 0.0
H1078 H 0.64625 0.84151 0.4823 0.0
H1079 H 0.64103 0.8542 0.456 0.0
C1080 C 0.70535 0.86212 0.51196 0.0
C1081 C 0.71539 0.85544 0.49183 0.0
C1082 C 0.68493 0.87287 0.51195 0.0
C1083 C 0.67407 0.87718 0.49184 0.0
C1084 C 0.68447 0.87148 0.47164 0.0
H1085 H 0.54936 0.95295 0.50037 0.0
H1086 H 0.58662 0.94155 0.48859 0.0
C1087 C 0.70496 0.86062 0.47162 0.0
C1088 C 0.65143 0.88673 0.49245 0.0
H1089 H 0.59658 0.87384 0.48212 0.0
C1090 C 0.64854 0.90726 0.50357 0.0
C1091 C 0.63249 0.87462 0.48439 0.0
C1092 C 0.63447 0.85205 0.47311 0.0
C1093 C 0.62717 0.91567 0.50753 0.0
C1094 C 0.60822 0.9034 0.49974 0.0
C1095 C 0.61116 0.88325 0.48795 0.0
C1096 C 0.58519 0.91004 0.50551 0.0
C1097 C 0.62505 0.937 0.52102 0.0
C1098 C 0.57175 0.89579 0.51827 0.0
C1099 C 0.55042 0.90212 0.52483 0.0
C1100 C 0.54205 0.92288 0.51878 0.0
C1101 C 0.55535 0.93692 0.50548 0.0
C1102 C 0.5767 0.9305 0.49882 0.0
H1103 H 0.64089 0.94185 0.52964 0.0
H1104 H 0.6206 0.9507 0.50979 0.0
H1105 H 0.61167 0.93534 0.53369 0.0
H1106 H 0.57795 0.8799 0.52357 0.0
H1107 H 0.54068 0.89085 0.53501 0.0
H1108 H 0.71913 0.12745 0.98541 0.0
H1109 H 0.68303 0.10791 0.9829 0.0
H1110 H 0.66612 0.13226 0.04866 0.0
H1111 H 0.70257 0.1513 0.05161 0.0
H1112 H 0.64946 0.08901 0.03957 0.0
H1113 H 0.62956 0.14733 0.97209 0.0
H1114 H 0.65383 0.13113 0.96647 0.0
H1115 H 0.65399 0.15085 0.98944 0.0
C1116 C 0.70789 0.12829 0.9995 0.0
C1117 C 0.71344 0.14119 0.01855 0.0
C1118 C 0.68729 0.11717 0.99803 0.0
C1119 C 0.67175 0.11918 0.01535 0.0
C1120 C 0.67787 0.13066 0.03506 0.0
H1121 H 0.53023 0.10884 0.9897 0.0
H1122 H 0.56723 0.12079 0.00275 0.0
C1123 C 0.69867 0.14153 0.0367 0.0
C1124 C 0.64847 0.11132 0.01194 0.0
H1125 H 0.60336 0.11816 0.97836 0.0
C1126 C 0.63929 0.09538 0.02626 0.0
C1127 C 0.63515 0.12011 0.99488 0.0
C1128 C 0.64352 0.13846 0.97998 0.0
C1129 C 0.61716 0.0876 0.0236 0.0
C1130 C 0.60419 0.0957 0.0059 0.0
C1131 C 0.61335 0.11189 0.99187 0.0
C1132 C 0.5811 0.08774 0.00126 0.0
C1133 C 0.60781 0.07112 0.03998 0.0
C1134 C 0.5765 0.06513 0.99648 0.0
C1135 C 0.55524 0.05821 0.98928 0.0
C1136 C 0.53843 0.07389 0.98629 0.0
C1137 C 0.54292 0.09641 0.99165 0.0
C1138 C 0.56402 0.10325 0.99918 0.0
H1139 H 0.61707 0.07199 0.05602 0.0
H1140 H 0.58988 0.07407 0.04333 0.0
H1141 H 0.6094 0.05399 0.03294 0.0
H1142 H 0.58954 0.05296 0.99741 0.0
H1143 H 0.55228 0.04076 0.98514 0.0
H1144 H 0.32141 0.36678 0.98598 0.0
H1145 H 0.35823 0.38451 0.98608 0.0
H1146 H 0.36262 0.37717 0.05725 0.0
H1147 H 0.32565 0.35877 0.05727 0.0
H1148 H 0.37612 0.42165 0.00705 0.0
H1149 H 0.41772 0.34471 0.03453 0.0
H1150 H 0.38894 0.34467 0.02571 0.0
H1151 H 0.39664 0.35559 0.05276 0.0
C1152 C 0.33004 0.36907 0.00175 0.0
C1153 C 0.32068 0.3611 0.0216 0.0
C1154 C 0.35111 0.37928 0.00176 0.0
C1155 C 0.36334 0.38179 0.02159 0.0
C1156 C 0.35363 0.37497 0.04169 0.0
H1157 H 0.4915 0.45478 0.00957 0.0
H1158 H 0.45519 0.44286 0.02408 0.0
C1159 C 0.33244 0.36464 0.04169 0.0
C1160 C 0.38659 0.39061 0.02058 0.0
H1161 H 0.4409 0.37505 0.02511 0.0
C1162 C 0.39033 0.41163 0.01129 0.0
C1163 C 0.40504 0.37733 0.02588 0.0
C1164 C 0.40203 0.35425 0.03512 0.0
C1165 C 0.41195 0.41939 0.00631 0.0
C1166 C 0.4304 0.40597 0.01131 0.0
C1167 C 0.42672 0.38531 0.02139 0.0
C1168 C 0.45342 0.41224 0.00447 0.0
C1169 C 0.4147 0.44132 0.99461 0.0
C1170 C 0.46497 0.39847 0.98945 0.0
C1171 C 0.48589 0.40506 0.98136 0.0
C1172 C 0.49559 0.42564 0.98807 0.0
C1173 C 0.48436 0.43897 0.00382 0.0
C1174 C 0.46355 0.43224 0.01207 0.0
H1175 H 0.39871 0.44696 0.98745 0.0
H1176 H 0.4207 0.45429 0.00673 0.0
H1177 H 0.42715 0.44006 0.98099 0.0
H1178 H 0.45749 0.3829 0.98344 0.0
H1179 H 0.49409 0.39437 0.9693 0.0
H1180 H 0.80817 0.12534 0.01954 0.0
H1181 H 0.84337 0.10556 0.01987 0.0
H1182 H 0.8597 0.13123 0.95522 0.0
H1183 H 0.8242 0.15092 0.95457 0.0
H1184 H 0.87364 0.08536 0.96286 0.0
H1185 H 0.89997 0.14555 0.02972 0.0
H1186 H 0.87445 0.13051 0.03537 0.0
H1187 H 0.87564 0.14956 0.01265 0.0
C1188 C 0.81901 0.12644 0.00516 0.0
C1189 C 0.81354 0.13996 0.98715 0.0
C1190 C 0.83913 0.11513 0.0054 0.0
C1191 C 0.8543 0.1173 0.98778 0.0
C1192 C 0.84822 0.12942 0.96903 0.0
H1193 H 0.99626 0.10516 0.00626 0.0
H1194 H 0.95928 0.11658 0.99464 0.0
C1195 C 0.82794 0.14065 0.96868 0.0
C1196 C 0.87729 0.10897 0.99013 0.0
H1197 H 0.92425 0.11593 0.02186 0.0
C1198 C 0.88479 0.09204 0.97569 0.0
C1199 C 0.89189 0.11799 0.00665 0.0
C1200 C 0.88522 0.13705 0.02187 0.0
C1201 C 0.90645 0.08358 0.97766 0.0
C1202 C 0.92077 0.09215 0.99469 0.0
C1203 C 0.91327 0.10928 0.00887 0.0
C1204 C 0.94374 0.084 0.99825 0.0
C1205 C 0.91392 0.06587 0.96132 0.0
C1206 C 0.94751 0.06169 0.00363 0.0
C1207 C 0.96881 0.05502 0.0101 0.0
C1208 C 0.98658 0.07065 0.01168 0.0
C1209 C 0.98291 0.09274 0.00541 0.0
C1210 C 0.96176 0.0993 0.99872 0.0
H1211 H 0.90365 0.06562 0.94589 0.0
H1212 H 0.93172 0.06846 0.95674 0.0
H1213 H 0.9121 0.0493 0.96908 0.0
H1214 H 0.9338 0.04967 0.00384 0.0
H1215 H 0.97107 0.03792 0.01496 0.0
H1216 H 0.95252 0.19226 0.27017 0.0
H1217 H 0.95143 0.16249 0.24128 0.0
H1218 H 0.02004 0.17756 0.22484 0.0
H1219 H 0.02139 0.20667 0.25341 0.0
H1220 H 0.95978 0.16326 0.19503 0.0
H1221 H 0.02103 0.111 0.23702 0.0
H1222 H 0.00693 0.13343 0.25127 0.0
H1223 H 0.0315 0.13906 0.23487 0.0
C1224 C 0.96731 0.18919 0.26032 0.0
C1225 C 0.98713 0.20161 0.2643 0.0
C1226 C 0.96668 0.17219 0.2439 0.0
C1227 C 0.98586 0.16745 0.23137 0.0
C1228 C 0.00526 0.18047 0.23477 0.0
H1229 H 0.01972 0.12098 0.10446 0.0
H1230 H 0.00338 0.13921 0.1369 0.0
C1231 C 0.00595 0.19722 0.2511 0.0
C1232 C 0.98614 0.14922 0.21437 0.0
H1233 H 0.01886 0.10657 0.1968 0.0
C1234 C 0.97232 0.1505 0.19558 0.0
C1235 C 0.00203 0.13215 0.21534 0.0
C1236 C 0.01602 0.12866 0.23585 0.0
C1237 C 0.97537 0.13636 0.17693 0.0
C1238 C 0.9931 0.12107 0.17692 0.0
C1239 C 0.00554 0.11853 0.19651 0.0
C1240 C 0.00063 0.10924 0.15635 0.0
C1241 C 0.95983 0.13832 0.15732 0.0
C1242 C 0.00514 0.08635 0.15651 0.0
C1243 C 0.0151 0.07594 0.13809 0.0
C1244 C 0.02062 0.08822 0.11909 0.0
C1245 C 0.01552 0.11097 0.11874 0.0
C1246 C 0.00589 0.1214 0.13724 0.0
H1247 H 0.9429 0.14315 0.16293 0.0
H1248 H 0.96621 0.15161 0.14628 0.0
H1249 H 0.95839 0.12246 0.14756 0.0
H1250 H 0.00141 0.07661 0.1711 0.0
H1251 H 0.01871 0.05836 0.13886 0.0
H1252 H 0.98804 0.29753 0.26316 0.0
H1253 H 0.98984 0.32407 0.23304 0.0
H1254 H 0.06164 0.32111 0.23298 0.0
H1255 H 0.06008 0.29432 0.26346 0.0
H1256 H 0.04175 0.36642 0.22994 0.0
H1257 H 0.00786 0.30445 0.1683 0.0
H1258 H 0.99196 0.30668 0.19356 0.0
H1259 H 0.01995 0.29653 0.19448 0.0
C1260 C 0.00429 0.30249 0.25688 0.0
C1261 C 0.02394 0.2936 0.26563 0.0
C1262 C 0.00525 0.31769 0.23962 0.0
C1263 C 0.02583 0.32432 0.23064 0.0
C1264 C 0.04558 0.31609 0.23969 0.0
H1265 H 0.02729 0.38753 0.10164 0.0
H1266 H 0.03804 0.36564 0.13359 0.0
C1267 C 0.04465 0.30077 0.25704 0.0
C1268 C 0.02632 0.33927 0.21129 0.0
H1269 H 0.00816 0.34239 0.15762 0.0
C1270 C 0.03468 0.36116 0.21401 0.0
C1271 C 0.01729 0.33225 0.1905 0.0
C1272 C 0.00892 0.30864 0.18638 0.0
C1273 C 0.03344 0.37652 0.19665 0.0
C1274 C 0.02336 0.36978 0.17621 0.0
C1275 C 0.01578 0.34762 0.17331 0.0
C1276 C 0.01977 0.38536 0.15767 0.0
C1277 C 0.0429 0.39976 0.20034 0.0
C1278 C 0.00632 0.4041 0.16062 0.0
C1279 C 0.00021 0.4168 0.14233 0.0
C1280 C 0.0072 0.41077 0.12072 0.0
C1281 C 0.02148 0.39258 0.11801 0.0
C1282 C 0.02768 0.38003 0.13628 0.0
H1283 H 0.05569 0.40029 0.21377 0.0
H1284 H 0.05053 0.40627 0.18487 0.0
H1285 H 0.02926 0.41099 0.20544 0.0
H1286 H 0.99962 0.40828 0.17687 0.0
H1287 H 0.9891 0.4306 0.14499 0.0
H1288 H 0.9618 0.80116 0.22891 0.0
H1289 H 0.96045 0.83056 0.25804 0.0
H1290 H 0.02966 0.81979 0.27351 0.0
H1291 H 0.03128 0.79109 0.24459 0.0
H1292 H 0.96869 0.82963 0.30348 0.0
H1293 H 0.02926 0.88636 0.26355 0.0
H1294 H 0.016 0.86324 0.24867 0.0
H1295 H 0.04052 0.85902 0.26538 0.0
C1296 C 0.97668 0.80513 0.23855 0.0
C1297 C 0.99672 0.79401 0.23425 0.0
C1298 C 0.9759 0.82192 0.25512 0.0
C1299 C 0.99514 0.82775 0.26749 0.0
C1300 C 0.01482 0.81607 0.26368 0.0
H1301 H 0.02645 0.87364 0.39596 0.0
H1302 H 0.01101 0.855 0.36287 0.0
C1303 C 0.01567 0.79954 0.24718 0.0
C1304 C 0.99505 0.84556 0.2849 0.0
H1305 H 0.02682 0.88965 0.30387 0.0
C1306 C 0.98103 0.8431 0.30341 0.0
C1307 C 0.01065 0.86354 0.28453 0.0
C1308 C 0.02476 0.86834 0.26432 0.0
C1309 C 0.98359 0.857 0.32237 0.0
C1310 C 0.00106 0.87327 0.32299 0.0
C1311 C 0.01371 0.87693 0.3037 0.0
C1312 C 0.00805 0.88514 0.34388 0.0
C1313 C 0.96781 0.85377 0.34164 0.0
C1314 C 0.01215 0.90828 0.34416 0.0
C1315 C 0.02163 0.91893 0.36292 0.0
C1316 C 0.02701 0.90665 0.38183 0.0
C1317 C 0.02231 0.88361 0.38175 0.0
C1318 C 0.01321 0.87294 0.36288 0.0
H1319 H 0.95105 0.8481 0.33564 0.0
H1320 H 0.97426 0.84063 0.35254 0.0
H1321 H 0.96597 0.86936 0.35168 0.0
H1322 H 0.00848 0.91804 0.32966 0.0
H1323 H 0.02494 0.93672 0.36252 0.0
H1324 H 0.06774 0.69508 0.2268 0.0
H1325 H 0.06875 0.66592 0.25503 0.0
H1326 H -0.00014 0.67801 0.27106 0.0
H1327 H 0.99853 0.70637 0.24283 0.0
H1328 H 0.06219 0.66699 0.2995 0.0
H1329 H 0.99785 0.61173 0.26118 0.0
H1330 H 0.01066 0.63451 0.24636 0.0
H1331 H 0.98728 0.63929 0.26459 0.0
C1332 C 0.05282 0.6914 0.23631 0.0
C1333 C 0.03298 0.70284 0.23236 0.0
C1334 C 0.05341 0.67474 0.25239 0.0
C1335 C 0.03418 0.66932 0.26472 0.0
C1336 C 0.01467 0.68129 0.26123 0.0
H1337 H 0.01047 0.62335 0.39396 0.0
H1338 H 0.02344 0.64206 0.36072 0.0
C1339 C 0.014 0.69766 0.24514 0.0
C1340 C 0.03429 0.65182 0.28188 0.0
H1341 H 0.00255 0.60854 0.30117 0.0
C1342 C 0.04945 0.6539 0.29967 0.0
C1343 C 0.01813 0.63428 0.28186 0.0
C1344 C 0.00276 0.62967 0.26231 0.0
C1345 C 0.04774 0.64002 0.31822 0.0
C1346 C 0.02996 0.62414 0.31928 0.0
C1347 C 0.01593 0.62095 0.30069 0.0
C1348 C 0.02428 0.61211 0.34004 0.0
C1349 C 0.06488 0.64277 0.33653 0.0
C1350 C 0.01982 0.58901 0.33954 0.0
C1351 C 0.01179 0.57828 0.35852 0.0
C1352 C 0.0082 0.59042 0.37842 0.0
C1353 C 0.01326 0.61341 0.37902 0.0
C1354 C 0.02094 0.62415 0.36 0.0
H1355 H 0.0813 0.64817 0.32971 0.0
H1356 H 0.05948 0.65594 0.34847 0.0
H1357 H 0.06708 0.62706 0.34568 0.0
H1358 H 0.02209 0.57935 0.32432 0.0
H1359 H 0.00807 0.56055 0.3575 0.0
H1360 H 0.28718 0.98823 0.19301 0.0
H1361 H 0.25605 0.99367 0.16766 0.0
H1362 H 0.2477 0.0601 0.19468 0.0
H1363 H 0.27938 0.05497 0.21982 0.0
H1364 H 0.21359 0.00068 0.17841 0.0
H1365 H 0.24549 0.07127 0.12856 0.0
H1366 H 0.26325 0.05558 0.14651 0.0
H1367 H 0.2458 0.07695 0.15801 0.0
C1368 C 0.2789 0.00411 0.19344 0.0
C1369 C 0.28577 0.02118 0.20846 0.0
C1370 C 0.26108 0.00719 0.17891 0.0
C1371 C 0.24964 0.02736 0.17907 0.0
C1372 C 0.25657 0.04456 0.19388 0.0
H1373 H 0.11465 0.04092 0.12925 0.0
H1374 H 0.14816 0.03767 0.15195 0.0
C1375 C 0.2746 0.04157 0.20834 0.0
C1376 C 0.2297 0.02969 0.16461 0.0
H1377 H 0.20706 0.0613 0.12395 0.0
C1378 C 0.21222 0.0139 0.16644 0.0
C1379 C 0.22802 0.04676 0.14879 0.0
C1380 C 0.24672 0.06348 0.14514 0.0
C1381 C 0.19304 0.0148 0.15309 0.0
C1382 C 0.19098 0.03234 0.13785 0.0
C1383 C 0.20857 0.04799 0.13579 0.0
C1384 C 0.17068 0.03471 0.12395 0.0
C1385 C 0.17538 0.99667 0.15515 0.0
C1386 C 0.17223 0.03478 0.10062 0.0
C1387 C 0.15307 0.03688 0.08753 0.0
C1388 C 0.13197 0.03896 0.09754 0.0
C1389 C 0.13055 0.03908 0.12093 0.0
C1390 C 0.14971 0.03713 0.13398 0.0
H1391 H 0.18228 0.98136 0.1624 0.0
H1392 H 0.16197 0.00261 0.16637 0.0
H1393 H 0.16784 0.99226 0.13871 0.0
H1394 H 0.18827 0.03303 0.09253 0.0
H1395 H 0.1548 0.03681 0.06957 0.0
H1396 H 0.74208 0.52074 0.18612 0.0
H1397 H 0.77309 0.51516 0.16042 0.0
H1398 H 0.77999 0.44802 0.18355 0.0
H1399 H 0.74843 0.45325 0.2088 0.0
H1400 H 0.81497 0.50762 0.17029 0.0
H1401 H 0.78295 0.43741 0.11755 0.0
H1402 H 0.76523 0.45288 0.13626 0.0
H1403 H 0.78235 0.43101 0.14659 0.0
C1404 C 0.75 0.50467 0.18553 0.0
C1405 C 0.74278 0.48741 0.19948 0.0
C1406 C 0.76774 0.50151 0.17083 0.0
C1407 C 0.77874 0.48109 0.16982 0.0
C1408 C 0.77142 0.46373 0.18358 0.0
H1409 H 0.91478 0.46339 0.12597 0.0
H1410 H 0.88044 0.46951 0.14678 0.0
C1411 C 0.75346 0.46679 0.19811 0.0
C1412 C 0.79877 0.47856 0.1555 0.0
H1413 H 0.82218 0.44542 0.11539 0.0
C1414 C 0.81644 0.49411 0.15815 0.0
C1415 C 0.80061 0.46115 0.1394 0.0
C1416 C 0.78167 0.44481 0.13459 0.0
C1417 C 0.83606 0.49249 0.14555 0.0
C1418 C 0.83838 0.47439 0.13033 0.0
C1419 C 0.82051 0.45913 0.12726 0.0
C1420 C 0.85929 0.47085 0.1176 0.0
C1421 C 0.85392 0.5104 0.14847 0.0
C1422 C 0.85878 0.46891 0.09426 0.0
C1423 C 0.87838 0.46505 0.08229 0.0
C1424 C 0.8989 0.46311 0.09344 0.0
C1425 C 0.89933 0.46507 0.11682 0.0
C1426 C 0.8797 0.46869 0.12877 0.0
H1427 H 0.84685 0.52623 0.15492 0.0
H1428 H 0.86642 0.50489 0.16075 0.0
H1429 H 0.86261 0.51376 0.13253 0.0
H1430 H 0.8432 0.47041 0.08529 0.0
H1431 H 0.87744 0.46359 0.06431 0.0
H1432 H 0.27863 0.00539 0.29843 0.0
H1433 H 0.24967 0.99748 0.3256 0.0
H1434 H 0.2624 0.92715 0.31932 0.0
H1435 H 0.29134 0.93491 0.29147 0.0
H1436 H 0.21831 0.93558 0.31803 0.0
H1437 H 0.25611 0.98095 0.38997 0.0
H1438 H 0.2544 0.9986 0.36631 0.0
H1439 H 0.27171 0.9744 0.36507 0.0
C1440 C 0.27545 0.98821 0.30287 0.0
C1441 C 0.28739 0.97076 0.29285 0.0
C1442 C 0.25898 0.98375 0.31859 0.0
C1443 C 0.25427 0.9618 0.32491 0.0
C1444 C 0.26598 0.94425 0.31484 0.0
H1445 H 0.15902 0.94292 0.43412 0.0
H1446 H 0.19314 0.94219 0.4118 0.0
C1447 C 0.28246 0.9487 0.29893 0.0
C1448 C 0.23617 0.95736 0.34108 0.0
H1449 H 0.21617 0.97461 0.39157 0.0
C1450 C 0.21799 0.94381 0.33427 0.0
C1451 C 0.23596 0.96773 0.36245 0.0
C1452 C 0.25572 0.98102 0.37147 0.0
C1453 C 0.19902 0.9414 0.34773 0.0
C1454 C 0.19803 0.95335 0.36825 0.0
C1455 C 0.21675 0.96582 0.37564 0.0
C1456 C 0.17744 0.95387 0.38184 0.0
C1457 C 0.18019 0.9262 0.33973 0.0
C1458 C 0.15745 0.96124 0.37256 0.0
C1459 C 0.13794 0.96156 0.38519 0.0
C1460 C 0.1381 0.95486 0.40749 0.0
C1461 C 0.15833 0.94821 0.41699 0.0
C1462 C 0.17782 0.9477 0.40425 0.0
H1463 H 0.18633 0.91301 0.32818 0.0
H1464 H 0.17153 0.91811 0.35387 0.0
H1465 H 0.16788 0.93608 0.33051 0.0
H1466 H 0.15693 0.96677 0.35551 0.0
H1467 H 0.1227 0.967 0.37743 0.0
H1468 H 0.74417 0.56794 0.29059 0.0
H1469 H 0.7755 0.57237 0.31674 0.0
H1470 H 0.78497 0.50129 0.31453 0.0
H1471 H 0.7536 0.49665 0.28901 0.0
H1472 H 0.78632 0.51839 0.35684 0.0
H1473 H 0.84132 0.56753 0.30079 0.0
H1474 H 0.81447 0.57931 0.30606 0.0
H1475 H 0.81629 0.55322 0.29104 0.0
C1476 C 0.75295 0.55329 0.29571 0.0
C1477 C 0.74646 0.53196 0.28769 0.0
C1478 C 0.77089 0.55585 0.31053 0.0
C1479 C 0.7827 0.53717 0.31729 0.0
C1480 C 0.77607 0.51591 0.30949 0.0
H1481 H 0.91456 0.52838 0.37265 0.0
H1482 H 0.88076 0.52655 0.34981 0.0
C1483 C 0.75813 0.51331 0.29487 0.0
C1484 C 0.80201 0.53944 0.33254 0.0
H1485 H 0.85491 0.56111 0.33698 0.0
C1486 C 0.80131 0.52779 0.35257 0.0
C1487 C 0.82158 0.5515 0.32671 0.0
C1488 C 0.82365 0.56345 0.3049 0.0
C1489 C 0.81979 0.52764 0.36688 0.0
C1490 C 0.83926 0.53993 0.3612 0.0
C1491 C 0.83989 0.55178 0.34128 0.0
C1492 C 0.85941 0.54032 0.37542 0.0
C1493 C 0.81852 0.51374 0.38755 0.0
C1494 C 0.85853 0.54863 0.39737 0.0
C1495 C 0.87773 0.54947 0.41054 0.0
C1496 C 0.89824 0.54234 0.40185 0.0
C1497 C 0.89904 0.53399 0.37984 0.0
C1498 C 0.87977 0.53298 0.36675 0.0
H1499 H 0.80501 0.50082 0.38633 0.0
H1500 H 0.83457 0.50537 0.39062 0.0
H1501 H 0.81494 0.5247 0.40214 0.0
H1502 H 0.84307 0.55482 0.4042 0.0
H1503 H 0.87658 0.55622 0.42735 0.0
H1504 H 0.21969 0.28008 0.06513 0.0
H1505 H 0.1913 0.2506 0.07044 0.0
H1506 H 0.18751 0.23965 0.99932 0.0
H1507 H 0.21521 0.26915 0.99384 0.0
H1508 H 0.1463 0.23994 0.01855 0.0
H1509 H 0.20315 0.18422 0.06381 0.0
H1510 H 0.19983 0.21147 0.07612 0.0
H1511 H 0.21318 0.20857 0.04948 0.0
C1512 C 0.21272 0.27143 0.05065 0.0
C1513 C 0.21983 0.27689 0.02908 0.0
C1514 C 0.19659 0.25453 0.05371 0.0
C1515 C 0.18753 0.24272 0.03528 0.0
C1516 C 0.19428 0.24852 0.01379 0.0
H1517 H 0.13039 0.11175 0.02135 0.0
H1518 H 0.15264 0.14625 0.02126 0.0
C1519 C 0.21021 0.26539 0.01071 0.0
C1520 C 0.17137 0.22393 0.03798 0.0
H1521 H 0.16647 0.17099 0.05739 0.0
C1522 C 0.1506 0.22491 0.0272 0.0
C1523 C 0.17716 0.20428 0.04906 0.0
C1524 C 0.19959 0.20187 0.06014 0.0
C1525 C 0.13569 0.20656 0.02671 0.0
C1526 C 0.14153 0.18688 0.03771 0.0
C1527 C 0.16204 0.18612 0.04899 0.0
C1528 C 0.12724 0.16641 0.03677 0.0
C1529 C 0.11428 0.20811 0.01361 0.0
C1530 C 0.10544 0.16634 0.0453 0.0
C1531 C 0.09254 0.14665 0.04514 0.0
C1532 C 0.10134 0.12661 0.03675 0.0
C1533 C 0.12308 0.12686 0.02795 0.0
C1534 C 0.13587 0.14655 0.02796 0.0
H1535 H 0.11487 0.22213 0.00179 0.0
H1536 H 0.1107 0.1924 0.00407 0.0
H1537 H 0.10024 0.21096 0.02528 0.0
H1538 H 0.0986 0.18137 0.05257 0.0
H1539 H 0.07595 0.147 0.05226 0.0
H1540 H 0.21856 0.72068 0.44593 0.0
H1541 H 0.1916 0.75054 0.44148 0.0
H1542 H 0.18762 0.75876 0.51284 0.0
H1543 H 0.21404 0.72886 0.51745 0.0
H1544 H 0.1464 0.75934 0.49315 0.0
H1545 H 0.20556 0.8168 0.45058 0.0
H1546 H 0.20179 0.78997 0.43718 0.0
H1547 H 0.21457 0.79203 0.46426 0.0
C1548 C 0.2119 0.72881 0.46066 0.0
C1549 C 0.2186 0.72242 0.48204 0.0
C1550 C 0.19657 0.74596 0.45809 0.0
C1551 C 0.18782 0.75713 0.47683 0.0
C1552 C 0.19416 0.75044 0.49814 0.0
H1553 H 0.13092 0.88745 0.48759 0.0
H1554 H 0.15299 0.85385 0.48987 0.0
C1555 C 0.20936 0.73334 0.50072 0.0
C1556 C 0.17227 0.77599 0.47454 0.0
H1557 H 0.16863 0.82893 0.45511 0.0
C1558 C 0.1512 0.77453 0.48474 0.0
C1559 C 0.17866 0.79592 0.46382 0.0
C1560 C 0.20143 0.79896 0.45349 0.0
C1561 C 0.13645 0.79248 0.48467 0.0
C1562 C 0.14277 0.81232 0.47377 0.0
C1563 C 0.16374 0.81369 0.46339 0.0
C1564 C 0.12836 0.83225 0.47363 0.0
C1565 C 0.11458 0.79029 0.49692 0.0
C1566 C 0.10698 0.8313 0.464 0.0
C1567 C 0.09416 0.85054 0.46282 0.0
C1568 C 0.1026 0.87117 0.47104 0.0
C1569 C 0.12385 0.8719 0.48108 0.0
C1570 C 0.13656 0.85269 0.48234 0.0
H1571 H 0.11474 0.77648 0.50899 0.0
H1572 H 0.11066 0.80599 0.50604 0.0
H1573 H 0.10099 0.78667 0.48474 0.0
H1574 H 0.10044 0.81583 0.45679 0.0
H1575 H 0.07798 0.84937 0.45478 0.0
H1576 H 0.82213 0.76764 0.51401 0.0
H1577 H 0.85185 0.7416 0.50638 0.0
H1578 H 0.84509 0.75248 0.43593 0.0
H1579 H 0.81476 0.77846 0.4434 0.0
H1580 H 0.84609 0.70889 0.44511 0.0
H1581 H 0.91613 0.75173 0.48906 0.0
H1582 H 0.89245 0.74871 0.50702 0.0
H1583 H 0.8905 0.76558 0.48262 0.0
C1584 C 0.82702 0.7647 0.49686 0.0
C1585 C 0.81605 0.77517 0.4793 0.0
C1586 C 0.84423 0.74995 0.49256 0.0
C1587 C 0.85108 0.74549 0.47064 0.0
C1588 C 0.84022 0.7559 0.453 0.0
H1589 H 0.96162 0.65232 0.44874 0.0
H1590 H 0.94016 0.68679 0.44902 0.0
C1591 C 0.82288 0.77068 0.45729 0.0
C1592 C 0.86825 0.7285 0.46629 0.0
H1593 H 0.91955 0.71177 0.48345 0.0
C1594 C 0.86232 0.70973 0.45315 0.0
C1595 C 0.8896 0.72973 0.47645 0.0
C1596 C 0.89763 0.75016 0.48936 0.0
C1597 C 0.87654 0.69155 0.4511 0.0
C1598 C 0.89702 0.69197 0.46288 0.0
C1599 C 0.90365 0.71132 0.47479 0.0
C1600 C 0.91088 0.67189 0.46419 0.0
C1601 C 0.86928 0.67183 0.43669 0.0
C1602 C 0.90185 0.65247 0.47348 0.0
C1603 C 0.91395 0.63289 0.47334 0.0
C1604 C 0.9355 0.63236 0.4641 0.0
C1605 C 0.94507 0.65219 0.45596 0.0
C1606 C 0.93282 0.67185 0.45602 0.0
H1607 H 0.85722 0.67674 0.42369 0.0
H1608 H 0.88379 0.66396 0.42843 0.0
H1609 H 0.86089 0.65921 0.44723 0.0
H1610 H 0.88518 0.65233 0.48044 0.0
H1611 H 0.90618 0.61801 0.48003 0.0
H1612 H 0.32561 0.71462 0.49141 0.0
H1613 H 0.3537 0.74451 0.49309 0.0
H1614 H 0.32693 0.76741 0.55598 0.0
H1615 H 0.2991 0.73687 0.55474 0.0
H1616 H 0.34549 0.78753 0.49232 0.0
H1617 H 0.39295 0.76943 0.56891 0.0
H1618 H 0.37389 0.7494 0.556 0.0
H1619 H 0.36352 0.77134 0.57378 0.0
C1620 C 0.32587 0.72586 0.50575 0.0
C1621 C 0.31014 0.72356 0.52292 0.0
C1622 C 0.34195 0.74289 0.5067 0.0
C1623 C 0.34251 0.75807 0.52472 0.0
C1624 C 0.3271 0.75556 0.54216 0.0
H1625 H 0.39264 0.8926 0.5239 0.0
H1626 H 0.37091 0.85803 0.52014 0.0
C1627 C 0.31115 0.73823 0.54139 0.0
C1628 C 0.35807 0.77747 0.52418 0.0
H1629 H 0.39859 0.80568 0.55373 0.0
C1630 C 0.35726 0.79138 0.50566 0.0
C1631 C 0.37362 0.78226 0.54142 0.0
C1632 C 0.37625 0.76719 0.56104 0.0
C1633 C 0.37121 0.81026 0.50415 0.0
C1634 C 0.3859 0.81571 0.52193 0.0
C1635 C 0.38716 0.80152 0.54019 0.0
C1636 C 0.3994 0.83656 0.52242 0.0
C1637 C 0.37015 0.82407 0.48344 0.0
C1638 C 0.42263 0.83595 0.52512 0.0
C1639 C 0.43513 0.85573 0.52753 0.0
C1640 C 0.42455 0.87644 0.52734 0.0
C1641 C 0.40135 0.87696 0.52395 0.0
C1642 C 0.38888 0.8572 0.5217 0.0
H1643 H 0.36389 0.81402 0.46892 0.0
H1644 H 0.35845 0.83794 0.48628 0.0
H1645 H 0.38678 0.8313 0.47923 0.0
H1646 H 0.43102 0.82015 0.52576 0.0
H1647 H 0.45297 0.85475 0.53012 0.0
H1648 H 0.5618 0.71203 0.76214 0.0
H1649 H 0.56486 0.68536 0.73084 0.0
H1650 H 0.49983 0.65784 0.74645 0.0
H1651 H 0.49637 0.68474 0.77715 0.0
H1652 H 0.56343 0.63978 0.72724 0.0
H1653 H 0.49192 0.67528 0.68232 0.0
H1654 H 0.50455 0.6889 0.70636 0.0
H1655 H 0.48478 0.66626 0.70975 0.0
C1656 C 0.54824 0.70019 0.75894 0.0
C1657 C 0.52871 0.70069 0.77184 0.0
C1658 C 0.55 0.68499 0.74109 0.0
C1659 C 0.53232 0.67001 0.73601 0.0
C1660 C 0.51337 0.6697 0.74966 0.0
H1661 H 0.54047 0.55744 0.64156 0.0
H1662 H 0.53683 0.58036 0.6755 0.0
C1663 C 0.51148 0.68502 0.76726 0.0
C1664 C 0.53334 0.65512 0.7161 0.0
H1665 H 0.50609 0.64143 0.66766 0.0
C1666 C 0.55095 0.64014 0.71417 0.0
C1667 C 0.51717 0.65587 0.69893 0.0
C1668 C 0.49867 0.67259 0.69928 0.0
C1669 C 0.55274 0.62574 0.69557 0.0
C1670 C 0.53615 0.62599 0.67877 0.0
C1671 C 0.51862 0.64106 0.68069 0.0
C1672 C 0.5373 0.61178 0.65837 0.0
C1673 C 0.5727 0.61087 0.69381 0.0
C1674 C 0.53775 0.62176 0.63745 0.0
C1675 C 0.5394 0.60875 0.61806 0.0
C1676 C 0.54073 0.58542 0.61917 0.0
C1677 C 0.53964 0.57537 0.64013 0.0
C1678 C 0.53777 0.58845 0.65956 0.0
H1679 H 0.58655 0.61682 0.70488 0.0
H1680 H 0.56778 0.59379 0.69888 0.0
H1681 H 0.579 0.60996 0.67644 0.0
H1682 H 0.53727 0.63973 0.63613 0.0
H1683 H 0.54021 0.61708 0.60224 0.0
H1684 H 0.449 0.78971 0.77345 0.0
H1685 H 0.44475 0.817 0.74382 0.0
H1686 H 0.51609 0.81888 0.73434 0.0
H1687 H 0.52052 0.79224 0.76389 0.0
H1688 H 0.49851 0.86055 0.73585 0.0
H1689 H 0.451 0.80476 0.677 0.0
H1690 H 0.43886 0.8083 0.70415 0.0
H1691 H 0.46502 0.79445 0.70121 0.0
C1692 C 0.46374 0.79594 0.765 0.0
C1693 C 0.48507 0.78874 0.77102 0.0
C1694 C 0.46129 0.81145 0.74803 0.0
C1695 C 0.48011 0.8198 0.73672 0.0
C1696 C 0.50135 0.81269 0.74284 0.0
H1697 H 0.49559 0.87787 0.60841 0.0
H1698 H 0.49525 0.85514 0.6417 0.0
C1699 C 0.50381 0.79738 0.75976 0.0
C1700 C 0.47811 0.83592 0.71845 0.0
H1701 H 0.45877 0.84135 0.66537 0.0
C1702 C 0.48968 0.85645 0.72048 0.0
C1703 C 0.46679 0.8304 0.69835 0.0
C1704 C 0.45485 0.80823 0.69485 0.0
C1705 C 0.49067 0.87141 0.7028 0.0
C1706 C 0.47937 0.86587 0.68269 0.0
C1707 C 0.46739 0.84556 0.68083 0.0
C1708 C 0.48057 0.88038 0.66298 0.0
C1709 C 0.50455 0.89255 0.70551 0.0
C1710 C 0.47266 0.90223 0.66394 0.0
C1711 C 0.47306 0.9154 0.64496 0.0
C1712 C 0.48109 0.90682 0.62458 0.0
C1713 C 0.4893 0.88502 0.6238 0.0
C1714 C 0.48903 0.87196 0.6428 0.0
H1715 H 0.5165 0.89162 0.71962 0.0
H1716 H 0.51408 0.89612 0.6901 0.0
H1717 H 0.49338 0.90672 0.70894 0.0
H1718 H 0.46567 0.90894 0.67922 0.0
H1719 H 0.46639 0.93202 0.6461 0.0
H1720 H 0.5794 0.28486 0.73491 0.0
H1721 H 0.58146 0.31132 0.76657 0.0
H1722 H 0.51599 0.33487 0.75026 0.0
H1723 H 0.51355 0.30819 0.71916 0.0
H1724 H 0.5785 0.35697 0.77102 0.0
H1725 H 0.50792 0.31496 0.81389 0.0
H1726 H 0.52145 0.30282 0.78988 0.0
H1727 H 0.5008 0.32387 0.78649 0.0
C1728 C 0.56556 0.29584 0.738 0.0
C1729 C 0.54618 0.29424 0.72483 0.0
C1730 C 0.56674 0.3109 0.75606 0.0
C1731 C 0.54863 0.32462 0.76106 0.0
C1732 C 0.52987 0.32397 0.74708 0.0
H1733 H 0.54932 0.43701 0.85532 0.0
H1734 H 0.54803 0.41344 0.82163 0.0
C1735 C 0.52856 0.30878 0.72926 0.0
C1736 C 0.54889 0.33908 0.78129 0.0
H1737 H 0.52024 0.34985 0.82924 0.0
C1738 C 0.56583 0.3554 0.78381 0.0
C1739 C 0.53253 0.33671 0.79811 0.0
C1740 C 0.51478 0.3185 0.79712 0.0
C1741 C 0.56666 0.3697 0.80259 0.0
C1742 C 0.54975 0.36792 0.81895 0.0
C1743 C 0.533 0.35139 0.81653 0.0
C1744 C 0.54959 0.38235 0.83922 0.0
C1745 C 0.5859 0.38618 0.80496 0.0
C1746 C 0.54984 0.37267 0.86029 0.0
C1747 C 0.55014 0.38603 0.87955 0.0
C1748 C 0.55029 0.4094 0.87812 0.0
C1749 C 0.54939 0.41907 0.85699 0.0
C1750 C 0.54887 0.40564 0.83771 0.0
H1751 H 0.60031 0.3813 0.79444 0.0
H1752 H 0.58045 0.40279 0.79956 0.0
H1753 H 0.59158 0.38773 0.82254 0.0
H1754 H 0.55023 0.35472 0.86183 0.0
H1755 H 0.55086 0.37801 0.89553 0.0
H1756 H 0.47076 0.21251 0.73466 0.0
H1757 H 0.46718 0.18748 0.76631 0.0
H1758 H 0.53363 0.16381 0.754 0.0
H1759 H 0.5376 0.18925 0.72299 0.0
H1760 H 0.46886 0.1431 0.77056 0.0
H1761 H 0.53861 0.18289 0.81824 0.0
H1762 H 0.52724 0.195 0.79355 0.0
H1763 H 0.5471 0.17295 0.79127 0.0
C1764 C 0.48456 0.20192 0.73869 0.0
C1765 C 0.50457 0.20306 0.72654 0.0
C1766 C 0.48251 0.18763 0.75677 0.0
C1767 C 0.50036 0.17417 0.76288 0.0
C1768 C 0.51991 0.17455 0.75007 0.0
H1769 H 0.48708 0.06405 0.85597 0.0
H1770 H 0.49236 0.08624 0.82252 0.0
C1771 C 0.5221 0.18901 0.73225 0.0
C1772 C 0.49864 0.1599 0.78276 0.0
H1773 H 0.52413 0.14873 0.83208 0.0
C1774 C 0.48089 0.14436 0.78406 0.0
C1775 C 0.51417 0.1618 0.80052 0.0
C1776 C 0.53271 0.17922 0.80099 0.0
C1777 C 0.47833 0.13055 0.80254 0.0
C1778 C 0.49436 0.13186 0.81991 0.0
C1779 C 0.51202 0.1475 0.81864 0.0
C1780 C 0.49251 0.11808 0.84013 0.0
C1781 C 0.45811 0.11521 0.80355 0.0
C1782 C 0.49198 0.12849 0.86124 0.0
C1783 C 0.48948 0.11585 0.88039 0.0
C1784 C 0.48729 0.09249 0.87884 0.0
C1785 C 0.48851 0.08202 0.85773 0.0
C1786 C 0.49131 0.0947 0.83857 0.0
H1787 H 0.44458 0.12067 0.79235 0.0
H1788 H 0.46286 0.09818 0.79812 0.0
H1789 H 0.45143 0.11437 0.82076 0.0
H1790 H 0.49301 0.14649 0.8629 0.0
H1791 H 0.48857 0.1245 0.89635 0.0
H1792 H 0.77817 0.45202 0.69823 0.0
H1793 H 0.74842 0.45181 0.66997 0.0
H1794 H 0.73758 0.52156 0.68371 0.0
H1795 H 0.76735 0.52205 0.71127 0.0
H1796 H 0.70421 0.46088 0.67218 0.0
H1797 H 0.74572 0.52152 0.61722 0.0
H1798 H 0.76023 0.50843 0.63968 0.0
H1799 H 0.7436 0.53266 0.64502 0.0
C1800 C 0.76943 0.46728 0.69517 0.0
C1801 C 0.77533 0.48711 0.7068 0.0
C1802 C 0.75247 0.46715 0.67902 0.0
C1803 C 0.74117 0.48683 0.67429 0.0
C1804 C 0.74654 0.50636 0.6865 0.0
H1805 H 0.61219 0.51188 0.62215 0.0
H1806 H 0.64448 0.5007 0.6436 0.0
C1807 C 0.76351 0.50656 0.7024 0.0
C1808 C 0.72343 0.4872 0.65699 0.0
H1809 H 0.70582 0.51734 0.61292 0.0
C1810 C 0.7047 0.47297 0.65898 0.0
C1811 C 0.72426 0.50256 0.63939 0.0
C1812 C 0.74467 0.51696 0.63504 0.0
C1813 C 0.68621 0.47465 0.6447 0.0
C1814 C 0.68623 0.49144 0.62842 0.0
C1815 C 0.70554 0.50471 0.6256 0.0
C1816 C 0.6661 0.4965 0.61501 0.0
C1817 C 0.66687 0.45845 0.64732 0.0
C1818 C 0.66752 0.49848 0.59177 0.0
C1819 C 0.64914 0.50539 0.57945 0.0
C1820 C 0.62891 0.51037 0.59012 0.0
C1821 C 0.62742 0.50796 0.61333 0.0
C1822 C 0.64586 0.50135 0.62564 0.0
H1823 H 0.67255 0.44235 0.65394 0.0
H1824 H 0.65481 0.46548 0.65944 0.0
H1825 H 0.65811 0.45514 0.63126 0.0
H1826 H 0.68298 0.49499 0.58317 0.0
H1827 H 0.65085 0.50704 0.5616 0.0
H1828 H 0.23846 0.95179 0.7037 0.0
H1829 H 0.26997 0.94718 0.67807 0.0
H1830 H 0.27842 0.0186 0.67513 0.0
H1831 H 0.24688 0.02336 0.70013 0.0
H1832 H 0.28152 0.99914 0.63426 0.0
H1833 H 0.33535 0.95606 0.69452 0.0
H1834 H 0.30877 0.94254 0.68946 0.0
H1835 H 0.30999 0.96964 0.70276 0.0
C1836 C 0.247 0.96649 0.69753 0.0
C1837 C 0.24019 0.98793 0.70408 0.0
C1838 C 0.26509 0.96383 0.68299 0.0
C1839 C 0.2768 0.98256 0.67496 0.0
C1840 C 0.26971 0.00391 0.68114 0.0
H1841 H 0.41051 0.98829 0.62075 0.0
H1842 H 0.37654 0.99268 0.64274 0.0
C1843 C 0.25164 0.00658 0.69551 0.0
C1844 C 0.29654 0.98019 0.66022 0.0
H1845 H 0.34931 0.95983 0.65796 0.0
C1846 C 0.29634 0.9905 0.63941 0.0
C1847 C 0.31599 0.96924 0.66711 0.0
C1848 C 0.31772 0.95891 0.68975 0.0
C1849 C 0.31503 0.99017 0.62532 0.0
C1850 C 0.3343 0.97879 0.63201 0.0
C1851 C 0.33449 0.96846 0.65281 0.0
C1852 C 0.35458 0.97753 0.61786 0.0
C1853 C 0.31416 0.00256 0.60372 0.0
C1854 C 0.35354 0.96777 0.59645 0.0
C1855 C 0.37291 0.96544 0.58372 0.0
C1856 C 0.39381 0.97255 0.59228 0.0
C1857 C 0.39473 0.98267 0.6136 0.0
C1858 C 0.37532 0.98511 0.62625 0.0
H1859 H 0.30109 0.01545 0.60407 0.0
H1860 H 0.33047 0.01076 0.60003 0.0
H1861 H 0.31008 0.9906 0.58992 0.0
H1862 H 0.33783 0.96136 0.5898 0.0
H1863 H 0.37157 0.95738 0.56747 0.0
H1864 H 0.77413 0.55796 0.79076 0.0
H1865 H 0.74237 0.55916 0.81673 0.0
H1866 H 0.75596 0.49214 0.83668 0.0
H1867 H 0.78727 0.49072 0.81097 0.0
H1868 H 0.71132 0.50129 0.81759 0.0
H1869 H 0.73751 0.55742 0.88834 0.0
H1870 H 0.74352 0.56546 0.86013 0.0
H1871 H 0.75766 0.5424 0.87182 0.0
C1872 C 0.77059 0.54371 0.80107 0.0
C1873 C 0.78296 0.52415 0.79866 0.0
C1874 C 0.75252 0.54444 0.81587 0.0
C1875 C 0.74691 0.52571 0.82852 0.0
C1876 C 0.76006 0.50672 0.82701 0.0
H1877 H 0.65919 0.48143 0.9298 0.0
H1878 H 0.69016 0.49603 0.90757 0.0
C1879 C 0.77789 0.50593 0.81225 0.0
C1880 C 0.726 0.52445 0.84142 0.0
H1881 H 0.70253 0.53895 0.89123 0.0
C1882 C 0.70918 0.50977 0.83355 0.0
C1883 C 0.72353 0.53543 0.86223 0.0
C1884 C 0.74146 0.55106 0.87133 0.0
C1885 C 0.69022 0.50505 0.84633 0.0
C1886 C 0.68784 0.51572 0.86739 0.0
C1887 C 0.70439 0.53094 0.87502 0.0
C1888 C 0.66906 0.50982 0.88224 0.0
C1889 C 0.67349 0.48783 0.83766 0.0
C1890 C 0.64697 0.5133 0.87566 0.0
C1891 C 0.62925 0.50474 0.88814 0.0
C1892 C 0.63333 0.49277 0.90761 0.0
C1893 C 0.65548 0.49044 0.91483 0.0
C1894 C 0.6732 0.49886 0.90221 0.0
H1895 H 0.6802 0.47786 0.82349 0.0
H1896 H 0.66838 0.47626 0.85102 0.0
H1897 H 0.65837 0.49633 0.83175 0.0
H1898 H 0.64345 0.52204 0.86047 0.0
H1899 H 0.61238 0.50714 0.88229 0.0
H1900 H 0.23809 0.06804 0.79482 0.0
H1901 H 0.26845 0.07193 0.8223 0.0
H1902 H 0.27863 0.00101 0.81821 0.0
H1903 H 0.24842 0.99691 0.79144 0.0
H1904 H 0.27722 0.01693 0.86128 0.0
H1905 H 0.33537 0.06743 0.80942 0.0
H1906 H 0.30812 0.07866 0.8139 0.0
H1907 H 0.311 0.0533 0.7979 0.0
C1908 C 0.24687 0.05334 0.7998 0.0
C1909 C 0.24084 0.0322 0.79097 0.0
C1910 C 0.26422 0.05558 0.8154 0.0
C1911 C 0.27585 0.03675 0.82212 0.0
C1912 C 0.26981 0.01573 0.8133 0.0
H1913 H 0.40553 0.01936 0.87758 0.0
H1914 H 0.37145 0.02009 0.85523 0.0
C1915 C 0.25252 0.01346 0.79794 0.0
C1916 C 0.2944 0.03842 0.83835 0.0
H1917 H 0.34809 0.05735 0.84483 0.0
C1918 C 0.29268 0.02593 0.85783 0.0
C1919 C 0.31455 0.04998 0.83359 0.0
C1920 C 0.31757 0.06299 0.81251 0.0
C1921 C 0.31081 0.02411 0.87239 0.0
C1922 C 0.33102 0.03556 0.86756 0.0
C1923 C 0.33254 0.04857 0.84842 0.0
C1924 C 0.35107 0.03371 0.88171 0.0
C1925 C 0.30846 0.00922 0.89226 0.0
C1926 C 0.35076 0.04078 0.90409 0.0
C1927 C 0.37012 0.04012 0.91699 0.0
C1928 C 0.39023 0.03269 0.90762 0.0
C1929 C 0.39033 0.02515 0.88531 0.0
C1930 C 0.37092 0.02566 0.87249 0.0
H1931 H 0.2941 0.99732 0.89038 0.0
H1932 H 0.32384 0.99958 0.89485 0.0
H1933 H 0.3056 0.01964 0.90741 0.0
H1934 H 0.33573 0.04743 0.91141 0.0
H1935 H 0.36949 0.04626 0.93405 0.0
H1936 H 0.72629 0.75627 0.48963 0.0
H1937 H 0.70028 0.72487 0.49317 0.0
H1938 H 0.6988 0.73535 0.56441 0.0
H1939 H 0.72545 0.76671 0.56107 0.0
H1940 H 0.70234 0.69148 0.55298 0.0
H1941 H 0.63406 0.72807 0.50453 0.0
H1942 H 0.65967 0.72745 0.48915 0.0
H1943 H 0.65795 0.7443 0.51421 0.0
C1944 C 0.72042 0.75201 0.5061 0.0
C1945 C 0.72783 0.76414 0.52508 0.0
C1946 C 0.70541 0.7341 0.50806 0.0
C1947 C 0.69716 0.72809 0.52898 0.0
C1948 C 0.7048 0.73986 0.54806 0.0
H1949 H 0.58413 0.6356 0.54313 0.0
H1950 H 0.60864 0.66859 0.54283 0.0
C1951 C 0.72002 0.75775 0.54613 0.0
C1952 C 0.681 0.70915 0.5308 0.0
H1953 H 0.63127 0.68876 0.51044 0.0
C1954 C 0.6867 0.69096 0.54385 0.0
C1955 C 0.66041 0.70863 0.51919 0.0
C1956 C 0.65253 0.72827 0.50618 0.0
C1957 C 0.67272 0.67195 0.545 0.0
C1958 C 0.65278 0.67089 0.5323 0.0
C1959 C 0.64673 0.6894 0.51986 0.0
C1960 C 0.63784 0.65084 0.53183 0.0
C1961 C 0.67936 0.65333 0.56004 0.0
C1962 C 0.64592 0.62996 0.52515 0.0
C1963 C 0.63198 0.611 0.52543 0.0
C1964 C 0.60956 0.61262 0.53207 0.0
C1965 C 0.60129 0.63372 0.53789 0.0
C1966 C 0.6153 0.65262 0.5378 0.0
H1967 H 0.69097 0.65939 0.57337 0.0
H1968 H 0.66453 0.64543 0.56794 0.0
H1969 H 0.68807 0.64042 0.55006 0.0
H1970 H 0.66307 0.62828 0.51982 0.0
H1971 H 0.63885 0.59506 0.52065 0.0
H1972 H 0.71259 0.2338 0.01961 0.0
H1973 H 0.68833 0.26565 0.01554 0.0
H1974 H 0.711 0.27349 0.94795 0.0
H1975 H 0.73491 0.24114 0.9517 0.0
H1976 H 0.69866 0.30811 0.0079 0.0
H1977 H 0.64449 0.27542 0.93941 0.0
H1978 H 0.66327 0.25795 0.95437 0.0
H1979 H 0.67359 0.27539 0.93246 0.0
C1980 C 0.71232 0.24216 0.00379 0.0
C1981 C 0.72566 0.23483 0.98594 0.0
C1982 C 0.69843 0.26043 0.00151 0.0
C1983 C 0.69755 0.27186 0.98135 0.0
C1984 C 0.71093 0.26465 0.9635 0.0
H1985 H 0.64714 0.4064 0.96827 0.0
H1986 H 0.67034 0.37375 0.97258 0.0
C1987 C 0.72471 0.24621 0.9657 0.0
C1988 C 0.68321 0.29173 0.97944 0.0
H1989 H 0.64118 0.31388 0.94892 0.0
C1990 C 0.68604 0.30932 0.99504 0.0
C1991 C 0.66649 0.29323 0.96287 0.0
C1992 C 0.66158 0.27441 0.94647 0.0
C1993 C 0.67283 0.3284 0.99442 0.0
C1994 C 0.65669 0.33027 0.97735 0.0
C1995 C 0.65368 0.31258 0.96189 0.0
C1996 C 0.64259 0.35031 0.9753 0.0
C1997 C 0.67599 0.34611 0.0124 0.0
C1998 C 0.61922 0.34805 0.97491 0.0
C1999 C 0.60588 0.36669 0.97216 0.0
C2000 C 0.61561 0.38804 0.96975 0.0
C2001 C 0.63904 0.39028 0.97034 0.0
C2002 C 0.65236 0.3716 0.97291 0.0
H2003 H 0.68379 0.33928 0.02755 0.0
H2004 H 0.68723 0.35951 0.00616 0.0
H2005 H 0.65985 0.35361 0.01715 0.0
H2006 H 0.61127 0.33181 0.97666 0.0
H2007 H 0.58792 0.3643 0.97174 0.0
H2008 H 0.31101 0.26471 0.021 0.0
H2009 H 0.33723 0.23446 0.01688 0.0
H2010 H 0.33658 0.24184 0.94558 0.0
H2011 H 0.30981 0.27205 0.94949 0.0
H2012 H 0.33232 0.19841 0.95783 0.0
H2013 H 0.40327 0.23894 0.00296 0.0
H2014 H 0.37817 0.23859 0.01919 0.0
H2015 H 0.37933 0.25418 0.99389 0.0
C2016 C 0.31647 0.26003 0.0044 0.0
C2017 C 0.30839 0.27088 0.98555 0.0
C2018 C 0.33162 0.24281 0.00211 0.0
C2019 C 0.33924 0.23625 0.98098 0.0
C2020 C 0.33105 0.24683 0.96207 0.0
H2021 H 0.44823 0.14432 0.9594 0.0
H2022 H 0.4253 0.17748 0.96223 0.0
C2023 C 0.31575 0.26404 0.96432 0.0
C2024 C 0.35501 0.21767 0.97872 0.0
H2025 H 0.40528 0.19941 0.99708 0.0
C2026 C 0.34837 0.19869 0.96623 0.0
C2027 C 0.37607 0.21822 0.98945 0.0
C2028 C 0.38475 0.23867 0.00193 0.0
C2029 C 0.36191 0.17994 0.96475 0.0
C2030 C 0.38239 0.18001 0.97653 0.0
C2031 C 0.38939 0.19926 0.9884 0.0
C2032 C 0.39683 0.16029 0.97653 0.0
C2033 C 0.35421 0.1603 0.95044 0.0
C2034 C 0.38872 0.13983 0.98443 0.0
C2035 C 0.40171 0.12083 0.98277 0.0
C2036 C 0.42319 0.122 0.9734 0.0
C2037 C 0.43175 0.14281 0.96667 0.0
C2038 C 0.41866 0.16178 0.96821 0.0
H2039 H 0.34176 0.16523 0.93782 0.0
H2040 H 0.36848 0.15251 0.94169 0.0
H2041 H 0.34619 0.14759 0.96115 0.0
H2042 H 0.37213 0.13847 0.99148 0.0
H2043 H 0.3947 0.10512 0.98833 0.0
H2044 H 0.82069 0.23223 0.99936 0.0
H2045 H 0.85188 0.25732 0.00798 0.0
H2046 H 0.84367 0.24499 0.07806 0.0
H2047 H 0.81183 0.21987 0.06958 0.0
H2048 H 0.84718 0.28879 0.06961 0.0
H2049 H 0.91531 0.24581 0.02608 0.0
H2050 H 0.892 0.24846 0.00768 0.0
H2051 H 0.88906 0.23201 0.03236 0.0
C2052 C 0.82554 0.23464 0.01664 0.0
C2053 C 0.81377 0.22404 0.03381 0.0
C2054 C 0.8436 0.24881 0.0215 0.0
C2055 C 0.85048 0.25252 0.0436 0.0
C2056 C 0.8388 0.24204 0.06087 0.0
H2057 H 0.96266 0.34941 0.05506 0.0
H2058 H 0.94155 0.31436 0.05941 0.0
C2059 C 0.82058 0.22781 0.056 0.0
C2060 C 0.86844 0.26915 0.04836 0.0
H2061 H 0.9193 0.28648 0.02918 0.0
C2062 C 0.8632 0.28804 0.06126 0.0
C2063 C 0.88953 0.26797 0.03788 0.0
C2064 C 0.89687 0.24731 0.02545 0.0
C2065 C 0.87766 0.30664 0.06224 0.0
C2066 C 0.89755 0.30641 0.04958 0.0
C2067 C 0.90377 0.28678 0.03842 0.0
C2068 C 0.91084 0.32699 0.04605 0.0
C2069 C 0.87112 0.32665 0.07618 0.0
C2070 C 0.90077 0.34527 0.03622 0.0
C2071 C 0.91268 0.3652 0.03372 0.0
C2072 C 0.93502 0.36715 0.04076 0.0
C2073 C 0.94547 0.34842 0.04949 0.0
C2074 C 0.93343 0.32844 0.05211 0.0
H2075 H 0.86021 0.32168 0.09025 0.0
H2076 H 0.88603 0.33575 0.08296 0.0
H2077 H 0.86162 0.33819 0.0657 0.0
H2078 H 0.88353 0.34421 0.03078 0.0
H2079 H 0.90422 0.37922 0.02668 0.0
loop_
_geom_bond_atom_site_label_1
_geom_bond_atom_site_label_2
_geom_bond_distance
_geom_bond_site_symmetry_2
_ccdc_geom_bond_type
C0 O2 1.247 . S
C0 O4 1.258 1_455 S
C1 O8 1.247 . S
C1 O9 1.258 1_655 S
O2 C0 1.247 . S
O2 Zn3 2.028 . S
Zn3 O2 2.028 . S
Zn3 O7 2.035 . S
Zn3 O9 2.035 . S
Zn3 O10 2.028 . S
O4 C0 1.258 1_655 S
O4 Zn5 2.035 . S
Zn5 O4 2.035 . S
Zn5 O6 2.028 . S
Zn5 O8 2.028 . S
Zn5 O11 2.035 . S
O6 Zn5 2.028 . S
O6 C12 1.247 . S
O7 Zn3 2.035 . S
O7 C12 1.258 1_455 S
O8 C1 1.247 . S
O8 Zn5 2.028 . S
O9 C1 1.258 1_455 S
O9 Zn3 2.035 . S
O10 Zn3 2.028 . S
O10 C13 1.247 . S
O11 Zn5 2.035 . S
O11 C13 1.258 1_655 S
C12 O6 1.247 . S
C12 O7 1.258 1_655 S
C13 O10 1.247 . S
C13 O11 1.258 1_455 S
C14 O16 1.247 . S
C14 O18 1.258 . S
C15 O22 1.247 . S
C15 O23 1.258 . S
O16 C14 1.247 . S
O16 Zn17 2.028 . S
Zn17 O16 2.028 . S
Zn17 O21 2.035 . S
Zn17 O23 2.035 . S
Zn17 O24 2.028 . S
O18 C14 1.258 . S
O18 Zn19 2.035 . S
Zn19 O18 2.035 . S
Zn19 O20 2.028 . S
Zn19 O22 2.028 . S
Zn19 O25 2.035 . S
O20 Zn19 2.028 . S
O20 C26 1.247 . S
O21 Zn17 2.035 . S
O21 C26 1.258 . S
O22 C15 1.247 . S
O22 Zn19 2.028 . S
O23 C15 1.258 . S
O23 Zn17 2.035 . S
O24 Zn17 2.028 . S
O24 C27 1.247 . S
O25 Zn19 2.035 . S
O25 C27 1.258 . S
C26 O20 1.247 . S
C26 O21 1.258 . S
C27 O24 1.247 . S
C27 O25 1.258 . S
C28 O30 1.247 1_545 S
C28 O32 1.258 . S
C29 O36 1.247 1_565 S
C29 O37 1.258 . S
O30 C28 1.247 1_565 S
O30 Zn31 2.028 . S
Zn31 O30 2.028 . S
Zn31 O35 2.035 . S
Zn31 O37 2.035 . S
Zn31 O38 2.028 . S
O32 C28 1.258 . S
O32 Zn33 2.035 . S
Zn33 O32 2.035 . S
Zn33 O34 2.028 . S
Zn33 O36 2.028 . S
Zn33 O39 2.035 . S
O34 Zn33 2.028 . S
O34 C40 1.247 1_545 S
O35 Zn31 2.035 . S
O35 C40 1.258 . S
O36 C29 1.247 1_545 S
O36 Zn33 2.028 . S
O37 C29 1.258 . S
O37 Zn31 2.035 . S
O38 Zn31 2.028 . S
O38 C41 1.247 1_565 S
O39 Zn33 2.035 . S
O39 C41 1.258 . S
C40 O34 1.247 1_565 S
C40 O35 1.258 . S
C41 O38 1.247 1_545 S
C41 O39 1.258 . S
C42 O44 1.247 . S
C42 O46 1.258 . S
C43 O50 1.247 . S
C43 O51 1.258 . S
O44 C42 1.247 . S
O44 Zn45 2.028 . S
Zn45 O44 2.028 . S
Zn45 O49 2.035 . S
Zn45 O51 2.035 . S
Zn45 O52 2.028 . S
O46 C42 1.258 . S
O46 Zn47 2.035 . S
Zn47 O46 2.035 . S
Zn47 O48 2.028 . S
Zn47 O50 2.028 . S
Zn47 O53 2.035 . S
O48 Zn47 2.028 . S
O48 C54 1.247 . S
O49 Zn45 2.035 . S
O49 C54 1.258 . S
O50 C43 1.247 . S
O50 Zn47 2.028 . S
O51 C43 1.258 . S
O51 Zn45 2.035 . S
O52 Zn45 2.028 . S
O52 C55 1.247 . S
O53 Zn47 2.035 . S
O53 C55 1.258 . S
C54 O48 1.247 . S
C54 O49 1.258 . S
C55 O52 1.247 . S
C55 O53 1.258 . S
C56 O58 1.247 . S
C56 O60 1.258 . S
C57 O64 1.247 . S
C57 O65 1.258 1_554 S
O58 C56 1.247 . S
O58 Zn59 2.028 1_554 S
Zn59 O58 2.028 1_556 S
Zn59 O63 2.035 . S
Zn59 O65 2.035 . S
Zn59 O66 2.028 1_556 S
O60 C56 1.258 . S
O60 Zn61 2.035 . S
Zn61 O60 2.035 . S
Zn61 O62 2.028 . S
Zn61 O64 2.028 . S
Zn61 O67 2.035 . S
O62 Zn61 2.028 . S
O62 C68 1.247 . S
O63 Zn59 2.035 . S
O63 C68 1.258 1_556 S
O64 C57 1.247 . S
O64 Zn61 2.028 . S
O65 C57 1.258 1_556 S
O65 Zn59 2.035 . S
O66 Zn59 2.028 1_554 S
O66 C69 1.247 . S
O67 Zn61 2.035 . S
O67 C69 1.258 . S
C68 O62 1.247 . S
C68 O63 1.258 1_554 S
C69 O66 1.247 . S
C69 O67 1.258 . S
C70 O72 1.247 . S
C70 O74 1.258 . S
C71 O78 1.247 . S
C71 O79 1.258 . S
O72 C70 1.247 . S
O72 Zn73 2.028 . S
Zn73 O72 2.028 . S
Zn73 O77 2.035 . S
Zn73 O79 2.035 . S
Zn73 O80 2.028 . S
O74 C70 1.258 . S
O74 Zn75 2.035 . S
Zn75 O74 2.035 . S
Zn75 O76 2.028 . S
Zn75 O78 2.028 . S
Zn75 O81 2.035 . S
O76 Zn75 2.028 . S
O76 C82 1.247 . S
O77 Zn73 2.035 . S
O77 C82 1.258 . S
O78 C71 1.247 . S
O78 Zn75 2.028 . S
O79 C71 1.258 . S
O79 Zn73 2.035 . S
O80 Zn73 2.028 . S
O80 C83 1.247 . S
O81 Zn75 2.035 . S
O81 C83 1.258 . S
C82 O76 1.247 . S
C82 O77 1.258 . S
C83 O80 1.247 . S
C83 O81 1.258 . S
C84 O86 1.247 . S
C84 O88 1.258 . S
C85 O92 1.247 . S
C85 O93 1.258 . S
O86 C84 1.247 . S
O86 Zn87 2.028 . S
Zn87 O86 2.028 . S
Zn87 O91 2.035 . S
Zn87 O93 2.035 . S
Zn87 O94 2.028 . S
O88 C84 1.258 . S
O88 Zn89 2.035 . S
Zn89 O88 2.035 . S
Zn89 O90 2.028 . S
Zn89 O92 2.028 . S
Zn89 O95 2.035 . S
O90 Zn89 2.028 . S
O90 C96 1.247 . S
O91 Zn87 2.035 . S
O91 C96 1.258 . S
O92 C85 1.247 . S
O92 Zn89 2.028 . S
O93 C85 1.258 . S
O93 Zn87 2.035 . S
O94 Zn87 2.028 . S
O94 C97 1.247 . S
O95 Zn89 2.035 . S
O95 C97 1.258 . S
C96 O90 1.247 . S
C96 O91 1.258 . S
C97 O94 1.247 . S
C97 O95 1.258 . S
C98 O100 1.247 . S
C98 O102 1.258 . S
C99 O106 1.247 . S
C99 O107 1.258 . S
O100 C98 1.247 . S
O100 Zn101 2.028 . S
Zn101 O100 2.028 . S
Zn101 O105 2.035 . S
Zn101 O107 2.035 . S
Zn101 O108 2.028 . S
O102 C98 1.258 . S
O102 Zn103 2.035 . S
Zn103 O102 2.035 . S
Zn103 O104 2.028 . S
Zn103 O106 2.028 . S
Zn103 O109 2.035 . S
O104 Zn103 2.028 . S
O104 C110 1.247 . S
O105 Zn101 2.035 . S
O105 C110 1.258 . S
O106 C99 1.247 . S
O106 Zn103 2.028 . S
O107 C99 1.258 . S
O107 Zn101 2.035 . S
O108 Zn101 2.028 . S
O108 C111 1.247 . S
O109 Zn103 2.035 . S
O109 C111 1.258 . S
C110 O104 1.247 . S
C110 O105 1.258 . S
C111 O108 1.247 . S
C111 O109 1.258 . S
C112 O114 1.247 . S
C112 O116 1.258 . S
C113 O120 1.247 . S
C113 O121 1.258 . S
O114 C112 1.247 . S
O114 Zn115 2.028 . S
Zn115 O114 2.028 . S
Zn115 O119 2.035 . S
Zn115 O121 2.035 . S
Zn115 O122 2.028 . S
O116 C112 1.258 . S
O116 Zn117 2.035 . S
Zn117 O116 2.035 . S
Zn117 O118 2.028 . S
Zn117 O120 2.028 . S
Zn117 O123 2.035 . S
O118 Zn117 2.028 . S
O118 C124 1.247 . S
O119 Zn115 2.035 . S
O119 C124 1.258 . S
O120 C113 1.247 . S
O120 Zn117 2.028 . S
O121 C113 1.258 . S
O121 Zn115 2.035 . S
O122 Zn115 2.028 . S
O122 C125 1.247 . S
O123 Zn117 2.035 . S
O123 C125 1.258 . S
C124 O118 1.247 . S
C124 O119 1.258 . S
C125 O122 1.247 . S
C125 O123 1.258 . S
C126 O128 1.247 . S
C126 O130 1.258 . S
C127 O134 1.247 . S
C127 O135 1.258 . S
O128 C126 1.247 . S
O128 Zn129 2.028 . S
Zn129 O128 2.028 . S
Zn129 O133 2.035 . S
Zn129 O135 2.035 . S
Zn129 O136 2.028 . S
O130 C126 1.258 . S
O130 Zn131 2.035 . S
Zn131 O130 2.035 . S
Zn131 O132 2.028 . S
Zn131 O134 2.028 . S
Zn131 O137 2.035 . S
O132 Zn131 2.028 . S
O132 C138 1.247 . S
O133 Zn129 2.035 . S
O133 C138 1.258 . S
O134 C127 1.247 . S
O134 Zn131 2.028 . S
O135 C127 1.258 . S
O135 Zn129 2.035 . S
O136 Zn129 2.028 . S
O136 C139 1.247 . S
O137 Zn131 2.035 . S
O137 C139 1.258 . S
C138 O132 1.247 . S
C138 O133 1.258 . S
C139 O136 1.247 . S
C139 O137 1.258 . S
C140 O142 1.247 1_545 S
C140 O144 1.258 . S
C141 O148 1.247 . S
C141 O149 1.258 . S
O142 C140 1.247 1_565 S
O142 Zn143 2.028 . S
Zn143 O142 2.028 . S
Zn143 O147 2.035 1_565 S
Zn143 O149 2.035 1_565 S
Zn143 O150 2.028 . S
O144 C140 1.258 . S
O144 Zn145 2.035 . S
Zn145 O144 2.035 . S
Zn145 O146 2.028 . S
Zn145 O148 2.028 . S
Zn145 O151 2.035 . S
O146 Zn145 2.028 . S
O146 C152 1.247 . S
O147 Zn143 2.035 1_545 S
O147 C152 1.258 . S
O148 C141 1.247 . S
O148 Zn145 2.028 . S
O149 C141 1.258 . S
O149 Zn143 2.035 1_545 S
O150 Zn143 2.028 . S
O150 C153 1.247 1_565 S
O151 Zn145 2.035 . S
O151 C153 1.258 . S
C152 O146 1.247 . S
C152 O147 1.258 . S
C153 O150 1.247 1_545 S
C153 O151 1.258 . S
C154 O156 1.247 1_556 S
C154 O158 1.258 . S
C155 O162 1.247 1_554 S
C155 O163 1.258 . S
O156 C154 1.247 1_554 S
O156 Zn157 2.028 . S
Zn157 O156 2.028 . S
Zn157 O161 2.035 . S
Zn157 O163 2.035 . S
Zn157 O164 2.028 . S
O158 C154 1.258 . S
O158 Zn159 2.035 . S
Zn159 O158 2.035 . S
Zn159 O160 2.028 . S
Zn159 O162 2.028 . S
Zn159 O165 2.035 . S
O160 Zn159 2.028 . S
O160 C166 1.247 1_556 S
O161 Zn157 2.035 . S
O161 C166 1.258 . S
O162 C155 1.247 1_556 S
O162 Zn159 2.028 . S
O163 C155 1.258 . S
O163 Zn157 2.035 . S
O164 Zn157 2.028 . S
O164 C167 1.247 1_554 S
O165 Zn159 2.035 . S
O165 C167 1.258 . S
C166 O160 1.247 1_554 S
C166 O161 1.258 . S
C167 O164 1.247 1_556 S
C167 O165 1.258 . S
O168 Zn169 1.953 . S
O168 C184 1.225 . S
Zn169 O168 1.953 . S
Zn169 O170 1.949 . S
Zn169 O176 1.919 . S
Zn169 O181 1.924 . S
O170 Zn169 1.949 . S
O170 Zn171 1.923 . S
O170 Zn172 1.950 . S
O170 Zn173 1.945 . S
Zn171 O170 1.923 . S
Zn171 O174 1.933 . S
Zn171 O177 1.941 . S
Zn171 O178 1.965 . S
Zn172 O170 1.950 . S
Zn172 O179 1.938 . S
Zn172 O180 1.906 . S
Zn172 O190 1.953 . S
Zn173 O170 1.945 . S
Zn173 O175 1.932 . S
Zn173 O182 1.977 . S
Zn173 O183 1.895 1_545 S
O174 Zn171 1.933 . S
O174 C185 1.226 . S
O175 Zn173 1.932 . S
O175 C185 1.307 . S
O176 Zn169 1.919 . S
O176 C187 1.253 . S
O177 Zn171 1.941 . S
O177 C187 1.283 . S
O178 Zn171 1.965 . S
O178 C186 1.303 . S
O179 Zn172 1.938 . S
O179 C186 1.247 . S
O180 Zn172 1.906 . S
O180 C188 1.304 1_554 S
O181 Zn169 1.924 . S
O181 C189 1.311 1_545 S
O182 Zn173 1.977 . S
O182 C188 1.272 1_554 S
O183 Zn173 1.895 1_565 S
O183 C189 1.236 . S
C184 O168 1.225 . S
C184 O190 1.298 . S
C185 O174 1.226 . S
C185 O175 1.307 . S
C186 O178 1.303 . S
C186 O179 1.247 . S
C187 O176 1.253 . S
C187 O177 1.283 . S
C188 O180 1.304 1_556 S
C188 O182 1.272 1_556 S
C189 O181 1.311 1_565 S
C189 O183 1.236 . S
O190 Zn172 1.953 . S
O190 C184 1.298 . S
O191 Zn192 1.953 . S
O191 C207 1.225 . S
Zn192 O191 1.953 . S
Zn192 O193 1.949 . S
Zn192 O199 1.919 . S
Zn192 O204 1.924 . S
O193 Zn192 1.949 . S
O193 Zn194 1.923 . S
O193 Zn195 1.950 . S
O193 Zn196 1.945 . S
Zn194 O193 1.923 . S
Zn194 O197 1.933 1_655 S
Zn194 O200 1.941 . S
Zn194 O201 1.965 . S
Zn195 O193 1.950 . S
Zn195 O202 1.938 . S
Zn195 O203 1.906 . S
Zn195 O213 1.953 . S
Zn196 O193 1.945 . S
Zn196 O198 1.932 1_655 S
Zn196 O205 1.977 . S
Zn196 O206 1.910 . S
O197 Zn194 1.933 1_455 S
O197 C208 1.226 . S
O198 Zn196 1.932 1_455 S
O198 C208 1.307 . S
O199 Zn192 1.919 . S
O199 C210 1.253 . S
O200 Zn194 1.941 . S
O200 C210 1.283 . S
O201 Zn194 1.965 . S
O201 C209 1.303 . S
O202 Zn195 1.938 . S
O202 C209 1.247 . S
O203 Zn195 1.906 . S
O203 C211 1.304 1_554 S
O204 Zn192 1.924 . S
O204 C212 1.311 . S
O205 Zn196 1.977 . S
O205 C211 1.272 1_554 S
O206 Zn196 1.910 . S
O206 C212 1.231 . S
C207 O191 1.225 . S
C207 O213 1.298 . S
C208 O197 1.226 . S
C208 O198 1.307 . S
C209 O201 1.303 . S
C209 O202 1.247 . S
C210 O199 1.253 . S
C210 O200 1.283 . S
C211 O203 1.304 1_556 S
C211 O205 1.272 1_556 S
C212 O204 1.311 . S
C212 O206 1.231 . S
O213 Zn195 1.953 . S
O213 C207 1.298 . S
O214 Zn215 1.953 . S
O214 C230 1.225 . S
Zn215 O214 1.953 . S
Zn215 O216 1.949 . S
Zn215 O222 1.919 . S
Zn215 O227 1.924 . S
O216 Zn215 1.949 . S
O216 Zn217 1.923 . S
O216 Zn218 1.950 . S
O216 Zn219 1.945 . S
Zn217 O216 1.923 . S
Zn217 O220 1.933 . S
Zn217 O223 1.941 . S
Zn217 O224 1.965 . S
Zn218 O216 1.950 . S
Zn218 O225 1.938 . S
Zn218 O226 1.906 . S
Zn218 O236 1.953 . S
Zn219 O216 1.945 . S
Zn219 O221 1.932 . S
Zn219 O228 1.977 . S
Zn219 O229 1.910 . S
O220 Zn217 1.933 . S
O220 C231 1.226 1_565 S
O221 Zn219 1.932 . S
O221 C231 1.307 1_565 S
O222 Zn215 1.919 . S
O222 C233 1.253 . S
O223 Zn217 1.941 . S
O223 C233 1.283 . S
O224 Zn217 1.965 . S
O224 C232 1.303 . S
O225 Zn218 1.938 . S
O225 C232 1.247 . S
O226 Zn218 1.906 . S
O226 C234 1.304 . S
O227 Zn215 1.924 . S
O227 C235 1.311 . S
O228 Zn219 1.977 . S
O228 C234 1.272 . S
O229 Zn219 1.910 . S
O229 C235 1.231 . S
C230 O214 1.225 . S
C230 O236 1.298 . S
C231 O220 1.226 1_545 S
C231 O221 1.307 1_545 S
C232 O224 1.303 . S
C232 O225 1.247 . S
C233 O222 1.253 . S
C233 O223 1.283 . S
C234 O226 1.304 . S
C234 O228 1.272 . S
C235 O227 1.311 . S
C235 O229 1.231 . S
O236 Zn218 1.953 . S
O236 C230 1.298 . S
O237 Zn238 1.953 . S
O237 C253 1.225 . S
Zn238 O237 1.953 . S
Zn238 O239 1.949 . S
Zn238 O245 1.919 . S
Zn238 O250 1.924 1_655 S
O239 Zn238 1.949 . S
O239 Zn240 1.923 . S
O239 Zn241 1.950 . S
O239 Zn242 1.945 . S
Zn240 O239 1.923 . S
Zn240 O243 1.933 . S
Zn240 O246 1.941 . S
Zn240 O247 1.965 . S
Zn241 O239 1.950 . S
Zn241 O248 1.938 . S
Zn241 O249 1.906 . S
Zn241 O259 1.953 . S
Zn242 O239 1.945 . S
Zn242 O244 1.932 . S
Zn242 O251 1.977 . S
Zn242 O252 1.910 1_655 S
O243 Zn240 1.933 . S
O243 C254 1.226 . S
O244 Zn242 1.932 . S
O244 C254 1.307 . S
O245 Zn238 1.919 . S
O245 C256 1.253 . S
O246 Zn240 1.941 . S
O246 C256 1.283 . S
O247 Zn240 1.965 . S
O247 C255 1.303 . S
O248 Zn241 1.938 . S
O248 C255 1.247 . S
O249 Zn241 1.906 . S
O249 C257 1.304 . S
O250 Zn238 1.924 1_455 S
O250 C258 1.311 . S
O251 Zn242 1.977 . S
O251 C257 1.272 . S
O252 Zn242 1.910 1_455 S
O252 C258 1.231 . S
C253 O237 1.225 . S
C253 O259 1.298 . S
C254 O243 1.226 . S
C254 O244 1.307 . S
C255 O247 1.303 . S
C255 O248 1.247 . S
C256 O245 1.253 . S
C256 O246 1.283 . S
C257 O249 1.304 . S
C257 O251 1.272 . S
C258 O250 1.311 . S
C258 O252 1.231 . S
O259 Zn241 1.953 . S
O259 C253 1.298 . S
O260 Zn261 1.953 . S
O260 C276 1.225 . S
Zn261 O260 1.953 . S
Zn261 O262 1.949 . S
Zn261 O268 1.919 . S
Zn261 O273 1.924 . S
O262 Zn261 1.949 . S
O262 Zn263 1.923 . S
O262 Zn264 1.950 . S
O262 Zn265 1.945 . S
Zn263 O262 1.923 . S
Zn263 O266 1.933 . S
Zn263 O269 1.941 . S
Zn263 O270 1.965 . S
Zn264 O262 1.950 . S
Zn264 O271 1.938 . S
Zn264 O272 1.906 . S
Zn264 O282 1.953 . S
Zn265 O262 1.945 . S
Zn265 O267 1.932 . S
Zn265 O274 1.977 . S
Zn265 O275 1.910 . S
O266 Zn263 1.933 . S
O266 C277 1.226 . S
O267 Zn265 1.932 . S
O267 C277 1.307 . S
O268 Zn261 1.919 . S
O268 C279 1.253 . S
O269 Zn263 1.941 . S
O269 C279 1.283 . S
O270 Zn263 1.965 . S
O270 C278 1.303 . S
O271 Zn264 1.938 . S
O271 C278 1.247 . S
O272 Zn264 1.906 . S
O272 C280 1.304 . S
O273 Zn261 1.924 . S
O273 C281 1.308 1_565 S
O274 Zn265 1.977 . S
O274 C280 1.272 . S
O275 Zn265 1.910 . S
O275 C281 1.230 1_565 S
C276 O260 1.225 . S
C276 O282 1.298 . S
C277 O266 1.226 . S
C277 O267 1.307 . S
C278 O270 1.303 . S
C278 O271 1.247 . S
C279 O268 1.253 . S
C279 O269 1.283 . S
C280 O272 1.304 . S
C280 O274 1.272 . S
C281 O273 1.308 1_545 S
C281 O275 1.230 1_545 S
O282 Zn264 1.953 . S
O282 C276 1.298 . S
O283 Zn284 1.953 . S
O283 C299 1.225 . S
Zn284 O283 1.953 . S
Zn284 O285 1.949 . S
Zn284 O291 1.919 . S
Zn284 O296 1.924 . S
O285 Zn284 1.949 . S
O285 Zn286 1.923 . S
O285 Zn287 1.950 . S
O285 Zn288 1.945 . S
Zn286 O285 1.923 . S
Zn286 O289 1.933 . S
Zn286 O292 1.941 . S
Zn286 O293 1.965 . S
Zn287 O285 1.950 . S
Zn287 O294 1.938 . S
Zn287 O295 1.906 . S
Zn287 O305 1.953 . S
Zn288 O285 1.945 . S
Zn288 O290 1.932 . S
Zn288 O297 1.977 . S
Zn288 O298 1.910 . S
O289 Zn286 1.933 . S
O289 C300 1.226 . S
O290 Zn288 1.932 . S
O290 C300 1.307 . S
O291 Zn284 1.919 . S
O291 C302 1.253 . S
O292 Zn286 1.941 . S
O292 C302 1.283 . S
O293 Zn286 1.965 . S
O293 C301 1.303 . S
O294 Zn287 1.938 . S
O294 C301 1.247 . S
O295 Zn287 1.906 . S
O295 C303 1.304 . S
O296 Zn284 1.924 . S
O296 C304 1.311 . S
O297 Zn288 1.977 . S
O297 C303 1.272 . S
O298 Zn288 1.910 . S
O298 C304 1.231 . S
C299 O283 1.225 . S
C299 O305 1.298 . S
C300 O289 1.226 . S
C300 O290 1.307 . S
C301 O293 1.303 . S
C301 O294 1.247 . S
C302 O291 1.253 . S
C302 O292 1.283 . S
C303 O295 1.304 . S
C303 O297 1.272 . S
C304 O296 1.311 . S
C304 O298 1.231 . S
O305 Zn287 1.953 . S
O305 C299 1.298 . S
O306 Zn307 1.953 . S
O306 C322 1.225 . S
Zn307 O306 1.953 . S
Zn307 O308 1.949 . S
Zn307 O314 1.919 . S
Zn307 O319 1.924 . S
O308 Zn307 1.949 . S
O308 Zn309 1.923 . S
O308 Zn310 1.950 . S
O308 Zn311 1.945 . S
Zn309 O308 1.923 . S
Zn309 O312 1.933 . S
Zn309 O315 1.941 . S
Zn309 O316 1.965 . S
Zn310 O308 1.950 . S
Zn310 O317 1.938 . S
Zn310 O318 1.906 . S
Zn310 O328 1.953 . S
Zn311 O308 1.945 . S
Zn311 O313 1.932 . S
Zn311 O320 1.977 . S
Zn311 O321 1.910 . S
O312 Zn309 1.933 . S
O312 C323 1.226 . S
O313 Zn311 1.932 . S
O313 C323 1.307 . S
O314 Zn307 1.919 . S
O314 C325 1.253 . S
O315 Zn309 1.941 . S
O315 C325 1.283 . S
O316 Zn309 1.965 . S
O316 C324 1.303 . S
O317 Zn310 1.938 . S
O317 C324 1.247 . S
O318 Zn310 1.906 . S
O318 C326 1.304 . S
O319 Zn307 1.924 . S
O319 C327 1.307 1_556 S
O320 Zn311 1.977 . S
O320 C326 1.272 . S
O321 Zn311 1.910 . S
O321 C327 1.229 1_556 S
C322 O306 1.225 . S
C322 O328 1.298 . S
C323 O312 1.226 . S
C323 O313 1.307 . S
C324 O316 1.303 . S
C324 O317 1.247 . S
C325 O314 1.253 . S
C325 O315 1.283 . S
C326 O318 1.304 . S
C326 O320 1.272 . S
C327 O319 1.307 1_554 S
C327 O321 1.229 1_554 S
O328 Zn310 1.953 . S
O328 C322 1.298 . S
O329 Zn330 1.953 . S
O329 C345 1.225 . S
Zn330 O329 1.953 . S
Zn330 O331 1.949 . S
Zn330 O337 1.919 . S
Zn330 O342 1.924 . S
O331 Zn330 1.949 . S
O331 Zn332 1.923 . S
O331 Zn333 1.950 . S
O331 Zn334 1.945 . S
Zn332 O331 1.923 . S
Zn332 O335 1.933 . S
Zn332 O338 1.941 . S
Zn332 O339 1.965 . S
Zn333 O331 1.950 . S
Zn333 O340 1.938 . S
Zn333 O341 1.906 . S
Zn333 O351 1.953 . S
Zn334 O331 1.945 . S
Zn334 O336 1.932 . S
Zn334 O343 1.977 . S
Zn334 O344 1.910 . S
O335 Zn332 1.933 . S
O335 C346 1.226 1_556 S
O336 Zn334 1.932 . S
O336 C346 1.307 1_556 S
O337 Zn330 1.919 . S
O337 C348 1.253 . S
O338 Zn332 1.941 . S
O338 C348 1.283 . S
O339 Zn332 1.965 . S
O339 C347 1.303 . S
O340 Zn333 1.938 . S
O340 C347 1.247 . S
O341 Zn333 1.906 . S
O341 C349 1.304 1_545 S
O342 Zn330 1.924 . S
O342 C350 1.311 . S
O343 Zn334 1.977 . S
O343 C349 1.272 1_545 S
O344 Zn334 1.910 . S
O344 C350 1.231 . S
C345 O329 1.225 . S
C345 O351 1.298 . S
C346 O335 1.226 1_554 S
C346 O336 1.307 1_554 S
C347 O339 1.303 . S
C347 O340 1.247 . S
C348 O337 1.253 . S
C348 O338 1.283 . S
C349 O341 1.304 1_565 S
C349 O343 1.272 1_565 S
C350 O342 1.311 . S
C350 O344 1.231 . S
O351 Zn333 1.953 . S
O351 C345 1.298 . S
H352 C360 0.929 . S
H353 C362 0.930 . S
H354 C364 0.930 . S
H355 C367 0.929 . S
H356 C370 0.930 . S
H357 C372 0.960 1_655 S
H358 C372 0.960 . S
H359 C372 0.960 1_655 S
C360 H352 0.929 . S
C360 C361 1.377 . S
C360 C362 1.384 . S
C361 C360 1.377 . S
C361 C367 1.390 1_455 S
C362 H353 0.930 . S
C362 C360 1.384 . S
C362 C363 1.372 . S
C363 C362 1.372 . S
C363 C364 1.400 1_455 S
C363 C368 1.490 . S
C364 H354 0.930 . S
C364 C363 1.400 1_655 S
C364 C367 1.386 . S
H365 C381 0.930 . S
H366 C382 0.922 1_655 S
C367 H355 0.929 . S
C367 C361 1.390 1_655 S
C367 C364 1.386 . S
C368 C363 1.490 . S
C368 C370 1.395 . S
C368 C371 1.403 . S
H369 C375 0.930 . S
C370 H356 0.930 . S
C370 C368 1.395 . S
C370 C373 1.403 . S
C371 C368 1.403 . S
C371 C372 1.524 . S
C371 C375 1.400 . S
C372 H357 0.960 1_455 S
C372 H358 0.960 . S
C372 H359 0.960 1_455 S
C372 C371 1.524 . S
C373 C370 1.403 . S
C373 C374 1.392 . S
C373 C377 1.495 . S
C374 C373 1.392 . S
C374 C375 1.385 . S
C374 C376 1.478 . S
C375 H369 0.930 . S
C375 C371 1.400 . S
C375 C374 1.385 . S
C376 C374 1.478 . S
C376 C378 1.381 . S
C376 C382 1.383 . S
C377 C373 1.495 . S
C377 H383 0.959 . S
C377 H384 0.961 . S
C377 H385 0.960 . S
C378 C376 1.381 . S
C378 C379 1.394 . S
C378 H386 0.930 . S
C379 C378 1.394 . S
C379 C380 1.383 . S
C379 H387 0.929 . S
C380 C379 1.383 . S
C380 C381 1.377 . S
C381 H365 0.930 . S
C381 C380 1.377 . S
C381 C382 1.379 . S
C382 H366 0.922 1_455 S
C382 C376 1.383 . S
C382 C381 1.379 . S
H383 C377 0.959 . S
H384 C377 0.961 . S
H385 C377 0.960 . S
H386 C378 0.930 . S
H387 C379 0.929 . S
H388 C396 0.929 . S
H389 C398 0.930 . S
H390 C400 0.930 . S
H391 C403 0.929 . S
H392 C406 0.930 . S
H393 C408 0.960 . S
H394 C408 0.960 . S
H395 C408 0.960 1_455 S
C396 H388 0.929 . S
C396 C397 1.377 . S
C396 C398 1.384 . S
C397 C396 1.377 . S
C397 C403 1.390 1_655 S
C398 H389 0.930 . S
C398 C396 1.384 . S
C398 C399 1.372 . S
C399 C398 1.372 . S
C399 C400 1.400 1_655 S
C399 C404 1.490 . S
C400 H390 0.930 . S
C400 C399 1.400 1_455 S
C400 C403 1.386 . S
H401 C417 0.930 . S
H402 C418 0.931 . S
C403 H391 0.929 . S
C403 C397 1.390 1_455 S
C403 C400 1.386 . S
C404 C399 1.490 . S
C404 C406 1.395 . S
C404 C407 1.403 . S
H405 C411 0.930 . S
C406 H392 0.930 . S
C406 C404 1.395 . S
C406 C409 1.403 . S
C407 C404 1.403 . S
C407 C408 1.524 . S
C407 C411 1.400 . S
C408 H393 0.960 . S
C408 H394 0.960 . S
C408 H395 0.960 1_655 S
C408 C407 1.524 . S
C409 C406 1.403 . S
C409 C410 1.392 . S
C409 C413 1.495 . S
C410 C409 1.392 . S
C410 C411 1.385 . S
C410 C412 1.478 . S
C411 H405 0.930 . S
C411 C407 1.400 . S
C411 C410 1.385 . S
C412 C410 1.478 . S
C412 C414 1.381 . S
C412 C418 1.383 1_655 S
C413 C409 1.495 . S
C413 H419 0.959 . S
C413 H420 0.961 . S
C413 H421 0.960 . S
C414 C412 1.381 . S
C414 C415 1.394 . S
C414 H422 0.930 . S
C415 C414 1.394 . S
C415 C416 1.383 . S
C415 H423 0.929 . S
C416 C415 1.383 . S
C416 C417 1.377 1_655 S
C417 H401 0.930 . S
C417 C416 1.377 1_455 S
C417 C418 1.379 . S
C418 H402 0.931 . S
C418 C412 1.383 1_455 S
C418 C417 1.379 . S
H419 C413 0.959 . S
H420 C413 0.961 . S
H421 C413 0.960 . S
H422 C414 0.930 . S
H423 C415 0.929 . S
H424 C432 0.929 . S
H425 C434 0.930 . S
H426 C436 0.930 . S
H427 C439 0.929 . S
H428 C442 0.930 . S
H429 C444 0.960 . S
H430 C444 0.960 . S
H431 C444 0.960 . S
C432 H424 0.929 . S
C432 C433 1.377 . S
C432 C434 1.384 . S
C433 C432 1.377 . S
C433 C439 1.390 . S
C434 H425 0.930 . S
C434 C432 1.384 . S
C434 C435 1.372 . S
C435 C434 1.372 . S
C435 C436 1.400 . S
C435 C440 1.490 . S
C436 H426 0.930 . S
C436 C435 1.400 . S
C436 C439 1.386 . S
H437 C453 0.930 . S
H438 C454 0.931 . S
C439 H427 0.929 . S
C439 C433 1.390 . S
C439 C436 1.386 . S
C440 C435 1.490 . S
C440 C442 1.395 . S
C440 C443 1.403 . S
H441 C447 0.930 . S
C442 H428 0.930 . S
C442 C440 1.395 . S
C442 C445 1.403 . S
C443 C440 1.403 . S
C443 C444 1.524 . S
C443 C447 1.400 . S
C444 H429 0.960 . S
C444 H430 0.960 . S
C444 H431 0.960 . S
C444 C443 1.524 . S
C445 C442 1.403 . S
C445 C446 1.392 . S
C445 C449 1.495 . S
C446 C445 1.392 . S
C446 C447 1.385 . S
C446 C448 1.478 . S
C447 H441 0.930 . S
C447 C443 1.400 . S
C447 C446 1.385 . S
C448 C446 1.478 . S
C448 C450 1.381 . S
C448 C454 1.383 . S
C449 C445 1.495 . S
C449 H455 0.959 . S
C449 H456 0.961 . S
C449 H457 0.960 . S
C450 C448 1.381 . S
C450 C451 1.394 . S
C450 H458 0.930 . S
C451 C450 1.394 . S
C451 C452 1.383 . S
C451 H459 0.929 . S
C452 C451 1.383 . S
C452 C453 1.377 . S
C453 H437 0.930 . S
C453 C452 1.377 . S
C453 C454 1.379 . S
C454 H438 0.931 . S
C454 C448 1.383 . S
C454 C453 1.379 . S
H455 C449 0.959 . S
H456 C449 0.961 . S
H457 C449 0.960 . S
H458 C450 0.930 . S
H459 C451 0.929 . S
H460 C468 0.929 . S
H461 C470 0.930 . S
H462 C472 0.930 . S
H463 C475 0.929 1_655 S
H464 C478 0.930 . S
H465 C480 0.960 . S
H466 C480 0.960 . S
H467 C480 0.960 . S
C468 H460 0.929 . S
C468 C469 1.377 . S
C468 C470 1.384 . S
C469 C468 1.377 . S
C469 C475 1.390 . S
C470 H461 0.930 . S
C470 C468 1.384 . S
C470 C471 1.372 . S
C471 C470 1.372 . S
C471 C472 1.400 1_455 S
C471 C476 1.490 . S
C472 H462 0.930 . S
C472 C471 1.400 1_655 S
C472 C475 1.386 1_655 S
H473 C489 0.930 . S
H474 C490 0.931 . S
C475 H463 0.929 1_455 S
C475 C469 1.390 . S
C475 C472 1.386 1_455 S
C476 C471 1.490 . S
C476 C478 1.395 . S
C476 C479 1.403 1_455 S
H477 C483 0.930 . S
C478 H464 0.930 . S
C478 C476 1.395 . S
C478 C481 1.403 . S
C479 C476 1.403 1_655 S
C479 C480 1.524 . S
C479 C483 1.400 . S
C480 H465 0.960 . S
C480 H466 0.960 . S
C480 H467 0.960 . S
C480 C479 1.524 . S
C481 C478 1.403 . S
C481 C482 1.392 . S
C481 C485 1.495 . S
C482 C481 1.392 . S
C482 C483 1.385 1_455 S
C482 C484 1.485 . S
C483 H477 0.930 . S
C483 C479 1.400 . S
C483 C482 1.385 1_655 S
C484 C482 1.485 . S
C484 C486 1.404 . S
C484 C490 1.351 1_455 S
C485 C481 1.495 . S
C485 H491 0.959 . S
C485 H492 0.961 . S
C485 H493 0.960 . S
C486 C484 1.404 . S
C486 C487 1.394 . S
C486 H494 0.930 . S
C487 C486 1.394 . S
C487 C488 1.383 1_455 S
C487 H495 0.929 . S
C488 C487 1.383 1_655 S
C488 C489 1.377 . S
C489 H473 0.930 . S
C489 C488 1.377 . S
C489 C490 1.379 . S
C490 H474 0.931 . S
C490 C484 1.351 1_655 S
C490 C489 1.379 . S
H491 C485 0.959 . S
H492 C485 0.961 . S
H493 C485 0.960 . S
H494 C486 0.930 . S
H495 C487 0.929 . S
H496 C504 0.929 . S
H497 C506 0.930 . S
H498 C508 0.930 . S
H499 C511 0.929 . S
H500 C514 0.930 . S
H501 C516 0.960 . S
H502 C516 0.960 1_565 S
H503 C516 0.960 . S
C504 H496 0.929 . S
C504 C505 1.377 1_565 S
C504 C506 1.384 . S
C505 C504 1.377 1_545 S
C505 C511 1.390 . S
C506 H497 0.930 . S
C506 C504 1.384 . S
C506 C507 1.372 1_565 S
C507 C506 1.372 1_545 S
C507 C508 1.400 . S
C507 C512 1.490 . S
C508 H498 0.930 . S
C508 C507 1.400 . S
C508 C511 1.386 . S
H509 C525 0.930 . S
H510 C526 0.931 . S
C511 H499 0.929 . S
C511 C505 1.390 . S
C511 C508 1.386 . S
C512 C507 1.490 . S
C512 C514 1.395 . S
C512 C515 1.403 . S
H513 C519 0.930 . S
C514 H500 0.930 . S
C514 C512 1.395 . S
C514 C517 1.403 . S
C515 C512 1.403 . S
C515 C516 1.524 . S
C515 C519 1.400 . S
C516 H501 0.960 . S
C516 H502 0.960 1_545 S
C516 H503 0.960 . S
C516 C515 1.524 . S
C517 C514 1.403 . S
C517 C518 1.392 . S
C517 C521 1.495 . S
C518 C517 1.392 . S
C518 C519 1.385 . S
C518 C520 1.478 . S
C519 H513 0.930 . S
C519 C515 1.400 . S
C519 C518 1.385 . S
C520 C518 1.478 . S
C520 C522 1.381 . S
C520 C526 1.383 . S
C521 C517 1.495 . S
C521 H527 0.959 . S
C521 H528 0.961 . S
C521 H529 0.960 . S
C522 C520 1.381 . S
C522 C523 1.394 . S
C522 H530 0.930 1_545 S
C523 C522 1.394 . S
C523 C524 1.383 . S
C523 H531 0.929 1_545 S
C524 C523 1.383 . S
C524 C525 1.377 . S
C525 H509 0.930 . S
C525 C524 1.377 . S
C525 C526 1.379 . S
C526 H510 0.931 . S
C526 C520 1.383 . S
C526 C525 1.379 . S
H527 C521 0.959 . S
H528 C521 0.961 . S
H529 C521 0.960 . S
H530 C522 0.930 1_565 S
H531 C523 0.929 1_565 S
H532 C540 0.929 . S
H533 C542 0.930 . S
H534 C544 0.930 . S
H535 C547 0.929 . S
H536 C550 0.930 . S
H537 C552 0.960 . S
H538 C552 0.960 . S
H539 C552 0.960 . S
C540 H532 0.929 . S
C540 C541 1.377 . S
C540 C542 1.384 . S
C541 C540 1.377 . S
C541 C547 1.390 . S
C542 H533 0.930 . S
C542 C540 1.384 . S
C542 C543 1.372 . S
C543 C542 1.372 . S
C543 C544 1.400 . S
C543 C548 1.490 . S
C544 H534 0.930 . S
C544 C543 1.400 . S
C544 C547 1.386 . S
H545 C561 0.930 . S
H546 C562 0.931 . S
C547 H535 0.929 . S
C547 C541 1.390 . S
C547 C544 1.386 . S
C548 C543 1.490 . S
C548 C550 1.395 . S
C548 C551 1.403 . S
H549 C555 0.930 . S
C550 H536 0.930 . S
C550 C548 1.395 . S
C550 C553 1.403 . S
C551 C548 1.403 . S
C551 C552 1.524 . S
C551 C555 1.400 . S
C552 H537 0.960 . S
C552 H538 0.960 . S
C552 H539 0.960 . S
C552 C551 1.524 . S
C553 C550 1.403 . S
C553 C554 1.392 . S
C553 C557 1.495 . S
C554 C553 1.392 . S
C554 C555 1.385 . S
C554 C556 1.478 . S
C555 H549 0.930 . S
C555 C551 1.400 . S
C555 C554 1.385 . S
C556 C554 1.478 . S
C556 C558 1.381 . S
C556 C562 1.383 . S
C557 C553 1.495 . S
C557 H563 0.959 . S
C557 H564 0.961 . S
C557 H565 0.960 . S
C558 C556 1.381 . S
C558 C559 1.394 . S
C558 H566 0.930 . S
C559 C558 1.394 . S
C559 C560 1.383 . S
C559 H567 0.929 . S
C560 C559 1.383 . S
C560 C561 1.377 . S
C561 H545 0.930 . S
C561 C560 1.377 . S
C561 C562 1.379 . S
C562 H546 0.931 . S
C562 C556 1.383 . S
C562 C561 1.379 . S
H563 C557 0.959 . S
H564 C557 0.961 . S
H565 C557 0.960 . S
H566 C558 0.930 . S
H567 C559 0.929 . S
H568 C576 0.929 1_545 S
H569 C578 0.925 1_545 S
H570 C580 0.930 . S
H571 C583 0.929 . S
H572 C586 0.930 . S
H573 C588 0.960 . S
H574 C588 0.960 . S
H575 C588 0.960 . S
C576 H568 0.929 1_565 S
C576 C577 1.377 . S
C576 C578 1.384 . S
C577 C576 1.377 . S
C577 C583 1.390 . S
C578 H569 0.925 1_565 S
C578 C576 1.384 . S
C578 C579 1.372 . S
C579 C578 1.372 . S
C579 C580 1.400 . S
C579 C584 1.490 . S
C580 H570 0.930 . S
C580 C579 1.400 . S
C580 C583 1.386 . S
H581 C597 0.930 . S
H582 C598 0.931 . S
C583 H571 0.929 . S
C583 C577 1.390 . S
C583 C580 1.386 . S
C584 C579 1.490 . S
C584 C586 1.395 . S
C584 C587 1.403 . S
H585 C591 0.925 1_545 S
C586 H572 0.930 . S
C586 C584 1.395 . S
C586 C589 1.403 . S
C587 C584 1.403 . S
C587 C588 1.524 1_565 S
C587 C591 1.400 . S
C588 H573 0.960 . S
C588 H574 0.960 . S
C588 H575 0.960 . S
C588 C587 1.524 1_545 S
C589 C586 1.403 . S
C589 C590 1.392 . S
C589 C593 1.495 . S
C590 C589 1.392 . S
C590 C591 1.385 . S
C590 C592 1.478 . S
C591 H585 0.925 1_565 S
C591 C587 1.400 . S
C591 C590 1.385 . S
C592 C590 1.478 . S
C592 C594 1.381 . S
C592 C598 1.383 . S
C593 C589 1.495 . S
C593 H599 0.959 . S
C593 H600 0.961 . S
C593 H601 0.960 . S
C594 C592 1.381 . S
C594 C595 1.394 . S
C594 H602 0.930 . S
C595 C594 1.394 . S
C595 C596 1.383 . S
C595 H603 0.929 . S
C596 C595 1.383 . S
C596 C597 1.377 . S
C597 H581 0.930 . S
C597 C596 1.377 . S
C597 C598 1.379 . S
C598 H582 0.931 . S
C598 C592 1.383 . S
C598 C597 1.379 . S
H599 C593 0.959 . S
H600 C593 0.961 . S
H601 C593 0.960 . S
H602 C594 0.930 . S
H603 C595 0.929 . S
H604 C612 0.929 . S
H605 C614 0.930 . S
H606 C616 0.930 . S
H607 C619 0.929 . S
H608 C622 0.930 . S
H609 C624 0.960 . S
H610 C624 0.960 . S
H611 C624 0.960 . S
C612 H604 0.929 . S
C612 C613 1.377 . S
C612 C614 1.384 . S
C613 C612 1.377 . S
C613 C619 1.390 . S
C614 H605 0.930 . S
C614 C612 1.384 . S
C614 C615 1.372 . S
C615 C614 1.372 . S
C615 C616 1.400 . S
C615 C620 1.490 . S
C616 H606 0.930 . S
C616 C615 1.400 . S
C616 C619 1.386 . S
H617 C633 0.930 . S
H618 C634 0.931 . S
C619 H607 0.929 . S
C619 C613 1.390 . S
C619 C616 1.386 . S
C620 C615 1.490 . S
C620 C622 1.395 . S
C620 C623 1.403 . S
H621 C627 0.930 . S
C622 H608 0.930 . S
C622 C620 1.395 . S
C622 C625 1.403 . S
C623 C620 1.403 . S
C623 C624 1.524 . S
C623 C627 1.400 . S
C624 H609 0.960 . S
C624 H610 0.960 . S
C624 H611 0.960 . S
C624 C623 1.524 . S
C625 C622 1.403 . S
C625 C626 1.392 . S
C625 C629 1.495 . S
C626 C625 1.392 . S
C626 C627 1.385 . S
C626 C628 1.478 . S
C627 H621 0.930 . S
C627 C623 1.400 . S
C627 C626 1.385 . S
C628 C626 1.478 . S
C628 C630 1.381 . S
C628 C634 1.383 . S
C629 C625 1.495 . S
C629 H635 0.959 . S
C629 H636 0.961 . S
C629 H637 0.960 . S
C630 C628 1.381 . S
C630 C631 1.394 . S
C630 H638 0.930 . S
C631 C630 1.394 . S
C631 C632 1.383 . S
C631 H639 0.929 . S
C632 C631 1.383 . S
C632 C633 1.377 . S
C633 H617 0.930 . S
C633 C632 1.377 . S
C633 C634 1.379 . S
C634 H618 0.931 . S
C634 C628 1.383 . S
C634 C633 1.379 . S
H635 C629 0.959 . S
H636 C629 0.961 . S
H637 C629 0.960 . S
H638 C630 0.930 . S
H639 C631 0.929 . S
H640 C648 0.929 1_556 S
H641 C650 0.930 1_556 S
H642 C652 0.930 . S
H643 C655 0.929 . S
H644 C658 0.930 . S
H645 C660 0.960 . S
H646 C660 0.960 . S
H647 C660 0.960 . S
C648 H640 0.929 1_554 S
C648 C649 1.377 . S
C648 C650 1.384 . S
C649 C648 1.377 . S
C649 C655 1.390 . S
C650 H641 0.930 1_554 S
C650 C648 1.384 . S
C650 C651 1.372 . S
C651 C650 1.372 . S
C651 C652 1.400 . S
C651 C656 1.490 . S
C652 H642 0.930 . S
C652 C651 1.400 . S
C652 C655 1.386 . S
H653 C669 0.930 . S
H654 C670 0.931 . S
C655 H643 0.929 . S
C655 C649 1.390 . S
C655 C652 1.386 . S
C656 C651 1.490 . S
C656 C658 1.395 . S
C656 C659 1.403 . S
H657 C663 0.930 . S
C658 H644 0.930 . S
C658 C656 1.395 . S
C658 C661 1.403 . S
C659 C656 1.403 . S
C659 C660 1.524 . S
C659 C663 1.400 . S
C660 H645 0.960 . S
C660 H646 0.960 . S
C660 H647 0.960 . S
C660 C659 1.524 . S
C661 C658 1.403 . S
C661 C662 1.392 . S
C661 C665 1.495 . S
C662 C661 1.392 . S
C662 C663 1.385 . S
C662 C664 1.478 . S
C663 H657 0.930 . S
C663 C659 1.400 . S
C663 C662 1.385 . S
C664 C662 1.478 . S
C664 C666 1.381 . S
C664 C670 1.383 . S
C665 C661 1.495 . S
C665 H671 0.959 . S
C665 H672 0.961 . S
C665 H673 0.960 . S
C666 C664 1.381 . S
C666 C667 1.394 . S
C666 H674 0.930 1_554 S
C667 C666 1.394 . S
C667 C668 1.383 . S
C667 H675 0.929 1_554 S
C668 C667 1.383 . S
C668 C669 1.377 . S
C669 H653 0.930 . S
C669 C668 1.377 . S
C669 C670 1.379 . S
C670 H654 0.931 . S
C670 C664 1.383 . S
C670 C669 1.379 . S
H671 C665 0.959 . S
H672 C665 0.961 . S
H673 C665 0.960 . S
H674 C666 0.930 1_556 S
H675 C667 0.929 1_556 S
H676 C684 0.929 . S
H677 C686 0.930 . S
H678 C688 0.930 . S
H679 C691 0.929 . S
H680 C694 0.930 . S
H681 C696 0.960 . S
H682 C696 0.960 . S
H683 C696 0.960 . S
C684 H676 0.929 . S
C684 C685 1.377 . S
C684 C686 1.384 . S
C685 C684 1.377 . S
C685 C691 1.390 . S
C686 H677 0.930 . S
C686 C684 1.384 . S
C686 C687 1.372 . S
C687 C686 1.372 . S
C687 C688 1.400 . S
C687 C692 1.490 . S
C688 H678 0.930 . S
C688 C687 1.400 . S
C688 C691 1.386 . S
H689 C705 0.930 . S
H690 C706 0.931 . S
C691 H679 0.929 . S
C691 C685 1.390 . S
C691 C688 1.386 . S
C692 C687 1.490 . S
C692 C694 1.395 . S
C692 C695 1.403 . S
H693 C699 0.930 . S
C694 H680 0.930 . S
C694 C692 1.395 . S
C694 C697 1.403 . S
C695 C692 1.403 . S
C695 C696 1.524 . S
C695 C699 1.400 . S
C696 H681 0.960 . S
C696 H682 0.960 . S
C696 H683 0.960 . S
C696 C695 1.524 . S
C697 C694 1.403 . S
C697 C698 1.392 . S
C697 C701 1.495 . S
C698 C697 1.392 . S
C698 C699 1.385 . S
C698 C700 1.478 . S
C699 H693 0.930 . S
C699 C695 1.400 . S
C699 C698 1.385 . S
C700 C698 1.478 . S
C700 C702 1.381 . S
C700 C706 1.383 . S
C701 C697 1.495 . S
C701 H707 0.959 . S
C701 H708 0.961 . S
C701 H709 0.960 . S
C702 C700 1.381 . S
C702 C703 1.394 . S
C702 H710 0.930 . S
C703 C702 1.394 . S
C703 C704 1.383 . S
C703 H711 0.929 . S
C704 C703 1.383 . S
C704 C705 1.377 . S
C705 H689 0.930 . S
C705 C704 1.377 . S
C705 C706 1.379 . S
C706 H690 0.931 . S
C706 C700 1.383 . S
C706 C705 1.379 . S
H707 C701 0.959 . S
H708 C701 0.961 . S
H709 C701 0.960 . S
H710 C702 0.930 . S
H711 C703 0.929 . S
H712 C720 0.929 . S
H713 C722 0.930 . S
H714 C724 0.930 . S
H715 C727 0.929 . S
H716 C730 0.930 . S
H717 C732 0.960 . S
H718 C732 0.960 . S
H719 C732 0.960 . S
C720 H712 0.929 . S
C720 C721 1.377 . S
C720 C722 1.384 . S
C721 C720 1.377 . S
C721 C727 1.390 . S
C722 H713 0.930 . S
C722 C720 1.384 . S
C722 C723 1.372 . S
C723 C722 1.372 . S
C723 C724 1.400 . S
C723 C728 1.490 . S
C724 H714 0.930 . S
C724 C723 1.400 . S
C724 C727 1.386 . S
H725 C741 0.930 . S
H726 C742 0.931 . S
C727 H715 0.929 . S
C727 C721 1.390 . S
C727 C724 1.386 . S
C728 C723 1.490 . S
C728 C730 1.395 . S
C728 C731 1.403 . S
H729 C735 0.930 . S
C730 H716 0.930 . S
C730 C728 1.395 . S
C730 C733 1.403 . S
C731 C728 1.403 . S
C731 C732 1.524 . S
C731 C735 1.400 . S
C732 H717 0.960 . S
C732 H718 0.960 . S
C732 H719 0.960 . S
C732 C731 1.524 . S
C733 C730 1.403 . S
C733 C734 1.392 . S
C733 C737 1.495 . S
C734 C733 1.392 . S
C734 C735 1.385 . S
C734 C736 1.478 . S
C735 H729 0.930 . S
C735 C731 1.400 . S
C735 C734 1.385 . S
C736 C734 1.478 . S
C736 C738 1.381 . S
C736 C742 1.383 . S
C737 C733 1.495 . S
C737 H743 0.959 . S
C737 H744 0.961 . S
C737 H745 0.960 . S
C738 C736 1.381 . S
C738 C739 1.394 . S
C738 H746 0.930 . S
C739 C738 1.394 . S
C739 C740 1.383 . S
C739 H747 0.929 . S
C740 C739 1.383 . S
C740 C741 1.377 . S
C741 H725 0.930 . S
C741 C740 1.377 . S
C741 C742 1.379 . S
C742 H726 0.931 . S
C742 C736 1.383 . S
C742 C741 1.379 . S
H743 C737 0.959 . S
H744 C737 0.961 . S
H745 C737 0.960 . S
H746 C738 0.930 . S
H747 C739 0.929 . S
H748 C756 0.929 . S
H749 C758 0.930 . S
H750 C760 0.930 . S
H751 C763 0.929 . S
H752 C766 0.930 . S
H753 C768 0.960 . S
H754 C768 0.960 . S
H755 C768 0.960 . S
C756 H748 0.929 . S
C756 C757 1.377 . S
C756 C758 1.384 . S
C757 C756 1.377 . S
C757 C763 1.390 . S
C758 H749 0.930 . S
C758 C756 1.384 . S
C758 C759 1.372 . S
C759 C758 1.372 . S
C759 C760 1.400 . S
C759 C764 1.490 . S
C760 H750 0.930 . S
C760 C759 1.400 . S
C760 C763 1.386 . S
H761 C777 0.930 . S
H762 C778 0.931 . S
C763 H751 0.929 . S
C763 C757 1.390 . S
C763 C760 1.386 . S
C764 C759 1.490 . S
C764 C766 1.395 . S
C764 C767 1.403 . S
H765 C771 0.930 . S
C766 H752 0.930 . S
C766 C764 1.395 . S
C766 C769 1.403 . S
C767 C764 1.403 . S
C767 C768 1.524 . S
C767 C771 1.400 . S
C768 H753 0.960 . S
C768 H754 0.960 . S
C768 H755 0.960 . S
C768 C767 1.524 . S
C769 C766 1.403 . S
C769 C770 1.392 . S
C769 C773 1.495 . S
C770 C769 1.392 . S
C770 C771 1.385 . S
C770 C772 1.478 . S
C771 H765 0.930 . S
C771 C767 1.400 . S
C771 C770 1.385 . S
C772 C770 1.478 . S
C772 C774 1.381 . S
C772 C778 1.383 . S
C773 C769 1.495 . S
C773 H779 0.959 . S
C773 H780 0.961 . S
C773 H781 0.960 . S
C774 C772 1.381 . S
C774 C775 1.394 . S
C774 H782 0.930 . S
C775 C774 1.394 . S
C775 C776 1.383 . S
C775 H783 0.929 . S
C776 C775 1.383 . S
C776 C777 1.377 . S
C777 H761 0.930 . S
C777 C776 1.377 . S
C777 C778 1.379 . S
C778 H762 0.931 . S
C778 C772 1.383 . S
C778 C777 1.379 . S
H779 C773 0.959 . S
H780 C773 0.961 . S
H781 C773 0.960 . S
H782 C774 0.930 . S
H783 C775 0.929 . S
H784 C792 0.929 . S
H785 C794 0.930 . S
H786 C796 0.930 . S
H787 C799 0.929 . S
H788 C802 0.930 . S
H789 C804 0.960 . S
H790 C804 0.960 . S
H791 C804 0.960 . S
C792 H784 0.929 . S
C792 C793 1.377 . S
C792 C794 1.384 . S
C793 C792 1.377 . S
C793 C799 1.390 . S
C794 H785 0.930 . S
C794 C792 1.384 . S
C794 C795 1.372 . S
C795 C794 1.372 . S
C795 C796 1.400 . S
C795 C800 1.490 . S
C796 H786 0.930 . S
C796 C795 1.400 . S
C796 C799 1.386 . S
H797 C813 0.930 . S
H798 C814 0.931 . S
C799 H787 0.929 . S
C799 C793 1.390 . S
C799 C796 1.386 . S
C800 C795 1.490 . S
C800 C802 1.395 . S
C800 C803 1.403 . S
H801 C807 0.930 . S
C802 H788 0.930 . S
C802 C800 1.395 . S
C802 C805 1.403 . S
C803 C800 1.403 . S
C803 C804 1.524 . S
C803 C807 1.400 . S
C804 H789 0.960 . S
C804 H790 0.960 . S
C804 H791 0.960 . S
C804 C803 1.524 . S
C805 C802 1.403 . S
C805 C806 1.392 . S
C805 C809 1.495 . S
C806 C805 1.392 . S
C806 C807 1.385 . S
C806 C808 1.478 . S
C807 H801 0.930 . S
C807 C803 1.400 . S
C807 C806 1.385 . S
C808 C806 1.478 . S
C808 C810 1.381 . S
C808 C814 1.383 . S
C809 C805 1.495 . S
C809 H815 0.959 . S
C809 H816 0.961 . S
C809 H817 0.960 . S
C810 C808 1.381 . S
C810 C811 1.394 . S
C810 H818 0.930 . S
C811 C810 1.394 . S
C811 C812 1.383 . S
C811 H819 0.929 . S
C812 C811 1.383 . S
C812 C813 1.377 . S
C813 H797 0.930 . S
C813 C812 1.377 . S
C813 C814 1.379 . S
C814 H798 0.931 . S
C814 C808 1.383 . S
C814 C813 1.379 . S
H815 C809 0.959 . S
H816 C809 0.961 . S
H817 C809 0.960 . S
H818 C810 0.930 . S
H819 C811 0.929 . S
H820 C828 0.929 . S
H821 C830 0.930 . S
H822 C832 0.930 . S
H823 C835 0.929 . S
H824 C838 0.930 . S
H825 C840 0.960 . S
H826 C840 0.960 . S
H827 C840 0.960 . S
C828 H820 0.929 . S
C828 C829 1.377 . S
C828 C830 1.384 . S
C829 C828 1.377 . S
C829 C835 1.390 . S
C830 H821 0.930 . S
C830 C828 1.384 . S
C830 C831 1.372 . S
C831 C830 1.372 . S
C831 C832 1.400 . S
C831 C836 1.490 . S
C832 H822 0.930 . S
C832 C831 1.400 . S
C832 C835 1.386 . S
H833 C849 0.930 . S
H834 C850 0.931 . S
C835 H823 0.929 . S
C835 C829 1.390 . S
C835 C832 1.386 . S
C836 C831 1.490 . S
C836 C838 1.395 . S
C836 C839 1.403 . S
H837 C843 0.930 . S
C838 H824 0.930 . S
C838 C836 1.395 . S
C838 C841 1.403 . S
C839 C836 1.403 . S
C839 C840 1.524 . S
C839 C843 1.400 . S
C840 H825 0.960 . S
C840 H826 0.960 . S
C840 H827 0.960 . S
C840 C839 1.524 . S
C841 C838 1.403 . S
C841 C842 1.392 . S
C841 C845 1.495 . S
C842 C841 1.392 . S
C842 C843 1.385 . S
C842 C844 1.478 . S
C843 H837 0.930 . S
C843 C839 1.400 . S
C843 C842 1.385 . S
C844 C842 1.478 . S
C844 C846 1.381 . S
C844 C850 1.383 . S
C845 C841 1.495 . S
C845 H851 0.959 . S
C845 H852 0.961 . S
C845 H853 0.960 . S
C846 C844 1.381 . S
C846 C847 1.394 . S
C846 H854 0.930 . S
C847 C846 1.394 . S
C847 C848 1.383 . S
C847 H855 0.929 . S
C848 C847 1.383 . S
C848 C849 1.377 . S
C849 H833 0.930 . S
C849 C848 1.377 . S
C849 C850 1.379 . S
C850 H834 0.931 . S
C850 C844 1.383 . S
C850 C849 1.379 . S
H851 C845 0.959 . S
H852 C845 0.961 . S
H853 C845 0.960 . S
H854 C846 0.930 . S
H855 C847 0.929 . S
H856 C864 0.929 . S
H857 C866 0.930 . S
H858 C868 0.930 . S
H859 C871 0.929 . S
H860 C874 0.930 . S
H861 C876 0.960 . S
H862 C876 0.960 . S
H863 C876 0.960 . S
C864 H856 0.929 . S
C864 C865 1.377 . S
C864 C866 1.384 . S
C865 C864 1.377 . S
C865 C871 1.390 . S
C866 H857 0.930 . S
C866 C864 1.384 . S
C866 C867 1.372 . S
C867 C866 1.372 . S
C867 C868 1.400 . S
C867 C872 1.490 . S
C868 H858 0.930 . S
C868 C867 1.400 . S
C868 C871 1.386 . S
H869 C885 0.930 . S
H870 C886 0.931 . S
C871 H859 0.929 . S
C871 C865 1.390 . S
C871 C868 1.386 . S
C872 C867 1.490 . S
C872 C874 1.395 . S
C872 C875 1.403 . S
H873 C879 0.930 . S
C874 H860 0.930 . S
C874 C872 1.395 . S
C874 C877 1.403 . S
C875 C872 1.403 . S
C875 C876 1.524 . S
C875 C879 1.400 . S
C876 H861 0.960 . S
C876 H862 0.960 . S
C876 H863 0.960 . S
C876 C875 1.524 . S
C877 C874 1.403 . S
C877 C878 1.392 . S
C877 C881 1.495 . S
C878 C877 1.392 . S
C878 C879 1.385 . S
C878 C880 1.478 . S
C879 H873 0.930 . S
C879 C875 1.400 . S
C879 C878 1.385 . S
C880 C878 1.478 . S
C880 C882 1.381 . S
C880 C886 1.383 . S
C881 C877 1.495 . S
C881 H887 0.959 . S
C881 H888 0.961 . S
C881 H889 0.960 . S
C882 C880 1.381 . S
C882 C883 1.394 . S
C882 H890 0.930 . S
C883 C882 1.394 . S
C883 C884 1.383 . S
C883 H891 0.929 . S
C884 C883 1.383 . S
C884 C885 1.377 . S
C885 H869 0.930 . S
C885 C884 1.377 . S
C885 C886 1.379 . S
C886 H870 0.931 . S
C886 C880 1.383 . S
C886 C885 1.379 . S
H887 C881 0.959 . S
H888 C881 0.961 . S
H889 C881 0.960 . S
H890 C882 0.930 . S
H891 C883 0.929 . S
H892 C900 0.929 . S
H893 C902 0.930 . S
H894 C904 0.930 . S
H895 C907 0.929 . S
H896 C910 0.930 . S
H897 C912 0.960 . S
H898 C912 0.960 . S
H899 C912 0.960 . S
C900 H892 0.929 . S
C900 C901 1.377 . S
C900 C902 1.384 . S
C901 C900 1.377 . S
C901 C907 1.390 . S
C902 H893 0.930 . S
C902 C900 1.384 . S
C902 C903 1.372 . S
C903 C902 1.372 . S
C903 C904 1.400 . S
C903 C908 1.490 . S
C904 H894 0.930 . S
C904 C903 1.400 . S
C904 C907 1.386 . S
H905 C921 0.930 . S
H906 C922 0.931 . S
C907 H895 0.929 . S
C907 C901 1.390 . S
C907 C904 1.386 . S
C908 C903 1.490 . S
C908 C910 1.395 . S
C908 C911 1.403 . S
H909 C915 0.930 . S
C910 H896 0.930 . S
C910 C908 1.395 . S
C910 C913 1.403 . S
C911 C908 1.403 . S
C911 C912 1.524 . S
C911 C915 1.400 . S
C912 H897 0.960 . S
C912 H898 0.960 . S
C912 H899 0.960 . S
C912 C911 1.524 . S
C913 C910 1.403 . S
C913 C914 1.392 . S
C913 C917 1.495 . S
C914 C913 1.392 . S
C914 C915 1.385 . S
C914 C916 1.478 . S
C915 H909 0.930 . S
C915 C911 1.400 . S
C915 C914 1.385 . S
C916 C914 1.478 . S
C916 C918 1.381 . S
C916 C922 1.383 . S
C917 C913 1.495 . S
C917 H923 0.959 . S
C917 H924 0.961 . S
C917 H925 0.960 . S
C918 C916 1.381 . S
C918 C919 1.394 . S
C918 H926 0.930 . S
C919 C918 1.394 . S
C919 C920 1.383 . S
C919 H927 0.929 . S
C920 C919 1.383 . S
C920 C921 1.377 . S
C921 H905 0.930 . S
C921 C920 1.377 . S
C921 C922 1.379 . S
C922 H906 0.931 . S
C922 C916 1.383 . S
C922 C921 1.379 . S
H923 C917 0.959 . S
H924 C917 0.961 . S
H925 C917 0.960 . S
H926 C918 0.930 . S
H927 C919 0.929 . S
H928 C936 0.929 . S
H929 C938 0.930 . S
H930 C940 0.930 . S
H931 C943 0.929 . S
H932 C946 0.930 . S
H933 C948 0.960 . S
H934 C948 0.960 . S
H935 C948 0.960 . S
C936 H928 0.929 . S
C936 C937 1.377 . S
C936 C938 1.384 . S
C937 C936 1.377 . S
C937 C943 1.390 . S
C938 H929 0.930 . S
C938 C936 1.384 . S
C938 C939 1.372 . S
C939 C938 1.372 . S
C939 C940 1.400 . S
C939 C944 1.490 . S
C940 H930 0.930 . S
C940 C939 1.400 . S
C940 C943 1.386 . S
H941 C957 0.930 . S
H942 C958 0.931 . S
C943 H931 0.929 . S
C943 C937 1.390 . S
C943 C940 1.386 . S
C944 C939 1.490 . S
C944 C946 1.395 . S
C944 C947 1.403 . S
H945 C951 0.930 . S
C946 H932 0.930 . S
C946 C944 1.395 . S
C946 C949 1.403 . S
C947 C944 1.403 . S
C947 C948 1.524 . S
C947 C951 1.400 . S
C948 H933 0.960 . S
C948 H934 0.960 . S
C948 H935 0.960 . S
C948 C947 1.524 . S
C949 C946 1.403 . S
C949 C950 1.392 . S
C949 C953 1.495 . S
C950 C949 1.392 . S
C950 C951 1.385 . S
C950 C952 1.478 . S
C951 H945 0.930 . S
C951 C947 1.400 . S
C951 C950 1.385 . S
C952 C950 1.478 . S
C952 C954 1.381 . S
C952 C958 1.383 . S
C953 C949 1.495 . S
C953 H959 0.959 . S
C953 H960 0.961 . S
C953 H961 0.960 . S
C954 C952 1.381 . S
C954 C955 1.394 . S
C954 H962 0.930 . S
C955 C954 1.394 . S
C955 C956 1.383 . S
C955 H963 0.929 . S
C956 C955 1.383 . S
C956 C957 1.377 . S
C957 H941 0.930 . S
C957 C956 1.377 . S
C957 C958 1.379 . S
C958 H942 0.931 . S
C958 C952 1.383 . S
C958 C957 1.379 . S
H959 C953 0.959 . S
H960 C953 0.961 . S
H961 C953 0.960 . S
H962 C954 0.930 . S
H963 C955 0.929 . S
H964 C972 0.929 . S
H965 C974 0.930 . S
H966 C976 0.930 . S
H967 C979 0.929 . S
H968 C982 0.930 . S
H969 C984 0.960 . S
H970 C984 0.960 . S
H971 C984 0.960 . S
C972 H964 0.929 . S
C972 C973 1.377 1_565 S
C972 C974 1.384 . S
C973 C972 1.377 1_545 S
C973 C979 1.390 . S
C974 H965 0.930 . S
C974 C972 1.384 . S
C974 C975 1.372 . S
C975 C974 1.372 . S
C975 C976 1.400 1_565 S
C975 C980 1.490 . S
C976 H966 0.930 . S
C976 C975 1.400 1_545 S
C976 C979 1.386 . S
H977 C993 0.930 1_545 S
H978 C994 0.931 1_545 S
C979 H967 0.929 . S
C979 C973 1.390 . S
C979 C976 1.386 . S
C980 C975 1.490 . S
C980 C982 1.395 . S
C980 C983 1.403 1_565 S
H981 C987 0.930 1_545 S
C982 H968 0.930 . S
C982 C980 1.395 . S
C982 C985 1.403 . S
C983 C980 1.403 1_545 S
C983 C984 1.524 . S
C983 C987 1.400 1_545 S
C984 H969 0.960 . S
C984 H970 0.960 . S
C984 H971 0.960 . S
C984 C983 1.524 . S
C985 C982 1.403 . S
C985 C986 1.392 . S
C985 C989 1.495 . S
C986 C985 1.392 . S
C986 C987 1.385 . S
C986 C988 1.478 . S
C987 H981 0.930 1_565 S
C987 C983 1.400 1_565 S
C987 C986 1.385 . S
C988 C986 1.478 . S
C988 C990 1.381 . S
C988 C994 1.383 . S
C989 C985 1.495 . S
C989 H995 0.959 . S
C989 H996 0.961 . S
C989 H997 0.960 . S
C990 C988 1.381 . S
C990 C991 1.394 . S
C990 H998 0.930 . S
C991 C990 1.394 . S
C991 C992 1.383 . S
C991 H999 0.929 . S
C992 C991 1.383 . S
C992 C993 1.377 . S
C993 H977 0.930 1_565 S
C993 C992 1.377 . S
C993 C994 1.379 . S
C994 H978 0.931 1_565 S
C994 C988 1.383 . S
C994 C993 1.379 . S
H995 C989 0.959 . S
H996 C989 0.961 . S
H997 C989 0.960 . S
H998 C990 0.930 . S
H999 C991 0.929 . S
H1000 C1008 0.929 . S
H1001 C1010 0.930 . S
H1002 C1012 0.930 . S
H1003 C1015 0.929 . S
H1004 C1018 0.930 . S
H1005 C1020 0.960 . S
H1006 C1020 0.960 . S
H1007 C1020 0.960 . S
C1008 H1000 0.929 . S
C1008 C1009 1.377 . S
C1008 C1010 1.384 . S
C1009 C1008 1.377 . S
C1009 C1015 1.390 . S
C1010 H1001 0.930 . S
C1010 C1008 1.384 . S
C1010 C1011 1.372 . S
C1011 C1010 1.372 . S
C1011 C1012 1.400 . S
C1011 C1016 1.490 . S
C1012 H1002 0.930 . S
C1012 C1011 1.400 . S
C1012 C1015 1.386 . S
H1013 C1029 0.930 . S
H1014 C1030 0.931 . S
C1015 H1003 0.929 . S
C1015 C1009 1.390 . S
C1015 C1012 1.386 . S
C1016 C1011 1.490 . S
C1016 C1018 1.395 . S
C1016 C1019 1.403 . S
H1017 C1023 0.930 . S
C1018 H1004 0.930 . S
C1018 C1016 1.395 . S
C1018 C1021 1.403 . S
C1019 C1016 1.403 . S
C1019 C1020 1.524 . S
C1019 C1023 1.400 . S
C1020 H1005 0.960 . S
C1020 H1006 0.960 . S
C1020 H1007 0.960 . S
C1020 C1019 1.524 . S
C1021 C1018 1.403 . S
C1021 C1022 1.392 . S
C1021 C1025 1.495 . S
C1022 C1021 1.392 . S
C1022 C1023 1.385 . S
C1022 C1024 1.478 . S
C1023 H1017 0.930 . S
C1023 C1019 1.400 . S
C1023 C1022 1.385 . S
C1024 C1022 1.478 . S
C1024 C1026 1.381 . S
C1024 C1030 1.383 . S
C1025 C1021 1.495 . S
C1025 H1031 0.959 . S
C1025 H1032 0.961 . S
C1025 H1033 0.960 . S
C1026 C1024 1.381 . S
C1026 C1027 1.394 . S
C1026 H1034 0.930 . S
C1027 C1026 1.394 . S
C1027 C1028 1.383 . S
C1027 H1035 0.929 . S
C1028 C1027 1.383 . S
C1028 C1029 1.377 . S
C1029 H1013 0.930 . S
C1029 C1028 1.377 . S
C1029 C1030 1.379 . S
C1030 H1014 0.931 . S
C1030 C1024 1.383 . S
C1030 C1029 1.379 . S
H1031 C1025 0.959 . S
H1032 C1025 0.961 . S
H1033 C1025 0.960 . S
H1034 C1026 0.930 . S
H1035 C1027 0.929 . S
H1036 C1044 0.929 1_565 S
H1037 C1046 0.930 1_565 S
H1038 C1048 0.930 . S
H1039 C1051 0.929 . S
H1040 C1054 0.930 . S
H1041 C1056 0.960 . S
H1042 C1056 0.960 . S
H1043 C1056 0.960 . S
C1044 H1036 0.929 1_545 S
C1044 C1045 1.377 . S
C1044 C1046 1.384 . S
C1045 C1044 1.377 . S
C1045 C1051 1.390 . S
C1046 H1037 0.930 1_545 S
C1046 C1044 1.384 . S
C1046 C1047 1.372 . S
C1047 C1046 1.372 . S
C1047 C1048 1.400 . S
C1047 C1052 1.490 . S
C1048 H1038 0.930 . S
C1048 C1047 1.400 . S
C1048 C1051 1.386 . S
H1049 C1065 0.930 . S
H1050 C1066 0.931 . S
C1051 H1039 0.929 . S
C1051 C1045 1.390 . S
C1051 C1048 1.386 . S
C1052 C1047 1.490 . S
C1052 C1054 1.395 . S
C1052 C1055 1.403 . S
H1053 C1059 0.930 . S
C1054 H1040 0.930 . S
C1054 C1052 1.395 . S
C1054 C1057 1.403 . S
C1055 C1052 1.403 . S
C1055 C1056 1.524 . S
C1055 C1059 1.400 . S
C1056 H1041 0.960 . S
C1056 H1042 0.960 . S
C1056 H1043 0.960 . S
C1056 C1055 1.524 . S
C1057 C1054 1.403 . S
C1057 C1058 1.392 . S
C1057 C1061 1.495 1_545 S
C1058 C1057 1.392 . S
C1058 C1059 1.385 . S
C1058 C1060 1.478 . S
C1059 H1053 0.930 . S
C1059 C1055 1.400 . S
C1059 C1058 1.385 . S
C1060 C1058 1.478 . S
C1060 C1062 1.381 . S
C1060 C1066 1.383 . S
C1061 C1057 1.495 1_565 S
C1061 H1067 0.959 . S
C1061 H1068 0.961 1_565 S
C1061 H1069 0.960 . S
C1062 C1060 1.381 . S
C1062 C1063 1.394 . S
C1062 H1070 0.930 1_545 S
C1063 C1062 1.394 . S
C1063 C1064 1.383 . S
C1063 H1071 0.929 1_545 S
C1064 C1063 1.383 . S
C1064 C1065 1.377 . S
C1065 H1049 0.930 . S
C1065 C1064 1.377 . S
C1065 C1066 1.379 . S
C1066 H1050 0.931 . S
C1066 C1060 1.383 . S
C1066 C1065 1.379 . S
H1067 C1061 0.959 . S
H1068 C1061 0.961 1_545 S
H1069 C1061 0.960 . S
H1070 C1062 0.930 1_565 S
H1071 C1063 0.929 1_565 S
H1072 C1080 0.929 . S
H1073 C1082 0.930 . S
H1074 C1084 0.930 . S
H1075 C1087 0.929 . S
H1076 C1090 0.930 . S
H1077 C1092 0.960 . S
H1078 C1092 0.960 . S
H1079 C1092 0.960 . S
C1080 H1072 0.929 . S
C1080 C1081 1.377 . S
C1080 C1082 1.384 . S
C1081 C1080 1.377 . S
C1081 C1087 1.390 . S
C1082 H1073 0.930 . S
C1082 C1080 1.384 . S
C1082 C1083 1.372 . S
C1083 C1082 1.372 . S
C1083 C1084 1.400 . S
C1083 C1088 1.490 . S
C1084 H1074 0.930 . S
C1084 C1083 1.400 . S
C1084 C1087 1.386 . S
H1085 C1101 0.930 . S
H1086 C1102 0.931 . S
C1087 H1075 0.929 . S
C1087 C1081 1.390 . S
C1087 C1084 1.386 . S
C1088 C1083 1.490 . S
C1088 C1090 1.395 . S
C1088 C1091 1.403 . S
H1089 C1095 0.930 . S
C1090 H1076 0.930 . S
C1090 C1088 1.395 . S
C1090 C1093 1.403 . S
C1091 C1088 1.403 . S
C1091 C1092 1.524 . S
C1091 C1095 1.400 . S
C1092 H1077 0.960 . S
C1092 H1078 0.960 . S
C1092 H1079 0.960 . S
C1092 C1091 1.524 . S
C1093 C1090 1.403 . S
C1093 C1094 1.392 . S
C1093 C1097 1.495 . S
C1094 C1093 1.392 . S
C1094 C1095 1.385 . S
C1094 C1096 1.478 . S
C1095 H1089 0.930 . S
C1095 C1091 1.400 . S
C1095 C1094 1.385 . S
C1096 C1094 1.478 . S
C1096 C1098 1.381 . S
C1096 C1102 1.383 . S
C1097 C1093 1.495 . S
C1097 H1103 0.959 . S
C1097 H1104 0.961 . S
C1097 H1105 0.960 . S
C1098 C1096 1.381 . S
C1098 C1099 1.394 . S
C1098 H1106 0.930 . S
C1099 C1098 1.394 . S
C1099 C1100 1.383 . S
C1099 H1107 0.929 . S
C1100 C1099 1.383 . S
C1100 C1101 1.377 . S
C1101 H1085 0.930 . S
C1101 C1100 1.377 . S
C1101 C1102 1.379 . S
C1102 H1086 0.931 . S
C1102 C1096 1.383 . S
C1102 C1101 1.379 . S
H1103 C1097 0.959 . S
H1104 C1097 0.961 . S
H1105 C1097 0.960 . S
H1106 C1098 0.930 . S
H1107 C1099 0.929 . S
H1108 C1116 0.929 . S
H1109 C1118 0.930 . S
H1110 C1120 0.930 . S
H1111 C1123 0.929 1_554 S
H1112 C1126 0.930 1_554 S
H1113 C1128 0.960 . S
H1114 C1128 0.960 . S
H1115 C1128 0.960 . S
C1116 H1108 0.929 . S
C1116 C1117 1.377 . S
C1116 C1118 1.384 . S
C1117 C1116 1.377 . S
C1117 C1123 1.390 . S
C1118 H1109 0.930 . S
C1118 C1116 1.384 . S
C1118 C1119 1.372 . S
C1119 C1118 1.372 . S
C1119 C1120 1.400 . S
C1119 C1124 1.490 . S
C1120 H1110 0.930 . S
C1120 C1119 1.400 . S
C1120 C1123 1.386 . S
H1121 C1137 0.930 . S
H1122 C1138 0.931 . S
C1123 H1111 0.929 1_556 S
C1123 C1117 1.390 . S
C1123 C1120 1.386 . S
C1124 C1119 1.490 . S
C1124 C1126 1.395 . S
C1124 C1127 1.403 . S
H1125 C1131 0.930 . S
C1126 H1112 0.930 1_556 S
C1126 C1124 1.395 . S
C1126 C1129 1.403 . S
C1127 C1124 1.403 . S
C1127 C1128 1.524 . S
C1127 C1131 1.400 . S
C1128 H1113 0.960 . S
C1128 H1114 0.960 . S
C1128 H1115 0.960 . S
C1128 C1127 1.524 . S
C1129 C1126 1.403 . S
C1129 C1130 1.392 . S
C1129 C1133 1.495 1_556 S
C1130 C1129 1.392 . S
C1130 C1131 1.385 . S
C1130 C1132 1.478 . S
C1131 H1125 0.930 . S
C1131 C1127 1.400 . S
C1131 C1130 1.385 . S
C1132 C1130 1.478 . S
C1132 C1134 1.381 . S
C1132 C1138 1.383 . S
C1133 C1129 1.495 1_554 S
C1133 H1139 0.959 . S
C1133 H1140 0.961 . S
C1133 H1141 0.964 . S
C1134 C1132 1.381 . S
C1134 C1135 1.394 . S
C1134 H1142 0.930 . S
C1135 C1134 1.394 . S
C1135 C1136 1.383 . S
C1135 H1143 0.929 . S
C1136 C1135 1.383 . S
C1136 C1137 1.377 . S
C1137 H1121 0.930 . S
C1137 C1136 1.377 . S
C1137 C1138 1.379 . S
C1138 H1122 0.931 . S
C1138 C1132 1.383 . S
C1138 C1137 1.379 . S
H1139 C1133 0.959 . S
H1140 C1133 0.961 . S
H1141 C1133 0.964 . S
H1142 C1134 0.930 . S
H1143 C1135 0.929 . S
H1144 C1152 0.929 . S
H1145 C1154 0.930 . S
H1146 C1156 0.930 . S
H1147 C1159 0.929 . S
H1148 C1162 0.930 . S
H1149 C1164 0.960 . S
H1150 C1164 0.960 . S
H1151 C1164 0.960 . S
C1152 H1144 0.929 . S
C1152 C1153 1.377 1_556 S
C1152 C1154 1.384 . S
C1153 C1152 1.377 1_554 S
C1153 C1159 1.390 . S
C1154 H1145 0.930 . S
C1154 C1152 1.384 . S
C1154 C1155 1.372 . S
C1155 C1154 1.372 . S
C1155 C1156 1.400 1_556 S
C1155 C1160 1.490 . S
C1156 H1146 0.930 . S
C1156 C1155 1.400 1_554 S
C1156 C1159 1.386 . S
H1157 C1173 0.930 1_554 S
H1158 C1174 0.931 1_554 S
C1159 H1147 0.929 . S
C1159 C1153 1.390 . S
C1159 C1156 1.386 . S
C1160 C1155 1.490 . S
C1160 C1162 1.395 . S
C1160 C1163 1.403 1_556 S
H1161 C1167 0.911 1_554 S
C1162 H1148 0.930 . S
C1162 C1160 1.395 . S
C1162 C1165 1.403 . S
C1163 C1160 1.403 1_554 S
C1163 C1164 1.524 . S
C1163 C1167 1.390 1_554 S
C1164 H1149 0.960 . S
C1164 H1150 0.960 . S
C1164 H1151 0.960 . S
C1164 C1163 1.524 . S
C1165 C1162 1.403 . S
C1165 C1166 1.392 . S
C1165 C1169 1.495 . S
C1166 C1165 1.392 . S
C1166 C1167 1.415 . S
C1166 C1168 1.478 . S
C1167 H1161 0.911 1_556 S
C1167 C1163 1.390 1_556 S
C1167 C1166 1.415 . S
C1168 C1166 1.478 . S
C1168 C1170 1.381 . S
C1168 C1174 1.383 . S
C1169 C1165 1.495 . S
C1169 H1175 0.959 . S
C1169 H1176 0.961 . S
C1169 H1177 0.960 . S
C1170 C1168 1.381 . S
C1170 C1171 1.394 . S
C1170 H1178 0.930 . S
C1171 C1170 1.394 . S
C1171 C1172 1.383 . S
C1171 H1179 0.929 . S
C1172 C1171 1.383 . S
C1172 C1173 1.377 . S
C1173 H1157 0.930 1_556 S
C1173 C1172 1.377 . S
C1173 C1174 1.379 . S
C1174 H1158 0.931 1_556 S
C1174 C1168 1.383 . S
C1174 C1173 1.379 . S
H1175 C1169 0.959 . S
H1176 C1169 0.961 . S
H1177 C1169 0.960 . S
H1178 C1170 0.930 . S
H1179 C1171 0.929 . S
H1180 C1188 0.929 . S
H1181 C1190 0.930 . S
H1182 C1192 0.930 . S
H1183 C1195 0.929 . S
H1184 C1198 0.930 . S
H1185 C1200 0.960 . S
H1186 C1200 0.960 . S
H1187 C1200 0.960 1_556 S
C1188 H1180 0.929 . S
C1188 C1189 1.377 . S
C1188 C1190 1.384 . S
C1189 C1188 1.377 . S
C1189 C1195 1.390 1_554 S
C1190 H1181 0.930 . S
C1190 C1188 1.384 . S
C1190 C1191 1.372 . S
C1191 C1190 1.372 . S
C1191 C1192 1.400 1_554 S
C1191 C1196 1.490 . S
C1192 H1182 0.930 . S
C1192 C1191 1.400 1_556 S
C1192 C1195 1.386 . S
H1193 C1209 0.895 1_556 S
H1194 C1210 0.936 . S
C1195 H1183 0.929 . S
C1195 C1189 1.390 1_556 S
C1195 C1192 1.386 . S
C1196 C1191 1.490 . S
C1196 C1198 1.395 . S
C1196 C1199 1.403 . S
H1197 C1203 0.930 . S
C1198 H1184 0.930 . S
C1198 C1196 1.395 . S
C1198 C1201 1.403 . S
C1199 C1196 1.403 . S
C1199 C1200 1.524 . S
C1199 C1203 1.400 . S
C1200 H1185 0.960 . S
C1200 H1186 0.960 . S
C1200 H1187 0.960 1_554 S
C1200 C1199 1.524 . S
C1201 C1198 1.403 . S
C1201 C1202 1.392 . S
C1201 C1205 1.495 . S
C1202 C1201 1.392 . S
C1202 C1203 1.385 . S
C1202 C1204 1.478 . S
C1203 H1197 0.930 . S
C1203 C1199 1.400 . S
C1203 C1202 1.385 . S
C1204 C1202 1.478 . S
C1204 C1206 1.381 . S
C1204 C1210 1.378 1_554 S
C1205 C1201 1.495 . S
C1205 H1211 0.959 . S
C1205 H1212 0.961 . S
C1205 H1213 0.960 . S
C1206 C1204 1.381 . S
C1206 C1207 1.394 . S
C1206 H1214 0.930 . S
C1207 C1206 1.394 . S
C1207 C1208 1.383 . S
C1207 H1215 0.929 . S
C1208 C1207 1.383 . S
C1208 C1209 1.413 . S
C1209 H1193 0.895 1_554 S
C1209 C1208 1.413 . S
C1209 C1210 1.378 1_554 S
C1210 H1194 0.936 . S
C1210 C1204 1.378 1_556 S
C1210 C1209 1.378 1_556 S
H1211 C1205 0.959 . S
H1212 C1205 0.961 . S
H1213 C1205 0.960 . S
H1214 C1206 0.930 . S
H1215 C1207 0.929 . S
H1216 C1224 0.929 . S
H1217 C1226 0.913 1_655 S
H1218 C1228 0.930 . S
H1219 C1231 0.929 . S
H1220 C1234 0.930 . S
H1221 C1236 0.960 . S
H1222 C1236 0.960 . S
H1223 C1236 0.960 . S
C1224 H1216 0.929 . S
C1224 C1225 1.377 1_655 S
C1224 C1226 1.380 1_655 S
C1225 C1224 1.377 1_455 S
C1225 C1231 1.390 . S
C1226 H1217 0.913 1_455 S
C1226 C1224 1.380 1_455 S
C1226 C1227 1.394 . S
C1227 C1226 1.394 . S
C1227 C1228 1.400 . S
C1227 C1232 1.490 . S
C1228 H1218 0.930 . S
C1228 C1227 1.400 . S
C1228 C1231 1.386 . S
H1229 C1245 0.930 . S
H1230 C1246 0.931 . S
C1231 H1219 0.929 . S
C1231 C1225 1.390 . S
C1231 C1228 1.386 . S
C1232 C1227 1.490 . S
C1232 C1234 1.395 1_455 S
C1232 C1235 1.403 . S
H1233 C1239 0.930 . S
C1234 H1220 0.930 . S
C1234 C1232 1.395 1_655 S
C1234 C1237 1.405 . S
C1235 C1232 1.403 . S
C1235 C1236 1.524 . S
C1235 C1239 1.400 . S
C1236 H1221 0.960 . S
C1236 H1222 0.960 . S
C1236 H1223 0.960 . S
C1236 C1235 1.524 . S
C1237 C1234 1.405 . S
C1237 C1238 1.370 1_655 S
C1237 C1241 1.516 . S
C1238 C1237 1.370 1_455 S
C1238 C1239 1.385 . S
C1238 C1240 1.478 . S
C1239 H1233 0.930 . S
C1239 C1235 1.400 . S
C1239 C1238 1.385 . S
C1240 C1238 1.478 . S
C1240 C1242 1.381 . S
C1240 C1246 1.383 . S
C1241 C1237 1.516 . S
C1241 H1247 0.959 . S
C1241 H1248 0.961 . S
C1241 H1249 0.960 . S
C1242 C1240 1.381 . S
C1242 C1243 1.394 . S
C1242 H1250 0.930 . S
C1243 C1242 1.394 . S
C1243 C1244 1.383 . S
C1243 H1251 0.929 . S
C1244 C1243 1.383 . S
C1244 C1245 1.377 . S
C1245 H1229 0.930 . S
C1245 C1244 1.377 . S
C1245 C1246 1.379 . S
C1246 H1230 0.931 . S
C1246 C1240 1.383 . S
C1246 C1245 1.379 . S
H1247 C1241 0.959 . S
H1248 C1241 0.961 . S
H1249 C1241 0.960 . S
H1250 C1242 0.930 . S
H1251 C1243 0.929 . S
H1252 C1260 0.929 . S
H1253 C1262 0.930 . S
H1254 C1264 0.952 . S
H1255 C1267 0.929 . S
H1256 C1270 0.930 . S
H1257 C1272 0.960 . S
H1258 C1272 0.960 . S
H1259 C1272 0.960 . S
C1260 H1252 0.929 . S
C1260 C1261 1.377 . S
C1260 C1262 1.384 . S
C1261 C1260 1.377 . S
C1261 C1267 1.390 1_655 S
C1262 H1253 0.930 . S
C1262 C1260 1.384 . S
C1262 C1263 1.372 . S
C1263 C1262 1.372 . S
C1263 C1264 1.378 1_655 S
C1263 C1268 1.490 . S
C1264 H1254 0.952 . S
C1264 C1263 1.378 1_455 S
C1264 C1267 1.388 . S
H1265 C1281 0.930 . S
H1266 C1282 0.931 . S
C1267 H1255 0.929 . S
C1267 C1261 1.390 1_455 S
C1267 C1264 1.388 . S
C1268 C1263 1.490 . S
C1268 C1270 1.395 1_655 S
C1268 C1271 1.403 . S
H1269 C1275 0.930 . S
C1270 H1256 0.930 . S
C1270 C1268 1.395 1_455 S
C1270 C1273 1.403 . S
C1271 C1268 1.403 . S
C1271 C1272 1.524 . S
C1271 C1275 1.400 . S
C1272 H1257 0.960 . S
C1272 H1258 0.960 . S
C1272 H1259 0.960 . S
C1272 C1271 1.524 . S
C1273 C1270 1.403 . S
C1273 C1274 1.392 1_455 S
C1273 C1277 1.495 . S
C1274 C1273 1.392 1_655 S
C1274 C1275 1.385 . S
C1274 C1276 1.478 . S
C1275 H1269 0.930 . S
C1275 C1271 1.400 . S
C1275 C1274 1.385 . S
C1276 C1274 1.478 . S
C1276 C1278 1.381 . S
C1276 C1282 1.383 1_655 S
C1277 C1273 1.495 . S
C1277 H1283 0.959 . S
C1277 H1284 0.961 . S
C1277 H1285 0.960 . S
C1278 C1276 1.381 . S
C1278 C1279 1.394 . S
C1278 H1286 0.930 . S
C1279 C1278 1.394 . S
C1279 C1280 1.383 . S
C1279 H1287 0.929 . S
C1280 C1279 1.383 . S
C1280 C1281 1.377 1_655 S
C1281 H1265 0.930 . S
C1281 C1280 1.377 1_455 S
C1281 C1282 1.379 . S
C1282 H1266 0.931 . S
C1282 C1276 1.383 1_455 S
C1282 C1281 1.379 . S
H1283 C1277 0.959 . S
H1284 C1277 0.961 . S
H1285 C1277 0.960 . S
H1286 C1278 0.930 . S
H1287 C1279 0.929 . S
H1288 C1296 0.929 . S
H1289 C1298 0.930 . S
H1290 C1300 0.930 . S
H1291 C1303 0.929 . S
H1292 C1306 0.930 . S
H1293 C1308 0.960 . S
H1294 C1308 0.960 . S
H1295 C1308 0.960 . S
C1296 H1288 0.929 . S
C1296 C1297 1.377 . S
C1296 C1298 1.384 . S
C1297 C1296 1.377 . S
C1297 C1303 1.390 . S
C1298 H1289 0.930 . S
C1298 C1296 1.384 . S
C1298 C1299 1.372 . S
C1299 C1298 1.372 . S
C1299 C1300 1.400 . S
C1299 C1304 1.490 . S
C1300 H1290 0.930 . S
C1300 C1299 1.400 . S
C1300 C1303 1.386 . S
H1301 C1317 0.930 . S
H1302 C1318 0.931 . S
C1303 H1291 0.929 . S
C1303 C1297 1.390 . S
C1303 C1300 1.386 . S
C1304 C1299 1.490 . S
C1304 C1306 1.395 . S
C1304 C1307 1.403 . S
H1305 C1311 0.930 . S
C1306 H1292 0.930 . S
C1306 C1304 1.395 . S
C1306 C1309 1.403 . S
C1307 C1304 1.403 . S
C1307 C1308 1.524 . S
C1307 C1311 1.400 . S
C1308 H1293 0.960 . S
C1308 H1294 0.960 . S
C1308 H1295 0.960 . S
C1308 C1307 1.524 . S
C1309 C1306 1.403 . S
C1309 C1310 1.392 . S
C1309 C1313 1.495 . S
C1310 C1309 1.392 . S
C1310 C1311 1.385 . S
C1310 C1312 1.478 . S
C1311 H1305 0.930 . S
C1311 C1307 1.400 . S
C1311 C1310 1.385 . S
C1312 C1310 1.478 . S
C1312 C1314 1.381 . S
C1312 C1318 1.383 . S
C1313 C1309 1.495 . S
C1313 H1319 0.959 1_455 S
C1313 H1320 0.961 . S
C1313 H1321 0.959 1_455 S
C1314 C1312 1.381 . S
C1314 C1315 1.394 . S
C1314 H1322 0.930 . S
C1315 C1314 1.394 . S
C1315 C1316 1.383 . S
C1315 H1323 0.929 . S
C1316 C1315 1.383 . S
C1316 C1317 1.377 . S
C1317 H1301 0.930 . S
C1317 C1316 1.377 . S
C1317 C1318 1.379 . S
C1318 H1302 0.931 . S
C1318 C1312 1.383 . S
C1318 C1317 1.379 . S
H1319 C1313 0.959 1_655 S
H1320 C1313 0.961 . S
H1321 C1313 0.959 1_655 S
H1322 C1314 0.930 . S
H1323 C1315 0.929 . S
H1324 C1332 0.929 . S
H1325 C1334 0.930 . S
H1326 C1336 0.930 . S
H1327 C1339 0.929 . S
H1328 C1342 0.930 . S
H1329 C1344 0.960 . S
H1330 C1344 0.960 . S
H1331 C1344 0.960 . S
C1332 H1324 0.929 . S
C1332 C1333 1.377 . S
C1332 C1334 1.384 . S
C1333 C1332 1.377 . S
C1333 C1339 1.390 . S
C1334 H1325 0.930 . S
C1334 C1332 1.384 . S
C1334 C1335 1.372 . S
C1335 C1334 1.372 . S
C1335 C1336 1.400 . S
C1335 C1340 1.490 . S
C1336 H1326 0.930 . S
C1336 C1335 1.400 . S
C1336 C1339 1.386 . S
H1337 C1353 0.930 . S
H1338 C1354 0.931 . S
C1339 H1327 0.929 . S
C1339 C1333 1.390 . S
C1339 C1336 1.386 . S
C1340 C1335 1.490 . S
C1340 C1342 1.395 . S
C1340 C1343 1.403 1_455 S
H1341 C1347 0.930 . S
C1342 H1328 0.930 . S
C1342 C1340 1.395 . S
C1342 C1345 1.403 . S
C1343 C1340 1.403 1_655 S
C1343 C1344 1.524 . S
C1343 C1347 1.400 . S
C1344 H1329 0.960 . S
C1344 H1330 0.960 . S
C1344 H1331 0.960 . S
C1344 C1343 1.524 . S
C1345 C1342 1.403 . S
C1345 C1346 1.392 . S
C1345 C1349 1.495 . S
C1346 C1345 1.392 . S
C1346 C1347 1.385 1_455 S
C1346 C1348 1.478 . S
C1347 H1341 0.930 . S
C1347 C1343 1.400 . S
C1347 C1346 1.385 1_655 S
C1348 C1346 1.478 . S
C1348 C1350 1.381 1_455 S
C1348 C1354 1.383 1_455 S
C1349 C1345 1.495 . S
C1349 H1355 0.959 . S
C1349 H1356 0.961 . S
C1349 H1357 0.960 . S
C1350 C1348 1.381 1_655 S
C1350 C1351 1.394 . S
C1350 H1358 0.930 1_655 S
C1351 C1350 1.394 . S
C1351 C1352 1.383 . S
C1351 H1359 0.929 . S
C1352 C1351 1.383 . S
C1352 C1353 1.377 . S
C1353 H1337 0.930 . S
C1353 C1352 1.377 . S
C1353 C1354 1.379 . S
C1354 H1338 0.931 . S
C1354 C1348 1.383 1_655 S
C1354 C1353 1.379 . S
H1355 C1349 0.959 . S
H1356 C1349 0.961 . S
H1357 C1349 0.960 . S
H1358 C1350 0.930 1_455 S
H1359 C1351 0.929 . S
H1360 C1368 0.929 . S
H1361 C1370 0.930 . S
H1362 C1372 0.930 . S
H1363 C1375 0.929 . S
H1364 C1378 0.930 1_565 S
H1365 C1380 0.960 . S
H1366 C1380 0.960 . S
H1367 C1380 0.960 . S
C1368 H1360 0.929 . S
C1368 C1369 1.377 1_565 S
C1368 C1370 1.384 . S
C1369 C1368 1.377 1_545 S
C1369 C1375 1.390 . S
C1370 H1361 0.930 . S
C1370 C1368 1.384 . S
C1370 C1371 1.372 1_565 S
C1371 C1370 1.372 1_545 S
C1371 C1372 1.400 . S
C1371 C1376 1.490 . S
C1372 H1362 0.930 . S
C1372 C1371 1.400 . S
C1372 C1375 1.386 . S
H1373 C1389 0.930 . S
H1374 C1390 0.931 . S
C1375 H1363 0.929 . S
C1375 C1369 1.390 . S
C1375 C1372 1.386 . S
C1376 C1371 1.490 . S
C1376 C1378 1.395 . S
C1376 C1379 1.403 . S
H1377 C1383 0.930 . S
C1378 H1364 0.930 1_545 S
C1378 C1376 1.395 . S
C1378 C1381 1.403 . S
C1379 C1376 1.403 . S
C1379 C1380 1.524 . S
C1379 C1383 1.400 . S
C1380 H1365 0.960 . S
C1380 H1366 0.960 . S
C1380 H1367 0.960 . S
C1380 C1379 1.524 . S
C1381 C1378 1.403 . S
C1381 C1382 1.392 . S
C1381 C1385 1.495 1_545 S
C1382 C1381 1.392 . S
C1382 C1383 1.385 . S
C1382 C1384 1.478 . S
C1383 H1377 0.930 . S
C1383 C1379 1.400 . S
C1383 C1382 1.385 . S
C1384 C1382 1.478 . S
C1384 C1386 1.381 . S
C1384 C1390 1.383 . S
C1385 C1381 1.495 1_565 S
C1385 H1391 0.959 . S
C1385 H1392 0.961 1_565 S
C1385 H1393 0.960 . S
C1386 C1384 1.381 . S
C1386 C1387 1.394 . S
C1386 H1394 0.930 1_545 S
C1387 C1386 1.394 . S
C1387 C1388 1.383 . S
C1387 H1395 0.929 1_545 S
C1388 C1387 1.383 . S
C1388 C1389 1.377 . S
C1389 H1373 0.930 . S
C1389 C1388 1.377 . S
C1389 C1390 1.379 . S
C1390 H1374 0.931 . S
C1390 C1384 1.383 . S
C1390 C1389 1.379 . S
H1391 C1385 0.959 . S
H1392 C1385 0.961 1_545 S
H1393 C1385 0.960 . S
H1394 C1386 0.930 1_565 S
H1395 C1387 0.929 1_565 S
H1396 C1404 0.929 . S
H1397 C1406 0.930 . S
H1398 C1408 0.930 . S
H1399 C1411 0.929 . S
H1400 C1414 0.930 . S
H1401 C1416 0.960 . S
H1402 C1416 0.960 . S
H1403 C1416 0.960 . S
C1404 H1396 0.929 . S
C1404 C1405 1.377 . S
C1404 C1406 1.384 . S
C1405 C1404 1.377 . S
C1405 C1411 1.390 . S
C1406 H1397 0.930 . S
C1406 C1404 1.384 . S
C1406 C1407 1.372 . S
C1407 C1406 1.372 . S
C1407 C1408 1.400 . S
C1407 C1412 1.490 . S
C1408 H1398 0.930 . S
C1408 C1407 1.400 . S
C1408 C1411 1.386 . S
H1409 C1425 0.930 . S
H1410 C1426 0.931 . S
C1411 H1399 0.929 . S
C1411 C1405 1.390 . S
C1411 C1408 1.386 . S
C1412 C1407 1.490 . S
C1412 C1414 1.395 . S
C1412 C1415 1.403 . S
H1413 C1419 0.930 . S
C1414 H1400 0.930 . S
C1414 C1412 1.395 . S
C1414 C1417 1.403 . S
C1415 C1412 1.403 . S
C1415 C1416 1.524 . S
C1415 C1419 1.400 . S
C1416 H1401 0.960 . S
C1416 H1402 0.960 . S
C1416 H1403 0.960 . S
C1416 C1415 1.524 . S
C1417 C1414 1.403 . S
C1417 C1418 1.392 . S
C1417 C1421 1.495 . S
C1418 C1417 1.392 . S
C1418 C1419 1.385 . S
C1418 C1420 1.478 . S
C1419 H1413 0.930 . S
C1419 C1415 1.400 . S
C1419 C1418 1.385 . S
C1420 C1418 1.478 . S
C1420 C1422 1.381 . S
C1420 C1426 1.383 . S
C1421 C1417 1.495 . S
C1421 H1427 0.959 . S
C1421 H1428 0.961 . S
C1421 H1429 0.960 . S
C1422 C1420 1.381 . S
C1422 C1423 1.394 . S
C1422 H1430 0.930 . S
C1423 C1422 1.394 . S
C1423 C1424 1.383 . S
C1423 H1431 0.929 . S
C1424 C1423 1.383 . S
C1424 C1425 1.377 . S
C1425 H1409 0.930 . S
C1425 C1424 1.377 . S
C1425 C1426 1.379 . S
C1426 H1410 0.931 . S
C1426 C1420 1.383 . S
C1426 C1425 1.379 . S
H1427 C1421 0.959 . S
H1428 C1421 0.961 . S
H1429 C1421 0.960 . S
H1430 C1422 0.930 . S
H1431 C1423 0.929 . S
H1432 C1440 0.929 . S
H1433 C1442 0.930 . S
H1434 C1444 0.930 . S
H1435 C1447 0.929 . S
H1436 C1450 0.930 . S
H1437 C1452 0.960 . S
H1438 C1452 0.960 . S
H1439 C1452 0.960 1_565 S
C1440 H1432 0.929 . S
C1440 C1441 1.377 1_545 S
C1440 C1442 1.384 . S
C1441 C1440 1.377 1_565 S
C1441 C1447 1.390 . S
C1442 H1433 0.930 . S
C1442 C1440 1.384 . S
C1442 C1443 1.372 1_545 S
C1443 C1442 1.372 1_565 S
C1443 C1444 1.400 . S
C1443 C1448 1.490 . S
C1444 H1434 0.930 . S
C1444 C1443 1.400 . S
C1444 C1447 1.386 . S
H1445 C1461 0.930 . S
H1446 C1462 0.931 . S
C1447 H1435 0.929 . S
C1447 C1441 1.390 . S
C1447 C1444 1.386 . S
C1448 C1443 1.490 . S
C1448 C1450 1.395 . S
C1448 C1451 1.403 . S
H1449 C1455 0.930 . S
C1450 H1436 0.930 . S
C1450 C1448 1.395 . S
C1450 C1453 1.403 . S
C1451 C1448 1.403 . S
C1451 C1452 1.524 1_565 S
C1451 C1455 1.400 . S
C1452 H1437 0.960 . S
C1452 H1438 0.960 . S
C1452 H1439 0.960 1_545 S
C1452 C1451 1.524 1_545 S
C1453 C1450 1.403 . S
C1453 C1454 1.392 . S
C1453 C1457 1.495 . S
C1454 C1453 1.392 . S
C1454 C1455 1.385 . S
C1454 C1456 1.478 . S
C1455 H1449 0.930 . S
C1455 C1451 1.400 . S
C1455 C1454 1.385 . S
C1456 C1454 1.478 . S
C1456 C1458 1.381 . S
C1456 C1462 1.383 . S
C1457 C1453 1.495 . S
C1457 H1463 0.959 . S
C1457 H1464 0.961 . S
C1457 H1465 0.960 . S
C1458 C1456 1.381 . S
C1458 C1459 1.394 . S
C1458 H1466 0.930 1_565 S
C1459 C1458 1.394 . S
C1459 C1460 1.383 . S
C1459 H1467 0.929 1_565 S
C1460 C1459 1.383 . S
C1460 C1461 1.377 . S
C1461 H1445 0.930 . S
C1461 C1460 1.377 . S
C1461 C1462 1.379 . S
C1462 H1446 0.931 . S
C1462 C1456 1.383 . S
C1462 C1461 1.379 . S
H1463 C1457 0.959 . S
H1464 C1457 0.961 . S
H1465 C1457 0.960 . S
H1466 C1458 0.930 1_545 S
H1467 C1459 0.929 1_545 S
H1468 C1476 0.929 . S
H1469 C1478 0.930 . S
H1470 C1480 0.930 . S
H1471 C1483 0.929 . S
H1472 C1486 0.930 . S
H1473 C1488 0.960 . S
H1474 C1488 0.960 . S
H1475 C1488 0.960 . S
C1476 H1468 0.929 . S
C1476 C1477 1.377 . S
C1476 C1478 1.384 . S
C1477 C1476 1.377 . S
C1477 C1483 1.390 . S
C1478 H1469 0.930 . S
C1478 C1476 1.384 . S
C1478 C1479 1.372 . S
C1479 C1478 1.372 . S
C1479 C1480 1.400 . S
C1479 C1484 1.490 . S
C1480 H1470 0.930 . S
C1480 C1479 1.400 . S
C1480 C1483 1.386 . S
H1481 C1497 0.930 . S
H1482 C1498 0.931 . S
C1483 H1471 0.929 . S
C1483 C1477 1.390 . S
C1483 C1480 1.386 . S
C1484 C1479 1.490 . S
C1484 C1486 1.395 . S
C1484 C1487 1.403 . S
H1485 C1491 0.930 . S
C1486 H1472 0.930 . S
C1486 C1484 1.395 . S
C1486 C1489 1.403 . S
C1487 C1484 1.403 . S
C1487 C1488 1.524 . S
C1487 C1491 1.400 . S
C1488 H1473 0.960 . S
C1488 H1474 0.960 . S
C1488 H1475 0.960 . S
C1488 C1487 1.524 . S
C1489 C1486 1.403 . S
C1489 C1490 1.392 . S
C1489 C1493 1.495 . S
C1490 C1489 1.392 . S
C1490 C1491 1.385 . S
C1490 C1492 1.478 . S
C1491 H1485 0.930 . S
C1491 C1487 1.400 . S
C1491 C1490 1.385 . S
C1492 C1490 1.478 . S
C1492 C1494 1.381 . S
C1492 C1498 1.383 . S
C1493 C1489 1.495 . S
C1493 H1499 0.959 . S
C1493 H1500 0.961 . S
C1493 H1501 0.960 . S
C1494 C1492 1.381 . S
C1494 C1495 1.394 . S
C1494 H1502 0.930 . S
C1495 C1494 1.394 . S
C1495 C1496 1.383 . S
C1495 H1503 0.929 . S
C1496 C1495 1.383 . S
C1496 C1497 1.377 . S
C1497 H1481 0.930 . S
C1497 C1496 1.377 . S
C1497 C1498 1.379 . S
C1498 H1482 0.931 . S
C1498 C1492 1.383 . S
C1498 C1497 1.379 . S
H1499 C1493 0.959 . S
H1500 C1493 0.961 . S
H1501 C1493 0.960 . S
H1502 C1494 0.930 . S
H1503 C1495 0.929 . S
H1504 C1512 0.929 . S
H1505 C1514 0.930 . S
H1506 C1516 0.930 . S
H1507 C1519 0.890 1_556 S
H1508 C1522 0.930 . S
H1509 C1524 0.960 . S
H1510 C1524 0.960 . S
H1511 C1524 0.960 . S
C1512 H1504 0.929 . S
C1512 C1513 1.377 . S
C1512 C1514 1.384 . S
C1513 C1512 1.377 . S
C1513 C1519 1.390 . S
C1514 H1505 0.930 . S
C1514 C1512 1.384 . S
C1514 C1515 1.372 . S
C1515 C1514 1.372 . S
C1515 C1516 1.400 . S
C1515 C1520 1.490 . S
C1516 H1506 0.930 . S
C1516 C1515 1.400 . S
C1516 C1519 1.386 . S
H1517 C1533 0.930 . S
H1518 C1534 0.931 . S
C1519 H1507 0.890 1_554 S
C1519 C1513 1.390 . S
C1519 C1516 1.386 . S
C1520 C1515 1.490 . S
C1520 C1522 1.395 . S
C1520 C1523 1.403 . S
H1521 C1527 0.930 . S
C1522 H1508 0.930 . S
C1522 C1520 1.395 . S
C1522 C1525 1.403 . S
C1523 C1520 1.403 . S
C1523 C1524 1.524 . S
C1523 C1527 1.400 . S
C1524 H1509 0.960 . S
C1524 H1510 0.960 . S
C1524 H1511 0.960 . S
C1524 C1523 1.524 . S
C1525 C1522 1.403 . S
C1525 C1526 1.392 . S
C1525 C1529 1.495 . S
C1526 C1525 1.392 . S
C1526 C1527 1.385 . S
C1526 C1528 1.478 . S
C1527 H1521 0.930 . S
C1527 C1523 1.400 . S
C1527 C1526 1.385 . S
C1528 C1526 1.478 . S
C1528 C1530 1.381 . S
C1528 C1534 1.383 . S
C1529 C1525 1.495 . S
C1529 H1535 0.959 . S
C1529 H1536 0.961 . S
C1529 H1537 0.960 . S
C1530 C1528 1.381 . S
C1530 C1531 1.394 . S
C1530 H1538 0.930 . S
C1531 C1530 1.394 . S
C1531 C1532 1.383 . S
C1531 H1539 0.929 . S
C1532 C1531 1.383 . S
C1532 C1533 1.377 . S
C1533 H1517 0.930 . S
C1533 C1532 1.377 . S
C1533 C1534 1.379 . S
C1534 H1518 0.931 . S
C1534 C1528 1.383 . S
C1534 C1533 1.379 . S
H1535 C1529 0.959 . S
H1536 C1529 0.961 . S
H1537 C1529 0.960 . S
H1538 C1530 0.930 . S
H1539 C1531 0.929 . S
H1540 C1548 0.929 . S
H1541 C1550 0.930 . S
H1542 C1552 0.930 . S
H1543 C1555 0.929 . S
H1544 C1558 0.930 . S
H1545 C1560 0.960 . S
H1546 C1560 0.960 . S
H1547 C1560 0.960 . S
C1548 H1540 0.929 . S
C1548 C1549 1.377 . S
C1548 C1550 1.384 . S
C1549 C1548 1.377 . S
C1549 C1555 1.390 . S
C1550 H1541 0.930 . S
C1550 C1548 1.384 . S
C1550 C1551 1.372 . S
C1551 C1550 1.372 . S
C1551 C1552 1.400 . S
C1551 C1556 1.490 . S
C1552 H1542 0.930 . S
C1552 C1551 1.400 . S
C1552 C1555 1.386 . S
H1553 C1569 0.930 . S
H1554 C1570 0.931 . S
C1555 H1543 0.929 . S
C1555 C1549 1.390 . S
C1555 C1552 1.386 . S
C1556 C1551 1.490 . S
C1556 C1558 1.395 . S
C1556 C1559 1.403 . S
H1557 C1563 0.930 . S
C1558 H1544 0.930 . S
C1558 C1556 1.395 . S
C1558 C1561 1.403 . S
C1559 C1556 1.403 . S
C1559 C1560 1.524 . S
C1559 C1563 1.400 . S
C1560 H1545 0.960 . S
C1560 H1546 0.960 . S
C1560 H1547 0.960 . S
C1560 C1559 1.524 . S
C1561 C1558 1.403 . S
C1561 C1562 1.392 . S
C1561 C1565 1.495 . S
C1562 C1561 1.392 . S
C1562 C1563 1.385 . S
C1562 C1564 1.478 . S
C1563 H1557 0.930 . S
C1563 C1559 1.400 . S
C1563 C1562 1.385 . S
C1564 C1562 1.478 . S
C1564 C1566 1.381 . S
C1564 C1570 1.383 . S
C1565 C1561 1.495 . S
C1565 H1571 0.959 . S
C1565 H1572 0.961 . S
C1565 H1573 0.960 . S
C1566 C1564 1.381 . S
C1566 C1567 1.394 . S
C1566 H1574 0.930 . S
C1567 C1566 1.394 . S
C1567 C1568 1.383 . S
C1567 H1575 0.929 . S
C1568 C1567 1.383 . S
C1568 C1569 1.377 . S
C1569 H1553 0.930 . S
C1569 C1568 1.377 . S
C1569 C1570 1.379 . S
C1570 H1554 0.931 . S
C1570 C1564 1.383 . S
C1570 C1569 1.379 . S
H1571 C1565 0.959 . S
H1572 C1565 0.961 . S
H1573 C1565 0.960 . S
H1574 C1566 0.930 . S
H1575 C1567 0.929 . S
H1576 C1584 0.929 . S
H1577 C1586 0.930 . S
H1578 C1588 0.930 . S
H1579 C1591 0.929 . S
H1580 C1594 0.930 . S
H1581 C1596 0.960 . S
H1582 C1596 0.960 . S
H1583 C1596 0.960 . S
C1584 H1576 0.929 . S
C1584 C1585 1.377 . S
C1584 C1586 1.384 . S
C1585 C1584 1.377 . S
C1585 C1591 1.390 . S
C1586 H1577 0.930 . S
C1586 C1584 1.384 . S
C1586 C1587 1.372 . S
C1587 C1586 1.372 . S
C1587 C1588 1.400 . S
C1587 C1592 1.490 . S
C1588 H1578 0.930 . S
C1588 C1587 1.400 . S
C1588 C1591 1.386 . S
H1589 C1605 0.930 . S
H1590 C1606 0.931 . S
C1591 H1579 0.929 . S
C1591 C1585 1.390 . S
C1591 C1588 1.386 . S
C1592 C1587 1.490 . S
C1592 C1594 1.395 . S
C1592 C1595 1.403 . S
H1593 C1599 0.930 . S
C1594 H1580 0.930 . S
C1594 C1592 1.395 . S
C1594 C1597 1.403 . S
C1595 C1592 1.403 . S
C1595 C1596 1.524 . S
C1595 C1599 1.400 . S
C1596 H1581 0.960 . S
C1596 H1582 0.960 . S
C1596 H1583 0.960 . S
C1596 C1595 1.524 . S
C1597 C1594 1.403 . S
C1597 C1598 1.392 . S
C1597 C1601 1.495 . S
C1598 C1597 1.392 . S
C1598 C1599 1.385 . S
C1598 C1600 1.478 . S
C1599 H1593 0.930 . S
C1599 C1595 1.400 . S
C1599 C1598 1.385 . S
C1600 C1598 1.478 . S
C1600 C1602 1.381 . S
C1600 C1606 1.383 . S
C1601 C1597 1.495 . S
C1601 H1607 0.959 . S
C1601 H1608 0.961 . S
C1601 H1609 0.960 . S
C1602 C1600 1.381 . S
C1602 C1603 1.394 . S
C1602 H1610 0.930 . S
C1603 C1602 1.394 . S
C1603 C1604 1.383 . S
C1603 H1611 0.929 . S
C1604 C1603 1.383 . S
C1604 C1605 1.377 . S
C1605 H1589 0.930 . S
C1605 C1604 1.377 . S
C1605 C1606 1.379 . S
C1606 H1590 0.931 . S
C1606 C1600 1.383 . S
C1606 C1605 1.379 . S
H1607 C1601 0.959 . S
H1608 C1601 0.961 . S
H1609 C1601 0.960 . S
H1610 C1602 0.930 . S
H1611 C1603 0.929 . S
H1612 C1620 0.929 . S
H1613 C1622 0.930 . S
H1614 C1624 0.930 . S
H1615 C1627 0.929 . S
H1616 C1630 0.930 . S
H1617 C1632 0.960 . S
H1618 C1632 0.960 . S
H1619 C1632 0.960 . S
C1620 H1612 0.929 . S
C1620 C1621 1.377 . S
C1620 C1622 1.384 . S
C1621 C1620 1.377 . S
C1621 C1627 1.390 . S
C1622 H1613 0.930 . S
C1622 C1620 1.384 . S
C1622 C1623 1.372 . S
C1623 C1622 1.372 . S
C1623 C1624 1.400 . S
C1623 C1628 1.490 . S
C1624 H1614 0.930 . S
C1624 C1623 1.400 . S
C1624 C1627 1.386 . S
H1625 C1641 0.930 . S
H1626 C1642 0.931 . S
C1627 H1615 0.929 . S
C1627 C1621 1.390 . S
C1627 C1624 1.386 . S
C1628 C1623 1.490 . S
C1628 C1630 1.395 . S
C1628 C1631 1.403 . S
H1629 C1635 0.930 . S
C1630 H1616 0.930 . S
C1630 C1628 1.395 . S
C1630 C1633 1.403 . S
C1631 C1628 1.403 . S
C1631 C1632 1.524 . S
C1631 C1635 1.400 . S
C1632 H1617 0.960 . S
C1632 H1618 0.960 . S
C1632 H1619 0.960 . S
C1632 C1631 1.524 . S
C1633 C1630 1.403 . S
C1633 C1634 1.392 . S
C1633 C1637 1.495 . S
C1634 C1633 1.392 . S
C1634 C1635 1.385 . S
C1634 C1636 1.478 . S
C1635 H1629 0.930 . S
C1635 C1631 1.400 . S
C1635 C1634 1.385 . S
C1636 C1634 1.478 . S
C1636 C1638 1.381 . S
C1636 C1642 1.383 . S
C1637 C1633 1.495 . S
C1637 H1643 0.959 . S
C1637 H1644 0.961 . S
C1637 H1645 0.960 . S
C1638 C1636 1.381 . S
C1638 C1639 1.394 . S
C1638 H1646 0.930 . S
C1639 C1638 1.394 . S
C1639 C1640 1.383 . S
C1639 H1647 0.929 . S
C1640 C1639 1.383 . S
C1640 C1641 1.377 . S
C1641 H1625 0.930 . S
C1641 C1640 1.377 . S
C1641 C1642 1.379 . S
C1642 H1626 0.931 . S
C1642 C1636 1.383 . S
C1642 C1641 1.379 . S
H1643 C1637 0.959 . S
H1644 C1637 0.961 . S
H1645 C1637 0.960 . S
H1646 C1638 0.930 . S
H1647 C1639 0.929 . S
H1648 C1656 0.929 . S
H1649 C1658 0.930 . S
H1650 C1660 0.930 . S
H1651 C1663 0.929 . S
H1652 C1666 0.930 . S
H1653 C1668 0.960 . S
H1654 C1668 0.960 . S
H1655 C1668 0.960 . S
C1656 H1648 0.929 . S
C1656 C1657 1.377 . S
C1656 C1658 1.384 . S
C1657 C1656 1.377 . S
C1657 C1663 1.390 . S
C1658 H1649 0.930 . S
C1658 C1656 1.384 . S
C1658 C1659 1.372 . S
C1659 C1658 1.372 . S
C1659 C1660 1.400 . S
C1659 C1664 1.490 . S
C1660 H1650 0.930 . S
C1660 C1659 1.400 . S
C1660 C1663 1.386 . S
H1661 C1677 0.930 . S
H1662 C1678 0.931 . S
C1663 H1651 0.929 . S
C1663 C1657 1.390 . S
C1663 C1660 1.386 . S
C1664 C1659 1.490 . S
C1664 C1666 1.395 . S
C1664 C1667 1.403 . S
H1665 C1671 0.930 . S
C1666 H1652 0.930 . S
C1666 C1664 1.395 . S
C1666 C1669 1.403 . S
C1667 C1664 1.403 . S
C1667 C1668 1.524 . S
C1667 C1671 1.400 . S
C1668 H1653 0.960 . S
C1668 H1654 0.960 . S
C1668 H1655 0.960 . S
C1668 C1667 1.524 . S
C1669 C1666 1.403 . S
C1669 C1670 1.392 . S
C1669 C1673 1.495 . S
C1670 C1669 1.392 . S
C1670 C1671 1.385 . S
C1670 C1672 1.478 . S
C1671 H1665 0.930 . S
C1671 C1667 1.400 . S
C1671 C1670 1.385 . S
C1672 C1670 1.478 . S
C1672 C1674 1.381 . S
C1672 C1678 1.383 . S
C1673 C1669 1.495 . S
C1673 H1679 0.959 . S
C1673 H1680 0.961 . S
C1673 H1681 0.960 . S
C1674 C1672 1.381 . S
C1674 C1675 1.394 . S
C1674 H1682 0.930 . S
C1675 C1674 1.394 . S
C1675 C1676 1.383 . S
C1675 H1683 0.929 . S
C1676 C1675 1.383 . S
C1676 C1677 1.377 . S
C1677 H1661 0.930 . S
C1677 C1676 1.377 . S
C1677 C1678 1.379 . S
C1678 H1662 0.931 . S
C1678 C1672 1.383 . S
C1678 C1677 1.379 . S
H1679 C1673 0.959 . S
H1680 C1673 0.961 . S
H1681 C1673 0.960 . S
H1682 C1674 0.930 . S
H1683 C1675 0.929 . S
H1684 C1692 0.929 . S
H1685 C1694 0.930 . S
H1686 C1696 0.930 . S
H1687 C1699 0.929 . S
H1688 C1702 0.930 . S
H1689 C1704 0.960 . S
H1690 C1704 0.960 . S
H1691 C1704 0.960 . S
C1692 H1684 0.929 . S
C1692 C1693 1.377 . S
C1692 C1694 1.384 . S
C1693 C1692 1.377 . S
C1693 C1699 1.390 . S
C1694 H1685 0.930 . S
C1694 C1692 1.384 . S
C1694 C1695 1.372 . S
C1695 C1694 1.372 . S
C1695 C1696 1.400 . S
C1695 C1700 1.490 . S
C1696 H1686 0.930 . S
C1696 C1695 1.400 . S
C1696 C1699 1.386 . S
H1697 C1713 0.930 . S
H1698 C1714 0.931 . S
C1699 H1687 0.929 . S
C1699 C1693 1.390 . S
C1699 C1696 1.386 . S
C1700 C1695 1.490 . S
C1700 C1702 1.395 . S
C1700 C1703 1.403 . S
H1701 C1707 0.930 . S
C1702 H1688 0.930 . S
C1702 C1700 1.395 . S
C1702 C1705 1.403 . S
C1703 C1700 1.403 . S
C1703 C1704 1.524 . S
C1703 C1707 1.400 . S
C1704 H1689 0.960 . S
C1704 H1690 0.960 . S
C1704 H1691 0.960 . S
C1704 C1703 1.524 . S
C1705 C1702 1.403 . S
C1705 C1706 1.392 . S
C1705 C1709 1.495 . S
C1706 C1705 1.392 . S
C1706 C1707 1.385 . S
C1706 C1708 1.478 . S
C1707 H1701 0.930 . S
C1707 C1703 1.400 . S
C1707 C1706 1.385 . S
C1708 C1706 1.478 . S
C1708 C1710 1.381 . S
C1708 C1714 1.383 . S
C1709 C1705 1.495 . S
C1709 H1715 0.959 . S
C1709 H1716 0.961 . S
C1709 H1717 0.960 . S
C1710 C1708 1.381 . S
C1710 C1711 1.394 . S
C1710 H1718 0.930 . S
C1711 C1710 1.394 . S
C1711 C1712 1.383 . S
C1711 H1719 0.929 . S
C1712 C1711 1.383 . S
C1712 C1713 1.377 . S
C1713 H1697 0.930 . S
C1713 C1712 1.377 . S
C1713 C1714 1.379 . S
C1714 H1698 0.931 . S
C1714 C1708 1.383 . S
C1714 C1713 1.379 . S
H1715 C1709 0.959 . S
H1716 C1709 0.961 . S
H1717 C1709 0.960 . S
H1718 C1710 0.930 . S
H1719 C1711 0.929 . S
H1720 C1728 0.929 . S
H1721 C1730 0.930 . S
H1722 C1732 0.930 . S
H1723 C1735 0.929 . S
H1724 C1738 0.930 . S
H1725 C1740 0.960 . S
H1726 C1740 0.960 . S
H1727 C1740 0.960 . S
C1728 H1720 0.929 . S
C1728 C1729 1.377 . S
C1728 C1730 1.384 . S
C1729 C1728 1.377 . S
C1729 C1735 1.390 . S
C1730 H1721 0.930 . S
C1730 C1728 1.384 . S
C1730 C1731 1.372 . S
C1731 C1730 1.372 . S
C1731 C1732 1.400 . S
C1731 C1736 1.490 . S
C1732 H1722 0.930 . S
C1732 C1731 1.400 . S
C1732 C1735 1.386 . S
H1733 C1749 0.930 . S
H1734 C1750 0.931 . S
C1735 H1723 0.929 . S
C1735 C1729 1.390 . S
C1735 C1732 1.386 . S
C1736 C1731 1.490 . S
C1736 C1738 1.395 . S
C1736 C1739 1.403 . S
H1737 C1743 0.930 . S
C1738 H1724 0.930 . S
C1738 C1736 1.395 . S
C1738 C1741 1.403 . S
C1739 C1736 1.403 . S
C1739 C1740 1.524 . S
C1739 C1743 1.400 . S
C1740 H1725 0.960 . S
C1740 H1726 0.960 . S
C1740 H1727 0.960 . S
C1740 C1739 1.524 . S
C1741 C1738 1.403 . S
C1741 C1742 1.392 . S
C1741 C1745 1.495 . S
C1742 C1741 1.392 . S
C1742 C1743 1.385 . S
C1742 C1744 1.478 . S
C1743 H1737 0.930 . S
C1743 C1739 1.400 . S
C1743 C1742 1.385 . S
C1744 C1742 1.478 . S
C1744 C1746 1.381 . S
C1744 C1750 1.383 . S
C1745 C1741 1.495 . S
C1745 H1751 0.959 . S
C1745 H1752 0.961 . S
C1745 H1753 0.960 . S
C1746 C1744 1.381 . S
C1746 C1747 1.394 . S
C1746 H1754 0.930 . S
C1747 C1746 1.394 . S
C1747 C1748 1.383 . S
C1747 H1755 0.929 . S
C1748 C1747 1.383 . S
C1748 C1749 1.377 . S
C1749 H1733 0.930 . S
C1749 C1748 1.377 . S
C1749 C1750 1.379 . S
C1750 H1734 0.931 . S
C1750 C1744 1.383 . S
C1750 C1749 1.379 . S
H1751 C1745 0.959 . S
H1752 C1745 0.961 . S
H1753 C1745 0.960 . S
H1754 C1746 0.930 . S
H1755 C1747 0.929 . S
H1756 C1764 0.929 . S
H1757 C1766 0.930 . S
H1758 C1768 0.930 . S
H1759 C1771 0.929 . S
H1760 C1774 0.930 . S
H1761 C1776 0.960 . S
H1762 C1776 0.960 . S
H1763 C1776 0.960 . S
C1764 H1756 0.929 . S
C1764 C1765 1.377 . S
C1764 C1766 1.384 . S
C1765 C1764 1.377 . S
C1765 C1771 1.390 . S
C1766 H1757 0.930 . S
C1766 C1764 1.384 . S
C1766 C1767 1.372 . S
C1767 C1766 1.372 . S
C1767 C1768 1.400 . S
C1767 C1772 1.490 . S
C1768 H1758 0.930 . S
C1768 C1767 1.400 . S
C1768 C1771 1.386 . S
H1769 C1785 0.930 . S
H1770 C1786 0.931 . S
C1771 H1759 0.929 . S
C1771 C1765 1.390 . S
C1771 C1768 1.386 . S
C1772 C1767 1.490 . S
C1772 C1774 1.395 . S
C1772 C1775 1.403 . S
H1773 C1779 0.930 . S
C1774 H1760 0.930 . S
C1774 C1772 1.395 . S
C1774 C1777 1.403 . S
C1775 C1772 1.403 . S
C1775 C1776 1.524 . S
C1775 C1779 1.400 . S
C1776 H1761 0.960 . S
C1776 H1762 0.960 . S
C1776 H1763 0.960 . S
C1776 C1775 1.524 . S
C1777 C1774 1.403 . S
C1777 C1778 1.392 . S
C1777 C1781 1.495 . S
C1778 C1777 1.392 . S
C1778 C1779 1.385 . S
C1778 C1780 1.478 . S
C1779 H1773 0.930 . S
C1779 C1775 1.400 . S
C1779 C1778 1.385 . S
C1780 C1778 1.478 . S
C1780 C1782 1.381 . S
C1780 C1786 1.383 . S
C1781 C1777 1.495 . S
C1781 H1787 0.959 . S
C1781 H1788 0.961 . S
C1781 H1789 0.960 . S
C1782 C1780 1.381 . S
C1782 C1783 1.394 . S
C1782 H1790 0.930 . S
C1783 C1782 1.394 . S
C1783 C1784 1.383 . S
C1783 H1791 0.929 . S
C1784 C1783 1.383 . S
C1784 C1785 1.377 . S
C1785 H1769 0.930 . S
C1785 C1784 1.377 . S
C1785 C1786 1.379 . S
C1786 H1770 0.931 . S
C1786 C1780 1.383 . S
C1786 C1785 1.379 . S
H1787 C1781 0.959 . S
H1788 C1781 0.961 . S
H1789 C1781 0.960 . S
H1790 C1782 0.930 . S
H1791 C1783 0.929 . S
H1792 C1800 0.929 . S
H1793 C1802 0.930 . S
H1794 C1804 0.930 . S
H1795 C1807 0.929 . S
H1796 C1810 0.930 . S
H1797 C1812 0.960 . S
H1798 C1812 0.960 . S
H1799 C1812 0.960 . S
C1800 H1792 0.929 . S
C1800 C1801 1.377 . S
C1800 C1802 1.384 . S
C1801 C1800 1.377 . S
C1801 C1807 1.390 . S
C1802 H1793 0.930 . S
C1802 C1800 1.384 . S
C1802 C1803 1.372 . S
C1803 C1802 1.372 . S
C1803 C1804 1.400 . S
C1803 C1808 1.490 . S
C1804 H1794 0.930 . S
C1804 C1803 1.400 . S
C1804 C1807 1.386 . S
H1805 C1821 0.930 . S
H1806 C1822 0.931 . S
C1807 H1795 0.929 . S
C1807 C1801 1.390 . S
C1807 C1804 1.386 . S
C1808 C1803 1.490 . S
C1808 C1810 1.395 . S
C1808 C1811 1.403 . S
H1809 C1815 0.930 . S
C1810 H1796 0.930 . S
C1810 C1808 1.395 . S
C1810 C1813 1.403 . S
C1811 C1808 1.403 . S
C1811 C1812 1.524 . S
C1811 C1815 1.400 . S
C1812 H1797 0.960 . S
C1812 H1798 0.960 . S
C1812 H1799 0.960 . S
C1812 C1811 1.524 . S
C1813 C1810 1.403 . S
C1813 C1814 1.392 . S
C1813 C1817 1.495 . S
C1814 C1813 1.392 . S
C1814 C1815 1.385 . S
C1814 C1816 1.478 . S
C1815 H1809 0.930 . S
C1815 C1811 1.400 . S
C1815 C1814 1.385 . S
C1816 C1814 1.478 . S
C1816 C1818 1.381 . S
C1816 C1822 1.383 . S
C1817 C1813 1.495 . S
C1817 H1823 0.959 . S
C1817 H1824 0.961 . S
C1817 H1825 0.960 . S
C1818 C1816 1.381 . S
C1818 C1819 1.394 . S
C1818 H1826 0.930 . S
C1819 C1818 1.394 . S
C1819 C1820 1.383 . S
C1819 H1827 0.929 . S
C1820 C1819 1.383 . S
C1820 C1821 1.377 . S
C1821 H1805 0.930 . S
C1821 C1820 1.377 . S
C1821 C1822 1.379 . S
C1822 H1806 0.931 . S
C1822 C1816 1.383 . S
C1822 C1821 1.379 . S
H1823 C1817 0.959 . S
H1824 C1817 0.961 . S
H1825 C1817 0.960 . S
H1826 C1818 0.930 . S
H1827 C1819 0.929 . S
H1828 C1836 0.929 . S
H1829 C1838 0.930 . S
H1830 C1840 0.930 . S
H1831 C1843 0.929 . S
H1832 C1846 0.930 . S
H1833 C1848 0.960 . S
H1834 C1848 0.960 . S
H1835 C1848 1.006 . S
C1836 H1828 0.929 . S
C1836 C1837 1.377 1_565 S
C1836 C1838 1.384 . S
C1837 C1836 1.377 1_545 S
C1837 C1843 1.390 . S
C1838 H1829 0.930 . S
C1838 C1836 1.384 . S
C1838 C1839 1.372 . S
C1839 C1838 1.372 . S
C1839 C1840 1.400 1_565 S
C1839 C1844 1.490 . S
C1840 H1830 0.930 . S
C1840 C1839 1.400 1_545 S
C1840 C1843 1.386 . S
H1841 C1857 0.930 1_545 S
H1842 C1858 0.931 1_545 S
C1843 H1831 0.929 . S
C1843 C1837 1.390 . S
C1843 C1840 1.386 . S
C1844 C1839 1.490 . S
C1844 C1846 1.395 . S
C1844 C1847 1.403 . S
H1845 C1851 0.930 . S
C1846 H1832 0.930 . S
C1846 C1844 1.395 . S
C1846 C1849 1.403 . S
C1847 C1844 1.403 . S
C1847 C1848 1.524 . S
C1847 C1851 1.400 . S
C1848 H1833 0.960 . S
C1848 H1834 0.960 . S
C1848 H1835 1.006 . S
C1848 C1847 1.524 . S
C1849 C1846 1.403 . S
C1849 C1850 1.392 . S
C1849 C1853 1.495 . S
C1850 C1849 1.392 . S
C1850 C1851 1.385 . S
C1850 C1852 1.478 . S
C1851 H1845 0.930 . S
C1851 C1847 1.400 . S
C1851 C1850 1.385 . S
C1852 C1850 1.478 . S
C1852 C1854 1.381 . S
C1852 C1858 1.383 . S
C1853 C1849 1.495 . S
C1853 H1859 0.959 . S
C1853 H1860 0.961 1_565 S
C1853 H1861 0.960 . S
C1854 C1852 1.381 . S
C1854 C1855 1.394 . S
C1854 H1862 0.930 . S
C1855 C1854 1.394 . S
C1855 C1856 1.383 . S
C1855 H1863 0.929 . S
C1856 C1855 1.383 . S
C1856 C1857 1.377 . S
C1857 H1841 0.930 1_565 S
C1857 C1856 1.377 . S
C1857 C1858 1.379 . S
C1858 H1842 0.931 1_565 S
C1858 C1852 1.383 . S
C1858 C1857 1.379 . S
H1859 C1853 0.959 . S
H1860 C1853 0.961 1_545 S
H1861 C1853 0.960 . S
H1862 C1854 0.930 . S
H1863 C1855 0.929 . S
H1864 C1872 0.929 . S
H1865 C1874 0.930 . S
H1866 C1876 0.930 . S
H1867 C1879 0.929 . S
H1868 C1882 0.930 . S
H1869 C1884 0.960 . S
H1870 C1884 0.960 . S
H1871 C1884 0.960 . S
C1872 H1864 0.929 . S
C1872 C1873 1.377 . S
C1872 C1874 1.384 . S
C1873 C1872 1.377 . S
C1873 C1879 1.390 . S
C1874 H1865 0.930 . S
C1874 C1872 1.384 . S
C1874 C1875 1.372 . S
C1875 C1874 1.372 . S
C1875 C1876 1.400 . S
C1875 C1880 1.490 . S
C1876 H1866 0.930 . S
C1876 C1875 1.400 . S
C1876 C1879 1.386 . S
H1877 C1893 0.930 . S
H1878 C1894 0.931 . S
C1879 H1867 0.929 . S
C1879 C1873 1.390 . S
C1879 C1876 1.386 . S
C1880 C1875 1.490 . S
C1880 C1882 1.395 . S
C1880 C1883 1.403 . S
H1881 C1887 0.930 . S
C1882 H1868 0.930 . S
C1882 C1880 1.395 . S
C1882 C1885 1.403 . S
C1883 C1880 1.403 . S
C1883 C1884 1.524 . S
C1883 C1887 1.400 . S
C1884 H1869 0.960 . S
C1884 H1870 0.960 . S
C1884 H1871 0.960 . S
C1884 C1883 1.524 . S
C1885 C1882 1.403 . S
C1885 C1886 1.392 . S
C1885 C1889 1.495 . S
C1886 C1885 1.392 . S
C1886 C1887 1.385 . S
C1886 C1888 1.478 . S
C1887 H1881 0.930 . S
C1887 C1883 1.400 . S
C1887 C1886 1.385 . S
C1888 C1886 1.478 . S
C1888 C1890 1.381 . S
C1888 C1894 1.383 . S
C1889 C1885 1.495 . S
C1889 H1895 0.959 . S
C1889 H1896 0.961 . S
C1889 H1897 0.960 . S
C1890 C1888 1.381 . S
C1890 C1891 1.394 . S
C1890 H1898 0.930 . S
C1891 C1890 1.394 . S
C1891 C1892 1.383 . S
C1891 H1899 0.929 . S
C1892 C1891 1.383 . S
C1892 C1893 1.377 . S
C1893 H1877 0.930 . S
C1893 C1892 1.377 . S
C1893 C1894 1.379 . S
C1894 H1878 0.931 . S
C1894 C1888 1.383 . S
C1894 C1893 1.379 . S
H1895 C1889 0.959 . S
H1896 C1889 0.961 . S
H1897 C1889 0.960 . S
H1898 C1890 0.930 . S
H1899 C1891 0.929 . S
H1900 C1908 0.929 . S
H1901 C1910 0.930 . S
H1902 C1912 0.930 . S
H1903 C1915 0.929 . S
H1904 C1918 0.930 . S
H1905 C1920 0.960 . S
H1906 C1920 0.960 . S
H1907 C1920 0.960 . S
C1908 H1900 0.929 . S
C1908 C1909 1.377 . S
C1908 C1910 1.384 . S
C1909 C1908 1.377 . S
C1909 C1915 1.390 . S
C1910 H1901 0.930 . S
C1910 C1908 1.384 . S
C1910 C1911 1.372 . S
C1911 C1910 1.372 . S
C1911 C1912 1.400 . S
C1911 C1916 1.490 . S
C1912 H1902 0.930 . S
C1912 C1911 1.400 . S
C1912 C1915 1.386 . S
H1913 C1929 0.930 . S
H1914 C1930 0.931 . S
C1915 H1903 0.929 . S
C1915 C1909 1.390 . S
C1915 C1912 1.386 . S
C1916 C1911 1.490 . S
C1916 C1918 1.395 . S
C1916 C1919 1.403 . S
H1917 C1923 0.930 . S
C1918 H1904 0.930 . S
C1918 C1916 1.395 . S
C1918 C1921 1.403 . S
C1919 C1916 1.403 . S
C1919 C1920 1.524 . S
C1919 C1923 1.400 . S
C1920 H1905 0.960 . S
C1920 H1906 0.960 . S
C1920 H1907 0.960 . S
C1920 C1919 1.524 . S
C1921 C1918 1.403 . S
C1921 C1922 1.392 . S
C1921 C1925 1.495 . S
C1922 C1921 1.392 . S
C1922 C1923 1.385 . S
C1922 C1924 1.478 . S
C1923 H1917 0.930 . S
C1923 C1919 1.400 . S
C1923 C1922 1.385 . S
C1924 C1922 1.478 . S
C1924 C1926 1.381 . S
C1924 C1930 1.383 . S
C1925 C1921 1.495 . S
C1925 H1931 0.969 . S
C1925 H1932 0.961 1_545 S
C1925 H1933 0.960 . S
C1926 C1924 1.381 . S
C1926 C1927 1.394 . S
C1926 H1934 0.930 . S
C1927 C1926 1.394 . S
C1927 C1928 1.383 . S
C1927 H1935 0.929 . S
C1928 C1927 1.383 . S
C1928 C1929 1.377 . S
C1929 H1913 0.930 . S
C1929 C1928 1.377 . S
C1929 C1930 1.379 . S
C1930 H1914 0.931 . S
C1930 C1924 1.383 . S
C1930 C1929 1.379 . S
H1931 C1925 0.969 . S
H1932 C1925 0.961 1_565 S
H1933 C1925 0.960 . S
H1934 C1926 0.930 . S
H1935 C1927 0.929 . S
H1936 C1944 0.929 . S
H1937 C1946 0.930 . S
H1938 C1948 0.930 . S
H1939 C1951 0.929 . S
H1940 C1954 0.930 . S
H1941 C1956 0.960 . S
H1942 C1956 0.960 . S
H1943 C1956 0.960 . S
C1944 H1936 0.929 . S
C1944 C1945 1.377 . S
C1944 C1946 1.384 . S
C1945 C1944 1.377 . S
C1945 C1951 1.390 . S
C1946 H1937 0.930 . S
C1946 C1944 1.384 . S
C1946 C1947 1.372 . S
C1947 C1946 1.372 . S
C1947 C1948 1.400 . S
C1947 C1952 1.490 . S
C1948 H1938 0.930 . S
C1948 C1947 1.400 . S
C1948 C1951 1.386 . S
H1949 C1965 0.930 . S
H1950 C1966 0.931 . S
C1951 H1939 0.929 . S
C1951 C1945 1.390 . S
C1951 C1948 1.386 . S
C1952 C1947 1.490 . S
C1952 C1954 1.395 . S
C1952 C1955 1.403 . S
H1953 C1959 0.930 . S
C1954 H1940 0.930 . S
C1954 C1952 1.395 . S
C1954 C1957 1.403 . S
C1955 C1952 1.403 . S
C1955 C1956 1.524 . S
C1955 C1959 1.400 . S
C1956 H1941 0.960 . S
C1956 H1942 0.960 . S
C1956 H1943 0.960 . S
C1956 C1955 1.524 . S
C1957 C1954 1.403 . S
C1957 C1958 1.392 . S
C1957 C1961 1.495 . S
C1958 C1957 1.392 . S
C1958 C1959 1.385 . S
C1958 C1960 1.478 . S
C1959 H1953 0.930 . S
C1959 C1955 1.400 . S
C1959 C1958 1.385 . S
C1960 C1958 1.478 . S
C1960 C1962 1.381 . S
C1960 C1966 1.383 . S
C1961 C1957 1.495 . S
C1961 H1967 0.959 . S
C1961 H1968 0.961 . S
C1961 H1969 0.960 . S
C1962 C1960 1.381 . S
C1962 C1963 1.394 . S
C1962 H1970 0.930 . S
C1963 C1962 1.394 . S
C1963 C1964 1.383 . S
C1963 H1971 0.929 . S
C1964 C1963 1.383 . S
C1964 C1965 1.377 . S
C1965 H1949 0.930 . S
C1965 C1964 1.377 . S
C1965 C1966 1.379 . S
C1966 H1950 0.931 . S
C1966 C1960 1.383 . S
C1966 C1965 1.379 . S
H1967 C1961 0.959 . S
H1968 C1961 0.961 . S
H1969 C1961 0.960 . S
H1970 C1962 0.930 . S
H1971 C1963 0.929 . S
H1972 C1980 0.929 . S
H1973 C1982 0.930 . S
H1974 C1984 0.930 . S
H1975 C1987 0.929 . S
H1976 C1990 0.942 . S
H1977 C1992 0.960 . S
H1978 C1992 0.960 . S
H1979 C1992 0.960 . S
C1980 H1972 0.929 . S
C1980 C1981 1.377 1_554 S
C1980 C1982 1.384 . S
C1981 C1980 1.377 1_556 S
C1981 C1987 1.390 . S
C1982 H1973 0.930 . S
C1982 C1980 1.384 . S
C1982 C1983 1.372 1_554 S
C1983 C1982 1.372 1_556 S
C1983 C1984 1.400 . S
C1983 C1988 1.490 . S
C1984 H1974 0.930 . S
C1984 C1983 1.400 . S
C1984 C1987 1.386 . S
H1985 C2001 0.930 . S
H1986 C2002 0.931 . S
C1987 H1975 0.929 . S
C1987 C1981 1.390 . S
C1987 C1984 1.386 . S
C1988 C1983 1.490 . S
C1988 C1990 1.395 . S
C1988 C1991 1.403 . S
H1989 C1995 0.930 . S
C1990 H1976 0.942 . S
C1990 C1988 1.395 . S
C1990 C1993 1.403 . S
C1991 C1988 1.403 . S
C1991 C1992 1.524 . S
C1991 C1995 1.400 . S
C1992 H1977 0.960 . S
C1992 H1978 0.960 . S
C1992 H1979 0.960 . S
C1992 C1991 1.524 . S
C1993 C1990 1.403 . S
C1993 C1994 1.392 . S
C1993 C1997 1.506 . S
C1994 C1993 1.392 . S
C1994 C1995 1.385 . S
C1994 C1996 1.478 . S
C1995 H1989 0.930 . S
C1995 C1991 1.400 . S
C1995 C1994 1.385 . S
C1996 C1994 1.478 . S
C1996 C1998 1.381 . S
C1996 C2002 1.383 . S
C1997 C1993 1.506 . S
C1997 H2003 0.947 1_556 S
C1997 H2004 0.986 . S
C1997 H2005 0.938 1_556 S
C1998 C1996 1.381 . S
C1998 C1999 1.394 . S
C1998 H2006 0.930 1_556 S
C1999 C1998 1.394 . S
C1999 C2000 1.383 . S
C1999 H2007 0.929 1_556 S
C2000 C1999 1.383 . S
C2000 C2001 1.377 . S
C2001 H1985 0.930 . S
C2001 C2000 1.377 . S
C2001 C2002 1.379 . S
C2002 H1986 0.931 . S
C2002 C1996 1.383 . S
C2002 C2001 1.379 . S
H2003 C1997 0.947 1_554 S
H2004 C1997 0.986 . S
H2005 C1997 0.938 1_554 S
H2006 C1998 0.930 1_554 S
H2007 C1999 0.929 1_554 S
H2008 C2016 0.929 . S
H2009 C2018 0.930 . S
H2010 C2020 0.930 . S
H2011 C2023 0.929 . S
H2012 C2026 0.930 . S
H2013 C2028 0.960 . S
H2014 C2028 0.960 . S
H2015 C2028 0.960 . S
C2016 H2008 0.929 . S
C2016 C2017 1.377 . S
C2016 C2018 1.384 . S
C2017 C2016 1.377 . S
C2017 C2023 1.390 1_554 S
C2018 H2009 0.930 . S
C2018 C2016 1.384 . S
C2018 C2019 1.372 . S
C2019 C2018 1.372 . S
C2019 C2020 1.400 1_554 S
C2019 C2024 1.490 1_554 S
C2020 H2010 0.930 . S
C2020 C2019 1.400 1_556 S
C2020 C2023 1.386 . S
H2021 C2037 0.930 . S
H2022 C2038 0.931 . S
C2023 H2011 0.929 . S
C2023 C2017 1.390 1_556 S
C2023 C2020 1.386 . S
C2024 C2019 1.490 1_556 S
C2024 C2026 1.395 . S
C2024 C2027 1.403 1_556 S
H2025 C2031 0.930 . S
C2026 H2012 0.930 . S
C2026 C2024 1.395 . S
C2026 C2029 1.403 . S
C2027 C2024 1.403 1_554 S
C2027 C2028 1.524 . S
C2027 C2031 1.400 . S
C2028 H2013 0.960 . S
C2028 H2014 0.960 . S
C2028 H2015 0.960 . S
C2028 C2027 1.524 . S
C2029 C2026 1.403 . S
C2029 C2030 1.392 . S
C2029 C2033 1.495 . S
C2030 C2029 1.392 . S
C2030 C2031 1.385 1_556 S
C2030 C2032 1.478 . S
C2031 H2025 0.930 . S
C2031 C2027 1.400 . S
C2031 C2030 1.385 1_554 S
C2032 C2030 1.478 . S
C2032 C2034 1.381 . S
C2032 C2038 1.383 . S
C2033 C2029 1.495 . S
C2033 H2039 0.959 . S
C2033 H2040 0.961 . S
C2033 H2041 0.960 . S
C2034 C2032 1.381 . S
C2034 C2035 1.394 . S
C2034 H2042 0.930 1_556 S
C2035 C2034 1.394 . S
C2035 C2036 1.383 . S
C2035 H2043 0.939 . S
C2036 C2035 1.383 . S
C2036 C2037 1.377 . S
C2037 H2021 0.930 . S
C2037 C2036 1.377 . S
C2037 C2038 1.379 . S
C2038 H2022 0.931 . S
C2038 C2032 1.383 . S
C2038 C2037 1.379 . S
H2039 C2033 0.959 . S
H2040 C2033 0.961 . S
H2041 C2033 0.960 . S
H2042 C2034 0.930 1_554 S
H2043 C2035 0.939 . S
H2044 C2052 0.929 . S
H2045 C2054 0.930 . S
H2046 C2056 0.930 . S
H2047 C2059 0.929 . S
H2048 C2062 0.930 . S
H2049 C2064 0.960 . S
H2050 C2064 0.960 . S
H2051 C2064 0.960 . S
C2052 H2044 0.929 . S
C2052 C2053 1.377 1_556 S
C2052 C2054 1.384 . S
C2053 C2052 1.377 1_554 S
C2053 C2059 1.390 . S
C2054 H2045 0.930 . S
C2054 C2052 1.384 . S
C2054 C2055 1.372 1_556 S
C2055 C2054 1.372 1_554 S
C2055 C2056 1.400 . S
C2055 C2060 1.490 . S
C2056 H2046 0.930 . S
C2056 C2055 1.400 . S
C2056 C2059 1.386 . S
H2057 C2073 0.930 . S
H2058 C2074 0.931 . S
C2059 H2047 0.929 . S
C2059 C2053 1.390 . S
C2059 C2056 1.386 . S
C2060 C2055 1.490 . S
C2060 C2062 1.395 . S
C2060 C2063 1.403 . S
H2061 C2067 0.930 . S
C2062 H2048 0.930 . S
C2062 C2060 1.395 . S
C2062 C2065 1.403 . S
C2063 C2060 1.403 . S
C2063 C2064 1.524 . S
C2063 C2067 1.400 . S
C2064 H2049 0.960 . S
C2064 H2050 0.960 . S
C2064 H2051 0.960 . S
C2064 C2063 1.524 . S
C2065 C2062 1.403 . S
C2065 C2066 1.392 . S
C2065 C2069 1.495 . S
C2066 C2065 1.392 . S
C2066 C2067 1.385 . S
C2066 C2068 1.478 . S
C2067 H2061 0.930 . S
C2067 C2063 1.400 . S
C2067 C2066 1.385 . S
C2068 C2066 1.478 . S
C2068 C2070 1.381 . S
C2068 C2074 1.383 . S
C2069 C2065 1.495 . S
C2069 H2075 0.959 . S
C2069 H2076 0.961 . S
C2069 H2077 0.960 . S
C2070 C2068 1.381 . S
C2070 C2071 1.394 . S
C2070 H2078 0.930 1_554 S
C2071 C2070 1.394 . S
C2071 C2072 1.383 . S
C2071 H2079 0.929 . S
C2072 C2071 1.383 . S
C2072 C2073 1.377 . S
C2073 H2057 0.930 . S
C2073 C2072 1.377 . S
C2073 C2074 1.379 . S
C2074 H2058 0.931 . S
C2074 C2068 1.383 . S
C2074 C2073 1.379 . S
H2075 C2069 0.959 . S
H2076 C2069 0.961 . S
H2077 C2069 0.960 . S
H2078 C2070 0.930 1_556 S
H2079 C2071 0.929 . S
C361 C13 1.553 . S
C380 C231 1.544 . S
C416 C257 1.587 . S
C397 C1 1.596 . S
C452 C189 1.600 . S
C433 C27 1.602 . S
C469 C15 1.324 . S
C488 C212 1.313 . S
C505 C28 1.402 . S
C524 C346 1.385 . S
C541 C55 1.305 . S
C560 C327 1.310 . S
C596 C280 1.578 . S
C577 C40 1.630 . S
C613 C43 1.654 . S
C632 C303 1.620 . S
C668 C208 1.595 . S
C649 C56 1.612 . S
C704 C258 1.343 . S
C685 C83 1.331 . S
C721 C96 1.554 . S
C740 C234 1.543 1_655 S
C757 C71 1.669 . S
C776 C300 1.660 . S
C812 C323 1.540 . S
C793 C99 1.552 . S
C848 C349 1.548 . S
C829 C111 1.594 . S
C865 C113 1.599 . S
C884 C304 1.603 . S
C920 C281 1.326 . S
C901 C125 1.323 . S
C937 C139 1.403 . S
C956 C254 1.399 . S
C973 C153 1.301 . S
C992 C235 1.315 . S
C1028 C211 1.595 . S
C1009 C127 1.630 . S
C1045 C141 1.657 . S
C1064 C188 1.616 . S
C1100 C277 1.588 . S
C1081 C84 1.610 . S
C1136 C350 1.335 . S
C1117 C154 1.335 . S
C1153 C68 1.554 . S
C1172 C326 1.541 . S
C1189 C166 1.666 . S
C1208 C185 1.654 1_655 S
C1244 C187 1.233 . S
C1225 C0 1.253 . S
C1261 C12 1.413 . S
C1280 C210 1.364 . S
C1316 C232 1.114 . S
C1297 C14 1.134 . S
C1352 C253 1.268 . S
C1333 C26 1.262 . S
C1369 C41 1.358 . S
C1388 C184 1.344 . S
C1405 C42 1.352 . S
C1424 C207 1.348 . S
C1460 C233 1.298 . S
C1441 C29 1.385 . S
C1477 C54 1.284 . S
C1496 C255 1.277 . S
C1513 C69 1.197 . S
C1532 C186 1.193 . S
C1568 C230 1.282 . S
C1549 C70 1.275 . S
C1585 C85 1.352 . S
C1604 C256 1.276 . S
C1621 C82 1.097 . S
C1640 C278 1.077 . S
C1676 C302 1.174 . S
C1657 C110 1.247 . S
C1693 C98 1.412 . S
C1712 C279 1.350 . S
C1729 C124 1.127 . S
C1748 C324 1.138 . S
C1765 C112 1.257 . S
C1784 C345 1.246 . S
C1801 C126 1.359 . S
C1820 C299 1.362 . S
C1856 C276 1.359 . S
C1837 C140 1.348 . S
C1873 C138 1.384 . S
C1892 C325 1.288 . S
C1928 C347 1.273 . S
C1909 C152 1.286 . S
C1964 C301 1.208 . S
C1945 C97 1.195 . S
C2000 C322 1.263 . S
C1981 C167 1.279 . S
C2036 C348 1.271 . S
C2017 C57 1.351 . S
C2053 C155 1.094 . S
C2072 C209 1.097 . S
