# Generated by pormake.
# Topology gar, (4,6)-cn, num edge types: 1
# Building blocks:
#     Node 0, Type 0, BuildingBlock: GALJAG_clean_sbu_0, # of connection points: 4
#     Node 1, Type 0, BuildingBlock: GALJAG_clean_sbu_0, # of connection points: 4
#     Node 2, Type 0, BuildingBlock: GALJAG_clean_sbu_0, # of connection points: 4
#     Node 3, Type 0, BuildingBlock: GALJAG_clean_sbu_0, # of connection points: 4
#     Node 4, Type 0, BuildingBlock: GALJAG_clean_sbu_0, # of connection points: 4
#     Node 5, Type 0, BuildingBlock: GALJAG_clean_sbu_0, # of connection points: 4
#     Node 6, Type 0, BuildingBlock: GALJAG_clean_sbu_0, # of connection points: 4
#     Node 7, Type 0, BuildingBlock: GALJAG_clean_sbu_0, # of connection points: 4
#     Node 8, Type 0, BuildingBlock: GALJAG_clean_sbu_0, # of connection points: 4
#     Node 9, Type 0, BuildingBlock: GALJAG_clean_sbu_0, # of connection points: 4
#     Node 10, Type 0, BuildingBlock: GALJAG_clean_sbu_0, # of connection points: 4
#     Node 11, Type 0, BuildingBlock: GALJAG_clean_sbu_0, # of connection points: 4
#     Node 12, Type 0, BuildingBlock: GALJAG_clean_sbu_0, # of connection points: 4
#     Node 13, Type 0, BuildingBlock: GALJAG_clean_sbu_0, # of connection points: 4
#     Node 14, Type 0, BuildingBlock: GALJAG_clean_sbu_0, # of connection points: 4
#     Node 15, Type 0, BuildingBlock: GALJAG_clean_sbu_0, # of connection points: 4
#     Node 16, Type 0, BuildingBlock: GALJAG_clean_sbu_0, # of connection points: 4
#     Node 17, Type 0, BuildingBlock: GALJAG_clean_sbu_0, # of connection points: 4
#     Node 18, Type 0, BuildingBlock: GALJAG_clean_sbu_0, # of connection points: 4
#     Node 19, Type 0, BuildingBlock: GALJAG_clean_sbu_0, # of connection points: 4
#     Node 20, Type 0, BuildingBlock: GALJAG_clean_sbu_0, # of connection points: 4
#     Node 21, Type 0, BuildingBlock: GALJAG_clean_sbu_0, # of connection points: 4
#     Node 22, Type 0, BuildingBlock: GALJAG_clean_sbu_0, # of connection points: 4
#     Node 23, Type 0, BuildingBlock: GALJAG_clean_sbu_0, # of connection points: 4
#     Node 24, Type 1, BuildingBlock: NUHQIS_clean_sbu_0, # of connection points: 6
#     Node 25, Type 1, BuildingBlock: NUHQIS_clean_sbu_0, # of connection points: 6
#     Node 26, Type 1, BuildingBlock: NUHQIS_clean_sbu_0, # of connection points: 6
#     Node 27, Type 1, BuildingBlock: NUHQIS_clean_sbu_0, # of connection points: 6
#     Node 28, Type 1, BuildingBlock: NUHQIS_clean_sbu_0, # of connection points: 6
#     Node 29, Type 1, BuildingBlock: NUHQIS_clean_sbu_0, # of connection points: 6
#     Node 30, Type 1, BuildingBlock: NUHQIS_clean_sbu_0, # of connection points: 6
#     Node 31, Type 1, BuildingBlock: NUHQIS_clean_sbu_0, # of connection points: 6
#     Node 32, Type 1, BuildingBlock: NUHQIS_clean_sbu_0, # of connection points: 6
#     Node 33, Type 1, BuildingBlock: NUHQIS_clean_sbu_0, # of connection points: 6
#     Node 34, Type 1, BuildingBlock: NUHQIS_clean_sbu_0, # of connection points: 6
#     Node 35, Type 1, BuildingBlock: NUHQIS_clean_sbu_0, # of connection points: 6
#     Node 36, Type 1, BuildingBlock: NUHQIS_clean_sbu_0, # of connection points: 6
#     Node 37, Type 1, BuildingBlock: NUHQIS_clean_sbu_0, # of connection points: 6
#     Node 38, Type 1, BuildingBlock: NUHQIS_clean_sbu_0, # of connection points: 6
#     Node 39, Type 1, BuildingBlock: NUHQIS_clean_sbu_0, # of connection points: 6
#     Edge 40, Type (0, 1), None
#     Edge 41, Type (0, 1), None
#     Edge 42, Type (0, 1), None
#     Edge 43, Type (0, 1), None
#     Edge 44, Type (0, 1), None
#     Edge 45, Type (0, 1), None
#     Edge 46, Type (0, 1), None
#     Edge 47, Type (0, 1), None
#     Edge 48, Type (0, 1), None
#     Edge 49, Type (0, 1), None
#     Edge 50, Type (0, 1), None
#     Edge 51, Type (0, 1), None
#     Edge 52, Type (0, 1), None
#     Edge 53, Type (0, 1), None
#     Edge 54, Type (0, 1), None
#     Edge 55, Type (0, 1), None
#     Edge 56, Type (0, 1), None
#     Edge 57, Type (0, 1), None
#     Edge 58, Type (0, 1), None
#     Edge 59, Type (0, 1), None
#     Edge 60, Type (0, 1), None
#     Edge 61, Type (0, 1), None
#     Edge 62, Type (0, 1), None
#     Edge 63, Type (0, 1), None
#     Edge 64, Type (0, 1), None
#     Edge 65, Type (0, 1), None
#     Edge 66, Type (0, 1), None
#     Edge 67, Type (0, 1), None
#     Edge 68, Type (0, 1), None
#     Edge 69, Type (0, 1), None
#     Edge 70, Type (0, 1), None
#     Edge 71, Type (0, 1), None
#     Edge 72, Type (0, 1), None
#     Edge 73, Type (0, 1), None
#     Edge 74, Type (0, 1), None
#     Edge 75, Type (0, 1), None
#     Edge 76, Type (0, 1), None
#     Edge 77, Type (0, 1), None
#     Edge 78, Type (0, 1), None
#     Edge 79, Type (0, 1), None
#     Edge 80, Type (0, 1), None
#     Edge 81, Type (0, 1), None
#     Edge 82, Type (0, 1), None
#     Edge 83, Type (0, 1), None
#     Edge 84, Type (0, 1), None
#     Edge 85, Type (0, 1), None
#     Edge 86, Type (0, 1), None
#     Edge 87, Type (0, 1), None
#     Edge 88, Type (0, 1), None
#     Edge 89, Type (0, 1), None
#     Edge 90, Type (0, 1), None
#     Edge 91, Type (0, 1), None
#     Edge 92, Type (0, 1), None
#     Edge 93, Type (0, 1), None
#     Edge 94, Type (0, 1), None
#     Edge 95, Type (0, 1), None
#     Edge 96, Type (0, 1), None
#     Edge 97, Type (0, 1), None
#     Edge 98, Type (0, 1), None
#     Edge 99, Type (0, 1), None
#     Edge 100, Type (0, 1), None
#     Edge 101, Type (0, 1), None
#     Edge 102, Type (0, 1), None
#     Edge 103, Type (0, 1), None
#     Edge 104, Type (0, 1), None
#     Edge 105, Type (0, 1), None
#     Edge 106, Type (0, 1), None
#     Edge 107, Type (0, 1), None
#     Edge 108, Type (0, 1), None
#     Edge 109, Type (0, 1), None
#     Edge 110, Type (0, 1), None
#     Edge 111, Type (0, 1), None
#     Edge 112, Type (0, 1), None
#     Edge 113, Type (0, 1), None
#     Edge 114, Type (0, 1), None
#     Edge 115, Type (0, 1), None
#     Edge 116, Type (0, 1), None
#     Edge 117, Type (0, 1), None
#     Edge 118, Type (0, 1), None
#     Edge 119, Type (0, 1), None
#     Edge 120, Type (0, 1), None
#     Edge 121, Type (0, 1), None
#     Edge 122, Type (0, 1), None
#     Edge 123, Type (0, 1), None
#     Edge 124, Type (0, 1), None
#     Edge 125, Type (0, 1), None
#     Edge 126, Type (0, 1), None
#     Edge 127, Type (0, 1), None
#     Edge 128, Type (0, 1), None
#     Edge 129, Type (0, 1), None
#     Edge 130, Type (0, 1), None
#     Edge 131, Type (0, 1), None
#     Edge 132, Type (0, 1), None
#     Edge 133, Type (0, 1), None
#     Edge 134, Type (0, 1), None
#     Edge 135, Type (0, 1), None
# Relax obj value: 0.532
# Max RMSD: 0.438
# Mean RMSD: 0.190
data_MOF--net-gar--node1-GALJAG_clean_sbu_0--node2-NUHQIS_clean_sbu_0--edge1-none
_symmetry_space_group_name_H-M    P1
_symmetry_Int_Tables_number       1
_symmetry_cell_setting            triclinic
loop_
_symmetry_equiv_pos_as_xyz
'x, y, z'
_cell_length_a     27.136983
_cell_length_b     29.847383
_cell_length_c     26.631858
_cell_angle_alpha  91.346723
_cell_angle_beta   95.677496
_cell_angle_gamma 97.12741
loop_
_atom_site_label
_atom_site_type_symbol
_atom_site_fract_x
_atom_site_fract_y
_atom_site_fract_z
_atom_type_partial_charge
In0 In 0.13667 0.36164 0.44062 0.0
O1 O 0.17908 0.34504 0.36173 0.0
O2 O 0.22676 0.36888 0.42326 0.0
C3 C 1.03962 0.36569 0.37982 0.0
C4 C 0.12698 0.26419 0.49564 0.0
C5 C 0.14867 0.46974 0.51996 0.0
O6 O 0.08192 0.37841 0.36478 0.0
O7 O 1.04608 0.34917 0.42311 0.0
O8 O 0.13941 0.44389 0.47825 0.0
O9 O 0.13932 0.44417 0.47801 0.0
C10 C 0.22514 0.3548 0.37737 0.0
O11 O 0.14174 0.30416 0.51603 0.0
O12 O 0.11682 0.27353 0.44936 0.0
In13 In 0.11402 0.86936 0.68616 0.0
O14 O 0.11555 0.92693 0.61252 0.0
O15 O 0.12855 0.95691 0.68169 0.0
C16 C 0.10768 0.77134 0.63197 0.0
C17 C 0.21359 0.86973 0.75118 0.0
C18 C 1.01811 0.86853 0.74012 0.0
O19 O 0.09913 0.80842 0.61091 0.0
O20 O 0.11898 0.78359 0.67842 0.0
O21 O 1.06252 0.88151 0.7594 0.0
O22 O 1.02134 0.85635 0.69448 0.0
C23 C 0.12516 0.96625 0.63493 0.0
O24 O 0.17046 0.85914 0.76573 0.0
O25 O 0.20689 0.88036 0.70513 0.0
In26 In 0.6324 0.86109 0.93963 0.0
O27 O 0.67096 0.84388 0.85942 0.0
O28 O 0.7205 0.86706 0.92037 0.0
C29 C 0.53462 0.86395 0.88269 0.0
C30 C 0.62566 0.76466 0.99396 0.0
C31 C 0.64979 0.97042 1.01637 0.0
O32 O 0.57596 0.87632 0.86557 0.0
O33 O 0.54232 0.8483 0.92624 0.0
O34 O 0.63599 0.94356 0.97598 0.0
O35 O 0.6359 0.94374 0.97583 0.0
C36 C 0.71717 0.85285 0.87449 0.0
O37 O 0.64096 0.80445 1.01441 0.0
O38 O 0.61322 0.77364 0.9481 0.0
In39 In 0.61955 0.37176 0.18256 0.0
O40 O 0.60241 0.3101 0.10755 0.0
O41 O 0.62448 0.28564 0.17447 0.0
C42 C 0.62986 0.46837 0.13148 0.0
C43 C 0.52679 0.37343 0.24062 0.0
C44 C 0.71927 0.3724 0.24524 0.0
O45 O 0.61938 0.42915 0.109 0.0
O46 O 0.63467 0.45907 0.17817 0.0
O47 O 0.67664 0.36204 0.26082 0.0
O48 O 0.71212 0.3825 0.19909 0.0
C49 C 0.61182 0.27305 0.12824 0.0
O50 O 0.57187 0.38525 0.25844 0.0
O51 O 0.52805 0.36085 0.19471 0.0
In52 In 0.24076 0.9862 0.22235 0.0
O53 O 0.22227 0.94089 0.1566 0.0
O54 O 0.23425 0.91255 0.22965 0.0
C55 C 0.21248 1.04227 0.15837 0.0
C56 C 0.16555 0.95826 0.26768 0.0
C57 C 0.32185 0.98209 0.27356 0.0
O58 O 0.2254 1.00611 0.14207 0.0
O59 O 0.2228 0.05229 0.20549 0.0
O60 O 0.292 1.00586 0.29178 0.0
O61 O 0.31857 0.9776 0.22587 0.0
C62 C 0.21625 0.9077 0.18436 0.0
O63 O 0.20826 0.96403 0.29142 0.0
O64 O 0.15997 0.97901 0.22759 0.0
In65 In 0.54314 0.75994 0.44468 0.0
O66 O 0.56993 0.76687 0.36842 0.0
O67 O 0.62144 0.75732 0.43103 0.0
C68 C 0.45747 0.77963 0.4096 0.0
C69 C 0.57972 0.72307 0.52577 0.0
C70 C 0.57458 0.84065 0.46005 0.0
O71 O 0.47585 0.74847 0.3873 0.0
O72 O 0.4731 0.78759 0.45563 0.0
O73 O 0.57571 0.81327 0.4948 0.0
O74 O 0.55297 0.82793 0.41757 0.0
C75 C 0.61437 0.77301 0.38819 0.0
O76 O 0.5666 0.76189 0.52977 0.0
O77 O 0.56507 0.70144 0.48359 0.0
In78 In 0.74006 0.48002 0.71088 0.0
O79 O 0.70648 0.4322 0.6508 0.0
O80 O 0.72563 0.40643 0.72361 0.0
C81 C 0.71123 0.53721 0.64609 0.0
C82 C 0.67056 0.46414 0.76748 0.0
C83 C 0.82104 0.46412 0.75586 0.0
O84 O 0.7205 0.49945 0.6301 0.0
O85 O 0.72658 0.5482 0.69215 0.0
O86 O 0.79886 0.49408 0.7753 0.0
O87 O 0.81314 0.45765 0.70834 0.0
C88 C 0.70219 0.40044 0.68058 0.0
O89 O 0.71505 0.46958 0.78677 0.0
O90 O 0.66246 0.48148 0.72562 0.0
In91 In 1.06227 0.26423 0.95448 0.0
O92 O 0.08047 0.26697 0.04057 0.0
O93 O 0.08204 0.20631 0.99576 0.0
C94 C 0.08805 0.34436 0.977 0.0
C95 C 0.13887 0.28372 0.90651 0.0
C96 C 0.97621 0.27937 0.90873 0.0
O97 O 0.08791 0.31543 1.01002 0.0
O98 O 1.06961 0.33312 0.93281 0.0
O99 O 0.99965 0.24972 0.89018 0.0
O100 O 0.98893 0.29037 0.95482 0.0
C101 C 0.0939 0.22822 0.03821 0.0
O102 O 0.09668 0.27292 0.88249 0.0
O103 O 0.14388 0.26874 0.94978 0.0
In104 In 0.64521 0.19053 0.41811 0.0
O105 O 0.70074 0.14753 0.39564 0.0
O106 O 0.67267 0.19264 0.34255 0.0
C107 C 0.67231 0.20715 0.50932 0.0
C108 C 0.57177 0.20403 0.32574 0.0
C109 C 0.59483 0.11627 0.41738 0.0
O110 O 0.70471 0.218 0.47886 0.0
O111 O 0.62938 0.21501 0.49304 0.0
O112 O 0.5801 0.14988 0.43726 0.0
O113 O 0.64068 0.11415 0.42094 0.0
C114 C 0.68655 0.15427 0.35037 0.0
O115 O 0.58659 0.22046 0.36993 0.0
O116 O 0.58668 0.22037 0.36993 0.0
In117 In 0.39059 0.24022 0.55919 0.0
O118 O 0.3956 0.3066 0.62189 0.0
O119 O 0.39464 0.24576 0.65532 0.0
C120 C 0.38906 0.2949 0.46271 0.0
C121 C 0.48597 0.19471 0.55358 0.0
C122 C 0.28732 0.18406 0.55412 0.0
O123 O 0.4013 0.31092 0.50755 0.0
O124 O 0.37635 0.25275 0.46639 0.0
O125 O 0.32697 0.16957 0.54217 0.0
O126 O 0.29943 0.22531 0.56827 0.0
C127 C 0.39648 0.28813 0.66472 0.0
O128 O 0.44103 0.17567 0.54536 0.0
O129 O 0.48343 0.23536 0.5673 0.0
In130 In 0.31644 0.20729 0.94685 0.0
O131 O 0.23835 0.20078 0.91168 0.0
O132 O 0.29828 0.20559 0.86469 0.0
C133 C 0.26385 0.17768 1.01372 0.0
C134 C 0.34245 0.13458 0.90901 0.0
C135 C 0.36818 0.28283 0.93741 0.0
O136 O 0.24686 0.20173 0.97948 0.0
O137 O 0.3112 0.18033 1.02345 0.0
O138 O 0.39097 0.25119 0.95489 0.0
O139 O 0.32171 0.27894 0.9401 0.0
C140 C 0.25296 0.19336 0.86947 0.0
O141 O 0.36761 0.17235 0.90473 0.0
O142 O 0.31015 0.13288 0.93954 0.0
In143 In 0.43326 0.95939 0.09995 0.0
O144 O 0.40743 0.90452 0.15522 0.0
O145 O 0.47073 0.94954 0.1839 0.0
C146 C 0.40074 0.91516 0.99556 0.0
C147 C 0.3999 1.02569 0.17647 0.0
C148 C 0.50916 1.02423 0.0887 0.0
O149 O 0.41065 0.89372 0.03558 0.0
O150 O 0.40614 0.95678 1.00859 0.0
O151 O 0.46518 1.02498 0.07002 0.0
O152 O 0.51769 0.98761 0.10947 0.0
C153 C 0.4372 0.91863 0.19386 0.0
O154 O 0.38527 1.00713 0.13279 0.0
O155 O 0.38539 1.00708 0.13281 0.0
In156 In 0.36948 0.49098 0.06626 0.0
O157 O 0.34877 0.41813 0.10963 0.0
O158 O 0.38181 0.47182 0.15605 0.0
C159 C 0.37818 0.44584 0.96524 0.0
C160 C 0.27226 0.5533 0.09076 0.0
C161 C 0.46996 0.54973 0.0768 0.0
O162 O 0.37585 0.42644 1.00714 0.0
O163 O 0.37384 0.48722 0.97308 0.0
O164 O 0.42812 0.56442 0.07927 0.0
O165 O 0.4613 0.50725 0.0707 0.0
C166 C 0.36405 0.43019 0.15521 0.0
O167 O 0.2893 0.52494 0.06091 0.0
O168 O 0.28941 0.52496 0.06101 0.0
In169 In 0.83142 0.28733 0.05337 0.0
O170 O 0.85618 0.22184 1.03212 0.0
O171 O 0.90715 0.27994 1.02403 0.0
C172 C 0.75192 0.22317 0.04966 0.0
C173 C 0.86054 0.33076 0.153 0.0
C174 C 0.82379 0.32824 0.96363 0.0
O175 O 0.79514 0.21804 0.0683 0.0
O176 O 0.74588 0.2637 0.03878 0.0
O177 O 0.84129 0.34924 1.00454 0.0
O178 O 0.8059 0.28803 0.96858 0.0
C179 C 0.8955 0.23803 1.01517 0.0
O180 O 0.85074 0.35216 0.11345 0.0
O181 O 0.85448 0.28873 0.14259 0.0
In182 In 0.12873 0.57405 0.22115 0.0
O183 O 0.20351 0.57524 0.2564 0.0
O184 O 0.14724 0.52107 0.27131 0.0
C185 C 0.17275 0.65468 0.23327 0.0
C186 C 0.09482 0.55199 0.13605 0.0
C187 C 1.07035 0.58774 0.28293 0.0
O188 O 0.19365 0.62454 0.21315 0.0
O189 O 0.12602 0.64906 0.22901 0.0
O190 O 1.06246 0.60177 0.23877 0.0
O191 O 0.09191 0.55258 0.28725 0.0
C192 C 0.19079 0.54154 0.28133 0.0
O193 O 1.06713 0.54759 0.17106 0.0
O194 O 0.13986 0.54732 0.14745 0.0
In195 In 0.85947 0.99107 0.56456 0.0
O196 O 0.83642 0.91687 0.60559 0.0
O197 O 0.87279 0.96828 0.65285 0.0
C198 C 0.86702 0.94619 0.46195 0.0
C199 C 0.76381 1.03894 0.57315 0.0
C200 C 0.96366 0.047 0.57545 0.0
O201 O 0.87193 0.92846 0.50482 0.0
O202 O 0.85604 0.98596 0.4695 0.0
O203 O 0.92204 0.06274 0.57508 0.0
O204 O 0.9532 1.00428 0.57101 0.0
C205 C 0.85343 0.92717 0.65112 0.0
O206 O 0.80922 0.0545 0.58733 0.0
O207 O 0.76593 1.00037 0.55214 0.0
In208 In 0.96862 1.0399 0.19601 0.0
O209 O 1.05162 0.05683 0.19262 0.0
O210 O 1.00313 0.08126 0.1342 0.0
C211 C 1.01108 1.03962 0.28198 0.0
C212 C 0.93704 0.11396 0.22841 0.0
C213 C 0.91578 0.96199 0.19924 0.0
O214 O 1.0293 1.02051 0.2468 0.0
O215 O 0.96458 1.03932 0.27745 0.0
O216 O 0.89319 0.99562 0.18806 0.0
O217 O 0.96104 0.96586 0.19037 0.0
C218 C 1.04694 0.08449 0.15827 0.0
O219 O 0.90737 0.07795 0.22106 0.0
O220 O 0.97954 0.11308 0.21522 0.0
In221 In 0.33103 0.78815 0.56059 0.0
O222 O 0.3489 0.72094 0.53381 0.0
O223 O 0.40484 0.77544 0.52875 0.0
C224 C 0.25035 0.72448 0.55825 0.0
C225 C 0.35947 0.82963 0.66119 0.0
C226 C 0.32809 0.8373 0.47566 0.0
O227 O 0.2937 0.71904 0.57615 0.0
O228 O 0.24493 0.76502 0.54662 0.0
O229 O 0.34988 0.85297 0.51757 0.0
O230 O 0.30408 0.79868 0.47745 0.0
C231 C 0.38905 0.73452 0.51699 0.0
O232 O 0.34763 0.85134 0.62249 0.0
O233 O 0.35625 0.78794 0.64958 0.0
In234 In 0.46595 0.53972 0.69778 0.0
O235 O 0.40459 0.57583 0.72578 0.0
O236 O 0.4744 0.61353 0.71516 0.0
C237 C 0.41936 0.46064 0.70251 0.0
C238 C 0.54038 0.58154 0.65424 0.0
C239 C 0.5131 0.54196 0.78214 0.0
O240 O 0.39375 0.49232 0.69113 0.0
O241 O 0.46411 0.46657 0.6925 0.0
O242 O 0.52968 0.52256 0.74612 0.0
O243 O 0.46651 0.54051 0.78011 0.0
C244 C 0.43279 0.61284 0.73142 0.0
O245 O 0.54692 0.55647 0.69059 0.0
O246 O 0.49592 0.5772 0.63179 0.0
In247 In 0.60452 0.05773 0.71264 0.0
O248 O 0.67939 0.05163 0.73455 0.0
O249 O 0.62306 1.0094 0.77005 0.0
C250 C 0.663 0.13307 0.72429 0.0
C251 C 0.5739 1.0397 0.6273 0.0
C252 C 0.55424 0.08693 0.77338 0.0
O253 O 0.67647 0.09913 0.70349 0.0
O254 O 0.61702 0.13542 0.72001 0.0
O255 O 0.54863 0.09989 0.72835 0.0
O256 O 0.56824 0.0482 0.7801 0.0
C257 C 0.66833 1.02572 0.76905 0.0
O258 O 0.54143 1.03408 0.658 0.0
O259 O 0.61503 1.02638 0.64038 0.0
In260 In 0.88942 0.74055 0.05677 0.0
O261 O 0.94083 0.67583 0.04737 0.0
O262 O 0.98229 0.73634 0.06784 0.0
C263 C 0.78831 0.68473 0.05111 0.0
C264 C 0.89056 0.78868 0.16136 0.0
C265 C 0.88438 0.79195 0.95795 0.0
O266 O 0.82778 0.67 0.03928 0.0
O267 O 0.79969 0.72585 0.06556 0.0
O268 O 0.89725 0.80944 1.00216 0.0
O269 O 0.87335 0.74984 0.96331 0.0
C270 C 0.98553 0.69521 0.05663 0.0
O271 O 0.89282 0.80727 0.11873 0.0
O272 O 0.88833 0.74627 0.15218 0.0
In273 In 0.08261 0.68646 0.9206 0.0
O274 O 1.0047 0.68977 0.89822 0.0
O275 O 1.05877 0.71707 0.84781 0.0
C276 C 1.04047 0.60742 0.92657 0.0
C277 C 0.12569 0.64715 0.85312 0.0
C278 C 0.13848 0.68499 0.99479 0.0
O279 O 1.01443 0.63896 0.93191 0.0
O280 O 0.08555 0.61664 0.93933 0.0
O281 O 0.14299 0.66754 0.95307 0.0
O282 O 0.11394 0.7194 0.99674 0.0
C283 C 1.01387 0.70109 0.85378 0.0
O284 O 0.13587 0.64065 0.89868 0.0
O285 O 0.10579 0.68224 0.84272 0.0
In286 In 0.92874 0.45606 0.59213 0.0
O287 O 0.90491 0.39752 0.64503 0.0
O288 O 0.96539 0.4446 0.67568 0.0
C289 C 0.89993 0.41478 0.48683 0.0
C290 C 0.89114 0.5212 0.66659 0.0
C291 C 1.00468 0.52262 0.58496 0.0
O292 O 0.907 0.39217 0.52645 0.0
O293 O 0.9065 0.45619 0.50047 0.0
O294 O 0.96121 0.52306 0.56461 0.0
O295 O 1.01277 0.48575 0.60528 0.0
C296 C 0.93412 0.41129 0.68419 0.0
O297 O 0.87721 0.50091 0.62371 0.0
O298 O 0.87745 0.50082 0.62377 0.0
In299 In 0.81263 0.70649 0.44178 0.0
O300 O 0.86651 0.67443 0.39958 0.0
O301 O 0.8107 0.63212 0.43332 0.0
C302 C 0.85979 0.78382 0.43391 0.0
C303 C 0.75235 0.69396 0.3631 0.0
C304 C 0.75564 0.67416 0.50493 0.0
O305 O 0.88444 0.75351 0.45193 0.0
O306 O 0.81336 0.77805 0.43662 0.0
O307 O 0.73945 0.69394 0.46683 0.0
O308 O 0.80263 0.68089 0.51862 0.0
C309 C 0.84337 0.63565 0.40308 0.0
O310 O 0.73625 0.70254 0.40431 0.0
O311 O 0.79793 0.70598 0.3595 0.0
Tb312 Tb 0.11599 0.11413 0.05264 0.0
Eu313 Eu 0.19721 0.17227 0.15695 0.0
C314 C 0.22929 0.15105 0.04156 0.0
C315 C 0.18434 0.07114 0.12768 0.0
C316 C 0.99741 0.14273 1.00242 0.0
C317 C 0.94152 0.19149 0.96067 0.0
C318 C 0.97596 0.16018 0.95788 0.0
C319 C 0.9851 0.15895 0.04917 0.0
C320 C 0.95269 0.19072 0.05181 0.0
C321 C 0.932 0.20802 1.00802 0.0
C322 C 1.03282 0.10813 1.00166 0.0
O323 O 0.08722 0.1452 0.11487 0.0
O324 O 0.12907 0.1279 0.1849 0.0
O325 O 0.15058 0.22638 0.12056 0.0
O326 O 0.15174 0.181 0.05526 0.0
C327 C 0.08574 0.12405 0.15608 0.0
O328 O 0.24867 0.16992 0.228 0.0
O329 O 0.27631 0.18834 0.15671 0.0
O330 O 0.23816 0.16006 0.08991 0.0
O331 O 0.1843 0.13608 1.01787 0.0
O332 O 0.15712 0.06004 0.08415 0.0
O333 O 0.1702 0.10122 0.15563 0.0
C334 C 0.13342 0.21388 0.07327 0.0
O335 O 0.07455 0.11827 0.98107 0.0
O336 O 1.04062 0.08807 0.04425 0.0
C337 C 0.32501 0.14053 0.20312 0.0
C338 C 0.38205 0.06856 0.19119 0.0
C339 C 0.36789 0.07909 0.23933 0.0
C340 C 0.33781 0.11423 0.2449 0.0
C341 C 0.34925 0.1348 0.15929 0.0
C342 C 0.37714 0.09967 0.1536 0.0
C343 C 0.28784 0.17454 0.20199 0.0
H344 H 0.92215 0.2022 0.92639 0.0
H345 H 0.98496 0.14892 0.92134 0.0
H346 H 1.00011 0.14735 0.08447 0.0
H347 H 0.94315 0.20141 0.08852 0.0
H348 H 0.37749 0.05912 0.27137 0.0
H349 H 0.32359 0.11987 0.28079 0.0
H350 H 0.34481 0.15617 0.12738 0.0
H351 H 0.39237 0.09519 0.11794 0.0
Tb352 Tb 0.41461 0.91469 0.36808 0.0
Eu353 Eu 0.35593 0.84289 0.30836 0.0
C354 C 0.33555 0.94375 0.30083 0.0
C355 C 0.34041 0.85684 0.42768 0.0
C356 C 0.4915 1.01338 0.38325 0.0
C357 C 0.51058 0.09241 0.38524 0.0
C358 C 0.47571 0.05581 0.38616 0.0
C359 C 0.53739 1.00746 0.36563 0.0
C360 C 0.5738 1.04392 0.37034 0.0
C361 C 0.56029 0.08486 0.38743 0.0
C362 C 0.46631 0.97843 0.40946 0.0
O363 O 0.4366 0.85452 0.40366 0.0
O364 O 0.42135 0.80942 0.33393 0.0
O365 O 0.39783 0.86433 0.24481 0.0
O366 O 0.4403 0.92563 0.28926 0.0
C367 C 0.43682 0.81527 0.38131 0.0
O368 O 0.34032 0.77696 0.27175 0.0
O369 O 0.28134 0.82184 0.2751 0.0
O370 O 0.33639 0.9065 0.27535 0.0
O371 O 0.34981 0.94617 0.34831 0.0
O372 O 0.37268 0.89282 0.42929 0.0
O373 O 0.32852 0.83271 0.38569 0.0
C374 C 0.42835 0.90142 0.24574 0.0
O375 O 0.41795 0.97739 0.40461 0.0
O376 O 0.48262 0.93928 0.40497 0.0
C377 C 0.26736 0.75072 0.30716 0.0
C378 C 0.19996 0.68174 0.27458 0.0
C379 C 0.24782 0.67228 0.29297 0.0
C380 C 0.28244 0.70787 0.31104 0.0
C381 C 0.21725 0.75591 0.31068 0.0
C382 C 0.18224 0.72054 0.29191 0.0
C383 C 0.29285 0.78058 0.27375 0.0
H384 H 0.49973 0.12493 0.39447 0.0
H385 H 0.43919 0.06084 0.39674 0.0
H386 H 0.5481 0.97429 0.35847 0.0
H387 H 0.61232 1.03826 0.36939 0.0
H388 H 0.26127 0.6405 0.28538 0.0
H389 H 0.32156 0.70299 0.31449 0.0
H390 H 0.20533 0.78907 0.3143 0.0
H391 H 0.14378 0.72628 0.28322 0.0
Tb392 Tb 0.59194 0.07886 0.54586 0.0
Eu393 Eu 0.66061 0.16087 0.58948 0.0
C394 C 0.57582 0.0817 0.59983 0.0
C395 C 0.53627 0.17112 0.55023 0.0
C396 C 0.55916 0.96979 0.48327 0.0
C397 C 0.54182 0.89367 0.50498 0.0
C398 C 0.53132 0.93616 0.50842 0.0
C399 C 0.59618 0.96055 0.45315 0.0
C400 C 0.60279 0.91656 0.44527 0.0
C401 C 0.5769 0.88463 0.47303 0.0
C402 C 0.5487 1.01376 0.49165 0.0
O403 O 0.63671 0.13279 0.51316 0.0
O404 O 0.71739 0.14953 0.53396 0.0
O405 O 0.71858 0.1066 0.5992 0.0
O406 O 0.6671 0.04717 0.56049 0.0
C407 C 0.67353 0.16267 0.53404 0.0
O408 O 0.71702 0.22025 0.60563 0.0
O409 O 0.66976 0.19496 0.66165 0.0
O410 O 0.60743 0.11334 0.62386 0.0
O411 O 0.53096 0.09188 0.59207 0.0
O412 O 0.53402 0.12885 0.53122 0.0
O413 O 0.58184 0.19075 0.56968 0.0
C414 C 0.71422 0.06485 0.57824 0.0
O415 O 0.54223 1.01899 0.53791 0.0
O416 O 0.57727 0.04703 0.47561 0.0
C417 C 0.67665 0.26996 0.64729 0.0
C418 C 0.67525 0.35837 0.66487 0.0
C419 C 0.67873 0.34395 0.61561 0.0
C420 C 0.68096 0.29902 0.6069 0.0
C421 C 0.65768 0.2832 0.69101 0.0
C422 C 0.65936 0.32835 0.70117 0.0
C423 C 0.69773 0.22883 0.64662 0.0
H424 H 0.51972 0.86752 0.52388 0.0
H425 H 0.50181 0.94291 0.53117 0.0
H426 H 0.61864 0.98658 0.43506 0.0
H427 H 0.62778 0.90754 0.41849 0.0
H428 H 0.68921 0.36739 0.58686 0.0
H429 H 0.69221 0.28863 0.57101 0.0
H430 H 0.6486 0.26001 0.71983 0.0
H431 H 0.65544 0.3389 0.73915 0.0
Tb432 Tb 0.34549 0.36856 0.80499 0.0
Eu433 Eu 0.44627 0.36663 0.83168 0.0
C434 C 0.40797 0.43104 0.74366 0.0
C435 C 0.3962 0.31352 0.71967 0.0
C436 C 0.23055 0.36731 0.84249 0.0
C437 C 0.14719 0.35343 0.85936 0.0
C438 C 0.18159 0.37436 0.83047 0.0
C439 C 0.24788 0.35717 0.89219 0.0
C440 C 0.21318 0.33886 0.92274 0.0
C441 C 0.16487 0.32789 0.89933 0.0
C442 C 0.25629 0.35725 0.80057 0.0
O443 O 0.35164 0.32751 0.86985 0.0
O444 O 0.4304 0.31342 0.88508 0.0
O445 O 0.42716 0.40465 0.90523 0.0
O446 O 0.35106 0.41771 0.87314 0.0
C447 C 0.38583 0.31018 0.89749 0.0
O448 O 0.50944 0.3333 0.85378 0.0
O449 O 0.51766 0.40763 0.8463 0.0
O450 O 0.44528 0.41551 0.76928 0.0
O451 O 0.36332 0.42293 0.75687 0.0
O452 O 0.35596 0.33024 0.73255 0.0
O453 O 0.43554 0.32028 0.75495 0.0
C454 C 0.38584 0.42229 0.91245 0.0
O455 O 0.27948 0.39331 0.78306 0.0
O456 O 0.28154 0.3224 0.80507 0.0
C457 C 0.57218 0.36476 0.81251 0.0
C458 C 0.64095 0.42224 0.77542 0.0
C459 C 0.65641 0.39471 0.81446 0.0
C460 C 0.62101 0.36408 0.8324 0.0
C461 C 0.5604 0.38014 0.76392 0.0
C462 C 0.59629 0.40927 0.74442 0.0
C463 C 0.53894 0.37023 0.84899 0.0
H464 H 0.10827 0.34973 0.8445 0.0
H465 H 0.16913 0.38619 0.79377 0.0
H466 H 0.28657 0.35647 0.90472 0.0
H467 H 0.22571 0.32392 0.95774 0.0
H468 H 0.69334 0.40045 0.83475 0.0
H469 H 0.6297 0.34871 0.86814 0.0
H470 H 0.52224 0.37794 0.74678 0.0
H471 H 0.58644 0.42643 0.7101 0.0
Tb472 Tb 0.12545 0.09594 0.52372 0.0
Eu473 Eu 0.12781 0.13396 0.61148 0.0
C474 C 0.23269 0.15636 0.55706 0.0
C475 C 0.12988 1.01801 0.61048 0.0
C476 C 0.09213 0.09288 0.39449 0.0
C477 C 0.09188 0.08361 0.30606 0.0
C478 C 0.1185 0.08801 0.35292 0.0
C479 C 1.04494 0.10835 0.38867 0.0
C480 C 1.01838 0.10231 0.34212 0.0
C481 C 1.03996 0.07986 0.30523 0.0
C482 C 0.10445 0.06706 0.43723 0.0
O483 O 1.04759 0.06479 0.53959 0.0
O484 O 1.04067 0.10737 0.60727 0.0
O485 O 0.12251 0.20557 0.57145 0.0
O486 O 0.11977 0.17153 0.49618 0.0
C487 C 1.01884 0.0747 0.57443 0.0
O488 O 0.11069 0.15649 0.68536 0.0
O489 O 0.18789 0.15569 0.66697 0.0
O490 O 0.20483 0.16912 0.59089 0.0
O491 O 0.21018 0.12119 0.52768 0.0
O492 O 0.13304 1.02689 0.56169 0.0
O493 O 0.13082 0.05637 0.63796 0.0
C494 C 0.12299 0.21208 0.52187 0.0
O495 O 0.15077 0.07356 0.45715 0.0
O496 O 1.07163 0.06545 0.46974 0.0
C497 C 0.17161 0.1333 0.74631 0.0
C498 C 0.2246 0.16035 0.8348 0.0
C499 C 0.17275 0.15208 0.83401 0.0
C500 C 0.14554 0.13912 0.78815 0.0
C501 C 0.22153 0.12463 0.75364 0.0
C502 C 0.24893 0.1412 0.79751 0.0
C503 C 0.15801 0.158 0.70209 0.0
H504 H 0.10985 0.07109 0.27503 0.0
H505 H 0.15599 0.07873 0.35712 0.0
H506 H 1.02468 0.11523 0.42055 0.0
H507 H 0.97863 0.10265 0.34055 0.0
H508 H 0.15366 0.16342 0.86488 0.0
H509 H 0.10619 0.14282 0.78351 0.0
H510 H 0.2421 0.11664 0.72238 0.0
H511 H 0.28891 0.1463 0.79797 0.0
Tb512 Tb 0.36223 0.82861 0.83738 0.0
Eu513 Eu 0.38789 0.91605 0.81292 0.0
C514 C 0.38795 0.89645 0.9376 0.0
C515 C 0.26729 0.87129 0.78392 0.0
C516 C 0.4011 0.71819 0.82364 0.0
C517 C 0.40049 0.63908 0.80831 0.0
C518 C 0.39038 0.6742 0.83885 0.0
C519 C 0.43427 0.72775 0.78629 0.0
C520 C 0.44547 0.69263 0.75647 0.0
C521 C 0.42454 0.64873 0.76493 0.0
C522 C 0.36159 0.74621 0.82789 0.0
O523 O 0.36165 0.82164 0.75327 0.0
O524 O 0.38628 0.89141 0.72962 0.0
O525 O 0.46991 0.90047 0.82714 0.0
O526 O 0.44398 0.83686 0.865 0.0
C527 C 0.37014 0.84903 0.71642 0.0
O528 O 0.39585 0.97666 0.7693 0.0
O529 O 0.40447 0.98046 0.8519 0.0
O530 O 0.39229 0.92559 0.90125 0.0
O531 O 0.37245 0.85364 0.92125 0.0
O532 O 0.28085 0.83929 0.81496 0.0
O533 O 0.30301 0.90511 0.7794 0.0
C534 C 0.48138 0.867 0.85577 0.0
O535 O 0.35566 0.76504 0.87139 0.0
O536 O 0.3572 0.77277 0.79036 0.0
C537 C 0.35657 1.02922 0.81135 0.0
C538 C 0.34108 0.09908 0.87191 0.0
C539 C 0.36443 0.10789 0.82792 0.0
C540 C 0.36983 0.07254 0.79586 0.0
C541 C 0.32247 1.02096 0.84779 0.0
C542 C 0.31507 0.05662 0.87891 0.0
C543 C 0.3956 1.00119 0.81016 0.0
H544 H 0.38812 0.60463 0.81757 0.0
H545 H 0.36702 0.6668 0.86907 0.0
H546 H 0.44474 0.76198 0.77487 0.0
H547 H 0.46684 0.69993 0.7246 0.0
H548 H 0.38094 0.14152 0.81977 0.0
H549 H 0.39357 0.07865 0.76569 0.0
H550 H 0.31013 0.9869 0.85863 0.0
H551 H 0.29398 0.05018 0.9111 0.0
Tb552 Tb 0.653 0.1177 0.10586 0.0
Eu553 Eu 0.60184 0.1318 1.0171 0.0
C554 C 0.64352 1.02576 1.02726 0.0
C555 C 0.71211 0.18452 0.04658 0.0
C556 C 0.65138 0.08587 0.22877 0.0
C557 C 0.6847 0.07909 0.31351 0.0
C558 C 0.68204 0.06492 0.26352 0.0
C559 C 0.60862 0.10163 0.24469 0.0
C560 C 0.61222 0.11601 0.29431 0.0
C561 C 0.65803 0.11431 0.32353 0.0
C562 C 0.67829 0.11343 0.19462 0.0
O563 O 0.63548 0.18981 0.12769 0.0
O564 O 0.59197 0.20475 0.05664 0.0
O565 O 0.53823 0.09323 0.05049 0.0
O566 O 0.58953 0.06656 0.11073 0.0
C567 C 0.61249 0.22091 0.10268 0.0
O568 O 0.55637 0.16777 0.96387 0.0
O569 O 0.58668 0.10693 0.94023 0.0
O570 O 0.62032 0.05419 0.99719 0.0
O571 O 0.66196 1.04637 0.07222 0.0
O572 O 0.71737 0.15121 0.07615 0.0
O573 O 0.67089 0.18364 1.01694 0.0
C574 C 0.54688 0.06296 0.08351 0.0
O575 O 0.69997 0.09196 0.16145 0.0
O576 O 0.65513 0.14654 0.177 0.0
C577 C 0.6017 0.17151 0.89292 0.0
C578 C 0.57836 0.12235 0.80823 0.0
C579 C 0.55788 0.16282 0.81141 0.0
C580 C 0.5713 0.18932 0.85519 0.0
C581 C 0.63983 0.14852 0.87682 0.0
C582 C 0.62464 0.1184 0.83627 0.0
C583 C 0.57152 0.14532 0.92716 0.0
H584 H 0.71573 0.07181 0.33941 0.0
H585 H 0.71252 0.0486 0.25153 0.0
H586 H 0.57945 0.11232 0.21843 0.0
H587 H 0.58102 0.12865 0.308 0.0
H588 H 0.52727 0.1701 0.78488 0.0
H589 H 0.54743 0.21407 0.86451 0.0
H590 H 0.6704 0.14112 0.90349 0.0
H591 H 0.64615 0.091 0.8301 0.0
Tb592 Tb 0.3889 0.39918 0.32955 0.0
Eu593 Eu 0.35974 0.31847 0.28184 0.0
C594 C 0.38831 0.32127 0.4103 0.0
C595 C 0.47701 0.37021 0.26987 0.0
C596 C 0.3179 0.48739 0.32585 0.0
C597 C 0.25183 0.52744 0.34973 0.0
C598 C 0.2969 0.51108 0.36255 0.0
C599 C 0.29097 0.47628 0.27789 0.0
C600 C 0.24732 0.49294 0.26519 0.0
C601 C 0.22848 0.51821 0.30102 0.0
C602 C 0.36926 0.47719 0.33436 0.0
O603 O 0.38597 0.41801 0.24728 0.0
O604 O 0.34137 0.35769 0.20709 0.0
O605 O 0.27833 0.32661 0.30637 0.0
O606 O 0.31428 0.38146 0.36121 0.0
C607 C 0.36308 0.39999 0.20412 0.0
O608 O 0.36763 0.26286 0.22763 0.0
O609 O 0.355 0.24984 0.3045 0.0
O610 O 0.37042 0.29887 0.36753 0.0
O611 O 0.40454 0.36494 0.4047 0.0
O612 O 0.4689 0.39564 0.30987 0.0
O613 O 0.43855 0.34022 0.25305 0.0
C614 C 0.27343 0.35379 0.34603 0.0
O615 O 0.38395 0.45734 0.37556 0.0
O616 O 0.38328 0.45911 0.29444 0.0
C617 C 0.42118 0.21704 0.27579 0.0
C618 C 0.51932 0.20235 0.30617 0.0
C619 C 0.50306 0.20179 0.25431 0.0
C620 C 0.45393 0.2103 0.23903 0.0
C621 C 0.43663 0.20995 0.32661 0.0
C622 C 0.48453 0.20215 0.34134 0.0
C623 C 0.37294 0.2354 0.26465 0.0
H624 H 0.23671 0.54876 0.37632 0.0
H625 H 0.31667 0.51906 0.39959 0.0
H626 H 0.30462 0.4573 0.24839 0.0
H627 H 0.22962 0.48807 0.22657 0.0
H628 H 0.52891 0.19843 0.2263 0.0
H629 H 0.44244 0.21378 0.19936 0.0
H630 H 0.41263 0.21295 0.35631 0.0
H631 H 0.49514 0.19955 0.38136 0.0
Tb632 Tb 0.6281 0.59754 1.02065 0.0
Eu633 Eu 0.63139 0.63592 0.10902 0.0
C634 C 0.73451 0.6574 0.05409 0.0
C635 C 0.63397 0.52001 0.10721 0.0
C636 C 0.59532 0.59452 0.89128 0.0
C637 C 0.59401 0.58632 0.80256 0.0
C638 C 0.62105 0.58941 0.84925 0.0
C639 C 0.54871 0.61108 0.88626 0.0
C640 C 0.52191 0.60652 0.83974 0.0
C641 C 0.54222 0.58337 0.80247 0.0
C642 C 0.60785 0.56871 0.93394 0.0
O643 O 0.55174 0.56681 0.03934 0.0
O644 O 0.54502 0.61114 0.10589 0.0
O645 O 0.6244 0.70683 0.06938 0.0
O646 O 0.62028 0.67269 0.99383 0.0
C647 C 0.52353 0.57794 0.07401 0.0
O648 O 0.61427 0.65862 0.18252 0.0
O649 O 0.69168 0.65918 0.16398 0.0
O650 O 0.70686 0.67117 0.08726 0.0
O651 O 0.7125 0.62184 1.02539 0.0
O652 O 0.63596 0.52867 0.05829 0.0
O653 O 0.63542 0.55834 0.13492 0.0
C654 C 0.62338 0.71301 1.0198 0.0
O655 O 0.65401 0.57604 0.95405 0.0
O656 O 0.57488 0.56634 0.96634 0.0
C657 C 0.67458 0.63335 0.24168 0.0
C658 C 0.72604 0.6583 0.33062 0.0
C659 C 0.67429 0.64866 0.32968 0.0
C660 C 0.64772 0.63697 0.28333 0.0
C661 C 0.72446 0.6246 0.24893 0.0
C662 C 0.75122 0.64001 0.29349 0.0
C663 C 0.66158 0.66002 0.19911 0.0
H664 H 0.61113 0.57356 0.77103 0.0
H665 H 0.65817 0.57927 0.85285 0.0
H666 H 0.52902 0.61811 0.9185 0.0
H667 H 0.48241 0.60791 0.83859 0.0
H668 H 0.65465 0.65913 0.36056 0.0
H669 H 0.60834 0.64056 0.27855 0.0
H670 H 0.74554 0.61816 0.21755 0.0
H671 H 0.79116 0.64624 0.29404 0.0
Tb672 Tb 0.86709 0.33099 0.32913 0.0
Eu673 Eu 0.89364 0.41843 0.30486 0.0
C674 C 0.88881 0.39718 0.4289 0.0
C675 C 0.77287 0.37393 0.2771 0.0
C676 C 0.90588 0.22108 0.31684 0.0
C677 C 0.90406 0.14182 0.3036 0.0
C678 C 0.8944 0.17762 0.33318 0.0
C679 C 0.93969 0.22961 0.27991 0.0
C680 C 0.95066 0.19378 0.25123 0.0
C681 C 0.92881 0.15041 0.26055 0.0
C682 C 0.86632 0.24901 0.31905 0.0
O683 O 0.86261 0.32386 0.24492 0.0
O684 O 0.89091 0.39271 0.22127 0.0
O685 O 0.97587 0.40278 0.32218 0.0
O686 O 0.94872 0.33876 0.35857 0.0
C687 C 0.8723 0.35076 0.20802 0.0
O688 O 0.9006 0.47895 0.26068 0.0
O689 O 0.91106 0.48327 0.34302 0.0
O690 O 0.89433 0.42671 0.39301 0.0
O691 O 0.87394 0.35456 0.41238 0.0
O692 O 0.78616 0.34192 0.308 0.0
O693 O 0.80867 0.40752 0.27201 0.0
C694 C 0.98668 0.36908 0.35101 0.0
O695 O 0.85842 0.26729 0.36221 0.0
O696 O 0.86394 0.27589 0.28158 0.0
C697 C 0.86286 0.53241 0.3036 0.0
C698 C 0.84461 0.60075 0.36553 0.0
C699 C 0.86926 0.61086 0.32253 0.0
C700 C 0.87632 0.57633 0.28993 0.0
C701 C 0.82797 0.52291 0.33903 0.0
C702 C 0.81916 0.55769 0.37075 0.0
C703 C 0.90156 0.50394 0.3014 0.0
H704 H 0.89069 0.1077 0.31324 0.0
H705 H 0.87046 0.17114 0.36311 0.0
H706 H 0.95069 0.26349 0.2677 0.0
H707 H 0.97251 0.2001 0.21952 0.0
H708 H 0.88531 0.64493 0.31552 0.0
H709 H 0.90078 0.5835 0.26055 0.0
H710 H 0.81558 0.48847 0.34853 0.0
H711 H 0.79704 0.55015 0.40197 0.0
Tb712 Tb 0.14909 0.61635 0.61087 0.0
Eu713 Eu 0.10164 0.63156 0.52047 0.0
C714 C 0.14303 0.52539 0.53084 0.0
C715 C 0.21021 0.68581 0.55509 0.0
C716 C 0.13968 0.58284 0.73169 0.0
C717 C 0.15375 0.58023 0.82028 0.0
C718 C 0.16613 0.56745 0.77376 0.0
C719 C 0.09037 0.59291 0.73448 0.0
C720 C 0.07825 0.60594 0.78106 0.0
C721 C 0.11639 0.60821 0.82052 0.0
C722 C 0.17035 0.60987 0.70022 0.0
O723 O 0.13045 0.68803 0.63251 0.0
O724 O 0.09044 0.70395 0.55984 0.0
O725 O 1.03566 0.592 0.5485 0.0
O726 O 0.08385 0.56586 0.61179 0.0
C727 C 0.10894 0.71947 0.60662 0.0
O728 O 1.0564 0.66726 0.46666 0.0
O729 O 0.09287 0.60985 0.44274 0.0
O730 O 0.12071 0.55414 0.50044 0.0
O731 O 0.15974 0.54554 0.57654 0.0
O732 O 0.21469 0.65221 0.58467 0.0
O733 O 0.17009 0.68448 0.52378 0.0
C734 C 1.04256 0.56187 0.58207 0.0
O735 O 0.19223 0.58792 0.66775 0.0
O736 O 0.15018 0.64454 0.68247 0.0
C737 C 0.10787 0.67768 0.40035 0.0
C738 C 0.08967 0.62403 0.31865 0.0
C739 C 1.06577 0.66303 0.31904 0.0
C740 C 0.07791 0.69274 0.36046 0.0
C741 C 0.14869 0.65713 0.38656 0.0
C742 C 0.13618 0.62415 0.34819 0.0
C743 C 0.07634 0.64802 0.43071 0.0
H744 H 0.18008 0.57793 0.85319 0.0
H745 H 0.2026 0.55687 0.77135 0.0
H746 H 1.06763 0.60241 0.70159 0.0
H747 H 1.04572 0.62332 0.78358 0.0
H748 H 1.03506 0.66772 0.29129 0.0
H749 H 1.05341 0.71775 0.36694 0.0
H750 H 0.17991 0.65345 0.41425 0.0
H751 H 0.16002 0.59808 0.34483 0.0
Tb752 Tb 0.83519 0.86926 0.30006 0.0
Eu753 Eu 0.93627 0.86715 0.32806 0.0
C754 C 0.90124 0.93178 0.23947 0.0
C755 C 0.88862 0.81404 0.21599 0.0
C756 C 0.71454 0.86201 0.33136 0.0
C757 C 0.62923 0.84191 0.33952 0.0
C758 C 0.66545 0.86682 0.31571 0.0
C759 C 0.72832 0.84848 0.38053 0.0
C760 C 0.69172 0.8255 0.40583 0.0
C761 C 0.64469 0.81468 0.37882 0.0
C762 C 0.74506 0.85646 0.29171 0.0
O763 O 0.84155 0.82891 0.3663 0.0
O764 O 0.92011 0.8131 0.37966 0.0
O765 O 0.91617 0.90519 0.40138 0.0
O766 O 0.83949 0.91721 0.36948 0.0
C767 C 0.876 0.81082 0.39314 0.0
O768 O 0.99967 0.83466 0.35193 0.0
O769 O 1.00729 0.90872 0.34197 0.0
O770 O 0.93737 0.91536 0.26567 0.0
O771 O 0.85586 0.92387 0.25157 0.0
O772 O 0.84803 0.83098 0.2279 0.0
O773 O 0.92715 0.82047 0.25203 0.0
C774 C 0.87456 0.92248 0.40874 0.0
O775 O 0.76904 0.89433 0.27933 0.0
O776 O 0.7714 0.82231 0.29564 0.0
C777 C 1.06183 0.86504 0.30934 0.0
C778 C 0.13513 0.91627 0.27192 0.0
C779 C 0.14754 0.88813 0.31141 0.0
C780 C 0.10972 0.8605 0.32942 0.0
C781 C 1.05193 0.88079 0.26051 0.0
C782 C 0.09049 0.90616 0.24043 0.0
C783 C 1.02876 0.87151 0.34566 0.0
H784 H 0.59111 0.83835 0.32214 0.0
H785 H 0.65536 0.88101 0.27961 0.0
H786 H 0.76668 0.84883 0.39564 0.0
H787 H 0.70225 0.80936 0.44066 0.0
H788 H 0.18417 0.89186 0.33241 0.0
H789 H 0.11667 0.84495 0.36539 0.0
H790 H 1.01426 0.8815 0.24318 0.0
H791 H 0.08271 0.92421 0.20625 0.0
Tb792 Tb 0.91211 0.40189 0.8578 0.0
Eu793 Eu 0.86072 0.32624 0.79889 0.0
C794 C 0.83352 0.42636 0.7857 0.0
C795 C 0.83659 0.34477 0.91474 0.0
C796 C 0.9835 0.49535 0.86035 0.0
C797 C 0.98203 0.57344 0.8589 0.0
C798 C 0.95787 0.53146 0.8458 0.0
C799 C 1.03517 0.49995 0.8623 0.0
C800 C 1.05902 0.54181 0.87774 0.0
C801 C 1.02891 0.57609 0.88464 0.0
C802 C 0.96231 0.46575 0.89563 0.0
O803 O 0.93876 0.34616 0.89766 0.0
O804 O 0.92928 0.29758 0.83092 0.0
O805 O 0.90101 0.35195 0.73474 0.0
O806 O 0.9374 0.41539 0.77933 0.0
C807 C 0.94581 0.30769 0.87781 0.0
O808 O 0.85091 0.25855 0.76664 0.0
O809 O 0.7892 0.30057 0.76133 0.0
O810 O 0.83498 0.38766 0.76296 0.0
O811 O 0.8472 0.43147 0.83329 0.0
O812 O 0.86538 0.38259 0.91517 0.0
O813 O 0.82962 0.31754 0.87477 0.0
C814 C 0.92754 0.39141 0.73559 0.0
O815 O 0.91383 0.46388 0.89559 0.0
O816 O 0.98014 0.42707 0.8968 0.0
C817 C 0.77265 0.22715 0.78671 0.0
C818 C 0.69786 0.16118 0.75931 0.0
C819 C 0.74608 0.14936 0.77 0.0
C820 C 0.78435 0.18307 0.78466 0.0
C821 C 0.72395 0.23522 0.79409 0.0
C822 C 0.68554 0.20133 0.77942 0.0
C823 C 0.80269 0.26006 0.76049 0.0
H824 H 0.95966 0.59948 0.86406 0.0
H825 H 0.91751 0.52796 0.83939 0.0
H826 H 1.05542 0.47092 0.86549 0.0
H827 H 0.09789 0.54503 0.89262 0.0
H828 H 0.75541 0.11628 0.76004 0.0
H829 H 0.82243 0.17593 0.78357 0.0
H830 H 0.71479 0.26902 0.80093 0.0
H831 H 0.64729 0.20839 0.77737 0.0
Tb832 Tb 0.87814 0.89441 0.82421 0.0
Eu833 Eu 0.84729 0.81502 0.77615 0.0
C834 C 0.88138 0.81708 0.90473 0.0
C835 C 0.96722 0.865 0.76767 0.0
C836 C 0.80116 0.98127 0.81375 0.0
C837 C 0.73157 1.01658 0.83787 0.0
C838 C 0.77866 1.00361 0.85047 0.0
C839 C 0.77509 0.97052 0.76525 0.0
C840 C 0.72887 0.98174 0.75379 0.0
C841 C 0.7073 1.00429 0.78996 0.0
C842 C 0.85262 0.97102 0.82205 0.0
O843 O 0.88024 0.91144 0.7414 0.0
O844 O 0.82692 0.8558 0.70332 0.0
O845 O 0.76718 0.82577 0.80124 0.0
O846 O 0.80653 0.87532 0.85976 0.0
C847 C 0.85314 0.8959 0.6991 0.0
O848 O 0.85693 0.76603 0.71625 0.0
O849 O 0.82187 0.74386 0.78231 0.0
O850 O 0.86591 0.79373 0.86145 0.0
O851 O 0.8935 0.86144 0.89957 0.0
O852 O 0.95805 0.89231 0.80552 0.0
O853 O 0.9293 0.83358 0.75184 0.0
C854 C 0.76427 0.8509 0.84279 0.0
O855 O 0.87106 0.95582 0.86497 0.0
O856 O 0.86251 0.94774 0.78393 0.0
C857 C 0.89109 0.70966 0.76313 0.0
C858 C 0.97651 0.68575 0.81166 0.0
C859 C 0.97857 0.6997 0.76184 0.0
C860 C 0.93349 0.70921 0.73568 0.0
C861 C 0.89291 0.69289 0.81178 0.0
C862 C 0.93047 0.66858 0.82596 0.0
C863 C 0.84872 0.73343 0.74683 0.0
H864 H 0.71522 1.03727 0.86413 0.0
H865 H 0.79825 1.01263 0.88737 0.0
H866 H 0.79042 0.95464 0.73447 0.0
H867 H 0.71138 0.97568 0.71517 0.0
H868 H 1.01379 0.70837 0.74626 0.0
H869 H 0.93339 0.72166 0.69783 0.0
H870 H 0.86236 0.6922 0.83505 0.0
H871 H 0.91766 0.63393 0.81388 0.0
Tb872 Tb 0.60756 0.60869 0.54387 0.0
Eu873 Eu 0.68698 0.6669 0.64593 0.0
C874 C 0.72016 0.64851 0.5326 0.0
C875 C 0.67902 0.56545 0.61782 0.0
C876 C 0.48542 0.63414 0.49806 0.0
C877 C 0.43051 0.68566 0.45916 0.0
C878 C 0.46393 0.6534 0.45452 0.0
C879 C 0.47229 0.64841 0.54522 0.0
C880 C 0.44055 0.68052 0.54968 0.0
C881 C 0.42185 0.7012 0.50734 0.0
C882 C 0.52209 0.60019 0.49644 0.0
O883 O 0.57996 0.63996 0.60659 0.0
O884 O 0.62208 0.62386 0.67703 0.0
O885 O 0.63758 0.71803 0.60641 0.0
O886 O 0.63868 0.67622 0.53634 0.0
C887 C 0.57918 0.61953 0.64839 0.0
O888 O 0.73729 0.66466 0.71737 0.0
O889 O 0.76605 0.68606 0.64731 0.0
O890 O 0.72923 0.65628 0.58077 0.0
O891 O 0.67521 0.6334 0.50903 0.0
O892 O 0.65227 0.5557 0.57363 0.0
O893 O 0.66439 0.59454 0.64702 0.0
C894 C 0.6215 0.70842 0.55787 0.0
O895 O 0.56251 0.61027 0.47363 0.0
O896 O 0.53264 0.58137 0.53932 0.0
C897 C 0.8124 0.63447 0.69131 0.0
C898 C 0.87028 0.5629 0.67969 0.0
C899 C 0.857 0.57412 0.72791 0.0
C900 C 0.8267 0.60909 0.73342 0.0
C901 C 0.83404 0.62707 0.64629 0.0
C902 C 0.86237 0.59226 0.64078 0.0
C903 C 0.77646 0.66943 0.69145 0.0
H904 H 0.4113 0.69789 0.42571 0.0
H905 H 0.47281 0.64352 0.41743 0.0
H906 H 0.48763 0.63626 0.57978 0.0
H907 H 0.43126 0.68987 0.58694 0.0
H908 H 0.86768 0.55484 0.7602 0.0
H909 H 0.81376 0.61557 0.76975 0.0
H910 H 0.82779 0.64721 0.61366 0.0
H911 H 0.87625 0.58699 0.60458 0.0
Tb912 Tb 0.09337 0.57993 0.04785 0.0
Eu913 Eu 0.16402 0.6695 0.08775 0.0
C914 C 0.0837 0.58799 0.10296 0.0
C915 C 1.03652 0.67213 0.05585 0.0
C916 C 1.05747 0.46817 0.99275 0.0
C917 C 1.05717 0.3957 1.02635 0.0
C918 C 1.03787 0.43503 1.02434 0.0
C919 C 0.09444 0.46113 0.96171 0.0
C920 C 0.10915 0.41972 0.95922 0.0
C921 C 0.09063 0.38802 0.99187 0.0
C922 C 1.04699 0.51174 1.00196 0.0
O923 O 0.15789 0.62034 1.02607 0.0
O924 O 0.21353 0.67836 1.02327 0.0
O925 O 0.22076 0.61613 0.10357 0.0
O926 O 0.17384 0.55386 0.06247 0.0
C927 C 0.16822 0.66472 1.03237 0.0
O928 O 0.20781 0.73494 0.08523 0.0
O929 O 0.18814 0.70734 0.15722 0.0
O930 O 0.10581 0.62674 0.12208 0.0
O931 O 1.03561 0.58674 0.09843 0.0
O932 O 1.03711 0.63169 1.03285 0.0
O933 O 0.08068 0.69225 0.07846 0.0
C934 C 0.21967 0.57452 0.0832 0.0
O935 O 1.04784 0.51865 0.05001 0.0
O936 O 1.07285 0.54402 0.98081 0.0
C937 C 0.17436 0.78057 0.13725 0.0
C938 C 0.18635 0.86748 0.16648 0.0
C939 C 0.18069 0.85765 0.11487 0.0
C940 C 0.17547 0.81309 0.0998 0.0
C941 C 0.16279 0.79093 0.18514 0.0
C942 C 0.17168 0.83514 0.20103 0.0
C943 C 0.20092 0.74298 0.13176 0.0
H944 H 1.04141 0.36968 0.05014 0.0
H945 H 1.01 0.44069 0.04958 0.0
H946 H 0.11256 0.4871 0.94004 0.0
H947 H 0.13374 0.41228 0.9315 0.0
H948 H 0.18944 0.88314 0.08765 0.0
H949 H 0.1811 0.80518 0.06101 0.0
H950 H 0.1577 0.7654 0.21253 0.0
H951 H 0.17555 0.84216 0.24102 0.0
loop_
_geom_bond_atom_site_label_1
_geom_bond_atom_site_label_2
_geom_bond_distance
_geom_bond_site_symmetry_2
_ccdc_geom_bond_type
In0 O1 2.294 . S
In0 O2 2.326 . S
In0 O6 2.261 1_455 S
In0 O7 2.326 1_455 S
In0 O8 2.266 . S
In0 O9 2.326 . S
In0 O11 2.294 . S
In0 O12 2.326 . S
O1 In0 2.294 . S
O1 C10 1.240 . S
O2 In0 2.326 . S
O2 C10 1.252 . S
C3 O6 1.259 . S
C3 O7 1.260 . S
C4 O11 1.240 . S
C4 O12 1.252 . S
C5 O8 1.252 . S
C5 O9 1.260 . S
O6 In0 2.261 1_655 S
O6 C3 1.259 . S
O7 In0 2.326 1_655 S
O7 C3 1.260 . S
O8 In0 2.266 . S
O8 C5 1.252 . S
O9 In0 2.326 . S
O9 C5 1.260 . S
C10 O1 1.240 . S
C10 O2 1.252 . S
O11 In0 2.294 . S
O11 C4 1.240 . S
O12 In0 2.326 . S
O12 C4 1.252 . S
In13 O14 2.294 . S
In13 O15 2.326 . S
In13 O19 2.266 . S
In13 O20 2.326 . S
In13 O21 2.260 1_455 S
In13 O22 2.326 1_455 S
In13 O24 2.294 . S
In13 O25 2.326 . S
O14 In13 2.294 . S
O14 C23 1.240 . S
O15 In13 2.326 . S
O15 C23 1.252 . S
C16 O19 1.252 . S
C16 O20 1.260 . S
C17 O24 1.240 . S
C17 O25 1.252 . S
C18 O21 1.258 . S
C18 O22 1.260 . S
O19 In13 2.266 . S
O19 C16 1.252 . S
O20 In13 2.326 . S
O20 C16 1.260 . S
O21 In13 2.260 1_655 S
O21 C18 1.258 . S
O22 In13 2.326 1_655 S
O22 C18 1.260 . S
C23 O14 1.240 . S
C23 O15 1.252 . S
O24 In13 2.294 . S
O24 C17 1.240 . S
O25 In13 2.326 . S
O25 C17 1.252 . S
In26 O27 2.294 . S
In26 O28 2.326 . S
In26 O32 2.266 . S
In26 O33 2.326 . S
In26 O34 2.266 . S
In26 O35 2.326 . S
In26 O37 2.294 . S
In26 O38 2.326 . S
O27 In26 2.294 . S
O27 C36 1.240 . S
O28 In26 2.326 . S
O28 C36 1.252 . S
C29 O32 1.252 . S
C29 O33 1.260 . S
C30 O37 1.240 . S
C30 O38 1.252 . S
C31 O34 1.252 . S
C31 O35 1.260 . S
O32 In26 2.266 . S
O32 C29 1.252 . S
O33 In26 2.326 . S
O33 C29 1.260 . S
O34 In26 2.266 . S
O34 C31 1.252 . S
O35 In26 2.326 . S
O35 C31 1.260 . S
C36 O27 1.240 . S
C36 O28 1.252 . S
O37 In26 2.294 . S
O37 C30 1.240 . S
O38 In26 2.326 . S
O38 C30 1.252 . S
In39 O40 2.294 . S
In39 O41 2.326 . S
In39 O45 2.266 . S
In39 O46 2.326 . S
In39 O47 2.266 . S
In39 O48 2.326 . S
In39 O50 2.294 . S
In39 O51 2.326 . S
O40 In39 2.294 . S
O40 C49 1.240 . S
O41 In39 2.326 . S
O41 C49 1.252 . S
C42 O45 1.252 . S
C42 O46 1.260 . S
C43 O50 1.240 . S
C43 O51 1.252 . S
C44 O47 1.252 . S
C44 O48 1.260 . S
O45 In39 2.266 . S
O45 C42 1.252 . S
O46 In39 2.326 . S
O46 C42 1.260 . S
O47 In39 2.266 . S
O47 C44 1.252 . S
O48 In39 2.326 . S
O48 C44 1.260 . S
C49 O40 1.240 . S
C49 O41 1.252 . S
O50 In39 2.294 . S
O50 C43 1.240 . S
O51 In39 2.326 . S
O51 C43 1.252 . S
In52 O53 2.294 . S
In52 O54 2.326 . S
In52 O58 2.266 . S
In52 O59 2.326 1_565 S
In52 O60 2.266 . S
In52 O61 2.326 . S
In52 O63 2.294 . S
In52 O64 2.326 . S
O53 In52 2.294 . S
O53 C62 1.240 . S
O54 In52 2.326 . S
O54 C62 1.252 . S
C55 O58 1.252 1_545 S
C55 O59 1.260 . S
C56 O63 1.240 . S
C56 O64 1.252 . S
C57 O60 1.252 . S
C57 O61 1.260 . S
O58 In52 2.266 . S
O58 C55 1.252 1_565 S
O59 In52 2.326 1_545 S
O59 C55 1.260 . S
O60 In52 2.266 . S
O60 C57 1.252 . S
O61 In52 2.326 . S
O61 C57 1.260 . S
C62 O53 1.240 . S
C62 O54 1.252 . S
O63 In52 2.294 . S
O63 C56 1.240 . S
O64 In52 2.326 . S
O64 C56 1.252 . S
In65 O66 2.294 . S
In65 O67 2.326 . S
In65 O71 2.266 . S
In65 O72 2.326 . S
In65 O73 2.266 . S
In65 O74 2.326 . S
In65 O76 2.294 . S
In65 O77 2.326 . S
O66 In65 2.294 . S
O66 C75 1.240 . S
O67 In65 2.326 . S
O67 C75 1.252 . S
C68 O71 1.252 . S
C68 O72 1.260 . S
C69 O76 1.240 . S
C69 O77 1.252 . S
C70 O73 1.252 . S
C70 O74 1.260 . S
O71 In65 2.266 . S
O71 C68 1.252 . S
O72 In65 2.326 . S
O72 C68 1.260 . S
O73 In65 2.266 . S
O73 C70 1.252 . S
O74 In65 2.326 . S
O74 C70 1.260 . S
C75 O66 1.240 . S
C75 O67 1.252 . S
O76 In65 2.294 . S
O76 C69 1.240 . S
O77 In65 2.326 . S
O77 C69 1.252 . S
In78 O79 2.294 . S
In78 O80 2.326 . S
In78 O84 2.266 . S
In78 O85 2.326 . S
In78 O86 2.266 . S
In78 O87 2.326 . S
In78 O89 2.294 . S
In78 O90 2.326 . S
O79 In78 2.294 . S
O79 C88 1.240 . S
O80 In78 2.326 . S
O80 C88 1.252 . S
C81 O84 1.252 . S
C81 O85 1.260 . S
C82 O89 1.240 . S
C82 O90 1.252 . S
C83 O86 1.252 . S
C83 O87 1.260 . S
O84 In78 2.266 . S
O84 C81 1.252 . S
O85 In78 2.326 . S
O85 C81 1.260 . S
O86 In78 2.266 . S
O86 C83 1.252 . S
O87 In78 2.326 . S
O87 C83 1.260 . S
C88 O79 1.240 . S
C88 O80 1.252 . S
O89 In78 2.294 . S
O89 C82 1.240 . S
O90 In78 2.326 . S
O90 C82 1.252 . S
In91 O92 2.294 . S
In91 O93 2.328 1_455 S
In91 O97 2.265 . S
In91 O98 2.324 1_455 S
In91 O99 2.264 1_455 S
In91 O100 2.322 1_455 S
In91 O102 2.296 . S
In91 O103 2.329 . S
O92 In91 2.294 . S
O92 C101 1.240 . S
O93 In91 2.328 1_655 S
O93 C101 1.252 1_655 S
C94 O97 1.252 . S
C94 O98 1.261 1_455 S
C95 O102 1.240 . S
C95 O103 1.252 . S
C96 O99 1.252 . S
C96 O100 1.260 . S
O97 In91 2.265 . S
O97 C94 1.252 . S
O98 In91 2.324 1_655 S
O98 C94 1.261 1_655 S
O99 In91 2.264 1_655 S
O99 C96 1.252 . S
O100 In91 2.322 1_655 S
O100 C96 1.260 . S
C101 O92 1.240 . S
C101 O93 1.252 1_455 S
O102 In91 2.296 . S
O102 C95 1.240 . S
O103 In91 2.329 . S
O103 C95 1.252 . S
In104 O105 2.294 . S
In104 O106 2.326 . S
In104 O110 2.266 . S
In104 O111 2.326 . S
In104 O112 2.266 . S
In104 O113 2.326 . S
In104 O115 2.294 . S
In104 O116 2.326 . S
O105 In104 2.294 . S
O105 C114 1.240 . S
O106 In104 2.326 . S
O106 C114 1.252 . S
C107 O110 1.252 . S
C107 O111 1.260 . S
C108 O115 1.240 . S
C108 O116 1.252 . S
C109 O112 1.252 . S
C109 O113 1.260 . S
O110 In104 2.266 . S
O110 C107 1.252 . S
O111 In104 2.326 . S
O111 C107 1.260 . S
O112 In104 2.266 . S
O112 C109 1.252 . S
O113 In104 2.326 . S
O113 C109 1.260 . S
C114 O105 1.240 . S
C114 O106 1.252 . S
O115 In104 2.294 . S
O115 C108 1.240 . S
O116 In104 2.326 . S
O116 C108 1.252 . S
In117 O118 2.294 . S
In117 O119 2.326 . S
In117 O123 2.266 . S
In117 O124 2.326 . S
In117 O125 2.266 . S
In117 O126 2.326 . S
In117 O128 2.294 . S
In117 O129 2.326 . S
O118 In117 2.294 . S
O118 C127 1.240 . S
O119 In117 2.326 . S
O119 C127 1.252 . S
C120 O123 1.252 . S
C120 O124 1.260 . S
C121 O128 1.240 . S
C121 O129 1.252 . S
C122 O125 1.252 . S
C122 O126 1.260 . S
O123 In117 2.266 . S
O123 C120 1.252 . S
O124 In117 2.326 . S
O124 C120 1.260 . S
O125 In117 2.266 . S
O125 C122 1.252 . S
O126 In117 2.326 . S
O126 C122 1.260 . S
C127 O118 1.240 . S
C127 O119 1.252 . S
O128 In117 2.294 . S
O128 C121 1.240 . S
O129 In117 2.326 . S
O129 C121 1.252 . S
In130 O131 2.294 . S
In130 O132 2.326 . S
In130 O136 2.266 . S
In130 O137 2.326 . S
In130 O138 2.266 . S
In130 O139 2.326 . S
In130 O141 2.294 . S
In130 O142 2.326 . S
O131 In130 2.294 . S
O131 C140 1.240 . S
O132 In130 2.326 . S
O132 C140 1.252 . S
C133 O136 1.252 . S
C133 O137 1.260 . S
C134 O141 1.240 . S
C134 O142 1.252 . S
C135 O138 1.252 . S
C135 O139 1.260 . S
O136 In130 2.266 . S
O136 C133 1.252 . S
O137 In130 2.326 . S
O137 C133 1.260 . S
O138 In130 2.266 . S
O138 C135 1.252 . S
O139 In130 2.326 . S
O139 C135 1.260 . S
C140 O131 1.240 . S
C140 O132 1.252 . S
O141 In130 2.294 . S
O141 C134 1.240 . S
O142 In130 2.326 . S
O142 C134 1.252 . S
In143 O144 2.294 . S
In143 O145 2.326 . S
In143 O149 2.266 . S
In143 O150 2.326 1_554 S
In143 O151 2.266 . S
In143 O152 2.326 . S
In143 O154 2.294 . S
In143 O155 2.326 . S
O144 In143 2.294 . S
O144 C153 1.240 . S
O145 In143 2.326 . S
O145 C153 1.252 . S
C146 O149 1.252 1_556 S
C146 O150 1.260 . S
C147 O154 1.240 . S
C147 O155 1.252 . S
C148 O151 1.252 . S
C148 O152 1.260 . S
O149 In143 2.266 . S
O149 C146 1.252 1_554 S
O150 In143 2.326 1_556 S
O150 C146 1.260 . S
O151 In143 2.266 . S
O151 C148 1.252 . S
O152 In143 2.326 . S
O152 C148 1.260 . S
C153 O144 1.240 . S
C153 O145 1.252 . S
O154 In143 2.294 . S
O154 C147 1.240 . S
O155 In143 2.326 . S
O155 C147 1.252 . S
In156 O157 2.294 . S
In156 O158 2.326 . S
In156 O162 2.266 1_554 S
In156 O163 2.326 1_554 S
In156 O164 2.266 . S
In156 O165 2.326 . S
In156 O167 2.294 . S
In156 O168 2.326 . S
O157 In156 2.294 . S
O157 C166 1.240 . S
O158 In156 2.326 . S
O158 C166 1.252 . S
C159 O162 1.252 . S
C159 O163 1.260 . S
C160 O167 1.240 . S
C160 O168 1.252 . S
C161 O164 1.252 . S
C161 O165 1.260 . S
O162 In156 2.266 1_556 S
O162 C159 1.252 . S
O163 In156 2.326 1_556 S
O163 C159 1.260 . S
O164 In156 2.266 . S
O164 C161 1.252 . S
O165 In156 2.326 . S
O165 C161 1.260 . S
C166 O157 1.240 . S
C166 O158 1.252 . S
O167 In156 2.294 . S
O167 C160 1.240 . S
O168 In156 2.326 . S
O168 C160 1.252 . S
In169 O170 2.294 . S
In169 O171 2.326 . S
In169 O175 2.266 1_554 S
In169 O176 2.326 1_554 S
In169 O177 2.264 1_554 S
In169 O178 2.322 1_554 S
In169 O180 2.296 . S
In169 O181 2.330 . S
O170 In169 2.294 . S
O170 C179 1.240 . S
O171 In169 2.326 . S
O171 C179 1.252 . S
C172 O175 1.252 . S
C172 O176 1.260 . S
C173 O180 1.240 . S
C173 O181 1.252 . S
C174 O177 1.252 . S
C174 O178 1.260 . S
O175 In169 2.266 1_556 S
O175 C172 1.252 . S
O176 In169 2.326 1_556 S
O176 C172 1.260 . S
O177 In169 2.264 1_556 S
O177 C174 1.252 . S
O178 In169 2.322 1_556 S
O178 C174 1.260 . S
C179 O170 1.240 . S
C179 O171 1.252 . S
O180 In169 2.296 . S
O180 C173 1.240 . S
O181 In169 2.330 . S
O181 C173 1.252 . S
In182 O183 2.294 . S
In182 O184 2.326 . S
In182 O188 2.266 . S
In182 O189 2.326 . S
In182 O190 2.274 . S
In182 O191 2.326 . S
In182 O193 2.294 1_455 S
In182 O194 2.326 . S
O183 In182 2.294 . S
O183 C192 1.240 . S
O184 In182 2.326 . S
O184 C192 1.252 . S
C185 O188 1.252 . S
C185 O189 1.260 . S
C186 O193 1.240 1_455 S
C186 O194 1.252 . S
C187 O190 1.257 . S
C187 O191 1.260 . S
O188 In182 2.266 . S
O188 C185 1.252 . S
O189 In182 2.326 . S
O189 C185 1.260 . S
O190 In182 2.274 . S
O190 C187 1.257 . S
O191 In182 2.326 . S
O191 C187 1.260 . S
C192 O183 1.240 . S
C192 O184 1.252 . S
O193 In182 2.294 1_655 S
O193 C186 1.240 1_655 S
O194 In182 2.326 . S
O194 C186 1.252 . S
In195 O196 2.294 . S
In195 O197 2.326 . S
In195 O201 2.266 . S
In195 O202 2.326 . S
In195 O203 2.264 1_565 S
In195 O204 2.326 . S
In195 O206 2.294 . S
In195 O207 2.326 . S
O196 In195 2.294 . S
O196 C205 1.240 . S
O197 In195 2.326 . S
O197 C205 1.252 . S
C198 O201 1.252 . S
C198 O202 1.260 . S
C199 O206 1.240 . S
C199 O207 1.252 . S
C200 O203 1.249 1_565 S
C200 O204 1.260 . S
O201 In195 2.266 . S
O201 C198 1.252 . S
O202 In195 2.326 . S
O202 C198 1.260 . S
O203 In195 2.264 1_545 S
O203 C200 1.249 1_545 S
O204 In195 2.326 . S
O204 C200 1.260 . S
C205 O196 1.240 . S
C205 O197 1.252 . S
O206 In195 2.294 . S
O206 C199 1.240 . S
O207 In195 2.326 . S
O207 C199 1.252 . S
In208 O209 2.294 . S
In208 O210 2.327 . S
In208 O214 2.269 . S
In208 O215 2.325 1_545 S
In208 O216 2.264 1_545 S
In208 O217 2.322 1_545 S
In208 O219 2.296 . S
In208 O220 2.330 . S
O209 In208 2.294 . S
O209 C218 1.240 . S
O210 In208 2.327 . S
O210 C218 1.252 . S
C211 O214 1.252 1_565 S
C211 O215 1.260 . S
C212 O219 1.240 . S
C212 O220 1.252 . S
C213 O216 1.252 . S
C213 O217 1.260 . S
O214 In208 2.269 . S
O214 C211 1.252 1_545 S
O215 In208 2.325 1_565 S
O215 C211 1.260 . S
O216 In208 2.264 1_565 S
O216 C213 1.252 . S
O217 In208 2.322 1_565 S
O217 C213 1.260 . S
C218 O209 1.240 . S
C218 O210 1.252 . S
O219 In208 2.296 . S
O219 C212 1.240 . S
O220 In208 2.330 . S
O220 C212 1.252 . S
In221 O222 2.294 . S
In221 O223 2.326 . S
In221 O227 2.266 . S
In221 O228 2.326 . S
In221 O229 2.266 . S
In221 O230 2.326 . S
In221 O232 2.294 . S
In221 O233 2.326 . S
O222 In221 2.294 . S
O222 C231 1.240 . S
O223 In221 2.326 . S
O223 C231 1.252 . S
C224 O227 1.252 . S
C224 O228 1.260 . S
C225 O232 1.240 . S
C225 O233 1.252 . S
C226 O229 1.252 . S
C226 O230 1.260 . S
O227 In221 2.266 . S
O227 C224 1.252 . S
O228 In221 2.326 . S
O228 C224 1.260 . S
O229 In221 2.266 . S
O229 C226 1.252 . S
O230 In221 2.326 . S
O230 C226 1.260 . S
C231 O222 1.240 . S
C231 O223 1.252 . S
O232 In221 2.294 . S
O232 C225 1.240 . S
O233 In221 2.326 . S
O233 C225 1.252 . S
In234 O235 2.294 . S
In234 O236 2.326 . S
In234 O240 2.266 . S
In234 O241 2.326 . S
In234 O242 2.266 . S
In234 O243 2.326 . S
In234 O245 2.294 . S
In234 O246 2.326 . S
O235 In234 2.294 . S
O235 C244 1.240 . S
O236 In234 2.326 . S
O236 C244 1.252 . S
C237 O240 1.252 . S
C237 O241 1.260 . S
C238 O245 1.240 . S
C238 O246 1.252 . S
C239 O242 1.252 . S
C239 O243 1.260 . S
O240 In234 2.266 . S
O240 C237 1.252 . S
O241 In234 2.326 . S
O241 C237 1.260 . S
O242 In234 2.266 . S
O242 C239 1.252 . S
O243 In234 2.326 . S
O243 C239 1.260 . S
C244 O235 1.240 . S
C244 O236 1.252 . S
O245 In234 2.294 . S
O245 C238 1.240 . S
O246 In234 2.326 . S
O246 C238 1.252 . S
In247 O248 2.294 1_545 S
In247 O249 2.326 1_545 S
In247 O253 2.266 . S
In247 O254 2.326 . S
In247 O255 2.266 . S
In247 O256 2.326 . S
In247 O258 2.294 . S
In247 O259 2.326 . S
O248 In247 2.294 1_565 S
O248 C257 1.240 . S
O249 In247 2.326 1_565 S
O249 C257 1.252 . S
C250 O253 1.252 . S
C250 O254 1.260 . S
C251 O258 1.240 . S
C251 O259 1.252 . S
C252 O255 1.252 . S
C252 O256 1.260 . S
O253 In247 2.266 . S
O253 C250 1.252 . S
O254 In247 2.326 . S
O254 C250 1.260 . S
O255 In247 2.266 . S
O255 C252 1.252 . S
O256 In247 2.326 . S
O256 C252 1.260 . S
C257 O248 1.240 . S
C257 O249 1.252 . S
O258 In247 2.294 . S
O258 C251 1.240 . S
O259 In247 2.326 . S
O259 C251 1.252 . S
In260 O261 2.294 . S
In260 O262 2.326 . S
In260 O266 2.266 1_554 S
In260 O267 2.326 . S
In260 O268 2.266 1_554 S
In260 O269 2.326 1_554 S
In260 O271 2.294 . S
In260 O272 2.326 . S
O261 In260 2.294 . S
O261 C270 1.240 . S
O262 In260 2.326 . S
O262 C270 1.252 . S
C263 O266 1.251 . S
C263 O267 1.260 1_556 S
C264 O271 1.240 . S
C264 O272 1.252 . S
C265 O268 1.252 . S
C265 O269 1.260 . S
O266 In260 2.266 1_556 S
O266 C263 1.251 . S
O267 In260 2.326 . S
O267 C263 1.260 1_554 S
O268 In260 2.266 1_556 S
O268 C265 1.252 . S
O269 In260 2.326 1_556 S
O269 C265 1.260 . S
C270 O261 1.240 . S
C270 O262 1.252 . S
O271 In260 2.294 . S
O271 C264 1.240 . S
O272 In260 2.326 . S
O272 C264 1.252 . S
In273 O274 2.294 . S
In273 O275 2.326 1_655 S
In273 O279 2.266 . S
In273 O280 2.325 1_655 S
In273 O281 2.266 1_655 S
In273 O282 2.326 . S
In273 O284 2.294 1_655 S
In273 O285 2.326 . S
O274 In273 2.294 . S
O274 C283 1.240 . S
O275 In273 2.326 1_455 S
O275 C283 1.252 1_455 S
C276 O279 1.252 . S
C276 O280 1.260 1_655 S
C277 O284 1.240 . S
C277 O285 1.252 1_455 S
C278 O281 1.252 . S
C278 O282 1.260 1_455 S
O279 In273 2.266 . S
O279 C276 1.252 . S
O280 In273 2.325 1_455 S
O280 C276 1.260 1_455 S
O281 In273 2.266 1_455 S
O281 C278 1.252 . S
O282 In273 2.326 . S
O282 C278 1.260 1_655 S
C283 O274 1.240 . S
C283 O275 1.252 1_655 S
O284 In273 2.294 1_455 S
O284 C277 1.240 . S
O285 In273 2.326 . S
O285 C277 1.252 1_655 S
In286 O287 2.294 . S
In286 O288 2.326 . S
In286 O292 2.266 . S
In286 O293 2.326 . S
In286 O294 2.266 . S
In286 O295 2.326 . S
In286 O297 2.294 . S
In286 O298 2.326 . S
O287 In286 2.294 . S
O287 C296 1.240 . S
O288 In286 2.326 . S
O288 C296 1.252 . S
C289 O292 1.252 . S
C289 O293 1.260 . S
C290 O297 1.240 . S
C290 O298 1.252 . S
C291 O294 1.252 . S
C291 O295 1.260 . S
O292 In286 2.266 . S
O292 C289 1.252 . S
O293 In286 2.326 . S
O293 C289 1.260 . S
O294 In286 2.266 . S
O294 C291 1.252 . S
O295 In286 2.326 . S
O295 C291 1.260 . S
C296 O287 1.240 . S
C296 O288 1.252 . S
O297 In286 2.294 . S
O297 C290 1.240 . S
O298 In286 2.326 . S
O298 C290 1.252 . S
In299 O300 2.294 . S
In299 O301 2.326 . S
In299 O305 2.266 . S
In299 O306 2.326 . S
In299 O307 2.266 . S
In299 O308 2.326 . S
In299 O310 2.294 . S
In299 O311 2.326 . S
O300 In299 2.294 . S
O300 C309 1.240 . S
O301 In299 2.326 . S
O301 C309 1.252 . S
C302 O305 1.252 . S
C302 O306 1.260 . S
C303 O310 1.240 . S
C303 O311 1.252 . S
C304 O307 1.252 . S
C304 O308 1.260 . S
O305 In299 2.266 . S
O305 C302 1.252 . S
O306 In299 2.326 . S
O306 C302 1.260 . S
O307 In299 2.266 . S
O307 C304 1.252 . S
O308 In299 2.326 . S
O308 C304 1.260 . S
C309 O300 1.240 . S
C309 O301 1.252 . S
O310 In299 2.294 . S
O310 C303 1.240 . S
O311 In299 2.326 . S
O311 C303 1.252 . S
Tb312 C322 2.825 1_454 S
Tb312 O323 2.347 . S
Tb312 O326 2.366 . S
Tb312 O331 2.418 1_554 S
Tb312 O332 2.384 . S
Tb312 O335 2.479 1_454 S
Tb312 O336 2.471 1_455 S
Eu313 O324 2.418 . S
Eu313 O325 2.384 . S
Eu313 O328 2.479 . S
Eu313 O329 2.471 . S
Eu313 O330 2.347 . S
Eu313 O333 2.366 . S
Eu313 C343 2.825 . S
C314 O330 1.281 . S
C314 O331 1.255 1_554 S
C315 O332 1.255 . S
C315 O333 1.265 . S
C316 C318 1.380 . S
C316 C319 1.374 . S
C316 C322 1.507 . S
C317 C318 1.384 . S
C317 C321 1.387 . S
C317 H344 0.930 . S
C318 C316 1.380 . S
C318 C317 1.384 . S
C318 H345 0.931 . S
C319 C316 1.374 . S
C319 C320 1.390 . S
C319 H346 0.930 1_556 S
C320 C319 1.390 . S
C320 C321 1.391 . S
C320 H347 0.930 . S
C321 C317 1.387 . S
C321 C320 1.391 . S
C322 Tb312 2.825 1_656 S
C322 C316 1.507 . S
C322 O335 1.238 . S
C322 O336 1.247 1_556 S
O323 Tb312 2.347 . S
O323 C327 1.259 . S
O324 Eu313 2.418 . S
O324 C327 1.265 . S
O325 Eu313 2.384 . S
O325 C334 1.255 . S
O326 Tb312 2.366 . S
O326 C334 1.265 . S
C327 O323 1.259 . S
C327 O324 1.265 . S
O328 Eu313 2.479 . S
O328 C343 1.238 . S
O329 Eu313 2.471 . S
O329 C343 1.247 . S
O330 Eu313 2.347 . S
O330 C314 1.281 . S
O331 Tb312 2.418 1_556 S
O331 C314 1.255 1_556 S
O332 Tb312 2.384 . S
O332 C315 1.255 . S
O333 Eu313 2.366 . S
O333 C315 1.265 . S
C334 O325 1.255 . S
C334 O326 1.265 . S
O335 Tb312 2.479 1_656 S
O335 C322 1.238 . S
O336 Tb312 2.471 1_655 S
O336 C322 1.247 1_554 S
C337 C340 1.380 . S
C337 C341 1.374 . S
C337 C343 1.507 . S
C338 C339 1.387 . S
C338 C342 1.391 . S
C339 C338 1.387 . S
C339 C340 1.384 . S
C339 H348 0.930 . S
C340 C337 1.380 . S
C340 C339 1.384 . S
C340 H349 0.931 . S
C341 C337 1.374 . S
C341 C342 1.390 . S
C341 H350 0.930 . S
C342 C338 1.391 . S
C342 C341 1.390 . S
C342 H351 0.930 . S
C343 Eu313 2.825 . S
C343 O328 1.238 . S
C343 O329 1.247 . S
C343 C337 1.507 . S
H344 C317 0.930 . S
H345 C318 0.931 . S
H346 C319 0.930 1_554 S
H347 C320 0.930 . S
H348 C339 0.930 . S
H349 C340 0.931 . S
H350 C341 0.930 . S
H351 C342 0.930 . S
Tb352 C362 2.825 . S
Tb352 O363 2.347 . S
Tb352 O366 2.366 . S
Tb352 O371 2.418 . S
Tb352 O372 2.384 . S
Tb352 O375 2.479 . S
Tb352 O376 2.471 . S
Eu353 O364 2.418 . S
Eu353 O365 2.384 . S
Eu353 O368 2.479 . S
Eu353 O369 2.471 . S
Eu353 O370 2.347 . S
Eu353 O373 2.366 . S
Eu353 C383 2.825 . S
C354 O370 1.259 . S
C354 O371 1.265 . S
C355 O372 1.255 . S
C355 O373 1.265 . S
C356 C358 1.380 1_565 S
C356 C359 1.374 . S
C356 C362 1.507 . S
C357 C358 1.384 . S
C357 C361 1.387 . S
C357 H384 0.930 . S
C358 C356 1.380 1_545 S
C358 C357 1.384 . S
C358 H385 0.931 . S
C359 C356 1.374 . S
C359 C360 1.390 1_565 S
C359 H386 0.930 . S
C360 C359 1.390 1_545 S
C360 C361 1.391 . S
C360 H387 0.930 . S
C361 C357 1.387 . S
C361 C360 1.391 . S
C362 Tb352 2.825 . S
C362 C356 1.507 . S
C362 O375 1.238 . S
C362 O376 1.247 . S
O363 Tb352 2.347 . S
O363 C367 1.259 . S
O364 Eu353 2.418 . S
O364 C367 1.265 . S
O365 Eu353 2.384 . S
O365 C374 1.255 . S
O366 Tb352 2.366 . S
O366 C374 1.265 . S
C367 O363 1.259 . S
C367 O364 1.265 . S
O368 Eu353 2.479 . S
O368 C383 1.238 . S
O369 Eu353 2.471 . S
O369 C383 1.247 . S
O370 Eu353 2.347 . S
O370 C354 1.259 . S
O371 Tb352 2.418 . S
O371 C354 1.265 . S
O372 Tb352 2.384 . S
O372 C355 1.255 . S
O373 Eu353 2.366 . S
O373 C355 1.265 . S
C374 O365 1.255 . S
C374 O366 1.265 . S
O375 Tb352 2.479 . S
O375 C362 1.238 . S
O376 Tb352 2.471 . S
O376 C362 1.247 . S
C377 C380 1.380 . S
C377 C381 1.374 . S
C377 C383 1.507 . S
C378 C379 1.387 . S
C378 C382 1.391 . S
C379 C378 1.387 . S
C379 C380 1.384 . S
C379 H388 0.930 . S
C380 C377 1.380 . S
C380 C379 1.384 . S
C380 H389 0.931 . S
C381 C377 1.374 . S
C381 C382 1.390 . S
C381 H390 0.930 . S
C382 C378 1.391 . S
C382 C381 1.390 . S
C382 H391 0.930 . S
C383 Eu353 2.825 . S
C383 O368 1.238 . S
C383 O369 1.247 . S
C383 C377 1.507 . S
H384 C357 0.930 . S
H385 C358 0.931 . S
H386 C359 0.930 . S
H387 C360 0.930 . S
H388 C379 0.930 . S
H389 C380 0.931 . S
H390 C381 0.930 . S
H391 C382 0.930 . S
Tb392 C402 2.825 1_545 S
Tb392 O403 2.347 . S
Tb392 O406 2.366 . S
Tb392 O411 2.418 . S
Tb392 O412 2.384 . S
Tb392 O415 2.479 1_545 S
Tb392 O416 2.471 1_545 S
Eu393 O404 2.418 . S
Eu393 O405 2.384 . S
Eu393 O408 2.479 . S
Eu393 O409 2.471 . S
Eu393 O410 2.347 . S
Eu393 O413 2.366 . S
Eu393 C423 2.825 . S
C394 O410 1.259 . S
C394 O411 1.265 . S
C395 O412 1.255 . S
C395 O413 1.265 . S
C396 C398 1.380 . S
C396 C399 1.374 . S
C396 C402 1.507 . S
C397 C398 1.384 . S
C397 C401 1.387 . S
C397 H424 0.930 . S
C398 C396 1.380 . S
C398 C397 1.384 . S
C398 H425 0.931 . S
C399 C396 1.374 . S
C399 C400 1.390 . S
C399 H426 0.930 . S
C400 C399 1.390 . S
C400 C401 1.391 . S
C400 H427 0.930 . S
C401 C397 1.387 . S
C401 C400 1.391 . S
C402 Tb392 2.825 1_565 S
C402 C396 1.507 . S
C402 O415 1.238 . S
C402 O416 1.247 . S
O403 Tb392 2.347 . S
O403 C407 1.259 . S
O404 Eu393 2.418 . S
O404 C407 1.265 . S
O405 Eu393 2.384 . S
O405 C414 1.255 . S
O406 Tb392 2.366 . S
O406 C414 1.265 . S
C407 O403 1.259 . S
C407 O404 1.265 . S
O408 Eu393 2.479 . S
O408 C423 1.238 . S
O409 Eu393 2.471 . S
O409 C423 1.247 . S
O410 Eu393 2.347 . S
O410 C394 1.259 . S
O411 Tb392 2.418 . S
O411 C394 1.265 . S
O412 Tb392 2.384 . S
O412 C395 1.255 . S
O413 Eu393 2.366 . S
O413 C395 1.265 . S
C414 O405 1.255 . S
C414 O406 1.265 . S
O415 Tb392 2.479 1_565 S
O415 C402 1.238 . S
O416 Tb392 2.471 1_565 S
O416 C402 1.247 . S
C417 C420 1.380 . S
C417 C421 1.374 . S
C417 C423 1.507 . S
C418 C419 1.387 . S
C418 C422 1.391 . S
C419 C418 1.387 . S
C419 C420 1.384 . S
C419 H428 0.930 . S
C420 C417 1.380 . S
C420 C419 1.384 . S
C420 H429 0.931 . S
C421 C417 1.374 . S
C421 C422 1.390 . S
C421 H430 0.930 . S
C422 C418 1.391 . S
C422 C421 1.390 . S
C422 H431 0.930 . S
C423 Eu393 2.825 . S
C423 O408 1.238 . S
C423 O409 1.247 . S
C423 C417 1.507 . S
H424 C397 0.930 . S
H425 C398 0.931 . S
H426 C399 0.930 . S
H427 C400 0.930 . S
H428 C419 0.930 . S
H429 C420 0.931 . S
H430 C421 0.930 . S
H431 C422 0.930 . S
Tb432 C442 2.825 . S
Tb432 O443 2.347 . S
Tb432 O446 2.366 . S
Tb432 O451 2.418 . S
Tb432 O452 2.384 . S
Tb432 O455 2.479 . S
Tb432 O456 2.471 . S
Eu433 O444 2.418 . S
Eu433 O445 2.384 . S
Eu433 O448 2.479 . S
Eu433 O449 2.471 . S
Eu433 O450 2.347 . S
Eu433 O453 2.366 . S
Eu433 C463 2.825 . S
C434 O450 1.259 . S
C434 O451 1.265 . S
C435 O452 1.255 . S
C435 O453 1.265 . S
C436 C438 1.380 . S
C436 C439 1.374 . S
C436 C442 1.507 . S
C437 C438 1.384 . S
C437 C441 1.387 . S
C437 H464 0.930 . S
C438 C436 1.380 . S
C438 C437 1.384 . S
C438 H465 0.931 . S
C439 C436 1.374 . S
C439 C440 1.390 . S
C439 H466 0.930 . S
C440 C439 1.390 . S
C440 C441 1.391 . S
C440 H467 0.930 . S
C441 C437 1.387 . S
C441 C440 1.391 . S
C442 Tb432 2.825 . S
C442 C436 1.507 . S
C442 O455 1.238 . S
C442 O456 1.247 . S
O443 Tb432 2.347 . S
O443 C447 1.259 . S
O444 Eu433 2.418 . S
O444 C447 1.265 . S
O445 Eu433 2.384 . S
O445 C454 1.255 . S
O446 Tb432 2.366 . S
O446 C454 1.265 . S
C447 O443 1.259 . S
C447 O444 1.265 . S
O448 Eu433 2.479 . S
O448 C463 1.238 . S
O449 Eu433 2.471 . S
O449 C463 1.247 . S
O450 Eu433 2.347 . S
O450 C434 1.259 . S
O451 Tb432 2.418 . S
O451 C434 1.265 . S
O452 Tb432 2.384 . S
O452 C435 1.255 . S
O453 Eu433 2.366 . S
O453 C435 1.265 . S
C454 O445 1.255 . S
C454 O446 1.265 . S
O455 Tb432 2.479 . S
O455 C442 1.238 . S
O456 Tb432 2.471 . S
O456 C442 1.247 . S
C457 C460 1.380 . S
C457 C461 1.374 . S
C457 C463 1.507 . S
C458 C459 1.387 . S
C458 C462 1.391 . S
C459 C458 1.387 . S
C459 C460 1.384 . S
C459 H468 0.930 . S
C460 C457 1.380 . S
C460 C459 1.384 . S
C460 H469 0.931 . S
C461 C457 1.374 . S
C461 C462 1.390 . S
C461 H470 0.930 . S
C462 C458 1.391 . S
C462 C461 1.390 . S
C462 H471 0.930 . S
C463 Eu433 2.825 . S
C463 O448 1.238 . S
C463 O449 1.247 . S
C463 C457 1.507 . S
H464 C437 0.930 . S
H465 C438 0.931 . S
H466 C439 0.930 . S
H467 C440 0.930 . S
H468 C459 0.930 . S
H469 C460 0.931 . S
H470 C461 0.930 . S
H471 C462 0.930 . S
Tb472 C482 2.825 . S
Tb472 O483 2.347 . S
Tb472 O486 2.366 . S
Tb472 O491 2.418 . S
Tb472 O492 2.384 1_545 S
Tb472 O495 2.479 . S
Tb472 O496 2.471 1_455 S
Eu473 O484 2.418 1_455 S
Eu473 O485 2.384 . S
Eu473 O488 2.479 . S
Eu473 O489 2.471 . S
Eu473 O490 2.347 . S
Eu473 O493 2.366 . S
Eu473 C503 2.825 . S
C474 O490 1.259 . S
C474 O491 1.265 . S
C475 O492 1.257 . S
C475 O493 1.250 1_565 S
C476 C478 1.380 1_655 S
C476 C479 1.374 . S
C476 C482 1.507 1_655 S
C477 C478 1.384 1_655 S
C477 C481 1.387 . S
C477 H504 0.930 1_655 S
C478 C476 1.380 1_455 S
C478 C477 1.384 1_455 S
C478 H505 0.931 . S
C479 C476 1.374 . S
C479 C480 1.390 . S
C479 H506 0.930 . S
C480 C479 1.390 . S
C480 C481 1.391 . S
C480 H507 0.930 . S
C481 C477 1.387 . S
C481 C480 1.391 . S
C482 Tb472 2.825 . S
C482 C476 1.507 1_455 S
C482 O495 1.238 . S
C482 O496 1.247 1_455 S
O483 Tb472 2.347 . S
O483 C487 1.259 1_455 S
O484 Eu473 2.418 1_655 S
O484 C487 1.265 . S
O485 Eu473 2.384 . S
O485 C494 1.255 . S
O486 Tb472 2.366 . S
O486 C494 1.265 . S
C487 O483 1.259 1_655 S
C487 O484 1.265 . S
O488 Eu473 2.479 . S
O488 C503 1.238 . S
O489 Eu473 2.471 . S
O489 C503 1.247 . S
O490 Eu473 2.347 . S
O490 C474 1.259 . S
O491 Tb472 2.418 . S
O491 C474 1.265 . S
O492 Tb472 2.384 1_565 S
O492 C475 1.257 . S
O493 Eu473 2.366 . S
O493 C475 1.250 1_545 S
C494 O485 1.255 . S
C494 O486 1.265 . S
O495 Tb472 2.479 . S
O495 C482 1.238 . S
O496 Tb472 2.471 1_655 S
O496 C482 1.247 1_655 S
C497 C500 1.380 . S
C497 C501 1.374 . S
C497 C503 1.507 . S
C498 C499 1.387 . S
C498 C502 1.391 . S
C499 C498 1.387 . S
C499 C500 1.384 . S
C499 H508 0.930 . S
C500 C497 1.380 . S
C500 C499 1.384 . S
C500 H509 0.931 . S
C501 C497 1.374 . S
C501 C502 1.390 . S
C501 H510 0.930 . S
C502 C498 1.391 . S
C502 C501 1.390 . S
C502 H511 0.930 . S
C503 Eu473 2.825 . S
C503 O488 1.238 . S
C503 O489 1.247 . S
C503 C497 1.507 . S
H504 C477 0.930 1_455 S
H505 C478 0.931 . S
H506 C479 0.930 . S
H507 C480 0.930 . S
H508 C499 0.930 . S
H509 C500 0.931 . S
H510 C501 0.930 . S
H511 C502 0.930 . S
Tb512 C522 2.825 . S
Tb512 O523 2.347 . S
Tb512 O526 2.366 . S
Tb512 O531 2.418 . S
Tb512 O532 2.384 . S
Tb512 O535 2.479 . S
Tb512 O536 2.471 . S
Eu513 O524 2.418 . S
Eu513 O525 2.384 . S
Eu513 O528 2.479 . S
Eu513 O529 2.471 . S
Eu513 O530 2.347 . S
Eu513 O533 2.366 . S
Eu513 C543 2.825 . S
C514 O530 1.259 . S
C514 O531 1.265 . S
C515 O532 1.255 . S
C515 O533 1.265 . S
C516 C518 1.380 . S
C516 C519 1.374 . S
C516 C522 1.507 . S
C517 C518 1.384 . S
C517 C521 1.387 . S
C517 H544 0.930 . S
C518 C516 1.380 . S
C518 C517 1.384 . S
C518 H545 0.931 . S
C519 C516 1.374 . S
C519 C520 1.390 . S
C519 H546 0.930 . S
C520 C519 1.390 . S
C520 C521 1.391 . S
C520 H547 0.930 . S
C521 C517 1.387 . S
C521 C520 1.391 . S
C522 Tb512 2.825 . S
C522 C516 1.507 . S
C522 O535 1.238 . S
C522 O536 1.247 . S
O523 Tb512 2.347 . S
O523 C527 1.259 . S
O524 Eu513 2.418 . S
O524 C527 1.265 . S
O525 Eu513 2.384 . S
O525 C534 1.255 . S
O526 Tb512 2.366 . S
O526 C534 1.265 . S
C527 O523 1.259 . S
C527 O524 1.265 . S
O528 Eu513 2.479 . S
O528 C543 1.238 . S
O529 Eu513 2.471 . S
O529 C543 1.247 . S
O530 Eu513 2.347 . S
O530 C514 1.259 . S
O531 Tb512 2.418 . S
O531 C514 1.265 . S
O532 Tb512 2.384 . S
O532 C515 1.255 . S
O533 Eu513 2.366 . S
O533 C515 1.265 . S
C534 O525 1.255 . S
C534 O526 1.265 . S
O535 Tb512 2.479 . S
O535 C522 1.238 . S
O536 Tb512 2.471 . S
O536 C522 1.247 . S
C537 C540 1.380 1_565 S
C537 C541 1.370 1_565 S
C537 C543 1.507 . S
C538 C539 1.387 . S
C538 C542 1.391 . S
C539 C538 1.387 . S
C539 C540 1.384 . S
C539 H548 0.930 . S
C540 C537 1.380 1_545 S
C540 C539 1.384 . S
C540 H549 0.931 . S
C541 C537 1.370 1_545 S
C541 C542 1.408 . S
C541 H550 0.917 1_545 S
C542 C538 1.391 . S
C542 C541 1.408 . S
C542 H551 0.930 . S
C543 Eu513 2.825 . S
C543 O528 1.238 . S
C543 O529 1.247 . S
C543 C537 1.507 . S
H544 C517 0.930 . S
H545 C518 0.931 . S
H546 C519 0.930 . S
H547 C520 0.930 . S
H548 C539 0.930 . S
H549 C540 0.931 . S
H550 C541 0.917 1_565 S
H551 C542 0.930 . S
Tb552 C562 2.825 . S
Tb552 O563 2.347 . S
Tb552 O566 2.366 . S
Tb552 O571 2.418 . S
Tb552 O572 2.384 . S
Tb552 O575 2.479 . S
Tb552 O576 2.471 . S
Eu553 O564 2.418 . S
Eu553 O565 2.384 1_556 S
Eu553 O568 2.479 . S
Eu553 O569 2.471 . S
Eu553 O570 2.347 . S
Eu553 O573 2.366 . S
Eu553 C583 2.825 . S
C554 O570 1.259 1_554 S
C554 O571 1.265 . S
C555 O572 1.255 1_556 S
C555 O573 1.265 . S
C556 C558 1.380 . S
C556 C559 1.374 . S
C556 C562 1.507 . S
C557 C558 1.384 . S
C557 C561 1.387 . S
C557 H584 0.930 . S
C558 C556 1.380 . S
C558 C557 1.384 . S
C558 H585 0.931 . S
C559 C556 1.374 . S
C559 C560 1.390 . S
C559 H586 0.930 . S
C560 C559 1.390 . S
C560 C561 1.391 . S
C560 H587 0.930 . S
C561 C557 1.387 . S
C561 C560 1.391 . S
C562 Tb552 2.825 . S
C562 C556 1.507 . S
C562 O575 1.238 . S
C562 O576 1.247 . S
O563 Tb552 2.347 . S
O563 C567 1.259 . S
O564 Eu553 2.418 . S
O564 C567 1.265 1_556 S
O565 Eu553 2.384 1_554 S
O565 C574 1.255 . S
O566 Tb552 2.366 . S
O566 C574 1.265 . S
C567 O563 1.259 . S
C567 O564 1.265 1_554 S
O568 Eu553 2.479 . S
O568 C583 1.238 . S
O569 Eu553 2.471 . S
O569 C583 1.247 . S
O570 Eu553 2.347 . S
O570 C554 1.259 1_556 S
O571 Tb552 2.418 . S
O571 C554 1.265 . S
O572 Tb552 2.384 . S
O572 C555 1.255 1_554 S
O573 Eu553 2.366 . S
O573 C555 1.265 . S
C574 O565 1.255 . S
C574 O566 1.265 . S
O575 Tb552 2.479 . S
O575 C562 1.238 . S
O576 Tb552 2.471 . S
O576 C562 1.247 . S
C577 C580 1.380 . S
C577 C581 1.374 . S
C577 C583 1.507 . S
C578 C579 1.387 . S
C578 C582 1.391 . S
C579 C578 1.387 . S
C579 C580 1.384 . S
C579 H588 0.930 . S
C580 C577 1.380 . S
C580 C579 1.384 . S
C580 H589 0.931 . S
C581 C577 1.374 . S
C581 C582 1.390 . S
C581 H590 0.930 . S
C582 C578 1.391 . S
C582 C581 1.390 . S
C582 H591 0.930 . S
C583 Eu553 2.825 . S
C583 O568 1.238 . S
C583 O569 1.247 . S
C583 C577 1.507 . S
H584 C557 0.930 . S
H585 C558 0.931 . S
H586 C559 0.930 . S
H587 C560 0.930 . S
H588 C579 0.930 . S
H589 C580 0.931 . S
H590 C581 0.930 . S
H591 C582 0.930 . S
Tb592 C602 2.825 . S
Tb592 O603 2.347 . S
Tb592 O606 2.366 . S
Tb592 O611 2.418 . S
Tb592 O612 2.384 . S
Tb592 O615 2.479 . S
Tb592 O616 2.471 . S
Eu593 O604 2.418 . S
Eu593 O605 2.384 . S
Eu593 O608 2.479 . S
Eu593 O609 2.471 . S
Eu593 O610 2.347 . S
Eu593 O613 2.366 . S
Eu593 C623 2.825 . S
C594 O610 1.259 . S
C594 O611 1.265 . S
C595 O612 1.255 . S
C595 O613 1.265 . S
C596 C598 1.380 . S
C596 C599 1.374 . S
C596 C602 1.507 . S
C597 C598 1.384 . S
C597 C601 1.387 . S
C597 H624 0.930 . S
C598 C596 1.380 . S
C598 C597 1.384 . S
C598 H625 0.931 . S
C599 C596 1.374 . S
C599 C600 1.390 . S
C599 H626 0.930 . S
C600 C599 1.390 . S
C600 C601 1.391 . S
C600 H627 0.930 . S
C601 C597 1.387 . S
C601 C600 1.391 . S
C602 Tb592 2.825 . S
C602 C596 1.507 . S
C602 O615 1.238 . S
C602 O616 1.247 . S
O603 Tb592 2.347 . S
O603 C607 1.259 . S
O604 Eu593 2.418 . S
O604 C607 1.265 . S
O605 Eu593 2.384 . S
O605 C614 1.255 . S
O606 Tb592 2.366 . S
O606 C614 1.265 . S
C607 O603 1.259 . S
C607 O604 1.265 . S
O608 Eu593 2.479 . S
O608 C623 1.238 . S
O609 Eu593 2.471 . S
O609 C623 1.247 . S
O610 Eu593 2.347 . S
O610 C594 1.259 . S
O611 Tb592 2.418 . S
O611 C594 1.265 . S
O612 Tb592 2.384 . S
O612 C595 1.255 . S
O613 Eu593 2.366 . S
O613 C595 1.265 . S
C614 O605 1.255 . S
C614 O606 1.265 . S
O615 Tb592 2.479 . S
O615 C602 1.238 . S
O616 Tb592 2.471 . S
O616 C602 1.247 . S
C617 C620 1.380 . S
C617 C621 1.374 . S
C617 C623 1.507 . S
C618 C619 1.387 . S
C618 C622 1.391 . S
C619 C618 1.387 . S
C619 C620 1.384 . S
C619 H628 0.930 . S
C620 C617 1.380 . S
C620 C619 1.384 . S
C620 H629 0.931 . S
C621 C617 1.374 . S
C621 C622 1.390 . S
C621 H630 0.930 . S
C622 C618 1.391 . S
C622 C621 1.390 . S
C622 H631 0.930 . S
C623 Eu593 2.825 . S
C623 O608 1.238 . S
C623 O609 1.247 . S
C623 C617 1.507 . S
H624 C597 0.930 . S
H625 C598 0.931 . S
H626 C599 0.930 . S
H627 C600 0.930 . S
H628 C619 0.930 . S
H629 C620 0.931 . S
H630 C621 0.930 . S
H631 C622 0.930 . S
Tb632 C642 2.825 . S
Tb632 O643 2.347 1_556 S
Tb632 O646 2.366 . S
Tb632 O651 2.418 . S
Tb632 O652 2.384 1_556 S
Tb632 O655 2.479 . S
Tb632 O656 2.471 . S
Eu633 O644 2.418 . S
Eu633 O645 2.384 . S
Eu633 O648 2.479 . S
Eu633 O649 2.471 . S
Eu633 O650 2.347 . S
Eu633 O653 2.366 . S
Eu633 C663 2.825 . S
C634 O650 1.259 . S
C634 O651 1.265 1_554 S
C635 O652 1.255 . S
C635 O653 1.265 . S
C636 C638 1.380 . S
C636 C639 1.374 . S
C636 C642 1.507 . S
C637 C638 1.384 . S
C637 C641 1.387 . S
C637 H664 0.930 . S
C638 C636 1.380 . S
C638 C637 1.384 . S
C638 H665 0.931 . S
C639 C636 1.374 . S
C639 C640 1.390 . S
C639 H666 0.930 . S
C640 C639 1.390 . S
C640 C641 1.391 . S
C640 H667 0.930 . S
C641 C637 1.387 . S
C641 C640 1.391 . S
C642 Tb632 2.825 . S
C642 C636 1.507 . S
C642 O655 1.238 . S
C642 O656 1.247 . S
O643 Tb632 2.347 1_554 S
O643 C647 1.259 . S
O644 Eu633 2.418 . S
O644 C647 1.265 . S
O645 Eu633 2.384 . S
O645 C654 1.255 1_554 S
O646 Tb632 2.366 . S
O646 C654 1.265 . S
C647 O643 1.259 . S
C647 O644 1.265 . S
O648 Eu633 2.479 . S
O648 C663 1.238 . S
O649 Eu633 2.471 . S
O649 C663 1.247 . S
O650 Eu633 2.347 . S
O650 C634 1.259 . S
O651 Tb632 2.418 . S
O651 C634 1.265 1_556 S
O652 Tb632 2.384 1_554 S
O652 C635 1.255 . S
O653 Eu633 2.366 . S
O653 C635 1.265 . S
C654 O645 1.255 1_556 S
C654 O646 1.265 . S
O655 Tb632 2.479 . S
O655 C642 1.238 . S
O656 Tb632 2.471 . S
O656 C642 1.247 . S
C657 C660 1.380 . S
C657 C661 1.374 . S
C657 C663 1.507 . S
C658 C659 1.387 . S
C658 C662 1.391 . S
C659 C658 1.387 . S
C659 C660 1.384 . S
C659 H668 0.930 . S
C660 C657 1.380 . S
C660 C659 1.384 . S
C660 H669 0.931 . S
C661 C657 1.374 . S
C661 C662 1.390 . S
C661 H670 0.930 . S
C662 C658 1.391 . S
C662 C661 1.390 . S
C662 H671 0.930 . S
C663 Eu633 2.825 . S
C663 O648 1.238 . S
C663 O649 1.247 . S
C663 C657 1.507 . S
H664 C637 0.930 . S
H665 C638 0.931 . S
H666 C639 0.930 . S
H667 C640 0.930 . S
H668 C659 0.930 . S
H669 C660 0.931 . S
H670 C661 0.930 . S
H671 C662 0.930 . S
Tb672 C682 2.825 . S
Tb672 O683 2.347 . S
Tb672 O686 2.366 . S
Tb672 O691 2.418 . S
Tb672 O692 2.384 . S
Tb672 O695 2.479 . S
Tb672 O696 2.471 . S
Eu673 O684 2.418 . S
Eu673 O685 2.384 . S
Eu673 O688 2.479 . S
Eu673 O689 2.471 . S
Eu673 O690 2.347 . S
Eu673 O693 2.366 . S
Eu673 C703 2.825 . S
C674 O690 1.259 . S
C674 O691 1.265 . S
C675 O692 1.255 . S
C675 O693 1.265 . S
C676 C678 1.380 . S
C676 C679 1.374 . S
C676 C682 1.507 . S
C677 C678 1.384 . S
C677 C681 1.387 . S
C677 H704 0.930 . S
C678 C676 1.380 . S
C678 C677 1.384 . S
C678 H705 0.931 . S
C679 C676 1.374 . S
C679 C680 1.390 . S
C679 H706 0.930 . S
C680 C679 1.390 . S
C680 C681 1.391 . S
C680 H707 0.930 . S
C681 C677 1.387 . S
C681 C680 1.391 . S
C682 Tb672 2.825 . S
C682 C676 1.507 . S
C682 O695 1.238 . S
C682 O696 1.247 . S
O683 Tb672 2.347 . S
O683 C687 1.259 . S
O684 Eu673 2.418 . S
O684 C687 1.265 . S
O685 Eu673 2.384 . S
O685 C694 1.255 . S
O686 Tb672 2.366 . S
O686 C694 1.265 . S
C687 O683 1.259 . S
C687 O684 1.265 . S
O688 Eu673 2.479 . S
O688 C703 1.238 . S
O689 Eu673 2.471 . S
O689 C703 1.247 . S
O690 Eu673 2.347 . S
O690 C674 1.259 . S
O691 Tb672 2.418 . S
O691 C674 1.265 . S
O692 Tb672 2.384 . S
O692 C675 1.255 . S
O693 Eu673 2.366 . S
O693 C675 1.265 . S
C694 O685 1.255 . S
C694 O686 1.265 . S
O695 Tb672 2.479 . S
O695 C682 1.238 . S
O696 Tb672 2.471 . S
O696 C682 1.247 . S
C697 C700 1.380 . S
C697 C701 1.374 . S
C697 C703 1.507 . S
C698 C699 1.387 . S
C698 C702 1.391 . S
C699 C698 1.387 . S
C699 C700 1.384 . S
C699 H708 0.930 . S
C700 C697 1.380 . S
C700 C699 1.384 . S
C700 H709 0.931 . S
C701 C697 1.374 . S
C701 C702 1.390 . S
C701 H710 0.930 . S
C702 C698 1.391 . S
C702 C701 1.390 . S
C702 H711 0.930 . S
C703 Eu673 2.825 . S
C703 O688 1.238 . S
C703 O689 1.247 . S
C703 C697 1.507 . S
H704 C677 0.930 . S
H705 C678 0.931 . S
H706 C679 0.930 . S
H707 C680 0.930 . S
H708 C699 0.930 . S
H709 C700 0.931 . S
H710 C701 0.930 . S
H711 C702 0.930 . S
Tb712 C722 2.825 . S
Tb712 O723 2.347 . S
Tb712 O726 2.366 . S
Tb712 O731 2.418 . S
Tb712 O732 2.384 . S
Tb712 O735 2.479 . S
Tb712 O736 2.471 . S
Eu713 O724 2.418 . S
Eu713 O725 2.384 1_455 S
Eu713 O728 2.479 . S
Eu713 O729 2.471 . S
Eu713 O730 2.347 . S
Eu713 O733 2.366 . S
Eu713 C743 2.825 . S
C714 O730 1.259 . S
C714 O731 1.265 . S
C715 O732 1.255 . S
C715 O733 1.265 . S
C716 C718 1.380 . S
C716 C719 1.374 . S
C716 C722 1.507 . S
C717 C718 1.384 . S
C717 C721 1.387 . S
C717 H744 0.930 . S
C718 C716 1.380 . S
C718 C717 1.384 . S
C718 H745 0.931 . S
C719 C716 1.374 . S
C719 C720 1.390 . S
C719 H746 0.930 . S
C720 C719 1.390 . S
C720 C721 1.391 . S
C720 H747 0.930 1_455 S
C721 C717 1.387 . S
C721 C720 1.391 . S
C722 Tb712 2.825 . S
C722 C716 1.507 . S
C722 O735 1.238 . S
C722 O736 1.247 . S
O723 Tb712 2.347 . S
O723 C727 1.259 . S
O724 Eu713 2.418 . S
O724 C727 1.265 . S
O725 Eu713 2.384 1_655 S
O725 C734 1.255 . S
O726 Tb712 2.366 . S
O726 C734 1.265 1_455 S
C727 O723 1.259 . S
C727 O724 1.265 . S
O728 Eu713 2.479 . S
O728 C743 1.238 . S
O729 Eu713 2.471 . S
O729 C743 1.247 . S
O730 Eu713 2.347 . S
O730 C714 1.259 . S
O731 Tb712 2.418 . S
O731 C714 1.265 . S
O732 Tb712 2.384 . S
O732 C715 1.255 . S
O733 Eu713 2.366 . S
O733 C715 1.265 . S
C734 O725 1.255 . S
C734 O726 1.265 1_655 S
O735 Tb712 2.479 . S
O735 C722 1.238 . S
O736 Tb712 2.471 . S
O736 C722 1.247 . S
C737 C740 1.380 . S
C737 C741 1.374 . S
C737 C743 1.507 . S
C738 C739 1.387 . S
C738 C742 1.391 . S
C739 C738 1.387 . S
C739 C740 1.384 . S
C739 H748 0.930 . S
C740 C737 1.380 . S
C740 C739 1.384 . S
C740 H749 0.931 . S
C741 C737 1.374 . S
C741 C742 1.390 . S
C741 H750 0.930 . S
C742 C738 1.391 . S
C742 C741 1.390 . S
C742 H751 0.930 . S
C743 Eu713 2.825 . S
C743 O728 1.238 . S
C743 O729 1.247 . S
C743 C737 1.507 . S
H744 C717 0.930 . S
H745 C718 0.931 . S
H746 C719 0.930 . S
H747 C720 0.930 1_655 S
H748 C739 0.930 . S
H749 C740 0.931 . S
H750 C741 0.930 . S
H751 C742 0.930 . S
Tb752 C762 2.825 . S
Tb752 O763 2.347 . S
Tb752 O766 2.366 . S
Tb752 O771 2.418 . S
Tb752 O772 2.384 . S
Tb752 O775 2.479 . S
Tb752 O776 2.471 . S
Eu753 O764 2.418 . S
Eu753 O765 2.384 . S
Eu753 O768 2.479 . S
Eu753 O769 2.471 . S
Eu753 O770 2.347 . S
Eu753 O773 2.366 . S
Eu753 C783 2.825 . S
C754 O770 1.259 . S
C754 O771 1.265 . S
C755 O772 1.255 . S
C755 O773 1.265 . S
C756 C758 1.380 . S
C756 C759 1.374 . S
C756 C762 1.507 . S
C757 C758 1.384 . S
C757 C761 1.387 . S
C757 H784 0.930 . S
C758 C756 1.380 . S
C758 C757 1.384 . S
C758 H785 0.931 . S
C759 C756 1.374 . S
C759 C760 1.390 . S
C759 H786 0.930 . S
C760 C759 1.390 . S
C760 C761 1.391 . S
C760 H787 0.930 . S
C761 C757 1.387 . S
C761 C760 1.391 . S
C762 Tb752 2.825 . S
C762 C756 1.507 . S
C762 O775 1.238 . S
C762 O776 1.247 . S
O763 Tb752 2.347 . S
O763 C767 1.259 . S
O764 Eu753 2.418 . S
O764 C767 1.265 . S
O765 Eu753 2.384 . S
O765 C774 1.255 . S
O766 Tb752 2.366 . S
O766 C774 1.265 . S
C767 O763 1.259 . S
C767 O764 1.265 . S
O768 Eu753 2.479 . S
O768 C783 1.238 . S
O769 Eu753 2.471 . S
O769 C783 1.247 . S
O770 Eu753 2.347 . S
O770 C754 1.259 . S
O771 Tb752 2.418 . S
O771 C754 1.265 . S
O772 Tb752 2.384 . S
O772 C755 1.255 . S
O773 Eu753 2.366 . S
O773 C755 1.265 . S
C774 O765 1.255 . S
C774 O766 1.265 . S
O775 Tb752 2.479 . S
O775 C762 1.238 . S
O776 Tb752 2.471 . S
O776 C762 1.247 . S
C777 C780 1.380 . S
C777 C781 1.374 . S
C777 C783 1.507 1_455 S
C778 C779 1.387 . S
C778 C782 1.391 . S
C779 C778 1.387 . S
C779 C780 1.384 . S
C779 H788 0.930 . S
C780 C777 1.380 . S
C780 C779 1.384 . S
C780 H789 0.931 . S
C781 C777 1.374 . S
C781 C782 1.390 . S
C781 H790 0.930 1_455 S
C782 C778 1.391 . S
C782 C781 1.390 . S
C782 H791 0.930 . S
C783 Eu753 2.825 . S
C783 O768 1.238 . S
C783 O769 1.247 . S
C783 C777 1.507 1_655 S
H784 C757 0.930 . S
H785 C758 0.931 . S
H786 C759 0.930 . S
H787 C760 0.930 . S
H788 C779 0.930 . S
H789 C780 0.931 . S
H790 C781 0.930 1_655 S
H791 C782 0.930 . S
Tb792 C802 2.825 . S
Tb792 O803 2.347 . S
Tb792 O806 2.366 . S
Tb792 O811 2.418 . S
Tb792 O812 2.384 . S
Tb792 O815 2.479 . S
Tb792 O816 2.471 . S
Eu793 O804 2.418 . S
Eu793 O805 2.384 . S
Eu793 O808 2.479 . S
Eu793 O809 2.471 . S
Eu793 O810 2.347 . S
Eu793 O813 2.366 . S
Eu793 C823 2.825 . S
C794 O810 1.259 . S
C794 O811 1.265 . S
C795 O812 1.255 . S
C795 O813 1.265 . S
C796 C798 1.380 . S
C796 C799 1.374 . S
C796 C802 1.507 . S
C797 C798 1.384 . S
C797 C801 1.387 1_655 S
C797 H824 0.930 . S
C798 C796 1.380 . S
C798 C797 1.384 . S
C798 H825 0.931 . S
C799 C796 1.374 . S
C799 C800 1.390 1_655 S
C799 H826 0.930 . S
C800 C799 1.390 1_455 S
C800 C801 1.391 . S
C800 H827 0.930 . S
C801 C797 1.387 1_455 S
C801 C800 1.391 . S
C802 Tb792 2.825 . S
C802 C796 1.507 . S
C802 O815 1.238 . S
C802 O816 1.247 . S
O803 Tb792 2.347 . S
O803 C807 1.259 . S
O804 Eu793 2.418 . S
O804 C807 1.265 . S
O805 Eu793 2.384 . S
O805 C814 1.255 . S
O806 Tb792 2.366 . S
O806 C814 1.265 . S
C807 O803 1.259 . S
C807 O804 1.265 . S
O808 Eu793 2.479 . S
O808 C823 1.238 . S
O809 Eu793 2.471 . S
O809 C823 1.247 . S
O810 Eu793 2.347 . S
O810 C794 1.259 . S
O811 Tb792 2.418 . S
O811 C794 1.265 . S
O812 Tb792 2.384 . S
O812 C795 1.255 . S
O813 Eu793 2.366 . S
O813 C795 1.265 . S
C814 O805 1.255 . S
C814 O806 1.265 . S
O815 Tb792 2.479 . S
O815 C802 1.238 . S
O816 Tb792 2.471 . S
O816 C802 1.247 . S
C817 C820 1.380 . S
C817 C821 1.374 . S
C817 C823 1.507 . S
C818 C819 1.387 . S
C818 C822 1.391 . S
C819 C818 1.387 . S
C819 C820 1.384 . S
C819 H828 0.930 . S
C820 C817 1.380 . S
C820 C819 1.384 . S
C820 H829 0.931 . S
C821 C817 1.374 . S
C821 C822 1.390 . S
C821 H830 0.930 . S
C822 C818 1.391 . S
C822 C821 1.390 . S
C822 H831 0.930 . S
C823 Eu793 2.825 . S
C823 O808 1.238 . S
C823 O809 1.247 . S
C823 C817 1.507 . S
H824 C797 0.930 . S
H825 C798 0.931 . S
H826 C799 0.930 . S
H827 C800 0.930 . S
H828 C819 0.930 . S
H829 C820 0.931 . S
H830 C821 0.930 . S
H831 C822 0.930 . S
Tb832 C842 2.825 . S
Tb832 O843 2.347 . S
Tb832 O846 2.366 . S
Tb832 O851 2.418 . S
Tb832 O852 2.384 . S
Tb832 O855 2.479 . S
Tb832 O856 2.471 . S
Eu833 O844 2.418 . S
Eu833 O845 2.384 . S
Eu833 O848 2.479 . S
Eu833 O849 2.471 . S
Eu833 O850 2.347 . S
Eu833 O853 2.366 . S
Eu833 C863 2.825 . S
C834 O850 1.259 . S
C834 O851 1.265 . S
C835 O852 1.255 . S
C835 O853 1.265 . S
C836 C838 1.380 . S
C836 C839 1.374 . S
C836 C842 1.507 . S
C837 C838 1.384 . S
C837 C841 1.383 1_565 S
C837 H864 0.930 1_565 S
C838 C836 1.380 . S
C838 C837 1.384 . S
C838 H865 0.931 . S
C839 C836 1.374 . S
C839 C840 1.390 . S
C839 H866 0.930 . S
C840 C839 1.390 . S
C840 C841 1.382 1_565 S
C840 H867 0.930 . S
C841 C837 1.383 1_545 S
C841 C840 1.382 1_545 S
C842 Tb832 2.825 . S
C842 C836 1.507 . S
C842 O855 1.238 . S
C842 O856 1.247 . S
O843 Tb832 2.347 . S
O843 C847 1.259 . S
O844 Eu833 2.418 . S
O844 C847 1.265 . S
O845 Eu833 2.384 . S
O845 C854 1.255 . S
O846 Tb832 2.366 . S
O846 C854 1.265 . S
C847 O843 1.259 . S
C847 O844 1.265 . S
O848 Eu833 2.479 . S
O848 C863 1.238 . S
O849 Eu833 2.471 . S
O849 C863 1.247 . S
O850 Eu833 2.347 . S
O850 C834 1.259 . S
O851 Tb832 2.418 . S
O851 C834 1.265 . S
O852 Tb832 2.384 . S
O852 C835 1.255 . S
O853 Eu833 2.366 . S
O853 C835 1.265 . S
C854 O845 1.255 . S
C854 O846 1.265 . S
O855 Tb832 2.479 . S
O855 C842 1.238 . S
O856 Tb832 2.471 . S
O856 C842 1.247 . S
C857 C860 1.380 . S
C857 C861 1.374 . S
C857 C863 1.507 . S
C858 C859 1.387 . S
C858 C862 1.391 . S
C859 C858 1.387 . S
C859 C860 1.384 . S
C859 H868 0.930 . S
C860 C857 1.380 . S
C860 C859 1.384 . S
C860 H869 0.931 . S
C861 C857 1.374 . S
C861 C862 1.390 . S
C861 H870 0.930 . S
C862 C858 1.391 . S
C862 C861 1.390 . S
C862 H871 0.930 . S
C863 Eu833 2.825 . S
C863 O848 1.238 . S
C863 O849 1.247 . S
C863 C857 1.507 . S
H864 C837 0.930 1_545 S
H865 C838 0.931 . S
H866 C839 0.930 . S
H867 C840 0.930 . S
H868 C859 0.930 . S
H869 C860 0.931 . S
H870 C861 0.930 . S
H871 C862 0.930 . S
Tb872 C882 2.825 . S
Tb872 O883 2.347 . S
Tb872 O886 2.366 . S
Tb872 O891 2.418 . S
Tb872 O892 2.384 . S
Tb872 O895 2.479 . S
Tb872 O896 2.471 . S
Eu873 O884 2.418 . S
Eu873 O885 2.384 . S
Eu873 O888 2.479 . S
Eu873 O889 2.471 . S
Eu873 O890 2.347 . S
Eu873 O893 2.366 . S
Eu873 C903 2.825 . S
C874 O890 1.259 . S
C874 O891 1.265 . S
C875 O892 1.255 . S
C875 O893 1.265 . S
C876 C878 1.380 . S
C876 C879 1.374 . S
C876 C882 1.507 . S
C877 C878 1.384 . S
C877 C881 1.387 . S
C877 H904 0.930 . S
C878 C876 1.380 . S
C878 C877 1.384 . S
C878 H905 0.931 . S
C879 C876 1.374 . S
C879 C880 1.390 . S
C879 H906 0.930 . S
C880 C879 1.390 . S
C880 C881 1.391 . S
C880 H907 0.930 . S
C881 C877 1.387 . S
C881 C880 1.391 . S
C882 Tb872 2.825 . S
C882 C876 1.507 . S
C882 O895 1.238 . S
C882 O896 1.247 . S
O883 Tb872 2.347 . S
O883 C887 1.259 . S
O884 Eu873 2.418 . S
O884 C887 1.265 . S
O885 Eu873 2.384 . S
O885 C894 1.255 . S
O886 Tb872 2.366 . S
O886 C894 1.265 . S
C887 O883 1.259 . S
C887 O884 1.265 . S
O888 Eu873 2.479 . S
O888 C903 1.238 . S
O889 Eu873 2.471 . S
O889 C903 1.247 . S
O890 Eu873 2.347 . S
O890 C874 1.259 . S
O891 Tb872 2.418 . S
O891 C874 1.265 . S
O892 Tb872 2.384 . S
O892 C875 1.255 . S
O893 Eu873 2.366 . S
O893 C875 1.265 . S
C894 O885 1.255 . S
C894 O886 1.265 . S
O895 Tb872 2.479 . S
O895 C882 1.238 . S
O896 Tb872 2.471 . S
O896 C882 1.247 . S
C897 C900 1.380 . S
C897 C901 1.374 . S
C897 C903 1.507 . S
C898 C899 1.387 . S
C898 C902 1.391 . S
C899 C898 1.387 . S
C899 C900 1.384 . S
C899 H908 0.930 . S
C900 C897 1.380 . S
C900 C899 1.384 . S
C900 H909 0.931 . S
C901 C897 1.374 . S
C901 C902 1.390 . S
C901 H910 0.930 . S
C902 C898 1.391 . S
C902 C901 1.390 . S
C902 H911 0.930 . S
C903 Eu873 2.825 . S
C903 O888 1.238 . S
C903 O889 1.247 . S
C903 C897 1.507 . S
H904 C877 0.930 . S
H905 C878 0.931 . S
H906 C879 0.930 . S
H907 C880 0.930 . S
H908 C899 0.930 . S
H909 C900 0.931 . S
H910 C901 0.930 . S
H911 C902 0.930 . S
Tb912 C922 2.825 1_454 S
Tb912 O923 2.347 1_554 S
Tb912 O926 2.366 . S
Tb912 O931 2.418 . S
Tb912 O932 2.384 1_455 S
Tb912 O935 2.479 1_455 S
Tb912 O936 2.475 1_454 S
Eu913 O924 2.418 1_554 S
Eu913 O925 2.384 . S
Eu913 O928 2.479 . S
Eu913 O929 2.471 . S
Eu913 O930 2.347 . S
Eu913 O933 2.366 . S
Eu913 C943 2.825 . S
C914 O930 1.259 . S
C914 O931 1.265 . S
C915 O932 1.255 . S
C915 O933 1.265 1_655 S
C916 C918 1.380 . S
C916 C919 1.374 1_655 S
C916 C922 1.507 . S
C917 C918 1.384 . S
C917 C921 1.387 . S
C917 H944 0.930 . S
C918 C916 1.380 . S
C918 C917 1.384 . S
C918 H945 0.931 1_556 S
C919 C916 1.374 1_455 S
C919 C920 1.390 . S
C919 H946 0.930 . S
C920 C919 1.390 . S
C920 C921 1.391 1_455 S
C920 H947 0.930 . S
C921 C917 1.387 . S
C921 C920 1.391 1_655 S
C922 Tb912 2.825 1_656 S
C922 C916 1.507 . S
C922 O935 1.238 1_556 S
C922 O936 1.247 . S
O923 Tb912 2.347 1_556 S
O923 C927 1.259 . S
O924 Eu913 2.418 1_556 S
O924 C927 1.265 . S
O925 Eu913 2.384 . S
O925 C934 1.255 . S
O926 Tb912 2.366 . S
O926 C934 1.265 . S
C927 O923 1.259 . S
C927 O924 1.265 . S
O928 Eu913 2.479 . S
O928 C943 1.238 . S
O929 Eu913 2.471 . S
O929 C943 1.247 . S
O930 Eu913 2.347 . S
O930 C914 1.259 . S
O931 Tb912 2.418 . S
O931 C914 1.265 . S
O932 Tb912 2.384 1_655 S
O932 C915 1.255 . S
O933 Eu913 2.366 . S
O933 C915 1.265 1_455 S
C934 O925 1.255 . S
C934 O926 1.265 . S
O935 Tb912 2.479 1_655 S
O935 C922 1.238 1_554 S
O936 Tb912 2.475 1_656 S
O936 C922 1.247 . S
C937 C940 1.380 . S
C937 C941 1.374 . S
C937 C943 1.507 . S
C938 C939 1.387 . S
C938 C942 1.391 . S
C939 C938 1.387 . S
C939 C940 1.384 . S
C939 H948 0.930 . S
C940 C937 1.380 . S
C940 C939 1.384 . S
C940 H949 0.931 . S
C941 C937 1.374 . S
C941 C942 1.390 . S
C941 H950 0.930 . S
C942 C938 1.391 . S
C942 C941 1.390 . S
C942 H951 0.930 . S
C943 Eu913 2.825 . S
C943 O928 1.238 . S
C943 O929 1.247 . S
C943 C937 1.507 . S
H944 C917 0.930 . S
H945 C918 0.931 1_554 S
H946 C919 0.930 . S
H947 C920 0.930 . S
H948 C939 0.930 . S
H949 C940 0.931 . S
H950 C941 0.930 . S
H951 C942 0.930 . S
C101 C334 3.251 1_556 S
C57 C354 2.804 . S
C70 C401 1.168 . S
C458 C82 2.766 . S
C23 C475 3.620 . S
C534 C29 2.594 . S
C567 C49 3.981 . S
C10 C614 4.095 . S
C327 C218 4.190 1_455 S
C226 C355 1.849 . S
C394 C251 1.710 . S
C454 C159 3.234 . S
C211 C481 1.706 1_565 S
C527 C225 2.887 . S
C578 C252 2.796 . S
C607 C166 3.732 . S
C338 C147 5.675 1_545 S
C263 C634 3.078 1_556 S
C698 C309 3.384 . S
C734 C291 2.983 . S
C108 C618 5.348 . S
C121 C395 3.669 . S
C302 C767 3.013 . S
C801 C276 2.131 1_455 S
C315 C55 3.256 . S
C807 C96 2.925 . S
C88 C418 1.877 . S
C75 C761 2.835 . S
C494 C4 4.107 . S
C44 C675 2.862 . S
C554 C31 4.289 1_544 S
C835 C18 3.803 . S
C314 C133 2.994 1_554 S
C814 C296 2.753 . S
C107 C407 1.660 . S
C264 C755 3.428 . S
C140 C498 1.797 . S
C674 C289 3.475 . S
C114 C561 2.863 . S
C265 C834 3.579 . S
C179 C321 4.025 1_554 S
C161 C647 2.961 . S
C244 C521 3.460 . S
C224 C715 2.686 . S
C841 C257 4.221 1_545 S
C199 C414 3.982 1_565 S
C434 C237 2.951 . S
C378 C185 2.177 . S
C69 C894 3.917 . S
C794 C83 3.132 . S
C94 C921 0.687 1_455 S
C56 C778 2.860 . S
C42 C635 3.595 . S
C694 C3 2.749 . S
C727 C16 3.981 . S
C854 C36 3.944 . S
C887 C238 3.921 . S
C174 C795 1.735 . S
C914 C186 1.733 . S
C774 C198 3.197 . S
C641 C239 1.740 . S
C173 C687 3.071 . S
C738 C187 2.803 . S
C205 C847 3.745 . S
C898 C290 5.720 . S
C122 C474 3.238 . S
C538 C134 3.187 . S
C574 C148 3.024 1_545 S
C858 C283 5.131 . S
C270 C915 3.797 . S
C447 C135 3.067 . S
C361 C109 1.309 . S
C81 C875 3.426 . S
C367 C68 2.676 . S
C62 C938 1.448 . S
C95 C441 2.817 . S
C30 C654 4.085 . S
C515 C17 2.928 . S
C5 C714 4.399 . S
C43 C595 3.657 . S
C874 C304 3.155 . S
C153 C374 2.826 . S
C927 C278 1.166 . S
C127 C435 3.458 . S
C303 C658 1.688 . S
C514 C146 3.600 . S
C277 C721 2.573 . S
C594 C120 3.598 . S
C881 C231 4.561 . S
C487 C200 3.148 1_545 S
C212 C681 3.291 . S
C555 C172 2.491 . S
C192 C601 4.250 . S
C160 C934 4.109 . S
C754 C213 3.023 . S
C818 C250 2.139 . S
