# Generated by pormake.
# Topology rtl, (3,6)-cn, num edge types: 1
# Building blocks:
#     Node 0, Type 0, BuildingBlock: WUSLED_clean_sbu_0, # of connection points: 3
#     Node 1, Type 0, BuildingBlock: WUSLED_clean_sbu_0, # of connection points: 3
#     Node 2, Type 0, BuildingBlock: WUSLED_clean_sbu_0, # of connection points: 3
#     Node 3, Type 0, BuildingBlock: WUSLED_clean_sbu_0, # of connection points: 3
#     Node 4, Type 1, BuildingBlock: KUMBOL_clean_sbu_1, # of connection points: 6
#     Node 5, Type 1, BuildingBlock: KUMBOL_clean_sbu_1, # of connection points: 6
#     Edge 6, Type (0, 1), BuildingBlock: ZUJKAS_clean_linker_0, # of connection points: 2
#     Edge 7, Type (0, 1), BuildingBlock: ZUJKAS_clean_linker_0, # of connection points: 2
#     Edge 8, Type (0, 1), BuildingBlock: ZUJKAS_clean_linker_0, # of connection points: 2
#     Edge 9, Type (0, 1), BuildingBlock: ZUJKAS_clean_linker_0, # of connection points: 2
#     Edge 10, Type (0, 1), BuildingBlock: ZUJKAS_clean_linker_0, # of connection points: 2
#     Edge 11, Type (0, 1), BuildingBlock: ZUJKAS_clean_linker_0, # of connection points: 2
#     Edge 12, Type (0, 1), BuildingBlock: ZUJKAS_clean_linker_0, # of connection points: 2
#     Edge 13, Type (0, 1), BuildingBlock: ZUJKAS_clean_linker_0, # of connection points: 2
#     Edge 14, Type (0, 1), BuildingBlock: ZUJKAS_clean_linker_0, # of connection points: 2
#     Edge 15, Type (0, 1), BuildingBlock: ZUJKAS_clean_linker_0, # of connection points: 2
#     Edge 16, Type (0, 1), BuildingBlock: ZUJKAS_clean_linker_0, # of connection points: 2
#     Edge 17, Type (0, 1), BuildingBlock: ZUJKAS_clean_linker_0, # of connection points: 2
# Relax obj value: 0.016
# Max RMSD: 0.092
# Mean RMSD: 0.053
data_MOF--net-rtl--node1-WUSLED_clean_sbu_0--node2-KUMBOL_clean_sbu_1--edge1-ZUJKAS_clean_linker_0
_symmetry_space_group_name_H-M    P1
_symmetry_Int_Tables_number       1
_symmetry_cell_setting            triclinic
loop_
_symmetry_equiv_pos_as_xyz
'x, y, z'
_cell_length_a     51.922874
_cell_length_b     52.292936
_cell_length_c     44.080445
_cell_angle_alpha  82.711041
_cell_angle_beta   99.163744
_cell_angle_gamma 90.802236
loop_
_atom_site_label
_atom_site_type_symbol
_atom_site_fract_x
_atom_site_fract_y
_atom_site_fract_z
_atom_type_partial_charge
C0 C 0.20435 0.83763 0.10719 0.0
C1 C 0.18459 0.85641 0.09912 0.0
C2 C 0.18232 0.85797 0.15372 0.0
C3 C 0.17367 0.8665 0.12216 0.0
C4 C 0.20216 0.8391 0.16159 0.0
C5 C 0.21307 0.82905 0.13851 0.0
U6 U 0.20854 0.83472 0.02232 0.0
O7 O 0.24254 0.83181 0.99881 0.0
O8 O 0.21271 0.80164 0.99722 0.0
C9 C 0.23543 0.80932 0.99002 0.0
C10 C 0.21593 0.82689 0.08313 0.0
C11 C 0.25596 0.78947 0.99516 0.0
C12 C 0.28564 0.75872 0.02896 0.0
C13 C 0.26626 0.7778 0.02498 0.0
C14 C 0.2845 0.76295 0.97338 0.0
C15 C 0.29501 0.75108 1.00315 0.0
C16 C 0.2652 0.78194 0.96947 0.0
C17 C 0.16435 0.87753 0.95964 0.0
C18 C 0.16907 0.87991 0.90537 0.0
C19 C 0.13257 0.90115 0.92 0.0
C20 C 0.14159 0.89251 0.95118 0.0
C21 C 0.14621 0.89498 0.89671 0.0
C22 C 0.17802 0.8712 0.93657 0.0
C23 C 0.1735 0.86846 0.9925 0.0
O24 O 0.20019 0.81283 0.06565 0.0
O25 O 0.22988 0.84309 0.06721 0.0
O26 O 0.19758 0.87466 1.0031 0.0
O27 O 0.1679 0.8444 1.00155 0.0
H28 H 0.17757 0.86321 0.07499 0.0
H29 H 0.15821 0.88072 0.11523 0.0
H30 H 0.20952 0.83233 0.18562 0.0
H31 H 0.22837 0.8146 0.14514 0.0
H32 H 0.29346 0.75016 0.05221 0.0
H33 H 0.25933 0.78344 0.0451 0.0
H34 H 0.29088 0.75727 0.95297 0.0
H35 H 0.25736 0.79068 0.94627 0.0
H36 H 0.17986 0.87458 0.888 0.0
H37 H 0.11509 0.91297 0.91416 0.0
H38 H 0.13081 0.89758 0.9687 0.0
H39 H 0.19558 0.85948 0.94271 0.0
C40 C 0.68294 0.68815 0.68562 0.0
C41 C 0.66784 0.6661 0.68101 0.0
C42 C 0.65854 0.66272 0.73397 0.0
C43 C 0.6558 0.65346 0.70497 0.0
C44 C 0.67364 0.68493 0.73832 0.0
C45 C 0.68572 0.69748 0.71439 0.0
U46 U 0.69351 0.69916 0.60114 0.0
O47 O 0.69822 0.73519 0.57067 0.0
O48 O 0.72944 0.70598 0.58087 0.0
C49 C 0.72195 0.7291 0.56719 0.0
C50 C 0.69586 0.70162 0.66072 0.0
C51 C 0.74157 0.74982 0.56887 0.0
C52 C 0.78163 0.76869 0.59301 0.0
C53 C 0.76211 0.74988 0.59384 0.0
C54 C 0.75994 0.78788 0.54272 0.0
C55 C 0.781 0.78767 0.56716 0.0
C56 C 0.74051 0.76917 0.54359 0.0
C57 C 0.65443 0.65917 0.54259 0.0
C58 C 0.66577 0.6501 0.49351 0.0
C59 C 0.62107 0.64563 0.50265 0.0
C60 C 0.6284 0.6532 0.53211 0.0
C61 C 0.63969 0.64372 0.48304 0.0
C62 C 0.67305 0.65783 0.52295 0.0
C63 C 0.66164 0.6664 0.57414 0.0
O64 O 0.71185 0.68748 0.64938 0.0
O65 O 0.68069 0.71664 0.63919 0.0
O66 O 0.65438 0.68959 0.57797 0.0
O67 O 0.6854 0.66024 0.58828 0.0
H68 H 0.66534 0.65868 0.65886 0.0
H69 H 0.64408 0.63662 0.70066 0.0
H70 H 0.67645 0.69242 0.76041 0.0
H71 H 0.69732 0.71447 0.71839 0.0
H72 H 0.79762 0.76789 0.61216 0.0
H73 H 0.76336 0.73512 0.61363 0.0
H74 H 0.75852 0.80246 0.52274 0.0
H75 H 0.72483 0.76951 0.52409 0.0
H76 H 0.68071 0.64861 0.47924 0.0
H77 H 0.60074 0.6414 0.49522 0.0
H78 H 0.61369 0.65429 0.5468 0.0
H79 H 0.69327 0.66248 0.53045 0.0
C80 C 0.83711 0.1708 0.12289 0.0
C81 C 0.86272 0.17744 0.13498 0.0
C82 C 0.86279 0.14481 0.17967 0.0
C83 C 0.8754 0.16456 0.16301 0.0
C84 C 0.83729 0.13802 0.16746 0.0
C85 C 0.82456 0.15096 0.13948 0.0
U86 U 0.8212 0.18716 0.03412 0.0
O87 O 0.7832 0.19565 1.00457 0.0
O88 O 0.81396 0.22486 1.00576 0.0
C89 C 0.7893 0.21977 0.99649 0.0
C90 C 0.82281 0.18536 0.09421 0.0
C91 C 0.77059 0.23909 1.00143 0.0
C92 C 0.75117 0.26301 0.03599 0.0
C93 C 0.76885 0.24445 0.03144 0.0
C94 C 0.73662 0.27089 0.98058 0.0
C95 C 0.73484 0.27648 1.0106 0.0
C96 C 0.75437 0.25237 0.97607 0.0
C97 C 0.85775 0.15019 0.98334 0.0
C98 C 0.85369 0.15854 0.92722 0.0
C99 C 0.88094 0.12333 0.95545 0.0
C100 C 0.87456 0.12952 0.98326 0.0
C101 C 0.87058 0.13772 0.92705 0.0
C102 C 0.84728 0.1647 0.95518 0.0
C103 C 0.85172 0.15619 0.01315 0.0
O104 O 0.83639 0.20179 0.07806 0.0
O105 O 0.80602 0.1722 0.07675 0.0
O106 O 0.82835 0.14965 0.01918 0.0
O107 O 0.859 0.17902 0.02073 0.0
H108 H 0.87294 0.19276 0.12299 0.0
H109 H 0.89513 0.17008 0.17164 0.0
H110 H 0.8269 0.12313 0.17992 0.0
H111 H 0.80471 0.14566 0.13106 0.0
H112 H 0.75007 0.26659 0.05941 0.0
H113 H 0.78118 0.23427 0.05133 0.0
H114 H 0.72458 0.28111 0.9605 0.0
H115 H 0.7555 0.24849 0.95274 0.0
H116 H 0.84521 0.16988 0.90576 0.0
H117 H 0.89434 0.10749 0.95628 0.0
H118 H 0.88291 0.11818 1.00481 0.0
H119 H 0.8342 0.18074 0.95485 0.0
C120 C 0.35297 0.33919 0.37167 0.0
C121 C 0.37824 0.34911 0.3785 0.0
C122 C 0.37813 0.3643 0.32375 0.0
C123 C 0.39074 0.36143 0.35475 0.0
C124 C 0.35272 0.35458 0.31715 0.0
C125 C 0.34032 0.34212 0.34085 0.0
U126 U 0.33902 0.32789 0.45526 0.0
O127 O 0.30211 0.31989 0.47303 0.0
O128 O 0.33417 0.29164 0.48531 0.0
C129 C 0.30984 0.29697 0.48714 0.0
C130 C 0.33956 0.32558 0.39614 0.0
C131 C 0.29094 0.27564 0.48448 0.0
C132 C 0.25036 0.25725 0.46095 0.0
C133 C 0.26944 0.27652 0.46053 0.0
C134 C 0.27443 0.23565 0.50866 0.0
C135 C 0.25238 0.23684 0.48539 0.0
C136 C 0.29342 0.25484 0.50821 0.0
C137 C 0.37266 0.36856 0.51576 0.0
C138 C 0.36741 0.35988 0.56995 0.0
C139 C 0.39044 0.39804 0.55205 0.0
C140 C 0.3863 0.39108 0.52204 0.0
C141 C 0.381 0.38256 0.57639 0.0
C142 C 0.36321 0.35298 0.53988 0.0
C143 C 0.36812 0.36176 0.48395 0.0
O144 O 0.35432 0.31093 0.41851 0.0
O145 O 0.32241 0.33928 0.40622 0.0
O146 O 0.34464 0.36705 0.46842 0.0
O147 O 0.37668 0.33891 0.48062 0.0
H148 H 0.38833 0.34727 0.40216 0.0
H149 H 0.41017 0.36897 0.3607 0.0
H150 H 0.34254 0.3562 0.29354 0.0
H151 H 0.32085 0.3346 0.33507 0.0
H152 H 0.23358 0.25884 0.44274 0.0
H153 H 0.267 0.29239 0.44195 0.0
H154 H 0.2769 0.21999 0.5275 0.0
H155 H 0.3098 0.25376 0.52695 0.0
H156 H 0.3596 0.34769 0.58803 0.0
H157 H 0.40125 0.41545 0.55625 0.0
H158 H 0.39374 0.40333 0.5037 0.0
H159 H 0.35248 0.33558 0.5354 0.0
C160 C 0.97866 0.08962 0.50957 0.0
C161 C 0.93639 0.08132 0.48015 0.0
C162 C 0.95866 0.0726 0.50148 0.0
C163 C 0.93456 0.10728 0.46704 0.0
C164 C 0.97687 0.11569 0.49648 0.0
C165 C 0.95473 0.12441 0.47519 0.0
N166 N 1.00016 0.08051 0.52964 0.0
C167 C 0.02013 0.09654 0.53843 0.0
C168 C 0.99754 0.13217 0.50495 0.0
C169 C 0.01921 0.12257 0.52612 0.0
Gd170 Gd 0.03804 0.9845 0.50991 0.0
Gd171 Gd 1.00038 0.03647 0.54799 0.0
N172 N 0.96147 0.04732 0.51362 0.0
C173 C 0.91673 0.06362 0.47241 0.0
C174 C 0.94183 0.03028 0.50722 0.0
C175 C 0.91935 0.03806 0.48626 0.0
H176 H 0.94316 0.01076 0.51838 0.0
H177 H 0.904 0.02436 0.48092 0.0
H178 H 0.09585 0.01416 0.53001 0.0
H179 H 0.0366 0.08934 0.55534 0.0
H180 H 0.13619 1.0055 0.5671 0.0
H181 H 0.89935 0.06955 0.45606 0.0
H182 H 0.91765 0.11428 0.45049 0.0
H183 H 1.0044 0.92961 0.51288 0.0
H184 H 0.99691 0.15233 0.49537 0.0
H185 H 0.03517 0.1352 0.53302 0.0
H186 H 0.12703 0.91831 0.61282 0.0
H187 H 0.95305 0.14436 0.4648 0.0
H188 H 0.04899 0.87316 0.5785 0.0
H189 H 1.00895 0.88558 0.54121 0.0
N190 N 0.04112 0.942 0.53445 0.0
C191 C 0.06361 0.93541 0.55418 0.0
C192 C 0.02176 0.92443 0.52939 0.0
C193 C 0.04709 0.89248 0.56613 0.0
C194 C 0.0244 0.89945 0.54519 0.0
C195 C 0.06705 0.91052 0.57086 0.0
H196 H 0.09294 0.88559 0.60518 0.0
N197 N 0.07851 0.97816 0.54291 0.0
C198 C 0.08278 0.95403 0.55865 0.0
C199 C 0.12507 0.96696 0.58323 0.0
C200 C 0.10597 0.94797 0.57968 0.0
C201 C 0.09782 0.99612 0.54481 0.0
C202 C 0.12113 0.991 0.56536 0.0
O203 O 1.00119 0.04354 0.49634 0.0
O204 O 1.00186 1.00324 0.48069 0.0
O205 O 0.06469 0.98901 0.47634 0.0
O206 O 0.03785 0.95723 0.47641 0.0
O207 O 0.98612 0.99499 0.55136 0.0
O208 O 0.99482 0.97779 0.50806 0.0
O209 O 0.035 0.97756 0.56114 0.0
O210 O 0.03707 0.01805 0.57591 0.0
O211 O 0.9731 0.02865 0.58042 0.0
O212 O 0.99926 0.06091 0.58428 0.0
O213 O 0.05073 0.02646 0.50424 0.0
O214 O 0.04359 0.04243 0.54876 0.0
C215 C 0.99614 0.02795 0.47505 0.0
C216 C 0.98181 0.97798 0.5314 0.0
C217 C 0.04898 0.97489 0.42835 0.0
C218 C 0.0575 0.96855 0.3768 0.0
C219 C 0.02334 0.99812 0.38263 0.0
C220 C 0.02927 0.99266 0.41473 0.0
C221 C 0.03731 0.9862 0.36374 0.0
C222 C 0.06308 0.96279 0.40935 0.0
C223 C 0.05532 0.96963 0.46231 0.0
C224 C 0.10941 0.92322 0.59642 0.0
C225 C 0.09002 0.90456 0.59202 0.0
H226 H 0.14314 0.96307 0.59916 0.0
C227 C 0.0416 0.99318 0.58207 0.0
C228 C 0.05516 0.04352 0.52411 0.0
C229 C 0.98712 0.0398 0.63037 0.0
C230 C 0.97837 0.04457 0.68225 0.0
C231 C 1.00952 0.01237 0.67501 0.0
C232 C 1.0047 0.01975 0.6431 0.0
C233 C 0.99646 0.02465 0.69451 0.0
C234 C 0.97402 0.05226 0.64999 0.0
C235 C 0.98168 0.04708 0.59661 0.0
H236 H 1.00792 0.0117 0.37239 0.0
H237 H 0.01863 1.00243 0.42898 0.0
H238 H 0.03217 0.99069 0.33885 0.0
H239 H 0.07866 0.9494 0.4199 0.0
H240 H 0.02325 0.99694 0.68463 0.0
H241 H 0.01439 0.00964 0.62825 0.0
H242 H 1.00057 0.01857 0.71922 0.0
H243 H 0.95999 0.06739 0.64006 0.0
C244 C 0.59606 0.54413 0.03129 0.0
C245 C 0.59193 0.5894 1.01051 0.0
C246 C 0.58175 0.56686 0.02519 0.0
C247 C 0.61621 0.58835 1.0005 0.0
C248 C 0.62109 0.54336 0.02281 0.0
C249 C 0.63073 0.56536 1.00656 0.0
N250 N 0.58632 0.52337 0.04749 0.0
C251 C 0.60194 0.5025 0.05924 0.0
C252 C 0.63608 0.52086 0.03205 0.0
C253 C 0.62667 0.50055 0.05093 0.0
Gd254 Gd 0.49175 0.49236 0.99663 0.0
Gd255 Gd 0.5433 0.5278 0.05715 0.0
N256 N 0.55809 0.56709 0.03452 0.0
C257 C 0.57755 0.61237 1.00684 0.0
C258 C 0.54456 0.5896 0.0325 0.0
C259 C 0.55395 0.61254 0.01832 0.0
H260 H 0.52626 0.58963 0.04127 0.0
H261 H 0.54295 0.63028 0.01611 0.0
H262 H 0.52413 0.43724 0.99289 0.0
H263 H 0.59552 0.48736 0.07529 0.0
H264 H 0.52464 0.3918 0.01585 0.0
H265 H 0.58471 0.63012 0.99571 0.0
H266 H 0.62419 0.60536 0.98871 0.0
H267 H 0.43493 0.51694 1.00539 0.0
H268 H 0.65537 0.51946 0.02596 0.0
H269 H 0.63862 0.48357 0.05951 0.0
H270 H 0.44945 0.38427 0.06702 0.0
H271 H 0.64977 0.56503 0.9995 0.0
H272 H 0.39343 0.45827 0.05463 0.0
H273 H 0.39599 0.50299 0.02899 0.0
N274 N 0.45386 0.4805 0.01761 0.0
C275 C 0.45232 0.45559 0.03028 0.0
C276 C 0.43375 0.49735 0.01633 0.0
C277 C 0.41037 0.46424 0.04407 0.0
C278 C 0.41175 0.48951 0.02965 0.0
C279 C 0.43074 0.44687 0.0444 0.0
H280 H 0.41391 0.4142 0.06954 0.0
N281 N 0.49241 0.44776 0.01407 0.0
C282 C 0.47246 0.43885 0.02901 0.0
C283 C 0.49093 0.39589 0.03773 0.0
C284 C 0.47137 0.41275 0.04162 0.0
C285 C 0.51014 0.4309 1.00784 0.0
C286 C 0.5101 0.40492 0.02022 0.0
O287 O 0.53331 0.54464 1.00648 0.0
O288 O 0.52861 0.50897 0.98123 0.0
O289 O 0.47928 0.4708 0.95782 0.0
O290 O 0.46929 0.5111 0.95391 0.0
O291 O 0.50198 0.54373 0.04763 0.0
O292 O 0.48249 0.5343 0.99878 0.0
O293 O 0.4847 0.49625 0.04543 0.0
O294 O 0.52518 0.49025 0.07395 0.0
O295 O 0.53091 0.54387 0.09567 0.0
O296 O 0.57139 0.53449 0.09745 0.0
O297 O 0.53443 0.48074 1.00355 0.0
O298 O 0.54962 0.48519 0.05469 0.0
C299 C 0.53638 0.5328 0.98278 0.0
C300 C 0.48425 0.54793 0.02237 0.0
C301 C 0.44106 0.48464 0.92338 0.0
C302 C 0.41529 0.46794 0.8787 0.0
C303 C 0.3938 0.48476 0.91732 0.0
C304 C 0.41796 0.49038 0.93391 0.0
C305 C 0.3924 0.47361 0.88994 0.0
C306 C 0.43962 0.47349 0.89575 0.0
C307 C 0.46686 0.49016 0.94058 0.0
C308 C 0.45043 0.40417 0.05684 0.0
C309 C 0.43014 0.42119 0.05819 0.0
H310 H 0.49082 0.37571 0.04708 0.0
C311 C 0.4999 0.48698 0.07102 0.0
C312 C 0.55043 0.47411 0.02963 0.0
C313 C 0.5551 0.52968 0.14461 0.0
C314 C 0.56236 0.5326 0.20027 0.0
C315 C 0.55124 0.49152 0.18104 0.0
C316 C 0.55029 0.50323 0.15064 0.0
C317 C 0.55725 0.50603 0.20571 0.0
C318 C 0.56118 0.54431 0.16942 0.0
C319 C 0.55392 0.54202 0.11252 0.0
H320 H 0.37605 0.48926 0.92558 0.0
H321 H 0.41854 0.49935 0.95473 0.0
H322 H 0.37337 0.46991 0.87725 0.0
H323 H 0.45749 0.46899 0.88766 0.0
H324 H 0.5475 0.47108 0.18551 0.0
H325 H 0.54598 0.49164 0.13186 0.0
H326 H 0.55836 0.4963 0.22908 0.0
H327 H 0.56476 0.56479 0.16465 0.0
H328 H 0.23221 0.21676 0.53693 0.0
H329 H 0.19819 0.18432 0.54088 0.0
H330 H 0.18971 0.18099 0.44257 0.0
H331 H 0.22432 0.21306 0.4385 0.0
H332 H 0.14591 0.18638 0.51077 0.0
H333 H 0.20019 0.1049 0.48024 0.0
H334 H 0.21608 0.13405 0.49113 0.0
H335 H 0.19786 0.13371 0.45297 0.0
C336 C 0.22338 0.20892 0.51616 0.0
C337 C 0.23125 0.21735 0.48743 0.0
C338 C 0.20377 0.19051 0.51844 0.0
C339 C 0.19163 0.17996 0.49212 0.0
C340 C 0.19911 0.18855 0.46329 0.0
H341 H 0.0728 0.06093 0.47006 0.0
H342 H 0.10501 0.09462 0.46151 0.0
C343 C 0.21873 0.20706 0.46096 0.0
C344 C 0.171 0.16019 0.49504 0.0
H345 H 0.15663 0.09705 0.48782 0.0
C346 C 0.14823 0.16685 0.50574 0.0
C347 C 0.17403 0.13473 0.48838 0.0
C348 C 0.19842 0.12624 0.47777 0.0
C349 C 0.12836 0.1488 0.50982 0.0
C350 C 0.13158 0.12321 0.50368 0.0
C351 C 0.1542 0.11664 0.49259 0.0
C352 C 0.11187 0.10288 0.50898 0.0
C353 C 0.10391 0.15742 0.5202 0.0
C354 C 0.10528 0.09601 0.53863 0.0
C355 C 0.08687 0.07676 0.54359 0.0
C356 C 0.07474 0.06391 0.51902 0.0
C357 C 0.08172 0.07051 0.48947 0.0
C358 C 0.10011 0.08978 0.48453 0.0
H359 H 0.10125 0.17868 0.51535 0.0
H360 H 0.08635 0.14809 0.5086 0.0
H361 H 0.10534 0.15194 0.54557 0.0
H362 H 0.1146 0.10534 0.55805 0.0
H363 H 0.08235 0.07176 0.56675 0.0
H364 H 0.33661 0.75008 0.97211 0.0
H365 H 0.36849 0.71544 0.97591 0.0
H366 H 0.3324 0.6717 0.04736 0.0
H367 H 0.29977 0.70588 0.04289 0.0
H368 H 0.4044 0.69433 0.02461 0.0
H369 H 0.33351 0.62031 0.98541 0.0
H370 H 0.32512 0.65407 0.9815 0.0
H371 H 0.32616 0.63434 0.01819 0.0
C372 C 0.33525 0.73299 0.98844 0.0
C373 C 0.31541 0.73066 1.00695 0.0
C374 C 0.35363 0.71327 0.99073 0.0
C375 C 0.35256 0.69077 1.01152 0.0
C376 C 0.33327 0.68866 0.03069 0.0
H377 H 0.47742 0.57707 0.06795 0.0
H378 H 0.44572 0.61158 0.06531 0.0
C379 C 0.31483 0.70837 0.02838 0.0
C380 C 0.37174 0.66964 0.01307 0.0
H381 H 0.37701 0.60608 1.00405 0.0
C382 C 0.39843 0.67504 0.0201 0.0
C383 C 0.36393 0.64458 1.00666 0.0
C384 C 0.33564 0.63795 0.99722 0.0
C385 C 0.41752 0.65601 0.02126 0.0
C386 C 0.40968 0.63072 0.01587 0.0
C387 C 0.38299 0.6254 1.00846 0.0
C388 C 0.42884 0.60955 0.01752 0.0
C389 C 0.4459 0.66335 0.02759 0.0
C390 C 0.42942 0.59634 0.99182 0.0
C391 C 0.44738 0.57634 0.99332 0.0
C392 C 0.46512 0.56911 0.02062 0.0
C393 C 0.46428 0.58224 0.04643 0.0
C394 C 0.44623 0.60212 0.04493 0.0
H395 H 0.4486 0.68448 0.02238 0.0
H396 H 0.45357 0.65768 0.05247 0.0
H397 H 0.45769 0.65335 0.01368 0.0
H398 H 0.41608 0.60165 0.97048 0.0
H399 H 0.44738 0.56663 0.97303 0.0
H400 H 0.80401 0.80426 0.51655 0.0
H401 H 0.83836 0.83627 0.51226 0.0
H402 H 0.84115 0.84649 0.60826 0.0
H403 H 0.80666 0.81438 0.61277 0.0
H404 H 0.83795 0.8873 0.52092 0.0
H405 H 0.91774 0.83524 0.60349 0.0
H406 H 0.88793 0.81962 0.58887 0.0
H407 H 0.88858 0.83942 0.61947 0.0
C408 C 0.81183 0.81336 0.53678 0.0
C409 C 0.80247 0.80676 0.56501 0.0
C410 C 0.83158 0.8316 0.5343 0.0
C411 C 0.84259 0.8436 0.56 0.0
C412 C 0.83337 0.83709 0.58827 0.0
H413 H 0.95905 0.96423 0.58289 0.0
H414 H 0.92506 0.93208 0.58969 0.0
C415 C 0.81361 0.81875 0.5908 0.0
C416 C 0.86312 0.86349 0.55671 0.0
H417 H 0.92631 0.87828 0.58365 0.0
C418 C 0.85729 0.88527 0.53459 0.0
C419 C 0.88836 0.86089 0.57457 0.0
C420 C 0.8962 0.83744 0.59775 0.0
C421 C 0.87588 0.9046 0.53003 0.0
C422 C 0.90113 0.90193 0.54776 0.0
C423 C 0.90693 0.88028 0.57007 0.0
C424 C 0.92179 0.9214 0.54343 0.0
C425 C 0.86821 0.92794 0.50661 0.0
C426 C 0.93143 0.92592 0.51522 0.0
C427 C 0.95089 0.9443 0.51123 0.0
C428 C 0.96116 0.95846 0.53543 0.0
C429 C 0.95151 0.95378 0.5637 0.0
C430 C 0.93214 0.93534 0.5677 0.0
H431 H 0.84669 0.93006 0.50042 0.0
H432 H 0.87628 0.9458 0.51556 0.0
H433 H 0.87624 0.92594 0.48516 0.0
H434 H 0.92399 0.91513 0.49632 0.0
H435 H 0.95779 0.94747 0.48914 0.0
H436 H 0.74297 0.31323 0.05022 0.0
H437 H 0.71223 0.34608 0.05771 0.0
H438 H 0.65405 0.31822 0.98864 0.0
H439 H 0.68438 0.2849 0.9816 0.0
H440 H 0.68822 0.38518 0.01402 0.0
H441 H 0.61462 0.32083 0.06168 0.0
H442 H 0.64704 0.3099 0.05952 0.0
H443 H 0.6223 0.31284 0.0257 0.0
C444 C 0.72351 0.31384 0.03694 0.0
C445 C 0.71612 0.29635 0.01538 0.0
C446 C 0.70602 0.33273 0.04112 0.0
C447 C 0.68074 0.33437 0.02405 0.0
C448 C 0.67331 0.31702 1.00247 0.0
H449 H 0.57209 0.46146 0.98121 0.0
H450 H 0.60453 0.42785 0.98188 0.0
C451 C 0.69079 0.29817 0.99821 0.0
C452 C 0.66244 0.35485 0.02792 0.0
H453 H 0.60197 0.36481 0.0457 0.0
C454 C 0.66945 0.38073 0.02117 0.0
C455 C 0.63811 0.34903 0.03769 0.0
C456 C 0.63011 0.32165 0.04687 0.0
C457 C 0.65241 0.40093 0.02292 0.0
C458 C 0.62759 0.39507 0.03124 0.0
C459 C 0.62092 0.36923 0.03902 0.0
C460 C 0.60799 0.41546 0.0311 0.0
C461 C 0.66112 0.4284 0.0159 0.0
C462 C 0.59875 0.41927 0.05845 0.0
C463 C 0.58009 0.43842 0.05811 0.0
C464 C 0.57025 0.45391 0.03034 0.0
C465 C 0.57934 0.44983 1.00296 0.0
C466 C 0.59801 0.43078 1.00334 0.0
H467 H 0.6827 0.42976 0.01814 0.0
H468 H 0.65271 0.43594 0.99172 0.0
H469 H 0.65426 0.44093 0.03157 0.0
H470 H 0.60607 0.40751 0.08007 0.0
H471 H 0.57322 0.441 0.07948 0.0
H472 H 0.16872 0.90814 0.15574 0.0
H473 H 0.14892 0.92552 0.19563 0.0
H474 H 0.14969 0.84966 0.24715 0.0
H475 H 0.16931 0.83205 0.20726 0.0
H476 H 0.10149 0.91174 0.2152 0.0
H477 H 0.18375 0.89389 0.31277 0.0
H478 H 0.18762 0.89272 0.27298 0.0
H479 H 0.17325 0.86608 0.29412 0.0
C480 C 0.1646 0.8951 0.17548 0.0
C481 C 0.17067 0.86868 0.17827 0.0
C482 C 0.15341 0.90511 0.19835 0.0
C483 C 0.14817 0.88897 0.2246 0.0
C484 C 0.15411 0.86259 0.22746 0.0
H485 H 0.07327 0.91803 0.38142 0.0
H486 H 0.09555 0.8981 0.34515 0.0
C487 C 0.16532 0.85255 0.2046 0.0
C488 C 0.13557 0.89967 0.24829 0.0
H489 H 0.14413 0.90898 0.32463 0.0
C490 C 0.11084 0.9112 0.2391 0.0
C491 C 0.14773 0.89879 0.27953 0.0
C492 C 0.17464 0.88741 0.2905 0.0
C493 C 0.09788 0.92175 0.26029 0.0
C494 C 0.11017 0.9212 0.29143 0.0
C495 C 0.13476 0.90939 0.30075 0.0
C496 C 0.098 0.93341 0.31435 0.0
C497 C 0.07093 0.93306 0.24922 0.0
C498 C 0.09268 0.95997 0.30954 0.0
C499 C 0.08005 0.97137 0.33017 0.0
C500 C 0.07258 0.9565 0.35622 0.0
C501 C 0.07883 0.93004 0.36165 0.0
C502 C 0.09146 0.91861 0.3409 0.0
H503 H 0.06152 0.92573 0.22758 0.0
H504 H 0.05817 0.92861 0.26714 0.0
H505 H 0.0724 0.95433 0.2443 0.0
H506 H 0.09815 0.97188 0.28966 0.0
H507 H 0.07608 0.9919 0.32567 0.0
H508 H 0.63342 0.68433 0.77485 0.0
H509 H 0.61332 0.66227 0.81749 0.0
H510 H 0.63399 0.58874 0.79338 0.0
H511 H 0.65468 0.61063 0.75114 0.0
H512 H 0.57216 0.62626 0.81486 0.0
H513 H 0.66269 0.5836 0.88654 0.0
H514 H 0.66315 0.60939 0.85523 0.0
H515 H 0.65745 0.57679 0.8471 0.0
C516 C 0.63396 0.66346 0.7788 0.0
C517 C 0.64583 0.64928 0.75961 0.0
C518 C 0.62232 0.65088 0.80309 0.0
C519 C 0.62247 0.62386 0.80893 0.0
C520 C 0.63402 0.60962 0.78966 0.0
H521 H 0.56281 0.5116 0.94323 0.0
H522 H 0.58324 0.53405 0.90101 0.0
C523 C 0.64559 0.62217 0.76528 0.0
C524 C 0.61008 0.61061 0.83481 0.0
H525 H 0.62272 0.57015 0.90279 0.0
C526 C 0.58322 0.61408 0.83416 0.0
C527 C 0.62453 0.59468 0.85996 0.0
C528 C 0.6536 0.591 0.86254 0.0
C529 C 0.57032 0.60165 0.85762 0.0
C530 C 0.58477 0.58574 0.88281 0.0
C531 C 0.61165 0.58233 0.88349 0.0
C532 C 0.57233 0.57226 0.90853 0.0
C533 C 0.5412 0.60516 0.85477 0.0
C534 C 0.55959 0.58625 0.92703 0.0
C535 C 0.5477 0.57343 0.95096 0.0
C536 C 0.54869 0.54641 0.95724 0.0
C537 C 0.56161 0.53244 0.93887 0.0
C538 C 0.57342 0.54525 0.91485 0.0
H539 H 0.53216 0.61202 0.83057 0.0
H540 H 0.53171 0.58686 0.86254 0.0
H541 H 0.53713 0.61978 0.86959 0.0
H542 H 0.55888 0.60711 0.92301 0.0
H543 H 0.53754 0.58467 0.9644 0.0
H544 H 0.86355 0.09324 0.20125 0.0
H545 H 0.88468 0.07207 0.25172 0.0
H546 H 0.91326 0.14555 0.27686 0.0
H547 H 0.89179 0.1669 0.22682 0.0
H548 H 0.93869 0.07253 0.27747 0.0
H549 H 0.87695 0.1153 0.35012 0.0
H550 H 0.86748 0.11551 0.30884 0.0
H551 H 0.89088 0.13834 0.32362 0.0
C552 C 0.87412 0.10492 0.21765 0.0
C553 C 0.87593 0.13177 0.21005 0.0
C554 C 0.88628 0.09278 0.24639 0.0
C555 C 0.90021 0.10729 0.26816 0.0
C556 C 0.90224 0.13405 0.26057 0.0
H557 H 0.99326 0.07825 0.4492 0.0
H558 H 0.96935 0.09629 0.39893 0.0
C559 C 0.8902 0.14618 0.23183 0.0
C560 C 0.9132 0.09444 0.29855 0.0
H561 H 0.91504 0.09269 0.3766 0.0
C562 C 0.93338 0.07672 0.29916 0.0
C563 C 0.90625 0.10004 0.32677 0.0
C564 C 0.88405 0.11816 0.32746 0.0
C565 C 0.94733 0.06499 0.32731 0.0
C566 C 0.94057 0.0708 0.35552 0.0
C567 C 0.92017 0.08828 0.35491 0.0
C568 C 0.95493 0.05955 0.38598 0.0
C569 C 0.96986 0.04726 0.32669 0.0
C570 C 0.95445 0.03292 0.39556 0.0
C571 C 0.96793 0.02255 0.42446 0.0
C572 C 0.98211 0.03865 0.44425 0.0
C573 C 0.98241 0.06532 0.43459 0.0
C574 C 0.96883 0.07567 0.40583 0.0
H575 H 0.97555 0.0485 0.3033 0.0
H576 H 0.98707 0.05202 0.3434 0.0
H577 H 0.96429 0.02706 0.33359 0.0
H578 H 0.94343 0.0202 0.38082 0.0
H579 H 0.96708 1.00197 0.4314 0.0
H580 H 0.3945 0.35168 0.63172 0.0
H581 H 0.40064 0.36439 0.68401 0.0
H582 H 0.38371 0.44342 0.64547 0.0
H583 H 0.3769 0.43083 0.59324 0.0
H584 H 0.43608 0.40007 0.71024 0.0
H585 H 0.33341 0.42889 0.70876 0.0
H586 H 0.3429 0.40984 0.6809 0.0
H587 H 0.34761 0.44415 0.67655 0.0
C588 C 0.39181 0.37173 0.63438 0.0
C589 C 0.38509 0.39021 0.60825 0.0
C590 C 0.39551 0.37898 0.66427 0.0
C591 C 0.39231 0.40479 0.66866 0.0
C592 C 0.38588 0.42333 0.64266 0.0
H593 H 0.44366 0.48103 0.83168 0.0
H594 H 0.43908 0.46432 0.78171 0.0
C595 C 0.38226 0.41612 0.61278 0.0
C596 C 0.39591 0.41243 0.7004 0.0
H597 H 0.3645 0.44004 0.75059 0.0
C598 C 0.42042 0.40871 0.71915 0.0
C599 C 0.37536 0.42337 0.71214 0.0
C600 C 0.34826 0.42661 0.6937 0.0
C601 C 0.42509 0.41619 0.74908 0.0
C602 C 0.40479 0.42802 0.76037 0.0
C603 C 0.38013 0.43119 0.74184 0.0
C604 C 0.4086 0.43726 0.79132 0.0
C605 C 0.45161 0.41103 0.76848 0.0
C606 C 0.39277 0.4279 0.81324 0.0
C607 C 0.39528 0.43749 0.84178 0.0
C608 C 0.41361 0.45676 0.84899 0.0
C609 C 0.42965 0.46591 0.8271 0.0
C610 C 0.42707 0.45635 0.7985 0.0
H611 H 0.46233 0.39573 0.76021 0.0
H612 H 0.46336 0.4289 0.76692 0.0
H613 H 0.44995 0.40517 0.79319 0.0
H614 H 0.37837 0.4132 0.8082 0.0
H615 H 0.38282 0.4298 0.85822 0.0
H616 H 0.6046 0.60598 0.46746 0.0
H617 H 0.59183 0.5912 0.41686 0.0
H618 H 0.64472 0.64536 0.37786 0.0
H619 H 0.65722 0.66084 0.42829 0.0
H620 H 0.57067 0.62223 0.35826 0.0
H621 H 0.66477 0.57362 0.35521 0.0
H622 H 0.65565 0.58166 0.39074 0.0
H623 H 0.66649 0.60642 0.36367 0.0
C624 C 0.61334 0.61504 0.44812 0.0
C625 C 0.63197 0.63467 0.45209 0.0
C626 C 0.60611 0.60642 0.41922 0.0
C627 C 0.61749 0.61702 0.39371 0.0
C628 C 0.63598 0.63667 0.3974 0.0
H629 H 0.59978 0.56996 0.20759 0.0
H630 H 0.61237 0.59315 0.25257 0.0
C631 C 0.64316 0.64542 0.42629 0.0
C632 C 0.6098 0.60746 0.36328 0.0
H633 H 0.63188 0.57273 0.31192 0.0
C634 C 0.58406 0.61149 0.34803 0.0
C635 C 0.62737 0.59363 0.34992 0.0
C636 C 0.6551 0.58834 0.3657 0.0
C637 C 0.57534 0.60191 0.31982 0.0
C638 C 0.59266 0.58734 0.30691 0.0
C639 C 0.6186 0.58385 0.32183 0.0
C640 C 0.58397 0.5745 0.27882 0.0
C641 C 0.5477 0.60768 0.304 0.0
C642 C 0.56385 0.55629 0.27859 0.0
C643 C 0.55648 0.54318 0.25287 0.0
C644 C 0.56925 0.54776 0.22685 0.0
C645 C 0.58929 0.56619 0.22703 0.0
C646 C 0.59664 0.57934 0.25281 0.0
H647 H 0.53998 0.62533 0.31113 0.0
H648 H 0.54637 0.61027 0.2784 0.0
H649 H 0.535 0.59136 0.31064 0.0
H650 H 0.55413 0.55181 0.2986 0.0
H651 H 0.54081 0.52932 0.25345 0.0
H652 H 0.87511 0.08964 0.91006 0.0
H653 H 0.89025 0.07831 0.86377 0.0
H654 H 0.89651 0.15894 0.83035 0.0
H655 H 0.88219 0.17049 0.87724 0.0
H656 H 0.87028 0.09022 0.80104 0.0
H657 H 0.96951 0.13103 0.82902 0.0
H658 H 0.94748 0.12602 0.85698 0.0
H659 H 0.94286 0.15304 0.82708 0.0
C660 C 0.87987 0.105 0.89299 0.0
C661 C 0.87776 0.13099 0.8976 0.0
C662 C 0.88833 0.09848 0.86641 0.0
C663 C 0.89494 0.11776 0.84384 0.0
C664 C 0.89199 0.14374 0.84775 0.0
H665 H 0.96809 0.09601 0.68189 0.0
H666 H 0.94552 0.11582 0.71803 0.0
C667 C 0.88352 0.15031 0.87441 0.0
C668 C 0.90538 0.11037 0.81667 0.0
H669 H 0.96039 0.11188 0.783 0.0
C670 C 0.88992 0.09511 0.79696 0.0
C671 C 0.93099 0.11683 0.81131 0.0
C672 C 0.94882 0.13245 0.83229 0.0
C673 C 0.89952 0.08578 0.77238 0.0
C674 C 0.9254 0.09153 0.76766 0.0
C675 C 0.94056 0.10752 0.78667 0.0
C676 C 0.93774 0.07966 0.74463 0.0
C677 C 0.8819 0.06972 0.75175 0.0
C678 C 0.94095 0.05282 0.7477 0.0
C679 C 0.95379 0.0415 0.72719 0.0
C680 C 0.96383 0.05679 0.70319 0.0
C681 C 0.96037 0.0837 0.69995 0.0
C682 C 0.9476 0.09504 0.72063 0.0
H683 H 0.86099 0.07344 0.75239 0.0
H684 H 0.8854 0.07361 0.72739 0.0
H685 H 0.88593 0.04899 0.75993 0.0
H686 H 0.93392 0.0406 0.76635 0.0
H687 H 0.95588 0.02071 0.73016 0.0
H688 H 0.42889 0.35859 0.31537 0.0
H689 H 0.45043 0.3796 0.27325 0.0
H690 H 0.37896 0.41981 0.23226 0.0
H691 H 0.35738 0.3992 0.27443 0.0
H692 H 0.43478 0.378 0.20705 0.0
H693 H 0.43495 0.47743 0.23903 0.0
H694 H 0.43037 0.44928 0.26589 0.0
H695 H 0.40395 0.46142 0.23636 0.0
C696 C 0.41783 0.37212 0.29757 0.0
C697 C 0.39141 0.37726 0.29836 0.0
C698 C 0.43013 0.38398 0.27342 0.0
C699 C 0.41638 0.40146 0.24978 0.0
C700 C 0.39003 0.40662 0.25045 0.0
H701 H 0.45155 0.49508 0.08477 0.0
H702 H 0.43165 0.4733 0.12769 0.0
C703 C 0.37767 0.39465 0.27445 0.0
C704 C 0.42943 0.41401 0.22413 0.0
H705 H 0.44789 0.47261 0.1909 0.0
C706 C 0.43781 0.39866 0.20359 0.0
C707 C 0.43326 0.44098 0.2196 0.0
C708 C 0.42538 0.4583 0.24148 0.0
C709 C 0.44937 0.40964 0.17823 0.0
C710 C 0.45322 0.43663 0.17372 0.0
C711 C 0.44496 0.45194 0.19438 0.0
C712 C 0.46538 0.44944 0.14743 0.0
C713 C 0.45664 0.39235 0.15594 0.0
C714 C 0.49107 0.44347 0.14434 0.0
C715 C 0.50237 0.45572 0.11956 0.0
C716 C 0.48823 0.47426 0.09754 0.0
C717 C 0.46272 0.48051 0.10101 0.0
C718 C 0.4514 0.46822 0.12567 0.0
H719 H 0.44653 0.3735 0.1581 0.0
H720 H 0.45179 0.40166 0.13163 0.0
H721 H 0.47796 0.38859 0.16098 0.0
H722 H 0.50245 0.42945 0.16118 0.0
H723 H 0.52207 0.45051 0.11748 0.0
H724 H 0.17479 0.91488 0.8521 0.0
H725 H 0.15866 0.93134 0.79796 0.0
H726 H 0.08 0.91247 0.81215 0.0
H727 H 0.09592 0.89603 0.86624 0.0
H728 H 0.131 0.9076 0.7502 0.0
H729 H 0.0738 0.98841 0.77677 0.0
H730 H 0.09754 0.9703 0.80557 0.0
H731 H 0.06545 0.9575 0.79524 0.0
C732 C 0.15407 0.91407 0.84364 0.0
C733 C 0.13661 0.90433 0.86357 0.0
C734 C 0.14488 0.92356 0.81273 0.0
C735 C 0.11808 0.92356 0.80117 0.0
C736 C 0.10069 0.91326 0.82078 0.0
H737 H 0.04087 0.94355 0.61008 0.0
H738 H 0.0612 0.92647 0.6625 0.0
C739 C 0.10982 0.90386 0.85169 0.0
C740 C 0.10829 0.93432 0.76862 0.0
H741 H 0.06704 0.97975 0.72446 0.0
C742 C 0.1171 0.92344 0.74454 0.0
C743 C 0.09047 0.95525 0.76128 0.0
C744 C 0.08143 0.96874 0.78605 0.0
C745 C 0.10809 0.93257 0.71331 0.0
C746 C 0.08949 0.95283 0.70604 0.0
C747 C 0.08112 0.96405 0.7301 0.0
C748 C 0.07839 0.96276 0.67364 0.0
C749 C 0.11882 0.92074 0.68838 0.0
C750 C 0.08101 0.98889 0.66259 0.0
C751 C 0.06941 0.99869 0.63264 0.0
C752 C 0.05483 0.98255 0.61325 0.0
C753 C 0.05235 0.95635 0.62428 0.0
C754 C 0.06399 0.94656 0.65423 0.0
H755 H 0.13761 0.91053 0.69756 0.0
H756 H 0.1047 0.9065 0.67896 0.0
H757 H 0.12188 0.93566 0.66901 0.0
H758 H 0.09193 1.00175 0.67724 0.0
H759 H 0.07168 0.01895 0.62476 0.0
loop_
_geom_bond_atom_site_label_1
_geom_bond_atom_site_label_2
_geom_bond_distance
_geom_bond_site_symmetry_2
_ccdc_geom_bond_type
C0 C1 1.264 . S
C0 C5 1.479 . S
C0 C10 1.465 . S
C1 C0 1.264 . S
C1 C3 1.339 . S
C1 H28 0.931 . S
C2 C3 1.395 . S
C2 C4 1.320 . S
C3 C1 1.339 . S
C3 C2 1.395 . S
C3 H29 0.929 . S
C4 C2 1.320 . S
C4 C5 1.405 . S
C4 H30 0.930 . S
C5 C0 1.479 . S
C5 C4 1.405 . S
C5 H31 0.931 . S
U6 O7 2.454 . S
U6 O8 2.458 . S
U6 C9 2.984 . S
U6 C10 2.847 . S
U6 C23 2.882 1_554 S
U6 O24 2.441 . S
U6 O25 2.420 . S
U6 O26 2.455 1_554 S
U6 O27 2.449 1_554 S
O7 U6 2.454 . S
O7 C9 1.353 . S
O8 U6 2.458 . S
O8 C9 1.286 . S
C9 U6 2.984 . S
C9 O7 1.353 . S
C9 O8 1.286 . S
C9 C11 1.363 . S
C10 C0 1.465 . S
C10 U6 2.847 . S
C10 O24 1.249 . S
C10 O25 1.202 . S
C11 C9 1.363 . S
C11 C13 1.408 . S
C11 C16 1.342 . S
C12 C13 1.310 . S
C12 C15 1.461 . S
C12 H32 0.932 . S
C13 C11 1.408 . S
C13 C12 1.310 . S
C13 H33 0.930 . S
C14 C15 1.474 . S
C14 C16 1.285 . S
C14 H34 0.929 1_554 S
C15 C12 1.461 . S
C15 C14 1.474 . S
C16 C11 1.342 . S
C16 C14 1.285 . S
C16 H35 0.930 1_554 S
C17 C20 1.424 . S
C17 C22 1.245 . S
C17 C23 1.428 . S
C18 C21 1.260 . S
C18 C22 1.477 . S
C18 H36 0.932 . S
C19 C20 1.384 . S
C19 C21 1.479 . S
C19 H37 0.929 . S
C20 C17 1.424 . S
C20 C19 1.384 . S
C20 H38 0.928 . S
C21 C18 1.260 . S
C21 C19 1.479 . S
C22 C17 1.245 . S
C22 C18 1.477 . S
C22 H39 0.932 . S
C23 U6 2.882 1_556 S
C23 C17 1.428 . S
C23 O26 1.301 . S
C23 O27 1.282 . S
O24 U6 2.441 . S
O24 C10 1.249 . S
O25 U6 2.420 . S
O25 C10 1.202 . S
O26 U6 2.455 1_556 S
O26 C23 1.301 . S
O27 U6 2.449 1_556 S
O27 C23 1.282 . S
H28 C1 0.931 . S
H29 C3 0.929 . S
H30 C4 0.930 . S
H31 C5 0.931 . S
H32 C12 0.932 . S
H33 C13 0.930 . S
H34 C14 0.929 1_556 S
H35 C16 0.930 1_556 S
H36 C18 0.932 . S
H37 C19 0.929 . S
H38 C20 0.928 . S
H39 C22 0.932 . S
C40 C41 1.264 . S
C40 C45 1.479 . S
C40 C50 1.465 . S
C41 C40 1.264 . S
C41 C43 1.339 . S
C41 H68 0.931 . S
C42 C43 1.395 . S
C42 C44 1.320 . S
C43 C41 1.339 . S
C43 C42 1.395 . S
C43 H69 0.929 . S
C44 C42 1.320 . S
C44 C45 1.405 . S
C44 H70 0.930 . S
C45 C40 1.479 . S
C45 C44 1.405 . S
C45 H71 0.931 . S
U46 O47 2.454 . S
U46 O48 2.458 . S
U46 C49 2.984 . S
U46 C50 2.847 . S
U46 C63 2.882 . S
U46 O64 2.441 . S
U46 O65 2.420 . S
U46 O66 2.455 . S
U46 O67 2.449 . S
O47 U46 2.454 . S
O47 C49 1.353 . S
O48 U46 2.458 . S
O48 C49 1.286 . S
C49 U46 2.984 . S
C49 O47 1.353 . S
C49 O48 1.286 . S
C49 C51 1.363 . S
C50 C40 1.465 . S
C50 U46 2.847 . S
C50 O64 1.249 . S
C50 O65 1.202 . S
C51 C49 1.363 . S
C51 C53 1.408 . S
C51 C56 1.342 . S
C52 C53 1.310 . S
C52 C55 1.461 . S
C52 H72 0.932 . S
C53 C51 1.408 . S
C53 C52 1.310 . S
C53 H73 0.930 . S
C54 C55 1.474 . S
C54 C56 1.285 . S
C54 H74 0.929 . S
C55 C52 1.461 . S
C55 C54 1.474 . S
C56 C51 1.342 . S
C56 C54 1.285 . S
C56 H75 0.930 . S
C57 C60 1.424 . S
C57 C62 1.245 . S
C57 C63 1.428 . S
C58 C61 1.260 . S
C58 C62 1.477 . S
C58 H76 0.932 . S
C59 C60 1.384 . S
C59 C61 1.479 . S
C59 H77 0.929 . S
C60 C57 1.424 . S
C60 C59 1.384 . S
C60 H78 0.928 . S
C61 C58 1.260 . S
C61 C59 1.479 . S
C62 C57 1.245 . S
C62 C58 1.477 . S
C62 H79 0.932 . S
C63 U46 2.882 . S
C63 C57 1.428 . S
C63 O66 1.301 . S
C63 O67 1.282 . S
O64 U46 2.441 . S
O64 C50 1.249 . S
O65 U46 2.420 . S
O65 C50 1.202 . S
O66 U46 2.455 . S
O66 C63 1.301 . S
O67 U46 2.449 . S
O67 C63 1.282 . S
H68 C41 0.931 . S
H69 C43 0.929 . S
H70 C44 0.930 . S
H71 C45 0.931 . S
H72 C52 0.932 . S
H73 C53 0.930 . S
H74 C54 0.929 . S
H75 C56 0.930 . S
H76 C58 0.932 . S
H77 C59 0.929 . S
H78 C60 0.928 . S
H79 C62 0.932 . S
C80 C81 1.264 . S
C80 C85 1.479 . S
C80 C90 1.465 . S
C81 C80 1.264 . S
C81 C83 1.339 . S
C81 H108 0.931 . S
C82 C83 1.395 . S
C82 C84 1.320 . S
C83 C81 1.339 . S
C83 C82 1.395 . S
C83 H109 0.929 . S
C84 C82 1.320 . S
C84 C85 1.405 . S
C84 H110 0.930 . S
C85 C80 1.479 . S
C85 C84 1.405 . S
C85 H111 0.931 . S
U86 O87 2.454 . S
U86 O88 2.458 1_554 S
U86 C89 2.984 . S
U86 C90 2.847 . S
U86 C103 2.882 1_554 S
U86 O104 2.441 . S
U86 O105 2.420 . S
U86 O106 2.455 1_554 S
U86 O107 2.449 1_554 S
O87 U86 2.454 . S
O87 C89 1.353 . S
O88 U86 2.458 1_556 S
O88 C89 1.286 1_556 S
C89 U86 2.984 . S
C89 O87 1.353 . S
C89 O88 1.286 1_554 S
C89 C91 1.363 . S
C90 C80 1.465 . S
C90 U86 2.847 . S
C90 O104 1.249 . S
C90 O105 1.202 . S
C91 C89 1.363 . S
C91 C93 1.408 . S
C91 C96 1.342 1_554 S
C92 C93 1.310 . S
C92 C95 1.461 1_554 S
C92 H112 0.932 . S
C93 C91 1.408 . S
C93 C92 1.310 . S
C93 H113 0.930 . S
C94 C95 1.474 . S
C94 C96 1.285 . S
C94 H114 0.929 . S
C95 C92 1.461 1_556 S
C95 C94 1.474 . S
C96 C91 1.342 1_556 S
C96 C94 1.285 . S
C96 H115 0.930 . S
C97 C100 1.424 . S
C97 C102 1.245 . S
C97 C103 1.428 . S
C98 C101 1.260 . S
C98 C102 1.477 . S
C98 H116 0.932 . S
C99 C100 1.384 . S
C99 C101 1.479 . S
C99 H117 0.929 . S
C100 C97 1.424 . S
C100 C99 1.384 . S
C100 H118 0.928 . S
C101 C98 1.260 . S
C101 C99 1.479 . S
C102 C97 1.245 . S
C102 C98 1.477 . S
C102 H119 0.932 . S
C103 U86 2.882 1_556 S
C103 C97 1.428 . S
C103 O106 1.301 . S
C103 O107 1.282 . S
O104 U86 2.441 . S
O104 C90 1.249 . S
O105 U86 2.420 . S
O105 C90 1.202 . S
O106 U86 2.455 1_556 S
O106 C103 1.301 . S
O107 U86 2.449 1_556 S
O107 C103 1.282 . S
H108 C81 0.931 . S
H109 C83 0.929 . S
H110 C84 0.930 . S
H111 C85 0.931 . S
H112 C92 0.932 . S
H113 C93 0.930 . S
H114 C94 0.929 . S
H115 C96 0.930 . S
H116 C98 0.932 . S
H117 C99 0.929 . S
H118 C100 0.928 . S
H119 C102 0.932 . S
C120 C121 1.264 . S
C120 C125 1.479 . S
C120 C130 1.465 . S
C121 C120 1.264 . S
C121 C123 1.339 . S
C121 H148 0.931 . S
C122 C123 1.395 . S
C122 C124 1.320 . S
C123 C121 1.339 . S
C123 C122 1.395 . S
C123 H149 0.929 . S
C124 C122 1.320 . S
C124 C125 1.405 . S
C124 H150 0.930 . S
C125 C120 1.479 . S
C125 C124 1.405 . S
C125 H151 0.931 . S
U126 O127 2.454 . S
U126 O128 2.458 . S
U126 C129 2.984 . S
U126 C130 2.847 . S
U126 C143 2.882 . S
U126 O144 2.441 . S
U126 O145 2.420 . S
U126 O146 2.455 . S
U126 O147 2.449 . S
O127 U126 2.454 . S
O127 C129 1.353 . S
O128 U126 2.458 . S
O128 C129 1.286 . S
C129 U126 2.984 . S
C129 O127 1.353 . S
C129 O128 1.286 . S
C129 C131 1.363 . S
C130 C120 1.465 . S
C130 U126 2.847 . S
C130 O144 1.249 . S
C130 O145 1.202 . S
C131 C129 1.363 . S
C131 C133 1.408 . S
C131 C136 1.342 . S
C132 C133 1.310 . S
C132 C135 1.461 . S
C132 H152 0.932 . S
C133 C131 1.408 . S
C133 C132 1.310 . S
C133 H153 0.930 . S
C134 C135 1.474 . S
C134 C136 1.285 . S
C134 H154 0.929 . S
C135 C132 1.461 . S
C135 C134 1.474 . S
C136 C131 1.342 . S
C136 C134 1.285 . S
C136 H155 0.930 . S
C137 C140 1.424 . S
C137 C142 1.245 . S
C137 C143 1.428 . S
C138 C141 1.260 . S
C138 C142 1.477 . S
C138 H156 0.932 . S
C139 C140 1.384 . S
C139 C141 1.479 . S
C139 H157 0.929 . S
C140 C137 1.424 . S
C140 C139 1.384 . S
C140 H158 0.928 . S
C141 C138 1.260 . S
C141 C139 1.479 . S
C142 C137 1.245 . S
C142 C138 1.477 . S
C142 H159 0.932 . S
C143 U126 2.882 . S
C143 C137 1.428 . S
C143 O146 1.301 . S
C143 O147 1.282 . S
O144 U126 2.441 . S
O144 C130 1.249 . S
O145 U126 2.420 . S
O145 C130 1.202 . S
O146 U126 2.455 . S
O146 C143 1.301 . S
O147 U126 2.449 . S
O147 C143 1.282 . S
H148 C121 0.931 . S
H149 C123 0.929 . S
H150 C124 0.930 . S
H151 C125 0.931 . S
H152 C132 0.932 . S
H153 C133 0.930 . S
H154 C134 0.929 . S
H155 C136 0.930 . S
H156 C138 0.932 . S
H157 C139 0.929 . S
H158 C140 0.928 . S
H159 C142 0.932 . S
C160 C162 1.422 . S
C160 C164 1.415 . S
C160 N166 1.369 . S
C161 C162 1.421 . S
C161 C163 1.417 . S
C161 C173 1.422 . S
C162 C160 1.422 . S
C162 C161 1.421 . S
C162 N172 1.359 . S
C163 C161 1.417 . S
C163 C165 1.329 . S
C163 H182 0.930 . S
C164 C160 1.415 . S
C164 C165 1.437 . S
C164 C168 1.413 . S
C165 C163 1.329 . S
C165 C164 1.437 . S
C165 H187 0.929 . S
N166 C160 1.369 . S
N166 C167 1.338 1_655 S
N166 Gd171 2.622 . S
C167 N166 1.338 1_455 S
C167 C169 1.378 . S
C167 H179 0.929 . S
C168 C164 1.413 . S
C168 C169 1.348 1_655 S
C168 H184 0.931 . S
C169 C167 1.378 . S
C169 C168 1.348 1_455 S
C169 H185 0.930 . S
Gd170 N190 2.622 . S
Gd170 N197 2.570 . S
Gd170 O204 2.351 1_455 S
Gd170 O205 2.468 . S
Gd170 O206 2.427 . S
Gd170 O208 2.388 1_455 S
Gd170 O209 2.386 . S
Gd170 O213 2.307 1_565 S
Gd170 C223 2.805 . S
Gd171 N166 2.622 . S
Gd171 N172 2.570 . S
Gd171 O203 2.386 . S
Gd171 O207 2.307 1_545 S
Gd171 O210 2.353 1_655 S
Gd171 O211 2.468 . S
Gd171 O212 2.427 . S
Gd171 O214 2.388 1_655 S
Gd171 C235 2.805 . S
N172 C162 1.359 . S
N172 Gd171 2.570 . S
N172 C174 1.343 . S
C173 C161 1.422 . S
C173 C175 1.321 . S
C173 H181 0.931 . S
C174 N172 1.343 . S
C174 C175 1.390 . S
C174 H176 0.931 . S
C175 C173 1.321 . S
C175 C174 1.390 . S
C175 H177 0.930 . S
H176 C174 0.931 . S
H177 C175 0.930 . S
H178 C201 0.931 . S
H179 C167 0.929 . S
H180 C202 0.930 . S
H181 C173 0.931 . S
H182 C163 0.930 . S
H183 C192 0.929 1_655 S
H184 C168 0.931 . S
H185 C169 0.930 . S
H186 C224 0.930 . S
H187 C165 0.929 . S
H188 C193 0.931 . S
H189 C194 0.930 1_655 S
N190 Gd170 2.622 . S
N190 C191 1.369 . S
N190 C192 1.338 . S
C191 N190 1.369 . S
C191 C195 1.415 . S
C191 C198 1.422 . S
C192 H183 0.929 1_455 S
C192 N190 1.338 . S
C192 C194 1.378 . S
C193 H188 0.931 . S
C193 C194 1.348 . S
C193 C195 1.413 . S
C194 H189 0.930 1_455 S
C194 C192 1.378 . S
C194 C193 1.348 . S
C195 C191 1.415 . S
C195 C193 1.413 . S
C195 C225 1.437 . S
H196 C225 0.929 . S
N197 Gd170 2.570 . S
N197 C198 1.359 . S
N197 C201 1.343 . S
C198 C191 1.422 . S
C198 N197 1.359 . S
C198 C200 1.421 . S
C199 C200 1.422 . S
C199 C202 1.321 . S
C199 H226 0.931 . S
C200 C198 1.421 . S
C200 C199 1.422 . S
C200 C224 1.417 . S
C201 H178 0.931 . S
C201 N197 1.343 . S
C201 C202 1.390 . S
C202 H180 0.930 . S
C202 C199 1.321 . S
C202 C201 1.390 . S
O203 Gd171 2.386 . S
O203 C215 1.265 . S
O204 Gd170 2.351 1_655 S
O204 C215 1.245 1_565 S
O205 Gd170 2.468 . S
O205 C223 1.263 . S
O206 Gd170 2.427 . S
O206 C223 1.252 . S
O207 Gd171 2.307 1_565 S
O207 C216 1.261 . S
O208 Gd170 2.388 1_655 S
O208 C216 1.252 . S
O209 Gd170 2.386 . S
O209 C227 1.265 . S
O210 Gd171 2.353 1_455 S
O210 C227 1.242 1_545 S
O211 Gd171 2.468 . S
O211 C235 1.263 . S
O212 Gd171 2.427 . S
O212 C235 1.252 . S
O213 Gd170 2.307 1_545 S
O213 C228 1.261 . S
O214 Gd171 2.388 1_455 S
O214 C228 1.252 . S
C215 O203 1.265 . S
C215 O204 1.245 1_545 S
C216 O207 1.261 . S
C216 O208 1.252 . S
C217 C220 1.394 . S
C217 C222 1.370 . S
C217 C223 1.500 . S
C218 C221 1.383 . S
C218 C222 1.395 . S
C219 C220 1.396 . S
C219 C221 1.365 . S
C219 H236 0.929 . S
C220 C217 1.394 . S
C220 C219 1.396 . S
C220 H237 0.930 . S
C221 C218 1.383 . S
C221 C219 1.365 . S
C221 H238 0.931 . S
C222 C217 1.370 . S
C222 C218 1.395 . S
C222 H239 0.930 . S
C223 Gd170 2.805 . S
C223 O205 1.263 . S
C223 O206 1.252 . S
C223 C217 1.500 . S
C224 H186 0.930 . S
C224 C200 1.417 . S
C224 C225 1.329 . S
C225 C195 1.437 . S
C225 H196 0.929 . S
C225 C224 1.329 . S
H226 C199 0.931 . S
C227 O209 1.265 . S
C227 O210 1.242 1_565 S
C228 O213 1.261 . S
C228 O214 1.252 . S
C229 C232 1.394 . S
C229 C234 1.370 . S
C229 C235 1.500 . S
C230 C233 1.383 . S
C230 C234 1.395 . S
C231 C232 1.396 . S
C231 C233 1.365 . S
C231 H240 0.929 . S
C232 C229 1.394 . S
C232 C231 1.396 . S
C232 H241 0.930 . S
C233 C230 1.383 . S
C233 C231 1.365 . S
C233 H242 0.931 . S
C234 C229 1.370 . S
C234 C230 1.395 . S
C234 H243 0.930 . S
C235 Gd171 2.805 . S
C235 O211 1.263 . S
C235 O212 1.252 . S
C235 C229 1.500 . S
H236 C219 0.929 . S
H237 C220 0.930 . S
H238 C221 0.931 . S
H239 C222 0.930 . S
H240 C231 0.929 . S
H241 C232 0.930 . S
H242 C233 0.931 . S
H243 C234 0.930 . S
C244 C246 1.422 . S
C244 C248 1.415 . S
C244 N250 1.369 . S
C245 C246 1.421 . S
C245 C247 1.417 . S
C245 C257 1.422 . S
C246 C244 1.422 . S
C246 C245 1.421 . S
C246 N256 1.359 . S
C247 C245 1.417 . S
C247 C249 1.329 . S
C247 H266 0.936 . S
C248 C244 1.415 . S
C248 C249 1.437 . S
C248 C252 1.413 . S
C249 C247 1.329 . S
C249 C248 1.437 . S
C249 H271 0.929 . S
N250 C244 1.369 . S
N250 C251 1.338 . S
N250 Gd255 2.622 . S
C251 N250 1.338 . S
C251 C253 1.378 . S
C251 H263 0.929 . S
C252 C248 1.413 . S
C252 C253 1.348 . S
C252 H268 0.931 . S
C253 C251 1.378 . S
C253 C252 1.348 . S
C253 H269 0.930 . S
Gd254 N274 2.622 . S
Gd254 N281 2.570 . S
Gd254 O288 2.353 . S
Gd254 O289 2.468 . S
Gd254 O290 2.427 . S
Gd254 O292 2.388 . S
Gd254 O293 2.386 1_556 S
Gd254 O297 2.307 1_556 S
Gd254 C307 2.805 . S
Gd255 N250 2.622 . S
Gd255 N256 2.570 . S
Gd255 O287 2.386 1_554 S
Gd255 O291 2.307 . S
Gd255 O294 2.353 . S
Gd255 O295 2.468 . S
Gd255 O296 2.427 . S
Gd255 O298 2.388 . S
Gd255 C319 2.805 . S
N256 C246 1.359 . S
N256 Gd255 2.570 . S
N256 C258 1.343 . S
C257 C245 1.422 . S
C257 C259 1.321 . S
C257 H265 0.931 1_554 S
C258 N256 1.343 . S
C258 C259 1.390 . S
C258 H260 0.931 . S
C259 C257 1.321 . S
C259 C258 1.390 . S
C259 H261 0.930 . S
H260 C258 0.931 . S
H261 C259 0.930 . S
H262 C285 0.945 . S
H263 C251 0.929 . S
H264 C286 0.930 . S
H265 C257 0.931 1_556 S
H266 C247 0.936 . S
H267 C276 0.929 . S
H268 C252 0.931 . S
H269 C253 0.930 . S
H270 C308 0.930 . S
H271 C249 0.929 . S
H272 C277 0.931 . S
H273 C278 0.930 . S
N274 Gd254 2.622 . S
N274 C275 1.369 1_556 S
N274 C276 1.338 . S
C275 N274 1.369 1_554 S
C275 C279 1.415 . S
C275 C282 1.422 . S
C276 H267 0.929 . S
C276 N274 1.338 . S
C276 C278 1.378 . S
C277 H272 0.931 . S
C277 C278 1.348 1_554 S
C277 C279 1.413 . S
C278 H273 0.930 . S
C278 C276 1.378 . S
C278 C277 1.348 1_556 S
C279 C275 1.415 . S
C279 C277 1.413 . S
C279 C309 1.437 . S
H280 C309 0.929 . S
N281 Gd254 2.570 . S
N281 C282 1.358 1_556 S
N281 C285 1.343 1_556 S
C282 C275 1.422 . S
C282 N281 1.358 1_554 S
C282 C284 1.421 . S
C283 C284 1.422 . S
C283 C286 1.321 . S
C283 H310 0.931 . S
C284 C282 1.421 . S
C284 C283 1.422 . S
C284 C308 1.417 . S
C285 H262 0.945 . S
C285 N281 1.343 1_554 S
C285 C286 1.390 . S
C286 H264 0.930 . S
C286 C283 1.321 . S
C286 C285 1.390 . S
O287 Gd255 2.386 1_556 S
O287 C299 1.265 . S
O288 Gd254 2.353 . S
O288 C299 1.242 . S
O289 Gd254 2.468 . S
O289 C307 1.263 . S
O290 Gd254 2.427 . S
O290 C307 1.252 . S
O291 Gd255 2.307 . S
O291 C300 1.261 . S
O292 Gd254 2.388 . S
O292 C300 1.252 1_556 S
O293 Gd254 2.386 1_554 S
O293 C311 1.265 . S
O294 Gd255 2.353 . S
O294 C311 1.242 . S
O295 Gd255 2.468 . S
O295 C319 1.263 . S
O296 Gd255 2.427 . S
O296 C319 1.252 . S
O297 Gd254 2.307 1_554 S
O297 C312 1.261 . S
O298 Gd255 2.388 . S
O298 C312 1.252 . S
C299 O287 1.265 . S
C299 O288 1.242 . S
C300 O291 1.261 . S
C300 O292 1.252 1_554 S
C301 C304 1.394 . S
C301 C306 1.370 . S
C301 C307 1.500 . S
C302 C305 1.383 . S
C302 C306 1.395 . S
C303 C304 1.396 . S
C303 C305 1.365 . S
C303 H320 0.929 . S
C304 C301 1.394 . S
C304 C303 1.396 . S
C304 H321 0.930 . S
C305 C302 1.383 . S
C305 C303 1.365 . S
C305 H322 0.931 . S
C306 C301 1.370 . S
C306 C302 1.395 . S
C306 H323 0.930 . S
C307 Gd254 2.805 . S
C307 O289 1.263 . S
C307 O290 1.252 . S
C307 C301 1.500 . S
C308 H270 0.930 . S
C308 C284 1.417 . S
C308 C309 1.329 . S
C309 C279 1.437 . S
C309 H280 0.929 . S
C309 C308 1.329 . S
H310 C283 0.931 . S
C311 O293 1.265 . S
C311 O294 1.242 . S
C312 O297 1.261 . S
C312 O298 1.252 . S
C313 C316 1.394 . S
C313 C318 1.370 . S
C313 C319 1.500 . S
C314 C317 1.383 . S
C314 C318 1.395 . S
C315 C316 1.396 . S
C315 C317 1.365 . S
C315 H324 0.929 . S
C316 C313 1.394 . S
C316 C315 1.396 . S
C316 H325 0.930 . S
C317 C314 1.383 . S
C317 C315 1.365 . S
C317 H326 0.931 . S
C318 C313 1.370 . S
C318 C314 1.395 . S
C318 H327 0.930 . S
C319 Gd255 2.805 . S
C319 O295 1.263 . S
C319 O296 1.252 . S
C319 C313 1.500 . S
H320 C303 0.929 . S
H321 C304 0.930 . S
H322 C305 0.931 . S
H323 C306 0.930 . S
H324 C315 0.929 . S
H325 C316 0.930 . S
H326 C317 0.931 . S
H327 C318 0.930 . S
H328 C336 0.929 . S
H329 C338 0.930 . S
H330 C340 0.930 . S
H331 C343 0.929 . S
H332 C346 0.930 . S
H333 C348 0.960 . S
H334 C348 0.960 . S
H335 C348 0.960 . S
C336 H328 0.929 . S
C336 C337 1.377 . S
C336 C338 1.384 . S
C337 C336 1.377 . S
C337 C343 1.390 . S
C338 H329 0.930 . S
C338 C336 1.384 . S
C338 C339 1.372 . S
C339 C338 1.372 . S
C339 C340 1.400 . S
C339 C344 1.490 . S
C340 H330 0.930 . S
C340 C339 1.400 . S
C340 C343 1.386 . S
H341 C357 0.930 . S
H342 C358 0.931 . S
C343 H331 0.929 . S
C343 C337 1.390 . S
C343 C340 1.386 . S
C344 C339 1.490 . S
C344 C346 1.395 . S
C344 C347 1.403 . S
H345 C351 0.930 . S
C346 H332 0.930 . S
C346 C344 1.395 . S
C346 C349 1.403 . S
C347 C344 1.403 . S
C347 C348 1.524 . S
C347 C351 1.400 . S
C348 H333 0.960 . S
C348 H334 0.960 . S
C348 H335 0.960 . S
C348 C347 1.524 . S
C349 C346 1.403 . S
C349 C350 1.392 . S
C349 C353 1.495 . S
C350 C349 1.392 . S
C350 C351 1.385 . S
C350 C352 1.478 . S
C351 H345 0.930 . S
C351 C347 1.400 . S
C351 C350 1.385 . S
C352 C350 1.478 . S
C352 C354 1.381 . S
C352 C358 1.383 . S
C353 C349 1.495 . S
C353 H359 0.959 . S
C353 H360 0.961 . S
C353 H361 0.960 . S
C354 C352 1.381 . S
C354 C355 1.394 . S
C354 H362 0.930 . S
C355 C354 1.394 . S
C355 C356 1.383 . S
C355 H363 0.929 . S
C356 C355 1.383 . S
C356 C357 1.377 . S
C357 H341 0.930 . S
C357 C356 1.377 . S
C357 C358 1.379 . S
C358 H342 0.931 . S
C358 C352 1.383 . S
C358 C357 1.379 . S
H359 C353 0.959 . S
H360 C353 0.961 . S
H361 C353 0.960 . S
H362 C354 0.930 . S
H363 C355 0.929 . S
H364 C372 0.929 . S
H365 C374 0.930 . S
H366 C376 0.930 . S
H367 C379 0.929 . S
H368 C382 0.930 . S
H369 C384 0.960 . S
H370 C384 0.960 . S
H371 C384 0.960 . S
C372 H364 0.929 . S
C372 C373 1.377 . S
C372 C374 1.384 . S
C373 C372 1.377 . S
C373 C379 1.390 . S
C374 H365 0.930 . S
C374 C372 1.384 . S
C374 C375 1.372 . S
C375 C374 1.372 . S
C375 C376 1.400 . S
C375 C380 1.490 . S
C376 H366 0.930 . S
C376 C375 1.400 . S
C376 C379 1.386 . S
H377 C393 0.930 . S
H378 C394 0.931 . S
C379 H367 0.929 . S
C379 C373 1.390 . S
C379 C376 1.386 . S
C380 C375 1.490 . S
C380 C382 1.395 . S
C380 C383 1.403 . S
H381 C387 0.930 1_556 S
C382 H368 0.930 . S
C382 C380 1.395 . S
C382 C385 1.403 . S
C383 C380 1.403 . S
C383 C384 1.524 1_554 S
C383 C387 1.400 . S
C384 H369 0.960 . S
C384 H370 0.960 . S
C384 H371 0.960 . S
C384 C383 1.524 1_556 S
C385 C382 1.403 . S
C385 C386 1.392 . S
C385 C389 1.495 . S
C386 C385 1.392 . S
C386 C387 1.385 . S
C386 C388 1.478 . S
C387 H381 0.930 1_554 S
C387 C383 1.400 . S
C387 C386 1.385 . S
C388 C386 1.478 . S
C388 C390 1.381 . S
C388 C394 1.383 . S
C389 C385 1.495 . S
C389 H395 0.959 . S
C389 H396 0.961 . S
C389 H397 0.960 . S
C390 C388 1.381 . S
C390 C391 1.394 . S
C390 H398 0.930 . S
C391 C390 1.394 . S
C391 C392 1.383 . S
C391 H399 0.929 . S
C392 C391 1.383 . S
C392 C393 1.377 . S
C393 H377 0.930 . S
C393 C392 1.377 . S
C393 C394 1.379 . S
C394 H378 0.931 . S
C394 C388 1.383 . S
C394 C393 1.379 . S
H395 C389 0.959 . S
H396 C389 0.961 . S
H397 C389 0.960 . S
H398 C390 0.930 . S
H399 C391 0.929 . S
H400 C408 0.929 . S
H401 C410 0.930 . S
H402 C412 0.930 . S
H403 C415 0.929 . S
H404 C418 0.930 . S
H405 C420 0.960 . S
H406 C420 0.960 . S
H407 C420 0.960 . S
C408 H400 0.929 . S
C408 C409 1.377 . S
C408 C410 1.384 . S
C409 C408 1.377 . S
C409 C415 1.390 . S
C410 H401 0.930 . S
C410 C408 1.384 . S
C410 C411 1.372 . S
C411 C410 1.372 . S
C411 C412 1.400 . S
C411 C416 1.490 . S
C412 H402 0.930 . S
C412 C411 1.400 . S
C412 C415 1.386 . S
H413 C429 0.930 . S
H414 C430 0.931 . S
C415 H403 0.929 . S
C415 C409 1.390 . S
C415 C412 1.386 . S
C416 C411 1.490 . S
C416 C418 1.395 . S
C416 C419 1.403 . S
H417 C423 0.930 . S
C418 H404 0.930 . S
C418 C416 1.395 . S
C418 C421 1.403 . S
C419 C416 1.403 . S
C419 C420 1.524 . S
C419 C423 1.400 . S
C420 H405 0.960 . S
C420 H406 0.960 . S
C420 H407 0.960 . S
C420 C419 1.524 . S
C421 C418 1.403 . S
C421 C422 1.392 . S
C421 C425 1.495 . S
C422 C421 1.392 . S
C422 C423 1.385 . S
C422 C424 1.478 . S
C423 H417 0.930 . S
C423 C419 1.400 . S
C423 C422 1.385 . S
C424 C422 1.478 . S
C424 C426 1.381 . S
C424 C430 1.383 . S
C425 C421 1.495 . S
C425 H431 0.959 . S
C425 H432 0.961 . S
C425 H433 0.960 . S
C426 C424 1.381 . S
C426 C427 1.394 . S
C426 H434 0.930 . S
C427 C426 1.394 . S
C427 C428 1.383 . S
C427 H435 0.929 . S
C428 C427 1.383 . S
C428 C429 1.377 . S
C429 H413 0.930 . S
C429 C428 1.377 . S
C429 C430 1.379 . S
C430 H414 0.931 . S
C430 C424 1.383 . S
C430 C429 1.379 . S
H431 C425 0.959 . S
H432 C425 0.961 . S
H433 C425 0.960 . S
H434 C426 0.930 . S
H435 C427 0.929 . S
H436 C444 0.929 . S
H437 C446 0.930 . S
H438 C448 0.930 . S
H439 C451 0.929 . S
H440 C454 0.930 . S
H441 C456 0.960 . S
H442 C456 0.960 . S
H443 C456 0.960 . S
C444 H436 0.929 . S
C444 C445 1.377 1_554 S
C444 C446 1.384 . S
C445 C444 1.377 1_556 S
C445 C451 1.390 . S
C446 H437 0.930 . S
C446 C444 1.384 . S
C446 C447 1.372 . S
C447 C446 1.372 . S
C447 C448 1.400 1_554 S
C447 C452 1.490 . S
C448 H438 0.930 . S
C448 C447 1.400 1_556 S
C448 C451 1.386 . S
H449 C465 0.930 . S
H450 C466 0.931 . S
C451 H439 0.929 . S
C451 C445 1.390 . S
C451 C448 1.386 . S
C452 C447 1.490 . S
C452 C454 1.395 1_554 S
C452 C455 1.403 . S
H453 C459 0.930 . S
C454 H440 0.930 . S
C454 C452 1.395 1_556 S
C454 C457 1.403 . S
C455 C452 1.403 . S
C455 C456 1.524 . S
C455 C459 1.400 . S
C456 H441 0.960 . S
C456 H442 0.960 . S
C456 H443 0.960 . S
C456 C455 1.524 . S
C457 C454 1.403 . S
C457 C458 1.392 1_556 S
C457 C461 1.495 . S
C458 C457 1.392 1_554 S
C458 C459 1.385 . S
C458 C460 1.478 . S
C459 H453 0.930 . S
C459 C455 1.400 . S
C459 C458 1.385 . S
C460 C458 1.478 . S
C460 C462 1.381 . S
C460 C466 1.383 1_554 S
C461 C457 1.495 . S
C461 H467 0.959 . S
C461 H468 0.961 . S
C461 H469 0.960 . S
C462 C460 1.381 . S
C462 C463 1.394 . S
C462 H470 0.930 . S
C463 C462 1.394 . S
C463 C464 1.383 . S
C463 H471 0.929 . S
C464 C463 1.383 . S
C464 C465 1.377 1_554 S
C465 H449 0.930 . S
C465 C464 1.377 1_556 S
C465 C466 1.379 . S
C466 H450 0.931 . S
C466 C460 1.383 1_556 S
C466 C465 1.379 . S
H467 C461 0.959 . S
H468 C461 0.961 . S
H469 C461 0.960 . S
H470 C462 0.930 . S
H471 C463 0.929 . S
H472 C480 0.929 . S
H473 C482 0.930 . S
H474 C484 0.930 . S
H475 C487 0.929 . S
H476 C490 0.930 . S
H477 C492 0.960 . S
H478 C492 0.960 . S
H479 C492 0.960 . S
C480 H472 0.929 . S
C480 C481 1.377 . S
C480 C482 1.384 . S
C481 C480 1.377 . S
C481 C487 1.390 . S
C482 H473 0.930 . S
C482 C480 1.384 . S
C482 C483 1.372 . S
C483 C482 1.372 . S
C483 C484 1.400 . S
C483 C488 1.490 . S
C484 H474 0.930 . S
C484 C483 1.400 . S
C484 C487 1.386 . S
H485 C501 0.930 . S
H486 C502 0.931 . S
C487 H475 0.929 . S
C487 C481 1.390 . S
C487 C484 1.386 . S
C488 C483 1.490 . S
C488 C490 1.395 . S
C488 C491 1.403 . S
H489 C495 0.930 . S
C490 H476 0.930 . S
C490 C488 1.395 . S
C490 C493 1.403 . S
C491 C488 1.403 . S
C491 C492 1.524 . S
C491 C495 1.400 . S
C492 H477 0.960 . S
C492 H478 0.960 . S
C492 H479 0.960 . S
C492 C491 1.524 . S
C493 C490 1.403 . S
C493 C494 1.392 . S
C493 C497 1.495 . S
C494 C493 1.392 . S
C494 C495 1.385 . S
C494 C496 1.478 . S
C495 H489 0.930 . S
C495 C491 1.400 . S
C495 C494 1.385 . S
C496 C494 1.478 . S
C496 C498 1.381 . S
C496 C502 1.383 . S
C497 C493 1.495 . S
C497 H503 0.959 . S
C497 H504 0.961 . S
C497 H505 0.960 1_565 S
C498 C496 1.381 . S
C498 C499 1.394 . S
C498 H506 0.930 . S
C499 C498 1.394 . S
C499 C500 1.383 . S
C499 H507 0.929 . S
C500 C499 1.383 . S
C500 C501 1.377 . S
C501 H485 0.930 . S
C501 C500 1.377 . S
C501 C502 1.379 . S
C502 H486 0.931 . S
C502 C496 1.383 . S
C502 C501 1.379 . S
H503 C497 0.959 . S
H504 C497 0.961 . S
H505 C497 0.960 1_545 S
H506 C498 0.930 . S
H507 C499 0.929 . S
H508 C516 0.929 . S
H509 C518 0.930 . S
H510 C520 0.930 . S
H511 C523 0.929 . S
H512 C526 0.930 . S
H513 C528 0.960 . S
H514 C528 0.960 . S
H515 C528 0.960 . S
C516 H508 0.929 . S
C516 C517 1.377 . S
C516 C518 1.384 . S
C517 C516 1.377 . S
C517 C523 1.390 . S
C518 H509 0.930 . S
C518 C516 1.384 . S
C518 C519 1.372 . S
C519 C518 1.372 . S
C519 C520 1.400 . S
C519 C524 1.490 . S
C520 H510 0.930 . S
C520 C519 1.400 . S
C520 C523 1.386 . S
H521 C537 0.930 . S
H522 C538 0.931 . S
C523 H511 0.929 . S
C523 C517 1.390 . S
C523 C520 1.386 . S
C524 C519 1.490 . S
C524 C526 1.395 . S
C524 C527 1.403 . S
H525 C531 0.930 . S
C526 H512 0.930 . S
C526 C524 1.395 . S
C526 C529 1.403 . S
C527 C524 1.403 . S
C527 C528 1.524 . S
C527 C531 1.400 . S
C528 H513 0.960 . S
C528 H514 0.960 . S
C528 H515 0.960 . S
C528 C527 1.524 . S
C529 C526 1.403 . S
C529 C530 1.392 . S
C529 C533 1.495 . S
C530 C529 1.392 . S
C530 C531 1.385 . S
C530 C532 1.478 . S
C531 H525 0.930 . S
C531 C527 1.400 . S
C531 C530 1.385 . S
C532 C530 1.478 . S
C532 C534 1.381 . S
C532 C538 1.383 . S
C533 C529 1.495 . S
C533 H539 0.959 . S
C533 H540 0.961 . S
C533 H541 0.960 . S
C534 C532 1.381 . S
C534 C535 1.394 . S
C534 H542 0.930 . S
C535 C534 1.394 . S
C535 C536 1.383 . S
C535 H543 0.929 . S
C536 C535 1.383 . S
C536 C537 1.377 . S
C537 H521 0.930 . S
C537 C536 1.377 . S
C537 C538 1.379 . S
C538 H522 0.931 . S
C538 C532 1.383 . S
C538 C537 1.379 . S
H539 C533 0.959 . S
H540 C533 0.961 . S
H541 C533 0.960 . S
H542 C534 0.930 . S
H543 C535 0.929 . S
H544 C552 0.929 . S
H545 C554 0.930 . S
H546 C556 0.930 . S
H547 C559 0.929 . S
H548 C562 0.930 . S
H549 C564 0.960 . S
H550 C564 0.960 . S
H551 C564 0.960 . S
C552 H544 0.929 . S
C552 C553 1.377 . S
C552 C554 1.384 . S
C553 C552 1.377 . S
C553 C559 1.390 . S
C554 H545 0.930 . S
C554 C552 1.384 . S
C554 C555 1.372 . S
C555 C554 1.372 . S
C555 C556 1.400 . S
C555 C560 1.490 . S
C556 H546 0.930 . S
C556 C555 1.400 . S
C556 C559 1.386 . S
H557 C573 0.930 . S
H558 C574 0.931 . S
C559 H547 0.929 . S
C559 C553 1.390 . S
C559 C556 1.386 . S
C560 C555 1.490 . S
C560 C562 1.395 . S
C560 C563 1.403 . S
H561 C567 0.930 . S
C562 H548 0.930 . S
C562 C560 1.395 . S
C562 C565 1.403 . S
C563 C560 1.403 . S
C563 C564 1.524 . S
C563 C567 1.400 . S
C564 H549 0.960 . S
C564 H550 0.960 . S
C564 H551 0.960 . S
C564 C563 1.524 . S
C565 C562 1.403 . S
C565 C566 1.392 . S
C565 C569 1.495 1_545 S
C566 C565 1.392 . S
C566 C567 1.385 . S
C566 C568 1.478 . S
C567 H561 0.930 . S
C567 C563 1.400 . S
C567 C566 1.385 . S
C568 C566 1.478 . S
C568 C570 1.381 . S
C568 C574 1.383 . S
C569 C565 1.495 1_565 S
C569 H575 0.959 . S
C569 H576 0.961 . S
C569 H577 0.960 . S
C570 C568 1.381 . S
C570 C571 1.394 . S
C570 H578 0.930 . S
C571 C570 1.394 . S
C571 C572 1.383 . S
C571 H579 0.929 . S
C572 C571 1.383 . S
C572 C573 1.377 . S
C573 H557 0.930 . S
C573 C572 1.377 . S
C573 C574 1.379 . S
C574 H558 0.931 . S
C574 C568 1.383 . S
C574 C573 1.379 . S
H575 C569 0.959 . S
H576 C569 0.961 . S
H577 C569 0.960 . S
H578 C570 0.930 . S
H579 C571 0.929 . S
H580 C588 0.929 . S
H581 C590 0.930 . S
H582 C592 0.930 . S
H583 C595 0.929 . S
H584 C598 0.930 . S
H585 C600 0.960 . S
H586 C600 0.960 . S
H587 C600 0.960 . S
C588 H580 0.929 . S
C588 C589 1.377 . S
C588 C590 1.384 . S
C589 C588 1.377 . S
C589 C595 1.390 . S
C590 H581 0.930 . S
C590 C588 1.384 . S
C590 C591 1.372 . S
C591 C590 1.372 . S
C591 C592 1.400 . S
C591 C596 1.490 . S
C592 H582 0.930 . S
C592 C591 1.400 . S
C592 C595 1.386 . S
H593 C609 0.930 . S
H594 C610 0.931 . S
C595 H583 0.929 . S
C595 C589 1.390 . S
C595 C592 1.386 . S
C596 C591 1.490 . S
C596 C598 1.395 . S
C596 C599 1.403 . S
H597 C603 0.930 . S
C598 H584 0.930 . S
C598 C596 1.395 . S
C598 C601 1.403 . S
C599 C596 1.403 . S
C599 C600 1.524 . S
C599 C603 1.400 . S
C600 H585 0.960 . S
C600 H586 0.960 . S
C600 H587 0.960 . S
C600 C599 1.524 . S
C601 C598 1.403 . S
C601 C602 1.392 . S
C601 C605 1.495 . S
C602 C601 1.392 . S
C602 C603 1.385 . S
C602 C604 1.478 . S
C603 H597 0.930 . S
C603 C599 1.400 . S
C603 C602 1.385 . S
C604 C602 1.478 . S
C604 C606 1.381 . S
C604 C610 1.383 . S
C605 C601 1.495 . S
C605 H611 0.959 . S
C605 H612 0.961 . S
C605 H613 0.960 . S
C606 C604 1.381 . S
C606 C607 1.394 . S
C606 H614 0.930 . S
C607 C606 1.394 . S
C607 C608 1.383 . S
C607 H615 0.929 . S
C608 C607 1.383 . S
C608 C609 1.377 . S
C609 H593 0.930 . S
C609 C608 1.377 . S
C609 C610 1.379 . S
C610 H594 0.931 . S
C610 C604 1.383 . S
C610 C609 1.379 . S
H611 C605 0.959 . S
H612 C605 0.961 . S
H613 C605 0.960 . S
H614 C606 0.930 . S
H615 C607 0.929 . S
H616 C624 0.929 . S
H617 C626 0.930 . S
H618 C628 0.930 . S
H619 C631 0.929 . S
H620 C634 0.930 . S
H621 C636 0.960 . S
H622 C636 0.960 . S
H623 C636 0.960 . S
C624 H616 0.929 . S
C624 C625 1.377 . S
C624 C626 1.384 . S
C625 C624 1.377 . S
C625 C631 1.390 . S
C626 H617 0.930 . S
C626 C624 1.384 . S
C626 C627 1.372 . S
C627 C626 1.372 . S
C627 C628 1.400 . S
C627 C632 1.490 . S
C628 H618 0.930 . S
C628 C627 1.400 . S
C628 C631 1.386 . S
H629 C645 0.930 . S
H630 C646 0.931 . S
C631 H619 0.929 . S
C631 C625 1.390 . S
C631 C628 1.386 . S
C632 C627 1.490 . S
C632 C634 1.395 . S
C632 C635 1.403 . S
H633 C639 0.930 . S
C634 H620 0.930 . S
C634 C632 1.395 . S
C634 C637 1.403 . S
C635 C632 1.403 . S
C635 C636 1.524 . S
C635 C639 1.400 . S
C636 H621 0.960 . S
C636 H622 0.960 . S
C636 H623 0.960 . S
C636 C635 1.524 . S
C637 C634 1.403 . S
C637 C638 1.392 . S
C637 C641 1.495 . S
C638 C637 1.392 . S
C638 C639 1.385 . S
C638 C640 1.478 . S
C639 H633 0.930 . S
C639 C635 1.400 . S
C639 C638 1.385 . S
C640 C638 1.478 . S
C640 C642 1.381 . S
C640 C646 1.383 . S
C641 C637 1.495 . S
C641 H647 0.959 . S
C641 H648 0.961 . S
C641 H649 0.960 . S
C642 C640 1.381 . S
C642 C643 1.394 . S
C642 H650 0.930 . S
C643 C642 1.394 . S
C643 C644 1.383 . S
C643 H651 0.929 . S
C644 C643 1.383 . S
C644 C645 1.377 . S
C645 H629 0.930 . S
C645 C644 1.377 . S
C645 C646 1.379 . S
C646 H630 0.931 . S
C646 C640 1.383 . S
C646 C645 1.379 . S
H647 C641 0.959 . S
H648 C641 0.961 . S
H649 C641 0.960 . S
H650 C642 0.930 . S
H651 C643 0.929 . S
H652 C660 0.929 . S
H653 C662 0.930 . S
H654 C664 0.930 . S
H655 C667 0.929 . S
H656 C670 0.930 . S
H657 C672 0.960 . S
H658 C672 0.960 . S
H659 C672 0.960 . S
C660 H652 0.929 . S
C660 C661 1.377 . S
C660 C662 1.384 . S
C661 C660 1.377 . S
C661 C667 1.390 . S
C662 H653 0.930 . S
C662 C660 1.384 . S
C662 C663 1.372 . S
C663 C662 1.372 . S
C663 C664 1.400 . S
C663 C668 1.490 . S
C664 H654 0.930 . S
C664 C663 1.400 . S
C664 C667 1.386 . S
H665 C681 0.930 . S
H666 C682 0.931 . S
C667 H655 0.929 . S
C667 C661 1.390 . S
C667 C664 1.386 . S
C668 C663 1.490 . S
C668 C670 1.395 . S
C668 C671 1.403 . S
H669 C675 0.930 . S
C670 H656 0.930 . S
C670 C668 1.395 . S
C670 C673 1.403 . S
C671 C668 1.403 . S
C671 C672 1.524 . S
C671 C675 1.400 . S
C672 H657 0.960 . S
C672 H658 0.960 . S
C672 H659 0.960 . S
C672 C671 1.524 . S
C673 C670 1.403 . S
C673 C674 1.392 . S
C673 C677 1.495 . S
C674 C673 1.392 . S
C674 C675 1.385 . S
C674 C676 1.478 . S
C675 H669 0.930 . S
C675 C671 1.400 . S
C675 C674 1.385 . S
C676 C674 1.478 . S
C676 C678 1.381 . S
C676 C682 1.383 . S
C677 C673 1.495 . S
C677 H683 0.959 . S
C677 H684 0.961 . S
C677 H685 0.960 . S
C678 C676 1.381 . S
C678 C679 1.394 . S
C678 H686 0.930 . S
C679 C678 1.394 . S
C679 C680 1.383 . S
C679 H687 0.929 . S
C680 C679 1.383 . S
C680 C681 1.377 . S
C681 H665 0.930 . S
C681 C680 1.377 . S
C681 C682 1.379 . S
C682 H666 0.931 . S
C682 C676 1.383 . S
C682 C681 1.379 . S
H683 C677 0.959 . S
H684 C677 0.961 . S
H685 C677 0.960 . S
H686 C678 0.930 . S
H687 C679 0.929 . S
H688 C696 0.929 . S
H689 C698 0.930 . S
H690 C700 0.930 . S
H691 C703 0.929 . S
H692 C706 0.930 . S
H693 C708 0.960 . S
H694 C708 0.960 . S
H695 C708 0.960 . S
C696 H688 0.929 . S
C696 C697 1.377 . S
C696 C698 1.384 . S
C697 C696 1.377 . S
C697 C703 1.390 . S
C698 H689 0.930 . S
C698 C696 1.384 . S
C698 C699 1.372 . S
C699 C698 1.372 . S
C699 C700 1.400 . S
C699 C704 1.490 . S
C700 H690 0.930 . S
C700 C699 1.400 . S
C700 C703 1.386 . S
H701 C717 0.930 . S
H702 C718 0.931 . S
C703 H691 0.929 . S
C703 C697 1.390 . S
C703 C700 1.386 . S
C704 C699 1.490 . S
C704 C706 1.395 . S
C704 C707 1.403 . S
H705 C711 0.930 . S
C706 H692 0.930 . S
C706 C704 1.395 . S
C706 C709 1.403 . S
C707 C704 1.403 . S
C707 C708 1.524 . S
C707 C711 1.400 . S
C708 H693 0.960 . S
C708 H694 0.960 . S
C708 H695 0.960 . S
C708 C707 1.524 . S
C709 C706 1.403 . S
C709 C710 1.392 . S
C709 C713 1.495 . S
C710 C709 1.392 . S
C710 C711 1.385 . S
C710 C712 1.478 . S
C711 H705 0.930 . S
C711 C707 1.400 . S
C711 C710 1.385 . S
C712 C710 1.478 . S
C712 C714 1.381 . S
C712 C718 1.383 . S
C713 C709 1.495 . S
C713 H719 0.959 . S
C713 H720 0.961 . S
C713 H721 0.960 . S
C714 C712 1.381 . S
C714 C715 1.394 . S
C714 H722 0.930 . S
C715 C714 1.394 . S
C715 C716 1.383 . S
C715 H723 0.929 . S
C716 C715 1.383 . S
C716 C717 1.377 . S
C717 H701 0.930 . S
C717 C716 1.377 . S
C717 C718 1.379 . S
C718 H702 0.931 . S
C718 C712 1.383 . S
C718 C717 1.379 . S
H719 C713 0.959 . S
H720 C713 0.961 . S
H721 C713 0.960 . S
H722 C714 0.930 . S
H723 C715 0.929 . S
H724 C732 0.929 . S
H725 C734 0.930 . S
H726 C736 0.930 . S
H727 C739 0.929 . S
H728 C742 0.930 . S
H729 C744 0.960 . S
H730 C744 0.960 . S
H731 C744 0.960 . S
C732 H724 0.929 . S
C732 C733 1.377 . S
C732 C734 1.384 . S
C733 C732 1.377 . S
C733 C739 1.390 . S
C734 H725 0.930 . S
C734 C732 1.384 . S
C734 C735 1.372 . S
C735 C734 1.372 . S
C735 C736 1.400 . S
C735 C740 1.490 . S
C736 H726 0.930 . S
C736 C735 1.400 . S
C736 C739 1.386 . S
H737 C753 0.930 . S
H738 C754 0.931 . S
C739 H727 0.929 . S
C739 C733 1.390 . S
C739 C736 1.386 . S
C740 C735 1.490 . S
C740 C742 1.395 . S
C740 C743 1.403 . S
H741 C747 0.930 . S
C742 H728 0.930 . S
C742 C740 1.395 . S
C742 C745 1.403 . S
C743 C740 1.403 . S
C743 C744 1.524 . S
C743 C747 1.400 . S
C744 H729 0.960 . S
C744 H730 0.960 . S
C744 H731 0.960 . S
C744 C743 1.524 . S
C745 C742 1.403 . S
C745 C746 1.392 . S
C745 C749 1.495 . S
C746 C745 1.392 . S
C746 C747 1.385 . S
C746 C748 1.478 . S
C747 H741 0.930 . S
C747 C743 1.400 . S
C747 C746 1.385 . S
C748 C746 1.478 . S
C748 C750 1.381 . S
C748 C754 1.383 . S
C749 C745 1.495 . S
C749 H755 0.959 . S
C749 H756 0.961 . S
C749 H757 0.960 . S
C750 C748 1.381 . S
C750 C751 1.394 . S
C750 H758 0.930 . S
C751 C750 1.394 . S
C751 C752 1.383 . S
C751 H759 0.929 1_565 S
C752 C751 1.383 . S
C752 C753 1.377 . S
C753 H737 0.930 . S
C753 C752 1.377 . S
C753 C754 1.379 . S
C754 H738 0.931 . S
C754 C748 1.383 . S
C754 C753 1.379 . S
H755 C749 0.959 . S
H756 C749 0.961 . S
H757 C749 0.960 . S
H758 C750 0.930 . S
H759 C751 0.929 1_545 S
C356 C228 1.645 . S
C337 C135 1.647 . S
C373 C15 1.636 . S
C392 C300 1.638 . S
C409 C55 1.644 . S
C428 C216 1.621 . S
C445 C95 1.644 . S
C464 C312 1.652 . S
C500 C218 1.425 . S
C481 C2 1.560 . S
C536 C299 1.609 . S
C517 C42 1.610 . S
C553 C82 1.594 . S
C572 C215 1.599 . S
C589 C141 1.521 . S
C608 C302 1.431 . S
C644 C314 1.453 . S
C625 C61 1.568 . S
C680 C230 1.474 . S
C661 C101 1.590 . S
C716 C311 1.639 . S
C697 C122 1.605 . S
C733 C21 1.639 . S
C752 C227 1.637 . S
