# Generated by pormake.
# Topology ibd, (4,6)-cn, num edge types: 1
# Building blocks:
#     Node 0, Type 0, BuildingBlock: CEKHIL_clean_sbu_0, # of connection points: 4
#     Node 1, Type 0, BuildingBlock: CEKHIL_clean_sbu_0, # of connection points: 4
#     Node 2, Type 0, BuildingBlock: CEKHIL_clean_sbu_0, # of connection points: 4
#     Node 3, Type 0, BuildingBlock: CEKHIL_clean_sbu_0, # of connection points: 4
#     Node 4, Type 0, BuildingBlock: CEKHIL_clean_sbu_0, # of connection points: 4
#     Node 5, Type 0, BuildingBlock: CEKHIL_clean_sbu_0, # of connection points: 4
#     Node 6, Type 0, BuildingBlock: CEKHIL_clean_sbu_0, # of connection points: 4
#     Node 7, Type 0, BuildingBlock: CEKHIL_clean_sbu_0, # of connection points: 4
#     Node 8, Type 0, BuildingBlock: CEKHIL_clean_sbu_0, # of connection points: 4
#     Node 9, Type 0, BuildingBlock: CEKHIL_clean_sbu_0, # of connection points: 4
#     Node 10, Type 0, BuildingBlock: CEKHIL_clean_sbu_0, # of connection points: 4
#     Node 11, Type 0, BuildingBlock: CEKHIL_clean_sbu_0, # of connection points: 4
#     Node 12, Type 0, BuildingBlock: CEKHIL_clean_sbu_0, # of connection points: 4
#     Node 13, Type 0, BuildingBlock: CEKHIL_clean_sbu_0, # of connection points: 4
#     Node 14, Type 0, BuildingBlock: CEKHIL_clean_sbu_0, # of connection points: 4
#     Node 15, Type 0, BuildingBlock: CEKHIL_clean_sbu_0, # of connection points: 4
#     Node 16, Type 0, BuildingBlock: CEKHIL_clean_sbu_0, # of connection points: 4
#     Node 17, Type 0, BuildingBlock: CEKHIL_clean_sbu_0, # of connection points: 4
#     Node 18, Type 0, BuildingBlock: CEKHIL_clean_sbu_0, # of connection points: 4
#     Node 19, Type 0, BuildingBlock: CEKHIL_clean_sbu_0, # of connection points: 4
#     Node 20, Type 0, BuildingBlock: CEKHIL_clean_sbu_0, # of connection points: 4
#     Node 21, Type 0, BuildingBlock: CEKHIL_clean_sbu_0, # of connection points: 4
#     Node 22, Type 0, BuildingBlock: CEKHIL_clean_sbu_0, # of connection points: 4
#     Node 23, Type 0, BuildingBlock: CEKHIL_clean_sbu_0, # of connection points: 4
#     Node 24, Type 1, BuildingBlock: CIFDUS_clean_sbu_1, # of connection points: 6
#     Node 25, Type 1, BuildingBlock: CIFDUS_clean_sbu_1, # of connection points: 6
#     Node 26, Type 1, BuildingBlock: CIFDUS_clean_sbu_1, # of connection points: 6
#     Node 27, Type 1, BuildingBlock: CIFDUS_clean_sbu_1, # of connection points: 6
#     Node 28, Type 1, BuildingBlock: CIFDUS_clean_sbu_1, # of connection points: 6
#     Node 29, Type 1, BuildingBlock: CIFDUS_clean_sbu_1, # of connection points: 6
#     Node 30, Type 1, BuildingBlock: CIFDUS_clean_sbu_1, # of connection points: 6
#     Node 31, Type 1, BuildingBlock: CIFDUS_clean_sbu_1, # of connection points: 6
#     Node 32, Type 1, BuildingBlock: CIFDUS_clean_sbu_1, # of connection points: 6
#     Node 33, Type 1, BuildingBlock: CIFDUS_clean_sbu_1, # of connection points: 6
#     Node 34, Type 1, BuildingBlock: CIFDUS_clean_sbu_1, # of connection points: 6
#     Node 35, Type 1, BuildingBlock: CIFDUS_clean_sbu_1, # of connection points: 6
#     Node 36, Type 1, BuildingBlock: CIFDUS_clean_sbu_1, # of connection points: 6
#     Node 37, Type 1, BuildingBlock: CIFDUS_clean_sbu_1, # of connection points: 6
#     Node 38, Type 1, BuildingBlock: CIFDUS_clean_sbu_1, # of connection points: 6
#     Node 39, Type 1, BuildingBlock: CIFDUS_clean_sbu_1, # of connection points: 6
#     Edge 40, Type (0, 1), None
#     Edge 41, Type (0, 1), None
#     Edge 42, Type (0, 1), None
#     Edge 43, Type (0, 1), None
#     Edge 44, Type (0, 1), None
#     Edge 45, Type (0, 1), None
#     Edge 46, Type (0, 1), None
#     Edge 47, Type (0, 1), None
#     Edge 48, Type (0, 1), None
#     Edge 49, Type (0, 1), None
#     Edge 50, Type (0, 1), None
#     Edge 51, Type (0, 1), None
#     Edge 52, Type (0, 1), None
#     Edge 53, Type (0, 1), None
#     Edge 54, Type (0, 1), None
#     Edge 55, Type (0, 1), None
#     Edge 56, Type (0, 1), None
#     Edge 57, Type (0, 1), None
#     Edge 58, Type (0, 1), None
#     Edge 59, Type (0, 1), None
#     Edge 60, Type (0, 1), None
#     Edge 61, Type (0, 1), None
#     Edge 62, Type (0, 1), None
#     Edge 63, Type (0, 1), None
#     Edge 64, Type (0, 1), None
#     Edge 65, Type (0, 1), None
#     Edge 66, Type (0, 1), None
#     Edge 67, Type (0, 1), None
#     Edge 68, Type (0, 1), None
#     Edge 69, Type (0, 1), None
#     Edge 70, Type (0, 1), None
#     Edge 71, Type (0, 1), None
#     Edge 72, Type (0, 1), None
#     Edge 73, Type (0, 1), None
#     Edge 74, Type (0, 1), None
#     Edge 75, Type (0, 1), None
#     Edge 76, Type (0, 1), None
#     Edge 77, Type (0, 1), None
#     Edge 78, Type (0, 1), None
#     Edge 79, Type (0, 1), None
#     Edge 80, Type (0, 1), None
#     Edge 81, Type (0, 1), None
#     Edge 82, Type (0, 1), None
#     Edge 83, Type (0, 1), None
#     Edge 84, Type (0, 1), None
#     Edge 85, Type (0, 1), None
#     Edge 86, Type (0, 1), None
#     Edge 87, Type (0, 1), None
#     Edge 88, Type (0, 1), None
#     Edge 89, Type (0, 1), None
#     Edge 90, Type (0, 1), None
#     Edge 91, Type (0, 1), None
#     Edge 92, Type (0, 1), None
#     Edge 93, Type (0, 1), None
#     Edge 94, Type (0, 1), None
#     Edge 95, Type (0, 1), None
#     Edge 96, Type (0, 1), None
#     Edge 97, Type (0, 1), None
#     Edge 98, Type (0, 1), None
#     Edge 99, Type (0, 1), None
#     Edge 100, Type (0, 1), None
#     Edge 101, Type (0, 1), None
#     Edge 102, Type (0, 1), None
#     Edge 103, Type (0, 1), None
#     Edge 104, Type (0, 1), None
#     Edge 105, Type (0, 1), None
#     Edge 106, Type (0, 1), None
#     Edge 107, Type (0, 1), None
#     Edge 108, Type (0, 1), None
#     Edge 109, Type (0, 1), None
#     Edge 110, Type (0, 1), None
#     Edge 111, Type (0, 1), None
#     Edge 112, Type (0, 1), None
#     Edge 113, Type (0, 1), None
#     Edge 114, Type (0, 1), None
#     Edge 115, Type (0, 1), None
#     Edge 116, Type (0, 1), None
#     Edge 117, Type (0, 1), None
#     Edge 118, Type (0, 1), None
#     Edge 119, Type (0, 1), None
#     Edge 120, Type (0, 1), None
#     Edge 121, Type (0, 1), None
#     Edge 122, Type (0, 1), None
#     Edge 123, Type (0, 1), None
#     Edge 124, Type (0, 1), None
#     Edge 125, Type (0, 1), None
#     Edge 126, Type (0, 1), None
#     Edge 127, Type (0, 1), None
#     Edge 128, Type (0, 1), None
#     Edge 129, Type (0, 1), None
#     Edge 130, Type (0, 1), None
#     Edge 131, Type (0, 1), None
#     Edge 132, Type (0, 1), None
#     Edge 133, Type (0, 1), None
#     Edge 134, Type (0, 1), None
#     Edge 135, Type (0, 1), None
# Relax obj value: 0.355
# Max RMSD: 0.308
# Mean RMSD: 0.277
data_MOF--net-ibd--node1-CEKHIL_clean_sbu_0--node2-CIFDUS_clean_sbu_1--edge1-none
_symmetry_space_group_name_H-M    P1
_symmetry_Int_Tables_number       1
_symmetry_cell_setting            triclinic
loop_
_symmetry_equiv_pos_as_xyz
'x, y, z'
_cell_length_a     21.795637
_cell_length_b     22.166774
_cell_length_c     22.404961
_cell_angle_alpha  91.997055
_cell_angle_beta   91.456491
_cell_angle_gamma 93.751513
loop_
_atom_site_label
_atom_site_type_symbol
_atom_site_fract_x
_atom_site_fract_y
_atom_site_fract_z
_atom_type_partial_charge
Co0 Co 0.97961 0.30236 0.37128 0.0
O1 O 0.96578 0.35695 0.30587 0.0
O2 O 0.90362 0.28027 0.33447 0.0
C3 C 0.0121 0.36309 0.44863 0.0
O4 O 0.96939 0.23879 0.43507 0.0
Co5 Co 0.09697 0.27675 0.43327 0.0
O6 O 0.0477 0.24599 0.50082 0.0
C7 C 0.07842 0.25233 0.30321 0.0
C8 C 0.91466 0.32311 0.29786 0.0
C9 C -0.00925 0.23513 0.4889 0.0
O10 O 0.02049 0.24784 0.31135 0.0
O11 O 0.11552 0.27204 0.34566 0.0
O12 O 0.95462 0.3603 0.43104 0.0
O13 O 0.04935 0.34132 0.41119 0.0
Co14 Co 0.96153 0.77437 0.65117 0.0
O15 O 0.90982 0.74614 0.71355 0.0
O16 O 0.94244 0.84222 0.70221 0.0
C17 C 0.92176 0.71917 0.57253 0.0
O18 O 0.01444 0.81718 0.59129 0.0
Co19 Co 0.0443 0.68383 0.58763 0.0
O20 O 0.04437 0.74669 0.52533 0.0
C21 C 0.0544 0.71543 0.71633 0.0
C22 C 0.91624 0.80129 0.7354 0.0
C23 C 0.03302 0.80101 0.53933 0.0
O24 O 0.03244 0.76557 0.70545 0.0
O25 O 0.05917 0.67399 0.67579 0.0
O26 O 0.89491 0.76797 0.58857 0.0
O27 O 0.96245 0.70214 0.60932 0.0
Co28 Co 0.47979 0.80177 0.87166 0.0
O29 O 0.46492 0.85471 0.80513 0.0
O30 O 0.40441 0.7776 0.83592 0.0
C31 C 0.51208 0.86327 0.94848 0.0
O32 O 0.4698 0.73889 0.9357 0.0
Co33 Co 0.59702 0.77699 0.93333 0.0
O34 O 0.54813 0.74604 0.00116 0.0
C35 C 0.57862 0.75227 0.80341 0.0
C36 C 0.41514 0.81853 0.79751 0.0
C37 C 0.49117 0.73521 0.98938 0.0
O38 O 0.52085 0.74709 0.81205 0.0
O39 O 0.61575 0.77227 0.84571 0.0
O40 O 0.45455 0.86016 0.93092 0.0
O41 O 0.54942 0.8416 0.91105 0.0
Co42 Co 0.46149 0.27437 0.15117 0.0
O43 O 0.40979 0.24614 0.21355 0.0
O44 O 0.4424 0.34221 0.20221 0.0
C45 C 0.42174 0.21917 0.07252 0.0
O46 O 0.5144 0.31719 0.09129 0.0
Co47 Co 0.54427 0.18383 0.08763 0.0
O48 O 0.54433 0.2467 0.02533 0.0
C49 C 0.55436 0.21543 0.21633 0.0
C50 C 0.41621 0.30128 0.2354 0.0
C51 C 0.53298 0.30102 0.03933 0.0
O52 O 0.53241 0.26557 0.20544 0.0
O53 O 0.55913 0.17399 0.17579 0.0
O54 O 0.39488 0.26796 0.08857 0.0
O55 O 0.46243 0.20214 0.10932 0.0
Co56 Co 0.98785 0.81248 0.12142 0.0
O57 O 0.01384 0.87209 0.06864 0.0
O58 O 0.91579 0.84058 0.08124 0.0
C59 C 0.04724 0.84122 0.20031 0.0
O60 O 0.94851 0.75062 0.17484 0.0
Co61 Co 0.08015 0.72099 0.15967 0.0
O62 O 0.0256 0.72102 0.23189 0.0
C63 C 0.03626 0.72244 0.03494 0.0
C64 C 0.95644 0.87285 0.05213 0.0
C65 C 0.97 0.73483 0.22564 0.0
O66 O -0.00706 0.75254 0.05488 0.0
O67 O 0.08109 0.70879 0.069 0.0
O68 O -0.00338 0.86826 0.19182 0.0
O69 O 0.06337 0.80608 0.15703 0.0
Co70 Co 0.5125 0.78613 0.39741 0.0
O71 O 0.46772 0.77566 0.47259 0.0
O72 O 0.52084 0.85772 0.44446 0.0
C73 C 0.4522 0.75076 0.32304 0.0
O74 O 0.55437 0.82023 0.32225 0.0
Co75 Co 0.57427 0.69108 0.35701 0.0
O76 O 0.61991 0.75098 0.31185 0.0
C77 C 0.6029 0.71318 0.46588 0.0
C78 C 0.48802 0.83143 0.48482 0.0
C79 C 0.59234 0.7935 0.29017 0.0
O80 O 0.59071 0.76222 0.44013 0.0
O81 O 0.62422 0.6752 0.43018 0.0
O82 O 0.44037 0.79996 0.35298 0.0
O83 O 0.48576 0.71243 0.35085 0.0
Co84 Co 0.48785 0.31248 0.62142 0.0
O85 O 0.51385 0.3721 0.56864 0.0
O86 O 0.4158 0.34058 0.58123 0.0
C87 C 0.54723 0.34123 0.70031 0.0
O88 O 0.4485 0.25063 0.67483 0.0
Co89 Co 0.58015 0.221 0.65967 0.0
O90 O 0.52559 0.22104 0.73189 0.0
C91 C 0.53629 0.22246 0.53494 0.0
C92 C 0.45645 0.37285 0.55212 0.0
C93 C 0.46999 0.23484 0.72564 0.0
O94 O 0.49296 0.25255 0.55487 0.0
O95 O 0.58111 0.20881 0.569 0.0
O96 O 0.49661 0.36826 0.69181 0.0
O97 O 0.56337 0.30609 0.65703 0.0
Co98 Co 0.01256 0.28634 0.89727 0.0
O99 O 0.96782 0.27623 0.97235 0.0
O100 O 0.02097 0.35824 0.94387 0.0
C101 C 0.9522 0.25077 0.82304 0.0
O102 O 0.05432 0.32025 0.82208 0.0
Co103 Co 0.0743 0.19121 0.85698 0.0
O104 O 0.12012 0.25124 0.81212 0.0
C105 C 0.10288 0.21326 0.96587 0.0
C106 C 0.98798 0.33216 0.98412 0.0
C107 C 0.09245 0.29358 0.79021 0.0
O108 O 0.09071 0.26235 0.94016 0.0
O109 O 0.1242 0.17528 0.93015 0.0
O110 O 0.94043 0.30006 0.85286 0.0
O111 O 0.98577 0.2125 0.85092 0.0
Co112 Co 0.37202 0.02386 0.21876 0.0
O113 O 0.44438 0.05415 0.18218 0.0
O114 O 0.41327 0.9567 0.18584 0.0
C115 C 0.30583 0.09114 0.19095 0.0
O116 O 0.3004 0.98195 0.25598 0.0
Co117 Co 0.32755 0.10922 0.31922 0.0
O118 O 0.25554 0.04788 0.31774 0.0
C119 C 0.45032 0.06223 0.3143 0.0
C120 C 0.45706 -0.002 0.17566 0.0
C121 C 0.2568 -0.00331 0.29 0.0
O122 O 0.42219 0.01539 0.29097 0.0
O123 O 0.42111 0.10954 0.32561 0.0
O124 O 0.31528 0.04696 0.15298 0.0
O125 O 0.3435 0.09684 0.23589 0.0
Co126 Co 0.26115 0.14623 0.51323 0.0
O127 O 0.2693 0.07695 0.56613 0.0
O128 O 0.34189 0.12391 0.51395 0.0
C129 C 0.20561 0.21557 0.56094 0.0
O130 O 0.27819 0.21544 0.45715 0.0
Co131 Co 0.14059 0.16823 0.44945 0.0
O132 O 0.18566 0.24871 0.44648 0.0
C133 C 0.18728 0.05164 0.43522 0.0
C134 C 0.32443 0.07748 0.54406 0.0
C135 C 0.24334 0.25849 0.44761 0.0
O136 O 0.23958 0.08076 0.44764 0.0
O137 O 0.14208 0.08202 0.41962 0.0
O138 O 0.26392 0.2116 0.57587 0.0
O139 O 0.18153 0.16957 0.52854 0.0
Co140 Co 0.1282 0.0283 0.73081 0.0
O141 O 0.19438 0.02296 0.67524 0.0
O142 O 0.158 0.95064 0.73431 0.0
C143 C 0.05707 0.0712 0.67612 0.0
O144 O 0.06387 0.01381 0.79125 0.0
Co145 Co 0.07622 0.1429 0.78277 0.0
O146 O 0.00202 0.08938 0.79941 0.0
C147 C 0.20832 0.11337 0.79834 0.0
C148 C 0.19871 0.96943 0.69693 0.0
C149 C 0.01185 0.03378 0.80352 0.0
O150 O 0.19226 0.05749 0.79212 0.0
O151 O 0.16858 0.15309 0.79489 0.0
O152 O 0.06506 0.01377 0.66912 0.0
O153 O 0.09766 0.10274 0.70897 0.0
Co154 Co 0.22793 0.90552 0.03916 0.0
O155 O 0.20731 0.83909 0.09157 0.0
O156 O 0.30172 0.86886 0.06904 0.0
C157 C 0.16351 0.97802 0.06559 0.0
O158 O 0.26828 0.97026 0.98953 0.0
Co159 Co 0.13817 0.95072 0.94216 0.0
O160 O 0.20038 0.02194 0.93797 0.0
C161 C 0.17659 0.82537 0.94595 0.0
C162 C 0.26554 0.82828 0.09324 0.0
C163 C 0.25422 0.01664 0.96006 0.0
O164 O 0.22576 0.846 0.97276 0.0
O165 O 0.13313 0.85906 0.93223 0.0
O166 O 0.21278 0.97076 0.0985 0.0
O167 O 0.15012 0.93568 0.02611 0.0
Co168 Co 0.25086 0.41178 0.99066 0.0
O169 O 0.31066 0.35164 0.97032 0.0
O170 O 0.22912 0.37249 0.91586 0.0
C171 C 0.30907 0.49672 0.02456 0.0
O172 O 0.18144 0.46682 0.98968 0.0
Co173 Co 0.22707 0.46555 0.11727 0.0
O174 O 0.18668 0.52756 0.07215 0.0
C175 C 0.20793 0.33372 0.08651 0.0
C176 C 0.27413 0.3382 0.92386 0.0
C177 C 0.17167 0.51647 0.01752 0.0
O178 O 0.20261 0.34389 0.03081 0.0
O179 O 0.22193 0.37617 0.1256 0.0
O180 O 0.30477 0.48231 0.96759 0.0
O181 O 0.28896 0.45416 0.05822 0.0
Co182 Co 0.75444 0.15463 0.98222 0.0
O183 O 0.8198 0.11328 0.01575 0.0
O184 O 0.78821 0.11 0.91921 0.0
C185 C 0.7752 0.24452 0.03325 0.0
O186 O 0.68843 0.18877 0.93359 0.0
Co187 Co 0.64835 0.20025 0.05048 0.0
O188 O 0.65664 0.26442 0.98736 0.0
C189 C 0.66691 0.06743 0.03839 0.0
C190 C 0.81932 0.08771 0.96246 0.0
C191 C 0.67369 0.24311 0.93761 0.0
O192 O 0.70078 0.08007 0.99486 0.0
O193 O 0.64061 0.10915 0.06781 0.0
O194 O 0.8047 0.23296 0.98478 0.0
O195 O 0.73797 0.20073 0.04992 0.0
Co196 Co 0.128 0.52163 0.27141 0.0
O197 O 0.18019 0.47387 0.22545 0.0
O198 O 0.17561 0.47794 0.32518 0.0
C199 C 0.04138 0.50375 0.21424 0.0
O200 O 0.07813 0.56393 0.3335 0.0
Co201 Co 0.07898 0.63304 0.22208 0.0
O202 O 0.01375 0.61971 0.28449 0.0
C203 C 0.21265 0.61607 0.23184 0.0
C204 C 0.20315 0.46094 0.27715 0.0
C205 C 0.02799 0.59123 0.3305 0.0
O206 O 0.19761 0.58496 0.27632 0.0
O207 O 0.17073 0.64091 0.20179 0.0
O208 O 0.05572 0.46547 0.25419 0.0
O209 O 0.08259 0.547 0.20593 0.0
Co210 Co 0.75087 0.91178 0.49066 0.0
O211 O 0.81067 0.85163 0.47033 0.0
O212 O 0.72914 0.87249 0.41586 0.0
C213 C 0.80907 -0.00329 0.52457 0.0
O214 O 0.68145 0.96683 0.48967 0.0
Co215 Co 0.72706 0.96555 0.61726 0.0
O216 O 0.68668 0.02757 0.57214 0.0
C217 C 0.70792 0.83373 0.58651 0.0
C218 C 0.77414 0.8382 0.42386 0.0
C219 C 0.67168 0.01647 0.5175 0.0
O220 O 0.7026 0.84389 0.5308 0.0
O221 O 0.72192 0.87617 0.62559 0.0
O222 O 0.80479 0.9823 0.4676 0.0
O223 O 0.78895 0.95415 0.55823 0.0
Co224 Co 0.87392 0.00284 0.28532 0.0
O225 O 0.93679 0.94613 0.30663 0.0
O226 O 0.90969 0.02549 0.36005 0.0
C227 C 0.79326 0.93955 0.24715 0.0
O228 O 0.82105 0.07215 0.29063 0.0
Co229 Co 0.7989 0.03722 0.17898 0.0
O230 O 0.73545 0.05773 0.23975 0.0
C231 C 0.93903 0.06503 0.18847 0.0
C232 C 0.94683 0.98354 0.35312 0.0
C233 C 0.763 0.07467 0.28868 0.0
O234 O 0.9418 0.05241 0.24394 0.0
O235 O 0.88757 0.05907 0.15826 0.0
O236 O 0.80304 0.94532 0.30496 0.0
O237 O 0.83258 0.96837 0.21571 0.0
Co238 Co 0.25462 0.65485 0.48262 0.0
O239 O 0.32 0.61335 0.51591 0.0
O240 O 0.28817 0.61015 0.41947 0.0
C241 C 0.27577 0.74511 0.53363 0.0
O242 O 0.18861 0.68891 0.43392 0.0
Co243 Co 0.14877 0.70034 0.5506 0.0
O244 O 0.15681 0.76457 0.48753 0.0
C245 C 0.1669 0.56749 0.53848 0.0
C246 C 0.31937 0.58777 0.4626 0.0
C247 C 0.17385 0.74322 0.4378 0.0
O248 O 0.20097 0.58021 0.49513 0.0
O249 O 0.14057 0.60922 0.56785 0.0
O250 O 0.30486 0.73318 0.48502 0.0
O251 O 0.23857 0.70139 0.5507 0.0
Co252 Co 0.37391 0.50281 0.78532 0.0
O253 O 0.43678 0.44611 0.80664 0.0
O254 O 0.40969 0.52549 0.86004 0.0
C255 C 0.29323 0.4395 0.74719 0.0
O256 O 0.32102 0.5721 0.79061 0.0
Co257 Co 0.29888 0.53718 0.67899 0.0
O258 O 0.23542 0.55769 0.73975 0.0
C259 C 0.43901 0.56502 0.68846 0.0
C260 C 0.44683 0.48354 0.85312 0.0
C261 C 0.26297 0.57458 0.78869 0.0
O262 O 0.44178 0.55238 0.74393 0.0
O263 O 0.38754 0.55906 0.65825 0.0
O264 O 0.30304 0.44529 0.80499 0.0
O265 O 0.33254 0.46831 0.71572 0.0
Co266 Co 0.62788 0.02161 0.77132 0.0
O267 O 0.6801 0.97383 0.7254 0.0
O268 O 0.67544 0.97784 0.82511 0.0
C269 C 0.54115 0.00407 0.71387 0.0
O270 O 0.57806 0.0639 0.83344 0.0
Co271 Co 0.57899 0.13315 0.72208 0.0
O272 O 0.51374 0.11975 0.78448 0.0
C273 C 0.71264 0.11605 0.73186 0.0
C274 C 0.70306 0.9609 0.77711 0.0
C275 C 0.52795 0.09123 0.83047 0.0
O276 O 0.69758 0.0849 0.77631 0.0
O277 O 0.67074 0.14092 0.70181 0.0
O278 O 0.55531 0.9656 0.75375 0.0
O279 O 0.58258 0.04716 0.70587 0.0
Co280 Co 0.76117 0.64634 0.01314 0.0
O281 O 0.76923 0.57744 0.06627 0.0
O282 O 0.84197 0.62391 0.01377 0.0
C283 C 0.70573 0.71577 0.06067 0.0
O284 O 0.77817 0.71544 0.95698 0.0
Co285 Co 0.64058 0.66824 0.94941 0.0
O286 O 0.68563 0.74873 0.94643 0.0
C287 C 0.68728 0.55164 0.93523 0.0
C288 C 0.82437 0.57779 0.04431 0.0
C289 C 0.74332 0.75851 0.94752 0.0
O290 O 0.73958 0.58075 0.94766 0.0
O291 O 0.64208 0.58202 0.91962 0.0
O292 O 0.76397 0.71174 0.07573 0.0
O293 O 0.68155 0.66969 0.02849 0.0
Co294 Co 0.87202 0.52387 0.71875 0.0
O295 O 0.94437 0.55419 0.68216 0.0
O296 O 0.91328 0.45673 0.68582 0.0
C297 C 0.80582 0.59114 0.69096 0.0
O298 O 0.80041 0.48195 0.75598 0.0
Co299 Co 0.82756 0.60922 0.81923 0.0
O300 O 0.75555 0.54788 0.81774 0.0
C301 C 0.95032 0.56223 0.8143 0.0
C302 C 0.95705 0.49804 0.67563 0.0
C303 C 0.75681 0.49669 0.79 0.0
O304 O 0.9222 0.5154 0.79095 0.0
O305 O 0.92111 0.60954 0.82561 0.0
O306 O 0.81527 0.54696 0.65298 0.0
O307 O 0.84349 0.59684 0.73589 0.0
Co308 Co 0.72793 0.40552 0.53915 0.0
O309 O 0.70731 0.3391 0.59157 0.0
O310 O 0.80172 0.36886 0.56903 0.0
C311 C 0.66352 0.47803 0.56559 0.0
O312 O 0.76827 0.47025 0.48952 0.0
Co313 Co 0.63816 0.45073 0.44216 0.0
O314 O 0.70038 0.52194 0.43798 0.0
C315 C 0.67658 0.32538 0.44595 0.0
C316 C 0.76554 0.32829 0.59324 0.0
C317 C 0.75422 0.51663 0.46006 0.0
O318 O 0.72574 0.34599 0.47276 0.0
O319 O 0.63313 0.35907 0.43222 0.0
O320 O 0.71279 0.47077 0.59849 0.0
O321 O 0.65012 0.43568 0.52611 0.0
Co322 Co 0.62859 0.52788 0.23077 0.0
O323 O 0.69527 0.52218 0.17545 0.0
O324 O 0.65884 0.44998 0.23429 0.0
C325 C 0.5573 0.57092 0.17604 0.0
O326 O 0.56395 0.51358 0.29113 0.0
Co327 Co 0.57629 0.6428 0.28259 0.0
O328 O 0.50215 0.58929 0.29932 0.0
C329 C 0.70838 0.61324 0.2983 0.0
C330 C 0.69992 0.46871 0.19722 0.0
C331 C 0.51196 0.53368 0.30347 0.0
O332 O 0.69241 0.55732 0.29218 0.0
O333 O 0.66861 0.65294 0.2948 0.0
O334 O 0.56542 0.51351 0.16893 0.0
O335 O 0.5979 0.60239 0.20892 0.0
O336 O 0.17984 0.22353 0.08454 0.0
Mn337 Mn 0.12588 0.15487 0.12753 0.0
O338 O 0.20821 0.27371 0.16695 0.0
Mn339 Mn 0.21083 0.20566 0.20891 0.0
O340 O 0.05245 0.09393 0.16722 0.0
O341 O 0.06417 0.17095 0.06002 0.0
Mn342 Mn 0.02535 0.09974 0.04059 0.0
O343 O 0.16014 0.08621 0.07636 0.0
O344 O 0.97339 0.09938 0.1006 0.0
O345 O 0.09203 0.21778 0.19631 0.0
O346 O 0.16136 0.2069 0.26956 0.0
O347 O 0.01808 0.14445 0.97427 0.0
O348 O 0.07617 0.03356 0.04311 0.0
C349 C 0.26319 0.13907 0.18448 0.0
C350 C 0.19823 0.27326 0.11193 0.0
C351 C -0.00727 0.08913 0.15282 0.0
C352 C 0.0566 0.18253 0.0032 0.0
C353 C 0.13144 0.03549 0.06317 0.0
C354 C 0.10873 0.22124 0.25331 0.0
O355 O 0.20191 0.12982 0.18049 0.0
O356 O 0.28696 0.18848 0.2108 0.0
O357 O 0.06141 0.86113 0.30728 0.0
Mn358 Mn 0.11137 0.89645 0.38395 0.0
O359 O 0.1346 0.82046 0.25106 0.0
Mn360 Mn 0.2 0.82384 0.30396 0.0
O361 O 0.16823 0.94305 0.45069 0.0
O362 O 0.04398 0.95297 0.4003 0.0
Mn363 Mn 0.04847 0.97152 0.47935 0.0
O364 O 0.06737 0.83918 0.44561 0.0
O365 O 0.12226 0.01143 0.5022 0.0
O366 O 0.16226 0.95272 0.32688 0.0
O367 O 0.24232 0.89624 0.30339 0.0
O368 O 0.98481 0.01137 0.45005 0.0
O369 O 0.03234 0.90127 0.51724 0.0
C370 C 0.18876 0.77959 0.38639 0.0
C371 C 0.08229 0.84188 0.25689 0.0
C372 C 0.16733 -0.00147 0.47099 0.0
C373 C -0.00495 0.9833 0.39993 0.0
C374 C 0.04425 0.8492 0.49732 0.0
C375 C 0.21694 0.94631 0.30723 0.0
O376 O 0.17014 0.83182 0.3746 0.0
O377 O 0.22096 0.75693 0.34456 0.0
O378 O 0.44262 0.9568 0.68188 0.0
Mn379 Mn 0.37237 0.90769 0.62963 0.0
O380 O 0.4977 0.0135 0.61901 0.0
Mn381 Mn 0.44695 0.98856 0.55515 0.0
O382 O 0.31 0.84821 0.57371 0.0
O383 O 0.37263 0.85457 0.70386 0.0
Mn384 Mn 0.29697 0.82092 0.69287 0.0
O385 O 0.30125 0.95232 0.66883 0.0
O386 O 0.29744 0.76877 0.6307 0.0
O387 O 0.43863 0.85876 0.58021 0.0
O388 O 0.46873 0.92538 0.51277 0.0
O389 O 0.31759 0.78882 0.75996 0.0
O390 O 0.23701 0.87508 0.69316 0.0
C391 C 0.36608 0.02745 0.54032 0.0
C392 C 0.4897 0.99232 0.67024 0.0
C393 C 0.29867 0.79037 0.57991 0.0
C394 C 0.36882 0.81974 0.75011 0.0
C395 C 0.24799 0.93056 0.68338 0.0
C396 C 0.464 0.87238 0.5302 0.0
O397 O 0.36882 0.98086 0.57493 0.0
O398 O 0.41362 0.04062 0.50906 0.0
O399 O 0.40675 0.21129 0.96419 0.0
Mn400 Mn 0.36948 0.16898 0.88433 0.0
O401 O 0.4284 0.13081 0.01797 0.0
Mn402 Mn 0.43053 0.07155 0.95822 0.0
O403 O 0.31894 0.12029 0.81541 0.0
O404 O 0.31727 0.24533 0.87987 0.0
Mn405 Mn 0.3119 0.25009 0.80009 0.0
O406 O 0.43356 0.20768 0.82345 0.0
O407 O 0.27237 0.18585 0.76134 0.0
O408 O 0.30581 0.11488 0.93581 0.0
O409 O 0.357 0.03009 0.94655 0.0
O410 O 0.26508 0.30802 0.82328 0.0
O411 O 0.38395 0.2709 0.7669 0.0
C412 C 0.48622 0.08342 0.88127 0.0
C413 C 0.41525 0.18576 0.01455 0.0
C414 C 0.27157 0.13578 0.78579 0.0
C415 C 0.28416 0.2932 0.87573 0.0
C416 C 0.42925 0.23993 0.77678 0.0
C417 C 0.30726 0.05687 0.94431 0.0
O418 O 0.43359 0.1065 0.88977 0.0
O419 O 0.50206 0.04927 0.9239 0.0
O420 O 0.5614 0.36115 0.80727 0.0
Mn421 Mn 0.61136 0.39646 0.88395 0.0
O422 O 0.63459 0.32047 0.75106 0.0
Mn423 Mn 0.69999 0.32386 0.80395 0.0
O424 O 0.66822 0.44306 0.9507 0.0
O425 O 0.54399 0.45298 0.90031 0.0
Mn426 Mn 0.54847 0.47153 0.97936 0.0
O427 O 0.56735 0.33919 0.94561 0.0
O428 O 0.62225 0.51143 0.00221 0.0
O429 O 0.66227 0.45273 0.82688 0.0
O430 O 0.74232 0.39625 0.80339 0.0
O431 O 0.48481 0.51138 0.95005 0.0
O432 O 0.53234 0.40128 0.01724 0.0
C433 C 0.68874 0.27958 0.88633 0.0
C434 C 0.58229 0.34189 0.75689 0.0
C435 C 0.66732 0.49854 0.971 0.0
C436 C 0.49505 0.4833 0.89993 0.0
C437 C 0.54423 0.34921 -0.00268 0.0
C438 C 0.71695 0.44631 0.80723 0.0
O439 O 0.67013 0.33183 0.87459 0.0
O440 O 0.72098 0.25695 0.84451 0.0
O441 O 0.94364 0.45485 0.18292 0.0
Mn442 Mn 0.87322 0.40616 0.13074 0.0
O443 O -0.00311 0.51305 0.11988 0.0
Mn444 Mn 0.94519 0.48777 0.05699 0.0
O445 O 0.8103 0.34684 0.07455 0.0
O446 O 0.87766 0.34214 0.19648 0.0
Mn447 Mn 0.79752 0.31897 0.19144 0.0
O448 O 0.80392 0.45078 0.17319 0.0
O449 O 0.79505 0.26597 0.13074 0.0
O450 O 0.93833 0.35898 0.07872 0.0
O451 O 0.96818 0.42632 0.01253 0.0
O452 O 0.81496 0.30169 0.26507 0.0
O453 O 0.73774 0.37383 0.18919 0.0
C454 C 0.86606 0.52786 0.04219 0.0
C455 C 0.98979 0.49149 0.17106 0.0
C456 C 0.7978 0.28876 0.08019 0.0
C457 C 0.86668 0.33066 0.25289 0.0
C458 C 0.74952 0.42962 0.1835 0.0
C459 C 0.96383 0.37313 0.02921 0.0
O460 O 0.86682 0.48128 0.07737 0.0
O461 O 0.91381 0.54026 0.01088 0.0
O462 O 0.90675 0.71129 0.46419 0.0
Mn463 Mn 0.86949 0.66897 0.38433 0.0
O464 O 0.92842 0.63081 0.51798 0.0
Mn465 Mn 0.93053 0.57154 0.45823 0.0
O466 O 0.81898 0.62027 0.31541 0.0
O467 O 0.81729 0.74533 0.37987 0.0
Mn468 Mn 0.81191 0.75008 0.30009 0.0
O469 O 0.93357 0.70767 0.32345 0.0
O470 O 0.77237 0.68583 0.26136 0.0
O471 O 0.80581 0.61487 0.43581 0.0
O472 O 0.857 0.53009 0.44656 0.0
O473 O 0.76511 0.80803 0.32328 0.0
O474 O 0.88397 0.7709 0.2669 0.0
C475 C 0.98623 0.58341 0.38128 0.0
C476 C 0.91526 0.68576 0.51456 0.0
C477 C 0.77161 0.63574 0.28579 0.0
C478 C 0.78418 0.7932 0.37573 0.0
C479 C 0.92926 0.73992 0.27679 0.0
C480 C 0.80726 0.55687 0.44431 0.0
O481 O 0.9336 0.60649 0.38978 0.0
O482 O 0.00207 0.54926 0.42391 0.0
O483 O 0.81883 0.84094 0.9276 0.0
Mn484 Mn 0.86581 0.91745 0.88668 0.0
O485 O 0.73024 0.82747 0.87767 0.0
Mn486 Mn 0.77561 0.84725 0.81558 0.0
O487 O 0.91926 0.98786 0.84404 0.0
O488 O 0.93281 0.90853 0.95391 0.0
Mn489 Mn 0.96224 0.98553 0.95374 0.0
O490 O 0.82659 0.98263 0.94011 0.0
O491 O 0.01074 0.98605 0.89122 0.0
O492 O 0.90882 0.86197 0.82491 0.0
O493 O 0.83357 0.79531 0.79592 0.0
O494 O 0.97011 0.97001 0.02951 0.0
O495 O 0.91009 0.04594 0.95008 0.0
C496 C 0.7505 0.91933 0.78069 0.0
C497 C 0.76447 0.81454 0.92015 0.0
C498 C 0.97852 -0.00141 0.84628 0.0
C499 C 0.94115 0.91949 0.01214 0.0
C500 C 0.85312 0.03559 0.9513 0.0
C501 C 0.88749 0.81711 0.79142 0.0
O502 O 0.79341 0.92596 0.82424 0.0
O503 O 0.7354 0.86807 0.75273 0.0
O504 O 0.92969 0.1976 0.72504 0.0
Mn505 Mn 0.8862 0.16406 0.64018 0.0
O506 O 0.89513 0.28575 0.74444 0.0
Mn507 Mn 0.82727 0.2505 0.70705 0.0
O508 O 0.84139 0.10099 0.56755 0.0
O509 O 0.95458 0.10088 0.6482 0.0
Mn510 Mn 0.9535 0.09304 0.56762 0.0
O511 O 0.9506 0.21351 0.58701 0.0
O512 O 0.90665 0.02695 0.55402 0.0
O513 O 0.81423 0.11913 0.68896 0.0
O514 O 0.78553 0.19344 0.74901 0.0
O515 O 0.03263 0.09617 0.58217 0.0
O516 O 0.93517 0.14922 0.51288 0.0
C517 C 0.78944 0.28691 0.63773 0.0
C518 C 0.92862 0.24512 0.75954 0.0
C519 C 0.8533 0.04474 0.55014 0.0
C520 C 0.01459 0.09963 0.63673 0.0
C521 C 0.95317 0.20092 0.53092 0.0
C522 C 0.77703 0.14063 0.72742 0.0
O523 O 0.82599 0.24043 0.62663 0.0
O524 O 0.77654 0.30431 0.69135 0.0
O525 O 0.6579 0.21984 0.43184 0.0
Mn526 Mn 0.61262 0.1469 0.38583 0.0
O527 O 0.70306 0.27449 0.36229 0.0
Mn528 Mn 0.70781 0.21149 0.30973 0.0
O529 O 0.55533 0.07857 0.34157 0.0
O530 O 0.5451 0.15716 0.44598 0.0
Mn531 Mn 0.51453 0.0862 0.46897 0.0
O532 O 0.64958 0.0863 0.44467 0.0
O533 O 0.48252 0.0444 0.40465 0.0
O534 O 0.57648 0.20313 0.3199 0.0
O535 O 0.65176 0.21644 0.25161 0.0
O536 O 0.47261 0.14018 0.51079 0.0
O537 O 0.57642 0.05151 0.5072 0.0
C538 C 0.74189 0.12702 0.32165 0.0
C539 C 0.67963 0.26986 0.41229 0.0
C540 C 0.5018 0.05341 0.35307 0.0
C541 C 0.51401 0.17752 0.49035 0.0
C542 C 0.6309 0.05519 0.48915 0.0
C543 C 0.59588 0.21396 0.26636 0.0
O544 O 0.68319 0.13498 0.32647 0.0
O545 O 0.77768 0.17462 0.31297 0.0
O546 O 0.58094 0.8651 0.03762 0.0
Mn547 Mn 0.62681 0.89242 0.12394 0.0
O548 O 0.48688 0.88944 0.04431 0.0
Mn549 Mn 0.53914 0.95057 0.07212 0.0
O550 O 0.69089 0.91947 0.19886 0.0
O551 O 0.68653 0.8236 0.09546 0.0
Mn552 Mn 0.714 0.78992 0.16218 0.0
O553 O 0.58472 0.83142 0.18597 0.0
O554 O 0.76573 0.85301 0.19072 0.0
O555 O 0.67036 0.96754 0.08036 0.0
O556 O 0.59245 0.98941 0.0227 0.0
O557 O 0.66419 0.73119 0.12412 0.0
O558 O 0.66766 0.7932 0.22602 0.0
C559 C 0.50585 0.98525 0.13655 0.0
C560 C 0.52653 0.86758 0.01377 0.0
C561 C 0.74475 0.90022 0.21469 0.0
C562 C 0.66702 0.76677 0.08103 0.0
C563 C 0.61527 0.81234 0.23165 0.0
C564 C 0.64515 0.00317 0.04405 0.0
O565 O 0.55324 0.95086 0.15069 0.0
O566 O 0.49257 0.00608 0.08478 0.0
O567 O 0.42966 0.69759 0.22508 0.0
Mn568 Mn 0.38623 0.66403 0.14023 0.0
O569 O 0.39513 0.78576 0.24445 0.0
Mn570 Mn 0.32728 0.7505 0.20705 0.0
O571 O 0.34142 0.601 0.06755 0.0
O572 O 0.45467 0.60081 0.14828 0.0
Mn573 Mn 0.45352 0.59306 0.06767 0.0
O574 O 0.45069 0.7135 0.08725 0.0
O575 O 0.40666 0.52696 0.05398 0.0
O576 O 0.31422 0.61911 0.18895 0.0
O577 O 0.28555 0.69344 0.24901 0.0
O578 O 0.53266 0.59612 0.08216 0.0
O579 O 0.43528 0.64934 0.01301 0.0
C580 C 0.28944 0.78689 0.13772 0.0
C581 C 0.42862 0.74513 0.25954 0.0
C582 C 0.35331 0.54475 0.05013 0.0
C583 C 0.51469 0.59947 0.13674 0.0
C584 C 0.45347 0.70095 0.0312 0.0
C585 C 0.27702 0.64064 0.2274 0.0
O586 O 0.326 0.74041 0.12663 0.0
O587 O 0.27653 0.80429 0.19134 0.0
O588 O 0.1579 0.71983 0.93184 0.0
Mn589 Mn 0.1126 0.64688 0.88584 0.0
O590 O 0.2031 0.77446 0.8623 0.0
Mn591 Mn 0.20786 0.71145 0.80976 0.0
O592 O 0.05532 0.57855 0.8416 0.0
O593 O 0.04509 0.65714 0.94599 0.0
Mn594 Mn 0.01451 0.58619 0.96897 0.0
O595 O 0.14956 0.58629 0.94469 0.0
O596 O 0.98248 0.54439 0.90468 0.0
O597 O 0.0765 0.70312 0.81991 0.0
O598 O 0.15181 0.71641 0.75163 0.0
O599 O 0.97255 0.64015 0.01075 0.0
O600 O 0.0764 0.55151 0.00722 0.0
C601 C 0.24183 0.62688 0.82176 0.0
C602 C 0.17964 0.76984 0.91229 0.0
C603 C 0.00178 0.5534 0.85309 0.0
C604 C 0.01397 0.67749 0.99035 0.0
C605 C 0.13089 0.55519 0.98917 0.0
C606 C 0.09591 0.71395 0.76638 0.0
O607 O 0.18316 0.63494 0.82648 0.0
O608 O 0.27767 0.67445 0.81321 0.0
O609 O 0.08094 0.36506 0.53771 0.0
Mn610 Mn 0.12679 0.39247 0.62397 0.0
O611 O 0.9869 0.38948 0.54435 0.0
Mn612 Mn 0.03914 0.45063 0.5721 0.0
O613 O 0.19088 0.41948 0.69888 0.0
O614 O 0.1865 0.32369 0.59554 0.0
Mn615 Mn 0.21398 0.28984 0.66213 0.0
O616 O 0.0847 0.33152 0.68602 0.0
O617 O 0.26564 0.3529 0.69086 0.0
O618 O 0.17036 0.46756 0.58035 0.0
O619 O 0.09246 0.48942 0.52266 0.0
O620 O 0.16459 0.23103 0.62362 0.0
O621 O 0.16751 0.29284 0.72585 0.0
C622 C 0.00585 0.48531 0.63653 0.0
C623 C 0.02653 0.3675 0.51387 0.0
C624 C 0.24469 0.40016 0.71477 0.0
C625 C 0.16691 0.26698 0.58076 0.0
C626 C 0.11524 0.3122 0.73159 0.0
C627 C 0.14516 0.5032 0.54404 0.0
O628 O 0.05323 0.45092 0.65068 0.0
O629 O -0.00743 0.50614 0.58475 0.0
O630 O 0.67981 0.72354 0.58455 0.0
Mn631 Mn 0.62587 0.65488 0.62756 0.0
O632 O 0.70822 0.77371 0.66694 0.0
Mn633 Mn 0.71084 0.70566 0.70889 0.0
O634 O 0.55243 0.59393 0.66723 0.0
O635 O 0.56415 0.67096 0.56005 0.0
Mn636 Mn 0.52534 0.59974 0.5406 0.0
O637 O 0.66012 0.58622 0.57637 0.0
O638 O 0.47338 0.59936 0.6006 0.0
O639 O 0.59206 0.71776 0.69643 0.0
O640 O 0.66148 0.7069 0.7696 0.0
O641 O 0.51807 0.64443 0.47427 0.0
O642 O 0.57616 0.53357 0.54311 0.0
C643 C 0.76319 0.63906 0.68448 0.0
C644 C 0.69823 0.77327 0.61193 0.0
C645 C 0.49271 0.58912 0.65282 0.0
C646 C 0.5566 0.68249 0.50321 0.0
C647 C 0.63143 0.5355 0.56317 0.0
C648 C 0.60883 0.72121 0.75344 0.0
O649 O 0.7019 0.62982 0.68049 0.0
O650 O 0.78696 0.68848 0.71078 0.0
O651 O 0.31885 0.34094 0.42762 0.0
Mn652 Mn 0.36583 0.41745 0.38668 0.0
O653 O 0.23024 0.32746 0.37772 0.0
Mn654 Mn 0.2756 0.34723 0.31561 0.0
O655 O 0.41931 0.48786 0.34402 0.0
O656 O 0.43282 0.40855 0.45391 0.0
Mn657 Mn 0.46225 0.48554 0.45374 0.0
O658 O 0.3266 0.48267 0.44011 0.0
O659 O 0.51077 0.48606 0.39123 0.0
O660 O 0.40883 0.36197 0.32491 0.0
O661 O 0.33357 0.2953 0.29596 0.0
O662 O 0.47012 0.47002 0.52951 0.0
O663 O 0.4101 0.54597 0.45008 0.0
C664 C 0.25054 0.41933 0.28071 0.0
C665 C 0.26449 0.31452 0.42019 0.0
C666 C 0.47858 0.49856 0.34627 0.0
C667 C 0.44116 0.4195 0.51214 0.0
C668 C 0.35313 0.53563 0.4513 0.0
C669 C 0.38749 0.31711 0.29143 0.0
O670 O 0.29345 0.42594 0.32425 0.0
O671 O 0.2354 0.36806 0.25277 0.0
loop_
_geom_bond_atom_site_label_1
_geom_bond_atom_site_label_2
_geom_bond_distance
_geom_bond_site_symmetry_2
_ccdc_geom_bond_type
Co0 O1 2.216 . S
Co0 O2 2.091 1_455 S
Co0 O4 2.004 1_455 S
Co0 O10 2.021 . S
Co0 O12 2.137 . S
Co0 O13 2.244 . S
O1 Co0 2.216 . S
O1 C8 1.247 1_455 S
O2 Co0 2.091 1_655 S
O2 C8 1.261 . S
C3 O12 1.247 . S
C3 O13 1.272 . S
O4 Co0 2.004 1_655 S
O4 C9 1.259 . S
Co5 O6 2.061 . S
Co5 O11 2.052 . S
Co5 O13 2.135 . S
O6 Co5 2.061 . S
O6 C9 1.235 1_455 S
C7 O10 1.238 . S
C7 O11 1.241 . S
C8 O1 1.247 1_655 S
C8 O2 1.261 . S
C9 O4 1.259 . S
C9 O6 1.235 1_655 S
O10 Co0 2.021 . S
O10 C7 1.238 . S
O11 Co5 2.052 . S
O11 C7 1.241 . S
O12 Co0 2.137 . S
O12 C3 1.247 . S
O13 Co0 2.244 . S
O13 C3 1.272 . S
O13 Co5 2.135 . S
Co14 O15 2.216 . S
Co14 O16 2.091 . S
Co14 O18 2.004 1_655 S
Co14 O24 2.021 1_655 S
Co14 O26 2.137 . S
Co14 O27 2.244 . S
O15 Co14 2.216 . S
O15 C22 1.247 . S
O16 Co14 2.091 . S
O16 C22 1.261 . S
C17 O26 1.247 . S
C17 O27 1.272 . S
O18 Co14 2.004 1_455 S
O18 C23 1.259 . S
Co19 O20 2.061 . S
Co19 O25 2.052 . S
Co19 O27 2.135 1_455 S
O20 Co19 2.061 . S
O20 C23 1.235 . S
C21 O24 1.238 . S
C21 O25 1.241 . S
C22 O15 1.247 . S
C22 O16 1.261 . S
C23 O18 1.259 . S
C23 O20 1.235 . S
O24 Co14 2.021 1_455 S
O24 C21 1.238 . S
O25 Co19 2.052 . S
O25 C21 1.241 . S
O26 Co14 2.137 . S
O26 C17 1.247 . S
O27 Co14 2.244 . S
O27 C17 1.272 . S
O27 Co19 2.135 1_655 S
Co28 O29 2.216 . S
Co28 O30 2.091 . S
Co28 O32 2.004 . S
Co28 O38 2.021 . S
Co28 O40 2.137 . S
Co28 O41 2.244 . S
O29 Co28 2.216 . S
O29 C36 1.247 . S
O30 Co28 2.091 . S
O30 C36 1.261 . S
C31 O40 1.247 . S
C31 O41 1.272 . S
O32 Co28 2.004 . S
O32 C37 1.259 . S
Co33 O34 2.061 . S
Co33 O39 2.052 . S
Co33 O41 2.135 . S
O34 Co33 2.061 . S
O34 C37 1.235 . S
C35 O38 1.238 . S
C35 O39 1.241 . S
C36 O29 1.247 . S
C36 O30 1.261 . S
C37 O32 1.259 . S
C37 O34 1.235 . S
O38 Co28 2.021 . S
O38 C35 1.238 . S
O39 Co33 2.052 . S
O39 C35 1.241 . S
O40 Co28 2.137 . S
O40 C31 1.247 . S
O41 Co28 2.244 . S
O41 C31 1.272 . S
O41 Co33 2.135 . S
Co42 O43 2.216 . S
Co42 O44 2.091 . S
Co42 O46 2.004 . S
Co42 O52 2.021 . S
Co42 O54 2.137 . S
Co42 O55 2.244 . S
O43 Co42 2.216 . S
O43 C50 1.247 . S
O44 Co42 2.091 . S
O44 C50 1.261 . S
C45 O54 1.247 . S
C45 O55 1.272 . S
O46 Co42 2.004 . S
O46 C51 1.259 . S
Co47 O48 2.061 . S
Co47 O53 2.052 . S
Co47 O55 2.135 . S
O48 Co47 2.061 . S
O48 C51 1.235 . S
C49 O52 1.238 . S
C49 O53 1.241 . S
C50 O43 1.247 . S
C50 O44 1.261 . S
C51 O46 1.259 . S
C51 O48 1.235 . S
O52 Co42 2.021 . S
O52 C49 1.238 . S
O53 Co47 2.052 . S
O53 C49 1.241 . S
O54 Co42 2.137 . S
O54 C45 1.247 . S
O55 Co42 2.244 . S
O55 C45 1.272 . S
O55 Co47 2.135 . S
Co56 O57 2.216 1_655 S
Co56 O58 2.091 . S
Co56 O60 2.004 . S
Co56 O66 2.021 1_655 S
Co56 O68 2.137 . S
Co56 O69 2.244 1_655 S
O57 Co56 2.216 1_455 S
O57 C64 1.247 1_455 S
O58 Co56 2.091 . S
O58 C64 1.261 . S
C59 O68 1.247 1_455 S
C59 O69 1.272 . S
O60 Co56 2.004 . S
O60 C65 1.259 . S
Co61 O62 2.061 . S
Co61 O67 2.052 . S
Co61 O69 2.135 . S
O62 Co61 2.061 . S
O62 C65 1.235 1_455 S
C63 O66 1.238 . S
C63 O67 1.241 . S
C64 O57 1.247 1_655 S
C64 O58 1.261 . S
C65 O60 1.259 . S
C65 O62 1.235 1_655 S
O66 Co56 2.021 1_455 S
O66 C63 1.238 . S
O67 Co61 2.052 . S
O67 C63 1.241 . S
O68 Co56 2.137 . S
O68 C59 1.247 1_655 S
O69 Co56 2.244 1_455 S
O69 C59 1.272 . S
O69 Co61 2.135 . S
Co70 O71 2.216 . S
Co70 O72 2.091 . S
Co70 O74 2.004 . S
Co70 O80 2.021 . S
Co70 O82 2.137 . S
Co70 O83 2.244 . S
O71 Co70 2.216 . S
O71 C78 1.247 . S
O72 Co70 2.091 . S
O72 C78 1.261 . S
C73 O82 1.247 . S
C73 O83 1.272 . S
O74 Co70 2.004 . S
O74 C79 1.259 . S
Co75 O76 2.061 . S
Co75 O81 2.052 . S
Co75 O83 2.135 . S
O76 Co75 2.061 . S
O76 C79 1.235 . S
C77 O80 1.238 . S
C77 O81 1.241 . S
C78 O71 1.247 . S
C78 O72 1.261 . S
C79 O74 1.259 . S
C79 O76 1.235 . S
O80 Co70 2.021 . S
O80 C77 1.238 . S
O81 Co75 2.052 . S
O81 C77 1.241 . S
O82 Co70 2.137 . S
O82 C73 1.247 . S
O83 Co70 2.244 . S
O83 C73 1.272 . S
O83 Co75 2.135 . S
Co84 O85 2.216 . S
Co84 O86 2.091 . S
Co84 O88 2.004 . S
Co84 O94 2.021 . S
Co84 O96 2.137 . S
Co84 O97 2.244 . S
O85 Co84 2.216 . S
O85 C92 1.247 . S
O86 Co84 2.091 . S
O86 C92 1.261 . S
C87 O96 1.247 . S
C87 O97 1.272 . S
O88 Co84 2.004 . S
O88 C93 1.259 . S
Co89 O90 2.061 . S
Co89 O95 2.052 . S
Co89 O97 2.135 . S
O90 Co89 2.061 . S
O90 C93 1.235 . S
C91 O94 1.238 . S
C91 O95 1.241 . S
C92 O85 1.247 . S
C92 O86 1.261 . S
C93 O88 1.259 . S
C93 O90 1.235 . S
O94 Co84 2.021 . S
O94 C91 1.238 . S
O95 Co89 2.052 . S
O95 C91 1.241 . S
O96 Co84 2.137 . S
O96 C87 1.247 . S
O97 Co84 2.244 . S
O97 C87 1.272 . S
O97 Co89 2.135 . S
Co98 O99 2.216 1_455 S
Co98 O100 2.091 1_455 S
Co98 O102 2.004 . S
Co98 O108 2.021 . S
Co98 O110 2.137 1_455 S
Co98 O111 2.244 . S
O99 Co98 2.216 1_655 S
O99 C106 1.247 . S
O100 Co98 2.091 1_655 S
O100 C106 1.261 . S
C101 O110 1.247 . S
C101 O111 1.272 1_655 S
O102 Co98 2.004 . S
O102 C107 1.259 . S
Co103 O104 2.061 . S
Co103 O109 2.052 . S
Co103 O111 2.135 . S
O104 Co103 2.061 . S
O104 C107 1.235 . S
C105 O108 1.238 . S
C105 O109 1.241 . S
C106 O99 1.247 . S
C106 O100 1.261 . S
C107 O102 1.259 . S
C107 O104 1.235 . S
O108 Co98 2.021 . S
O108 C105 1.238 . S
O109 Co103 2.052 . S
O109 C105 1.241 . S
O110 Co98 2.137 1_655 S
O110 C101 1.247 . S
O111 Co98 2.244 . S
O111 C101 1.272 1_455 S
O111 Co103 2.135 . S
Co112 O113 2.216 1_565 S
Co112 O114 2.091 . S
Co112 O116 2.004 . S
Co112 O122 2.021 1_565 S
Co112 O124 2.137 . S
Co112 O125 2.244 1_565 S
O113 Co112 2.216 1_545 S
O113 C120 1.247 1_545 S
O114 Co112 2.091 . S
O114 C120 1.261 . S
C115 O124 1.247 1_545 S
C115 O125 1.272 . S
O116 Co112 2.004 . S
O116 C121 1.259 . S
Co117 O118 2.061 . S
Co117 O123 2.052 . S
Co117 O125 2.135 . S
O118 Co117 2.061 . S
O118 C121 1.235 1_545 S
C119 O122 1.238 . S
C119 O123 1.241 . S
C120 O113 1.247 1_565 S
C120 O114 1.261 . S
C121 O116 1.259 . S
C121 O118 1.235 1_565 S
O122 Co112 2.021 1_545 S
O122 C119 1.238 . S
O123 Co117 2.052 . S
O123 C119 1.241 . S
O124 Co112 2.137 . S
O124 C115 1.247 1_565 S
O125 Co112 2.244 1_545 S
O125 C115 1.272 . S
O125 Co117 2.135 . S
Co126 O127 2.216 . S
Co126 O128 2.091 . S
Co126 O130 2.004 . S
Co126 O136 2.021 . S
Co126 O138 2.137 . S
Co126 O139 2.244 . S
O127 Co126 2.216 . S
O127 C134 1.247 . S
O128 Co126 2.091 . S
O128 C134 1.261 . S
C129 O138 1.247 . S
C129 O139 1.272 . S
O130 Co126 2.004 . S
O130 C135 1.259 . S
Co131 O132 2.061 . S
Co131 O137 2.052 . S
Co131 O139 2.135 . S
O132 Co131 2.061 . S
O132 C135 1.235 . S
C133 O136 1.238 . S
C133 O137 1.241 . S
C134 O127 1.247 . S
C134 O128 1.261 . S
C135 O130 1.259 . S
C135 O132 1.235 . S
O136 Co126 2.021 . S
O136 C133 1.238 . S
O137 Co131 2.052 . S
O137 C133 1.241 . S
O138 Co126 2.137 . S
O138 C129 1.247 . S
O139 Co126 2.244 . S
O139 C129 1.272 . S
O139 Co131 2.135 . S
Co140 O141 2.216 . S
Co140 O142 2.091 1_545 S
Co140 O144 2.006 . S
Co140 O150 2.021 . S
Co140 O152 2.137 . S
Co140 O153 2.244 . S
O141 Co140 2.216 . S
O141 C148 1.247 . S
O142 Co140 2.091 1_565 S
O142 C148 1.261 1_565 S
C143 O152 1.247 . S
C143 O153 1.272 . S
O144 Co140 2.006 . S
O144 C149 1.261 . S
Co145 O146 2.061 . S
Co145 O151 2.052 . S
Co145 O153 2.135 . S
O146 Co145 2.061 . S
O146 C149 1.235 . S
C147 O150 1.238 . S
C147 O151 1.241 . S
C148 O141 1.247 . S
C148 O142 1.261 1_545 S
C149 O144 1.261 . S
C149 O146 1.235 . S
O150 Co140 2.021 . S
O150 C147 1.238 . S
O151 Co145 2.052 . S
O151 C147 1.241 . S
O152 Co140 2.137 . S
O152 C143 1.247 . S
O153 Co140 2.244 . S
O153 C143 1.272 . S
O153 Co145 2.135 . S
Co154 O155 2.216 . S
Co154 O156 2.091 . S
Co154 O158 2.004 1_554 S
Co154 O164 2.021 1_554 S
Co154 O166 2.137 . S
Co154 O167 2.244 . S
O155 Co154 2.216 . S
O155 C162 1.247 . S
O156 Co154 2.091 . S
O156 C162 1.261 . S
C157 O166 1.247 . S
C157 O167 1.272 . S
O158 Co154 2.004 1_556 S
O158 C163 1.259 . S
Co159 O160 2.061 . S
Co159 O165 2.052 . S
Co159 O167 2.135 1_556 S
O160 Co159 2.061 . S
O160 C163 1.235 . S
C161 O164 1.238 . S
C161 O165 1.241 . S
C162 O155 1.247 . S
C162 O156 1.261 . S
C163 O158 1.259 . S
C163 O160 1.235 . S
O164 Co154 2.021 1_556 S
O164 C161 1.238 . S
O165 Co159 2.052 . S
O165 C161 1.241 . S
O166 Co154 2.137 . S
O166 C157 1.247 . S
O167 Co154 2.244 . S
O167 C157 1.272 . S
O167 Co159 2.135 1_554 S
Co168 O169 2.216 1_556 S
Co168 O170 2.091 . S
Co168 O172 2.004 . S
Co168 O178 2.021 1_556 S
Co168 O180 2.137 . S
Co168 O181 2.244 1_556 S
O169 Co168 2.216 1_554 S
O169 C176 1.247 1_554 S
O170 Co168 2.091 . S
O170 C176 1.261 . S
C171 O180 1.247 1_554 S
C171 O181 1.272 . S
O172 Co168 2.004 . S
O172 C177 1.259 . S
Co173 O174 2.061 . S
Co173 O179 2.052 . S
Co173 O181 2.135 . S
O174 Co173 2.061 . S
O174 C177 1.235 1_554 S
C175 O178 1.238 . S
C175 O179 1.241 . S
C176 O169 1.247 1_556 S
C176 O170 1.261 . S
C177 O172 1.259 . S
C177 O174 1.235 1_556 S
O178 Co168 2.021 1_554 S
O178 C175 1.238 . S
O179 Co173 2.052 . S
O179 C175 1.241 . S
O180 Co168 2.137 . S
O180 C171 1.247 1_556 S
O181 Co168 2.244 1_554 S
O181 C171 1.272 . S
O181 Co173 2.135 . S
Co182 O183 2.216 1_556 S
Co182 O184 2.091 . S
Co182 O186 2.004 . S
Co182 O192 2.021 1_556 S
Co182 O194 2.137 . S
Co182 O195 2.244 1_556 S
O183 Co182 2.216 1_554 S
O183 C190 1.247 1_554 S
O184 Co182 2.091 . S
O184 C190 1.261 . S
C185 O194 1.247 1_554 S
C185 O195 1.272 . S
O186 Co182 2.004 . S
O186 C191 1.259 . S
Co187 O188 2.061 . S
Co187 O193 2.052 . S
Co187 O195 2.135 . S
O188 Co187 2.061 . S
O188 C191 1.235 1_554 S
C189 O192 1.238 . S
C189 O193 1.241 . S
C190 O183 1.247 1_556 S
C190 O184 1.261 . S
C191 O186 1.259 . S
C191 O188 1.235 1_556 S
O192 Co182 2.021 1_554 S
O192 C189 1.238 . S
O193 Co187 2.052 . S
O193 C189 1.241 . S
O194 Co182 2.137 . S
O194 C185 1.247 1_556 S
O195 Co182 2.244 1_554 S
O195 C185 1.272 . S
O195 Co187 2.135 . S
Co196 O197 2.216 . S
Co196 O198 2.091 . S
Co196 O200 2.004 . S
Co196 O206 2.021 . S
Co196 O208 2.137 . S
Co196 O209 2.244 . S
O197 Co196 2.216 . S
O197 C204 1.247 . S
O198 Co196 2.091 . S
O198 C204 1.261 . S
C199 O208 1.247 . S
C199 O209 1.272 . S
O200 Co196 2.004 . S
O200 C205 1.259 . S
Co201 O202 2.061 . S
Co201 O207 2.052 . S
Co201 O209 2.135 . S
O202 Co201 2.061 . S
O202 C205 1.235 . S
C203 O206 1.238 . S
C203 O207 1.241 . S
C204 O197 1.247 . S
C204 O198 1.261 . S
C205 O200 1.259 . S
C205 O202 1.235 . S
O206 Co196 2.021 . S
O206 C203 1.238 . S
O207 Co201 2.052 . S
O207 C203 1.241 . S
O208 Co196 2.137 . S
O208 C199 1.247 . S
O209 Co196 2.244 . S
O209 C199 1.272 . S
O209 Co201 2.135 . S
Co210 O211 2.216 . S
Co210 O212 2.091 . S
Co210 O214 2.004 . S
Co210 O220 2.021 . S
Co210 O222 2.137 . S
Co210 O223 2.244 . S
O211 Co210 2.216 . S
O211 C218 1.247 . S
O212 Co210 2.091 . S
O212 C218 1.261 . S
C213 O222 1.247 . S
C213 O223 1.272 . S
O214 Co210 2.004 . S
O214 C219 1.259 . S
Co215 O216 2.061 . S
Co215 O221 2.052 . S
Co215 O223 2.135 . S
O216 Co215 2.061 . S
O216 C219 1.235 . S
C217 O220 1.238 . S
C217 O221 1.241 . S
C218 O211 1.247 . S
C218 O212 1.261 . S
C219 O214 1.259 . S
C219 O216 1.235 . S
O220 Co210 2.021 . S
O220 C217 1.238 . S
O221 Co215 2.052 . S
O221 C217 1.241 . S
O222 Co210 2.137 . S
O222 C213 1.247 . S
O223 Co210 2.244 . S
O223 C213 1.272 . S
O223 Co215 2.135 . S
Co224 O225 2.216 . S
Co224 O226 2.091 . S
Co224 O228 2.004 1_565 S
Co224 O234 2.021 1_565 S
Co224 O236 2.137 . S
Co224 O237 2.244 . S
O225 Co224 2.216 . S
O225 C232 1.247 . S
O226 Co224 2.091 . S
O226 C232 1.261 . S
C227 O236 1.247 . S
C227 O237 1.272 . S
O228 Co224 2.004 1_545 S
O228 C233 1.259 . S
Co229 O230 2.061 . S
Co229 O235 2.052 . S
Co229 O237 2.135 1_545 S
O230 Co229 2.061 . S
O230 C233 1.235 . S
C231 O234 1.238 . S
C231 O235 1.241 . S
C232 O225 1.247 . S
C232 O226 1.261 . S
C233 O228 1.259 . S
C233 O230 1.235 . S
O234 Co224 2.021 1_545 S
O234 C231 1.238 . S
O235 Co229 2.052 . S
O235 C231 1.241 . S
O236 Co224 2.137 . S
O236 C227 1.247 . S
O237 Co224 2.244 . S
O237 C227 1.272 . S
O237 Co229 2.135 1_565 S
Co238 O239 2.216 . S
Co238 O240 2.091 . S
Co238 O242 2.004 . S
Co238 O248 2.021 . S
Co238 O250 2.137 . S
Co238 O251 2.244 . S
O239 Co238 2.216 . S
O239 C246 1.247 . S
O240 Co238 2.091 . S
O240 C246 1.261 . S
C241 O250 1.247 . S
C241 O251 1.272 . S
O242 Co238 2.004 . S
O242 C247 1.259 . S
Co243 O244 2.061 . S
Co243 O249 2.052 . S
Co243 O251 2.135 . S
O244 Co243 2.061 . S
O244 C247 1.235 . S
C245 O248 1.238 . S
C245 O249 1.241 . S
C246 O239 1.247 . S
C246 O240 1.261 . S
C247 O242 1.259 . S
C247 O244 1.235 . S
O248 Co238 2.021 . S
O248 C245 1.238 . S
O249 Co243 2.052 . S
O249 C245 1.241 . S
O250 Co238 2.137 . S
O250 C241 1.247 . S
O251 Co238 2.244 . S
O251 C241 1.272 . S
O251 Co243 2.135 . S
Co252 O253 2.216 . S
Co252 O254 2.091 . S
Co252 O256 2.004 . S
Co252 O262 2.021 . S
Co252 O264 2.137 . S
Co252 O265 2.244 . S
O253 Co252 2.216 . S
O253 C260 1.247 . S
O254 Co252 2.091 . S
O254 C260 1.261 . S
C255 O264 1.247 . S
C255 O265 1.272 . S
O256 Co252 2.004 . S
O256 C261 1.259 . S
Co257 O258 2.061 . S
Co257 O263 2.052 . S
Co257 O265 2.135 . S
O258 Co257 2.061 . S
O258 C261 1.235 . S
C259 O262 1.238 . S
C259 O263 1.241 . S
C260 O253 1.247 . S
C260 O254 1.261 . S
C261 O256 1.259 . S
C261 O258 1.235 . S
O262 Co252 2.021 . S
O262 C259 1.238 . S
O263 Co257 2.052 . S
O263 C259 1.241 . S
O264 Co252 2.137 . S
O264 C255 1.247 . S
O265 Co252 2.244 . S
O265 C255 1.272 . S
O265 Co257 2.135 . S
Co266 O267 2.216 1_545 S
Co266 O268 2.091 . S
Co266 O270 2.004 . S
Co266 O276 2.021 . S
Co266 O278 2.137 1_545 S
Co266 O279 2.244 . S
O267 Co266 2.216 1_565 S
O267 C274 1.247 . S
O268 Co266 2.091 . S
O268 C274 1.261 1_545 S
C269 O278 1.247 . S
C269 O279 1.272 1_565 S
O270 Co266 2.004 . S
O270 C275 1.259 . S
Co271 O272 2.061 . S
Co271 O277 2.052 . S
Co271 O279 2.135 . S
O272 Co271 2.061 . S
O272 C275 1.235 . S
C273 O276 1.238 . S
C273 O277 1.241 . S
C274 O267 1.247 . S
C274 O268 1.261 1_565 S
C275 O270 1.259 . S
C275 O272 1.235 . S
O276 Co266 2.021 . S
O276 C273 1.238 . S
O277 Co271 2.052 . S
O277 C273 1.241 . S
O278 Co266 2.137 1_565 S
O278 C269 1.247 . S
O279 Co266 2.244 . S
O279 C269 1.272 1_545 S
O279 Co271 2.135 . S
Co280 O281 2.216 . S
Co280 O282 2.091 . S
Co280 O284 2.004 1_554 S
Co280 O290 2.021 1_554 S
Co280 O292 2.137 . S
Co280 O293 2.244 . S
O281 Co280 2.216 . S
O281 C288 1.247 . S
O282 Co280 2.091 . S
O282 C288 1.261 . S
C283 O292 1.247 . S
C283 O293 1.272 . S
O284 Co280 2.004 1_556 S
O284 C289 1.259 . S
Co285 O286 2.061 . S
Co285 O291 2.052 . S
Co285 O293 2.135 1_556 S
O286 Co285 2.061 . S
O286 C289 1.235 . S
C287 O290 1.238 . S
C287 O291 1.241 . S
C288 O281 1.247 . S
C288 O282 1.261 . S
C289 O284 1.259 . S
C289 O286 1.235 . S
O290 Co280 2.021 1_556 S
O290 C287 1.238 . S
O291 Co285 2.052 . S
O291 C287 1.241 . S
O292 Co280 2.137 . S
O292 C283 1.247 . S
O293 Co280 2.244 . S
O293 C283 1.272 . S
O293 Co285 2.135 1_554 S
Co294 O295 2.216 . S
Co294 O296 2.091 . S
Co294 O298 2.004 . S
Co294 O304 2.021 . S
Co294 O306 2.137 . S
Co294 O307 2.244 . S
O295 Co294 2.216 . S
O295 C302 1.247 . S
O296 Co294 2.091 . S
O296 C302 1.261 . S
C297 O306 1.247 . S
C297 O307 1.272 . S
O298 Co294 2.004 . S
O298 C303 1.259 . S
Co299 O300 2.061 . S
Co299 O305 2.052 . S
Co299 O307 2.135 . S
O300 Co299 2.061 . S
O300 C303 1.235 . S
C301 O304 1.238 . S
C301 O305 1.241 . S
C302 O295 1.247 . S
C302 O296 1.261 . S
C303 O298 1.259 . S
C303 O300 1.235 . S
O304 Co294 2.021 . S
O304 C301 1.238 . S
O305 Co299 2.052 . S
O305 C301 1.241 . S
O306 Co294 2.137 . S
O306 C297 1.247 . S
O307 Co294 2.244 . S
O307 C297 1.272 . S
O307 Co299 2.135 . S
Co308 O309 2.216 . S
Co308 O310 2.091 . S
Co308 O312 2.004 . S
Co308 O318 2.021 . S
Co308 O320 2.137 . S
Co308 O321 2.244 . S
O309 Co308 2.216 . S
O309 C316 1.247 . S
O310 Co308 2.091 . S
O310 C316 1.261 . S
C311 O320 1.247 . S
C311 O321 1.272 . S
O312 Co308 2.004 . S
O312 C317 1.259 . S
Co313 O314 2.061 . S
Co313 O319 2.052 . S
Co313 O321 2.135 . S
O314 Co313 2.061 . S
O314 C317 1.235 . S
C315 O318 1.238 . S
C315 O319 1.241 . S
C316 O309 1.247 . S
C316 O310 1.261 . S
C317 O312 1.259 . S
C317 O314 1.235 . S
O318 Co308 2.021 . S
O318 C315 1.238 . S
O319 Co313 2.052 . S
O319 C315 1.241 . S
O320 Co308 2.137 . S
O320 C311 1.247 . S
O321 Co308 2.244 . S
O321 C311 1.272 . S
O321 Co313 2.135 . S
Co322 O323 2.216 . S
Co322 O324 2.091 . S
Co322 O326 2.004 . S
Co322 O332 2.021 . S
Co322 O334 2.137 . S
Co322 O335 2.244 . S
O323 Co322 2.216 . S
O323 C330 1.247 . S
O324 Co322 2.091 . S
O324 C330 1.261 . S
C325 O334 1.247 . S
C325 O335 1.272 . S
O326 Co322 2.004 . S
O326 C331 1.259 . S
Co327 O328 2.061 . S
Co327 O333 2.052 . S
Co327 O335 2.135 . S
O328 Co327 2.061 . S
O328 C331 1.235 . S
C329 O332 1.238 . S
C329 O333 1.241 . S
C330 O323 1.247 . S
C330 O324 1.261 . S
C331 O326 1.259 . S
C331 O328 1.235 . S
O332 Co322 2.021 . S
O332 C329 1.238 . S
O333 Co327 2.052 . S
O333 C329 1.241 . S
O334 Co322 2.137 . S
O334 C325 1.247 . S
O335 Co322 2.244 . S
O335 C325 1.272 . S
O335 Co327 2.135 . S
O336 Mn337 2.163 . S
O336 C350 1.244 . S
Mn337 O336 2.163 . S
Mn337 O340 2.160 . S
Mn337 O341 2.221 . S
Mn337 O343 2.163 . S
Mn337 O345 2.160 . S
Mn337 O355 2.221 . S
O338 Mn339 2.087 . S
O338 C350 1.256 . S
Mn339 O338 2.087 . S
Mn339 O346 2.089 . S
Mn339 O355 2.290 . S
Mn339 O356 2.251 . S
O340 Mn337 2.160 . S
O340 C351 1.239 . S
O341 Mn337 2.221 . S
O341 Mn342 2.290 . S
O341 C352 1.278 . S
Mn342 O341 2.290 . S
Mn342 O344 2.089 . S
Mn342 O347 2.251 1_554 S
Mn342 O348 2.087 . S
O343 Mn337 2.163 . S
O343 C353 1.244 . S
O344 Mn342 2.089 . S
O344 C351 1.256 . S
O345 Mn337 2.160 . S
O345 C354 1.239 . S
O346 Mn339 2.089 . S
O346 C354 1.256 . S
O347 Mn342 2.251 1_556 S
O347 C352 1.241 1_556 S
O348 Mn342 2.087 . S
O348 C353 1.256 . S
C349 O355 1.278 . S
C349 O356 1.241 . S
C350 O336 1.244 . S
C350 O338 1.256 . S
C351 O340 1.239 . S
C351 O344 1.256 . S
C352 O341 1.278 . S
C352 O347 1.241 1_554 S
C353 O343 1.244 . S
C353 O348 1.256 . S
C354 O345 1.239 . S
C354 O346 1.256 . S
O355 Mn337 2.221 . S
O355 Mn339 2.290 . S
O355 C349 1.278 . S
O356 Mn339 2.251 . S
O356 C349 1.241 . S
O357 Mn358 2.163 . S
O357 C371 1.244 . S
Mn358 O357 2.163 . S
Mn358 O361 2.160 . S
Mn358 O362 2.221 . S
Mn358 O364 2.163 . S
Mn358 O366 2.160 . S
Mn358 O376 2.221 . S
O359 Mn360 2.087 . S
O359 C371 1.256 . S
Mn360 O359 2.087 . S
Mn360 O367 2.089 . S
Mn360 O376 2.290 . S
Mn360 O377 2.251 . S
O361 Mn358 2.160 . S
O361 C372 1.239 . S
O362 Mn358 2.221 . S
O362 Mn363 2.288 1_565 S
O362 C373 1.278 . S
Mn363 O362 2.288 1_545 S
Mn363 O365 2.089 . S
Mn363 O368 2.251 1_445 S
Mn363 O369 2.079 1_445 S
O364 Mn358 2.163 . S
O364 C374 1.244 . S
O365 Mn363 2.089 . S
O365 C372 1.256 1_545 S
O366 Mn358 2.160 . S
O366 C375 1.239 . S
O367 Mn360 2.089 . S
O367 C375 1.256 . S
O368 Mn363 2.251 1_665 S
O368 C373 1.241 1_655 S
O369 Mn363 2.079 1_665 S
O369 C374 1.256 1_655 S
C370 O376 1.278 . S
C370 O377 1.241 . S
C371 O357 1.244 . S
C371 O359 1.256 . S
C372 O361 1.239 . S
C372 O365 1.256 1_565 S
C373 O362 1.278 . S
C373 O368 1.241 1_455 S
C374 O364 1.244 . S
C374 O369 1.256 1_455 S
C375 O366 1.239 . S
C375 O367 1.256 . S
O376 Mn358 2.221 . S
O376 Mn360 2.290 . S
O376 C370 1.278 . S
O377 Mn360 2.251 . S
O377 C370 1.241 . S
O378 Mn379 2.163 . S
O378 C392 1.244 1_565 S
Mn379 O378 2.163 . S
Mn379 O382 2.160 . S
Mn379 O383 2.221 . S
Mn379 O385 2.163 . S
Mn379 O387 2.160 . S
Mn379 O397 2.221 . S
O380 Mn381 2.087 . S
O380 C392 1.256 . S
Mn381 O380 2.087 . S
Mn381 O388 2.089 1_545 S
Mn381 O397 2.290 1_545 S
Mn381 O398 2.251 . S
O382 Mn379 2.160 . S
O382 C393 1.239 . S
O383 Mn379 2.221 . S
O383 Mn384 2.290 . S
O383 C394 1.278 . S
Mn384 O383 2.290 . S
Mn384 O386 2.089 . S
Mn384 O389 2.251 . S
Mn384 O390 2.087 . S
O385 Mn379 2.163 . S
O385 C395 1.244 . S
O386 Mn384 2.089 . S
O386 C393 1.256 . S
O387 Mn379 2.160 . S
O387 C396 1.239 . S
O388 Mn381 2.089 1_565 S
O388 C396 1.256 . S
O389 Mn384 2.251 . S
O389 C394 1.241 . S
O390 Mn384 2.087 . S
O390 C395 1.256 . S
C391 O397 1.278 1_545 S
C391 O398 1.241 . S
C392 O378 1.244 1_545 S
C392 O380 1.256 . S
C393 O382 1.239 . S
C393 O386 1.256 . S
C394 O383 1.278 . S
C394 O389 1.241 . S
C395 O385 1.244 . S
C395 O390 1.256 . S
C396 O387 1.239 . S
C396 O388 1.256 . S
O397 Mn379 2.221 . S
O397 Mn381 2.290 1_565 S
O397 C391 1.278 1_565 S
O398 Mn381 2.251 . S
O398 C391 1.241 . S
O399 Mn400 2.163 . S
O399 C413 1.244 . S
Mn400 O399 2.163 . S
Mn400 O403 2.160 . S
Mn400 O404 2.221 . S
Mn400 O406 2.163 . S
Mn400 O408 2.160 . S
Mn400 O418 2.221 . S
O401 Mn402 2.087 . S
O401 C413 1.256 . S
Mn402 O401 2.087 . S
Mn402 O409 2.089 1_556 S
Mn402 O418 2.290 . S
Mn402 O419 2.251 . S
O403 Mn400 2.160 . S
O403 C414 1.239 . S
O404 Mn400 2.221 . S
O404 Mn405 2.290 . S
O404 C415 1.278 . S
Mn405 O404 2.290 . S
Mn405 O407 2.089 . S
Mn405 O410 2.251 . S
Mn405 O411 2.087 . S
O406 Mn400 2.163 . S
O406 C416 1.244 . S
O407 Mn405 2.089 . S
O407 C414 1.256 . S
O408 Mn400 2.160 . S
O408 C417 1.239 . S
O409 Mn402 2.089 1_554 S
O409 C417 1.256 1_554 S
O410 Mn405 2.251 . S
O410 C415 1.241 . S
O411 Mn405 2.087 . S
O411 C416 1.256 . S
C412 O418 1.278 . S
C412 O419 1.241 . S
C413 O399 1.244 . S
C413 O401 1.256 . S
C414 O403 1.239 . S
C414 O407 1.256 . S
C415 O404 1.278 . S
C415 O410 1.241 . S
C416 O406 1.244 . S
C416 O411 1.256 . S
C417 O408 1.239 . S
C417 O409 1.256 1_556 S
O418 Mn400 2.221 . S
O418 Mn402 2.290 . S
O418 C412 1.278 . S
O419 Mn402 2.251 . S
O419 C412 1.241 . S
O420 Mn421 2.163 . S
O420 C434 1.244 . S
Mn421 O420 2.163 . S
Mn421 O424 2.160 . S
Mn421 O425 2.221 . S
Mn421 O427 2.163 . S
Mn421 O429 2.160 . S
Mn421 O439 2.221 . S
O422 Mn423 2.087 . S
O422 C434 1.256 . S
Mn423 O422 2.087 . S
Mn423 O430 2.089 . S
Mn423 O439 2.290 . S
Mn423 O440 2.251 . S
O424 Mn421 2.160 . S
O424 C435 1.239 . S
O425 Mn421 2.221 . S
O425 Mn426 2.290 . S
O425 C436 1.278 . S
Mn426 O425 2.290 . S
Mn426 O428 2.089 1_556 S
Mn426 O431 2.251 . S
Mn426 O432 2.087 . S
O427 Mn421 2.163 . S
O427 C437 1.244 . S
O428 Mn426 2.089 1_554 S
O428 C435 1.256 1_554 S
O429 Mn421 2.160 . S
O429 C438 1.239 . S
O430 Mn423 2.089 . S
O430 C438 1.256 . S
O431 Mn426 2.251 . S
O431 C436 1.241 . S
O432 Mn426 2.087 . S
O432 C437 1.256 . S
C433 O439 1.278 . S
C433 O440 1.241 . S
C434 O420 1.244 . S
C434 O422 1.256 . S
C435 O424 1.239 . S
C435 O428 1.256 1_556 S
C436 O425 1.278 . S
C436 O431 1.241 . S
C437 O427 1.244 . S
C437 O432 1.256 . S
C438 O429 1.239 . S
C438 O430 1.256 . S
O439 Mn421 2.221 . S
O439 Mn423 2.290 . S
O439 C433 1.278 . S
O440 Mn423 2.251 . S
O440 C433 1.241 . S
O441 Mn442 2.163 . S
O441 C455 1.244 . S
Mn442 O441 2.163 . S
Mn442 O445 2.160 . S
Mn442 O446 2.221 . S
Mn442 O448 2.163 . S
Mn442 O450 2.160 . S
Mn442 O460 2.221 . S
O443 Mn444 2.087 . S
O443 C455 1.256 . S
Mn444 O443 2.087 . S
Mn444 O451 2.089 1_655 S
Mn444 O460 2.290 . S
Mn444 O461 2.251 . S
O445 Mn442 2.160 . S
O445 C456 1.239 . S
O446 Mn442 2.221 . S
O446 Mn447 2.290 . S
O446 C457 1.278 . S
Mn447 O446 2.290 . S
Mn447 O449 2.089 . S
Mn447 O452 2.251 . S
Mn447 O453 2.087 . S
O448 Mn442 2.163 . S
O448 C458 1.244 . S
O449 Mn447 2.089 . S
O449 C456 1.256 . S
O450 Mn442 2.160 . S
O450 C459 1.239 1_655 S
O451 Mn444 2.089 1_455 S
O451 C459 1.256 . S
O452 Mn447 2.251 . S
O452 C457 1.241 . S
O453 Mn447 2.087 . S
O453 C458 1.256 . S
C454 O460 1.278 . S
C454 O461 1.241 . S
C455 O441 1.244 . S
C455 O443 1.256 . S
C456 O445 1.239 . S
C456 O449 1.256 . S
C457 O446 1.278 . S
C457 O452 1.241 . S
C458 O448 1.244 . S
C458 O453 1.256 . S
C459 O450 1.239 1_455 S
C459 O451 1.256 . S
O460 Mn442 2.221 . S
O460 Mn444 2.290 . S
O460 C454 1.278 . S
O461 Mn444 2.251 . S
O461 C454 1.241 . S
O462 Mn463 2.163 . S
O462 C476 1.244 . S
Mn463 O462 2.163 . S
Mn463 O466 2.160 . S
Mn463 O467 2.221 . S
Mn463 O469 2.163 . S
Mn463 O471 2.160 . S
Mn463 O481 2.221 . S
O464 Mn465 2.085 1_455 S
O464 C476 1.247 1_455 S
Mn465 O464 2.085 1_655 S
Mn465 O472 2.089 . S
Mn465 O481 2.290 . S
Mn465 O482 2.251 1_655 S
O466 Mn463 2.160 . S
O466 C477 1.239 . S
O467 Mn463 2.221 . S
O467 Mn468 2.290 . S
O467 C478 1.278 . S
Mn468 O467 2.290 . S
Mn468 O470 2.089 . S
Mn468 O473 2.251 . S
Mn468 O474 2.087 . S
O469 Mn463 2.163 . S
O469 C479 1.244 . S
O470 Mn468 2.089 . S
O470 C477 1.256 . S
O471 Mn463 2.160 . S
O471 C480 1.239 . S
O472 Mn465 2.089 . S
O472 C480 1.256 . S
O473 Mn468 2.251 . S
O473 C478 1.241 . S
O474 Mn468 2.087 . S
O474 C479 1.256 . S
C475 O481 1.278 . S
C475 O482 1.241 1_655 S
C476 O462 1.244 . S
C476 O464 1.247 1_655 S
C477 O466 1.239 . S
C477 O470 1.256 . S
C478 O467 1.278 . S
C478 O473 1.241 . S
C479 O469 1.244 . S
C479 O474 1.256 . S
C480 O471 1.239 . S
C480 O472 1.256 . S
O481 Mn463 2.221 . S
O481 Mn465 2.290 . S
O481 C475 1.278 . S
O482 Mn465 2.251 1_455 S
O482 C475 1.241 1_455 S
O483 Mn484 2.163 . S
O483 C497 1.244 . S
Mn484 O483 2.163 . S
Mn484 O487 2.160 . S
Mn484 O488 2.221 . S
Mn484 O490 2.163 . S
Mn484 O492 2.160 . S
Mn484 O502 2.221 . S
O485 Mn486 2.087 . S
O485 C497 1.256 . S
Mn486 O485 2.087 . S
Mn486 O493 2.089 . S
Mn486 O502 2.290 . S
Mn486 O503 2.251 . S
O487 Mn484 2.160 . S
O487 C498 1.239 1_565 S
O488 Mn484 2.221 . S
O488 Mn489 2.290 1_565 S
O488 C499 1.278 1_556 S
Mn489 O488 2.290 1_545 S
Mn489 O491 2.089 . S
Mn489 O494 2.251 1_546 S
Mn489 O495 2.087 1_556 S
O490 Mn484 2.163 . S
O490 C500 1.244 1_565 S
O491 Mn489 2.089 . S
O491 C498 1.256 . S
O492 Mn484 2.160 . S
O492 C501 1.239 . S
O493 Mn486 2.089 . S
O493 C501 1.256 . S
O494 Mn489 2.251 1_564 S
O494 C499 1.240 . S
O495 Mn489 2.087 1_554 S
O495 C500 1.256 1_554 S
C496 O502 1.278 . S
C496 O503 1.241 . S
C497 O483 1.244 . S
C497 O485 1.256 . S
C498 O487 1.239 1_545 S
C498 O491 1.256 . S
C499 O488 1.278 1_554 S
C499 O494 1.240 . S
C500 O490 1.244 1_545 S
C500 O495 1.256 1_556 S
C501 O492 1.239 . S
C501 O493 1.256 . S
O502 Mn484 2.221 . S
O502 Mn486 2.290 . S
O502 C496 1.278 . S
O503 Mn486 2.251 . S
O503 C496 1.241 . S
O504 Mn505 2.163 . S
O504 C518 1.244 . S
Mn505 O504 2.163 . S
Mn505 O508 2.160 . S
Mn505 O509 2.221 . S
Mn505 O511 2.163 . S
Mn505 O513 2.160 . S
Mn505 O523 2.221 . S
O506 Mn507 2.087 . S
O506 C518 1.256 . S
Mn507 O506 2.087 . S
Mn507 O514 2.089 . S
Mn507 O523 2.290 . S
Mn507 O524 2.251 . S
O508 Mn505 2.160 . S
O508 C519 1.239 . S
O509 Mn505 2.221 . S
O509 Mn510 2.290 . S
O509 C520 1.278 1_655 S
Mn510 O509 2.290 . S
Mn510 O512 2.089 . S
Mn510 O515 2.251 1_655 S
Mn510 O516 2.087 1_655 S
O511 Mn505 2.163 . S
O511 C521 1.244 . S
O512 Mn510 2.089 . S
O512 C519 1.256 . S
O513 Mn505 2.160 . S
O513 C522 1.239 . S
O514 Mn507 2.089 . S
O514 C522 1.256 . S
O515 Mn510 2.251 1_455 S
O515 C520 1.241 . S
O516 Mn510 2.087 1_455 S
O516 C521 1.256 1_455 S
C517 O523 1.278 . S
C517 O524 1.241 . S
C518 O504 1.244 . S
C518 O506 1.256 . S
C519 O508 1.239 . S
C519 O512 1.256 . S
C520 O509 1.278 1_455 S
C520 O515 1.241 . S
C521 O511 1.244 . S
C521 O516 1.256 1_655 S
C522 O513 1.239 . S
C522 O514 1.256 . S
O523 Mn505 2.221 . S
O523 Mn507 2.290 . S
O523 C517 1.278 . S
O524 Mn507 2.251 . S
O524 C517 1.241 . S
O525 Mn526 2.163 . S
O525 C539 1.244 . S
Mn526 O525 2.163 . S
Mn526 O529 2.160 . S
Mn526 O530 2.221 . S
Mn526 O532 2.163 . S
Mn526 O534 2.160 . S
Mn526 O544 2.221 . S
O527 Mn528 2.087 . S
O527 C539 1.256 . S
Mn528 O527 2.087 . S
Mn528 O535 2.089 . S
Mn528 O544 2.290 . S
Mn528 O545 2.251 . S
O529 Mn526 2.160 . S
O529 C540 1.239 . S
O530 Mn526 2.221 . S
O530 Mn531 2.290 . S
O530 C541 1.278 . S
Mn531 O530 2.290 . S
Mn531 O533 2.089 . S
Mn531 O536 2.251 . S
Mn531 O537 2.087 . S
O532 Mn526 2.163 . S
O532 C542 1.244 . S
O533 Mn531 2.089 . S
O533 C540 1.256 . S
O534 Mn526 2.160 . S
O534 C543 1.239 . S
O535 Mn528 2.089 . S
O535 C543 1.256 . S
O536 Mn531 2.251 . S
O536 C541 1.241 . S
O537 Mn531 2.087 . S
O537 C542 1.256 . S
C538 O544 1.278 . S
C538 O545 1.241 . S
C539 O525 1.244 . S
C539 O527 1.256 . S
C540 O529 1.239 . S
C540 O533 1.256 . S
C541 O530 1.278 . S
C541 O536 1.241 . S
C542 O532 1.244 . S
C542 O537 1.256 . S
C543 O534 1.239 . S
C543 O535 1.256 . S
O544 Mn526 2.221 . S
O544 Mn528 2.290 . S
O544 C538 1.278 . S
O545 Mn528 2.251 . S
O545 C538 1.241 . S
O546 Mn547 2.163 . S
O546 C560 1.244 . S
Mn547 O546 2.163 . S
Mn547 O550 2.160 . S
Mn547 O551 2.221 . S
Mn547 O553 2.163 . S
Mn547 O555 2.160 . S
Mn547 O565 2.221 . S
O548 Mn549 2.087 1_565 S
O548 C560 1.256 . S
Mn549 O548 2.087 1_545 S
Mn549 O556 2.089 . S
Mn549 O565 2.290 1_545 S
Mn549 O566 2.251 1_545 S
O550 Mn547 2.160 . S
O550 C561 1.239 . S
O551 Mn547 2.221 . S
O551 Mn552 2.290 . S
O551 C562 1.278 . S
Mn552 O551 2.290 . S
Mn552 O554 2.089 . S
Mn552 O557 2.251 . S
Mn552 O558 2.087 . S
O553 Mn547 2.163 . S
O553 C563 1.244 . S
O554 Mn552 2.089 . S
O554 C561 1.256 . S
O555 Mn547 2.160 . S
O555 C564 1.250 . S
O556 Mn549 2.089 . S
O556 C564 1.251 1_545 S
O557 Mn552 2.251 . S
O557 C562 1.241 . S
O558 Mn552 2.087 . S
O558 C563 1.256 . S
C559 O565 1.278 . S
C559 O566 1.241 . S
C560 O546 1.244 . S
C560 O548 1.256 . S
C561 O550 1.239 . S
C561 O554 1.256 . S
C562 O551 1.278 . S
C562 O557 1.241 . S
C563 O553 1.244 . S
C563 O558 1.256 . S
C564 O555 1.250 . S
C564 O556 1.251 1_565 S
O565 Mn547 2.221 . S
O565 Mn549 2.290 1_565 S
O565 C559 1.278 . S
O566 Mn549 2.251 1_565 S
O566 C559 1.241 . S
O567 Mn568 2.163 . S
O567 C581 1.244 . S
Mn568 O567 2.163 . S
Mn568 O571 2.160 . S
Mn568 O572 2.221 . S
Mn568 O574 2.163 . S
Mn568 O576 2.160 . S
Mn568 O586 2.221 . S
O569 Mn570 2.087 . S
O569 C581 1.256 . S
Mn570 O569 2.087 . S
Mn570 O577 2.089 . S
Mn570 O586 2.290 . S
Mn570 O587 2.251 . S
O571 Mn568 2.160 . S
O571 C582 1.239 . S
O572 Mn568 2.221 . S
O572 Mn573 2.290 . S
O572 C583 1.278 . S
Mn573 O572 2.290 . S
Mn573 O575 2.089 . S
Mn573 O578 2.251 . S
Mn573 O579 2.087 . S
O574 Mn568 2.163 . S
O574 C584 1.244 . S
O575 Mn573 2.089 . S
O575 C582 1.256 . S
O576 Mn568 2.160 . S
O576 C585 1.239 . S
O577 Mn570 2.089 . S
O577 C585 1.256 . S
O578 Mn573 2.251 . S
O578 C583 1.241 . S
O579 Mn573 2.087 . S
O579 C584 1.256 . S
C580 O586 1.278 . S
C580 O587 1.241 . S
C581 O567 1.244 . S
C581 O569 1.256 . S
C582 O571 1.239 . S
C582 O575 1.256 . S
C583 O572 1.278 . S
C583 O578 1.241 . S
C584 O574 1.244 . S
C584 O579 1.256 . S
C585 O576 1.239 . S
C585 O577 1.256 . S
O586 Mn568 2.221 . S
O586 Mn570 2.290 . S
O586 C580 1.278 . S
O587 Mn570 2.251 . S
O587 C580 1.241 . S
O588 Mn589 2.163 . S
O588 C602 1.244 . S
Mn589 O588 2.163 . S
Mn589 O592 2.160 . S
Mn589 O593 2.221 . S
Mn589 O595 2.163 . S
Mn589 O597 2.160 . S
Mn589 O607 2.221 . S
O590 Mn591 2.087 . S
O590 C602 1.256 . S
Mn591 O590 2.087 . S
Mn591 O598 2.089 . S
Mn591 O607 2.290 . S
Mn591 O608 2.251 . S
O592 Mn589 2.160 . S
O592 C603 1.239 . S
O593 Mn589 2.221 . S
O593 Mn594 2.290 . S
O593 C604 1.278 . S
Mn594 O593 2.290 . S
Mn594 O596 2.089 . S
Mn594 O599 2.251 1_556 S
Mn594 O600 2.087 1_556 S
O595 Mn589 2.163 . S
O595 C605 1.244 . S
O596 Mn594 2.089 . S
O596 C603 1.256 . S
O597 Mn589 2.160 . S
O597 C606 1.239 . S
O598 Mn591 2.089 . S
O598 C606 1.256 . S
O599 Mn594 2.251 1_554 S
O599 C604 1.241 1_554 S
O600 Mn594 2.087 1_554 S
O600 C605 1.256 1_554 S
C601 O607 1.278 . S
C601 O608 1.241 . S
C602 O588 1.244 . S
C602 O590 1.256 . S
C603 O592 1.239 . S
C603 O596 1.256 . S
C604 O593 1.278 . S
C604 O599 1.241 1_556 S
C605 O595 1.244 . S
C605 O600 1.256 1_556 S
C606 O597 1.239 . S
C606 O598 1.256 . S
O607 Mn589 2.221 . S
O607 Mn591 2.290 . S
O607 C601 1.278 . S
O608 Mn591 2.251 . S
O608 C601 1.241 . S
O609 Mn610 2.163 . S
O609 C623 1.244 . S
Mn610 O609 2.163 . S
Mn610 O613 2.160 . S
Mn610 O614 2.221 . S
Mn610 O616 2.163 . S
Mn610 O618 2.160 . S
Mn610 O628 2.221 . S
O611 Mn612 2.087 . S
O611 C623 1.256 . S
Mn612 O611 2.087 . S
Mn612 O619 2.089 . S
Mn612 O628 2.290 . S
Mn612 O629 2.251 1_455 S
O613 Mn610 2.160 . S
O613 C624 1.239 . S
O614 Mn610 2.221 . S
O614 Mn615 2.290 . S
O614 C625 1.278 . S
Mn615 O614 2.290 . S
Mn615 O617 2.089 . S
Mn615 O620 2.251 . S
Mn615 O621 2.087 . S
O616 Mn610 2.163 . S
O616 C626 1.244 . S
O617 Mn615 2.089 . S
O617 C624 1.256 . S
O618 Mn610 2.160 . S
O618 C627 1.239 . S
O619 Mn612 2.089 . S
O619 C627 1.256 . S
O620 Mn615 2.251 . S
O620 C625 1.241 . S
O621 Mn615 2.087 . S
O621 C626 1.256 . S
C622 O628 1.278 . S
C622 O629 1.241 1_455 S
C623 O609 1.244 . S
C623 O611 1.256 . S
C624 O613 1.239 . S
C624 O617 1.256 . S
C625 O614 1.278 . S
C625 O620 1.241 . S
C626 O616 1.244 . S
C626 O621 1.256 . S
C627 O618 1.239 . S
C627 O619 1.256 . S
O628 Mn610 2.221 . S
O628 Mn612 2.290 . S
O628 C622 1.278 . S
O629 Mn612 2.251 1_655 S
O629 C622 1.241 1_655 S
O630 Mn631 2.163 . S
O630 C644 1.244 . S
Mn631 O630 2.163 . S
Mn631 O634 2.160 . S
Mn631 O635 2.221 . S
Mn631 O637 2.163 . S
Mn631 O639 2.160 . S
Mn631 O649 2.221 . S
O632 Mn633 2.087 . S
O632 C644 1.256 . S
Mn633 O632 2.087 . S
Mn633 O640 2.089 . S
Mn633 O649 2.290 . S
Mn633 O650 2.251 . S
O634 Mn631 2.160 . S
O634 C645 1.239 . S
O635 Mn631 2.221 . S
O635 Mn636 2.290 . S
O635 C646 1.278 . S
Mn636 O635 2.290 . S
Mn636 O638 2.089 . S
Mn636 O641 2.251 . S
Mn636 O642 2.087 . S
O637 Mn631 2.163 . S
O637 C647 1.244 . S
O638 Mn636 2.089 . S
O638 C645 1.256 . S
O639 Mn631 2.160 . S
O639 C648 1.239 . S
O640 Mn633 2.089 . S
O640 C648 1.256 . S
O641 Mn636 2.251 . S
O641 C646 1.241 . S
O642 Mn636 2.087 . S
O642 C647 1.256 . S
C643 O649 1.278 . S
C643 O650 1.241 . S
C644 O630 1.244 . S
C644 O632 1.256 . S
C645 O634 1.239 . S
C645 O638 1.256 . S
C646 O635 1.278 . S
C646 O641 1.241 . S
C647 O637 1.244 . S
C647 O642 1.256 . S
C648 O639 1.239 . S
C648 O640 1.256 . S
O649 Mn631 2.221 . S
O649 Mn633 2.290 . S
O649 C643 1.278 . S
O650 Mn633 2.251 . S
O650 C643 1.241 . S
O651 Mn652 2.163 . S
O651 C665 1.244 . S
Mn652 O651 2.163 . S
Mn652 O655 2.160 . S
Mn652 O656 2.221 . S
Mn652 O658 2.163 . S
Mn652 O660 2.160 . S
Mn652 O670 2.221 . S
O653 Mn654 2.087 . S
O653 C665 1.256 . S
Mn654 O653 2.087 . S
Mn654 O661 2.089 . S
Mn654 O670 2.290 . S
Mn654 O671 2.251 . S
O655 Mn652 2.160 . S
O655 C666 1.239 . S
O656 Mn652 2.221 . S
O656 Mn657 2.290 . S
O656 C667 1.278 . S
Mn657 O656 2.290 . S
Mn657 O659 2.089 . S
Mn657 O662 2.251 . S
Mn657 O663 2.087 . S
O658 Mn652 2.163 . S
O658 C668 1.244 . S
O659 Mn657 2.089 . S
O659 C666 1.256 . S
O660 Mn652 2.160 . S
O660 C669 1.239 . S
O661 Mn654 2.089 . S
O661 C669 1.256 . S
O662 Mn657 2.251 . S
O662 C667 1.241 . S
O663 Mn657 2.087 . S
O663 C668 1.256 . S
C664 O670 1.278 . S
C664 O671 1.241 . S
C665 O651 1.244 . S
C665 O653 1.256 . S
C666 O655 1.239 . S
C666 O659 1.256 . S
C667 O656 1.278 . S
C667 O662 1.241 . S
C668 O658 1.244 . S
C668 O663 1.256 . S
C669 O660 1.239 . S
C669 O661 1.256 . S
O670 Mn652 2.221 . S
O670 Mn654 2.290 . S
O670 C664 1.278 . S
O671 Mn654 2.251 . S
O671 C664 1.241 . S
C354 C7 2.078 . S
C23 C374 2.410 . S
C394 C36 1.860 . S
C413 C45 2.194 1_556 S
C371 C59 2.263 . S
C78 C396 1.902 . S
C416 C93 2.289 . S
C105 C352 2.349 1_556 S
C115 C349 2.324 . S
C372 C133 2.450 1_565 S
C395 C148 2.401 1_565 S
C417 C163 2.281 1_545 S
C375 C121 1.818 . S
C391 C134 1.872 . S
C147 C414 2.151 . S
C353 C157 2.042 1_545 S
C175 C350 2.536 . S
C191 C433 1.717 . S
C455 C199 2.083 1_655 S
C478 C218 1.566 . S
C231 C351 2.334 1_655 S
C241 C393 2.246 . S
C475 C205 1.958 1_655 S
C436 C260 1.707 . S
C501 C22 1.528 . S
C521 C9 1.746 . S
C49 C543 2.035 . S
C31 C560 1.838 1_556 S
C101 C518 1.937 . S
C91 C541 1.597 . S
C563 C79 1.995 . S
C64 C499 1.213 . S
C274 C496 1.120 . S
C519 C213 1.972 1_545 S
C538 C233 1.347 . S
C564 C189 2.337 1_565 S
C522 C273 2.014 . S
C542 C219 1.314 1_545 S
C561 C227 1.411 . S
C190 C500 1.709 . S
C497 C289 1.536 . S
C162 C580 1.108 . S
C603 C301 1.955 1_455 S
C129 C625 1.504 . S
C498 C149 1.592 1_655 S
C539 C315 2.010 . S
C622 C302 1.478 1_455 S
C325 C583 1.098 . S
C35 C648 2.078 . S
C51 C437 2.409 1_554 S
C457 C8 1.860 . S
C17 C476 2.193 . S
C87 C434 2.263 . S
C106 C459 1.902 1_656 S
C479 C65 2.289 . S
C646 C77 2.349 . S
C643 C297 2.324 . S
C435 C287 2.450 . S
C458 C330 2.401 . S
C317 C480 2.281 . S
C438 C303 1.818 . S
C288 C454 1.872 . S
C477 C329 2.151 . S
C311 C647 2.042 . S
C644 C217 2.536 . S
C247 C370 1.717 . S
C392 C269 2.083 1_545 S
C176 C415 1.566 . S
C645 C259 2.334 . S
C456 C185 2.246 . S
C412 C275 1.958 . S
C373 C232 1.707 1_455 S
C50 C669 1.528 . S
C37 C584 1.746 1_556 S
C21 C606 2.035 . S
C623 C3 1.838 . S
C581 C73 1.937 . S
C63 C604 1.597 1_554 S
C626 C107 1.995 . S
C92 C667 1.213 . S
C664 C204 1.120 . S
C171 C582 1.972 . S
C261 C601 1.347 . S
C627 C245 2.355 . S
C585 C203 2.014 . S
C177 C605 1.314 . S
C624 C255 1.411 . S
C668 C246 1.709 . S
C665 C135 1.536 . S
C517 C316 1.108 . S
C119 C540 1.955 . S
C283 C562 1.504 . S
C666 C331 1.592 . S
C602 C161 2.010 . S
C559 C120 1.478 . S
C520 C143 1.098 . S
