# Generated by pormake.
# Topology cml, (3,6)-cn, num edge types: 1
# Building blocks:
#     Node 0, Type 0, BuildingBlock: OLANEW_clean_sbu_2, # of connection points: 3
#     Node 1, Type 0, BuildingBlock: OLANEW_clean_sbu_2, # of connection points: 3
#     Node 2, Type 0, BuildingBlock: OLANEW_clean_sbu_2, # of connection points: 3
#     Node 3, Type 0, BuildingBlock: OLANEW_clean_sbu_2, # of connection points: 3
#     Node 4, Type 0, BuildingBlock: OLANEW_clean_sbu_2, # of connection points: 3
#     Node 5, Type 0, BuildingBlock: OLANEW_clean_sbu_2, # of connection points: 3
#     Node 6, Type 0, BuildingBlock: OLANEW_clean_sbu_2, # of connection points: 3
#     Node 7, Type 0, BuildingBlock: OLANEW_clean_sbu_2, # of connection points: 3
#     Node 8, Type 1, BuildingBlock: IZENUY_clean_sbu_0, # of connection points: 6
#     Node 9, Type 1, BuildingBlock: IZENUY_clean_sbu_0, # of connection points: 6
#     Node 10, Type 1, BuildingBlock: IZENUY_clean_sbu_0, # of connection points: 6
#     Node 11, Type 1, BuildingBlock: IZENUY_clean_sbu_0, # of connection points: 6
#     Edge 12, Type (0, 1), BuildingBlock: UVAHIK_clean_linker_0, # of connection points: 2
#     Edge 13, Type (0, 1), BuildingBlock: UVAHIK_clean_linker_0, # of connection points: 2
#     Edge 14, Type (0, 1), BuildingBlock: UVAHIK_clean_linker_0, # of connection points: 2
#     Edge 15, Type (0, 1), BuildingBlock: UVAHIK_clean_linker_0, # of connection points: 2
#     Edge 16, Type (0, 1), BuildingBlock: UVAHIK_clean_linker_0, # of connection points: 2
#     Edge 17, Type (0, 1), BuildingBlock: UVAHIK_clean_linker_0, # of connection points: 2
#     Edge 18, Type (0, 1), BuildingBlock: UVAHIK_clean_linker_0, # of connection points: 2
#     Edge 19, Type (0, 1), BuildingBlock: UVAHIK_clean_linker_0, # of connection points: 2
#     Edge 20, Type (0, 1), BuildingBlock: UVAHIK_clean_linker_0, # of connection points: 2
#     Edge 21, Type (0, 1), BuildingBlock: UVAHIK_clean_linker_0, # of connection points: 2
#     Edge 22, Type (0, 1), BuildingBlock: UVAHIK_clean_linker_0, # of connection points: 2
#     Edge 23, Type (0, 1), BuildingBlock: UVAHIK_clean_linker_0, # of connection points: 2
#     Edge 24, Type (0, 1), BuildingBlock: UVAHIK_clean_linker_0, # of connection points: 2
#     Edge 25, Type (0, 1), BuildingBlock: UVAHIK_clean_linker_0, # of connection points: 2
#     Edge 26, Type (0, 1), BuildingBlock: UVAHIK_clean_linker_0, # of connection points: 2
#     Edge 27, Type (0, 1), BuildingBlock: UVAHIK_clean_linker_0, # of connection points: 2
#     Edge 28, Type (0, 1), BuildingBlock: UVAHIK_clean_linker_0, # of connection points: 2
#     Edge 29, Type (0, 1), BuildingBlock: UVAHIK_clean_linker_0, # of connection points: 2
#     Edge 30, Type (0, 1), BuildingBlock: UVAHIK_clean_linker_0, # of connection points: 2
#     Edge 31, Type (0, 1), BuildingBlock: UVAHIK_clean_linker_0, # of connection points: 2
#     Edge 32, Type (0, 1), BuildingBlock: UVAHIK_clean_linker_0, # of connection points: 2
#     Edge 33, Type (0, 1), BuildingBlock: UVAHIK_clean_linker_0, # of connection points: 2
#     Edge 34, Type (0, 1), BuildingBlock: UVAHIK_clean_linker_0, # of connection points: 2
#     Edge 35, Type (0, 1), BuildingBlock: UVAHIK_clean_linker_0, # of connection points: 2
# Relax obj value: 0.015
# Max RMSD: 0.079
# Mean RMSD: 0.063
data_MOF--net-cml--node1-OLANEW_clean_sbu_2--node2-IZENUY_clean_sbu_0--edge1-UVAHIK_clean_linker_0
_symmetry_space_group_name_H-M    P1
_symmetry_Int_Tables_number       1
_symmetry_cell_setting            triclinic
loop_
_symmetry_equiv_pos_as_xyz
'x, y, z'
_cell_length_a     50.477893
_cell_length_b     55.536705
_cell_length_c     50.762199
_cell_angle_alpha  88.50076
_cell_angle_beta   87.863703
_cell_angle_gamma 88.719514
loop_
_atom_site_label
_atom_site_type_symbol
_atom_site_fract_x
_atom_site_fract_y
_atom_site_fract_z
_atom_type_partial_charge
O0 O 0.27353 0.41024 0.93639 0.0
Cd1 Cd 0.252 0.37637 0.95973 0.0
O2 O 0.2948 0.40832 0.97292 0.0
Cd3 Cd 0.32465 0.41415 0.00201 0.0
O4 O 0.34717 0.40889 0.03759 0.0
C5 C 0.34212 0.42161 0.05769 0.0
O6 O 0.32393 0.43885 0.05638 0.0
C7 C 0.29154 0.41829 0.95039 0.0
C8 C 0.21736 0.34868 0.93245 0.0
O9 O 0.20867 0.366 0.94683 0.0
O10 O 0.24251 0.34506 0.93017 0.0
O11 O 0.72915 0.63035 0.5397 0.0
Cd12 Cd 0.74982 0.61979 0.49698 0.0
O13 O 0.74329 0.59651 0.55841 0.0
Cd14 Cd 0.75518 0.57966 0.52137 0.0
O15 O 0.74221 0.55147 0.49597 0.0
C16 C 0.73335 0.55583 0.4732 0.0
O17 O 0.73402 0.57793 0.46336 0.0
C18 C 0.73148 0.6169 0.56021 0.0
C19 C 0.78317 0.65526 0.47551 0.0
O20 O 0.79146 0.63962 0.49247 0.0
O21 O 0.759 0.65429 0.46879 0.0
O22 O 0.72144 0.39731 0.95999 0.0
Cd23 Cd 0.73962 0.36387 0.98686 0.0
O24 O 0.7279 0.42262 0.99166 0.0
Cd25 Cd 0.73791 0.39537 0.02166 0.0
O26 O 0.72748 0.38033 0.06078 0.0
C27 C 0.7218 0.39592 0.07811 0.0
O28 O 0.72421 0.41884 0.07155 0.0
C29 C 0.7206 0.4187 0.96846 0.0
C30 C 0.77516 0.33244 0.96077 0.0
O31 O 0.78283 0.35249 0.96948 0.0
O32 O 0.75055 0.32745 0.96384 0.0
O33 O 0.28516 0.59217 0.47545 0.0
Cd34 Cd 0.26316 0.62317 0.50252 0.0
O35 O 0.27749 0.56436 0.50628 0.0
Cd36 Cd 0.26517 0.58979 0.53665 0.0
O37 O 0.27762 0.60439 0.57363 0.0
C38 C 0.28793 0.58875 0.58909 0.0
O39 O 0.28851 0.56608 0.58225 0.0
C40 C 0.28631 0.57021 0.48326 0.0
C41 C 0.22915 0.65444 0.47522 0.0
O42 O 0.22136 0.63384 0.48401 0.0
O43 O 0.25317 0.66013 0.47897 0.0
O44 O 0.7549 0.92689 0.94142 0.0
Cd45 Cd 0.72003 0.90386 0.9647 0.0
O46 O 0.77627 0.91951 0.97741 0.0
Cd47 Cd 0.80831 0.91831 0.00531 0.0
O48 O 0.83232 0.91031 0.0395 0.0
C49 C 0.82966 0.92325 0.05975 0.0
O50 O 0.81312 0.94186 0.05929 0.0
C51 C 0.77541 0.92969 0.9547 0.0
C52 C 0.6978 0.86681 0.93741 0.0
O53 O 0.68776 0.88822 0.93668 0.0
O54 O 0.71887 0.86309 0.95039 0.0
O55 O 0.22647 0.13013 0.53785 0.0
Cd56 Cd 0.2481 0.12032 0.49531 0.0
O57 O 0.23867 0.09518 0.55545 0.0
Cd58 Cd 0.25121 0.07915 0.51813 0.0
O59 O 0.23918 0.05116 0.49196 0.0
C60 C 0.23016 0.05577 0.4693 0.0
O61 O 0.23009 0.0781 0.46007 0.0
C62 C 0.22762 0.11586 0.55783 0.0
C63 C 0.28205 0.15593 0.47514 0.0
O64 O 0.25803 0.15516 0.46788 0.0
O65 O 0.28988 0.14005 0.49207 0.0
O66 O 0.21933 0.89553 0.9556 0.0
Cd67 Cd 0.23418 0.86107 0.98298 0.0
O68 O 0.22478 0.92107 0.98726 0.0
Cd69 Cd 0.23474 0.89374 0.01716 0.0
O70 O 0.22509 0.87807 0.05614 0.0
C71 C 0.22074 0.89328 0.07415 0.0
O72 O 0.22399 0.91624 0.0683 0.0
C73 C 0.21829 0.91699 0.96385 0.0
C74 C 0.27281 0.83098 0.95934 0.0
O75 O 0.24805 0.82739 0.95673 0.0
O76 O 0.27929 0.84908 0.97271 0.0
O77 O 0.7934 0.09628 0.47011 0.0
Cd78 Cd 0.77688 0.12975 0.49708 0.0
O79 O 0.78002 0.06868 0.49919 0.0
Cd80 Cd 0.76855 0.09482 0.52908 0.0
O81 O 0.77953 0.10947 0.56653 0.0
C82 C 0.78746 0.09368 0.58318 0.0
O83 O 0.78671 0.07085 0.57709 0.0
C84 C 0.79098 0.0742 0.47695 0.0
C85 C 0.739 0.15935 0.47287 0.0
O86 O 0.76383 0.16336 0.46956 0.0
O87 O 0.73211 0.14113 0.48736 0.0
Fe88 Fe 0.00572 0.83497 0.32351 0.0
Fe89 Fe 0.0064 0.86155 0.37571 0.0
O90 O 0.00702 0.86222 0.3408 0.0
Fe91 Fe 0.00894 0.89012 0.32326 0.0
O92 O 0.97806 0.88518 0.30747 0.0
O93 O 0.9876 0.84817 0.29561 0.0
O94 O 0.97378 0.82779 0.33909 0.0
C95 C 0.96981 0.82568 0.36373 0.0
C96 C 0.04319 0.85919 0.2936 0.0
O97 O 0.98554 0.83487 0.37935 0.0
C98 C 0.04349 0.89774 0.36213 0.0
O99 O 0.02381 0.81682 0.34818 0.0
O100 O 0.03666 0.84337 0.37615 0.0
O101 O 0.02877 0.87808 0.2954 0.0
O102 O 0.03754 0.84034 0.30686 0.0
C103 C 0.97318 0.90014 0.36607 0.0
O104 O 0.02727 0.888 0.37856 0.0
O105 O 0.03998 0.89705 0.33775 0.0
C106 C 0.03953 0.82317 0.3655 0.0
O107 O 0.97606 0.87976 0.37733 0.0
O108 O 0.98951 0.90712 0.34806 0.0
C109 C 0.97378 0.86741 0.29344 0.0
Fe110 Fe 0.00812 0.13034 0.86069 0.0
Fe111 Fe 0.00881 0.10375 0.80841 0.0
O112 O 0.00789 0.13096 0.82579 0.0
Fe113 Fe 0.00677 0.1589 0.80814 0.0
O114 O 0.03784 0.16766 0.82135 0.0
O115 O 0.02691 0.1583 0.86266 0.0
O116 O 0.03975 0.11399 0.86074 0.0
C117 C 0.04436 0.09423 0.84952 0.0
C118 C 0.97223 0.16704 0.85245 0.0
O119 O 0.0292 0.08709 0.83215 0.0
C120 C 0.97191 0.13306 0.78101 0.0
O121 O 0.98935 0.10234 0.86492 0.0
O122 O 0.97832 0.09389 0.82477 0.0
O123 O 0.98735 0.17488 0.83385 0.0
O124 O 0.97647 0.14657 0.86301 0.0
C125 C 0.04244 0.13073 0.77697 0.0
O126 O 0.98838 0.11551 0.7816 0.0
O127 O 0.97557 0.15173 0.7939 0.0
C128 C 0.97452 0.09183 0.8494 0.0
O129 O 0.03946 0.1118 0.79091 0.0
O130 O 0.02605 0.14821 0.77917 0.0
C131 C 0.04174 0.1691 0.84564 0.0
Fe132 Fe 0.50782 0.33628 0.32829 0.0
Fe133 Fe 0.50713 0.36255 0.38081 0.0
O134 O 0.50828 0.36342 0.34587 0.0
Fe135 Fe 0.50985 0.39146 0.32855 0.0
O136 O 0.47925 0.38615 0.3124 0.0
O137 O 0.48974 0.34937 0.30034 0.0
O138 O 0.4759 0.32838 0.34343 0.0
C139 C 0.4715 0.32616 0.368 0.0
C140 C 0.54497 0.3613 0.29884 0.0
O141 O 0.48668 0.33559 0.38397 0.0
C142 C 0.54383 0.39927 0.36785 0.0
O143 O 0.52608 0.3183 0.35294 0.0
O144 O 0.53758 0.34471 0.38169 0.0
O145 O 0.53015 0.37993 0.30072 0.0
O146 O 0.53968 0.34233 0.31201 0.0
C147 C 0.47349 0.4008 0.37103 0.0
O148 O 0.52759 0.38925 0.38408 0.0
O149 O 0.54056 0.39869 0.34342 0.0
C150 C 0.54121 0.32472 0.37074 0.0
O151 O 0.47651 0.38037 0.38212 0.0
O152 O 0.48991 0.40808 0.35328 0.0
C153 C 0.47555 0.36839 0.29815 0.0
Fe154 Fe 0.51152 0.63268 0.86251 0.0
Fe155 Fe 0.51384 0.60583 0.81034 0.0
O156 O 0.5119 0.63315 0.82758 0.0
Fe157 Fe 0.51033 0.66094 0.80968 0.0
O158 O 0.54073 0.67073 0.82347 0.0
O159 O 0.52985 0.66084 0.86466 0.0
O160 O 0.54337 0.61676 0.86318 0.0
C161 C 0.54845 0.5969 0.85236 0.0
C162 C 0.47486 0.66872 0.85341 0.0
O163 O 0.53386 0.58949 0.83467 0.0
C164 C 0.47689 0.63408 0.78198 0.0
O165 O 0.49302 0.60447 0.86645 0.0
O166 O 0.48321 0.59561 0.82602 0.0
O167 O 0.48985 0.67664 0.83476 0.0
O168 O 0.47969 0.64856 0.86444 0.0
C169 C 0.5475 0.63328 0.77955 0.0
O170 O 0.49395 0.61703 0.78289 0.0
O171 O 0.47971 0.65289 0.79487 0.0
C172 C 0.47873 0.59374 0.85058 0.0
O173 O 0.54471 0.61436 0.79357 0.0
O174 O 0.53061 0.65044 0.78126 0.0
C175 C 0.54437 0.67219 0.84782 0.0
C176 C 0.17259 0.33072 0.9301 0.0
C177 C 0.19889 0.3323 0.92032 0.0
C178 C 0.1558 0.31356 0.92058 0.0
C179 C 0.15783 0.256 0.88427 0.0
H180 H 0.08183 0.26764 0.88334 0.0
C181 C 0.08271 0.19316 0.83747 0.0
C182 C 0.06118 0.18649 0.85425 0.0
C183 C 0.10021 0.21069 0.84497 0.0
C184 C 0.10303 0.26417 0.88361 0.0
H185 H 0.22792 0.31791 0.89207 0.0
H186 H 0.19831 0.28876 0.87447 0.0
H187 H 0.11061 0.29984 0.89563 0.0
H188 H 0.04114 0.19283 0.89206 0.0
H189 H 0.0714 0.22393 0.90483 0.0
H190 H 0.14998 0.22047 0.87133 0.0
C191 C 0.19083 0.3001 0.89022 0.0
C192 C 0.11957 0.28255 0.89079 0.0
C193 C 0.20778 0.31698 0.90012 0.0
C194 C 0.05764 0.1975 0.87878 0.0
C195 C 0.0748 0.21538 0.88602 0.0
C196 C 0.1413 0.23779 0.87659 0.0
C197 C 0.16474 0.29783 0.90067 0.0
C198 C 0.1472 0.27866 0.89155 0.0
C199 C 0.09613 0.22219 0.86913 0.0
C200 C 0.11376 0.24164 0.8765 0.0
H201 H 0.16523 0.34214 0.94586 0.0
H202 H 0.13607 0.31218 0.92952 0.0
H203 H 0.17889 0.25206 0.88507 0.0
H204 H 0.08594 0.18492 0.81847 0.0
H205 H 0.11652 0.2157 0.83162 0.0
C206 C 0.79458 0.68662 0.44071 0.0
C207 C 0.80115 0.67366 0.46379 0.0
C208 C 0.81207 0.70339 0.42918 0.0
C209 C 0.88289 0.7211 0.42934 0.0
H210 H 0.85662 0.77948 0.3947 0.0
C211 C 0.94994 0.80068 0.40077 0.0
C212 C 0.9489 0.80953 0.37461 0.0
C213 C 0.93122 0.78444 0.41087 0.0
C214 C 0.86418 0.76315 0.40415 0.0
H215 H 0.83084 0.66862 0.49331 0.0
H216 H 0.8608 0.69842 0.47392 0.0
H217 H 0.82523 0.75073 0.4144 0.0
H218 H 0.92686 0.80878 0.33878 0.0
H219 H 0.89367 0.78061 0.35676 0.0
H220 H 0.92183 0.734 0.41976 0.0
C221 C 0.84261 0.69514 0.46409 0.0
C222 C 0.84623 0.7466 0.41537 0.0
C223 C 0.82531 0.67815 0.47538 0.0
C224 C 0.92826 0.80221 0.35897 0.0
C225 C 0.90922 0.7862 0.36926 0.0
C226 C 0.90076 0.73779 0.41849 0.0
C227 C 0.83639 0.70783 0.44066 0.0
C228 C 0.85536 0.72538 0.42825 0.0
C229 C 0.91078 0.77692 0.39519 0.0
C230 C 0.8916 0.75901 0.4059 0.0
H231 H 0.77615 0.68346 0.43123 0.0
H232 H 0.8067 0.7125 0.41097 0.0
H233 H 0.89076 0.70474 0.43843 0.0
H234 H 0.96557 0.80591 0.41338 0.0
H235 H 0.93271 0.77774 0.43101 0.0
C236 C 0.81949 0.32288 0.9393 0.0
C237 C 0.79436 0.31524 0.94836 0.0
C238 C 0.83806 0.30646 0.9286 0.0
C239 C 0.84504 0.24421 0.90233 0.0
H240 H 0.9194 0.25388 0.9145 0.0
C241 C 0.92968 0.17396 0.87876 0.0
C242 C 0.95124 0.18321 0.86367 0.0
C243 C 0.90992 0.18949 0.88917 0.0
C244 C 0.8987 0.25101 0.9109 0.0
H245 H 0.76896 0.28438 0.95332 0.0
H246 H 0.80161 0.25555 0.93564 0.0
H247 H 0.88615 0.28191 0.93258 0.0
H248 H 0.96909 0.216 0.8479 0.0
H249 H 0.93499 0.24299 0.86658 0.0
H250 H 0.85792 0.21277 0.88128 0.0
C251 C 0.80685 0.27433 0.93602 0.0
C252 C 0.87959 0.26718 0.92107 0.0
C253 C 0.78812 0.29085 0.94631 0.0
C254 C 0.95271 0.20827 0.85936 0.0
C255 C 0.93327 0.22376 0.87016 0.0
C256 C 0.86419 0.2278 0.89254 0.0
C257 C 0.83217 0.28187 0.92712 0.0
C258 C 0.85247 0.2642 0.91671 0.0
C259 C 0.91167 0.21454 0.88512 0.0
C260 C 0.8912 0.2312 0.8965 0.0
H261 H 0.82482 0.3416 0.94041 0.0
H262 H 0.85703 0.31316 0.92139 0.0
H263 H 0.82448 0.24143 0.89816 0.0
H264 H 0.92796 0.15473 0.88232 0.0
H265 H 0.89349 0.18196 0.90073 0.0
C266 C 0.21657 0.69595 0.45893 0.0
C267 C 0.21071 0.6714 0.46182 0.0
C268 C 0.19853 0.7122 0.4475 0.0
C269 C 0.12731 0.71832 0.43095 0.0
H270 H 0.15186 0.77388 0.38991 0.0
C271 C 0.05765 0.78102 0.37095 0.0
C272 C 0.05979 0.8058 0.37528 0.0
C273 C 0.07638 0.76454 0.38082 0.0
C274 C 0.14477 0.75849 0.40144 0.0
H275 H 0.18173 0.64447 0.45422 0.0
H276 H 0.15076 0.67252 0.43331 0.0
H277 H 0.18408 0.74491 0.40758 0.0
H278 H 0.08358 0.83276 0.39281 0.0
H279 H 0.11661 0.80391 0.40959 0.0
H280 H 0.08796 0.73173 0.42411 0.0
C281 C 0.16885 0.67949 0.44066 0.0
C282 C 0.1632 0.74192 0.4117 0.0
C283 C 0.18671 0.66333 0.45248 0.0
C284 C 0.08133 0.81377 0.38926 0.0
C285 C 0.1003 0.79731 0.39874 0.0
C286 C 0.10891 0.73469 0.42033 0.0
C287 C 0.17434 0.70422 0.43828 0.0
C288 C 0.15474 0.72164 0.42674 0.0
C289 C 0.09787 0.77253 0.3948 0.0
C290 C 0.11746 0.75499 0.4056 0.0
H291 H 0.23484 0.70275 0.46611 0.0
H292 H 0.20335 0.7311 0.44647 0.0
H293 H 0.11994 0.70328 0.44286 0.0
H294 H 0.04128 0.7743 0.36029 0.0
H295 H 0.07416 0.74554 0.37736 0.0
C296 C 0.69621 0.82347 0.92486 0.0
C297 C 0.68456 0.84671 0.92496 0.0
C298 C 0.68264 0.8041 0.9151 0.0
C299 C 0.61504 0.78444 0.90541 0.0
H300 H 0.64859 0.73601 0.86085 0.0
C301 C 0.56334 0.69623 0.88349 0.0
C302 C 0.56336 0.68994 0.85684 0.0
C303 C 0.57962 0.71443 0.89163 0.0
C304 C 0.63897 0.74943 0.87325 0.0
H305 H 0.64986 0.86795 0.91412 0.0
H306 H 0.62621 0.83416 0.89719 0.0
H307 H 0.67412 0.77037 0.87416 0.0
H308 H 0.58141 0.69719 0.81804 0.0
H309 H 0.60993 0.7289 0.83235 0.0
H310 H 0.57992 0.76366 0.9045 0.0
C311 C 0.64575 0.8309 0.90485 0.0
C312 C 0.65361 0.76899 0.88099 0.0
C313 C 0.65938 0.85028 0.91441 0.0
C314 C 0.58079 0.70167 0.8387 0.0
C315 C 0.59725 0.71975 0.8469 0.0
C316 C 0.60052 0.76481 0.8979 0.0
C317 C 0.65706 0.80755 0.90544 0.0
C318 C 0.64173 0.78676 0.89704 0.0
C319 C 0.59647 0.72662 0.87336 0.0
C320 C 0.61229 0.74711 0.88171 0.0
H321 H 0.71559 0.82012 0.93283 0.0
H322 H 0.6918 0.78629 0.91593 0.0
H323 H 0.60543 0.79769 0.91803 0.0
H324 H 0.55026 0.68752 0.89802 0.0
H325 H 0.57887 0.71913 0.91223 0.0
C326 C 0.32428 0.1786 0.4762 0.0
C327 C 0.30037 0.17434 0.46402 0.0
C328 C 0.34192 0.19557 0.46544 0.0
C329 C 0.34694 0.24726 0.41707 0.0
H330 H 0.4223 0.23425 0.42306 0.0
C331 C 0.43017 0.30259 0.36238 0.0
C332 C 0.45053 0.30985 0.37842 0.0
C333 C 0.41095 0.28658 0.37229 0.0
C334 C 0.4013 0.23816 0.42135 0.0
H335 H 0.27618 0.18451 0.43097 0.0
H336 H 0.30733 0.21348 0.41162 0.0
H337 H 0.39068 0.20512 0.44099 0.0
H338 H 0.46652 0.30608 0.41747 0.0
H339 H 0.43335 0.2779 0.43444 0.0
H340 H 0.35795 0.28011 0.39669 0.0
C341 C 0.31223 0.20423 0.42989 0.0
C342 C 0.38311 0.22154 0.43177 0.0
C343 C 0.2944 0.1875 0.4409 0.0
C344 C 0.45112 0.3009 0.40457 0.0
C345 C 0.43222 0.28465 0.41429 0.0
C346 C 0.36521 0.26373 0.40627 0.0
C347 C 0.33631 0.20845 0.44196 0.0
C348 C 0.35565 0.22596 0.43008 0.0
C349 C 0.41203 0.27724 0.39824 0.0
C350 C 0.39254 0.25944 0.40858 0.0
H351 H 0.32934 0.16891 0.49418 0.0
H352 H 0.3599 0.19866 0.4757 0.0
H353 H 0.326 0.25151 0.41565 0.0
H354 H 0.42912 0.30924 0.34219 0.0
H355 H 0.39561 0.28108 0.3595 0.0
C356 C 0.286 0.79475 0.93296 0.0
C357 C 0.29328 0.81441 0.94782 0.0
C358 C 0.30529 0.77874 0.9227 0.0
C359 C 0.3771 0.77345 0.90557 0.0
H360 H 0.36373 0.70492 0.90658 0.0
C361 C 0.44712 0.70662 0.85112 0.0
C362 C 0.45298 0.68445 0.86387 0.0
C363 C 0.42721 0.722 0.86125 0.0
C364 C 0.36786 0.72398 0.90633 0.0
H365 H 0.32658 0.83263 0.96354 0.0
H366 H 0.36015 0.80461 0.9459 0.0
H367 H 0.3302 0.73274 0.92486 0.0
H368 H 0.44208 0.66093 0.89712 0.0
H369 H 0.40748 0.68797 0.91501 0.0
H370 H 0.41496 0.7647 0.8876 0.0
C371 C 0.33957 0.80173 0.94185 0.0
C372 C 0.34851 0.73997 0.91652 0.0
C373 C 0.32029 0.81775 0.95207 0.0
C374 C 0.4381 0.67787 0.8868 0.0
C375 C 0.41817 0.69332 0.89699 0.0
C376 C 0.39644 0.75748 0.89541 0.0
C377 C 0.33232 0.78199 0.92707 0.0
C378 C 0.35288 0.76491 0.91625 0.0
C379 C 0.41264 0.71567 0.88444 0.0
C380 C 0.39205 0.73255 0.89558 0.0
H381 H 0.26537 0.79168 0.92927 0.0
H382 H 0.29902 0.76395 0.9111 0.0
H383 H 0.38106 0.79254 0.90478 0.0
H384 H 0.45798 0.71221 0.83327 0.0
H385 H 0.42315 0.73884 0.85077 0.0
C386 C 0.72669 0.19498 0.44417 0.0
C387 C 0.71889 0.17559 0.46082 0.0
C388 C 0.70774 0.21079 0.43349 0.0
C389 C 0.63618 0.21661 0.41978 0.0
H390 H 0.6505 0.28495 0.41651 0.0
C391 C 0.56685 0.28558 0.36804 0.0
C392 C 0.562 0.30772 0.38033 0.0
C393 C 0.58629 0.26945 0.3772 0.0
C394 C 0.64609 0.26594 0.41746 0.0
H395 H 0.68504 0.15751 0.47917 0.0
H396 H 0.65204 0.18525 0.46088 0.0
H397 H 0.68345 0.25673 0.43399 0.0
H398 H 0.57397 0.33029 0.41188 0.0
H399 H 0.60752 0.30201 0.42809 0.0
H400 H 0.5985 0.22589 0.40396 0.0
C401 C 0.67278 0.18806 0.45572 0.0
C402 C 0.66514 0.24972 0.42717 0.0
C403 C 0.69172 0.17222 0.46634 0.0
C404 C 0.57718 0.31341 0.40191 0.0
C405 C 0.59656 0.29724 0.41111 0.0
C406 C 0.6171 0.23284 0.41012 0.0
C407 C 0.68055 0.20762 0.43927 0.0
C408 C 0.66042 0.22484 0.42851 0.0
C409 C 0.60133 0.27504 0.39891 0.0
C410 C 0.62179 0.25772 0.40889 0.0
H411 H 0.74746 0.19804 0.43943 0.0
H412 H 0.71442 0.22543 0.42057 0.0
H413 H 0.63198 0.19756 0.42026 0.0
H414 H 0.55568 0.28067 0.35125 0.0
H415 H 0.58971 0.25268 0.36707 0.0
C416 C 0.31289 0.44166 0.91282 0.0
C417 C 0.30888 0.43783 0.94014 0.0
C418 C 0.33008 0.45943 0.903 0.0
C419 C 0.36413 0.51472 0.92157 0.0
H420 H 0.41154 0.49909 0.86232 0.0
C421 C 0.45313 0.57372 0.88819 0.0
C422 C 0.45802 0.57707 0.8609 0.0
C423 C 0.43404 0.5575 0.89779 0.0
C424 C 0.39823 0.50386 0.87868 0.0
H425 H 0.31831 0.45086 0.97848 0.0
H426 H 0.34897 0.48122 0.96147 0.0
H427 H 0.37971 0.46958 0.87904 0.0
H428 H 0.44618 0.5663 0.82231 0.0
H429 H 0.41292 0.53818 0.83907 0.0
H430 H 0.38292 0.54895 0.92131 0.0
C431 C 0.33893 0.47046 0.94758 0.0
C432 C 0.37994 0.48694 0.88825 0.0
C433 C 0.32172 0.4527 0.95739 0.0
C434 C 0.4431 0.56407 0.84346 0.0
C435 C 0.4241 0.54783 0.85306 0.0
C436 C 0.38249 0.53163 0.91201 0.0
C437 C 0.34355 0.47388 0.92026 0.0
C438 C 0.36267 0.49214 0.90983 0.0
C439 C 0.41945 0.54423 0.88033 0.0
C440 C 0.39976 0.52639 0.89046 0.0
H441 H 0.30309 0.43064 0.89901 0.0
H442 H 0.33278 0.46187 0.88184 0.0
H443 H 0.35088 0.51947 0.93797 0.0
H444 H 0.46421 0.58345 0.90219 0.0
H445 H 0.4311 0.55498 0.91892 0.0
C446 C 0.7092 0.54127 0.4345 0.0
C447 C 0.71893 0.53698 0.45983 0.0
C448 C 0.69289 0.52455 0.42331 0.0
C449 C 0.64462 0.4794 0.44324 0.0
H450 H 0.65162 0.45844 0.37103 0.0
C451 C 0.57364 0.41028 0.40378 0.0
C452 C 0.5656 0.41355 0.37772 0.0
C453 C 0.594 0.42397 0.41319 0.0
C454 C 0.64916 0.46435 0.39115 0.0
H455 H 0.7201 0.51126 0.49277 0.0
H456 H 0.69147 0.48235 0.47332 0.0
H457 H 0.68469 0.48491 0.38798 0.0
H458 H 0.57269 0.43369 0.34103 0.0
H459 H 0.60745 0.45816 0.35768 0.0
H460 H 0.60872 0.45978 0.44638 0.0
C461 C 0.69637 0.49867 0.46221 0.0
C462 C 0.66819 0.47941 0.40084 0.0
C463 C 0.71289 0.5152 0.47326 0.0
C464 C 0.57849 0.43068 0.36121 0.0
C465 C 0.59859 0.4446 0.37072 0.0
C466 C 0.62543 0.46465 0.43349 0.0
C467 C 0.68579 0.5034 0.43737 0.0
C468 C 0.66611 0.48702 0.427 0.0
C469 C 0.60657 0.4415 0.39688 0.0
C470 C 0.62741 0.45689 0.40731 0.0
H471 H 0.71354 0.55783 0.42362 0.0
H472 H 0.68491 0.52866 0.40415 0.0
H473 H 0.64229 0.48534 0.46337 0.0
H474 H 0.56432 0.39701 0.41688 0.0
H475 H 0.59995 0.42068 0.43326 0.0
C476 C 0.70917 0.4625 0.96196 0.0
C477 C 0.70898 0.43887 0.95264 0.0
C478 C 0.69534 0.48116 0.94915 0.0
C479 C 0.66196 0.49879 0.88746 0.0
H480 H 0.6192 0.53975 0.93378 0.0
C481 C 0.57483 0.55816 0.85085 0.0
C482 C 0.57006 0.58082 0.86209 0.0
C483 C 0.59429 0.54239 0.86057 0.0
C484 C 0.63133 0.52879 0.92052 0.0
H485 H 0.69508 0.41662 0.92173 0.0
H486 H 0.67073 0.44922 0.89944 0.0
H487 H 0.64901 0.50946 0.95257 0.0
H488 H 0.58268 0.60488 0.89194 0.0
H489 H 0.61687 0.57739 0.90877 0.0
H490 H 0.64393 0.51797 0.8554 0.0
C491 C 0.68176 0.45332 0.91661 0.0
C492 C 0.64844 0.51137 0.93131 0.0
C493 C 0.69566 0.4346 0.92943 0.0
C494 C 0.58569 0.58752 0.88293 0.0
C495 C 0.60521 0.57171 0.89266 0.0
C496 C 0.64485 0.51627 0.87665 0.0
C497 C 0.68091 0.4767 0.92671 0.0
C498 C 0.66382 0.49601 0.91494 0.0
C499 C 0.60957 0.54884 0.88176 0.0
C500 C 0.62912 0.53133 0.89307 0.0
H501 H 0.71943 0.46652 0.97963 0.0
H502 H 0.69557 0.49904 0.95714 0.0
H503 H 0.67377 0.48747 0.8743 0.0
H504 H 0.56323 0.55236 0.83474 0.0
H505 H 0.59682 0.52483 0.85191 0.0
C506 C 0.31377 0.5583 0.44319 0.0
C507 C 0.30015 0.55176 0.46687 0.0
C508 C 0.32977 0.5414 0.42973 0.0
C509 C 0.34582 0.47585 0.4252 0.0
H510 H 0.41558 0.49813 0.40296 0.0
C511 C 0.43437 0.41089 0.40125 0.0
C512 C 0.45171 0.41733 0.38003 0.0
C513 C 0.41419 0.42687 0.40982 0.0
C514 C 0.39607 0.49165 0.40869 0.0
H515 H 0.29158 0.52197 0.49418 0.0
H516 H 0.31954 0.4927 0.47089 0.0
H517 H 0.38256 0.52668 0.42031 0.0
H518 H 0.46088 0.44542 0.35074 0.0
H519 H 0.42571 0.47303 0.36554 0.0
H520 H 0.3596 0.44069 0.41394 0.0
C521 C 0.31778 0.51081 0.46258 0.0
C522 C 0.37708 0.50806 0.41859 0.0
C523 C 0.30184 0.52767 0.47604 0.0
C524 C 0.4481 0.43992 0.36733 0.0
C525 C 0.42797 0.45584 0.37587 0.0
C526 C 0.36484 0.45941 0.41528 0.0
C527 C 0.33245 0.51759 0.43961 0.0
C528 C 0.3518 0.50034 0.42719 0.0
C529 C 0.4109 0.44961 0.39735 0.0
C530 C 0.39026 0.46709 0.40709 0.0
H531 H 0.31282 0.57666 0.43551 0.0
H532 H 0.34047 0.54711 0.41183 0.0
H533 H 0.32642 0.46937 0.43137 0.0
H534 H 0.43653 0.39362 0.41144 0.0
H535 H 0.40155 0.42161 0.4266 0.0
C536 C 0.80112 0.94811 0.91649 0.0
C537 C 0.79729 0.94476 0.94389 0.0
C538 C 0.82079 0.96337 0.90614 0.0
C539 C 0.88229 0.99375 0.9231 0.0
H540 H 0.86519 0.03642 0.86418 0.0
C541 C 0.95032 0.07141 0.88762 0.0
C542 C 0.95399 0.07522 0.86024 0.0
C543 C 0.93134 0.05535 0.89777 0.0
C544 C 0.87041 0.02444 0.88044 0.0
H545 H 0.81042 0.95566 0.98187 0.0
H546 H 0.84494 0.98194 0.96389 0.0
H547 H 0.83231 0.00823 0.88178 0.0
H548 H 0.94028 0.0652 0.82208 0.0
H549 H 0.90741 0.0371 0.83978 0.0
H550 H 0.92039 0.01002 0.92178 0.0
C551 C 0.83321 0.97229 0.95037 0.0
C552 C 0.85156 0.00825 0.89052 0.0
C553 C 0.81353 0.95703 0.96071 0.0
C554 C 0.93802 0.06274 0.84328 0.0
C555 C 0.91904 0.0467 0.85343 0.0
C556 C 0.90116 0.00994 0.913 0.0
C557 C 0.83698 0.97576 0.92295 0.0
C558 C 0.85725 0.99271 0.91199 0.0
C559 C 0.91551 0.04274 0.8808 0.0
C560 C 0.89544 0.02551 0.89156 0.0
H561 H 0.78885 0.93895 0.90302 0.0
H562 H 0.82335 0.96541 0.88492 0.0
H563 H 0.88746 0.98181 0.93942 0.0
H564 H 0.96217 0.08078 0.90128 0.0
H565 H 0.92888 0.05299 0.91896 0.0
C566 C 0.20637 0.04145 0.43026 0.0
C567 C 0.21633 0.03686 0.45545 0.0
C568 C 0.19052 0.02459 0.41868 0.0
C569 C 0.14355 0.97814 0.43776 0.0
H570 H 0.15061 0.95851 0.36507 0.0
C571 C 0.07384 0.90846 0.39767 0.0
C572 C 0.06543 0.91196 0.37177 0.0
C573 C 0.0941 0.92226 0.40706 0.0
C574 C 0.14814 0.96403 0.38533 0.0
H575 H 0.21843 0.01046 0.48768 0.0
H576 H 0.19057 0.98131 0.46757 0.0
H577 H 0.18313 0.98535 0.38238 0.0
H578 H 0.07184 0.93254 0.33528 0.0
H579 H 0.10644 0.95726 0.35191 0.0
H580 H 0.10817 0.9578 0.44071 0.0
C581 C 0.19496 0.99797 0.45687 0.0
C582 C 0.16686 0.97931 0.39523 0.0
C583 C 0.21102 0.01465 0.4683 0.0
C584 C 0.07793 0.92937 0.35533 0.0
C585 C 0.09794 0.94344 0.36485 0.0
C586 C 0.12467 0.96319 0.42781 0.0
C587 C 0.18411 0.00298 0.43221 0.0
C588 C 0.16476 0.98644 0.42157 0.0
C589 C 0.10618 0.94019 0.39091 0.0
C590 C 0.12669 0.95586 0.40147 0.0
H591 H 0.21016 0.05834 0.41981 0.0
H592 H 0.18233 0.02892 0.39966 0.0
H593 H 0.1412 0.98371 0.45803 0.0
H594 H 0.06484 0.89494 0.4107 0.0
H595 H 0.1003 0.91881 0.42702 0.0
C596 C 0.20437 0.96029 0.95741 0.0
C597 C 0.20696 0.93691 0.94745 0.0
C598 C 0.19033 0.97836 0.94385 0.0
C599 C 0.13677 0.98493 0.89694 0.0
H600 H 0.15448 0.05255 0.89629 0.0
C601 C 0.07204 0.05654 0.84478 0.0
C602 C 0.06616 0.0779 0.85831 0.0
C603 C 0.09152 0.04033 0.85356 0.0
C604 C 0.14919 0.03375 0.89648 0.0
H605 H 0.1981 0.91466 0.91455 0.0
H606 H 0.1739 0.94632 0.89068 0.0
H607 H 0.18535 0.02244 0.91437 0.0
H608 H 0.07687 0.09929 0.89128 0.0
H609 H 0.11075 0.07075 0.90685 0.0
H610 H 0.10049 0.99615 0.87951 0.0
C611 C 0.18231 0.95052 0.90929 0.0
C612 C 0.16689 0.0165 0.90679 0.0
C613 C 0.19637 0.93241 0.92288 0.0
C614 C 0.08083 0.08298 0.88044 0.0
C615 C 0.10036 0.06668 0.88927 0.0
C616 C 0.11913 0.00214 0.88665 0.0
C617 C 0.17854 0.97354 0.91995 0.0
C618 C 0.1608 0.99188 0.9073 0.0
C619 C 0.10565 0.04499 0.87613 0.0
C620 C 0.12502 0.02678 0.88642 0.0
H621 H 0.21231 0.96445 0.97625 0.0
H622 H 0.18767 0.9958 0.95276 0.0
H623 H 0.13114 0.96622 0.89752 0.0
H624 H 0.0614 0.05214 0.82746 0.0
H625 H 0.09544 0.02404 0.84266 0.0
C626 C 0.81773 0.06097 0.43703 0.0
C627 C 0.80358 0.05506 0.46061 0.0
C628 C 0.83304 0.04345 0.42382 0.0
C629 C 0.84702 0.97746 0.4201 0.0
H630 H 0.91754 0.99812 0.39831 0.0
C631 C 0.93432 0.9108 0.39641 0.0
C632 C 0.95171 0.91697 0.37513 0.0
C633 C 0.91445 0.92708 0.405 0.0
C634 C 0.89782 0.99209 0.40392 0.0
H635 H 0.79321 0.02573 0.4879 0.0
H636 H 0.82009 0.99535 0.46506 0.0
H637 H 0.88521 0.0274 0.41533 0.0
H638 H 0.96126 0.94486 0.34573 0.0
H639 H 0.92665 0.97299 0.36058 0.0
H640 H 0.85997 0.94198 0.40906 0.0
C641 C 0.81924 0.01345 0.45664 0.0
C642 C 0.87922 0.00891 0.41363 0.0
C643 C 0.80389 0.03095 0.46982 0.0
C644 C 0.94844 0.93957 0.36237 0.0
C645 C 0.92863 0.95578 0.37094 0.0
C646 C 0.86569 0.96058 0.41039 0.0
C647 C 0.83459 0.01964 0.4339 0.0
C648 C 0.85363 0.00182 0.42197 0.0
C649 C 0.91154 0.94984 0.3925 0.0
C650 C 0.89135 0.96769 0.4023 0.0
H651 H 0.81779 0.07932 0.42926 0.0
H652 H 0.8442 0.04871 0.40604 0.0
H653 H 0.8274 0.97143 0.42611 0.0
H654 H 0.93622 0.89352 0.40662 0.0
H655 H 0.90175 0.92203 0.42182 0.0
C656 C 0.3718 0.39537 0.08519 0.0
C657 C 0.35542 0.41604 0.08269 0.0
C658 C 0.3835 0.3895 0.10908 0.0
C659 C 0.37785 0.40142 0.18062 0.0
H660 H 0.44964 0.37506 0.18 0.0
C661 C 0.44165 0.39234 0.27306 0.0
C662 C 0.45772 0.37145 0.27573 0.0
C663 C 0.42723 0.39658 0.25037 0.0
C664 C 0.42945 0.38211 0.18049 0.0
H665 H 0.3388 0.44696 0.10323 0.0
H666 H 0.35975 0.43704 0.14476 0.0
H667 H 0.42918 0.38563 0.13848 0.0
H668 H 0.47017 0.33809 0.25714 0.0
H669 H 0.44497 0.34555 0.21759 0.0
H670 H 0.37848 0.39831 0.22278 0.0
C671 C 0.36309 0.42507 0.12841 0.0
C672 C 0.4177 0.38818 0.15669 0.0
C673 C 0.35124 0.43086 0.10454 0.0
C674 C 0.45811 0.35442 0.2557 0.0
C675 C 0.44383 0.35875 0.23295 0.0
C676 C 0.38969 0.39549 0.20447 0.0
C677 C 0.37928 0.40425 0.13101 0.0
C678 C 0.39175 0.3979 0.15643 0.0
C679 C 0.42866 0.38009 0.22982 0.0
C680 C 0.41561 0.38575 0.20463 0.0
H681 H 0.37529 0.38346 0.0688 0.0
H682 H 0.3955 0.37315 0.11045 0.0
H683 H 0.35768 0.4085 0.18116 0.0
H684 H 0.4408 0.40578 0.28817 0.0
H685 H 0.4158 0.41323 0.24847 0.0
C686 C 0.70258 0.64483 0.58752 0.0
C687 C 0.71816 0.6236 0.58559 0.0
C688 C 0.68706 0.6493 0.61035 0.0
C689 C 0.675 0.62893 0.68032 0.0
H690 H 0.60281 0.6503 0.66773 0.0
C691 C 0.58824 0.61582 0.75664 0.0
C692 C 0.56923 0.6346 0.75913 0.0
C693 C 0.60828 0.61691 0.73688 0.0
C694 C 0.62299 0.64466 0.67166 0.0
H695 H 0.73071 0.59109 0.60675 0.0
H696 H 0.70347 0.5987 0.64619 0.0
H697 H 0.63517 0.64874 0.63106 0.0
H698 H 0.55684 0.66954 0.74315 0.0
H699 H 0.59175 0.67136 0.70877 0.0
H700 H 0.66245 0.6242 0.72089 0.0
C701 C 0.70337 0.61205 0.63026 0.0
C702 C 0.64161 0.64383 0.65063 0.0
C703 C 0.71892 0.60761 0.6075 0.0
C704 C 0.57102 0.65466 0.7417 0.0
C705 C 0.59098 0.65569 0.72192 0.0
C706 C 0.65632 0.62966 0.70136 0.0
C707 C 0.68674 0.63265 0.63173 0.0
C708 C 0.66776 0.63568 0.65462 0.0
C709 C 0.60971 0.63675 0.71914 0.0
C710 C 0.63003 0.63727 0.6972 0.0
H711 H 0.70166 0.65761 0.57107 0.0
H712 H 0.67484 0.66557 0.61103 0.0
H713 H 0.69506 0.6229 0.68417 0.0
H714 H 0.58752 0.60014 0.76978 0.0
H715 H 0.62226 0.60191 0.73509 0.0
C716 C 0.70509 0.36455 0.11091 0.0
C717 C 0.71007 0.38881 0.10426 0.0
C718 C 0.69168 0.35834 0.13468 0.0
C719 C 0.66926 0.38295 0.1997 0.0
H720 H 0.6125 0.33742 0.19554 0.0
C721 C 0.57733 0.38357 0.2695 0.0
C722 C 0.56758 0.3615 0.27943 0.0
C723 C 0.59814 0.38412 0.25065 0.0
C724 C 0.62855 0.34987 0.19715 0.0
H725 H 0.70568 0.42547 0.11782 0.0
H726 H 0.68206 0.41478 0.15876 0.0
H727 H 0.64337 0.3433 0.1579 0.0
H728 H 0.57228 0.32265 0.27759 0.0
H729 H 0.60853 0.32367 0.24409 0.0
H730 H 0.65359 0.39029 0.23852 0.0
C731 C 0.68878 0.40043 0.14593 0.0
C732 C 0.64631 0.35321 0.17561 0.0
C733 C 0.7022 0.4066 0.12228 0.0
C734 C 0.57935 0.33994 0.2703 0.0
C735 C 0.60001 0.3405 0.2511 0.0
C736 C 0.65139 0.37975 0.22111 0.0
C737 C 0.68299 0.37627 0.15229 0.0
C738 C 0.66647 0.37026 0.17638 0.0
C739 C 0.60955 0.36263 0.24107 0.0
C740 C 0.63049 0.36361 0.21981 0.0
H741 H 0.711 0.3504 0.09749 0.0
H742 H 0.68784 0.33954 0.13912 0.0
H743 H 0.6849 0.39581 0.20122 0.0
H744 H 0.56881 0.4005 0.27623 0.0
H745 H 0.60487 0.40144 0.24306 0.0
C746 C 0.31403 0.5783 0.62876 0.0
C747 C 0.30149 0.59593 0.61294 0.0
C748 C 0.32899 0.58487 0.64987 0.0
C749 C 0.36673 0.63558 0.67317 0.0
H750 H 0.37169 0.59445 0.73581 0.0
C751 C 0.43873 0.65249 0.75746 0.0
C752 C 0.45421 0.63214 0.76457 0.0
C753 C 0.4173 0.65027 0.74101 0.0
C754 C 0.37048 0.60612 0.71843 0.0
H755 H 0.294 0.63432 0.60752 0.0
H756 H 0.31992 0.64582 0.64477 0.0
H757 H 0.338 0.58692 0.70402 0.0
H758 H 0.459 0.59347 0.76044 0.0
H759 H 0.42164 0.58964 0.73202 0.0
H760 H 0.39951 0.65458 0.68764 0.0
C761 C 0.31849 0.6269 0.64052 0.0
C762 C 0.35125 0.60178 0.70018 0.0
C763 C 0.3035 0.6203 0.61929 0.0
C764 C 0.44761 0.60954 0.75519 0.0
C765 C 0.42605 0.60729 0.7391 0.0
C766 C 0.38586 0.64004 0.69159 0.0
C767 C 0.33173 0.60926 0.65583 0.0
C768 C 0.34962 0.61602 0.67694 0.0
C769 C 0.41071 0.62761 0.73179 0.0
C770 C 0.38837 0.62493 0.71402 0.0
H771 H 0.31294 0.55936 0.62444 0.0
H772 H 0.33923 0.5708 0.66091 0.0
H773 H 0.36623 0.64676 0.6554 0.0
H774 H 0.44329 0.67015 0.76442 0.0
H775 H 0.40572 0.66621 0.7357 0.0
C776 C 0.85926 0.89534 0.08556 0.0
C777 C 0.84401 0.91678 0.08394 0.0
C778 C 0.87206 0.88883 0.10871 0.0
C779 C 0.87128 0.90086 0.18027 0.0
H780 H 0.94207 0.87234 0.17595 0.0
C781 C 0.93956 0.89162 0.2691 0.0
C782 C 0.95535 0.87055 0.27149 0.0
C783 C 0.92422 0.89577 0.24702 0.0
C784 C 0.92216 0.87997 0.17749 0.0
H785 H 0.83054 0.94836 0.1053 0.0
H786 H 0.8533 0.93727 0.14547 0.0
H787 H 0.91945 0.88301 0.13559 0.0
H788 H 0.96652 0.83684 0.25298 0.0
H789 H 0.93968 0.8441 0.21447 0.0
H790 H 0.87429 0.8982 0.22224 0.0
C791 C 0.85494 0.92522 0.12903 0.0
C792 C 0.90918 0.88611 0.15435 0.0
C793 C 0.84205 0.93168 0.10591 0.0
C794 C 0.95468 0.85331 0.25174 0.0
C795 C 0.93945 0.85752 0.22957 0.0
C796 C 0.88433 0.89483 0.20342 0.0
C797 C 0.87001 0.90366 0.13077 0.0
C798 C 0.88362 0.89673 0.15543 0.0
C799 C 0.9244 0.87898 0.22677 0.0
C800 C 0.90995 0.8844 0.20228 0.0
H801 H 0.86107 0.88338 0.06904 0.0
H802 H 0.88321 0.87196 0.10945 0.0
H803 H 0.85143 0.90862 0.18185 0.0
H804 H 0.93952 0.90525 0.28399 0.0
H805 H 0.91297 0.91254 0.24536 0.0
C806 C 0.19863 0.14341 0.58553 0.0
C807 C 0.2139 0.12205 0.58318 0.0
C808 C 0.18282 0.14751 0.60828 0.0
C809 C 0.16974 0.12574 0.67759 0.0
H810 H 0.09802 0.14844 0.66498 0.0
C811 C 0.08259 0.11279 0.75345 0.0
C812 C 0.06396 0.13184 0.7563 0.0
C813 C 0.10258 0.1138 0.73365 0.0
C814 C 0.11807 0.14241 0.66892 0.0
H815 H 0.22558 0.08883 0.60354 0.0
H816 H 0.19789 0.09582 0.64283 0.0
H817 H 0.13063 0.14717 0.62848 0.0
H818 H 0.05216 0.16713 0.74082 0.0
H819 H 0.08699 0.16882 0.70636 0.0
H820 H 0.15685 0.1204 0.71797 0.0
C821 C 0.19823 0.10955 0.62729 0.0
C822 C 0.13682 0.14175 0.64799 0.0
C823 C 0.21403 0.10548 0.60461 0.0
C824 C 0.06604 0.15205 0.73911 0.0
C825 C 0.08595 0.153 0.71927 0.0
C826 C 0.15094 0.12632 0.69852 0.0
C827 C 0.18194 0.13034 0.62917 0.0
C828 C 0.16281 0.13313 0.65198 0.0
C829 C 0.10436 0.13384 0.7162 0.0
C830 C 0.1248 0.13441 0.69436 0.0
H831 H 0.19817 0.15662 0.56946 0.0
H832 H 0.17086 0.16392 0.60928 0.0
H833 H 0.18968 0.11934 0.68144 0.0
H834 H 0.08164 0.097 0.7664 0.0
H835 H 0.1163 0.09863 0.73163 0.0
C836 C 0.2036 0.86157 0.10628 0.0
C837 C 0.20933 0.88581 0.10031 0.0
C838 C 0.19028 0.85512 0.13002 0.0
C839 C 0.16893 0.87867 0.19588 0.0
H840 H 0.11049 0.83514 0.19032 0.0
C841 C 0.07642 0.8809 0.26479 0.0
C842 C 0.06589 0.859 0.27431 0.0
C843 C 0.09744 0.88112 0.24616 0.0
C844 C 0.12701 0.847 0.19231 0.0
H845 H 0.20648 0.92213 0.11507 0.0
H846 H 0.18296 0.91105 0.15594 0.0
H847 H 0.14166 0.84091 0.15292 0.0
H848 H 0.06937 0.82011 0.27199 0.0
H849 H 0.10594 0.82056 0.23882 0.0
H850 H 0.15338 0.88563 0.23484 0.0
C851 C 0.18904 0.89688 0.14261 0.0
C852 C 0.14494 0.85028 0.17091 0.0
C853 C 0.20239 0.90329 0.119 0.0
C854 C 0.07706 0.83726 0.265 0.0
C855 C 0.0979 0.83751 0.246 0.0
C856 C 0.15087 0.87555 0.21715 0.0
C857 C 0.1824 0.87278 0.14826 0.0
C858 C 0.16572 0.86665 0.17219 0.0
C859 C 0.10824 0.85946 0.23639 0.0
C860 C 0.12937 0.86015 0.21533 0.0
H861 H 0.20881 0.84764 0.09234 0.0
H862 H 0.18581 0.83635 0.1339 0.0
H863 H 0.18504 0.89098 0.19778 0.0
H864 H 0.06839 0.89795 0.2717 0.0
H865 H 0.1048 0.89831 0.23888 0.0
C866 C 0.81043 0.08283 0.62469 0.0
C867 C 0.79998 0.10068 0.60768 0.0
C868 C 0.82464 0.08911 0.64643 0.0
C869 C 0.86444 0.13831 0.67005 0.0
H870 H 0.86444 0.09833 0.73385 0.0
C871 C 0.93492 0.15295 0.75604 0.0
C872 C 0.94905 0.13196 0.76373 0.0
C873 C 0.9136 0.15157 0.7393 0.0
C874 C 0.86459 0.10969 0.71616 0.0
H875 H 0.79526 0.13923 0.60084 0.0
H876 H 0.81979 0.15025 0.6392 0.0
H877 H 0.83151 0.09193 0.70093 0.0
H878 H 0.95144 0.09308 0.7605 0.0
H879 H 0.91422 0.09073 0.73161 0.0
H880 H 0.89782 0.15584 0.68532 0.0
C881 C 0.81737 0.13135 0.63539 0.0
C882 C 0.84581 0.10599 0.69726 0.0
C883 C 0.80317 0.12503 0.6135 0.0
C884 C 0.9411 0.1096 0.75479 0.0
C885 C 0.91963 0.10821 0.73843 0.0
C886 C 0.8831 0.14215 0.68911 0.0
C887 C 0.82865 0.11343 0.65186 0.0
C888 C 0.846 0.11976 0.6736 0.0
C889 C 0.90575 0.12916 0.73039 0.0
C890 C 0.88381 0.12741 0.71198 0.0
H891 H 0.80838 0.06389 0.6208 0.0
H892 H 0.83336 0.0748 0.65839 0.0
H893 H 0.86537 0.1491 0.65197 0.0
H894 H 0.94056 0.17044 0.76264 0.0
H895 H 0.90316 0.16799 0.73343 0.0
loop_
_geom_bond_atom_site_label_1
_geom_bond_atom_site_label_2
_geom_bond_distance
_geom_bond_site_symmetry_2
_ccdc_geom_bond_type
O0 Cd1 2.300 . S
O0 C7 1.275 . S
Cd1 O0 2.300 . S
Cd1 O9 2.381 . S
Cd1 O10 2.378 . S
O2 Cd3 2.385 1_556 S
O2 C7 1.255 . S
Cd3 O2 2.385 1_554 S
Cd3 O4 2.317 . S
O4 Cd3 2.317 . S
O4 C5 1.232 . S
C5 O4 1.232 . S
C5 O6 1.218 . S
O6 C5 1.218 . S
C7 O0 1.275 . S
C7 O2 1.255 . S
C8 O9 1.258 . S
C8 O10 1.256 . S
O9 Cd1 2.381 . S
O9 C8 1.258 . S
O10 Cd1 2.378 . S
O10 C8 1.256 . S
O11 Cd12 2.300 . S
O11 C18 1.275 . S
Cd12 O11 2.300 . S
Cd12 O20 2.381 . S
Cd12 O21 2.378 . S
O13 Cd14 2.385 . S
O13 C18 1.255 . S
Cd14 O13 2.385 . S
Cd14 O15 2.317 . S
O15 Cd14 2.317 . S
O15 C16 1.232 . S
C16 O15 1.232 . S
C16 O17 1.218 . S
O17 C16 1.218 . S
C18 O11 1.275 . S
C18 O13 1.255 . S
C19 O20 1.258 . S
C19 O21 1.256 . S
O20 Cd12 2.381 . S
O20 C19 1.258 . S
O21 Cd12 2.378 . S
O21 C19 1.256 . S
O22 Cd23 2.300 . S
O22 C29 1.275 . S
Cd23 O22 2.300 . S
Cd23 O31 2.381 . S
Cd23 O32 2.378 . S
O24 Cd25 2.385 . S
O24 C29 1.255 1_554 S
Cd25 O24 2.385 . S
Cd25 O26 2.317 . S
O26 Cd25 2.317 . S
O26 C27 1.232 . S
C27 O26 1.232 . S
C27 O28 1.218 . S
O28 C27 1.218 . S
C29 O22 1.275 . S
C29 O24 1.255 1_556 S
C30 O31 1.258 . S
C30 O32 1.256 . S
O31 Cd23 2.381 . S
O31 C30 1.258 . S
O32 Cd23 2.378 . S
O32 C30 1.256 . S
O33 Cd34 2.300 . S
O33 C40 1.275 . S
Cd34 O33 2.300 . S
Cd34 O42 2.381 . S
Cd34 O43 2.378 . S
O35 Cd36 2.385 . S
O35 C40 1.255 . S
Cd36 O35 2.385 . S
Cd36 O37 2.317 . S
O37 Cd36 2.317 . S
O37 C38 1.232 . S
C38 O37 1.232 . S
C38 O39 1.218 . S
O39 C38 1.218 . S
C40 O33 1.275 . S
C40 O35 1.255 . S
C41 O42 1.258 . S
C41 O43 1.256 . S
O42 Cd34 2.381 . S
O42 C41 1.258 . S
O43 Cd34 2.378 . S
O43 C41 1.256 . S
O44 Cd45 2.300 . S
O44 C51 1.275 . S
Cd45 O44 2.300 . S
Cd45 O53 2.381 . S
Cd45 O54 2.378 . S
O46 Cd47 2.385 1_556 S
O46 C51 1.255 . S
Cd47 O46 2.385 1_554 S
Cd47 O48 2.317 . S
O48 Cd47 2.317 . S
O48 C49 1.232 . S
C49 O48 1.232 . S
C49 O50 1.218 . S
O50 C49 1.218 . S
C51 O44 1.275 . S
C51 O46 1.255 . S
C52 O53 1.258 . S
C52 O54 1.256 . S
O53 Cd45 2.381 . S
O53 C52 1.258 . S
O54 Cd45 2.378 . S
O54 C52 1.256 . S
O55 Cd56 2.300 . S
O55 C62 1.275 . S
Cd56 O55 2.300 . S
Cd56 O64 2.381 . S
Cd56 O65 2.378 . S
O57 Cd58 2.385 . S
O57 C62 1.255 . S
Cd58 O57 2.385 . S
Cd58 O59 2.317 . S
O59 Cd58 2.317 . S
O59 C60 1.232 . S
C60 O59 1.232 . S
C60 O61 1.218 . S
O61 C60 1.218 . S
C62 O55 1.275 . S
C62 O57 1.255 . S
C63 O64 1.258 . S
C63 O65 1.256 . S
O64 Cd56 2.381 . S
O64 C63 1.258 . S
O65 Cd56 2.378 . S
O65 C63 1.256 . S
O66 Cd67 2.300 . S
O66 C73 1.275 . S
Cd67 O66 2.300 . S
Cd67 O75 2.381 . S
Cd67 O76 2.378 . S
O68 Cd69 2.385 . S
O68 C73 1.255 1_554 S
Cd69 O68 2.385 . S
Cd69 O70 2.317 . S
O70 Cd69 2.317 . S
O70 C71 1.232 . S
C71 O70 1.232 . S
C71 O72 1.218 . S
O72 C71 1.218 . S
C73 O66 1.275 . S
C73 O68 1.255 1_556 S
C74 O75 1.258 . S
C74 O76 1.256 . S
O75 Cd67 2.381 . S
O75 C74 1.258 . S
O76 Cd67 2.378 . S
O76 C74 1.256 . S
O77 Cd78 2.300 . S
O77 C84 1.275 . S
Cd78 O77 2.300 . S
Cd78 O86 2.381 . S
Cd78 O87 2.378 . S
O79 Cd80 2.385 . S
O79 C84 1.255 . S
Cd80 O79 2.385 . S
Cd80 O81 2.317 . S
O81 Cd80 2.317 . S
O81 C82 1.232 . S
C82 O81 1.232 . S
C82 O83 1.218 . S
O83 C82 1.218 . S
C84 O77 1.275 . S
C84 O79 1.255 . S
C85 O86 1.258 . S
C85 O87 1.256 . S
O86 Cd78 2.381 . S
O86 C85 1.258 . S
O87 Cd78 2.378 . S
O87 C85 1.256 . S
Fe88 O90 1.918 . S
Fe88 O93 1.997 1_455 S
Fe88 O94 2.002 1_455 S
Fe88 O99 1.976 . S
Fe88 O102 1.996 . S
Fe89 O90 1.918 . S
Fe89 O97 1.997 1_455 S
Fe89 O100 1.996 . S
Fe89 O104 1.976 . S
Fe89 O107 2.002 1_455 S
O90 Fe88 1.918 . S
O90 Fe89 1.918 . S
O90 Fe91 1.918 . S
Fe91 O90 1.918 . S
Fe91 O92 2.002 1_455 S
Fe91 O101 1.976 . S
Fe91 O105 1.996 . S
Fe91 O108 1.997 1_455 S
O92 Fe91 2.002 1_655 S
O92 C109 1.295 . S
O93 Fe88 1.997 1_655 S
O93 C109 1.235 . S
O94 Fe88 2.002 1_655 S
O94 C95 1.295 . S
C95 O94 1.295 . S
C95 O97 1.235 . S
C96 O101 1.287 . S
C96 O102 1.255 . S
O97 Fe89 1.997 1_655 S
O97 C95 1.235 . S
C98 O104 1.287 . S
C98 O105 1.255 . S
O99 Fe88 1.976 . S
O99 C106 1.287 . S
O100 Fe89 1.996 . S
O100 C106 1.255 . S
O101 Fe91 1.976 . S
O101 C96 1.287 . S
O102 Fe88 1.996 . S
O102 C96 1.255 . S
C103 O107 1.295 . S
C103 O108 1.235 . S
O104 Fe89 1.976 . S
O104 C98 1.287 . S
O105 Fe91 1.996 . S
O105 C98 1.255 . S
C106 O99 1.287 . S
C106 O100 1.255 . S
O107 Fe89 2.002 1_655 S
O107 C103 1.295 . S
O108 Fe91 1.997 1_655 S
O108 C103 1.235 . S
C109 O92 1.295 . S
C109 O93 1.235 . S
Fe110 O112 1.918 . S
Fe110 O115 1.997 . S
Fe110 O116 2.002 . S
Fe110 O121 1.976 1_455 S
Fe110 O124 1.996 1_455 S
Fe111 O112 1.918 . S
Fe111 O119 1.997 . S
Fe111 O122 1.996 1_455 S
Fe111 O126 1.976 1_455 S
Fe111 O129 2.002 . S
O112 Fe110 1.918 . S
O112 Fe111 1.918 . S
O112 Fe113 1.918 . S
Fe113 O112 1.918 . S
Fe113 O114 2.002 . S
Fe113 O123 1.976 1_455 S
Fe113 O127 1.996 1_455 S
Fe113 O130 1.997 . S
O114 Fe113 2.002 . S
O114 C131 1.295 . S
O115 Fe110 1.997 . S
O115 C131 1.235 . S
O116 Fe110 2.002 . S
O116 C117 1.295 . S
C117 O116 1.295 . S
C117 O119 1.235 . S
C118 O123 1.287 . S
C118 O124 1.255 . S
O119 Fe111 1.997 . S
O119 C117 1.235 . S
C120 O126 1.287 . S
C120 O127 1.255 . S
O121 Fe110 1.976 1_655 S
O121 C128 1.287 . S
O122 Fe111 1.996 1_655 S
O122 C128 1.255 . S
O123 Fe113 1.976 1_655 S
O123 C118 1.287 . S
O124 Fe110 1.996 1_655 S
O124 C118 1.255 . S
C125 O129 1.295 . S
C125 O130 1.235 . S
O126 Fe111 1.976 1_655 S
O126 C120 1.287 . S
O127 Fe113 1.996 1_655 S
O127 C120 1.255 . S
C128 O121 1.287 . S
C128 O122 1.255 . S
O129 Fe111 2.002 . S
O129 C125 1.295 . S
O130 Fe113 1.997 . S
O130 C125 1.235 . S
C131 O114 1.295 . S
C131 O115 1.235 . S
Fe132 O134 1.918 . S
Fe132 O137 1.997 . S
Fe132 O138 2.002 . S
Fe132 O143 1.976 . S
Fe132 O146 1.996 . S
Fe133 O134 1.918 . S
Fe133 O141 1.997 . S
Fe133 O144 1.996 . S
Fe133 O148 1.976 . S
Fe133 O151 2.002 . S
O134 Fe132 1.918 . S
O134 Fe133 1.918 . S
O134 Fe135 1.918 . S
Fe135 O134 1.918 . S
Fe135 O136 2.002 . S
Fe135 O145 1.976 . S
Fe135 O149 1.996 . S
Fe135 O152 1.997 . S
O136 Fe135 2.002 . S
O136 C153 1.295 . S
O137 Fe132 1.997 . S
O137 C153 1.235 . S
O138 Fe132 2.002 . S
O138 C139 1.295 . S
C139 O138 1.295 . S
C139 O141 1.235 . S
C140 O145 1.287 . S
C140 O146 1.255 . S
O141 Fe133 1.997 . S
O141 C139 1.235 . S
C142 O148 1.287 . S
C142 O149 1.255 . S
O143 Fe132 1.976 . S
O143 C150 1.287 . S
O144 Fe133 1.996 . S
O144 C150 1.255 . S
O145 Fe135 1.976 . S
O145 C140 1.287 . S
O146 Fe132 1.996 . S
O146 C140 1.255 . S
C147 O151 1.295 . S
C147 O152 1.235 . S
O148 Fe133 1.976 . S
O148 C142 1.287 . S
O149 Fe135 1.996 . S
O149 C142 1.255 . S
C150 O143 1.287 . S
C150 O144 1.255 . S
O151 Fe133 2.002 . S
O151 C147 1.295 . S
O152 Fe135 1.997 . S
O152 C147 1.235 . S
C153 O136 1.295 . S
C153 O137 1.235 . S
Fe154 O156 1.918 . S
Fe154 O159 1.997 . S
Fe154 O160 2.002 . S
Fe154 O165 1.976 . S
Fe154 O168 1.996 . S
Fe155 O156 1.918 . S
Fe155 O163 1.997 . S
Fe155 O166 1.996 . S
Fe155 O170 1.976 . S
Fe155 O173 2.002 . S
O156 Fe154 1.918 . S
O156 Fe155 1.918 . S
O156 Fe157 1.918 . S
Fe157 O156 1.918 . S
Fe157 O158 2.002 . S
Fe157 O167 1.976 . S
Fe157 O171 1.996 . S
Fe157 O174 1.997 . S
O158 Fe157 2.002 . S
O158 C175 1.295 . S
O159 Fe154 1.997 . S
O159 C175 1.235 . S
O160 Fe154 2.002 . S
O160 C161 1.295 . S
C161 O160 1.295 . S
C161 O163 1.235 . S
C162 O167 1.287 . S
C162 O168 1.255 . S
O163 Fe155 1.997 . S
O163 C161 1.235 . S
C164 O170 1.287 . S
C164 O171 1.255 . S
O165 Fe154 1.976 . S
O165 C172 1.287 . S
O166 Fe155 1.996 . S
O166 C172 1.255 . S
O167 Fe157 1.976 . S
O167 C162 1.287 . S
O168 Fe154 1.996 . S
O168 C162 1.255 . S
C169 O173 1.295 . S
C169 O174 1.235 . S
O170 Fe155 1.976 . S
O170 C164 1.287 . S
O171 Fe157 1.996 . S
O171 C164 1.255 . S
C172 O165 1.287 . S
C172 O166 1.255 . S
O173 Fe155 2.002 . S
O173 C169 1.295 . S
O174 Fe157 1.997 . S
O174 C169 1.235 . S
C175 O158 1.295 . S
C175 O159 1.235 . S
C176 C177 1.349 . S
C176 C178 1.327 . S
C176 H201 0.950 . S
C177 C176 1.349 . S
C177 C193 1.349 . S
C178 C176 1.327 . S
C178 C197 1.429 . S
C178 H202 0.950 . S
C179 C196 1.574 . S
C179 C198 1.368 . S
C179 H203 0.949 . S
H180 C184 0.949 . S
C181 C182 1.349 . S
C181 C183 1.327 . S
C181 H204 0.950 . S
C182 C181 1.349 . S
C182 C194 1.349 . S
C183 C181 1.327 . S
C183 C199 1.429 . S
C183 H205 0.950 . S
C184 H180 0.949 . S
C184 C192 1.574 . S
C184 C200 1.368 . S
H185 C193 0.950 . S
H186 C191 0.950 . S
H187 C192 0.949 . S
H188 C194 0.950 . S
H189 C195 0.950 . S
H190 C196 0.949 . S
C191 H186 0.950 . S
C191 C193 1.327 . S
C191 C197 1.429 . S
C192 C184 1.574 . S
C192 H187 0.949 . S
C192 C198 1.368 . S
C193 C177 1.349 . S
C193 H185 0.950 . S
C193 C191 1.327 . S
C194 C182 1.349 . S
C194 H188 0.950 . S
C194 C195 1.327 . S
C195 H189 0.950 . S
C195 C194 1.327 . S
C195 C199 1.429 . S
C196 C179 1.574 . S
C196 H190 0.949 . S
C196 C200 1.368 . S
C197 C178 1.429 . S
C197 C191 1.429 . S
C197 C198 1.523 . S
C198 C179 1.368 . S
C198 C192 1.368 . S
C198 C197 1.523 . S
C199 C183 1.429 . S
C199 C195 1.429 . S
C199 C200 1.523 . S
C200 C184 1.368 . S
C200 C196 1.368 . S
C200 C199 1.523 . S
H201 C176 0.950 . S
H202 C178 0.950 . S
H203 C179 0.949 . S
H204 C181 0.950 . S
H205 C183 0.950 . S
C206 C207 1.349 . S
C206 C208 1.327 . S
C206 H231 0.950 . S
C207 C206 1.349 . S
C207 C223 1.349 . S
C208 C206 1.327 . S
C208 C227 1.429 . S
C208 H232 0.950 . S
C209 C226 1.574 . S
C209 C228 1.368 . S
C209 H233 0.949 . S
H210 C214 0.949 . S
C211 C212 1.349 . S
C211 C213 1.327 . S
C211 H234 0.950 . S
C212 C211 1.349 . S
C212 C224 1.349 . S
C213 C211 1.327 . S
C213 C229 1.429 . S
C213 H235 0.950 . S
C214 H210 0.949 . S
C214 C222 1.574 . S
C214 C230 1.368 . S
H215 C223 0.950 . S
H216 C221 0.950 . S
H217 C222 0.949 . S
H218 C224 0.950 . S
H219 C225 0.950 . S
H220 C226 0.949 . S
C221 H216 0.950 . S
C221 C223 1.327 . S
C221 C227 1.429 . S
C222 C214 1.574 . S
C222 H217 0.949 . S
C222 C228 1.368 . S
C223 C207 1.349 . S
C223 H215 0.950 . S
C223 C221 1.327 . S
C224 C212 1.349 . S
C224 H218 0.950 . S
C224 C225 1.327 . S
C225 H219 0.950 . S
C225 C224 1.327 . S
C225 C229 1.429 . S
C226 C209 1.574 . S
C226 H220 0.949 . S
C226 C230 1.368 . S
C227 C208 1.429 . S
C227 C221 1.429 . S
C227 C228 1.523 . S
C228 C209 1.368 . S
C228 C222 1.368 . S
C228 C227 1.523 . S
C229 C213 1.429 . S
C229 C225 1.429 . S
C229 C230 1.523 . S
C230 C214 1.368 . S
C230 C226 1.368 . S
C230 C229 1.523 . S
H231 C206 0.950 . S
H232 C208 0.950 . S
H233 C209 0.949 . S
H234 C211 0.950 . S
H235 C213 0.950 . S
C236 C237 1.349 . S
C236 C238 1.327 . S
C236 H261 0.950 . S
C237 C236 1.349 . S
C237 C253 1.349 . S
C238 C236 1.327 . S
C238 C257 1.429 . S
C238 H262 0.950 . S
C239 C256 1.574 . S
C239 C258 1.368 . S
C239 H263 0.949 . S
H240 C244 0.949 . S
C241 C242 1.349 . S
C241 C243 1.327 . S
C241 H264 0.950 . S
C242 C241 1.349 . S
C242 C254 1.349 . S
C243 C241 1.327 . S
C243 C259 1.429 . S
C243 H265 0.950 . S
C244 H240 0.949 . S
C244 C252 1.574 . S
C244 C260 1.368 . S
H245 C253 0.950 . S
H246 C251 0.950 . S
H247 C252 0.949 . S
H248 C254 0.950 . S
H249 C255 0.950 . S
H250 C256 0.949 . S
C251 H246 0.950 . S
C251 C253 1.327 . S
C251 C257 1.429 . S
C252 C244 1.574 . S
C252 H247 0.949 . S
C252 C258 1.368 . S
C253 C237 1.349 . S
C253 H245 0.950 . S
C253 C251 1.327 . S
C254 C242 1.349 . S
C254 H248 0.950 . S
C254 C255 1.327 . S
C255 H249 0.950 . S
C255 C254 1.327 . S
C255 C259 1.429 . S
C256 C239 1.574 . S
C256 H250 0.949 . S
C256 C260 1.368 . S
C257 C238 1.429 . S
C257 C251 1.429 . S
C257 C258 1.523 . S
C258 C239 1.368 . S
C258 C252 1.368 . S
C258 C257 1.523 . S
C259 C243 1.429 . S
C259 C255 1.429 . S
C259 C260 1.523 . S
C260 C244 1.368 . S
C260 C256 1.368 . S
C260 C259 1.523 . S
H261 C236 0.950 . S
H262 C238 0.950 . S
H263 C239 0.949 . S
H264 C241 0.950 . S
H265 C243 0.950 . S
C266 C267 1.349 . S
C266 C268 1.327 . S
C266 H291 0.950 . S
C267 C266 1.349 . S
C267 C283 1.349 . S
C268 C266 1.327 . S
C268 C287 1.429 . S
C268 H292 0.950 . S
C269 C286 1.574 . S
C269 C288 1.368 . S
C269 H293 0.949 . S
H270 C274 0.949 . S
C271 C272 1.349 . S
C271 C273 1.327 . S
C271 H294 0.950 . S
C272 C271 1.349 . S
C272 C284 1.349 . S
C273 C271 1.327 . S
C273 C289 1.429 . S
C273 H295 0.950 . S
C274 H270 0.949 . S
C274 C282 1.574 . S
C274 C290 1.368 . S
H275 C283 0.950 . S
H276 C281 0.950 . S
H277 C282 0.949 . S
H278 C284 0.950 . S
H279 C285 0.950 . S
H280 C286 0.949 . S
C281 H276 0.950 . S
C281 C283 1.327 . S
C281 C287 1.429 . S
C282 C274 1.574 . S
C282 H277 0.949 . S
C282 C288 1.368 . S
C283 C267 1.349 . S
C283 H275 0.950 . S
C283 C281 1.327 . S
C284 C272 1.349 . S
C284 H278 0.950 . S
C284 C285 1.327 . S
C285 H279 0.950 . S
C285 C284 1.327 . S
C285 C289 1.429 . S
C286 C269 1.574 . S
C286 H280 0.949 . S
C286 C290 1.368 . S
C287 C268 1.429 . S
C287 C281 1.429 . S
C287 C288 1.523 . S
C288 C269 1.368 . S
C288 C282 1.368 . S
C288 C287 1.523 . S
C289 C273 1.429 . S
C289 C285 1.429 . S
C289 C290 1.523 . S
C290 C274 1.368 . S
C290 C286 1.368 . S
C290 C289 1.523 . S
H291 C266 0.950 . S
H292 C268 0.950 . S
H293 C269 0.949 . S
H294 C271 0.950 . S
H295 C273 0.950 . S
C296 C297 1.349 . S
C296 C298 1.327 . S
C296 H321 0.950 . S
C297 C296 1.349 . S
C297 C313 1.349 . S
C298 C296 1.327 . S
C298 C317 1.429 . S
C298 H322 0.950 . S
C299 C316 1.574 . S
C299 C318 1.368 . S
C299 H323 0.949 . S
H300 C304 0.949 . S
C301 C302 1.349 . S
C301 C303 1.327 . S
C301 H324 0.950 . S
C302 C301 1.349 . S
C302 C314 1.349 . S
C303 C301 1.327 . S
C303 C319 1.429 . S
C303 H325 0.950 . S
C304 H300 0.949 . S
C304 C312 1.574 . S
C304 C320 1.368 . S
H305 C313 0.950 . S
H306 C311 0.950 . S
H307 C312 0.949 . S
H308 C314 0.950 . S
H309 C315 0.950 . S
H310 C316 0.949 . S
C311 H306 0.950 . S
C311 C313 1.327 . S
C311 C317 1.429 . S
C312 C304 1.574 . S
C312 H307 0.949 . S
C312 C318 1.368 . S
C313 C297 1.349 . S
C313 H305 0.950 . S
C313 C311 1.327 . S
C314 C302 1.349 . S
C314 H308 0.950 . S
C314 C315 1.327 . S
C315 H309 0.950 . S
C315 C314 1.327 . S
C315 C319 1.429 . S
C316 C299 1.574 . S
C316 H310 0.949 . S
C316 C320 1.368 . S
C317 C298 1.429 . S
C317 C311 1.429 . S
C317 C318 1.523 . S
C318 C299 1.368 . S
C318 C312 1.368 . S
C318 C317 1.523 . S
C319 C303 1.429 . S
C319 C315 1.429 . S
C319 C320 1.523 . S
C320 C304 1.368 . S
C320 C316 1.368 . S
C320 C319 1.523 . S
H321 C296 0.950 . S
H322 C298 0.950 . S
H323 C299 0.949 . S
H324 C301 0.950 . S
H325 C303 0.950 . S
C326 C327 1.349 . S
C326 C328 1.327 . S
C326 H351 0.950 . S
C327 C326 1.349 . S
C327 C343 1.349 . S
C328 C326 1.327 . S
C328 C347 1.429 . S
C328 H352 0.950 . S
C329 C346 1.574 . S
C329 C348 1.368 . S
C329 H353 0.949 . S
H330 C334 0.949 . S
C331 C332 1.349 . S
C331 C333 1.327 . S
C331 H354 0.950 . S
C332 C331 1.349 . S
C332 C344 1.349 . S
C333 C331 1.327 . S
C333 C349 1.429 . S
C333 H355 0.950 . S
C334 H330 0.949 . S
C334 C342 1.574 . S
C334 C350 1.368 . S
H335 C343 0.950 . S
H336 C341 0.950 . S
H337 C342 0.949 . S
H338 C344 0.950 . S
H339 C345 0.950 . S
H340 C346 0.949 . S
C341 H336 0.950 . S
C341 C343 1.327 . S
C341 C347 1.429 . S
C342 C334 1.574 . S
C342 H337 0.949 . S
C342 C348 1.368 . S
C343 C327 1.349 . S
C343 H335 0.950 . S
C343 C341 1.327 . S
C344 C332 1.349 . S
C344 H338 0.950 . S
C344 C345 1.327 . S
C345 H339 0.950 . S
C345 C344 1.327 . S
C345 C349 1.429 . S
C346 C329 1.574 . S
C346 H340 0.949 . S
C346 C350 1.368 . S
C347 C328 1.429 . S
C347 C341 1.429 . S
C347 C348 1.523 . S
C348 C329 1.368 . S
C348 C342 1.368 . S
C348 C347 1.523 . S
C349 C333 1.429 . S
C349 C345 1.429 . S
C349 C350 1.523 . S
C350 C334 1.368 . S
C350 C346 1.368 . S
C350 C349 1.523 . S
H351 C326 0.950 . S
H352 C328 0.950 . S
H353 C329 0.949 . S
H354 C331 0.950 . S
H355 C333 0.950 . S
C356 C357 1.349 . S
C356 C358 1.327 . S
C356 H381 0.950 . S
C357 C356 1.349 . S
C357 C373 1.349 . S
C358 C356 1.327 . S
C358 C377 1.429 . S
C358 H382 0.950 . S
C359 C376 1.574 . S
C359 C378 1.368 . S
C359 H383 0.949 . S
H360 C364 0.949 . S
C361 C362 1.349 . S
C361 C363 1.327 . S
C361 H384 0.950 . S
C362 C361 1.349 . S
C362 C374 1.349 . S
C363 C361 1.327 . S
C363 C379 1.429 . S
C363 H385 0.950 . S
C364 H360 0.949 . S
C364 C372 1.574 . S
C364 C380 1.368 . S
H365 C373 0.950 . S
H366 C371 0.950 . S
H367 C372 0.949 . S
H368 C374 0.950 . S
H369 C375 0.950 . S
H370 C376 0.949 . S
C371 H366 0.950 . S
C371 C373 1.327 . S
C371 C377 1.429 . S
C372 C364 1.574 . S
C372 H367 0.949 . S
C372 C378 1.368 . S
C373 C357 1.349 . S
C373 H365 0.950 . S
C373 C371 1.327 . S
C374 C362 1.349 . S
C374 H368 0.950 . S
C374 C375 1.327 . S
C375 H369 0.950 . S
C375 C374 1.327 . S
C375 C379 1.429 . S
C376 C359 1.574 . S
C376 H370 0.949 . S
C376 C380 1.368 . S
C377 C358 1.429 . S
C377 C371 1.429 . S
C377 C378 1.523 . S
C378 C359 1.368 . S
C378 C372 1.368 . S
C378 C377 1.523 . S
C379 C363 1.429 . S
C379 C375 1.429 . S
C379 C380 1.523 . S
C380 C364 1.368 . S
C380 C376 1.368 . S
C380 C379 1.523 . S
H381 C356 0.950 . S
H382 C358 0.950 . S
H383 C359 0.949 . S
H384 C361 0.950 . S
H385 C363 0.950 . S
C386 C387 1.349 . S
C386 C388 1.327 . S
C386 H411 0.950 . S
C387 C386 1.349 . S
C387 C403 1.349 . S
C388 C386 1.327 . S
C388 C407 1.429 . S
C388 H412 0.950 . S
C389 C406 1.574 . S
C389 C408 1.368 . S
C389 H413 0.949 . S
H390 C394 0.949 . S
C391 C392 1.349 . S
C391 C393 1.327 . S
C391 H414 0.950 . S
C392 C391 1.349 . S
C392 C404 1.349 . S
C393 C391 1.327 . S
C393 C409 1.429 . S
C393 H415 0.950 . S
C394 H390 0.949 . S
C394 C402 1.574 . S
C394 C410 1.368 . S
H395 C403 0.950 . S
H396 C401 0.950 . S
H397 C402 0.949 . S
H398 C404 0.950 . S
H399 C405 0.950 . S
H400 C406 0.949 . S
C401 H396 0.950 . S
C401 C403 1.327 . S
C401 C407 1.429 . S
C402 C394 1.574 . S
C402 H397 0.949 . S
C402 C408 1.368 . S
C403 C387 1.349 . S
C403 H395 0.950 . S
C403 C401 1.327 . S
C404 C392 1.349 . S
C404 H398 0.950 . S
C404 C405 1.327 . S
C405 H399 0.950 . S
C405 C404 1.327 . S
C405 C409 1.429 . S
C406 C389 1.574 . S
C406 H400 0.949 . S
C406 C410 1.368 . S
C407 C388 1.429 . S
C407 C401 1.429 . S
C407 C408 1.523 . S
C408 C389 1.368 . S
C408 C402 1.368 . S
C408 C407 1.523 . S
C409 C393 1.429 . S
C409 C405 1.429 . S
C409 C410 1.523 . S
C410 C394 1.368 . S
C410 C406 1.368 . S
C410 C409 1.523 . S
H411 C386 0.950 . S
H412 C388 0.950 . S
H413 C389 0.949 . S
H414 C391 0.950 . S
H415 C393 0.950 . S
C416 C417 1.349 . S
C416 C418 1.327 . S
C416 H441 0.950 . S
C417 C416 1.349 . S
C417 C433 1.349 . S
C418 C416 1.327 . S
C418 C437 1.429 . S
C418 H442 0.950 . S
C419 C436 1.574 . S
C419 C438 1.368 . S
C419 H443 0.949 . S
H420 C424 0.949 . S
C421 C422 1.349 . S
C421 C423 1.327 . S
C421 H444 0.950 . S
C422 C421 1.349 . S
C422 C434 1.349 . S
C423 C421 1.327 . S
C423 C439 1.429 . S
C423 H445 0.950 . S
C424 H420 0.949 . S
C424 C432 1.574 . S
C424 C440 1.368 . S
H425 C433 0.950 1_554 S
H426 C431 0.950 . S
H427 C432 0.949 . S
H428 C434 0.950 . S
H429 C435 0.950 . S
H430 C436 0.949 . S
C431 H426 0.950 . S
C431 C433 1.327 . S
C431 C437 1.429 . S
C432 C424 1.574 . S
C432 H427 0.949 . S
C432 C438 1.368 . S
C433 C417 1.349 . S
C433 H425 0.950 1_556 S
C433 C431 1.327 . S
C434 C422 1.349 . S
C434 H428 0.950 . S
C434 C435 1.327 . S
C435 H429 0.950 . S
C435 C434 1.327 . S
C435 C439 1.429 . S
C436 C419 1.574 . S
C436 H430 0.949 . S
C436 C440 1.368 . S
C437 C418 1.429 . S
C437 C431 1.429 . S
C437 C438 1.523 . S
C438 C419 1.368 . S
C438 C432 1.368 . S
C438 C437 1.523 . S
C439 C423 1.429 . S
C439 C435 1.429 . S
C439 C440 1.523 . S
C440 C424 1.368 . S
C440 C436 1.368 . S
C440 C439 1.523 . S
H441 C416 0.950 . S
H442 C418 0.950 . S
H443 C419 0.949 . S
H444 C421 0.950 . S
H445 C423 0.950 . S
C446 C447 1.349 . S
C446 C448 1.327 . S
C446 H471 0.950 . S
C447 C446 1.349 . S
C447 C463 1.349 . S
C448 C446 1.327 . S
C448 C467 1.429 . S
C448 H472 0.950 . S
C449 C466 1.574 . S
C449 C468 1.368 . S
C449 H473 0.949 . S
H450 C454 0.949 . S
C451 C452 1.349 . S
C451 C453 1.327 . S
C451 H474 0.950 . S
C452 C451 1.349 . S
C452 C464 1.349 . S
C453 C451 1.327 . S
C453 C469 1.429 . S
C453 H475 0.950 . S
C454 H450 0.949 . S
C454 C462 1.574 . S
C454 C470 1.368 . S
H455 C463 0.950 . S
H456 C461 0.950 . S
H457 C462 0.949 . S
H458 C464 0.950 . S
H459 C465 0.950 . S
H460 C466 0.949 . S
C461 H456 0.950 . S
C461 C463 1.327 . S
C461 C467 1.429 . S
C462 C454 1.574 . S
C462 H457 0.949 . S
C462 C468 1.368 . S
C463 C447 1.349 . S
C463 H455 0.950 . S
C463 C461 1.327 . S
C464 C452 1.349 . S
C464 H458 0.950 . S
C464 C465 1.327 . S
C465 H459 0.950 . S
C465 C464 1.327 . S
C465 C469 1.429 . S
C466 C449 1.574 . S
C466 H460 0.949 . S
C466 C470 1.368 . S
C467 C448 1.429 . S
C467 C461 1.429 . S
C467 C468 1.523 . S
C468 C449 1.368 . S
C468 C462 1.368 . S
C468 C467 1.523 . S
C469 C453 1.429 . S
C469 C465 1.429 . S
C469 C470 1.523 . S
C470 C454 1.368 . S
C470 C466 1.368 . S
C470 C469 1.523 . S
H471 C446 0.950 . S
H472 C448 0.950 . S
H473 C449 0.949 . S
H474 C451 0.950 . S
H475 C453 0.950 . S
C476 C477 1.349 . S
C476 C478 1.327 . S
C476 H501 0.950 1_556 S
C477 C476 1.349 . S
C477 C493 1.349 . S
C478 C476 1.327 . S
C478 C497 1.429 . S
C478 H502 0.950 . S
C479 C496 1.574 . S
C479 C498 1.368 . S
C479 H503 0.949 . S
H480 C484 0.949 . S
C481 C482 1.349 . S
C481 C483 1.327 . S
C481 H504 0.950 . S
C482 C481 1.349 . S
C482 C494 1.349 . S
C483 C481 1.327 . S
C483 C499 1.429 . S
C483 H505 0.950 . S
C484 H480 0.949 . S
C484 C492 1.574 . S
C484 C500 1.368 . S
H485 C493 0.950 . S
H486 C491 0.950 . S
H487 C492 0.949 . S
H488 C494 0.950 . S
H489 C495 0.950 . S
H490 C496 0.949 . S
C491 H486 0.950 . S
C491 C493 1.327 . S
C491 C497 1.429 . S
C492 C484 1.574 . S
C492 H487 0.949 . S
C492 C498 1.368 . S
C493 C477 1.349 . S
C493 H485 0.950 . S
C493 C491 1.327 . S
C494 C482 1.349 . S
C494 H488 0.950 . S
C494 C495 1.327 . S
C495 H489 0.950 . S
C495 C494 1.327 . S
C495 C499 1.429 . S
C496 C479 1.574 . S
C496 H490 0.949 . S
C496 C500 1.368 . S
C497 C478 1.429 . S
C497 C491 1.429 . S
C497 C498 1.523 . S
C498 C479 1.368 . S
C498 C492 1.368 . S
C498 C497 1.523 . S
C499 C483 1.429 . S
C499 C495 1.429 . S
C499 C500 1.523 . S
C500 C484 1.368 . S
C500 C496 1.368 . S
C500 C499 1.523 . S
H501 C476 0.950 1_554 S
H502 C478 0.950 . S
H503 C479 0.949 . S
H504 C481 0.950 . S
H505 C483 0.950 . S
C506 C507 1.349 . S
C506 C508 1.327 . S
C506 H531 0.950 . S
C507 C506 1.349 . S
C507 C523 1.349 . S
C508 C506 1.327 . S
C508 C527 1.429 . S
C508 H532 0.950 . S
C509 C526 1.574 . S
C509 C528 1.368 . S
C509 H533 0.949 . S
H510 C514 0.949 . S
C511 C512 1.349 . S
C511 C513 1.327 . S
C511 H534 0.950 . S
C512 C511 1.349 . S
C512 C524 1.349 . S
C513 C511 1.327 . S
C513 C529 1.429 . S
C513 H535 0.950 . S
C514 H510 0.949 . S
C514 C522 1.574 . S
C514 C530 1.368 . S
H515 C523 0.950 . S
H516 C521 0.950 . S
H517 C522 0.949 . S
H518 C524 0.950 . S
H519 C525 0.950 . S
H520 C526 0.949 . S
C521 H516 0.950 . S
C521 C523 1.327 . S
C521 C527 1.429 . S
C522 C514 1.574 . S
C522 H517 0.949 . S
C522 C528 1.368 . S
C523 C507 1.349 . S
C523 H515 0.950 . S
C523 C521 1.327 . S
C524 C512 1.349 . S
C524 H518 0.950 . S
C524 C525 1.327 . S
C525 H519 0.950 . S
C525 C524 1.327 . S
C525 C529 1.429 . S
C526 C509 1.574 . S
C526 H520 0.949 . S
C526 C530 1.368 . S
C527 C508 1.429 . S
C527 C521 1.429 . S
C527 C528 1.523 . S
C528 C509 1.368 . S
C528 C522 1.368 . S
C528 C527 1.523 . S
C529 C513 1.429 . S
C529 C525 1.429 . S
C529 C530 1.523 . S
C530 C514 1.368 . S
C530 C526 1.368 . S
C530 C529 1.523 . S
H531 C506 0.950 . S
H532 C508 0.950 . S
H533 C509 0.949 . S
H534 C511 0.950 . S
H535 C513 0.950 . S
C536 C537 1.349 . S
C536 C538 1.327 . S
C536 H561 0.950 . S
C537 C536 1.349 . S
C537 C553 1.349 . S
C538 C536 1.327 . S
C538 C557 1.429 . S
C538 H562 0.950 . S
C539 C556 1.571 1_565 S
C539 C558 1.368 . S
C539 H563 0.949 . S
H540 C544 0.949 . S
C541 C542 1.349 . S
C541 C543 1.327 . S
C541 H564 0.950 . S
C542 C541 1.349 . S
C542 C554 1.349 . S
C543 C541 1.327 . S
C543 C559 1.429 . S
C543 H565 0.950 . S
C544 H540 0.949 . S
C544 C552 1.566 1_545 S
C544 C560 1.368 . S
H545 C553 0.950 . S
H546 C551 0.950 . S
H547 C552 0.948 . S
H548 C554 0.950 . S
H549 C555 0.950 . S
H550 C556 0.948 . S
C551 H546 0.950 . S
C551 C553 1.327 . S
C551 C557 1.429 . S
C552 C544 1.566 1_565 S
C552 H547 0.948 . S
C552 C558 1.375 . S
C553 C537 1.349 . S
C553 H545 0.950 . S
C553 C551 1.327 . S
C554 C542 1.349 . S
C554 H548 0.950 . S
C554 C555 1.327 . S
C555 H549 0.950 . S
C555 C554 1.327 . S
C555 C559 1.429 . S
C556 C539 1.571 1_545 S
C556 H550 0.948 . S
C556 C560 1.370 . S
C557 C538 1.429 . S
C557 C551 1.429 . S
C557 C558 1.523 . S
C558 C539 1.368 . S
C558 C552 1.375 . S
C558 C557 1.523 . S
C559 C543 1.429 . S
C559 C555 1.429 . S
C559 C560 1.523 . S
C560 C544 1.368 . S
C560 C556 1.370 . S
C560 C559 1.523 . S
H561 C536 0.950 . S
H562 C538 0.950 . S
H563 C539 0.949 . S
H564 C541 0.950 . S
H565 C543 0.950 . S
C566 C567 1.349 . S
C566 C568 1.327 . S
C566 H591 0.950 . S
C567 C566 1.349 . S
C567 C583 1.349 . S
C568 C566 1.327 . S
C568 C587 1.429 . S
C568 H592 0.950 . S
C569 C586 1.574 . S
C569 C588 1.368 1_565 S
C569 H593 0.949 . S
H570 C574 0.948 1_545 S
C571 C572 1.349 . S
C571 C573 1.327 . S
C571 H594 0.950 . S
C572 C571 1.349 . S
C572 C584 1.349 . S
C573 C571 1.327 . S
C573 C589 1.429 . S
C573 H595 0.950 . S
C574 H570 0.948 1_565 S
C574 C582 1.571 1_565 S
C574 C590 1.373 . S
H575 C583 0.950 . S
H576 C581 0.907 1_565 S
H577 C582 0.949 . S
H578 C584 0.950 . S
H579 C585 0.950 . S
H580 C586 0.949 . S
C581 H576 0.907 1_545 S
C581 C583 1.327 . S
C581 C587 1.429 . S
C582 C574 1.571 1_545 S
C582 H577 0.949 . S
C582 C588 1.368 . S
C583 C567 1.349 . S
C583 H575 0.950 . S
C583 C581 1.327 . S
C584 C572 1.349 . S
C584 H578 0.950 . S
C584 C585 1.327 . S
C585 H579 0.950 . S
C585 C584 1.327 . S
C585 C589 1.429 . S
C586 C569 1.574 . S
C586 H580 0.949 . S
C586 C590 1.368 . S
C587 C568 1.429 . S
C587 C581 1.429 . S
C587 C588 1.523 . S
C588 C569 1.368 1_545 S
C588 C582 1.368 . S
C588 C587 1.523 . S
C589 C573 1.429 . S
C589 C585 1.429 . S
C589 C590 1.523 . S
C590 C574 1.373 . S
C590 C586 1.368 . S
C590 C589 1.523 . S
H591 C566 0.950 . S
H592 C568 0.950 . S
H593 C569 0.949 . S
H594 C571 0.950 . S
H595 C573 0.950 . S
C596 C597 1.349 . S
C596 C598 1.327 . S
C596 H621 0.950 . S
C597 C596 1.349 . S
C597 C613 1.349 . S
C598 C596 1.327 . S
C598 C617 1.429 . S
C598 H622 0.950 . S
C599 C616 1.574 . S
C599 C618 1.368 . S
C599 H623 0.949 . S
H600 C604 0.949 . S
C601 C602 1.349 . S
C601 C603 1.327 . S
C601 H624 0.950 . S
C602 C601 1.349 . S
C602 C614 1.349 . S
C603 C601 1.327 . S
C603 C619 1.429 . S
C603 H625 0.950 . S
C604 H600 0.949 . S
C604 C612 1.574 . S
C604 C620 1.368 . S
H605 C613 0.950 . S
H606 C611 0.950 . S
H607 C612 0.949 . S
H608 C614 0.950 . S
H609 C615 0.950 . S
H610 C616 0.949 . S
C611 H606 0.950 . S
C611 C613 1.327 . S
C611 C617 1.429 . S
C612 C604 1.574 . S
C612 H607 0.949 . S
C612 C618 1.368 1_545 S
C613 C597 1.349 . S
C613 H605 0.950 . S
C613 C611 1.327 . S
C614 C602 1.349 . S
C614 H608 0.950 . S
C614 C615 1.327 . S
C615 H609 0.950 . S
C615 C614 1.327 . S
C615 C619 1.429 . S
C616 C599 1.574 . S
C616 H610 0.949 . S
C616 C620 1.368 1_565 S
C617 C598 1.429 . S
C617 C611 1.429 . S
C617 C618 1.523 . S
C618 C599 1.368 . S
C618 C612 1.368 1_565 S
C618 C617 1.523 . S
C619 C603 1.429 . S
C619 C615 1.429 . S
C619 C620 1.523 . S
C620 C604 1.368 . S
C620 C616 1.368 1_545 S
C620 C619 1.523 . S
H621 C596 0.950 . S
H622 C598 0.950 . S
H623 C599 0.949 . S
H624 C601 0.950 . S
H625 C603 0.950 . S
C626 C627 1.349 . S
C626 C628 1.327 . S
C626 H651 0.950 . S
C627 C626 1.349 . S
C627 C643 1.349 . S
C628 C626 1.327 . S
C628 C647 1.429 . S
C628 H652 0.950 . S
C629 C646 1.574 . S
C629 C648 1.368 1_565 S
C629 H653 0.949 . S
H630 C634 0.949 . S
C631 C632 1.349 . S
C631 C633 1.327 . S
C631 H654 0.950 . S
C632 C631 1.349 . S
C632 C644 1.349 . S
C633 C631 1.327 . S
C633 C649 1.429 . S
C633 H655 0.950 . S
C634 H630 0.949 . S
C634 C642 1.574 . S
C634 C650 1.368 1_545 S
H635 C643 0.950 . S
H636 C641 0.950 . S
H637 C642 0.949 . S
H638 C644 0.950 . S
H639 C645 0.950 . S
H640 C646 0.949 . S
C641 H636 0.950 . S
C641 C643 1.327 . S
C641 C647 1.429 . S
C642 C634 1.574 . S
C642 H637 0.949 . S
C642 C648 1.368 . S
C643 C627 1.349 . S
C643 H635 0.950 . S
C643 C641 1.327 . S
C644 C632 1.349 . S
C644 H638 0.950 . S
C644 C645 1.327 . S
C645 H639 0.950 . S
C645 C644 1.327 . S
C645 C649 1.429 . S
C646 C629 1.574 . S
C646 H640 0.949 . S
C646 C650 1.368 . S
C647 C628 1.429 . S
C647 C641 1.429 . S
C647 C648 1.523 . S
C648 C629 1.368 1_545 S
C648 C642 1.368 . S
C648 C647 1.523 . S
C649 C633 1.429 . S
C649 C645 1.429 . S
C649 C650 1.523 . S
C650 C634 1.368 1_565 S
C650 C646 1.368 . S
C650 C649 1.523 . S
H651 C626 0.950 . S
H652 C628 0.950 . S
H653 C629 0.949 . S
H654 C631 0.950 . S
H655 C633 0.950 . S
C656 C657 1.349 . S
C656 C658 1.327 . S
C656 H681 0.950 . S
C657 C656 1.349 . S
C657 C673 1.349 . S
C658 C656 1.327 . S
C658 C677 1.429 . S
C658 H682 0.950 . S
C659 C676 1.574 . S
C659 C678 1.368 . S
C659 H683 0.949 . S
H660 C664 0.949 . S
C661 C662 1.349 . S
C661 C663 1.327 . S
C661 H684 0.950 . S
C662 C661 1.349 . S
C662 C674 1.349 . S
C663 C661 1.327 . S
C663 C679 1.429 . S
C663 H685 0.950 . S
C664 H660 0.949 . S
C664 C672 1.574 . S
C664 C680 1.368 . S
H665 C673 0.950 . S
H666 C671 0.950 . S
H667 C672 0.949 . S
H668 C674 0.950 . S
H669 C675 0.950 . S
H670 C676 0.949 . S
C671 H666 0.950 . S
C671 C673 1.327 . S
C671 C677 1.429 . S
C672 C664 1.574 . S
C672 H667 0.949 . S
C672 C678 1.368 . S
C673 C657 1.349 . S
C673 H665 0.950 . S
C673 C671 1.327 . S
C674 C662 1.349 . S
C674 H668 0.950 . S
C674 C675 1.327 . S
C675 H669 0.950 . S
C675 C674 1.327 . S
C675 C679 1.429 . S
C676 C659 1.574 . S
C676 H670 0.949 . S
C676 C680 1.368 . S
C677 C658 1.429 . S
C677 C671 1.429 . S
C677 C678 1.523 . S
C678 C659 1.368 . S
C678 C672 1.368 . S
C678 C677 1.523 . S
C679 C663 1.429 . S
C679 C675 1.429 . S
C679 C680 1.523 . S
C680 C664 1.368 . S
C680 C676 1.368 . S
C680 C679 1.523 . S
H681 C656 0.950 . S
H682 C658 0.950 . S
H683 C659 0.949 . S
H684 C661 0.950 . S
H685 C663 0.950 . S
C686 C687 1.349 . S
C686 C688 1.327 . S
C686 H711 0.950 . S
C687 C686 1.349 . S
C687 C703 1.349 . S
C688 C686 1.327 . S
C688 C707 1.429 . S
C688 H712 0.950 . S
C689 C706 1.574 . S
C689 C708 1.368 . S
C689 H713 0.949 . S
H690 C694 0.949 . S
C691 C692 1.349 . S
C691 C693 1.327 . S
C691 H714 0.950 . S
C692 C691 1.349 . S
C692 C704 1.349 . S
C693 C691 1.327 . S
C693 C709 1.429 . S
C693 H715 0.950 . S
C694 H690 0.949 . S
C694 C702 1.574 . S
C694 C710 1.368 . S
H695 C703 0.950 . S
H696 C701 0.950 . S
H697 C702 0.949 . S
H698 C704 0.950 . S
H699 C705 0.950 . S
H700 C706 0.949 . S
C701 H696 0.950 . S
C701 C703 1.327 . S
C701 C707 1.429 . S
C702 C694 1.574 . S
C702 H697 0.949 . S
C702 C708 1.368 . S
C703 C687 1.349 . S
C703 H695 0.950 . S
C703 C701 1.327 . S
C704 C692 1.349 . S
C704 H698 0.950 . S
C704 C705 1.327 . S
C705 H699 0.950 . S
C705 C704 1.327 . S
C705 C709 1.429 . S
C706 C689 1.574 . S
C706 H700 0.949 . S
C706 C710 1.368 . S
C707 C688 1.429 . S
C707 C701 1.429 . S
C707 C708 1.523 . S
C708 C689 1.368 . S
C708 C702 1.368 . S
C708 C707 1.523 . S
C709 C693 1.429 . S
C709 C705 1.429 . S
C709 C710 1.523 . S
C710 C694 1.368 . S
C710 C706 1.368 . S
C710 C709 1.523 . S
H711 C686 0.950 . S
H712 C688 0.950 . S
H713 C689 0.949 . S
H714 C691 0.950 . S
H715 C693 0.950 . S
C716 C717 1.349 . S
C716 C718 1.327 . S
C716 H741 0.950 . S
C717 C716 1.349 . S
C717 C733 1.349 . S
C718 C716 1.327 . S
C718 C737 1.429 . S
C718 H742 0.950 . S
C719 C736 1.574 . S
C719 C738 1.368 . S
C719 H743 0.949 . S
H720 C724 0.949 . S
C721 C722 1.349 . S
C721 C723 1.327 . S
C721 H744 0.950 . S
C722 C721 1.349 . S
C722 C734 1.349 . S
C723 C721 1.327 . S
C723 C739 1.429 . S
C723 H745 0.950 . S
C724 H720 0.949 . S
C724 C732 1.574 . S
C724 C740 1.368 . S
H725 C733 0.950 . S
H726 C731 0.950 . S
H727 C732 0.949 . S
H728 C734 0.950 . S
H729 C735 0.950 . S
H730 C736 0.949 . S
C731 H726 0.950 . S
C731 C733 1.327 . S
C731 C737 1.429 . S
C732 C724 1.574 . S
C732 H727 0.949 . S
C732 C738 1.368 . S
C733 C717 1.349 . S
C733 H725 0.950 . S
C733 C731 1.327 . S
C734 C722 1.349 . S
C734 H728 0.950 . S
C734 C735 1.327 . S
C735 H729 0.950 . S
C735 C734 1.327 . S
C735 C739 1.429 . S
C736 C719 1.574 . S
C736 H730 0.949 . S
C736 C740 1.368 . S
C737 C718 1.429 . S
C737 C731 1.429 . S
C737 C738 1.523 . S
C738 C719 1.368 . S
C738 C732 1.368 . S
C738 C737 1.523 . S
C739 C723 1.429 . S
C739 C735 1.429 . S
C739 C740 1.523 . S
C740 C724 1.368 . S
C740 C736 1.368 . S
C740 C739 1.523 . S
H741 C716 0.950 . S
H742 C718 0.950 . S
H743 C719 0.949 . S
H744 C721 0.950 . S
H745 C723 0.950 . S
C746 C747 1.349 . S
C746 C748 1.327 . S
C746 H771 0.950 . S
C747 C746 1.349 . S
C747 C763 1.349 . S
C748 C746 1.327 . S
C748 C767 1.429 . S
C748 H772 0.950 . S
C749 C766 1.574 . S
C749 C768 1.368 . S
C749 H773 0.949 . S
H750 C754 0.949 . S
C751 C752 1.349 . S
C751 C753 1.327 . S
C751 H774 0.950 . S
C752 C751 1.349 . S
C752 C764 1.349 . S
C753 C751 1.327 . S
C753 C769 1.429 . S
C753 H775 0.950 . S
C754 H750 0.949 . S
C754 C762 1.574 . S
C754 C770 1.368 . S
H755 C763 0.950 . S
H756 C761 0.950 . S
H757 C762 0.949 . S
H758 C764 0.950 . S
H759 C765 0.950 . S
H760 C766 0.949 . S
C761 H756 0.950 . S
C761 C763 1.327 . S
C761 C767 1.429 . S
C762 C754 1.574 . S
C762 H757 0.949 . S
C762 C768 1.368 . S
C763 C747 1.349 . S
C763 H755 0.950 . S
C763 C761 1.327 . S
C764 C752 1.349 . S
C764 H758 0.950 . S
C764 C765 1.327 . S
C765 H759 0.950 . S
C765 C764 1.327 . S
C765 C769 1.429 . S
C766 C749 1.574 . S
C766 H760 0.949 . S
C766 C770 1.368 . S
C767 C748 1.429 . S
C767 C761 1.429 . S
C767 C768 1.523 . S
C768 C749 1.368 . S
C768 C762 1.368 . S
C768 C767 1.523 . S
C769 C753 1.429 . S
C769 C765 1.429 . S
C769 C770 1.523 . S
C770 C754 1.368 . S
C770 C766 1.368 . S
C770 C769 1.523 . S
H771 C746 0.950 . S
H772 C748 0.950 . S
H773 C749 0.949 . S
H774 C751 0.950 . S
H775 C753 0.950 . S
C776 C777 1.349 . S
C776 C778 1.327 . S
C776 H801 0.950 . S
C777 C776 1.349 . S
C777 C793 1.349 . S
C778 C776 1.327 . S
C778 C797 1.429 . S
C778 H802 0.950 . S
C779 C796 1.574 . S
C779 C798 1.368 . S
C779 H803 0.949 . S
H780 C784 0.949 . S
C781 C782 1.349 . S
C781 C783 1.327 . S
C781 H804 0.950 . S
C782 C781 1.349 . S
C782 C794 1.349 . S
C783 C781 1.327 . S
C783 C799 1.429 . S
C783 H805 0.950 . S
C784 H780 0.949 . S
C784 C792 1.574 . S
C784 C800 1.368 . S
H785 C793 0.950 . S
H786 C791 0.950 . S
H787 C792 0.949 . S
H788 C794 0.950 . S
H789 C795 0.950 . S
H790 C796 0.949 . S
C791 H786 0.950 . S
C791 C793 1.327 . S
C791 C797 1.429 . S
C792 C784 1.574 . S
C792 H787 0.949 . S
C792 C798 1.368 . S
C793 C777 1.349 . S
C793 H785 0.950 . S
C793 C791 1.327 . S
C794 C782 1.349 . S
C794 H788 0.950 . S
C794 C795 1.327 . S
C795 H789 0.950 . S
C795 C794 1.327 . S
C795 C799 1.429 . S
C796 C779 1.574 . S
C796 H790 0.949 . S
C796 C800 1.368 . S
C797 C778 1.429 . S
C797 C791 1.429 . S
C797 C798 1.523 . S
C798 C779 1.368 . S
C798 C792 1.368 . S
C798 C797 1.523 . S
C799 C783 1.429 . S
C799 C795 1.429 . S
C799 C800 1.523 . S
C800 C784 1.368 . S
C800 C796 1.368 . S
C800 C799 1.523 . S
H801 C776 0.950 . S
H802 C778 0.950 . S
H803 C779 0.949 . S
H804 C781 0.950 . S
H805 C783 0.950 . S
C806 C807 1.349 . S
C806 C808 1.327 . S
C806 H831 0.950 . S
C807 C806 1.349 . S
C807 C823 1.349 . S
C808 C806 1.327 . S
C808 C827 1.429 . S
C808 H832 0.950 . S
C809 C826 1.574 . S
C809 C828 1.368 . S
C809 H833 0.949 . S
H810 C814 0.949 . S
C811 C812 1.349 . S
C811 C813 1.327 . S
C811 H834 0.950 . S
C812 C811 1.349 . S
C812 C824 1.349 . S
C813 C811 1.327 . S
C813 C829 1.429 . S
C813 H835 0.950 . S
C814 H810 0.949 . S
C814 C822 1.574 . S
C814 C830 1.368 . S
H815 C823 0.950 . S
H816 C821 0.950 . S
H817 C822 0.949 . S
H818 C824 0.950 . S
H819 C825 0.950 . S
H820 C826 0.949 . S
C821 H816 0.950 . S
C821 C823 1.327 . S
C821 C827 1.429 . S
C822 C814 1.574 . S
C822 H817 0.949 . S
C822 C828 1.368 . S
C823 C807 1.349 . S
C823 H815 0.950 . S
C823 C821 1.327 . S
C824 C812 1.349 . S
C824 H818 0.950 . S
C824 C825 1.327 . S
C825 H819 0.950 . S
C825 C824 1.327 . S
C825 C829 1.429 . S
C826 C809 1.574 . S
C826 H820 0.949 . S
C826 C830 1.368 . S
C827 C808 1.429 . S
C827 C821 1.429 . S
C827 C828 1.523 . S
C828 C809 1.368 . S
C828 C822 1.368 . S
C828 C827 1.523 . S
C829 C813 1.429 . S
C829 C825 1.429 . S
C829 C830 1.523 . S
C830 C814 1.368 . S
C830 C826 1.368 . S
C830 C829 1.523 . S
H831 C806 0.950 . S
H832 C808 0.950 . S
H833 C809 0.949 . S
H834 C811 0.950 . S
H835 C813 0.950 . S
C836 C837 1.349 . S
C836 C838 1.327 . S
C836 H861 0.950 . S
C837 C836 1.349 . S
C837 C853 1.349 . S
C838 C836 1.327 . S
C838 C857 1.429 . S
C838 H862 0.950 . S
C839 C856 1.574 . S
C839 C858 1.368 . S
C839 H863 0.949 . S
H840 C844 0.949 . S
C841 C842 1.349 . S
C841 C843 1.327 . S
C841 H864 0.950 . S
C842 C841 1.349 . S
C842 C854 1.349 . S
C843 C841 1.327 . S
C843 C859 1.429 . S
C843 H865 0.950 . S
C844 H840 0.949 . S
C844 C852 1.574 . S
C844 C860 1.368 . S
H845 C853 0.950 . S
H846 C851 0.950 . S
H847 C852 0.949 . S
H848 C854 0.950 . S
H849 C855 0.950 . S
H850 C856 0.949 . S
C851 H846 0.950 . S
C851 C853 1.327 . S
C851 C857 1.429 . S
C852 C844 1.574 . S
C852 H847 0.949 . S
C852 C858 1.368 . S
C853 C837 1.349 . S
C853 H845 0.950 . S
C853 C851 1.327 . S
C854 C842 1.349 . S
C854 H848 0.950 . S
C854 C855 1.327 . S
C855 H849 0.950 . S
C855 C854 1.327 . S
C855 C859 1.429 . S
C856 C839 1.574 . S
C856 H850 0.949 . S
C856 C860 1.368 . S
C857 C838 1.429 . S
C857 C851 1.429 . S
C857 C858 1.523 . S
C858 C839 1.368 . S
C858 C852 1.368 . S
C858 C857 1.523 . S
C859 C843 1.429 . S
C859 C855 1.429 . S
C859 C860 1.523 . S
C860 C844 1.368 . S
C860 C856 1.368 . S
C860 C859 1.523 . S
H861 C836 0.950 . S
H862 C838 0.950 . S
H863 C839 0.949 . S
H864 C841 0.950 . S
H865 C843 0.950 . S
C866 C867 1.349 . S
C866 C868 1.327 . S
C866 H891 0.950 . S
C867 C866 1.349 . S
C867 C883 1.349 . S
C868 C866 1.327 . S
C868 C887 1.429 . S
C868 H892 0.950 . S
C869 C886 1.574 . S
C869 C888 1.368 . S
C869 H893 0.949 . S
H870 C874 0.949 . S
C871 C872 1.349 . S
C871 C873 1.327 . S
C871 H894 0.950 . S
C872 C871 1.349 . S
C872 C884 1.349 . S
C873 C871 1.327 . S
C873 C889 1.429 . S
C873 H895 0.950 . S
C874 H870 0.949 . S
C874 C882 1.574 . S
C874 C890 1.368 . S
H875 C883 0.950 . S
H876 C881 0.950 . S
H877 C882 0.949 . S
H878 C884 0.950 . S
H879 C885 0.950 . S
H880 C886 0.949 . S
C881 H876 0.950 . S
C881 C883 1.327 . S
C881 C887 1.429 . S
C882 C874 1.574 . S
C882 H877 0.949 . S
C882 C888 1.368 . S
C883 C867 1.349 . S
C883 H875 0.950 . S
C883 C881 1.327 . S
C884 C872 1.349 . S
C884 H878 0.950 . S
C884 C885 1.327 . S
C885 H879 0.950 . S
C885 C884 1.327 . S
C885 C889 1.429 . S
C886 C869 1.574 . S
C886 H880 0.949 . S
C886 C890 1.368 . S
C887 C868 1.429 . S
C887 C881 1.429 . S
C887 C888 1.523 . S
C888 C869 1.368 . S
C888 C882 1.368 . S
C888 C887 1.523 . S
C889 C873 1.429 . S
C889 C885 1.429 . S
C889 C890 1.523 . S
C890 C874 1.368 . S
C890 C886 1.368 . S
C890 C889 1.523 . S
H891 C866 0.950 . S
H892 C868 0.950 . S
H893 C869 0.949 . S
H894 C871 0.950 . S
H895 C873 0.950 . S
C177 C8 1.732 . S
C182 C131 1.745 . S
C212 C95 1.402 . S
C207 C19 1.418 . S
C242 C118 1.539 . S
C237 C30 1.543 . S
C272 C106 1.543 . S
C267 C41 1.546 . S
C302 C175 1.745 . S
C297 C52 1.732 . S
C332 C139 1.402 . S
C327 C63 1.418 . S
C357 C74 1.543 . S
C362 C162 1.539 . S
C392 C150 1.543 . S
C387 C85 1.546 . S
C417 C7 1.648 . S
C422 C172 1.711 . S
C452 C142 1.305 . S
C447 C16 1.190 . S
C477 C29 1.585 . S
C482 C161 1.587 . S
C507 C40 1.527 . S
C512 C147 1.527 . S
C542 C128 1.711 . S
C537 C51 1.647 . S
C567 C60 1.190 . S
C572 C98 1.305 . S
C602 C117 1.587 . S
C597 C73 1.585 . S
C632 C103 1.527 . S
C627 C84 1.527 . S
C662 C153 1.517 . S
C657 C5 1.265 . S
C692 C169 1.488 . S
C687 C18 1.487 . S
C717 C27 1.350 . S
C722 C140 1.483 . S
C752 C164 1.446 . S
C747 C38 1.317 . S
C782 C109 1.517 . S
C777 C49 1.265 . S
C807 C62 1.487 . S
C812 C125 1.488 . S
C837 C71 1.350 . S
C842 C96 1.483 . S
C867 C82 1.317 . S
C872 C120 1.446 . S
