# Generated by pormake.
# Topology ssb, (4,4)-cn, num edge types: 1
# Building blocks:
#     Node 0, Type 0, BuildingBlock: NAWXER_clean_sbu_0, # of connection points: 4
#     Node 1, Type 0, BuildingBlock: NAWXER_clean_sbu_0, # of connection points: 4
#     Node 2, Type 0, BuildingBlock: NAWXER_clean_sbu_0, # of connection points: 4
#     Node 3, Type 0, BuildingBlock: NAWXER_clean_sbu_0, # of connection points: 4
#     Node 4, Type 0, BuildingBlock: NAWXER_clean_sbu_0, # of connection points: 4
#     Node 5, Type 0, BuildingBlock: NAWXER_clean_sbu_0, # of connection points: 4
#     Node 6, Type 0, BuildingBlock: NAWXER_clean_sbu_0, # of connection points: 4
#     Node 7, Type 0, BuildingBlock: NAWXER_clean_sbu_0, # of connection points: 4
#     Node 8, Type 1, BuildingBlock: KOZSID_clean_sbu_0, # of connection points: 4
#     Node 9, Type 1, BuildingBlock: KOZSID_clean_sbu_0, # of connection points: 4
#     Node 10, Type 1, BuildingBlock: KOZSID_clean_sbu_0, # of connection points: 4
#     Node 11, Type 1, BuildingBlock: KOZSID_clean_sbu_0, # of connection points: 4
#     Node 12, Type 1, BuildingBlock: KOZSID_clean_sbu_0, # of connection points: 4
#     Node 13, Type 1, BuildingBlock: KOZSID_clean_sbu_0, # of connection points: 4
#     Node 14, Type 1, BuildingBlock: KOZSID_clean_sbu_0, # of connection points: 4
#     Node 15, Type 1, BuildingBlock: KOZSID_clean_sbu_0, # of connection points: 4
#     Edge 16, Type (0, 1), BuildingBlock: UVAHIK_clean_linker_0, # of connection points: 2
#     Edge 17, Type (0, 1), BuildingBlock: UVAHIK_clean_linker_0, # of connection points: 2
#     Edge 18, Type (0, 1), BuildingBlock: UVAHIK_clean_linker_0, # of connection points: 2
#     Edge 19, Type (0, 1), BuildingBlock: UVAHIK_clean_linker_0, # of connection points: 2
#     Edge 20, Type (0, 1), BuildingBlock: UVAHIK_clean_linker_0, # of connection points: 2
#     Edge 21, Type (0, 1), BuildingBlock: UVAHIK_clean_linker_0, # of connection points: 2
#     Edge 22, Type (0, 1), BuildingBlock: UVAHIK_clean_linker_0, # of connection points: 2
#     Edge 23, Type (0, 1), BuildingBlock: UVAHIK_clean_linker_0, # of connection points: 2
#     Edge 24, Type (0, 1), BuildingBlock: UVAHIK_clean_linker_0, # of connection points: 2
#     Edge 25, Type (0, 1), BuildingBlock: UVAHIK_clean_linker_0, # of connection points: 2
#     Edge 26, Type (0, 1), BuildingBlock: UVAHIK_clean_linker_0, # of connection points: 2
#     Edge 27, Type (0, 1), BuildingBlock: UVAHIK_clean_linker_0, # of connection points: 2
#     Edge 28, Type (0, 1), BuildingBlock: UVAHIK_clean_linker_0, # of connection points: 2
#     Edge 29, Type (0, 1), BuildingBlock: UVAHIK_clean_linker_0, # of connection points: 2
#     Edge 30, Type (0, 1), BuildingBlock: UVAHIK_clean_linker_0, # of connection points: 2
#     Edge 31, Type (0, 1), BuildingBlock: UVAHIK_clean_linker_0, # of connection points: 2
#     Edge 32, Type (0, 1), BuildingBlock: UVAHIK_clean_linker_0, # of connection points: 2
#     Edge 33, Type (0, 1), BuildingBlock: UVAHIK_clean_linker_0, # of connection points: 2
#     Edge 34, Type (0, 1), BuildingBlock: UVAHIK_clean_linker_0, # of connection points: 2
#     Edge 35, Type (0, 1), BuildingBlock: UVAHIK_clean_linker_0, # of connection points: 2
#     Edge 36, Type (0, 1), BuildingBlock: UVAHIK_clean_linker_0, # of connection points: 2
#     Edge 37, Type (0, 1), BuildingBlock: UVAHIK_clean_linker_0, # of connection points: 2
#     Edge 38, Type (0, 1), BuildingBlock: UVAHIK_clean_linker_0, # of connection points: 2
#     Edge 39, Type (0, 1), BuildingBlock: UVAHIK_clean_linker_0, # of connection points: 2
#     Edge 40, Type (0, 1), BuildingBlock: UVAHIK_clean_linker_0, # of connection points: 2
#     Edge 41, Type (0, 1), BuildingBlock: UVAHIK_clean_linker_0, # of connection points: 2
#     Edge 42, Type (0, 1), BuildingBlock: UVAHIK_clean_linker_0, # of connection points: 2
#     Edge 43, Type (0, 1), BuildingBlock: UVAHIK_clean_linker_0, # of connection points: 2
#     Edge 44, Type (0, 1), BuildingBlock: UVAHIK_clean_linker_0, # of connection points: 2
#     Edge 45, Type (0, 1), BuildingBlock: UVAHIK_clean_linker_0, # of connection points: 2
#     Edge 46, Type (0, 1), BuildingBlock: UVAHIK_clean_linker_0, # of connection points: 2
#     Edge 47, Type (0, 1), BuildingBlock: UVAHIK_clean_linker_0, # of connection points: 2
# Relax obj value: 0.003
# Max RMSD: 0.024
# Mean RMSD: 0.013
data_MOF--net-ssb--node1-NAWXER_clean_sbu_0--node2-KOZSID_clean_sbu_0--edge1-UVAHIK_clean_linker_0
_symmetry_space_group_name_H-M    P1
_symmetry_Int_Tables_number       1
_symmetry_cell_setting            triclinic
loop_
_symmetry_equiv_pos_as_xyz
'x, y, z'
_cell_length_a     67.337479
_cell_length_b     67.133775
_cell_length_c     49.168627
_cell_angle_alpha  92.058977
_cell_angle_beta   94.07416
_cell_angle_gamma 89.996237
loop_
_atom_site_label
_atom_site_type_symbol
_atom_site_fract_x
_atom_site_fract_y
_atom_site_fract_z
_atom_type_partial_charge
C0 C 0.21758 0.24052 0.2657 0.0
C1 C 0.28095 0.22907 0.22445 0.0
O2 O 0.22035 0.22937 0.24484 0.0
Zn3 Zn 0.24894 0.2337 0.2451 0.0
O4 O 0.23238 0.24947 0.27867 0.0
Zn5 Zn 0.26403 0.2517 0.27687 0.0
O6 O 0.26711 0.28046 0.27222 0.0
O7 O 0.25075 0.26508 0.23711 0.0
O8 O 0.28264 0.23996 0.24648 0.0
O9 O 0.264 0.22188 0.21629 0.0
O10 O 0.2589 0.21763 0.28035 0.0
O11 O 0.27375 0.2386 0.31061 0.0
C12 C 0.25799 0.2812 0.24866 0.0
C13 C 0.26784 0.22096 0.30396 0.0
C14 C 0.7234 0.23828 0.21292 0.0
C15 C 0.78723 0.25427 0.26255 0.0
O16 O 0.72154 0.24851 0.23512 0.0
Zn17 Zn 0.7403 0.26157 0.26798 0.0
O18 O 0.74068 0.23343 0.20621 0.0
Zn19 Zn 0.75567 0.24603 0.23727 0.0
O20 O 0.74839 0.2287 0.27094 0.0
O21 O 0.73224 0.24795 0.29925 0.0
O22 O 0.78447 0.24443 0.24 0.0
O23 O 0.77219 0.26121 0.2744 0.0
O24 O 0.73478 0.28967 0.26542 0.0
O25 O 0.75075 0.27708 0.2311 0.0
C26 C 0.73965 0.2311 0.29316 0.0
C27 C 0.74276 0.29202 0.24309 0.0
C28 C 0.76462 0.72884 0.22625 0.0
C29 C 0.75784 0.79022 0.28418 0.0
O30 O 0.75577 0.7264 0.24814 0.0
Zn31 Zn 0.74677 0.74341 0.28294 0.0
O32 O 0.77097 0.74614 0.22135 0.0
Zn33 Zn 0.76198 0.76015 0.25413 0.0
O34 O 0.78068 0.74751 0.2859 0.0
O35 O 0.76213 0.73129 0.31306 0.0
O36 O 0.76602 0.78896 0.2616 0.0
O37 O 0.75041 0.77447 0.29347 0.0
O38 O 0.71787 0.74059 0.27839 0.0
O39 O 0.73044 0.75814 0.2466 0.0
C40 C 0.77922 0.73703 0.30696 0.0
C41 C 0.71534 0.75045 0.25677 0.0
C42 C 0.23549 0.73797 0.21574 0.0
C43 C 0.25235 0.80239 0.26017 0.0
O44 O 0.22986 0.755 0.20769 0.0
Zn45 Zn 0.24355 0.77031 0.23735 0.0
O46 O 0.24678 0.73666 0.23773 0.0
Zn47 Zn 0.26098 0.75598 0.26895 0.0
O48 O 0.24865 0.74763 0.3012 0.0
O49 O 0.22766 0.76205 0.27155 0.0
O50 O 0.26019 0.78771 0.27295 0.0
O51 O 0.24146 0.79909 0.2383 0.0
O52 O 0.27399 0.76481 0.22926 0.0
O53 O 0.28903 0.75079 0.26507 0.0
C54 C 0.23111 0.75354 0.29434 0.0
C55 C 0.28967 0.75733 0.24119 0.0
C56 C 0.29959 0.76093 0.76939 0.0
C57 C 0.2369 0.74542 0.71614 0.0
O58 O 0.28429 0.76895 0.77936 0.0
Zn59 Zn 0.25284 0.7708 0.77014 0.0
O60 O 0.29746 0.75077 0.74702 0.0
Zn61 Zn 0.26869 0.75329 0.74141 0.0
O62 O 0.26471 0.78389 0.73122 0.0
O63 O 0.24849 0.79931 0.76305 0.0
O64 O 0.2542 0.73976 0.7104 0.0
O65 O 0.23491 0.75667 0.73739 0.0
O66 O 0.24278 0.75782 0.80179 0.0
O67 O 0.25878 0.73725 0.77513 0.0
C68 C 0.25681 0.79985 0.74061 0.0
C69 C 0.24924 0.74035 0.79657 0.0
C70 C 0.23783 0.22517 0.76991 0.0
C71 C 0.22835 0.29139 0.81047 0.0
O72 O 0.22828 0.22957 0.79069 0.0
Zn73 Zn 0.23197 0.25811 0.78982 0.0
O74 O 0.24526 0.23908 0.75656 0.0
Zn75 Zn 0.24732 0.27097 0.75821 0.0
O76 O 0.27596 0.27472 0.76208 0.0
O77 O 0.26369 0.2609 0.79738 0.0
O78 O 0.23754 0.29174 0.78852 0.0
O79 O 0.22225 0.27487 0.81863 0.0
O80 O 0.21345 0.26561 0.75456 0.0
O81 O 0.23245 0.27836 0.72485 0.0
C82 C 0.27868 0.2673 0.78551 0.0
C83 C 0.21532 0.27307 0.73124 0.0
C84 C 0.75849 0.21999 0.74002 0.0
C85 C 0.76672 0.2825 0.79655 0.0
O86 O 0.74993 0.23524 0.72948 0.0
Zn87 Zn 0.74585 0.2664 0.73885 0.0
O88 O 0.76785 0.22197 0.76341 0.0
Zn89 Zn 0.76321 0.25066 0.76935 0.0
O90 O 0.7319 0.25147 0.77419 0.0
O91 O 0.71711 0.26855 0.74105 0.0
O92 O 0.77368 0.26545 0.8026 0.0
O93 O 0.75658 0.28436 0.77372 0.0
O94 O 0.75884 0.27833 0.70931 0.0
O95 O 0.77974 0.26301 0.73812 0.0
C96 C 0.716 0.25869 0.76252 0.0
C97 C 0.77652 0.27299 0.71648 0.0
C98 C 0.79058 0.75048 0.73942 0.0
C99 C 0.73206 0.75928 0.79216 0.0
O100 O 0.77512 0.74119 0.72883 0.0
Zn101 Zn 0.74453 0.73697 0.73687 0.0
O102 O 0.78941 0.76089 0.76138 0.0
Zn103 Zn 0.7616 0.7553 0.76624 0.0
O104 O 0.76225 0.72414 0.77331 0.0
O105 O 0.74317 0.70844 0.74101 0.0
O106 O 0.74953 0.766 0.79819 0.0
O107 O 0.72844 0.74865 0.77016 0.0
O108 O 0.73092 0.74841 0.70534 0.0
O109 O 0.74652 0.77068 0.73342 0.0
C110 C 0.75481 0.7079 0.7625 0.0
C111 C 0.73556 0.76642 0.71159 0.0
C112 C 0.03043 0.28961 0.53729 0.0
C113 C 0.03718 0.30824 0.54706 0.0
C114 C 0.02693 0.32195 0.53183 0.0
C115 C 0.01444 0.31096 0.51387 0.0
N116 N 0.01596 0.29106 0.51685 0.0
Co117 Co 1.00026 0.2697 0.49537 0.0
N118 N 0.98729 0.28966 0.47048 0.0
C119 C 0.99096 0.30948 0.47088 0.0
C120 C 0.98062 0.31926 0.45041 0.0
C121 C 0.9697 0.30482 0.436 0.0
C122 C 0.97387 0.28702 0.44876 0.0
N123 N 0.98387 0.24842 0.47468 0.0
C124 C 0.96994 0.24981 0.45352 0.0
C125 C 0.96117 0.23145 0.44638 0.0
C126 C 0.97001 0.21797 0.46342 0.0
C127 C 0.98346 0.22881 0.48009 0.0
N128 N 0.01404 0.24964 0.51942 0.0
C129 C 0.01135 0.22966 0.51796 0.0
C130 C 0.02397 0.21956 0.53566 0.0
C131 C 0.03569 0.2339 0.54896 0.0
C132 C 0.02939 0.25203 0.5387 0.0
N133 N 0.97858 0.27305 0.52076 0.0
C134 C 0.94565 0.27703 0.55322 0.0
C135 C 0.9553 0.25875 0.55002 0.0
C136 C 0.97159 0.25712 0.53398 0.0
C137 C 0.95323 0.29344 0.54057 0.0
C138 C 0.96955 0.29115 0.52464 0.0
N139 N 0.02172 0.26633 0.46987 0.0
C140 C 0.04011 0.24545 0.43937 0.0
C141 C 0.05167 0.26163 0.43259 0.0
C142 C 0.04798 0.28019 0.44518 0.0
C143 C 0.03298 0.28223 0.46331 0.0
C144 C 0.02556 0.24805 0.45809 0.0
H145 H 0.03077 0.29684 0.47179 0.0
H146 H 0.01753 0.23503 0.4626 0.0
H147 H 0.97813 0.24274 0.53241 0.0
H148 H 0.97437 0.30421 0.51535 0.0
C149 C 0.00318 0.31865 0.49178 0.0
C150 C 0.03885 0.27102 0.54723 0.0
C151 C 0.9644 0.26813 0.43979 0.0
C152 C 0.99679 0.22085 0.49982 0.0
H153 H 0.04873 0.31155 0.56304 0.0
H154 H 0.02893 0.33796 0.53296 0.0
H155 H 0.9808 0.33504 0.44665 0.0
H156 H 0.95964 0.30718 0.41825 0.0
H157 H 0.94959 0.22809 0.4305 0.0
H158 H 0.9671 0.20211 0.46348 0.0
H159 H 0.02475 0.20363 0.53829 0.0
H160 H 0.0477 0.23125 0.56418 0.0
H161 H 0.95033 0.24567 0.55991 0.0
H162 H 0.94629 0.30794 0.54232 0.0
H163 H 0.04198 0.23078 0.43008 0.0
H164 H 0.05671 0.2932 0.44133 0.0
C165 C 0.72949 0.03216 0.55568 0.0
C166 C 0.71129 0.03937 0.56326 0.0
C167 C 0.69693 0.02948 0.54706 0.0
C168 C 0.70712 0.01684 0.53057 0.0
N169 N 0.72712 0.01772 0.53561 0.0
Co170 Co 0.74749 0.00287 0.51481 0.0
N171 N 0.72643 0.98919 0.48984 0.0
C172 C 0.70652 0.99056 0.49156 0.0
C173 C 0.69572 0.97861 0.47276 0.0
C174 C 0.70955 0.96873 0.45843 0.0
C175 C 0.72808 0.97523 0.46939 0.0
N176 N 0.76792 0.989 0.49302 0.0
C177 C 0.76572 0.97581 0.4714 0.0
C178 C 0.78403 0.96979 0.46269 0.0
C179 C 0.79825 0.97942 0.47937 0.0
C180 C 0.78792 0.99072 0.49728 0.0
N181 N 0.76853 0.01576 0.54062 0.0
C182 C 0.78835 0.01248 0.54099 0.0
C183 C 0.79923 0.02357 0.56068 0.0
C184 C 0.78557 0.03474 0.5736 0.0
C185 C 0.76702 0.02975 0.56105 0.0
N186 N 0.74669 0.9799 0.53911 0.0
C187 C 0.74365 0.94446 0.56731 0.0
C188 C 0.76156 0.94981 0.55693 0.0
C189 C 0.76285 0.96767 0.54341 0.0
C190 C 0.72763 0.95753 0.56463 0.0
C191 C 0.72943 0.97497 0.55051 0.0
N192 N 0.74811 0.02571 0.49058 0.0
C193 C 0.76592 0.05269 0.47192 0.0
C194 C 0.7481 0.06059 0.46074 0.0
C195 C 0.73044 0.05033 0.46374 0.0
C196 C 0.7308 0.03297 0.47842 0.0
C197 C 0.76559 0.03533 0.48672 0.0
H198 H 0.71683 0.02586 0.48 0.0
H199 H 0.77957 0.03016 0.49529 0.0
H200 H 0.77699 0.97103 0.53624 0.0
H201 H 0.71641 0.98389 0.54862 0.0
C202 C 0.69841 0.00369 0.51048 0.0
C203 C 0.74858 0.03958 0.56811 0.0
C204 C 0.74677 0.9675 0.45978 0.0
C205 C 0.79648 1.00117 0.5202 0.0
H206 H 0.70868 0.0507 0.57881 0.0
H207 H 0.68098 0.03139 0.54715 0.0
H208 H 0.67968 0.97723 0.46983 0.0
H209 H 0.70637 0.95789 0.44187 0.0
H210 H 0.78691 0.95903 0.44655 0.0
H211 H 0.81423 0.97772 0.47919 0.0
H212 H 0.81526 0.02422 0.56431 0.0
H213 H 0.78904 0.04579 0.58978 0.0
H214 H 0.77447 0.94022 0.55914 0.0
H215 H 0.71349 0.95394 0.57252 0.0
H216 H 0.77998 0.06016 0.46993 0.0
H217 H 0.71635 0.05568 0.45481 0.0
C218 C 0.04188 0.74696 0.54856 0.0
C219 C 0.05003 0.76547 0.55634 0.0
C220 C 0.0383 0.77933 0.54349 0.0
C221 C 0.02379 0.76855 0.52856 0.0
N222 N 0.02529 0.74863 0.53146 0.0
Co223 Co 0.00841 0.72737 0.51153 0.0
N224 N 0.99179 0.74772 0.49142 0.0
C225 C 0.99359 0.76779 0.49415 0.0
C226 C 0.97925 0.77793 0.47912 0.0
C227 C 0.96733 0.76351 0.46636 0.0
C228 C 0.97521 0.74532 0.47425 0.0
N229 N 0.99201 0.70609 0.49094 0.0
C230 C 0.97582 0.70764 0.47312 0.0
C231 C 0.96895 0.68907 0.46327 0.0
C232 C 0.98095 0.67527 0.47577 0.0
C233 C 0.99449 0.68615 0.49233 0.0
N234 N 0.0245 0.70703 0.53229 0.0
C235 C 0.02181 0.68704 0.53097 0.0
C236 C 0.03525 0.67692 0.54752 0.0
C237 C 0.04744 0.69127 0.55992 0.0
C238 C 0.04074 0.70937 0.55001 0.0
N239 N 0.98932 0.72839 0.54058 0.0
C240 C 0.96073 0.73028 0.57987 0.0
C241 C 0.9662 0.71203 0.56803 0.0
C242 C 0.98045 0.71142 0.54867 0.0
C243 C 0.97011 0.74749 0.57206 0.0
C244 C 0.98422 0.74622 0.55261 0.0
N245 N 0.02764 0.72645 0.48264 0.0
C246 C 0.0529 0.70882 0.45867 0.0
C247 C 0.05902 0.72648 0.44756 0.0
C248 C 0.0485 0.74389 0.45321 0.0
C249 C 0.033 0.74353 0.47056 0.0
C250 C 0.03714 0.7091 0.47578 0.0
H251 H 0.02596 0.75742 0.47445 0.0
H252 H 0.03322 0.69517 0.48367 0.0
H253 H 0.98392 0.69707 0.54036 0.0
H254 H 0.99058 0.75994 0.54739 0.0
C255 C 0.00877 0.77665 0.51129 0.0
C256 C 0.05093 0.7282 0.55692 0.0
C257 C 0.96593 0.72622 0.46586 0.0
C258 C 0.00811 0.67811 0.51164 0.0
H259 H 0.06331 0.76861 0.5695 0.0
H260 H 0.04035 0.79534 0.54446 0.0
H261 H 0.97745 0.79391 0.47801 0.0
H262 H 0.95411 0.76613 0.45316 0.0
H263 H 0.95624 0.68584 0.44907 0.0
H264 H 0.9795 0.65922 0.47384 0.0
H265 H 0.03655 0.66096 0.54947 0.0
H266 H 0.06018 0.68868 0.57401 0.0
H267 H 0.95956 0.69822 0.5737 0.0
H268 H 0.96625 0.76203 0.58038 0.0
H269 H 0.06031 0.69486 0.45436 0.0
H270 H 0.05267 0.75797 0.44513 0.0
C271 C 0.27957 0.9779 0.5598 0.0
C272 C 0.29754 0.97026 0.57044 0.0
C273 C 0.31224 0.9815 0.56095 0.0
C274 C 0.30253 0.99541 0.54525 0.0
N275 N 0.28245 0.99373 0.54399 0.0
Co276 Co 0.26273 0.01159 0.52419 0.0
N277 N 0.28446 0.02883 0.51152 0.0
C278 C 0.30429 0.02634 0.51671 0.0
C279 C 0.31566 0.04018 0.5051 0.0
C280 C 0.30234 0.0523 0.49164 0.0
C281 C 0.28349 0.04519 0.49592 0.0
N282 N 0.24301 0.02945 0.50437 0.0
C283 C 0.24589 0.04575 0.48943 0.0
C284 C 0.22793 0.05378 0.47948 0.0
C285 C 0.21322 0.04209 0.4881 0.0
C286 C 0.22294 0.02767 0.50289 0.0
N287 N 0.241 0.99442 0.53698 0.0
C288 C 0.22118 0.99662 0.53127 0.0
C289 C 0.20984 0.98274 0.54286 0.0
C290 C 0.22316 0.97101 0.55702 0.0
C291 C 0.24197 0.9785 0.55339 0.0
N292 N 0.26172 0.02879 0.55769 0.0
C293 C 0.26016 0.05307 0.60541 0.0
C294 C 0.24276 0.04709 0.59019 0.0
C295 C 0.24387 0.03507 0.56662 0.0
C296 C 0.27837 0.04659 0.59642 0.0
C297 C 0.2788 0.03457 0.5727 0.0
N298 N 0.2637 0.99432 0.49062 0.0
C299 C 0.24685 0.97627 0.45222 0.0
C300 C 0.26495 0.96966 0.44309 0.0
C301 C 0.28245 0.97574 0.45805 0.0
C302 C 0.28149 0.98795 0.48154 0.0
C303 C 0.24657 0.98847 0.47576 0.0
H304 H 0.29535 0.99199 0.49197 0.0
H305 H 0.23228 0.99285 0.48157 0.0
H306 H 0.23008 0.03115 0.55592 0.0
H307 H 0.29313 0.03017 0.56692 0.0
C308 C 0.3118 0.01071 0.53234 0.0
C309 C 0.26022 0.96991 0.56597 0.0
C310 C 0.26521 0.05429 0.48423 0.0
C311 C 0.21365 0.01225 0.51558 0.0
H312 H 0.29982 0.95801 0.58401 0.0
H313 H 0.32813 0.97996 0.56539 0.0
H314 H 0.33174 0.04125 0.50613 0.0
H315 H 0.30611 0.06487 0.47981 0.0
H316 H 0.22567 0.06679 0.46727 0.0
H317 H 0.19732 0.04388 0.48406 0.0
H318 H 0.19377 0.98142 0.54139 0.0
H319 H 0.21942 0.9584 0.5688 0.0
H320 H 0.22829 0.05199 0.59605 0.0
H321 H 0.29227 0.05069 0.60766 0.0
H322 H 0.23284 0.97173 0.4416 0.0
H323 H 0.29689 0.97121 0.45165 0.0
C324 C 0.53588 0.77906 0.06026 0.0
C325 C 0.54221 0.79729 0.07206 0.0
C326 C 0.53293 0.81168 0.057 0.0
C327 C 0.52144 0.8015 0.03701 0.0
N328 N 0.52263 0.78145 0.03852 0.0
Co329 Co 0.50867 0.76115 0.01298 0.0
N330 N 0.49403 0.78237 0.99195 0.0
C331 C 0.49494 0.80226 0.99739 0.0
C332 C 0.48293 0.81316 0.97991 0.0
C333 C 0.47352 0.79941 0.96242 0.0
C334 C 0.48034 0.78082 0.97035 0.0
N335 N 0.49557 0.7409 0.98649 0.0
C336 C 0.48224 0.74325 0.9648 0.0
C337 C 0.47707 0.72508 0.95181 0.0
C338 C 0.48757 0.7108 0.96562 0.0
C339 C 0.49847 0.72097 0.98622 0.0
N340 N 0.52234 0.73986 0.03503 0.0
C341 C 0.52033 0.71994 0.03065 0.0
C342 C 0.5313 0.70895 0.04922 0.0
C343 C 0.54083 0.72265 0.06664 0.0
C344 C 0.53507 0.74132 0.05768 0.0
N345 N 0.48609 0.75989 0.03677 0.0
C346 C 0.45526 0.75773 0.07239 0.0
C347 C 0.46057 0.74104 0.05681 0.0
C348 C 0.47602 0.74239 0.03942 0.0
C349 C 0.46536 0.77559 0.06955 0.0
C350 C 0.48043 0.77641 0.05151 0.0
N351 N 0.53142 0.76242 0.98933 0.0
C352 C 0.55964 0.74677 0.96942 0.0
C353 C 0.56485 0.76463 0.95814 0.0
C354 C 0.55291 0.78129 0.96223 0.0
C355 C 0.53652 0.77993 0.978 0.0
C356 C 0.54285 0.74592 0.98448 0.0
H357 H 0.52837 0.79333 0.9809 0.0
H358 H 0.53953 0.73174 0.99207 0.0
H359 H 0.47965 0.72902 0.02853 0.0
H360 H 0.48733 0.79056 0.04992 0.0
C361 C 0.50817 0.81029 0.01799 0.0
C362 C 0.54277 0.75995 0.07062 0.0
C363 C 0.47343 0.76219 0.95656 0.0
C364 C 0.50962 0.71207 0.00743 0.0
H365 H 0.55236 0.79994 0.0899 0.0
H366 H 0.53411 0.82766 0.06053 0.0
H367 H 0.48138 0.8292 0.97969 0.0
H368 H 0.46293 0.80273 0.94561 0.0
H369 H 0.46643 0.72229 0.93457 0.0
H370 H 0.48678 0.69484 0.96173 0.0
H371 H 0.53266 0.69289 0.04957 0.0
H372 H 0.5512 0.71922 0.08363 0.0
H373 H 0.45312 0.72688 0.05846 0.0
H374 H 0.46148 0.78896 0.08097 0.0
H375 H 0.56839 0.73343 0.96638 0.0
H376 H 0.55649 0.79545 0.95384 0.0
C377 C 0.21649 0.53948 0.06371 0.0
C378 C 0.19821 0.5445 0.07338 0.0
C379 C 0.18432 0.53284 0.05887 0.0
C380 C 0.19492 0.52138 0.04138 0.0
N381 N 0.21476 0.52478 0.04418 0.0
Co382 Co 0.23573 0.51165 0.0229 0.0
N383 N 0.2151 0.49694 0.99862 0.0
C384 C 0.1951 0.49868 0.99884 0.0
C385 C 0.18478 0.4868 0.97946 0.0
C386 C 0.19903 0.47667 0.9663 0.0
C387 C 0.21727 0.48289 0.97864 0.0
N388 N 0.25672 0.49784 0.00222 0.0
C389 C 0.2549 0.48299 0.98276 0.0
C390 C 0.27333 0.47642 0.97521 0.0
C391 C 0.28732 0.48737 0.99063 0.0
C392 C 0.27668 0.49987 0.00676 0.0
N393 N 0.25629 0.52708 0.04651 0.0
C394 C 0.27627 0.52639 0.04517 0.0
C395 C 0.28641 0.53992 0.06251 0.0
C396 C 0.27201 0.55022 0.07522 0.0
C397 C 0.25389 0.54224 0.06492 0.0
N398 N 0.23697 0.48929 0.04882 0.0
C399 C 0.23917 0.45684 0.08448 0.0
C400 C 0.2561 0.46787 0.07961 0.0
C401 C 0.2547 0.48378 0.06191 0.0
C402 C 0.22106 0.46249 0.07119 0.0
C403 C 0.22029 0.47862 0.05373 0.0
N404 N 0.23458 0.53408 0.99713 0.0
C405 C 0.25145 0.55754 0.9702 0.0
C406 C 0.23372 0.56774 0.96371 0.0
C407 C 0.21634 0.56051 0.97397 0.0
C408 C 0.21706 0.54374 0.99029 0.0
C409 C 0.25156 0.54099 0.98677 0.0
H410 H 0.20327 0.53895 0.99734 0.0
H411 H 0.26566 0.53423 0.99123 0.0
H412 H 0.26826 0.49127 0.05899 0.0
H413 H 0.20601 0.48213 0.04435 0.0
C414 C 0.1865 0.50968 0.01954 0.0
C415 C 0.23476 0.55027 0.07189 0.0
C416 C 0.23612 0.47401 0.97199 0.0
C417 C 0.28497 0.51342 0.02663 0.0
H418 H 0.19517 0.556 0.08851 0.0
H419 H 0.16833 0.53345 0.05987 0.0
H420 H 0.1688 0.48508 0.97609 0.0
H421 H 0.19632 0.46545 0.95009 0.0
H422 H 0.27637 0.46464 0.9605 0.0
H423 H 0.30333 0.48608 0.99053 0.0
H424 H 0.30233 0.54242 0.06497 0.0
H425 H 0.27452 0.56254 0.08986 0.0
H426 H 0.27056 0.46402 0.089 0.0
H427 H 0.20743 0.45464 0.07443 0.0
H428 H 0.26538 0.56256 0.96305 0.0
H429 H 0.20215 0.56765 0.96924 0.0
C430 C 0.47195 0.25901 0.95949 0.0
C431 C 0.46518 0.27832 0.95569 0.0
C432 C 0.47598 0.29032 0.97419 0.0
C433 C 0.48858 0.27771 0.98828 0.0
N434 N 0.48661 0.25836 0.97982 0.0
Co435 Co 0.50135 0.23499 0.99567 0.0
N436 N 0.51753 0.25277 0.02251 0.0
C437 C 0.51643 0.27286 0.02528 0.0
C438 C 0.5302 0.28108 0.04425 0.0
C439 C 0.54099 0.26535 0.05395 0.0
C440 C 0.53304 0.24834 0.0404 0.0
N441 N 0.51581 0.21161 0.01189 0.0
C442 C 0.53115 0.21106 0.03126 0.0
C443 C 0.53681 0.19164 0.03669 0.0
C444 C 0.5249 0.17948 0.01975 0.0
C445 C 0.51262 0.1921 0.00512 0.0
N446 N 0.48563 0.21725 0.96836 0.0
C447 C 0.48708 0.1972 0.96521 0.0
C448 C 0.47472 0.18917 0.94433 0.0
C449 C 0.46469 0.20501 0.93351 0.0
C450 C 0.47146 0.22184 0.94862 0.0
N451 N 0.52215 0.23767 0.96927 0.0
C452 C 0.55154 0.24138 0.93152 0.0
C453 C 0.54466 0.22267 0.93824 0.0
C454 C 0.53009 0.22117 0.95695 0.0
C455 C 0.54344 0.25821 0.9441 0.0
C456 C 0.52895 0.25604 0.96281 0.0
N457 N 0.48037 0.23231 0.02203 0.0
C458 C 0.45503 0.21266 0.04141 0.0
C459 C 0.44889 0.2291 0.05688 0.0
C460 C 0.45909 0.24708 0.05501 0.0
C461 C 0.4746 0.24834 0.03764 0.0
C462 C 0.47069 0.21454 0.02443 0.0
H463 H 0.48151 0.26254 0.037 0.0
H464 H 0.47456 0.20141 0.0133 0.0
H465 H 0.52546 0.20648 0.96108 0.0
H466 H 0.52351 0.26943 0.97186 0.0
C467 C 0.50269 0.28364 0.00915 0.0
C468 C 0.4636 0.24175 0.94381 0.0
C469 C 0.54125 0.22845 0.04433 0.0
C470 C 0.49948 0.18624 0.98305 0.0
H471 H 0.45354 0.28326 0.94119 0.0
H472 H 0.47475 0.30632 0.97707 0.0
H473 H 0.53244 0.29669 0.04988 0.0
H474 H 0.55356 0.26638 0.06891 0.0
H475 H 0.54865 0.1868 0.05099 0.0
H476 H 0.52559 0.16339 0.01766 0.0
H477 H 0.473 0.17362 0.93799 0.0
H478 H 0.45349 0.20424 0.91659 0.0
H479 H 0.55028 0.20917 0.92885 0.0
H480 H 0.54847 0.27304 0.93987 0.0
H481 H 0.44787 0.19829 0.04249 0.0
H482 H 0.45485 0.26032 0.06641 0.0
C483 C 0.75343 0.54357 0.03662 0.0
C484 C 0.73545 0.55367 0.03708 0.0
C485 C 0.72148 0.54187 0.02297 0.0
C486 C 0.73167 0.52539 0.0145 0.0
N487 N 0.75134 0.52587 0.02239 0.0
Co488 Co 0.7717 0.50528 0.01305 0.0
N489 N 0.75099 0.48766 0.993 0.0
C490 C 0.73109 0.49071 0.99126 0.0
C491 C 0.72044 0.47573 0.9773 0.0
C492 C 0.73435 0.46226 0.96966 0.0
C493 C 0.7528 0.4699 0.97922 0.0
N494 N 0.7922 0.48516 0.00257 0.0
C495 C 0.79031 0.46811 0.98681 0.0
C496 C 0.80868 0.4593 0.98342 0.0
C497 C 0.82261 0.47102 0.99772 0.0
C498 C 0.81206 0.48636 0.00878 0.0
N499 N 0.79229 0.52249 0.03408 0.0
C500 C 0.81187 0.51832 0.03851 0.0
C501 C 0.82228 0.5324 0.05458 0.0
C502 C 0.80853 0.54641 0.06095 0.0
C503 C 0.79045 0.54012 0.04818 0.0
N504 N 0.76747 0.49102 0.04684 0.0
C505 C 0.76018 0.46719 0.0911 0.0
C506 C 0.77931 0.46877 0.08203 0.0
C507 C 0.78264 0.48084 0.06023 0.0
C508 C 0.74511 0.47876 0.07877 0.0
C509 C 0.74901 0.49037 0.05685 0.0
N510 N 0.77578 0.51946 0.97927 0.0
C511 C 0.79715 0.53687 0.95054 0.0
C512 C 0.78081 0.54191 0.933 0.0
C513 C 0.76206 0.53484 0.93849 0.0
C514 C 0.75993 0.52367 0.96142 0.0
C515 C 0.79432 0.52569 0.97339 0.0
H516 H 0.7452 0.51899 0.96456 0.0
H517 H 0.80729 0.52253 0.98621 0.0
H518 H 0.79751 0.48129 0.05418 0.0
H519 H 0.73666 0.49832 0.04807 0.0
C520 C 0.72302 0.50855 1.00094 0.0
C521 C 0.77197 0.55134 0.0503 0.0
C522 C 0.77156 0.45974 0.97454 0.0
C523 C 0.82025 0.50168 0.02597 0.0
H524 H 0.73267 0.56801 0.04682 0.0
H525 H 0.7057 0.54482 0.01966 0.0
H526 H 0.70449 0.47488 0.97278 0.0
H527 H 0.73124 0.44843 0.95816 0.0
H528 H 0.81175 0.44581 0.97179 0.0
H529 H 0.83853 0.4686 0.99987 0.0
H530 H 0.83804 0.53256 0.06071 0.0
H531 H 0.81151 0.55977 0.07356 0.0
H532 H 0.79156 0.46015 0.09089 0.0
H533 H 0.73016 0.47856 0.08558 0.0
H534 H 0.81203 0.54174 0.94691 0.0
H535 H 0.74887 0.53852 0.92578 0.0
C536 C 0.18566 0.22629 0.27971 0.0
C537 C 0.19772 0.24289 0.2762 0.0
C538 C 0.16848 0.22834 0.29411 0.0
C539 C 0.14601 0.26393 0.3437 0.0
H540 H 0.10083 0.22801 0.33298 0.0
C541 C 0.07211 0.27497 0.39604 0.0
C542 C 0.06737 0.2592 0.41265 0.0
C543 C 0.08714 0.27289 0.37793 0.0
C544 C 0.1134 0.23811 0.33611 0.0
H545 H 0.20079 0.27477 0.28315 0.0
H546 H 0.17025 0.27871 0.30631 0.0
H547 H 0.12791 0.22512 0.30248 0.0
H548 H 0.07508 0.22873 0.42272 0.0
H549 H 0.10056 0.22494 0.39008 0.0
H550 H 0.13098 0.27729 0.37674 0.0
C551 C 0.17436 0.26388 0.29945 0.0
C552 C 0.12901 0.23641 0.31879 0.0
C553 C 0.19176 0.26171 0.28581 0.0
C554 C 0.07788 0.24113 0.41004 0.0
C555 C 0.09259 0.23893 0.39144 0.0
C556 C 0.13021 0.2659 0.36052 0.0
C557 C 0.16281 0.24713 0.30473 0.0
C558 C 0.14564 0.24924 0.32241 0.0
C559 C 0.09747 0.25485 0.37546 0.0
C560 C 0.11385 0.25294 0.357 0.0
H561 H 0.19011 0.21157 0.27274 0.0
H562 H 0.16023 0.21501 0.29788 0.0
H563 H 0.15869 0.27374 0.34788 0.0
H564 H 0.06414 0.28896 0.39679 0.0
H565 H 0.0906 0.28534 0.36566 0.0
C566 C 0.72803 0.21548 0.33495 0.0
C567 C 0.73942 0.21451 0.31206 0.0
C568 C 0.72869 0.19992 0.35318 0.0
C569 C 0.76083 0.15936 0.37748 0.0
H570 H 0.71242 0.13447 0.398 0.0
C571 C 0.76133 0.08293 0.42654 0.0
C572 C 0.74776 0.07952 0.44624 0.0
C573 C 0.76045 0.10052 0.41218 0.0
C574 C 0.72609 0.14146 0.39288 0.0
H575 H 0.76035 0.19646 0.29031 0.0
H576 H 0.76155 0.16955 0.32213 0.0
H577 H 0.7103 0.16355 0.36953 0.0
H578 H 0.72311 0.09202 0.46716 0.0
H579 H 0.72178 0.12291 0.44249 0.0
H580 H 0.77669 0.13745 0.40078 0.0
C581 C 0.75219 0.18232 0.32602 0.0
C582 C 0.72484 0.15808 0.37654 0.0
C583 C 0.75136 0.19768 0.3077 0.0
C584 C 0.73356 0.09417 0.45175 0.0
C585 C 0.73278 0.11183 0.43758 0.0
C586 C 0.7621 0.14289 0.394 0.0
C587 C 0.74097 0.18332 0.34899 0.0
C588 C 0.7422 0.16693 0.3683 0.0
C589 C 0.7461 0.11514 0.41745 0.0
C590 C 0.74475 0.13352 0.4015 0.0
H591 H 0.7187 0.22827 0.33883 0.0
H592 H 0.71992 0.20101 0.3708 0.0
H593 H 0.77444 0.16613 0.3717 0.0
H594 H 0.7723 0.07178 0.42173 0.0
H595 H 0.77072 0.10242 0.3965 0.0
C596 C 0.79682 0.72475 0.35019 0.0
C597 C 0.79757 0.73231 0.32398 0.0
C598 C 0.81444 0.72163 0.36649 0.0
C599 C 0.86899 0.71566 0.36269 0.0
H600 H 0.8725 0.73592 0.43771 0.0
C601 C 0.94435 0.73031 0.42283 0.0
C602 C 0.94616 0.72557 0.45041 0.0
C603 C 0.92578 0.72938 0.4082 0.0
C604 C 0.87171 0.72992 0.41692 0.0
H605 H 0.81743 0.74202 0.29412 0.0
H606 H 0.84782 0.73664 0.32232 0.0
H607 H 0.8406 0.73656 0.4108 0.0
H608 H 0.93042 0.71596 0.48446 0.0
H609 H 0.89781 0.71418 0.45888 0.0
H610 H 0.90009 0.70928 0.36859 0.0
C611 C 0.83375 0.73298 0.33033 0.0
C612 C 0.85341 0.73026 0.40152 0.0
C613 C 0.81625 0.73621 0.31422 0.0
C614 C 0.92922 0.71979 0.46319 0.0
C615 C 0.91061 0.71887 0.44858 0.0
C616 C 0.88724 0.71531 0.37806 0.0
C617 C 0.8331 0.7258 0.35673 0.0
C618 C 0.85193 0.72347 0.37406 0.0
C619 C 0.90867 0.72362 0.42088 0.0
C620 C 0.88892 0.72276 0.40521 0.0
H621 H 0.78266 0.72162 0.35831 0.0
H622 H 0.81347 0.71596 0.3867 0.0
H623 H 0.86827 0.70998 0.34174 0.0
H624 H 0.95731 0.73474 0.41265 0.0
H625 H 0.92478 0.73341 0.38702 0.0
C626 C 0.27034 0.82629 0.29315 0.0
C627 C 0.25561 0.82284 0.2718 0.0
C628 C 0.27258 0.84506 0.30603 0.0
C629 C 0.24389 0.88937 0.32212 0.0
H630 H 0.29561 0.91001 0.34937 0.0
C631 C 0.25214 0.95841 0.39571 0.0
C632 C 0.26549 0.95599 0.41869 0.0
C633 C 0.25185 0.94478 0.37351 0.0
C634 C 0.28106 0.90444 0.34192 0.0
H635 H 0.2321 0.83659 0.24655 0.0
H636 H 0.23597 0.86958 0.26931 0.0
H637 H 0.29354 0.8815 0.31707 0.0
H638 H 0.28913 0.93743 0.43617 0.0
H639 H 0.28866 0.91376 0.39751 0.0
H640 H 0.2314 0.91186 0.34768 0.0
C641 C 0.24572 0.85763 0.27606 0.0
C642 C 0.27988 0.88814 0.3234 0.0
C643 C 0.24357 0.83879 0.26297 0.0
C644 C 0.27887 0.93993 0.41865 0.0
C645 C 0.27861 0.92635 0.39645 0.0
C646 C 0.24507 0.90569 0.34065 0.0
C647 C 0.2601 0.86087 0.29797 0.0
C648 C 0.26129 0.88007 0.31392 0.0
C649 C 0.26495 0.92848 0.37377 0.0
C650 C 0.26368 0.91303 0.35134 0.0
H651 H 0.27993 0.81436 0.30039 0.0
H652 H 0.2836 0.84696 0.32307 0.0
H653 H 0.22935 0.88338 0.31541 0.0
H654 H 0.24186 0.97081 0.3949 0.0
H655 H 0.24131 0.94694 0.35619 0.0
C656 C 0.2 0.74313 0.70833 0.0
C657 C 0.21887 0.73963 0.69862 0.0
C658 C 0.18273 0.73893 0.69182 0.0
C659 C 0.16363 0.73433 0.6204 0.0
H660 H 0.11724 0.71293 0.65179 0.0
C661 C 0.08761 0.72206 0.55853 0.0
C662 C 0.07081 0.72812 0.57194 0.0
C663 C 0.1063 0.72147 0.57282 0.0
C664 C 0.13002 0.71904 0.64276 0.0
H665 H 0.23438 0.72863 0.66398 0.0
H666 H 0.20394 0.7213 0.63485 0.0
H667 H 0.14905 0.71448 0.67869 0.0
H668 H 0.05997 0.7382 0.61039 0.0
H669 H 0.09267 0.7374 0.63552 0.0
H670 H 0.14444 0.73923 0.58461 0.0
C671 C 0.20266 0.72738 0.65535 0.0
C672 C 0.14826 0.71987 0.65814 0.0
C673 C 0.22006 0.73146 0.67205 0.0
C674 C 0.07284 0.73354 0.59976 0.0
C675 C 0.09149 0.73291 0.61409 0.0
C676 C 0.14534 0.73348 0.60496 0.0
C677 C 0.18381 0.73117 0.66507 0.0
C678 C 0.16517 0.72794 0.64738 0.0
C679 C 0.10844 0.72681 0.60081 0.0
C680 C 0.12824 0.72622 0.61621 0.0
H681 H 0.19849 0.74936 0.7287 0.0
H682 H 0.16849 0.74232 0.69983 0.0
H683 H 0.17634 0.74079 0.61162 0.0
H684 H 0.08621 0.71771 0.53704 0.0
H685 H 0.11902 0.71655 0.56208 0.0
C686 C 0.22866 0.1888 0.76882 0.0
C687 C 0.24092 0.20423 0.76101 0.0
C688 C 0.23124 0.16925 0.75873 0.0
C689 C 0.26732 0.13635 0.72596 0.0
H690 H 0.22098 0.11135 0.68773 0.0
C691 C 0.27287 0.08254 0.63416 0.0
C692 C 0.25929 0.06667 0.62977 0.0
C693 C 0.27122 0.09625 0.65586 0.0
C694 C 0.23402 0.11785 0.6988 0.0
H695 H 0.26598 0.21119 0.73754 0.0
H696 H 0.27049 0.17733 0.72023 0.0
H697 H 0.21689 0.14112 0.7167 0.0
H698 H 0.23388 0.05223 0.64548 0.0
H699 H 0.23093 0.07634 0.6834 0.0
H700 H 0.28454 0.11355 0.70734 0.0
C701 C 0.25892 0.18021 0.73408 0.0
C702 C 0.23166 0.1349 0.71541 0.0
C703 C 0.25618 0.19967 0.74378 0.0
C704 C 0.24437 0.06449 0.64807 0.0
C705 C 0.24271 0.07825 0.66981 0.0
C706 C 0.26968 0.11929 0.70946 0.0
C707 C 0.24635 0.16484 0.74114 0.0
C708 C 0.24837 0.14471 0.72832 0.0
C709 C 0.25596 0.09444 0.67371 0.0
C710 C 0.25313 0.11028 0.69491 0.0
H711 H 0.21679 0.19192 0.78209 0.0
H712 H 0.22136 0.15764 0.76447 0.0
H713 H 0.28042 0.14346 0.73606 0.0
H714 H 0.28434 0.08483 0.62021 0.0
H715 H 0.28144 0.10876 0.65796 0.0
C716 C 0.7902 0.28479 0.67338 0.0
C717 C 0.79338 0.27721 0.69962 0.0
C718 C 0.80619 0.28723 0.65698 0.0
C719 C 0.86146 0.29051 0.6597 0.0
H720 H 0.85481 0.27179 0.58409 0.0
C721 C 0.92488 0.29566 0.58644 0.0
C722 C 0.92769 0.27885 0.56923 0.0
C723 C 0.90803 0.29721 0.60153 0.0
C724 C 0.85694 0.27703 0.60519 0.0
H725 H 0.816 0.26678 0.72942 0.0
H726 H 0.84364 0.27095 0.70098 0.0
H727 H 0.82638 0.27173 0.61224 0.0
H728 H 0.91466 0.2507 0.554 0.0
H729 H 0.88556 0.25324 0.58063 0.0
H730 H 0.89214 0.29522 0.65294 0.0
C731 C 0.82888 0.27517 0.69305 0.0
C732 C 0.84057 0.27723 0.62124 0.0
C733 C 0.81295 0.27265 0.70932 0.0
C734 C 0.91313 0.26374 0.56731 0.0
C735 C 0.89628 0.26532 0.58232 0.0
C736 C 0.87781 0.29036 0.64364 0.0
C737 C 0.82571 0.28228 0.66656 0.0
C738 C 0.84269 0.28369 0.64882 0.0
C739 C 0.89353 0.28205 0.59969 0.0
C740 C 0.87583 0.28336 0.61628 0.0
H741 H 0.77532 0.28845 0.66527 0.0
H742 H 0.80326 0.29292 0.63676 0.0
H743 H 0.86358 0.2958 0.68078 0.0
H744 H 0.93585 0.30751 0.58858 0.0
H745 H 0.90632 0.31038 0.61453 0.0
C746 C 0.72713 0.80191 0.70422 0.0
C747 C 0.72967 0.78256 0.69326 0.0
C748 C 0.72458 0.81795 0.6871 0.0
C749 C 0.7415 0.83464 0.62474 0.0
H750 H 0.70325 0.87728 0.63239 0.0
C751 C 0.74623 0.90734 0.5661 0.0
C752 C 0.74128 0.92508 0.57997 0.0
C753 C 0.74263 0.88891 0.57715 0.0
C754 C 0.71418 0.86561 0.6302 0.0
H755 H 0.7308 0.76456 0.65593 0.0
H756 H 0.72692 0.79292 0.62582 0.0
H757 H 0.6994 0.84645 0.65634 0.0
H758 H 0.72921 0.93767 0.61641 0.0
H759 H 0.72374 0.90562 0.63641 0.0
H760 H 0.75706 0.85404 0.60008 0.0
C761 C 0.72664 0.79552 0.64766 0.0
C762 C 0.71181 0.84791 0.64368 0.0
C763 C 0.72875 0.77936 0.66482 0.0
C764 C 0.73302 0.92414 0.60528 0.0
C765 C 0.72971 0.90576 0.61655 0.0
C766 C 0.74407 0.85245 0.61161 0.0
C767 C 0.72493 0.81497 0.65875 0.0
C768 C 0.72563 0.83242 0.64141 0.0
C769 C 0.73427 0.88788 0.6025 0.0
C770 C 0.73065 0.86832 0.61459 0.0
H771 H 0.72775 0.80473 0.7261 0.0
H772 H 0.72344 0.83283 0.69613 0.0
H773 H 0.75251 0.82298 0.62302 0.0
H774 H 0.75236 0.90772 0.54633 0.0
H775 H 0.74608 0.8755 0.56556 0.0
C776 C 0.82659 0.75957 0.73545 0.0
C777 C 0.80954 0.74859 0.72595 0.0
C778 C 0.84433 0.75748 0.7223 0.0
C779 C 0.8701 0.72287 0.67633 0.0
H780 H 0.89956 0.7696 0.6582 0.0
C781 C 0.92757 0.71987 0.59509 0.0
C782 C 0.94494 0.73149 0.59955 0.0
C783 C 0.91231 0.72165 0.61284 0.0
C784 C 0.89169 0.75637 0.66347 0.0
H785 H 0.79782 0.72683 0.69516 0.0
H786 H 0.8285 0.72331 0.67244 0.0
H787 H 0.87074 0.77345 0.68543 0.0
H788 H 0.96007 0.75372 0.62666 0.0
H789 H 0.93341 0.75679 0.65768 0.0
H790 H 0.89082 0.70577 0.65419 0.0
C791 C 0.82831 0.73335 0.69016 0.0
C792 C 0.87518 0.75859 0.67907 0.0
C793 C 0.81064 0.73551 0.70312 0.0
C794 C 0.94677 0.74475 0.62242 0.0
C795 C 0.93149 0.74652 0.64019 0.0
C796 C 0.88659 0.72064 0.66082 0.0
C797 C 0.84538 0.74426 0.69958 0.0
C798 C 0.86399 0.74189 0.68525 0.0
C799 C 0.91402 0.73507 0.63553 0.0
C800 C 0.89739 0.73738 0.65378 0.0
H801 H 0.82623 0.76977 0.75297 0.0
H802 H 0.85728 0.76602 0.7301 0.0
H803 H 0.86201 0.70966 0.68119 0.0
H804 H 0.92552 0.70977 0.57744 0.0
H805 H 0.89892 0.71285 0.60835 0.0
C806 C 0.24849 0.83631 0.73343 0.0
C807 C 0.25697 0.81828 0.72441 0.0
C808 C 0.24826 0.8532 0.71722 0.0
C809 C 0.25172 0.86752 0.64515 0.0
H810 H 0.26364 0.92038 0.67624 0.0
C811 C 0.2658 0.93379 0.57671 0.0
C812 C 0.25913 0.9528 0.58462 0.0
C813 C 0.26495 0.91781 0.5942 0.0
C814 C 0.26 0.90578 0.66718 0.0
H815 H 0.27209 0.80421 0.69124 0.0
H816 H 0.27172 0.83335 0.66342 0.0
H817 H 0.263 0.89208 0.70608 0.0
H818 H 0.24618 0.97 0.61687 0.0
H819 H 0.2443 0.94206 0.64734 0.0
H820 H 0.2486 0.88106 0.60634 0.0
C821 C 0.26501 0.83448 0.68279 0.0
C822 C 0.25966 0.88951 0.68437 0.0
C823 C 0.26534 0.81772 0.69895 0.0
C824 C 0.25147 0.95548 0.61034 0.0
C825 C 0.25054 0.93947 0.62784 0.0
C826 C 0.25198 0.88375 0.62802 0.0
C827 C 0.25634 0.85244 0.69151 0.0
C828 C 0.25573 0.87009 0.67356 0.0
C829 C 0.25728 0.92035 0.62006 0.0
C830 C 0.25634 0.90314 0.63868 0.0
H831 H 0.24189 0.83732 0.75287 0.0
H832 H 0.24136 0.86674 0.72458 0.0
H833 H 0.24823 0.85289 0.63606 0.0
H834 H 0.27177 0.93135 0.55699 0.0
H835 H 0.27059 0.90348 0.58752 0.0
C836 C 0.1992 0.28017 0.68478 0.0
C837 C 0.19754 0.27466 0.71185 0.0
C838 C 0.18235 0.28038 0.66633 0.0
C839 C 0.13168 0.25885 0.65568 0.0
H840 H 0.1226 0.30051 0.60367 0.0
C841 C 0.05666 0.26719 0.59321 0.0
C842 C 0.05732 0.27151 0.56562 0.0
C843 C 0.07405 0.26781 0.61052 0.0
C844 C 0.12504 0.28865 0.61789 0.0
H845 H 0.17675 0.26573 0.74096 0.0
H846 H 0.14755 0.2664 0.70909 0.0
H847 H 0.15258 0.30144 0.63479 0.0
H848 H 0.07625 0.28017 0.53432 0.0
H849 H 0.10684 0.28119 0.56453 0.0
H850 H 0.10418 0.24609 0.63894 0.0
C851 C 0.16187 0.27012 0.70186 0.0
C852 C 0.14222 0.28918 0.6357 0.0
C853 C 0.17864 0.26988 0.72021 0.0
C854 C 0.07552 0.27672 0.55559 0.0
C855 C 0.09293 0.27741 0.5729 0.0
C856 C 0.11454 0.25834 0.63794 0.0
C857 C 0.16353 0.2751 0.6746 0.0
C858 C 0.14565 0.27436 0.65496 0.0
C859 C 0.09241 0.27288 0.60055 0.0
C860 C 0.11092 0.2733 0.61896 0.0
H861 H 0.21355 0.28391 0.67768 0.0
H862 H 0.18416 0.28418 0.64543 0.0
H863 H 0.13406 0.24695 0.66985 0.0
H864 H 0.04267 0.26337 0.60134 0.0
H865 H 0.07308 0.26455 0.6318 0.0
C866 C 0.76525 0.18288 0.73535 0.0
C867 C 0.75772 0.2006 0.72416 0.0
C868 C 0.76457 0.1649 0.71967 0.0
C869 C 0.76106 0.1458 0.64776 0.0
H870 H 0.7438 0.0963 0.67681 0.0
C871 C 0.74409 0.07632 0.57722 0.0
C872 C 0.74926 0.05753 0.58709 0.0
C873 C 0.74523 0.09331 0.59468 0.0
C874 C 0.74892 0.10991 0.66841 0.0
H875 H 0.74347 0.2131 0.68761 0.0
H876 H 0.74241 0.18209 0.66061 0.0
H877 H 0.74625 0.12649 0.70617 0.0
H878 H 0.75918 0.04159 0.62298 0.0
H879 H 0.76169 0.07127 0.6535 0.0
H880 H 0.76398 0.1294 0.61018 0.0
C881 C 0.74896 0.18201 0.68137 0.0
C882 C 0.75031 0.12725 0.6853 0.0
C883 C 0.74947 0.19983 0.69701 0.0
C884 C 0.75523 0.05597 0.61488 0.0
C885 C 0.75651 0.07298 0.63236 0.0
C886 C 0.75981 0.12849 0.63097 0.0
C887 C 0.75657 0.16431 0.69237 0.0
C888 C 0.75616 0.14549 0.67509 0.0
C889 C 0.75166 0.09196 0.62249 0.0
C890 C 0.7535 0.1103 0.64089 0.0
H891 H 0.77169 0.18289 0.75616 0.0
H892 H 0.77065 0.15155 0.72874 0.0
H893 H 0.76598 0.15949 0.63932 0.0
H894 H 0.7393 0.07786 0.5559 0.0
H895 H 0.74094 0.10751 0.58634 0.0
C896 C 0.82422 0.24802 0.26578 0.0
C897 C 0.80745 0.25738 0.27595 0.0
C898 C 0.84301 0.25028 0.27977 0.0
C899 C 0.87089 0.28198 0.33308 0.0
H900 H 0.90272 0.23464 0.34575 0.0
C901 C 0.92985 0.27711 0.42276 0.0
C902 C 0.94798 0.26782 0.41798 0.0
C903 C 0.91425 0.27673 0.40249 0.0
C904 C 0.89415 0.24805 0.34206 0.0
H905 H 0.79739 0.27679 0.30847 0.0
H906 H 0.82981 0.28051 0.33274 0.0
H907 H 0.8727 0.23256 0.31479 0.0
H908 H 0.9643 0.25098 0.38862 0.0
H909 H 0.9368 0.25007 0.35298 0.0
H910 H 0.89196 0.29732 0.36101 0.0
C911 C 0.82863 0.27164 0.31385 0.0
C912 C 0.87698 0.24688 0.32427 0.0
C913 C 0.80995 0.26935 0.3 0.0
C914 C 0.95035 0.25817 0.39264 0.0
C915 C 0.93465 0.25763 0.37239 0.0
C916 C 0.88796 0.28313 0.35092 0.0
C917 C 0.84537 0.26204 0.30407 0.0
C918 C 0.86491 0.26374 0.32009 0.0
C919 C 0.91645 0.26693 0.37711 0.0
C920 C 0.89952 0.26609 0.35606 0.0
H921 H 0.82279 0.2387 0.24731 0.0
H922 H 0.85566 0.2428 0.27161 0.0
H923 H 0.86215 0.29535 0.32985 0.0
H924 H 0.92776 0.28454 0.44228 0.0
H925 H 0.9003 0.28378 0.40688 0.0
C926 C 0.7492 0.8095 0.3263 0.0
C927 C 0.75691 0.80937 0.30041 0.0
C928 C 0.74838 0.82709 0.34224 0.0
C929 C 0.74809 0.88205 0.3397 0.0
H930 H 0.76216 0.87913 0.4173 0.0
C931 C 0.75262 0.95225 0.41339 0.0
C932 C 0.74667 0.95008 0.43993 0.0
C933 C 0.7538 0.9356 0.39548 0.0
C934 C 0.75789 0.88023 0.39576 0.0
H935 H 0.76961 0.828 0.27097 0.0
H936 H 0.76812 0.85895 0.29897 0.0
H937 H 0.76483 0.84956 0.38777 0.0
H938 H 0.7367 0.92908 0.46836 0.0
H939 H 0.73824 0.90005 0.43708 0.0
H940 H 0.74095 0.91274 0.34782 0.0
C941 C 0.76267 0.84526 0.30679 0.0
C942 C 0.7595 0.86322 0.37875 0.0
C943 C 0.76361 0.82752 0.29079 0.0
C944 C 0.74139 0.93109 0.44801 0.0
C945 C 0.74249 0.91446 0.43012 0.0
C946 C 0.74639 0.89911 0.35679 0.0
C947 C 0.75518 0.84522 0.33286 0.0
C948 C 0.75444 0.86381 0.35052 0.0
C949 C 0.74898 0.9164 0.40369 0.0
C950 C 0.7511 0.8984 0.38515 0.0
H951 H 0.74381 0.7959 0.33446 0.0
H952 H 0.7422 0.82649 0.36194 0.0
H953 H 0.7439 0.88303 0.31812 0.0
H954 H 0.75675 0.96679 0.40673 0.0
H955 H 0.75902 0.93774 0.37547 0.0
C956 C 0.2168 0.73899 0.33533 0.0
C957 C 0.21446 0.75046 0.31193 0.0
C958 C 0.20065 0.7358 0.35116 0.0
C959 C 0.1516 0.75672 0.36597 0.0
H960 H 0.14017 0.70386 0.39016 0.0
C961 C 0.07655 0.73872 0.40795 0.0
C962 C 0.07672 0.72708 0.43115 0.0
C963 C 0.09371 0.74073 0.39389 0.0
C964 C 0.14328 0.71876 0.38382 0.0
H965 H 0.1933 0.76764 0.28699 0.0
H966 H 0.16539 0.76208 0.31441 0.0
H967 H 0.16999 0.70941 0.36578 0.0
H968 H 0.09499 0.70811 0.45747 0.0
H969 H 0.125 0.71165 0.43292 0.0
H970 H 0.12501 0.76614 0.38387 0.0
C971 C 0.17968 0.75568 0.32073 0.0
C972 C 0.16038 0.72193 0.36989 0.0
C973 C 0.1957 0.75877 0.30489 0.0
C974 C 0.09431 0.717 0.43948 0.0
C975 C 0.11152 0.71906 0.42543 0.0
C976 C 0.13459 0.75357 0.37989 0.0
C977 C 0.18191 0.74417 0.34403 0.0
C978 C 0.16458 0.74091 0.3605 0.0
C979 C 0.11151 0.73122 0.40273 0.0
C980 C 0.13005 0.7345 0.38868 0.0
H981 H 0.23103 0.73235 0.34128 0.0
H982 H 0.20286 0.72696 0.36912 0.0
H983 H 0.15461 0.7716 0.35947 0.0
H984 H 0.06315 0.7464 0.40074 0.0
H985 H 0.09303 0.74984 0.37611 0.0
C986 C 0.27686 0.20755 0.35088 0.0
C987 C 0.27013 0.20429 0.32331 0.0
C988 C 0.27764 0.19177 0.36904 0.0
C989 C 0.2777 0.13606 0.37066 0.0
H990 H 0.25984 0.14459 0.44336 0.0
C991 C 0.2612 0.06993 0.43832 0.0
C992 C 0.26631 0.0719 0.46646 0.0
C993 C 0.26245 0.0863 0.42155 0.0
C994 C 0.26513 0.14194 0.42326 0.0
H995 H 0.2592 0.18162 0.29337 0.0
H996 H 0.26051 0.15446 0.32469 0.0
H997 H 0.2613 0.17264 0.41327 0.0
H998 H 0.27666 0.09249 0.49922 0.0
H999 H 0.2791 0.12111 0.47004 0.0
H1000 H 0.28146 0.10541 0.3805 0.0
C1001 C 0.2654 0.16909 0.3324 0.0
C1002 C 0.26598 0.1581 0.40596 0.0
C1003 C 0.26454 0.18479 0.31438 0.0
C1004 C 0.27261 0.09061 0.47756 0.0
C1005 C 0.27388 0.10701 0.46082 0.0
C1006 C 0.27686 0.11995 0.38793 0.0
C1007 C 0.27184 0.17229 0.36006 0.0
C1008 C 0.27207 0.15537 0.37926 0.0
C1009 C 0.26888 0.10511 0.4325 0.0
C1010 C 0.27037 0.12256 0.41442 0.0
H1011 H 0.28124 0.22234 0.35855 0.0
H1012 H 0.28287 0.19482 0.39011 0.0
H1013 H 0.28285 0.13336 0.35049 0.0
H1014 H 0.25626 0.05566 0.42928 0.0
H1015 H 0.25815 0.08423 0.4 0.0
C1016 C 0.69597 0.76312 0.79973 0.0
C1017 C 0.71589 0.76313 0.81046 0.0
C1018 C 0.68046 0.76554 0.81697 0.0
C1019 C 0.66653 0.7544 0.88366 0.0
H1020 H 0.62548 0.79443 0.87299 0.0
C1021 C 0.60136 0.76 0.95382 0.0
C1022 C 0.5827 0.76589 0.94237 0.0
C1023 C 0.61826 0.7612 0.93899 0.0
C1024 C 0.6366 0.78293 0.87605 0.0
H1025 H 0.73521 0.76579 0.84758 0.0
H1026 H 0.70789 0.76932 0.87794 0.0
H1027 H 0.65373 0.79388 0.84454 0.0
H1028 H 0.56689 0.7774 0.90647 0.0
H1029 H 0.59607 0.77853 0.87992 0.0
H1030 H 0.64911 0.74259 0.91394 0.0
C1031 C 0.70443 0.76776 0.85611 0.0
C1032 C 0.65288 0.78279 0.85988 0.0
C1033 C 0.72001 0.76583 0.83878 0.0
C1034 C 0.58119 0.77292 0.91579 0.0
C1035 C 0.598 0.77371 0.9007 0.0
C1036 C 0.65005 0.75424 0.89943 0.0
C1037 C 0.68453 0.76755 0.84532 0.0
C1038 C 0.66794 0.7685 0.86351 0.0
C1039 C 0.61683 0.76789 0.91208 0.0
C1040 C 0.63476 0.76846 0.89581 0.0
H1041 H 0.69237 0.76113 0.77798 0.0
H1042 H 0.66524 0.76522 0.80821 0.0
H1043 H 0.67786 0.74307 0.88657 0.0
H1044 H 0.60291 0.75473 0.97444 0.0
H1045 H 0.63247 0.757 0.94881 0.0
C1046 C 0.25494 0.70479 0.80908 0.0
C1047 C 0.24616 0.72338 0.8147 0.0
C1048 C 0.25224 0.68855 0.82548 0.0
C1049 C 0.23729 0.67451 0.89378 0.0
H1050 H 0.23324 0.62185 0.85874 0.0
C1051 C 0.2222 0.60269 0.95295 0.0
C1052 C 0.23352 0.58573 0.94651 0.0
C1053 C 0.22257 0.61974 0.93722 0.0
C1054 C 0.23452 0.63641 0.86894 0.0
H1055 H 0.22763 0.73932 0.84242 0.0
H1056 H 0.22266 0.71078 0.871 0.0
H1057 H 0.23566 0.65096 0.8311 0.0
H1058 H 0.25378 0.57346 0.91796 0.0
H1059 H 0.25447 0.60305 0.89074 0.0
H1060 H 0.23605 0.65977 0.93168 0.0
C1061 C 0.23187 0.70889 0.85392 0.0
C1062 C 0.23594 0.65319 0.85304 0.0
C1063 C 0.23464 0.72526 0.83745 0.0
C1064 C 0.24502 0.58625 0.92373 0.0
C1065 C 0.24525 0.6032 0.90791 0.0
C1066 C 0.23575 0.65768 0.90971 0.0
C1067 C 0.24056 0.69023 0.84806 0.0
C1068 C 0.23768 0.6725 0.86519 0.0
C1069 C 0.23409 0.62023 0.91444 0.0
C1070 C 0.23463 0.63835 0.89753 0.0
H1071 H 0.26407 0.7027 0.79193 0.0
H1072 H 0.25959 0.67467 0.82055 0.0
H1073 H 0.23877 0.68905 0.90398 0.0
H1074 H 0.21331 0.60292 0.97047 0.0
H1075 H 0.21367 0.63249 0.94278 0.0
C1076 C 0.30123 0.2561 0.82438 0.0
C1077 C 0.29889 0.2653 0.79912 0.0
C1078 C 0.32009 0.25339 0.83723 0.0
C1079 C 0.37147 0.27173 0.84187 0.0
H1080 H 0.38209 0.22132 0.8762 0.0
C1081 C 0.44714 0.25324 0.89977 0.0
C1082 C 0.44573 0.24415 0.92481 0.0
C1083 C 0.43016 0.25554 0.88207 0.0
C1084 C 0.37932 0.23552 0.86687 0.0
H1085 H 0.31461 0.27918 0.76775 0.0
H1086 H 0.34783 0.27445 0.79047 0.0
H1087 H 0.35083 0.22601 0.84919 0.0
H1088 H 0.42588 0.23035 0.95126 0.0
H1089 H 0.39611 0.23435 0.92049 0.0
H1090 H 0.39991 0.28132 0.86005 0.0
C1091 C 0.33491 0.26937 0.8002 0.0
C1092 C 0.36143 0.2382 0.85137 0.0
C1093 C 0.31592 0.27202 0.78719 0.0
C1094 C 0.42721 0.23731 0.93193 0.0
C1095 C 0.41027 0.23953 0.91426 0.0
C1096 C 0.38944 0.26904 0.85745 0.0
C1097 C 0.33716 0.25982 0.82524 0.0
C1098 C 0.3571 0.25647 0.8392 0.0
C1099 C 0.41154 0.24864 0.88911 0.0
C1100 C 0.39335 0.25104 0.87059 0.0
H1101 H 0.28848 0.25081 0.83429 0.0
H1102 H 0.32128 0.24634 0.85676 0.0
H1103 H 0.3685 0.28601 0.83286 0.0
H1104 H 0.46139 0.25854 0.89398 0.0
H1105 H 0.43162 0.26248 0.86277 0.0
C1106 C 0.76366 0.31918 0.80666 0.0
C1107 C 0.76935 0.30021 0.81568 0.0
C1108 C 0.76461 0.33586 0.82456 0.0
C1109 C 0.7864 0.35541 0.89204 0.0
H1110 H 0.74362 0.39382 0.88315 0.0
C1111 C 0.77701 0.42272 0.9684 0.0
C1112 C 0.77156 0.44102 0.95708 0.0
C1113 C 0.77708 0.40521 0.95193 0.0
C1114 C 0.75581 0.38338 0.88579 0.0
H1115 H 0.78097 0.28414 0.85077 0.0
H1116 H 0.78243 0.31334 0.88228 0.0
H1117 H 0.74334 0.36399 0.85357 0.0
H1118 H 0.76195 0.45545 0.91983 0.0
H1119 H 0.76197 0.42496 0.89097 0.0
H1120 H 0.79874 0.37489 0.9245 0.0
C1121 C 0.77739 0.31529 0.86114 0.0
C1122 C 0.75568 0.36621 0.86874 0.0
C1123 C 0.77651 0.29851 0.84309 0.0
C1124 C 0.76612 0.44149 0.92903 0.0
C1125 C 0.76607 0.424 0.91258 0.0
C1126 C 0.78648 0.3726 0.90921 0.0
C1127 C 0.77116 0.33417 0.85219 0.0
C1128 C 0.77108 0.35206 0.87136 0.0
C1129 C 0.77154 0.40559 0.92378 0.0
C1130 C 0.77128 0.38693 0.90613 0.0
H1131 H 0.75826 0.32118 0.78566 0.0
H1132 H 0.76017 0.35015 0.81663 0.0
H1133 H 0.79861 0.34499 0.89457 0.0
H1134 H 0.78117 0.42198 0.99003 0.0
H1135 H 0.78116 0.39131 0.96133 0.0
C1136 C 0.70679 0.22566 0.16813 0.0
C1137 C 0.70539 0.23294 0.19509 0.0
C1138 C 0.68956 0.22206 0.15096 0.0
C1139 C 0.6351 0.21425 0.15144 0.0
H1140 H 0.63301 0.23638 0.07955 0.0
C1141 C 0.56101 0.22881 0.08946 0.0
C1142 C 0.56026 0.22593 0.06105 0.0
C1143 C 0.57907 0.22716 0.10505 0.0
C1144 C 0.63341 0.22979 0.09936 0.0
H1145 H 0.68477 0.24153 0.2254 0.0
H1146 H 0.65491 0.23525 0.19562 0.0
H1147 H 0.66416 0.2374 0.10806 0.0
H1148 H 0.57731 0.21846 0.02648 0.0
H1149 H 0.60899 0.21523 0.0537 0.0
H1150 H 0.60433 0.20686 0.14294 0.0
C1151 C 0.66926 0.23223 0.1877 0.0
C1152 C 0.65129 0.23038 0.1157 0.0
C1153 C 0.68642 0.23597 0.20473 0.0
C1154 C 0.57768 0.22087 0.04842 0.0
C1155 C 0.59577 0.21915 0.06399 0.0
C1156 C 0.61726 0.21359 0.13507 0.0
C1157 C 0.67061 0.22546 0.16053 0.0
C1158 C 0.65224 0.22294 0.14212 0.0
C1159 C 0.59672 0.22245 0.09249 0.0
C1160 C 0.61609 0.22167 0.10902 0.0
H1161 H 0.72118 0.22317 0.16009 0.0
H1162 H 0.69105 0.2167 0.13017 0.0
H1163 H 0.63545 0.20811 0.17154 0.0
H1164 H 0.54765 0.23266 0.09952 0.0
H1165 H 0.57928 0.23006 0.12687 0.0
C1166 C 0.77564 0.71305 0.18209 0.0
C1167 C 0.76667 0.71141 0.20692 0.0
C1168 C 0.7767 0.69644 0.16394 0.0
C1169 C 0.75262 0.64718 0.14714 0.0
H1170 H 0.80015 0.63489 0.10982 0.0
C1171 C 0.76267 0.57077 0.09213 0.0
C1172 C 0.77183 0.57022 0.06737 0.0
C1173 C 0.76229 0.58846 0.1081 0.0
C1174 C 0.78665 0.63821 0.1198 0.0
H1175 H 0.75213 0.69075 0.23216 0.0
H1176 H 0.7541 0.66217 0.20095 0.0
H1177 H 0.79909 0.66506 0.13909 0.0
H1178 H 0.78781 0.58757 0.0398 0.0
H1179 H 0.78705 0.61865 0.06754 0.0
H1180 H 0.74012 0.62046 0.12803 0.0
C1181 C 0.76005 0.67627 0.19515 0.0
C1182 C 0.78605 0.65555 0.13661 0.0
C1183 C 0.75905 0.69273 0.21321 0.0
C1184 C 0.78071 0.58766 0.0589 0.0
C1185 C 0.78034 0.60539 0.07488 0.0
C1186 C 0.7532 0.62993 0.13037 0.0
C1187 C 0.7687 0.67787 0.17014 0.0
C1188 C 0.76911 0.66013 0.15081 0.0
C1189 C 0.77104 0.60608 0.09968 0.0
C1190 C 0.77029 0.62502 0.1167 0.0
H1191 H 0.78166 0.72718 0.17655 0.0
H1192 H 0.78341 0.69826 0.1448 0.0
H1193 H 0.73914 0.6504 0.15724 0.0
H1194 H 0.75583 0.55747 0.09913 0.0
H1195 H 0.75529 0.58824 0.12725 0.0
C1196 C 0.30644 0.75475 0.19767 0.0
C1197 C 0.30797 0.75576 0.22635 0.0
C1198 C 0.32347 0.75341 0.18314 0.0
C1199 C 0.37473 0.76788 0.18458 0.0
H1200 H 0.3795 0.72577 0.12938 0.0
C1201 C 0.44262 0.76345 0.11873 0.0
C1202 C 0.4393 0.75651 0.09152 0.0
C1203 C 0.42759 0.76218 0.13684 0.0
C1204 C 0.37833 0.73782 0.14439 0.0
H1205 H 0.32854 0.75625 0.26233 0.0
H1206 H 0.35859 0.75461 0.23663 0.0
H1207 H 0.35144 0.72575 0.15806 0.0
H1208 H 0.41767 0.74316 0.06167 0.0
H1209 H 0.39113 0.74173 0.09271 0.0
H1210 H 0.40088 0.78067 0.17013 0.0
C1211 C 0.34408 0.75457 0.2256 0.0
C1212 C 0.36233 0.73766 0.16099 0.0
C1213 C 0.32694 0.75544 0.24024 0.0
C1214 C 0.42065 0.74841 0.08265 0.0
C1215 C 0.4055 0.74748 0.10058 0.0
C1216 C 0.39055 0.76829 0.16762 0.0
C1217 C 0.34243 0.75346 0.19693 0.0
C1218 C 0.36031 0.75276 0.18106 0.0
C1219 C 0.40875 0.75427 0.128 0.0
C1220 C 0.39247 0.75336 0.14706 0.0
H1221 H 0.29202 0.75484 0.1864 0.0
H1222 H 0.32184 0.7527 0.16104 0.0
H1223 H 0.37334 0.77981 0.19976 0.0
H1224 H 0.45696 0.76957 0.12612 0.0
H1225 H 0.43086 0.76723 0.15783 0.0
C1226 C 0.26548 0.3179 0.24384 0.0
C1227 C 0.25569 0.30028 0.234 0.0
C1228 C 0.26352 0.3355 0.22919 0.0
C1229 C 0.231 0.35976 0.17545 0.0
H1230 H 0.27737 0.39237 0.16635 0.0
C1231 C 0.22951 0.42198 0.09648 0.0
C1232 C 0.24052 0.43954 0.10299 0.0
C1233 C 0.23116 0.40562 0.11346 0.0
C1234 C 0.26416 0.38364 0.16895 0.0
H1235 H 0.23598 0.2876 0.20101 0.0
H1236 H 0.23261 0.318 0.17577 0.0
H1237 H 0.28052 0.36321 0.19456 0.0
H1238 H 0.2616 0.45362 0.13311 0.0
H1239 H 0.26434 0.42527 0.16275 0.0
H1240 H 0.2146 0.38011 0.14995 0.0
C1241 C 0.2417 0.31837 0.19486 0.0
C1242 C 0.266 0.36685 0.18518 0.0
C1243 C 0.24376 0.30082 0.20933 0.0
C1244 C 0.25311 0.44028 0.12714 0.0
C1245 C 0.25471 0.42394 0.14418 0.0
C1246 C 0.22914 0.37656 0.15933 0.0
C1247 C 0.25157 0.33597 0.20448 0.0
C1248 C 0.24948 0.35454 0.18844 0.0
C1249 C 0.24382 0.40631 0.13758 0.0
C1250 C 0.24572 0.38869 0.15558 0.0
H1251 H 0.27481 0.31806 0.26272 0.0
H1252 H 0.27123 0.3488 0.23736 0.0
H1253 H 0.21785 0.35088 0.17784 0.0
H1254 H 0.2199 0.42069 0.07788 0.0
H1255 H 0.22278 0.39225 0.10732 0.0
C1256 C 0.31696 0.23475 0.21738 0.0
C1257 C 0.29851 0.22627 0.20801 0.0
C1258 C 0.33319 0.23382 0.2012 0.0
C1259 C 0.35361 0.20757 0.1419 0.0
H1260 H 0.3845 0.25611 0.13898 0.0
C1261 C 0.41458 0.21683 0.06538 0.0
C1262 C 0.43185 0.22761 0.07451 0.0
C1263 C 0.39836 0.21591 0.08162 0.0
C1264 C 0.37624 0.24232 0.1398 0.0
H1265 H 0.28293 0.20958 0.17444 0.0
H1266 H 0.31139 0.20794 0.14608 0.0
H1267 H 0.35632 0.25549 0.16726 0.0
H1268 H 0.44576 0.24538 0.10832 0.0
H1269 H 0.41762 0.24365 0.1367 0.0
H1270 H 0.37364 0.19439 0.11447 0.0
C1271 C 0.31324 0.21527 0.16609 0.0
C1272 C 0.36003 0.24198 0.15603 0.0
C1273 C 0.29692 0.21625 0.18231 0.0
C1274 C 0.43258 0.23722 0.10044 0.0
C1275 C 0.4164 0.23625 0.11671 0.0
C1276 C 0.36992 0.20789 0.1257 0.0
C1277 C 0.33148 0.22436 0.17517 0.0
C1278 C 0.34855 0.22459 0.15743 0.0
C1279 C 0.39899 0.22571 0.10746 0.0
C1280 C 0.38151 0.22526 0.12452 0.0
H1281 H 0.31883 0.24249 0.23711 0.0
H1282 H 0.34711 0.24063 0.20907 0.0
H1283 H 0.34521 0.19388 0.14269 0.0
H1284 H 0.4134 0.20947 0.04537 0.0
H1285 H 0.38514 0.20789 0.07362 0.0
C1286 C 0.75086 0.31341 0.20504 0.0
C1287 C 0.74295 0.31168 0.23054 0.0
C1288 C 0.75097 0.33169 0.1926 0.0
C1289 C 0.74955 0.3856 0.20509 0.0
H1290 H 0.73444 0.38522 0.12747 0.0
C1291 C 0.7694 0.44827 0.13351 0.0
C1292 C 0.7556 0.45247 0.11165 0.0
C1293 C 0.76578 0.43287 0.15095 0.0
C1294 C 0.73843 0.38571 0.14922 0.0
H1295 H 0.72922 0.32791 0.26321 0.0
H1296 H 0.72942 0.36012 0.24121 0.0
H1297 H 0.73176 0.35481 0.15222 0.0
H1298 H 0.72682 0.44416 0.09167 0.0
H1299 H 0.7203 0.41793 0.12248 0.0
H1300 H 0.75634 0.41662 0.20188 0.0
C1301 C 0.73555 0.34719 0.23103 0.0
C1302 C 0.73711 0.36821 0.16332 0.0
C1303 C 0.73536 0.32877 0.24351 0.0
C1304 C 0.73772 0.44155 0.10842 0.0
C1305 C 0.73406 0.4263 0.1259 0.0
C1306 C 0.75093 0.4032 0.1909 0.0
C1307 C 0.74318 0.34873 0.20531 0.0
C1308 C 0.74297 0.36787 0.19127 0.0
C1309 C 0.74827 0.42142 0.14688 0.0
C1310 C 0.74558 0.40336 0.16273 0.0
H1311 H 0.75694 0.3006 0.19451 0.0
H1312 H 0.75727 0.3325 0.173 0.0
H1313 H 0.75424 0.38572 0.22663 0.0
H1314 H 0.78319 0.45659 0.13683 0.0
H1315 H 0.77707 0.42941 0.16686 0.0
C1316 C 0.69359 0.76366 0.21844 0.0
C1317 C 0.69541 0.75273 0.24234 0.0
C1318 C 0.67531 0.76532 0.2036 0.0
C1319 C 0.62647 0.74083 0.19057 0.0
H1320 H 0.61425 0.78949 0.1526 0.0
C1321 C 0.55494 0.75231 0.11864 0.0
C1322 C 0.55876 0.75951 0.09306 0.0
C1323 C 0.57013 0.75191 0.1396 0.0
C1324 C 0.61747 0.77581 0.16307 0.0
H1325 H 0.6792 0.73518 0.26962 0.0
H1326 H 0.64692 0.73831 0.24367 0.0
H1327 H 0.64296 0.78852 0.18556 0.0
H1328 H 0.58113 0.77196 0.06911 0.0
H1329 H 0.60762 0.7717 0.10587 0.0
H1330 H 0.60081 0.72821 0.16782 0.0
C1331 C 0.65986 0.74542 0.23635 0.0
C1332 C 0.63394 0.77521 0.18191 0.0
C1333 C 0.6783 0.74371 0.25129 0.0
C1334 C 0.57789 0.76644 0.08876 0.0
C1335 C 0.59296 0.76633 0.10977 0.0
C1336 C 0.6098 0.74152 0.17187 0.0
C1337 C 0.65819 0.75621 0.21225 0.0
C1338 C 0.63902 0.75754 0.1953 0.0
C1339 C 0.58925 0.75905 0.1354 0.0
C1340 C 0.60548 0.75886 0.15742 0.0
H1341 H 0.70641 0.77077 0.21078 0.0
H1342 H 0.67476 0.77337 0.18487 0.0
H1343 H 0.63 0.72694 0.20035 0.0
H1344 H 0.54023 0.74698 0.12234 0.0
H1345 H 0.56687 0.74631 0.15919 0.0
C1346 C 0.22296 0.72008 0.17209 0.0
C1347 C 0.23 0.71955 0.19965 0.0
C1348 C 0.21992 0.70233 0.15649 0.0
C1349 C 0.21458 0.64768 0.16218 0.0
H1350 H 0.23949 0.64446 0.09343 0.0
C1351 C 0.23726 0.57303 0.11322 0.0
C1352 C 0.23348 0.57032 0.08498 0.0
C1353 C 0.23463 0.59175 0.12574 0.0
C1354 C 0.23221 0.64519 0.11239 0.0
H1355 H 0.23843 0.70006 0.23281 0.0
H1356 H 0.23321 0.66937 0.20578 0.0
H1357 H 0.23724 0.67661 0.11783 0.0
H1358 H 0.22403 0.58447 0.04742 0.0
H1359 H 0.21947 0.61742 0.06927 0.0
H1360 H 0.21002 0.61619 0.15713 0.0
C1361 C 0.22994 0.68336 0.19613 0.0
C1362 C 0.23085 0.66361 0.1263 0.0
C1363 C 0.2331 0.701 0.21158 0.0
C1364 C 0.22718 0.58647 0.06927 0.0
C1365 C 0.22461 0.60522 0.08175 0.0
C1366 C 0.21596 0.62929 0.14832 0.0
C1367 C 0.22366 0.68381 0.16832 0.0
C1368 C 0.22244 0.66495 0.15166 0.0
C1369 C 0.22815 0.608 0.11015 0.0
C1370 C 0.2252 0.62778 0.1236 0.0
H1371 H 0.22045 0.73417 0.16236 0.0
H1372 H 0.21493 0.7031 0.13512 0.0
H1373 H 0.20771 0.64831 0.18145 0.0
H1374 H 0.24199 0.56062 0.12557 0.0
H1375 H 0.23775 0.59352 0.1476 0.0
C1376 C 0.32048 0.77226 0.81107 0.0
C1377 C 0.31922 0.76275 0.78506 0.0
C1378 C 0.33847 0.77315 0.82696 0.0
C1379 C 0.3876 0.74858 0.83589 0.0
H1380 H 0.3991 0.79427 0.88503 0.0
C1381 C 0.46001 0.75721 0.90772 0.0
C1382 C 0.45681 0.76253 0.93494 0.0
C1383 C 0.4443 0.75768 0.88751 0.0
C1384 C 0.39606 0.78139 0.87146 0.0
H1385 H 0.33612 0.74703 0.75514 0.0
H1386 H 0.36782 0.74897 0.78277 0.0
H1387 H 0.37027 0.79492 0.85223 0.0
H1388 H 0.43499 0.77267 0.96252 0.0
H1389 H 0.40755 0.77391 0.92714 0.0
H1390 H 0.41364 0.73521 0.85522 0.0
C1391 C 0.35471 0.75545 0.79103 0.0
C1392 C 0.3795 0.78171 0.8527 0.0
C1393 C 0.33657 0.75445 0.7751 0.0
C1394 C 0.43775 0.76853 0.94162 0.0
C1395 C 0.42214 0.76929 0.9214 0.0
C1396 C 0.40435 0.74838 0.8545 0.0
C1397 C 0.35584 0.76472 0.81727 0.0
C1398 C 0.37475 0.76513 0.83508 0.0
C1399 C 0.42523 0.76386 0.89414 0.0
C1400 C 0.40849 0.76462 0.87285 0.0
H1401 H 0.30743 0.77872 0.81955 0.0
H1402 H 0.33857 0.78002 0.84723 0.0
H1403 H 0.38434 0.73546 0.82288 0.0
H1404 H 0.47467 0.75269 0.90215 0.0
H1405 H 0.44711 0.75354 0.86664 0.0
C1406 C 0.21945 0.30989 0.8532 0.0
C1407 C 0.22604 0.31011 0.82672 0.0
C1408 C 0.21904 0.32751 0.86924 0.0
C1409 C 0.21971 0.38246 0.86554 0.0
H1410 H 0.24247 0.38107 0.94015 0.0
C1411 C 0.24063 0.45418 0.92884 0.0
C1412 C 0.2359 0.45484 0.95613 0.0
C1413 C 0.23893 0.4363 0.91341 0.0
C1414 C 0.23585 0.38167 0.91946 0.0
H1415 H 0.23672 0.32908 0.796 0.0
H1416 H 0.23603 0.35964 0.8239 0.0
H1417 H 0.23904 0.35022 0.91245 0.0
H1418 H 0.22574 0.43781 0.98899 0.0
H1419 H 0.2226 0.40645 0.96205 0.0
H1420 H 0.21662 0.41391 0.87246 0.0
C1421 C 0.23108 0.34594 0.83227 0.0
C1422 C 0.23385 0.36399 0.90362 0.0
C1423 C 0.23159 0.32837 0.81633 0.0
C1424 C 0.22963 0.43745 0.96796 0.0
C1425 C 0.22791 0.41957 0.95258 0.0
C1426 C 0.22169 0.40013 0.88138 0.0
C1427 C 0.22507 0.34568 0.85902 0.0
C1428 C 0.22592 0.36423 0.87641 0.0
C1429 C 0.23238 0.41882 0.92505 0.0
C1430 C 0.22995 0.39996 0.90844 0.0
H1431 H 0.21507 0.29606 0.86179 0.0
H1432 H 0.21412 0.3269 0.8897 0.0
H1433 H 0.21328 0.38308 0.84476 0.0
H1434 H 0.24536 0.46756 0.9194 0.0
H1435 H 0.24275 0.43615 0.89238 0.0
C1436 C 0.68022 0.26802 0.76849 0.0
C1437 C 0.69684 0.25597 0.77509 0.0
C1438 C 0.66285 0.26629 0.78242 0.0
C1439 C 0.63642 0.23224 0.82545 0.0
H1440 H 0.61312 0.28042 0.85506 0.0
C1441 C 0.58338 0.23014 0.91209 0.0
C1442 C 0.56711 0.24326 0.91168 0.0
C1443 C 0.59796 0.23174 0.8934 0.0
C1444 C 0.61923 0.26682 0.84661 0.0
H1445 H 0.70795 0.23224 0.80085 0.0
H1446 H 0.67784 0.2292 0.82477 0.0
H1447 H 0.64025 0.28284 0.82489 0.0
H1448 H 0.55335 0.2683 0.89104 0.0
H1449 H 0.57875 0.27105 0.8583 0.0
H1450 H 0.6156 0.21617 0.84724 0.0
C1451 C 0.67812 0.23995 0.8089 0.0
C1452 C 0.63478 0.26822 0.82929 0.0
C1453 C 0.69547 0.2418 0.79525 0.0
C1454 C 0.56582 0.2581 0.89214 0.0
C1455 C 0.58039 0.25967 0.87336 0.0
C1456 C 0.62086 0.23084 0.84264 0.0
C1457 C 0.66167 0.25231 0.80291 0.0
C1458 C 0.64379 0.25094 0.81892 0.0
C1459 C 0.59663 0.24648 0.8737 0.0
C1460 C 0.61228 0.24809 0.85387 0.0
H1461 H 0.68083 0.27911 0.75312 0.0
H1462 H 0.65036 0.27594 0.77722 0.0
H1463 H 0.64283 0.21864 0.81744 0.0
H1464 H 0.58504 0.21877 0.92717 0.0
H1465 H 0.61046 0.22159 0.8947 0.0
C1466 C 0.74952 0.67119 0.76796 0.0
C1467 C 0.75991 0.68892 0.77553 0.0
C1468 C 0.75379 0.65374 0.78202 0.0
C1469 C 0.77411 0.63866 0.84924 0.0
H1470 H 0.77742 0.58572 0.81566 0.0
C1471 C 0.79518 0.57267 0.9147 0.0
C1472 C 0.78282 0.55582 0.91055 0.0
C1473 C 0.79472 0.58747 0.89548 0.0
C1474 C 0.77644 0.60042 0.82529 0.0
H1475 H 0.78367 0.70196 0.80267 0.0
H1476 H 0.79114 0.6717 0.82676 0.0
H1477 H 0.77143 0.6145 0.78688 0.0
H1478 H 0.76152 0.54052 0.88186 0.0
H1479 H 0.76026 0.56669 0.84867 0.0
H1480 H 0.7787 0.62484 0.88753 0.0
C1481 C 0.77942 0.67131 0.81047 0.0
C1482 C 0.77298 0.61684 0.80884 0.0
C1483 C 0.77514 0.68866 0.79658 0.0
C1484 C 0.77094 0.55351 0.88591 0.0
C1485 C 0.77039 0.5684 0.86673 0.0
C1486 C 0.77752 0.62234 0.86559 0.0
C1487 C 0.76852 0.65379 0.80379 0.0
C1488 C 0.7719 0.63613 0.82071 0.0
C1489 C 0.78177 0.58584 0.87178 0.0
C1490 C 0.77883 0.60305 0.85385 0.0
H1491 H 0.73775 0.67093 0.75174 0.0
H1492 H 0.74511 0.64043 0.77651 0.0
H1493 H 0.77289 0.65328 0.85903 0.0
H1494 H 0.80444 0.575 0.93346 0.0
H1495 H 0.80398 0.60057 0.89968 0.0
loop_
_geom_bond_atom_site_label_1
_geom_bond_atom_site_label_2
_geom_bond_distance
_geom_bond_site_symmetry_2
_ccdc_geom_bond_type
C0 O2 1.247 . S
C0 O4 1.258 . S
C1 O8 1.247 . S
C1 O9 1.258 . S
O2 C0 1.247 . S
O2 Zn3 2.028 . S
Zn3 O2 2.028 . S
Zn3 O7 2.035 . S
Zn3 O9 2.035 . S
Zn3 O10 2.028 . S
O4 C0 1.258 . S
O4 Zn5 2.035 . S
Zn5 O4 2.035 . S
Zn5 O6 2.028 . S
Zn5 O8 2.028 . S
Zn5 O11 2.035 . S
O6 Zn5 2.028 . S
O6 C12 1.247 . S
O7 Zn3 2.035 . S
O7 C12 1.258 . S
O8 C1 1.247 . S
O8 Zn5 2.028 . S
O9 C1 1.258 . S
O9 Zn3 2.035 . S
O10 Zn3 2.028 . S
O10 C13 1.247 . S
O11 Zn5 2.035 . S
O11 C13 1.258 . S
C12 O6 1.247 . S
C12 O7 1.258 . S
C13 O10 1.247 . S
C13 O11 1.258 . S
C14 O16 1.247 . S
C14 O18 1.258 . S
C15 O22 1.247 . S
C15 O23 1.258 . S
O16 C14 1.247 . S
O16 Zn17 2.028 . S
Zn17 O16 2.028 . S
Zn17 O21 2.035 . S
Zn17 O23 2.035 . S
Zn17 O24 2.028 . S
O18 C14 1.258 . S
O18 Zn19 2.035 . S
Zn19 O18 2.035 . S
Zn19 O20 2.028 . S
Zn19 O22 2.028 . S
Zn19 O25 2.035 . S
O20 Zn19 2.028 . S
O20 C26 1.247 . S
O21 Zn17 2.035 . S
O21 C26 1.258 . S
O22 C15 1.247 . S
O22 Zn19 2.028 . S
O23 C15 1.258 . S
O23 Zn17 2.035 . S
O24 Zn17 2.028 . S
O24 C27 1.247 . S
O25 Zn19 2.035 . S
O25 C27 1.258 . S
C26 O20 1.247 . S
C26 O21 1.258 . S
C27 O24 1.247 . S
C27 O25 1.258 . S
C28 O30 1.247 . S
C28 O32 1.258 . S
C29 O36 1.247 . S
C29 O37 1.258 . S
O30 C28 1.247 . S
O30 Zn31 2.028 . S
Zn31 O30 2.028 . S
Zn31 O35 2.035 . S
Zn31 O37 2.035 . S
Zn31 O38 2.028 . S
O32 C28 1.258 . S
O32 Zn33 2.035 . S
Zn33 O32 2.035 . S
Zn33 O34 2.028 . S
Zn33 O36 2.028 . S
Zn33 O39 2.035 . S
O34 Zn33 2.028 . S
O34 C40 1.247 . S
O35 Zn31 2.035 . S
O35 C40 1.258 . S
O36 C29 1.247 . S
O36 Zn33 2.028 . S
O37 C29 1.258 . S
O37 Zn31 2.035 . S
O38 Zn31 2.028 . S
O38 C41 1.247 . S
O39 Zn33 2.035 . S
O39 C41 1.258 . S
C40 O34 1.247 . S
C40 O35 1.258 . S
C41 O38 1.247 . S
C41 O39 1.258 . S
C42 O44 1.247 . S
C42 O46 1.258 . S
C43 O50 1.247 . S
C43 O51 1.258 . S
O44 C42 1.247 . S
O44 Zn45 2.028 . S
Zn45 O44 2.028 . S
Zn45 O49 2.035 . S
Zn45 O51 2.035 . S
Zn45 O52 2.028 . S
O46 C42 1.258 . S
O46 Zn47 2.035 . S
Zn47 O46 2.035 . S
Zn47 O48 2.028 . S
Zn47 O50 2.028 . S
Zn47 O53 2.035 . S
O48 Zn47 2.028 . S
O48 C54 1.247 . S
O49 Zn45 2.035 . S
O49 C54 1.258 . S
O50 C43 1.247 . S
O50 Zn47 2.028 . S
O51 C43 1.258 . S
O51 Zn45 2.035 . S
O52 Zn45 2.028 . S
O52 C55 1.247 . S
O53 Zn47 2.035 . S
O53 C55 1.258 . S
C54 O48 1.247 . S
C54 O49 1.258 . S
C55 O52 1.247 . S
C55 O53 1.258 . S
C56 O58 1.247 . S
C56 O60 1.258 . S
C57 O64 1.247 . S
C57 O65 1.258 . S
O58 C56 1.247 . S
O58 Zn59 2.028 . S
Zn59 O58 2.028 . S
Zn59 O63 2.035 . S
Zn59 O65 2.035 . S
Zn59 O66 2.028 . S
O60 C56 1.258 . S
O60 Zn61 2.035 . S
Zn61 O60 2.035 . S
Zn61 O62 2.028 . S
Zn61 O64 2.028 . S
Zn61 O67 2.035 . S
O62 Zn61 2.028 . S
O62 C68 1.247 . S
O63 Zn59 2.035 . S
O63 C68 1.258 . S
O64 C57 1.247 . S
O64 Zn61 2.028 . S
O65 C57 1.258 . S
O65 Zn59 2.035 . S
O66 Zn59 2.028 . S
O66 C69 1.247 . S
O67 Zn61 2.035 . S
O67 C69 1.258 . S
C68 O62 1.247 . S
C68 O63 1.258 . S
C69 O66 1.247 . S
C69 O67 1.258 . S
C70 O72 1.247 . S
C70 O74 1.258 . S
C71 O78 1.247 . S
C71 O79 1.258 . S
O72 C70 1.247 . S
O72 Zn73 2.028 . S
Zn73 O72 2.028 . S
Zn73 O77 2.035 . S
Zn73 O79 2.035 . S
Zn73 O80 2.028 . S
O74 C70 1.258 . S
O74 Zn75 2.035 . S
Zn75 O74 2.035 . S
Zn75 O76 2.028 . S
Zn75 O78 2.028 . S
Zn75 O81 2.035 . S
O76 Zn75 2.028 . S
O76 C82 1.247 . S
O77 Zn73 2.035 . S
O77 C82 1.258 . S
O78 C71 1.247 . S
O78 Zn75 2.028 . S
O79 C71 1.258 . S
O79 Zn73 2.035 . S
O80 Zn73 2.028 . S
O80 C83 1.247 . S
O81 Zn75 2.035 . S
O81 C83 1.258 . S
C82 O76 1.247 . S
C82 O77 1.258 . S
C83 O80 1.247 . S
C83 O81 1.258 . S
C84 O86 1.247 . S
C84 O88 1.258 . S
C85 O92 1.247 . S
C85 O93 1.258 . S
O86 C84 1.247 . S
O86 Zn87 2.028 . S
Zn87 O86 2.028 . S
Zn87 O91 2.035 . S
Zn87 O93 2.035 . S
Zn87 O94 2.028 . S
O88 C84 1.258 . S
O88 Zn89 2.035 . S
Zn89 O88 2.035 . S
Zn89 O90 2.028 . S
Zn89 O92 2.028 . S
Zn89 O95 2.035 . S
O90 Zn89 2.028 . S
O90 C96 1.247 . S
O91 Zn87 2.035 . S
O91 C96 1.258 . S
O92 C85 1.247 . S
O92 Zn89 2.028 . S
O93 C85 1.258 . S
O93 Zn87 2.035 . S
O94 Zn87 2.028 . S
O94 C97 1.247 . S
O95 Zn89 2.035 . S
O95 C97 1.258 . S
C96 O90 1.247 . S
C96 O91 1.258 . S
C97 O94 1.247 . S
C97 O95 1.258 . S
C98 O100 1.247 . S
C98 O102 1.258 . S
C99 O106 1.247 . S
C99 O107 1.258 . S
O100 C98 1.247 . S
O100 Zn101 2.028 . S
Zn101 O100 2.028 . S
Zn101 O105 2.035 . S
Zn101 O107 2.035 . S
Zn101 O108 2.028 . S
O102 C98 1.258 . S
O102 Zn103 2.035 . S
Zn103 O102 2.035 . S
Zn103 O104 2.028 . S
Zn103 O106 2.028 . S
Zn103 O109 2.035 . S
O104 Zn103 2.028 . S
O104 C110 1.247 . S
O105 Zn101 2.035 . S
O105 C110 1.258 . S
O106 C99 1.247 . S
O106 Zn103 2.028 . S
O107 C99 1.258 . S
O107 Zn101 2.035 . S
O108 Zn101 2.028 . S
O108 C111 1.247 . S
O109 Zn103 2.035 . S
O109 C111 1.258 . S
C110 O104 1.247 . S
C110 O105 1.258 . S
C111 O108 1.247 . S
C111 O109 1.258 . S
C112 C113 1.443 . S
C112 N116 1.376 . S
C112 C150 1.389 . S
C113 C112 1.443 . S
C113 C114 1.340 . S
C113 H153 0.951 . S
C114 C113 1.340 . S
C114 C115 1.439 . S
C114 H154 0.950 . S
C115 C114 1.439 . S
C115 N116 1.374 . S
C115 C149 1.395 . S
N116 C112 1.376 . S
N116 C115 1.374 . S
N116 Co117 2.008 . S
Co117 N116 2.008 . S
Co117 N118 1.995 1_455 S
Co117 N123 2.008 1_455 S
Co117 N128 1.995 . S
Co117 N133 2.282 1_455 S
Co117 N139 2.282 . S
N118 Co117 1.995 1_655 S
N118 C119 1.376 . S
N118 C122 1.383 . S
C119 N118 1.376 . S
C119 C120 1.446 . S
C119 C149 1.391 1_655 S
C120 C119 1.446 . S
C120 C121 1.339 . S
C120 H155 0.949 . S
C121 C120 1.339 . S
C121 C122 1.439 . S
C121 H156 0.950 . S
C122 N118 1.383 . S
C122 C121 1.439 . S
C122 C151 1.392 . S
N123 Co117 2.008 1_655 S
N123 C124 1.376 . S
N123 C127 1.374 . S
C124 N123 1.376 . S
C124 C125 1.443 . S
C124 C151 1.389 . S
C125 C124 1.443 . S
C125 C126 1.340 . S
C125 H157 0.951 . S
C126 C125 1.340 . S
C126 C127 1.439 . S
C126 H158 0.950 . S
C127 N123 1.374 . S
C127 C126 1.439 . S
C127 C152 1.385 1_655 S
N128 Co117 1.995 . S
N128 C129 1.376 . S
N128 C132 1.383 . S
C129 N128 1.376 . S
C129 C130 1.446 . S
C129 C152 1.402 . S
C130 C129 1.446 . S
C130 C131 1.339 . S
C130 H159 0.949 . S
C131 C130 1.339 . S
C131 C132 1.439 . S
C131 H160 0.950 . S
C132 N128 1.383 . S
C132 C131 1.439 . S
C132 C150 1.392 . S
N133 Co117 2.282 1_655 S
N133 C136 1.332 . S
N133 C138 1.332 . S
C134 C135 1.386 . S
C134 C137 1.388 . S
C135 C134 1.386 . S
C135 C136 1.382 . S
C135 H161 0.950 . S
C136 N133 1.332 . S
C136 C135 1.382 . S
C136 H147 0.952 . S
C137 C134 1.388 . S
C137 C138 1.382 . S
C137 H162 0.950 . S
C138 N133 1.332 . S
C138 C137 1.382 . S
C138 H148 0.948 . S
N139 Co117 2.282 . S
N139 C143 1.332 . S
N139 C144 1.332 . S
C140 C141 1.388 . S
C140 C144 1.382 . S
C140 H163 0.950 . S
C141 C140 1.388 . S
C141 C142 1.386 . S
C142 C141 1.386 . S
C142 C143 1.382 . S
C142 H164 0.950 . S
C143 N139 1.332 . S
C143 C142 1.382 . S
C143 H145 0.952 . S
C144 N139 1.332 . S
C144 C140 1.382 . S
C144 H146 0.948 . S
H145 C143 0.952 . S
H146 C144 0.948 . S
H147 C136 0.952 . S
H148 C138 0.948 . S
C149 C115 1.395 . S
C149 C119 1.391 1_455 S
C150 C112 1.389 . S
C150 C132 1.392 . S
C151 C122 1.392 . S
C151 C124 1.389 . S
C152 C127 1.385 1_455 S
C152 C129 1.402 . S
H153 C113 0.951 . S
H154 C114 0.950 . S
H155 C120 0.949 . S
H156 C121 0.950 . S
H157 C125 0.951 . S
H158 C126 0.950 . S
H159 C130 0.949 . S
H160 C131 0.950 . S
H161 C135 0.950 . S
H162 C137 0.950 . S
H163 C140 0.950 . S
H164 C142 0.950 . S
C165 C166 1.443 . S
C165 N169 1.376 . S
C165 C203 1.389 . S
C166 C165 1.443 . S
C166 C167 1.340 . S
C166 H206 0.951 . S
C167 C166 1.340 . S
C167 C168 1.439 . S
C167 H207 0.950 . S
C168 C167 1.439 . S
C168 N169 1.374 . S
C168 C202 1.395 . S
N169 C165 1.376 . S
N169 C168 1.374 . S
N169 Co170 2.008 . S
Co170 N169 2.008 . S
Co170 N171 1.995 1_545 S
Co170 N176 2.008 1_545 S
Co170 N181 1.995 . S
Co170 N186 2.282 1_545 S
Co170 N192 2.282 . S
N171 Co170 1.995 1_565 S
N171 C172 1.376 . S
N171 C175 1.383 . S
C172 N171 1.376 . S
C172 C173 1.446 . S
C172 C202 1.391 1_565 S
C173 C172 1.446 . S
C173 C174 1.339 . S
C173 H208 0.949 . S
C174 C173 1.339 . S
C174 C175 1.439 . S
C174 H209 0.950 . S
C175 N171 1.383 . S
C175 C174 1.439 . S
C175 C204 1.392 . S
N176 Co170 2.008 1_565 S
N176 C177 1.376 . S
N176 C180 1.374 . S
C177 N176 1.376 . S
C177 C178 1.443 . S
C177 C204 1.389 . S
C178 C177 1.443 . S
C178 C179 1.340 . S
C178 H210 0.951 . S
C179 C178 1.340 . S
C179 C180 1.439 . S
C179 H211 0.950 . S
C180 N176 1.374 . S
C180 C179 1.439 . S
C180 C205 1.395 . S
N181 Co170 1.995 . S
N181 C182 1.376 . S
N181 C185 1.383 . S
C182 N181 1.376 . S
C182 C183 1.446 . S
C182 C205 1.391 1_545 S
C183 C182 1.446 . S
C183 C184 1.339 . S
C183 H212 0.949 . S
C184 C183 1.339 . S
C184 C185 1.439 . S
C184 H213 0.950 . S
C185 N181 1.383 . S
C185 C184 1.439 . S
C185 C203 1.392 . S
N186 Co170 2.282 1_565 S
N186 C189 1.332 . S
N186 C191 1.332 . S
C187 C188 1.386 . S
C187 C190 1.388 . S
C188 C187 1.386 . S
C188 C189 1.382 . S
C188 H214 0.950 . S
C189 N186 1.332 . S
C189 C188 1.382 . S
C189 H200 0.952 . S
C190 C187 1.388 . S
C190 C191 1.382 . S
C190 H215 0.950 . S
C191 N186 1.332 . S
C191 C190 1.382 . S
C191 H201 0.948 . S
N192 Co170 2.282 . S
N192 C196 1.332 . S
N192 C197 1.332 . S
C193 C194 1.388 . S
C193 C197 1.382 . S
C193 H216 0.950 . S
C194 C193 1.388 . S
C194 C195 1.386 . S
C195 C194 1.386 . S
C195 C196 1.382 . S
C195 H217 0.950 . S
C196 N192 1.332 . S
C196 C195 1.382 . S
C196 H198 0.952 . S
C197 N192 1.332 . S
C197 C193 1.382 . S
C197 H199 0.948 . S
H198 C196 0.952 . S
H199 C197 0.948 . S
H200 C189 0.952 . S
H201 C191 0.948 . S
C202 C168 1.395 . S
C202 C172 1.391 1_545 S
C203 C165 1.389 . S
C203 C185 1.392 . S
C204 C175 1.392 . S
C204 C177 1.389 . S
C205 C180 1.395 . S
C205 C182 1.391 1_565 S
H206 C166 0.951 . S
H207 C167 0.950 . S
H208 C173 0.949 . S
H209 C174 0.950 . S
H210 C178 0.951 . S
H211 C179 0.950 . S
H212 C183 0.949 . S
H213 C184 0.950 . S
H214 C188 0.950 . S
H215 C190 0.950 . S
H216 C193 0.950 . S
H217 C195 0.950 . S
C218 C219 1.443 . S
C218 N222 1.376 . S
C218 C256 1.389 . S
C219 C218 1.443 . S
C219 C220 1.340 . S
C219 H259 0.951 . S
C220 C219 1.340 . S
C220 C221 1.439 . S
C220 H260 0.950 . S
C221 C220 1.439 . S
C221 N222 1.374 . S
C221 C255 1.395 . S
N222 C218 1.376 . S
N222 C221 1.374 . S
N222 Co223 2.008 . S
Co223 N222 2.008 . S
Co223 N224 1.995 1_455 S
Co223 N229 2.008 1_455 S
Co223 N234 1.995 . S
Co223 N239 2.282 1_455 S
Co223 N245 2.282 . S
N224 Co223 1.995 1_655 S
N224 C225 1.376 . S
N224 C228 1.383 . S
C225 N224 1.376 . S
C225 C226 1.446 . S
C225 C255 1.391 1_655 S
C226 C225 1.446 . S
C226 C227 1.339 . S
C226 H261 0.949 . S
C227 C226 1.339 . S
C227 C228 1.439 . S
C227 H262 0.950 . S
C228 N224 1.383 . S
C228 C227 1.439 . S
C228 C257 1.392 . S
N229 Co223 2.008 1_655 S
N229 C230 1.376 . S
N229 C233 1.374 . S
C230 N229 1.376 . S
C230 C231 1.443 . S
C230 C257 1.389 . S
C231 C230 1.443 . S
C231 C232 1.340 . S
C231 H263 0.951 . S
C232 C231 1.340 . S
C232 C233 1.439 . S
C232 H264 0.950 . S
C233 N229 1.374 . S
C233 C232 1.439 . S
C233 C258 1.414 . S
N234 Co223 1.995 . S
N234 C235 1.376 . S
N234 C238 1.383 . S
C235 N234 1.376 . S
C235 C236 1.446 . S
C235 C258 1.371 1_455 S
C236 C235 1.446 . S
C236 C237 1.339 . S
C236 H265 0.949 . S
C237 C236 1.339 . S
C237 C238 1.439 . S
C237 H266 0.950 . S
C238 N234 1.383 . S
C238 C237 1.439 . S
C238 C256 1.392 . S
N239 Co223 2.282 1_655 S
N239 C242 1.332 . S
N239 C244 1.332 . S
C240 C241 1.386 . S
C240 C243 1.388 . S
C241 C240 1.386 . S
C241 C242 1.382 . S
C241 H267 0.950 . S
C242 N239 1.332 . S
C242 C241 1.382 . S
C242 H253 0.952 . S
C243 C240 1.388 . S
C243 C244 1.382 . S
C243 H268 0.950 . S
C244 N239 1.332 . S
C244 C243 1.382 . S
C244 H254 0.948 . S
N245 Co223 2.282 . S
N245 C249 1.332 . S
N245 C250 1.332 . S
C246 C247 1.388 . S
C246 C250 1.382 . S
C246 H269 0.950 . S
C247 C246 1.388 . S
C247 C248 1.386 . S
C248 C247 1.386 . S
C248 C249 1.382 . S
C248 H270 0.950 . S
C249 N245 1.332 . S
C249 C248 1.382 . S
C249 H251 0.952 . S
C250 N245 1.332 . S
C250 C246 1.382 . S
C250 H252 0.948 . S
H251 C249 0.952 . S
H252 C250 0.948 . S
H253 C242 0.952 . S
H254 C244 0.948 . S
C255 C221 1.395 . S
C255 C225 1.391 1_455 S
C256 C218 1.389 . S
C256 C238 1.392 . S
C257 C228 1.392 . S
C257 C230 1.389 . S
C258 C233 1.414 . S
C258 C235 1.371 1_655 S
H259 C219 0.951 . S
H260 C220 0.950 . S
H261 C226 0.949 . S
H262 C227 0.950 . S
H263 C231 0.951 . S
H264 C232 0.950 . S
H265 C236 0.949 . S
H266 C237 0.950 . S
H267 C241 0.950 . S
H268 C243 0.950 . S
H269 C246 0.950 . S
H270 C248 0.950 . S
C271 C272 1.443 . S
C271 N275 1.376 . S
C271 C309 1.389 . S
C272 C271 1.443 . S
C272 C273 1.340 . S
C272 H312 0.951 . S
C273 C272 1.340 . S
C273 C274 1.439 . S
C273 H313 0.950 . S
C274 C273 1.439 . S
C274 N275 1.374 . S
C274 C308 1.395 . S
N275 C271 1.376 . S
N275 C274 1.374 . S
N275 Co276 2.008 1_565 S
Co276 N275 2.008 1_545 S
Co276 N277 1.995 . S
Co276 N282 2.008 . S
Co276 N287 1.995 1_545 S
Co276 N292 2.282 . S
Co276 N298 2.282 1_545 S
N277 Co276 1.995 . S
N277 C278 1.376 . S
N277 C281 1.383 . S
C278 N277 1.376 . S
C278 C279 1.446 . S
C278 C308 1.391 1_545 S
C279 C278 1.446 . S
C279 C280 1.339 . S
C279 H314 0.949 . S
C280 C279 1.339 . S
C280 C281 1.439 . S
C280 H315 0.950 . S
C281 N277 1.383 . S
C281 C280 1.439 . S
C281 C310 1.392 . S
N282 Co276 2.008 . S
N282 C283 1.376 . S
N282 C286 1.374 . S
C283 N282 1.376 . S
C283 C284 1.443 . S
C283 C310 1.389 . S
C284 C283 1.443 . S
C284 C285 1.340 . S
C284 H316 0.951 . S
C285 C284 1.340 . S
C285 C286 1.439 . S
C285 H317 0.950 . S
C286 N282 1.374 . S
C286 C285 1.439 . S
C286 C311 1.395 . S
N287 Co276 1.995 1_565 S
N287 C288 1.376 . S
N287 C291 1.383 . S
C288 N287 1.376 . S
C288 C289 1.446 . S
C288 C311 1.391 1_565 S
C289 C288 1.446 . S
C289 C290 1.339 . S
C289 H318 0.949 . S
C290 C289 1.339 . S
C290 C291 1.439 . S
C290 H319 0.950 . S
C291 N287 1.383 . S
C291 C290 1.439 . S
C291 C309 1.392 . S
N292 Co276 2.282 . S
N292 C295 1.332 . S
N292 C297 1.332 . S
C293 C294 1.386 . S
C293 C296 1.388 . S
C294 C293 1.386 . S
C294 C295 1.382 . S
C294 H320 0.950 . S
C295 N292 1.332 . S
C295 C294 1.382 . S
C295 H306 0.952 . S
C296 C293 1.388 . S
C296 C297 1.382 . S
C296 H321 0.950 . S
C297 N292 1.332 . S
C297 C296 1.382 . S
C297 H307 0.948 . S
N298 Co276 2.282 1_565 S
N298 C302 1.332 . S
N298 C303 1.332 . S
C299 C300 1.388 . S
C299 C303 1.382 . S
C299 H322 0.950 . S
C300 C299 1.388 . S
C300 C301 1.386 . S
C301 C300 1.386 . S
C301 C302 1.382 . S
C301 H323 0.950 . S
C302 N298 1.332 . S
C302 C301 1.382 . S
C302 H304 0.952 . S
C303 N298 1.332 . S
C303 C299 1.382 . S
C303 H305 0.948 . S
H304 C302 0.952 . S
H305 C303 0.948 . S
H306 C295 0.952 . S
H307 C297 0.948 . S
C308 C274 1.395 . S
C308 C278 1.391 1_565 S
C309 C271 1.389 . S
C309 C291 1.392 . S
C310 C281 1.392 . S
C310 C283 1.389 . S
C311 C286 1.395 . S
C311 C288 1.391 1_545 S
H312 C272 0.951 . S
H313 C273 0.950 . S
H314 C279 0.949 . S
H315 C280 0.950 . S
H316 C284 0.951 . S
H317 C285 0.950 . S
H318 C289 0.949 . S
H319 C290 0.950 . S
H320 C294 0.950 . S
H321 C296 0.950 . S
H322 C299 0.950 . S
H323 C301 0.950 . S
C324 C325 1.443 . S
C324 N328 1.376 . S
C324 C362 1.389 . S
C325 C324 1.443 . S
C325 C326 1.340 . S
C325 H365 0.951 . S
C326 C325 1.340 . S
C326 C327 1.439 . S
C326 H366 0.950 . S
C327 C326 1.439 . S
C327 N328 1.374 . S
C327 C361 1.395 1_554 S
N328 C324 1.376 . S
N328 C327 1.374 . S
N328 Co329 2.010 . S
Co329 N328 2.010 . S
Co329 N330 1.992 1_554 S
Co329 N335 2.006 1_554 S
Co329 N340 1.997 . S
Co329 N345 2.286 . S
Co329 N351 2.279 1_554 S
N330 Co329 1.992 1_556 S
N330 C331 1.376 . S
N330 C334 1.383 . S
C331 N330 1.376 . S
C331 C332 1.446 . S
C331 C361 1.391 . S
C332 C331 1.446 . S
C332 C333 1.339 . S
C332 H367 0.949 . S
C333 C332 1.339 . S
C333 C334 1.439 . S
C333 H368 0.950 . S
C334 N330 1.383 . S
C334 C333 1.439 . S
C334 C363 1.392 . S
N335 Co329 2.006 1_556 S
N335 C336 1.376 . S
N335 C339 1.374 . S
C336 N335 1.376 . S
C336 C337 1.443 . S
C336 C363 1.389 . S
C337 C336 1.443 . S
C337 C338 1.340 . S
C337 H369 0.951 . S
C338 C337 1.340 . S
C338 C339 1.439 . S
C338 H370 0.950 . S
C339 N335 1.374 . S
C339 C338 1.439 . S
C339 C364 1.395 1_556 S
N340 Co329 1.997 . S
N340 C341 1.376 . S
N340 C344 1.383 . S
C341 N340 1.376 . S
C341 C342 1.446 . S
C341 C364 1.391 . S
C342 C341 1.446 . S
C342 C343 1.339 . S
C342 H371 0.949 . S
C343 C342 1.339 . S
C343 C344 1.439 . S
C343 H372 0.950 . S
C344 N340 1.383 . S
C344 C343 1.439 . S
C344 C362 1.392 . S
N345 Co329 2.286 . S
N345 C348 1.332 . S
N345 C350 1.332 . S
C346 C347 1.386 . S
C346 C349 1.388 . S
C347 C346 1.386 . S
C347 C348 1.382 . S
C347 H373 0.950 . S
C348 N345 1.332 . S
C348 C347 1.382 . S
C348 H359 0.952 . S
C349 C346 1.388 . S
C349 C350 1.382 . S
C349 H374 0.950 . S
C350 N345 1.332 . S
C350 C349 1.382 . S
C350 H360 0.948 . S
N351 Co329 2.279 1_556 S
N351 C355 1.332 . S
N351 C356 1.332 . S
C352 C353 1.388 . S
C352 C356 1.382 . S
C352 H375 0.950 . S
C353 C352 1.388 . S
C353 C354 1.386 . S
C354 C353 1.386 . S
C354 C355 1.382 . S
C354 H376 0.950 . S
C355 N351 1.332 . S
C355 C354 1.382 . S
C355 H357 0.952 . S
C356 N351 1.332 . S
C356 C352 1.382 . S
C356 H358 0.948 . S
H357 C355 0.952 . S
H358 C356 0.948 . S
H359 C348 0.952 . S
H360 C350 0.948 . S
C361 C327 1.395 1_556 S
C361 C331 1.391 . S
C362 C324 1.389 . S
C362 C344 1.392 . S
C363 C334 1.392 . S
C363 C336 1.389 . S
C364 C339 1.395 1_554 S
C364 C341 1.391 . S
H365 C325 0.951 . S
H366 C326 0.950 . S
H367 C332 0.949 . S
H368 C333 0.950 . S
H369 C337 0.951 . S
H370 C338 0.950 . S
H371 C342 0.949 . S
H372 C343 0.950 . S
H373 C347 0.950 . S
H374 C349 0.950 . S
H375 C352 0.950 . S
H376 C354 0.950 . S
C377 C378 1.443 . S
C377 N381 1.376 . S
C377 C415 1.389 . S
C378 C377 1.443 . S
C378 C379 1.340 . S
C378 H418 0.951 . S
C379 C378 1.340 . S
C379 C380 1.439 . S
C379 H419 0.950 . S
C380 C379 1.439 . S
C380 N381 1.374 . S
C380 C414 1.395 1_554 S
N381 C377 1.376 . S
N381 C380 1.374 . S
N381 Co382 2.008 . S
Co382 N381 2.008 . S
Co382 N383 1.995 1_554 S
Co382 N388 2.008 1_554 S
Co382 N393 1.995 . S
Co382 N398 2.282 . S
Co382 N404 2.282 1_554 S
N383 Co382 1.995 1_556 S
N383 C384 1.376 . S
N383 C387 1.383 . S
C384 N383 1.376 . S
C384 C385 1.446 . S
C384 C414 1.391 . S
C385 C384 1.446 . S
C385 C386 1.339 . S
C385 H420 0.949 . S
C386 C385 1.339 . S
C386 C387 1.439 . S
C386 H421 0.950 . S
C387 N383 1.383 . S
C387 C386 1.439 . S
C387 C416 1.392 . S
N388 Co382 2.008 1_556 S
N388 C389 1.376 . S
N388 C392 1.374 . S
C389 N388 1.376 . S
C389 C390 1.443 . S
C389 C416 1.389 . S
C390 C389 1.443 . S
C390 C391 1.340 . S
C390 H422 0.951 . S
C391 C390 1.340 . S
C391 C392 1.440 . S
C391 H423 0.950 . S
C392 N388 1.374 . S
C392 C391 1.440 . S
C392 C417 1.394 1_556 S
N393 Co382 1.995 . S
N393 C394 1.376 . S
N393 C397 1.383 . S
C394 N393 1.376 . S
C394 C395 1.446 . S
C394 C417 1.391 . S
C395 C394 1.446 . S
C395 C396 1.339 . S
C395 H424 0.949 . S
C396 C395 1.339 . S
C396 C397 1.439 . S
C396 H425 0.950 . S
C397 N393 1.383 . S
C397 C396 1.439 . S
C397 C415 1.392 . S
N398 Co382 2.282 . S
N398 C401 1.332 . S
N398 C403 1.332 . S
C399 C400 1.386 . S
C399 C402 1.388 . S
C400 C399 1.386 . S
C400 C401 1.382 . S
C400 H426 0.950 . S
C401 N398 1.332 . S
C401 C400 1.382 . S
C401 H412 0.952 . S
C402 C399 1.388 . S
C402 C403 1.382 . S
C402 H427 0.950 . S
C403 N398 1.332 . S
C403 C402 1.382 . S
C403 H413 0.948 . S
N404 Co382 2.282 1_556 S
N404 C408 1.332 . S
N404 C409 1.332 . S
C405 C406 1.388 . S
C405 C409 1.382 . S
C405 H428 0.950 . S
C406 C405 1.388 . S
C406 C407 1.386 . S
C407 C406 1.386 . S
C407 C408 1.382 . S
C407 H429 0.950 . S
C408 N404 1.332 . S
C408 C407 1.382 . S
C408 H410 0.952 . S
C409 N404 1.332 . S
C409 C405 1.382 . S
C409 H411 0.948 . S
H410 C408 0.952 . S
H411 C409 0.948 . S
H412 C401 0.952 . S
H413 C403 0.948 . S
C414 C380 1.395 1_556 S
C414 C384 1.391 . S
C415 C377 1.389 . S
C415 C397 1.392 . S
C416 C387 1.392 . S
C416 C389 1.389 . S
C417 C392 1.394 1_554 S
C417 C394 1.391 . S
H418 C378 0.951 . S
H419 C379 0.950 . S
H420 C385 0.949 . S
H421 C386 0.950 . S
H422 C390 0.951 . S
H423 C391 0.950 . S
H424 C395 0.949 . S
H425 C396 0.950 . S
H426 C400 0.950 . S
H427 C402 0.950 . S
H428 C405 0.950 . S
H429 C407 0.950 . S
C430 C431 1.443 . S
C430 N434 1.369 1_556 S
C430 C468 1.389 . S
C431 C430 1.443 . S
C431 C432 1.340 . S
C431 H471 0.951 . S
C432 C431 1.340 . S
C432 C433 1.439 1_556 S
C432 H472 0.950 . S
C433 C432 1.439 1_554 S
C433 N434 1.377 . S
C433 C467 1.395 . S
N434 C430 1.369 1_554 S
N434 C433 1.377 . S
N434 Co435 2.013 . S
Co435 N434 2.013 . S
Co435 N436 1.995 . S
Co435 N441 2.008 . S
Co435 N446 1.995 1_554 S
Co435 N451 2.282 1_554 S
Co435 N457 2.282 . S
N436 Co435 1.995 . S
N436 C437 1.376 . S
N436 C440 1.383 . S
C437 N436 1.376 . S
C437 C438 1.446 . S
C437 C467 1.391 . S
C438 C437 1.446 . S
C438 C439 1.339 . S
C438 H473 0.949 . S
C439 C438 1.339 . S
C439 C440 1.439 . S
C439 H474 0.950 . S
C440 N436 1.383 . S
C440 C439 1.439 . S
C440 C469 1.392 . S
N441 Co435 2.008 . S
N441 C442 1.376 . S
N441 C445 1.374 . S
C442 N441 1.376 . S
C442 C443 1.443 . S
C442 C469 1.389 . S
C443 C442 1.443 . S
C443 C444 1.340 . S
C443 H475 0.951 . S
C444 C443 1.340 . S
C444 C445 1.439 . S
C444 H476 0.950 . S
C445 N441 1.374 . S
C445 C444 1.439 . S
C445 C470 1.395 . S
N446 Co435 1.995 1_556 S
N446 C447 1.376 . S
N446 C450 1.383 . S
C447 N446 1.376 . S
C447 C448 1.446 . S
C447 C470 1.391 1_556 S
C448 C447 1.446 . S
C448 C449 1.339 . S
C448 H477 0.949 . S
C449 C448 1.339 . S
C449 C450 1.439 . S
C449 H478 0.950 . S
C450 N446 1.383 . S
C450 C449 1.439 . S
C450 C468 1.392 . S
N451 Co435 2.282 1_556 S
N451 C454 1.332 . S
N451 C456 1.332 . S
C452 C453 1.386 . S
C452 C455 1.388 . S
C453 C452 1.386 . S
C453 C454 1.382 . S
C453 H479 0.950 . S
C454 N451 1.332 . S
C454 C453 1.382 . S
C454 H465 0.952 . S
C455 C452 1.388 . S
C455 C456 1.382 . S
C455 H480 0.950 . S
C456 N451 1.332 . S
C456 C455 1.382 . S
C456 H466 0.948 . S
N457 Co435 2.282 . S
N457 C461 1.332 . S
N457 C462 1.332 . S
C458 C459 1.388 . S
C458 C462 1.382 . S
C458 H481 0.950 . S
C459 C458 1.388 . S
C459 C460 1.386 . S
C460 C459 1.386 . S
C460 C461 1.382 . S
C460 H482 0.950 . S
C461 N457 1.332 . S
C461 C460 1.382 . S
C461 H463 0.952 . S
C462 N457 1.332 . S
C462 C458 1.382 . S
C462 H464 0.948 . S
H463 C461 0.952 . S
H464 C462 0.948 . S
H465 C454 0.952 . S
H466 C456 0.948 . S
C467 C433 1.395 . S
C467 C437 1.391 . S
C468 C430 1.389 . S
C468 C450 1.392 . S
C469 C440 1.392 . S
C469 C442 1.389 . S
C470 C445 1.395 . S
C470 C447 1.391 1_554 S
H471 C431 0.951 . S
H472 C432 0.950 . S
H473 C438 0.949 . S
H474 C439 0.950 . S
H475 C443 0.951 . S
H476 C444 0.950 . S
H477 C448 0.949 . S
H478 C449 0.950 . S
H479 C453 0.950 . S
H480 C455 0.950 . S
H481 C458 0.950 . S
H482 C460 0.950 . S
C483 C484 1.443 . S
C483 N487 1.376 . S
C483 C521 1.389 . S
C484 C483 1.443 . S
C484 C485 1.340 . S
C484 H524 0.951 . S
C485 C484 1.340 . S
C485 C486 1.439 . S
C485 H525 0.950 . S
C486 C485 1.439 . S
C486 N487 1.374 . S
C486 C520 1.395 1_554 S
N487 C483 1.376 . S
N487 C486 1.374 . S
N487 Co488 2.008 . S
Co488 N487 2.008 . S
Co488 N489 1.995 1_554 S
Co488 N494 2.008 1_554 S
Co488 N499 1.995 . S
Co488 N504 2.282 . S
Co488 N510 2.282 1_554 S
N489 Co488 1.995 1_556 S
N489 C490 1.376 . S
N489 C493 1.383 . S
C490 N489 1.376 . S
C490 C491 1.446 . S
C490 C520 1.391 . S
C491 C490 1.446 . S
C491 C492 1.339 . S
C491 H526 0.949 . S
C492 C491 1.339 . S
C492 C493 1.439 . S
C492 H527 0.950 . S
C493 N489 1.383 . S
C493 C492 1.439 . S
C493 C522 1.392 . S
N494 Co488 2.008 1_556 S
N494 C495 1.376 . S
N494 C498 1.374 1_556 S
C495 N494 1.376 . S
C495 C496 1.443 . S
C495 C522 1.389 . S
C496 C495 1.443 . S
C496 C497 1.340 . S
C496 H528 0.951 . S
C497 C496 1.340 . S
C497 C498 1.439 1_556 S
C497 H529 0.950 . S
C498 N494 1.374 1_554 S
C498 C497 1.439 1_554 S
C498 C523 1.395 . S
N499 Co488 1.995 . S
N499 C500 1.376 . S
N499 C503 1.383 . S
C500 N499 1.376 . S
C500 C501 1.446 . S
C500 C523 1.391 . S
C501 C500 1.446 . S
C501 C502 1.339 . S
C501 H530 0.949 . S
C502 C501 1.339 . S
C502 C503 1.439 . S
C502 H531 0.950 . S
C503 N499 1.383 . S
C503 C502 1.439 . S
C503 C521 1.392 . S
N504 Co488 2.282 . S
N504 C507 1.332 . S
N504 C509 1.332 . S
C505 C506 1.386 . S
C505 C508 1.388 . S
C506 C505 1.386 . S
C506 C507 1.382 . S
C506 H532 0.950 . S
C507 N504 1.332 . S
C507 C506 1.382 . S
C507 H518 0.952 . S
C508 C505 1.388 . S
C508 C509 1.382 . S
C508 H533 0.950 . S
C509 N504 1.332 . S
C509 C508 1.382 . S
C509 H519 0.948 . S
N510 Co488 2.282 1_556 S
N510 C514 1.332 . S
N510 C515 1.332 . S
C511 C512 1.388 . S
C511 C515 1.382 . S
C511 H534 0.950 . S
C512 C511 1.388 . S
C512 C513 1.386 . S
C513 C512 1.386 . S
C513 C514 1.382 . S
C513 H535 0.950 . S
C514 N510 1.332 . S
C514 C513 1.382 . S
C514 H516 0.952 . S
C515 N510 1.332 . S
C515 C511 1.382 . S
C515 H517 0.948 . S
H516 C514 0.952 . S
H517 C515 0.948 . S
H518 C507 0.952 . S
H519 C509 0.948 . S
C520 C486 1.395 1_556 S
C520 C490 1.391 . S
C521 C483 1.389 . S
C521 C503 1.392 . S
C522 C493 1.392 . S
C522 C495 1.389 . S
C523 C498 1.395 . S
C523 C500 1.391 . S
H524 C484 0.951 . S
H525 C485 0.950 . S
H526 C491 0.949 . S
H527 C492 0.950 . S
H528 C496 0.951 . S
H529 C497 0.950 . S
H530 C501 0.949 . S
H531 C502 0.950 . S
H532 C506 0.950 . S
H533 C508 0.950 . S
H534 C511 0.950 . S
H535 C513 0.950 . S
C536 C537 1.349 . S
C536 C538 1.327 . S
C536 H561 0.950 . S
C537 C536 1.349 . S
C537 C553 1.349 . S
C538 C536 1.327 . S
C538 C557 1.429 . S
C538 H562 0.950 . S
C539 C556 1.574 . S
C539 C558 1.368 . S
C539 H563 0.949 . S
H540 C544 0.949 . S
C541 C542 1.349 . S
C541 C543 1.327 . S
C541 H564 0.950 . S
C542 C541 1.349 . S
C542 C554 1.349 . S
C543 C541 1.327 . S
C543 C559 1.429 . S
C543 H565 0.950 . S
C544 H540 0.949 . S
C544 C552 1.574 . S
C544 C560 1.368 . S
H545 C553 0.950 . S
H546 C551 0.950 . S
H547 C552 0.949 . S
H548 C554 0.950 . S
H549 C555 0.950 . S
H550 C556 0.949 . S
C551 H546 0.950 . S
C551 C553 1.327 . S
C551 C557 1.429 . S
C552 C544 1.574 . S
C552 H547 0.949 . S
C552 C558 1.368 . S
C553 C537 1.349 . S
C553 H545 0.950 . S
C553 C551 1.327 . S
C554 C542 1.349 . S
C554 H548 0.950 . S
C554 C555 1.327 . S
C555 H549 0.950 . S
C555 C554 1.327 . S
C555 C559 1.429 . S
C556 C539 1.574 . S
C556 H550 0.949 . S
C556 C560 1.368 . S
C557 C538 1.429 . S
C557 C551 1.429 . S
C557 C558 1.523 . S
C558 C539 1.368 . S
C558 C552 1.368 . S
C558 C557 1.523 . S
C559 C543 1.429 . S
C559 C555 1.429 . S
C559 C560 1.523 . S
C560 C544 1.368 . S
C560 C556 1.368 . S
C560 C559 1.523 . S
H561 C536 0.950 . S
H562 C538 0.950 . S
H563 C539 0.949 . S
H564 C541 0.950 . S
H565 C543 0.950 . S
C566 C567 1.349 . S
C566 C568 1.327 . S
C566 H591 0.950 . S
C567 C566 1.349 . S
C567 C583 1.349 . S
C568 C566 1.327 . S
C568 C587 1.429 . S
C568 H592 0.950 . S
C569 C586 1.574 . S
C569 C588 1.368 . S
C569 H593 0.949 . S
H570 C574 0.949 . S
C571 C572 1.349 . S
C571 C573 1.327 . S
C571 H594 0.950 . S
C572 C571 1.349 . S
C572 C584 1.349 . S
C573 C571 1.327 . S
C573 C589 1.429 . S
C573 H595 0.950 . S
C574 H570 0.949 . S
C574 C582 1.574 . S
C574 C590 1.368 . S
H575 C583 0.950 . S
H576 C581 0.950 . S
H577 C582 0.949 . S
H578 C584 0.950 . S
H579 C585 0.950 . S
H580 C586 0.949 . S
C581 H576 0.950 . S
C581 C583 1.327 . S
C581 C587 1.429 . S
C582 C574 1.574 . S
C582 H577 0.949 . S
C582 C588 1.368 . S
C583 C567 1.349 . S
C583 H575 0.950 . S
C583 C581 1.327 . S
C584 C572 1.349 . S
C584 H578 0.950 . S
C584 C585 1.327 . S
C585 H579 0.950 . S
C585 C584 1.327 . S
C585 C589 1.429 . S
C586 C569 1.574 . S
C586 H580 0.949 . S
C586 C590 1.368 . S
C587 C568 1.429 . S
C587 C581 1.429 . S
C587 C588 1.523 . S
C588 C569 1.368 . S
C588 C582 1.368 . S
C588 C587 1.523 . S
C589 C573 1.429 . S
C589 C585 1.429 . S
C589 C590 1.523 . S
C590 C574 1.368 . S
C590 C586 1.368 . S
C590 C589 1.523 . S
H591 C566 0.950 . S
H592 C568 0.950 . S
H593 C569 0.949 . S
H594 C571 0.950 . S
H595 C573 0.950 . S
C596 C597 1.349 . S
C596 C598 1.327 . S
C596 H621 0.950 . S
C597 C596 1.349 . S
C597 C613 1.349 . S
C598 C596 1.327 . S
C598 C617 1.429 . S
C598 H622 0.950 . S
C599 C616 1.574 . S
C599 C618 1.368 . S
C599 H623 0.949 . S
H600 C604 0.949 . S
C601 C602 1.349 . S
C601 C603 1.327 . S
C601 H624 0.950 . S
C602 C601 1.349 . S
C602 C614 1.349 . S
C603 C601 1.327 . S
C603 C619 1.429 . S
C603 H625 0.950 . S
C604 H600 0.949 . S
C604 C612 1.574 . S
C604 C620 1.368 . S
H605 C613 0.950 . S
H606 C611 0.950 . S
H607 C612 0.949 . S
H608 C614 0.950 . S
H609 C615 0.950 . S
H610 C616 0.949 . S
C611 H606 0.950 . S
C611 C613 1.327 . S
C611 C617 1.429 . S
C612 C604 1.574 . S
C612 H607 0.949 . S
C612 C618 1.368 . S
C613 C597 1.349 . S
C613 H605 0.950 . S
C613 C611 1.327 . S
C614 C602 1.349 . S
C614 H608 0.950 . S
C614 C615 1.327 . S
C615 H609 0.950 . S
C615 C614 1.327 . S
C615 C619 1.429 . S
C616 C599 1.574 . S
C616 H610 0.949 . S
C616 C620 1.368 . S
C617 C598 1.429 . S
C617 C611 1.429 . S
C617 C618 1.523 . S
C618 C599 1.368 . S
C618 C612 1.368 . S
C618 C617 1.523 . S
C619 C603 1.429 . S
C619 C615 1.429 . S
C619 C620 1.523 . S
C620 C604 1.368 . S
C620 C616 1.368 . S
C620 C619 1.523 . S
H621 C596 0.950 . S
H622 C598 0.950 . S
H623 C599 0.949 . S
H624 C601 0.950 . S
H625 C603 0.950 . S
C626 C627 1.349 . S
C626 C628 1.327 . S
C626 H651 0.950 . S
C627 C626 1.349 . S
C627 C643 1.349 . S
C628 C626 1.327 . S
C628 C647 1.429 . S
C628 H652 0.950 . S
C629 C646 1.574 . S
C629 C648 1.368 . S
C629 H653 0.949 . S
H630 C634 0.949 . S
C631 C632 1.349 . S
C631 C633 1.327 . S
C631 H654 0.950 . S
C632 C631 1.349 . S
C632 C644 1.349 . S
C633 C631 1.327 . S
C633 C649 1.429 . S
C633 H655 0.950 . S
C634 H630 0.949 . S
C634 C642 1.574 . S
C634 C650 1.368 . S
H635 C643 0.950 . S
H636 C641 0.950 . S
H637 C642 0.949 . S
H638 C644 0.950 . S
H639 C645 0.950 . S
H640 C646 0.949 . S
C641 H636 0.950 . S
C641 C643 1.327 . S
C641 C647 1.429 . S
C642 C634 1.574 . S
C642 H637 0.949 . S
C642 C648 1.368 . S
C643 C627 1.349 . S
C643 H635 0.950 . S
C643 C641 1.327 . S
C644 C632 1.349 . S
C644 H638 0.950 . S
C644 C645 1.327 . S
C645 H639 0.950 . S
C645 C644 1.327 . S
C645 C649 1.429 . S
C646 C629 1.574 . S
C646 H640 0.949 . S
C646 C650 1.368 . S
C647 C628 1.429 . S
C647 C641 1.429 . S
C647 C648 1.523 . S
C648 C629 1.368 . S
C648 C642 1.368 . S
C648 C647 1.523 . S
C649 C633 1.429 . S
C649 C645 1.429 . S
C649 C650 1.523 . S
C650 C634 1.368 . S
C650 C646 1.368 . S
C650 C649 1.523 . S
H651 C626 0.950 . S
H652 C628 0.950 . S
H653 C629 0.949 . S
H654 C631 0.950 . S
H655 C633 0.950 . S
C656 C657 1.349 . S
C656 C658 1.327 . S
C656 H681 0.950 . S
C657 C656 1.349 . S
C657 C673 1.349 . S
C658 C656 1.327 . S
C658 C677 1.429 . S
C658 H682 0.950 . S
C659 C676 1.574 . S
C659 C678 1.368 . S
C659 H683 0.949 . S
H660 C664 0.949 . S
C661 C662 1.349 . S
C661 C663 1.327 . S
C661 H684 0.950 . S
C662 C661 1.349 . S
C662 C674 1.349 . S
C663 C661 1.327 . S
C663 C679 1.429 . S
C663 H685 0.950 . S
C664 H660 0.949 . S
C664 C672 1.574 . S
C664 C680 1.368 . S
H665 C673 0.950 . S
H666 C671 0.950 . S
H667 C672 0.949 . S
H668 C674 0.950 . S
H669 C675 0.950 . S
H670 C676 0.949 . S
C671 H666 0.950 . S
C671 C673 1.327 . S
C671 C677 1.429 . S
C672 C664 1.574 . S
C672 H667 0.949 . S
C672 C678 1.368 . S
C673 C657 1.349 . S
C673 H665 0.950 . S
C673 C671 1.327 . S
C674 C662 1.349 . S
C674 H668 0.950 . S
C674 C675 1.327 . S
C675 H669 0.950 . S
C675 C674 1.327 . S
C675 C679 1.429 . S
C676 C659 1.574 . S
C676 H670 0.949 . S
C676 C680 1.368 . S
C677 C658 1.429 . S
C677 C671 1.429 . S
C677 C678 1.523 . S
C678 C659 1.368 . S
C678 C672 1.368 . S
C678 C677 1.523 . S
C679 C663 1.429 . S
C679 C675 1.429 . S
C679 C680 1.523 . S
C680 C664 1.368 . S
C680 C676 1.368 . S
C680 C679 1.523 . S
H681 C656 0.950 . S
H682 C658 0.950 . S
H683 C659 0.949 . S
H684 C661 0.950 . S
H685 C663 0.950 . S
C686 C687 1.349 . S
C686 C688 1.327 . S
C686 H711 0.950 . S
C687 C686 1.349 . S
C687 C703 1.349 . S
C688 C686 1.327 . S
C688 C707 1.429 . S
C688 H712 0.950 . S
C689 C706 1.574 . S
C689 C708 1.368 . S
C689 H713 0.949 . S
H690 C694 0.949 . S
C691 C692 1.349 . S
C691 C693 1.327 . S
C691 H714 0.950 . S
C692 C691 1.349 . S
C692 C704 1.349 . S
C693 C691 1.327 . S
C693 C709 1.429 . S
C693 H715 0.950 . S
C694 H690 0.949 . S
C694 C702 1.574 . S
C694 C710 1.368 . S
H695 C703 0.950 . S
H696 C701 0.950 . S
H697 C702 0.949 . S
H698 C704 0.950 . S
H699 C705 0.950 . S
H700 C706 0.949 . S
C701 H696 0.950 . S
C701 C703 1.327 . S
C701 C707 1.429 . S
C702 C694 1.574 . S
C702 H697 0.949 . S
C702 C708 1.368 . S
C703 C687 1.349 . S
C703 H695 0.950 . S
C703 C701 1.327 . S
C704 C692 1.349 . S
C704 H698 0.950 . S
C704 C705 1.327 . S
C705 H699 0.950 . S
C705 C704 1.327 . S
C705 C709 1.429 . S
C706 C689 1.574 . S
C706 H700 0.949 . S
C706 C710 1.368 . S
C707 C688 1.429 . S
C707 C701 1.429 . S
C707 C708 1.523 . S
C708 C689 1.368 . S
C708 C702 1.368 . S
C708 C707 1.523 . S
C709 C693 1.429 . S
C709 C705 1.429 . S
C709 C710 1.523 . S
C710 C694 1.368 . S
C710 C706 1.368 . S
C710 C709 1.523 . S
H711 C686 0.950 . S
H712 C688 0.950 . S
H713 C689 0.949 . S
H714 C691 0.950 . S
H715 C693 0.950 . S
C716 C717 1.349 . S
C716 C718 1.327 . S
C716 H741 0.950 . S
C717 C716 1.349 . S
C717 C733 1.349 . S
C718 C716 1.327 . S
C718 C737 1.429 . S
C718 H742 0.950 . S
C719 C736 1.574 . S
C719 C738 1.368 . S
C719 H743 0.949 . S
H720 C724 0.949 . S
C721 C722 1.349 . S
C721 C723 1.327 . S
C721 H744 0.950 . S
C722 C721 1.349 . S
C722 C734 1.349 . S
C723 C721 1.327 . S
C723 C739 1.429 . S
C723 H745 0.950 . S
C724 H720 0.949 . S
C724 C732 1.574 . S
C724 C740 1.368 . S
H725 C733 0.950 . S
H726 C731 0.950 . S
H727 C732 0.949 . S
H728 C734 0.950 . S
H729 C735 0.950 . S
H730 C736 0.949 . S
C731 H726 0.950 . S
C731 C733 1.327 . S
C731 C737 1.429 . S
C732 C724 1.574 . S
C732 H727 0.949 . S
C732 C738 1.368 . S
C733 C717 1.349 . S
C733 H725 0.950 . S
C733 C731 1.327 . S
C734 C722 1.349 . S
C734 H728 0.950 . S
C734 C735 1.327 . S
C735 H729 0.950 . S
C735 C734 1.327 . S
C735 C739 1.429 . S
C736 C719 1.574 . S
C736 H730 0.949 . S
C736 C740 1.368 . S
C737 C718 1.429 . S
C737 C731 1.429 . S
C737 C738 1.523 . S
C738 C719 1.368 . S
C738 C732 1.368 . S
C738 C737 1.523 . S
C739 C723 1.429 . S
C739 C735 1.429 . S
C739 C740 1.523 . S
C740 C724 1.368 . S
C740 C736 1.368 . S
C740 C739 1.523 . S
H741 C716 0.950 . S
H742 C718 0.950 . S
H743 C719 0.949 . S
H744 C721 0.950 . S
H745 C723 0.950 . S
C746 C747 1.349 . S
C746 C748 1.327 . S
C746 H771 0.950 . S
C747 C746 1.349 . S
C747 C763 1.349 . S
C748 C746 1.327 . S
C748 C767 1.429 . S
C748 H772 0.950 . S
C749 C766 1.574 . S
C749 C768 1.368 . S
C749 H773 0.949 . S
H750 C754 0.949 . S
C751 C752 1.349 . S
C751 C753 1.327 . S
C751 H774 0.950 . S
C752 C751 1.349 . S
C752 C764 1.349 . S
C753 C751 1.327 . S
C753 C769 1.429 . S
C753 H775 0.950 . S
C754 H750 0.949 . S
C754 C762 1.574 . S
C754 C770 1.368 . S
H755 C763 0.950 . S
H756 C761 0.950 . S
H757 C762 0.949 . S
H758 C764 0.950 . S
H759 C765 0.950 . S
H760 C766 0.949 . S
C761 H756 0.950 . S
C761 C763 1.327 . S
C761 C767 1.429 . S
C762 C754 1.574 . S
C762 H757 0.949 . S
C762 C768 1.368 . S
C763 C747 1.349 . S
C763 H755 0.950 . S
C763 C761 1.327 . S
C764 C752 1.349 . S
C764 H758 0.950 . S
C764 C765 1.327 . S
C765 H759 0.950 . S
C765 C764 1.327 . S
C765 C769 1.429 . S
C766 C749 1.574 . S
C766 H760 0.949 . S
C766 C770 1.368 . S
C767 C748 1.429 . S
C767 C761 1.429 . S
C767 C768 1.523 . S
C768 C749 1.368 . S
C768 C762 1.368 . S
C768 C767 1.523 . S
C769 C753 1.429 . S
C769 C765 1.429 . S
C769 C770 1.523 . S
C770 C754 1.368 . S
C770 C766 1.368 . S
C770 C769 1.523 . S
H771 C746 0.950 . S
H772 C748 0.950 . S
H773 C749 0.949 . S
H774 C751 0.950 . S
H775 C753 0.950 . S
C776 C777 1.349 . S
C776 C778 1.327 . S
C776 H801 0.950 . S
C777 C776 1.349 . S
C777 C793 1.349 . S
C778 C776 1.327 . S
C778 C797 1.429 . S
C778 H802 0.950 . S
C779 C796 1.574 . S
C779 C798 1.368 . S
C779 H803 0.949 . S
H780 C784 0.949 . S
C781 C782 1.349 . S
C781 C783 1.327 . S
C781 H804 0.950 . S
C782 C781 1.349 . S
C782 C794 1.349 . S
C783 C781 1.327 . S
C783 C799 1.429 . S
C783 H805 0.950 . S
C784 H780 0.949 . S
C784 C792 1.574 . S
C784 C800 1.368 . S
H785 C793 0.950 . S
H786 C791 0.950 . S
H787 C792 0.949 . S
H788 C794 0.950 . S
H789 C795 0.950 . S
H790 C796 0.949 . S
C791 H786 0.950 . S
C791 C793 1.327 . S
C791 C797 1.429 . S
C792 C784 1.574 . S
C792 H787 0.949 . S
C792 C798 1.368 . S
C793 C777 1.349 . S
C793 H785 0.950 . S
C793 C791 1.327 . S
C794 C782 1.349 . S
C794 H788 0.950 . S
C794 C795 1.327 . S
C795 H789 0.950 . S
C795 C794 1.327 . S
C795 C799 1.429 . S
C796 C779 1.574 . S
C796 H790 0.949 . S
C796 C800 1.368 . S
C797 C778 1.429 . S
C797 C791 1.429 . S
C797 C798 1.523 . S
C798 C779 1.368 . S
C798 C792 1.368 . S
C798 C797 1.523 . S
C799 C783 1.429 . S
C799 C795 1.429 . S
C799 C800 1.523 . S
C800 C784 1.368 . S
C800 C796 1.368 . S
C800 C799 1.523 . S
H801 C776 0.950 . S
H802 C778 0.950 . S
H803 C779 0.949 . S
H804 C781 0.950 . S
H805 C783 0.950 . S
C806 C807 1.349 . S
C806 C808 1.327 . S
C806 H831 0.950 . S
C807 C806 1.349 . S
C807 C823 1.349 . S
C808 C806 1.327 . S
C808 C827 1.429 . S
C808 H832 0.950 . S
C809 C826 1.574 . S
C809 C828 1.368 . S
C809 H833 0.949 . S
H810 C814 0.949 . S
C811 C812 1.349 . S
C811 C813 1.327 . S
C811 H834 0.950 . S
C812 C811 1.349 . S
C812 C824 1.349 . S
C813 C811 1.327 . S
C813 C829 1.429 . S
C813 H835 0.950 . S
C814 H810 0.949 . S
C814 C822 1.574 . S
C814 C830 1.368 . S
H815 C823 0.950 . S
H816 C821 0.950 . S
H817 C822 0.949 . S
H818 C824 0.950 . S
H819 C825 0.950 . S
H820 C826 0.949 . S
C821 H816 0.950 . S
C821 C823 1.327 . S
C821 C827 1.429 . S
C822 C814 1.574 . S
C822 H817 0.949 . S
C822 C828 1.368 . S
C823 C807 1.349 . S
C823 H815 0.950 . S
C823 C821 1.327 . S
C824 C812 1.349 . S
C824 H818 0.950 . S
C824 C825 1.327 . S
C825 H819 0.950 . S
C825 C824 1.327 . S
C825 C829 1.429 . S
C826 C809 1.574 . S
C826 H820 0.949 . S
C826 C830 1.368 . S
C827 C808 1.429 . S
C827 C821 1.429 . S
C827 C828 1.523 . S
C828 C809 1.368 . S
C828 C822 1.368 . S
C828 C827 1.523 . S
C829 C813 1.429 . S
C829 C825 1.429 . S
C829 C830 1.523 . S
C830 C814 1.368 . S
C830 C826 1.368 . S
C830 C829 1.523 . S
H831 C806 0.950 . S
H832 C808 0.950 . S
H833 C809 0.949 . S
H834 C811 0.950 . S
H835 C813 0.950 . S
C836 C837 1.349 . S
C836 C838 1.327 . S
C836 H861 0.950 . S
C837 C836 1.349 . S
C837 C853 1.349 . S
C838 C836 1.327 . S
C838 C857 1.429 . S
C838 H862 0.950 . S
C839 C856 1.574 . S
C839 C858 1.368 . S
C839 H863 0.949 . S
H840 C844 0.949 . S
C841 C842 1.349 . S
C841 C843 1.327 . S
C841 H864 0.950 . S
C842 C841 1.349 . S
C842 C854 1.349 . S
C843 C841 1.327 . S
C843 C859 1.429 . S
C843 H865 0.950 . S
C844 H840 0.949 . S
C844 C852 1.574 . S
C844 C860 1.368 . S
H845 C853 0.950 . S
H846 C851 0.950 . S
H847 C852 0.949 . S
H848 C854 0.950 . S
H849 C855 0.950 . S
H850 C856 0.949 . S
C851 H846 0.950 . S
C851 C853 1.327 . S
C851 C857 1.429 . S
C852 C844 1.574 . S
C852 H847 0.949 . S
C852 C858 1.368 . S
C853 C837 1.349 . S
C853 H845 0.950 . S
C853 C851 1.327 . S
C854 C842 1.349 . S
C854 H848 0.950 . S
C854 C855 1.327 . S
C855 H849 0.950 . S
C855 C854 1.327 . S
C855 C859 1.429 . S
C856 C839 1.574 . S
C856 H850 0.949 . S
C856 C860 1.368 . S
C857 C838 1.429 . S
C857 C851 1.429 . S
C857 C858 1.523 . S
C858 C839 1.368 . S
C858 C852 1.368 . S
C858 C857 1.523 . S
C859 C843 1.429 . S
C859 C855 1.429 . S
C859 C860 1.523 . S
C860 C844 1.368 . S
C860 C856 1.368 . S
C860 C859 1.523 . S
H861 C836 0.950 . S
H862 C838 0.950 . S
H863 C839 0.949 . S
H864 C841 0.950 . S
H865 C843 0.950 . S
C866 C867 1.349 . S
C866 C868 1.327 . S
C866 H891 0.950 . S
C867 C866 1.349 . S
C867 C883 1.349 . S
C868 C866 1.327 . S
C868 C887 1.429 . S
C868 H892 0.950 . S
C869 C886 1.574 . S
C869 C888 1.368 . S
C869 H893 0.949 . S
H870 C874 0.949 . S
C871 C872 1.349 . S
C871 C873 1.327 . S
C871 H894 0.950 . S
C872 C871 1.349 . S
C872 C884 1.349 . S
C873 C871 1.327 . S
C873 C889 1.429 . S
C873 H895 0.950 . S
C874 H870 0.949 . S
C874 C882 1.574 . S
C874 C890 1.368 . S
H875 C883 0.950 . S
H876 C881 0.950 . S
H877 C882 0.949 . S
H878 C884 0.950 . S
H879 C885 0.950 . S
H880 C886 0.949 . S
C881 H876 0.950 . S
C881 C883 1.327 . S
C881 C887 1.429 . S
C882 C874 1.574 . S
C882 H877 0.949 . S
C882 C888 1.368 . S
C883 C867 1.349 . S
C883 H875 0.950 . S
C883 C881 1.327 . S
C884 C872 1.349 . S
C884 H878 0.950 . S
C884 C885 1.327 . S
C885 H879 0.950 . S
C885 C884 1.327 . S
C885 C889 1.429 . S
C886 C869 1.574 . S
C886 H880 0.949 . S
C886 C890 1.368 . S
C887 C868 1.429 . S
C887 C881 1.429 . S
C887 C888 1.523 . S
C888 C869 1.368 . S
C888 C882 1.368 . S
C888 C887 1.523 . S
C889 C873 1.429 . S
C889 C885 1.429 . S
C889 C890 1.523 . S
C890 C874 1.368 . S
C890 C886 1.368 . S
C890 C889 1.523 . S
H891 C866 0.950 . S
H892 C868 0.950 . S
H893 C869 0.949 . S
H894 C871 0.950 . S
H895 C873 0.950 . S
C896 C897 1.349 . S
C896 C898 1.327 . S
C896 H921 0.950 . S
C897 C896 1.349 . S
C897 C913 1.349 . S
C898 C896 1.327 . S
C898 C917 1.429 . S
C898 H922 0.950 . S
C899 C916 1.574 . S
C899 C918 1.368 . S
C899 H923 0.949 . S
H900 C904 0.949 . S
C901 C902 1.349 . S
C901 C903 1.327 . S
C901 H924 0.950 . S
C902 C901 1.349 . S
C902 C914 1.349 . S
C903 C901 1.327 . S
C903 C919 1.429 . S
C903 H925 0.950 . S
C904 H900 0.949 . S
C904 C912 1.574 . S
C904 C920 1.368 . S
H905 C913 0.950 . S
H906 C911 0.950 . S
H907 C912 0.949 . S
H908 C914 0.950 . S
H909 C915 0.950 . S
H910 C916 0.949 . S
C911 H906 0.950 . S
C911 C913 1.327 . S
C911 C917 1.429 . S
C912 C904 1.574 . S
C912 H907 0.949 . S
C912 C918 1.368 . S
C913 C897 1.349 . S
C913 H905 0.950 . S
C913 C911 1.327 . S
C914 C902 1.349 . S
C914 H908 0.950 . S
C914 C915 1.327 . S
C915 H909 0.950 . S
C915 C914 1.327 . S
C915 C919 1.429 . S
C916 C899 1.574 . S
C916 H910 0.949 . S
C916 C920 1.368 . S
C917 C898 1.429 . S
C917 C911 1.429 . S
C917 C918 1.523 . S
C918 C899 1.368 . S
C918 C912 1.368 . S
C918 C917 1.523 . S
C919 C903 1.429 . S
C919 C915 1.429 . S
C919 C920 1.523 . S
C920 C904 1.368 . S
C920 C916 1.368 . S
C920 C919 1.523 . S
H921 C896 0.950 . S
H922 C898 0.950 . S
H923 C899 0.949 . S
H924 C901 0.950 . S
H925 C903 0.950 . S
C926 C927 1.349 . S
C926 C928 1.327 . S
C926 H951 0.950 . S
C927 C926 1.349 . S
C927 C943 1.349 . S
C928 C926 1.327 . S
C928 C947 1.429 . S
C928 H952 0.950 . S
C929 C946 1.574 . S
C929 C948 1.368 . S
C929 H953 0.949 . S
H930 C934 0.949 . S
C931 C932 1.349 . S
C931 C933 1.327 . S
C931 H954 0.950 . S
C932 C931 1.349 . S
C932 C944 1.349 . S
C933 C931 1.327 . S
C933 C949 1.429 . S
C933 H955 0.950 . S
C934 H930 0.949 . S
C934 C942 1.574 . S
C934 C950 1.368 . S
H935 C943 0.950 . S
H936 C941 0.950 . S
H937 C942 0.949 . S
H938 C944 0.950 . S
H939 C945 0.950 . S
H940 C946 0.949 . S
C941 H936 0.950 . S
C941 C943 1.327 . S
C941 C947 1.429 . S
C942 C934 1.574 . S
C942 H937 0.949 . S
C942 C948 1.368 . S
C943 C927 1.349 . S
C943 H935 0.950 . S
C943 C941 1.327 . S
C944 C932 1.349 . S
C944 H938 0.950 . S
C944 C945 1.327 . S
C945 H939 0.950 . S
C945 C944 1.327 . S
C945 C949 1.429 . S
C946 C929 1.574 . S
C946 H940 0.949 . S
C946 C950 1.368 . S
C947 C928 1.429 . S
C947 C941 1.429 . S
C947 C948 1.523 . S
C948 C929 1.368 . S
C948 C942 1.368 . S
C948 C947 1.523 . S
C949 C933 1.429 . S
C949 C945 1.429 . S
C949 C950 1.523 . S
C950 C934 1.368 . S
C950 C946 1.368 . S
C950 C949 1.523 . S
H951 C926 0.950 . S
H952 C928 0.950 . S
H953 C929 0.949 . S
H954 C931 0.950 . S
H955 C933 0.950 . S
C956 C957 1.349 . S
C956 C958 1.327 . S
C956 H981 0.950 . S
C957 C956 1.349 . S
C957 C973 1.349 . S
C958 C956 1.327 . S
C958 C977 1.429 . S
C958 H982 0.950 . S
C959 C976 1.574 . S
C959 C978 1.368 . S
C959 H983 0.949 . S
H960 C964 0.949 . S
C961 C962 1.349 . S
C961 C963 1.327 . S
C961 H984 0.950 . S
C962 C961 1.349 . S
C962 C974 1.349 . S
C963 C961 1.327 . S
C963 C979 1.429 . S
C963 H985 0.950 . S
C964 H960 0.949 . S
C964 C972 1.574 . S
C964 C980 1.368 . S
H965 C973 0.950 . S
H966 C971 0.950 . S
H967 C972 0.949 . S
H968 C974 0.950 . S
H969 C975 0.950 . S
H970 C976 0.949 . S
C971 H966 0.950 . S
C971 C973 1.327 . S
C971 C977 1.429 . S
C972 C964 1.574 . S
C972 H967 0.949 . S
C972 C978 1.368 . S
C973 C957 1.349 . S
C973 H965 0.950 . S
C973 C971 1.327 . S
C974 C962 1.349 . S
C974 H968 0.950 . S
C974 C975 1.327 . S
C975 H969 0.950 . S
C975 C974 1.327 . S
C975 C979 1.429 . S
C976 C959 1.574 . S
C976 H970 0.949 . S
C976 C980 1.368 . S
C977 C958 1.429 . S
C977 C971 1.429 . S
C977 C978 1.523 . S
C978 C959 1.368 . S
C978 C972 1.368 . S
C978 C977 1.523 . S
C979 C963 1.429 . S
C979 C975 1.429 . S
C979 C980 1.523 . S
C980 C964 1.368 . S
C980 C976 1.368 . S
C980 C979 1.523 . S
H981 C956 0.950 . S
H982 C958 0.950 . S
H983 C959 0.949 . S
H984 C961 0.950 . S
H985 C963 0.950 . S
C986 C987 1.349 . S
C986 C988 1.327 . S
C986 H1011 0.950 . S
C987 C986 1.349 . S
C987 C1003 1.349 . S
C988 C986 1.327 . S
C988 C1007 1.429 . S
C988 H1012 0.950 . S
C989 C1006 1.574 . S
C989 C1008 1.368 . S
C989 H1013 0.949 . S
H990 C994 0.949 . S
C991 C992 1.349 . S
C991 C993 1.327 . S
C991 H1014 0.950 . S
C992 C991 1.349 . S
C992 C1004 1.349 . S
C993 C991 1.327 . S
C993 C1009 1.429 . S
C993 H1015 0.950 . S
C994 H990 0.949 . S
C994 C1002 1.574 . S
C994 C1010 1.368 . S
H995 C1003 0.950 . S
H996 C1001 0.950 . S
H997 C1002 0.949 . S
H998 C1004 0.950 . S
H999 C1005 0.950 . S
H1000 C1006 0.949 . S
C1001 H996 0.950 . S
C1001 C1003 1.327 . S
C1001 C1007 1.429 . S
C1002 C994 1.574 . S
C1002 H997 0.949 . S
C1002 C1008 1.368 . S
C1003 C987 1.349 . S
C1003 H995 0.950 . S
C1003 C1001 1.327 . S
C1004 C992 1.349 . S
C1004 H998 0.950 . S
C1004 C1005 1.327 . S
C1005 H999 0.950 . S
C1005 C1004 1.327 . S
C1005 C1009 1.429 . S
C1006 C989 1.574 . S
C1006 H1000 0.949 . S
C1006 C1010 1.368 . S
C1007 C988 1.429 . S
C1007 C1001 1.429 . S
C1007 C1008 1.523 . S
C1008 C989 1.368 . S
C1008 C1002 1.368 . S
C1008 C1007 1.523 . S
C1009 C993 1.429 . S
C1009 C1005 1.429 . S
C1009 C1010 1.523 . S
C1010 C994 1.368 . S
C1010 C1006 1.368 . S
C1010 C1009 1.523 . S
H1011 C986 0.950 . S
H1012 C988 0.950 . S
H1013 C989 0.949 . S
H1014 C991 0.950 . S
H1015 C993 0.950 . S
C1016 C1017 1.349 . S
C1016 C1018 1.327 . S
C1016 H1041 0.950 . S
C1017 C1016 1.349 . S
C1017 C1033 1.349 . S
C1018 C1016 1.327 . S
C1018 C1037 1.429 . S
C1018 H1042 0.950 . S
C1019 C1036 1.574 . S
C1019 C1038 1.368 . S
C1019 H1043 0.949 . S
H1020 C1024 0.949 . S
C1021 C1022 1.349 . S
C1021 C1023 1.327 . S
C1021 H1044 0.950 . S
C1022 C1021 1.349 . S
C1022 C1034 1.349 . S
C1023 C1021 1.327 . S
C1023 C1039 1.429 . S
C1023 H1045 0.950 . S
C1024 H1020 0.949 . S
C1024 C1032 1.574 . S
C1024 C1040 1.368 . S
H1025 C1033 0.950 . S
H1026 C1031 0.950 . S
H1027 C1032 0.949 . S
H1028 C1034 0.950 . S
H1029 C1035 0.950 . S
H1030 C1036 0.949 . S
C1031 H1026 0.950 . S
C1031 C1033 1.327 . S
C1031 C1037 1.429 . S
C1032 C1024 1.574 . S
C1032 H1027 0.949 . S
C1032 C1038 1.368 . S
C1033 C1017 1.349 . S
C1033 H1025 0.950 . S
C1033 C1031 1.327 . S
C1034 C1022 1.349 . S
C1034 H1028 0.950 . S
C1034 C1035 1.327 . S
C1035 H1029 0.950 . S
C1035 C1034 1.327 . S
C1035 C1039 1.429 . S
C1036 C1019 1.574 . S
C1036 H1030 0.949 . S
C1036 C1040 1.368 . S
C1037 C1018 1.429 . S
C1037 C1031 1.429 . S
C1037 C1038 1.523 . S
C1038 C1019 1.368 . S
C1038 C1032 1.368 . S
C1038 C1037 1.523 . S
C1039 C1023 1.429 . S
C1039 C1035 1.429 . S
C1039 C1040 1.523 . S
C1040 C1024 1.368 . S
C1040 C1036 1.368 . S
C1040 C1039 1.523 . S
H1041 C1016 0.950 . S
H1042 C1018 0.950 . S
H1043 C1019 0.949 . S
H1044 C1021 0.950 . S
H1045 C1023 0.950 . S
C1046 C1047 1.349 . S
C1046 C1048 1.327 . S
C1046 H1071 0.950 . S
C1047 C1046 1.349 . S
C1047 C1063 1.349 . S
C1048 C1046 1.327 . S
C1048 C1067 1.429 . S
C1048 H1072 0.950 . S
C1049 C1066 1.574 . S
C1049 C1068 1.368 . S
C1049 H1073 0.949 . S
H1050 C1054 0.949 . S
C1051 C1052 1.349 . S
C1051 C1053 1.327 . S
C1051 H1074 0.950 . S
C1052 C1051 1.349 . S
C1052 C1064 1.349 . S
C1053 C1051 1.327 . S
C1053 C1069 1.429 . S
C1053 H1075 0.950 . S
C1054 H1050 0.949 . S
C1054 C1062 1.574 . S
C1054 C1070 1.368 . S
H1055 C1063 0.950 . S
H1056 C1061 0.950 . S
H1057 C1062 0.949 . S
H1058 C1064 0.950 . S
H1059 C1065 0.950 . S
H1060 C1066 0.949 . S
C1061 H1056 0.950 . S
C1061 C1063 1.327 . S
C1061 C1067 1.429 . S
C1062 C1054 1.574 . S
C1062 H1057 0.949 . S
C1062 C1068 1.368 . S
C1063 C1047 1.349 . S
C1063 H1055 0.950 . S
C1063 C1061 1.327 . S
C1064 C1052 1.349 . S
C1064 H1058 0.950 . S
C1064 C1065 1.327 . S
C1065 H1059 0.950 . S
C1065 C1064 1.327 . S
C1065 C1069 1.429 . S
C1066 C1049 1.574 . S
C1066 H1060 0.949 . S
C1066 C1070 1.368 . S
C1067 C1048 1.429 . S
C1067 C1061 1.429 . S
C1067 C1068 1.523 . S
C1068 C1049 1.368 . S
C1068 C1062 1.368 . S
C1068 C1067 1.523 . S
C1069 C1053 1.429 . S
C1069 C1065 1.429 . S
C1069 C1070 1.523 . S
C1070 C1054 1.368 . S
C1070 C1066 1.368 . S
C1070 C1069 1.523 . S
H1071 C1046 0.950 . S
H1072 C1048 0.950 . S
H1073 C1049 0.949 . S
H1074 C1051 0.950 . S
H1075 C1053 0.950 . S
C1076 C1077 1.349 . S
C1076 C1078 1.327 . S
C1076 H1101 0.950 . S
C1077 C1076 1.349 . S
C1077 C1093 1.349 . S
C1078 C1076 1.327 . S
C1078 C1097 1.429 . S
C1078 H1102 0.950 . S
C1079 C1096 1.574 . S
C1079 C1098 1.368 . S
C1079 H1103 0.949 . S
H1080 C1084 0.949 . S
C1081 C1082 1.349 . S
C1081 C1083 1.327 . S
C1081 H1104 0.950 . S
C1082 C1081 1.349 . S
C1082 C1094 1.349 . S
C1083 C1081 1.327 . S
C1083 C1099 1.429 . S
C1083 H1105 0.950 . S
C1084 H1080 0.949 . S
C1084 C1092 1.574 . S
C1084 C1100 1.368 . S
H1085 C1093 0.950 . S
H1086 C1091 0.950 . S
H1087 C1092 0.949 . S
H1088 C1094 0.950 . S
H1089 C1095 0.950 . S
H1090 C1096 0.949 . S
C1091 H1086 0.950 . S
C1091 C1093 1.327 . S
C1091 C1097 1.429 . S
C1092 C1084 1.574 . S
C1092 H1087 0.949 . S
C1092 C1098 1.368 . S
C1093 C1077 1.349 . S
C1093 H1085 0.950 . S
C1093 C1091 1.327 . S
C1094 C1082 1.349 . S
C1094 H1088 0.950 . S
C1094 C1095 1.327 . S
C1095 H1089 0.950 . S
C1095 C1094 1.327 . S
C1095 C1099 1.429 . S
C1096 C1079 1.574 . S
C1096 H1090 0.949 . S
C1096 C1100 1.368 . S
C1097 C1078 1.429 . S
C1097 C1091 1.429 . S
C1097 C1098 1.523 . S
C1098 C1079 1.368 . S
C1098 C1092 1.368 . S
C1098 C1097 1.523 . S
C1099 C1083 1.429 . S
C1099 C1095 1.429 . S
C1099 C1100 1.523 . S
C1100 C1084 1.368 . S
C1100 C1096 1.368 . S
C1100 C1099 1.523 . S
H1101 C1076 0.950 . S
H1102 C1078 0.950 . S
H1103 C1079 0.949 . S
H1104 C1081 0.950 . S
H1105 C1083 0.950 . S
C1106 C1107 1.349 . S
C1106 C1108 1.327 . S
C1106 H1131 0.950 . S
C1107 C1106 1.349 . S
C1107 C1123 1.349 . S
C1108 C1106 1.327 . S
C1108 C1127 1.429 . S
C1108 H1132 0.950 . S
C1109 C1126 1.574 . S
C1109 C1128 1.368 . S
C1109 H1133 0.949 . S
H1110 C1114 0.949 . S
C1111 C1112 1.349 . S
C1111 C1113 1.327 . S
C1111 H1134 0.950 . S
C1112 C1111 1.349 . S
C1112 C1124 1.349 . S
C1113 C1111 1.327 . S
C1113 C1129 1.429 . S
C1113 H1135 0.950 . S
C1114 H1110 0.949 . S
C1114 C1122 1.574 . S
C1114 C1130 1.368 . S
H1115 C1123 0.950 . S
H1116 C1121 0.950 . S
H1117 C1122 0.949 . S
H1118 C1124 0.950 . S
H1119 C1125 0.950 . S
H1120 C1126 0.949 . S
C1121 H1116 0.950 . S
C1121 C1123 1.327 . S
C1121 C1127 1.429 . S
C1122 C1114 1.574 . S
C1122 H1117 0.949 . S
C1122 C1128 1.368 . S
C1123 C1107 1.349 . S
C1123 H1115 0.950 . S
C1123 C1121 1.327 . S
C1124 C1112 1.349 . S
C1124 H1118 0.950 . S
C1124 C1125 1.327 . S
C1125 H1119 0.950 . S
C1125 C1124 1.327 . S
C1125 C1129 1.429 . S
C1126 C1109 1.574 . S
C1126 H1120 0.949 . S
C1126 C1130 1.368 . S
C1127 C1108 1.429 . S
C1127 C1121 1.429 . S
C1127 C1128 1.523 . S
C1128 C1109 1.368 . S
C1128 C1122 1.368 . S
C1128 C1127 1.523 . S
C1129 C1113 1.429 . S
C1129 C1125 1.429 . S
C1129 C1130 1.523 . S
C1130 C1114 1.368 . S
C1130 C1126 1.368 . S
C1130 C1129 1.523 . S
H1131 C1106 0.950 . S
H1132 C1108 0.950 . S
H1133 C1109 0.949 . S
H1134 C1111 0.950 . S
H1135 C1113 0.950 . S
C1136 C1137 1.349 . S
C1136 C1138 1.327 . S
C1136 H1161 0.950 . S
C1137 C1136 1.349 . S
C1137 C1153 1.349 . S
C1138 C1136 1.327 . S
C1138 C1157 1.429 . S
C1138 H1162 0.950 . S
C1139 C1156 1.574 . S
C1139 C1158 1.368 . S
C1139 H1163 0.949 . S
H1140 C1144 0.949 . S
C1141 C1142 1.349 . S
C1141 C1143 1.327 . S
C1141 H1164 0.950 . S
C1142 C1141 1.349 . S
C1142 C1154 1.349 . S
C1143 C1141 1.327 . S
C1143 C1159 1.429 . S
C1143 H1165 0.950 . S
C1144 H1140 0.949 . S
C1144 C1152 1.574 . S
C1144 C1160 1.368 . S
H1145 C1153 0.950 . S
H1146 C1151 0.950 . S
H1147 C1152 0.949 . S
H1148 C1154 0.950 . S
H1149 C1155 0.950 . S
H1150 C1156 0.949 . S
C1151 H1146 0.950 . S
C1151 C1153 1.327 . S
C1151 C1157 1.429 . S
C1152 C1144 1.574 . S
C1152 H1147 0.949 . S
C1152 C1158 1.368 . S
C1153 C1137 1.349 . S
C1153 H1145 0.950 . S
C1153 C1151 1.327 . S
C1154 C1142 1.349 . S
C1154 H1148 0.950 . S
C1154 C1155 1.327 . S
C1155 H1149 0.950 . S
C1155 C1154 1.327 . S
C1155 C1159 1.429 . S
C1156 C1139 1.574 . S
C1156 H1150 0.949 . S
C1156 C1160 1.368 . S
C1157 C1138 1.429 . S
C1157 C1151 1.429 . S
C1157 C1158 1.523 . S
C1158 C1139 1.368 . S
C1158 C1152 1.368 . S
C1158 C1157 1.523 . S
C1159 C1143 1.429 . S
C1159 C1155 1.429 . S
C1159 C1160 1.523 . S
C1160 C1144 1.368 . S
C1160 C1156 1.368 . S
C1160 C1159 1.523 . S
H1161 C1136 0.950 . S
H1162 C1138 0.950 . S
H1163 C1139 0.949 . S
H1164 C1141 0.950 . S
H1165 C1143 0.950 . S
C1166 C1167 1.349 . S
C1166 C1168 1.327 . S
C1166 H1191 0.950 . S
C1167 C1166 1.349 . S
C1167 C1183 1.349 . S
C1168 C1166 1.327 . S
C1168 C1187 1.429 . S
C1168 H1192 0.950 . S
C1169 C1186 1.574 . S
C1169 C1188 1.368 . S
C1169 H1193 0.949 . S
H1170 C1174 0.949 . S
C1171 C1172 1.349 . S
C1171 C1173 1.327 . S
C1171 H1194 0.950 . S
C1172 C1171 1.349 . S
C1172 C1184 1.349 . S
C1173 C1171 1.327 . S
C1173 C1189 1.429 . S
C1173 H1195 0.950 . S
C1174 H1170 0.949 . S
C1174 C1182 1.574 . S
C1174 C1190 1.368 . S
H1175 C1183 0.950 . S
H1176 C1181 0.950 . S
H1177 C1182 0.949 . S
H1178 C1184 0.950 . S
H1179 C1185 0.950 . S
H1180 C1186 0.949 . S
C1181 H1176 0.950 . S
C1181 C1183 1.327 . S
C1181 C1187 1.429 . S
C1182 C1174 1.574 . S
C1182 H1177 0.949 . S
C1182 C1188 1.368 . S
C1183 C1167 1.349 . S
C1183 H1175 0.950 . S
C1183 C1181 1.327 . S
C1184 C1172 1.349 . S
C1184 H1178 0.950 . S
C1184 C1185 1.327 . S
C1185 H1179 0.950 . S
C1185 C1184 1.327 . S
C1185 C1189 1.429 . S
C1186 C1169 1.574 . S
C1186 H1180 0.949 . S
C1186 C1190 1.368 . S
C1187 C1168 1.429 . S
C1187 C1181 1.429 . S
C1187 C1188 1.523 . S
C1188 C1169 1.368 . S
C1188 C1182 1.368 . S
C1188 C1187 1.523 . S
C1189 C1173 1.429 . S
C1189 C1185 1.429 . S
C1189 C1190 1.523 . S
C1190 C1174 1.368 . S
C1190 C1186 1.368 . S
C1190 C1189 1.523 . S
H1191 C1166 0.950 . S
H1192 C1168 0.950 . S
H1193 C1169 0.949 . S
H1194 C1171 0.950 . S
H1195 C1173 0.950 . S
C1196 C1197 1.349 . S
C1196 C1198 1.327 . S
C1196 H1221 0.950 . S
C1197 C1196 1.349 . S
C1197 C1213 1.349 . S
C1198 C1196 1.327 . S
C1198 C1217 1.429 . S
C1198 H1222 0.950 . S
C1199 C1216 1.574 . S
C1199 C1218 1.368 . S
C1199 H1223 0.949 . S
H1200 C1204 0.949 . S
C1201 C1202 1.349 . S
C1201 C1203 1.327 . S
C1201 H1224 0.950 . S
C1202 C1201 1.349 . S
C1202 C1214 1.349 . S
C1203 C1201 1.327 . S
C1203 C1219 1.429 . S
C1203 H1225 0.950 . S
C1204 H1200 0.949 . S
C1204 C1212 1.574 . S
C1204 C1220 1.368 . S
H1205 C1213 0.950 . S
H1206 C1211 0.950 . S
H1207 C1212 0.949 . S
H1208 C1214 0.950 . S
H1209 C1215 0.950 . S
H1210 C1216 0.949 . S
C1211 H1206 0.950 . S
C1211 C1213 1.327 . S
C1211 C1217 1.429 . S
C1212 C1204 1.574 . S
C1212 H1207 0.949 . S
C1212 C1218 1.368 . S
C1213 C1197 1.349 . S
C1213 H1205 0.950 . S
C1213 C1211 1.327 . S
C1214 C1202 1.349 . S
C1214 H1208 0.950 . S
C1214 C1215 1.327 . S
C1215 H1209 0.950 . S
C1215 C1214 1.327 . S
C1215 C1219 1.429 . S
C1216 C1199 1.574 . S
C1216 H1210 0.949 . S
C1216 C1220 1.368 . S
C1217 C1198 1.429 . S
C1217 C1211 1.429 . S
C1217 C1218 1.523 . S
C1218 C1199 1.368 . S
C1218 C1212 1.368 . S
C1218 C1217 1.523 . S
C1219 C1203 1.429 . S
C1219 C1215 1.429 . S
C1219 C1220 1.523 . S
C1220 C1204 1.368 . S
C1220 C1216 1.368 . S
C1220 C1219 1.523 . S
H1221 C1196 0.950 . S
H1222 C1198 0.950 . S
H1223 C1199 0.949 . S
H1224 C1201 0.950 . S
H1225 C1203 0.950 . S
C1226 C1227 1.349 . S
C1226 C1228 1.327 . S
C1226 H1251 0.950 . S
C1227 C1226 1.349 . S
C1227 C1243 1.349 . S
C1228 C1226 1.327 . S
C1228 C1247 1.429 . S
C1228 H1252 0.950 . S
C1229 C1246 1.574 . S
C1229 C1248 1.368 . S
C1229 H1253 0.949 . S
H1230 C1234 0.949 . S
C1231 C1232 1.349 . S
C1231 C1233 1.327 . S
C1231 H1254 0.950 . S
C1232 C1231 1.349 . S
C1232 C1244 1.349 . S
C1233 C1231 1.327 . S
C1233 C1249 1.429 . S
C1233 H1255 0.950 . S
C1234 H1230 0.949 . S
C1234 C1242 1.574 . S
C1234 C1250 1.368 . S
H1235 C1243 0.950 . S
H1236 C1241 0.950 . S
H1237 C1242 0.949 . S
H1238 C1244 0.950 . S
H1239 C1245 0.950 . S
H1240 C1246 0.949 . S
C1241 H1236 0.950 . S
C1241 C1243 1.327 . S
C1241 C1247 1.429 . S
C1242 C1234 1.574 . S
C1242 H1237 0.949 . S
C1242 C1248 1.368 . S
C1243 C1227 1.349 . S
C1243 H1235 0.950 . S
C1243 C1241 1.327 . S
C1244 C1232 1.349 . S
C1244 H1238 0.950 . S
C1244 C1245 1.327 . S
C1245 H1239 0.950 . S
C1245 C1244 1.327 . S
C1245 C1249 1.429 . S
C1246 C1229 1.574 . S
C1246 H1240 0.949 . S
C1246 C1250 1.368 . S
C1247 C1228 1.429 . S
C1247 C1241 1.429 . S
C1247 C1248 1.523 . S
C1248 C1229 1.368 . S
C1248 C1242 1.368 . S
C1248 C1247 1.523 . S
C1249 C1233 1.429 . S
C1249 C1245 1.429 . S
C1249 C1250 1.523 . S
C1250 C1234 1.368 . S
C1250 C1246 1.368 . S
C1250 C1249 1.523 . S
H1251 C1226 0.950 . S
H1252 C1228 0.950 . S
H1253 C1229 0.949 . S
H1254 C1231 0.950 . S
H1255 C1233 0.950 . S
C1256 C1257 1.349 . S
C1256 C1258 1.327 . S
C1256 H1281 0.950 . S
C1257 C1256 1.349 . S
C1257 C1273 1.349 . S
C1258 C1256 1.327 . S
C1258 C1277 1.429 . S
C1258 H1282 0.950 . S
C1259 C1276 1.574 . S
C1259 C1278 1.368 . S
C1259 H1283 0.949 . S
H1260 C1264 0.949 . S
C1261 C1262 1.349 . S
C1261 C1263 1.327 . S
C1261 H1284 0.950 . S
C1262 C1261 1.349 . S
C1262 C1274 1.349 . S
C1263 C1261 1.327 . S
C1263 C1279 1.429 . S
C1263 H1285 0.950 . S
C1264 H1260 0.949 . S
C1264 C1272 1.574 . S
C1264 C1280 1.368 . S
H1265 C1273 0.950 . S
H1266 C1271 0.950 . S
H1267 C1272 0.949 . S
H1268 C1274 0.950 . S
H1269 C1275 0.950 . S
H1270 C1276 0.949 . S
C1271 H1266 0.950 . S
C1271 C1273 1.327 . S
C1271 C1277 1.429 . S
C1272 C1264 1.574 . S
C1272 H1267 0.949 . S
C1272 C1278 1.368 . S
C1273 C1257 1.349 . S
C1273 H1265 0.950 . S
C1273 C1271 1.327 . S
C1274 C1262 1.349 . S
C1274 H1268 0.950 . S
C1274 C1275 1.327 . S
C1275 H1269 0.950 . S
C1275 C1274 1.327 . S
C1275 C1279 1.429 . S
C1276 C1259 1.574 . S
C1276 H1270 0.949 . S
C1276 C1280 1.368 . S
C1277 C1258 1.429 . S
C1277 C1271 1.429 . S
C1277 C1278 1.523 . S
C1278 C1259 1.368 . S
C1278 C1272 1.368 . S
C1278 C1277 1.523 . S
C1279 C1263 1.429 . S
C1279 C1275 1.429 . S
C1279 C1280 1.523 . S
C1280 C1264 1.368 . S
C1280 C1276 1.368 . S
C1280 C1279 1.523 . S
H1281 C1256 0.950 . S
H1282 C1258 0.950 . S
H1283 C1259 0.949 . S
H1284 C1261 0.950 . S
H1285 C1263 0.950 . S
C1286 C1287 1.349 . S
C1286 C1288 1.327 . S
C1286 H1311 0.950 . S
C1287 C1286 1.349 . S
C1287 C1303 1.349 . S
C1288 C1286 1.327 . S
C1288 C1307 1.429 . S
C1288 H1312 0.950 . S
C1289 C1306 1.574 . S
C1289 C1308 1.368 . S
C1289 H1313 0.949 . S
H1290 C1294 0.949 . S
C1291 C1292 1.349 . S
C1291 C1293 1.327 . S
C1291 H1314 0.950 . S
C1292 C1291 1.349 . S
C1292 C1304 1.349 . S
C1293 C1291 1.327 . S
C1293 C1309 1.429 . S
C1293 H1315 0.950 . S
C1294 H1290 0.949 . S
C1294 C1302 1.574 . S
C1294 C1310 1.368 . S
H1295 C1303 0.950 . S
H1296 C1301 0.950 . S
H1297 C1302 0.949 . S
H1298 C1304 0.950 . S
H1299 C1305 0.950 . S
H1300 C1306 0.949 . S
C1301 H1296 0.950 . S
C1301 C1303 1.327 . S
C1301 C1307 1.429 . S
C1302 C1294 1.574 . S
C1302 H1297 0.949 . S
C1302 C1308 1.368 . S
C1303 C1287 1.349 . S
C1303 H1295 0.950 . S
C1303 C1301 1.327 . S
C1304 C1292 1.349 . S
C1304 H1298 0.950 . S
C1304 C1305 1.327 . S
C1305 H1299 0.950 . S
C1305 C1304 1.327 . S
C1305 C1309 1.429 . S
C1306 C1289 1.574 . S
C1306 H1300 0.949 . S
C1306 C1310 1.368 . S
C1307 C1288 1.429 . S
C1307 C1301 1.429 . S
C1307 C1308 1.523 . S
C1308 C1289 1.368 . S
C1308 C1302 1.368 . S
C1308 C1307 1.523 . S
C1309 C1293 1.429 . S
C1309 C1305 1.429 . S
C1309 C1310 1.523 . S
C1310 C1294 1.368 . S
C1310 C1306 1.368 . S
C1310 C1309 1.523 . S
H1311 C1286 0.950 . S
H1312 C1288 0.950 . S
H1313 C1289 0.949 . S
H1314 C1291 0.950 . S
H1315 C1293 0.950 . S
C1316 C1317 1.349 . S
C1316 C1318 1.327 . S
C1316 H1341 0.950 . S
C1317 C1316 1.349 . S
C1317 C1333 1.349 . S
C1318 C1316 1.327 . S
C1318 C1337 1.429 . S
C1318 H1342 0.950 . S
C1319 C1336 1.574 . S
C1319 C1338 1.368 . S
C1319 H1343 0.949 . S
H1320 C1324 0.949 . S
C1321 C1322 1.349 . S
C1321 C1323 1.327 . S
C1321 H1344 0.950 . S
C1322 C1321 1.349 . S
C1322 C1334 1.349 . S
C1323 C1321 1.327 . S
C1323 C1339 1.429 . S
C1323 H1345 0.950 . S
C1324 H1320 0.949 . S
C1324 C1332 1.574 . S
C1324 C1340 1.368 . S
H1325 C1333 0.950 . S
H1326 C1331 0.950 . S
H1327 C1332 0.949 . S
H1328 C1334 0.950 . S
H1329 C1335 0.950 . S
H1330 C1336 0.949 . S
C1331 H1326 0.950 . S
C1331 C1333 1.327 . S
C1331 C1337 1.429 . S
C1332 C1324 1.574 . S
C1332 H1327 0.949 . S
C1332 C1338 1.368 . S
C1333 C1317 1.349 . S
C1333 H1325 0.950 . S
C1333 C1331 1.327 . S
C1334 C1322 1.349 . S
C1334 H1328 0.950 . S
C1334 C1335 1.327 . S
C1335 H1329 0.950 . S
C1335 C1334 1.327 . S
C1335 C1339 1.429 . S
C1336 C1319 1.574 . S
C1336 H1330 0.949 . S
C1336 C1340 1.368 . S
C1337 C1318 1.429 . S
C1337 C1331 1.429 . S
C1337 C1338 1.523 . S
C1338 C1319 1.368 . S
C1338 C1332 1.368 . S
C1338 C1337 1.523 . S
C1339 C1323 1.429 . S
C1339 C1335 1.429 . S
C1339 C1340 1.523 . S
C1340 C1324 1.368 . S
C1340 C1336 1.368 . S
C1340 C1339 1.523 . S
H1341 C1316 0.950 . S
H1342 C1318 0.950 . S
H1343 C1319 0.949 . S
H1344 C1321 0.950 . S
H1345 C1323 0.950 . S
C1346 C1347 1.349 . S
C1346 C1348 1.327 . S
C1346 H1371 0.950 . S
C1347 C1346 1.349 . S
C1347 C1363 1.349 . S
C1348 C1346 1.327 . S
C1348 C1367 1.429 . S
C1348 H1372 0.950 . S
C1349 C1366 1.574 . S
C1349 C1368 1.368 . S
C1349 H1373 0.949 . S
H1350 C1354 0.949 . S
C1351 C1352 1.349 . S
C1351 C1353 1.327 . S
C1351 H1374 0.950 . S
C1352 C1351 1.349 . S
C1352 C1364 1.349 . S
C1353 C1351 1.327 . S
C1353 C1369 1.429 . S
C1353 H1375 0.950 . S
C1354 H1350 0.949 . S
C1354 C1362 1.574 . S
C1354 C1370 1.368 . S
H1355 C1363 0.950 . S
H1356 C1361 0.950 . S
H1357 C1362 0.949 . S
H1358 C1364 0.950 . S
H1359 C1365 0.950 . S
H1360 C1366 0.949 . S
C1361 H1356 0.950 . S
C1361 C1363 1.327 . S
C1361 C1367 1.429 . S
C1362 C1354 1.574 . S
C1362 H1357 0.949 . S
C1362 C1368 1.368 . S
C1363 C1347 1.349 . S
C1363 H1355 0.950 . S
C1363 C1361 1.327 . S
C1364 C1352 1.349 . S
C1364 H1358 0.950 . S
C1364 C1365 1.327 . S
C1365 H1359 0.950 . S
C1365 C1364 1.327 . S
C1365 C1369 1.429 . S
C1366 C1349 1.574 . S
C1366 H1360 0.949 . S
C1366 C1370 1.368 . S
C1367 C1348 1.429 . S
C1367 C1361 1.429 . S
C1367 C1368 1.523 . S
C1368 C1349 1.368 . S
C1368 C1362 1.368 . S
C1368 C1367 1.523 . S
C1369 C1353 1.429 . S
C1369 C1365 1.429 . S
C1369 C1370 1.523 . S
C1370 C1354 1.368 . S
C1370 C1366 1.368 . S
C1370 C1369 1.523 . S
H1371 C1346 0.950 . S
H1372 C1348 0.950 . S
H1373 C1349 0.949 . S
H1374 C1351 0.950 . S
H1375 C1353 0.950 . S
C1376 C1377 1.349 . S
C1376 C1378 1.327 . S
C1376 H1401 0.950 . S
C1377 C1376 1.349 . S
C1377 C1393 1.349 . S
C1378 C1376 1.327 . S
C1378 C1397 1.429 . S
C1378 H1402 0.950 . S
C1379 C1396 1.574 . S
C1379 C1398 1.368 . S
C1379 H1403 0.949 . S
H1380 C1384 0.949 . S
C1381 C1382 1.349 . S
C1381 C1383 1.327 . S
C1381 H1404 0.950 . S
C1382 C1381 1.349 . S
C1382 C1394 1.349 . S
C1383 C1381 1.327 . S
C1383 C1399 1.429 . S
C1383 H1405 0.950 . S
C1384 H1380 0.949 . S
C1384 C1392 1.574 . S
C1384 C1400 1.368 . S
H1385 C1393 0.950 . S
H1386 C1391 0.950 . S
H1387 C1392 0.949 . S
H1388 C1394 0.950 . S
H1389 C1395 0.950 . S
H1390 C1396 0.949 . S
C1391 H1386 0.950 . S
C1391 C1393 1.327 . S
C1391 C1397 1.429 . S
C1392 C1384 1.574 . S
C1392 H1387 0.949 . S
C1392 C1398 1.368 . S
C1393 C1377 1.349 . S
C1393 H1385 0.950 . S
C1393 C1391 1.327 . S
C1394 C1382 1.349 . S
C1394 H1388 0.950 . S
C1394 C1395 1.327 . S
C1395 H1389 0.950 . S
C1395 C1394 1.327 . S
C1395 C1399 1.429 . S
C1396 C1379 1.574 . S
C1396 H1390 0.949 . S
C1396 C1400 1.368 . S
C1397 C1378 1.429 . S
C1397 C1391 1.429 . S
C1397 C1398 1.523 . S
C1398 C1379 1.368 . S
C1398 C1392 1.368 . S
C1398 C1397 1.523 . S
C1399 C1383 1.429 . S
C1399 C1395 1.429 . S
C1399 C1400 1.523 . S
C1400 C1384 1.368 . S
C1400 C1396 1.368 . S
C1400 C1399 1.523 . S
H1401 C1376 0.950 . S
H1402 C1378 0.950 . S
H1403 C1379 0.949 . S
H1404 C1381 0.950 . S
H1405 C1383 0.950 . S
C1406 C1407 1.349 . S
C1406 C1408 1.327 . S
C1406 H1431 0.950 . S
C1407 C1406 1.349 . S
C1407 C1423 1.349 . S
C1408 C1406 1.327 . S
C1408 C1427 1.429 . S
C1408 H1432 0.950 . S
C1409 C1426 1.574 . S
C1409 C1428 1.368 . S
C1409 H1433 0.949 . S
H1410 C1414 0.949 . S
C1411 C1412 1.349 . S
C1411 C1413 1.327 . S
C1411 H1434 0.950 . S
C1412 C1411 1.349 . S
C1412 C1424 1.349 . S
C1413 C1411 1.327 . S
C1413 C1429 1.429 . S
C1413 H1435 0.950 . S
C1414 H1410 0.949 . S
C1414 C1422 1.574 . S
C1414 C1430 1.368 . S
H1415 C1423 0.950 . S
H1416 C1421 0.950 . S
H1417 C1422 0.949 . S
H1418 C1424 0.950 . S
H1419 C1425 0.950 . S
H1420 C1426 0.949 . S
C1421 H1416 0.950 . S
C1421 C1423 1.327 . S
C1421 C1427 1.429 . S
C1422 C1414 1.574 . S
C1422 H1417 0.949 . S
C1422 C1428 1.368 . S
C1423 C1407 1.349 . S
C1423 H1415 0.950 . S
C1423 C1421 1.327 . S
C1424 C1412 1.349 . S
C1424 H1418 0.950 . S
C1424 C1425 1.327 . S
C1425 H1419 0.950 . S
C1425 C1424 1.327 . S
C1425 C1429 1.429 . S
C1426 C1409 1.574 . S
C1426 H1420 0.949 . S
C1426 C1430 1.368 . S
C1427 C1408 1.429 . S
C1427 C1421 1.429 . S
C1427 C1428 1.523 . S
C1428 C1409 1.368 . S
C1428 C1422 1.368 . S
C1428 C1427 1.523 . S
C1429 C1413 1.429 . S
C1429 C1425 1.429 . S
C1429 C1430 1.523 . S
C1430 C1414 1.368 . S
C1430 C1426 1.368 . S
C1430 C1429 1.523 . S
H1431 C1406 0.950 . S
H1432 C1408 0.950 . S
H1433 C1409 0.949 . S
H1434 C1411 0.950 . S
H1435 C1413 0.950 . S
C1436 C1437 1.349 . S
C1436 C1438 1.327 . S
C1436 H1461 0.950 . S
C1437 C1436 1.349 . S
C1437 C1453 1.349 . S
C1438 C1436 1.327 . S
C1438 C1457 1.429 . S
C1438 H1462 0.950 . S
C1439 C1456 1.574 . S
C1439 C1458 1.368 . S
C1439 H1463 0.949 . S
H1440 C1444 0.949 . S
C1441 C1442 1.349 . S
C1441 C1443 1.327 . S
C1441 H1464 0.950 . S
C1442 C1441 1.349 . S
C1442 C1454 1.349 . S
C1443 C1441 1.327 . S
C1443 C1459 1.429 . S
C1443 H1465 0.950 . S
C1444 H1440 0.949 . S
C1444 C1452 1.574 . S
C1444 C1460 1.368 . S
H1445 C1453 0.950 . S
H1446 C1451 0.950 . S
H1447 C1452 0.949 . S
H1448 C1454 0.950 . S
H1449 C1455 0.950 . S
H1450 C1456 0.949 . S
C1451 H1446 0.950 . S
C1451 C1453 1.327 . S
C1451 C1457 1.429 . S
C1452 C1444 1.574 . S
C1452 H1447 0.949 . S
C1452 C1458 1.368 . S
C1453 C1437 1.349 . S
C1453 H1445 0.950 . S
C1453 C1451 1.327 . S
C1454 C1442 1.349 . S
C1454 H1448 0.950 . S
C1454 C1455 1.327 . S
C1455 H1449 0.950 . S
C1455 C1454 1.327 . S
C1455 C1459 1.429 . S
C1456 C1439 1.574 . S
C1456 H1450 0.949 . S
C1456 C1460 1.368 . S
C1457 C1438 1.429 . S
C1457 C1451 1.429 . S
C1457 C1458 1.523 . S
C1458 C1439 1.368 . S
C1458 C1452 1.368 . S
C1458 C1457 1.523 . S
C1459 C1443 1.429 . S
C1459 C1455 1.429 . S
C1459 C1460 1.523 . S
C1460 C1444 1.368 . S
C1460 C1456 1.368 . S
C1460 C1459 1.523 . S
H1461 C1436 0.950 . S
H1462 C1438 0.950 . S
H1463 C1439 0.949 . S
H1464 C1441 0.950 . S
H1465 C1443 0.950 . S
C1466 C1467 1.349 . S
C1466 C1468 1.327 . S
C1466 H1491 0.950 . S
C1467 C1466 1.349 . S
C1467 C1483 1.349 . S
C1468 C1466 1.327 . S
C1468 C1487 1.429 . S
C1468 H1492 0.950 . S
C1469 C1486 1.574 . S
C1469 C1488 1.368 . S
C1469 H1493 0.949 . S
H1470 C1474 0.949 . S
C1471 C1472 1.349 . S
C1471 C1473 1.327 . S
C1471 H1494 0.950 . S
C1472 C1471 1.349 . S
C1472 C1484 1.349 . S
C1473 C1471 1.327 . S
C1473 C1489 1.429 . S
C1473 H1495 0.950 . S
C1474 H1470 0.949 . S
C1474 C1482 1.574 . S
C1474 C1490 1.368 . S
H1475 C1483 0.950 . S
H1476 C1481 0.950 . S
H1477 C1482 0.949 . S
H1478 C1484 0.950 . S
H1479 C1485 0.950 . S
H1480 C1486 0.949 . S
C1481 H1476 0.950 . S
C1481 C1483 1.327 . S
C1481 C1487 1.429 . S
C1482 C1474 1.574 . S
C1482 H1477 0.949 . S
C1482 C1488 1.368 . S
C1483 C1467 1.349 . S
C1483 H1475 0.950 . S
C1483 C1481 1.327 . S
C1484 C1472 1.349 . S
C1484 H1478 0.950 . S
C1484 C1485 1.327 . S
C1485 H1479 0.950 . S
C1485 C1484 1.327 . S
C1485 C1489 1.429 . S
C1486 C1469 1.574 . S
C1486 H1480 0.949 . S
C1486 C1490 1.368 . S
C1487 C1468 1.429 . S
C1487 C1481 1.429 . S
C1487 C1488 1.523 . S
C1488 C1469 1.368 . S
C1488 C1482 1.368 . S
C1488 C1487 1.523 . S
C1489 C1473 1.429 . S
C1489 C1485 1.429 . S
C1489 C1490 1.523 . S
C1490 C1474 1.368 . S
C1490 C1486 1.368 . S
C1490 C1489 1.523 . S
H1491 C1466 0.950 . S
H1492 C1468 0.950 . S
H1493 C1469 0.949 . S
H1494 C1471 0.950 . S
H1495 C1473 0.950 . S
C542 C141 1.511 . S
C537 C0 1.517 . S
C572 C194 1.347 . S
C567 C26 1.350 . S
C602 C257 1.602 . S
C597 C40 1.603 . S
C632 C300 1.285 . S
C627 C43 1.289 . S
C657 C57 1.598 . S
C662 C256 1.593 . S
C692 C293 1.375 . S
C687 C70 1.376 . S
C722 C134 1.519 . S
C717 C97 1.522 . S
C752 C187 1.260 . S
C747 C111 1.262 . S
C782 C240 1.490 . S
C777 C98 1.493 . S
C812 C309 1.837 . S
C807 C68 1.838 . S
C842 C150 1.592 . S
C837 C83 1.593 . S
C872 C203 1.753 . S
C867 C84 1.756 . S
C902 C151 1.575 . S
C897 C15 1.579 . S
C932 C204 1.842 . S
C927 C29 1.847 . S
C962 C247 1.505 . S
C957 C54 1.507 . S
C992 C310 1.740 . S
C987 C13 1.745 . S
C1022 C353 1.474 . S
C1017 C99 1.480 . S
C1047 C69 1.720 . S
C1052 C406 1.715 . S
C1077 C82 1.644 . S
C1082 C468 1.640 . S
C1107 C85 1.711 . S
C1112 C522 1.709 . S
C1137 C14 1.559 . S
C1142 C469 1.557 . S
C1167 C28 1.801 . S
C1172 C521 1.798 . S
C1197 C55 1.558 . S
C1202 C346 1.556 . S
C1232 C399 1.634 . S
C1227 C12 1.637 . S
C1262 C459 1.460 . S
C1257 C1 1.462 . S
C1287 C27 1.395 . S
C1292 C505 1.391 . S
C1317 C41 1.628 . S
C1322 C362 1.627 . S
C1347 C42 1.354 . S
C1352 C415 1.352 . S
C1382 C363 1.540 . S
C1377 C56 1.544 . S
C1412 C416 1.448 . S
C1407 C71 1.452 . S
C1437 C96 1.539 . S
C1442 C452 1.535 . S
C1472 C512 1.304 . S
C1467 C110 1.306 . S
