# Generated by pormake.
# Topology pth, (4,4)-cn, num edge types: 1
# Building blocks:
#     Node 0, Type 0, BuildingBlock: CEKHIL_clean_sbu_0, # of connection points: 4
#     Node 1, Type 0, BuildingBlock: CEKHIL_clean_sbu_0, # of connection points: 4
#     Node 2, Type 0, BuildingBlock: CEKHIL_clean_sbu_0, # of connection points: 4
#     Node 3, Type 1, BuildingBlock: KOZSID_clean_sbu_0, # of connection points: 4
#     Node 4, Type 1, BuildingBlock: KOZSID_clean_sbu_0, # of connection points: 4
#     Node 5, Type 1, BuildingBlock: KOZSID_clean_sbu_0, # of connection points: 4
#     Edge 6, Type (0, 1), BuildingBlock: KIFKEQ_clean_linker_1, # of connection points: 2
#     Edge 7, Type (0, 1), BuildingBlock: KIFKEQ_clean_linker_1, # of connection points: 2
#     Edge 8, Type (0, 1), BuildingBlock: KIFKEQ_clean_linker_1, # of connection points: 2
#     Edge 9, Type (0, 1), BuildingBlock: KIFKEQ_clean_linker_1, # of connection points: 2
#     Edge 10, Type (0, 1), BuildingBlock: KIFKEQ_clean_linker_1, # of connection points: 2
#     Edge 11, Type (0, 1), BuildingBlock: KIFKEQ_clean_linker_1, # of connection points: 2
#     Edge 12, Type (0, 1), BuildingBlock: KIFKEQ_clean_linker_1, # of connection points: 2
#     Edge 13, Type (0, 1), BuildingBlock: KIFKEQ_clean_linker_1, # of connection points: 2
#     Edge 14, Type (0, 1), BuildingBlock: KIFKEQ_clean_linker_1, # of connection points: 2
#     Edge 15, Type (0, 1), BuildingBlock: KIFKEQ_clean_linker_1, # of connection points: 2
#     Edge 16, Type (0, 1), BuildingBlock: KIFKEQ_clean_linker_1, # of connection points: 2
#     Edge 17, Type (0, 1), BuildingBlock: KIFKEQ_clean_linker_1, # of connection points: 2
# Relax obj value: 0.006
# Max RMSD: 0.056
# Mean RMSD: 0.040
data_MOF--net-pth--node1-CEKHIL_clean_sbu_0--node2-KOZSID_clean_sbu_0--edge1-KIFKEQ_clean_linker_1
_symmetry_space_group_name_H-M    P1
_symmetry_Int_Tables_number       1
_symmetry_cell_setting            triclinic
loop_
_symmetry_equiv_pos_as_xyz
'x, y, z'
_cell_length_a     26.612416
_cell_length_b     26.712601
_cell_length_c     61.890897
_cell_angle_alpha  88.350253
_cell_angle_beta   87.242687
_cell_angle_gamma 120.47349
loop_
_atom_site_label
_atom_site_type_symbol
_atom_site_fract_x
_atom_site_fract_y
_atom_site_fract_z
_atom_type_partial_charge
Co0 Co 0.06819 0.05867 0.05083 0.0
O1 O 0.03175 0.99875 0.07395 0.0
O2 O 0.10815 0.01466 0.05271 0.0
C3 C 0.07136 0.13079 0.07028 0.0
O4 O 0.11929 0.11859 0.02604 0.0
Co5 Co 1.00168 0.1165 0.03318 0.0
O6 O 0.07796 0.17121 0.01727 0.0
C7 C 0.96512 0.99649 0.02292 0.0
C8 C 0.0707 0.9847 0.06899 0.0
C9 C 0.12014 0.16145 0.01546 0.0
O10 O 0.0128 0.00297 0.02991 0.0
O11 O 0.94961 0.03442 0.02492 0.0
O12 O 0.11148 0.11699 0.07153 0.0
O13 O 0.0284 0.09748 0.05898 0.0
Co14 Co 0.03881 0.08471 0.36544 0.0
O15 O 0.99844 0.10525 0.34504 0.0
O16 O 0.07345 0.16862 0.36232 0.0
C17 C 0.04671 0.0202 0.34462 0.0
O18 O 0.09398 0.08087 0.38672 0.0
Co19 Co 0.98563 0.95954 0.38597 0.0
O20 O 0.06754 0.9869 0.39249 0.0
C21 C 0.9413 0.03452 0.40191 0.0
C22 C 0.03528 0.15929 0.34825 0.0
C23 C 0.10381 0.04091 0.39377 0.0
O24 O 0.98199 0.07812 0.39001 0.0
O25 O 0.93357 0.98314 0.40158 0.0
O26 O 0.08356 0.07567 0.3414 0.0
O27 O 1.0041 0.00595 0.35901 0.0
Co28 Co 0.05849 0.06279 0.69937 0.0
O29 O 0.12194 0.10537 0.67752 0.0
O30 O 0.10627 0.02695 0.69659 0.0
C31 C 0.98804 0.06008 0.67936 0.0
O32 O 0.9958 0.00569 0.7225 0.0
Co33 Co 0.9911 0.11924 0.71894 0.0
O34 O 0.93447 0.03842 0.73043 0.0
C35 C 0.11128 0.15948 0.73054 0.0
C36 C 0.13758 0.06744 0.68144 0.0
C37 C 0.94795 0.99897 0.73167 0.0
O38 O 0.1088 0.11472 0.72217 0.0
O39 O 0.0712 0.17226 0.72901 0.0
O40 O 0.00517 0.02278 0.67687 0.0
O41 O 0.01726 0.1004 0.69233 0.0
C42 C 0.1303 0.68206 0.17443 0.0
C43 C 0.18595 0.72646 0.16715 0.0
C44 C 0.22421 0.71952 0.17897 0.0
C45 C 0.18995 0.67164 0.19278 0.0
N46 N 0.13205 0.64701 0.19037 0.0
Co47 Co 0.06685 0.57884 0.20816 0.0
N48 N 0.12326 0.56976 0.22601 0.0
C49 C 0.18231 0.60238 0.22376 0.0
C50 C 0.20963 0.58439 0.23753 0.0
C51 C 0.16549 0.53692 0.24914 0.0
C52 C 0.11349 0.52887 0.24184 0.0
N53 N 1.00162 0.5115 0.22623 0.0
C54 C 1.00324 0.47678 0.24232 0.0
C55 C 0.94748 0.43512 0.25068 0.0
C56 C 0.90925 0.44309 0.23925 0.0
C57 C 0.94363 0.48917 0.22469 0.0
N58 N 0.01045 0.58689 0.18999 0.0
C59 C 0.9515 0.55274 0.19162 0.0
C60 C 0.92434 0.56871 0.17699 0.0
C61 C 0.96849 0.61624 0.16541 0.0
C62 C 0.02023 0.62677 0.17377 0.0
N63 N 0.06949 0.52406 0.18758 0.0
C64 C 0.07295 0.44365 0.15974 0.0
C65 C 0.01983 0.43813 0.1671 0.0
C66 C 0.01908 0.47819 0.18099 0.0
C67 C 0.12436 0.49057 0.16631 0.0
C68 C 0.12168 0.53021 0.17994 0.0
N69 N 0.06421 0.63378 0.22874 0.0
C70 C 0.01171 0.67542 0.24636 0.0
C71 C 0.06195 0.71626 0.25573 0.0
C72 C 0.11304 0.71442 0.25182 0.0
C73 C 0.11338 0.67358 0.23821 0.0
C74 C 0.01355 0.63439 0.23331 0.0
H75 H 0.15418 0.67568 0.23541 0.0
H76 H 0.97346 0.60397 0.22697 0.0
H77 H 0.97711 0.47071 0.18638 0.0
H78 H 0.16244 0.5653 0.18416 0.0
C79 C 0.21077 0.64922 0.20835 0.0
C80 C 0.07719 0.67647 0.16628 0.0
C81 C 0.05615 0.48057 0.2499 0.0
C82 C 0.92283 0.5091 0.20823 0.0
H83 H 0.19767 0.76087 0.15482 0.0
H84 H 0.27138 0.74668 0.17784 0.0
H85 H 0.25614 0.603 0.23873 0.0
H86 H 0.17108 0.51071 0.26136 0.0
H87 H 0.93567 0.40178 0.26348 0.0
H88 H 0.86199 0.41733 0.24095 0.0
H89 H 0.87788 0.54912 0.17536 0.0
H90 H 0.96316 0.64113 0.15255 0.0
H91 H 0.9788 0.40219 0.16258 0.0
H92 H 0.16662 0.49701 0.16082 0.0
H93 H 0.97093 0.67487 0.24921 0.0
H94 H 0.15306 0.74544 0.25874 0.0
C95 C 0.44508 0.01574 0.57484 0.0
C96 C 0.39996 0.96202 0.58341 0.0
C97 C 0.40472 0.92078 0.57254 0.0
C98 C 0.4521 0.95142 0.55796 0.0
N99 N 0.47828 0.00988 0.5589 0.0
Co100 Co 0.54779 0.07055 0.54005 0.0
N101 N 0.5536 0.00969 0.52368 0.0
C102 C 0.51737 0.95139 0.52638 0.0
C103 C 0.53254 0.92052 0.51297 0.0
C104 C 0.58186 0.96144 0.50114 0.0
C105 C 0.5942 0.01517 0.50815 0.0
N106 N 0.61758 0.13112 0.52131 0.0
C107 C 0.6525 0.12518 0.50612 0.0
C108 C 0.69816 0.17887 0.49779 0.0
C109 C 0.69203 0.22015 0.50805 0.0
C110 C 0.64343 0.18957 0.5221 0.0
N111 N 0.54187 0.13138 0.55639 0.0
C112 C 0.57701 0.18973 0.55321 0.0
C113 C 0.56206 0.22064 0.5667 0.0
C114 C 0.51414 0.17965 0.57915 0.0
C115 C 0.50242 0.12584 0.57245 0.0
N116 N 0.60117 0.06883 0.56119 0.0
C117 C 0.68076 0.0655 0.58928 0.0
C118 C 0.68939 0.11835 0.58035 0.0
C119 C 0.64915 0.11903 0.56674 0.0
C120 C 0.63045 0.01451 0.58418 0.0
C121 C 0.59212 0.01711 0.57012 0.0
N122 N 0.49433 0.07224 0.51881 0.0
C123 C 0.4668 0.12551 0.49434 0.0
C124 C 0.4167 0.07424 0.48929 0.0
C125 C 0.40656 0.02205 0.49944 0.0
C126 C 0.44573 0.02199 0.5137 0.0
C127 C 0.50424 0.12358 0.5091 0.0
H128 H 0.43533 0.98055 0.52047 0.0
H129 H 0.5409 0.16432 0.51239 0.0
H130 H 0.65825 0.16073 0.56067 0.0
H131 H 0.55566 0.97651 0.56657 0.0
C132 C 0.4716 0.92673 0.54254 0.0
C133 C 0.45293 0.07094 0.58175 0.0
C134 C 0.64579 0.06988 0.49988 0.0
C135 C 0.62301 0.21427 0.53716 0.0
H136 H 0.36634 0.95341 0.59596 0.0
H137 H 0.3763 0.87404 0.5747 0.0
H138 H 0.51105 0.87373 0.51222 0.0
H139 H 0.60651 0.95268 0.48896 0.0
H140 H 0.7332 0.1875 0.4859 0.0
H141 H 0.72063 0.26688 0.50599 0.0
H142 H 0.58318 0.26744 0.56727 0.0
H143 H 0.49024 0.18836 0.59167 0.0
H144 H 0.72766 0.15935 0.58339 0.0
H145 H 0.6202 0.97232 0.59097 0.0
H146 H 0.47779 0.16726 0.48683 0.0
H147 H 0.36805 0.98092 0.49672 0.0
C148 C 0.66796 0.61023 0.84087 0.0
C149 C 0.71311 0.60237 0.83303 0.0
C150 C 0.70742 0.55526 0.84455 0.0
C151 C 0.65929 0.53697 0.85868 0.0
N152 N 0.63321 0.56889 0.85667 0.0
Co153 Co 0.56406 0.55872 0.87505 0.0
N154 N 0.55476 0.48833 0.89158 0.0
C155 C 0.58693 0.46287 0.888 0.0
C156 C 0.56775 0.41242 0.90047 0.0
C157 C 0.51969 0.4045 0.91252 0.0
C158 C 0.51265 0.45112 0.90682 0.0
N159 N 0.49755 0.55107 0.89437 0.0
C160 C 0.46307 0.51013 0.91029 0.0
C161 C 0.42336 0.52286 0.92026 0.0
C162 C 0.43218 0.57283 0.90995 0.0
C163 C 0.47696 0.58805 0.89448 0.0
N164 N 0.57045 0.62641 0.85751 0.0
C165 C 0.53491 0.64862 0.85992 0.0
C166 C 0.54952 0.69494 0.84567 0.0
C167 C 0.59728 0.7029 0.83341 0.0
C168 C 0.60916 0.66068 0.84087 0.0
N169 N 0.50878 0.50587 0.8544 0.0
C170 C 0.42819 0.43001 0.82558 0.0
C171 C 0.41582 0.46542 0.83836 0.0
C172 C 0.45647 0.50312 0.85217 0.0
C173 C 0.48206 0.43336 0.82772 0.0
C174 C 0.52104 0.47073 0.84223 0.0
N175 N 0.61923 0.61186 0.8958 0.0
C176 C 0.66226 0.70297 0.91342 0.0
C177 C 0.69593 0.68774 0.92564 0.0
C178 C 0.6911 0.63384 0.92225 0.0
C179 C 0.6533 0.59719 0.90727 0.0
C180 C 0.62429 0.66474 0.89905 0.0
H181 H 0.65229 0.55711 0.90534 0.0
H182 H 0.59956 0.67943 0.89078 0.0
H183 H 0.44427 0.52954 0.86096 0.0
H184 H 0.56089 0.47053 0.84332 0.0
C185 C 0.63537 0.48801 0.87305 0.0
C186 C 0.65984 0.65734 0.83263 0.0
C187 C 0.46444 0.45732 0.91582 0.0
C188 C 0.49424 0.6309 0.87775 0.0
H189 H 0.7466 0.62791 0.82024 0.0
H190 H 0.73478 0.53624 0.84271 0.0
H191 H 0.58609 0.38435 0.9006 0.0
H192 H 0.49254 0.36808 0.92399 0.0
H193 H 0.3903 0.49768 0.93323 0.0
H194 H 0.40712 0.59401 0.91274 0.0
H195 H 0.52963 0.7216 0.845 0.0
H196 H 0.62171 0.73737 0.82095 0.0
H197 H 0.37453 0.46404 0.83803 0.0
H198 H 0.49477 0.40782 0.81812 0.0
H199 H 0.66514 0.74466 0.9147 0.0
H200 H 0.71565 0.61928 0.93129 0.0
H201 H 0.16419 0.21835 0.08884 0.0
H202 H 0.98288 0.15308 0.07801 0.0
H203 H 0.16662 0.29643 0.10903 0.0
H204 H 0.98404 0.22915 0.09912 0.0
H205 H 0.01362 0.39963 0.12359 0.0
H206 H 0.0155 0.32764 0.10075 0.0
H207 H 0.136 0.31551 0.14203 0.0
H208 H 0.13575 0.38929 0.16417 0.0
C209 C 0.12474 0.2206 0.09087 0.0
C210 C 0.07335 0.17952 0.08186 0.0
C211 C 0.12591 0.26515 0.10262 0.0
C212 C 0.0754 0.26929 0.10597 0.0
C213 C 0.02414 0.22831 0.09669 0.0
C214 C 0.02328 0.18429 0.08466 0.0
C215 C 0.04053 0.38153 0.12771 0.0
C216 C 0.0746 0.40019 0.14565 0.0
C217 C 0.04146 0.33995 0.11468 0.0
C218 C 0.07582 0.31522 0.11944 0.0
C219 C 0.10989 0.33413 0.13746 0.0
C220 C 0.1096 0.37633 0.15028 0.0
H221 H 0.92694 0.12968 0.40332 0.0
H222 H 0.86348 0.95885 0.43412 0.0
H223 H 0.85802 0.14142 0.42722 0.0
H224 H 0.79489 0.9705 0.45767 0.0
H225 H 0.71907 0.03209 0.5111 0.0
H226 H 0.79339 0.02709 0.48789 0.0
H227 H 0.75041 0.09971 0.43346 0.0
H228 H 0.6761 0.10461 0.45687 0.0
C229 C 0.89858 0.09475 0.41519 0.0
C230 C 0.90093 0.0433 0.41672 0.0
C231 C 0.85882 0.10135 0.4288 0.0
C232 C 0.82095 0.05694 0.44441 0.0
C233 C 0.82385 0.0059 0.44605 0.0
C234 C 0.86307 0.9991 0.43239 0.0
C235 C 0.72585 0.0471 0.49418 0.0
C236 C 0.69221 0.06884 0.48572 0.0
C237 C 0.76815 0.0441 0.48087 0.0
C238 C 0.77786 0.06294 0.45878 0.0
C239 C 0.74458 0.08549 0.45043 0.0
C240 C 0.70194 0.0881 0.46375 0.0
H241 H 0.97107 0.9205 0.75213 0.0
H242 H 0.83126 0.95357 0.7409 0.0
H243 H 0.90287 0.83409 0.7756 0.0
H244 H 0.76367 0.86762 0.76401 0.0
H245 H 0.64568 0.67937 0.79066 0.0
H246 H 0.71654 0.75807 0.76489 0.0
H247 H 0.84515 0.81591 0.81246 0.0
H248 H 0.77367 0.73764 0.8383 0.0
C249 C 0.92579 0.90905 0.75446 0.0
C250 C 0.90674 0.94414 0.7447 0.0
C251 C 0.88686 0.85981 0.76799 0.0
C252 C 0.82784 0.844 0.77165 0.0
C253 C 0.80864 0.87824 0.76139 0.0
C254 C 0.84758 0.92778 0.74823 0.0
C255 C 0.68918 0.70892 0.79551 0.0
C256 C 0.70415 0.703 0.81648 0.0
C257 C 0.7297 0.7539 0.78081 0.0
C258 C 0.78643 0.79336 0.78666 0.0
C259 C 0.802 0.786 0.80741 0.0
C260 C 0.76114 0.74147 0.82221 0.0
H261 H 0.15315 0.95128 0.06613 0.0
H262 H 0.9922 0.91239 0.10139 0.0
H263 H 0.15749 0.87788 0.08937 0.0
H264 H 0.99572 0.83877 0.1241 0.0
H265 H 0.04901 0.75762 0.17667 0.0
H266 H 0.04969 0.83235 0.15269 0.0
H267 H 0.11124 0.77384 0.09863 0.0
H268 H 0.1116 0.69986 0.12301 0.0
C269 C 0.11848 0.92677 0.07868 0.0
C270 C 0.07255 0.938 0.08196 0.0
C271 C 0.12082 0.88455 0.09197 0.0
C272 C 0.07727 0.85267 0.10882 0.0
C273 C 0.03077 0.86323 0.11167 0.0
C274 C 0.02852 0.9053 0.09848 0.0
C275 C 0.06298 0.76121 0.15967 0.0
C276 C 0.08032 0.72337 0.15161 0.0
C277 C 0.06301 0.80363 0.14587 0.0
C278 C 0.08007 0.80899 0.12361 0.0
C279 C 0.09836 0.77143 0.11567 0.0
C280 C 0.09837 0.72896 0.12954 0.0
H281 H 0.17851 1.00173 0.38623 0.0
H282 H 0.14852 0.11385 0.42674 0.0
H283 H 0.25961 0.01658 0.40708 0.0
H284 H 0.22675 0.12546 0.44898 0.0
H285 H 0.38988 0.16015 0.48076 0.0
H286 H 0.32275 0.16008 0.45554 0.0
H287 H 0.27774 0.98684 0.43876 0.0
H288 H 0.34901 0.98957 0.46199 0.0
C289 C 0.18961 0.02977 0.39966 0.0
C290 C 0.15743 0.05669 0.40488 0.0
C291 C 0.23566 0.03772 0.4119 0.0
C292 C 0.24955 0.07118 0.43025 0.0
C293 C 0.2183 0.09982 0.43495 0.0
C294 C 0.17319 0.09315 0.42225 0.0
C295 C 0.36679 0.12253 0.47132 0.0
C296 C 0.37536 0.07477 0.4737 0.0
C297 C 0.32718 0.12207 0.45703 0.0
C298 C 0.29407 0.07344 0.44489 0.0
C299 C 0.30281 0.02583 0.4473 0.0
C300 C 0.3432 0.02682 0.46118 0.0
H301 H 0.16692 0.12932 0.7598 0.0
H302 H 0.17057 0.27736 0.72843 0.0
H303 H 0.24473 0.19391 0.78212 0.0
H304 H 0.25137 0.34252 0.7491 0.0
H305 H 0.34835 0.44539 0.80395 0.0
H306 H 0.27435 0.37949 0.78163 0.0
H307 H 0.33965 0.26108 0.78722 0.0
H308 H 0.40964 0.32429 0.8119 0.0
C309 C 0.18535 0.17589 0.75741 0.0
C310 C 0.16235 0.19836 0.7426 0.0
C311 C 0.23038 0.21322 0.77011 0.0
C312 C 0.25461 0.27412 0.76785 0.0
C313 C 0.23301 0.29619 0.75212 0.0
C314 C 0.18692 0.25883 0.73999 0.0
C315 C 0.34647 0.40479 0.80096 0.0
C316 C 0.38518 0.39046 0.81026 0.0
C317 C 0.30439 0.36713 0.78753 0.0
C318 C 0.30045 0.31438 0.78221 0.0
C319 C 0.34011 0.30057 0.79105 0.0
C320 C 0.38139 0.33769 0.80501 0.0
H321 H 0.92267 0.11013 0.68908 0.0
H322 H 0.94688 0.00674 0.64206 0.0
H323 H 0.84611 0.10886 0.66859 0.0
H324 H 0.87351 0.00852 0.6207 0.0
H325 H 0.70839 0.97931 0.59375 0.0
H326 H 0.777 0.975 0.61678 0.0
H327 H 0.82575 0.14531 0.63838 0.0
H328 H 0.75248 0.14686 0.61709 0.0
C329 C 0.91181 0.08745 0.67424 0.0
C330 C 0.94062 0.05839 0.66721 0.0
C331 C 0.86818 0.08711 0.66232 0.0
C332 C 0.85313 0.05877 0.64276 0.0
C333 C 0.8824 0.02978 0.63583 0.0
C334 C 0.925 0.02904 0.64802 0.0
C335 C 0.73251 0.0154 0.60376 0.0
C336 C 0.72407 0.06338 0.60341 0.0
C337 C 0.77316 0.01343 0.61676 0.0
C338 C 0.80791 0.05999 0.6295 0.0
C339 C 0.79957 0.10804 0.62914 0.0
C340 C 0.75798 0.10946 0.61648 0.0
H341 H 0.99649 0.94359 0.99222 0.0
H342 H 0.84685 0.93184 0.02746 0.0
H343 H 0.93179 0.86595 0.96977 0.0
H344 H 0.78188 0.85145 0.00649 0.0
H345 H 0.67947 0.76331 0.95006 0.0
H346 H 0.74498 0.83368 0.97366 0.0
H347 H 0.8648 0.77054 0.96387 0.0
H348 H 0.8015 0.70377 0.9382 0.0
C349 C 0.94963 0.92325 0.9955 0.0
C350 C 0.92662 0.94405 0.0114 0.0
C351 C 0.91229 0.87843 0.98269 0.0
C352 C 0.85099 0.85243 0.98587 0.0
C353 C 0.8285 0.87134 1.00281 0.0
C354 C 0.86575 0.91712 0.0151 0.0
C355 C 0.72023 0.76486 0.95249 0.0
C356 C 0.73508 0.72792 0.94172 0.0
C357 C 0.75763 0.80477 0.96659 0.0
C358 C 0.81069 0.80824 0.97104 0.0
C359 C 0.82497 0.7702 0.96075 0.0
C360 C 0.78794 0.73093 0.9462 0.0
H361 H 0.1068 0.03693 0.30555 0.0
H362 H 0.9987 0.90429 0.35573 0.0
H363 H 0.11149 0.96338 0.28417 0.0
H364 H 0.00496 0.83117 0.33458 0.0
H365 H 0.09551 0.74101 0.29699 0.0
H366 H 0.0934 0.81493 0.31914 0.0
H367 H 0.02639 0.86752 0.26648 0.0
H368 H 0.02697 0.79268 0.24459 0.0
C369 C 0.0846 0.99222 0.31211 0.0
C370 C 0.05227 0.97632 0.33229 0.0
C371 C 0.0871 0.95019 0.29984 0.0
C372 C 0.05855 0.89169 0.30775 0.0
C373 C 0.02753 0.87602 0.32818 0.0
C374 C 0.02383 0.91781 0.34022 0.0
C375 C 0.08032 0.76841 0.29021 0.0
C376 C 0.06125 0.76115 0.26914 0.0
C377 C 0.07893 0.81043 0.30287 0.0
C378 C 0.05987 0.84692 0.29446 0.0
C379 C 0.04155 0.84013 0.27328 0.0
C380 C 0.0416 0.79723 0.26084 0.0
H381 H 0.21092 0.15019 0.65034 0.0
H382 H 0.17608 0.98935 0.68284 0.0
H383 H 0.28843 0.15199 0.62726 0.0
H384 H 0.25336 0.99051 0.65931 0.0
H385 H 0.43298 0.04109 0.62526 0.0
H386 H 0.3588 0.04105 0.65043 0.0
H387 H 0.29797 0.10062 0.59755 0.0
H388 H 0.37269 0.10133 0.57272 0.0
C389 C 0.21985 0.11515 0.6526 0.0
C390 C 0.18705 0.06948 0.66841 0.0
C391 C 0.26414 0.11599 0.63921 0.0
C392 C 0.27692 0.0711 0.6412 0.0
C393 C 0.24506 0.02604 0.6574 0.0
C394 C 0.20059 0.02522 0.67085 0.0
C395 C 0.40362 0.05421 0.61917 0.0
C396 C 0.4083 0.0713 0.59716 0.0
C397 C 0.36098 0.0539 0.6335 0.0
C398 C 0.32235 0.07096 0.62607 0.0
C399 C 0.32744 0.0881 0.60395 0.0
C400 C 0.36996 0.08829 0.58968 0.0
H401 H 0.22786 0.1696 0.01038 0.0
H402 H 0.12942 0.2449 0.98629 0.0
H403 H 0.31207 0.23783 0.98589 0.0
H404 H 0.21298 0.31264 0.96224 0.0
H405 H 0.35157 0.38897 0.90627 0.0
H406 H 0.26929 0.31406 0.92973 0.0
H407 H 0.3849 0.34419 0.98078 0.0
H408 H 0.46719 0.41908 0.95707 0.0
C409 C 0.224 0.20042 0.99987 0.0
C410 C 0.17162 0.20151 1.00038 0.0
C411 C 0.27239 0.23975 0.98592 0.0
C412 C 0.26927 0.28061 0.972 0.0
C413 C 0.21678 0.28128 0.97246 0.0
C414 C 0.16882 0.2425 0.98643 0.0
C415 C 0.35922 0.37912 0.92247 0.0
C416 C 0.41548 0.40945 0.92989 0.0
C417 C 0.3122 0.33649 0.93595 0.0
C418 C 0.32036 0.32318 0.95721 0.0
C419 C 0.37714 0.35285 0.96445 0.0
C420 C 0.42418 0.39579 0.95095 0.0
H421 H 0.11313 0.27672 0.34838 0.0
H422 H 0.9582 0.15078 0.31896 0.0
H423 H 0.11721 0.35452 0.3252 0.0
H424 H 0.9614 0.22836 0.29619 0.0
H425 H 0.02438 0.36965 0.24108 0.0
H426 H 0.01814 0.29285 0.26558 0.0
H427 H 0.07032 0.40981 0.31766 0.0
H428 H 0.07751 0.48672 0.2928 0.0
C429 C 0.07954 0.2657 0.33716 0.0
C430 C 0.0355 0.20744 0.33549 0.0
C431 C 0.08172 0.31037 0.3239 0.0
C432 C 0.03988 0.29787 0.30864 0.0
C433 C 0.99505 0.23966 0.30741 0.0
C434 C 0.99294 0.19511 0.32062 0.0
C435 C 0.03436 0.3786 0.2578 0.0
C436 C 0.05157 0.43384 0.26511 0.0
C437 C 0.03049 0.33464 0.2719 0.0
C438 C 0.04359 0.34489 0.2937 0.0
C439 C 0.06061 0.40044 0.30097 0.0
C440 C 0.06445 0.4444 0.28682 0.0
loop_
_geom_bond_atom_site_label_1
_geom_bond_atom_site_label_2
_geom_bond_distance
_geom_bond_site_symmetry_2
_ccdc_geom_bond_type
Co0 O1 2.216 1_545 S
Co0 O2 2.091 . S
Co0 O4 2.004 . S
Co0 O10 2.021 . S
Co0 O12 2.137 . S
Co0 O13 2.244 . S
O1 Co0 2.216 1_565 S
O1 C8 1.247 . S
O2 Co0 2.091 . S
O2 C8 1.261 1_545 S
C3 O12 1.247 . S
C3 O13 1.272 . S
O4 Co0 2.004 . S
O4 C9 1.259 . S
Co5 O6 2.061 . S
Co5 O11 2.052 1_455 S
Co5 O13 2.135 . S
O6 Co5 2.061 . S
O6 C9 1.235 . S
C7 O10 1.230 1_655 S
C7 O11 1.262 . S
C8 O1 1.247 . S
C8 O2 1.261 1_565 S
C9 O4 1.259 . S
C9 O6 1.235 . S
O10 Co0 2.021 . S
O10 C7 1.230 1_455 S
O11 Co5 2.052 1_655 S
O11 C7 1.262 . S
O12 Co0 2.137 . S
O12 C3 1.247 . S
O13 Co0 2.244 . S
O13 C3 1.272 . S
O13 Co5 2.135 . S
Co14 O15 2.216 . S
Co14 O16 2.091 . S
Co14 O18 2.004 . S
Co14 O24 2.021 . S
Co14 O26 2.137 . S
Co14 O27 2.244 . S
O15 Co14 2.216 . S
O15 C22 1.247 . S
O16 Co14 2.091 . S
O16 C22 1.261 . S
C17 O26 1.247 . S
C17 O27 1.272 . S
O18 Co14 2.004 . S
O18 C23 1.259 . S
Co19 O20 2.061 1_665 S
Co19 O25 2.052 1_565 S
Co19 O27 2.135 1_665 S
O20 Co19 2.061 1_445 S
O20 C23 1.235 . S
C21 O24 1.238 1_655 S
C21 O25 1.241 . S
C22 O15 1.247 . S
C22 O16 1.261 . S
C23 O18 1.259 . S
C23 O20 1.235 . S
O24 Co14 2.021 . S
O24 C21 1.238 1_455 S
O25 Co19 2.052 1_545 S
O25 C21 1.241 . S
O26 Co14 2.137 . S
O26 C17 1.247 . S
O27 Co14 2.244 . S
O27 C17 1.272 . S
O27 Co19 2.135 1_445 S
Co28 O29 2.216 . S
Co28 O30 2.092 . S
Co28 O32 2.004 1_545 S
Co28 O38 2.021 . S
Co28 O40 2.137 . S
Co28 O41 2.244 . S
O29 Co28 2.216 . S
O29 C36 1.247 . S
O30 Co28 2.092 . S
O30 C36 1.262 . S
C31 O40 1.247 1_655 S
C31 O41 1.272 1_655 S
O32 Co28 2.004 1_565 S
O32 C37 1.259 1_455 S
Co33 O34 2.061 . S
Co33 O39 2.052 1_655 S
Co33 O41 2.135 1_655 S
O34 Co33 2.061 . S
O34 C37 1.235 1_545 S
C35 O38 1.238 . S
C35 O39 1.241 . S
C36 O29 1.247 . S
C36 O30 1.262 . S
C37 O32 1.259 1_655 S
C37 O34 1.235 1_565 S
O38 Co28 2.021 . S
O38 C35 1.238 . S
O39 Co33 2.052 1_455 S
O39 C35 1.241 . S
O40 Co28 2.137 . S
O40 C31 1.247 1_455 S
O41 Co28 2.244 . S
O41 C31 1.272 1_455 S
O41 Co33 2.135 1_455 S
C42 C43 1.443 . S
C42 N46 1.376 . S
C42 C80 1.389 . S
C43 C42 1.443 . S
C43 C44 1.340 . S
C43 H83 0.951 . S
C44 C43 1.340 . S
C44 C45 1.439 . S
C44 H84 0.950 . S
C45 C44 1.439 . S
C45 N46 1.374 . S
C45 C79 1.395 . S
N46 C42 1.376 . S
N46 C45 1.374 . S
N46 Co47 2.008 . S
Co47 N46 2.008 . S
Co47 N48 1.995 . S
Co47 N53 2.008 1_455 S
Co47 N58 1.995 1_455 S
Co47 N63 2.282 . S
Co47 N69 2.282 . S
N48 Co47 1.995 . S
N48 C49 1.376 . S
N48 C52 1.383 . S
C49 N48 1.376 . S
C49 C50 1.446 . S
C49 C79 1.391 . S
C50 C49 1.446 . S
C50 C51 1.339 . S
C50 H85 0.949 . S
C51 C50 1.339 . S
C51 C52 1.439 . S
C51 H86 0.950 . S
C52 N48 1.383 . S
C52 C51 1.439 . S
C52 C81 1.392 . S
N53 Co47 2.008 1_655 S
N53 C54 1.376 . S
N53 C57 1.374 . S
C54 N53 1.376 . S
C54 C55 1.443 . S
C54 C81 1.389 1_655 S
C55 C54 1.443 . S
C55 C56 1.340 . S
C55 H87 0.951 . S
C56 C55 1.340 . S
C56 C57 1.439 . S
C56 H88 0.950 . S
C57 N53 1.374 . S
C57 C56 1.439 . S
C57 C82 1.395 . S
N58 Co47 1.995 1_655 S
N58 C59 1.376 . S
N58 C62 1.383 . S
C59 N58 1.376 . S
C59 C60 1.446 . S
C59 C82 1.391 . S
C60 C59 1.446 . S
C60 C61 1.339 . S
C60 H89 0.949 . S
C61 C60 1.339 . S
C61 C62 1.439 . S
C61 H90 0.950 . S
C62 N58 1.383 . S
C62 C61 1.439 . S
C62 C80 1.392 1_655 S
N63 Co47 2.282 . S
N63 C66 1.332 1_455 S
N63 C68 1.332 . S
C64 C65 1.386 1_455 S
C64 C67 1.388 . S
C65 C64 1.386 1_655 S
C65 C66 1.382 . S
C65 H91 0.950 . S
C66 N63 1.332 1_655 S
C66 C65 1.382 . S
C66 H77 0.952 . S
C67 C64 1.388 . S
C67 C68 1.382 . S
C67 H92 0.950 . S
C68 N63 1.332 . S
C68 C67 1.382 . S
C68 H78 0.948 . S
N69 Co47 2.282 . S
N69 C73 1.332 . S
N69 C74 1.332 1_455 S
C70 C71 1.388 1_655 S
C70 C74 1.382 . S
C70 H93 0.950 . S
C71 C70 1.388 1_455 S
C71 C72 1.386 . S
C72 C71 1.386 . S
C72 C73 1.382 . S
C72 H94 0.950 . S
C73 N69 1.332 . S
C73 C72 1.382 . S
C73 H75 0.952 . S
C74 N69 1.332 1_655 S
C74 C70 1.382 . S
C74 H76 0.948 . S
H75 C73 0.952 . S
H76 C74 0.948 . S
H77 C66 0.952 . S
H78 C68 0.948 . S
C79 C45 1.395 . S
C79 C49 1.391 . S
C80 C42 1.389 . S
C80 C62 1.392 1_455 S
C81 C52 1.392 . S
C81 C54 1.389 1_455 S
C82 C57 1.395 . S
C82 C59 1.391 . S
H83 C43 0.951 . S
H84 C44 0.950 . S
H85 C50 0.949 . S
H86 C51 0.950 . S
H87 C55 0.951 . S
H88 C56 0.950 . S
H89 C60 0.949 . S
H90 C61 0.950 . S
H91 C65 0.950 . S
H92 C67 0.950 . S
H93 C70 0.950 . S
H94 C72 0.950 . S
C95 C96 1.443 1_545 S
C95 N99 1.376 . S
C95 C133 1.389 . S
C96 C95 1.443 1_565 S
C96 C97 1.340 . S
C96 H136 0.951 . S
C97 C96 1.340 . S
C97 C98 1.439 . S
C97 H137 0.950 . S
C98 C97 1.439 . S
C98 N99 1.374 1_565 S
C98 C132 1.395 . S
N99 C95 1.376 . S
N99 C98 1.374 1_545 S
N99 Co100 2.008 . S
Co100 N99 2.008 . S
Co100 N101 1.995 . S
Co100 N106 2.008 . S
Co100 N111 1.995 . S
Co100 N116 2.282 . S
Co100 N122 2.282 . S
N101 Co100 1.995 . S
N101 C102 1.376 1_545 S
N101 C105 1.383 . S
C102 N101 1.376 1_565 S
C102 C103 1.446 . S
C102 C132 1.391 . S
C103 C102 1.446 . S
C103 C104 1.339 . S
C103 H138 0.949 . S
C104 C103 1.339 . S
C104 C105 1.439 1_565 S
C104 H139 0.950 . S
C105 N101 1.383 . S
C105 C104 1.439 1_545 S
C105 C134 1.392 . S
N106 Co100 2.008 . S
N106 C107 1.376 . S
N106 C110 1.374 . S
C107 N106 1.376 . S
C107 C108 1.443 . S
C107 C134 1.389 . S
C108 C107 1.443 . S
C108 C109 1.340 . S
C108 H140 0.951 . S
C109 C108 1.340 . S
C109 C110 1.439 . S
C109 H141 0.950 . S
C110 N106 1.374 . S
C110 C109 1.439 . S
C110 C135 1.395 . S
N111 Co100 1.995 . S
N111 C112 1.376 . S
N111 C115 1.383 . S
C112 N111 1.376 . S
C112 C113 1.446 . S
C112 C135 1.391 . S
C113 C112 1.446 . S
C113 C114 1.339 . S
C113 H142 0.949 . S
C114 C113 1.339 . S
C114 C115 1.439 . S
C114 H143 0.950 . S
C115 N111 1.383 . S
C115 C114 1.439 . S
C115 C133 1.392 . S
N116 Co100 2.282 . S
N116 C119 1.332 . S
N116 C121 1.332 . S
C117 C118 1.386 . S
C117 C120 1.388 . S
C118 C117 1.386 . S
C118 C119 1.382 . S
C118 H144 0.950 . S
C119 N116 1.332 . S
C119 C118 1.382 . S
C119 H130 0.952 . S
C120 C117 1.388 . S
C120 C121 1.382 . S
C120 H145 0.950 1_545 S
C121 N116 1.332 . S
C121 C120 1.382 . S
C121 H131 0.948 1_545 S
N122 Co100 2.282 . S
N122 C126 1.332 . S
N122 C127 1.332 . S
C123 C124 1.388 . S
C123 C127 1.382 . S
C123 H146 0.950 . S
C124 C123 1.388 . S
C124 C125 1.386 . S
C125 C124 1.386 . S
C125 C126 1.382 . S
C125 H147 0.950 1_545 S
C126 N122 1.332 . S
C126 C125 1.382 . S
C126 H128 0.952 . S
C127 N122 1.332 . S
C127 C123 1.382 . S
C127 H129 0.948 . S
H128 C126 0.952 . S
H129 C127 0.948 . S
H130 C119 0.952 . S
H131 C121 0.948 1_565 S
C132 C98 1.395 . S
C132 C102 1.391 . S
C133 C95 1.389 . S
C133 C115 1.392 . S
C134 C105 1.392 . S
C134 C107 1.389 . S
C135 C110 1.395 . S
C135 C112 1.391 . S
H136 C96 0.951 . S
H137 C97 0.950 . S
H138 C103 0.949 . S
H139 C104 0.950 . S
H140 C108 0.951 . S
H141 C109 0.950 . S
H142 C113 0.949 . S
H143 C114 0.950 . S
H144 C118 0.950 . S
H145 C120 0.950 1_565 S
H146 C123 0.950 . S
H147 C125 0.950 1_565 S
C148 C149 1.443 . S
C148 N152 1.376 . S
C148 C186 1.389 . S
C149 C148 1.443 . S
C149 C150 1.340 . S
C149 H189 0.951 . S
C150 C149 1.340 . S
C150 C151 1.439 . S
C150 H190 0.950 . S
C151 C150 1.439 . S
C151 N152 1.374 . S
C151 C185 1.395 . S
N152 C148 1.376 . S
N152 C151 1.374 . S
N152 Co153 2.008 . S
Co153 N152 2.008 . S
Co153 N154 1.995 . S
Co153 N159 2.008 . S
Co153 N164 1.995 . S
Co153 N169 2.282 . S
Co153 N175 2.282 . S
N154 Co153 1.995 . S
N154 C155 1.376 . S
N154 C158 1.383 . S
C155 N154 1.376 . S
C155 C156 1.446 . S
C155 C185 1.391 . S
C156 C155 1.446 . S
C156 C157 1.339 . S
C156 H191 0.949 . S
C157 C156 1.339 . S
C157 C158 1.439 . S
C157 H192 0.950 . S
C158 N154 1.383 . S
C158 C157 1.439 . S
C158 C187 1.392 . S
N159 Co153 2.008 . S
N159 C160 1.376 . S
N159 C163 1.374 . S
C160 N159 1.376 . S
C160 C161 1.443 . S
C160 C187 1.389 . S
C161 C160 1.443 . S
C161 C162 1.340 . S
C161 H193 0.951 . S
C162 C161 1.340 . S
C162 C163 1.439 . S
C162 H194 0.950 . S
C163 N159 1.374 . S
C163 C162 1.439 . S
C163 C188 1.395 . S
N164 Co153 1.995 . S
N164 C165 1.376 . S
N164 C168 1.383 . S
C165 N164 1.376 . S
C165 C166 1.446 . S
C165 C188 1.391 . S
C166 C165 1.446 . S
C166 C167 1.339 . S
C166 H195 0.949 . S
C167 C166 1.339 . S
C167 C168 1.439 . S
C167 H196 0.950 . S
C168 N164 1.383 . S
C168 C167 1.439 . S
C168 C186 1.392 . S
N169 Co153 2.282 . S
N169 C172 1.332 . S
N169 C174 1.332 . S
C170 C171 1.386 . S
C170 C173 1.388 . S
C171 C170 1.386 . S
C171 C172 1.382 . S
C171 H197 0.950 . S
C172 N169 1.332 . S
C172 C171 1.382 . S
C172 H183 0.952 . S
C173 C170 1.388 . S
C173 C174 1.382 . S
C173 H198 0.950 . S
C174 N169 1.332 . S
C174 C173 1.382 . S
C174 H184 0.948 . S
N175 Co153 2.282 . S
N175 C179 1.332 . S
N175 C180 1.332 . S
C176 C177 1.388 . S
C176 C180 1.382 . S
C176 H199 0.950 . S
C177 C176 1.388 . S
C177 C178 1.386 . S
C178 C177 1.386 . S
C178 C179 1.382 . S
C178 H200 0.950 . S
C179 N175 1.332 . S
C179 C178 1.382 . S
C179 H181 0.952 . S
C180 N175 1.332 . S
C180 C176 1.382 . S
C180 H182 0.948 . S
H181 C179 0.952 . S
H182 C180 0.948 . S
H183 C172 0.952 . S
H184 C174 0.948 . S
C185 C151 1.395 . S
C185 C155 1.391 . S
C186 C148 1.389 . S
C186 C168 1.392 . S
C187 C158 1.392 . S
C187 C160 1.389 . S
C188 C163 1.395 . S
C188 C165 1.391 . S
H189 C149 0.951 . S
H190 C150 0.950 . S
H191 C156 0.949 . S
H192 C157 0.950 . S
H193 C161 0.951 . S
H194 C162 0.950 . S
H195 C166 0.949 . S
H196 C167 0.950 . S
H197 C171 0.950 . S
H198 C173 0.950 . S
H199 C176 0.950 . S
H200 C178 0.950 . S
H201 C209 0.950 . S
H202 C214 0.950 1_655 S
H203 C211 0.950 . S
H204 C213 0.950 1_655 S
H205 C215 0.941 1_655 S
H206 C217 0.950 1_655 S
H207 C219 0.950 . S
H208 C220 0.950 . S
C209 H201 0.950 . S
C209 C210 1.386 . S
C209 C211 1.391 . S
C210 C209 1.386 . S
C210 C214 1.393 . S
C211 H203 0.950 . S
C211 C209 1.391 . S
C211 C212 1.400 . S
C212 C211 1.400 . S
C212 C213 1.398 . S
C212 C218 1.491 . S
C213 H204 0.950 1_455 S
C213 C212 1.398 . S
C213 C214 1.391 . S
C214 H202 0.950 1_455 S
C214 C210 1.393 . S
C214 C213 1.391 . S
C215 H205 0.941 1_455 S
C215 C216 1.390 . S
C215 C217 1.395 . S
C216 C215 1.390 . S
C216 C220 1.393 . S
C217 H206 0.950 1_455 S
C217 C215 1.395 . S
C217 C218 1.400 . S
C218 C212 1.491 . S
C218 C217 1.400 . S
C218 C219 1.398 . S
C219 H207 0.950 . S
C219 C218 1.398 . S
C219 C220 1.391 . S
C220 H208 0.950 . S
C220 C216 1.393 . S
C220 C219 1.391 . S
H221 C229 0.950 . S
H222 C234 0.950 . S
H223 C231 0.950 . S
H224 C233 0.950 . S
H225 C235 0.950 . S
H226 C237 0.950 . S
H227 C239 0.950 . S
H228 C240 0.950 . S
C229 H221 0.950 . S
C229 C230 1.386 . S
C229 C231 1.391 . S
C230 C229 1.386 . S
C230 C234 1.393 . S
C231 H223 0.950 . S
C231 C229 1.391 . S
C231 C232 1.400 . S
C232 C231 1.400 . S
C232 C233 1.398 . S
C232 C238 1.491 . S
C233 H224 0.950 . S
C233 C232 1.398 . S
C233 C234 1.391 . S
C234 H222 0.950 . S
C234 C230 1.393 . S
C234 C233 1.391 . S
C235 H225 0.950 . S
C235 C236 1.386 . S
C235 C237 1.391 . S
C236 C235 1.386 . S
C236 C240 1.393 . S
C237 H226 0.950 . S
C237 C235 1.391 . S
C237 C238 1.400 . S
C238 C232 1.491 . S
C238 C237 1.400 . S
C238 C239 1.398 . S
C239 H227 0.950 . S
C239 C238 1.398 . S
C239 C240 1.391 . S
C240 H228 0.950 . S
C240 C236 1.393 . S
C240 C239 1.391 . S
H241 C249 0.950 . S
H242 C254 0.950 . S
H243 C251 0.950 . S
H244 C253 0.950 . S
H245 C255 0.950 . S
H246 C257 0.950 . S
H247 C259 0.950 . S
H248 C260 0.950 . S
C249 H241 0.950 . S
C249 C250 1.386 . S
C249 C251 1.391 . S
C250 C249 1.386 . S
C250 C254 1.393 . S
C251 H243 0.950 . S
C251 C249 1.391 . S
C251 C252 1.400 . S
C252 C251 1.400 . S
C252 C253 1.398 . S
C252 C258 1.491 . S
C253 H244 0.950 . S
C253 C252 1.398 . S
C253 C254 1.391 . S
C254 H242 0.950 . S
C254 C250 1.393 . S
C254 C253 1.391 . S
C255 H245 0.950 . S
C255 C256 1.386 . S
C255 C257 1.391 . S
C256 C255 1.386 . S
C256 C260 1.393 . S
C257 H246 0.950 . S
C257 C255 1.391 . S
C257 C258 1.400 . S
C258 C252 1.491 . S
C258 C257 1.400 . S
C258 C259 1.398 . S
C259 H247 0.950 . S
C259 C258 1.398 . S
C259 C260 1.391 . S
C260 H248 0.950 . S
C260 C256 1.393 . S
C260 C259 1.391 . S
H261 C269 0.950 . S
H262 C274 0.950 . S
H263 C271 0.950 . S
H264 C273 0.950 . S
H265 C275 0.950 . S
H266 C277 0.950 . S
H267 C279 0.950 . S
H268 C280 0.950 . S
C269 H261 0.950 . S
C269 C270 1.386 . S
C269 C271 1.391 . S
C270 C269 1.386 . S
C270 C274 1.393 . S
C271 H263 0.950 . S
C271 C269 1.391 . S
C271 C272 1.400 . S
C272 C271 1.400 . S
C272 C273 1.398 . S
C272 C278 1.491 . S
C273 H264 0.950 . S
C273 C272 1.398 . S
C273 C274 1.391 . S
C274 H262 0.950 . S
C274 C270 1.393 . S
C274 C273 1.391 . S
C275 H265 0.950 . S
C275 C276 1.386 . S
C275 C277 1.391 . S
C276 C275 1.386 . S
C276 C280 1.393 . S
C277 H266 0.950 . S
C277 C275 1.391 . S
C277 C278 1.400 . S
C278 C272 1.491 . S
C278 C277 1.400 . S
C278 C279 1.398 . S
C279 H267 0.950 . S
C279 C278 1.398 . S
C279 C280 1.391 . S
C280 H268 0.950 . S
C280 C276 1.393 . S
C280 C279 1.391 . S
H281 C289 0.950 . S
H282 C294 0.950 . S
H283 C291 0.950 . S
H284 C293 0.950 . S
H285 C295 0.950 . S
H286 C297 0.950 . S
H287 C299 0.950 . S
H288 C300 0.950 . S
C289 H281 0.950 . S
C289 C290 1.386 . S
C289 C291 1.391 . S
C290 C289 1.386 . S
C290 C294 1.393 . S
C291 H283 0.950 . S
C291 C289 1.391 . S
C291 C292 1.400 . S
C292 C291 1.400 . S
C292 C293 1.398 . S
C292 C298 1.491 . S
C293 H284 0.950 . S
C293 C292 1.398 . S
C293 C294 1.391 . S
C294 H282 0.950 . S
C294 C290 1.393 . S
C294 C293 1.391 . S
C295 H285 0.950 . S
C295 C296 1.386 . S
C295 C297 1.391 . S
C296 C295 1.386 . S
C296 C300 1.393 . S
C297 H286 0.950 . S
C297 C295 1.391 . S
C297 C298 1.400 . S
C298 C292 1.491 . S
C298 C297 1.400 . S
C298 C299 1.398 . S
C299 H287 0.950 . S
C299 C298 1.398 . S
C299 C300 1.391 . S
C300 H288 0.950 . S
C300 C296 1.393 . S
C300 C299 1.391 . S
H301 C309 0.950 . S
H302 C314 0.950 . S
H303 C311 0.950 . S
H304 C313 0.950 . S
H305 C315 0.950 . S
H306 C317 0.950 . S
H307 C319 0.950 . S
H308 C320 0.950 . S
C309 H301 0.950 . S
C309 C310 1.386 . S
C309 C311 1.391 . S
C310 C309 1.386 . S
C310 C314 1.393 . S
C311 H303 0.950 . S
C311 C309 1.391 . S
C311 C312 1.400 . S
C312 C311 1.400 . S
C312 C313 1.398 . S
C312 C318 1.491 . S
C313 H304 0.950 . S
C313 C312 1.398 . S
C313 C314 1.391 . S
C314 H302 0.950 . S
C314 C310 1.393 . S
C314 C313 1.391 . S
C315 H305 0.950 . S
C315 C316 1.386 . S
C315 C317 1.391 . S
C316 C315 1.386 . S
C316 C320 1.393 . S
C317 H306 0.950 . S
C317 C315 1.391 . S
C317 C318 1.400 . S
C318 C312 1.491 . S
C318 C317 1.400 . S
C318 C319 1.398 . S
C319 H307 0.950 . S
C319 C318 1.398 . S
C319 C320 1.391 . S
C320 H308 0.950 . S
C320 C316 1.393 . S
C320 C319 1.391 . S
H321 C329 0.950 . S
H322 C334 0.950 1_565 S
H323 C331 0.950 . S
H324 C333 0.950 1_565 S
H325 C335 0.950 1_565 S
H326 C337 0.950 1_565 S
H327 C339 0.950 . S
H328 C340 0.950 . S
C329 H321 0.950 . S
C329 C330 1.386 . S
C329 C331 1.391 . S
C330 C329 1.386 . S
C330 C334 1.393 . S
C331 H323 0.950 . S
C331 C329 1.391 . S
C331 C332 1.400 . S
C332 C331 1.400 . S
C332 C333 1.398 . S
C332 C338 1.491 . S
C333 H324 0.950 1_545 S
C333 C332 1.398 . S
C333 C334 1.391 . S
C334 H322 0.950 1_545 S
C334 C330 1.393 . S
C334 C333 1.391 . S
C335 H325 0.950 1_545 S
C335 C336 1.386 . S
C335 C337 1.391 . S
C336 C335 1.386 . S
C336 C340 1.393 . S
C337 H326 0.950 1_545 S
C337 C335 1.391 . S
C337 C338 1.400 . S
C338 C332 1.491 . S
C338 C337 1.400 . S
C338 C339 1.398 . S
C339 H327 0.950 . S
C339 C338 1.398 . S
C339 C340 1.391 . S
C340 H328 0.950 . S
C340 C336 1.393 . S
C340 C339 1.391 . S
H341 C349 0.950 1_455 S
H342 C354 0.939 1_554 S
H343 C351 0.950 . S
H344 C353 0.950 . S
H345 C355 0.950 . S
H346 C357 0.950 . S
H347 C359 0.950 . S
H348 C360 0.950 . S
C349 H341 0.950 1_655 S
C349 C350 1.386 . S
C349 C351 1.391 . S
C350 C349 1.386 . S
C350 C354 1.394 . S
C351 H343 0.950 . S
C351 C349 1.391 . S
C351 C352 1.400 . S
C352 C351 1.400 . S
C352 C353 1.398 . S
C352 C358 1.491 . S
C353 H344 0.950 . S
C353 C352 1.398 . S
C353 C354 1.400 . S
C354 H342 0.939 1_556 S
C354 C350 1.394 . S
C354 C353 1.400 . S
C355 H345 0.950 . S
C355 C356 1.386 . S
C355 C357 1.391 . S
C356 C355 1.386 . S
C356 C360 1.393 . S
C357 H346 0.950 . S
C357 C355 1.391 . S
C357 C358 1.400 . S
C358 C352 1.491 . S
C358 C357 1.400 . S
C358 C359 1.398 . S
C359 H347 0.950 . S
C359 C358 1.398 . S
C359 C360 1.391 . S
C360 H348 0.950 . S
C360 C356 1.393 . S
C360 C359 1.391 . S
H361 C369 0.961 . S
H362 C374 0.950 . S
H363 C371 0.950 1_655 S
H364 C373 0.950 . S
H365 C375 0.950 . S
H366 C377 0.950 . S
H367 C379 0.950 1_655 S
H368 C380 0.950 1_655 S
C369 H361 0.961 . S
C369 C370 1.386 . S
C369 C371 1.391 . S
C370 C369 1.386 . S
C370 C374 1.393 . S
C371 H363 0.950 1_455 S
C371 C369 1.391 . S
C371 C372 1.400 . S
C372 C371 1.400 . S
C372 C373 1.398 . S
C372 C378 1.491 . S
C373 H364 0.950 . S
C373 C372 1.398 . S
C373 C374 1.391 . S
C374 H362 0.950 . S
C374 C370 1.393 . S
C374 C373 1.391 . S
C375 H365 0.950 . S
C375 C376 1.386 . S
C375 C377 1.391 . S
C376 C375 1.386 . S
C376 C380 1.393 . S
C377 H366 0.950 . S
C377 C375 1.391 . S
C377 C378 1.400 . S
C378 C372 1.491 . S
C378 C377 1.400 . S
C378 C379 1.398 . S
C379 H367 0.950 1_455 S
C379 C378 1.398 . S
C379 C380 1.391 . S
C380 H368 0.950 1_455 S
C380 C376 1.393 . S
C380 C379 1.391 . S
H381 C389 0.950 . S
H382 C394 0.950 1_565 S
H383 C391 0.950 . S
H384 C393 0.950 . S
H385 C395 0.950 . S
H386 C397 0.950 . S
H387 C399 0.950 . S
H388 C400 0.950 . S
C389 H381 0.950 . S
C389 C390 1.386 . S
C389 C391 1.391 . S
C390 C389 1.386 . S
C390 C394 1.393 . S
C391 H383 0.950 . S
C391 C389 1.391 . S
C391 C392 1.400 . S
C392 C391 1.400 . S
C392 C393 1.398 . S
C392 C398 1.491 . S
C393 H384 0.950 . S
C393 C392 1.398 . S
C393 C394 1.391 . S
C394 H382 0.950 1_545 S
C394 C390 1.393 . S
C394 C393 1.391 . S
C395 H385 0.950 . S
C395 C396 1.386 . S
C395 C397 1.391 . S
C396 C395 1.386 . S
C396 C400 1.393 . S
C397 H386 0.950 . S
C397 C395 1.391 . S
C397 C398 1.400 . S
C398 C392 1.491 . S
C398 C397 1.400 . S
C398 C399 1.398 . S
C399 H387 0.950 . S
C399 C398 1.398 . S
C399 C400 1.391 . S
C400 H388 0.950 . S
C400 C396 1.393 . S
C400 C399 1.391 . S
H401 C409 0.950 1_554 S
H402 C414 0.950 . S
H403 C411 0.950 . S
H404 C413 0.950 . S
H405 C415 0.950 . S
H406 C417 0.950 . S
H407 C419 0.950 . S
H408 C420 0.950 . S
C409 H401 0.950 1_556 S
C409 C410 1.386 . S
C409 C411 1.391 . S
C410 C409 1.386 . S
C410 C414 1.393 . S
C411 H403 0.950 . S
C411 C409 1.391 . S
C411 C412 1.400 . S
C412 C411 1.400 . S
C412 C413 1.398 . S
C412 C418 1.491 . S
C413 H404 0.950 . S
C413 C412 1.398 . S
C413 C414 1.391 . S
C414 H402 0.950 . S
C414 C410 1.393 . S
C414 C413 1.391 . S
C415 H405 0.950 . S
C415 C416 1.386 . S
C415 C417 1.391 . S
C416 C415 1.386 . S
C416 C420 1.393 . S
C417 H406 0.950 . S
C417 C415 1.391 . S
C417 C418 1.400 . S
C418 C412 1.491 . S
C418 C417 1.400 . S
C418 C419 1.398 . S
C419 H407 0.950 . S
C419 C418 1.398 . S
C419 C420 1.391 . S
C420 H408 0.950 . S
C420 C416 1.393 . S
C420 C419 1.391 . S
H421 C429 0.950 . S
H422 C434 0.950 1_655 S
H423 C431 0.950 . S
H424 C433 0.941 1_655 S
H425 C435 0.950 . S
H426 C437 0.950 . S
H427 C439 0.950 . S
H428 C440 0.950 . S
C429 H421 0.950 . S
C429 C430 1.386 . S
C429 C431 1.391 . S
C430 C429 1.386 . S
C430 C434 1.393 . S
C431 H423 0.950 . S
C431 C429 1.391 . S
C431 C432 1.400 . S
C432 C431 1.400 . S
C432 C433 1.401 . S
C432 C438 1.491 . S
C433 H424 0.941 1_455 S
C433 C432 1.401 . S
C433 C434 1.398 . S
C434 H422 0.950 1_455 S
C434 C430 1.393 . S
C434 C433 1.398 . S
C435 H425 0.950 . S
C435 C436 1.386 1_655 S
C435 C437 1.391 . S
C436 C435 1.386 1_455 S
C436 C440 1.393 . S
C437 H426 0.950 . S
C437 C435 1.391 . S
C437 C438 1.400 1_655 S
C438 C432 1.491 . S
C438 C437 1.400 1_455 S
C438 C439 1.398 . S
C439 H427 0.950 . S
C439 C438 1.398 . S
C439 C440 1.391 . S
C440 H428 0.950 . S
C440 C436 1.393 . S
C440 C439 1.391 . S
C216 C64 1.498 . S
C210 C3 1.493 . S
C230 C21 1.507 . S
C236 C134 1.527 . S
C250 C37 1.476 . S
C256 C186 1.502 . S
C270 C8 1.502 . S
C276 C80 1.501 . S
C296 C124 1.507 . S
C290 C23 1.495 . S
C310 C35 1.486 . S
C316 C170 1.502 . S
C336 C117 1.484 . S
C330 C31 1.483 . S
C350 C7 1.474 1_566 S
C356 C177 1.502 . S
C376 C71 1.495 . S
C370 C17 1.490 1_565 S
C396 C133 1.474 . S
C390 C36 1.476 . S
C416 C187 1.506 . S
C410 C9 1.493 1_556 S
C430 C22 1.502 . S
C436 C81 1.499 . S
