# Generated by pormake.
# Topology pth, (4,4)-cn, num edge types: 1
# Building blocks:
#     Node 0, Type 0, BuildingBlock: TATPOV_clean_sbu_0, # of connection points: 4
#     Node 1, Type 0, BuildingBlock: TATPOV_clean_sbu_0, # of connection points: 4
#     Node 2, Type 0, BuildingBlock: TATPOV_clean_sbu_0, # of connection points: 4
#     Node 3, Type 1, BuildingBlock: KOZSID_clean_sbu_0, # of connection points: 4
#     Node 4, Type 1, BuildingBlock: KOZSID_clean_sbu_0, # of connection points: 4
#     Node 5, Type 1, BuildingBlock: KOZSID_clean_sbu_0, # of connection points: 4
#     Edge 6, Type (0, 1), BuildingBlock: XUDNAN_clean_linker_2, # of connection points: 2
#     Edge 7, Type (0, 1), BuildingBlock: XUDNAN_clean_linker_2, # of connection points: 2
#     Edge 8, Type (0, 1), BuildingBlock: XUDNAN_clean_linker_2, # of connection points: 2
#     Edge 9, Type (0, 1), BuildingBlock: XUDNAN_clean_linker_2, # of connection points: 2
#     Edge 10, Type (0, 1), BuildingBlock: XUDNAN_clean_linker_2, # of connection points: 2
#     Edge 11, Type (0, 1), BuildingBlock: XUDNAN_clean_linker_2, # of connection points: 2
#     Edge 12, Type (0, 1), BuildingBlock: XUDNAN_clean_linker_2, # of connection points: 2
#     Edge 13, Type (0, 1), BuildingBlock: XUDNAN_clean_linker_2, # of connection points: 2
#     Edge 14, Type (0, 1), BuildingBlock: XUDNAN_clean_linker_2, # of connection points: 2
#     Edge 15, Type (0, 1), BuildingBlock: XUDNAN_clean_linker_2, # of connection points: 2
#     Edge 16, Type (0, 1), BuildingBlock: XUDNAN_clean_linker_2, # of connection points: 2
#     Edge 17, Type (0, 1), BuildingBlock: XUDNAN_clean_linker_2, # of connection points: 2
# Relax obj value: 0.036
# Max RMSD: 0.165
# Mean RMSD: 0.080
data_MOF--net-pth--node1-TATPOV_clean_sbu_0--node2-KOZSID_clean_sbu_0--edge1-XUDNAN_clean_linker_2
_symmetry_space_group_name_H-M    P1
_symmetry_Int_Tables_number       1
_symmetry_cell_setting            triclinic
loop_
_symmetry_equiv_pos_as_xyz
'x, y, z'
_cell_length_a     26.836726
_cell_length_b     26.552141
_cell_length_c     59.063704
_cell_angle_alpha  89.805154
_cell_angle_beta   89.600243
_cell_angle_gamma 121.14524
loop_
_atom_site_label
_atom_site_type_symbol
_atom_site_fract_x
_atom_site_fract_y
_atom_site_fract_z
_atom_type_partial_charge
Zn0 Zn 0.14464 0.02265 0.01486 0.0
Zn1 Zn 0.12364 0.09322 0.03695 0.0
O2 O 0.12674 0.03837 0.06173 0.0
O3 O 0.14474 0.97906 0.04225 0.0
O4 O 0.11011 0.14934 0.05525 0.0
O5 O 0.2176 0.0869 0.0012 0.0
O6 O 0.19794 0.14909 0.01745 0.0
C7 C 0.13446 0.99478 0.06102 0.0
C8 C 0.0365 0.01078 0.0022 0.0
O9 O 0.04935 0.04905 0.01758 0.0
O10 O 0.07095 0.99302 0.99755 0.0
C11 C 0.06385 0.12762 0.06719 0.0
O12 O 0.02762 0.07038 0.06705 0.0
C13 C 0.22956 0.13911 0.00416 0.0
Zn14 Zn 0.15735 0.16044 0.33979 0.0
Zn15 Zn 0.08086 0.12534 0.37364 0.0
O16 O 0.15904 0.14903 0.3892 0.0
O17 O 0.22349 0.19217 0.36165 0.0
O18 O 0.02288 0.10858 0.39896 0.0
O19 O 0.1308 0.21228 0.3265 0.0
O20 O 0.07516 0.19039 0.3568 0.0
C21 C 0.21181 0.17695 0.38224 0.0
C22 C 0.07196 0.03581 0.33962 0.0
O23 O 0.04829 0.04783 0.35584 0.0
O24 O 0.11941 0.07541 0.33078 0.0
C25 C 0.0338 0.11517 0.42002 0.0
O26 O 0.08574 0.12928 0.42706 0.0
C27 C 0.09507 0.21887 0.33828 0.0
Zn28 Zn 0.11994 0.96445 0.72037 0.0
Zn29 Zn 0.08681 0.01709 0.69083 0.0
O30 O 0.12856 0.98671 0.6701 0.0
O31 O 0.15305 0.94107 0.69479 0.0
O32 O 0.04689 0.04669 0.67068 0.0
O33 O 0.03941 0.90936 0.73285 0.0
O34 O 0.0162 0.96122 0.71103 0.0
C35 C 0.15331 0.95779 0.67466 0.0
C36 C 0.17626 0.09201 0.72562 0.0
O37 O 0.14677 0.0889 0.7083 0.0
O38 O 0.17109 0.0456 0.73415 0.0
C39 C 0.01454 0.01761 0.65422 0.0
O40 O 0.01317 0.96977 0.64755 0.0
C41 C 0.00227 0.92144 0.72601 0.0
C42 C 0.11416 0.68141 0.17462 0.0
C43 C 0.17009 0.72285 0.16734 0.0
C44 C 0.20674 0.70769 0.17717 0.0
C45 C 0.17131 0.65824 0.18992 0.0
N46 N 0.11478 0.64141 0.1886 0.0
Co47 Co 0.04892 0.57432 0.20478 0.0
N48 N 0.10172 0.57216 0.22751 0.0
C49 C 0.16003 0.5984 0.22549 0.0
C50 C 0.18527 0.59032 0.24416 0.0
C51 C 0.13998 0.55607 0.25865 0.0
C52 C 0.08926 0.5446 0.24788 0.0
N53 N 0.98268 0.50635 0.22063 0.0
C54 C 0.98025 0.48238 0.24119 0.0
C55 C 0.92549 0.43308 0.24515 0.0
C56 C 0.89308 0.42559 0.22624 0.0
C57 C 0.92959 0.47049 0.21179 0.0
N58 N 0.99675 0.57767 0.18212 0.0
C59 C 0.9425 0.53436 0.17714 0.0
C60 C 0.917 0.55112 0.16104 0.0
C61 C 0.95792 0.60857 0.1557 0.0
C62 C 0.00604 0.62352 0.16893 0.0
N63 N 0.05805 0.51929 0.18571 0.0
C64 C 0.0539 0.43075 0.1588 0.0
C65 C 0.06163 0.48235 0.14887 0.0
C66 C 0.06345 0.52618 0.16267 0.0
C67 C 0.05206 0.42612 0.18239 0.0
C68 C 0.05465 0.47084 0.19547 0.0
N69 N 0.03895 0.62848 0.22384 0.0
C70 C 0.97548 0.65431 0.24261 0.0
C71 C 0.02335 0.7056 0.25122 0.0
C72 C 0.07938 0.71719 0.24564 0.0
C73 C 0.08615 0.6778 0.23226 0.0
C74 C 0.98421 0.61706 0.22876 0.0
H75 H 0.12966 0.68749 0.2286 0.0
H76 H 0.94641 0.57881 0.22208 0.0
H77 H 0.06707 0.56459 0.15469 0.0
H78 H 0.05146 0.46483 0.21351 0.0
C79 C 0.19 0.63589 0.20718 0.0
C80 C 0.06107 0.6801 0.16792 0.0
C81 C 0.03062 0.49943 0.25577 0.0
C82 C 0.9137 0.48445 0.19117 0.0
H83 H 0.1833 0.7607 0.15649 0.0
H84 H 0.25384 0.73222 0.17636 0.0
H85 H 0.23114 0.60786 0.24704 0.0
H86 H 0.14362 0.53938 0.27492 0.0
H87 H 0.91105 0.40446 0.25989 0.0
H88 H 0.84809 0.39185 0.2235 0.0
H89 H 0.87292 0.52582 0.15482 0.0
H90 H 0.95291 0.63635 0.14362 0.0
H91 H 0.06346 0.48752 0.13063 0.0
H92 H 0.04708 0.3873 0.19072 0.0
H93 H 0.93125 0.64228 0.24661 0.0
H94 H 0.11809 0.75669 0.25128 0.0
C95 C 0.4673 0.99205 0.55363 0.0
C96 C 0.4218 0.93375 0.55318 0.0
C97 C 0.43588 0.90626 0.53716 0.0
C98 C 0.4887 0.94909 0.52867 0.0
N99 N 0.50911 0.00251 0.53812 0.0
Co100 Co 0.58386 0.07691 0.53035 0.0
N101 N 0.60428 0.03599 0.50691 0.0
C102 C 0.5698 0.98045 0.49943 0.0
C103 C 0.59607 0.96393 0.48362 0.0
C104 C 0.65097 0.01145 0.48109 0.0
C105 C 0.65496 0.05457 0.49554 0.0
N106 N 0.66063 0.1503 0.52359 0.0
C107 C 0.70716 0.15699 0.51171 0.0
C108 C 0.75439 0.21407 0.51295 0.0
C109 C 0.73756 0.24429 0.52654 0.0
C110 C 0.6813 0.20399 0.53283 0.0
N111 N 0.562 0.11862 0.55297 0.0
C112 C 0.59167 0.17706 0.55721 0.0
C113 C 0.56561 0.19326 0.57325 0.0
C114 C 0.51611 0.14228 0.57952 0.0
C115 C 0.51459 0.09762 0.56679 0.0
N116 N 0.62386 0.05785 0.55386 0.0
C117 C 0.69626 0.04168 0.58357 0.0
C118 C 0.69171 0.0917 0.58473 0.0
C119 C 0.65528 0.09849 0.57008 0.0
C120 C 0.66178 0.99846 0.56776 0.0
C121 C 0.62565 0.00719 0.55323 0.0
N122 N 0.54412 0.0971 0.50666 0.0
C123 C 0.53344 0.17087 0.48684 0.0
C124 C 0.48325 0.12785 0.47618 0.0
C125 C 0.46458 0.06892 0.48059 0.0
C126 C 0.49569 0.05463 0.49562 0.0
C127 C 0.56292 0.15478 0.50171 0.0
H128 H 0.47931 0.00892 0.49803 0.0
H129 H 0.60039 0.19036 0.50911 0.0
H130 H 0.65489 0.13819 0.57171 0.0
H131 H 0.60045 0.97324 0.54127 0.0
C132 C 0.51759 0.94186 0.51046 0.0
C133 C 0.46799 0.03587 0.56874 0.0
C134 C 0.70887 0.11028 0.49948 0.0
C135 C 0.647 0.21437 0.54779 0.0
H136 H 0.38193 0.91325 0.56309 0.0
H137 H 0.40998 0.86084 0.53191 0.0
H138 H 0.57873 0.9211 0.47598 0.0
H139 H 0.68476 0.01277 0.47058 0.0
H140 H 0.79687 0.23163 0.50512 0.0
H141 H 0.76368 0.28976 0.53169 0.0
H142 H 0.58159 0.2367 0.5801 0.0
H143 H 0.4852 0.13851 0.59226 0.0
H144 H 0.71781 0.12699 0.59635 0.0
H145 H 0.66288 0.95837 0.56649 0.0
H146 H 0.54956 0.21722 0.48413 0.0
H147 H 0.42642 0.03392 0.47237 0.0
C148 C 0.69564 0.641 0.83708 0.0
C149 C 0.74579 0.64087 0.83108 0.0
C150 C 0.73994 0.59036 0.83978 0.0
C151 C 0.68755 0.56314 0.85105 0.0
N152 N 0.66007 0.59361 0.8502 0.0
Co153 Co 0.58681 0.57369 0.86653 0.0
N154 N 0.59193 0.5159 0.88646 0.0
C155 C 0.62788 0.49504 0.88359 0.0
C156 C 0.62498 0.45925 0.90097 0.0
C157 C 0.58373 0.45623 0.91551 0.0
C158 C 0.56306 0.48979 0.90596 0.0
N159 N 0.5133 0.55349 0.88291 0.0
C160 C 0.48819 0.52003 0.90178 0.0
C161 C 0.435 0.51496 0.90653 0.0
C162 C 0.42602 0.54531 0.8899 0.0
C163 C 0.47394 0.56713 0.87596 0.0
N164 N 0.58203 0.63167 0.84661 0.0
C165 C 0.53439 0.63529 0.84334 0.0
C166 C 0.54324 0.67815 0.82801 0.0
C167 C 0.60001 0.703 0.82109 0.0
C168 C 0.62278 0.67398 0.83275 0.0
N169 N 0.54186 0.51205 0.84448 0.0
C170 C 0.46916 0.42908 0.81264 0.0
C171 C 0.51759 0.4827 0.80567 0.0
C172 C 0.55348 0.52336 0.82183 0.0
C173 C 0.45948 0.41683 0.83587 0.0
C174 C 0.49633 0.45875 0.85144 0.0
N175 N 0.63178 0.63588 0.88832 0.0
C176 C 0.65029 0.72319 0.90797 0.0
C177 C 0.70264 0.73108 0.91618 0.0
C178 C 0.71732 0.68891 0.91099 0.0
C179 C 0.68149 0.6419 0.8971 0.0
C180 C 0.61548 0.67526 0.89404 0.0
H181 H 0.69497 0.61125 0.89308 0.0
H182 H 0.57618 0.67101 0.88745 0.0
H183 H 0.58975 0.56461 0.8159 0.0
H184 H 0.48674 0.44864 0.86908 0.0
C185 C 0.66973 0.51687 0.86639 0.0
C186 C 0.68139 0.68431 0.82873 0.0
C187 C 0.50841 0.48494 0.91338 0.0
C188 C 0.48518 0.60354 0.85712 0.0
H189 H 0.78322 0.67386 0.82159 0.0
H190 H 0.77181 0.57701 0.83914 0.0
H191 H 0.65055 0.4387 0.90303 0.0
H192 H 0.56829 0.42983 0.93084 0.0
H193 H 0.40472 0.4901 0.92008 0.0
H194 H 0.38885 0.55058 0.88815 0.0
H195 H 0.51258 0.69085 0.8229 0.0
H196 H 0.6218 0.73794 0.80865 0.0
H197 H 0.52739 0.4935 0.78787 0.0
H198 H 0.42243 0.37607 0.84207 0.0
H199 H 0.63732 0.75478 0.91163 0.0
H200 H 0.75676 0.69254 0.91742 0.0
H201 H 0.12878 0.24852 0.07146 0.0
H202 H 0.96976 0.0927 0.09499 0.0
H203 H 0.94825 0.15445 0.11926 0.0
H204 H 0.16753 0.32259 0.1244 0.0
H205 H 0.19518 0.39494 0.11244 0.0
H206 H 0.19727 0.33902 0.09603 0.0
H207 H 0.1399 0.3532 0.06408 0.0
H208 H 0.13753 0.40914 0.08042 0.0
H209 H 0.07092 0.34642 0.07057 0.0
H210 H 0.94581 0.23105 0.14231 0.0
H211 H 0.96243 0.31915 0.16283 0.0
H212 H 0.12166 0.42695 0.12426 0.0
C213 C 0.08924 0.22744 0.08161 0.0
C214 C 0.05092 0.16564 0.08129 0.0
C215 C 0.99978 0.13984 0.09489 0.0
C216 C 0.98708 0.17457 0.10873 0.0
C217 C 0.02576 0.23515 0.10873 0.0
C218 C 0.07573 0.26156 0.09551 0.0
C219 C 0.11057 0.32761 0.09919 0.0
C220 C 0.17122 0.34717 0.10858 0.0
C221 C 0.11497 0.36106 0.07726 0.0
C222 C 0.07268 0.33395 0.11676 0.0
C223 C 0.02395 0.27993 0.12193 0.0
C224 C 0.98353 0.27367 0.1383 0.0
C225 C 0.9934 0.32384 0.14989 0.0
C226 C 0.04316 0.37962 0.14505 0.0
C227 C 0.08291 0.38487 0.12804 0.0
H228 H 0.93438 0.11533 0.40998 0.0
H229 H 0.03551 0.11243 0.46646 0.0
H230 H 0.96545 0.11501 0.49318 0.0
H231 H 0.89865 0.21609 0.43447 0.0
H232 H 0.82642 0.18011 0.42284 0.0
H233 H 0.88363 0.17653 0.40822 0.0
H234 H 0.82116 0.06251 0.40877 0.0
H235 H 0.76357 0.0658 0.42318 0.0
H236 H 0.79281 0.02427 0.43537 0.0
H237 H 0.88257 0.116 0.51373 0.0
H238 H 0.79296 0.11397 0.52615 0.0
H239 H 0.75014 0.12178 0.45619 0.0
C240 C 0.94165 0.11473 0.42796 0.0
C241 C 0.9903 0.11332 0.43614 0.0
C242 C 0.99849 0.11335 0.45981 0.0
C243 C 0.959 0.11495 0.47511 0.0
C244 C 0.91191 0.11707 0.46645 0.0
C245 C 0.90315 0.11699 0.44342 0.0
C246 C 0.84952 0.12001 0.43839 0.0
C247 C 0.86554 0.17656 0.4252 0.0
C248 C 0.80409 0.06486 0.42568 0.0
C249 C 0.82911 0.12135 0.46219 0.0
C250 C 0.86554 0.1195 0.47819 0.0
C251 C 0.85404 0.1179 0.50134 0.0
C252 C 0.80341 0.11701 0.50826 0.0
C253 C 0.7653 0.11784 0.49206 0.0
C254 C 0.77903 0.1214 0.46882 0.0
H255 H 0.91673 0.80563 0.73021 0.0
H256 H 0.96452 0.98187 0.74996 0.0
H257 H 0.87965 0.94081 0.77609 0.0
H258 H 0.75434 0.74443 0.73297 0.0
H259 H 0.74027 0.67405 0.74306 0.0
H260 H 0.8011 0.7178 0.72427 0.0
H261 H 0.87053 0.71322 0.75339 0.0
H262 H 0.81016 0.67009 0.77231 0.0
H263 H 0.87198 0.7379 0.78193 0.0
H264 H 0.80254 0.87988 0.80533 0.0
H265 H 0.72999 0.80344 0.83155 0.0
H266 H 0.72119 0.66765 0.78831 0.0
C267 C 0.90803 0.83533 0.73957 0.0
C268 C 0.94646 0.89666 0.73816 0.0
C269 C 0.93477 0.93467 0.75074 0.0
C270 C 0.88688 0.91178 0.76562 0.0
C271 C 0.85026 0.85089 0.76708 0.0
C272 C 0.85919 0.81322 0.75387 0.0
C273 C 0.81434 0.74955 0.75914 0.0
C274 C 0.77518 0.71971 0.73864 0.0
C275 C 0.84352 0.71575 0.76717 0.0
C276 C 0.78092 0.75727 0.77819 0.0
C277 C 0.8025 0.81601 0.78268 0.0
C278 C 0.78399 0.83374 0.80156 0.0
C279 C 0.74303 0.79025 0.81637 0.0
C280 C 0.72068 0.73001 0.81199 0.0
C281 C 0.73804 0.71354 0.79211 0.0
H282 H 0.14758 0.89981 0.06374 0.0
H283 H 0.09986 0.00518 0.10406 0.0
H284 H 0.07501 0.93566 0.13625 0.0
H285 H 0.03357 0.76175 0.08231 0.0
H286 H 0.07665 0.72753 0.08219 0.0
H287 H 0.09478 0.78783 0.06314 0.0
H288 H 0.1996 0.84569 0.079 0.0
H289 H 0.18205 0.78517 0.09788 0.0
H290 H 0.20996 0.85793 0.10906 0.0
H291 H 0.05178 0.85078 0.16361 0.0
H292 H 0.03672 0.76144 0.18378 0.0
H293 H 0.0963 0.71217 0.1243 0.0
C294 C 0.13268 0.90903 0.0794 0.0
C295 C 0.12588 0.95819 0.08138 0.0
C296 C 0.10584 0.96807 0.10219 0.0
C297 C 0.09138 0.92867 0.12051 0.0
C298 C 0.09721 0.87975 0.11769 0.0
C299 C 0.11782 0.87023 0.09765 0.0
C300 C 0.11874 0.81381 0.09845 0.0
C301 C 0.07853 0.77017 0.08045 0.0
C302 C 0.18131 0.82643 0.09595 0.0
C303 C 0.09498 0.7925 0.12204 0.0
C304 C 0.08296 0.83107 0.13301 0.0
C305 C 0.06112 0.82044 0.15515 0.0
C306 C 0.05243 0.76971 0.16642 0.0
C307 C 0.06542 0.73061 0.15543 0.0
C308 C 0.08602 0.74168 0.13291 0.0
H309 H 0.20524 0.11293 0.42001 0.0
H310 H 0.3267 0.25983 0.3774 0.0
H311 H 0.40893 0.26533 0.39796 0.0
H312 H 0.29262 0.16329 0.47278 0.0
H313 H 0.27236 0.08947 0.4808 0.0
H314 H 0.22286 0.10192 0.46469 0.0
H315 H 0.21806 0.02967 0.43421 0.0
H316 H 0.26832 0.01782 0.44997 0.0
H317 H 0.28446 0.04265 0.42094 0.0
H318 H 0.47758 0.24898 0.42006 0.0
H319 H 0.52951 0.2158 0.44436 0.0
H320 H 0.36455 0.07903 0.47294 0.0
C321 C 0.2491 0.14738 0.41551 0.0
C322 C 0.25966 0.18628 0.39722 0.0
C323 C 0.31768 0.22976 0.3914 0.0
C324 C 0.36467 0.23321 0.40297 0.0
C325 C 0.35293 0.19284 0.42031 0.0
C326 C 0.29669 0.15112 0.42678 0.0
C327 C 0.29647 0.11067 0.44504 0.0
C328 C 0.26949 0.11672 0.46714 0.0
C329 C 0.26496 0.04641 0.43705 0.0
C330 C 0.3613 0.13551 0.44743 0.0
C331 C 0.39295 0.18309 0.43308 0.0
C332 C 0.45339 0.21238 0.43164 0.0
C333 C 0.48248 0.19321 0.44553 0.0
C334 C 0.45118 0.14515 0.4607 0.0
C335 C 0.38968 0.11571 0.46146 0.0
H336 H 0.24352 0.11328 0.76312 0.0
H337 H 0.20409 0.20156 0.71041 0.0
H338 H 0.27657 0.29784 0.7264 0.0
H339 H 0.26221 0.21217 0.80796 0.0
H340 H 0.32089 0.2083 0.8208 0.0
H341 H 0.26604 0.14667 0.8051 0.0
H342 H 0.34629 0.14925 0.77954 0.0
H343 H 0.40137 0.21107 0.7951 0.0
H344 H 0.39705 0.2164 0.76483 0.0
H345 H 0.35398 0.38447 0.74816 0.0
H346 H 0.42734 0.45461 0.77487 0.0
H347 H 0.41609 0.30876 0.81286 0.0
C348 C 0.24991 0.15276 0.75491 0.0
C349 C 0.2181 0.14983 0.73548 0.0
C350 C 0.22788 0.20267 0.72532 0.0
C351 C 0.26904 0.25755 0.73425 0.0
C352 C 0.29993 0.25875 0.75331 0.0
C353 C 0.29064 0.20771 0.76357 0.0
C354 C 0.3291 0.22085 0.78399 0.0
C355 C 0.29235 0.1955 0.80575 0.0
C356 C 0.37093 0.19804 0.78065 0.0
C357 C 0.36144 0.28733 0.78368 0.0
C358 C 0.34423 0.30842 0.76582 0.0
C359 C 0.36792 0.36846 0.76216 0.0
C360 C 0.40985 0.40794 0.77732 0.0
C361 C 0.42753 0.38716 0.79592 0.0
C362 C 0.40313 0.326 0.79893 0.0
H363 H 0.95472 0.98499 0.61394 0.0
H364 H 0.97282 0.07786 0.6766 0.0
H365 H 0.89056 0.08909 0.66592 0.0
H366 H 0.91934 0.07731 0.57933 0.0
H367 H 0.86892 0.01701 0.56186 0.0
H368 H 0.92959 0.01628 0.57436 0.0
H369 H 0.85822 0.91495 0.59279 0.0
H370 H 0.79727 0.91585 0.58066 0.0
H371 H 0.80005 0.90707 0.61082 0.0
H372 H 0.80214 0.08325 0.65036 0.0
H373 H 0.72257 0.07663 0.62768 0.0
H374 H 0.7659 0.99601 0.57312 0.0
C375 C 0.94168 0.00823 0.62526 0.0
C376 C 0.97013 0.03043 0.64614 0.0
C377 C 0.95202 0.06081 0.66047 0.0
C378 C 0.90499 0.067 0.65465 0.0
C379 C 0.87707 0.0435 0.63425 0.0
C380 C 0.89544 0.01601 0.61947 0.0
C381 C 0.85883 0.99687 0.5982 0.0
C382 C 0.89641 0.02878 0.57719 0.0
C383 C 0.82669 0.92969 0.59547 0.0
C384 C 0.81664 0.01724 0.60355 0.0
C385 C 0.82762 0.04322 0.62458 0.0
C386 C 0.7938 0.06409 0.63365 0.0
C387 C 0.74877 0.06029 0.62055 0.0
C388 C 0.73849 0.03693 0.59835 0.0
C389 C 0.77229 0.01394 0.59 0.0
H390 H 0.01442 0.96143 0.96074 0.0
H391 H 0.93294 0.99899 0.01648 0.0
H392 H 0.83698 0.94 0.99793 0.0
H393 H 0.91774 0.9596 0.91517 0.0
H394 H 0.9193 0.90058 0.90085 0.0
H395 H 0.98147 0.95348 0.91678 0.0
H396 H 0.97731 0.8685 0.94015 0.0
H397 H 0.91494 0.81552 0.92454 0.0
H398 H 0.91097 0.81728 0.95498 0.0
H399 H 0.74843 0.86408 0.97565 0.0
H400 H 0.67753 0.78208 0.95157 0.0
H401 H 0.81993 0.79827 0.91065 0.0
C402 C 0.97662 0.95849 0.96881 0.0
C403 C 0.98085 0.98455 0.99002 0.0
C404 C 0.93052 0.97966 0.0001 0.0
C405 C 0.87595 0.94622 0.9897 0.0
C406 C 0.87305 0.91918 0.9691 0.0
C407 C 0.92244 0.92593 0.95864 0.0
C408 C 0.908 0.88895 0.93762 0.0
C409 C 0.93311 0.928 0.91635 0.0
C410 C 0.92903 0.84498 0.93946 0.0
C411 C 0.84248 0.85804 0.93834 0.0
C412 C 0.8228 0.87638 0.95637 0.0
C413 C 0.76346 0.85028 0.96124 0.0
C414 C 0.72353 0.80383 0.9475 0.0
C415 C 0.74339 0.78375 0.92936 0.0
C416 C 0.80351 0.81237 0.92452 0.0
H417 H 0.12314 0.97147 0.33639 0.0
H418 H 0.96357 0.96799 0.3217 0.0
H419 H 0.92885 0.87663 0.29953 0.0
H420 H 0.14518 0.9294 0.28483 0.0
H421 H 0.17152 0.88317 0.29476 0.0
H422 H 0.18002 0.94278 0.31197 0.0
H423 H 0.12553 0.87067 0.3453 0.0
H424 H 0.11784 0.81078 0.32834 0.0
H425 H 0.05439 0.80689 0.34077 0.0
H426 H 0.92118 0.79737 0.27353 0.0
H427 H 0.93399 0.72877 0.24991 0.0
H428 H 0.09423 0.77769 0.28529 0.0
C429 C 0.08006 0.95017 0.32911 0.0
C430 C 0.04557 0.97588 0.33077 0.0
C431 C 0.98992 0.94797 0.32082 0.0
C432 C 0.97015 0.89642 0.30815 0.0
C433 C 0.00616 0.87306 0.30618 0.0
C434 C 0.05927 0.8982 0.31694 0.0
C435 C 0.09095 0.86631 0.31142 0.0
C436 C 0.1504 0.90791 0.30007 0.0
C437 C 0.09754 0.8369 0.33272 0.0
C438 C 0.04879 0.82104 0.29498 0.0
C439 C 1.00016 0.82553 0.29216 0.0
C440 C 0.95811 0.79211 0.27617 0.0
C441 C 0.96577 0.75288 0.26286 0.0
C442 C 0.01486 0.74665 0.26574 0.0
C443 C 0.05635 0.78108 0.28232 0.0
H444 H 0.19491 0.01579 0.63363 0.0
H445 H 0.19827 0.88677 0.67798 0.0
H446 H 0.27715 0.89134 0.65497 0.0
H447 H 0.22957 0.96278 0.58019 0.0
H448 H 0.27359 0.03657 0.56911 0.0
H449 H 0.21244 0.01807 0.58747 0.0
H450 H 0.28085 0.10306 0.61406 0.0
H451 H 0.34241 0.12094 0.5961 0.0
H452 H 0.34362 0.10466 0.62567 0.0
H453 H 0.36482 0.9206 0.63135 0.0
H454 H 0.44683 0.96114 0.60391 0.0
H455 H 0.38442 0.06617 0.57285 0.0
C456 C 0.21085 0.98702 0.63802 0.0
C457 C 0.19036 0.95101 0.65768 0.0
C458 C 0.21321 0.91481 0.66307 0.0
C459 C 0.25822 0.91717 0.65013 0.0
C460 C 0.2795 0.95527 0.6316 0.0
C461 C 0.25575 0.98846 0.62512 0.0
C462 C 0.28849 0.02734 0.60488 0.0
C463 C 0.24864 0.01014 0.58418 0.0
C464 C 0.31542 0.09287 0.61053 0.0
C465 C 0.33518 0.01197 0.60152 0.0
C466 C 0.32926 0.97054 0.61725 0.0
C467 C 0.36923 0.9521 0.61862 0.0
C468 C 0.41578 0.97556 0.60313 0.0
C469 C 0.4215 0.01635 0.58633 0.0
C470 C 0.38081 0.03495 0.58558 0.0
H471 H 0.28547 0.26113 0.00842 0.0
H472 H 0.27538 0.12258 0.96601 0.0
H473 H 0.34215 0.19617 0.93859 0.0
H474 H 0.294 0.35699 0.96373 0.0
H475 H 0.34752 0.42436 0.97704 0.0
H476 H 0.29835 0.36141 0.99418 0.0
H477 H 0.38573 0.36506 0.01418 0.0
H478 H 0.43513 0.42848 0.9973 0.0
H479 H 0.44167 0.36424 0.99739 0.0
H480 H 0.40171 0.28049 0.91421 0.0
H481 H 0.46725 0.37615 0.89623 0.0
H482 H 0.45012 0.4652 0.95461 0.0
C483 C 0.29787 0.24654 0.99346 0.0
C484 C 0.27485 0.18588 0.98941 0.0
C485 C 0.29235 0.16857 0.96966 0.0
C486 C 0.33008 0.21005 0.95382 0.0
C487 C 0.35104 0.26903 0.95803 0.0
C488 C 0.33697 0.28783 0.9775 0.0
C489 C 0.36819 0.3547 0.97781 0.0
C490 C 0.32438 0.37558 0.97821 0.0
C491 C 0.41018 0.37959 0.99787 0.0
C492 C 0.40109 0.36986 0.95535 0.0
C493 C 0.38941 0.31931 0.94421 0.0
C494 C 0.41207 0.32057 0.92286 0.0
C495 C 0.44906 0.37516 0.91275 0.0
C496 C 0.46426 0.42801 0.92414 0.0
C497 C 0.43941 0.42538 0.94565 0.0
H498 H 0.10498 0.26145 0.29543 0.0
H499 H 0.04119 0.2659 0.36266 0.0
H500 H 0.01161 0.33466 0.34867 0.0
H501 H 0.16399 0.41086 0.28139 0.0
H502 H 0.14274 0.39712 0.25213 0.0
H503 H 0.15647 0.34696 0.26748 0.0
H504 H 0.05332 0.26065 0.25744 0.0
H505 H 0.03929 0.31076 0.24212 0.0
H506 H 0.99053 0.26555 0.26455 0.0
H507 H 0.99552 0.40925 0.32725 0.0
H508 H 0.99252 0.47967 0.30012 0.0
H509 H 0.06244 0.42012 0.24741 0.0
C510 C 0.08466 0.27669 0.30725 0.0
C511 C 0.07573 0.2587 0.33016 0.0
C512 C 0.04846 0.27922 0.34501 0.0
C513 C 0.0315 0.3182 0.33722 0.0
C514 C 0.04133 0.33535 0.31449 0.0
C515 C 0.06685 0.31471 0.29972 0.0
C516 C 0.07351 0.33997 0.2762 0.0
C517 C 0.138 0.37586 0.26889 0.0
C518 C 0.03697 0.29132 0.25907 0.0
C519 C 0.04898 0.37913 0.28007 0.0
C520 C 0.03048 0.37612 0.3022 0.0
C521 C 0.00921 0.41134 0.30982 0.0
C522 C 0.00758 0.45104 0.29442 0.0
C523 C 0.02703 0.45466 0.27186 0.0
C524 C 0.04686 0.41755 0.26458 0.0
loop_
_geom_bond_atom_site_label_1
_geom_bond_atom_site_label_2
_geom_bond_distance
_geom_bond_site_symmetry_2
_ccdc_geom_bond_type
Zn0 O3 2.031 1_545 S
Zn0 O5 2.049 1_554 S
Zn0 O10 2.067 1_554 S
Zn1 O2 1.962 . S
Zn1 O4 1.986 . S
Zn1 O6 1.996 . S
Zn1 O9 1.943 . S
O2 Zn1 1.962 . S
O2 C7 1.254 . S
O3 Zn0 2.031 1_565 S
O3 C7 1.269 1_565 S
O4 Zn1 1.986 . S
O4 C11 1.262 . S
O5 Zn0 2.049 1_556 S
O5 C13 1.260 1_556 S
O6 Zn1 1.996 . S
O6 C13 1.257 . S
C7 O2 1.254 . S
C7 O3 1.269 1_545 S
C8 O9 1.249 . S
C8 O10 1.270 1_554 S
O9 Zn1 1.943 . S
O9 C8 1.249 . S
O10 Zn0 2.067 1_556 S
O10 C8 1.270 1_556 S
C11 O4 1.262 . S
C11 O12 1.232 . S
O12 C11 1.232 . S
C13 O5 1.260 1_554 S
C13 O6 1.257 . S
Zn14 O17 2.031 . S
Zn14 O19 2.049 . S
Zn14 O24 2.067 . S
Zn15 O16 1.962 . S
Zn15 O18 1.986 1_455 S
Zn15 O20 1.996 . S
Zn15 O23 1.943 . S
O16 Zn15 1.962 . S
O16 C21 1.254 . S
O17 Zn14 2.031 . S
O17 C21 1.269 . S
O18 Zn15 1.986 1_655 S
O18 C25 1.262 . S
O19 Zn14 2.049 . S
O19 C27 1.260 . S
O20 Zn15 1.996 . S
O20 C27 1.257 . S
C21 O16 1.254 . S
C21 O17 1.269 . S
C22 O23 1.249 . S
C22 O24 1.270 . S
O23 Zn15 1.943 . S
O23 C22 1.249 . S
O24 Zn14 2.067 . S
O24 C22 1.270 . S
C25 O18 1.262 . S
C25 O26 1.232 . S
O26 C25 1.232 . S
C27 O19 1.260 . S
C27 O20 1.257 . S
Zn28 O31 2.031 1_565 S
Zn28 O33 2.049 . S
Zn28 O38 2.067 1_565 S
Zn29 O30 1.962 . S
Zn29 O32 1.986 1_455 S
Zn29 O34 1.996 1_545 S
Zn29 O37 1.943 . S
O30 Zn29 1.962 . S
O30 C35 1.254 . S
O31 Zn28 2.031 1_545 S
O31 C35 1.269 . S
O32 Zn29 1.986 1_655 S
O32 C39 1.262 . S
O33 Zn28 2.049 . S
O33 C41 1.260 . S
O34 Zn29 1.996 1_565 S
O34 C41 1.257 . S
C35 O30 1.254 . S
C35 O31 1.269 . S
C36 O37 1.249 . S
C36 O38 1.270 . S
O37 Zn29 1.943 . S
O37 C36 1.249 . S
O38 Zn28 2.067 1_545 S
O38 C36 1.270 . S
C39 O32 1.262 . S
C39 O40 1.232 1_655 S
O40 C39 1.232 1_455 S
C41 O33 1.260 . S
C41 O34 1.257 . S
C42 C43 1.443 . S
C42 N46 1.376 . S
C42 C80 1.389 . S
C43 C42 1.443 . S
C43 C44 1.340 . S
C43 H83 0.951 . S
C44 C43 1.340 . S
C44 C45 1.439 . S
C44 H84 0.950 . S
C45 C44 1.439 . S
C45 N46 1.374 . S
C45 C79 1.395 . S
N46 C42 1.376 . S
N46 C45 1.374 . S
N46 Co47 2.008 . S
Co47 N46 2.008 . S
Co47 N48 1.995 . S
Co47 N53 2.008 1_455 S
Co47 N58 1.995 . S
Co47 N63 2.282 . S
Co47 N69 2.282 . S
N48 Co47 1.995 . S
N48 C49 1.376 . S
N48 C52 1.383 . S
C49 N48 1.376 . S
C49 C50 1.446 . S
C49 C79 1.391 . S
C50 C49 1.446 . S
C50 C51 1.339 . S
C50 H85 0.949 . S
C51 C50 1.339 . S
C51 C52 1.439 . S
C51 H86 0.950 . S
C52 N48 1.383 . S
C52 C51 1.439 . S
C52 C81 1.392 . S
N53 Co47 2.008 1_655 S
N53 C54 1.376 1_655 S
N53 C57 1.374 . S
C54 N53 1.376 1_455 S
C54 C55 1.443 1_455 S
C54 C81 1.389 . S
C55 C54 1.443 1_655 S
C55 C56 1.340 . S
C55 H87 0.951 . S
C56 C55 1.340 . S
C56 C57 1.439 . S
C56 H88 0.950 . S
C57 N53 1.374 . S
C57 C56 1.439 . S
C57 C82 1.395 . S
N58 Co47 1.995 . S
N58 C59 1.376 1_455 S
N58 C62 1.383 . S
C59 N58 1.376 1_655 S
C59 C60 1.446 . S
C59 C82 1.391 . S
C60 C59 1.446 . S
C60 C61 1.339 . S
C60 H89 0.949 . S
C61 C60 1.339 . S
C61 C62 1.439 1_655 S
C61 H90 0.950 . S
C62 N58 1.383 . S
C62 C61 1.439 1_455 S
C62 C80 1.392 . S
N63 Co47 2.282 . S
N63 C66 1.332 . S
N63 C68 1.332 . S
C64 C65 1.386 . S
C64 C67 1.388 . S
C65 C64 1.386 . S
C65 C66 1.382 . S
C65 H91 0.950 1_455 S
C66 N63 1.332 . S
C66 C65 1.382 . S
C66 H77 0.952 1_455 S
C67 C64 1.388 . S
C67 C68 1.382 . S
C67 H92 0.950 . S
C68 N63 1.332 . S
C68 C67 1.382 . S
C68 H78 0.948 . S
N69 Co47 2.282 . S
N69 C73 1.332 . S
N69 C74 1.332 . S
C70 C71 1.388 . S
C70 C74 1.382 . S
C70 H93 0.950 1_455 S
C71 C70 1.388 . S
C71 C72 1.386 . S
C72 C71 1.386 . S
C72 C73 1.382 . S
C72 H94 0.950 . S
C73 N69 1.332 . S
C73 C72 1.382 . S
C73 H75 0.952 . S
C74 N69 1.332 . S
C74 C70 1.382 . S
C74 H76 0.948 1_455 S
H75 C73 0.952 . S
H76 C74 0.948 1_655 S
H77 C66 0.952 1_655 S
H78 C68 0.948 . S
C79 C45 1.395 . S
C79 C49 1.391 . S
C80 C42 1.389 . S
C80 C62 1.392 . S
C81 C52 1.392 . S
C81 C54 1.389 . S
C82 C57 1.395 . S
C82 C59 1.391 . S
H83 C43 0.951 . S
H84 C44 0.950 . S
H85 C50 0.949 . S
H86 C51 0.950 . S
H87 C55 0.951 . S
H88 C56 0.950 . S
H89 C60 0.949 . S
H90 C61 0.950 . S
H91 C65 0.950 1_655 S
H92 C67 0.950 . S
H93 C70 0.950 1_655 S
H94 C72 0.950 . S
C95 C96 1.443 1_545 S
C95 N99 1.376 . S
C95 C133 1.389 . S
C96 C95 1.443 1_565 S
C96 C97 1.340 . S
C96 H136 0.951 . S
C97 C96 1.340 . S
C97 C98 1.439 . S
C97 H137 0.950 . S
C98 C97 1.439 . S
C98 N99 1.374 1_565 S
C98 C132 1.395 . S
N99 C95 1.376 . S
N99 C98 1.374 1_545 S
N99 Co100 2.008 . S
Co100 N99 2.008 . S
Co100 N101 1.995 . S
Co100 N106 2.008 . S
Co100 N111 1.995 . S
Co100 N116 2.282 . S
Co100 N122 2.282 . S
N101 Co100 1.995 . S
N101 C102 1.376 1_545 S
N101 C105 1.383 . S
C102 N101 1.376 1_565 S
C102 C103 1.446 . S
C102 C132 1.391 . S
C103 C102 1.446 . S
C103 C104 1.339 . S
C103 H138 0.949 . S
C104 C103 1.339 . S
C104 C105 1.439 1_565 S
C104 H139 0.950 . S
C105 N101 1.383 . S
C105 C104 1.439 1_545 S
C105 C134 1.392 . S
N106 Co100 2.008 . S
N106 C107 1.376 . S
N106 C110 1.374 . S
C107 N106 1.376 . S
C107 C108 1.443 . S
C107 C134 1.389 . S
C108 C107 1.443 . S
C108 C109 1.340 . S
C108 H140 0.951 . S
C109 C108 1.340 . S
C109 C110 1.439 . S
C109 H141 0.950 . S
C110 N106 1.374 . S
C110 C109 1.439 . S
C110 C135 1.395 . S
N111 Co100 1.995 . S
N111 C112 1.376 . S
N111 C115 1.383 . S
C112 N111 1.376 . S
C112 C113 1.446 . S
C112 C135 1.391 . S
C113 C112 1.446 . S
C113 C114 1.339 . S
C113 H142 0.949 . S
C114 C113 1.339 . S
C114 C115 1.439 . S
C114 H143 0.950 . S
C115 N111 1.383 . S
C115 C114 1.439 . S
C115 C133 1.392 . S
N116 Co100 2.282 . S
N116 C119 1.332 . S
N116 C121 1.332 . S
C117 C118 1.386 . S
C117 C120 1.388 . S
C118 C117 1.386 . S
C118 C119 1.382 . S
C118 H144 0.950 . S
C119 N116 1.332 . S
C119 C118 1.382 . S
C119 H130 0.952 . S
C120 C117 1.388 . S
C120 C121 1.382 . S
C120 H145 0.950 1_545 S
C121 N116 1.332 . S
C121 C120 1.382 . S
C121 H131 0.953 . S
N122 Co100 2.282 . S
N122 C126 1.332 . S
N122 C127 1.332 . S
C123 C124 1.388 . S
C123 C127 1.382 . S
C123 H146 0.950 . S
C124 C123 1.388 . S
C124 C125 1.386 . S
C125 C124 1.386 . S
C125 C126 1.382 . S
C125 H147 0.950 . S
C126 N122 1.332 . S
C126 C125 1.382 . S
C126 H128 0.952 . S
C127 N122 1.332 . S
C127 C123 1.382 . S
C127 H129 0.948 . S
H128 C126 0.952 . S
H129 C127 0.948 . S
H130 C119 0.952 . S
H131 C121 0.953 . S
C132 C98 1.395 . S
C132 C102 1.391 . S
C133 C95 1.389 . S
C133 C115 1.392 . S
C134 C105 1.392 . S
C134 C107 1.389 . S
C135 C110 1.395 . S
C135 C112 1.391 . S
H136 C96 0.951 . S
H137 C97 0.950 . S
H138 C103 0.949 . S
H139 C104 0.950 . S
H140 C108 0.951 . S
H141 C109 0.950 . S
H142 C113 0.949 . S
H143 C114 0.950 . S
H144 C118 0.950 . S
H145 C120 0.950 1_565 S
H146 C123 0.950 . S
H147 C125 0.950 . S
C148 C149 1.443 . S
C148 N152 1.376 . S
C148 C186 1.389 . S
C149 C148 1.443 . S
C149 C150 1.340 . S
C149 H189 0.951 . S
C150 C149 1.340 . S
C150 C151 1.439 . S
C150 H190 0.950 . S
C151 C150 1.439 . S
C151 N152 1.374 . S
C151 C185 1.395 . S
N152 C148 1.376 . S
N152 C151 1.374 . S
N152 Co153 2.008 . S
Co153 N152 2.008 . S
Co153 N154 1.995 . S
Co153 N159 2.008 . S
Co153 N164 1.995 . S
Co153 N169 2.282 . S
Co153 N175 2.282 . S
N154 Co153 1.995 . S
N154 C155 1.376 . S
N154 C158 1.383 . S
C155 N154 1.376 . S
C155 C156 1.446 . S
C155 C185 1.391 . S
C156 C155 1.446 . S
C156 C157 1.339 . S
C156 H191 0.949 . S
C157 C156 1.339 . S
C157 C158 1.439 . S
C157 H192 0.950 . S
C158 N154 1.383 . S
C158 C157 1.439 . S
C158 C187 1.392 . S
N159 Co153 2.008 . S
N159 C160 1.376 . S
N159 C163 1.374 . S
C160 N159 1.376 . S
C160 C161 1.443 . S
C160 C187 1.389 . S
C161 C160 1.443 . S
C161 C162 1.340 . S
C161 H193 0.951 . S
C162 C161 1.340 . S
C162 C163 1.439 . S
C162 H194 0.950 . S
C163 N159 1.374 . S
C163 C162 1.439 . S
C163 C188 1.395 . S
N164 Co153 1.995 . S
N164 C165 1.376 . S
N164 C168 1.383 . S
C165 N164 1.376 . S
C165 C166 1.446 . S
C165 C188 1.391 . S
C166 C165 1.446 . S
C166 C167 1.339 . S
C166 H195 0.949 . S
C167 C166 1.339 . S
C167 C168 1.439 . S
C167 H196 0.950 . S
C168 N164 1.383 . S
C168 C167 1.439 . S
C168 C186 1.392 . S
N169 Co153 2.282 . S
N169 C172 1.332 . S
N169 C174 1.332 . S
C170 C171 1.386 . S
C170 C173 1.388 . S
C171 C170 1.386 . S
C171 C172 1.382 . S
C171 H197 0.950 . S
C172 N169 1.332 . S
C172 C171 1.382 . S
C172 H183 0.952 . S
C173 C170 1.388 . S
C173 C174 1.382 . S
C173 H198 0.950 . S
C174 N169 1.332 . S
C174 C173 1.382 . S
C174 H184 0.948 . S
N175 Co153 2.282 . S
N175 C179 1.332 . S
N175 C180 1.332 . S
C176 C177 1.388 . S
C176 C180 1.382 . S
C176 H199 0.950 . S
C177 C176 1.388 . S
C177 C178 1.386 . S
C178 C177 1.386 . S
C178 C179 1.382 . S
C178 H200 0.950 . S
C179 N175 1.332 . S
C179 C178 1.382 . S
C179 H181 0.952 . S
C180 N175 1.332 . S
C180 C176 1.382 . S
C180 H182 0.948 . S
H181 C179 0.952 . S
H182 C180 0.948 . S
H183 C172 0.952 . S
H184 C174 0.948 . S
C185 C151 1.395 . S
C185 C155 1.391 . S
C186 C148 1.389 . S
C186 C168 1.392 . S
C187 C158 1.392 . S
C187 C160 1.389 . S
C188 C163 1.395 . S
C188 C165 1.391 . S
H189 C149 0.951 . S
H190 C150 0.950 . S
H191 C156 0.949 . S
H192 C157 0.950 . S
H193 C161 0.951 . S
H194 C162 0.950 . S
H195 C166 0.949 . S
H196 C167 0.950 . S
H197 C171 0.950 . S
H198 C173 0.950 . S
H199 C176 0.950 . S
H200 C178 0.950 . S
H201 C213 0.930 . S
H202 C215 0.930 . S
H203 C216 0.930 . S
H204 C220 0.959 . S
H205 C220 0.959 . S
H206 C220 0.961 . S
H207 C221 0.960 . S
H208 C221 0.961 . S
H209 C221 0.959 1_655 S
H210 C224 0.929 . S
H211 C225 0.931 . S
H212 C227 0.930 . S
C213 H201 0.930 . S
C213 C214 1.399 . S
C213 C218 1.399 . S
C214 C213 1.399 . S
C214 C215 1.376 . S
C215 H202 0.930 . S
C215 C214 1.376 . S
C215 C216 1.388 . S
C216 H203 0.930 . S
C216 C215 1.388 . S
C216 C217 1.390 . S
C217 C216 1.390 . S
C217 C218 1.394 . S
C217 C223 1.465 . S
C218 C213 1.399 . S
C218 C217 1.394 . S
C218 C219 1.516 . S
C219 C218 1.516 . S
C219 C220 1.502 . S
C219 C221 1.561 . S
C219 C222 1.526 . S
C220 H204 0.959 . S
C220 H205 0.959 . S
C220 H206 0.961 . S
C220 C219 1.502 . S
C221 H207 0.960 . S
C221 H208 0.961 . S
C221 H209 0.959 1_455 S
C221 C219 1.561 . S
C222 C219 1.526 . S
C222 C223 1.396 . S
C222 C227 1.390 . S
C223 C217 1.465 . S
C223 C222 1.396 . S
C223 C224 1.399 . S
C224 H210 0.929 . S
C224 C223 1.399 . S
C224 C225 1.385 . S
C225 H211 0.931 . S
C225 C224 1.385 . S
C225 C226 1.389 . S
C226 C225 1.389 . S
C226 C227 1.387 . S
C227 H212 0.930 . S
C227 C222 1.390 . S
C227 C226 1.387 . S
H228 C240 0.930 . S
H229 C242 0.930 1_565 S
H230 C243 0.930 1_565 S
H231 C247 0.959 . S
H232 C247 0.959 . S
H233 C247 0.961 . S
H234 C248 0.960 . S
H235 C248 0.961 . S
H236 C248 0.959 . S
H237 C251 0.929 1_565 S
H238 C252 0.931 . S
H239 C254 0.930 . S
C240 H228 0.930 . S
C240 C241 1.399 . S
C240 C245 1.399 . S
C241 C240 1.399 . S
C241 C242 1.376 . S
C242 H229 0.930 1_545 S
C242 C241 1.376 . S
C242 C243 1.388 . S
C243 H230 0.930 1_545 S
C243 C242 1.388 . S
C243 C244 1.390 . S
C244 C243 1.390 . S
C244 C245 1.394 . S
C244 C250 1.465 . S
C245 C240 1.399 . S
C245 C244 1.394 . S
C245 C246 1.516 . S
C246 C245 1.516 . S
C246 C247 1.502 . S
C246 C248 1.561 . S
C246 C249 1.526 . S
C247 H231 0.959 . S
C247 H232 0.959 . S
C247 H233 0.961 . S
C247 C246 1.502 . S
C248 H234 0.960 . S
C248 H235 0.961 . S
C248 H236 0.959 . S
C248 C246 1.561 . S
C249 C246 1.526 . S
C249 C250 1.396 . S
C249 C254 1.390 . S
C250 C244 1.465 . S
C250 C249 1.396 . S
C250 C251 1.399 . S
C251 H237 0.929 1_545 S
C251 C250 1.399 . S
C251 C252 1.385 . S
C252 H238 0.931 . S
C252 C251 1.385 . S
C252 C253 1.389 . S
C253 C252 1.389 . S
C253 C254 1.387 . S
C254 H239 0.930 . S
C254 C249 1.390 . S
C254 C253 1.387 . S
H255 C267 0.930 . S
H256 C269 0.930 . S
H257 C270 0.930 . S
H258 C274 0.959 . S
H259 C274 0.959 . S
H260 C274 0.961 . S
H261 C275 0.960 . S
H262 C275 0.961 . S
H263 C275 0.959 . S
H264 C278 0.929 . S
H265 C279 0.931 . S
H266 C281 0.930 . S
C267 H255 0.930 . S
C267 C268 1.399 . S
C267 C272 1.399 . S
C268 C267 1.399 . S
C268 C269 1.376 . S
C269 H256 0.930 . S
C269 C268 1.376 . S
C269 C270 1.388 . S
C270 H257 0.930 . S
C270 C269 1.388 . S
C270 C271 1.390 . S
C271 C270 1.390 . S
C271 C272 1.394 . S
C271 C277 1.465 . S
C272 C267 1.399 . S
C272 C271 1.394 . S
C272 C273 1.516 . S
C273 C272 1.516 . S
C273 C274 1.502 . S
C273 C275 1.561 . S
C273 C276 1.526 . S
C274 H258 0.959 . S
C274 H259 0.959 . S
C274 H260 0.961 . S
C274 C273 1.502 . S
C275 H261 0.960 . S
C275 H262 0.961 . S
C275 H263 0.959 . S
C275 C273 1.561 . S
C276 C273 1.526 . S
C276 C277 1.396 . S
C276 C281 1.390 . S
C277 C271 1.465 . S
C277 C276 1.396 . S
C277 C278 1.399 . S
C278 H264 0.929 . S
C278 C277 1.399 . S
C278 C279 1.385 . S
C279 H265 0.931 . S
C279 C278 1.385 . S
C279 C280 1.389 . S
C280 C279 1.389 . S
C280 C281 1.387 . S
C281 H266 0.930 . S
C281 C276 1.390 . S
C281 C280 1.387 . S
H282 C294 0.930 . S
H283 C296 0.930 . S
H284 C297 0.930 . S
H285 C301 0.959 . S
H286 C301 0.959 . S
H287 C301 0.961 . S
H288 C302 0.960 . S
H289 C302 0.961 . S
H290 C302 0.959 . S
H291 C305 0.929 . S
H292 C306 0.931 . S
H293 C308 0.930 . S
C294 H282 0.930 . S
C294 C295 1.399 . S
C294 C299 1.399 . S
C295 C294 1.399 . S
C295 C296 1.376 . S
C296 H283 0.930 . S
C296 C295 1.376 . S
C296 C297 1.388 . S
C297 H284 0.930 . S
C297 C296 1.388 . S
C297 C298 1.390 . S
C298 C297 1.390 . S
C298 C299 1.394 . S
C298 C304 1.465 . S
C299 C294 1.399 . S
C299 C298 1.394 . S
C299 C300 1.516 . S
C300 C299 1.516 . S
C300 C301 1.502 . S
C300 C302 1.561 . S
C300 C303 1.526 . S
C301 H285 0.959 . S
C301 H286 0.959 . S
C301 H287 0.961 . S
C301 C300 1.502 . S
C302 H288 0.960 . S
C302 H289 0.961 . S
C302 H290 0.959 . S
C302 C300 1.561 . S
C303 C300 1.526 . S
C303 C304 1.396 . S
C303 C308 1.390 . S
C304 C298 1.465 . S
C304 C303 1.396 . S
C304 C305 1.399 . S
C305 H291 0.929 . S
C305 C304 1.399 . S
C305 C306 1.385 . S
C306 H292 0.931 . S
C306 C305 1.385 . S
C306 C307 1.389 . S
C307 C306 1.389 . S
C307 C308 1.387 . S
C308 H293 0.930 . S
C308 C303 1.390 . S
C308 C307 1.387 . S
H309 C321 0.930 . S
H310 C323 0.930 . S
H311 C324 0.930 . S
H312 C328 0.959 . S
H313 C328 0.959 . S
H314 C328 0.961 . S
H315 C329 0.960 . S
H316 C329 0.962 . S
H317 C329 0.960 . S
H318 C332 0.929 . S
H319 C333 0.931 . S
H320 C335 0.930 . S
C321 H309 0.930 . S
C321 C322 1.399 . S
C321 C326 1.399 . S
C322 C321 1.399 . S
C322 C323 1.376 . S
C323 H310 0.930 . S
C323 C322 1.376 . S
C323 C324 1.388 . S
C324 H311 0.930 . S
C324 C323 1.388 . S
C324 C325 1.390 . S
C325 C324 1.390 . S
C325 C326 1.394 . S
C325 C331 1.465 . S
C326 C321 1.399 . S
C326 C325 1.394 . S
C326 C327 1.516 . S
C327 C326 1.516 . S
C327 C328 1.502 . S
C327 C329 1.559 1_545 S
C327 C330 1.526 . S
C328 H312 0.959 . S
C328 H313 0.959 . S
C328 H314 0.961 . S
C328 C327 1.502 . S
C329 H315 0.960 . S
C329 H316 0.962 . S
C329 H317 0.960 . S
C329 C327 1.559 1_565 S
C330 C327 1.526 . S
C330 C331 1.396 . S
C330 C335 1.390 . S
C331 C325 1.465 . S
C331 C330 1.396 . S
C331 C332 1.399 . S
C332 H318 0.929 . S
C332 C331 1.399 . S
C332 C333 1.385 . S
C333 H319 0.931 . S
C333 C332 1.385 . S
C333 C334 1.389 . S
C334 C333 1.389 . S
C334 C335 1.387 . S
C335 H320 0.930 . S
C335 C330 1.390 . S
C335 C334 1.387 . S
H336 C348 0.930 . S
H337 C350 0.930 . S
H338 C351 0.930 . S
H339 C355 0.959 . S
H340 C355 0.959 . S
H341 C355 0.961 . S
H342 C356 0.960 . S
H343 C356 0.961 . S
H344 C356 0.959 . S
H345 C359 0.929 . S
H346 C360 0.931 . S
H347 C362 0.930 . S
C348 H336 0.930 . S
C348 C349 1.399 . S
C348 C353 1.399 . S
C349 C348 1.399 . S
C349 C350 1.376 . S
C350 H337 0.930 . S
C350 C349 1.376 . S
C350 C351 1.388 . S
C351 H338 0.930 . S
C351 C350 1.388 . S
C351 C352 1.390 . S
C352 C351 1.390 . S
C352 C353 1.394 . S
C352 C358 1.465 . S
C353 C348 1.399 . S
C353 C352 1.394 . S
C353 C354 1.516 . S
C354 C353 1.516 . S
C354 C355 1.502 . S
C354 C356 1.561 . S
C354 C357 1.526 . S
C355 H339 0.959 . S
C355 H340 0.959 . S
C355 H341 0.961 . S
C355 C354 1.502 . S
C356 H342 0.960 . S
C356 H343 0.961 . S
C356 H344 0.959 . S
C356 C354 1.561 . S
C357 C354 1.526 . S
C357 C358 1.396 . S
C357 C362 1.390 . S
C358 C352 1.465 . S
C358 C357 1.396 . S
C358 C359 1.399 . S
C359 H345 0.929 . S
C359 C358 1.399 . S
C359 C360 1.385 . S
C360 H346 0.931 . S
C360 C359 1.385 . S
C360 C361 1.389 . S
C361 C360 1.389 . S
C361 C362 1.387 . S
C362 H347 0.930 . S
C362 C357 1.390 . S
C362 C361 1.387 . S
H363 C375 0.930 . S
H364 C377 0.930 . S
H365 C378 0.930 . S
H366 C382 0.959 . S
H367 C382 0.959 . S
H368 C382 0.961 . S
H369 C383 0.960 . S
H370 C383 0.961 . S
H371 C383 0.959 . S
H372 C386 0.929 . S
H373 C387 0.931 . S
H374 C389 0.930 . S
C375 H363 0.930 . S
C375 C376 1.399 . S
C375 C380 1.399 . S
C376 C375 1.399 . S
C376 C377 1.376 . S
C377 H364 0.930 . S
C377 C376 1.376 . S
C377 C378 1.388 . S
C378 H365 0.930 . S
C378 C377 1.388 . S
C378 C379 1.390 . S
C379 C378 1.390 . S
C379 C380 1.394 . S
C379 C385 1.465 . S
C380 C375 1.399 . S
C380 C379 1.394 . S
C380 C381 1.516 . S
C381 C380 1.516 . S
C381 C382 1.502 . S
C381 C383 1.561 1_545 S
C381 C384 1.526 . S
C382 H366 0.959 . S
C382 H367 0.959 . S
C382 H368 0.961 . S
C382 C381 1.502 . S
C383 H369 0.960 . S
C383 H370 0.961 . S
C383 H371 0.959 . S
C383 C381 1.561 1_565 S
C384 C381 1.526 . S
C384 C385 1.396 . S
C384 C389 1.390 . S
C385 C379 1.465 . S
C385 C384 1.396 . S
C385 C386 1.399 . S
C386 H372 0.929 . S
C386 C385 1.399 . S
C386 C387 1.385 . S
C387 H373 0.931 . S
C387 C386 1.385 . S
C387 C388 1.389 . S
C388 C387 1.389 . S
C388 C389 1.387 . S
C389 H374 0.930 . S
C389 C384 1.390 . S
C389 C388 1.387 . S
H390 C402 0.930 . S
H391 C404 0.930 . S
H392 C405 0.930 . S
H393 C409 0.959 . S
H394 C409 0.959 . S
H395 C409 0.961 . S
H396 C410 0.960 . S
H397 C410 0.961 1_655 S
H398 C410 0.959 . S
H399 C413 0.929 . S
H400 C414 0.931 . S
H401 C416 0.930 . S
C402 H390 0.930 . S
C402 C403 1.412 . S
C402 C407 1.399 1_455 S
C403 C402 1.412 . S
C403 C404 1.369 1_456 S
C404 H391 0.930 . S
C404 C403 1.369 1_654 S
C404 C405 1.388 . S
C405 H392 0.930 . S
C405 C404 1.388 . S
C405 C406 1.390 1_554 S
C406 C405 1.390 1_556 S
C406 C407 1.394 . S
C406 C412 1.465 . S
C407 C402 1.399 1_655 S
C407 C406 1.394 . S
C407 C408 1.516 . S
C408 C407 1.516 . S
C408 C409 1.502 . S
C408 C410 1.561 1_655 S
C408 C411 1.526 . S
C409 H393 0.959 . S
C409 H394 0.959 . S
C409 H395 0.961 . S
C409 C408 1.502 . S
C410 H396 0.960 . S
C410 H397 0.961 1_455 S
C410 H398 0.959 . S
C410 C408 1.561 1_455 S
C411 C408 1.526 . S
C411 C412 1.396 . S
C411 C416 1.390 . S
C412 C406 1.465 . S
C412 C411 1.396 . S
C412 C413 1.399 . S
C413 H399 0.929 . S
C413 C412 1.399 . S
C413 C414 1.385 . S
C414 H400 0.931 . S
C414 C413 1.385 . S
C414 C415 1.389 . S
C415 C414 1.389 . S
C415 C416 1.387 . S
C416 H401 0.930 . S
C416 C411 1.390 . S
C416 C415 1.387 . S
H417 C429 0.930 . S
H418 C431 0.930 . S
H419 C432 0.930 1_545 S
H420 C436 0.959 . S
H421 C436 0.959 . S
H422 C436 0.961 . S
H423 C437 0.960 . S
H424 C437 0.961 . S
H425 C437 0.959 . S
H426 C440 0.929 . S
H427 C441 0.931 . S
H428 C443 0.930 . S
C429 H417 0.930 . S
C429 C430 1.399 . S
C429 C434 1.399 . S
C430 C429 1.399 . S
C430 C431 1.376 1_565 S
C431 H418 0.930 . S
C431 C430 1.376 1_545 S
C431 C432 1.388 1_545 S
C432 H419 0.930 1_565 S
C432 C431 1.388 1_565 S
C432 C433 1.390 . S
C433 C432 1.390 . S
C433 C434 1.394 . S
C433 C439 1.465 . S
C434 C429 1.399 . S
C434 C433 1.394 . S
C434 C435 1.516 . S
C435 C434 1.516 . S
C435 C436 1.502 . S
C435 C437 1.561 1_455 S
C435 C438 1.526 . S
C436 H420 0.959 . S
C436 H421 0.959 . S
C436 H422 0.961 . S
C436 C435 1.502 . S
C437 H423 0.960 . S
C437 H424 0.961 . S
C437 H425 0.959 . S
C437 C435 1.561 1_655 S
C438 C435 1.526 . S
C438 C439 1.396 . S
C438 C443 1.390 . S
C439 C433 1.465 . S
C439 C438 1.396 . S
C439 C440 1.399 . S
C440 H426 0.929 . S
C440 C439 1.399 . S
C440 C441 1.385 . S
C441 H427 0.931 . S
C441 C440 1.385 . S
C441 C442 1.389 . S
C442 C441 1.389 . S
C442 C443 1.387 . S
C443 H428 0.930 . S
C443 C438 1.390 . S
C443 C442 1.387 . S
H444 C456 0.930 . S
H445 C458 0.930 . S
H446 C459 0.930 . S
H447 C463 0.959 . S
H448 C463 0.959 . S
H449 C463 0.961 . S
H450 C464 0.960 . S
H451 C464 0.961 . S
H452 C464 0.959 . S
H453 C467 0.929 1_565 S
H454 C468 0.931 . S
H455 C470 0.930 . S
C456 H444 0.930 . S
C456 C457 1.399 . S
C456 C461 1.399 . S
C457 C456 1.399 . S
C457 C458 1.376 1_545 S
C458 H445 0.930 . S
C458 C457 1.376 1_565 S
C458 C459 1.388 . S
C459 H446 0.930 . S
C459 C458 1.388 . S
C459 C460 1.390 1_565 S
C460 C459 1.390 1_545 S
C460 C461 1.394 . S
C460 C466 1.465 . S
C461 C456 1.399 . S
C461 C460 1.394 . S
C461 C462 1.516 . S
C462 C461 1.516 . S
C462 C463 1.502 . S
C462 C464 1.561 . S
C462 C465 1.526 . S
C463 H447 0.959 . S
C463 H448 0.959 . S
C463 H449 0.961 . S
C463 C462 1.502 . S
C464 H450 0.960 . S
C464 H451 0.961 . S
C464 H452 0.959 . S
C464 C462 1.561 . S
C465 C462 1.526 . S
C465 C466 1.396 . S
C465 C470 1.390 . S
C466 C460 1.465 . S
C466 C465 1.396 . S
C466 C467 1.399 . S
C467 H453 0.929 1_545 S
C467 C466 1.399 . S
C467 C468 1.385 . S
C468 H454 0.931 . S
C468 C467 1.385 . S
C468 C469 1.389 . S
C469 C468 1.389 . S
C469 C470 1.387 . S
C470 H455 0.930 . S
C470 C465 1.390 . S
C470 C469 1.387 . S
H471 C483 0.930 . S
H472 C485 0.930 . S
H473 C486 0.930 . S
H474 C490 0.959 . S
H475 C490 0.959 . S
H476 C490 0.961 . S
H477 C491 0.960 . S
H478 C491 0.961 . S
H479 C491 0.959 . S
H480 C494 0.929 . S
H481 C495 0.931 . S
H482 C497 0.930 . S
C483 H471 0.930 . S
C483 C484 1.399 . S
C483 C488 1.399 . S
C484 C483 1.399 . S
C484 C485 1.376 . S
C485 H472 0.930 . S
C485 C484 1.376 . S
C485 C486 1.388 . S
C486 H473 0.930 . S
C486 C485 1.388 . S
C486 C487 1.390 . S
C487 C486 1.390 . S
C487 C488 1.394 . S
C487 C493 1.465 . S
C488 C483 1.399 . S
C488 C487 1.394 . S
C488 C489 1.516 . S
C489 C488 1.516 . S
C489 C490 1.502 . S
C489 C491 1.561 . S
C489 C492 1.526 . S
C490 H474 0.959 . S
C490 H475 0.959 . S
C490 H476 0.961 . S
C490 C489 1.502 . S
C491 H477 0.960 . S
C491 H478 0.961 . S
C491 H479 0.959 . S
C491 C489 1.561 . S
C492 C489 1.526 . S
C492 C493 1.396 . S
C492 C497 1.390 . S
C493 C487 1.465 . S
C493 C492 1.396 . S
C493 C494 1.399 . S
C494 H480 0.929 . S
C494 C493 1.399 . S
C494 C495 1.385 . S
C495 H481 0.931 . S
C495 C494 1.385 . S
C495 C496 1.389 . S
C496 C495 1.389 . S
C496 C497 1.387 . S
C497 H482 0.930 . S
C497 C492 1.390 . S
C497 C496 1.387 . S
H498 C510 0.930 . S
H499 C512 0.930 . S
H500 C513 0.930 . S
H501 C517 0.959 1_455 S
H502 C517 0.959 . S
H503 C517 0.961 . S
H504 C518 0.960 . S
H505 C518 0.961 . S
H506 C518 0.959 . S
H507 C521 0.929 . S
H508 C522 0.931 . S
H509 C524 0.930 1_655 S
C510 H498 0.930 . S
C510 C511 1.399 . S
C510 C515 1.399 . S
C511 C510 1.399 . S
C511 C512 1.376 . S
C512 H499 0.930 . S
C512 C511 1.376 . S
C512 C513 1.388 . S
C513 H500 0.930 . S
C513 C512 1.388 . S
C513 C514 1.390 . S
C514 C513 1.390 . S
C514 C515 1.394 . S
C514 C520 1.465 . S
C515 C510 1.399 . S
C515 C514 1.394 . S
C515 C516 1.516 . S
C516 C515 1.516 . S
C516 C517 1.502 1_455 S
C516 C518 1.561 1_455 S
C516 C519 1.526 . S
C517 H501 0.959 1_655 S
C517 H502 0.959 . S
C517 H503 0.961 . S
C517 C516 1.502 1_655 S
C518 H504 0.960 . S
C518 H505 0.961 . S
C518 H506 0.959 . S
C518 C516 1.561 1_655 S
C519 C516 1.526 . S
C519 C520 1.396 . S
C519 C524 1.390 . S
C520 C514 1.465 . S
C520 C519 1.396 . S
C520 C521 1.399 . S
C521 H507 0.929 . S
C521 C520 1.399 . S
C521 C522 1.385 . S
C522 H508 0.931 . S
C522 C521 1.385 . S
C522 C523 1.389 . S
C523 C522 1.389 . S
C523 C524 1.387 . S
C524 H509 0.930 1_455 S
C524 C519 1.390 . S
C524 C523 1.387 . S
C226 C64 1.347 . S
C214 C11 1.318 . S
C241 C25 1.414 . S
C253 C134 1.398 . S
C268 C41 1.362 1_655 S
C280 C186 1.439 . S
C295 C7 1.370 1_565 S
C307 C80 1.379 . S
C334 C124 1.420 . S
C322 C21 1.415 . S
C349 C36 1.410 . S
C361 C170 1.449 . S
C388 C117 1.396 . S
C376 C39 1.400 . S
C403 C8 1.395 1_566 S
C415 C177 1.446 . S
C442 C71 1.505 . S
C430 C22 1.418 1_565 S
C469 C133 1.414 . S
C457 C35 1.416 . S
C496 C187 1.433 . S
C484 C13 1.341 1_556 S
C511 C27 1.441 . S
C523 C81 1.474 . S
