# Generated by pormake.
# Topology alb, (6,12)-cn, num edge types: 1
# Building blocks:
#     Node 0, Type 0, BuildingBlock: OJICUG_clean_sbu_0, # of connection points: 6
#     Node 1, Type 0, BuildingBlock: OJICUG_clean_sbu_0, # of connection points: 6
#     Node 2, Type 1, BuildingBlock: QEWDON_clean_sbu_0, # of connection points: 12
#     Edge 3, Type (0, 1), BuildingBlock: TEMPAE_clean_linker_10, # of connection points: 2
#     Edge 4, Type (0, 1), BuildingBlock: TEMPAE_clean_linker_10, # of connection points: 2
#     Edge 5, Type (0, 1), BuildingBlock: TEMPAE_clean_linker_10, # of connection points: 2
#     Edge 6, Type (0, 1), BuildingBlock: TEMPAE_clean_linker_10, # of connection points: 2
#     Edge 7, Type (0, 1), BuildingBlock: TEMPAE_clean_linker_10, # of connection points: 2
#     Edge 8, Type (0, 1), BuildingBlock: TEMPAE_clean_linker_10, # of connection points: 2
#     Edge 9, Type (0, 1), BuildingBlock: TEMPAE_clean_linker_10, # of connection points: 2
#     Edge 10, Type (0, 1), BuildingBlock: TEMPAE_clean_linker_10, # of connection points: 2
#     Edge 11, Type (0, 1), BuildingBlock: TEMPAE_clean_linker_10, # of connection points: 2
#     Edge 12, Type (0, 1), BuildingBlock: TEMPAE_clean_linker_10, # of connection points: 2
#     Edge 13, Type (0, 1), BuildingBlock: TEMPAE_clean_linker_10, # of connection points: 2
#     Edge 14, Type (0, 1), BuildingBlock: TEMPAE_clean_linker_10, # of connection points: 2
# Relax obj value: 0.123
# Max RMSD: 0.221
# Mean RMSD: 0.143
data_MOF--net-alb--node1-OJICUG_clean_sbu_0--node2-QEWDON_clean_sbu_0--edge1-TEMPAE_clean_linker_10
_symmetry_space_group_name_H-M    P1
_symmetry_Int_Tables_number       1
_symmetry_cell_setting            triclinic
loop_
_symmetry_equiv_pos_as_xyz
'x, y, z'
_cell_length_a     24.873798
_cell_length_b     25.394056
_cell_length_c     20.745726
_cell_angle_alpha  90.042351
_cell_angle_beta   91.424939
_cell_angle_gamma 120.90475
loop_
_atom_site_label
_atom_site_type_symbol
_atom_site_fract_x
_atom_site_fract_y
_atom_site_fract_z
_atom_type_partial_charge
Sc0 Sc 0.30734 0.73321 0.12 0.0
Sc1 Sc 0.16208 0.59972 0.14905 0.0
Sc2 Sc 0.30192 0.59609 0.15011 0.0
O3 O 0.25663 0.64262 0.13939 0.0
C4 C 0.36593 0.68078 0.02678 0.0
C5 C 0.17942 0.69767 0.04342 0.0
C6 C 0.17788 0.50135 0.06967 0.0
C7 C 0.21947 0.72495 0.23153 0.0
C8 C 0.40747 0.72072 0.20687 0.0
C9 C 0.20098 0.53539 0.25959 0.0
O10 O 0.34443 0.7163 0.03486 0.0
O11 O 0.14684 0.64391 0.06597 0.0
O12 O 0.23436 0.52332 0.089 0.0
O13 O 0.2729 0.75241 0.20564 0.0
O14 O 0.37467 0.66314 0.21294 0.0
O15 O 0.16273 0.54915 0.23396 0.0
O16 O 0.39031 0.75054 0.17195 0.0
O17 O 0.17384 0.67263 0.21294 0.0
O18 O 0.25286 0.54991 0.23481 0.0
O19 O 0.23559 0.73385 0.06206 0.0
O20 O 0.35702 0.63887 0.06645 0.0
O21 O 0.14459 0.52371 0.08652 0.0
Sc22 Sc 0.68924 0.28413 0.03191 0.0
Sc23 Sc 0.83329 0.42378 0.02727 0.0
Sc24 Sc 0.69291 0.42332 0.04908 0.0
O25 O 0.73849 0.37711 0.03606 0.0
C26 C 0.59438 0.31503 0.95933 0.0
C27 C 0.78725 0.3133 0.92296 0.0
C28 C 0.79357 0.50341 0.94421 0.0
C29 C 0.81273 0.31227 0.11219 0.0
C30 C 0.62085 0.30971 0.14312 0.0
C31 C 0.81562 0.50448 0.1357 0.0
O32 O 0.61291 0.27866 0.97554 0.0
O33 O 0.82931 0.36334 0.95007 0.0
O34 O 0.74536 0.48912 0.97653 0.0
O35 O 0.75792 0.27687 0.08883 0.0
O36 O 0.634 0.36169 0.12149 0.0
O37 O 0.84992 0.49058 0.10368 0.0
O38 O 0.64114 0.27732 0.11925 0.0
O39 O 0.84549 0.36881 0.09836 0.0
O40 O 0.75749 0.48075 0.12325 0.0
O41 O 0.73219 0.28171 0.94425 0.0
O42 O 0.62135 0.37062 0.97796 0.0
O43 O 0.82904 0.48177 0.95429 0.0
Zn44 Zn 0.12108 0.11896 0.41666 0.0
Zn45 Zn 0.11941 0.99696 0.45236 0.0
O46 O 0.0654 0.0326 0.44266 0.0
H47 H 0.02204 0.0151 0.4537 0.0
C48 C 0.11506 0.19735 0.56294 0.0
O49 O 0.1408 0.16639 0.54314 0.0
Zn50 Zn 0.86933 0.87536 0.7178 0.0
Zn51 Zn 0.90463 0.96286 0.82035 0.0
O52 O 0.917 0.96623 0.72435 0.0
H53 H 0.95574 0.9933 0.70336 0.0
Zn54 Zn 0.07498 0.10432 0.66426 0.0
O55 O 0.06348 0.02931 0.61619 0.0
Zn56 Zn 0.0823 0.97886 0.67867 0.0
H57 H 0.05464 0.02351 0.57039 0.0
Zn58 Zn 0.92078 0.01746 0.5109 0.0
O59 O 0.936 0.95555 0.55657 0.0
H60 H 0.94915 0.95834 0.60107 0.0
Zn61 Zn 0.9144 0.88583 0.49534 0.0
C62 C 0.8848 0.06758 0.61804 0.0
O63 O 0.86251 0.01113 0.63764 0.0
O64 O 0.21153 0.14237 0.39837 0.0
O65 O 0.20555 0.05297 0.41664 0.0
O66 O 0.81333 0.90092 0.8433 0.0
O67 O 0.78384 0.84093 0.75587 0.0
O68 O 0.14039 0.12404 0.7361 0.0
O69 O 0.14512 0.03871 0.74552 0.0
C70 C 0.01766 0.88333 0.41772 0.0
O71 O 0.85728 0.97292 0.43672 0.0
O72 O 0.85242 0.88277 0.42807 0.0
O73 O 0.95086 0.04669 0.86807 0.0
C74 C 0.23602 0.10892 0.39947 0.0
O75 O 0.07298 0.14582 0.35759 0.0
C76 C 0.97772 0.87459 0.75906 0.0
O77 O 0.08287 0.17998 0.61358 0.0
C78 C 0.77104 0.85618 0.80941 0.0
O79 O 0.91227 0.08313 0.56451 0.0
C80 C 0.13137 0.94474 0.57382 0.0
O81 O 0.07541 0.91552 0.40549 0.0
O82 O -0.00427 0.90515 0.45732 0.0
C83 C 0.16354 0.09418 0.7619 0.0
O84 O 0.91932 0.84715 0.76896 0.0
O85 O -0.0002 0.91682 0.71729 0.0
C86 C 0.86343 0.80654 0.60162 0.0
O87 O 0.11876 0.93321 0.63289 0.0
O88 O 0.1228 0.98477 0.54736 0.0
C89 C 0.83473 0.91995 0.41051 0.0
O90 O 0.87897 0.8062 0.54387 0.0
O91 O 0.86604 0.85425 0.6239 0.0
C92 C 0.98416 0.09479 0.83579 0.0
O93 O 0.98943 0.08976 0.77361 0.0
C94 C 0.02511 0.14225 0.38242 0.0
O95 O 0.01242 0.12524 0.44261 0.0
C96 C 0.2399 0.76241 0.34515 0.0
C97 C 0.20936 0.75559 0.28549 0.0
C98 C 0.22912 0.79047 0.39757 0.0
C99 C 0.18793 0.81307 0.38914 0.0
C100 C 0.15794 0.80687 0.32826 0.0
C101 C 0.16847 0.77745 0.2773 0.0
C102 C 0.26192 0.79622 0.46166 0.0
C103 C 0.11472 0.83125 0.31698 0.0
C104 C 0.1142 0.84554 0.53043 0.0
C105 C 0.15067 0.9096 0.53446 0.0
C106 C 0.12697 0.81296 0.48452 0.0
C107 C 0.17785 0.8455 0.44287 0.0
C108 C 0.21665 0.91 0.44951 0.0
C109 C 0.20237 0.94124 0.49521 0.0
C110 C 0.08465 0.74419 0.47876 0.0
C111 C 0.27142 0.9464 0.40632 0.0
H112 H 0.2715 0.74509 0.35088 0.0
H113 H 0.14549 0.77228 0.23063 0.0
H114 H 0.29243 0.84537 0.47543 0.0
H115 H 0.22689 0.77429 0.49977 0.0
H116 H 0.2911 0.7747 0.46063 0.0
H117 H 0.09521 0.82305 0.26679 0.0
H118 H 0.07556 0.80861 0.35046 0.0
H119 H 0.13996 0.88129 0.32751 0.0
H120 H 0.07394 0.82137 0.56078 0.0
H121 H 0.23093 0.9908 0.49948 0.0
H122 H 0.11264 0.72174 0.48517 0.0
H123 H 0.06234 0.7314 0.42983 0.0
H124 H 0.04722 0.7258 0.51486 0.0
H125 H 0.30212 0.92662 0.40611 0.0
H126 H 0.30005 0.99542 0.42155 0.0
H127 H 0.25391 0.94398 0.35605 0.0
C128 C 0.57686 0.25221 0.24482 0.0
C129 C 0.57105 0.28133 0.19012 0.0
C130 C 0.52717 0.22292 0.28753 0.0
C131 C 0.47007 0.22075 0.27311 0.0
C132 C 0.46404 0.24933 0.21709 0.0
C133 C 0.51508 0.28027 0.177 0.0
C134 C 0.53568 0.19457 0.34791 0.0
C135 C 0.40329 0.24627 0.19866 0.0
C136 C 0.31341 0.09929 0.33516 0.0
C137 C 0.29977 0.13455 0.37593 0.0
C138 C 0.37081 0.1258 0.30417 0.0
C139 C 0.4158 0.18862 0.31569 0.0
C140 C 0.40399 0.22296 0.36094 0.0
C141 C 0.34548 0.19575 0.38972 0.0
C142 C 0.38078 0.08797 0.25503 0.0
C143 C 0.45158 0.2895 0.37593 0.0
H144 H 0.62034 0.25305 0.25444 0.0
H145 H 0.5105 0.3019 0.13383 0.0
H146 H 0.5263 0.21435 0.39089 0.0
H147 H 0.50149 0.14449 0.3474 0.0
H148 H 0.58372 0.20212 0.35315 0.0
H149 H 0.40573 0.26845 0.1518 0.0
H150 H 0.36448 0.19769 0.19524 0.0
H151 H 0.39133 0.26927 0.23632 0.0
H152 H 0.27759 0.05209 0.32411 0.0
H153 H 0.3349 0.2227 0.42189 0.0
H154 H 0.42839 0.09479 0.26072 0.0
H155 H 0.37668 0.10303 0.20587 0.0
H156 H 0.34574 0.03819 0.25867 0.0
H157 H 0.4991 0.29622 0.3829 0.0
H158 H 0.43988 0.30628 0.4198 0.0
H159 H 0.45322 0.31812 0.33478 0.0
C160 C 0.12104 0.4534 0.33012 0.0
C161 C 0.18373 0.49709 0.31828 0.0
C162 C 0.10577 0.40861 0.37763 0.0
C163 C 0.15412 0.40843 0.41509 0.0
C164 C 0.2168 0.45665 0.40804 0.0
C165 C 0.23098 0.49971 0.35912 0.0
C166 C 0.03837 0.35895 0.38474 0.0
C167 C 0.26947 0.46068 0.44965 0.0
C168 C 0.11176 0.29483 0.55333 0.0
C169 C 0.12328 0.2511 0.52592 0.0
C170 C 0.12158 0.34659 0.51839 0.0
C171 C 0.14092 0.3534 0.45362 0.0
C172 C 0.15046 0.30814 0.42532 0.0
C173 C 0.14389 0.25916 0.46249 0.0
C174 C 0.11426 0.39504 0.55227 0.0
C175 C 0.16747 0.31122 0.35543 0.0
H176 H 0.08423 0.45176 0.29959 0.0
H177 H 0.27952 0.53436 0.35146 0.0
H178 H 0.0242 0.35729 0.43528 0.0
H179 H 0.00604 0.36563 0.35262 0.0
H180 H 0.03337 0.31401 0.37332 0.0
H181 H 0.31312 0.5062 0.4464 0.0
H182 H 0.25578 0.45214 0.50082 0.0
H183 H 0.27962 0.42496 0.434 0.0
H184 H 0.09698 0.2897 0.60281 0.0
H185 H 0.15417 0.2265 0.44128 0.0
H186 H 0.09636 0.41717 0.51917 0.0
H187 H 0.16089 0.43136 0.57144 0.0
H188 H 0.08241 0.3757 0.59349 0.0
H189 H 0.13263 0.31487 0.32422 0.0
H190 H 0.16917 0.27031 0.33963 0.0
H191 H 0.21396 0.35264 0.34766 0.0
C192 C 0.8008 0.22687 0.1814 0.0
C193 C 0.83969 0.28512 0.15541 0.0
C194 C 0.8258 0.1983 0.21886 0.0
C195 C 0.89116 0.2294 0.23181 0.0
C196 C 0.93079 0.28823 0.20555 0.0
C197 C 0.90443 0.31538 0.1678 0.0
C198 C 0.7821 0.13447 0.2433 0.0
C199 C 0.00137 0.32208 0.21364 0.0
C200 C 0.95362 0.1834 0.37566 0.0
C201 C 0.98574 0.15914 0.34481 0.0
C202 C 0.92069 0.20501 0.33962 0.0
C203 C 0.9185 0.20012 0.27148 0.0
C204 C 0.94628 0.17063 0.24073 0.0
C205 C 0.981 0.15182 0.27769 0.0
C206 C 0.88961 0.23398 0.3748 0.0
C207 C 0.93919 0.15907 0.16885 0.0
H208 H 0.75061 0.20304 0.17186 0.0
H209 H 0.93495 0.35972 0.14663 0.0
H210 H 0.80363 0.10557 0.2411 0.0
H211 H 0.77157 0.13749 0.2943 0.0
H212 H 0.73694 0.11102 0.21527 0.0
H213 H 0.02059 0.37218 0.21907 0.0
H214 H 0.01795 0.30634 0.25521 0.0
H215 H 0.02128 0.31521 0.16931 0.0
H216 H 0.95659 0.18809 0.4278 0.0
H217 H 0.00422 0.13108 0.25411 0.0
H218 H 0.83914 0.19955 0.37939 0.0
H219 H 0.89348 0.2737 0.34837 0.0
H220 H 0.91009 0.24953 0.42426 0.0
H221 H 0.88872 0.13354 0.15425 0.0
H222 H 0.96062 0.13236 0.1529 0.0
H223 H 0.96125 0.20335 0.14345 0.0
C224 C 0.4865 0.74044 0.29395 0.0
C225 C 0.47206 0.75306 0.23257 0.0
C226 C 0.54881 0.77011 0.31706 0.0
C227 C 0.59734 0.81139 0.27663 0.0
C228 C 0.58287 0.82304 0.21394 0.0
C229 C 0.52013 0.79429 0.19297 0.0
C230 C 0.56267 0.75789 0.38488 0.0
C231 C 0.63355 0.86502 0.16878 0.0
C232 C 0.74638 0.92817 0.36406 0.0
C233 C 0.78027 0.89788 0.36569 0.0
C234 C 0.68759 0.90155 0.33283 0.0
C235 C 0.66298 0.84403 0.30125 0.0
C236 C 0.69924 0.81575 0.29786 0.0
C237 C 0.75742 0.84279 0.33082 0.0
C238 C 0.65009 0.93295 0.3376 0.0
C239 C 0.67521 0.75544 0.26242 0.0
H240 H 0.44903 0.70816 0.32407 0.0
H241 H 0.50868 0.80267 0.14471 0.0
H242 H 0.5938 0.73861 0.38386 0.0
H243 H 0.58779 0.80159 0.41305 0.0
H244 H 0.51943 0.72539 0.41035 0.0
H245 H 0.61405 0.87034 0.12213 0.0
H246 H 0.66349 0.91109 0.19139 0.0
H247 H 0.66432 0.84638 0.15892 0.0
H248 H 0.76383 0.97094 0.39065 0.0
H249 H 0.78389 0.81965 0.3312 0.0
H250 H 0.60842 0.90487 0.36718 0.0
H251 H 0.6328 0.93704 0.28918 0.0
H252 H 0.67785 0.97954 0.3599 0.0
H253 H 0.63644 0.71805 0.28935 0.0
H254 H 0.7124 0.74399 0.25688 0.0
H255 H 0.65611 0.75669 0.21392 0.0
C256 C 0.80568 0.57049 0.2187 0.0
C257 C 0.84384 0.55329 0.18693 0.0
C258 C 0.83118 0.62076 0.26168 0.0
C259 C 0.89659 0.65466 0.27433 0.0
C260 C 0.93516 0.63569 0.24545 0.0
C261 C 0.90843 0.58553 0.2017 0.0
C262 C 0.78832 0.63953 0.2909 0.0
C263 C 0.00512 0.67019 0.25797 0.0
C264 C 0.97066 0.82404 0.31663 0.0
C265 C 0.97834 0.82441 0.38366 0.0
C266 C 0.94351 0.769 0.28075 0.0
C267 C 0.92473 0.7131 0.31269 0.0
C268 C 0.9316 0.71327 0.3808 0.0
C269 C 0.95799 0.76909 0.41566 0.0
C270 C 0.93641 0.77098 0.20843 0.0
C271 C 0.91343 0.65494 0.41645 0.0
H272 H 0.75562 0.54594 0.20838 0.0
H273 H 0.93843 0.57271 0.17785 0.0
H274 H 0.79589 0.64485 0.34398 0.0
H275 H 0.79931 0.68471 0.27179 0.0
H276 H 0.73804 0.60576 0.28006 0.0
H277 H 0.01701 0.68399 0.30952 0.0
H278 H 0.02626 0.64263 0.24406 0.0
H279 H 0.02672 0.71254 0.22904 0.0
H280 H 0.98765 0.86723 0.2921 0.0
H281 H 0.96565 0.76995 0.46744 0.0
H282 H 0.88694 0.73918 0.19272 0.0
H283 H 0.96544 0.75549 0.18455 0.0
H284 H 0.95081 0.81777 0.19143 0.0
H285 H 0.86361 0.62002 0.40557 0.0
H286 H 0.92037 0.6626 0.4695 0.0
H287 H 0.94205 0.63569 0.39994 0.0
C288 C 0.09138 0.68481 0.96827 0.0
C289 C 0.15184 0.72178 0.99549 0.0
C290 C 0.06518 0.70952 0.92566 0.0
C291 C 0.10021 0.77271 0.90992 0.0
C292 C 0.1616 0.80978 0.93625 0.0
C293 C 0.18659 0.78397 0.97822 0.0
C294 C 0.0 0.66786 0.89764 0.0
C295 C 0.2003 0.87748 0.92187 0.0
C296 C 0.05173 0.83551 0.76666 0.0
C297 C 0.01686 0.857 0.79698 0.0
C298 C 0.07898 0.80756 0.80259 0.0
C299 C 0.07152 0.80168 0.8703 0.0
C300 C 0.03805 0.82543 0.90106 0.0
C301 C 0.01106 0.8526 0.86401 0.0
C302 C 0.11337 0.782 0.76781 0.0
C303 C 0.02909 0.8205 0.97301 0.0
H304 H 0.06428 0.63673 0.98065 0.0
H305 H 0.23336 0.81341 -0.00132 0.0
H306 H 0.97186 0.6903 0.89956 0.0
H307 H 0.00325 0.65803 0.84625 0.0
H308 H 0.97484 0.62352 0.9232 0.0
H309 H 0.24837 0.89945 0.94375 0.0
H310 H 0.20397 0.8845 0.86903 0.0
H311 H 0.17693 0.90136 0.94074 0.0
H312 H 0.05469 0.83741 0.71461 0.0
H313 H 0.98335 0.86861 0.88723 0.0
H314 H 0.08847 0.73149 0.7737 0.0
H315 H 0.16129 0.80123 0.78913 0.0
H316 H 0.11692 0.79209 0.71546 0.0
H317 H 0.00328 0.77147 0.98673 0.0
H318 H 0.00262 0.84209 0.98961 0.0
H319 H 0.07531 0.84282 -0.00107 0.0
C320 C 0.51495 0.25286 0.87366 0.0
C321 C 0.53152 0.28803 0.93037 0.0
C322 C 0.45275 0.2221 0.85005 0.0
C323 C 0.40634 0.22467 0.88592 0.0
C324 C 0.42306 0.25956 0.94384 0.0
C325 C 0.48588 0.29179 0.9648 0.0
C326 C 0.43671 0.18697 0.78686 0.0
C327 C 0.37451 0.26142 0.98455 0.0
C328 C 0.2593 0.19185 0.79436 0.0
C329 C 0.22052 0.12845 0.80294 0.0
C330 C 0.31956 0.22404 0.82236 0.0
C331 C 0.34061 0.19237 0.86159 0.0
C332 C 0.30003 0.12936 0.87447 0.0
C333 C 0.24056 0.09773 0.84399 0.0
C334 C 0.36196 0.29099 0.8066 0.0
C335 C 0.32029 0.09489 0.91833 0.0
H336 H 0.55062 0.24968 0.84791 0.0
H337 H 0.49904 0.31791 0.00973 0.0
H338 H 0.40326 0.13753 0.79479 0.0
H339 H 0.41341 0.20346 0.75307 0.0
H340 H 0.4788 0.19184 0.76369 0.0
H341 H 0.39572 0.29181 0.02775 0.0
H342 H 0.3478 0.27766 0.95579 0.0
H343 H 0.34037 0.21443 0.00074 0.0
H344 H 0.24422 0.21579 0.76228 0.0
H345 H 0.21041 0.0488 0.85097 0.0
H346 H 0.40263 0.29681 0.77966 0.0
H347 H 0.38074 0.31911 0.85147 0.0
H348 H 0.33749 0.30926 0.77702 0.0
H349 H 0.35735 0.09015 0.89521 0.0
H350 H 0.28078 0.04827 0.92924 0.0
H351 H 0.34057 0.12076 0.96434 0.0
C352 C 0.08534 0.41121 0.0145 0.0
C353 C 0.14995 0.44537 0.0284 0.0
C354 C 0.05854 0.35538 0.98006 0.0
C355 C 0.0974 0.33316 0.95955 0.0
C356 C 0.16265 0.36772 0.97287 0.0
C357 C 0.18817 0.4237 0.00628 0.0
C358 C 0.98826 0.31914 0.96922 0.0
C359 C 0.20545 0.34471 0.95401 0.0
C360 C 0.01762 0.16126 0.93459 0.0
C361 C 0.01455 0.15588 0.86722 0.0
C362 C 0.04559 0.21894 0.96507 0.0
C363 C 0.0696 0.27228 0.92727 0.0
C364 C 0.0677 0.26729 0.85919 0.0
C365 C 0.04029 0.209 0.82995 0.0
C366 C 0.05122 0.22303 0.03772 0.0
C367 C 0.09537 0.32313 0.81689 0.0
H368 H 0.05531 0.42712 0.03199 0.0
H369 H 0.23826 0.44974 0.0165 0.0
H370 H 0.97391 0.28965 0.92528 0.0
H371 H 0.96653 0.28906 0.01112 0.0
H372 H 0.96911 0.35009 0.96558 0.0
H373 H 0.25357 0.3734 0.9752 0.0
H374 H 0.18633 0.2967 0.96975 0.0
H375 H 0.20876 0.34496 0.90085 0.0
H376 H -0.00122 0.12039 0.96362 0.0
H377 H 0.03848 0.20515 0.77779 0.0
H378 H 0.02858 0.24761 0.0563 0.0
H379 H 0.10141 0.24999 0.05315 0.0
H380 H 0.02976 0.17713 0.06007 0.0
H381 H 0.08848 0.35967 0.83702 0.0
H382 H 0.07478 0.31146 0.7671 0.0
H383 H 0.14647 0.34209 0.81347 0.0
C384 C 0.86653 0.31226 0.8505 0.0
C385 C 0.80383 0.28766 0.86734 0.0
C386 C 0.88318 0.28268 0.80456 0.0
C387 C 0.83611 0.2277 0.77397 0.0
C388 C 0.77244 0.20523 0.78724 0.0
C389 C 0.75711 0.23514 0.8339 0.0
C390 C 0.95138 0.30843 0.79115 0.0
C391 C 0.72052 0.14775 0.75444 0.0
C392 C 0.87402 0.16031 0.62933 0.0
C393 C 0.87661 0.11149 0.65769 0.0
C394 C 0.86148 0.19911 0.6664 0.0
C395 C 0.85338 0.19 0.73372 0.0
C396 C 0.85894 0.14248 0.76285 0.0
C397 C 0.86906 0.10308 0.72433 0.0
C398 C 0.85414 0.24791 0.63299 0.0
C399 C 0.85365 0.13285 0.83481 0.0
H400 H 0.90299 0.35326 0.87511 0.0
H401 H 0.70835 0.21613 0.84547 0.0
H402 H 0.96387 0.27326 0.80205 0.0
H403 H 0.95998 0.3193 0.73934 0.0
H404 H 0.98262 0.35062 0.82013 0.0
H405 H 0.67347 0.1407 0.76369 0.0
H406 H 0.72704 0.14976 0.70159 0.0
H407 H 0.72193 0.10729 0.77229 0.0
H408 H 0.87938 0.16673 0.57772 0.0
H409 H 0.87113 0.06553 0.74654 0.0
H410 H 0.88165 0.29262 0.65888 0.0
H411 H 0.8042 0.23493 0.63331 0.0
H412 H 0.86904 0.25387 0.58216 0.0
H413 H 0.88928 0.17549 0.86054 0.0
H414 H 0.86042 0.09468 0.85008 0.0
H415 H 0.80687 0.12258 0.8502 0.0
C416 C 0.43885 0.65839 0.96857 0.0
C417 C 0.41079 0.69401 0.97476 0.0
C418 C 0.49213 0.6784 0.93165 0.0
C419 C 0.51749 0.735 0.89954 0.0
C420 C 0.48556 0.76779 0.89985 0.0
C421 C 0.43255 0.74697 0.93765 0.0
C422 C 0.52466 0.64193 0.93243 0.0
C423 C 0.51054 0.82777 0.86505 0.0
C424 C 0.69425 0.83195 0.89579 0.0
C425 C 0.70607 0.82294 0.83223 0.0
C426 C 0.63308 0.80311 0.91809 0.0
C427 C 0.58223 0.7647 0.87559 0.0
C428 C 0.59365 0.75483 0.8115 0.0
C429 C 0.65563 0.78383 0.79062 0.0
C430 C 0.62296 0.81404 0.98725 0.0
C431 C 0.54044 0.7145 0.76488 0.0
H432 H 0.42186 0.61677 0.99607 0.0
H433 H 0.41078 0.77443 0.94127 0.0
H434 H 0.54044 0.63921 0.88367 0.0
H435 H 0.56692 0.66529 0.96481 0.0
H436 H 0.49384 0.59458 0.95004 0.0
H437 H 0.475 0.84174 0.86038 0.0
H438 H 0.55197 0.86435 0.89231 0.0
H439 H 0.52596 0.82454 0.81625 0.0
H440 H 0.73296 0.86171 0.92839 0.0
H441 H 0.66446 0.77678 0.74138 0.0
H442 H 0.59731 0.7697 0.01262 0.0
H443 H 0.59379 0.8355 0.98856 0.0
H444 H 0.66771 0.84431 0.0143 0.0
H445 H 0.51115 0.66805 0.78504 0.0
H446 H 0.55735 0.70999 0.7173 0.0
H447 H 0.50975 0.73392 0.75749 0.0
C448 C 0.7932 0.5239 0.82777 0.0
C449 C 0.80758 0.54603 0.89136 0.0
C450 C 0.80076 0.56334 0.77699 0.0
C451 C 0.82491 0.62636 0.79055 0.0
C452 C 0.84071 0.64883 0.85496 0.0
C453 C 0.83086 0.60802 0.90487 0.0
C454 C 0.78062 0.53723 0.70939 0.0
C455 C 0.86721 0.71569 0.8715 0.0
C456 C 0.89638 0.74006 0.65515 0.0
C457 C 0.85108 0.75634 0.6448 0.0
C458 C 0.88826 0.69726 0.70231 0.0
C459 C 0.83249 0.66874 0.73772 0.0
C460 C 0.78546 0.68336 0.72509 0.0
C461 C 0.79601 0.72812 0.67957 0.0
C462 C 0.94061 0.68503 0.71667 0.0
C463 C 0.72464 0.65288 0.76051 0.0
H464 H 0.77408 0.47539 0.81815 0.0
H465 H 0.84136 0.62451 0.95449 0.0
H466 H 0.74331 0.54548 0.69103 0.0
H467 H 0.82046 0.56071 0.67656 0.0
H468 H 0.76256 0.48714 0.70713 0.0
H469 H 0.89042 0.72802 0.92013 0.0
H470 H 0.90152 0.74501 0.8354 0.0
H471 H 0.82897 0.72601 0.87077 0.0
H472 H 0.93945 0.76311 0.6287 0.0
H473 H 0.76127 0.74124 0.67115 0.0
H474 H 0.92355 0.63546 0.71068 0.0
H475 H 0.95678 0.69769 0.76765 0.0
H476 H 0.98118 0.71136 0.68512 0.0
H477 H 0.70471 0.60253 0.7624 0.0
H478 H 0.68929 0.66179 0.73755 0.0
H479 H 0.73337 0.67063 0.81086 0.0
loop_
_geom_bond_atom_site_label_1
_geom_bond_atom_site_label_2
_geom_bond_distance
_geom_bond_site_symmetry_2
_ccdc_geom_bond_type
Sc0 O3 2.025 . S
Sc0 O10 2.105 . S
Sc0 O13 2.105 . S
Sc0 O16 2.105 . S
Sc0 O19 2.105 . S
Sc1 O3 2.025 . S
Sc1 O11 2.105 . S
Sc1 O15 2.105 . S
Sc1 O17 2.105 . S
Sc1 O21 2.105 . S
Sc2 O3 2.025 . S
Sc2 O12 2.105 . S
Sc2 O14 2.105 . S
Sc2 O18 2.105 . S
Sc2 O20 2.105 . S
O3 Sc0 2.025 . S
O3 Sc1 2.025 . S
O3 Sc2 2.025 . S
C4 O10 1.268 . S
C4 O20 1.268 . S
C5 O11 1.268 . S
C5 O19 1.268 . S
C6 O12 1.268 . S
C6 O21 1.268 . S
C7 O13 1.268 . S
C7 O17 1.268 . S
C8 O14 1.268 . S
C8 O16 1.268 . S
C9 O15 1.268 . S
C9 O18 1.268 . S
O10 Sc0 2.105 . S
O10 C4 1.268 . S
O11 Sc1 2.105 . S
O11 C5 1.268 . S
O12 Sc2 2.105 . S
O12 C6 1.268 . S
O13 Sc0 2.105 . S
O13 C7 1.268 . S
O14 Sc2 2.105 . S
O14 C8 1.268 . S
O15 Sc1 2.105 . S
O15 C9 1.268 . S
O16 Sc0 2.105 . S
O16 C8 1.268 . S
O17 Sc1 2.105 . S
O17 C7 1.268 . S
O18 Sc2 2.105 . S
O18 C9 1.268 . S
O19 Sc0 2.105 . S
O19 C5 1.268 . S
O20 Sc2 2.105 . S
O20 C4 1.268 . S
O21 Sc1 2.105 . S
O21 C6 1.268 . S
Sc22 O25 2.025 . S
Sc22 O32 2.105 1_554 S
Sc22 O35 2.105 . S
Sc22 O38 2.105 . S
Sc22 O41 2.105 1_554 S
Sc23 O25 2.025 . S
Sc23 O33 2.105 1_554 S
Sc23 O37 2.105 . S
Sc23 O39 2.105 . S
Sc23 O43 2.105 1_554 S
Sc24 O25 2.025 . S
Sc24 O34 2.105 1_554 S
Sc24 O36 2.105 . S
Sc24 O40 2.105 . S
Sc24 O42 2.105 1_554 S
O25 Sc22 2.025 . S
O25 Sc23 2.025 . S
O25 Sc24 2.025 . S
C26 O32 1.268 . S
C26 O42 1.268 . S
C27 O33 1.268 . S
C27 O41 1.268 . S
C28 O34 1.268 . S
C28 O43 1.268 . S
C29 O35 1.268 . S
C29 O39 1.268 . S
C30 O36 1.268 . S
C30 O38 1.268 . S
C31 O37 1.268 . S
C31 O40 1.268 . S
O32 Sc22 2.105 1_556 S
O32 C26 1.268 . S
O33 Sc23 2.105 1_556 S
O33 C27 1.268 . S
O34 Sc24 2.105 1_556 S
O34 C28 1.268 . S
O35 Sc22 2.105 . S
O35 C29 1.268 . S
O36 Sc24 2.105 . S
O36 C30 1.268 . S
O37 Sc23 2.105 . S
O37 C31 1.268 . S
O38 Sc22 2.105 . S
O38 C30 1.268 . S
O39 Sc23 2.105 . S
O39 C29 1.268 . S
O40 Sc24 2.105 . S
O40 C31 1.268 . S
O41 Sc22 2.105 1_556 S
O41 C27 1.268 . S
O42 Sc24 2.105 1_556 S
O42 C26 1.268 . S
O43 Sc23 2.105 1_556 S
O43 C28 1.268 . S
Zn44 O46 1.933 . S
Zn44 O64 1.985 . S
Zn44 O75 1.955 . S
Zn45 O46 1.911 1_565 S
Zn45 O65 1.970 1_565 S
Zn45 O81 1.945 . S
Zn45 O88 1.981 . S
O46 Zn44 1.933 . S
O46 Zn45 1.911 1_545 S
O46 H47 0.841 1_445 S
H47 O46 0.841 1_665 S
C48 O49 1.246 . S
C48 O77 1.276 . S
O49 C48 1.246 . S
Zn50 O52 1.911 . S
Zn50 O67 1.970 . S
Zn50 O84 1.945 1_655 S
Zn50 O91 1.981 . S
Zn51 O52 1.933 1_545 S
Zn51 O66 1.985 1_545 S
Zn51 O73 1.955 1_655 S
O52 Zn50 1.911 . S
O52 Zn51 1.933 1_565 S
O52 H53 0.841 1_665 S
H53 O52 0.841 1_445 S
Zn54 O55 1.933 . S
Zn54 O68 1.985 . S
Zn54 O77 1.955 . S
O55 Zn54 1.933 . S
O55 Zn56 1.911 . S
O55 H57 0.841 . S
Zn56 O55 1.911 . S
Zn56 O69 1.970 . S
Zn56 O85 1.981 1_545 S
Zn56 O87 1.945 1_545 S
H57 O55 0.841 . S
Zn58 O59 1.933 . S
Zn58 O71 1.985 . S
Zn58 O79 1.955 1_565 S
O59 Zn58 1.933 . S
O59 H60 0.841 . S
O59 Zn61 1.911 . S
H60 O59 0.841 . S
Zn61 O59 1.911 . S
Zn61 O72 1.970 . S
Zn61 O82 1.981 . S
Zn61 O90 1.945 . S
C62 O63 1.246 . S
C62 O79 1.276 . S
O63 C62 1.246 . S
O64 Zn44 1.985 . S
O64 C74 1.245 . S
O65 Zn45 1.970 1_545 S
O65 C74 1.263 . S
O66 Zn51 1.985 1_565 S
O66 C78 1.245 . S
O67 Zn50 1.970 . S
O67 C78 1.263 . S
O68 Zn54 1.985 . S
O68 C83 1.245 . S
O69 Zn56 1.970 . S
O69 C83 1.263 . S
C70 O81 1.262 1_655 S
C70 O82 1.245 . S
O71 Zn58 1.985 . S
O71 C89 1.245 . S
O72 Zn61 1.970 . S
O72 C89 1.263 . S
O73 Zn51 1.955 1_455 S
O73 C92 1.276 . S
C74 O64 1.245 . S
C74 O65 1.263 . S
O75 Zn44 1.955 . S
O75 C94 1.275 1_455 S
C76 O84 1.262 . S
C76 O85 1.245 . S
O77 C48 1.276 . S
O77 Zn54 1.955 . S
C78 O66 1.245 . S
C78 O67 1.263 . S
O79 Zn58 1.955 1_545 S
O79 C62 1.276 . S
C80 O87 1.262 . S
C80 O88 1.245 . S
O81 Zn45 1.945 . S
O81 C70 1.262 1_455 S
O82 Zn61 1.981 . S
O82 C70 1.245 . S
C83 O68 1.245 . S
C83 O69 1.263 . S
O84 Zn50 1.945 1_455 S
O84 C76 1.262 . S
O85 Zn56 1.981 1_565 S
O85 C76 1.245 . S
C86 O90 1.262 . S
C86 O91 1.245 . S
O87 Zn56 1.945 1_565 S
O87 C80 1.262 . S
O88 Zn45 1.981 . S
O88 C80 1.245 . S
C89 O71 1.245 . S
C89 O72 1.263 . S
O90 Zn61 1.945 . S
O90 C86 1.262 . S
O91 Zn50 1.981 . S
O91 C86 1.245 . S
C92 O73 1.276 . S
C92 O93 1.246 . S
O93 C92 1.246 . S
C94 O75 1.275 1_655 S
C94 O95 1.246 . S
O95 C94 1.246 . S
C96 C97 1.391 . S
C96 C98 1.394 . S
C96 H112 0.931 . S
C97 C96 1.391 . S
C97 C101 1.376 . S
C98 C96 1.394 . S
C98 C99 1.369 . S
C98 C102 1.531 . S
C99 C98 1.369 . S
C99 C100 1.410 . S
C99 C107 1.503 . S
C100 C99 1.410 . S
C100 C101 1.392 . S
C100 C103 1.511 . S
C101 C97 1.376 . S
C101 C100 1.392 . S
C101 H113 0.929 . S
C102 C98 1.531 . S
C102 H114 0.960 . S
C102 H115 0.962 . S
C102 H116 0.960 . S
C103 C100 1.511 . S
C103 H117 0.961 . S
C103 H118 0.961 . S
C103 H119 0.961 . S
C104 C105 1.370 . S
C104 C106 1.363 . S
C104 H120 0.931 . S
C105 C104 1.370 . S
C105 C109 1.408 . S
C106 C104 1.363 . S
C106 C107 1.370 . S
C106 C110 1.524 . S
C107 C99 1.503 . S
C107 C106 1.370 . S
C107 C108 1.403 . S
C108 C107 1.403 . S
C108 C109 1.404 . S
C108 C111 1.539 . S
C109 C105 1.408 . S
C109 C108 1.404 . S
C109 H121 0.930 . S
C110 C106 1.524 . S
C110 H122 0.956 . S
C110 H123 0.961 . S
C110 H124 0.961 . S
C111 C108 1.539 . S
C111 H125 0.958 . S
C111 H126 0.961 . S
C111 H127 0.960 . S
H112 C96 0.931 . S
H113 C101 0.929 . S
H114 C102 0.960 . S
H115 C102 0.962 . S
H116 C102 0.960 . S
H117 C103 0.961 . S
H118 C103 0.961 . S
H119 C103 0.961 . S
H120 C104 0.931 . S
H121 C109 0.930 . S
H122 C110 0.956 . S
H123 C110 0.961 . S
H124 C110 0.961 . S
H125 C111 0.958 . S
H126 C111 0.961 . S
H127 C111 0.960 . S
C128 C129 1.391 . S
C128 C130 1.394 . S
C128 H144 0.931 . S
C129 C128 1.391 . S
C129 C133 1.376 . S
C130 C128 1.394 . S
C130 C131 1.369 . S
C130 C134 1.531 . S
C131 C130 1.369 . S
C131 C132 1.410 . S
C131 C139 1.503 . S
C132 C131 1.410 . S
C132 C133 1.392 . S
C132 C135 1.511 . S
C133 C129 1.376 . S
C133 C132 1.392 . S
C133 H145 0.929 . S
C134 C130 1.531 . S
C134 H146 0.960 . S
C134 H147 0.962 . S
C134 H148 0.960 . S
C135 C132 1.511 . S
C135 H149 0.961 . S
C135 H150 0.961 . S
C135 H151 0.961 . S
C136 C137 1.370 . S
C136 C138 1.363 . S
C136 H152 0.931 . S
C137 C136 1.370 . S
C137 C141 1.408 . S
C138 C136 1.363 . S
C138 C139 1.370 . S
C138 C142 1.524 . S
C139 C131 1.503 . S
C139 C138 1.370 . S
C139 C140 1.403 . S
C140 C139 1.403 . S
C140 C141 1.404 . S
C140 C143 1.539 . S
C141 C137 1.408 . S
C141 C140 1.404 . S
C141 H153 0.930 . S
C142 C138 1.524 . S
C142 H154 0.956 . S
C142 H155 0.961 . S
C142 H156 0.961 . S
C143 C140 1.539 . S
C143 H157 0.958 . S
C143 H158 0.961 . S
C143 H159 0.960 . S
H144 C128 0.931 . S
H145 C133 0.929 . S
H146 C134 0.960 . S
H147 C134 0.962 . S
H148 C134 0.960 . S
H149 C135 0.961 . S
H150 C135 0.961 . S
H151 C135 0.961 . S
H152 C136 0.931 . S
H153 C141 0.930 . S
H154 C142 0.956 . S
H155 C142 0.961 . S
H156 C142 0.961 . S
H157 C143 0.958 . S
H158 C143 0.961 . S
H159 C143 0.960 . S
C160 C161 1.391 . S
C160 C162 1.394 . S
C160 H176 0.931 . S
C161 C160 1.391 . S
C161 C165 1.376 . S
C162 C160 1.394 . S
C162 C163 1.369 . S
C162 C166 1.531 . S
C163 C162 1.369 . S
C163 C164 1.410 . S
C163 C171 1.503 . S
C164 C163 1.410 . S
C164 C165 1.392 . S
C164 C167 1.511 . S
C165 C161 1.376 . S
C165 C164 1.392 . S
C165 H177 0.929 . S
C166 C162 1.531 . S
C166 H178 0.960 . S
C166 H179 0.962 . S
C166 H180 0.960 . S
C167 C164 1.511 . S
C167 H181 0.961 . S
C167 H182 0.961 . S
C167 H183 0.961 . S
C168 C169 1.370 . S
C168 C170 1.363 . S
C168 H184 0.931 . S
C169 C168 1.370 . S
C169 C173 1.408 . S
C170 C168 1.363 . S
C170 C171 1.370 . S
C170 C174 1.524 . S
C171 C163 1.503 . S
C171 C170 1.370 . S
C171 C172 1.403 . S
C172 C171 1.403 . S
C172 C173 1.404 . S
C172 C175 1.539 . S
C173 C169 1.408 . S
C173 C172 1.404 . S
C173 H185 0.930 . S
C174 C170 1.524 . S
C174 H186 0.956 . S
C174 H187 0.961 . S
C174 H188 0.961 . S
C175 C172 1.539 . S
C175 H189 0.958 . S
C175 H190 0.961 . S
C175 H191 0.960 . S
H176 C160 0.931 . S
H177 C165 0.929 . S
H178 C166 0.960 . S
H179 C166 0.962 . S
H180 C166 0.960 . S
H181 C167 0.961 . S
H182 C167 0.961 . S
H183 C167 0.961 . S
H184 C168 0.931 . S
H185 C173 0.930 . S
H186 C174 0.956 . S
H187 C174 0.961 . S
H188 C174 0.961 . S
H189 C175 0.958 . S
H190 C175 0.961 . S
H191 C175 0.960 . S
C192 C193 1.391 . S
C192 C194 1.394 . S
C192 H208 0.931 . S
C193 C192 1.391 . S
C193 C197 1.376 . S
C194 C192 1.394 . S
C194 C195 1.369 . S
C194 C198 1.531 . S
C195 C194 1.369 . S
C195 C196 1.410 . S
C195 C203 1.503 . S
C196 C195 1.410 . S
C196 C197 1.392 . S
C196 C199 1.511 . S
C197 C193 1.376 . S
C197 C196 1.392 . S
C197 H209 0.929 . S
C198 C194 1.531 . S
C198 H210 0.960 . S
C198 H211 0.962 . S
C198 H212 0.960 . S
C199 C196 1.511 . S
C199 H213 0.961 . S
C199 H214 0.961 . S
C199 H215 0.961 . S
C200 C201 1.370 . S
C200 C202 1.363 . S
C200 H216 0.931 . S
C201 C200 1.370 . S
C201 C205 1.408 . S
C202 C200 1.363 . S
C202 C203 1.370 . S
C202 C206 1.524 . S
C203 C195 1.503 . S
C203 C202 1.370 . S
C203 C204 1.403 . S
C204 C203 1.403 . S
C204 C205 1.404 . S
C204 C207 1.539 . S
C205 C201 1.408 . S
C205 C204 1.404 . S
C205 H217 0.930 . S
C206 C202 1.524 . S
C206 H218 0.956 . S
C206 H219 0.961 . S
C206 H220 0.961 . S
C207 C204 1.539 . S
C207 H221 0.958 . S
C207 H222 0.961 . S
C207 H223 0.960 . S
H208 C192 0.931 . S
H209 C197 0.929 . S
H210 C198 0.960 . S
H211 C198 0.962 . S
H212 C198 0.960 . S
H213 C199 0.961 . S
H214 C199 0.961 . S
H215 C199 0.961 . S
H216 C200 0.931 . S
H217 C205 0.930 . S
H218 C206 0.956 . S
H219 C206 0.961 . S
H220 C206 0.961 . S
H221 C207 0.958 . S
H222 C207 0.961 . S
H223 C207 0.960 . S
C224 C225 1.391 . S
C224 C226 1.394 . S
C224 H240 0.931 . S
C225 C224 1.391 . S
C225 C229 1.376 . S
C226 C224 1.394 . S
C226 C227 1.369 . S
C226 C230 1.531 . S
C227 C226 1.369 . S
C227 C228 1.410 . S
C227 C235 1.503 . S
C228 C227 1.410 . S
C228 C229 1.392 . S
C228 C231 1.511 . S
C229 C225 1.376 . S
C229 C228 1.392 . S
C229 H241 0.929 . S
C230 C226 1.531 . S
C230 H242 0.960 . S
C230 H243 0.962 . S
C230 H244 0.960 . S
C231 C228 1.511 . S
C231 H245 0.961 . S
C231 H246 0.961 . S
C231 H247 0.961 . S
C232 C233 1.370 . S
C232 C234 1.363 . S
C232 H248 0.931 . S
C233 C232 1.370 . S
C233 C237 1.408 . S
C234 C232 1.363 . S
C234 C235 1.370 . S
C234 C238 1.524 . S
C235 C227 1.503 . S
C235 C234 1.370 . S
C235 C236 1.403 . S
C236 C235 1.403 . S
C236 C237 1.404 . S
C236 C239 1.539 . S
C237 C233 1.408 . S
C237 C236 1.404 . S
C237 H249 0.930 . S
C238 C234 1.524 . S
C238 H250 0.956 . S
C238 H251 0.961 . S
C238 H252 0.961 . S
C239 C236 1.539 . S
C239 H253 0.958 . S
C239 H254 0.961 . S
C239 H255 0.960 . S
H240 C224 0.931 . S
H241 C229 0.929 . S
H242 C230 0.960 . S
H243 C230 0.962 . S
H244 C230 0.960 . S
H245 C231 0.961 . S
H246 C231 0.961 . S
H247 C231 0.961 . S
H248 C232 0.931 . S
H249 C237 0.930 . S
H250 C238 0.956 . S
H251 C238 0.961 . S
H252 C238 0.961 . S
H253 C239 0.958 . S
H254 C239 0.961 . S
H255 C239 0.960 . S
C256 C257 1.391 . S
C256 C258 1.394 . S
C256 H272 0.931 . S
C257 C256 1.391 . S
C257 C261 1.376 . S
C258 C256 1.394 . S
C258 C259 1.369 . S
C258 C262 1.531 . S
C259 C258 1.369 . S
C259 C260 1.410 . S
C259 C267 1.503 . S
C260 C259 1.410 . S
C260 C261 1.392 . S
C260 C263 1.511 . S
C261 C257 1.376 . S
C261 C260 1.392 . S
C261 H273 0.929 . S
C262 C258 1.531 . S
C262 H274 0.960 . S
C262 H275 0.962 . S
C262 H276 0.960 . S
C263 C260 1.511 . S
C263 H277 0.961 . S
C263 H278 0.961 . S
C263 H279 0.961 . S
C264 C265 1.370 . S
C264 C266 1.363 . S
C264 H280 0.931 . S
C265 C264 1.370 . S
C265 C269 1.408 . S
C266 C264 1.363 . S
C266 C267 1.370 . S
C266 C270 1.524 . S
C267 C259 1.503 . S
C267 C266 1.370 . S
C267 C268 1.403 . S
C268 C267 1.403 . S
C268 C269 1.404 . S
C268 C271 1.539 . S
C269 C265 1.408 . S
C269 C268 1.404 . S
C269 H281 0.930 . S
C270 C266 1.524 . S
C270 H282 0.956 . S
C270 H283 0.961 . S
C270 H284 0.961 . S
C271 C268 1.539 . S
C271 H285 0.958 . S
C271 H286 0.961 1_655 S
C271 H287 0.960 . S
H272 C256 0.931 . S
H273 C261 0.929 . S
H274 C262 0.960 . S
H275 C262 0.962 . S
H276 C262 0.960 . S
H277 C263 0.961 . S
H278 C263 0.961 . S
H279 C263 0.961 . S
H280 C264 0.931 . S
H281 C269 0.930 . S
H282 C270 0.956 . S
H283 C270 0.961 . S
H284 C270 0.961 . S
H285 C271 0.958 . S
H286 C271 0.961 1_455 S
H287 C271 0.960 . S
C288 C289 1.391 . S
C288 C290 1.394 . S
C288 H304 0.931 . S
C289 C288 1.391 . S
C289 C293 1.376 . S
C290 C288 1.394 . S
C290 C291 1.369 . S
C290 C294 1.531 . S
C291 C290 1.369 . S
C291 C292 1.410 . S
C291 C299 1.503 . S
C292 C291 1.410 . S
C292 C293 1.392 . S
C292 C295 1.511 . S
C293 C289 1.376 . S
C293 C292 1.392 . S
C293 H305 0.929 1_556 S
C294 C290 1.531 . S
C294 H306 0.960 . S
C294 H307 0.962 . S
C294 H308 0.960 . S
C295 C292 1.511 . S
C295 H309 0.961 . S
C295 H310 0.961 . S
C295 H311 0.961 . S
C296 C297 1.370 . S
C296 C298 1.363 . S
C296 H312 0.931 . S
C297 C296 1.370 . S
C297 C301 1.408 . S
C298 C296 1.363 . S
C298 C299 1.370 . S
C298 C302 1.524 . S
C299 C291 1.503 . S
C299 C298 1.370 . S
C299 C300 1.403 . S
C300 C299 1.403 . S
C300 C301 1.404 . S
C300 C303 1.539 . S
C301 C297 1.408 . S
C301 C300 1.404 . S
C301 H313 0.930 . S
C302 C298 1.524 . S
C302 H314 0.956 . S
C302 H315 0.961 . S
C302 H316 0.961 . S
C303 C300 1.539 . S
C303 H317 0.958 . S
C303 H318 0.961 . S
C303 H319 0.960 . S
H304 C288 0.931 . S
H305 C293 0.929 1_554 S
H306 C294 0.960 . S
H307 C294 0.962 . S
H308 C294 0.960 . S
H309 C295 0.961 . S
H310 C295 0.961 . S
H311 C295 0.961 . S
H312 C296 0.931 . S
H313 C301 0.930 . S
H314 C302 0.956 . S
H315 C302 0.961 . S
H316 C302 0.961 . S
H317 C303 0.958 . S
H318 C303 0.961 . S
H319 C303 0.960 . S
C320 C321 1.391 . S
C320 C322 1.394 . S
C320 H336 0.931 . S
C321 C320 1.391 . S
C321 C325 1.376 . S
C322 C320 1.394 . S
C322 C323 1.369 . S
C322 C326 1.531 . S
C323 C322 1.369 . S
C323 C324 1.410 . S
C323 C331 1.503 . S
C324 C323 1.410 . S
C324 C325 1.392 . S
C324 C327 1.511 . S
C325 C321 1.376 . S
C325 C324 1.392 . S
C325 H337 0.929 . S
C326 C322 1.531 . S
C326 H338 0.960 . S
C326 H339 0.962 . S
C326 H340 0.960 . S
C327 C324 1.511 . S
C327 H341 0.961 . S
C327 H342 0.961 . S
C327 H343 0.961 . S
C328 C329 1.370 . S
C328 C330 1.363 . S
C328 H344 0.931 . S
C329 C328 1.370 . S
C329 C333 1.408 . S
C330 C328 1.363 . S
C330 C331 1.370 . S
C330 C334 1.524 . S
C331 C323 1.503 . S
C331 C330 1.370 . S
C331 C332 1.403 . S
C332 C331 1.403 . S
C332 C333 1.404 . S
C332 C335 1.539 . S
C333 C329 1.408 . S
C333 C332 1.404 . S
C333 H345 0.930 . S
C334 C330 1.524 . S
C334 H346 0.956 . S
C334 H347 0.961 . S
C334 H348 0.961 . S
C335 C332 1.539 . S
C335 H349 0.958 . S
C335 H350 0.961 . S
C335 H351 0.960 . S
H336 C320 0.931 . S
H337 C325 0.929 . S
H338 C326 0.960 . S
H339 C326 0.962 . S
H340 C326 0.960 . S
H341 C327 0.961 . S
H342 C327 0.961 . S
H343 C327 0.961 . S
H344 C328 0.931 . S
H345 C333 0.930 . S
H346 C334 0.956 . S
H347 C334 0.961 . S
H348 C334 0.961 . S
H349 C335 0.958 . S
H350 C335 0.961 . S
H351 C335 0.960 . S
C352 C353 1.391 1_554 S
C352 C354 1.394 1_554 S
C352 H368 0.931 . S
C353 C352 1.391 1_556 S
C353 C357 1.376 . S
C354 C352 1.394 1_556 S
C354 C355 1.369 . S
C354 C358 1.531 . S
C355 C354 1.369 . S
C355 C356 1.410 . S
C355 C363 1.503 . S
C356 C355 1.410 . S
C356 C357 1.392 . S
C356 C359 1.511 . S
C357 C353 1.376 . S
C357 C356 1.392 . S
C357 H369 0.929 . S
C358 C354 1.531 . S
C358 H370 0.960 . S
C358 H371 0.962 . S
C358 H372 0.960 1_556 S
C359 C356 1.511 . S
C359 H373 0.961 . S
C359 H374 0.961 . S
C359 H375 0.961 . S
C360 C361 1.370 . S
C360 C362 1.363 . S
C360 H376 0.931 . S
C361 C360 1.370 . S
C361 C365 1.408 . S
C362 C360 1.363 . S
C362 C363 1.370 . S
C362 C366 1.524 . S
C363 C355 1.503 . S
C363 C362 1.370 . S
C363 C364 1.403 . S
C364 C363 1.403 . S
C364 C365 1.404 . S
C364 C367 1.539 . S
C365 C361 1.408 . S
C365 C364 1.404 . S
C365 H377 0.930 . S
C366 C362 1.524 . S
C366 H378 0.956 . S
C366 H379 0.961 . S
C366 H380 0.961 . S
C367 C364 1.539 . S
C367 H381 0.958 . S
C367 H382 0.961 . S
C367 H383 0.960 . S
H368 C352 0.931 . S
H369 C357 0.929 . S
H370 C358 0.960 . S
H371 C358 0.962 . S
H372 C358 0.960 1_554 S
H373 C359 0.961 . S
H374 C359 0.961 . S
H375 C359 0.961 . S
H376 C360 0.931 . S
H377 C365 0.930 . S
H378 C366 0.956 . S
H379 C366 0.961 . S
H380 C366 0.961 . S
H381 C367 0.958 . S
H382 C367 0.961 . S
H383 C367 0.960 . S
C384 C385 1.391 . S
C384 C386 1.394 . S
C384 H400 0.931 . S
C385 C384 1.391 . S
C385 C389 1.376 . S
C386 C384 1.394 . S
C386 C387 1.369 . S
C386 C390 1.531 . S
C387 C386 1.369 . S
C387 C388 1.410 . S
C387 C395 1.503 . S
C388 C387 1.410 . S
C388 C389 1.392 . S
C388 C391 1.511 . S
C389 C385 1.376 . S
C389 C388 1.392 . S
C389 H401 0.929 . S
C390 C386 1.531 . S
C390 H402 0.960 . S
C390 H403 0.962 . S
C390 H404 0.960 . S
C391 C388 1.511 . S
C391 H405 0.961 . S
C391 H406 0.961 . S
C391 H407 0.961 . S
C392 C393 1.370 . S
C392 C394 1.363 . S
C392 H408 0.931 . S
C393 C392 1.370 . S
C393 C397 1.408 . S
C394 C392 1.363 . S
C394 C395 1.370 . S
C394 C398 1.524 . S
C395 C387 1.503 . S
C395 C394 1.370 . S
C395 C396 1.403 . S
C396 C395 1.403 . S
C396 C397 1.404 . S
C396 C399 1.539 . S
C397 C393 1.408 . S
C397 C396 1.404 . S
C397 H409 0.930 . S
C398 C394 1.524 . S
C398 H410 0.956 . S
C398 H411 0.961 . S
C398 H412 0.961 . S
C399 C396 1.539 . S
C399 H413 0.958 . S
C399 H414 0.961 . S
C399 H415 0.960 . S
H400 C384 0.931 . S
H401 C389 0.929 . S
H402 C390 0.960 . S
H403 C390 0.962 . S
H404 C390 0.960 . S
H405 C391 0.961 . S
H406 C391 0.961 . S
H407 C391 0.961 . S
H408 C392 0.931 . S
H409 C397 0.930 . S
H410 C398 0.956 . S
H411 C398 0.961 . S
H412 C398 0.961 . S
H413 C399 0.958 . S
H414 C399 0.961 . S
H415 C399 0.960 . S
C416 C417 1.391 1_556 S
C416 C418 1.394 . S
C416 H432 0.931 1_556 S
C417 C416 1.391 1_554 S
C417 C421 1.376 1_554 S
C418 C416 1.394 . S
C418 C419 1.369 . S
C418 C422 1.531 . S
C419 C418 1.369 . S
C419 C420 1.410 . S
C419 C427 1.503 . S
C420 C419 1.410 . S
C420 C421 1.392 . S
C420 C423 1.511 . S
C421 C417 1.376 1_556 S
C421 C420 1.392 . S
C421 H433 0.929 1_556 S
C422 C418 1.531 . S
C422 H434 0.960 . S
C422 H435 0.962 . S
C422 H436 0.960 . S
C423 C420 1.511 . S
C423 H437 0.961 . S
C423 H438 0.961 . S
C423 H439 0.961 . S
C424 C425 1.370 . S
C424 C426 1.363 . S
C424 H440 0.931 . S
C425 C424 1.370 . S
C425 C429 1.408 . S
C426 C424 1.363 . S
C426 C427 1.370 . S
C426 C430 1.524 1_556 S
C427 C419 1.503 . S
C427 C426 1.370 . S
C427 C428 1.403 . S
C428 C427 1.403 . S
C428 C429 1.404 . S
C428 C431 1.539 . S
C429 C425 1.408 . S
C429 C428 1.404 . S
C429 H441 0.930 . S
C430 C426 1.524 1_554 S
C430 H442 0.956 . S
C430 H443 0.961 . S
C430 H444 0.961 . S
C431 C428 1.539 . S
C431 H445 0.958 . S
C431 H446 0.961 . S
C431 H447 0.960 . S
H432 C416 0.931 1_554 S
H433 C421 0.929 1_554 S
H434 C422 0.960 . S
H435 C422 0.962 . S
H436 C422 0.960 . S
H437 C423 0.961 . S
H438 C423 0.961 . S
H439 C423 0.961 . S
H440 C424 0.931 . S
H441 C429 0.930 . S
H442 C430 0.956 . S
H443 C430 0.961 . S
H444 C430 0.961 . S
H445 C431 0.958 . S
H446 C431 0.961 . S
H447 C431 0.960 . S
C448 C449 1.391 . S
C448 C450 1.394 . S
C448 H464 0.931 . S
C449 C448 1.391 . S
C449 C453 1.376 . S
C450 C448 1.394 . S
C450 C451 1.369 . S
C450 C454 1.531 . S
C451 C450 1.369 . S
C451 C452 1.410 . S
C451 C459 1.503 . S
C452 C451 1.410 . S
C452 C453 1.392 . S
C452 C455 1.511 . S
C453 C449 1.376 . S
C453 C452 1.392 . S
C453 H465 0.929 . S
C454 C450 1.531 . S
C454 H466 0.960 . S
C454 H467 0.962 . S
C454 H468 0.960 . S
C455 C452 1.511 . S
C455 H469 0.961 . S
C455 H470 0.961 . S
C455 H471 0.961 . S
C456 C457 1.370 . S
C456 C458 1.363 . S
C456 H472 0.931 . S
C457 C456 1.370 . S
C457 C461 1.408 . S
C458 C456 1.363 . S
C458 C459 1.370 . S
C458 C462 1.524 . S
C459 C451 1.503 . S
C459 C458 1.370 . S
C459 C460 1.403 . S
C460 C459 1.403 . S
C460 C461 1.404 . S
C460 C463 1.539 . S
C461 C457 1.408 . S
C461 C460 1.404 . S
C461 H473 0.930 . S
C462 C458 1.524 . S
C462 H474 0.956 . S
C462 H475 0.961 . S
C462 H476 0.961 . S
C463 C460 1.539 . S
C463 H477 0.958 . S
C463 H478 0.961 . S
C463 H479 0.960 . S
H464 C448 0.931 . S
H465 C453 0.929 . S
H466 C454 0.960 . S
H467 C454 0.962 . S
H468 C454 0.960 . S
H469 C455 0.961 . S
H470 C455 0.961 . S
H471 C455 0.961 . S
H472 C456 0.931 . S
H473 C461 0.930 . S
H474 C462 0.956 . S
H475 C462 0.961 . S
H476 C462 0.961 . S
H477 C463 0.958 . S
H478 C463 0.961 . S
H479 C463 0.960 . S
C97 C7 1.408 . S
C105 C80 1.442 . S
C137 C74 1.697 . S
C129 C30 1.642 . S
C169 C48 1.474 . S
C161 C9 1.442 . S
C201 C94 1.905 . S
C193 C29 1.963 . S
C233 C89 0.305 . S
C225 C8 0.395 . S
C257 C31 1.886 . S
C265 C70 1.848 . S
C289 C5 1.867 1_556 S
C297 C76 1.837 . S
C321 C26 0.292 . S
C329 C83 0.325 . S
C353 C6 1.975 1_556 S
C361 C92 1.917 . S
C385 C27 1.437 . S
C393 C62 1.476 . S
C425 C78 1.690 . S
C417 C4 1.670 . S
C449 C28 1.420 . S
C457 C86 1.441 . S
