# Generated by pormake.
# Topology anh, (6,3)-cn, num edge types: 1
# Building blocks:
#     Node 0, Type 0, BuildingBlock: CUKXOW_clean_sbu_0, # of connection points: 6
#     Node 1, Type 0, BuildingBlock: CUKXOW_clean_sbu_0, # of connection points: 6
#     Node 2, Type 0, BuildingBlock: CUKXOW_clean_sbu_0, # of connection points: 6
#     Node 3, Type 1, BuildingBlock: OLANEW_clean_sbu_2, # of connection points: 3
#     Node 4, Type 1, BuildingBlock: OLANEW_clean_sbu_2, # of connection points: 3
#     Node 5, Type 1, BuildingBlock: OLANEW_clean_sbu_2, # of connection points: 3
#     Node 6, Type 1, BuildingBlock: OLANEW_clean_sbu_2, # of connection points: 3
#     Node 7, Type 1, BuildingBlock: OLANEW_clean_sbu_2, # of connection points: 3
#     Node 8, Type 1, BuildingBlock: OLANEW_clean_sbu_2, # of connection points: 3
#     Edge 9, Type (0, 1), BuildingBlock: KIFKEQ_clean_linker_1, # of connection points: 2
#     Edge 10, Type (0, 1), BuildingBlock: KIFKEQ_clean_linker_1, # of connection points: 2
#     Edge 11, Type (0, 1), BuildingBlock: KIFKEQ_clean_linker_1, # of connection points: 2
#     Edge 12, Type (0, 1), BuildingBlock: KIFKEQ_clean_linker_1, # of connection points: 2
#     Edge 13, Type (0, 1), BuildingBlock: KIFKEQ_clean_linker_1, # of connection points: 2
#     Edge 14, Type (0, 1), BuildingBlock: KIFKEQ_clean_linker_1, # of connection points: 2
#     Edge 15, Type (0, 1), BuildingBlock: KIFKEQ_clean_linker_1, # of connection points: 2
#     Edge 16, Type (0, 1), BuildingBlock: KIFKEQ_clean_linker_1, # of connection points: 2
#     Edge 17, Type (0, 1), BuildingBlock: KIFKEQ_clean_linker_1, # of connection points: 2
#     Edge 18, Type (0, 1), BuildingBlock: KIFKEQ_clean_linker_1, # of connection points: 2
#     Edge 19, Type (0, 1), BuildingBlock: KIFKEQ_clean_linker_1, # of connection points: 2
#     Edge 20, Type (0, 1), BuildingBlock: KIFKEQ_clean_linker_1, # of connection points: 2
#     Edge 21, Type (0, 1), BuildingBlock: KIFKEQ_clean_linker_1, # of connection points: 2
#     Edge 22, Type (0, 1), BuildingBlock: KIFKEQ_clean_linker_1, # of connection points: 2
#     Edge 23, Type (0, 1), BuildingBlock: KIFKEQ_clean_linker_1, # of connection points: 2
#     Edge 24, Type (0, 1), BuildingBlock: KIFKEQ_clean_linker_1, # of connection points: 2
#     Edge 25, Type (0, 1), BuildingBlock: KIFKEQ_clean_linker_1, # of connection points: 2
#     Edge 26, Type (0, 1), BuildingBlock: KIFKEQ_clean_linker_1, # of connection points: 2
# Relax obj value: 0.080
# Max RMSD: 0.150
# Mean RMSD: 0.110
data_MOF--net-anh--node1-CUKXOW_clean_sbu_0--node2-OLANEW_clean_sbu_2--edge1-KIFKEQ_clean_linker_1
_symmetry_space_group_name_H-M    P1
_symmetry_Int_Tables_number       1
_symmetry_cell_setting            triclinic
loop_
_symmetry_equiv_pos_as_xyz
'x, y, z'
_cell_length_a     33.440593
_cell_length_b     32.259675
_cell_length_c     50.78951
_cell_angle_alpha  95.245172
_cell_angle_beta   89.949282
_cell_angle_gamma 116.36276
loop_
_atom_site_label
_atom_site_type_symbol
_atom_site_fract_x
_atom_site_fract_y
_atom_site_fract_z
_atom_type_partial_charge
Tb0 Tb 0.07122 0.54824 0.16484 0.0
C1 C 0.03368 0.50451 0.21854 0.0
Tb2 Tb 0.99944 0.44708 0.16289 0.0
O3 O 0.02211 0.57097 0.15196 0.0
O4 O 0.00273 0.51337 0.17316 0.0
O5 O 0.0669 0.53729 0.20696 0.0
C6 C 0.92047 0.37205 0.15577 0.0
O7 O -1e-05 0.46936 0.20476 0.0
C8 C 0.08266 0.45936 0.1664 0.0
C9 C 0.03744 0.49121 0.10913 0.0
O10 O 0.95515 0.3744 0.16856 0.0
O11 O 0.93059 0.4116 0.14667 0.0
O12 O 0.04907 0.42356 0.17435 0.0
O13 O 0.06749 0.48193 0.15433 0.0
O14 O 0.00441 0.458 0.12067 0.0
O15 O 0.07085 0.52659 0.12297 0.0
C16 C 0.14887 0.62479 0.1722 0.0
O17 O 0.11271 0.62239 0.1613 0.0
O18 O 0.14113 0.58431 0.17915 0.0
C19 C 0.98836 0.53586 0.1603 0.0
Tb20 Tb 0.46949 -0.0004 0.50247 0.0
C21 C 0.52726 0.04516 0.45473 0.0
Tb22 Tb 0.56887 0.07996 0.51383 0.0
O23 O 0.43671 0.04677 0.504 0.0
O24 O 0.50357 0.07063 0.51112 0.0
O25 O 0.49416 0.00721 0.46269 0.0
C26 C 0.64485 0.15813 0.51621 0.0
O27 O 0.55661 0.07972 0.47137 0.0
C28 C 0.55671 0.9939 0.514 0.0
C29 C 0.5101 0.03711 0.5617 0.0
O30 O 0.63963 0.11746 0.50618 0.0
O31 O 0.60718 0.15488 0.52509 0.0
O32 O 0.58886 0.02919 0.52748 0.0
O33 O 0.53607 0.00838 0.49957 0.0
O34 O 0.54456 0.0741 0.55385 0.0
O35 O 0.48037 0.00299 0.54509 0.0
C36 C 0.40002 0.91571 0.49724 0.0
O37 O 0.43437 0.92868 0.51349 0.0
O38 O 0.40502 0.94989 0.48369 0.0
C39 C 0.4742 0.08411 0.50908 0.0
Tb40 Tb 0.50543 0.53286 0.83141 0.0
C41 C 0.55101 0.52801 0.88369 0.0
Tb42 Tb 0.60463 0.5546 0.83069 0.0
O43 O 0.48669 0.46043 0.83783 0.0
O44 O 0.5432 0.49846 0.81707 0.0
O45 O 0.51773 0.53399 0.87334 0.0
C46 C 0.68128 0.54842 0.83054 0.0
O47 O 0.58546 0.52963 0.86983 0.0
C48 C 0.58861 0.62706 0.83521 0.0
C49 C 0.55809 0.5591 0.77849 0.0
O50 O 0.67305 0.57753 0.84626 0.0
O51 O 0.6465 0.52295 0.81516 0.0
O52 O 0.62414 0.62739 0.82461 0.0
O53 O 0.56701 0.58909 0.84478 0.0
O54 O 0.59154 0.55333 0.78871 0.0
O55 O 0.52442 0.55833 0.79265 0.0
C56 C 0.42667 0.53402 0.82715 0.0
O57 O 0.43723 0.50375 0.81454 0.0
O58 O 0.46021 0.5633 0.84247 0.0
C59 C 0.5219 0.4607 0.82688 0.0
O60 O 0.52985 0.07542 0.24598 0.0
Cd61 Cd 0.5242 0.07305 0.19783 0.0
O62 O 0.55029 0.0192 0.24348 0.0
Cd63 Cd 0.52554 0.99603 0.20251 0.0
O64 O 0.46393 0.93693 0.1867 0.0
C65 C 0.444 0.91056 0.20445 0.0
O66 O 0.46236 0.92142 0.22854 0.0
C67 C 0.54389 0.05047 0.25726 0.0
C68 C 0.6071 0.13311 0.18026 0.0
O69 O 0.57772 0.14727 0.18636 0.0
O70 O 0.5969 0.09018 0.18192 0.0
O71 O 0.53668 0.52412 0.5658 0.0
Cd72 Cd 0.52742 0.50503 0.51796 0.0
O73 O 0.50378 0.57016 0.57073 0.0
Cd74 Cd 0.49366 0.57663 0.52923 0.0
O75 O 0.49422 0.63553 0.51099 0.0
C76 C 0.53171 0.67138 0.51191 0.0
O77 O 0.56721 0.6686 0.52088 0.0
C78 C 0.52326 0.54883 0.58067 0.0
C79 C 0.51678 0.41399 0.5088 0.0
O80 O 0.55571 0.44864 0.51095 0.0
O81 O 0.48277 0.42242 0.50998 0.0
O82 O 0.04534 0.50897 0.8994 0.0
Cd83 Cd 0.04275 0.51433 0.85177 0.0
O84 O 0.01847 0.43275 0.89623 0.0
Cd85 Cd 0.99495 0.42861 0.85578 0.0
O86 O 0.94664 0.44643 0.83744 0.0
C87 C 0.94179 0.47918 0.85065 0.0
O88 O 0.96547 0.49845 0.87288 0.0
C89 C 0.03552 0.4718 0.91024 0.0
C90 C 0.12294 0.52123 0.83308 0.0
O91 O 0.11815 0.55782 0.84034 0.0
O92 O 0.08911 0.48151 0.83373 0.0
O93 O 0.03466 0.52141 0.43095 0.0
Cd94 Cd 0.03956 0.53335 0.47912 0.0
O95 O 0.98958 0.55386 0.42728 0.0
Cd96 Cd 0.97098 0.54494 0.46826 0.0
O97 O 0.92291 0.48946 0.48956 0.0
C98 C 0.91109 0.44963 0.47698 0.0
O99 O 0.92984 0.44694 0.45454 0.0
C100 C 0.01436 0.53705 0.41663 0.0
C101 C 0.11709 0.6156 0.49157 0.0
O102 O 0.11798 0.57614 0.48976 0.0
O103 O 0.07917 0.61594 0.48866 0.0
O104 O 0.44413 0.93874 0.7587 0.0
Cd105 Cd 0.43626 0.92194 0.80481 0.0
O106 O 0.49866 0.00619 0.77308 0.0
Cd107 Cd 0.54438 0.07878 0.76969 0.0
O108 O 0.56136 0.15241 0.77497 0.0
C109 C 0.56336 0.17063 0.79848 0.0
O110 O 0.55827 0.14522 0.81817 0.0
C111 C 0.47424 0.97822 0.75391 0.0
C112 C 0.47037 0.86007 0.81448 0.0
O113 O 0.42884 0.8455 0.80826 0.0
O114 O 0.49568 0.90398 0.81629 0.0
O115 O 0.56598 0.47983 0.0912 0.0
Cd116 Cd 0.57926 0.4717 0.13747 0.0
O117 O 0.50336 0.48789 0.09073 0.0
Cd118 Cd 0.47613 0.47959 0.13027 0.0
O119 O 0.41358 0.4748 0.14717 0.0
C120 C 0.388 0.47995 0.13059 0.0
O121 O 0.40128 0.48742 0.10637 0.0
C122 C 0.53638 0.48634 0.07892 0.0
C123 C 0.6674 0.48412 0.14504 0.0
O124 O 0.63515 0.44355 0.13906 0.0
O125 O 0.65797 0.51865 0.14781 0.0
H126 H 0.15077 0.52435 0.14175 0.0
H127 H 0.11889 0.40667 0.18625 0.0
H128 H 0.22556 0.53133 0.13572 0.0
H129 H 0.19382 0.41266 0.17949 0.0
H130 H 0.34749 0.46336 0.17847 0.0
H131 H 0.27484 0.46026 0.18951 0.0
H132 H 0.25653 0.4873 0.10978 0.0
H133 H 0.32864 0.49115 0.09898 0.0
C134 C 0.15989 0.50015 0.15044 0.0
C135 C 0.12893 0.46493 0.16445 0.0
C136 C 0.2027 0.50386 0.14677 0.0
C137 C 0.21564 0.4722 0.15683 0.0
C138 C 0.18508 0.43779 0.1716 0.0
C139 C 0.1421 0.43417 0.17535 0.0
C140 C 0.32792 0.46875 0.16337 0.0
C141 C 0.34405 0.47769 0.13787 0.0
C142 C 0.28622 0.46676 0.16965 0.0
C143 C 0.25994 0.47391 0.1506 0.0
C144 C 0.27615 0.48255 0.12513 0.0
C145 C 0.31753 0.48444 0.11887 0.0
H146 H 0.65613 0.24732 0.52664 0.0
H147 H 0.72654 0.16644 0.50346 0.0
H148 H 0.72306 0.31875 0.52004 0.0
H149 H 0.7937 0.23748 0.49771 0.0
H150 H 0.87784 0.36144 0.45289 0.0
H151 H 0.81553 0.29225 0.46557 0.0
H152 H 0.79993 0.37179 0.53457 0.0
H153 H 0.86213 0.44196 0.52138 0.0
C154 C 0.68621 0.24498 0.52062 0.0
C155 C 0.68621 0.20152 0.5153 0.0
C156 C 0.72459 0.28583 0.51696 0.0
C157 C 0.76362 0.28381 0.50806 0.0
C158 C 0.76395 0.24025 0.50402 0.0
C159 C 0.72559 0.19955 0.50745 0.0
C160 C 0.86142 0.36429 0.47088 0.0
C161 C 0.87495 0.40728 0.4861 0.0
C162 C 0.82579 0.32442 0.47828 0.0
C163 C 0.80281 0.32634 0.50119 0.0
C164 C 0.81669 0.36922 0.51669 0.0
C165 C 0.85247 0.40933 0.50922 0.0
H166 H 0.6197 0.69851 0.8043 0.0
H167 H 0.52523 0.63847 0.86422 0.0
H168 H 0.59196 0.75637 0.80053 0.0
H169 H 0.49667 0.69555 0.86007 0.0
H170 H 0.55805 0.87877 0.82094 0.0
H171 H 0.58826 0.82386 0.82746 0.0
H172 H 0.45435 0.71203 0.82484 0.0
H173 H 0.42404 0.76681 0.81836 0.0
C174 C 0.59312 0.69787 0.81672 0.0
C175 C 0.57388 0.66359 0.83416 0.0
C176 C 0.57731 0.73095 0.8146 0.0
C177 C 0.54191 0.73016 0.82985 0.0
C178 C 0.52345 0.69645 0.84775 0.0
C179 C 0.53958 0.6637 0.85003 0.0
C180 C 0.53505 0.8425 0.82185 0.0
C181 C 0.48866 0.82709 0.8191 0.0
C182 C 0.55237 0.81108 0.82545 0.0
C183 C 0.52364 0.76374 0.82664 0.0
C184 C 0.47725 0.74843 0.82425 0.0
C185 C 0.45994 0.77975 0.8204 0.0
H186 H 0.91642 0.47076 0.183 0.0
H187 H 0.95395 0.58235 0.13303 0.0
H188 H 0.83858 0.45735 0.17952 0.0
H189 H 0.87626 0.56921 0.12962 0.0
H190 H 0.74323 0.56639 0.15375 0.0
H191 H 0.8203 0.57817 0.15771 0.0
H192 H 0.77499 0.42955 0.14694 0.0
H193 H 0.6977 0.41769 0.14322 0.0
C194 C 0.90794 0.49219 0.17112 0.0
C195 C 0.94118 0.52743 0.15815 0.0
C196 C 0.86336 0.4845 0.1691 0.0
C197 C 0.85115 0.51228 0.15434 0.0
C198 C 0.88457 0.54758 0.14143 0.0
C199 C 0.92904 0.55499 0.14327 0.0
C200 C 0.74962 0.53618 0.1523 0.0
C201 C 0.71422 0.49109 0.14813 0.0
C202 C 0.79388 0.54296 0.1544 0.0
C203 C 0.80389 0.50483 0.15253 0.0
C204 C 0.76844 0.45968 0.1487 0.0
C205 C 0.72414 0.45289 0.14644 0.0
H206 H 0.38555 0.84302 0.52554 0.0
H207 H 0.32402 0.88728 0.4666 0.0
H208 H 0.31712 0.77034 0.52583 0.0
H209 H 0.25586 0.81438 0.46648 0.0
H210 H 0.12617 0.70433 0.49411 0.0
H211 H 0.19524 0.77638 0.49594 0.0
H212 H 0.27174 0.69832 0.49785 0.0
H213 H 0.20265 0.62625 0.49648 0.0
C214 C 0.35747 0.83695 0.51249 0.0
C215 C 0.3599 0.87067 0.49609 0.0
C216 C 0.31837 0.79533 0.51259 0.0
C217 C 0.28094 0.78674 0.49632 0.0
C218 C 0.28382 0.8203 0.47959 0.0
C219 C 0.32294 0.86184 0.47947 0.0
C220 C 0.1577 0.70255 0.49519 0.0
C221 C 0.1589 0.65954 0.49509 0.0
C222 C 0.19729 0.74382 0.49601 0.0
C223 C 0.23897 0.74303 0.49677 0.0
C224 C 0.24018 0.70014 0.49745 0.0
C225 C 0.20057 0.65883 0.4966 0.0
H226 H 0.48726 0.38362 0.85327 0.0
H227 H 0.57994 0.44811 0.79332 0.0
H228 H 0.50295 0.31638 0.84725 0.0
H229 H 0.59721 0.38191 0.788 0.0
H230 H 0.56534 0.22861 0.76193 0.0
H231 H 0.55942 0.3012 0.76985 0.0
H232 H 0.56072 0.29159 0.85413 0.0
H233 H 0.56565 0.21837 0.84619 0.0
C234 C 0.51141 0.38358 0.83905 0.0
C235 C 0.53273 0.42109 0.82393 0.0
C236 C 0.52074 0.34534 0.83576 0.0
C237 C 0.55152 0.3439 0.81723 0.0
C238 C 0.57315 0.38182 0.80231 0.0
C239 C 0.56372 0.41998 0.80558 0.0
C240 C 0.5649 0.24223 0.78217 0.0
C241 C 0.56554 0.21749 0.80342 0.0
C242 C 0.56172 0.28399 0.78672 0.0
C243 C 0.55921 0.30196 0.81262 0.0
C244 C 0.56178 0.27821 0.83392 0.0
C245 C 0.5649 0.23641 0.82937 0.0
H246 H 0.6001 0.96004 0.544 0.0
H247 H 0.49963 0.91913 0.4808 0.0
H248 H 0.5931 0.88127 0.54073 0.0
H249 H 0.49283 0.84002 0.47726 0.0
H250 H 0.46287 0.69327 0.5026 0.0
H251 H 0.46755 0.77089 0.5018 0.0
H252 H 0.61145 0.83061 0.50992 0.0
H253 H 0.60681 0.7534 0.51123 0.0
C254 C 0.57648 0.93409 0.52941 0.0
C255 C 0.55045 0.94558 0.51265 0.0
C256 C 0.5727 0.88906 0.52738 0.0
C257 C 0.54281 0.8545 0.5085 0.0
C258 C 0.51604 0.86581 0.49206 0.0
C259 C 0.51993 0.91103 0.49407 0.0
C260 C 0.49553 0.72292 0.50382 0.0
C261 C 0.53446 0.7172 0.50728 0.0
C262 C 0.4982 0.76739 0.50333 0.0
C263 C 0.53983 0.80695 0.50624 0.0
C264 C 0.5788 0.80091 0.50827 0.0
C265 C 0.57614 0.75659 0.50881 0.0
H266 H 0.74792 0.58305 0.86873 0.0
H267 H 0.70728 0.5019 0.79267 0.0
H268 H 0.81359 0.56899 0.87051 0.0
H269 H 0.77424 0.4899 0.79351 0.0
H270 H 0.864 0.42673 0.82172 0.0
H271 H 0.80304 0.44692 0.81465 0.0
H272 H 0.88332 0.5848 0.8538 0.0
H273 H 0.94298 0.56337 0.86214 0.0
C274 C 0.75363 0.56294 0.85218 0.0
C275 C 0.72269 0.54331 0.83066 0.0
C276 C 0.79142 0.55513 0.85303 0.0
C277 C 0.79934 0.52824 0.83212 0.0
C278 C 0.76885 0.50998 0.81018 0.0
C279 C 0.73067 0.5171 0.80958 0.0
C280 C 0.86866 0.46149 0.82846 0.0
C281 C 0.90781 0.49333 0.84272 0.0
C282 C 0.83384 0.47324 0.82433 0.0
C283 C 0.83796 0.51739 0.83395 0.0
C284 C 0.87842 0.55008 0.84678 0.0
C285 C 0.91277 0.53798 0.85138 0.0
H286 H 0.17031 0.7106 0.15656 0.0
H287 H 0.22501 0.6327 0.19582 0.0
H288 H 0.24231 0.77999 0.16327 0.0
H289 H 0.29688 0.70166 0.20233 0.0
H290 H 0.39758 0.84609 0.23791 0.0
H291 H 0.32647 0.77743 0.22917 0.0
H292 H 0.32131 0.81077 0.14919 0.0
H293 H 0.39277 0.88027 0.15801 0.0
C294 C 0.1978 0.70837 0.16655 0.0
C295 C 0.19217 0.66653 0.17584 0.0
C296 C 0.23902 0.74792 0.17023 0.0
C297 C 0.27518 0.74629 0.18341 0.0
C298 C 0.26948 0.70416 0.19242 0.0
C299 C 0.22841 0.66466 0.18863 0.0
C300 C 0.38144 0.83889 0.21842 0.0
C301 C 0.40091 0.86864 0.19863 0.0
C302 C 0.34075 0.79934 0.21339 0.0
C303 C 0.31841 0.78857 0.18847 0.0
C304 C 0.33765 0.81839 0.16865 0.0
C305 C 0.37864 0.858 0.17365 0.0
H306 H 0.41513 0.11833 0.52192 0.0
H307 H 0.54774 0.15767 0.49426 0.0
H308 H 0.42582 0.19813 0.52108 0.0
H309 H 0.55841 0.23711 0.49244 0.0
H310 H 0.58008 0.38495 0.51836 0.0
H311 H 0.56991 0.3055 0.51842 0.0
H312 H 0.43113 0.25419 0.49327 0.0
H313 H 0.44101 0.33386 0.49452 0.0
C314 C 0.44659 0.14424 0.51564 0.0
C315 C 0.48104 0.13235 0.50876 0.0
C316 C 0.45267 0.18988 0.5149 0.0
C317 C 0.49307 0.2244 0.50672 0.0
C318 C 0.52726 0.21196 0.49945 0.0
C319 C 0.52132 0.16646 0.50058 0.0
C320 C 0.54747 0.35668 0.51268 0.0
C321 C 0.51131 0.36568 0.50651 0.0
C322 C 0.54163 0.31099 0.51259 0.0
C323 C 0.4996 0.27313 0.50596 0.0
C324 C 0.46375 0.28231 0.49906 0.0
C325 C 0.46946 0.32803 0.49953 0.0
H326 H 0.39985 0.59325 0.8542 0.0
H327 H 0.35637 0.477 0.79384 0.0
H328 H 0.32648 0.59198 0.85141 0.0
H329 H 0.28335 0.47648 0.79036 0.0
H330 H 0.14516 0.45001 0.82204 0.0
H331 H 0.21961 0.45546 0.81742 0.0
H332 H 0.27529 0.60541 0.82395 0.0
H333 H 0.20069 0.59997 0.82934 0.0
C334 C 0.37464 0.56776 0.84016 0.0
C335 C 0.38336 0.53488 0.82446 0.0
C336 C 0.33279 0.56727 0.83835 0.0
C337 C 0.29903 0.53403 0.82069 0.0
C338 C 0.30842 0.50206 0.80442 0.0
C339 C 0.35019 0.50242 0.80635 0.0
C340 C 0.17318 0.48414 0.8221 0.0
C341 C 0.16711 0.52457 0.82632 0.0
C342 C 0.21589 0.48727 0.81932 0.0
C343 C 0.25343 0.5309 0.82054 0.0
C344 C 0.2471 0.57131 0.82341 0.0
C345 C 0.20435 0.56818 0.82631 0.0
H346 H 0.84535 0.3669 0.13209 0.0
H347 H 0.89339 0.29046 0.17784 0.0
H348 H 0.76892 0.30656 0.13431 0.0
H349 H 0.81687 0.23056 0.1807 0.0
H350 H 0.67668 0.11393 0.16629 0.0
H351 H 0.75227 0.16895 0.15657 0.0
H352 H 0.71509 0.28144 0.16814 0.0
H353 H 0.63948 0.22645 0.17721 0.0
C354 C 0.83953 0.33689 0.14239 0.0
C355 C 0.87514 0.33326 0.15483 0.0
C356 C 0.79574 0.30251 0.14385 0.0
C357 C 0.78668 0.26386 0.15786 0.0
C358 C 0.82266 0.25957 0.16951 0.0
C359 C 0.86648 0.29395 0.16799 0.0
C360 C 0.68455 0.15035 0.1665 0.0
C361 C 0.6521 0.16583 0.17262 0.0
C362 C 0.72794 0.18192 0.16107 0.0
C363 C 0.73983 0.22965 0.16166 0.0
C364 C 0.70699 0.24487 0.16715 0.0
C365 C 0.66364 0.21334 0.17253 0.0
H366 H 0.97468 0.42658 0.07322 0.0
H367 H 0.10425 0.54628 0.07904 0.0
H368 H 0.97744 0.42098 0.0251 0.0
H369 H 0.10729 0.53997 0.03111 0.0
H370 H 0.01406 0.39929 0.94045 0.0
H371 H 0.01689 0.40283 0.98864 0.0
H372 H 0.07025 0.55245 0.99384 0.0
H373 H 0.06835 0.54912 0.94584 0.0
C374 C 0.00385 0.45149 0.06428 0.0
C375 C 0.03911 0.48702 0.07998 0.0
C376 C 0.00557 0.44807 0.03671 0.0
C377 C 0.04258 0.48006 0.02431 0.0
C378 C 0.07804 0.51519 0.04005 0.0
C379 C 0.07631 0.51868 0.06756 0.0
C380 C 0.02687 0.43298 0.95188 0.0
C381 C 0.04085 0.47392 0.9393 0.0
C382 C 0.02816 0.43494 0.97948 0.0
C383 C 0.04353 0.47788 0.99504 0.0
C384 C 0.05866 0.51886 0.98243 0.0
C385 C 0.05739 0.51691 0.95488 0.0
H386 H 0.57785 0.12208 0.4295 0.0
H387 H 0.48883 0.97521 0.41482 0.0
H388 H 0.58672 0.12652 0.38187 0.0
H389 H 0.49778 0.97985 0.36744 0.0
H390 H 0.56023 0.99363 0.28763 0.0
H391 H 0.55957 0.99478 0.33564 0.0
H392 H 0.53735 0.11722 0.34126 0.0
H393 H 0.53799 0.11627 0.29307 0.0
C394 C 0.56027 0.09077 0.41616 0.0
C395 C 0.53264 0.04828 0.42596 0.0
C396 C 0.56523 0.0934 0.38892 0.0
C397 C 0.54315 0.05349 0.37102 0.0
C398 C 0.51567 0.01106 0.38082 0.0
C399 C 0.51029 0.00851 0.40797 0.0
C400 C 0.55577 0.0212 0.29906 0.0
C401 C 0.54884 0.05469 0.28648 0.0
C402 C 0.55512 0.02164 0.32655 0.0
C403 C 0.54795 0.05579 0.34211 0.0
C404 C 0.54309 0.09058 0.32972 0.0
C405 C 0.54332 0.08992 0.30214 0.0
H406 H 0.49298 0.56669 0.74981 0.0
H407 H 0.61936 0.5611 0.74214 0.0
H408 H 0.48668 0.56652 0.70216 0.0
H409 H 0.61347 0.56214 0.6944 0.0
H410 H 0.55759 0.50313 0.60921 0.0
H411 H 0.56856 0.50957 0.65708 0.0
H412 H 0.51797 0.61202 0.66572 0.0
H413 H 0.50593 0.60475 0.61792 0.0
C414 C 0.51976 0.56606 0.73803 0.0
C415 C 0.55656 0.5636 0.74982 0.0
C416 C 0.51622 0.56621 0.71067 0.0
C417 C 0.54946 0.56408 0.69445 0.0
C418 C 0.58693 0.56303 0.70631 0.0
C419 C 0.59044 0.56278 0.7337 0.0
C420 C 0.54885 0.52707 0.6213 0.0
C421 C 0.53064 0.55322 0.60973 0.0
C422 C 0.55547 0.53103 0.64875 0.0
C423 C 0.54417 0.56134 0.66523 0.0
C424 C 0.52645 0.58788 0.65361 0.0
C425 C 0.51969 0.58381 0.62619 0.0
H426 H 0.555 0.10157 0.60392 0.0
H427 H 0.45308 0.96056 0.58451 0.0
H428 H 0.54566 0.09118 0.65103 0.0
H429 H 0.44489 0.94989 0.63102 0.0
H430 H 0.40883 0.95298 0.7156 0.0
H431 H 0.41692 0.97159 0.66988 0.0
H432 H 0.5597 0.05023 0.68453 0.0
H433 H 0.55121 0.03232 0.73047 0.0
C434 C 0.53069 0.06843 0.60965 0.0
C435 C 0.50466 0.03205 0.59038 0.0
C436 C 0.52548 0.06238 0.63663 0.0
C437 C 0.49429 0.01977 0.64487 0.0
C438 C 0.46848 0.98353 0.62552 0.0
C439 C 0.47343 0.98963 0.59871 0.0
C440 C 0.44187 0.97455 0.70906 0.0
C441 C 0.47931 0.99162 0.72663 0.0
C442 C 0.4466 0.98508 0.68283 0.0
C443 C 0.48904 0.01223 0.67341 0.0
C444 C 0.52646 0.02991 0.69118 0.0
C445 C 0.52161 0.01972 0.71753 0.0
H446 H 0.47851 0.49855 0.91429 0.0
H447 H 0.62003 0.53792 0.91685 0.0
H448 H 0.4757 0.48672 0.96089 0.0
H449 H 0.6177 0.52793 0.96399 0.0
H450 H 0.58905 0.46596 0.04371 0.0
H451 H 0.59273 0.47379 0.99629 0.0
H452 H 0.4971 0.53017 0.00245 0.0
H453 H 0.49211 0.52056 0.04933 0.0
C454 C 0.50915 0.50502 0.92488 0.0
C455 C 0.54956 0.51951 0.9119 0.0
C456 C 0.50762 0.4985 0.95171 0.0
C457 C 0.54658 0.50694 0.96642 0.0
C458 C 0.58693 0.52066 0.9533 0.0
C459 C 0.58834 0.52662 0.92628 0.0
C460 C 0.56883 0.48 0.03488 0.0
C461 C 0.54007 0.49233 0.05029 0.0
C462 C 0.5711 0.48472 0.0077 0.0
C463 C 0.54497 0.50231 0.99539 0.0
C464 C 0.5169 0.51542 0.01101 0.0
C465 C 0.51425 0.5102 0.03802 0.0
H466 H 0.10194 0.55845 0.25452 0.0
H467 H 0.96139 0.46222 0.24836 0.0
H468 H 0.09827 0.56787 0.30268 0.0
H469 H 0.95789 0.47199 0.29637 0.0
H470 H 0.96126 0.54633 0.37909 0.0
H471 H 0.9669 0.5392 0.33108 0.0
H472 H 0.08302 0.51533 0.34064 0.0
H473 H 0.07734 0.52208 0.38866 0.0
C474 C 0.07032 0.53935 0.26342 0.0
C475 C 0.03197 0.50958 0.24766 0.0
C476 C 0.06831 0.54462 0.29094 0.0
C477 C 0.02777 0.52078 0.30314 0.0
C478 C 0.98945 0.49109 0.2874 0.0
C479 C 0.99158 0.48528 0.25995 0.0
C480 C 0.98812 0.53979 0.37097 0.0
C481 C 0.01878 0.53464 0.38764 0.0
C482 C 0.99117 0.53547 0.34351 0.0
C483 C 0.02531 0.52661 0.33223 0.0
C484 C 0.05654 0.52243 0.34888 0.0
C485 C 0.05312 0.52607 0.37632 0.0
loop_
_geom_bond_atom_site_label_1
_geom_bond_atom_site_label_2
_geom_bond_distance
_geom_bond_site_symmetry_2
_ccdc_geom_bond_type
Tb0 O3 2.453 1_455 S
Tb0 O4 2.596 1_455 S
Tb0 O5 2.374 . S
Tb0 O13 2.343 . S
Tb0 O15 2.353 . S
Tb0 O17 2.427 . S
Tb0 O18 2.513 . S
C1 O5 1.251 . S
C1 O7 1.263 . S
Tb2 O4 2.343 1_455 S
Tb2 O7 2.353 . S
Tb2 O10 2.427 1_455 S
Tb2 O11 2.513 1_455 S
Tb2 O12 2.453 . S
Tb2 O13 2.596 . S
Tb2 O14 2.374 . S
O3 Tb0 2.453 1_655 S
O3 C19 1.245 . S
O4 Tb0 2.596 1_655 S
O4 Tb2 2.343 1_655 S
O4 C19 1.259 . S
O5 Tb0 2.374 . S
O5 C1 1.251 . S
C6 O10 1.275 . S
C6 O11 1.246 . S
O7 C1 1.263 . S
O7 Tb2 2.353 . S
C8 O12 1.245 . S
C8 O13 1.259 . S
C9 O14 1.250 . S
C9 O15 1.263 . S
O10 Tb2 2.427 1_655 S
O10 C6 1.275 . S
O11 Tb2 2.513 1_655 S
O11 C6 1.246 . S
O12 Tb2 2.453 . S
O12 C8 1.245 . S
O13 Tb0 2.343 . S
O13 Tb2 2.596 . S
O13 C8 1.259 . S
O14 Tb2 2.374 . S
O14 C9 1.250 . S
O15 Tb0 2.353 . S
O15 C9 1.263 . S
C16 O17 1.275 . S
C16 O18 1.246 . S
O17 Tb0 2.427 . S
O17 C16 1.275 . S
O18 Tb0 2.513 . S
O18 C16 1.246 . S
C19 O3 1.245 . S
C19 O4 1.259 . S
Tb20 O23 2.453 . S
Tb20 O24 2.596 . S
Tb20 O25 2.374 . S
Tb20 O33 2.343 1_545 S
Tb20 O35 2.353 . S
Tb20 O37 2.427 1_545 S
Tb20 O38 2.513 1_545 S
C21 O25 1.251 . S
C21 O27 1.263 . S
Tb22 O24 2.343 . S
Tb22 O27 2.353 . S
Tb22 O30 2.427 . S
Tb22 O31 2.513 . S
Tb22 O32 2.453 1_545 S
Tb22 O33 2.596 1_545 S
Tb22 O34 2.374 . S
O23 Tb20 2.453 . S
O23 C39 1.245 . S
O24 Tb20 2.596 . S
O24 Tb22 2.343 . S
O24 C39 1.259 . S
O25 Tb20 2.374 . S
O25 C21 1.251 . S
C26 O30 1.275 . S
C26 O31 1.246 . S
O27 C21 1.263 . S
O27 Tb22 2.353 . S
C28 O32 1.245 . S
C28 O33 1.259 . S
C29 O34 1.250 . S
C29 O35 1.263 . S
O30 Tb22 2.427 . S
O30 C26 1.275 . S
O31 Tb22 2.513 . S
O31 C26 1.246 . S
O32 Tb22 2.453 1_565 S
O32 C28 1.245 . S
O33 Tb20 2.343 1_565 S
O33 Tb22 2.596 1_565 S
O33 C28 1.259 . S
O34 Tb22 2.374 . S
O34 C29 1.250 . S
O35 Tb20 2.353 . S
O35 C29 1.263 . S
C36 O37 1.275 . S
C36 O38 1.246 . S
O37 Tb20 2.427 1_565 S
O37 C36 1.275 . S
O38 Tb20 2.513 1_565 S
O38 C36 1.246 . S
C39 O23 1.245 . S
C39 O24 1.259 . S
Tb40 O43 2.453 . S
Tb40 O44 2.596 . S
Tb40 O45 2.374 . S
Tb40 O53 2.343 . S
Tb40 O55 2.353 . S
Tb40 O57 2.427 . S
Tb40 O58 2.513 . S
C41 O45 1.251 . S
C41 O47 1.263 . S
Tb42 O44 2.343 . S
Tb42 O47 2.353 . S
Tb42 O50 2.427 . S
Tb42 O51 2.513 . S
Tb42 O52 2.453 . S
Tb42 O53 2.596 . S
Tb42 O54 2.374 . S
O43 Tb40 2.453 . S
O43 C59 1.245 . S
O44 Tb40 2.596 . S
O44 Tb42 2.343 . S
O44 C59 1.259 . S
O45 Tb40 2.374 . S
O45 C41 1.251 . S
C46 O50 1.275 . S
C46 O51 1.246 . S
O47 C41 1.263 . S
O47 Tb42 2.353 . S
C48 O52 1.245 . S
C48 O53 1.259 . S
C49 O54 1.250 . S
C49 O55 1.263 . S
O50 Tb42 2.427 . S
O50 C46 1.275 . S
O51 Tb42 2.513 . S
O51 C46 1.246 . S
O52 Tb42 2.453 . S
O52 C48 1.245 . S
O53 Tb40 2.343 . S
O53 Tb42 2.596 . S
O53 C48 1.259 . S
O54 Tb42 2.374 . S
O54 C49 1.250 . S
O55 Tb40 2.353 . S
O55 C49 1.263 . S
C56 O57 1.275 . S
C56 O58 1.246 . S
O57 Tb40 2.427 . S
O57 C56 1.275 . S
O58 Tb40 2.513 . S
O58 C56 1.246 . S
C59 O43 1.245 . S
C59 O44 1.259 . S
O60 Cd61 2.300 . S
O60 C67 1.275 . S
Cd61 O60 2.300 . S
Cd61 O69 2.381 . S
Cd61 O70 2.378 . S
O62 Cd63 2.385 1_545 S
O62 C67 1.255 . S
Cd63 O62 2.385 1_565 S
Cd63 O64 2.317 . S
O64 Cd63 2.317 . S
O64 C65 1.232 . S
C65 O64 1.232 . S
C65 O66 1.218 . S
O66 C65 1.218 . S
C67 O60 1.275 . S
C67 O62 1.255 . S
C68 O69 1.258 . S
C68 O70 1.256 . S
O69 Cd61 2.381 . S
O69 C68 1.258 . S
O70 Cd61 2.378 . S
O70 C68 1.256 . S
O71 Cd72 2.300 . S
O71 C78 1.275 . S
Cd72 O71 2.300 . S
Cd72 O80 2.381 . S
Cd72 O81 2.378 . S
O73 Cd74 2.385 . S
O73 C78 1.255 . S
Cd74 O73 2.385 . S
Cd74 O75 2.317 . S
O75 Cd74 2.317 . S
O75 C76 1.232 . S
C76 O75 1.232 . S
C76 O77 1.218 . S
O77 C76 1.218 . S
C78 O71 1.275 . S
C78 O73 1.255 . S
C79 O80 1.258 . S
C79 O81 1.256 . S
O80 Cd72 2.381 . S
O80 C79 1.258 . S
O81 Cd72 2.378 . S
O81 C79 1.256 . S
O82 Cd83 2.300 . S
O82 C89 1.275 . S
Cd83 O82 2.300 . S
Cd83 O91 2.381 . S
Cd83 O92 2.378 . S
O84 Cd85 2.385 1_455 S
O84 C89 1.255 . S
Cd85 O84 2.385 1_655 S
Cd85 O86 2.317 . S
O86 Cd85 2.317 . S
O86 C87 1.232 . S
C87 O86 1.232 . S
C87 O88 1.218 . S
O88 C87 1.218 . S
C89 O82 1.275 . S
C89 O84 1.255 . S
C90 O91 1.258 . S
C90 O92 1.256 . S
O91 Cd83 2.381 . S
O91 C90 1.258 . S
O92 Cd83 2.378 . S
O92 C90 1.256 . S
O93 Cd94 2.300 . S
O93 C100 1.275 1_455 S
Cd94 O93 2.300 . S
Cd94 O102 2.381 . S
Cd94 O103 2.378 . S
O95 Cd96 2.385 . S
O95 C100 1.255 . S
Cd96 O95 2.385 . S
Cd96 O97 2.317 . S
O97 Cd96 2.317 . S
O97 C98 1.232 . S
C98 O97 1.232 . S
C98 O99 1.218 . S
O99 C98 1.218 . S
C100 O93 1.275 1_655 S
C100 O95 1.255 . S
C101 O102 1.258 . S
C101 O103 1.256 . S
O102 Cd94 2.381 . S
O102 C101 1.258 . S
O103 Cd94 2.378 . S
O103 C101 1.256 . S
O104 Cd105 2.300 . S
O104 C111 1.275 1_565 S
Cd105 O104 2.300 . S
Cd105 O113 2.381 . S
Cd105 O114 2.378 . S
O106 Cd107 2.385 . S
O106 C111 1.255 . S
Cd107 O106 2.385 . S
Cd107 O108 2.317 . S
O108 Cd107 2.317 . S
O108 C109 1.232 . S
C109 O108 1.232 . S
C109 O110 1.218 . S
O110 C109 1.218 . S
C111 O104 1.275 1_545 S
C111 O106 1.255 . S
C112 O113 1.258 . S
C112 O114 1.256 . S
O113 Cd105 2.381 . S
O113 C112 1.258 . S
O114 Cd105 2.378 . S
O114 C112 1.256 . S
O115 Cd116 2.300 . S
O115 C122 1.275 . S
Cd116 O115 2.300 . S
Cd116 O124 2.381 . S
Cd116 O125 2.378 . S
O117 Cd118 2.385 . S
O117 C122 1.255 . S
Cd118 O117 2.385 . S
Cd118 O119 2.317 . S
O119 Cd118 2.317 . S
O119 C120 1.232 . S
C120 O119 1.232 . S
C120 O121 1.218 . S
O121 C120 1.218 . S
C122 O115 1.275 . S
C122 O117 1.255 . S
C123 O124 1.258 . S
C123 O125 1.256 . S
O124 Cd116 2.381 . S
O124 C123 1.258 . S
O125 Cd116 2.378 . S
O125 C123 1.256 . S
H126 C134 0.950 . S
H127 C139 0.950 . S
H128 C136 0.950 . S
H129 C138 0.950 . S
H130 C140 0.950 . S
H131 C142 0.950 . S
H132 C144 0.950 . S
H133 C145 0.950 . S
C134 H126 0.950 . S
C134 C135 1.386 . S
C134 C136 1.391 . S
C135 C134 1.386 . S
C135 C139 1.393 . S
C136 H128 0.950 . S
C136 C134 1.391 . S
C136 C137 1.400 . S
C137 C136 1.400 . S
C137 C138 1.398 . S
C137 C143 1.491 . S
C138 H129 0.950 . S
C138 C137 1.398 . S
C138 C139 1.391 . S
C139 H127 0.950 . S
C139 C135 1.393 . S
C139 C138 1.391 . S
C140 H130 0.950 . S
C140 C141 1.386 . S
C140 C142 1.391 . S
C141 C140 1.386 . S
C141 C145 1.393 . S
C142 H131 0.950 . S
C142 C140 1.391 . S
C142 C143 1.400 . S
C143 C137 1.491 . S
C143 C142 1.400 . S
C143 C144 1.398 . S
C144 H132 0.950 . S
C144 C143 1.398 . S
C144 C145 1.391 . S
C145 H133 0.950 . S
C145 C141 1.393 . S
C145 C144 1.391 . S
H146 C154 0.950 . S
H147 C159 0.950 . S
H148 C156 0.950 . S
H149 C158 0.950 . S
H150 C160 0.950 . S
H151 C162 0.950 . S
H152 C164 0.950 . S
H153 C165 0.950 . S
C154 H146 0.950 . S
C154 C155 1.386 . S
C154 C156 1.391 . S
C155 C154 1.386 . S
C155 C159 1.393 . S
C156 H148 0.950 . S
C156 C154 1.391 . S
C156 C157 1.400 . S
C157 C156 1.400 . S
C157 C158 1.398 . S
C157 C163 1.491 . S
C158 H149 0.950 . S
C158 C157 1.398 . S
C158 C159 1.391 . S
C159 H147 0.950 . S
C159 C155 1.393 . S
C159 C158 1.391 . S
C160 H150 0.950 . S
C160 C161 1.386 . S
C160 C162 1.391 . S
C161 C160 1.386 . S
C161 C165 1.393 . S
C162 H151 0.950 . S
C162 C160 1.391 . S
C162 C163 1.400 . S
C163 C157 1.491 . S
C163 C162 1.400 . S
C163 C164 1.398 . S
C164 H152 0.950 . S
C164 C163 1.398 . S
C164 C165 1.391 . S
C165 H153 0.950 . S
C165 C161 1.393 . S
C165 C164 1.391 . S
H166 C174 0.950 . S
H167 C179 0.950 . S
H168 C176 0.950 . S
H169 C178 0.950 . S
H170 C180 0.950 . S
H171 C182 0.950 . S
H172 C184 0.950 . S
H173 C185 0.950 . S
C174 H166 0.950 . S
C174 C175 1.386 . S
C174 C176 1.391 . S
C175 C174 1.386 . S
C175 C179 1.393 . S
C176 H168 0.950 . S
C176 C174 1.391 . S
C176 C177 1.400 . S
C177 C176 1.400 . S
C177 C178 1.398 . S
C177 C183 1.491 . S
C178 H169 0.950 . S
C178 C177 1.398 . S
C178 C179 1.391 . S
C179 H167 0.950 . S
C179 C175 1.393 . S
C179 C178 1.391 . S
C180 H170 0.950 . S
C180 C181 1.386 . S
C180 C182 1.391 . S
C181 C180 1.386 . S
C181 C185 1.393 . S
C182 H171 0.950 . S
C182 C180 1.391 . S
C182 C183 1.400 . S
C183 C177 1.491 . S
C183 C182 1.400 . S
C183 C184 1.398 . S
C184 H172 0.950 . S
C184 C183 1.398 . S
C184 C185 1.391 . S
C185 H173 0.950 . S
C185 C181 1.393 . S
C185 C184 1.391 . S
H186 C194 0.950 . S
H187 C199 0.950 . S
H188 C196 0.950 . S
H189 C198 0.950 . S
H190 C200 0.950 . S
H191 C202 0.950 . S
H192 C204 0.950 . S
H193 C205 0.950 . S
C194 H186 0.950 . S
C194 C195 1.386 . S
C194 C196 1.391 . S
C195 C194 1.386 . S
C195 C199 1.393 . S
C196 H188 0.950 . S
C196 C194 1.391 . S
C196 C197 1.400 . S
C197 C196 1.400 . S
C197 C198 1.398 . S
C197 C203 1.491 . S
C198 H189 0.950 . S
C198 C197 1.398 . S
C198 C199 1.391 . S
C199 H187 0.950 . S
C199 C195 1.393 . S
C199 C198 1.391 . S
C200 H190 0.950 . S
C200 C201 1.386 . S
C200 C202 1.391 . S
C201 C200 1.386 . S
C201 C205 1.393 . S
C202 H191 0.950 . S
C202 C200 1.391 . S
C202 C203 1.400 . S
C203 C197 1.491 . S
C203 C202 1.400 . S
C203 C204 1.398 . S
C204 H192 0.950 . S
C204 C203 1.398 . S
C204 C205 1.391 . S
C205 H193 0.950 . S
C205 C201 1.393 . S
C205 C204 1.391 . S
H206 C214 0.950 . S
H207 C219 0.950 . S
H208 C216 0.950 . S
H209 C218 0.950 . S
H210 C220 0.950 . S
H211 C222 0.950 . S
H212 C224 0.950 . S
H213 C225 0.950 . S
C214 H206 0.950 . S
C214 C215 1.386 . S
C214 C216 1.391 . S
C215 C214 1.386 . S
C215 C219 1.393 . S
C216 H208 0.950 . S
C216 C214 1.391 . S
C216 C217 1.400 . S
C217 C216 1.400 . S
C217 C218 1.398 . S
C217 C223 1.491 . S
C218 H209 0.950 . S
C218 C217 1.398 . S
C218 C219 1.391 . S
C219 H207 0.950 . S
C219 C215 1.393 . S
C219 C218 1.391 . S
C220 H210 0.950 . S
C220 C221 1.386 . S
C220 C222 1.391 . S
C221 C220 1.386 . S
C221 C225 1.393 . S
C222 H211 0.950 . S
C222 C220 1.391 . S
C222 C223 1.400 . S
C223 C217 1.491 . S
C223 C222 1.400 . S
C223 C224 1.398 . S
C224 H212 0.950 . S
C224 C223 1.398 . S
C224 C225 1.391 . S
C225 H213 0.950 . S
C225 C221 1.393 . S
C225 C224 1.391 . S
H226 C234 0.950 . S
H227 C239 0.950 . S
H228 C236 0.950 . S
H229 C238 0.950 . S
H230 C240 0.950 . S
H231 C242 0.950 . S
H232 C244 0.950 . S
H233 C245 0.950 . S
C234 H226 0.950 . S
C234 C235 1.386 . S
C234 C236 1.391 . S
C235 C234 1.386 . S
C235 C239 1.393 . S
C236 H228 0.950 . S
C236 C234 1.391 . S
C236 C237 1.400 . S
C237 C236 1.400 . S
C237 C238 1.398 . S
C237 C243 1.491 . S
C238 H229 0.950 . S
C238 C237 1.398 . S
C238 C239 1.391 . S
C239 H227 0.950 . S
C239 C235 1.393 . S
C239 C238 1.391 . S
C240 H230 0.950 . S
C240 C241 1.386 . S
C240 C242 1.391 . S
C241 C240 1.386 . S
C241 C245 1.393 . S
C242 H231 0.950 . S
C242 C240 1.391 . S
C242 C243 1.400 . S
C243 C237 1.491 . S
C243 C242 1.400 . S
C243 C244 1.398 . S
C244 H232 0.950 . S
C244 C243 1.398 . S
C244 C245 1.391 . S
C245 H233 0.950 . S
C245 C241 1.393 . S
C245 C244 1.391 . S
H246 C254 0.950 . S
H247 C259 0.950 . S
H248 C256 0.950 . S
H249 C258 0.950 . S
H250 C260 0.950 . S
H251 C262 0.950 . S
H252 C264 0.950 . S
H253 C265 0.950 . S
C254 H246 0.950 . S
C254 C255 1.386 . S
C254 C256 1.391 . S
C255 C254 1.386 . S
C255 C259 1.393 . S
C256 H248 0.950 . S
C256 C254 1.391 . S
C256 C257 1.400 . S
C257 C256 1.400 . S
C257 C258 1.398 . S
C257 C263 1.491 . S
C258 H249 0.950 . S
C258 C257 1.398 . S
C258 C259 1.391 . S
C259 H247 0.950 . S
C259 C255 1.393 . S
C259 C258 1.391 . S
C260 H250 0.950 . S
C260 C261 1.386 . S
C260 C262 1.391 . S
C261 C260 1.386 . S
C261 C265 1.393 . S
C262 H251 0.950 . S
C262 C260 1.391 . S
C262 C263 1.400 . S
C263 C257 1.491 . S
C263 C262 1.400 . S
C263 C264 1.398 . S
C264 H252 0.950 . S
C264 C263 1.398 . S
C264 C265 1.391 . S
C265 H253 0.950 . S
C265 C261 1.393 . S
C265 C264 1.391 . S
H266 C274 0.950 . S
H267 C279 0.950 . S
H268 C276 0.950 . S
H269 C278 0.950 . S
H270 C280 0.950 . S
H271 C282 0.950 . S
H272 C284 0.950 . S
H273 C285 0.950 . S
C274 H266 0.950 . S
C274 C275 1.386 . S
C274 C276 1.391 . S
C275 C274 1.386 . S
C275 C279 1.393 . S
C276 H268 0.950 . S
C276 C274 1.391 . S
C276 C277 1.400 . S
C277 C276 1.400 . S
C277 C278 1.398 . S
C277 C283 1.491 . S
C278 H269 0.950 . S
C278 C277 1.398 . S
C278 C279 1.391 . S
C279 H267 0.950 . S
C279 C275 1.393 . S
C279 C278 1.391 . S
C280 H270 0.950 . S
C280 C281 1.386 . S
C280 C282 1.391 . S
C281 C280 1.386 . S
C281 C285 1.393 . S
C282 H271 0.950 . S
C282 C280 1.391 . S
C282 C283 1.400 . S
C283 C277 1.491 . S
C283 C282 1.400 . S
C283 C284 1.398 . S
C284 H272 0.950 . S
C284 C283 1.398 . S
C284 C285 1.391 . S
C285 H273 0.950 . S
C285 C281 1.393 . S
C285 C284 1.391 . S
H286 C294 0.950 . S
H287 C299 0.950 . S
H288 C296 0.950 . S
H289 C298 0.950 . S
H290 C300 0.950 . S
H291 C302 0.950 . S
H292 C304 0.950 . S
H293 C305 0.950 . S
C294 H286 0.950 . S
C294 C295 1.386 . S
C294 C296 1.391 . S
C295 C294 1.386 . S
C295 C299 1.393 . S
C296 H288 0.950 . S
C296 C294 1.391 . S
C296 C297 1.400 . S
C297 C296 1.400 . S
C297 C298 1.398 . S
C297 C303 1.491 . S
C298 H289 0.950 . S
C298 C297 1.398 . S
C298 C299 1.391 . S
C299 H287 0.950 . S
C299 C295 1.393 . S
C299 C298 1.391 . S
C300 H290 0.950 . S
C300 C301 1.386 . S
C300 C302 1.391 . S
C301 C300 1.386 . S
C301 C305 1.393 . S
C302 H291 0.950 . S
C302 C300 1.391 . S
C302 C303 1.400 . S
C303 C297 1.491 . S
C303 C302 1.400 . S
C303 C304 1.398 . S
C304 H292 0.950 . S
C304 C303 1.398 . S
C304 C305 1.391 . S
C305 H293 0.950 . S
C305 C301 1.393 . S
C305 C304 1.391 . S
H306 C314 0.950 . S
H307 C319 0.950 . S
H308 C316 0.950 . S
H309 C318 0.950 . S
H310 C320 0.950 . S
H311 C322 0.950 . S
H312 C324 0.950 . S
H313 C325 0.950 . S
C314 H306 0.950 . S
C314 C315 1.386 . S
C314 C316 1.391 . S
C315 C314 1.386 . S
C315 C319 1.393 . S
C316 H308 0.950 . S
C316 C314 1.391 . S
C316 C317 1.400 . S
C317 C316 1.400 . S
C317 C318 1.398 . S
C317 C323 1.491 . S
C318 H309 0.950 . S
C318 C317 1.398 . S
C318 C319 1.391 . S
C319 H307 0.950 . S
C319 C315 1.393 . S
C319 C318 1.391 . S
C320 H310 0.950 . S
C320 C321 1.386 . S
C320 C322 1.391 . S
C321 C320 1.386 . S
C321 C325 1.393 . S
C322 H311 0.950 . S
C322 C320 1.391 . S
C322 C323 1.400 . S
C323 C317 1.491 . S
C323 C322 1.400 . S
C323 C324 1.398 . S
C324 H312 0.950 . S
C324 C323 1.398 . S
C324 C325 1.391 . S
C325 H313 0.950 . S
C325 C321 1.393 . S
C325 C324 1.391 . S
H326 C334 0.950 . S
H327 C339 0.950 . S
H328 C336 0.950 . S
H329 C338 0.950 . S
H330 C340 0.950 . S
H331 C342 0.950 . S
H332 C344 0.950 . S
H333 C345 0.950 . S
C334 H326 0.950 . S
C334 C335 1.386 . S
C334 C336 1.391 . S
C335 C334 1.386 . S
C335 C339 1.393 . S
C336 H328 0.950 . S
C336 C334 1.391 . S
C336 C337 1.400 . S
C337 C336 1.400 . S
C337 C338 1.398 . S
C337 C343 1.491 . S
C338 H329 0.950 . S
C338 C337 1.398 . S
C338 C339 1.391 . S
C339 H327 0.950 . S
C339 C335 1.393 . S
C339 C338 1.391 . S
C340 H330 0.950 . S
C340 C341 1.386 . S
C340 C342 1.391 . S
C341 C340 1.386 . S
C341 C345 1.393 . S
C342 H331 0.950 . S
C342 C340 1.391 . S
C342 C343 1.400 . S
C343 C337 1.491 . S
C343 C342 1.400 . S
C343 C344 1.398 . S
C344 H332 0.950 . S
C344 C343 1.398 . S
C344 C345 1.391 . S
C345 H333 0.950 . S
C345 C341 1.393 . S
C345 C344 1.391 . S
H346 C354 0.950 . S
H347 C359 0.950 . S
H348 C356 0.950 . S
H349 C358 0.950 . S
H350 C360 0.950 . S
H351 C362 0.950 . S
H352 C364 0.950 . S
H353 C365 0.950 . S
C354 H346 0.950 . S
C354 C355 1.386 . S
C354 C356 1.391 . S
C355 C354 1.386 . S
C355 C359 1.393 . S
C356 H348 0.950 . S
C356 C354 1.391 . S
C356 C357 1.400 . S
C357 C356 1.400 . S
C357 C358 1.398 . S
C357 C363 1.491 . S
C358 H349 0.950 . S
C358 C357 1.398 . S
C358 C359 1.391 . S
C359 H347 0.950 . S
C359 C355 1.393 . S
C359 C358 1.391 . S
C360 H350 0.950 . S
C360 C361 1.386 . S
C360 C362 1.391 . S
C361 C360 1.386 . S
C361 C365 1.393 . S
C362 H351 0.950 . S
C362 C360 1.391 . S
C362 C363 1.400 . S
C363 C357 1.491 . S
C363 C362 1.400 . S
C363 C364 1.398 . S
C364 H352 0.950 . S
C364 C363 1.398 . S
C364 C365 1.391 . S
C365 H353 0.950 . S
C365 C361 1.393 . S
C365 C364 1.391 . S
H366 C374 0.950 1_655 S
H367 C379 0.950 . S
H368 C376 0.950 1_655 S
H369 C378 0.950 . S
H370 C380 0.950 . S
H371 C382 0.950 . S
H372 C384 0.950 1_655 S
H373 C385 0.950 1_655 S
C374 H366 0.950 1_455 S
C374 C375 1.386 . S
C374 C376 1.391 . S
C375 C374 1.386 . S
C375 C379 1.393 . S
C376 H368 0.950 1_455 S
C376 C374 1.391 . S
C376 C377 1.400 . S
C377 C376 1.400 . S
C377 C378 1.398 . S
C377 C383 1.491 1_554 S
C378 H369 0.950 . S
C378 C377 1.398 . S
C378 C379 1.391 . S
C379 H367 0.950 . S
C379 C375 1.393 . S
C379 C378 1.391 . S
C380 H370 0.950 . S
C380 C381 1.386 . S
C380 C382 1.391 . S
C381 C380 1.386 . S
C381 C385 1.393 . S
C382 H371 0.950 . S
C382 C380 1.391 . S
C382 C383 1.400 . S
C383 C377 1.491 1_556 S
C383 C382 1.400 . S
C383 C384 1.398 . S
C384 H372 0.950 1_455 S
C384 C383 1.398 . S
C384 C385 1.391 . S
C385 H373 0.950 1_455 S
C385 C381 1.393 . S
C385 C384 1.391 . S
H386 C394 0.950 . S
H387 C399 0.950 . S
H388 C396 0.950 . S
H389 C398 0.950 . S
H390 C400 0.950 . S
H391 C402 0.950 . S
H392 C404 0.950 . S
H393 C405 0.950 . S
C394 H386 0.950 . S
C394 C395 1.386 . S
C394 C396 1.391 . S
C395 C394 1.386 . S
C395 C399 1.393 . S
C396 H388 0.950 . S
C396 C394 1.391 . S
C396 C397 1.400 . S
C397 C396 1.400 . S
C397 C398 1.398 . S
C397 C403 1.491 . S
C398 H389 0.950 . S
C398 C397 1.398 . S
C398 C399 1.391 . S
C399 H387 0.950 . S
C399 C395 1.393 . S
C399 C398 1.391 . S
C400 H390 0.950 . S
C400 C401 1.386 . S
C400 C402 1.391 . S
C401 C400 1.386 . S
C401 C405 1.393 . S
C402 H391 0.950 . S
C402 C400 1.391 . S
C402 C403 1.400 . S
C403 C397 1.491 . S
C403 C402 1.400 . S
C403 C404 1.398 . S
C404 H392 0.950 . S
C404 C403 1.398 . S
C404 C405 1.391 . S
C405 H393 0.950 . S
C405 C401 1.393 . S
C405 C404 1.391 . S
H406 C414 0.950 . S
H407 C419 0.950 . S
H408 C416 0.950 . S
H409 C418 0.950 . S
H410 C420 0.950 . S
H411 C422 0.950 . S
H412 C424 0.950 . S
H413 C425 0.950 . S
C414 H406 0.950 . S
C414 C415 1.386 . S
C414 C416 1.391 . S
C415 C414 1.386 . S
C415 C419 1.393 . S
C416 H408 0.950 . S
C416 C414 1.391 . S
C416 C417 1.400 . S
C417 C416 1.400 . S
C417 C418 1.398 . S
C417 C423 1.491 . S
C418 H409 0.950 . S
C418 C417 1.398 . S
C418 C419 1.391 . S
C419 H407 0.950 . S
C419 C415 1.393 . S
C419 C418 1.391 . S
C420 H410 0.950 . S
C420 C421 1.386 . S
C420 C422 1.391 . S
C421 C420 1.386 . S
C421 C425 1.393 . S
C422 H411 0.950 . S
C422 C420 1.391 . S
C422 C423 1.400 . S
C423 C417 1.491 . S
C423 C422 1.400 . S
C423 C424 1.398 . S
C424 H412 0.950 . S
C424 C423 1.398 . S
C424 C425 1.391 . S
C425 H413 0.950 . S
C425 C421 1.393 . S
C425 C424 1.391 . S
H426 C434 0.950 . S
H427 C439 0.950 . S
H428 C436 0.950 . S
H429 C438 0.950 . S
H430 C440 0.950 . S
H431 C442 0.950 . S
H432 C444 0.950 . S
H433 C445 0.950 . S
C434 H426 0.950 . S
C434 C435 1.386 . S
C434 C436 1.391 . S
C435 C434 1.386 . S
C435 C439 1.393 . S
C436 H428 0.950 . S
C436 C434 1.391 . S
C436 C437 1.400 . S
C437 C436 1.400 . S
C437 C438 1.398 . S
C437 C443 1.491 . S
C438 H429 0.950 . S
C438 C437 1.398 . S
C438 C439 1.391 . S
C439 H427 0.950 . S
C439 C435 1.393 . S
C439 C438 1.391 . S
C440 H430 0.950 . S
C440 C441 1.386 . S
C440 C442 1.391 . S
C441 C440 1.386 . S
C441 C445 1.393 . S
C442 H431 0.950 . S
C442 C440 1.391 . S
C442 C443 1.400 . S
C443 C437 1.491 . S
C443 C442 1.400 . S
C443 C444 1.398 . S
C444 H432 0.950 . S
C444 C443 1.398 . S
C444 C445 1.391 . S
C445 H433 0.950 . S
C445 C441 1.393 . S
C445 C444 1.391 . S
H446 C454 0.950 . S
H447 C459 0.950 . S
H448 C456 0.950 . S
H449 C458 0.950 . S
H450 C460 0.950 . S
H451 C462 0.950 . S
H452 C464 0.950 . S
H453 C465 0.950 . S
C454 H446 0.950 . S
C454 C455 1.386 . S
C454 C456 1.391 . S
C455 C454 1.386 . S
C455 C459 1.393 . S
C456 H448 0.950 . S
C456 C454 1.391 . S
C456 C457 1.400 . S
C457 C456 1.400 . S
C457 C458 1.398 . S
C457 C463 1.491 . S
C458 H449 0.950 . S
C458 C457 1.398 . S
C458 C459 1.391 . S
C459 H447 0.950 . S
C459 C455 1.393 . S
C459 C458 1.391 . S
C460 H450 0.950 . S
C460 C461 1.386 . S
C460 C462 1.391 . S
C461 C460 1.386 . S
C461 C465 1.393 . S
C462 H451 0.950 . S
C462 C460 1.391 . S
C462 C463 1.400 1_554 S
C463 C457 1.491 . S
C463 C462 1.400 1_556 S
C463 C464 1.398 1_556 S
C464 H452 0.950 . S
C464 C463 1.398 1_554 S
C464 C465 1.391 . S
C465 H453 0.950 . S
C465 C461 1.393 . S
C465 C464 1.391 . S
H466 C474 0.950 . S
H467 C479 0.950 . S
H468 C476 0.950 . S
H469 C478 0.950 . S
H470 C480 0.950 . S
H471 C482 0.950 . S
H472 C484 0.950 . S
H473 C485 0.950 . S
C474 H466 0.950 . S
C474 C475 1.386 . S
C474 C476 1.391 . S
C475 C474 1.386 . S
C475 C479 1.393 1_455 S
C476 H468 0.950 . S
C476 C474 1.391 . S
C476 C477 1.400 . S
C477 C476 1.400 . S
C477 C478 1.398 1_455 S
C477 C483 1.488 1_455 S
C478 H469 0.950 . S
C478 C477 1.398 1_655 S
C478 C479 1.391 . S
C479 H467 0.950 . S
C479 C475 1.393 1_655 S
C479 C478 1.391 . S
C480 H470 0.950 . S
C480 C481 1.386 . S
C480 C482 1.391 . S
C481 C480 1.386 . S
C481 C485 1.393 1_655 S
C482 H471 0.950 . S
C482 C480 1.391 . S
C482 C483 1.422 . S
C483 C477 1.488 1_655 S
C483 C482 1.422 . S
C483 C484 1.380 1_655 S
C484 H472 0.950 . S
C484 C483 1.380 1_455 S
C484 C485 1.391 . S
C485 H473 0.950 . S
C485 C481 1.393 1_455 S
C485 C484 1.391 . S
C135 C8 2.127 . S
C141 C120 1.883 . S
C155 C26 1.485 . S
C161 C98 1.294 . S
C175 C48 1.403 . S
C181 C112 1.404 . S
C195 C19 1.671 . S
C201 C123 1.663 . S
C221 C101 1.329 . S
C215 C36 1.323 . S
C241 C109 1.552 . S
C235 C59 1.731 . S
C255 C28 1.680 . S
C261 C76 1.503 . S
C275 C46 1.331 . S
C281 C87 1.160 . S
C295 C16 1.614 . S
C301 C65 1.339 . S
C321 C79 1.519 . S
C315 C39 1.495 . S
C341 C90 0.866 . S
C335 C56 0.882 . S
C355 C6 1.253 . S
C361 C68 1.226 . S
C381 C89 1.404 . S
C375 C9 1.449 . S
C395 C21 1.485 . S
C401 C67 1.450 . S
C415 C49 1.539 . S
C421 C78 1.453 . S
C441 C111 1.420 . S
C435 C29 1.452 . S
C461 C122 1.502 . S
C455 C41 1.582 . S
C475 C1 1.538 . S
C481 C100 1.487 . S
