# Generated by pormake.
# Topology zzz, (3,6)-cn, num edge types: 1
# Building blocks:
#     Node 0, Type 0, BuildingBlock: WUSLED_clean_sbu_0, # of connection points: 3
#     Node 1, Type 0, BuildingBlock: WUSLED_clean_sbu_0, # of connection points: 3
#     Node 2, Type 0, BuildingBlock: WUSLED_clean_sbu_0, # of connection points: 3
#     Node 3, Type 0, BuildingBlock: WUSLED_clean_sbu_0, # of connection points: 3
#     Node 4, Type 0, BuildingBlock: WUSLED_clean_sbu_0, # of connection points: 3
#     Node 5, Type 0, BuildingBlock: WUSLED_clean_sbu_0, # of connection points: 3
#     Node 6, Type 0, BuildingBlock: WUSLED_clean_sbu_0, # of connection points: 3
#     Node 7, Type 0, BuildingBlock: WUSLED_clean_sbu_0, # of connection points: 3
#     Node 8, Type 1, BuildingBlock: HISSIN_clean_sbu_0, # of connection points: 6
#     Node 9, Type 1, BuildingBlock: HISSIN_clean_sbu_0, # of connection points: 6
#     Node 10, Type 1, BuildingBlock: HISSIN_clean_sbu_0, # of connection points: 6
#     Node 11, Type 1, BuildingBlock: HISSIN_clean_sbu_0, # of connection points: 6
#     Edge 12, Type (0, 1), BuildingBlock: EZIPEK_clean_linker_0, # of connection points: 2
#     Edge 13, Type (0, 1), BuildingBlock: EZIPEK_clean_linker_0, # of connection points: 2
#     Edge 14, Type (0, 1), BuildingBlock: EZIPEK_clean_linker_0, # of connection points: 2
#     Edge 15, Type (0, 1), BuildingBlock: EZIPEK_clean_linker_0, # of connection points: 2
#     Edge 16, Type (0, 1), BuildingBlock: EZIPEK_clean_linker_0, # of connection points: 2
#     Edge 17, Type (0, 1), BuildingBlock: EZIPEK_clean_linker_0, # of connection points: 2
#     Edge 18, Type (0, 1), BuildingBlock: EZIPEK_clean_linker_0, # of connection points: 2
#     Edge 19, Type (0, 1), BuildingBlock: EZIPEK_clean_linker_0, # of connection points: 2
#     Edge 20, Type (0, 1), BuildingBlock: EZIPEK_clean_linker_0, # of connection points: 2
#     Edge 21, Type (0, 1), BuildingBlock: EZIPEK_clean_linker_0, # of connection points: 2
#     Edge 22, Type (0, 1), BuildingBlock: EZIPEK_clean_linker_0, # of connection points: 2
#     Edge 23, Type (0, 1), BuildingBlock: EZIPEK_clean_linker_0, # of connection points: 2
#     Edge 24, Type (0, 1), BuildingBlock: EZIPEK_clean_linker_0, # of connection points: 2
#     Edge 25, Type (0, 1), BuildingBlock: EZIPEK_clean_linker_0, # of connection points: 2
#     Edge 26, Type (0, 1), BuildingBlock: EZIPEK_clean_linker_0, # of connection points: 2
#     Edge 27, Type (0, 1), BuildingBlock: EZIPEK_clean_linker_0, # of connection points: 2
#     Edge 28, Type (0, 1), BuildingBlock: EZIPEK_clean_linker_0, # of connection points: 2
#     Edge 29, Type (0, 1), BuildingBlock: EZIPEK_clean_linker_0, # of connection points: 2
#     Edge 30, Type (0, 1), BuildingBlock: EZIPEK_clean_linker_0, # of connection points: 2
#     Edge 31, Type (0, 1), BuildingBlock: EZIPEK_clean_linker_0, # of connection points: 2
#     Edge 32, Type (0, 1), BuildingBlock: EZIPEK_clean_linker_0, # of connection points: 2
#     Edge 33, Type (0, 1), BuildingBlock: EZIPEK_clean_linker_0, # of connection points: 2
#     Edge 34, Type (0, 1), BuildingBlock: EZIPEK_clean_linker_0, # of connection points: 2
#     Edge 35, Type (0, 1), BuildingBlock: EZIPEK_clean_linker_0, # of connection points: 2
# Relax obj value: 0.407
# Max RMSD: 0.230
# Mean RMSD: 0.187
data_MOF--net-zzz--node1-WUSLED_clean_sbu_0--node2-HISSIN_clean_sbu_0--edge1-EZIPEK_clean_linker_0
_symmetry_space_group_name_H-M    P1
_symmetry_Int_Tables_number       1
_symmetry_cell_setting            triclinic
loop_
_symmetry_equiv_pos_as_xyz
'x, y, z'
_cell_length_a     48.081522
_cell_length_b     48.294094
_cell_length_c     18.486968
_cell_angle_alpha  89.831329
_cell_angle_beta   91.477187
_cell_angle_gamma 91.222357
loop_
_atom_site_label
_atom_site_type_symbol
_atom_site_fract_x
_atom_site_fract_y
_atom_site_fract_z
_atom_type_partial_charge
C0 C 0.80437 0.52379 0.41733 0.0
C1 C 0.81815 0.4985 0.42686 0.0
C2 C 0.85865 0.52211 0.48293 0.0
C3 C 0.84495 0.49769 0.459 0.0
C4 C 0.84514 0.54742 0.47299 0.0
C5 C 0.81834 0.54826 0.44082 0.0
U6 U 0.75019 0.53364 0.26105 0.0
O7 O 0.70918 0.55352 0.25571 0.0
O8 O 0.71215 0.50913 0.23444 0.0
C9 C 0.69606 0.5308 0.23346 0.0
C10 C 0.77506 0.52424 0.38738 0.0
C11 C 0.67729 0.53342 0.16873 0.0
C12 C 0.63013 0.53373 0.11636 0.0
C13 C 0.64832 0.533 0.17696 0.0
C14 C 0.6696 0.53607 0.0378 0.0
C15 C 0.64056 0.5351 0.04609 0.0
C16 C 0.6878 0.5352 0.09853 0.0
C17 C 0.81511 0.54508 0.15777 0.0
C18 C 0.857 0.53181 0.09852 0.0
C19 C 0.8592 0.54469 0.22534 0.0
C20 C 0.83061 0.54951 0.22251 0.0
C21 C 0.87226 0.53485 0.16388 0.0
C22 C 0.8286 0.53692 0.09546 0.0
C23 C 0.78464 0.54467 0.15743 0.0
O24 O 0.7651 0.54844 0.36839 0.0
O25 O 0.76757 0.50447 0.34163 0.0
O26 O 0.7731 0.56413 0.19541 0.0
O27 O 0.77362 0.51991 0.16792 0.0
H28 H 0.80806 0.4792 0.41031 0.0
H29 H 0.85489 0.47791 0.46599 0.0
H30 H 0.85526 0.56654 0.49086 0.0
H31 H 0.80846 0.56812 0.43517 0.0
H32 H 0.60788 0.53279 0.12422 0.0
H33 H 0.63969 0.53176 0.23036 0.0
H34 H 0.67815 0.53699 0.9842 0.0
H35 H 0.71006 0.5355 0.09068 0.0
H36 H 0.86691 0.52433 0.05055 0.0
H37 H 0.87078 0.54731 0.27595 0.0
H38 H 0.82042 0.55548 0.27148 0.0
H39 H 0.81691 0.53314 0.04543 0.0
C40 C 1.01197 0.80701 0.38226 0.0
C41 C 0.98841 0.82394 0.38127 0.0
C42 C 1.01271 0.85853 0.4579 0.0
C43 C 0.9889 0.84949 0.41795 0.0
C44 C 0.03613 0.84153 0.4593 0.0
C45 C 0.03578 0.81623 0.42181 0.0
U46 U 1.0023 0.75814 0.21555 0.0
O47 O 0.98492 0.71543 0.20437 0.0
O48 O 0.02888 0.7239 0.18339 0.0
C49 C 1.00828 0.70555 0.18047 0.0
C50 C 1.01202 0.7793 0.34578 0.0
C51 C 1.00659 0.68657 0.11612 0.0
C52 C 0.98511 0.64617 0.05477 0.0
C53 C 0.98513 0.66628 0.10981 0.0
C54 C 0.02783 0.66617 1.01001 0.0
C55 C 1.00664 0.6457 1.00473 0.0
C56 C 0.02785 0.68629 0.06489 0.0
C57 C 0.98533 0.82483 0.1218 0.0
C58 C 0.99908 0.86999 0.07633 0.0
C59 C 0.97755 0.86614 0.19325 0.0
C60 C 0.97515 0.83742 0.18413 0.0
C61 C 0.99032 0.88241 0.14018 0.0
C62 C 0.99661 0.84141 0.06721 0.0
C63 C 0.98796 0.79461 0.11743 0.0
O64 O 0.9879 0.76826 0.32472 0.0
O65 O 0.03158 0.77554 0.29862 0.0
O66 O 0.96966 0.77964 0.15303 0.0
O67 O 1.01359 0.7861 0.12659 0.0
H68 H 0.96949 0.81736 0.35278 0.0
H69 H 0.97054 0.86212 0.41579 0.0
H70 H 0.05477 0.84789 0.48954 0.0
H71 H 0.05417 0.80365 0.42438 0.0
H72 H 0.96861 0.63054 0.05229 0.0
H73 H 0.96869 0.66548 0.14877 0.0
H74 H 0.04473 0.66622 0.97239 0.0
H75 H 0.04496 0.70121 0.06812 0.0
H76 H 1.0089 0.88237 0.03475 0.0
H77 H 0.97061 0.87546 0.24266 0.0
H78 H 0.96634 0.82496 0.22684 0.0
H79 H 1.00471 0.83211 0.01904 0.0
C80 C 0.72781 0.01367 0.36532 0.0
C81 C 0.70802 0.03479 0.35896 0.0
C82 C 0.67789 0.01213 0.44774 0.0
C83 C 0.68345 0.03397 0.39921 0.0
C84 C 0.69734 0.99078 0.45346 0.0
C85 C 0.7219 0.99155 0.41309 0.0
U86 U 0.77941 0.99882 0.20931 0.0
O87 O 0.8245 0.98954 0.20931 0.0
O88 O 0.80938 0.02728 0.1573 0.0
C89 C 0.83075 0.01114 0.16875 0.0
C90 C 0.75547 0.01622 0.32817 0.0
C91 C 0.85016 1.00712 0.10695 0.0
C92 C 0.89684 0.99593 0.0658 0.0
C93 C 0.87703 0.99686 0.12072 0.0
C94 C 0.8634 0.015 0.98082 0.0
C95 C 0.89043 1.0053 0.99524 0.0
C96 C 0.84358 0.01593 0.03577 0.0
C97 C 0.71587 0.96317 0.1345 0.0
C98 C 0.66982 0.97219 0.08567 0.0
C99 C 0.67611 0.96225 0.21356 0.0
C100 C 0.70461 0.95901 0.20343 0.0
C101 C 0.65898 0.97075 0.15546 0.0
C102 C 0.69802 0.96822 0.0752 0.0
C103 C 0.74574 0.96905 0.12654 0.0
O104 O 0.77099 0.99413 0.32595 0.0
O105 O 0.75637 0.03069 0.26783 0.0
O106 O 0.76273 0.95791 0.17485 0.0
O107 O 0.75135 0.99536 0.11432 0.0
H108 H 0.71175 0.05235 0.3237 0.0
H109 H 0.66892 0.0507 0.3933 0.0
H110 H 0.69371 0.97364 0.49016 0.0
H111 H 0.73655 0.975 0.42056 0.0
H112 H 0.91746 0.98848 0.07888 0.0
H113 H 0.88303 0.99022 0.17482 0.0
H114 H 0.85781 0.02243 0.92718 0.0
H115 H 0.82328 0.02417 0.02274 0.0
H116 H 0.65682 0.97835 0.03988 0.0
H117 H 0.66797 0.96057 0.26754 0.0
H118 H 0.71803 0.95535 0.25031 0.0
H119 H 0.70628 0.97163 0.02182 0.0
C120 C 0.54583 0.72566 0.3727 0.0
C121 C 0.53187 0.70405 0.33424 0.0
C122 C 0.53683 0.67299 0.44436 0.0
C123 C 0.5264 0.67773 0.36395 0.0
C124 C 0.55063 0.69696 0.48231 0.0
C125 C 0.55462 0.72199 0.4453 0.0
U126 U 0.53354 0.78224 0.22625 0.0
O127 O 0.56504 0.80571 0.1656 0.0
O128 O 0.53587 0.82805 0.23195 0.0
C129 C 0.55519 0.82993 0.1829 0.0
C130 C 0.55234 0.75264 0.33678 0.0
C131 C 0.55059 0.85008 0.12241 0.0
C132 C 0.54325 0.89773 0.08213 0.0
C133 C 0.54607 0.87811 0.13797 0.0
C134 C 0.54945 0.86185 0.99341 0.0
C135 C 0.54521 0.88986 1.00932 0.0
C136 C 0.55209 0.84217 0.04923 0.0
C137 C 0.4759 0.734 0.15531 0.0
C138 C 0.45989 0.6929 0.09108 0.0
C139 C 0.45812 0.69415 0.22204 0.0
C140 C 0.46914 0.72124 0.22134 0.0
C141 C 0.45441 0.67956 0.15687 0.0
C142 C 0.47044 0.71992 0.09031 0.0
C143 C 0.49141 0.76046 0.15245 0.0
O144 O 0.56234 0.75137 0.27136 0.0
O145 O 0.53406 0.7723 0.34318 0.0
O146 O 0.51739 0.75819 0.13333 0.0
O147 O 0.48832 0.77769 0.20647 0.0
H148 H 0.52515 0.70754 0.27869 0.0
H149 H 0.53027 0.67061 0.40536 0.0
H150 H 0.55795 0.69508 0.53795 0.0
H151 H 0.56517 0.73892 0.47381 0.0
H152 H 0.53981 0.91916 0.09578 0.0
H153 H 0.54499 0.88492 0.19359 0.0
H154 H 0.55082 0.85524 0.93771 0.0
H155 H 0.55556 0.82082 0.03494 0.0
H156 H 0.45696 0.68196 0.04024 0.0
H157 H 0.45378 0.68417 0.27319 0.0
H158 H 0.47337 0.73173 0.27228 0.0
H159 H 0.47554 0.7294 0.03898 0.0
C160 C 0.24033 0.50334 0.95325 0.0
C161 C 0.22278 0.47955 0.95097 0.0
C162 C 0.18648 0.50488 0.88565 0.0
C163 C 0.19616 0.48037 0.9178 0.0
C164 C 0.20385 0.52865 0.88804 0.0
C165 C 0.23044 0.52786 0.92126 0.0
U166 U 0.29231 0.49788 0.11575 0.0
O167 O 0.33233 0.47641 0.12933 0.0
O168 O 0.33118 0.52159 0.13844 0.0
C169 C 0.34622 0.49931 0.14683 0.0
C170 C 0.26923 0.50273 0.98545 0.0
C171 C 0.36542 0.49823 0.21185 0.0
C172 C 0.40321 0.47545 0.27871 0.0
C173 C 0.38342 0.4758 0.22139 0.0
C174 C 0.38753 0.51993 0.31888 0.0
C175 C 0.40561 0.49762 0.32767 0.0
C176 C 0.36768 0.52026 0.26174 0.0
C177 C 0.22592 0.4927 0.21733 0.0
C178 C 0.18337 0.50661 0.2725 0.0
C179 C 0.18163 0.48711 0.15162 0.0
C180 C 0.21053 0.48428 0.1551 0.0
C181 C 0.16803 0.49878 0.20996 0.0
C182 C 0.21212 0.50359 0.27617 0.0
C183 C 0.25643 0.4927 0.21895 0.0
O184 O 0.27715 0.52408 0.02551 0.0
O185 O 0.27778 0.47906 1.01252 0.0
O186 O 0.26785 0.47134 0.18834 0.0
O187 O 0.2681 0.51655 0.20145 0.0
H188 H 0.22961 0.46022 0.97449 0.0
H189 H 0.18315 0.46178 0.91675 0.0
H190 H 0.19688 0.5478 0.86369 0.0
H191 H 0.24343 0.54647 0.92135 0.0
H192 H 0.41699 0.45807 0.28415 0.0
H193 H 0.38254 0.45868 0.18359 0.0
H194 H 0.38904 0.53731 0.3558 0.0
H195 H 0.35444 0.53804 0.25609 0.0
H196 H 0.17307 0.51554 0.3181 0.0
H197 H 0.17001 0.48081 0.10325 0.0
H198 H 0.22094 0.47605 0.10888 0.0
H199 H 0.22368 0.5104 0.32422 0.0
C200 C 0.02656 0.22473 0.98625 0.0
C201 C 1.00396 0.20566 0.98905 0.0
C202 C 0.02756 0.17293 0.91182 0.0
C203 C 1.0045 0.18013 0.95256 0.0
C204 C 0.0504 0.19161 0.91011 0.0
C205 C 0.04988 0.21716 0.94653 0.0
U206 U 0.03939 0.27743 0.143 0.0
O207 O 1.01182 0.30948 0.18319 0.0
O208 O 0.05311 0.32158 0.14516 0.0
C209 C 0.03049 0.32959 0.17704 0.0
C210 C 0.02482 0.25306 0.01949 0.0
C211 C 0.03406 0.34899 0.23975 0.0
C212 C 0.04257 0.39629 0.28383 0.0
C213 C 0.04177 0.37685 0.22725 0.0
C214 C 0.02856 0.3604 0.36756 0.0
C215 C 0.03562 0.38839 0.35448 0.0
C216 C 0.0278 0.34092 0.31093 0.0
C217 C 0.06605 0.21354 0.2284 0.0
C218 C 0.05588 0.16803 0.2771 0.0
C219 C 0.06603 0.17314 0.14987 0.0
C220 C 0.06983 0.20168 0.15989 0.0
C221 C 0.05764 0.15643 0.20782 0.0
C222 C 0.06013 0.19638 0.28736 0.0
C223 C 0.06234 0.24347 0.23559 0.0
O224 O 1.00781 0.25582 0.07349 0.0
O225 O 0.04823 0.26733 0.02945 0.0
O226 O 0.07707 0.25944 0.19256 0.0
O227 O 0.03609 0.25034 0.23796 0.0
H228 H 0.98553 0.21068 0.01837 0.0
H229 H 0.98663 0.16614 0.95509 0.0
H230 H 0.06849 0.18662 0.87936 0.0
H231 H 0.06761 0.23122 0.94236 0.0
H232 H 0.04803 0.4177 0.27216 0.0
H233 H 0.04654 0.38376 0.17307 0.0
H234 H 0.02308 0.35374 0.42144 0.0
H235 H 0.02172 0.31968 0.32258 0.0
H236 H 0.04967 0.15533 0.32259 0.0
H237 H 0.06784 0.16444 0.09633 0.0
H238 H 0.07403 0.21461 0.1133 0.0
H239 H 0.05684 0.20516 0.34026 0.0
C240 C 0.32029 0.01613 1.00605 0.0
C241 C 0.33946 0.99441 1.00679 0.0
C242 C 0.3713 0.02031 0.92816 0.0
C243 C 0.36456 0.99652 0.96897 0.0
C244 C 0.35234 0.04223 0.928 0.0
C245 C 0.32725 0.04018 0.96622 0.0
U246 U 0.26217 0.03481 0.14339 0.0
O247 O 0.23796 1.00548 0.20974 0.0
O248 O 0.2159 0.03414 0.138 0.0
C249 C 0.21376 0.01573 0.1905 0.0
C250 C 0.29261 0.01215 0.04224 0.0
C251 C 0.19363 0.02081 0.25038 0.0
C252 C 0.14964 0.03937 0.2926 0.0
C253 C 0.16988 0.03711 0.23896 0.0
C254 C 0.17619 1.00928 0.3711 0.0
C255 C 0.15236 0.02526 0.35921 0.0
C256 C 0.19642 1.00705 0.31767 0.0
C257 C 0.31576 0.08675 0.20347 0.0
C258 C 0.35946 0.08169 0.26839 0.0
C259 C 0.35819 0.07995 0.1375 0.0
C260 C 0.32961 0.08495 0.13747 0.0
C261 C 0.37241 0.07513 0.20343 0.0
C262 C 0.33143 0.08806 0.2682 0.0
C263 C 0.28681 0.0769 0.2085 0.0
O264 O 0.29309 1.00416 0.11031 0.0
O265 O 0.27302 0.03021 0.02839 0.0
O266 O 0.27039 0.07995 0.1511 0.0
O267 O 0.28518 0.05198 0.23679 0.0
H268 H 0.33487 0.9755 0.03619 0.0
H269 H 0.3786 0.97927 0.97068 0.0
H270 H 0.35678 0.06086 0.8973 0.0
H271 H 0.31312 0.05732 0.96354 0.0
H272 H 0.13147 0.05167 0.28144 0.0
H273 H 0.16656 0.04766 0.18781 0.0
H274 H 0.17889 0.99803 0.42147 0.0
H275 H 0.21401 0.99391 0.32868 0.0
H276 H 0.3702 0.07905 0.32014 0.0
H277 H 0.36816 0.07626 0.08665 0.0
H278 H 0.31797 0.0842 0.08656 0.0
H279 H 0.32122 0.0897 0.31958 0.0
C280 C 0.51053 0.31612 1.00826 0.0
C281 C 0.52809 0.33836 0.03025 0.0
C282 C 0.51524 0.3644 0.92114 0.0
C283 C 0.53054 0.36222 0.98685 0.0
C284 C 0.49777 0.3421 0.89935 0.0
C285 C 0.49553 0.31821 0.94233 0.0
U286 U 0.53049 0.26647 0.16643 0.0
O287 O 0.52944 0.22077 0.17136 0.0
O288 O 0.5017 0.24443 0.23895 0.0
C289 C 0.51119 0.21991 0.22325 0.0
C290 C 0.50682 0.29089 0.0534 0.0
C291 C 0.51623 0.20068 0.28539 0.0
C292 C 0.54443 0.16671 0.35078 0.0
C293 C 0.54161 0.18702 0.29644 0.0
C294 C 0.49697 0.17388 0.38549 0.0
C295 C 0.52197 0.15967 0.39504 0.0
C296 C 0.49415 0.19412 0.33135 0.0
C297 C 0.58823 0.31894 0.21485 0.0
C298 C 0.60418 0.36254 0.26708 0.0
C299 C 0.60435 0.35648 0.13697 0.0
C300 C 0.59397 0.32932 0.14539 0.0
C301 C 0.60868 0.37348 0.19785 0.0
C302 C 0.59414 0.33553 0.27549 0.0
C303 C 0.57377 0.29216 0.22603 0.0
O304 O 0.52578 0.27183 0.04806 0.0
O305 O 0.49929 0.29477 0.12039 0.0
O306 O 0.5484 0.29418 0.24995 0.0
O307 O 0.57592 0.27329 0.17541 0.0
H308 H 0.53962 0.33738 0.0812 0.0
H309 H 0.54411 0.37915 1.00486 0.0
H310 H 0.48572 0.34327 0.84916 0.0
H311 H 0.48178 0.3014 0.92434 0.0
H312 H 0.56381 0.15582 0.35668 0.0
H313 H 0.55902 0.19143 0.26193 0.0
H314 H 0.47929 0.16862 0.41837 0.0
H315 H 0.47429 0.20408 0.32388 0.0
H316 H 0.60754 0.37532 0.31475 0.0
H317 H 0.60791 0.36455 0.0832 0.0
H318 H 0.58953 0.31686 0.09769 0.0
H319 H 0.58991 0.32793 0.32942 0.0
Eu320 Eu 1.00011 0.02939 0.61757 0.0
Eu321 Eu 0.04356 1.00431 0.73762 0.0
C322 C 0.0255 0.0688 0.74722 0.0
C323 C 0.97551 0.05415 0.43602 0.0
C324 C 0.97486 0.08167 0.41201 0.0
C325 C 1.00009 0.04177 0.32737 0.0
C326 C 0.98826 0.08948 0.34913 0.0
C327 C 0.98721 0.03397 0.39172 0.0
C328 C 1.00214 0.06987 0.30823 0.0
C329 C 0.96895 0.04839 0.51217 0.0
O330 O 1.00333 1.00763 0.79933 0.0
O331 O 0.9713 0.01413 0.70637 0.0
C332 C 0.97741 1.00971 0.77544 0.0
O333 O 1.01131 0.98698 0.57568 0.0
O334 O 0.0781 1.01042 0.81584 0.0
O335 O 0.06035 0.96949 0.79829 0.0
O336 O 0.0242 0.96631 0.68213 0.0
C337 C 0.01679 0.96462 0.61339 0.0
O338 O 0.04279 0.03926 0.57187 0.0
O339 O 0.06921 1.00812 0.63577 0.0
O340 O 0.04486 0.0505 0.76004 0.0
O341 O 0.96798 0.02254 0.53302 0.0
O342 O 0.98256 0.06416 0.55864 0.0
O343 O 1.00501 0.06395 0.7002 0.0
C344 C 0.07047 0.9817 0.91804 0.0
C345 C 0.07146 0.95498 0.94733 0.0
C346 C 0.04544 0.99693 0.02326 0.0
C347 C 0.05785 0.94883 1.01108 0.0
C348 C 0.05857 1.00301 0.95818 0.0
C349 C 0.04339 0.9694 0.04723 0.0
C350 C 0.07593 0.98519 0.84055 0.0
C351 C 0.06566 0.02492 0.58011 0.0
H352 H 0.96591 0.09755 0.44497 0.0
H353 H 1.01012 0.02626 0.29551 0.0
H354 H 0.98925 0.11126 0.33477 0.0
H355 H 0.98795 0.01253 0.40879 0.0
H356 H 0.08052 0.93828 0.91747 0.0
H357 H 0.035 0.01319 0.05146 0.0
H358 H 0.05682 0.92747 0.02919 0.0
H359 H 0.05761 0.02388 0.93691 0.0
Eu360 Eu 0.53988 0.04121 0.75032 0.0
Eu361 Eu 0.51158 1.00035 0.63283 0.0
C362 C 0.53424 0.97525 0.78558 0.0
C363 C 0.56674 0.06357 0.92958 0.0
C364 C 0.54492 0.05273 0.9715 0.0
C365 C 0.60009 0.04583 1.01727 0.0
C366 C 0.55082 0.0378 0.03492 0.0
C367 C 0.59424 0.06127 0.95531 0.0
C368 C 0.57853 0.03287 0.05552 0.0
C369 C 0.56195 0.07149 0.85329 0.0
O370 O 0.47608 0.02107 0.69175 0.0
O371 O 0.4991 0.02695 0.79918 0.0
C372 C 0.47549 0.02424 0.76251 0.0
O373 O 0.51916 0.06969 0.66811 0.0
O374 O 0.47348 0.98237 0.58457 0.0
O375 O 0.51286 0.97317 0.53843 0.0
O376 O 0.52323 0.04025 0.57449 0.0
C377 C 0.5208 0.06563 0.59819 0.0
O378 O 0.57223 0.03682 0.66224 0.0
O379 O 0.558 0.99431 0.62003 0.0
O380 O 0.51686 0.97199 0.72993 0.0
O381 O 0.57662 0.05776 0.80764 0.0
O382 O 0.53613 0.07387 0.83092 0.0
O383 O 0.54846 0.99853 0.7963 0.0
C384 C 0.47417 0.97985 0.45797 0.0
C385 C 0.44528 0.97751 0.44561 0.0
C386 C 0.47813 1.00582 0.34556 0.0
C387 C 0.4328 0.99044 0.38586 0.0
C388 C 0.49065 0.99305 0.40571 0.0
C389 C 0.44907 1.00572 0.33747 0.0
C390 C 0.48592 0.97199 0.52952 0.0
C391 C 0.57678 0.01456 0.62337 0.0
H392 H 0.52343 0.05417 0.95303 0.0
H393 H 0.62166 0.04262 0.03299 0.0
H394 H 0.53391 0.02855 0.06487 0.0
H395 H 0.61137 0.06941 0.92413 0.0
H396 H 0.43217 0.96727 0.48478 0.0
H397 H 0.49093 0.01737 0.30816 0.0
H398 H 0.41031 0.99011 0.38013 0.0
H399 H 0.513 0.99509 0.41346 0.0
Eu400 Eu 0.49954 0.52639 0.73007 0.0
Eu401 Eu 0.55191 0.50575 0.63338 0.0
C402 C 0.56359 0.52881 0.79543 0.0
C403 C 0.45468 0.55587 0.87955 0.0
C404 C 0.46789 0.58164 0.89209 0.0
C405 C 0.43354 0.55834 0.99755 0.0
C406 C 0.46357 0.59582 0.95617 0.0
C407 C 0.43765 0.5442 0.93285 0.0
C408 C 0.4462 0.58442 1.00889 0.0
C409 C 0.45857 0.54078 0.81175 0.0
O410 O 0.54472 0.47389 0.72163 0.0
O411 O 0.49823 0.47956 0.73162 0.0
C412 C 0.5205 0.4649 0.74372 0.0
O413 O 0.47933 0.5185 0.62037 0.0
O414 O 0.57475 0.47136 0.59133 0.0
O415 O 0.58986 0.51331 0.57259 0.0
O416 O 0.51378 0.49535 0.562 0.0
C417 C 0.48829 0.50484 0.56451 0.0
O418 O 0.51834 0.56588 0.68216 0.0
O419 O 0.5409 0.54727 0.58608 0.0
O420 O 0.57299 0.52713 0.72945 0.0
O421 O 0.46677 0.55504 0.7559 0.0
O422 O 0.4712 0.51734 0.81788 0.0
O423 O 0.53682 0.52669 0.80854 0.0
C424 C 0.59856 0.4795 0.48231 0.0
C425 C 0.59084 0.45302 0.45664 0.0
C426 C 0.62005 0.48955 0.3667 0.0
C427 C 0.59757 0.44495 0.38727 0.0
C428 C 0.61327 0.49773 0.43671 0.0
C429 C 0.61231 0.46301 0.34193 0.0
C430 C 0.59267 0.48712 0.55774 0.0
C431 C 0.53022 0.56848 0.61888 0.0
H432 H 0.48142 0.5909 0.85235 0.0
H433 H 0.4203 0.5492 0.03811 0.0
H434 H 0.47366 0.61588 0.96455 0.0
H435 H 0.42748 0.5242 0.92426 0.0
H436 H 0.57987 0.43826 0.49037 0.0
H437 H 0.63163 0.50361 0.3326 0.0
H438 H 0.59156 0.42431 0.36909 0.0
H439 H 0.61983 0.51813 0.45546 0.0
Eu440 Eu 0.03465 0.53868 0.62867 0.0
Eu441 Eu 1.01291 0.4917 0.74417 0.0
C442 C 0.0765 0.51 0.74298 0.0
C443 C 0.06119 0.56651 0.45447 0.0
C444 C 0.08817 0.57161 0.43035 0.0
C445 C 0.05036 0.54025 0.34468 0.0
C446 C 0.09673 0.55963 0.36653 0.0
C447 C 0.04192 0.5517 0.40985 0.0
C448 C 0.07833 0.54268 0.32531 0.0
C449 C 0.05579 0.57135 0.53121 0.0
O450 O 1.0133 0.53254 0.80606 0.0
O451 O 0.01921 0.56583 0.71791 0.0
C452 C 1.01438 0.55867 0.78519 0.0
O453 O 0.98976 0.5324 0.59345 0.0
O454 O 0.0223 0.46942 0.8443 0.0
O455 O 0.98289 0.46207 0.78859 0.0
O456 O 0.97314 0.50393 0.68361 0.0
C457 C 0.96935 0.51857 0.62392 0.0
O458 O 0.03786 0.49762 0.56869 0.0
O459 O 0.01958 0.46496 0.64666 0.0
O460 O 0.05969 0.48832 0.74064 0.0
O461 O 0.02986 0.57231 0.55008 0.0
O462 O 0.07072 0.55633 0.57547 0.0
O463 O 0.06839 0.53371 0.71586 0.0
C464 C 0.98305 0.46528 0.91676 0.0
C465 C 0.9551 0.47323 0.91498 0.0
C466 C 0.98631 0.47707 0.04488 0.0
C467 C 0.94318 0.48365 0.97676 0.0
C468 C 0.99832 0.46654 0.98282 0.0
C469 C 0.95888 0.48627 0.04138 0.0
C470 C 0.99721 0.45907 0.84893 0.0
C471 C 0.02976 0.47199 0.58371 0.0
H472 H 0.10333 0.58286 0.46398 0.0
H473 H 0.0358 0.52759 0.31282 0.0
H474 H 0.11834 0.562 0.35194 0.0
H475 H 0.02098 0.54731 0.42758 0.0
H476 H 0.94269 0.4725 0.86527 0.0
H477 H 0.99856 0.47885 0.0947 0.0
H478 H 0.92187 0.49054 0.97363 0.0
H479 H 0.01989 0.46048 0.98567 0.0
C480 C 0.13484 0.03977 0.48278 0.0
C481 C 0.12982 0.02618 0.41524 0.0
C482 C 0.08169 0.01525 0.4523 0.0
C483 C 0.08752 0.02647 0.52249 0.0
N484 N 0.12076 0.04727 0.6067 0.0
N485 N 0.09977 0.99673 0.34127 0.0
C486 C 0.11449 0.038 0.53831 0.0
C487 C 0.10353 0.01288 0.40149 0.0
N488 N 0.15869 0.05534 0.49288 0.0
N489 N 0.05516 1.00679 0.43367 0.0
H490 H 0.11512 0.99419 0.30314 0.0
H491 H 0.08248 0.98375 0.33235 0.0
H492 H 0.03875 1.00725 0.46916 0.0
H493 H 0.04885 1.00113 0.3814 0.0
H494 H 0.16249 0.06817 0.53732 0.0
H495 H 0.1738 0.0573 0.45362 0.0
H496 H 0.14082 0.05273 0.62467 0.0
H497 H 0.10607 0.04801 0.64717 0.0
C498 C 0.53317 0.13895 0.51837 0.0
C499 C 0.52342 0.13541 0.4459 0.0
C500 C 0.51178 0.08653 0.47229 0.0
C501 C 0.52175 0.08983 0.54541 0.0
N502 N 0.55196 0.11702 0.62607 0.0
N503 N 0.50402 0.10607 0.35183 0.0
C504 C 0.53506 0.11551 0.5655 0.0
C505 C 0.51351 0.10904 0.42198 0.0
N506 N 0.54034 0.16487 0.5428 0.0
N507 N 0.5009 0.06164 0.45005 0.0
H508 H 0.50561 0.12177 0.31321 0.0
H509 H 0.49404 0.08842 0.33104 0.0
H510 H 0.49123 0.04768 0.48485 0.0
H511 H 0.50105 0.05512 0.3966 0.0
H512 H 0.54426 0.16933 0.59727 0.0
H513 H 0.54023 0.18232 0.50938 0.0
H514 H 0.5641 0.13446 0.63954 0.0
H515 H 0.55713 0.09986 0.65744 0.0
C516 C 0.42327 0.48337 0.45254 0.0
C517 C 0.42766 0.49798 0.3868 0.0
C518 C 0.47233 0.5165 0.43657 0.0
C519 C 0.46859 0.50084 0.50102 0.0
N520 N 0.44296 0.46581 0.5658 0.0
N521 N 0.45836 0.5246 0.31113 0.0
C522 C 0.44472 0.48323 0.50759 0.0
C523 C 0.45283 0.51338 0.37736 0.0
N524 N 0.39818 0.47036 0.46327 0.0
N525 N 0.49383 0.53539 0.43306 0.0
H526 H 0.44446 0.52315 0.26696 0.0
H527 H 0.47755 0.53341 0.2981 0.0
H528 H 0.50883 0.53789 0.47425 0.0
H529 H 0.49574 0.54996 0.39179 0.0
H530 H 0.39233 0.46201 0.5127 0.0
H531 H 0.38226 0.46959 0.42386 0.0
H532 H 0.42764 0.45041 0.57066 0.0
H533 H 0.45829 0.46515 0.60673 0.0
C534 C 1.00813 0.41857 0.43754 0.0
C535 C 0.03436 0.40967 0.41384 0.0
C536 C 0.05776 0.44272 0.49869 0.0
C537 C 0.03151 0.45014 0.52607 0.0
N538 N 0.98175 0.44192 0.52826 0.0
N539 N 0.08425 0.41045 0.42815 0.0
C540 C 1.00676 0.437 0.49768 0.0
C541 C 0.05922 0.42108 0.44602 0.0
N542 N 0.98443 0.41042 0.40024 0.0
N543 N 0.08139 0.45626 0.52333 0.0
H544 H 0.08609 0.39481 0.3899 0.0
H545 H 0.10301 0.41558 0.45461 0.0
H546 H 0.08157 0.47048 0.56567 0.0
H547 H 0.10067 0.45452 0.4996 0.0
H548 H 0.965 0.41876 0.40872 0.0
H549 H 0.98447 0.39703 0.35607 0.0
H550 H 0.96368 0.43037 0.51644 0.0
H551 H 0.97918 0.45639 0.56907 0.0
C552 C 0.92453 0.03205 0.91646 0.0
C553 C 0.9124 1.00625 0.93766 0.0
C554 C 0.94402 0.98244 0.85543 0.0
C555 C 0.95435 1.00837 0.82967 0.0
N556 N 0.95138 0.05812 0.82893 0.0
N557 N 0.90796 0.95698 0.91962 0.0
C558 C 0.94362 0.03322 0.85819 0.0
C559 C 0.92144 0.98146 0.90487 0.0
N560 N 0.91874 0.05545 0.95421 0.0
N561 N 0.95622 0.95864 0.83385 0.0
H562 H 0.89162 0.95546 0.95556 0.0
H563 H 0.91143 0.93862 0.89226 0.0
H564 H 0.97213 0.95852 0.79656 0.0
H565 H 0.95206 0.93931 0.8567 0.0
H566 H 0.9293 0.0743 0.94753 0.0
H567 H 0.90505 0.05553 0.99705 0.0
H568 H 0.94211 0.07675 0.84132 0.0
H569 H 0.96558 0.05991 0.78758 0.0
C570 C 0.51578 0.92139 0.93097 0.0
C571 C 0.54239 0.91096 0.94979 0.0
C572 C 0.56314 0.94021 0.85469 0.0
C573 C 0.53693 0.9525 0.84062 0.0
N574 N 0.48918 0.95795 0.87434 0.0
N575 N 0.59208 0.91253 0.93536 0.0
C576 C 0.51346 0.94384 0.88099 0.0
C577 C 0.56627 0.92093 0.91309 0.0
N578 N 0.49253 0.90928 0.95944 0.0
N579 N 0.58481 0.94619 0.8104 0.0
H580 H 0.59516 0.89795 0.97634 0.0
H581 H 0.61052 0.92148 0.91722 0.0
H582 H 0.58323 0.95994 0.76692 0.0
H583 H 0.60358 0.93584 0.81262 0.0
H584 H 0.47237 0.91373 0.94174 0.0
H585 H 0.49334 0.89293 0.99639 0.0
H586 H 0.47245 0.95488 0.90834 0.0
H587 H 0.48654 0.9745 0.83889 0.0
C588 C 0.61866 0.5093 0.93969 0.0
C589 C 0.62109 0.53395 0.98117 0.0
C590 C 0.5848 0.55504 0.90303 0.0
C591 C 0.58405 0.53116 0.85806 0.0
N592 N 0.60364 0.48704 0.8279 0.0
N593 N 0.60939 0.58173 0.99708 0.0
C594 C 0.60209 0.50882 0.87455 0.0
C595 C 0.60487 0.55721 0.96148 0.0
N596 N 0.63117 0.48579 0.96444 0.0
N597 N 0.56631 0.57569 0.88992 0.0
H598 H 0.62381 0.58404 0.03989 0.0
H599 H 0.60054 0.60031 0.98091 0.0
H600 H 0.55268 0.57577 0.8451 0.0
H601 H 0.56334 0.59199 0.92543 0.0
H602 H 0.62746 0.4663 0.94178 0.0
H603 H 0.64334 0.48515 1.01192 0.0
H604 H 0.61884 0.47204 0.83225 0.0
H605 H 0.59121 0.48491 0.78136 0.0
C606 C 0.9903 0.62345 0.88581 0.0
C607 C 1.00783 0.62304 0.94898 0.0
C608 C 0.03111 0.58218 0.90134 0.0
C609 C 1.01197 0.58099 0.84133 0.0
N610 N 0.97052 0.59823 0.78237 0.0
N611 N 0.04134 0.59874 0.02314 0.0
C612 C 0.9908 0.60107 0.83515 0.0
C613 C 0.02714 0.60138 0.95856 0.0
N614 N 0.97374 0.64567 0.87307 0.0
N615 N 0.05411 0.56603 0.90183 0.0
H616 H 0.03913 0.61238 0.06617 0.0
H617 H 0.05334 0.58165 0.03638 0.0
H618 H 0.05856 0.55287 0.85932 0.0
H619 H 0.07025 0.56786 0.94029 0.0
H620 H 0.96283 0.64883 0.82446 0.0
H621 H 0.97259 0.66217 0.90909 0.0
H622 H 0.95283 0.61029 0.77965 0.0
H623 H 0.97016 0.58223 0.7446 0.0
C624 C 0.02076 0.12115 0.17278 0.0
C625 C 0.04837 0.12721 0.19784 0.0
C626 C 0.04948 0.084 0.26602 0.0
C627 C 0.02055 0.08035 0.25046 0.0
N628 N 0.98262 0.08724 0.16653 0.0
N629 N 0.09207 0.11013 0.24159 0.0
C630 C 1.00784 0.0959 0.19449 0.0
C631 C 0.06389 0.10673 0.23433 0.0
N632 N 1.00609 0.1405 0.13468 0.0
N633 N 0.06243 0.06743 0.31576 0.0
H634 H 0.10248 0.12709 0.21875 0.0
H635 H 0.10509 0.09526 0.26396 0.0
H636 H 0.05268 0.05008 0.33783 0.0
H637 H 0.0825 0.0712 0.33639 0.0
H638 H 0.9849 0.13848 0.12233 0.0
H639 H 1.01495 0.15917 0.11746 0.0
H640 H 0.9728 0.09658 0.12223 0.0
H641 H 0.97304 0.06889 0.18422 0.0
C642 C 0.3993 0.03087 0.19207 0.0
C643 C 0.39888 0.05973 0.20868 0.0
C644 C 0.43433 0.05352 0.30239 0.0
C645 C 0.43523 0.0249 0.28599 0.0
N646 N 0.42499 0.98819 0.20122 0.0
N647 N 0.42393 0.09929 0.25734 0.0
C648 C 0.42013 0.01429 0.22529 0.0
C649 C 0.41992 0.07128 0.25453 0.0
N650 N 0.37861 0.0186 0.15071 0.0
N651 N 0.444 0.06325 0.36766 0.0
H652 H 0.41271 0.11254 0.22327 0.0
H653 H 0.44004 0.10866 0.28791 0.0
H654 H 0.45089 0.05007 0.40868 0.0
H655 H 0.44173 0.0837 0.38404 0.0
H656 H 0.3762 0.9972 0.14575 0.0
H657 H 0.36283 0.02939 0.12463 0.0
H658 H 0.41621 0.98026 0.15327 0.0
H659 H 0.43992 0.9756 0.22575 0.0
C660 C 0.5946 0.42263 0.18326 0.0
C661 C 0.61625 0.40335 0.19247 0.0
C662 C 0.64367 0.43667 0.2648 0.0
C663 C 0.61949 0.4526 0.26967 0.0
N664 N 0.57779 0.4685 0.21203 0.0
N665 N 0.66462 0.39543 0.21575 0.0
C666 C 0.59718 0.44844 0.2197 0.0
C667 C 0.64224 0.41199 0.22307 0.0
N668 N 0.5708 0.41514 0.14581 0.0
N669 N 0.66678 0.44407 0.30514 0.0
H670 H 0.66312 0.37721 0.18543 0.0
H671 H 0.68461 0.40043 0.23498 0.0
H672 H 0.66782 0.46253 0.33441 0.0
H673 H 0.68463 0.43232 0.30956 0.0
H674 H 0.55301 0.42702 0.14325 0.0
H675 H 0.56886 0.39651 0.11766 0.0
H676 H 0.56134 0.4677 0.17434 0.0
H677 H 0.57986 0.48713 0.24048 0.0
C678 C 0.12078 0.48617 0.25085 0.0
C679 C 0.13772 0.50349 0.20792 0.0
C680 C 0.10293 0.53944 0.20997 0.0
C681 C 0.09026 0.52543 0.26808 0.0
N682 N 0.08399 0.48348 0.33789 0.0
N683 N 0.1418 0.54467 0.13325 0.0
C684 C 0.09752 0.49769 0.28488 0.0
C685 C 0.12755 0.52902 0.18171 0.0
N686 N 0.12775 0.45913 0.26065 0.0
N687 N 0.09273 0.56403 0.18592 0.0
H688 H 0.16031 0.53856 0.11022 0.0
H689 H 0.16031 0.53856 0.11022 0.0
H690 H 0.07449 0.57209 0.20606 0.0
H691 H 0.10194 0.57543 0.14452 0.0
H692 H 0.11539 0.44457 0.28708 0.0
H693 H 0.14499 0.45081 0.23599 0.0
H694 H 0.0906 0.46468 0.35913 0.0
H695 H 0.06634 0.49078 0.36237 0.0
C696 C 0.02252 0.92031 0.18395 0.0
C697 C 0.99668 0.91226 0.15097 0.0
C698 C 0.99544 0.95524 0.08176 0.0
C699 C 0.02366 0.9602 0.10328 0.0
N700 N 0.05913 0.95581 0.19513 0.0
N701 N 0.95403 0.92564 0.09251 0.0
C702 C 0.03514 0.94582 0.16301 0.0
C703 C 0.98139 0.93136 0.10889 0.0
N704 N 0.03597 0.90247 0.22952 0.0
N705 N 0.98317 0.97186 0.03094 0.0
H706 H 0.94398 0.9079 0.11234 0.0
H707 H 0.9409 0.93911 0.06482 0.0
H708 H 0.99255 0.99011 1.01269 0.0
H709 H 0.96381 0.96765 1.00677 0.0
H710 H 0.05635 0.9056 0.24855 0.0
H711 H 0.02676 0.88395 0.24682 0.0
H712 H 0.06828 0.94718 0.24134 0.0
H713 H 0.06842 0.97437 0.17788 0.0
C714 C 0.62724 1.00855 0.19261 0.0
C715 C 0.63058 0.98128 0.16565 0.0
C716 C 0.587 0.98423 0.09637 0.0
C717 C 0.58638 0.01285 0.1131 0.0
N718 N 0.59707 0.04822 0.20016 0.0
N719 N 0.60954 0.94048 0.11175 0.0
C720 C 0.60322 0.0233 0.17073 0.0
C721 C 0.60852 0.96808 0.12629 0.0
N722 N 0.64815 0.02144 0.23189 0.0
N723 N 0.56864 0.97217 0.04825 0.0
H724 H 0.62533 0.92814 0.1332 0.0
H725 H 0.59406 0.93013 0.08119 0.0
H726 H 0.55218 0.98249 0.02315 0.0
H727 H 0.55218 0.98249 0.02315 0.0
H728 H 0.64821 0.04239 0.24501 0.0
H729 H 0.66611 0.0115 0.24919 0.0
H730 H 0.60733 0.05641 0.24584 0.0
H731 H 0.5797 0.0592 0.18215 0.0
C732 C 0.42073 0.64248 0.11975 0.0
C733 C 0.44641 0.6498 0.1544 0.0
C734 C 0.46442 0.60435 0.12467 0.0
C735 C 0.44179 0.60073 0.07503 0.0
N736 N 0.39522 0.6127 0.03661 0.0
N737 N 0.49151 0.63641 0.20054 0.0
C738 C 0.41867 0.61823 0.07761 0.0
C739 C 0.46757 0.62988 0.16243 0.0
N740 N 0.39862 0.65954 0.12163 0.0
N741 N 0.48312 0.58363 0.13316 0.0
H742 H 0.49399 0.65462 0.2303 0.0
H743 H 0.50911 0.62425 0.2016 0.0
H744 H 0.48075 0.56494 0.10515 0.0
H745 H 0.4993 0.58389 0.17168 0.0
H746 H 0.39876 0.67783 0.15175 0.0
H747 H 0.39876 0.67783 0.15175 0.0
H748 H 0.37813 0.62569 0.03588 0.0
H749 H 0.39284 0.59497 1.0048 0.0
C750 C 0.92192 0.54219 0.13304 0.0
C751 C 0.90137 0.52554 0.16651 0.0
C752 C 0.92826 0.484 0.14771 0.0
C753 C 0.946 0.49992 0.10321 0.0
N754 N 0.96616 0.5441 0.07172 0.0
N755 N 0.88909 0.48333 0.22837 0.0
C756 C 0.94522 0.5292 0.10319 0.0
C757 C 0.90625 0.49733 0.18252 0.0
N758 N 0.91793 0.57 0.1261 0.0
N759 N 0.9314 0.45598 0.15181 0.0
H760 H 0.87269 0.49286 0.25363 0.0
H761 H 0.89225 0.46314 0.24594 0.0
H762 H 0.9481 0.44619 0.12849 0.0
H763 H 0.91752 0.44244 0.17676 0.0
H764 H 0.93061 0.58337 0.09671 0.0
H765 H 0.90133 0.5797 0.15022 0.0
H766 H 0.96772 0.56561 0.07166 0.0
H767 H 0.98326 0.53455 0.04965 0.0
C768 C 0.02527 0.14663 0.7925 0.0
C769 C 0.02746 0.14621 0.86944 0.0
C770 C 0.02568 0.0951 0.86623 0.0
C771 C 0.02632 0.09553 0.78922 0.0
N772 N 0.03159 0.12212 0.67972 0.0
N773 N 0.03491 0.11982 0.97874 0.0
C774 C 0.0274 0.12144 0.75255 0.0
C775 C 0.02913 0.12034 0.90602 0.0
N776 N 0.02016 0.17102 0.75742 0.0
N777 N 0.02048 0.07072 0.90159 0.0
H778 H 0.03801 0.13779 1.0092 0.0
H779 H 0.03924 0.10176 1.00743 0.0
H780 H 0.01726 0.05195 0.8748 0.0
H781 H 0.01669 0.06951 0.95674 0.0
H782 H 1.01529 0.17226 0.70231 0.0
H783 H 0.01832 0.1898 0.78442 0.0
H784 H 0.03562 0.14031 0.65113 0.0
H785 H 0.03363 0.10427 0.64882 0.0
C786 C 0.40137 1.00354 0.8252 0.0
C787 C 0.39775 0.02184 0.88436 0.0
C788 C 0.44303 0.04433 0.85604 0.0
C789 C 0.44813 0.02395 0.80247 0.0
N790 N 0.43375 0.98021 0.74886 0.0
N791 N 0.4183 0.05636 0.96426 0.0
C792 C 0.42766 1.00254 0.79036 0.0
C793 C 0.4195 0.04132 0.90198 0.0
N794 N 0.37938 0.98752 0.80052 0.0
N795 N 0.45998 0.06733 0.86124 0.0
H796 H 0.40184 0.05444 0.99971 0.0
H797 H 0.43482 0.06864 0.98421 0.0
H798 H 0.47648 0.07105 0.82677 0.0
H799 H 0.45585 0.08412 0.89425 0.0
H800 H 0.37982 0.97601 0.753 0.0
H801 H 0.3598 0.98788 0.82342 0.0
H802 H 0.42087 0.96265 0.74455 0.0
H803 H 0.45296 0.9778 0.72517 0.0
C804 C 0.5056 0.41524 0.90108 0.0
C805 C 0.51688 0.39023 0.87575 0.0
C806 C 0.52782 0.41344 0.76056 0.0
C807 C 0.51887 0.43903 0.78863 0.0
N808 N 0.50562 0.46525 0.89275 0.0
N809 N 0.54335 0.36683 0.78629 0.0
C810 C 0.50945 0.44019 0.86085 0.0
C811 C 0.5293 0.3897 0.80676 0.0
N812 N 0.49042 0.4151 0.96258 0.0
N813 N 0.53401 0.41153 0.68904 0.0
H814 H 0.54514 0.34924 0.81882 0.0
H815 H 0.55534 0.36622 0.74023 0.0
H816 H 0.53288 0.42831 0.65348 0.0
H817 H 0.53782 0.39285 0.66349 0.0
H818 H 0.47916 0.43204 0.97926 0.0
H819 H 0.48688 0.39731 0.99338 0.0
H820 H 0.50161 0.46749 0.94752 0.0
H821 H 0.50944 0.484 0.86655 0.0
C822 C 0.1339 0.5063 0.89102 0.0
C823 C 0.15821 0.50568 0.84896 0.0
C824 C 0.12904 0.50916 0.73748 0.0
C825 C 0.10465 0.50804 0.77936 0.0
N826 N 0.08358 0.5021 0.89558 0.0
N827 N 0.17891 0.50221 0.73217 0.0
C828 C 0.10704 0.50546 0.85601 0.0
C829 C 0.15575 0.50601 0.77212 0.0
N830 N 0.13654 0.50888 0.96455 0.0
N831 N 0.12669 0.51334 0.66441 0.0
H832 H 0.19871 0.49985 0.75547 0.0
H833 H 0.17834 0.49918 0.67645 0.0
H834 H 0.10758 0.51404 0.63655 0.0
H835 H 0.14355 0.51774 0.63178 0.0
H836 H 0.11999 0.51266 0.99806 0.0
H837 H 0.15577 0.50942 0.99196 0.0
H838 H 0.08381 0.49667 0.95012 0.0
H839 H 0.06358 0.50318 0.87293 0.0
C840 C 0.9964 0.8897 0.55906 0.0
C841 C 1.01338 0.88578 0.49803 0.0
C842 C 0.0351 0.9318 0.52004 0.0
C843 C 0.01606 0.937 0.57572 0.0
N844 N 0.97576 0.92216 0.64141 0.0
N845 N 0.04537 0.90558 0.41278 0.0
C846 C 0.99593 0.91625 0.59342 0.0
C847 C 0.03172 0.90758 0.47639 0.0
N848 N 0.9815 0.86778 0.58608 0.0
N849 N 0.05739 0.94934 0.51109 0.0
H850 H 0.04344 0.8883 0.37922 0.0
H851 H 0.05649 0.92204 0.39008 0.0
H852 H 0.06125 0.96648 0.54414 0.0
H853 H 0.07353 0.94533 0.47632 0.0
H854 H 0.97109 0.86849 0.63473 0.0
H855 H 0.98154 0.84806 0.56327 0.0
H856 H 0.95871 0.9091 0.65074 0.0
H857 H 0.97483 0.94121 0.66755 0.0
C858 C 0.62542 1.00572 0.46138 0.0
C859 C 0.65203 0.01193 0.49336 0.0
C860 C 0.62969 0.01645 0.61208 0.0
C861 C 0.6028 0.01309 0.57874 0.0
N862 N 0.57531 1.00959 0.46773 0.0
N863 N 0.67891 0.02728 0.59802 0.0
C864 C 0.60076 1.00899 0.5023 0.0
C865 C 0.65396 0.0184 0.56848 0.0
N866 N 0.62369 0.99584 0.39219 0.0
N867 N 0.63225 0.01662 0.68588 0.0
H868 H 0.69705 0.02881 0.56839 0.0
H869 H 0.68115 0.03532 0.65009 0.0
H870 H 0.61521 0.01469 0.71949 0.0
H871 H 0.65131 0.016 0.7138 0.0
H872 H 0.60529 0.98822 0.36796 0.0
H873 H 0.64119 0.99276 0.36132 0.0
H874 H 0.57271 1.00996 0.41163 0.0
H875 H 0.55685 0.01241 0.49467 0.0
C876 C 0.50864 0.63446 0.51681 0.0
C877 C 0.53494 0.64521 0.49596 0.0
C878 C 0.5579 0.60834 0.56625 0.0
C879 C 0.53157 0.59606 0.58149 0.0
N880 N 0.48177 0.59518 0.56187 0.0
N881 N 0.58439 0.63957 0.48979 0.0
C882 C 0.50687 0.6086 0.55457 0.0
C883 C 0.55954 0.63145 0.51798 0.0
N884 N 0.48536 0.64937 0.50201 0.0
N885 N 0.58137 0.59831 0.59934 0.0
H886 H 0.58629 0.65591 0.45309 0.0
H887 H 0.60265 0.62861 0.49738 0.0
H888 H 0.58092 0.58165 0.63543 0.0
H889 H 0.60086 0.60802 0.59641 0.0
H890 H 0.46588 0.64428 0.52213 0.0
H891 H 0.48596 0.66826 0.47449 0.0
H892 H 0.46348 0.60152 0.53611 0.0
H893 H 0.47954 0.57637 0.58921 0.0
C894 C 0.91086 0.51628 0.47758 0.0
C895 C 0.88702 0.52112 0.51916 0.0
C896 C 0.91732 0.52676 0.62819 0.0
C897 C 0.94088 0.5193 0.58806 0.0
N898 N 0.95896 0.50238 0.47589 0.0
N899 N 0.86698 0.52637 0.63633 0.0
C900 C 0.93735 0.51289 0.51302 0.0
C901 C 0.89012 0.52504 0.59515 0.0
N902 N 0.90835 0.51568 0.40375 0.0
N903 N 0.92096 0.53689 0.69683 0.0
H904 H 0.84679 0.52534 0.61431 0.0
H905 H 0.86773 0.52605 0.69268 0.0
H906 H 0.94042 0.53921 0.72245 0.0
H907 H 0.90503 0.54553 0.72582 0.0
H908 H 0.92531 0.51551 0.36981 0.0
H909 H 0.88935 0.5177 0.37598 0.0
H910 H 0.95677 0.49425 0.4239 0.0
H911 H 0.97864 0.49931 0.49899 0.0
loop_
_geom_bond_atom_site_label_1
_geom_bond_atom_site_label_2
_geom_bond_distance
_geom_bond_site_symmetry_2
_ccdc_geom_bond_type
C0 C1 1.264 . S
C0 C5 1.479 . S
C0 C10 1.465 . S
C1 C0 1.264 . S
C1 C3 1.339 . S
C1 H28 0.931 . S
C2 C3 1.395 . S
C2 C4 1.320 . S
C3 C1 1.339 . S
C3 C2 1.395 . S
C3 H29 0.929 . S
C4 C2 1.320 . S
C4 C5 1.405 . S
C4 H30 0.930 . S
C5 C0 1.479 . S
C5 C4 1.405 . S
C5 H31 0.931 . S
U6 O7 2.454 . S
U6 O8 2.458 . S
U6 C9 2.984 . S
U6 C10 2.847 . S
U6 C23 2.882 . S
U6 O24 2.441 . S
U6 O25 2.420 . S
U6 O26 2.455 . S
U6 O27 2.449 . S
O7 U6 2.454 . S
O7 C9 1.353 . S
O8 U6 2.458 . S
O8 C9 1.286 . S
C9 U6 2.984 . S
C9 O7 1.353 . S
C9 O8 1.286 . S
C9 C11 1.363 . S
C10 C0 1.465 . S
C10 U6 2.847 . S
C10 O24 1.249 . S
C10 O25 1.202 . S
C11 C9 1.363 . S
C11 C13 1.408 . S
C11 C16 1.342 . S
C12 C13 1.310 . S
C12 C15 1.461 . S
C12 H32 0.932 . S
C13 C11 1.408 . S
C13 C12 1.310 . S
C13 H33 0.930 . S
C14 C15 1.474 . S
C14 C16 1.285 . S
C14 H34 0.929 . S
C15 C12 1.461 . S
C15 C14 1.474 . S
C16 C11 1.342 . S
C16 C14 1.285 . S
C16 H35 0.930 . S
C17 C20 1.424 . S
C17 C22 1.245 . S
C17 C23 1.428 . S
C18 C21 1.260 1_556 S
C18 C22 1.477 1_556 S
C18 H36 0.932 . S
C19 C20 1.384 . S
C19 C21 1.479 . S
C19 H37 0.929 . S
C20 C17 1.424 . S
C20 C19 1.384 . S
C20 H38 0.928 . S
C21 C18 1.260 1_554 S
C21 C19 1.479 . S
C22 C17 1.245 . S
C22 C18 1.477 1_554 S
C22 H39 0.932 . S
C23 U6 2.882 . S
C23 C17 1.428 . S
C23 O26 1.301 . S
C23 O27 1.282 . S
O24 U6 2.441 . S
O24 C10 1.249 . S
O25 U6 2.420 . S
O25 C10 1.202 . S
O26 U6 2.455 . S
O26 C23 1.301 . S
O27 U6 2.449 . S
O27 C23 1.282 . S
H28 C1 0.931 . S
H29 C3 0.929 . S
H30 C4 0.930 . S
H31 C5 0.931 . S
H32 C12 0.932 . S
H33 C13 0.930 . S
H34 C14 0.929 . S
H35 C16 0.930 . S
H36 C18 0.932 . S
H37 C19 0.929 . S
H38 C20 0.928 . S
H39 C22 0.932 . S
C40 C41 1.264 . S
C40 C45 1.479 . S
C40 C50 1.465 . S
C41 C40 1.264 . S
C41 C43 1.339 . S
C41 H68 0.931 . S
C42 C43 1.395 . S
C42 C44 1.320 . S
C43 C41 1.339 . S
C43 C42 1.395 . S
C43 H69 0.929 . S
C44 C42 1.320 . S
C44 C45 1.405 . S
C44 H70 0.930 . S
C45 C40 1.479 . S
C45 C44 1.405 . S
C45 H71 0.931 . S
U46 O47 2.454 . S
U46 O48 2.458 . S
U46 C49 2.984 . S
U46 C50 2.847 . S
U46 C63 2.882 . S
U46 O64 2.441 . S
U46 O65 2.420 . S
U46 O66 2.455 . S
U46 O67 2.449 . S
O47 U46 2.454 . S
O47 C49 1.353 . S
O48 U46 2.458 . S
O48 C49 1.286 . S
C49 U46 2.984 . S
C49 O47 1.353 . S
C49 O48 1.286 . S
C49 C51 1.363 . S
C50 C40 1.465 . S
C50 U46 2.847 . S
C50 O64 1.249 . S
C50 O65 1.202 . S
C51 C49 1.363 . S
C51 C53 1.408 . S
C51 C56 1.342 . S
C52 C53 1.310 . S
C52 C55 1.461 . S
C52 H72 0.932 . S
C53 C51 1.408 . S
C53 C52 1.310 . S
C53 H73 0.930 . S
C54 C55 1.474 . S
C54 C56 1.285 . S
C54 H74 0.929 . S
C55 C52 1.461 . S
C55 C54 1.474 . S
C56 C51 1.342 . S
C56 C54 1.285 . S
C56 H75 0.930 . S
C57 C60 1.424 . S
C57 C62 1.245 . S
C57 C63 1.428 . S
C58 C61 1.260 . S
C58 C62 1.477 . S
C58 H76 0.932 1_554 S
C59 C60 1.384 . S
C59 C61 1.479 . S
C59 H77 0.929 . S
C60 C57 1.424 . S
C60 C59 1.384 . S
C60 H78 0.928 . S
C61 C58 1.260 . S
C61 C59 1.479 . S
C62 C57 1.245 . S
C62 C58 1.477 . S
C62 H79 0.932 . S
C63 U46 2.882 . S
C63 C57 1.428 . S
C63 O66 1.301 . S
C63 O67 1.282 . S
O64 U46 2.441 . S
O64 C50 1.249 . S
O65 U46 2.420 . S
O65 C50 1.202 . S
O66 U46 2.455 . S
O66 C63 1.301 . S
O67 U46 2.449 . S
O67 C63 1.282 . S
H68 C41 0.931 . S
H69 C43 0.929 . S
H70 C44 0.930 . S
H71 C45 0.931 . S
H72 C52 0.932 . S
H73 C53 0.930 . S
H74 C54 0.929 . S
H75 C56 0.930 . S
H76 C58 0.932 1_556 S
H77 C59 0.929 . S
H78 C60 0.928 . S
H79 C62 0.932 . S
C80 C81 1.264 . S
C80 C85 1.479 . S
C80 C90 1.465 . S
C81 C80 1.264 . S
C81 C83 1.339 . S
C81 H108 0.931 . S
C82 C83 1.395 . S
C82 C84 1.320 . S
C83 C81 1.339 . S
C83 C82 1.395 . S
C83 H109 0.929 . S
C84 C82 1.320 . S
C84 C85 1.405 . S
C84 H110 0.930 . S
C85 C80 1.479 . S
C85 C84 1.405 . S
C85 H111 0.931 . S
U86 O87 2.454 . S
U86 O88 2.458 . S
U86 C89 2.984 . S
U86 C90 2.847 . S
U86 C103 2.882 . S
U86 O104 2.441 . S
U86 O105 2.420 . S
U86 O106 2.455 . S
U86 O107 2.449 . S
O87 U86 2.454 . S
O87 C89 1.353 . S
O88 U86 2.458 . S
O88 C89 1.286 . S
C89 U86 2.984 . S
C89 O87 1.353 . S
C89 O88 1.286 . S
C89 C91 1.363 . S
C90 C80 1.465 . S
C90 U86 2.847 . S
C90 O104 1.249 . S
C90 O105 1.202 . S
C91 C89 1.363 . S
C91 C93 1.408 . S
C91 C96 1.342 . S
C92 C93 1.310 . S
C92 C95 1.461 . S
C92 H112 0.932 . S
C93 C91 1.408 . S
C93 C92 1.310 . S
C93 H113 0.930 . S
C94 C95 1.474 . S
C94 C96 1.285 . S
C94 H114 0.929 . S
C95 C92 1.461 . S
C95 C94 1.474 . S
C96 C91 1.342 . S
C96 C94 1.285 . S
C96 H115 0.930 . S
C97 C100 1.424 . S
C97 C102 1.245 . S
C97 C103 1.428 . S
C98 C101 1.260 . S
C98 C102 1.477 . S
C98 H116 0.932 1_554 S
C99 C100 1.384 . S
C99 C101 1.479 . S
C99 H117 0.929 . S
C100 C97 1.424 . S
C100 C99 1.384 . S
C100 H118 0.928 . S
C101 C98 1.260 . S
C101 C99 1.479 . S
C102 C97 1.245 . S
C102 C98 1.477 . S
C102 H119 0.932 . S
C103 U86 2.882 . S
C103 C97 1.428 . S
C103 O106 1.301 . S
C103 O107 1.282 . S
O104 U86 2.441 . S
O104 C90 1.249 . S
O105 U86 2.420 . S
O105 C90 1.202 . S
O106 U86 2.455 . S
O106 C103 1.301 . S
O107 U86 2.449 . S
O107 C103 1.282 . S
H108 C81 0.931 . S
H109 C83 0.929 . S
H110 C84 0.930 . S
H111 C85 0.931 . S
H112 C92 0.932 . S
H113 C93 0.930 . S
H114 C94 0.929 . S
H115 C96 0.930 . S
H116 C98 0.932 1_556 S
H117 C99 0.929 . S
H118 C100 0.928 . S
H119 C102 0.932 . S
C120 C121 1.264 . S
C120 C125 1.479 . S
C120 C130 1.465 . S
C121 C120 1.264 . S
C121 C123 1.339 . S
C121 H148 0.931 . S
C122 C123 1.395 . S
C122 C124 1.320 . S
C123 C121 1.339 . S
C123 C122 1.395 . S
C123 H149 0.929 . S
C124 C122 1.320 . S
C124 C125 1.405 . S
C124 H150 0.930 . S
C125 C120 1.479 . S
C125 C124 1.405 . S
C125 H151 0.931 . S
U126 O127 2.454 . S
U126 O128 2.458 . S
U126 C129 2.984 . S
U126 C130 2.847 . S
U126 C143 2.882 . S
U126 O144 2.441 . S
U126 O145 2.420 . S
U126 O146 2.455 . S
U126 O147 2.449 . S
O127 U126 2.454 . S
O127 C129 1.353 . S
O128 U126 2.458 . S
O128 C129 1.286 . S
C129 U126 2.984 . S
C129 O127 1.353 . S
C129 O128 1.286 . S
C129 C131 1.363 . S
C130 C120 1.465 . S
C130 U126 2.847 . S
C130 O144 1.249 . S
C130 O145 1.202 . S
C131 C129 1.363 . S
C131 C133 1.408 . S
C131 C136 1.342 . S
C132 C133 1.310 . S
C132 C135 1.461 . S
C132 H152 0.932 . S
C133 C131 1.408 . S
C133 C132 1.310 . S
C133 H153 0.930 . S
C134 C135 1.474 . S
C134 C136 1.285 . S
C134 H154 0.929 . S
C135 C132 1.461 . S
C135 C134 1.474 . S
C136 C131 1.342 . S
C136 C134 1.285 . S
C136 H155 0.930 . S
C137 C140 1.424 . S
C137 C142 1.245 . S
C137 C143 1.428 . S
C138 C141 1.260 1_556 S
C138 C142 1.477 1_556 S
C138 H156 0.932 . S
C139 C140 1.384 . S
C139 C141 1.479 . S
C139 H157 0.929 . S
C140 C137 1.424 . S
C140 C139 1.384 . S
C140 H158 0.928 . S
C141 C138 1.260 1_554 S
C141 C139 1.479 . S
C142 C137 1.245 . S
C142 C138 1.477 1_554 S
C142 H159 0.932 . S
C143 U126 2.882 . S
C143 C137 1.428 . S
C143 O146 1.301 . S
C143 O147 1.282 . S
O144 U126 2.441 . S
O144 C130 1.249 . S
O145 U126 2.420 . S
O145 C130 1.202 . S
O146 U126 2.455 . S
O146 C143 1.301 . S
O147 U126 2.449 . S
O147 C143 1.282 . S
H148 C121 0.931 . S
H149 C123 0.929 . S
H150 C124 0.930 . S
H151 C125 0.931 . S
H152 C132 0.932 . S
H153 C133 0.930 . S
H154 C134 0.929 . S
H155 C136 0.930 . S
H156 C138 0.932 . S
H157 C139 0.929 . S
H158 C140 0.928 . S
H159 C142 0.932 . S
C160 C161 1.264 . S
C160 C165 1.479 . S
C160 C170 1.465 . S
C161 C160 1.264 . S
C161 C163 1.339 . S
C161 H188 0.931 . S
C162 C163 1.395 . S
C162 C164 1.320 . S
C163 C161 1.339 . S
C163 C162 1.395 . S
C163 H189 0.929 . S
C164 C162 1.320 . S
C164 C165 1.405 . S
C164 H190 0.930 . S
C165 C160 1.479 . S
C165 C164 1.405 . S
C165 H191 0.931 . S
U166 O167 2.454 . S
U166 O168 2.458 . S
U166 C169 2.984 . S
U166 C170 2.847 1_554 S
U166 C183 2.882 . S
U166 O184 2.441 1_554 S
U166 O185 2.420 1_554 S
U166 O186 2.455 . S
U166 O187 2.449 . S
O167 U166 2.454 . S
O167 C169 1.353 . S
O168 U166 2.458 . S
O168 C169 1.286 . S
C169 U166 2.984 . S
C169 O167 1.353 . S
C169 O168 1.286 . S
C169 C171 1.363 . S
C170 C160 1.465 . S
C170 U166 2.847 1_556 S
C170 O184 1.249 . S
C170 O185 1.202 . S
C171 C169 1.363 . S
C171 C173 1.408 . S
C171 C176 1.342 . S
C172 C173 1.310 . S
C172 C175 1.461 . S
C172 H192 0.932 . S
C173 C171 1.408 . S
C173 C172 1.310 . S
C173 H193 0.930 . S
C174 C175 1.474 . S
C174 C176 1.285 . S
C174 H194 0.929 . S
C175 C172 1.461 . S
C175 C174 1.474 . S
C176 C171 1.342 . S
C176 C174 1.285 . S
C176 H195 0.930 . S
C177 C180 1.424 . S
C177 C182 1.245 . S
C177 C183 1.428 . S
C178 C181 1.260 . S
C178 C182 1.477 . S
C178 H196 0.932 . S
C179 C180 1.384 . S
C179 C181 1.479 . S
C179 H197 0.929 . S
C180 C177 1.424 . S
C180 C179 1.384 . S
C180 H198 0.928 . S
C181 C178 1.260 . S
C181 C179 1.479 . S
C182 C177 1.245 . S
C182 C178 1.477 . S
C182 H199 0.932 . S
C183 U166 2.882 . S
C183 C177 1.428 . S
C183 O186 1.301 . S
C183 O187 1.282 . S
O184 U166 2.441 1_556 S
O184 C170 1.249 . S
O185 U166 2.420 1_556 S
O185 C170 1.202 . S
O186 U166 2.455 . S
O186 C183 1.301 . S
O187 U166 2.449 . S
O187 C183 1.282 . S
H188 C161 0.931 . S
H189 C163 0.929 . S
H190 C164 0.930 . S
H191 C165 0.931 . S
H192 C172 0.932 . S
H193 C173 0.930 . S
H194 C174 0.929 . S
H195 C176 0.930 . S
H196 C178 0.932 . S
H197 C179 0.929 . S
H198 C180 0.928 . S
H199 C182 0.932 . S
C200 C201 1.264 . S
C200 C205 1.479 . S
C200 C210 1.465 . S
C201 C200 1.264 . S
C201 C203 1.339 . S
C201 H228 0.931 . S
C202 C203 1.395 . S
C202 C204 1.320 . S
C203 C201 1.339 . S
C203 C202 1.395 . S
C203 H229 0.929 . S
C204 C202 1.320 . S
C204 C205 1.405 . S
C204 H230 0.930 . S
C205 C200 1.479 . S
C205 C204 1.405 . S
C205 H231 0.931 . S
U206 O207 2.454 . S
U206 O208 2.458 . S
U206 C209 2.984 . S
U206 C210 2.847 1_554 S
U206 C223 2.882 . S
U206 O224 2.441 1_554 S
U206 O225 2.420 1_554 S
U206 O226 2.455 . S
U206 O227 2.449 . S
O207 U206 2.454 . S
O207 C209 1.353 . S
O208 U206 2.458 . S
O208 C209 1.286 . S
C209 U206 2.984 . S
C209 O207 1.353 . S
C209 O208 1.286 . S
C209 C211 1.363 . S
C210 C200 1.465 . S
C210 U206 2.847 1_556 S
C210 O224 1.249 . S
C210 O225 1.202 . S
C211 C209 1.363 . S
C211 C213 1.408 . S
C211 C216 1.342 . S
C212 C213 1.310 . S
C212 C215 1.461 . S
C212 H232 0.932 . S
C213 C211 1.408 . S
C213 C212 1.310 . S
C213 H233 0.930 1_554 S
C214 C215 1.474 . S
C214 C216 1.285 . S
C214 H234 0.929 . S
C215 C212 1.461 . S
C215 C214 1.474 . S
C216 C211 1.342 . S
C216 C214 1.285 . S
C216 H235 0.930 . S
C217 C220 1.424 . S
C217 C222 1.245 . S
C217 C223 1.428 . S
C218 C221 1.260 . S
C218 C222 1.477 . S
C218 H236 0.932 . S
C219 C220 1.384 . S
C219 C221 1.479 . S
C219 H237 0.929 . S
C220 C217 1.424 . S
C220 C219 1.384 . S
C220 H238 0.928 . S
C221 C218 1.260 . S
C221 C219 1.479 . S
C222 C217 1.245 . S
C222 C218 1.477 . S
C222 H239 0.932 . S
C223 U206 2.882 . S
C223 C217 1.428 . S
C223 O226 1.301 . S
C223 O227 1.282 . S
O224 U206 2.441 1_556 S
O224 C210 1.249 . S
O225 U206 2.420 1_556 S
O225 C210 1.202 . S
O226 U206 2.455 . S
O226 C223 1.301 . S
O227 U206 2.449 . S
O227 C223 1.282 . S
H228 C201 0.931 . S
H229 C203 0.929 . S
H230 C204 0.930 . S
H231 C205 0.931 . S
H232 C212 0.932 . S
H233 C213 0.930 1_556 S
H234 C214 0.929 . S
H235 C216 0.930 . S
H236 C218 0.932 . S
H237 C219 0.929 . S
H238 C220 0.928 . S
H239 C222 0.932 . S
C240 C241 1.264 . S
C240 C245 1.479 . S
C240 C250 1.465 . S
C241 C240 1.264 . S
C241 C243 1.339 . S
C241 H268 0.931 . S
C242 C243 1.395 . S
C242 C244 1.320 . S
C243 C241 1.339 . S
C243 C242 1.395 . S
C243 H269 0.929 . S
C244 C242 1.320 . S
C244 C245 1.405 . S
C244 H270 0.930 . S
C245 C240 1.479 . S
C245 C244 1.405 . S
C245 H271 0.931 . S
U246 O247 2.454 1_554 S
U246 O248 2.458 . S
U246 C249 2.984 . S
U246 C250 2.847 1_554 S
U246 C263 2.882 . S
U246 O264 2.441 1_554 S
U246 O265 2.420 1_554 S
U246 O266 2.455 . S
U246 O267 2.449 . S
O247 U246 2.454 1_556 S
O247 C249 1.353 1_556 S
O248 U246 2.458 . S
O248 C249 1.286 . S
C249 U246 2.984 . S
C249 O247 1.353 1_554 S
C249 O248 1.286 . S
C249 C251 1.363 . S
C250 C240 1.465 . S
C250 U246 2.847 1_556 S
C250 O264 1.249 . S
C250 O265 1.202 . S
C251 C249 1.363 . S
C251 C253 1.408 . S
C251 C256 1.342 . S
C252 C253 1.310 . S
C252 C255 1.461 . S
C252 H272 0.932 1_554 S
C253 C251 1.408 . S
C253 C252 1.310 . S
C253 H273 0.930 1_554 S
C254 C255 1.474 . S
C254 C256 1.285 . S
C254 H274 0.929 . S
C255 C252 1.461 . S
C255 C254 1.474 . S
C256 C251 1.342 . S
C256 C254 1.285 . S
C256 H275 0.930 . S
C257 C260 1.424 . S
C257 C262 1.245 . S
C257 C263 1.428 . S
C258 C261 1.260 . S
C258 C262 1.477 . S
C258 H276 0.932 . S
C259 C260 1.384 . S
C259 C261 1.479 . S
C259 H277 0.929 . S
C260 C257 1.424 . S
C260 C259 1.384 . S
C260 H278 0.928 . S
C261 C258 1.260 . S
C261 C259 1.479 . S
C262 C257 1.245 . S
C262 C258 1.477 . S
C262 H279 0.932 . S
C263 U246 2.882 . S
C263 C257 1.428 . S
C263 O266 1.301 . S
C263 O267 1.282 . S
O264 U246 2.441 1_556 S
O264 C250 1.249 . S
O265 U246 2.420 1_556 S
O265 C250 1.202 . S
O266 U246 2.455 . S
O266 C263 1.301 . S
O267 U246 2.449 . S
O267 C263 1.282 . S
H268 C241 0.931 . S
H269 C243 0.929 . S
H270 C244 0.930 . S
H271 C245 0.931 . S
H272 C252 0.932 1_556 S
H273 C253 0.930 1_556 S
H274 C254 0.929 . S
H275 C256 0.930 . S
H276 C258 0.932 . S
H277 C259 0.929 . S
H278 C260 0.928 . S
H279 C262 0.932 . S
C280 C281 1.264 . S
C280 C285 1.479 . S
C280 C290 1.465 . S
C281 C280 1.264 . S
C281 C283 1.339 . S
C281 H308 0.931 . S
C282 C283 1.395 . S
C282 C284 1.320 . S
C283 C281 1.339 . S
C283 C282 1.395 . S
C283 H309 0.929 . S
C284 C282 1.320 . S
C284 C285 1.405 . S
C284 H310 0.930 . S
C285 C280 1.479 . S
C285 C284 1.405 . S
C285 H311 0.931 . S
U286 O287 2.454 . S
U286 O288 2.458 . S
U286 C289 2.984 . S
U286 C290 2.847 1_554 S
U286 C303 2.882 . S
U286 O304 2.441 1_554 S
U286 O305 2.420 1_554 S
U286 O306 2.455 . S
U286 O307 2.449 . S
O287 U286 2.454 . S
O287 C289 1.353 . S
O288 U286 2.458 . S
O288 C289 1.286 . S
C289 U286 2.984 . S
C289 O287 1.353 . S
C289 O288 1.286 . S
C289 C291 1.363 . S
C290 C280 1.465 . S
C290 U286 2.847 1_556 S
C290 O304 1.249 . S
C290 O305 1.202 . S
C291 C289 1.363 . S
C291 C293 1.408 . S
C291 C296 1.342 . S
C292 C293 1.310 . S
C292 C295 1.461 . S
C292 H312 0.932 . S
C293 C291 1.408 . S
C293 C292 1.310 . S
C293 H313 0.930 . S
C294 C295 1.474 . S
C294 C296 1.285 . S
C294 H314 0.929 . S
C295 C292 1.461 . S
C295 C294 1.474 . S
C296 C291 1.342 . S
C296 C294 1.285 . S
C296 H315 0.930 . S
C297 C300 1.424 . S
C297 C302 1.245 . S
C297 C303 1.428 . S
C298 C301 1.260 . S
C298 C302 1.477 . S
C298 H316 0.932 . S
C299 C300 1.384 . S
C299 C301 1.479 . S
C299 H317 0.929 . S
C300 C297 1.424 . S
C300 C299 1.384 . S
C300 H318 0.928 . S
C301 C298 1.260 . S
C301 C299 1.479 . S
C302 C297 1.245 . S
C302 C298 1.477 . S
C302 H319 0.932 . S
C303 U286 2.882 . S
C303 C297 1.428 . S
C303 O306 1.301 . S
C303 O307 1.282 . S
O304 U286 2.441 1_556 S
O304 C290 1.249 . S
O305 U286 2.420 1_556 S
O305 C290 1.202 . S
O306 U286 2.455 . S
O306 C303 1.301 . S
O307 U286 2.449 . S
O307 C303 1.282 . S
H308 C281 0.931 . S
H309 C283 0.929 . S
H310 C284 0.930 . S
H311 C285 0.931 . S
H312 C292 0.932 . S
H313 C293 0.930 . S
H314 C294 0.929 . S
H315 C296 0.930 . S
H316 C298 0.932 . S
H317 C299 0.929 . S
H318 C300 0.928 . S
H319 C302 0.932 . S
Eu320 C329 2.828 . S
Eu320 O331 2.392 . S
Eu320 O333 2.418 1_545 S
Eu320 O338 2.373 1_655 S
Eu320 O341 2.488 . S
Eu320 O342 2.471 . S
Eu320 O343 2.349 1_655 S
Eu321 O330 2.373 1_455 S
Eu321 O334 2.488 . S
Eu321 O335 2.471 . S
Eu321 O336 2.349 . S
Eu321 O339 2.392 1_565 S
Eu321 O340 2.418 1_565 S
Eu321 C350 2.828 . S
C322 O340 1.244 . S
C322 O343 1.265 . S
C323 C324 1.379 1_655 S
C323 C327 1.373 . S
C323 C329 1.505 . S
C324 C323 1.379 1_455 S
C324 C326 1.369 . S
C324 H352 0.930 . S
C325 C327 1.383 . S
C325 C328 1.382 . S
C325 H353 0.930 . S
C326 C324 1.369 . S
C326 C328 1.392 1_455 S
C326 H354 0.930 . S
C327 C323 1.373 . S
C327 C325 1.383 . S
C327 H355 0.931 . S
C328 C325 1.382 . S
C328 C326 1.392 1_655 S
C329 Eu320 2.828 . S
C329 C323 1.505 . S
C329 O341 1.249 . S
C329 O342 1.244 . S
O330 Eu321 2.373 1_655 S
O330 C332 1.258 . S
O331 Eu320 2.392 . S
O331 C332 1.242 1_545 S
C332 O330 1.258 . S
C332 O331 1.242 1_565 S
O333 Eu320 2.418 1_565 S
O333 C337 1.244 . S
O334 Eu321 2.488 . S
O334 C350 1.249 . S
O335 Eu321 2.471 . S
O335 C350 1.244 . S
O336 Eu321 2.349 . S
O336 C337 1.265 1_455 S
C337 O333 1.244 . S
C337 O336 1.265 1_655 S
O338 Eu320 2.373 1_455 S
O338 C351 1.258 . S
O339 Eu321 2.392 1_545 S
O339 C351 1.242 . S
O340 Eu321 2.418 1_545 S
O340 C322 1.244 . S
O341 Eu320 2.488 . S
O341 C329 1.249 . S
O342 Eu320 2.471 . S
O342 C329 1.244 . S
O343 Eu320 2.349 1_455 S
O343 C322 1.265 . S
C344 C345 1.379 . S
C344 C348 1.373 . S
C344 C350 1.505 . S
C345 C344 1.379 . S
C345 C347 1.369 . S
C345 H356 0.930 1_455 S
C346 C348 1.383 1_554 S
C346 C349 1.382 . S
C346 H357 0.930 . S
C347 C345 1.369 . S
C347 C349 1.392 1_556 S
C347 H358 0.930 1_455 S
C348 C344 1.373 . S
C348 C346 1.383 1_556 S
C348 H359 0.931 . S
C349 C346 1.382 . S
C349 C347 1.392 1_554 S
C350 Eu321 2.828 . S
C350 O334 1.249 . S
C350 O335 1.244 . S
C350 C344 1.505 . S
C351 O338 1.258 . S
C351 O339 1.242 . S
H352 C324 0.930 . S
H353 C325 0.930 . S
H354 C326 0.930 . S
H355 C327 0.931 . S
H356 C345 0.930 1_655 S
H357 C346 0.930 . S
H358 C347 0.930 1_655 S
H359 C348 0.931 . S
Eu360 C369 2.828 . S
Eu360 O371 2.392 . S
Eu360 O373 2.418 . S
Eu360 O378 2.373 . S
Eu360 O381 2.488 . S
Eu360 O382 2.471 . S
Eu360 O383 2.349 1_545 S
Eu361 O370 2.373 1_565 S
Eu361 O374 2.488 . S
Eu361 O375 2.471 1_565 S
Eu361 O376 2.349 1_565 S
Eu361 O379 2.392 . S
Eu361 O380 2.418 . S
Eu361 C390 2.828 . S
C362 O380 1.244 . S
C362 O383 1.265 . S
C363 C364 1.379 . S
C363 C367 1.373 . S
C363 C369 1.505 . S
C364 C363 1.379 . S
C364 C366 1.369 . S
C364 H392 0.930 1_545 S
C365 C367 1.383 . S
C365 C368 1.382 . S
C365 H393 0.930 . S
C366 C364 1.369 . S
C366 C368 1.396 . S
C366 H394 0.926 1_545 S
C367 C363 1.373 . S
C367 C365 1.383 . S
C367 H395 0.931 . S
C368 C365 1.382 . S
C368 C366 1.396 . S
C369 Eu360 2.828 . S
C369 C363 1.505 . S
C369 O381 1.249 . S
C369 O382 1.244 . S
O370 Eu361 2.373 1_545 S
O370 C372 1.258 . S
O371 Eu360 2.392 . S
O371 C372 1.242 . S
C372 O370 1.258 . S
C372 O371 1.242 . S
O373 Eu360 2.418 . S
O373 C377 1.244 . S
O374 Eu361 2.488 . S
O374 C390 1.249 . S
O375 Eu361 2.471 1_545 S
O375 C390 1.244 1_545 S
O376 Eu361 2.349 1_545 S
O376 C377 1.265 . S
C377 O373 1.244 . S
C377 O376 1.265 . S
O378 Eu360 2.373 . S
O378 C391 1.258 1_545 S
O379 Eu361 2.392 . S
O379 C391 1.242 . S
O380 Eu361 2.418 . S
O380 C362 1.244 . S
O381 Eu360 2.488 . S
O381 C369 1.249 . S
O382 Eu360 2.471 . S
O382 C369 1.244 . S
O383 Eu360 2.349 1_565 S
O383 C362 1.265 . S
C384 C385 1.379 1_565 S
C384 C388 1.373 . S
C384 C390 1.505 . S
C385 C384 1.379 1_545 S
C385 C387 1.369 . S
C385 H396 0.930 . S
C386 C388 1.383 . S
C386 C389 1.382 . S
C386 H397 0.930 . S
C387 C385 1.369 . S
C387 C389 1.392 1_545 S
C387 H398 0.930 . S
C388 C384 1.373 . S
C388 C386 1.383 . S
C388 H399 0.931 . S
C389 C386 1.382 . S
C389 C387 1.392 1_565 S
C390 Eu361 2.828 . S
C390 O374 1.249 . S
C390 O375 1.244 1_565 S
C390 C384 1.505 . S
C391 O378 1.258 1_565 S
C391 O379 1.242 . S
H392 C364 0.930 1_565 S
H393 C365 0.930 . S
H394 C366 0.926 1_565 S
H395 C367 0.931 . S
H396 C385 0.930 . S
H397 C386 0.930 . S
H398 C387 0.930 . S
H399 C388 0.931 . S
Eu400 C409 2.828 . S
Eu400 O411 2.392 . S
Eu400 O413 2.418 . S
Eu400 O418 2.373 . S
Eu400 O421 2.488 . S
Eu400 O422 2.471 . S
Eu400 O423 2.349 . S
Eu401 O410 2.373 . S
Eu401 O414 2.488 . S
Eu401 O415 2.471 . S
Eu401 O416 2.349 . S
Eu401 O419 2.392 . S
Eu401 O420 2.418 . S
Eu401 C430 2.828 . S
C402 O420 1.244 . S
C402 O423 1.265 . S
C403 C404 1.379 . S
C403 C407 1.373 . S
C403 C409 1.505 . S
C404 C403 1.379 . S
C404 C406 1.369 . S
C404 H432 0.930 . S
C405 C407 1.383 . S
C405 C408 1.382 . S
C405 H433 0.930 . S
C406 C404 1.369 . S
C406 C408 1.392 . S
C406 H434 0.930 . S
C407 C403 1.373 . S
C407 C405 1.383 . S
C407 H435 0.931 . S
C408 C405 1.382 . S
C408 C406 1.392 . S
C409 Eu400 2.828 . S
C409 C403 1.505 . S
C409 O421 1.249 . S
C409 O422 1.244 . S
O410 Eu401 2.373 . S
O410 C412 1.258 . S
O411 Eu400 2.392 . S
O411 C412 1.242 . S
C412 O410 1.258 . S
C412 O411 1.242 . S
O413 Eu400 2.418 . S
O413 C417 1.244 . S
O414 Eu401 2.488 . S
O414 C430 1.249 . S
O415 Eu401 2.471 . S
O415 C430 1.244 . S
O416 Eu401 2.349 . S
O416 C417 1.265 . S
C417 O413 1.244 . S
C417 O416 1.265 . S
O418 Eu400 2.373 . S
O418 C431 1.258 . S
O419 Eu401 2.392 . S
O419 C431 1.242 . S
O420 Eu401 2.418 . S
O420 C402 1.244 . S
O421 Eu400 2.488 . S
O421 C409 1.249 . S
O422 Eu400 2.471 . S
O422 C409 1.244 . S
O423 Eu400 2.349 . S
O423 C402 1.265 . S
C424 C425 1.379 . S
C424 C428 1.373 . S
C424 C430 1.505 . S
C425 C424 1.379 . S
C425 C427 1.369 . S
C425 H436 0.930 . S
C426 C428 1.383 . S
C426 C429 1.382 . S
C426 H437 0.930 . S
C427 C425 1.369 . S
C427 C429 1.392 . S
C427 H438 0.930 . S
C428 C424 1.373 . S
C428 C426 1.383 . S
C428 H439 0.931 . S
C429 C426 1.382 . S
C429 C427 1.392 . S
C430 Eu401 2.828 . S
C430 O414 1.249 . S
C430 O415 1.244 . S
C430 C424 1.505 . S
C431 O418 1.258 . S
C431 O419 1.242 . S
H432 C404 0.930 . S
H433 C405 0.930 . S
H434 C406 0.930 . S
H435 C407 0.931 . S
H436 C425 0.930 . S
H437 C426 0.930 . S
H438 C427 0.930 . S
H439 C428 0.931 . S
Eu440 C449 2.828 . S
Eu440 O451 2.392 . S
Eu440 O453 2.418 1_455 S
Eu440 O458 2.373 . S
Eu440 O461 2.488 . S
Eu440 O462 2.471 . S
Eu440 O463 2.349 . S
Eu441 O450 2.373 . S
Eu441 O454 2.488 . S
Eu441 O455 2.471 . S
Eu441 O456 2.349 . S
Eu441 O459 2.392 1_655 S
Eu441 O460 2.418 1_655 S
Eu441 C470 2.828 . S
C442 O460 1.244 . S
C442 O463 1.265 . S
C443 C444 1.379 . S
C443 C447 1.373 . S
C443 C449 1.505 . S
C444 C443 1.379 . S
C444 C446 1.369 . S
C444 H472 0.930 . S
C445 C447 1.383 . S
C445 C448 1.382 . S
C445 H473 0.930 . S
C446 C444 1.369 . S
C446 C448 1.392 . S
C446 H474 0.930 . S
C447 C443 1.373 . S
C447 C445 1.383 . S
C447 H475 0.931 . S
C448 C445 1.382 . S
C448 C446 1.392 . S
C449 Eu440 2.828 . S
C449 C443 1.505 . S
C449 O461 1.249 . S
C449 O462 1.244 . S
O450 Eu441 2.373 . S
O450 C452 1.258 . S
O451 Eu440 2.392 . S
O451 C452 1.242 1_455 S
C452 O450 1.258 . S
C452 O451 1.242 1_655 S
O453 Eu440 2.418 1_655 S
O453 C457 1.244 . S
O454 Eu441 2.488 . S
O454 C470 1.249 . S
O455 Eu441 2.471 . S
O455 C470 1.244 . S
O456 Eu441 2.349 . S
O456 C457 1.265 . S
C457 O453 1.244 . S
C457 O456 1.265 . S
O458 Eu440 2.373 . S
O458 C471 1.258 . S
O459 Eu441 2.392 1_455 S
O459 C471 1.242 . S
O460 Eu441 2.418 1_455 S
O460 C442 1.244 . S
O461 Eu440 2.488 . S
O461 C449 1.249 . S
O462 Eu440 2.471 . S
O462 C449 1.244 . S
O463 Eu440 2.349 . S
O463 C442 1.265 . S
C464 C465 1.379 . S
C464 C468 1.373 . S
C464 C470 1.505 . S
C465 C464 1.379 . S
C465 C467 1.369 . S
C465 H476 0.930 . S
C466 C468 1.378 1_554 S
C466 C469 1.381 1_554 S
C466 H477 0.937 . S
C467 C465 1.369 . S
C467 C469 1.392 . S
C467 H478 0.930 . S
C468 C464 1.373 . S
C468 C466 1.378 1_556 S
C468 H479 0.931 . S
C469 C466 1.381 1_556 S
C469 C467 1.392 . S
C470 Eu441 2.828 . S
C470 O454 1.249 . S
C470 O455 1.244 . S
C470 C464 1.505 . S
C471 O458 1.258 . S
C471 O459 1.242 . S
H472 C444 0.930 . S
H473 C445 0.930 . S
H474 C446 0.930 . S
H475 C447 0.931 . S
H476 C465 0.930 . S
H477 C466 0.937 . S
H478 C467 0.930 . S
H479 C468 0.931 . S
C480 C481 1.363 . S
C480 C486 1.379 . S
C480 N488 1.356 . S
C481 C480 1.363 . S
C481 C487 1.363 . S
C482 C483 1.363 . S
C482 C487 1.379 . S
C482 N489 1.356 1_545 S
C483 C482 1.363 . S
C483 C486 1.363 . S
N484 C486 1.356 . S
N484 H496 0.984 . S
N484 H497 0.985 . S
N485 C487 1.356 . S
N485 H490 0.984 . S
N485 H491 0.985 1_545 S
C486 C480 1.379 . S
C486 C483 1.363 . S
C486 N484 1.356 . S
C487 C481 1.363 . S
C487 C482 1.379 . S
C487 N485 1.356 . S
N488 C480 1.356 . S
N488 H494 0.984 . S
N488 H495 0.984 . S
N489 C482 1.356 1_565 S
N489 H492 0.984 . S
N489 H493 0.985 . S
H490 N485 0.984 . S
H491 N485 0.985 1_565 S
H492 N489 0.984 . S
H493 N489 0.985 . S
H494 N488 0.984 . S
H495 N488 0.984 . S
H496 N484 0.984 . S
H497 N484 0.985 . S
C498 C499 1.363 . S
C498 C504 1.379 . S
C498 N506 1.356 . S
C499 C498 1.363 . S
C499 C505 1.363 . S
C500 C501 1.363 . S
C500 C505 1.379 . S
C500 N507 1.356 . S
C501 C500 1.363 . S
C501 C504 1.363 . S
N502 C504 1.356 . S
N502 H514 0.984 . S
N502 H515 0.985 . S
N503 C505 1.356 . S
N503 H508 0.984 . S
N503 H509 0.985 . S
C504 C498 1.379 . S
C504 C501 1.363 . S
C504 N502 1.356 . S
C505 C499 1.363 . S
C505 C500 1.379 . S
C505 N503 1.356 . S
N506 C498 1.356 . S
N506 H512 0.984 . S
N506 H513 0.984 . S
N507 C500 1.356 . S
N507 H510 0.984 . S
N507 H511 0.985 . S
H508 N503 0.984 . S
H509 N503 0.985 . S
H510 N507 0.984 . S
H511 N507 0.985 . S
H512 N506 0.984 . S
H513 N506 0.984 . S
H514 N502 0.984 . S
H515 N502 0.985 . S
C516 C517 1.363 . S
C516 C522 1.379 . S
C516 N524 1.356 . S
C517 C516 1.363 . S
C517 C523 1.363 . S
C518 C519 1.363 . S
C518 C523 1.379 . S
C518 N525 1.356 . S
C519 C518 1.363 . S
C519 C522 1.363 . S
N520 C522 1.356 . S
N520 H532 0.984 . S
N520 H533 0.985 . S
N521 C523 1.356 . S
N521 H526 0.984 . S
N521 H527 0.985 . S
C522 C516 1.379 . S
C522 C519 1.363 . S
C522 N520 1.356 . S
C523 C517 1.363 . S
C523 C518 1.379 . S
C523 N521 1.356 . S
N524 C516 1.356 . S
N524 H530 0.984 . S
N524 H531 0.984 . S
N525 C518 1.356 . S
N525 H528 0.984 . S
N525 H529 0.985 . S
H526 N521 0.984 . S
H527 N521 0.985 . S
H528 N525 0.984 . S
H529 N525 0.985 . S
H530 N524 0.984 . S
H531 N524 0.984 . S
H532 N520 0.984 . S
H533 N520 0.985 . S
C534 C535 1.363 . S
C534 C540 1.379 . S
C534 N542 1.356 . S
C535 C534 1.363 . S
C535 C541 1.363 . S
C536 C537 1.363 . S
C536 C541 1.379 . S
C536 N543 1.356 . S
C537 C536 1.363 . S
C537 C540 1.363 . S
N538 C540 1.356 . S
N538 H550 0.984 1_455 S
N538 H551 0.985 . S
N539 C541 1.356 . S
N539 H544 0.984 . S
N539 H545 0.985 . S
C540 C534 1.379 . S
C540 C537 1.363 . S
C540 N538 1.356 . S
C541 C535 1.363 . S
C541 C536 1.379 . S
C541 N539 1.356 . S
N542 C534 1.356 . S
N542 H548 0.984 . S
N542 H549 0.984 . S
N543 C536 1.356 . S
N543 H546 0.984 . S
N543 H547 0.985 . S
H544 N539 0.984 . S
H545 N539 0.985 . S
H546 N543 0.984 . S
H547 N543 0.985 . S
H548 N542 0.984 . S
H549 N542 0.984 . S
H550 N538 0.984 1_655 S
H551 N538 0.985 . S
C552 C553 1.363 . S
C552 C558 1.380 1_554 S
C552 N560 1.356 1_565 S
C553 C552 1.363 . S
C553 C559 1.363 . S
C554 C555 1.363 . S
C554 C559 1.379 1_556 S
C554 N561 1.356 . S
C555 C554 1.363 . S
C555 C558 1.369 . S
N556 C558 1.350 1_545 S
N556 H568 0.984 . S
N556 H569 0.985 . S
N557 C559 1.356 . S
N557 H562 0.984 . S
N557 H563 0.985 . S
C558 C552 1.380 1_556 S
C558 C555 1.369 . S
C558 N556 1.350 1_565 S
C559 C553 1.363 . S
C559 C554 1.379 1_554 S
C559 N557 1.356 . S
N560 C552 1.356 1_545 S
N560 H566 0.984 . S
N560 H567 0.984 1_545 S
N561 C554 1.356 . S
N561 H564 0.984 . S
N561 H565 0.985 . S
H562 N557 0.984 . S
H563 N557 0.985 . S
H564 N561 0.984 . S
H565 N561 0.985 . S
H566 N560 0.984 . S
H567 N560 0.984 1_565 S
H568 N556 0.984 . S
H569 N556 0.985 . S
C570 C571 1.363 1_556 S
C570 C576 1.379 . S
C570 N578 1.356 1_556 S
C571 C570 1.363 1_554 S
C571 C577 1.363 . S
C572 C573 1.363 . S
C572 C577 1.379 1_556 S
C572 N579 1.356 . S
C573 C572 1.363 . S
C573 C576 1.363 . S
N574 C576 1.356 . S
N574 H586 0.984 1_565 S
N574 H587 0.985 . S
N575 C577 1.356 . S
N575 H580 0.984 . S
N575 H581 0.985 . S
C576 C570 1.379 . S
C576 C573 1.363 . S
C576 N574 1.356 . S
C577 C571 1.363 . S
C577 C572 1.379 1_554 S
C577 N575 1.356 . S
N578 C570 1.356 1_554 S
N578 H584 0.984 1_565 S
N578 H585 0.984 . S
N579 C572 1.356 . S
N579 H582 0.984 . S
N579 H583 0.985 . S
H580 N575 0.984 . S
H581 N575 0.985 . S
H582 N579 0.984 . S
H583 N579 0.985 . S
H584 N578 0.984 1_545 S
H585 N578 0.984 . S
H586 N574 0.984 1_545 S
H587 N574 0.985 . S
C588 C589 1.363 1_556 S
C588 C594 1.379 . S
C588 N596 1.356 1_556 S
C589 C588 1.363 1_554 S
C589 C595 1.363 1_554 S
C590 C591 1.363 . S
C590 C595 1.379 . S
C590 N597 1.356 . S
C591 C590 1.363 . S
C591 C594 1.363 . S
N592 C594 1.356 . S
N592 H604 0.984 . S
N592 H605 0.985 . S
N593 C595 1.356 1_554 S
N593 H598 0.984 . S
N593 H599 0.985 . S
C594 C588 1.379 . S
C594 C591 1.363 . S
C594 N592 1.356 . S
C595 C589 1.363 1_556 S
C595 C590 1.379 . S
C595 N593 1.356 1_556 S
N596 C588 1.356 1_554 S
N596 H602 0.984 . S
N596 H603 0.984 . S
N597 C590 1.356 . S
N597 H600 0.984 . S
N597 H601 0.985 . S
H598 N593 0.984 . S
H599 N593 0.985 . S
H600 N597 0.984 . S
H601 N597 0.985 . S
H602 N596 0.984 . S
H603 N596 0.984 . S
H604 N592 0.984 . S
H605 N592 0.985 . S
C606 C607 1.363 . S
C606 C612 1.379 1_554 S
C606 N614 1.356 . S
C607 C606 1.363 . S
C607 C613 1.363 . S
C608 C609 1.363 . S
C608 C613 1.379 1_556 S
C608 N615 1.369 . S
C609 C608 1.363 . S
C609 C612 1.363 . S
N610 C612 1.356 . S
N610 H622 0.984 . S
N610 H623 0.985 . S
N611 C613 1.356 . S
N611 H616 0.984 . S
N611 H617 0.985 . S
C612 C606 1.379 1_556 S
C612 C609 1.363 . S
C612 N610 1.356 . S
C613 C607 1.363 . S
C613 C608 1.379 1_554 S
C613 N611 1.356 . S
N614 C606 1.356 . S
N614 H620 0.984 . S
N614 H621 0.984 . S
N615 C608 1.369 . S
N615 H618 0.980 1_655 S
N615 H619 0.977 1_655 S
H616 N611 0.984 . S
H617 N611 0.985 . S
H618 N615 0.980 1_455 S
H619 N615 0.977 1_455 S
H620 N614 0.984 . S
H621 N614 0.984 . S
H622 N610 0.984 . S
H623 N610 0.985 . S
C624 C625 1.363 . S
C624 C630 1.379 . S
C624 N632 1.356 . S
C625 C624 1.363 . S
C625 C631 1.363 . S
C626 C627 1.363 . S
C626 C631 1.379 . S
C626 N633 1.356 . S
C627 C626 1.363 . S
C627 C630 1.363 . S
N628 C630 1.356 1_655 S
N628 H640 0.984 . S
N628 H641 0.985 . S
N629 C631 1.356 . S
N629 H634 0.984 . S
N629 H635 0.985 . S
C630 C624 1.379 . S
C630 C627 1.363 . S
C630 N628 1.356 1_455 S
C631 C625 1.363 . S
C631 C626 1.379 . S
C631 N629 1.356 . S
N632 C624 1.356 . S
N632 H638 0.984 . S
N632 H639 0.984 . S
N633 C626 1.356 . S
N633 H636 0.984 . S
N633 H637 0.985 . S
H634 N629 0.984 . S
H635 N629 0.985 . S
H636 N633 0.984 . S
H637 N633 0.985 . S
H638 N632 0.984 . S
H639 N632 0.984 . S
H640 N628 0.984 . S
H641 N628 0.985 . S
C642 C643 1.363 . S
C642 C648 1.354 1_545 S
C642 N650 1.356 . S
C643 C642 1.363 . S
C643 C649 1.363 . S
C644 C645 1.363 1_545 S
C644 C649 1.379 . S
C644 N651 1.356 . S
C645 C644 1.363 1_565 S
C645 C648 1.365 . S
N646 C648 1.384 . S
N646 H658 0.984 . S
N646 H659 0.985 . S
N647 C649 1.356 . S
N647 H652 0.984 . S
N647 H653 0.985 . S
C648 C642 1.354 1_565 S
C648 C645 1.365 . S
C648 N646 1.384 . S
C649 C643 1.363 . S
C649 C644 1.379 . S
C649 N647 1.356 . S
N650 C642 1.356 . S
N650 H656 0.984 . S
N650 H657 0.984 . S
N651 C644 1.356 . S
N651 H654 0.984 1_545 S
N651 H655 0.985 . S
H652 N647 0.984 . S
H653 N647 0.985 . S
H654 N651 0.984 1_565 S
H655 N651 0.985 . S
H656 N650 0.984 . S
H657 N650 0.984 . S
H658 N646 0.984 . S
H659 N646 0.985 . S
C660 C661 1.363 . S
C660 C666 1.379 . S
C660 N668 1.356 . S
C661 C660 1.363 . S
C661 C667 1.363 . S
C662 C663 1.363 . S
C662 C667 1.379 . S
C662 N669 1.356 . S
C663 C662 1.363 . S
C663 C666 1.363 . S
N664 C666 1.356 . S
N664 H676 0.984 . S
N664 H677 0.985 . S
N665 C667 1.356 . S
N665 H670 0.984 . S
N665 H671 0.985 . S
C666 C660 1.379 . S
C666 C663 1.363 . S
C666 N664 1.356 . S
C667 C661 1.363 . S
C667 C662 1.379 . S
C667 N665 1.356 . S
N668 C660 1.356 . S
N668 H674 0.984 . S
N668 H675 0.984 . S
N669 C662 1.356 . S
N669 H672 0.984 . S
N669 H673 0.985 . S
H670 N665 0.984 . S
H671 N665 0.985 . S
H672 N669 0.984 . S
H673 N669 0.985 . S
H674 N668 0.984 . S
H675 N668 0.984 . S
H676 N664 0.984 . S
H677 N664 0.985 . S
C678 C679 1.363 . S
C678 C684 1.379 . S
C678 N686 1.356 . S
C679 C678 1.363 . S
C679 C685 1.363 . S
C680 C681 1.363 . S
C680 C685 1.379 . S
C680 N687 1.356 . S
C681 C680 1.363 . S
C681 C684 1.363 . S
N682 C684 1.356 . S
N682 H694 0.984 . S
N682 H695 0.985 . S
N683 C685 1.356 . S
N683 H688 0.984 . S
N683 H689 0.985 . S
C684 C678 1.379 . S
C684 C681 1.363 . S
C684 N682 1.356 . S
C685 C679 1.363 . S
C685 C680 1.379 . S
C685 N683 1.356 . S
N686 C678 1.356 . S
N686 H692 0.984 . S
N686 H693 0.984 . S
N687 C680 1.356 . S
N687 H690 0.984 . S
N687 H691 0.985 . S
H688 N683 0.984 . S
H689 N683 0.985 . S
H690 N687 0.984 . S
H691 N687 0.985 . S
H692 N686 0.984 . S
H693 N686 0.984 . S
H694 N682 0.984 . S
H695 N682 0.985 . S
C696 C697 1.363 1_556 S
C696 C702 1.379 1_655 S
C696 N704 1.356 . S
C697 C696 1.363 1_554 S
C697 C703 1.363 . S
C698 C699 1.363 1_655 S
C698 C703 1.379 . S
C698 N705 1.356 . S
C699 C698 1.363 1_455 S
C699 C702 1.363 1_554 S
N700 C702 1.356 . S
N700 H712 0.984 . S
N700 H713 0.985 . S
N701 C703 1.356 . S
N701 H706 0.984 . S
N701 H707 0.985 . S
C702 C696 1.379 1_455 S
C702 C699 1.363 1_556 S
C702 N700 1.356 . S
C703 C697 1.363 . S
C703 C698 1.379 . S
C703 N701 1.356 . S
N704 C696 1.356 . S
N704 H710 0.984 . S
N704 H711 0.984 . S
N705 C698 1.356 . S
N705 H708 0.984 1_655 S
N705 H709 0.985 . S
H706 N701 0.984 . S
H707 N701 0.985 . S
H708 N705 0.984 1_455 S
H709 N705 0.985 . S
H710 N704 0.984 . S
H711 N704 0.984 . S
H712 N700 0.984 . S
H713 N700 0.985 . S
C714 C715 1.363 . S
C714 C720 1.379 1_565 S
C714 N722 1.356 . S
C715 C714 1.363 . S
C715 C721 1.363 1_554 S
C716 C717 1.363 1_565 S
C716 C721 1.379 . S
C716 N723 1.356 1_565 S
C717 C716 1.363 1_545 S
C717 C720 1.363 1_556 S
N718 C720 1.356 . S
N718 H730 0.984 . S
N718 H731 0.985 1_554 S
N719 C721 1.356 . S
N719 H724 0.984 . S
N719 H725 0.985 . S
C720 C714 1.379 1_545 S
C720 C717 1.363 1_554 S
C720 N718 1.356 . S
C721 C715 1.363 1_556 S
C721 C716 1.379 . S
C721 N719 1.356 . S
N722 C714 1.356 . S
N722 H728 0.984 . S
N722 H729 0.984 . S
N723 C716 1.356 1_545 S
N723 H726 0.984 . S
N723 H727 0.985 1_545 S
H724 N719 0.984 . S
H725 N719 0.985 . S
H726 N723 0.984 . S
H727 N723 0.985 1_565 S
H728 N722 0.984 . S
H729 N722 0.984 . S
H730 N718 0.984 . S
H731 N718 0.985 1_556 S
C732 C733 1.363 . S
C732 C738 1.379 . S
C732 N740 1.356 . S
C733 C732 1.363 . S
C733 C739 1.363 . S
C734 C735 1.363 . S
C734 C739 1.379 . S
C734 N741 1.356 . S
C735 C734 1.363 . S
C735 C738 1.363 . S
N736 C738 1.356 . S
N736 H748 0.984 . S
N736 H749 0.985 . S
N737 C739 1.356 1_554 S
N737 H742 0.984 . S
N737 H743 0.985 . S
C738 C732 1.379 . S
C738 C735 1.363 . S
C738 N736 1.356 . S
C739 C733 1.363 . S
C739 C734 1.379 . S
C739 N737 1.356 1_556 S
N740 C732 1.356 . S
N740 H746 0.984 . S
N740 H747 0.984 . S
N741 C734 1.356 . S
N741 H744 0.984 . S
N741 H745 0.985 . S
H742 N737 0.984 . S
H743 N737 0.985 . S
H744 N741 0.984 . S
H745 N741 0.985 . S
H746 N740 0.984 . S
H747 N740 0.984 . S
H748 N736 0.984 . S
H749 N736 0.985 . S
C750 C751 1.363 1_554 S
C750 C756 1.379 . S
C750 N758 1.356 . S
C751 C750 1.363 1_556 S
C751 C757 1.363 . S
C752 C753 1.363 1_556 S
C752 C757 1.379 . S
C752 N759 1.356 . S
C753 C752 1.363 1_554 S
C753 C756 1.363 . S
N754 C756 1.356 . S
N754 H766 0.984 . S
N754 H767 0.985 . S
N755 C757 1.356 . S
N755 H760 0.984 . S
N755 H761 0.985 . S
C756 C750 1.379 . S
C756 C753 1.363 . S
C756 N754 1.356 . S
C757 C751 1.363 . S
C757 C752 1.379 . S
C757 N755 1.356 . S
N758 C750 1.356 . S
N758 H764 0.984 . S
N758 H765 0.984 . S
N759 C752 1.356 . S
N759 H762 0.984 . S
N759 H763 0.985 . S
H760 N755 0.984 . S
H761 N755 0.985 . S
H762 N759 0.984 . S
H763 N759 0.985 . S
H764 N758 0.984 . S
H765 N758 0.984 . S
H766 N754 0.984 . S
H767 N754 0.985 . S
C768 C769 1.363 . S
C768 C774 1.379 . S
C768 N776 1.356 . S
C769 C768 1.363 . S
C769 C775 1.363 . S
C770 C771 1.363 . S
C770 C775 1.379 . S
C770 N777 1.356 . S
C771 C770 1.363 . S
C771 C774 1.363 . S
N772 C774 1.356 . S
N772 H784 0.984 1_455 S
N772 H785 0.985 . S
N773 C775 1.356 . S
N773 H778 0.984 . S
N773 H779 0.985 . S
C774 C768 1.379 . S
C774 C771 1.363 . S
C774 N772 1.356 . S
C775 C769 1.363 . S
C775 C770 1.379 . S
C775 N773 1.356 . S
N776 C768 1.356 . S
N776 H782 0.989 . S
N776 H783 0.984 . S
N777 C770 1.356 . S
N777 H780 0.984 . S
N777 H781 0.985 . S
H778 N773 0.984 . S
H779 N773 0.985 . S
H780 N777 0.984 . S
H781 N777 0.985 . S
H782 N776 0.989 . S
H783 N776 0.984 . S
H784 N772 0.984 1_655 S
H785 N772 0.985 . S
C786 C787 1.363 . S
C786 C792 1.379 . S
C786 N794 1.356 . S
C787 C786 1.363 . S
C787 C793 1.363 . S
C788 C789 1.363 . S
C788 C793 1.379 . S
C788 N795 1.356 . S
C789 C788 1.363 . S
C789 C792 1.363 . S
N790 C792 1.356 . S
N790 H802 0.984 1_545 S
N790 H803 0.985 . S
N791 C793 1.356 . S
N791 H796 0.984 . S
N791 H797 0.985 . S
C792 C786 1.379 . S
C792 C789 1.363 . S
C792 N790 1.356 . S
C793 C787 1.363 . S
C793 C788 1.379 . S
C793 N791 1.356 . S
N794 C786 1.356 . S
N794 H800 0.984 1_545 S
N794 H801 0.984 . S
N795 C788 1.356 . S
N795 H798 0.984 . S
N795 H799 0.985 . S
H796 N791 0.984 . S
H797 N791 0.985 . S
H798 N795 0.984 . S
H799 N795 0.985 . S
H800 N794 0.984 1_565 S
H801 N794 0.984 . S
H802 N790 0.984 1_565 S
H803 N790 0.985 . S
C804 C805 1.363 . S
C804 C810 1.379 . S
C804 N812 1.356 . S
C805 C804 1.363 . S
C805 C811 1.363 . S
C806 C807 1.363 . S
C806 C811 1.379 . S
C806 N813 1.356 . S
C807 C806 1.363 . S
C807 C810 1.363 . S
N808 C810 1.356 . S
N808 H820 0.984 . S
N808 H821 0.985 . S
N809 C811 1.356 . S
N809 H814 0.984 . S
N809 H815 0.985 . S
C810 C804 1.379 . S
C810 C807 1.363 . S
C810 N808 1.356 . S
C811 C805 1.363 . S
C811 C806 1.379 . S
C811 N809 1.356 . S
N812 C804 1.356 . S
N812 H818 0.984 . S
N812 H819 0.984 . S
N813 C806 1.356 . S
N813 H816 0.984 . S
N813 H817 0.985 . S
H814 N809 0.984 . S
H815 N809 0.985 . S
H816 N813 0.984 . S
H817 N813 0.985 . S
H818 N812 0.984 . S
H819 N812 0.984 . S
H820 N808 0.984 . S
H821 N808 0.985 . S
C822 C823 1.363 . S
C822 C828 1.379 . S
C822 N830 1.356 . S
C823 C822 1.363 . S
C823 C829 1.363 . S
C824 C825 1.363 . S
C824 C829 1.379 . S
C824 N831 1.356 . S
C825 C824 1.363 . S
C825 C828 1.363 . S
N826 C828 1.356 . S
N826 H838 0.984 . S
N826 H839 0.985 . S
N827 C829 1.356 . S
N827 H832 0.984 . S
N827 H833 0.985 . S
C828 C822 1.379 . S
C828 C825 1.363 . S
C828 N826 1.356 . S
C829 C823 1.363 . S
C829 C824 1.379 . S
C829 N827 1.356 . S
N830 C822 1.356 . S
N830 H836 0.984 . S
N830 H837 0.984 . S
N831 C824 1.356 . S
N831 H834 0.984 . S
N831 H835 0.985 . S
H832 N827 0.984 . S
H833 N827 0.985 . S
H834 N831 0.984 . S
H835 N831 0.985 . S
H836 N830 0.984 . S
H837 N830 0.984 . S
H838 N826 0.984 . S
H839 N826 0.985 . S
C840 C841 1.363 . S
C840 C846 1.379 . S
C840 N848 1.356 . S
C841 C840 1.363 . S
C841 C847 1.363 . S
C842 C843 1.363 . S
C842 C847 1.379 . S
C842 N849 1.356 1_655 S
C843 C842 1.363 . S
C843 C846 1.363 . S
N844 C846 1.356 . S
N844 H856 0.984 . S
N844 H857 0.985 . S
N845 C847 1.356 . S
N845 H850 0.984 . S
N845 H851 0.985 1_655 S
C846 C840 1.379 . S
C846 C843 1.363 . S
C846 N844 1.356 . S
C847 C841 1.363 . S
C847 C842 1.379 . S
C847 N845 1.356 . S
N848 C840 1.356 . S
N848 H854 0.984 . S
N848 H855 0.984 . S
N849 C842 1.356 1_455 S
N849 H852 0.984 . S
N849 H853 0.985 . S
H850 N845 0.984 . S
H851 N845 0.985 1_455 S
H852 N849 0.984 . S
H853 N849 0.985 . S
H854 N848 0.984 . S
H855 N848 0.984 . S
H856 N844 0.984 . S
H857 N844 0.985 . S
C858 C859 1.363 . S
C858 C864 1.379 . S
C858 N866 1.356 . S
C859 C858 1.363 . S
C859 C865 1.363 . S
C860 C861 1.363 . S
C860 C865 1.379 . S
C860 N867 1.356 . S
C861 C860 1.363 . S
C861 C864 1.363 . S
N862 C864 1.356 . S
N862 H874 0.984 . S
N862 H875 0.985 . S
N863 C865 1.356 . S
N863 H868 0.984 . S
N863 H869 0.985 . S
C864 C858 1.379 . S
C864 C861 1.363 . S
C864 N862 1.356 . S
C865 C859 1.363 . S
C865 C860 1.379 . S
C865 N863 1.356 . S
N866 C858 1.356 . S
N866 H872 0.984 . S
N866 H873 0.984 . S
N867 C860 1.356 . S
N867 H870 0.984 . S
N867 H871 0.985 . S
H868 N863 0.984 . S
H869 N863 0.985 . S
H870 N867 0.984 . S
H871 N867 0.985 . S
H872 N866 0.984 . S
H873 N866 0.984 . S
H874 N862 0.984 . S
H875 N862 0.985 . S
C876 C877 1.363 . S
C876 C882 1.379 . S
C876 N884 1.356 . S
C877 C876 1.363 . S
C877 C883 1.363 . S
C878 C879 1.363 . S
C878 C883 1.379 . S
C878 N885 1.356 . S
C879 C878 1.363 . S
C879 C882 1.363 . S
N880 C882 1.356 . S
N880 H892 0.984 . S
N880 H893 0.985 . S
N881 C883 1.356 . S
N881 H886 0.984 . S
N881 H887 0.985 . S
C882 C876 1.379 . S
C882 C879 1.363 . S
C882 N880 1.356 . S
C883 C877 1.363 . S
C883 C878 1.379 . S
C883 N881 1.356 . S
N884 C876 1.356 . S
N884 H890 0.984 . S
N884 H891 0.984 . S
N885 C878 1.356 . S
N885 H888 0.984 . S
N885 H889 0.985 . S
H886 N881 0.984 . S
H887 N881 0.985 . S
H888 N885 0.984 . S
H889 N885 0.985 . S
H890 N884 0.984 . S
H891 N884 0.984 . S
H892 N880 0.984 . S
H893 N880 0.985 . S
C894 C895 1.363 . S
C894 C900 1.379 . S
C894 N902 1.356 . S
C895 C894 1.363 . S
C895 C901 1.363 . S
C896 C897 1.363 . S
C896 C901 1.379 . S
C896 N903 1.356 . S
C897 C896 1.363 . S
C897 C900 1.363 . S
N898 C900 1.356 . S
N898 H910 0.984 . S
N898 H911 0.985 . S
N899 C901 1.356 . S
N899 H904 0.984 . S
N899 H905 0.985 . S
C900 C894 1.379 . S
C900 C897 1.363 . S
C900 N898 1.356 . S
C901 C895 1.363 . S
C901 C896 1.379 . S
C901 N899 1.356 . S
N902 C894 1.356 . S
N902 H908 0.984 . S
N902 H909 0.984 . S
N903 C896 1.356 . S
N903 H906 0.984 . S
N903 H907 0.985 . S
H904 N899 0.984 . S
H905 N899 0.985 . S
H906 N903 0.984 . S
H907 N903 0.985 . S
H908 N902 0.984 . S
H909 N902 0.984 . S
H910 N898 0.984 . S
H911 N898 0.985 . S
C481 C255 3.203 . S
C483 C351 3.483 . S
C501 C377 3.088 . S
C499 C295 2.725 . S
C519 C417 2.955 . S
C517 C175 2.617 . S
C537 C471 3.340 . S
C535 C215 3.090 . S
C555 C332 3.484 . S
C553 C95 3.199 . S
C571 C135 2.730 . S
C573 C362 3.088 . S
C589 C15 2.612 . S
C591 C402 2.955 . S
C607 C55 3.084 . S
C609 C452 3.340 . S
C627 C328 0.886 1_455 S
C625 C221 0.903 . S
C645 C389 0.985 . S
C643 C261 1.035 . S
C663 C429 0.558 . S
C661 C301 0.518 . S
C679 C181 0.785 . S
C681 C448 0.783 . S
C697 C61 0.816 . S
C699 C349 0.886 . S
C717 C368 0.985 . S
C715 C101 0.928 . S
C735 C408 0.559 . S
C733 C141 0.570 1_556 S
C751 C21 0.761 1_556 S
C753 C469 0.783 1_554 S
C769 C202 3.272 . S
C771 C322 3.697 . S
C787 C242 3.746 . S
C789 C372 4.127 . S
C807 C412 3.851 . S
C805 C282 3.444 . S
C825 C442 3.391 . S
C823 C162 2.992 . S
C841 C42 3.223 . S
C843 C337 3.697 . S
C861 C391 4.127 . S
C859 C82 3.713 . S
C879 C431 3.850 . S
C877 C122 3.511 . S
C895 C2 2.952 . S
C897 C457 3.391 . S
