# Generated by pormake.
# Topology anh, (6,3)-cn, num edge types: 1
# Building blocks:
#     Node 0, Type 0, BuildingBlock: PAMTUU_clean_sbu_0, # of connection points: 6
#     Node 1, Type 0, BuildingBlock: PAMTUU_clean_sbu_0, # of connection points: 6
#     Node 2, Type 0, BuildingBlock: PAMTUU_clean_sbu_0, # of connection points: 6
#     Node 3, Type 1, BuildingBlock: WUSLED_clean_sbu_0, # of connection points: 3
#     Node 4, Type 1, BuildingBlock: WUSLED_clean_sbu_0, # of connection points: 3
#     Node 5, Type 1, BuildingBlock: WUSLED_clean_sbu_0, # of connection points: 3
#     Node 6, Type 1, BuildingBlock: WUSLED_clean_sbu_0, # of connection points: 3
#     Node 7, Type 1, BuildingBlock: WUSLED_clean_sbu_0, # of connection points: 3
#     Node 8, Type 1, BuildingBlock: WUSLED_clean_sbu_0, # of connection points: 3
#     Edge 9, Type (0, 1), BuildingBlock: KIFKEQ_clean_linker_1, # of connection points: 2
#     Edge 10, Type (0, 1), BuildingBlock: KIFKEQ_clean_linker_1, # of connection points: 2
#     Edge 11, Type (0, 1), BuildingBlock: KIFKEQ_clean_linker_1, # of connection points: 2
#     Edge 12, Type (0, 1), BuildingBlock: KIFKEQ_clean_linker_1, # of connection points: 2
#     Edge 13, Type (0, 1), BuildingBlock: KIFKEQ_clean_linker_1, # of connection points: 2
#     Edge 14, Type (0, 1), BuildingBlock: KIFKEQ_clean_linker_1, # of connection points: 2
#     Edge 15, Type (0, 1), BuildingBlock: KIFKEQ_clean_linker_1, # of connection points: 2
#     Edge 16, Type (0, 1), BuildingBlock: KIFKEQ_clean_linker_1, # of connection points: 2
#     Edge 17, Type (0, 1), BuildingBlock: KIFKEQ_clean_linker_1, # of connection points: 2
#     Edge 18, Type (0, 1), BuildingBlock: KIFKEQ_clean_linker_1, # of connection points: 2
#     Edge 19, Type (0, 1), BuildingBlock: KIFKEQ_clean_linker_1, # of connection points: 2
#     Edge 20, Type (0, 1), BuildingBlock: KIFKEQ_clean_linker_1, # of connection points: 2
#     Edge 21, Type (0, 1), BuildingBlock: KIFKEQ_clean_linker_1, # of connection points: 2
#     Edge 22, Type (0, 1), BuildingBlock: KIFKEQ_clean_linker_1, # of connection points: 2
#     Edge 23, Type (0, 1), BuildingBlock: KIFKEQ_clean_linker_1, # of connection points: 2
#     Edge 24, Type (0, 1), BuildingBlock: KIFKEQ_clean_linker_1, # of connection points: 2
#     Edge 25, Type (0, 1), BuildingBlock: KIFKEQ_clean_linker_1, # of connection points: 2
#     Edge 26, Type (0, 1), BuildingBlock: KIFKEQ_clean_linker_1, # of connection points: 2
# Relax obj value: 0.216
# Max RMSD: 0.182
# Mean RMSD: 0.148
data_MOF--net-anh--node1-PAMTUU_clean_sbu_0--node2-WUSLED_clean_sbu_0--edge1-KIFKEQ_clean_linker_1
_symmetry_space_group_name_H-M    P1
_symmetry_Int_Tables_number       1
_symmetry_cell_setting            triclinic
loop_
_symmetry_equiv_pos_as_xyz
'x, y, z'
_cell_length_a     40.484427
_cell_length_b     40.584529
_cell_length_c     72.436609
_cell_angle_alpha  93.436136
_cell_angle_beta   90.767796
_cell_angle_gamma 119.8617
loop_
_atom_site_label
_atom_site_type_symbol
_atom_site_fract_x
_atom_site_fract_y
_atom_site_fract_z
_atom_type_partial_charge
Tb0 Tb 0.07736 0.5763 0.15605 0.0
Tb1 Tb 0.12024 0.53162 0.15687 0.0
C2 C 0.10139 0.55433 0.11819 0.0
C3 C 1.01537 0.61 0.17143 0.0
C4 C 0.9424 0.57798 0.18432 0.0
C5 C 0.9554 0.60848 0.17294 0.0
C6 C 0.99185 0.62425 0.16634 0.0
C7 C 1.00387 0.58266 0.18456 0.0
C8 C 0.96724 0.56637 0.19087 0.0
C9 C 1.04751 0.61703 0.16038 0.0
O10 O 1.02738 0.51814 0.15928 0.0
O11 O 1.05912 0.48465 0.15848 0.0
O12 O 0.12792 0.55725 0.18487 0.0
O13 O 0.07112 0.55427 0.18309 0.0
O14 O 0.14463 0.50346 0.14241 0.0
O15 O 0.13907 0.50113 0.17204 0.0
O16 O 0.1703 0.59049 0.16197 0.0
O17 O 0.13886 0.62273 0.15667 0.0
O18 O 0.07722 0.56214 0.12648 0.0
O19 O 0.12391 0.54648 0.12792 0.0
C20 C 1.02661 0.4851 0.16002 0.0
O21 O 0.07797 0.62334 0.16986 0.0
O22 O 1.03893 0.59222 0.1462 0.0
C23 C 0.09928 0.55666 0.19299 0.0
C24 C 0.19835 0.51796 0.16099 0.0
C25 C 0.27714 0.55903 0.16832 0.0
C26 C 0.25378 0.52819 0.17872 0.0
C27 C 0.21461 0.50775 0.17504 0.0
C28 C 0.22122 0.55072 0.15164 0.0
C29 C 0.2604 0.57117 0.15531 0.0
C30 C 0.1571 0.49793 0.15793 0.0
C31 C 0.17125 0.62333 0.16059 0.0
H32 H 0.93593 0.61689 0.1674 0.0
H33 H 1.00027 0.64491 0.15603 0.0
H34 H 1.02169 0.57128 0.18863 0.0
H35 H 0.95716 0.54229 0.1993 0.0
H36 H 0.2659 0.51782 0.1887 0.0
H37 H 0.19712 0.48356 0.18289 0.0
H38 H 0.20902 0.5602 0.14124 0.0
H39 H 0.27782 0.59483 0.14714 0.0
Tb40 Tb 0.54351 0.04615 0.48785 0.0
Tb41 Tb 0.63099 0.08801 0.49171 0.0
C42 C 0.59146 0.07053 0.45156 0.0
C43 C 0.44974 0.97309 0.49359 0.0
C44 C 0.41627 0.89872 0.50447 0.0
C45 C 0.40615 0.90589 0.48714 0.0
C46 C 0.42273 0.94286 0.48177 0.0
C47 C 0.45988 0.96595 0.51096 0.0
C48 C 0.4429 0.92895 0.51646 0.0
C49 C 0.47269 1.01007 0.48618 0.0
O50 O 0.55187 0.99703 0.4935 0.0
O51 O 0.61608 1.02667 0.49068 0.0
O52 O 0.61275 0.09394 0.51924 0.0
O53 O 0.55644 1.03914 0.51586 0.0
O54 O 0.68525 0.11238 0.48102 0.0
O55 O 0.6773 0.10144 0.50992 0.0
O56 O 0.62303 0.13916 0.49373 0.0
O57 O 0.55777 0.10729 0.49237 0.0
O58 O 0.55927 0.04747 0.45891 0.0
O59 O 0.62228 0.09218 0.46217 0.0
C60 C 0.58367 0.99526 0.49335 0.0
O61 O 0.49241 1.03887 0.49831 0.0
O62 O 0.49288 1.00922 0.47249 0.0
C63 C 0.58374 0.06618 0.52655 0.0
C64 C 0.72555 0.16063 0.50324 0.0
C65 C 0.76601 0.23742 0.51559 0.0
C66 C 0.76623 0.21027 0.52657 0.0
C67 C 0.74593 0.17187 0.5204 0.0
C68 C 0.72386 0.18777 0.49277 0.0
C69 C 0.74387 0.22581 0.49891 0.0
C70 C 0.70131 0.12041 0.49764 0.0
C71 C 0.59063 0.14004 0.49433 0.0
H72 H 0.38488 0.8829 0.47785 0.0
H73 H 0.4154 0.94774 0.46815 0.0
H74 H 0.48156 0.98873 0.52008 0.0
H75 H 0.45064 0.92388 0.52995 0.0
H76 H 0.78369 0.21901 0.53933 0.0
H77 H 0.74629 0.151 0.52893 0.0
H78 H 0.70739 0.17984 0.47972 0.0
H79 H 0.74416 0.24634 0.4899 0.0
Tb80 Tb 0.59849 0.5386 0.82122 0.0
Tb81 Tb 0.64402 0.62692 0.82757 0.0
C82 C 0.61792 0.58785 0.78614 0.0
C83 C 0.58194 0.44546 0.82494 0.0
C84 C 0.61997 0.40789 0.83616 0.0
C85 C 0.60492 0.40181 0.81787 0.0
C86 C 0.58593 0.42039 0.81234 0.0
C87 C 0.59863 0.45305 0.84299 0.0
C88 C 0.61729 0.4341 0.84861 0.0
C89 C 0.56606 0.46804 0.81823 0.0
O90 O 0.65818 0.54854 0.82371 0.0
O91 O 0.69109 0.61328 0.82903 0.0
O92 O 0.61867 0.60526 0.85361 0.0
O93 O 0.62237 0.55199 0.84934 0.0
O94 O 0.66655 0.68221 0.8194 0.0
O95 O 0.68055 0.67207 0.84666 0.0
O96 O 0.5845 0.61667 0.82952 0.0
O97 O 0.55106 0.55149 0.82561 0.0
O98 O 0.60045 0.55459 0.79304 0.0
O99 O 0.63747 0.61939 0.797 0.0
C100 C 0.69104 0.58061 0.82747 0.0
O101 O 0.55768 0.48674 0.83085 0.0
O102 O 0.58488 0.48891 0.80493 0.0
C103 C 0.6204 0.57721 0.8605 0.0
C104 C 0.66739 0.72117 0.84438 0.0
C105 C 0.64513 0.77437 0.85263 0.0
C106 C 0.68165 0.78239 0.85844 0.0
C107 C 0.69281 0.75549 0.85436 0.0
C108 C 0.62929 0.71139 0.84098 0.0
C109 C 0.61801 0.73778 0.84535 0.0
C110 C 0.68092 0.69698 0.83607 0.0
C111 C 0.55143 0.58426 0.82879 0.0
H112 H 0.60611 0.38123 0.80807 0.0
H113 H 0.57445 0.41534 0.79819 0.0
H114 H 0.59726 0.47351 0.85279 0.0
H115 H 0.62865 0.43904 0.86276 0.0
H116 H 0.70269 0.81075 0.86403 0.0
H117 H 0.722 0.76275 0.85749 0.0
H118 H 0.60922 0.68506 0.8333 0.0
H119 H 0.58987 0.73158 0.8405 0.0
C120 C 0.69445 0.16004 0.19168 0.0
C121 C 0.70963 0.19317 0.20416 0.0
C122 C 0.76682 0.23125 0.18532 0.0
C123 C 0.74469 0.22755 0.20111 0.0
C124 C 0.75107 0.1979 0.1729 0.0
C125 C 0.71635 0.16375 0.17599 0.0
U126 U 0.59839 0.06828 0.21204 0.0
O127 O 0.53888 1.03817 0.19882 0.0
O128 O 0.56981 1.00738 0.20038 0.0
C129 C 0.5378 1.00554 0.19483 0.0
C130 C 0.65562 0.12248 0.19343 0.0
C131 C 0.49945 0.96674 0.19264 0.0
C132 C 0.44534 0.91712 0.17182 0.0
C133 C 0.47963 0.95318 0.17508 0.0
C134 C 0.4479 0.90556 0.20366 0.0
C135 C 0.42797 0.89172 0.18595 0.0
C136 C 0.48254 0.94178 0.20688 0.0
C137 C 0.60071 0.07708 0.26928 0.0
C138 C 0.56967 0.04516 0.29698 0.0
C139 C 0.62638 0.10708 0.30056 0.0
C140 C 0.628 0.10766 0.28114 0.0
C141 C 0.59729 0.07579 0.30897 0.0
C142 C 0.57134 0.04581 0.27746 0.0
C143 C 0.60464 0.07887 0.24868 0.0
O144 O 0.65455 0.09135 0.19846 0.0
O145 O 0.62481 0.12333 0.19826 0.0
O146 O 0.58628 0.09076 0.23837 0.0
O147 O 0.61774 0.05949 0.23924 0.0
H148 H 0.69437 0.19268 0.21639 0.0
H149 H 0.75451 0.25131 0.21141 0.0
H150 H 0.76517 0.19803 0.16032 0.0
H151 H 0.70616 0.13989 0.16568 0.0
H152 H 0.43296 0.90914 0.15784 0.0
H153 H 0.49111 0.97055 0.16349 0.0
H154 H 0.43672 0.88855 0.21535 0.0
H155 H 0.49612 0.95016 0.22066 0.0
H156 H 0.5464 1.02068 0.30267 0.0
H157 H 0.64862 0.13107 0.30898 0.0
H158 H 0.65111 0.13214 0.27534 0.0
H159 H 0.54972 1.02181 0.26878 0.0
C160 C 0.58399 0.66686 0.5254 0.0
C161 C 0.57153 0.6847 0.53883 0.0
C162 C 0.58361 0.73861 0.51919 0.0
C163 C 0.57146 0.71949 0.53584 0.0
C164 C 0.59579 0.72021 0.50587 0.0
C165 C 0.59601 0.68581 0.5089 0.0
U166 U 0.58472 0.5728 0.5457 0.0
O167 O 0.5537 0.51229 0.53323 0.0
O168 O 0.61548 0.54423 0.53313 0.0
C169 C 0.58453 0.51144 0.5284 0.0
C170 C 0.58345 0.62839 0.52715 0.0
C171 C 0.5854 0.4733 0.52614 0.0
C172 C 0.59643 0.42767 0.5059 0.0
C173 C 0.59591 0.46258 0.50916 0.0
C174 C 0.57544 0.41122 0.53644 0.0
C175 C 0.58629 0.40058 0.5194 0.0
C176 C 0.57503 0.44643 0.53972 0.0
C177 C 0.58952 0.5809 0.60304 0.0
C178 C 0.5913 0.55142 0.6314 0.0
C179 C 0.59393 0.61222 0.6338 0.0
C180 C 0.59175 0.61146 0.61432 0.0
C181 C 0.59398 0.58234 0.64282 0.0
C182 C 0.58913 0.55073 0.61183 0.0
C183 C 0.58781 0.58164 0.58232 0.0
O184 O 0.61463 0.62788 0.53197 0.0
O185 O 0.55292 0.59795 0.5322 0.0
O186 O 0.55556 0.56254 0.57233 0.0
O187 O 0.61844 0.59435 0.57261 0.0
H188 H 0.56173 0.67177 0.55177 0.0
H189 H 0.562 0.73149 0.54687 0.0
H190 H 0.60475 0.7319 0.49263 0.0
H191 H 0.60538 0.67353 0.49792 0.0
H192 H 0.60432 0.42174 0.49242 0.0
H193 H 0.60362 0.48142 0.49805 0.0
H194 H 0.56757 0.39244 0.54756 0.0
H195 H 0.56653 0.45255 0.553 0.0
H196 H 0.59158 0.5279 0.63755 0.0
H197 H 0.59512 0.63623 0.64178 0.0
H198 H 0.59183 0.63504 0.60801 0.0
H199 H 0.58741 0.52671 0.6036 0.0
C200 C 1.02418 0.58164 0.85993 0.0
C201 C 0.9926 0.56252 0.87116 0.0
C202 C 0.95126 0.58099 0.85329 0.0
C203 C 0.95733 0.56233 0.86798 0.0
C204 C 0.98312 0.59991 0.84213 0.0
C205 C 1.01819 0.60021 0.84537 0.0
U206 U 0.12002 0.57866 0.8798 0.0
O207 O 0.14766 0.54929 0.86482 0.0
O208 O 0.17885 0.61099 0.86923 0.0
C209 C 0.17964 0.58075 0.86219 0.0
C210 C 1.0622 0.58089 0.86169 0.0
C211 C 0.218 0.58093 0.86011 0.0
C212 C 0.26544 0.57849 0.83911 0.0
C213 C 0.23022 0.57766 0.84219 0.0
C214 C 0.27886 0.58585 0.87184 0.0
C215 C 0.29123 0.58251 0.85377 0.0
C216 C 0.24343 0.58517 0.87491 0.0
C217 C 0.11711 0.57223 0.93673 0.0
C218 C 0.14298 0.56457 0.96602 0.0
C219 C 0.08781 0.57258 0.96615 0.0
C220 C 0.08908 0.57517 0.94678 0.0
C221 C 0.11473 0.56722 0.9762 0.0
C222 C 0.14402 0.56686 0.94662 0.0
C223 C 0.11815 0.57456 0.9161 0.0
O224 O 0.09409 0.61123 0.86813 0.0
O225 O 1.06233 0.54942 0.86502 0.0
O226 O 0.10333 0.5442 0.90434 0.0
O227 O 0.13399 0.60713 0.90834 0.0
H228 H 0.995 0.54745 0.88247 0.0
H229 H 0.93478 0.54752 0.8773 0.0
H230 H 0.98103 0.61418 0.83041 0.0
H231 H 1.04087 0.61478 0.83604 0.0
H232 H 0.27241 0.57651 0.82489 0.0
H233 H 0.21235 0.5747 0.83023 0.0
H234 H 0.29636 0.58867 0.8839 0.0
H235 H 0.236 0.58794 0.889 0.0
H236 H 0.16406 0.56005 0.97299 0.0
H237 H 0.06587 0.57532 0.97328 0.0
H238 H 0.06796 0.57939 0.93963 0.0
H239 H 0.16596 0.5644 0.93931 0.0
C240 C 0.9932 0.54152 0.45243 0.0
C241 C 0.97096 0.51182 0.43895 0.0
C242 C 0.94161 0.47014 0.46326 0.0
C243 C 0.94497 0.47598 0.44438 0.0
C244 C 0.96155 0.50079 0.47662 0.0
C245 C 0.9875 0.53639 0.4712 0.0
U246 U 1.05877 0.59437 0.41575 0.0
O247 O 0.0961 0.65625 0.41436 0.0
O248 O 0.12054 0.61847 0.41488 0.0
C249 C 0.12664 0.65342 0.41757 0.0
C250 C 1.02722 0.57472 0.44728 0.0
C251 C 0.14852 0.67335 0.43485 0.0
C252 C 0.16374 0.67053 0.46706 0.0
C253 C 0.14114 0.65332 0.45091 0.0
C254 C 0.19933 0.7291 0.45184 0.0
C255 C 0.19344 0.70823 0.46748 0.0
C256 C 0.17698 0.71163 0.43553 0.0
C257 C 1.0346 0.5525 0.36611 0.0
C258 C 0.07266 0.58604 0.34081 0.0
C259 C 1.02481 0.51905 0.33599 0.0
C260 C 1.01562 0.51902 0.35446 0.0
C261 C 1.05315 0.55265 0.32894 0.0
C262 C 1.06351 0.58593 0.35932 0.0
C263 C 1.02452 0.55188 0.38539 0.0
O264 O 1.05303 0.56663 0.44133 0.0
O265 O 1.02182 0.59733 0.43697 0.0
O266 O 1.01942 0.58009 0.39163 0.0
O267 O 1.04494 0.54441 0.39686 0.0
H268 H 0.97568 0.51571 0.42435 0.0
H269 H 0.92942 0.45252 0.43399 0.0
H270 H 0.95841 0.4967 0.49128 0.0
H271 H 1.00483 0.55914 0.48165 0.0
H272 H 0.15888 0.65412 0.47902 0.0
H273 H 0.11886 0.62386 0.45079 0.0
H274 H 0.22249 0.75827 0.45195 0.0
H275 H 0.18264 0.72754 0.42336 0.0
H276 H 0.09444 0.61237 0.33572 0.0
H277 H 1.00983 0.49276 0.32724 0.0
H278 H 0.99367 0.49288 0.35965 0.0
H279 H 0.07873 0.61193 0.36829 0.0
C280 C 0.52207 0.97329 0.7875 0.0
C281 C 0.52175 0.94592 0.77463 0.0
C282 C 0.53438 0.91665 0.79972 0.0
C283 C 0.52799 0.91758 0.78075 0.0
C284 C 0.53185 0.94241 0.8126 0.0
C285 C 0.52587 0.97083 0.80647 0.0
U286 U 0.53419 1.03714 0.74939 0.0
O287 O 0.51115 0.07585 0.74728 0.0
O288 O 0.57318 0.09858 0.74897 0.0
C289 C 0.54516 0.10586 0.75095 0.0
C290 C 0.52533 1.00789 0.78128 0.0
C291 C 0.54881 0.12842 0.76816 0.0
C292 C 0.56482 0.141 0.80122 0.0
C293 C 0.5585 0.11852 0.78486 0.0
C294 C 0.54907 0.18199 0.78465 0.0
C295 C 0.56076 0.17321 0.80113 0.0
C296 C 0.54323 0.1597 0.76819 0.0
C297 C 0.5419 1.00981 0.69959 0.0
C298 C 0.54553 0.04967 0.67518 0.0
C299 C 0.55899 0.99823 0.66894 0.0
C300 C 0.55204 0.98882 0.68726 0.0
C301 C 0.55564 1.02863 0.66275 0.0
C302 C 0.53897 1.0405 0.69354 0.0
C303 C 0.53562 1.00028 0.71884 0.0
O304 O 0.55887 1.03071 0.77499 0.0
O305 O 0.49654 1.00358 0.77077 0.0
O306 O 0.50391 0.99672 0.72538 0.0
O307 O 0.56564 1.02022 0.73024 0.0
H308 H 0.51933 0.94809 0.75989 0.0
H309 H 0.53025 0.89799 0.77071 0.0
H310 H 0.53764 0.94253 0.82726 0.0
H311 H 0.52687 0.99236 0.81643 0.0
H312 H 0.57394 0.13395 0.8138 0.0
H313 H 0.56244 0.09411 0.78516 0.0
H314 H 0.54632 0.20718 0.78434 0.0
H315 H 0.53542 0.16742 0.75546 0.0
H316 H 0.54308 0.07342 0.67073 0.0
H317 H 0.5664 0.9814 0.65955 0.0
H318 H 0.5546 0.9652 0.69181 0.0
H319 H 0.53166 0.05731 0.70301 0.0
C320 C 0.61837 0.47029 0.11735 0.0
C321 C 0.64721 0.47416 0.10562 0.0
C322 C 0.68585 0.47894 0.13236 0.0
C323 C 0.68105 0.47841 0.11316 0.0
C324 C 0.65636 0.47334 0.14392 0.0
C325 C 0.62258 0.46891 0.13641 0.0
U326 U 0.56654 0.48793 0.07882 0.0
O327 O 0.50545 0.46702 0.07393 0.0
O328 O 0.54532 0.5283 0.0806 0.0
C329 C 0.50982 0.50024 0.08003 0.0
C330 C 0.58692 0.47418 0.11045 0.0
C331 C 0.49024 0.49944 0.09687 0.0
C332 C 0.47502 0.4793 0.12808 0.0
C333 C 0.4921 0.47903 0.11156 0.0
C334 C 0.45599 0.522 0.11565 0.0
C335 C 0.45663 0.5005 0.13002 0.0
C336 C 0.47281 0.52152 0.09912 0.0
C337 C 0.60017 0.50114 0.0301 0.0
C338 C 0.56934 0.51826 0.00658 0.0
C339 C 0.62469 0.51236 -0.0005 0.0
C340 C 0.62676 0.50299 0.0175 0.0
C341 C 0.59615 0.5202 0.994 0.0
C342 C 0.57126 0.50861 0.02462 0.0
C343 C 0.60358 0.49228 0.04902 0.0
O344 O 0.5974 0.50863 0.10573 0.0
O345 O 0.56267 0.44691 0.09842 0.0
O346 O 0.5751 0.46006 0.05393 0.0
O347 O 0.61457 0.52098 0.06158 0.0
H348 H 0.6443 0.47596 0.09088 0.0
H349 H 0.70404 0.48323 0.10422 0.0
H350 H 0.66018 0.47403 0.15881 0.0
H351 H 0.60064 0.46652 0.14555 0.0
H352 H 0.4757 0.46279 0.13914 0.0
H353 H 0.50663 0.46276 0.11022 0.0
H354 H 0.4418 0.53863 0.11717 0.0
H355 H 0.47222 0.53827 0.08815 0.0
H356 H 0.54698 0.52398 0.00242 0.0
H357 H 0.64553 0.51374 0.98988 0.0
H358 H 0.64921 0.49737 0.02161 0.0
H359 H 0.55046 0.50716 0.03429 0.0
H360 H 0.31457 0.56402 0.13716 0.0
H361 H 0.32939 0.57567 0.1969 0.0
H362 H 0.3624 0.54516 0.13502 0.0
H363 H 0.37724 0.55556 0.1946 0.0
H364 H 0.48279 0.54634 0.16174 0.0
H365 H 0.44353 0.56919 0.17692 0.0
H366 H 0.34309 0.47625 0.14826 0.0
H367 H 0.38218 0.45352 0.13327 0.0
C368 C 0.32948 0.56464 0.14983 0.0
C369 C 0.31735 0.56977 0.16728 0.0
C370 C 0.3562 0.55292 0.14858 0.0
C371 C 0.37131 0.54693 0.16474 0.0
C372 C 0.36465 0.55891 0.18208 0.0
C373 C 0.33784 0.57083 0.18334 0.0
C374 C 0.45204 0.52942 0.1598 0.0
C375 C 0.43517 0.49891 0.14619 0.0
C376 C 0.42976 0.54264 0.16831 0.0
C377 C 0.39102 0.52517 0.16303 0.0
C378 C 0.37327 0.49036 0.15218 0.0
C379 C 0.39545 0.47707 0.14382 0.0
H380 H 0.75913 0.30078 0.51596 0.0
H381 H 0.84056 0.26166 0.51868 0.0
H382 H 0.80609 0.35779 0.50201 0.0
H383 H 0.88658 0.31713 0.50408 0.0
H384 H 0.96621 0.43709 0.48658 0.0
H385 H 0.92624 0.38318 0.50407 0.0
H386 H 0.82735 0.36217 0.47052 0.0
H387 H 0.86753 0.4182 0.4538 0.0
C388 C 0.78776 0.30554 0.51451 0.0
C389 C 0.79634 0.27696 0.51801 0.0
C390 C 0.81412 0.33734 0.50603 0.0
C391 C 0.84911 0.34069 0.50127 0.0
C392 C 0.85962 0.31498 0.50744 0.0
C393 C 0.83349 0.28352 0.51613 0.0
C394 C 0.93594 0.42055 0.48288 0.0
C395 C 0.91931 0.4321 0.46951 0.0
C396 C 0.91316 0.38972 0.4928 0.0
C397 C 0.87365 0.36972 0.48911 0.0
C398 C 0.85766 0.37847 0.47412 0.0
C399 C 0.88051 0.40985 0.46437 0.0
H400 H 0.65654 0.79893 0.8191 0.0
H401 H 0.62054 0.81608 0.87286 0.0
H402 H 0.63163 0.83571 0.80569 0.0
H403 H 0.59817 0.85631 0.85984 0.0
H404 H 0.50944 0.86755 0.82667 0.0
H405 H 0.54373 0.83967 0.84085 0.0
H406 H 0.63329 0.89273 0.80234 0.0
H407 H 0.5976 0.91833 0.78758 0.0
C408 C 0.64476 0.81234 0.82814 0.0
C409 C 0.64006 0.80511 0.84686 0.0
C410 C 0.63063 0.83349 0.82052 0.0
C411 C 0.61245 0.84842 0.83168 0.0
C412 C 0.61116 0.84414 0.85086 0.0
C413 C 0.62438 0.82187 0.85841 0.0
C414 C 0.53601 0.87225 0.82107 0.0
C415 C 0.55086 0.89437 0.80602 0.0
C416 C 0.55606 0.85717 0.82938 0.0
C417 C 0.59159 0.86477 0.82295 0.0
C418 C 0.60588 0.88621 0.80753 0.0
C419 C 0.5854 0.90057 0.79899 0.0
H420 H 0.88879 0.58668 0.20252 0.0
H421 H 0.90581 0.51248 0.1636 0.0
H422 H 0.82155 0.55487 0.19239 0.0
H423 H 0.84048 0.4836 0.15189 0.0
H424 H 0.7181 0.43471 0.13358 0.0
H425 H 0.77614 0.4497 0.15137 0.0
H426 H 0.79456 0.56292 0.16652 0.0
H427 H 0.73503 0.54611 0.15008 0.0
C428 C 0.87755 0.56265 0.19225 0.0
C429 C 0.90167 0.55167 0.18378 0.0
C430 C 0.83949 0.54502 0.18609 0.0
C431 C 0.82595 0.51771 0.1708 0.0
C432 C 0.84955 0.50427 0.16371 0.0
C433 C 0.88707 0.52078 0.17041 0.0
C434 C 0.73488 0.46261 0.14085 0.0
C435 C 0.72274 0.48931 0.14078 0.0
C436 C 0.76801 0.47134 0.151 0.0
C437 C 0.78971 0.50726 0.16078 0.0
C438 C 0.77788 0.53441 0.15989 0.0
C439 C 0.74432 0.52526 0.15018 0.0
H440 H 0.4075 0.83377 0.487 0.0
H441 H 0.37507 0.87743 0.53491 0.0
H442 H 0.34939 0.77289 0.48775 0.0
H443 H 0.31684 0.81613 0.5359 0.0
H444 H 0.21431 0.77306 0.48906 0.0
H445 H 0.27217 0.80792 0.50888 0.0
H446 H 0.29479 0.71482 0.50001 0.0
H447 H 0.23649 0.67992 0.48018 0.0
C448 C 0.38904 0.82937 0.49841 0.0
C449 C 0.39471 0.86014 0.51054 0.0
C450 C 0.35579 0.79444 0.49895 0.0
C451 C 0.32819 0.79034 0.5116 0.0
C452 C 0.33757 0.81894 0.5259 0.0
C453 C 0.3709 0.85392 0.52536 0.0
C454 C 0.23089 0.75955 0.49204 0.0
C455 C 0.22155 0.72428 0.48312 0.0
C456 C 0.26374 0.77916 0.50355 0.0
C457 C 0.2879 0.7639 0.50599 0.0
C458 C 0.27643 0.72692 0.49846 0.0
C459 C 0.24327 0.70712 0.48712 0.0
H460 H 0.59357 0.36647 0.86575 0.0
H461 H 0.66879 0.38757 0.82074 0.0
H462 H 0.58691 0.30388 0.86774 0.0
H463 H 0.66188 0.32491 0.82258 0.0
H464 H 0.63074 0.20846 0.81841 0.0
H465 H 0.65848 0.26795 0.83812 0.0
H466 H 0.54796 0.25982 0.83914 0.0
H467 H 0.52056 0.20077 0.8194 0.0
C468 C 0.61065 0.35872 0.8571 0.0
C469 C 0.63099 0.38116 0.8428 0.0
C470 C 0.6067 0.32285 0.85822 0.0
C471 C 0.62327 0.30946 0.84512 0.0
C472 C 0.64892 0.33462 0.83293 0.0
C473 C 0.65274 0.37042 0.83177 0.0
C474 C 0.61216 0.21856 0.82366 0.0
C475 C 0.57377 0.20074 0.81733 0.0
C476 C 0.62801 0.25242 0.83492 0.0
C477 C 0.60542 0.26836 0.84007 0.0
C478 C 0.56595 0.24786 0.83559 0.0
C479 C 0.55026 0.21433 0.82415 0.0
H480 H 0.52712 0.92829 0.50776 0.0
H481 H 0.63974 0.97449 0.48738 0.0
H482 H 0.52698 0.86948 0.51387 0.0
H483 H 0.63983 0.91579 0.49341 0.0
H484 H 0.62451 0.79468 0.49396 0.0
H485 H 0.62369 0.85243 0.48777 0.0
H486 H 0.54319 0.831 0.53006 0.0
H487 H 0.54293 0.77224 0.53587 0.0
C488 C 0.55201 0.92615 0.50441 0.0
C489 C 0.58331 0.95737 0.4968 0.0
C490 C 0.55212 0.89185 0.50813 0.0
C491 C 0.58337 0.88605 0.50429 0.0
C492 C 0.61461 0.91739 0.49657 0.0
C493 C 0.61469 0.95189 0.4931 0.0
C494 C 0.60606 0.8014 0.502 0.0
C495 C 0.58362 0.77666 0.51557 0.0
C496 C 0.60599 0.83578 0.4985 0.0
C497 C 0.58342 0.84825 0.50823 0.0
C498 C 0.56097 0.82362 0.52181 0.0
C499 C 0.56115 0.78924 0.52538 0.0
H500 H 0.70358 0.51957 0.83326 0.0
H501 H 0.76686 0.6409 0.82964 0.0
H502 H 0.76324 0.51937 0.83915 0.0
H503 H 0.82652 0.64099 0.83558 0.0
H504 H 0.93633 0.63217 0.83473 0.0
H505 H 0.8768 0.63135 0.82828 0.0
H506 H 0.81622 0.52922 0.85692 0.0
H507 H 0.87573 0.52928 0.86285 0.0
C508 C 0.73012 0.54642 0.83358 0.0
C509 C 0.72907 0.58019 0.8307 0.0
C510 C 0.76507 0.54643 0.8372 0.0
C511 C 0.80149 0.58017 0.838 0.0
C512 C 0.80027 0.61391 0.83499 0.0
C513 C 0.76531 0.61394 0.8316 0.0
C514 C 0.9106 0.60903 0.83963 0.0
C515 C 0.91271 0.58074 0.84948 0.0
C516 C 0.8756 0.60884 0.83603 0.0
C517 C 0.83989 0.58026 0.84193 0.0
C518 C 0.84193 0.5519 0.85174 0.0
C519 C 0.87701 0.55219 0.85542 0.0
H520 H 0.23931 0.64188 0.18055 0.0
H521 H 0.19176 0.69515 0.1483 0.0
H522 H 0.29837 0.70328 0.18643 0.0
H523 H 0.25075 0.75647 0.15389 0.0
H524 H 0.37138 0.86351 0.15629 0.0
H525 H 0.31394 0.80197 0.15013 0.0
H526 H 0.33696 0.76461 0.20062 0.0
H527 H 0.39536 0.82581 0.20653 0.0
C528 C 0.24121 0.66651 0.17452 0.0
C529 C 0.20946 0.66217 0.1638 0.0
C530 C 0.27566 0.70256 0.17807 0.0
C531 C 0.28111 0.73675 0.17084 0.0
C532 C 0.24937 0.73205 0.15986 0.0
C533 C 0.2147 0.69618 0.15663 0.0
C534 C 0.36509 0.84257 0.16623 0.0
C535 C 0.39016 0.85183 0.18213 0.0
C536 C 0.33088 0.80638 0.16268 0.0
C537 C 0.3189 0.77642 0.17471 0.0
C538 C 0.34392 0.78551 0.19057 0.0
C539 C 0.37812 0.82177 0.19416 0.0
H540 H 0.53126 0.15334 0.50447 0.0
H541 H 0.64958 0.21657 0.49211 0.0
H542 H 0.53023 0.2129 0.51013 0.0
H543 H 0.64859 0.27645 0.49756 0.0
H544 H 0.63125 0.38255 0.49568 0.0
H545 H 0.63232 0.32317 0.48966 0.0
H546 H 0.54435 0.26932 0.52824 0.0
H547 H 0.54305 0.32865 0.53415 0.0
C548 C 0.55733 0.17983 0.50285 0.0
C549 C 0.5905 0.17861 0.49768 0.0
C550 C 0.55682 0.2148 0.50629 0.0
C551 C 0.5893 0.25129 0.50452 0.0
C552 C 0.62244 0.25003 0.49912 0.0
C553 C 0.62312 0.21499 0.496 0.0
C554 C 0.61175 0.35828 0.50296 0.0
C555 C 0.58706 0.36221 0.51562 0.0
C556 C 0.61266 0.32348 0.49954 0.0
C557 C 0.58853 0.28966 0.50831 0.0
C558 C 0.56356 0.29349 0.52083 0.0
C559 C 0.56305 0.32846 0.52444 0.0
H560 H 0.53755 0.63249 0.85282 0.0
H561 H 0.47758 0.53683 0.81276 0.0
H562 H 0.47796 0.63241 0.85876 0.0
H563 H 0.41803 0.537 0.81829 0.0
H564 H 0.31539 0.55755 0.82182 0.0
H565 H 0.37514 0.55935 0.81593 0.0
H566 H 0.41778 0.60946 0.87126 0.0
H567 H 0.35836 0.60903 0.87703 0.0
C568 C 0.51177 0.61141 0.84508 0.0
C569 C 0.5136 0.58465 0.83219 0.0
C570 C 0.47683 0.61113 0.84863 0.0
C571 C 0.44141 0.58466 0.83919 0.0
C572 C 0.44359 0.55831 0.82605 0.0
C573 C 0.47834 0.558 0.82286 0.0
C574 C 0.33716 0.56948 0.83292 0.0
C575 C 0.32997 0.58319 0.85012 0.0
C576 C 0.37224 0.57005 0.82949 0.0
C577 C 0.40304 0.58441 0.84296 0.0
C578 C 0.39606 0.5983 0.86013 0.0
C579 C 0.36087 0.59763 0.86359 0.0
H580 H 1.00869 0.40802 0.15743 0.0
H581 H 0.95578 0.47506 0.17085 0.0
H582 H 0.94938 0.3499 0.16324 0.0
H583 H 0.89643 0.41716 0.17665 0.0
H584 H 0.7957 0.30859 0.19886 0.0
H585 H 0.85505 0.3662 0.19316 0.0
H586 H 0.88718 0.2998 0.15707 0.0
H587 H 0.82852 0.24218 0.16316 0.0
C588 C 0.98452 0.41078 0.16155 0.0
C589 C 0.98844 0.44768 0.16339 0.0
C590 C 0.94964 0.37669 0.16489 0.0
C591 C 0.91617 0.37697 0.1706 0.0
C592 C 0.92038 0.41405 0.17255 0.0
C593 C 0.9551 0.44805 0.169 0.0
C594 C 0.81517 0.30558 0.18978 0.0
C595 C 0.80527 0.26877 0.18168 0.0
C596 C 0.84997 0.3396 0.18625 0.0
C597 C 0.87784 0.33956 0.17444 0.0
C598 C 0.86801 0.30274 0.1664 0.0
C599 C 0.83315 0.26879 0.16983 0.0
H600 H 0.15751 0.55607 0.09609 0.0
H601 H 1.0502 0.55419 0.09279 0.0
H602 H 0.16091 0.55786 0.06249 0.0
H603 H 1.05383 0.55707 0.05942 0.0
H604 H 1.05148 0.53276 -0.00262 0.0
H605 H 1.04849 0.52816 0.03066 0.0
H606 H 0.17155 0.59101 0.03629 0.0
H607 H 0.17434 0.59461 0.00283 0.0
C608 C 0.13454 0.55602 0.08822 0.0
C609 C 0.10356 0.55499 0.09739 0.0
C610 C 0.13663 0.55742 0.06879 0.0
C611 C 0.10768 0.55766 0.05771 0.0
C612 C 0.07662 0.55636 0.06702 0.0
C613 C 0.07464 0.55509 0.0864 0.0
C614 C 0.07802 0.54588 0.00566 0.0
C615 C 0.11316 0.56426 -0.00294 0.0
C616 C 0.07634 0.54335 0.025 0.0
C617 C 0.10974 0.55944 0.03673 0.0
C618 C 0.14495 0.57761 0.02808 0.0
C619 C 0.14661 0.57982 0.00867 0.0
H620 H 0.64191 0.12834 0.43085 0.0
H621 H 0.54383 1.01537 0.42478 0.0
H622 H 0.6436 0.12993 0.39716 0.0
H623 H 0.54503 1.01683 0.39119 0.0
H624 H 0.5747 1.0145 0.33058 0.0
H625 H 0.57406 1.01362 0.36416 0.0
H626 H 0.61692 0.13488 0.36928 0.0
H627 H 0.61788 0.13575 0.3357 0.0
C628 C 0.62071 0.10371 0.42234 0.0
C629 C 0.5928 0.07168 0.43075 0.0
C630 C 0.62141 0.1047 0.40286 0.0
C631 C 0.59452 0.07346 0.39097 0.0
C632 C 0.56672 1.04141 0.39951 0.0
C633 C 0.56577 1.04064 0.41896 0.0
C634 C 0.58364 1.04103 0.33877 0.0
C635 C 0.59624 0.07515 0.33 0.0
C636 C 0.58327 1.04055 0.35826 0.0
C637 C 0.59532 0.07416 0.36992 0.0
C638 C 0.60795 0.10831 0.36113 0.0
C639 C 0.60843 0.1088 0.34164 0.0
H640 H 0.58514 0.5271 0.76018 0.0
H641 H 0.64316 0.64975 0.76445 0.0
H642 H 0.57964 0.52576 0.72725 0.0
H643 H 0.63633 0.64921 0.73111 0.0
H644 H 0.63364 0.64489 0.66828 0.0
H645 H 0.63929 0.64726 0.70152 0.0
H646 H 0.56533 0.52466 0.69895 0.0
H647 H 0.56098 0.52297 0.6658 0.0
C648 C 0.59666 0.55413 0.75404 0.0
C649 C 0.61482 0.58856 0.76533 0.0
C650 C 0.59319 0.55349 0.73466 0.0
C651 C 0.60719 0.58733 0.72535 0.0
C652 C 0.62519 0.62198 0.73687 0.0
C653 C 0.62912 0.62255 0.75637 0.0
C654 C 0.61842 0.61836 0.67482 0.0
C655 C 0.597 0.58367 0.66389 0.0
C656 C 0.62165 0.61961 0.69433 0.0
C657 C 0.60326 0.58621 0.70406 0.0
C658 C 0.58122 0.55156 0.69292 0.0
C659 C 0.57845 0.55034 0.67341 0.0
H660 H 0.64148 0.10347 0.55355 0.0
H661 H 0.52052 1.02488 0.54548 0.0
H662 H 0.63643 0.09759 0.58703 0.0
H663 H 0.51562 1.01806 0.5784 0.0
H664 H 0.50916 1.0386 0.6392 0.0
H665 H 0.51805 0.05193 0.60673 0.0
H666 H 0.62455 0.05143 0.60971 0.0
H667 H 0.61594 1.03913 0.64245 0.0
C668 C 0.61385 0.08512 0.5589 0.0
C669 C 0.58137 0.06453 0.54686 0.0
C670 C 0.611 0.08148 0.57803 0.0
C671 C 0.57557 0.05745 0.58541 0.0
C672 C 0.54323 1.0373 0.57329 0.0
C673 C 0.54611 1.04087 0.55431 0.0
C674 C 0.53468 0.04186 0.63294 0.0
C675 C 0.56185 1.03782 0.64324 0.0
C676 C 0.53965 0.04914 0.61431 0.0
C677 C 0.57193 0.05253 0.60557 0.0
C678 C 0.59955 0.04929 0.61604 0.0
C679 C 0.59446 0.04185 0.6347 0.0
H680 H 0.60272 0.61544 0.88761 0.0
H681 H 0.63459 0.52888 0.87887 0.0
H682 H 0.59445 0.60293 0.92036 0.0
H683 H 0.62762 0.51734 0.91139 0.0
H684 H 0.57134 0.47165 0.96344 0.0
H685 H 0.57661 0.4877 0.9313 0.0
H686 H 0.6259 0.60694 0.94974 0.0
H687 H 0.61884 0.59013 0.98199 0.0
C688 C 0.60829 0.59404 0.89271 0.0
C689 C 0.61859 0.57263 0.8806 0.0
C690 C 0.60369 0.58696 0.91146 0.0
C691 C 0.60951 0.5585 0.91841 0.0
C692 C 0.62162 0.53854 0.9064 0.0
C693 C 0.62588 0.54535 0.88774 0.0
C694 C 0.58255 0.50113 0.9605 0.0
C695 C 0.59459 0.52972 0.97492 0.0
C696 C 0.58606 0.51047 0.94217 0.0
C697 C 0.6024 0.54873 0.93793 0.0
C698 C 0.61306 0.57723 0.9525 0.0
C699 C 0.60909 0.56772 0.97091 0.0
H700 H 0.14382 0.61127 0.21984 0.0
H701 H 1.04725 0.49774 0.21083 0.0
H702 H 0.13355 0.61046 0.25306 0.0
H703 H 1.03823 0.49542 0.24406 0.0
H704 H 1.0022 0.52051 0.29943 0.0
H705 H 1.01536 0.52092 0.26684 0.0
H706 H 0.13649 0.58535 0.28111 0.0
H707 H 0.12301 0.58567 0.31381 0.0
C708 C 0.12101 0.58583 0.22514 0.0
C709 C 0.09632 0.55457 0.21303 0.0
C710 C 0.11514 0.5852 0.24413 0.0
C711 C 0.08487 0.55294 0.25128 0.0
C712 C 1.06119 0.5211 0.23904 0.0
C713 C 0.06654 0.52216 0.22006 0.0
C714 C 1.03164 0.53449 0.29559 0.0
C715 C 1.06158 0.5529 0.30914 0.0
C716 C 1.03925 0.53463 0.27689 0.0
C717 C 0.07705 0.55289 0.27128 0.0
C718 C 0.10703 0.57139 0.28488 0.0
C719 C 0.09936 0.57153 0.30362 0.0
loop_
_geom_bond_atom_site_label_1
_geom_bond_atom_site_label_2
_geom_bond_distance
_geom_bond_site_symmetry_2
_ccdc_geom_bond_type
Tb0 C9 2.764 1_455 S
Tb0 O10 2.325 1_455 S
Tb0 O13 2.303 . S
Tb0 O17 2.322 . S
Tb0 O18 2.349 . S
Tb0 O21 2.415 1_455 S
Tb0 O22 2.399 1_455 S
Tb1 O11 2.327 . S
Tb1 O12 2.349 . S
Tb1 O14 2.415 . S
Tb1 O15 2.399 . S
Tb1 O16 2.325 . S
Tb1 O19 2.303 . S
Tb1 C30 2.764 . S
C2 O18 1.261 . S
C2 O19 1.257 . S
C3 C6 1.358 . S
C3 C7 1.332 . S
C3 C9 1.504 . S
C4 C5 1.373 . S
C4 C8 1.308 . S
C5 C4 1.373 . S
C5 C6 1.429 . S
C5 H32 0.932 . S
C6 C3 1.358 . S
C6 C5 1.429 . S
C6 H33 0.930 . S
C7 C3 1.332 . S
C7 C8 1.394 . S
C7 H34 0.932 . S
C8 C4 1.308 . S
C8 C7 1.394 . S
C8 H35 0.929 . S
C9 Tb0 2.764 1_655 S
C9 C3 1.504 . S
C9 O21 1.239 . S
C9 O22 1.263 . S
O10 Tb0 2.325 1_655 S
O10 C20 1.236 . S
O11 Tb1 2.327 . S
O11 C20 1.252 1_455 S
O12 Tb1 2.349 . S
O12 C23 1.261 . S
O13 Tb0 2.303 . S
O13 C23 1.257 . S
O14 Tb1 2.415 . S
O14 C30 1.239 . S
O15 Tb1 2.399 . S
O15 C30 1.263 . S
O16 Tb1 2.325 . S
O16 C31 1.236 . S
O17 Tb0 2.322 . S
O17 C31 1.257 . S
O18 Tb0 2.349 . S
O18 C2 1.261 . S
O19 Tb1 2.303 . S
O19 C2 1.257 . S
C20 O10 1.236 . S
C20 O11 1.252 1_655 S
O21 Tb0 2.415 1_655 S
O21 C9 1.239 . S
O22 Tb0 2.399 1_655 S
O22 C9 1.263 . S
C23 O12 1.261 . S
C23 O13 1.257 . S
C24 C27 1.358 . S
C24 C28 1.332 . S
C24 C30 1.504 . S
C25 C26 1.373 . S
C25 C29 1.308 . S
C26 C25 1.373 . S
C26 C27 1.429 . S
C26 H36 0.932 . S
C27 C24 1.358 . S
C27 C26 1.429 . S
C27 H37 0.930 . S
C28 C24 1.332 . S
C28 C29 1.394 . S
C28 H38 0.932 . S
C29 C25 1.308 . S
C29 C28 1.394 . S
C29 H39 0.929 . S
C30 Tb1 2.764 . S
C30 O14 1.239 . S
C30 O15 1.263 . S
C30 C24 1.504 . S
C31 O16 1.236 . S
C31 O17 1.257 . S
H32 C5 0.932 . S
H33 C6 0.930 . S
H34 C7 0.932 . S
H35 C8 0.929 . S
H36 C26 0.932 . S
H37 C27 0.930 . S
H38 C28 0.932 . S
H39 C29 0.929 . S
Tb40 C49 2.746 1_545 S
Tb40 O50 2.299 1_545 S
Tb40 O53 2.303 . S
Tb40 O57 2.349 . S
Tb40 O58 2.351 . S
Tb40 O61 2.398 1_545 S
Tb40 O62 2.384 1_545 S
Tb41 O51 2.322 1_545 S
Tb41 O52 2.349 . S
Tb41 O54 2.415 . S
Tb41 O55 2.399 . S
Tb41 O56 2.325 . S
Tb41 O59 2.303 . S
Tb41 C70 2.764 . S
C42 O58 1.261 . S
C42 O59 1.257 . S
C43 C46 1.358 . S
C43 C47 1.332 . S
C43 C49 1.504 . S
C44 C45 1.373 . S
C44 C48 1.308 . S
C45 C44 1.373 . S
C45 C46 1.429 . S
C45 H72 0.932 . S
C46 C43 1.358 . S
C46 C45 1.429 . S
C46 H73 0.930 . S
C47 C43 1.332 . S
C47 C48 1.394 . S
C47 H74 0.932 . S
C48 C44 1.308 . S
C48 C47 1.394 . S
C48 H75 0.929 . S
C49 Tb40 2.746 1_565 S
C49 C43 1.504 . S
C49 O61 1.239 . S
C49 O62 1.263 . S
O50 Tb40 2.299 1_565 S
O50 C60 1.236 . S
O51 Tb41 2.322 1_565 S
O51 C60 1.257 . S
O52 Tb41 2.349 . S
O52 C63 1.261 . S
O53 Tb40 2.303 . S
O53 C63 1.257 . S
O54 Tb41 2.415 . S
O54 C70 1.239 . S
O55 Tb41 2.399 . S
O55 C70 1.263 . S
O56 Tb41 2.325 . S
O56 C71 1.236 . S
O57 Tb40 2.349 . S
O57 C71 1.257 . S
O58 Tb40 2.351 . S
O58 C42 1.261 . S
O59 Tb41 2.303 . S
O59 C42 1.257 . S
C60 O50 1.236 . S
C60 O51 1.257 . S
O61 Tb40 2.398 1_565 S
O61 C49 1.239 . S
O62 Tb40 2.384 1_565 S
O62 C49 1.263 . S
C63 O52 1.261 . S
C63 O53 1.257 . S
C64 C67 1.358 . S
C64 C68 1.332 . S
C64 C70 1.504 . S
C65 C66 1.373 . S
C65 C69 1.308 . S
C66 C65 1.373 . S
C66 C67 1.429 . S
C66 H76 0.932 . S
C67 C64 1.358 . S
C67 C66 1.429 . S
C67 H77 0.930 . S
C68 C64 1.332 . S
C68 C69 1.394 . S
C68 H78 0.932 . S
C69 C65 1.308 . S
C69 C68 1.394 . S
C69 H79 0.929 . S
C70 Tb41 2.764 . S
C70 O54 1.239 . S
C70 O55 1.263 . S
C70 C64 1.504 . S
C71 O56 1.236 . S
C71 O57 1.257 . S
H72 C45 0.932 . S
H73 C46 0.930 . S
H74 C47 0.932 . S
H75 C48 0.929 . S
H76 C66 0.932 . S
H77 C67 0.930 . S
H78 C68 0.932 . S
H79 C69 0.929 . S
Tb80 C89 2.764 . S
Tb80 O90 2.325 . S
Tb80 O93 2.303 . S
Tb80 O97 2.322 . S
Tb80 O98 2.349 . S
Tb80 O101 2.415 . S
Tb80 O102 2.399 . S
Tb81 O91 2.322 . S
Tb81 O92 2.349 . S
Tb81 O94 2.415 . S
Tb81 O95 2.399 . S
Tb81 O96 2.325 . S
Tb81 O99 2.303 . S
Tb81 C110 2.764 . S
C82 O98 1.261 . S
C82 O99 1.257 . S
C83 C86 1.358 . S
C83 C87 1.332 . S
C83 C89 1.504 . S
C84 C85 1.373 . S
C84 C88 1.308 . S
C85 C84 1.373 . S
C85 C86 1.429 . S
C85 H112 0.932 . S
C86 C83 1.358 . S
C86 C85 1.429 . S
C86 H113 0.930 . S
C87 C83 1.332 . S
C87 C88 1.394 . S
C87 H114 0.932 . S
C88 C84 1.308 . S
C88 C87 1.394 . S
C88 H115 0.929 . S
C89 Tb80 2.764 . S
C89 C83 1.504 . S
C89 O101 1.239 . S
C89 O102 1.263 . S
O90 Tb80 2.325 . S
O90 C100 1.236 . S
O91 Tb81 2.322 . S
O91 C100 1.257 . S
O92 Tb81 2.349 . S
O92 C103 1.261 . S
O93 Tb80 2.303 . S
O93 C103 1.257 . S
O94 Tb81 2.415 . S
O94 C110 1.239 . S
O95 Tb81 2.399 . S
O95 C110 1.263 . S
O96 Tb81 2.325 . S
O96 C111 1.236 . S
O97 Tb80 2.322 . S
O97 C111 1.257 . S
O98 Tb80 2.349 . S
O98 C82 1.261 . S
O99 Tb81 2.303 . S
O99 C82 1.257 . S
C100 O90 1.236 . S
C100 O91 1.257 . S
O101 Tb80 2.415 . S
O101 C89 1.239 . S
O102 Tb80 2.399 . S
O102 C89 1.263 . S
C103 O92 1.261 . S
C103 O93 1.257 . S
C104 C107 1.358 . S
C104 C108 1.332 . S
C104 C110 1.504 . S
C105 C106 1.373 . S
C105 C109 1.308 . S
C106 C105 1.373 . S
C106 C107 1.429 . S
C106 H116 0.932 . S
C107 C104 1.358 . S
C107 C106 1.429 . S
C107 H117 0.930 . S
C108 C104 1.332 . S
C108 C109 1.394 . S
C108 H118 0.932 . S
C109 C105 1.308 . S
C109 C108 1.394 . S
C109 H119 0.929 . S
C110 Tb81 2.764 . S
C110 O94 1.239 . S
C110 O95 1.263 . S
C110 C104 1.504 . S
C111 O96 1.236 . S
C111 O97 1.257 . S
H112 C85 0.932 . S
H113 C86 0.930 . S
H114 C87 0.932 . S
H115 C88 0.929 . S
H116 C106 0.932 . S
H117 C107 0.930 . S
H118 C108 0.932 . S
H119 C109 0.929 . S
C120 C121 1.264 . S
C120 C125 1.479 . S
C120 C130 1.465 . S
C121 C120 1.264 . S
C121 C123 1.339 . S
C121 H148 0.931 . S
C122 C123 1.395 . S
C122 C124 1.320 . S
C123 C121 1.339 . S
C123 C122 1.395 . S
C123 H149 0.929 . S
C124 C122 1.320 . S
C124 C125 1.405 . S
C124 H150 0.930 . S
C125 C120 1.479 . S
C125 C124 1.405 . S
C125 H151 0.931 . S
U126 O127 2.454 1_545 S
U126 O128 2.458 1_545 S
U126 C129 2.984 1_545 S
U126 C130 2.847 . S
U126 C143 2.882 . S
U126 O144 2.441 . S
U126 O145 2.420 . S
U126 O146 2.455 . S
U126 O147 2.449 . S
O127 U126 2.454 1_565 S
O127 C129 1.353 . S
O128 U126 2.458 1_565 S
O128 C129 1.286 . S
C129 U126 2.984 1_565 S
C129 O127 1.353 . S
C129 O128 1.286 . S
C129 C131 1.363 . S
C130 C120 1.465 . S
C130 U126 2.847 . S
C130 O144 1.249 . S
C130 O145 1.202 . S
C131 C129 1.363 . S
C131 C133 1.408 . S
C131 C136 1.342 . S
C132 C133 1.310 . S
C132 C135 1.461 . S
C132 H152 0.932 . S
C133 C131 1.408 . S
C133 C132 1.310 . S
C133 H153 0.930 . S
C134 C135 1.474 . S
C134 C136 1.285 . S
C134 H154 0.929 . S
C135 C132 1.461 . S
C135 C134 1.474 . S
C136 C131 1.342 . S
C136 C134 1.285 . S
C136 H155 0.930 . S
C137 C140 1.424 . S
C137 C142 1.245 . S
C137 C143 1.428 . S
C138 C141 1.260 . S
C138 C142 1.477 . S
C138 H156 0.932 . S
C139 C140 1.384 . S
C139 C141 1.479 . S
C139 H157 0.929 . S
C140 C137 1.424 . S
C140 C139 1.384 . S
C140 H158 0.928 . S
C141 C138 1.260 . S
C141 C139 1.479 . S
C142 C137 1.245 . S
C142 C138 1.477 . S
C142 H159 0.932 1_545 S
C143 U126 2.882 . S
C143 C137 1.428 . S
C143 O146 1.301 . S
C143 O147 1.282 . S
O144 U126 2.441 . S
O144 C130 1.249 . S
O145 U126 2.420 . S
O145 C130 1.202 . S
O146 U126 2.455 . S
O146 C143 1.301 . S
O147 U126 2.449 . S
O147 C143 1.282 . S
H148 C121 0.931 . S
H149 C123 0.929 . S
H150 C124 0.930 . S
H151 C125 0.931 . S
H152 C132 0.932 . S
H153 C133 0.930 . S
H154 C134 0.929 . S
H155 C136 0.930 . S
H156 C138 0.932 . S
H157 C139 0.929 . S
H158 C140 0.928 . S
H159 C142 0.932 1_565 S
C160 C161 1.264 . S
C160 C165 1.479 . S
C160 C170 1.465 . S
C161 C160 1.264 . S
C161 C163 1.339 . S
C161 H188 0.931 . S
C162 C163 1.395 . S
C162 C164 1.320 . S
C163 C161 1.339 . S
C163 C162 1.395 . S
C163 H189 0.929 . S
C164 C162 1.320 . S
C164 C165 1.405 . S
C164 H190 0.930 . S
C165 C160 1.479 . S
C165 C164 1.405 . S
C165 H191 0.931 . S
U166 O167 2.454 . S
U166 O168 2.458 . S
U166 C169 2.984 . S
U166 C170 2.847 . S
U166 C183 2.882 . S
U166 O184 2.441 . S
U166 O185 2.420 . S
U166 O186 2.455 . S
U166 O187 2.449 . S
O167 U166 2.454 . S
O167 C169 1.353 . S
O168 U166 2.458 . S
O168 C169 1.286 . S
C169 U166 2.984 . S
C169 O167 1.353 . S
C169 O168 1.286 . S
C169 C171 1.363 . S
C170 C160 1.465 . S
C170 U166 2.847 . S
C170 O184 1.249 . S
C170 O185 1.202 . S
C171 C169 1.363 . S
C171 C173 1.408 . S
C171 C176 1.342 . S
C172 C173 1.310 . S
C172 C175 1.461 . S
C172 H192 0.932 . S
C173 C171 1.408 . S
C173 C172 1.310 . S
C173 H193 0.930 . S
C174 C175 1.474 . S
C174 C176 1.285 . S
C174 H194 0.929 . S
C175 C172 1.461 . S
C175 C174 1.474 . S
C176 C171 1.342 . S
C176 C174 1.285 . S
C176 H195 0.930 . S
C177 C180 1.424 . S
C177 C182 1.245 . S
C177 C183 1.428 . S
C178 C181 1.260 . S
C178 C182 1.477 . S
C178 H196 0.932 . S
C179 C180 1.384 . S
C179 C181 1.479 . S
C179 H197 0.929 . S
C180 C177 1.424 . S
C180 C179 1.384 . S
C180 H198 0.928 . S
C181 C178 1.260 . S
C181 C179 1.479 . S
C182 C177 1.245 . S
C182 C178 1.477 . S
C182 H199 0.932 . S
C183 U166 2.882 . S
C183 C177 1.428 . S
C183 O186 1.301 . S
C183 O187 1.282 . S
O184 U166 2.441 . S
O184 C170 1.249 . S
O185 U166 2.420 . S
O185 C170 1.202 . S
O186 U166 2.455 . S
O186 C183 1.301 . S
O187 U166 2.449 . S
O187 C183 1.282 . S
H188 C161 0.931 . S
H189 C163 0.929 . S
H190 C164 0.930 . S
H191 C165 0.931 . S
H192 C172 0.932 . S
H193 C173 0.930 . S
H194 C174 0.929 . S
H195 C176 0.930 . S
H196 C178 0.932 . S
H197 C179 0.929 . S
H198 C180 0.928 . S
H199 C182 0.932 . S
C200 C201 1.264 . S
C200 C205 1.479 . S
C200 C210 1.465 . S
C201 C200 1.264 . S
C201 C203 1.339 . S
C201 H228 0.931 . S
C202 C203 1.395 . S
C202 C204 1.320 . S
C203 C201 1.339 . S
C203 C202 1.395 . S
C203 H229 0.929 . S
C204 C202 1.320 . S
C204 C205 1.405 . S
C204 H230 0.930 . S
C205 C200 1.479 . S
C205 C204 1.405 . S
C205 H231 0.931 . S
U206 O207 2.454 . S
U206 O208 2.458 . S
U206 C209 2.984 . S
U206 C210 2.847 1_455 S
U206 C223 2.882 . S
U206 O224 2.441 . S
U206 O225 2.420 1_455 S
U206 O226 2.455 . S
U206 O227 2.449 . S
O207 U206 2.454 . S
O207 C209 1.353 . S
O208 U206 2.458 . S
O208 C209 1.286 . S
C209 U206 2.984 . S
C209 O207 1.353 . S
C209 O208 1.286 . S
C209 C211 1.363 . S
C210 C200 1.465 . S
C210 U206 2.847 1_655 S
C210 O224 1.249 1_655 S
C210 O225 1.202 . S
C211 C209 1.363 . S
C211 C213 1.408 . S
C211 C216 1.342 . S
C212 C213 1.310 . S
C212 C215 1.461 . S
C212 H232 0.932 . S
C213 C211 1.408 . S
C213 C212 1.310 . S
C213 H233 0.930 . S
C214 C215 1.474 . S
C214 C216 1.285 . S
C214 H234 0.929 . S
C215 C212 1.461 . S
C215 C214 1.474 . S
C216 C211 1.342 . S
C216 C214 1.285 . S
C216 H235 0.930 . S
C217 C220 1.424 . S
C217 C222 1.245 . S
C217 C223 1.428 . S
C218 C221 1.260 . S
C218 C222 1.477 . S
C218 H236 0.932 . S
C219 C220 1.384 . S
C219 C221 1.479 . S
C219 H237 0.929 . S
C220 C217 1.424 . S
C220 C219 1.384 . S
C220 H238 0.928 . S
C221 C218 1.260 . S
C221 C219 1.479 . S
C222 C217 1.245 . S
C222 C218 1.477 . S
C222 H239 0.932 . S
C223 U206 2.882 . S
C223 C217 1.428 . S
C223 O226 1.301 . S
C223 O227 1.282 . S
O224 U206 2.441 . S
O224 C210 1.249 1_455 S
O225 U206 2.420 1_655 S
O225 C210 1.202 . S
O226 U206 2.455 . S
O226 C223 1.301 . S
O227 U206 2.449 . S
O227 C223 1.282 . S
H228 C201 0.931 . S
H229 C203 0.929 . S
H230 C204 0.930 . S
H231 C205 0.931 . S
H232 C212 0.932 . S
H233 C213 0.930 . S
H234 C214 0.929 . S
H235 C216 0.930 . S
H236 C218 0.932 . S
H237 C219 0.929 . S
H238 C220 0.928 . S
H239 C222 0.932 . S
C240 C241 1.264 . S
C240 C245 1.479 . S
C240 C250 1.465 . S
C241 C240 1.264 . S
C241 C243 1.339 . S
C241 H268 0.931 . S
C242 C243 1.395 . S
C242 C244 1.320 . S
C243 C241 1.339 . S
C243 C242 1.395 . S
C243 H269 0.929 . S
C244 C242 1.320 . S
C244 C245 1.405 . S
C244 H270 0.930 . S
C245 C240 1.479 . S
C245 C244 1.405 . S
C245 H271 0.931 . S
U246 O247 2.454 1_655 S
U246 O248 2.458 1_655 S
U246 C249 2.984 1_655 S
U246 C250 2.847 . S
U246 C263 2.882 . S
U246 O264 2.441 . S
U246 O265 2.420 . S
U246 O266 2.455 1_655 S
U246 O267 2.449 . S
O247 U246 2.454 1_455 S
O247 C249 1.353 . S
O248 U246 2.458 1_455 S
O248 C249 1.286 . S
C249 U246 2.984 1_455 S
C249 O247 1.353 . S
C249 O248 1.286 . S
C249 C251 1.363 . S
C250 C240 1.465 . S
C250 U246 2.847 . S
C250 O264 1.249 . S
C250 O265 1.202 . S
C251 C249 1.363 . S
C251 C253 1.408 . S
C251 C256 1.342 . S
C252 C253 1.310 . S
C252 C255 1.461 . S
C252 H272 0.932 . S
C253 C251 1.408 . S
C253 C252 1.310 . S
C253 H273 0.930 . S
C254 C255 1.474 . S
C254 C256 1.285 . S
C254 H274 0.929 . S
C255 C252 1.461 . S
C255 C254 1.474 . S
C256 C251 1.342 . S
C256 C254 1.285 . S
C256 H275 0.930 . S
C257 C260 1.424 . S
C257 C262 1.245 1_655 S
C257 C263 1.428 . S
C258 C261 1.260 1_455 S
C258 C262 1.477 . S
C258 H276 0.932 . S
C259 C260 1.384 . S
C259 C261 1.479 . S
C259 H277 0.929 . S
C260 C257 1.424 . S
C260 C259 1.384 . S
C260 H278 0.928 . S
C261 C258 1.260 1_655 S
C261 C259 1.479 . S
C262 C257 1.245 1_455 S
C262 C258 1.477 . S
C262 H279 0.932 . S
C263 U246 2.882 . S
C263 C257 1.428 . S
C263 O266 1.301 1_655 S
C263 O267 1.282 . S
O264 U246 2.441 . S
O264 C250 1.249 . S
O265 U246 2.420 . S
O265 C250 1.202 . S
O266 U246 2.455 1_455 S
O266 C263 1.301 1_455 S
O267 U246 2.449 . S
O267 C263 1.282 . S
H268 C241 0.931 . S
H269 C243 0.929 . S
H270 C244 0.930 . S
H271 C245 0.931 . S
H272 C252 0.932 . S
H273 C253 0.930 . S
H274 C254 0.929 . S
H275 C256 0.930 . S
H276 C258 0.932 . S
H277 C259 0.929 . S
H278 C260 0.928 . S
H279 C262 0.932 . S
C280 C281 1.264 . S
C280 C285 1.479 . S
C280 C290 1.465 . S
C281 C280 1.264 . S
C281 C283 1.339 . S
C281 H308 0.931 . S
C282 C283 1.395 . S
C282 C284 1.320 . S
C283 C281 1.339 . S
C283 C282 1.395 . S
C283 H309 0.929 . S
C284 C282 1.320 . S
C284 C285 1.405 . S
C284 H310 0.930 . S
C285 C280 1.479 . S
C285 C284 1.405 . S
C285 H311 0.931 . S
U286 O287 2.454 1_565 S
U286 O288 2.458 1_565 S
U286 C289 2.984 1_565 S
U286 C290 2.847 . S
U286 C303 2.882 . S
U286 O304 2.441 . S
U286 O305 2.420 . S
U286 O306 2.455 1_565 S
U286 O307 2.449 . S
O287 U286 2.454 1_545 S
O287 C289 1.353 . S
O288 U286 2.458 1_545 S
O288 C289 1.286 . S
C289 U286 2.984 1_545 S
C289 O287 1.353 . S
C289 O288 1.286 . S
C289 C291 1.363 . S
C290 C280 1.465 . S
C290 U286 2.847 . S
C290 O304 1.249 . S
C290 O305 1.202 . S
C291 C289 1.363 . S
C291 C293 1.408 . S
C291 C296 1.342 . S
C292 C293 1.310 . S
C292 C295 1.461 . S
C292 H312 0.932 . S
C293 C291 1.408 . S
C293 C292 1.310 . S
C293 H313 0.930 . S
C294 C295 1.474 . S
C294 C296 1.285 . S
C294 H314 0.929 . S
C295 C292 1.461 . S
C295 C294 1.474 . S
C296 C291 1.342 . S
C296 C294 1.285 . S
C296 H315 0.930 . S
C297 C300 1.424 . S
C297 C302 1.245 1_565 S
C297 C303 1.428 . S
C298 C301 1.260 1_545 S
C298 C302 1.477 . S
C298 H316 0.932 . S
C299 C300 1.384 . S
C299 C301 1.479 . S
C299 H317 0.929 . S
C300 C297 1.424 . S
C300 C299 1.384 . S
C300 H318 0.928 . S
C301 C298 1.260 1_565 S
C301 C299 1.479 . S
C302 C297 1.245 1_545 S
C302 C298 1.477 . S
C302 H319 0.932 . S
C303 U286 2.882 . S
C303 C297 1.428 . S
C303 O306 1.301 1_565 S
C303 O307 1.282 . S
O304 U286 2.441 . S
O304 C290 1.249 . S
O305 U286 2.420 . S
O305 C290 1.202 . S
O306 U286 2.455 1_545 S
O306 C303 1.301 1_545 S
O307 U286 2.449 . S
O307 C303 1.282 . S
H308 C281 0.931 . S
H309 C283 0.929 . S
H310 C284 0.930 . S
H311 C285 0.931 . S
H312 C292 0.932 . S
H313 C293 0.930 . S
H314 C294 0.929 . S
H315 C296 0.930 . S
H316 C298 0.932 . S
H317 C299 0.929 . S
H318 C300 0.928 . S
H319 C302 0.932 . S
C320 C321 1.264 . S
C320 C325 1.479 . S
C320 C330 1.465 . S
C321 C320 1.264 . S
C321 C323 1.339 . S
C321 H348 0.931 . S
C322 C323 1.395 . S
C322 C324 1.320 . S
C323 C321 1.339 . S
C323 C322 1.395 . S
C323 H349 0.929 . S
C324 C322 1.320 . S
C324 C325 1.405 . S
C324 H350 0.930 . S
C325 C320 1.479 . S
C325 C324 1.405 . S
C325 H351 0.931 . S
U326 O327 2.454 . S
U326 O328 2.458 . S
U326 C329 2.984 . S
U326 C330 2.847 . S
U326 C343 2.882 . S
U326 O344 2.441 . S
U326 O345 2.420 . S
U326 O346 2.455 . S
U326 O347 2.449 . S
O327 U326 2.454 . S
O327 C329 1.353 . S
O328 U326 2.458 . S
O328 C329 1.286 . S
C329 U326 2.984 . S
C329 O327 1.353 . S
C329 O328 1.286 . S
C329 C331 1.363 . S
C330 C320 1.465 . S
C330 U326 2.847 . S
C330 O344 1.249 . S
C330 O345 1.202 . S
C331 C329 1.363 . S
C331 C333 1.408 . S
C331 C336 1.342 . S
C332 C333 1.310 . S
C332 C335 1.461 . S
C332 H352 0.932 . S
C333 C331 1.408 . S
C333 C332 1.310 . S
C333 H353 0.930 . S
C334 C335 1.474 . S
C334 C336 1.285 . S
C334 H354 0.929 . S
C335 C332 1.461 . S
C335 C334 1.474 . S
C336 C331 1.342 . S
C336 C334 1.285 . S
C336 H355 0.930 . S
C337 C340 1.424 . S
C337 C342 1.245 . S
C337 C343 1.428 . S
C338 C341 1.260 1_554 S
C338 C342 1.477 . S
C338 H356 0.932 1_554 S
C339 C340 1.384 . S
C339 C341 1.479 1_554 S
C339 H357 0.929 . S
C340 C337 1.424 . S
C340 C339 1.384 . S
C340 H358 0.928 . S
C341 C338 1.260 1_556 S
C341 C339 1.479 1_556 S
C342 C337 1.245 . S
C342 C338 1.477 . S
C342 H359 0.932 . S
C343 U326 2.882 . S
C343 C337 1.428 . S
C343 O346 1.301 . S
C343 O347 1.282 . S
O344 U326 2.441 . S
O344 C330 1.249 . S
O345 U326 2.420 . S
O345 C330 1.202 . S
O346 U326 2.455 . S
O346 C343 1.301 . S
O347 U326 2.449 . S
O347 C343 1.282 . S
H348 C321 0.931 . S
H349 C323 0.929 . S
H350 C324 0.930 . S
H351 C325 0.931 . S
H352 C332 0.932 . S
H353 C333 0.930 . S
H354 C334 0.929 . S
H355 C336 0.930 . S
H356 C338 0.932 1_556 S
H357 C339 0.929 . S
H358 C340 0.928 . S
H359 C342 0.932 . S
H360 C368 0.950 . S
H361 C373 0.950 . S
H362 C370 0.950 . S
H363 C372 0.950 . S
H364 C374 0.950 . S
H365 C376 0.950 . S
H366 C378 0.950 . S
H367 C379 0.950 . S
C368 H360 0.950 . S
C368 C369 1.386 . S
C368 C370 1.391 . S
C369 C368 1.386 . S
C369 C373 1.393 . S
C370 H362 0.950 . S
C370 C368 1.391 . S
C370 C371 1.400 . S
C371 C370 1.400 . S
C371 C372 1.398 . S
C371 C377 1.491 . S
C372 H363 0.950 . S
C372 C371 1.398 . S
C372 C373 1.391 . S
C373 H361 0.950 . S
C373 C369 1.393 . S
C373 C372 1.391 . S
C374 H364 0.950 . S
C374 C375 1.386 . S
C374 C376 1.391 . S
C375 C374 1.386 . S
C375 C379 1.393 . S
C376 H365 0.950 . S
C376 C374 1.391 . S
C376 C377 1.400 . S
C377 C371 1.491 . S
C377 C376 1.400 . S
C377 C378 1.398 . S
C378 H366 0.950 . S
C378 C377 1.398 . S
C378 C379 1.391 . S
C379 H367 0.950 . S
C379 C375 1.393 . S
C379 C378 1.391 . S
H380 C388 0.950 . S
H381 C393 0.950 . S
H382 C390 0.950 . S
H383 C392 0.950 . S
H384 C394 0.950 . S
H385 C396 0.950 . S
H386 C398 0.950 . S
H387 C399 0.950 . S
C388 H380 0.950 . S
C388 C389 1.386 . S
C388 C390 1.391 . S
C389 C388 1.386 . S
C389 C393 1.393 . S
C390 H382 0.950 . S
C390 C388 1.391 . S
C390 C391 1.400 . S
C391 C390 1.400 . S
C391 C392 1.398 . S
C391 C397 1.491 . S
C392 H383 0.950 . S
C392 C391 1.398 . S
C392 C393 1.391 . S
C393 H381 0.950 . S
C393 C389 1.393 . S
C393 C392 1.391 . S
C394 H384 0.950 . S
C394 C395 1.386 . S
C394 C396 1.391 . S
C395 C394 1.386 . S
C395 C399 1.393 . S
C396 H385 0.950 . S
C396 C394 1.391 . S
C396 C397 1.400 . S
C397 C391 1.491 . S
C397 C396 1.400 . S
C397 C398 1.398 . S
C398 H386 0.950 . S
C398 C397 1.398 . S
C398 C399 1.391 . S
C399 H387 0.950 . S
C399 C395 1.393 . S
C399 C398 1.391 . S
H400 C408 0.950 . S
H401 C413 0.950 . S
H402 C410 0.950 . S
H403 C412 0.950 . S
H404 C414 0.950 . S
H405 C416 0.950 . S
H406 C418 0.950 . S
H407 C419 0.950 . S
C408 H400 0.950 . S
C408 C409 1.386 . S
C408 C410 1.391 . S
C409 C408 1.386 . S
C409 C413 1.393 . S
C410 H402 0.950 . S
C410 C408 1.391 . S
C410 C411 1.400 . S
C411 C410 1.400 . S
C411 C412 1.398 . S
C411 C417 1.491 . S
C412 H403 0.950 . S
C412 C411 1.398 . S
C412 C413 1.391 . S
C413 H401 0.950 . S
C413 C409 1.393 . S
C413 C412 1.391 . S
C414 H404 0.950 . S
C414 C415 1.386 . S
C414 C416 1.391 . S
C415 C414 1.386 . S
C415 C419 1.393 . S
C416 H405 0.950 . S
C416 C414 1.391 . S
C416 C417 1.400 . S
C417 C411 1.491 . S
C417 C416 1.400 . S
C417 C418 1.398 . S
C418 H406 0.950 . S
C418 C417 1.398 . S
C418 C419 1.391 . S
C419 H407 0.950 . S
C419 C415 1.393 . S
C419 C418 1.391 . S
H420 C428 0.950 . S
H421 C433 0.950 . S
H422 C430 0.950 . S
H423 C432 0.950 . S
H424 C434 0.950 . S
H425 C436 0.950 . S
H426 C438 0.950 . S
H427 C439 0.950 . S
C428 H420 0.950 . S
C428 C429 1.386 . S
C428 C430 1.391 . S
C429 C428 1.386 . S
C429 C433 1.393 . S
C430 H422 0.950 . S
C430 C428 1.391 . S
C430 C431 1.400 . S
C431 C430 1.400 . S
C431 C432 1.398 . S
C431 C437 1.491 . S
C432 H423 0.950 . S
C432 C431 1.398 . S
C432 C433 1.391 . S
C433 H421 0.950 . S
C433 C429 1.393 . S
C433 C432 1.391 . S
C434 H424 0.950 . S
C434 C435 1.386 . S
C434 C436 1.391 . S
C435 C434 1.386 . S
C435 C439 1.393 . S
C436 H425 0.950 . S
C436 C434 1.391 . S
C436 C437 1.400 . S
C437 C431 1.491 . S
C437 C436 1.400 . S
C437 C438 1.398 . S
C438 H426 0.950 . S
C438 C437 1.398 . S
C438 C439 1.391 . S
C439 H427 0.950 . S
C439 C435 1.393 . S
C439 C438 1.391 . S
H440 C448 0.950 . S
H441 C453 0.950 . S
H442 C450 0.950 . S
H443 C452 0.950 . S
H444 C454 0.950 . S
H445 C456 0.950 . S
H446 C458 0.950 . S
H447 C459 0.950 . S
C448 H440 0.950 . S
C448 C449 1.386 . S
C448 C450 1.391 . S
C449 C448 1.386 . S
C449 C453 1.393 . S
C450 H442 0.950 . S
C450 C448 1.391 . S
C450 C451 1.400 . S
C451 C450 1.400 . S
C451 C452 1.398 . S
C451 C457 1.491 . S
C452 H443 0.950 . S
C452 C451 1.398 . S
C452 C453 1.391 . S
C453 H441 0.950 . S
C453 C449 1.393 . S
C453 C452 1.391 . S
C454 H444 0.950 . S
C454 C455 1.386 . S
C454 C456 1.391 . S
C455 C454 1.386 . S
C455 C459 1.393 . S
C456 H445 0.950 . S
C456 C454 1.391 . S
C456 C457 1.400 . S
C457 C451 1.491 . S
C457 C456 1.400 . S
C457 C458 1.398 . S
C458 H446 0.950 . S
C458 C457 1.398 . S
C458 C459 1.391 . S
C459 H447 0.950 . S
C459 C455 1.393 . S
C459 C458 1.391 . S
H460 C468 0.950 . S
H461 C473 0.950 . S
H462 C470 0.950 . S
H463 C472 0.950 . S
H464 C474 0.950 . S
H465 C476 0.950 . S
H466 C478 0.950 . S
H467 C479 0.950 . S
C468 H460 0.950 . S
C468 C469 1.386 . S
C468 C470 1.391 . S
C469 C468 1.386 . S
C469 C473 1.393 . S
C470 H462 0.950 . S
C470 C468 1.391 . S
C470 C471 1.400 . S
C471 C470 1.400 . S
C471 C472 1.398 . S
C471 C477 1.491 . S
C472 H463 0.950 . S
C472 C471 1.398 . S
C472 C473 1.391 . S
C473 H461 0.950 . S
C473 C469 1.393 . S
C473 C472 1.391 . S
C474 H464 0.950 . S
C474 C475 1.386 . S
C474 C476 1.391 . S
C475 C474 1.386 . S
C475 C479 1.393 . S
C476 H465 0.950 . S
C476 C474 1.391 . S
C476 C477 1.400 . S
C477 C471 1.491 . S
C477 C476 1.400 . S
C477 C478 1.398 . S
C478 H466 0.950 . S
C478 C477 1.398 . S
C478 C479 1.391 . S
C479 H467 0.950 . S
C479 C475 1.393 . S
C479 C478 1.391 . S
H480 C488 0.950 . S
H481 C493 0.950 . S
H482 C490 0.950 . S
H483 C492 0.950 . S
H484 C494 0.950 . S
H485 C496 0.950 . S
H486 C498 0.950 . S
H487 C499 0.950 . S
C488 H480 0.950 . S
C488 C489 1.386 . S
C488 C490 1.391 . S
C489 C488 1.386 . S
C489 C493 1.393 . S
C490 H482 0.950 . S
C490 C488 1.391 . S
C490 C491 1.400 . S
C491 C490 1.400 . S
C491 C492 1.398 . S
C491 C497 1.491 . S
C492 H483 0.950 . S
C492 C491 1.398 . S
C492 C493 1.391 . S
C493 H481 0.950 . S
C493 C489 1.393 . S
C493 C492 1.391 . S
C494 H484 0.950 . S
C494 C495 1.386 . S
C494 C496 1.391 . S
C495 C494 1.386 . S
C495 C499 1.393 . S
C496 H485 0.950 . S
C496 C494 1.391 . S
C496 C497 1.400 . S
C497 C491 1.491 . S
C497 C496 1.400 . S
C497 C498 1.398 . S
C498 H486 0.950 . S
C498 C497 1.398 . S
C498 C499 1.391 . S
C499 H487 0.950 . S
C499 C495 1.393 . S
C499 C498 1.391 . S
H500 C508 0.950 . S
H501 C513 0.950 . S
H502 C510 0.950 . S
H503 C512 0.950 . S
H504 C514 0.950 . S
H505 C516 0.950 . S
H506 C518 0.950 . S
H507 C519 0.950 . S
C508 H500 0.950 . S
C508 C509 1.386 . S
C508 C510 1.391 . S
C509 C508 1.386 . S
C509 C513 1.393 . S
C510 H502 0.950 . S
C510 C508 1.391 . S
C510 C511 1.400 . S
C511 C510 1.400 . S
C511 C512 1.398 . S
C511 C517 1.491 . S
C512 H503 0.950 . S
C512 C511 1.398 . S
C512 C513 1.391 . S
C513 H501 0.950 . S
C513 C509 1.393 . S
C513 C512 1.391 . S
C514 H504 0.950 . S
C514 C515 1.386 . S
C514 C516 1.391 . S
C515 C514 1.386 . S
C515 C519 1.393 . S
C516 H505 0.950 . S
C516 C514 1.391 . S
C516 C517 1.400 . S
C517 C511 1.491 . S
C517 C516 1.400 . S
C517 C518 1.398 . S
C518 H506 0.950 . S
C518 C517 1.398 . S
C518 C519 1.391 . S
C519 H507 0.950 . S
C519 C515 1.393 . S
C519 C518 1.391 . S
H520 C528 0.950 . S
H521 C533 0.950 . S
H522 C530 0.950 . S
H523 C532 0.950 . S
H524 C534 0.950 . S
H525 C536 0.950 . S
H526 C538 0.950 . S
H527 C539 0.950 . S
C528 H520 0.950 . S
C528 C529 1.386 . S
C528 C530 1.391 . S
C529 C528 1.386 . S
C529 C533 1.393 . S
C530 H522 0.950 . S
C530 C528 1.391 . S
C530 C531 1.400 . S
C531 C530 1.400 . S
C531 C532 1.398 . S
C531 C537 1.491 . S
C532 H523 0.950 . S
C532 C531 1.398 . S
C532 C533 1.391 . S
C533 H521 0.950 . S
C533 C529 1.393 . S
C533 C532 1.391 . S
C534 H524 0.950 . S
C534 C535 1.386 . S
C534 C536 1.391 . S
C535 C534 1.386 . S
C535 C539 1.393 . S
C536 H525 0.950 . S
C536 C534 1.391 . S
C536 C537 1.400 . S
C537 C531 1.491 . S
C537 C536 1.400 . S
C537 C538 1.398 . S
C538 H526 0.950 . S
C538 C537 1.398 . S
C538 C539 1.391 . S
C539 H527 0.950 . S
C539 C535 1.393 . S
C539 C538 1.391 . S
H540 C548 0.950 . S
H541 C553 0.950 . S
H542 C550 0.950 . S
H543 C552 0.950 . S
H544 C554 0.950 . S
H545 C556 0.950 . S
H546 C558 0.950 . S
H547 C559 0.950 . S
C548 H540 0.950 . S
C548 C549 1.386 . S
C548 C550 1.391 . S
C549 C548 1.386 . S
C549 C553 1.393 . S
C550 H542 0.950 . S
C550 C548 1.391 . S
C550 C551 1.400 . S
C551 C550 1.400 . S
C551 C552 1.398 . S
C551 C557 1.491 . S
C552 H543 0.950 . S
C552 C551 1.398 . S
C552 C553 1.391 . S
C553 H541 0.950 . S
C553 C549 1.393 . S
C553 C552 1.391 . S
C554 H544 0.950 . S
C554 C555 1.386 . S
C554 C556 1.391 . S
C555 C554 1.386 . S
C555 C559 1.393 . S
C556 H545 0.950 . S
C556 C554 1.391 . S
C556 C557 1.400 . S
C557 C551 1.491 . S
C557 C556 1.400 . S
C557 C558 1.398 . S
C558 H546 0.950 . S
C558 C557 1.398 . S
C558 C559 1.391 . S
C559 H547 0.950 . S
C559 C555 1.393 . S
C559 C558 1.391 . S
H560 C568 0.950 . S
H561 C573 0.950 . S
H562 C570 0.950 . S
H563 C572 0.950 . S
H564 C574 0.950 . S
H565 C576 0.950 . S
H566 C578 0.950 . S
H567 C579 0.950 . S
C568 H560 0.950 . S
C568 C569 1.386 . S
C568 C570 1.391 . S
C569 C568 1.386 . S
C569 C573 1.393 . S
C570 H562 0.950 . S
C570 C568 1.391 . S
C570 C571 1.400 . S
C571 C570 1.400 . S
C571 C572 1.398 . S
C571 C577 1.491 . S
C572 H563 0.950 . S
C572 C571 1.398 . S
C572 C573 1.391 . S
C573 H561 0.950 . S
C573 C569 1.393 . S
C573 C572 1.391 . S
C574 H564 0.950 . S
C574 C575 1.386 . S
C574 C576 1.391 . S
C575 C574 1.386 . S
C575 C579 1.393 . S
C576 H565 0.950 . S
C576 C574 1.391 . S
C576 C577 1.400 . S
C577 C571 1.491 . S
C577 C576 1.400 . S
C577 C578 1.398 . S
C578 H566 0.950 . S
C578 C577 1.398 . S
C578 C579 1.391 . S
C579 H567 0.950 . S
C579 C575 1.393 . S
C579 C578 1.391 . S
H580 C588 0.950 . S
H581 C593 0.950 . S
H582 C590 0.950 . S
H583 C592 0.950 . S
H584 C594 0.950 . S
H585 C596 0.950 . S
H586 C598 0.950 . S
H587 C599 0.950 . S
C588 H580 0.950 . S
C588 C589 1.386 . S
C588 C590 1.391 . S
C589 C588 1.386 . S
C589 C593 1.393 . S
C590 H582 0.950 . S
C590 C588 1.391 . S
C590 C591 1.400 . S
C591 C590 1.400 . S
C591 C592 1.398 . S
C591 C597 1.491 . S
C592 H583 0.950 . S
C592 C591 1.398 . S
C592 C593 1.391 . S
C593 H581 0.950 . S
C593 C589 1.393 . S
C593 C592 1.391 . S
C594 H584 0.950 . S
C594 C595 1.386 . S
C594 C596 1.391 . S
C595 C594 1.386 . S
C595 C599 1.393 . S
C596 H585 0.950 . S
C596 C594 1.391 . S
C596 C597 1.400 . S
C597 C591 1.491 . S
C597 C596 1.400 . S
C597 C598 1.398 . S
C598 H586 0.950 . S
C598 C597 1.398 . S
C598 C599 1.391 . S
C599 H587 0.950 . S
C599 C595 1.393 . S
C599 C598 1.391 . S
H600 C608 0.950 . S
H601 C613 0.950 1_655 S
H602 C610 0.950 . S
H603 C612 0.950 1_655 S
H604 C614 0.940 1_655 S
H605 C616 0.950 1_655 S
H606 C618 0.950 . S
H607 C619 0.950 . S
C608 H600 0.950 . S
C608 C609 1.386 . S
C608 C610 1.391 . S
C609 C608 1.386 . S
C609 C613 1.393 . S
C610 H602 0.950 . S
C610 C608 1.391 . S
C610 C611 1.400 . S
C611 C610 1.400 . S
C611 C612 1.398 . S
C611 C617 1.491 . S
C612 H603 0.950 1_455 S
C612 C611 1.398 . S
C612 C613 1.391 . S
C613 H601 0.950 1_455 S
C613 C609 1.393 . S
C613 C612 1.391 . S
C614 H604 0.940 1_455 S
C614 C615 1.386 . S
C614 C616 1.391 . S
C615 C614 1.386 . S
C615 C619 1.393 . S
C616 H605 0.950 1_455 S
C616 C614 1.391 . S
C616 C617 1.400 . S
C617 C611 1.491 . S
C617 C616 1.400 . S
C617 C618 1.398 . S
C618 H606 0.950 . S
C618 C617 1.398 . S
C618 C619 1.391 . S
C619 H607 0.950 . S
C619 C615 1.393 . S
C619 C618 1.391 . S
H620 C628 0.950 . S
H621 C633 0.950 1_565 S
H622 C630 0.950 . S
H623 C632 0.950 1_565 S
H624 C634 0.950 1_565 S
H625 C636 0.950 1_565 S
H626 C638 0.950 . S
H627 C639 0.950 . S
C628 H620 0.950 . S
C628 C629 1.386 . S
C628 C630 1.391 . S
C629 C628 1.386 . S
C629 C633 1.393 . S
C630 H622 0.950 . S
C630 C628 1.391 . S
C630 C631 1.400 . S
C631 C630 1.400 . S
C631 C632 1.398 . S
C631 C637 1.491 . S
C632 H623 0.950 1_545 S
C632 C631 1.398 . S
C632 C633 1.391 . S
C633 H621 0.950 1_545 S
C633 C629 1.393 . S
C633 C632 1.391 . S
C634 H624 0.950 1_545 S
C634 C635 1.386 . S
C634 C636 1.391 . S
C635 C634 1.386 . S
C635 C639 1.393 . S
C636 H625 0.950 1_545 S
C636 C634 1.391 . S
C636 C637 1.400 . S
C637 C631 1.491 . S
C637 C636 1.400 . S
C637 C638 1.398 . S
C638 H626 0.950 . S
C638 C637 1.398 . S
C638 C639 1.391 . S
C639 H627 0.950 . S
C639 C635 1.393 . S
C639 C638 1.391 . S
H640 C648 0.950 . S
H641 C653 0.950 . S
H642 C650 0.950 . S
H643 C652 0.950 . S
H644 C654 0.950 . S
H645 C656 0.950 . S
H646 C658 0.950 . S
H647 C659 0.950 . S
C648 H640 0.950 . S
C648 C649 1.386 . S
C648 C650 1.391 . S
C649 C648 1.386 . S
C649 C653 1.393 . S
C650 H642 0.950 . S
C650 C648 1.391 . S
C650 C651 1.400 . S
C651 C650 1.400 . S
C651 C652 1.398 . S
C651 C657 1.491 . S
C652 H643 0.950 . S
C652 C651 1.398 . S
C652 C653 1.391 . S
C653 H641 0.950 . S
C653 C649 1.393 . S
C653 C652 1.391 . S
C654 H644 0.950 . S
C654 C655 1.386 . S
C654 C656 1.391 . S
C655 C654 1.386 . S
C655 C659 1.393 . S
C656 H645 0.950 . S
C656 C654 1.391 . S
C656 C657 1.400 . S
C657 C651 1.491 . S
C657 C656 1.400 . S
C657 C658 1.398 . S
C658 H646 0.950 . S
C658 C657 1.398 . S
C658 C659 1.391 . S
C659 H647 0.950 . S
C659 C655 1.393 . S
C659 C658 1.391 . S
H660 C668 0.950 . S
H661 C673 0.950 . S
H662 C670 0.950 . S
H663 C672 0.950 1_565 S
H664 C674 0.950 . S
H665 C676 0.950 . S
H666 C678 0.950 . S
H667 C679 0.950 . S
C668 H660 0.950 . S
C668 C669 1.386 . S
C668 C670 1.391 . S
C669 C668 1.386 . S
C669 C673 1.393 . S
C670 H662 0.950 . S
C670 C668 1.391 . S
C670 C671 1.400 . S
C671 C670 1.400 . S
C671 C672 1.398 . S
C671 C677 1.491 . S
C672 H663 0.950 1_545 S
C672 C671 1.398 . S
C672 C673 1.391 . S
C673 H661 0.950 . S
C673 C669 1.393 . S
C673 C672 1.391 . S
C674 H664 0.950 . S
C674 C675 1.386 . S
C674 C676 1.391 . S
C675 C674 1.386 . S
C675 C679 1.393 1_565 S
C676 H665 0.950 . S
C676 C674 1.391 . S
C676 C677 1.400 1_565 S
C677 C671 1.491 . S
C677 C676 1.400 1_545 S
C677 C678 1.398 . S
C678 H666 0.950 . S
C678 C677 1.398 . S
C678 C679 1.391 . S
C679 H667 0.950 . S
C679 C675 1.393 1_545 S
C679 C678 1.391 . S
H680 C688 0.950 . S
H681 C693 0.950 . S
H682 C690 0.950 . S
H683 C692 0.950 . S
H684 C694 0.950 . S
H685 C696 0.950 . S
H686 C698 0.950 . S
H687 C699 0.950 . S
C688 H680 0.950 . S
C688 C689 1.386 . S
C688 C690 1.391 . S
C689 C688 1.386 . S
C689 C693 1.393 . S
C690 H682 0.950 . S
C690 C688 1.391 . S
C690 C691 1.400 . S
C691 C690 1.400 . S
C691 C692 1.398 . S
C691 C697 1.491 . S
C692 H683 0.950 . S
C692 C691 1.398 . S
C692 C693 1.391 . S
C693 H681 0.950 . S
C693 C689 1.393 . S
C693 C692 1.391 . S
C694 H684 0.950 . S
C694 C695 1.386 . S
C694 C696 1.391 . S
C695 C694 1.386 . S
C695 C699 1.393 . S
C696 H685 0.950 . S
C696 C694 1.391 . S
C696 C697 1.400 . S
C697 C691 1.491 . S
C697 C696 1.400 . S
C697 C698 1.398 . S
C698 H686 0.950 . S
C698 C697 1.398 . S
C698 C699 1.391 . S
C699 H687 0.950 . S
C699 C695 1.393 . S
C699 C698 1.391 . S
H700 C708 0.950 . S
H701 C713 0.950 . S
H702 C710 0.950 . S
H703 C712 0.950 . S
H704 C714 0.950 . S
H705 C716 0.950 . S
H706 C718 0.950 . S
H707 C719 0.950 . S
C708 H700 0.950 . S
C708 C709 1.386 . S
C708 C710 1.391 . S
C709 C708 1.386 . S
C709 C713 1.393 1_455 S
C710 H702 0.950 . S
C710 C708 1.391 . S
C710 C711 1.400 . S
C711 C710 1.400 . S
C711 C712 1.398 1_455 S
C711 C717 1.491 . S
C712 H703 0.950 . S
C712 C711 1.398 1_655 S
C712 C713 1.391 . S
C713 H701 0.950 . S
C713 C709 1.393 1_655 S
C713 C712 1.391 . S
C714 H704 0.950 . S
C714 C715 1.386 . S
C714 C716 1.391 . S
C715 C714 1.386 . S
C715 C719 1.393 1_655 S
C716 H705 0.950 . S
C716 C714 1.391 . S
C716 C717 1.400 1_655 S
C717 C711 1.491 . S
C717 C716 1.400 1_455 S
C717 C718 1.398 . S
C718 H706 0.950 . S
C718 C717 1.398 . S
C718 C719 1.391 . S
C719 H707 0.950 . S
C719 C715 1.393 1_455 S
C719 C718 1.391 . S
C369 C25 0.405 . S
C375 C335 0.433 . S
C389 C65 0.326 . S
C395 C242 0.114 . S
C409 C105 0.359 . S
C415 C282 0.210 . S
C429 C4 0.356 . S
C435 C322 0.216 . S
C455 C255 0.365 . S
C449 C44 0.389 . S
C475 C295 0.465 . S
C469 C84 0.407 . S
C489 C60 2.942 . S
C495 C162 2.906 . S
C509 C100 3.151 . S
C515 C202 3.100 . S
C529 C31 3.198 . S
C535 C135 3.111 . S
C555 C175 3.115 . S
C549 C71 3.183 . S
C575 C215 2.917 . S
C569 C111 2.974 . S
C589 C20 2.944 . S
C595 C122 2.912 . S
C615 C221 1.785 1_554 S
C609 C2 1.739 . S
C629 C42 1.758 . S
C635 C141 1.778 . S
C649 C82 1.755 . S
C655 C181 1.794 . S
C675 C301 1.113 . S
C669 C63 1.097 . S
C695 C341 1.135 . S
C689 C103 1.122 . S
C709 C23 1.098 . S
C715 C261 1.100 . S
