# Generated by pormake.
# Topology iac, (4,6)-cn, num edge types: 1
# Building blocks:
#     Node 0, Type 0, BuildingBlock: QUQFOY_clean_sbu_1, # of connection points: 4
#     Node 1, Type 0, BuildingBlock: QUQFOY_clean_sbu_1, # of connection points: 4
#     Node 2, Type 0, BuildingBlock: QUQFOY_clean_sbu_1, # of connection points: 4
#     Node 3, Type 0, BuildingBlock: QUQFOY_clean_sbu_1, # of connection points: 4
#     Node 4, Type 0, BuildingBlock: QUQFOY_clean_sbu_1, # of connection points: 4
#     Node 5, Type 0, BuildingBlock: QUQFOY_clean_sbu_1, # of connection points: 4
#     Node 6, Type 0, BuildingBlock: QUQFOY_clean_sbu_1, # of connection points: 4
#     Node 7, Type 0, BuildingBlock: QUQFOY_clean_sbu_1, # of connection points: 4
#     Node 8, Type 0, BuildingBlock: QUQFOY_clean_sbu_1, # of connection points: 4
#     Node 9, Type 0, BuildingBlock: QUQFOY_clean_sbu_1, # of connection points: 4
#     Node 10, Type 0, BuildingBlock: QUQFOY_clean_sbu_1, # of connection points: 4
#     Node 11, Type 0, BuildingBlock: QUQFOY_clean_sbu_1, # of connection points: 4
#     Node 12, Type 0, BuildingBlock: QUQFOY_clean_sbu_1, # of connection points: 4
#     Node 13, Type 0, BuildingBlock: QUQFOY_clean_sbu_1, # of connection points: 4
#     Node 14, Type 0, BuildingBlock: QUQFOY_clean_sbu_1, # of connection points: 4
#     Node 15, Type 0, BuildingBlock: QUQFOY_clean_sbu_1, # of connection points: 4
#     Node 16, Type 0, BuildingBlock: QUQFOY_clean_sbu_1, # of connection points: 4
#     Node 17, Type 0, BuildingBlock: QUQFOY_clean_sbu_1, # of connection points: 4
#     Node 18, Type 0, BuildingBlock: QUQFOY_clean_sbu_1, # of connection points: 4
#     Node 19, Type 0, BuildingBlock: QUQFOY_clean_sbu_1, # of connection points: 4
#     Node 20, Type 0, BuildingBlock: QUQFOY_clean_sbu_1, # of connection points: 4
#     Node 21, Type 0, BuildingBlock: QUQFOY_clean_sbu_1, # of connection points: 4
#     Node 22, Type 0, BuildingBlock: QUQFOY_clean_sbu_1, # of connection points: 4
#     Node 23, Type 0, BuildingBlock: QUQFOY_clean_sbu_1, # of connection points: 4
#     Node 24, Type 1, BuildingBlock: LEVNOQ01_clean_sbu_1, # of connection points: 6
#     Node 25, Type 1, BuildingBlock: LEVNOQ01_clean_sbu_1, # of connection points: 6
#     Node 26, Type 1, BuildingBlock: LEVNOQ01_clean_sbu_1, # of connection points: 6
#     Node 27, Type 1, BuildingBlock: LEVNOQ01_clean_sbu_1, # of connection points: 6
#     Node 28, Type 1, BuildingBlock: LEVNOQ01_clean_sbu_1, # of connection points: 6
#     Node 29, Type 1, BuildingBlock: LEVNOQ01_clean_sbu_1, # of connection points: 6
#     Node 30, Type 1, BuildingBlock: LEVNOQ01_clean_sbu_1, # of connection points: 6
#     Node 31, Type 1, BuildingBlock: LEVNOQ01_clean_sbu_1, # of connection points: 6
#     Node 32, Type 1, BuildingBlock: LEVNOQ01_clean_sbu_1, # of connection points: 6
#     Node 33, Type 1, BuildingBlock: LEVNOQ01_clean_sbu_1, # of connection points: 6
#     Node 34, Type 1, BuildingBlock: LEVNOQ01_clean_sbu_1, # of connection points: 6
#     Node 35, Type 1, BuildingBlock: LEVNOQ01_clean_sbu_1, # of connection points: 6
#     Node 36, Type 1, BuildingBlock: LEVNOQ01_clean_sbu_1, # of connection points: 6
#     Node 37, Type 1, BuildingBlock: LEVNOQ01_clean_sbu_1, # of connection points: 6
#     Node 38, Type 1, BuildingBlock: LEVNOQ01_clean_sbu_1, # of connection points: 6
#     Node 39, Type 1, BuildingBlock: LEVNOQ01_clean_sbu_1, # of connection points: 6
#     Edge 40, Type (0, 1), BuildingBlock: UVAHIK_clean_linker_0, # of connection points: 2
#     Edge 41, Type (0, 1), BuildingBlock: UVAHIK_clean_linker_0, # of connection points: 2
#     Edge 42, Type (0, 1), BuildingBlock: UVAHIK_clean_linker_0, # of connection points: 2
#     Edge 43, Type (0, 1), BuildingBlock: UVAHIK_clean_linker_0, # of connection points: 2
#     Edge 44, Type (0, 1), BuildingBlock: UVAHIK_clean_linker_0, # of connection points: 2
#     Edge 45, Type (0, 1), BuildingBlock: UVAHIK_clean_linker_0, # of connection points: 2
#     Edge 46, Type (0, 1), BuildingBlock: UVAHIK_clean_linker_0, # of connection points: 2
#     Edge 47, Type (0, 1), BuildingBlock: UVAHIK_clean_linker_0, # of connection points: 2
#     Edge 48, Type (0, 1), BuildingBlock: UVAHIK_clean_linker_0, # of connection points: 2
#     Edge 49, Type (0, 1), BuildingBlock: UVAHIK_clean_linker_0, # of connection points: 2
#     Edge 50, Type (0, 1), BuildingBlock: UVAHIK_clean_linker_0, # of connection points: 2
#     Edge 51, Type (0, 1), BuildingBlock: UVAHIK_clean_linker_0, # of connection points: 2
#     Edge 52, Type (0, 1), BuildingBlock: UVAHIK_clean_linker_0, # of connection points: 2
#     Edge 53, Type (0, 1), BuildingBlock: UVAHIK_clean_linker_0, # of connection points: 2
#     Edge 54, Type (0, 1), BuildingBlock: UVAHIK_clean_linker_0, # of connection points: 2
#     Edge 55, Type (0, 1), BuildingBlock: UVAHIK_clean_linker_0, # of connection points: 2
#     Edge 56, Type (0, 1), BuildingBlock: UVAHIK_clean_linker_0, # of connection points: 2
#     Edge 57, Type (0, 1), BuildingBlock: UVAHIK_clean_linker_0, # of connection points: 2
#     Edge 58, Type (0, 1), BuildingBlock: UVAHIK_clean_linker_0, # of connection points: 2
#     Edge 59, Type (0, 1), BuildingBlock: UVAHIK_clean_linker_0, # of connection points: 2
#     Edge 60, Type (0, 1), BuildingBlock: UVAHIK_clean_linker_0, # of connection points: 2
#     Edge 61, Type (0, 1), BuildingBlock: UVAHIK_clean_linker_0, # of connection points: 2
#     Edge 62, Type (0, 1), BuildingBlock: UVAHIK_clean_linker_0, # of connection points: 2
#     Edge 63, Type (0, 1), BuildingBlock: UVAHIK_clean_linker_0, # of connection points: 2
#     Edge 64, Type (0, 1), BuildingBlock: UVAHIK_clean_linker_0, # of connection points: 2
#     Edge 65, Type (0, 1), BuildingBlock: UVAHIK_clean_linker_0, # of connection points: 2
#     Edge 66, Type (0, 1), BuildingBlock: UVAHIK_clean_linker_0, # of connection points: 2
#     Edge 67, Type (0, 1), BuildingBlock: UVAHIK_clean_linker_0, # of connection points: 2
#     Edge 68, Type (0, 1), BuildingBlock: UVAHIK_clean_linker_0, # of connection points: 2
#     Edge 69, Type (0, 1), BuildingBlock: UVAHIK_clean_linker_0, # of connection points: 2
#     Edge 70, Type (0, 1), BuildingBlock: UVAHIK_clean_linker_0, # of connection points: 2
#     Edge 71, Type (0, 1), BuildingBlock: UVAHIK_clean_linker_0, # of connection points: 2
#     Edge 72, Type (0, 1), BuildingBlock: UVAHIK_clean_linker_0, # of connection points: 2
#     Edge 73, Type (0, 1), BuildingBlock: UVAHIK_clean_linker_0, # of connection points: 2
#     Edge 74, Type (0, 1), BuildingBlock: UVAHIK_clean_linker_0, # of connection points: 2
#     Edge 75, Type (0, 1), BuildingBlock: UVAHIK_clean_linker_0, # of connection points: 2
#     Edge 76, Type (0, 1), BuildingBlock: UVAHIK_clean_linker_0, # of connection points: 2
#     Edge 77, Type (0, 1), BuildingBlock: UVAHIK_clean_linker_0, # of connection points: 2
#     Edge 78, Type (0, 1), BuildingBlock: UVAHIK_clean_linker_0, # of connection points: 2
#     Edge 79, Type (0, 1), BuildingBlock: UVAHIK_clean_linker_0, # of connection points: 2
#     Edge 80, Type (0, 1), BuildingBlock: UVAHIK_clean_linker_0, # of connection points: 2
#     Edge 81, Type (0, 1), BuildingBlock: UVAHIK_clean_linker_0, # of connection points: 2
#     Edge 82, Type (0, 1), BuildingBlock: UVAHIK_clean_linker_0, # of connection points: 2
#     Edge 83, Type (0, 1), BuildingBlock: UVAHIK_clean_linker_0, # of connection points: 2
#     Edge 84, Type (0, 1), BuildingBlock: UVAHIK_clean_linker_0, # of connection points: 2
#     Edge 85, Type (0, 1), BuildingBlock: UVAHIK_clean_linker_0, # of connection points: 2
#     Edge 86, Type (0, 1), BuildingBlock: UVAHIK_clean_linker_0, # of connection points: 2
#     Edge 87, Type (0, 1), BuildingBlock: UVAHIK_clean_linker_0, # of connection points: 2
#     Edge 88, Type (0, 1), BuildingBlock: UVAHIK_clean_linker_0, # of connection points: 2
#     Edge 89, Type (0, 1), BuildingBlock: UVAHIK_clean_linker_0, # of connection points: 2
#     Edge 90, Type (0, 1), BuildingBlock: UVAHIK_clean_linker_0, # of connection points: 2
#     Edge 91, Type (0, 1), BuildingBlock: UVAHIK_clean_linker_0, # of connection points: 2
#     Edge 92, Type (0, 1), BuildingBlock: UVAHIK_clean_linker_0, # of connection points: 2
#     Edge 93, Type (0, 1), BuildingBlock: UVAHIK_clean_linker_0, # of connection points: 2
#     Edge 94, Type (0, 1), BuildingBlock: UVAHIK_clean_linker_0, # of connection points: 2
#     Edge 95, Type (0, 1), BuildingBlock: UVAHIK_clean_linker_0, # of connection points: 2
#     Edge 96, Type (0, 1), BuildingBlock: UVAHIK_clean_linker_0, # of connection points: 2
#     Edge 97, Type (0, 1), BuildingBlock: UVAHIK_clean_linker_0, # of connection points: 2
#     Edge 98, Type (0, 1), BuildingBlock: UVAHIK_clean_linker_0, # of connection points: 2
#     Edge 99, Type (0, 1), BuildingBlock: UVAHIK_clean_linker_0, # of connection points: 2
#     Edge 100, Type (0, 1), BuildingBlock: UVAHIK_clean_linker_0, # of connection points: 2
#     Edge 101, Type (0, 1), BuildingBlock: UVAHIK_clean_linker_0, # of connection points: 2
#     Edge 102, Type (0, 1), BuildingBlock: UVAHIK_clean_linker_0, # of connection points: 2
#     Edge 103, Type (0, 1), BuildingBlock: UVAHIK_clean_linker_0, # of connection points: 2
#     Edge 104, Type (0, 1), BuildingBlock: UVAHIK_clean_linker_0, # of connection points: 2
#     Edge 105, Type (0, 1), BuildingBlock: UVAHIK_clean_linker_0, # of connection points: 2
#     Edge 106, Type (0, 1), BuildingBlock: UVAHIK_clean_linker_0, # of connection points: 2
#     Edge 107, Type (0, 1), BuildingBlock: UVAHIK_clean_linker_0, # of connection points: 2
#     Edge 108, Type (0, 1), BuildingBlock: UVAHIK_clean_linker_0, # of connection points: 2
#     Edge 109, Type (0, 1), BuildingBlock: UVAHIK_clean_linker_0, # of connection points: 2
#     Edge 110, Type (0, 1), BuildingBlock: UVAHIK_clean_linker_0, # of connection points: 2
#     Edge 111, Type (0, 1), BuildingBlock: UVAHIK_clean_linker_0, # of connection points: 2
#     Edge 112, Type (0, 1), BuildingBlock: UVAHIK_clean_linker_0, # of connection points: 2
#     Edge 113, Type (0, 1), BuildingBlock: UVAHIK_clean_linker_0, # of connection points: 2
#     Edge 114, Type (0, 1), BuildingBlock: UVAHIK_clean_linker_0, # of connection points: 2
#     Edge 115, Type (0, 1), BuildingBlock: UVAHIK_clean_linker_0, # of connection points: 2
#     Edge 116, Type (0, 1), BuildingBlock: UVAHIK_clean_linker_0, # of connection points: 2
#     Edge 117, Type (0, 1), BuildingBlock: UVAHIK_clean_linker_0, # of connection points: 2
#     Edge 118, Type (0, 1), BuildingBlock: UVAHIK_clean_linker_0, # of connection points: 2
#     Edge 119, Type (0, 1), BuildingBlock: UVAHIK_clean_linker_0, # of connection points: 2
#     Edge 120, Type (0, 1), BuildingBlock: UVAHIK_clean_linker_0, # of connection points: 2
#     Edge 121, Type (0, 1), BuildingBlock: UVAHIK_clean_linker_0, # of connection points: 2
#     Edge 122, Type (0, 1), BuildingBlock: UVAHIK_clean_linker_0, # of connection points: 2
#     Edge 123, Type (0, 1), BuildingBlock: UVAHIK_clean_linker_0, # of connection points: 2
#     Edge 124, Type (0, 1), BuildingBlock: UVAHIK_clean_linker_0, # of connection points: 2
#     Edge 125, Type (0, 1), BuildingBlock: UVAHIK_clean_linker_0, # of connection points: 2
#     Edge 126, Type (0, 1), BuildingBlock: UVAHIK_clean_linker_0, # of connection points: 2
#     Edge 127, Type (0, 1), BuildingBlock: UVAHIK_clean_linker_0, # of connection points: 2
#     Edge 128, Type (0, 1), BuildingBlock: UVAHIK_clean_linker_0, # of connection points: 2
#     Edge 129, Type (0, 1), BuildingBlock: UVAHIK_clean_linker_0, # of connection points: 2
#     Edge 130, Type (0, 1), BuildingBlock: UVAHIK_clean_linker_0, # of connection points: 2
#     Edge 131, Type (0, 1), BuildingBlock: UVAHIK_clean_linker_0, # of connection points: 2
#     Edge 132, Type (0, 1), BuildingBlock: UVAHIK_clean_linker_0, # of connection points: 2
#     Edge 133, Type (0, 1), BuildingBlock: UVAHIK_clean_linker_0, # of connection points: 2
#     Edge 134, Type (0, 1), BuildingBlock: UVAHIK_clean_linker_0, # of connection points: 2
#     Edge 135, Type (0, 1), BuildingBlock: UVAHIK_clean_linker_0, # of connection points: 2
# Relax obj value: 0.118
# Max RMSD: 0.183
# Mean RMSD: 0.148
data_MOF--net-iac--node1-QUQFOY_clean_sbu_1--node2-LEVNOQ01_clean_sbu_1--edge1-UVAHIK_clean_linker_0
_symmetry_space_group_name_H-M    P1
_symmetry_Int_Tables_number       1
_symmetry_cell_setting            triclinic
loop_
_symmetry_equiv_pos_as_xyz
'x, y, z'
_cell_length_a     70.851423
_cell_length_b     70.454306
_cell_length_c     70.850108
_cell_angle_alpha  91.261067
_cell_angle_beta   90.398109
_cell_angle_gamma 93.271776
loop_
_atom_site_label
_atom_site_type_symbol
_atom_site_fract_x
_atom_site_fract_y
_atom_site_fract_z
_atom_type_partial_charge
O0 O -0.0032 0.22373 0.10934 0.0
Cd1 Cd -0.00336 0.2493 0.12398 0.0
Cd2 Cd 0.01778 0.2583 0.09437 0.0
O3 O 0.01081 0.23179 0.08281 0.0
O4 O 0.97935 0.24151 0.14469 0.0
O5 O 0.97273 0.26396 0.12495 0.0
C6 C 0.96775 0.25359 0.13903 0.0
C7 C 0.00663 0.28666 0.08423 0.0
C8 C 0.00267 0.21924 0.09303 0.0
C9 C 0.03762 0.25933 0.13157 0.0
O10 O 0.03966 0.25911 0.11376 0.0
O11 O 0.0212 0.2576 0.13867 0.0
O12 O 0.02108 0.27947 0.07628 0.0
O13 O -0.0019 0.27722 0.09741 0.0
O14 O 0.03101 0.75325 0.38319 0.0
Cd15 Cd 0.00602 0.75307 0.39751 0.0
Cd16 Cd 0.99067 0.75974 0.36528 0.0
O17 O 0.01521 0.74833 0.35644 0.0
O18 O 0.00511 0.73357 0.41699 0.0
O19 O 0.98787 0.73149 0.39049 0.0
C20 C 0.99311 0.72413 0.40605 0.0
C21 C 0.9631 0.75457 0.34802 0.0
C22 C 0.03064 0.74888 0.36572 0.0
C23 C 0.9926 0.79069 0.39529 0.0
O24 O 0.99108 0.78629 0.37789 0.0
O25 O -0.00282 0.77847 0.4071 0.0
O26 O 0.97705 0.76507 0.34177 0.0
O27 O 0.96539 0.74558 0.36346 0.0
O28 O 0.4848 0.7344 0.61043 0.0
Cd29 Cd 0.48484 0.76046 0.62431 0.0
Cd30 Cd 0.50484 0.76854 0.59378 0.0
O31 O 0.49731 0.74186 0.58301 0.0
O32 O 0.46834 0.75341 0.64592 0.0
O33 O 0.46091 0.77506 0.62561 0.0
C34 C 0.4565 0.76527 0.64026 0.0
C35 C 0.49429 0.79702 0.58356 0.0
C36 C 0.48992 0.72951 0.59395 0.0
C37 C 0.52601 0.77076 0.63012 0.0
O38 O 0.5274 0.76963 0.61227 0.0
O39 O 0.50985 0.7695 0.63784 0.0
O40 O 0.5081 0.78915 0.57515 0.0
O41 O 0.48586 0.78807 0.59713 0.0
O42 O 0.52986 0.25463 0.87894 0.0
Cd43 Cd 0.50207 0.25351 0.88772 0.0
Cd44 Cd 0.49719 0.2654 0.85521 0.0
O45 O 0.52016 0.25009 0.84954 0.0
O46 O 0.50007 0.23793 0.91059 0.0
O47 O 0.48821 0.22836 0.88264 0.0
C48 C 0.49141 0.22494 0.90014 0.0
C49 C 0.46717 0.25876 0.84382 0.0
C50 C 0.53317 0.24995 0.86193 0.0
C51 C 0.49368 0.29318 0.88457 0.0
O52 O 0.50116 0.29155 0.86846 0.0
O53 O 0.48942 0.27839 0.8939 0.0
O54 O 0.47963 0.26789 0.83368 0.0
O55 O 0.47228 0.25233 0.85987 0.0
O56 O 0.1286 0.99261 0.22975 0.0
Cd57 Cd 0.143 0.99246 0.25494 0.0
Cd58 Cd 0.11188 0.00227 0.26779 0.0
O59 O 0.10097 0.98915 0.24349 0.0
O60 O 0.16377 0.97553 0.25009 0.0
O61 O 0.14058 0.96874 0.27013 0.0
C62 C 0.15549 0.96366 0.26141 0.0
C63 C 0.09982 0.99507 0.29732 0.0
C64 C 0.11088 0.9891 0.22863 0.0
C65 C 0.14302 0.03227 0.26507 0.0
O66 O 0.12521 0.02888 0.26485 0.0
O67 O 0.15392 0.01857 0.26439 0.0
O68 O 0.09066 0.00501 0.28565 0.0
O69 O 0.11577 0.98882 0.292 0.0
O70 O 0.24057 0.88018 0.53069 0.0
Cd71 Cd 0.23732 0.89442 0.50611 0.0
Cd72 Cd 0.24602 0.86381 0.49248 0.0
O73 O 0.23616 0.85218 0.5166 0.0
O74 O 0.21993 0.91407 0.51257 0.0
O75 O 0.21298 0.89017 0.49207 0.0
C76 C 0.20785 0.90482 0.50159 0.0
C77 C 0.23898 0.85062 0.46312 0.0
C78 C 0.23794 0.86228 0.53158 0.0
C79 C 0.27519 0.89509 0.49343 0.0
O80 O 0.27231 0.87726 0.49484 0.0
O81 O 0.26147 0.90587 0.49427 0.0
O82 O 0.24922 0.84216 0.47508 0.0
O83 O 0.23183 0.86635 0.46824 0.0
O84 O 0.37498 0.01739 0.72252 0.0
Cd85 Cd 0.3635 0.01904 0.74897 0.0
Cd86 Cd 0.39547 0.01259 0.75676 0.0
O87 O 0.40193 0.02906 0.73416 0.0
O88 O 0.34016 0.03137 0.74405 0.0
O89 O 0.36405 0.04479 0.76121 0.0
C90 C 0.34788 0.04604 0.75292 0.0
C91 C 0.40769 0.01725 0.78637 0.0
C92 C 0.39108 0.02567 0.72007 0.0
C93 C 0.368 0.98116 0.75897 0.0
O94 O 0.38422 0.98515 0.75218 0.0
O95 O 0.35727 0.99448 0.76277 0.0
O96 O 0.41754 0.01007 0.77298 0.0
O97 O 0.39135 0.02351 0.78238 0.0
O98 O 0.26812 0.13273 0.01565 0.0
Cd99 Cd 0.26728 0.12221 0.9884 0.0
Cd100 Cd 0.25559 0.15573 0.98405 0.0
O101 O 0.26847 0.16313 0.00941 0.0
O102 O 0.27955 0.09795 0.99219 0.0
O103 O 0.29223 0.1209 0.9748 0.0
C104 C 0.29369 0.10466 0.98261 0.0
C105 C 0.2641 0.16578 0.95446 0.0
C106 C 0.27001 0.14997 0.02119 0.0
C107 C 0.22661 0.12456 0.98121 0.0
O108 O 0.2294 0.14194 0.98617 0.0
O109 O 0.24058 0.11442 0.97796 0.0
O110 O 0.25535 0.17679 0.96587 0.0
O111 O 0.269 0.14953 0.96036 0.0
O112 O 0.75026 0.38301 0.03258 0.0
Cd113 Cd 0.74922 0.39732 0.00785 0.0
Cd114 Cd 0.75205 0.36586 -0.00537 0.0
O115 O 0.73599 0.35872 0.01769 0.0
O116 O 0.73572 0.41997 0.01409 0.0
O117 O 0.72406 0.39629 -0.00478 0.0
C118 C 0.72176 0.41199 0.00446 0.0
C119 C 0.74378 0.35676 0.96424 0.0
C120 C 0.74067 0.36732 0.03307 0.0
C121 C 0.78598 0.39057 -0.00462 0.0
O122 O 0.78033 0.3736 -0.00112 0.0
O123 O 0.77411 0.40334 -0.00557 0.0
O124 O 0.74975 0.34467 0.97602 0.0
O125 O 0.74175 0.37403 0.96998 0.0
O126 O 0.87329 0.5075 0.22352 0.0
Cd127 Cd 0.86144 0.51243 0.24944 0.0
Cd128 Cd 0.89334 0.50641 0.25807 0.0
O129 O 0.90037 0.52029 0.23398 0.0
O130 O 0.83926 0.5265 0.24336 0.0
O131 O 0.86391 0.53904 0.25996 0.0
C132 C 0.84797 0.5411 0.25149 0.0
C133 C 0.90549 0.51233 0.2875 0.0
C134 C 0.88953 0.51511 0.22031 0.0
C135 C 0.8649 0.4755 0.26188 0.0
O136 O 0.88126 0.47915 0.25525 0.0
O137 O 0.85412 0.48899 0.26487 0.0
O138 O 0.9151 0.50378 0.27477 0.0
O139 O 0.88972 0.51938 0.28281 0.0
O140 O 0.75553 0.62773 0.51597 0.0
Cd141 Cd 0.7574 0.61535 0.48952 0.0
Cd142 Cd 0.75073 0.64852 0.48088 0.0
O143 O 0.76445 0.65607 0.50602 0.0
O144 O 0.77134 0.59235 0.49455 0.0
O145 O 0.78309 0.61607 0.47739 0.0
C146 C 0.78545 0.6002 0.48563 0.0
C147 C 0.75967 0.65843 0.45117 0.0
C148 C 0.76144 0.64475 0.51953 0.0
C149 C 0.71887 0.6198 0.47894 0.0
O150 O 0.72337 0.63708 0.4833 0.0
O151 O 0.7317 0.60806 0.47671 0.0
O152 O 0.75178 0.66984 0.46283 0.0
O153 O 0.76327 0.64166 0.45674 0.0
O154 O 0.63278 0.49697 0.7267 0.0
Cd155 Cd 0.64924 0.49696 0.75079 0.0
Cd156 Cd 0.61843 0.5041 0.76607 0.0
O157 O 0.6067 0.49047 0.74242 0.0
O158 O 0.66924 0.47914 0.74588 0.0
O159 O 0.6464 0.47411 0.76684 0.0
C160 C 0.66077 0.46805 0.75783 0.0
C161 C 0.6045 0.4997 0.79551 0.0
C162 C 0.61529 0.49197 0.72681 0.0
C163 C 0.64793 0.53587 0.76109 0.0
O164 O 0.63039 0.53109 0.76167 0.0
O165 O 0.65989 0.52316 0.76017 0.0
O166 O 0.59678 0.50932 0.78259 0.0
O167 O 0.62009 0.4919 0.79156 0.0
O168 O 0.03317 0.75276 0.8778 0.0
Cd169 Cd 0.00774 0.75056 0.89141 0.0
Cd170 Cd -0.00291 0.76299 0.85951 0.0
O171 O 0.02138 0.75184 0.84905 0.0
O172 O 0.01384 0.73332 0.91189 0.0
O173 O 0.99276 0.72547 0.88931 0.0
C174 C 0.00254 0.72065 0.90373 0.0
C175 C 0.96805 0.75955 0.84448 0.0
C176 C 0.03542 0.75079 0.86014 0.0
C177 C -0.00264 0.78968 0.89274 0.0
O178 O -0.00066 0.78806 0.875 0.0
O179 O -0.00207 0.77511 0.90293 0.0
O180 O 0.98157 0.77052 0.83802 0.0
O181 O 0.97151 0.74915 0.85877 0.0
O182 O 0.98867 0.22512 0.62522 0.0
Cd183 Cd 0.98981 0.25229 0.636 0.0
Cd184 Cd -0.00095 0.25779 0.60242 0.0
O185 O 0.98428 0.23275 0.59577 0.0
O186 O 0.97735 0.24746 0.66031 0.0
O187 O 0.965 0.26438 0.63776 0.0
C188 C 0.96316 0.2559 0.65368 0.0
C189 C 0.99174 0.28709 0.59219 0.0
C190 C 0.98416 0.22028 0.6084 0.0
C191 C 0.02954 0.26093 0.63059 0.0
O192 O 0.02567 0.2555 0.61372 0.0
O193 O 0.01629 0.26438 0.64194 0.0
O194 O -0.00032 0.27527 0.58099 0.0
O195 O 0.98716 0.28185 0.609 0.0
O196 O 0.50848 0.22659 0.37417 0.0
Cd197 Cd 0.51087 0.25201 0.36008 0.0
Cd198 Cd 0.49619 0.26378 0.39079 0.0
O199 O 0.50567 0.23959 0.40244 0.0
O200 O 0.52846 0.24652 0.33933 0.0
O201 O 0.53601 0.26654 0.36307 0.0
C202 C 0.54105 0.25743 0.34807 0.0
C203 C 0.50144 0.2943 0.40286 0.0
C204 C 0.50826 0.22508 0.392 0.0
C205 C 0.47166 0.26317 0.35726 0.0
O206 O 0.47186 0.26093 0.37496 0.0
O207 O 0.48696 0.26266 0.34805 0.0
O208 O 0.48961 0.28232 0.41064 0.0
O209 O 0.51162 0.28843 0.38908 0.0
O210 O 0.48575 0.72406 0.11999 0.0
Cd211 Cd 0.48889 0.75023 0.1333 0.0
Cd212 Cd 0.49756 0.75867 0.09963 0.0
O213 O 0.48333 0.73403 0.09098 0.0
O214 O 0.47768 0.74448 0.1582 0.0
O215 O 0.46555 0.76415 0.13803 0.0
C216 C 0.46423 0.75509 0.15366 0.0
C217 C 0.48957 0.78847 0.09172 0.0
C218 C 0.48215 0.72064 0.10264 0.0
C219 C 0.52891 0.75953 0.12646 0.0
O220 O 0.52466 0.75603 0.10925 0.0
O221 O 0.51597 0.76109 0.13863 0.0
O222 O 0.49733 0.77754 0.07952 0.0
O223 O 0.48558 0.78211 0.10828 0.0
O224 O 0.86852 0.00669 0.72032 0.0
Cd225 Cd 0.85601 0.00778 0.74643 0.0
Cd226 Cd 0.88871 -0.00119 0.75595 0.0
O227 O 0.89724 0.01241 0.73166 0.0
O228 O 0.83454 0.02419 0.74268 0.0
O229 O 0.85982 0.03296 0.76007 0.0
C230 C 0.84416 0.03731 0.7522 0.0
C231 C 0.9029 0.00292 0.78538 0.0
C232 C 0.88584 0.0115 0.7177 0.0
C233 C 0.85819 0.96866 0.7571 0.0
O234 O 0.87543 0.97223 0.75305 0.0
O235 O 0.84712 0.98221 0.75829 0.0
O236 O 0.91108 0.99424 0.77174 0.0
O237 O 0.88728 0.01082 0.78177 0.0
O238 O 0.75225 0.12706 0.52378 0.0
Cd239 Cd 0.75399 0.11256 0.49866 0.0
Cd240 Cd 0.75193 0.14503 0.48709 0.0
O241 O 0.76474 0.15336 0.51203 0.0
O242 O 0.7664 0.08965 0.50593 0.0
O243 O 0.77969 0.11216 0.48789 0.0
C244 C 0.78114 0.09693 0.49755 0.0
C245 C 0.76164 0.1567 0.45856 0.0
C246 C 0.75989 0.14364 0.52621 0.0
C247 C 0.71761 0.11934 0.48528 0.0
O248 O 0.72372 0.13634 0.48884 0.0
O249 O 0.72903 0.10613 0.48463 0.0
O250 O 0.75376 0.16737 0.47085 0.0
O251 O 0.76475 0.1394 0.46277 0.0
O252 O 0.62805 0.00298 0.22492 0.0
Cd253 Cd 0.63834 -0.00017 0.25173 0.0
Cd254 Cd 0.60566 0.00529 0.25633 0.0
O255 O 0.59962 0.99123 0.23136 0.0
O256 O 0.66135 0.98653 0.24689 0.0
O257 O 0.63621 0.97361 0.2616 0.0
C258 C 0.65242 0.97176 0.25369 0.0
C259 C 0.59174 0.00217 0.28464 0.0
C260 C 0.61197 -0.00383 0.21929 0.0
C261 C 0.63318 0.03732 0.26221 0.0
O262 O 0.61747 0.03237 0.25437 0.0
O263 O 0.64422 0.02459 0.26679 0.0
O264 O 0.58297 0.00941 0.27072 0.0
O265 O 0.6075 0.99421 0.28165 0.0
O266 O 0.73959 0.88103 0.03042 0.0
Cd267 Cd 0.74226 0.89478 0.00526 0.0
Cd268 Cd 0.75161 0.8617 -0.00504 0.0
O269 O 0.737 0.85206 0.01823 0.0
O270 O 0.72962 0.91857 0.01115 0.0
O271 O 0.71809 0.89666 0.99066 0.0
C272 C 0.71591 0.91214 0.00031 0.0
C273 C 0.74457 0.85367 0.96377 0.0
C274 C 0.73576 0.86337 0.03232 0.0
C275 C 0.78254 0.89091 -0.00176 0.0
O276 O 0.77849 0.87327 0.00014 0.0
O277 O 0.7694 0.90238 -0.00328 0.0
O278 O 0.75241 0.84187 0.97467 0.0
O279 O 0.73979 0.86971 0.97096 0.0
O280 O 0.26059 0.63181 0.02785 0.0
Cd281 Cd 0.25985 0.6192 0.00143 0.0
Cd282 Cd 0.25557 0.65294 0.99313 0.0
O283 O 0.2686 0.66046 0.01811 0.0
O284 O 0.27093 0.59478 0.00643 0.0
O285 O 0.28459 0.61703 0.98851 0.0
C286 C 0.28542 0.60104 -0.00298 0.0
C287 C 0.26475 0.66531 0.96475 0.0
C288 C 0.26633 0.64889 0.03144 0.0
C289 C 0.22179 0.62672 0.99075 0.0
O290 O 0.22753 0.64372 -0.00517 0.0
O291 O 0.23361 0.61389 0.98918 0.0
O292 O 0.25687 0.67562 0.97737 0.0
O293 O 0.26831 0.64803 0.96865 0.0
O294 O 0.13112 0.50792 0.72532 0.0
Cd295 Cd 0.1432 0.5057 0.7515 0.0
Cd296 Cd 0.11024 0.51053 0.75895 0.0
O297 O 0.10313 0.49659 0.73411 0.0
O298 O 0.1651 0.49027 0.74759 0.0
O299 O 0.13919 0.48058 0.7631 0.0
C300 C 0.15523 0.47682 0.7557 0.0
C301 C 0.09626 0.50584 0.78751 0.0
C302 C 0.11459 0.50115 0.72108 0.0
C303 C 0.13841 0.54308 0.76172 0.0
O304 O 0.12188 0.53756 0.75624 0.0
O305 O 0.15037 0.53091 0.76529 0.0
O306 O 0.08764 0.51423 0.77422 0.0
O307 O 0.11229 0.49869 0.78396 0.0
O308 O 0.23797 0.38527 0.53287 0.0
Cd309 Cd 0.23852 0.39771 0.50696 0.0
Cd310 Cd 0.24496 0.36447 0.49567 0.0
O311 O 0.23113 0.35699 0.52017 0.0
O312 O 0.22337 0.42033 0.5101 0.0
O313 O 0.21412 0.39475 0.49284 0.0
C314 C 0.21028 0.41092 0.50044 0.0
C315 C 0.23715 0.35165 0.46595 0.0
C316 C 0.23234 0.36799 0.53465 0.0
C317 C 0.27734 0.39241 0.4964 0.0
O318 O 0.27259 0.37499 0.49878 0.0
O319 O 0.2647 0.40451 0.49577 0.0
O320 O 0.24516 0.34179 0.47855 0.0
O321 O 0.23266 0.36864 0.47058 0.0
O322 O 0.3684 0.50274 0.22239 0.0
Cd323 Cd 0.35575 0.50352 0.24846 0.0
Cd324 Cd 0.38868 0.49608 0.25818 0.0
O325 O 0.39674 0.51012 0.23402 0.0
O326 O 0.3338 0.51933 0.24485 0.0
O327 O 0.35908 0.52874 0.26199 0.0
C328 C 0.34323 0.53269 0.25425 0.0
C329 C 0.40149 0.50122 0.28807 0.0
C330 C 0.38551 0.50849 0.21993 0.0
C331 C 0.35959 0.46475 0.2592 0.0
O332 O 0.37665 0.46905 0.25497 0.0
O333 O 0.34795 0.47779 0.26062 0.0
O334 O 0.41076 0.49298 0.2749 0.0
O335 O 0.38552 0.50807 0.28372 0.0
O336 O -0.0032 0.0292 0.96858 0.0
Mg337 Mg 0.97899 0.03145 0.99221 0.0
O338 O 0.0008 -0.00074 0.97462 0.0
Mg339 Mg 0.00866 -0.00012 0.00685 0.0
O340 O -0.00175 0.02843 0.01228 0.0
O341 O 0.98324 0.0547 0.01155 0.0
O342 O 0.01516 -0.00016 0.03896 0.0
O343 O 0.0382 0.01449 0.00124 0.0
Mg344 Mg 0.04402 0.97175 0.01678 0.0
O345 O 0.01927 0.97111 0.00256 0.0
O346 O 0.03632 0.97838 0.04494 0.0
O347 O 0.0607 0.99371 0.00352 0.0
O348 O 0.0356 0.94559 0.00327 0.0
C349 C 0.96259 0.99098 0.00521 0.0
C350 C -0.00233 0.01215 0.9628 0.0
C351 C -0.00413 0.04496 0.0193 0.0
C352 C 0.02501 0.9907 0.05042 0.0
C353 C 0.0554 0.01019 -0.00019 0.0
C354 C 0.02093 0.95376 -0.00259 0.0
O355 O 0.96047 0.00684 -0.00273 0.0
O356 O 0.97867 0.98624 0.01134 0.0
O357 O 0.23867 0.73353 0.2988 0.0
Mg358 Mg 0.22798 0.70942 0.28222 0.0
O359 O 0.24483 0.75424 0.27593 0.0
Mg360 Mg 0.23779 0.7391 0.24751 0.0
O361 O 0.24435 0.71088 0.25909 0.0
O362 O 0.24428 0.68582 0.2771 0.0
O363 O 0.23013 0.7207 0.22038 0.0
O364 O 0.26937 0.74234 0.23947 0.0
Mg365 Mg 0.23836 0.75837 0.21253 0.0
O366 O 0.23056 0.76965 0.2377 0.0
O367 O 0.21826 0.73931 0.19969 0.0
O368 O 0.26763 0.75445 0.211 0.0
O369 O 0.23181 0.78563 0.21062 0.0
C370 C 0.19452 0.7244 0.2626 0.0
C371 C 0.24441 0.74998 0.29335 0.0
C372 C 0.25084 0.69467 0.26263 0.0
C373 C 0.22084 0.72279 0.20521 0.0
C374 C 0.27726 0.74821 0.22442 0.0
C375 C 0.22805 0.78508 0.2284 0.0
O376 O 0.19976 0.71056 0.27214 0.0
O377 O 0.20638 0.73611 0.25505 0.0
O378 O 0.52465 0.98828 0.47066 0.0
Mg379 Mg 0.5332 0.98765 0.49947 0.0
O380 O 0.50204 0.00916 0.47218 0.0
Mg381 Mg 0.49453 0.01354 0.50335 0.0
O382 O 0.50801 0.98749 0.51168 0.0
O383 O 0.52618 0.96404 0.51677 0.0
O384 O 0.48791 0.01665 0.53455 0.0
O385 O 0.46773 0.99372 0.49771 0.0
Mg386 Mg 0.45603 0.0342 0.50841 0.0
O387 O 0.48114 0.0414 0.49594 0.0
O388 O 0.46077 0.03072 0.53759 0.0
O389 O 0.443 0.01107 0.49328 0.0
O390 O 0.4573 0.06066 0.49683 0.0
C391 C 0.5396 0.02991 0.51103 0.0
C392 C 0.5127 -0.00152 0.46277 0.0
C393 C 0.51038 0.9717 0.51967 0.0
C394 C 0.47495 0.02314 0.54464 0.0
C395 C 0.45061 0.99525 0.49269 0.0
C396 C 0.47418 0.05731 0.49145 0.0
O397 O 0.54666 0.01371 0.50994 0.0
O398 O 0.52207 0.03212 0.50816 0.0
O399 O 0.30258 0.26791 0.74049 0.0
Mg400 Mg 0.2892 0.25755 0.71488 0.0
O401 O 0.2771 0.26446 0.75876 0.0
Mg402 Mg 0.24961 0.26004 0.7411 0.0
O403 O 0.26421 0.2697 0.71519 0.0
O404 O 0.28351 0.27478 0.69159 0.0
O405 O 0.22166 0.25607 0.72413 0.0
O406 O 0.24258 0.29127 0.74607 0.0
Mg407 Mg 0.21609 0.26877 0.77081 0.0
O408 O 0.23485 0.24888 0.76713 0.0
O409 O 0.20097 0.26749 0.74462 0.0
O410 O 0.23476 0.29281 0.77585 0.0
O411 O 0.21421 0.24678 0.79025 0.0
C412 C 0.26756 0.21999 0.72491 0.0
C413 C 0.29484 0.2679 0.75665 0.0
C414 C 0.26749 0.27752 0.69934 0.0
C415 C 0.20517 0.26135 0.72821 0.0
C416 C 0.23827 0.30108 0.76051 0.0
C417 C 0.22871 0.24036 0.78194 0.0
O418 O 0.28064 0.22792 0.71507 0.0
O419 O 0.25642 0.22947 0.73494 0.0
O420 O -0.00185 0.95219 0.51417 0.0
Mg421 Mg 0.00447 0.96863 0.53942 0.0
O422 O 0.99359 0.97584 0.4945 0.0
Mg423 Mg -0.00135 0.00427 0.51042 0.0
O424 O 0.9887 0.99155 0.5375 0.0
O425 O 0.98525 0.97244 0.56154 0.0
O426 O 0.00428 0.03269 0.52641 0.0
O427 O 0.96792 0.01108 0.50459 0.0
Mg428 Mg -0.00365 0.04128 0.48169 0.0
O429 O 0.0087 0.01642 0.48326 0.0
O430 O 0.00685 0.05649 0.50619 0.0
O431 O 0.96704 0.03295 0.48237 0.0
O432 O 0.01409 0.03467 0.45895 0.0
C433 C 0.03979 0.99083 0.52837 0.0
C434 C -0.00572 0.9582 0.49784 0.0
C435 C 0.98062 0.98756 0.5532 0.0
C436 C 0.00788 0.05018 0.52285 0.0
C437 C 0.95877 0.02131 0.49353 0.0
C438 C 0.01707 0.01917 0.46749 0.0
O439 O 0.0327 0.9803 0.54114 0.0
O440 O 0.02946 -0.00168 0.51614 0.0
O441 O 0.24184 0.72652 0.7703 0.0
Mg442 Mg 0.24928 0.73244 0.74166 0.0
O443 O 0.2434 0.75683 0.77873 0.0
Mg444 Mg 0.23779 0.76673 0.74904 0.0
O445 O 0.26655 0.75592 0.73689 0.0
O446 O 0.27566 0.72589 0.73452 0.0
O447 O 0.23099 0.77668 0.7197 0.0
O448 O 0.256 0.79423 0.75534 0.0
Mg449 Mg 0.21083 0.80533 0.75028 0.0
O450 O 0.2126 0.77931 0.76046 0.0
O451 O 0.21009 0.79922 0.72062 0.0
O452 O 0.23716 0.81835 0.7599 0.0
O453 O 0.1888 0.79583 0.76885 0.0
C454 C 0.21471 0.72824 0.73027 0.0
C455 C 0.24158 0.73943 0.78304 0.0
C456 C 0.27927 0.74391 0.73259 0.0
C457 C 0.22017 0.7878 0.71147 0.0
C458 C 0.25347 0.81158 0.75969 0.0
C459 C 0.19741 0.78031 0.76988 0.0
O460 O 0.22902 0.72555 0.72032 0.0
O461 O 0.21627 0.74068 0.74355 0.0
O462 O 0.5055 0.99188 0.04432 0.0
Mg463 Mg 0.49986 0.02127 0.04092 0.0
O464 O 0.50534 0.98452 0.01375 0.0
Mg465 Mg 0.51183 0.01426 0.00298 0.0
O466 O 0.48486 0.0256 0.017 0.0
O467 O 0.47337 0.0299 0.04604 0.0
O468 O 0.5192 0.04439 0.99249 0.0
O469 O 0.4915 0.00757 0.97789 0.0
Mg470 Mg 0.53538 0.01404 0.96196 0.0
O471 O 0.53588 0.00213 0.98743 0.0
O472 O 0.53904 0.04375 0.96827 0.0
O473 O 0.50826 0.00443 0.95151 0.0
O474 O 0.55649 0.99458 0.96591 0.0
C475 C 0.53601 0.03267 0.04053 0.0
C476 C 0.5058 0.97961 0.0309 0.0
C477 C 0.47144 0.03094 0.02797 0.0
C478 C 0.52994 0.05289 0.98058 0.0
C479 C 0.49264 0.00363 0.96031 0.0
C480 C 0.54988 0.99235 0.98265 0.0
O481 O 0.52207 0.04206 0.04503 0.0
O482 O 0.53385 0.02 0.02748 0.0
O483 O 0.26078 0.25063 0.1884 0.0
Mg484 Mg 0.24908 0.27464 0.20206 0.0
O485 O 0.26026 0.23238 0.21375 0.0
Mg486 Mg 0.25586 0.249 0.24142 0.0
O487 O 0.26184 0.2762 0.22756 0.0
O488 O 0.26519 0.30048 0.20902 0.0
O489 O 0.25208 0.26438 0.27028 0.0
O490 O 0.28834 0.25012 0.24868 0.0
Mg491 Mg 0.27077 0.2201 0.2722 0.0
O492 O 0.24894 0.2208 0.25432 0.0
O493 O 0.26625 0.2447 0.28956 0.0
O494 O 0.2941 0.22054 0.25383 0.0
O495 O 0.25175 0.19634 0.27281 0.0
C496 C 0.21335 0.25767 0.22217 0.0
C497 C 0.26247 0.23466 0.19611 0.0
C498 C 0.2691 0.29288 0.22481 0.0
C499 C 0.25805 0.26007 0.28668 0.0
C500 C 0.30018 0.23755 0.25163 0.0
C501 C 0.24248 0.20452 0.25991 0.0
O502 O 0.22023 0.26847 0.20944 0.0
O503 O 0.2237 0.24955 0.2341 0.0
O504 O 0.47977 0.54032 0.00657 0.0
Mg505 Mg 0.50886 0.53627 0.00219 0.0
O506 O 0.47322 0.51021 0.01339 0.0
Mg507 Mg 0.50373 0.5019 0.01796 0.0
O508 O 0.51426 0.5121 0.98775 0.0
O509 O 0.51624 0.54128 0.97538 0.0
O510 O 0.53395 0.4941 0.02295 0.0
O511 O 0.49712 0.4737 0.00159 0.0
Mg512 Mg 0.50726 0.46468 0.04641 0.0
O513 O 0.49403 0.48919 0.04498 0.0
O514 O 0.53656 0.47347 0.04604 0.0
O515 O 0.49713 0.44953 0.02153 0.0
O516 O 0.4894 0.47076 0.06929 0.0
C517 C 0.52298 0.54237 0.037 0.0
C518 C 0.46789 0.52674 0.01003 0.0
C519 C 0.51819 0.52323 0.97367 0.0
C520 C 0.54393 0.4847 0.03398 0.0
C521 C 0.49486 0.45602 0.00507 0.0
C522 C 0.48575 0.48606 0.06072 0.0
O523 O 0.53007 0.54634 0.02126 0.0
O524 O 0.51035 0.52881 0.03766 0.0
O525 O 0.75016 0.21912 0.26819 0.0
Mg526 Mg 0.76254 0.22155 0.24082 0.0
O527 O 0.74789 0.25005 0.27161 0.0
Mg528 Mg 0.74691 0.25447 0.23972 0.0
O529 O 0.77832 0.24556 0.23487 0.0
O530 O 0.7904 0.21726 0.23998 0.0
O531 O 0.74577 0.25851 0.20774 0.0
O532 O 0.76118 0.28425 0.24402 0.0
Mg533 Mg 0.7169 0.28724 0.22704 0.0
O534 O 0.71861 0.26547 0.24455 0.0
O535 O 0.72038 0.27406 0.20013 0.0
O536 O 0.74032 0.30573 0.2367 0.0
O537 O 0.69282 0.28117 0.24401 0.0
C538 C 0.73125 0.21206 0.22316 0.0
C539 C 0.74675 0.2335 0.2784 0.0
C540 C 0.79265 0.23477 0.23503 0.0
C541 C 0.73433 0.26439 0.19556 0.0
C542 C 0.7566 0.30139 0.24241 0.0
C543 C 0.70213 0.26788 0.25117 0.0
O544 O 0.74766 0.21007 0.21708 0.0
O545 O 0.72889 0.22568 0.23482 0.0
O546 O 0.00041 0.49183 0.54583 0.0
Mg547 Mg -0.0048 0.52123 0.54183 0.0
O548 O 0.00028 0.48456 0.51535 0.0
Mg549 Mg 0.00765 0.51467 0.50584 0.0
O550 O 0.97983 0.52645 0.51837 0.0
O551 O 0.969 0.52966 0.54788 0.0
O552 O 0.01598 0.54482 0.49647 0.0
O553 O 0.98893 0.50927 0.47955 0.0
Mg554 Mg 0.03392 0.5154 0.46616 0.0
O555 O 0.03219 0.50314 0.49146 0.0
O556 O 0.03744 0.54489 0.47362 0.0
O557 O 0.00693 0.50724 0.45383 0.0
O558 O 0.05461 0.49562 0.47208 0.0
C559 C 0.031 0.53225 0.5438 0.0
C560 C 0.00068 0.47954 0.53246 0.0
C561 C 0.96666 0.53136 0.52992 0.0
C562 C 0.02751 0.55366 0.48553 0.0
C563 C 0.99089 0.50645 0.46186 0.0
C564 C 0.04654 0.49343 0.48815 0.0
O565 O 0.01711 0.542 0.54758 0.0
O566 O 0.02897 0.51932 0.53103 0.0
O567 O 0.7244 0.79004 0.27138 0.0
Mg568 Mg 0.71053 0.76267 0.27018 0.0
O569 O 0.73919 0.78604 0.24414 0.0
Mg570 Mg 0.74539 0.75427 0.24007 0.0
O571 O 0.73181 0.74566 0.26698 0.0
O572 O 0.71319 0.74231 0.2914 0.0
O573 O 0.75029 0.72189 0.23769 0.0
O574 O 0.77262 0.75982 0.25705 0.0
Mg575 Mg 0.77606 0.74144 0.21571 0.0
O576 O 0.75964 0.76399 0.21211 0.0
O577 O 0.7613 0.71542 0.20966 0.0
O578 O 0.79329 0.74395 0.24057 0.0
O579 O 0.78352 0.75718 0.19301 0.0
C580 C 0.69988 0.7521 0.22822 0.0
C581 C 0.73265 0.79686 0.25694 0.0
C582 C 0.72776 0.73709 0.28233 0.0
C583 C 0.7542 0.70976 0.22495 0.0
C584 C 0.78883 0.75323 0.25527 0.0
C585 C 0.76948 0.76743 0.19701 0.0
O586 O 0.69497 0.75724 0.24474 0.0
O587 O 0.71703 0.74941 0.22389 0.0
O588 O 0.73385 0.23784 0.79592 0.0
Mg589 Mg 0.72664 0.2145 0.77689 0.0
O590 O 0.74421 0.25961 0.77548 0.0
Mg591 Mg 0.7396 0.24606 0.74588 0.0
O592 O 0.74606 0.217 0.75625 0.0
O593 O 0.74353 0.1913 0.77358 0.0
O594 O 0.73441 0.23199 0.71662 0.0
O595 O 0.77207 0.24933 0.74051 0.0
Mg596 Mg 0.75174 0.27551 0.71516 0.0
O597 O 0.73185 0.27535 0.73538 0.0
O598 O 0.74333 0.25368 0.69565 0.0
O599 O 0.77905 0.27655 0.72669 0.0
O600 O 0.73683 0.29936 0.71564 0.0
C601 C 0.69505 0.22994 0.75626 0.0
C602 C 0.74076 0.25446 0.79233 0.0
C603 C 0.75184 0.20054 0.76021 0.0
C604 C 0.73643 0.23725 0.69964 0.0
C605 C 0.78426 0.2618 0.73461 0.0
C606 C 0.72751 0.29184 0.72945 0.0
O607 O 0.69976 0.21475 0.76383 0.0
O608 O 0.70749 0.24257 0.75126 0.0
O609 O 0.75516 0.75628 0.68725 0.0
Mg610 Mg 0.74245 0.78081 0.69798 0.0
O611 O 0.75179 0.73802 0.71258 0.0
Mg612 Mg 0.74502 0.75694 0.73896 0.0
O613 O 0.75345 0.78325 0.72412 0.0
O614 O 0.75874 0.80651 0.70458 0.0
O615 O 0.73855 0.77595 0.76547 0.0
O616 O 0.77655 0.75587 0.74865 0.0
Mg617 Mg 0.74928 0.73309 0.77871 0.0
O618 O 0.73616 0.7301 0.75355 0.0
O619 O 0.73817 0.75773 0.79088 0.0
O620 O 0.77835 0.73536 0.77204 0.0
O621 O 0.73259 0.70782 0.77477 0.0
C622 C 0.70466 0.76609 0.71568 0.0
C623 C 0.75609 0.74035 0.69525 0.0
C624 C 0.76151 0.79954 0.72093 0.0
C625 C 0.73588 0.77355 0.78313 0.0
C626 C 0.78617 0.7465 0.76016 0.0
C627 C 0.72871 0.71386 0.75824 0.0
O628 O 0.71292 0.7758 0.70288 0.0
O629 O 0.71371 0.75842 0.72892 0.0
O630 O 0.5483 0.50351 0.52078 0.0
Mg631 Mg 0.52926 0.48037 0.52871 0.0
O632 O 0.52669 0.52228 0.50968 0.0
Mg633 Mg 0.4972 0.50823 0.51564 0.0
O634 O 0.50733 0.47888 0.51 0.0
O635 O 0.52572 0.45482 0.51351 0.0
O636 O 0.46715 0.49484 0.52073 0.0
O637 O 0.48886 0.50821 0.48342 0.0
Mg638 Mg 0.4665 0.54009 0.50338 0.0
O639 O 0.48763 0.53704 0.52141 0.0
O640 O 0.44781 0.51629 0.51004 0.0
O641 O 0.48063 0.53734 0.47748 0.0
O642 O 0.47302 0.56362 0.52176 0.0
C643 C 0.50948 0.49727 0.56057 0.0
C644 C 0.54383 0.5188 0.5131 0.0
C645 C 0.51151 0.46187 0.50529 0.0
C646 C 0.45058 0.50001 0.51676 0.0
C647 C 0.48385 0.52065 0.4718 0.0
C648 C 0.48619 0.55378 0.52839 0.0
O649 O 0.51771 0.48244 0.55579 0.0
O650 O 0.50367 0.50859 0.54826 0.0
O651 O 0.04068 0.48128 0.98377 0.0
Mg652 Mg 0.04553 0.48218 0.01362 0.0
O653 O 0.01648 0.50016 0.98251 0.0
Mg654 Mg 0.00661 0.50714 0.01224 0.0
O655 O 0.01912 0.48157 0.02371 0.0
O656 O 0.03766 0.45891 0.03091 0.0
O657 O -0.00251 0.51378 0.0424 0.0
O658 O 0.97977 0.48754 0.00652 0.0
Mg659 Mg 0.96847 0.53108 0.01307 0.0
O660 O -0.0061 0.53322 0.00025 0.0
O661 O 0.97445 0.53392 0.04233 0.0
O662 O 0.95495 0.50521 0.00316 0.0
O663 O 0.97223 0.55414 -0.00441 0.0
C664 C 0.05097 0.5247 0.02289 0.0
C665 C 0.02868 0.4902 0.97445 0.0
C666 C 0.0213 0.46588 0.03205 0.0
C667 C 0.98642 0.52452 0.05104 0.0
C668 C 0.96235 0.48922 0.00273 0.0
C669 C 0.98889 0.54847 0.99232 0.0
O670 O 0.05799 0.50854 0.02416 0.0
O671 O 0.03382 0.52636 0.01781 0.0
C672 C 0.99311 0.18533 0.09912 0.0
C673 C 0.00237 0.19884 0.08755 0.0
C674 C -0.00438 0.16598 0.09641 0.0
C675 C 0.02898 0.13325 0.07574 0.0
H676 H 0.98616 0.09657 0.07652 0.0
C677 C 0.02155 0.06703 0.0307 0.0
C678 C 0.00729 0.05327 0.03489 0.0
C679 C 0.0268 0.08126 0.04399 0.0
C680 C -0.00153 0.10643 0.07687 0.0
H681 H 0.02057 0.20251 0.06326 0.0
H682 H 0.02458 0.16855 0.05821 0.0
H683 H 0.98157 0.12963 0.08407 0.0
H684 H 0.98939 0.04138 0.05674 0.0
H685 H -0.0011 0.06602 0.08033 0.0
H686 H 0.04573 0.11005 0.06776 0.0
C687 C 0.01583 0.17307 0.06975 0.0
C688 C -0.00426 0.1255 0.08101 0.0
C689 C 0.0133 0.19248 0.07246 0.0
C690 C 0.00041 0.05202 0.05332 0.0
C691 C 0.00575 0.0662 0.06671 0.0
C692 C 0.03174 0.11411 0.07168 0.0
C693 C 0.0074 0.15969 0.08202 0.0
C694 C 0.01081 0.13921 0.07976 0.0
C695 C 0.01762 0.08191 0.06153 0.0
C696 C 0.01634 0.10061 0.07138 0.0
H697 H 0.98449 0.18971 0.11083 0.0
H698 H 0.98887 0.15602 0.10603 0.0
H699 H 0.04097 0.14347 0.07521 0.0
H700 H 0.02696 0.06814 0.01647 0.0
H701 H 0.0361 0.09299 0.03948 0.0
C702 C 0.06472 0.75652 0.35939 0.0
C703 C 0.04806 0.74526 0.35567 0.0
C704 C 0.08034 0.75495 0.34765 0.0
C705 C 0.10407 0.72359 0.31688 0.0
H706 H 0.11775 0.76653 0.28537 0.0
C707 C 0.16042 0.71454 0.26303 0.0
C708 C 0.17473 0.72907 0.2637 0.0
C709 C 0.14257 0.71793 0.27002 0.0
C710 C 0.11417 0.75446 0.29413 0.0
H711 H 0.03483 0.72283 0.33786 0.0
H712 H 0.06246 0.71952 0.31788 0.0
H713 H 0.09341 0.76942 0.3095 0.0
H714 H 0.18139 0.75896 0.26988 0.0
H715 H 0.15068 0.76464 0.28318 0.0
H716 H 0.12509 0.70873 0.30243 0.0
C717 C 0.06325 0.72981 0.3295 0.0
C718 C 0.10037 0.75618 0.30794 0.0
C719 C 0.04754 0.7317 0.34087 0.0
C720 C 0.17048 0.74753 0.26934 0.0
C721 C 0.15282 0.75078 0.27693 0.0
C722 C 0.11803 0.72195 0.30337 0.0
C723 C 0.07952 0.74175 0.33252 0.0
C724 C 0.09522 0.74069 0.31927 0.0
C725 C 0.13915 0.73565 0.2785 0.0
C726 C 0.12316 0.73729 0.29169 0.0
H727 H 0.06531 0.76713 0.37071 0.0
H728 H 0.09292 0.76417 0.35019 0.0
H729 H 0.10023 0.71152 0.32557 0.0
H730 H 0.1634 0.70028 0.25836 0.0
H731 H 0.13199 0.70622 0.27024 0.0
C732 C 0.50254 0.82851 0.56948 0.0
C733 C 0.48946 0.81654 0.57901 0.0
C734 C 0.49924 0.84765 0.56723 0.0
C735 C 0.46348 0.88208 0.56387 0.0
H736 H 0.50592 0.91759 0.5758 0.0
C737 C 0.48373 0.94808 0.52295 0.0
C738 C 0.496 0.96212 0.53135 0.0
C739 C 0.47557 0.93355 0.53383 0.0
C740 C 0.49366 0.90809 0.57284 0.0
H741 H 0.46227 0.81502 0.59295 0.0
H742 H 0.45623 0.84859 0.58841 0.0
H743 H 0.50728 0.88456 0.5843 0.0
H744 H 0.50764 0.97372 0.55771 0.0
H745 H 0.49305 0.94857 0.57694 0.0
H746 H 0.45027 0.90553 0.55147 0.0
C747 C 0.46915 0.8431 0.583 0.0
C748 C 0.4946 0.88906 0.57749 0.0
C749 C 0.47261 0.82395 0.58556 0.0
C750 C 0.49814 0.96295 0.55102 0.0
C751 C 0.48991 0.94849 0.56196 0.0
C752 C 0.46258 0.90119 0.55905 0.0
C753 C 0.48266 0.8552 0.5742 0.0
C754 C 0.47989 0.87574 0.57234 0.0
C755 C 0.47981 0.93284 0.55324 0.0
C756 C 0.47801 0.91425 0.56279 0.0
H757 H 0.51569 0.82327 0.56435 0.0
H758 H 0.50976 0.85664 0.56013 0.0
H759 H 0.4519 0.87207 0.55988 0.0
H760 H 0.48204 0.9472 0.50773 0.0
H761 H 0.46785 0.9218 0.52661 0.0
C762 C 0.43442 0.24402 0.84609 0.0
C763 C 0.4471 0.25778 0.83842 0.0
C764 C 0.415 0.24471 0.84282 0.0
C765 C 0.37912 0.27789 0.83054 0.0
H766 H 0.35206 0.2346 0.80616 0.0
C767 C 0.32158 0.28357 0.77512 0.0
C768 C 0.30711 0.26924 0.77339 0.0
C769 C 0.33514 0.28287 0.78944 0.0
C770 C 0.35917 0.24668 0.81346 0.0
H771 H 0.44964 0.28296 0.82136 0.0
H772 H 0.41578 0.28424 0.81577 0.0
H773 H 0.38359 0.2311 0.81901 0.0
H774 H 0.29541 0.24298 0.78484 0.0
H775 H 0.31872 0.24194 0.8102 0.0
H776 H 0.35507 0.29374 0.82411 0.0
C777 C 0.4208 0.27296 0.82431 0.0
C778 C 0.37724 0.24465 0.82076 0.0
C779 C 0.44017 0.27205 0.82725 0.0
C780 C 0.30591 0.25463 0.78651 0.0
C781 C 0.31946 0.25387 0.80079 0.0
C782 C 0.36101 0.27991 0.8233 0.0
C783 C 0.40806 0.25944 0.83223 0.0
C784 C 0.38767 0.26046 0.82853 0.0
C785 C 0.33456 0.26764 0.80199 0.0
C786 C 0.35125 0.26454 0.81392 0.0
H787 H 0.43949 0.2329 0.8548 0.0
H788 H 0.4054 0.23402 0.84888 0.0
H789 H 0.38683 0.29019 0.83683 0.0
H790 H 0.32284 0.29483 0.76496 0.0
H791 H 0.34679 0.29352 0.78983 0.0
C792 C 0.978 0.8217 0.39135 0.0
C793 C 0.99009 0.81036 0.40144 0.0
C794 C 0.97665 0.84083 0.39642 0.0
C795 C 0.00394 0.88041 0.41774 0.0
H796 H 0.95811 0.89804 0.44013 0.0
C797 C 0.00379 0.92896 0.48143 0.0
C798 C 0.99232 0.94451 0.48197 0.0
C799 C 0.00276 0.91626 0.46613 0.0
C800 C 0.97083 0.89356 0.43336 0.0
H801 H 0.01006 0.80981 0.4247 0.0
H802 H 0.00804 0.84339 0.43327 0.0
H803 H 0.95716 0.86744 0.42288 0.0
H804 H 0.97089 0.95923 0.46709 0.0
H805 H 0.96837 0.93613 0.44046 0.0
H806 H 0.01792 0.90578 0.42932 0.0
C807 C -0.00042 0.83744 0.42154 0.0
C808 C 0.97029 0.8761 0.42359 0.0
C809 C 0.0006 0.81827 0.41678 0.0
C810 C 0.97979 0.94722 0.46693 0.0
C811 C 0.9784 0.93416 0.45176 0.0
C812 C 0.00447 0.89782 0.42742 0.0
C813 C 0.98776 0.84886 0.41129 0.0
C814 C 0.98707 0.86903 0.41666 0.0
C815 C 0.99 0.91868 0.45125 0.0
C816 C 0.98815 0.90397 0.43621 0.0
H817 H 0.96967 0.81578 0.37952 0.0
H818 H 0.96732 0.84943 0.38852 0.0
H819 H 0.01697 0.87521 0.41225 0.0
H820 H 0.01376 0.92676 0.49273 0.0
H821 H 0.01166 0.90425 0.46613 0.0
C822 C 0.43281 0.7533 0.66351 0.0
C823 C 0.43835 0.76691 0.65016 0.0
C824 C 0.41582 0.75441 0.6731 0.0
C825 C 0.36899 0.7743 0.67133 0.0
H826 H 0.3683 0.75921 0.72367 0.0
C827 C 0.30081 0.76867 0.71738 0.0
C828 C 0.29791 0.75058 0.72523 0.0
C829 C 0.31819 0.77408 0.70915 0.0
C830 C 0.36829 0.76357 0.7091 0.0
H831 H 0.43023 0.7923 0.63617 0.0
H832 H 0.40039 0.79445 0.65332 0.0
H833 H 0.39828 0.76263 0.70715 0.0
H834 H 0.31112 0.72428 0.73119 0.0
H835 H 0.34132 0.73385 0.71724 0.0
H836 H 0.33879 0.77492 0.67339 0.0
C837 C 0.40926 0.78282 0.6562 0.0
C838 C 0.38543 0.76543 0.69959 0.0
C839 C 0.42634 0.78163 0.64645 0.0
C840 C 0.31286 0.73829 0.72522 0.0
C841 C 0.33021 0.7438 0.71732 0.0
C842 C 0.35177 0.77259 0.68095 0.0
C843 C 0.40391 0.76928 0.66977 0.0
C844 C 0.38594 0.77017 0.68041 0.0
C845 C 0.33301 0.76164 0.70902 0.0
C846 C 0.35125 0.76662 0.69974 0.0
H847 H 0.44155 0.74158 0.66649 0.0
H848 H 0.41192 0.74341 0.68302 0.0
H849 H 0.36888 0.77792 0.65655 0.0
H850 H 0.28953 0.77841 0.71715 0.0
H851 H 0.32005 0.78794 0.70288 0.0
C852 C 0.49598 0.19058 0.89803 0.0
C853 C 0.48807 0.20584 0.90746 0.0
C854 C 0.49803 0.17357 0.9073 0.0
C855 C 0.50236 0.15764 0.95646 0.0
H856 H 0.50973 0.1094 0.93104 0.0
C857 C 0.51534 0.08354 0.98822 0.0
C858 C 0.52947 0.07369 0.97898 0.0
C859 C 0.51112 0.10162 0.98239 0.0
C860 C 0.50781 0.12288 0.93824 0.0
H861 H 0.47411 0.215 0.93282 0.0
H862 H 0.4762 0.18469 0.94859 0.0
H863 H 0.49595 0.13468 0.91371 0.0
H864 H 0.55226 0.07619 0.95867 0.0
H865 H 0.54466 0.10767 0.94843 0.0
H866 H 0.51364 0.1452 0.98123 0.0
C867 C 0.48187 0.18609 0.93451 0.0
C868 C 0.49993 0.13736 0.92834 0.0
C869 C 0.4804 0.20333 0.92544 0.0
C870 C 0.54095 0.08321 0.96569 0.0
C871 C 0.53666 0.10121 0.95984 0.0
C872 C 0.50986 0.14293 0.96648 0.0
C873 C 0.49173 0.17143 0.92599 0.0
C874 C 0.4975 0.1551 0.93718 0.0
C875 C 0.52101 0.10996 0.96735 0.0
C876 C 0.51303 0.12566 0.95727 0.0
H877 H 0.50218 0.19238 0.88419 0.0
H878 H 0.50586 0.16277 0.90026 0.0
H879 H 0.50105 0.17117 0.96371 0.0
H880 H 0.50644 0.07668 -0.00127 0.0
H881 H 0.49907 0.10827 0.98843 0.0
C882 C 0.07128 0.25224 0.1374 0.0
C883 C 0.05442 0.25943 0.14409 0.0
C884 C 0.08648 0.25013 0.1497 0.0
C885 C 0.10951 0.26854 0.19229 0.0
H886 H 0.1321 0.21971 0.19345 0.0
C887 C 0.17982 0.26156 0.23149 0.0
C888 C 0.1931 0.25222 0.22069 0.0
C889 C 0.16058 0.25956 0.2266 0.0
C890 C 0.12602 0.23346 0.19328 0.0
H891 H 0.04048 0.27067 0.16872 0.0
H892 H 0.0675 0.26771 0.19009 0.0
H893 H 0.10335 0.22312 0.17491 0.0
H894 H 0.19705 0.23278 0.19722 0.0
H895 H 0.16382 0.22942 0.18848 0.0
H896 H 0.1327 0.27932 0.20955 0.0
C897 C 0.06871 0.26338 0.1754 0.0
C898 C 0.10955 0.23537 0.18269 0.0
C899 C 0.05331 0.2651 0.16319 0.0
C900 C 0.18692 0.23995 0.20582 0.0
C901 C 0.16782 0.23799 0.20089 0.0
C902 C 0.12617 0.26673 0.20263 0.0
C903 C 0.08528 0.25553 0.16883 0.0
C904 C 0.10142 0.25304 0.18173 0.0
C905 C 0.15445 0.24836 0.21073 0.0
C906 C 0.13496 0.2493 0.20283 0.0
H907 H 0.07252 0.24761 0.1228 0.0
H908 H 0.09921 0.24425 0.14425 0.0
H909 H 0.1035 0.28232 0.19173 0.0
H910 H 0.1844 0.2712 0.24295 0.0
H911 H 0.15064 0.26747 0.23471 0.0
C912 C 0.08383 0.97753 0.20795 0.0
C913 C 0.10159 0.98724 0.21001 0.0
C914 C 0.07395 0.97793 0.19087 0.0
C915 C 0.06611 0.00905 0.1529 0.0
H916 H 0.04681 0.96448 0.12438 0.0
C917 C 0.03734 0.01092 0.07696 0.0
C918 C 0.02524 -0.00429 0.07051 0.0
C919 C 0.04344 0.01181 0.09574 0.0
C920 C 0.05162 0.9771 0.13242 0.0
H921 H 0.12338 0.00432 0.19577 0.0
H922 H 0.10574 0.00549 0.16604 0.0
H923 H 0.06566 0.96064 0.15274 0.0
H924 H 0.0082 0.97081 0.07851 0.0
H925 H 0.01782 0.97298 0.1117 0.0
H926 H 0.05186 0.0256 0.13288 0.0
C927 C 0.09961 -0.00251 0.1776 0.0
C928 C 0.06263 0.97484 0.1485 0.0
C929 C 0.10969 -0.00329 0.19452 0.0
C930 C 0.01755 0.98267 0.08335 0.0
C931 C 0.02331 0.98378 0.10222 0.0
C932 C 0.05481 0.01134 0.13697 0.0
C933 C 0.08152 0.98842 0.17582 0.0
C934 C 0.07008 0.99079 0.15873 0.0
C935 C 0.03733 -0.00244 0.1083 0.0
C936 C 0.04755 0.99538 0.12643 0.0
H937 H 0.0774 0.97002 0.21966 0.0
H938 H 0.06003 0.97078 0.18969 0.0
H939 H 0.07158 0.02154 0.1608 0.0
H940 H 0.04354 0.02099 0.0671 0.0
H941 H 0.05422 0.02265 0.09986 0.0
C942 C 0.24187 0.82461 0.43951 0.0
C943 C 0.23762 0.84344 0.44354 0.0
C944 C 0.24481 0.81864 0.421 0.0
C945 C 0.23669 0.82766 0.37158 0.0
H946 H 0.28025 0.79704 0.36592 0.0
C947 C 0.24937 0.78417 0.30356 0.0
C948 C 0.24971 0.76477 0.30776 0.0
C949 C 0.252 0.79803 0.31791 0.0
C950 C 0.26822 0.80579 0.36722 0.0
H951 H 0.23175 0.87052 0.43142 0.0
H952 H 0.23682 0.8599 0.39872 0.0
H953 H 0.27495 0.81344 0.39592 0.0
H954 H 0.25431 0.74471 0.3299 0.0
H955 H 0.25902 0.7688 0.35479 0.0
H956 H 0.22946 0.81915 0.34312 0.0
C957 C 0.238 0.84988 0.40999 0.0
C958 C 0.26511 0.81506 0.38436 0.0
C959 C 0.23498 0.85588 0.42862 0.0
C960 C 0.25385 0.75954 0.32626 0.0
C961 C 0.25673 0.77335 0.34048 0.0
C962 C 0.23982 0.81836 0.35435 0.0
C963 C 0.24365 0.83142 0.40617 0.0
C964 C 0.24881 0.82523 0.38697 0.0
C965 C 0.25534 0.79267 0.33654 0.0
C966 C 0.25508 0.80658 0.35239 0.0
H967 H 0.24372 0.81467 0.45075 0.0
H968 H 0.24853 0.80412 0.41834 0.0
H969 H 0.2241 0.83554 0.37324 0.0
H970 H 0.2462 0.78861 0.2894 0.0
H971 H 0.25089 0.81286 0.31457 0.0
C972 C 0.39153 0.01675 0.68602 0.0
C973 C 0.39832 0.02862 0.70103 0.0
C974 C 0.40123 0.01655 0.66901 0.0
C975 C 0.43602 0.04165 0.63999 0.0
H976 H 0.45328 0.99149 0.62798 0.0
C977 C 0.4828 0.0334 0.57739 0.0
C978 C 0.47492 0.01965 0.5647 0.0
C979 C 0.47794 0.03267 0.59638 0.0
C980 C 0.4486 0.00556 0.63121 0.0
H981 H 0.419 0.05109 0.70959 0.0
H982 H 0.43572 0.05106 0.67959 0.0
H983 H 0.43184 -0.00427 0.65442 0.0
H984 H 0.45783 0.99335 0.56141 0.0
H985 H 0.44878 0.99227 0.59443 0.0
H986 H 0.45202 0.05148 0.61647 0.0
C987 C 0.4232 0.04167 0.68114 0.0
C988 C 0.43624 0.00793 0.64615 0.0
C989 C 0.41372 0.04163 0.69824 0.0
C990 C 0.46389 0.0041 0.57122 0.0
C991 C 0.45886 0.00345 0.59012 0.0
C992 C 0.44819 0.03926 0.62493 0.0
C993 C 0.41753 0.02851 0.6668 0.0
C994 C 0.42979 0.02597 0.6505 0.0
C995 C 0.46484 0.01843 0.60257 0.0
C996 C 0.4545 0.02118 0.6203 0.0
H997 H 0.37957 0.00668 0.68784 0.0
H998 H 0.39654 0.00651 0.65792 0.0
H999 H 0.43117 0.05566 0.6432 0.0
H1000 H 0.49147 0.0454 0.5724 0.0
H1001 H 0.48312 0.0441 0.60586 0.0
C1002 C 0.27199 0.18953 0.92976 0.0
C1003 C 0.26664 0.17085 0.9346 0.0
C1004 C 0.27251 0.19466 0.91083 0.0
C1005 C 0.26773 0.17478 0.86105 0.0
H1006 H 0.25321 0.22594 0.85155 0.0
C1007 C 0.22944 0.20932 0.79761 0.0
C1008 C 0.23916 0.22574 0.79104 0.0
C1009 C 0.23742 0.19882 0.81181 0.0
C1010 C 0.25753 0.21168 0.85404 0.0
H1011 H 0.25753 0.14284 0.92377 0.0
H1012 H 0.2571 0.15196 0.89085 0.0
H1013 H 0.25724 0.2161 0.88379 0.0
H1014 H 0.2647 0.24374 0.79321 0.0
H1015 H 0.27876 0.22549 0.8182 0.0
H1016 H 0.26634 0.17029 0.83088 0.0
C1017 C 0.26188 0.16255 0.90138 0.0
C1018 C 0.26001 0.20602 0.87254 0.0
C1019 C 0.26202 0.15729 0.92028 0.0
C1020 C 0.2575 0.23063 0.79756 0.0
C1021 C 0.26537 0.22034 0.81196 0.0
C1022 C 0.26477 0.18038 0.84245 0.0
C1023 C 0.26691 0.18139 0.89636 0.0
C1024 C 0.26516 0.18749 0.8764 0.0
C1025 C 0.25495 0.20496 0.8198 0.0
C1026 C 0.25972 0.1989 0.8389 0.0
H1027 H 0.27568 0.20019 0.94063 0.0
H1028 H 0.27703 0.20916 0.90763 0.0
H1029 H 0.27194 0.16048 0.86333 0.0
H1030 H 0.2151 0.20557 0.79292 0.0
H1031 H 0.22906 0.18716 0.81789 0.0
C1032 C 0.10447 0.98606 0.331 0.0
C1033 C 0.09252 0.99168 0.31649 0.0
C1034 C 0.09781 0.98447 0.34949 0.0
C1035 C 0.0608 0.00292 0.37978 0.0
H1036 H 0.07378 0.96363 0.41442 0.0
C1037 C 0.02184 0.99048 0.44783 0.0
C1038 C 0.02964 0.00569 0.45897 0.0
C1039 C 0.03245 0.98278 0.43327 0.0
C1040 C 0.07011 0.9746 0.40479 0.0
H1041 H 0.06404 -0.00081 0.30972 0.0
H1042 H 0.05232 -0.00402 0.34173 0.0
H1043 H 0.08574 0.96297 0.38182 0.0
H1044 H 0.05496 0.02325 0.46549 0.0
H1045 H 0.07361 0.00958 0.44023 0.0
H1046 H 0.0452 0.0145 0.4026 0.0
C1047 C 0.06696 0.99326 0.33902 0.0
C1048 C 0.07698 0.97433 0.38626 0.0
C1049 C 0.07364 0.99502 0.32064 0.0
C1050 C 0.04881 0.01137 0.45712 0.0
C1051 C 0.05946 0.00355 0.44273 0.0
C1052 C 0.05402 0.00317 0.39815 0.0
C1053 C 0.07905 0.98837 0.35374 0.0
C1054 C 0.07223 0.98843 0.37352 0.0
C1055 C 0.05093 0.99016 0.42995 0.0
C1056 C 0.05853 0.98902 0.41072 0.0
H1057 H 0.11913 0.9835 0.32821 0.0
H1058 H 0.10752 0.98086 0.36055 0.0
H1059 H 0.05723 0.01424 0.37054 0.0
H1060 H 0.00696 0.98614 0.44889 0.0
H1061 H 0.02556 0.97266 0.42335 0.0
C1062 C 0.24844 0.83589 0.55064 0.0
C1063 C 0.23955 0.85312 0.5497 0.0
C1064 C 0.25083 0.82736 0.56792 0.0
C1065 C 0.2468 0.83565 0.61953 0.0
H1066 H 0.23114 0.7819 0.61937 0.0
C1067 C 0.21048 0.80226 0.68151 0.0
C1068 C 0.22134 0.78927 0.69088 0.0
C1069 C 0.21486 0.80724 0.66315 0.0
C1070 C 0.2358 0.79682 0.6195 0.0
H1071 H 0.22665 0.87538 0.56574 0.0
H1072 H 0.22966 0.85989 0.59596 0.0
H1073 H 0.23706 0.79768 0.58947 0.0
H1074 H 0.24367 0.7695 0.68765 0.0
H1075 H 0.25114 0.77831 0.65528 0.0
H1076 H 0.24422 0.83491 0.64955 0.0
C1077 C 0.23539 0.85323 0.5835 0.0
C1078 C 0.23932 0.80586 0.6025 0.0
C1079 C 0.23339 0.86197 0.56623 0.0
C1080 C 0.23524 0.77978 0.68086 0.0
C1081 C 0.23955 0.78475 0.6624 0.0
C1082 C 0.24303 0.82668 0.63645 0.0
C1083 C 0.24398 0.83574 0.58446 0.0
C1084 C 0.2441 0.82552 0.60236 0.0
C1085 C 0.22997 0.79916 0.65391 0.0
C1086 C 0.23684 0.80743 0.6364 0.0
H1087 H 0.25379 0.82914 0.53803 0.0
H1088 H 0.25783 0.8141 0.56831 0.0
H1089 H 0.25098 0.85069 0.61985 0.0
H1090 H 0.19944 0.8095 0.68873 0.0
H1091 H 0.20714 0.81817 0.65649 0.0
C1092 C 0.42551 0.00093 0.81052 0.0
C1093 C 0.41382 0.01559 0.80603 0.0
C1094 C 0.43001 -0.00244 0.82918 0.0
C1095 C 0.417 0.00719 0.87874 0.0
H1096 H 0.46887 0.99444 0.88703 0.0
C1097 C 0.46147 0.0122 0.94804 0.0
C1098 C 0.47546 -0.00103 0.94927 0.0
C1099 C 0.44854 0.01087 0.93301 0.0
C1100 C 0.45422 -0.00241 0.88494 0.0
H1101 H 0.39753 0.03825 0.8174 0.0
H1102 H 0.40645 0.03308 0.85037 0.0
H1103 H 0.45832 0.0008 0.85549 0.0
H1104 H 0.48551 0.97266 0.93795 0.0
H1105 H 0.46251 0.96991 0.91213 0.0
H1106 H 0.41351 0.00484 0.90876 0.0
C1107 C 0.41164 0.02386 0.83938 0.0
C1108 C 0.44817 0.00131 0.86683 0.0
C1109 C 0.40675 0.02698 0.82057 0.0
C1110 C 0.47488 0.98308 0.93704 0.0
C1111 C 0.46175 0.98153 0.92234 0.0
C1112 C 0.4232 0.00369 0.89709 0.0
C1113 C 0.42337 0.00911 0.84382 0.0
C1114 C 0.42948 0.00594 0.86344 0.0
C1115 C 0.44953 -0.00379 0.91935 0.0
C1116 C 0.44184 -0.00135 0.90024 0.0
H1117 H 0.43071 0.99157 0.79964 0.0
H1118 H 0.43863 0.98575 0.83213 0.0
H1119 H 0.40248 0.01068 0.8765 0.0
H1120 H 0.4618 0.02457 0.95743 0.0
H1121 H 0.43923 0.02235 0.93099 0.0
C1122 C 0.27316 0.13948 0.05444 0.0
C1123 C 0.27123 0.15428 0.04164 0.0
C1124 C 0.27126 0.14279 0.07381 0.0
C1125 C 0.24878 0.17458 0.10692 0.0
H1126 H 0.28769 0.16281 0.14292 0.0
C1127 C 0.24807 0.20495 0.18186 0.0
C1128 C 0.26385 0.2178 0.18396 0.0
C1129 C 0.24783 0.19066 0.16789 0.0
C1130 C 0.27653 0.16577 0.13307 0.0
H1131 H 0.26674 0.18433 0.0392 0.0
H1132 H 0.26355 0.19011 0.07308 0.0
H1133 H 0.2895 0.15119 0.11014 0.0
H1134 H 0.29219 0.22526 0.17454 0.0
H1135 H 0.2921 0.19985 0.15038 0.0
H1136 H 0.23626 0.18989 0.1295 0.0
C1137 C 0.26619 0.17589 0.06801 0.0
C1138 C 0.27757 0.15919 0.11438 0.0
C1139 C 0.26825 0.17264 0.04866 0.0
C1140 C 0.27993 0.21542 0.17303 0.0
C1141 C 0.27989 0.20083 0.1594 0.0
C1142 C 0.24759 0.1809 0.12561 0.0
C1143 C 0.26726 0.16091 0.08067 0.0
C1144 C 0.26423 0.16442 0.10099 0.0
C1145 C 0.26357 0.18885 0.1562 0.0
C1146 C 0.26196 0.17736 0.13858 0.0
H1147 H 0.27553 0.12517 0.04947 0.0
H1148 H 0.27226 0.13107 0.08334 0.0
H1149 H 0.23813 0.17844 0.09688 0.0
H1150 H 0.2355 0.20672 0.19021 0.0
H1151 H 0.23506 0.18167 0.16558 0.0
C1152 C 0.19335 0.12285 0.99282 0.0
C1153 C 0.20731 0.11559 0.98112 0.0
C1154 C 0.17574 0.11304 -0.00551 0.0
C1155 C 0.15362 0.06479 0.98801 0.0
H1156 H 0.10614 0.08958 0.98964 0.0
C1157 C 0.08428 0.0205 0.98239 0.0
C1158 C 0.06994 0.02492 -0.00504 0.0
C1159 C 0.09976 0.03327 0.97991 0.0
C1160 C 0.1193 0.08249 0.98935 0.0
H1161 H 0.21358 0.09298 0.96135 0.0
H1162 H 0.18268 0.0762 0.96372 0.0
H1163 H 0.13592 0.10877 0.9872 0.0
H1164 H 0.05991 0.04627 0.01431 0.0
H1165 H 0.08746 0.06849 0.01051 0.0
H1166 H 0.13727 0.03861 0.9903 0.0
C1167 C 0.18549 0.08914 0.97206 0.0
C1168 C 0.13634 0.09347 0.98797 0.0
C1169 C 0.20312 0.0988 0.97058 0.0
C1170 C 0.07081 0.04268 0.00441 0.0
C1171 C 0.08655 0.05536 0.00222 0.0
C1172 C 0.1367 0.05389 0.9894 0.0
C1173 C 0.17174 0.09591 0.98433 0.0
C1174 C 0.15364 0.08466 0.9869 0.0
C1175 C 0.10145 0.05051 0.99036 0.0
C1176 C 0.11932 0.06254 0.9897 0.0
H1177 H 0.1963 0.13568 0.0013 0.0
H1178 H 0.16552 0.11852 0.00419 0.0
H1179 H 0.16674 0.05761 0.98782 0.0
H1180 H 0.08374 0.00694 0.97482 0.0
H1181 H 0.11071 0.02937 0.97022 0.0
C1182 C 0.69046 0.41903 0.99062 0.0
C1183 C 0.70311 0.41961 0.00595 0.0
C1184 C 0.67313 0.42742 0.9924 0.0
C1185 C 0.65204 0.4642 0.02182 0.0
H1186 H 0.60444 0.44443 -5e-05 0.0
C1187 C 0.57664 0.47992 0.04506 0.0
C1188 C 0.56426 0.48461 0.0306 0.0
C1189 C 0.59511 0.4757 0.04077 0.0
C1190 C 0.61778 0.45017 0.00584 0.0
H1191 H 0.70704 0.42711 0.0356 0.0
H1192 H 0.67666 0.44095 0.03896 0.0
H1193 H 0.63289 0.42686 -0.00489 0.0
H1194 H 0.56164 0.49018 0.00067 0.0
H1195 H 0.59381 0.48205 0.99316 0.0
H1196 H 0.63661 0.48692 0.03342 0.0
C1197 C 0.6804 0.43516 0.02529 0.0
C1198 C 0.63398 0.44017 0.0031 0.0
C1199 C 0.69776 0.42725 0.02338 0.0
C1200 C 0.57096 0.48655 0.01207 0.0
C1201 C 0.58925 0.48188 0.00773 0.0
C1202 C 0.63581 0.474 0.0248 0.0
C1203 C 0.66827 0.43607 0.00965 0.0
C1204 C 0.65119 0.44695 0.01136 0.0
C1205 C 0.60112 0.47578 0.02195 0.0
C1206 C 0.61861 0.46692 0.01698 0.0
H1207 H 0.69426 0.41278 0.97716 0.0
H1208 H 0.66392 0.42776 0.98016 0.0
H1209 H 0.66523 0.47002 0.02795 0.0
H1210 H 0.57177 0.47855 0.05946 0.0
H1211 H 0.60422 0.47103 0.05189 0.0
C1212 C 0.86358 0.44157 0.25143 0.0
C1213 C 0.8577 0.45575 0.26392 0.0
C1214 C 0.85487 0.42331 0.25159 0.0
C1215 C 0.80966 0.39977 0.26541 0.0
H1216 H 0.83428 0.35352 0.25245 0.0
C1217 C 0.768 0.32814 0.26338 0.0
C1218 C 0.77057 0.31673 0.24731 0.0
C1219 C 0.7806 0.3436 0.26746 0.0
C1220 C 0.82726 0.36636 0.25604 0.0
H1221 H 0.83933 0.46187 0.28729 0.0
H1222 H 0.82468 0.42973 0.28824 0.0
H1223 H 0.85324 0.38346 0.25662 0.0
H1224 H 0.78816 0.31179 0.22306 0.0
H1225 H 0.81002 0.33942 0.22979 0.0
H1226 H 0.78372 0.38286 0.26465 0.0
C1227 C 0.83545 0.43283 0.27779 0.0
C1228 C 0.83808 0.38348 0.25841 0.0
C1229 C 0.84387 0.45118 0.27735 0.0
C1230 C 0.7861 0.32053 0.23558 0.0
C1231 C 0.7986 0.33619 0.2395 0.0
C1232 C 0.79892 0.38272 0.26317 0.0
C1233 C 0.84038 0.41888 0.26449 0.0
C1234 C 0.82935 0.40039 0.26306 0.0
C1235 C 0.79575 0.34807 0.25532 0.0
C1236 C 0.80757 0.36586 0.25841 0.0
H1237 H 0.87418 0.44484 0.24085 0.0
H1238 H 0.85887 0.413 0.24101 0.0
H1239 H 0.80239 0.41258 0.26845 0.0
H1240 H 0.75614 0.32519 0.27264 0.0
H1241 H 0.77829 0.35231 0.27993 0.0
C1242 C 0.81825 0.5959 0.4733 0.0
C1243 C 0.80428 0.59234 0.48696 0.0
C1244 C 0.8363 0.58897 0.47554 0.0
C1245 C 0.8614 0.55359 0.50339 0.0
H1246 H 0.90686 0.58315 0.48958 0.0
C1247 C 0.93369 0.54084 0.53523 0.0
C1248 C 0.94874 0.53841 0.52274 0.0
C1249 C 0.91661 0.54723 0.52877 0.0
C1250 C 0.89424 0.57469 0.49329 0.0
H1251 H 0.79849 0.57973 0.51408 0.0
H1252 H 0.82983 0.56846 0.51839 0.0
H1253 H 0.8758 0.59492 0.48224 0.0
H1254 H 0.95771 0.5411 0.49365 0.0
H1255 H 0.92764 0.55263 0.48237 0.0
H1256 H 0.87979 0.53385 0.51519 0.0
C1257 C 0.8268 0.57567 0.50546 0.0
C1258 C 0.87645 0.58137 0.48906 0.0
C1259 C 0.80878 0.58218 0.50303 0.0
C1260 C 0.94637 0.54279 0.50361 0.0
C1261 C 0.92924 0.54946 0.49717 0.0
C1262 C 0.87908 0.54712 0.50784 0.0
C1263 C 0.84077 0.57869 0.49166 0.0
C1264 C 0.85979 0.57106 0.49442 0.0
C1265 C 0.91417 0.55153 0.50969 0.0
C1266 C 0.89565 0.55773 0.50314 0.0
H1267 H 0.81517 0.60388 0.46086 0.0
H1268 H 0.84666 0.59151 0.46458 0.0
H1269 H 0.84896 0.54495 0.50724 0.0
H1270 H 0.93501 0.53765 0.55005 0.0
H1271 H 0.90527 0.54889 0.53874 0.0
C1272 C 0.13917 0.06662 0.25889 0.0
C1273 C 0.15094 0.05204 0.26377 0.0
C1274 C 0.14684 0.08492 0.25562 0.0
C1275 C 0.1866 0.11727 0.2681 0.0
H1276 H 0.17385 0.14474 0.22321 0.0
C1277 C 0.20965 0.19346 0.26508 0.0
C1278 C 0.22488 0.19535 0.25268 0.0
C1279 C 0.19611 0.17852 0.26253 0.0
C1280 C 0.17735 0.1372 0.23581 0.0
H1281 H 0.17992 0.04534 0.26947 0.0
H1282 H 0.19323 0.07754 0.26424 0.0
H1283 H 0.16048 0.11206 0.2275 0.0
H1284 H 0.23702 0.18504 0.22675 0.0
H1285 H 0.21322 0.1586 0.22228 0.0
H1286 H 0.20335 0.14221 0.27652 0.0
C1287 C 0.1781 0.07465 0.26275 0.0
C1288 C 0.16976 0.11863 0.23828 0.0
C1289 C 0.17048 0.05627 0.26578 0.0
C1290 C 0.22518 0.18381 0.23633 0.0
C1291 C 0.21162 0.16874 0.23379 0.0
C1292 C 0.19387 0.13581 0.26579 0.0
C1293 C 0.16636 0.08906 0.25744 0.0
C1294 C 0.17439 0.10855 0.25446 0.0
C1295 C 0.19788 0.16525 0.24768 0.0
C1296 C 0.18923 0.14594 0.24973 0.0
H1297 H 0.12407 0.0638 0.25713 0.0
H1298 H 0.13748 0.09589 0.25181 0.0
H1299 H 0.19032 0.10985 0.28071 0.0
H1300 H 0.20936 0.20222 0.27784 0.0
H1301 H 0.18555 0.17607 0.27333 0.0
C1302 C 0.29895 0.91863 0.48083 0.0
C1303 C 0.29456 0.90316 0.49235 0.0
C1304 C 0.31751 0.92616 0.47989 0.0
C1305 C 0.36701 0.91546 0.49058 0.0
H1306 H 0.37486 0.97004 0.48594 0.0
C1307 C 0.43669 0.96338 0.50065 0.0
C1308 C 0.43857 0.97831 0.48789 0.0
C1309 C 0.42105 0.9504 0.4993 0.0
C1310 C 0.37284 0.95474 0.48701 0.0
H1311 H 0.30553 0.88364 0.51235 0.0
H1312 H 0.33788 0.8974 0.51146 0.0
H1313 H 0.34298 0.9561 0.48897 0.0
H1314 H 0.42746 0.99023 0.46251 0.0
H1315 H 0.40044 0.96725 0.45982 0.0
H1316 H 0.39724 0.91449 0.48932 0.0
C1317 C 0.32727 0.90325 0.50256 0.0
C1318 C 0.35459 0.94675 0.48871 0.0
C1319 C 0.30879 0.89545 0.50314 0.0
C1320 C 0.42609 0.97885 0.47254 0.0
C1321 C 0.41069 0.96579 0.47104 0.0
C1322 C 0.3854 0.92356 0.48912 0.0
C1323 C 0.33184 0.91864 0.49085 0.0
C1324 C 0.35142 0.92701 0.49014 0.0
C1325 C 0.40741 0.95231 0.48511 0.0
C1326 C 0.38834 0.94321 0.48691 0.0
H1327 H 0.28811 0.92464 0.47232 0.0
H1328 H 0.32064 0.93777 0.47044 0.0
H1329 H 0.36499 0.90017 0.49164 0.0
H1330 H 0.44615 0.96292 0.51269 0.0
H1331 H 0.41873 0.9401 0.5103 0.0
C1332 C 0.84125 0.57343 0.26428 0.0
C1333 C 0.84042 0.55986 0.24948 0.0
C1334 C 0.83199 0.59034 0.26244 0.0
C1335 C 0.79174 0.60687 0.23582 0.0
H1336 H 0.80785 0.65694 0.25558 0.0
C1337 C 0.75846 0.6761 0.21577 0.0
C1338 C 0.75667 0.68997 0.23005 0.0
C1339 C 0.76672 0.65915 0.21974 0.0
C1340 C 0.80311 0.64292 0.25028 0.0
H1341 H 0.83157 0.55398 0.22051 0.0
H1342 H 0.81613 0.58361 0.21701 0.0
H1343 H 0.82893 0.63076 0.25841 0.0
H1344 H 0.76039 0.69635 0.26003 0.0
H1345 H 0.77493 0.66668 0.26691 0.0
H1346 H 0.76618 0.61906 0.22726 0.0
C1347 C 0.82295 0.58094 0.23035 0.0
C1348 C 0.81517 0.62801 0.25183 0.0
C1349 C 0.83177 0.56401 0.23234 0.0
C1350 C 0.76156 0.68587 0.24874 0.0
C1351 C 0.77011 0.66904 0.25265 0.0
C1352 C 0.7798 0.62174 0.23416 0.0
C1353 C 0.82216 0.59386 0.24565 0.0
C1354 C 0.80965 0.60988 0.24442 0.0
C1355 C 0.77345 0.65595 0.23802 0.0
C1356 C 0.7854 0.63989 0.24128 0.0
H1357 H 0.84815 0.57055 0.27752 0.0
H1358 H 0.83173 0.60014 0.27441 0.0
H1359 H 0.78688 0.59293 0.23039 0.0
H1360 H 0.75475 0.67893 0.20128 0.0
H1361 H 0.76911 0.64922 0.20823 0.0
C1362 C 0.65823 0.4364 0.77348 0.0
C1363 C 0.66622 0.44826 0.75959 0.0
C1364 C 0.66203 0.41712 0.7737 0.0
C1365 C 0.69618 0.38358 0.75614 0.0
H1366 H 0.65534 0.34477 0.76037 0.0
C1367 C 0.70036 0.3115 0.72437 0.0
C1368 C 0.71153 0.30182 0.73701 0.0
C1369 C 0.68924 0.32584 0.73093 0.0
C1370 C 0.66682 0.35553 0.75952 0.0
H1371 H 0.68438 0.44924 0.73505 0.0
H1372 H 0.69079 0.4158 0.73532 0.0
H1373 H 0.64879 0.37859 0.76446 0.0
H1374 H 0.71815 0.29761 0.76643 0.0
H1375 H 0.69909 0.32352 0.77794 0.0
H1376 H 0.71403 0.36071 0.75052 0.0
C1377 C 0.68193 0.42138 0.74628 0.0
C1378 C 0.66315 0.37479 0.76184 0.0
C1379 C 0.67825 0.44057 0.74613 0.0
C1380 C 0.70965 0.30499 0.75649 0.0
C1381 C 0.69872 0.31968 0.76306 0.0
C1382 C 0.69983 0.36449 0.75398 0.0
C1383 C 0.67383 0.40942 0.76002 0.0
C1384 C 0.67776 0.38899 0.75974 0.0
C1385 C 0.68935 0.33082 0.75017 0.0
C1386 C 0.68518 0.35039 0.7554 0.0
H1387 H 0.64886 0.44194 0.78401 0.0
H1388 H 0.65575 0.40825 0.78455 0.0
H1389 H 0.70775 0.39416 0.75461 0.0
H1390 H 0.70151 0.3091 0.70927 0.0
H1391 H 0.68228 0.33444 0.72077 0.0
C1392 C 0.99093 0.82407 0.88995 0.0
C1393 C -0.00502 0.80865 0.90133 0.0
C1394 C 0.98974 0.84229 0.8979 0.0
C1395 C 0.00919 0.87113 0.93661 0.0
H1396 H 0.96592 0.90238 0.93307 0.0
C1397 C -0.00075 0.92588 0.99111 0.0
C1398 C 0.00724 0.9433 0.98504 0.0
C1399 C 0.99205 0.91237 0.97796 0.0
C1400 C 0.97814 0.89386 0.93383 0.0
H1401 H 0.00045 0.80013 0.92999 0.0
H1402 H -0.00129 0.83202 0.9438 0.0
H1403 H 0.96589 0.87178 0.91535 0.0
H1404 H 0.0124 0.9613 0.96105 0.0
H1405 H 0.00029 0.93716 0.93776 0.0
H1406 H 0.02132 0.89276 0.9553 0.0
C1407 C -0.00358 0.82993 0.92874 0.0
C1408 C 0.97814 0.87647 0.92381 0.0
C1409 C -0.00263 0.81171 0.92086 0.0
C1410 C 0.00605 0.94796 0.96593 0.0
C1411 C -0.00087 0.93423 0.95266 0.0
C1412 C 0.00926 0.88842 0.9464 0.0
C1413 C 0.99284 0.84538 0.9173 0.0
C1414 C 0.99344 0.86474 0.92568 0.0
C1415 C 0.99315 0.91601 0.95861 0.0
C1416 C 0.99355 0.8996 0.94553 0.0
H1417 H 0.9889 0.82212 0.87484 0.0
H1418 H 0.98703 0.85403 0.88884 0.0
H1419 H 0.02127 0.86247 0.93797 0.0
H1420 H 0.00019 0.92207 0.00581 0.0
H1421 H 0.98761 0.89831 0.98275 0.0
C1422 C 0.93005 0.2653 0.65872 0.0
C1423 C 0.9446 0.25329 0.66266 0.0
C1424 C 0.91206 0.26158 0.66618 0.0
C1425 C 0.88825 0.23617 0.70513 0.0
H1426 H 0.84358 0.25218 0.67944 0.0
C1427 C 0.80926 0.2382 0.73233 0.0
C1428 C 0.80419 0.25723 0.7325 0.0
C1429 C 0.82647 0.23333 0.72453 0.0
C1430 C 0.85594 0.24736 0.68661 0.0
H1431 H 0.95164 0.22749 0.67666 0.0
H1432 H 0.92024 0.22073 0.6892 0.0
H1433 H 0.87332 0.25125 0.66232 0.0
H1434 H 0.81397 0.28626 0.72665 0.0
H1435 H 0.84376 0.27768 0.71293 0.0
H1436 H 0.87069 0.23266 0.7295 0.0
C1437 C 0.92278 0.23338 0.68096 0.0
C1438 C 0.87296 0.24703 0.67693 0.0
C1439 C 0.9408 0.23731 0.67384 0.0
C1440 C 0.81736 0.27146 0.72651 0.0
C1441 C 0.83432 0.26658 0.71855 0.0
C1442 C 0.87112 0.23627 0.71472 0.0
C1443 C 0.90823 0.24556 0.6774 0.0
C1444 C 0.88951 0.24233 0.68636 0.0
C1445 C 0.83858 0.24747 0.71679 0.0
C1446 C 0.85514 0.2427 0.70574 0.0
H1447 H 0.93259 0.27758 0.64997 0.0
H1448 H 0.90127 0.27147 0.66343 0.0
H1449 H 0.9007 0.23248 0.71286 0.0
H1450 H 0.79936 0.22695 0.73674 0.0
H1451 H 0.82972 0.2185 0.72343 0.0
C1452 C 0.51517 0.19052 0.3895 0.0
C1453 C 0.5098 0.20622 0.40047 0.0
C1454 C 0.51489 0.17235 0.39716 0.0
C1455 C 0.48801 0.14478 0.43008 0.0
H1456 H 0.53023 0.1132 0.43886 0.0
C1457 C 0.48288 0.09118 0.48664 0.0
C1458 C 0.4851 0.07217 0.48138 0.0
C1459 C 0.48932 0.10573 0.475 0.0
C1460 C 0.51831 0.12175 0.43615 0.0
H1461 H 0.50073 0.21528 0.42827 0.0
H1462 H 0.49987 0.18358 0.44142 0.0
H1463 H 0.535 0.14262 0.42075 0.0
H1464 H 0.4971 0.05335 0.46087 0.0
H1465 H 0.50821 0.07911 0.43987 0.0
H1466 H 0.47139 0.12451 0.44571 0.0
C1467 C 0.50436 0.1854 0.42695 0.0
C1468 C 0.52102 0.13849 0.42588 0.0
C1469 C 0.50488 0.20352 0.41942 0.0
C1470 C 0.49529 0.06796 0.46504 0.0
C1471 C 0.50158 0.08263 0.45312 0.0
C1472 C 0.48531 0.12817 0.44017 0.0
C1473 C 0.509 0.16965 0.4158 0.0
C1474 C 0.506 0.15044 0.42347 0.0
C1475 C 0.49783 0.10155 0.4577 0.0
C1476 C 0.50057 0.11694 0.44399 0.0
H1477 H 0.51919 0.1922 0.37488 0.0
H1478 H 0.51849 0.16035 0.38835 0.0
H1479 H 0.47618 0.15363 0.42808 0.0
H1480 H 0.4753 0.09477 0.49935 0.0
H1481 H 0.48668 0.12027 0.47904 0.0
C1482 C 0.55458 0.76952 0.14916 0.0
C1483 C 0.54858 0.7591 0.13294 0.0
C1484 C 0.57212 0.76668 0.15727 0.0
C1485 C 0.61825 0.74613 0.14956 0.0
H1486 H 0.61839 0.74668 0.20431 0.0
C1487 C 0.68299 0.73557 0.20073 0.0
C1488 C 0.68512 0.75097 0.21363 0.0
C1489 C 0.66707 0.73377 0.18881 0.0
C1490 C 0.61848 0.74629 0.18901 0.0
H1491 H 0.55627 0.73809 0.11198 0.0
H1492 H 0.58686 0.73274 0.12648 0.0
H1493 H 0.58876 0.7493 0.1873 0.0
H1494 H 0.67357 0.77728 0.22329 0.0
H1495 H 0.64612 0.77428 0.20246 0.0
H1496 H 0.64826 0.7434 0.15158 0.0
C1497 C 0.57818 0.74334 0.13273 0.0
C1498 C 0.6016 0.748 0.17927 0.0
C1499 C 0.56072 0.74643 0.12442 0.0
C1500 C 0.67197 0.76508 0.21369 0.0
C1501 C 0.6563 0.76337 0.20184 0.0
C1502 C 0.63523 0.7443 0.15938 0.0
C1503 C 0.5838 0.75307 0.14953 0.0
C1504 C 0.60142 0.74874 0.15948 0.0
C1505 C 0.6534 0.74744 0.18977 0.0
C1506 C 0.63549 0.74513 0.17917 0.0
H1507 H 0.5455 0.7795 0.15585 0.0
H1508 H 0.57633 0.77485 0.16989 0.0
H1509 H 0.61849 0.74651 0.13429 0.0
H1510 H 0.69306 0.72456 0.20054 0.0
H1511 H 0.66504 0.72142 0.1795 0.0
C1512 C 0.9798 0.18644 0.61745 0.0
C1513 C 0.9826 0.19997 0.60327 0.0
C1514 C 0.98345 0.16746 0.61385 0.0
C1515 C 0.01615 0.1417 0.58736 0.0
H1516 H 0.98125 0.09729 0.58639 0.0
C1517 C 0.01993 0.08202 0.53479 0.0
C1518 C 0.0121 0.06379 0.53854 0.0
C1519 C 0.02077 0.09609 0.54887 0.0
C1520 C 0.99139 0.10939 0.58723 0.0
H1521 H 0.98955 0.20409 0.57382 0.0
H1522 H -0.00392 0.17092 0.56762 0.0
H1523 H 0.9708 0.12766 0.59847 0.0
H1524 H 0.00081 0.04534 0.56036 0.0
H1525 H 0.00203 0.07017 0.58505 0.0
H1526 H 0.03653 0.12382 0.57543 0.0
C1527 C 0.99127 0.1751 0.58151 0.0
C1528 C 0.9853 0.12675 0.59396 0.0
C1529 C 0.98736 0.19398 0.58501 0.0
C1530 C 0.00671 0.05937 0.55706 0.0
C1531 C 0.0074 0.07354 0.57117 0.0
C1532 C 0.02231 0.12435 0.58087 0.0
C1533 C 0.99011 0.16198 0.59613 0.0
C1534 C -0.00263 0.14312 0.59304 0.0
C1535 C 0.01367 0.09222 0.56694 0.0
C1536 C 0.00962 0.10832 0.57966 0.0
H1537 H 0.97593 0.19073 0.63162 0.0
H1538 H 0.98229 0.1574 0.62519 0.0
H1539 H 0.02575 0.15423 0.58697 0.0
H1540 H 0.02449 0.08574 0.52071 0.0
H1541 H 0.02554 0.11038 0.54508 0.0
C1542 C 0.56587 0.24697 0.32605 0.0
C1543 C 0.56101 0.25768 0.34206 0.0
C1544 C 0.58476 0.24484 0.32158 0.0
C1545 C 0.63249 0.26642 0.32765 0.0
H1546 H 0.64581 0.21758 0.30685 0.0
C1547 C 0.69955 0.26236 0.28543 0.0
C1548 C 0.69419 0.25704 0.26688 0.0
C1549 C 0.68763 0.25748 0.30045 0.0
C1550 C 0.64243 0.23121 0.31292 0.0
H1551 H 0.57222 0.27513 0.36562 0.0
H1552 H 0.60544 0.2716 0.35757 0.0
H1553 H 0.61516 0.22049 0.32188 0.0
H1554 H 0.67366 0.24093 0.2494 0.0
H1555 H 0.65309 0.23192 0.27549 0.0
H1556 H 0.6593 0.27738 0.31778 0.0
C1557 C 0.59452 0.26474 0.3486 0.0
C1558 C 0.62484 0.23293 0.32138 0.0
C1559 C 0.57551 0.26683 0.35314 0.0
C1560 C 0.67805 0.24501 0.26367 0.0
C1561 C 0.66632 0.23985 0.27866 0.0
C1562 C 0.65011 0.26468 0.31924 0.0
C1563 C 0.59931 0.25337 0.33299 0.0
C1564 C 0.61931 0.25076 0.32793 0.0
C1565 C 0.67036 0.24709 0.297 0.0
C1566 C 0.65485 0.24728 0.31093 0.0
H1567 H 0.55507 0.23982 0.31714 0.0
H1568 H 0.58796 0.23647 0.30913 0.0
H1569 H 0.62867 0.28033 0.3326 0.0
H1570 H 0.71194 0.2718 0.2881 0.0
H1571 H 0.69116 0.26309 0.31447 0.0
C1572 C 0.47933 0.81333 0.07034 0.0
C1573 C 0.4876 0.80843 0.08742 0.0
C1574 C 0.48079 0.83213 0.0645 0.0
C1575 C 0.49554 0.88152 0.08005 0.0
H1576 H 0.50557 0.88749 0.02666 0.0
C1577 C 0.5172 0.95435 0.0512 0.0
C1578 C 0.50685 0.9595 0.03536 0.0
C1579 C 0.51691 0.93543 0.05653 0.0
C1580 C 0.50273 0.88603 0.04158 0.0
H1581 H 0.5034 0.8189 0.11212 0.0
H1582 H 0.50678 0.85163 0.10161 0.0
H1583 H 0.49899 0.8558 0.03895 0.0
H1584 H 0.48911 0.94909 0.01191 0.0
H1585 H 0.48794 0.91598 0.02164 0.0
H1586 H 0.49942 0.91173 0.08268 0.0
C1587 C 0.49858 0.84127 0.09296 0.0
C1588 C 0.49881 0.8679 0.04862 0.0
C1589 C 0.49666 0.82256 0.09901 0.0
C1590 C 0.49708 0.94538 0.02427 0.0
C1591 C 0.49653 0.92646 0.02977 0.0
C1592 C 0.49958 0.8996 0.07303 0.0
C1593 C 0.49109 0.84616 0.07538 0.0
C1594 C 0.49501 0.86546 0.06792 0.0
C1595 C 0.50599 0.92142 0.04628 0.0
C1596 C 0.50309 0.90205 0.05372 0.0
H1597 H 0.47224 0.80253 0.06128 0.0
H1598 H 0.47438 0.83553 0.05118 0.0
H1599 H 0.49249 0.88019 0.09493 0.0
H1600 H 0.5253 0.96501 0.05961 0.0
H1601 H 0.52477 0.93183 0.06899 0.0
C1602 C 0.93591 0.74442 0.83716 0.0
C1603 C 0.94891 0.76013 0.83641 0.0
C1604 C 0.91806 0.74514 0.82874 0.0
C1605 C 0.89335 0.77141 0.79208 0.0
H1606 H 0.84953 0.74248 0.8108 0.0
C1607 C 0.81504 0.76841 0.76291 0.0
C1608 C 0.80679 0.7498 0.76158 0.0
C1609 C 0.83342 0.77163 0.77019 0.0
C1610 C 0.86171 0.7506 0.80542 0.0
H1611 H 0.95307 0.78939 0.82777 0.0
H1612 H 0.9218 0.79091 0.81373 0.0
H1613 H 0.87848 0.74508 0.82962 0.0
H1614 H 0.81169 0.71997 0.76462 0.0
H1615 H 0.84378 0.72556 0.77699 0.0
H1616 H 0.87619 0.77707 0.76794 0.0
C1617 C 0.92556 0.77773 0.81996 0.0
C1618 C 0.8783 0.75202 0.81615 0.0
C1619 C 0.94347 0.77687 0.82803 0.0
C1620 C 0.81774 0.73444 0.7657 0.0
C1621 C 0.836 0.73763 0.77287 0.0
C1622 C 0.8766 0.77018 0.78144 0.0
C1623 C 0.91279 0.76174 0.81977 0.0
C1624 C 0.8945 0.76201 0.80939 0.0
C1625 C 0.84357 0.75625 0.77613 0.0
C1626 C 0.86085 0.7593 0.78781 0.0
H1627 H 0.93973 0.73141 0.84371 0.0
H1628 H 0.90865 0.73248 0.82874 0.0
H1629 H 0.90558 0.77912 0.78634 0.0
H1630 H 0.80675 0.78047 0.76 0.0
H1631 H 0.83907 0.78611 0.77253 0.0
C1632 C 0.9263 0.99175 0.80853 0.0
C1633 C 0.91048 0.00228 0.80484 0.0
C1634 C 0.93291 0.98995 0.82696 0.0
C1635 C 0.93416 0.01485 0.87249 0.0
H1636 H 0.95429 0.96842 0.89063 0.0
C1637 C 0.96786 0.01418 0.94514 0.0
C1638 C 0.98578 0.00672 0.94625 0.0
C1639 C 0.95632 0.01046 0.92945 0.0
C1640 C 0.94881 0.98148 0.88568 0.0
H1641 H 0.8889 0.01886 0.81767 0.0
H1642 H 0.90068 0.01597 0.84995 0.0
H1643 H 0.93757 0.96812 0.86019 0.0
H1644 H 0.00511 0.98814 0.93268 0.0
H1645 H 0.985 0.98212 0.90437 0.0
H1646 H 0.94573 0.02841 0.89748 0.0
C1647 C 0.90799 0.00916 0.8385 0.0
C1648 C 0.9392 0.98131 0.86833 0.0
C1649 C 0.9013 0.01089 0.82003 0.0
C1650 C 0.99151 0.99438 0.93186 0.0
C1651 C 0.97994 0.99082 0.91584 0.0
C1652 C 0.94374 0.01503 0.88972 0.0
C1653 C 0.92391 -0.00129 0.84213 0.0
C1654 C 0.93208 -0.0019 0.86143 0.0
C1655 C 0.96247 -0.00063 0.91428 0.0
C1656 C 0.95139 -0.00157 0.89642 0.0
H1657 H 0.9336 0.98476 0.79719 0.0
H1658 H 0.94537 0.98206 0.82926 0.0
H1659 H 0.92912 0.02807 0.86745 0.0
H1660 H 0.9628 0.02317 0.95641 0.0
H1661 H 0.94271 0.01673 0.92899 0.0
C1662 C 0.75959 0.14114 0.56109 0.0
C1663 C 0.75995 0.1525 0.54507 0.0
C1664 C 0.756 0.14908 0.57879 0.0
C1665 C 0.75324 0.19512 0.6043 0.0
H1666 H 0.71915 0.16623 0.63708 0.0
C1667 C 0.72427 0.2315 0.66728 0.0
C1668 C 0.73118 0.22412 0.68401 0.0
C1669 C 0.7234 0.22041 0.65084 0.0
C1670 C 0.72863 0.17436 0.62797 0.0
H1671 H 0.75756 0.18104 0.53484 0.0
H1672 H 0.75074 0.19482 0.56554 0.0
H1673 H 0.72894 0.152 0.60707 0.0
H1674 H 0.74054 0.19896 0.69752 0.0
H1675 H 0.73948 0.17951 0.66831 0.0
H1676 H 0.75263 0.21756 0.6249 0.0
C1677 C 0.75366 0.17991 0.56465 0.0
C1678 C 0.7344 0.16623 0.61096 0.0
C1679 C 0.75759 0.17204 0.54705 0.0
C1680 C 0.73526 0.20488 0.68466 0.0
C1681 C 0.73457 0.19378 0.66805 0.0
C1682 C 0.74727 0.20327 0.62105 0.0
C1683 C 0.75243 0.16843 0.58064 0.0
C1684 C 0.74676 0.17658 0.59897 0.0
C1685 C 0.72967 0.20191 0.65091 0.0
C1686 C 0.7349 0.19301 0.63295 0.0
H1687 H 0.7615 0.12601 0.55984 0.0
H1688 H 0.7556 0.13999 0.59093 0.0
H1689 H 0.76307 0.20331 0.59561 0.0
H1690 H 0.72068 0.24622 0.66664 0.0
H1691 H 0.71933 0.2268 0.63775 0.0
C1692 C 0.58844 0.99306 0.3183 0.0
C1693 C 0.58534 0.00577 0.30385 0.0
C1694 C 0.58197 -0.00307 0.33644 0.0
C1695 C 0.54413 0.02199 0.35833 0.0
H1696 H 0.56581 0.00255 0.40386 0.0
C1697 C 0.51079 0.01745 0.43372 0.0
C1698 C 0.51367 1e-05 0.44222 0.0
C1699 C 0.51829 0.02118 0.41595 0.0
C1700 C 0.55967 0.00809 0.3912 0.0
H1701 H 0.57522 0.03334 0.29713 0.0
H1702 H 0.56431 0.04026 0.32887 0.0
H1703 H 0.58523 0.00587 0.37571 0.0
H1704 H 0.52339 0.97164 0.43773 0.0
H1705 H 0.53611 0.97802 0.40654 0.0
H1706 H 0.51842 0.02377 0.37388 0.0
C1707 C 0.57093 0.02701 0.32612 0.0
C1708 C 0.57075 0.01001 0.37519 0.0
C1709 C 0.57701 0.02296 0.30797 0.0
C1710 C 0.52149 0.98539 0.43165 0.0
C1711 C 0.52885 0.98906 0.41393 0.0
C1712 C 0.53308 0.02019 0.37444 0.0
C1713 C 0.57272 0.01373 0.34035 0.0
C1714 C 0.56279 0.01609 0.35836 0.0
C1715 C 0.52845 0.00736 0.40662 0.0
C1716 C 0.54056 0.01233 0.39061 0.0
H1717 H 0.59523 0.97992 0.31542 0.0
H1718 H 0.58342 0.98634 0.34713 0.0
H1719 H 0.53759 0.02672 0.34553 0.0
H1720 H 0.5045 0.0288 0.44148 0.0
H1721 H 0.51757 0.03529 0.4103 0.0
C1722 C 0.72921 0.86879 0.06656 0.0
C1723 C 0.73235 0.85606 0.05144 0.0
C1724 C 0.7298 0.8627 0.08516 0.0
C1725 C 0.75605 0.84123 0.11517 0.0
H1726 H 0.71895 0.81044 0.14276 0.0
C1727 C 0.77634 0.78665 0.16852 0.0
C1728 C 0.76482 0.78276 0.18419 0.0
C1729 C 0.77129 0.79984 0.15533 0.0
C1730 C 0.72935 0.81938 0.13547 0.0
H1731 H 0.73712 0.82672 0.04389 0.0
H1732 H 0.73803 0.81612 0.07652 0.0
H1733 H 0.70982 0.82498 0.11321 0.0
H1734 H 0.73933 0.79014 0.19869 0.0
H1735 H 0.7306 0.81358 0.17564 0.0
H1736 H 0.77587 0.83501 0.13675 0.0
C1737 C 0.73514 0.83076 0.07382 0.0
C1738 C 0.72412 0.82755 0.11856 0.0
C1739 C 0.73461 0.83683 0.05521 0.0
C1740 C 0.7485 0.79291 0.18678 0.0
C1741 C 0.74346 0.80621 0.17354 0.0
C1742 C 0.76132 0.83299 0.13199 0.0
C1743 C 0.73331 0.84379 0.08885 0.0
C1744 C 0.73759 0.83805 0.10812 0.0
C1745 C 0.75462 0.80952 0.15748 0.0
C1746 C 0.74819 0.82143 0.14197 0.0
H1747 H 0.72723 0.88366 0.06407 0.0
H1748 H 0.72837 0.87289 0.09666 0.0
H1749 H 0.76661 0.84928 0.10717 0.0
H1750 H 0.78902 0.7791 0.16608 0.0
H1751 H 0.78004 0.80178 0.14296 0.0
C1752 C 0.91105 0.02266 0.69507 0.0
C1753 C 0.89261 0.01509 0.69833 0.0
C1754 C 0.91759 0.02486 0.6766 0.0
C1755 C 0.9107 0.00275 0.63028 0.0
H1756 H 0.9412 0.04597 0.61223 0.0
C1757 C 0.94782 0.99511 0.56061 0.0
C1758 C 0.96723 -0.00016 0.56218 0.0
C1759 C 0.93537 0.00246 0.57373 0.0
C1760 C 0.93265 0.03382 0.61705 0.0
H1761 H 0.86636 0.00453 0.6848 0.0
H1762 H 0.8779 0.00808 0.65273 0.0
H1763 H 0.92639 0.04779 0.64333 0.0
H1764 H 0.98895 0.01663 0.57752 0.0
H1765 H 0.96744 0.02932 0.60061 0.0
H1766 H 0.9177 0.98826 0.60481 0.0
C1767 C 0.88727 0.01233 0.66442 0.0
C1768 C 0.92423 0.03487 0.63483 0.0
C1769 C 0.88068 0.01033 0.6828 0.0
C1770 C 0.97392 0.01317 0.57593 0.0
C1771 C 0.96154 0.02039 0.58915 0.0
C1772 C 0.91921 0.00163 0.61266 0.0
C1773 C 0.90586 0.01933 0.66113 0.0
C1774 C 0.91344 0.0192 0.64171 0.0
C1775 C 0.9423 0.01421 0.58887 0.0
C1776 C 0.93061 0.017 0.60595 0.0
H1777 H 0.92053 0.02658 0.70675 0.0
H1778 H 0.93206 0.03015 0.67444 0.0
H1779 H 0.90269 0.99035 0.63535 0.0
H1780 H 0.94248 0.98467 0.55014 0.0
H1781 H 0.92056 -0.00223 0.57285 0.0
C1782 C 0.77183 0.18202 0.43654 0.0
C1783 C 0.76429 0.16351 0.43939 0.0
C1784 C 0.77001 0.19032 0.41898 0.0
C1785 C 0.75456 0.18032 0.36921 0.0
H1786 H 0.74274 0.23347 0.37147 0.0
C1787 C 0.73044 0.21486 0.30313 0.0
C1788 C 0.74228 0.23059 0.2983 0.0
C1789 C 0.72986 0.20878 0.32167 0.0
C1790 C 0.74598 0.21863 0.3707 0.0
H1791 H 0.74965 0.13876 0.42636 0.0
H1792 H 0.74565 0.15341 0.39592 0.0
H1793 H 0.75088 0.21751 0.40042 0.0
H1794 H 0.76114 0.25364 0.30899 0.0
H1795 H 0.76058 0.24268 0.34158 0.0
H1796 H 0.74937 0.18137 0.33957 0.0
C1797 C 0.75355 0.16143 0.40686 0.0
C1798 C 0.75086 0.20951 0.38719 0.0
C1799 C 0.75586 0.15297 0.42428 0.0
C1800 C 0.75198 0.24141 0.31251 0.0
C1801 C 0.75161 0.23516 0.3311 0.0
C1802 C 0.74944 0.18935 0.35282 0.0
C1803 C 0.76006 0.18044 0.4042 0.0
C1804 C 0.75534 0.19027 0.38662 0.0
C1805 C 0.74139 0.21817 0.33555 0.0
C1806 C 0.74517 0.20858 0.35339 0.0
H1807 H 0.77841 0.19032 0.44811 0.0
H1808 H 0.77575 0.20475 0.41723 0.0
H1809 H 0.75819 0.16562 0.36814 0.0
H1810 H 0.72254 0.20658 0.29234 0.0
H1811 H 0.72147 0.19593 0.32489 0.0
C1812 C 0.59105 0.98713 0.19157 0.0
C1813 C 0.60689 -0.00256 0.19929 0.0
C1814 C 0.58538 0.99022 0.17302 0.0
C1815 C 0.6019 0.0121 0.12852 0.0
H1816 H 0.54841 0.01665 0.11895 0.0
C1817 C 0.5549 0.04579 0.06807 0.0
C1818 C 0.55077 0.03086 0.05494 0.0
C1819 C 0.56439 0.04234 0.08487 0.0
C1820 C 0.56338 0.01551 0.1216 0.0
H1821 H 0.62931 0.01889 0.19379 0.0
H1822 H 0.61913 0.02464 0.16191 0.0
H1823 H 0.55901 0.00751 0.15024 0.0
H1824 H 0.55385 0.00084 0.04889 0.0
H1825 H 0.57112 0.99518 0.07777 0.0
H1826 H 0.60609 0.02024 0.09978 0.0
C1827 C 0.61139 0.01378 0.1698 0.0
C1828 C 0.56942 0.01005 0.13933 0.0
C1829 C 0.61719 0.01051 0.18812 0.0
C1830 C 0.55751 0.01283 0.05825 0.0
C1831 C 0.5671 0.00946 0.07493 0.0
C1832 C 0.59582 0.01753 0.1108 0.0
C1833 C 0.59535 0.00382 0.16208 0.0
C1834 C 0.58877 0.00838 0.14298 0.0
C1835 C 0.56997 0.02402 0.08854 0.0
C1836 C 0.57658 0.01934 0.10735 0.0
H1837 H 0.58294 0.97692 0.19993 0.0
H1838 H 0.57309 0.98214 0.16731 0.0
H1839 H 0.61687 0.01073 0.13088 0.0
H1840 H 0.54967 0.05974 0.06593 0.0
H1841 H 0.56651 0.05367 0.0954 0.0
C1842 C 0.74214 0.86404 0.9303 0.0
C1843 C 0.7423 0.84933 0.94338 0.0
C1844 C 0.74169 0.85988 0.91088 0.0
C1845 C 0.75123 0.82109 0.87665 0.0
H1846 H 0.71816 0.84662 0.8428 0.0
C1847 C 0.71952 0.78646 0.81089 0.0
C1848 C 0.73191 0.78966 0.79577 0.0
C1849 C 0.71992 0.79899 0.82638 0.0
C1850 C 0.72768 0.83967 0.85209 0.0
H1851 H 0.74158 0.8188 0.9465 0.0
H1852 H 0.74005 0.81146 0.91277 0.0
H1853 H 0.72151 0.85752 0.87592 0.0
H1854 H 0.75332 0.80914 0.78418 0.0
H1855 H 0.75425 0.83107 0.81171 0.0
H1856 H 0.75671 0.80276 0.85305 0.0
C1857 C 0.74089 0.82624 0.91739 0.0
C1858 C 0.72962 0.84584 0.87099 0.0
C1859 C 0.74158 0.83041 0.93673 0.0
C1860 C 0.74345 0.80655 0.79556 0.0
C1861 C 0.74404 0.81902 0.81129 0.0
C1862 C 0.74932 0.81501 0.85785 0.0
C1863 C 0.74121 0.84091 0.9042 0.0
C1864 C 0.74095 0.83619 0.88362 0.0
C1865 C 0.73283 0.81482 0.82708 0.0
C1866 C 0.73722 0.82395 0.84559 0.0
H1867 H 0.74296 0.87879 0.93506 0.0
H1868 H 0.74213 0.8715 0.90111 0.0
H1869 H 0.7604 0.81361 0.88586 0.0
H1870 H 0.71057 0.77348 0.81137 0.0
H1871 H 0.7113 0.79545 0.83853 0.0
C1872 C 0.80776 0.9158 0.9913 0.0
C1873 C 0.8024 0.89832 -0.00069 0.0
C1874 C 0.82611 0.92373 0.9938 0.0
C1875 C 0.87488 0.91374 0.00751 0.0
H1876 H 0.87866 0.96847 0.01541 0.0
C1877 C 0.94482 0.9627 0.01934 0.0
C1878 C 0.94581 0.97762 0.00643 0.0
C1879 C 0.92822 0.95096 0.02071 0.0
C1880 C 0.8778 0.95316 0.01336 0.0
H1881 H 0.81206 0.87515 0.01584 0.0
H1882 H 0.84412 0.8893 0.02061 0.0
H1883 H 0.84766 0.95185 0.01341 0.0
H1884 H 0.93077 0.991 0.98393 0.0
H1885 H 0.90214 0.97072 0.98642 0.0
H1886 H 0.90529 0.91538 0.00727 0.0
C1887 C 0.83422 0.8967 0.01214 0.0
C1888 C 0.86008 0.94365 0.01205 0.0
C1889 C 0.81588 0.88862 0.00941 0.0
C1890 C 0.93032 0.98 -0.0056 0.0
C1891 C 0.91392 0.96837 -0.00424 0.0
C1892 C 0.89274 0.92332 0.00896 0.0
C1893 C 0.83941 0.91453 0.00465 0.0
C1894 C 0.85838 0.92395 0.00839 0.0
C1895 C 0.91253 0.95405 0.00918 0.0
C1896 C 0.89425 0.94319 0.01123 0.0
H1897 H 0.79772 0.92344 0.98324 0.0
H1898 H 0.82982 0.93723 0.98737 0.0
H1899 H 0.87401 0.89852 0.0048 0.0
H1900 H 0.95662 0.96045 0.02867 0.0
H1901 H 0.92743 0.93991 0.03111 0.0
C1902 C 0.3067 0.58021 0.01381 0.0
C1903 C 0.30321 0.59138 -0.00187 0.0
C1904 C 0.32424 0.57259 0.01627 0.0
C1905 C 0.37382 0.57814 0.00063 0.0
H1906 H 0.37678 0.52697 0.01925 0.0
C1907 C 0.44094 0.53882 0.9929 0.0
C1908 C 0.44781 0.53029 0.00901 0.0
C1909 C 0.42264 0.54491 0.99251 0.0
C1910 C 0.37613 0.54133 0.01423 0.0
H1911 H 0.31511 0.60321 0.97258 0.0
H1912 H 0.34556 0.58907 0.97631 0.0
H1913 H 0.34604 0.54077 0.01656 0.0
H1914 H 0.44116 0.52071 0.03711 0.0
H1915 H 0.40883 0.53172 0.03663 0.0
H1916 H 0.40384 0.57853 -0.00208 0.0
C1917 C 0.33492 0.58665 0.98702 0.0
C1918 C 0.35858 0.54926 0.0127 0.0
C1919 C 0.31745 0.59456 0.98474 0.0
C1920 C 0.43593 0.5271 0.0245 0.0
C1921 C 0.41756 0.53342 0.02422 0.0
C1922 C 0.39129 0.57017 0.00202 0.0
C1923 C 0.33856 0.57572 0.00292 0.0
C1924 C 0.35722 0.56763 0.00556 0.0
C1925 C 0.41101 0.54286 0.00838 0.0
C1926 C 0.39256 0.55157 0.00847 0.0
H1927 H 0.2961 0.57791 0.0246 0.0
H1928 H 0.32669 0.5646 0.02885 0.0
H1929 H 0.37334 0.59251 -0.00438 0.0
H1930 H 0.44992 0.5412 0.98076 0.0
H1931 H 0.41774 0.5517 0.97996 0.0
C1932 C 0.1582 0.57205 0.77207 0.0
C1933 C 0.14434 0.56319 0.76013 0.0
C1934 C 0.16388 0.59116 0.76961 0.0
C1935 C 0.14888 0.63447 0.74617 0.0
H1936 H 0.20214 0.65035 0.7491 0.0
C1937 C 0.19788 0.69905 0.71666 0.0
C1938 C 0.19985 0.71287 0.73124 0.0
C1939 C 0.18824 0.68162 0.71988 0.0
C1940 C 0.18724 0.64595 0.74825 0.0
H1941 H 0.12604 0.5668 0.73594 0.0
H1942 H 0.1364 0.59963 0.73121 0.0
H1943 H 0.19191 0.6177 0.75686 0.0
H1944 H 0.19202 0.71991 0.76006 0.0
H1945 H 0.1749 0.68959 0.7654 0.0
H1946 H 0.14444 0.66277 0.73717 0.0
C1947 C 0.14232 0.59233 0.74296 0.0
C1948 C 0.18137 0.62744 0.75287 0.0
C1949 C 0.13644 0.57349 0.74564 0.0
C1950 C 0.19048 0.70971 0.74843 0.0
C1951 C 0.18084 0.69232 0.7516 0.0
C1952 C 0.15479 0.65296 0.74153 0.0
C1953 C 0.15598 0.60144 0.75497 0.0
C1954 C 0.16214 0.62145 0.75166 0.0
C1955 C 0.18037 0.67801 0.73761 0.0
C1956 C 0.17398 0.65866 0.74239 0.0
H1957 H 0.16447 0.56427 0.78331 0.0
H1958 H 0.17436 0.5979 0.77915 0.0
H1959 H 0.13393 0.63034 0.74538 0.0
H1960 H 0.20494 0.70115 0.70329 0.0
H1961 H 0.18788 0.67059 0.70896 0.0
C1962 C 0.17579 0.405 0.49337 0.0
C1963 C 0.19071 0.41711 0.50057 0.0
C1964 C 0.15703 0.40923 0.49652 0.0
C1965 C 0.12768 0.43841 0.5278 0.0
H1966 H 0.09152 0.43273 0.48655 0.0
C1967 C 0.06878 0.48699 0.5137 0.0
C1968 C 0.05395 0.48038 0.5017 0.0
C1969 C 0.08142 0.47428 0.52061 0.0
C1970 C 0.10118 0.43389 0.49848 0.0
H1971 H 0.19765 0.44359 0.51594 0.0
H1972 H 0.16497 0.45126 0.5209 0.0
H1973 H 0.12278 0.42118 0.48255 0.0
H1974 H 0.03883 0.45551 0.48952 0.0
H1975 H 0.06072 0.43312 0.50186 0.0
H1976 H 0.10625 0.45222 0.5433 0.0
C1977 C 0.16774 0.43819 0.51334 0.0
C1978 C 0.11923 0.42735 0.49611 0.0
C1979 C 0.18648 0.43394 0.51023 0.0
C1980 C 0.05027 0.4608 0.49879 0.0
C1981 C 0.06285 0.44805 0.50575 0.0
C1982 C 0.10959 0.44504 0.53016 0.0
C1983 C 0.1528 0.42568 0.50687 0.0
C1984 C 0.1329 0.43017 0.51047 0.0
C1985 C 0.07942 0.45489 0.51533 0.0
C1986 C 0.09638 0.44348 0.51525 0.0
H1987 H 0.17857 0.39185 0.48597 0.0
H1988 H 0.14585 0.3993 0.49133 0.0
H1989 H 0.13777 0.44033 0.53933 0.0
H1990 H 0.07183 0.50212 0.51599 0.0
H1991 H 0.09396 0.48004 0.52803 0.0
C1992 C 0.86302 0.93384 0.75529 0.0
C1993 C 0.85124 0.94869 0.75973 0.0
C1994 C 0.85637 0.91492 0.75662 0.0
C1995 C 0.81849 0.8828 0.77587 0.0
H1996 H 0.82584 0.85355 0.72979 0.0
C1997 C 0.7673 0.8234 0.74675 0.0
C1998 C 0.77424 0.80961 0.73454 0.0
C1999 C 0.77978 0.83681 0.75575 0.0
C2000 C 0.82406 0.86121 0.74302 0.0
H2001 H 0.82352 0.95529 0.76991 0.0
H2002 H 0.81183 0.92206 0.77214 0.0
H2003 H 0.84173 0.88473 0.73388 0.0
H2004 H 0.79931 0.79763 0.72322 0.0
H2005 H 0.82128 0.82086 0.73917 0.0
H2006 H 0.80014 0.8594 0.7846 0.0
C2007 C 0.82626 0.92516 0.76771 0.0
C2008 C 0.83313 0.87918 0.74532 0.0
C2009 C 0.83288 0.94417 0.76625 0.0
C2010 C 0.79377 0.80823 0.73267 0.0
C2011 C 0.80627 0.82157 0.7417 0.0
C2012 C 0.80943 0.8647 0.7736 0.0
C2013 C 0.83783 0.91036 0.76253 0.0
C2014 C 0.83006 0.89038 0.76152 0.0
C2015 C 0.79934 0.83668 0.75242 0.0
C2016 C 0.8117 0.85394 0.75689 0.0
H2017 H 0.87729 0.9368 0.75033 0.0
H2018 H 0.86566 0.90382 0.75269 0.0
H2019 H 0.8161 0.89105 0.78862 0.0
H2020 H 0.7522 0.82468 0.74821 0.0
H2021 H 0.77394 0.84825 0.76386 0.0
C2022 C 0.68865 0.11804 0.50419 0.0
C2023 C 0.69742 0.11441 0.48695 0.0
C2024 C 0.66982 0.11209 0.5069 0.0
C2025 C 0.63238 0.0784 0.48713 0.0
H2026 H 0.60066 0.10578 0.52156 0.0
C2027 C 0.5533 0.05969 0.4977 0.0
C2028 C 0.55278 0.04665 0.51242 0.0
C2029 C 0.56911 0.07218 0.49558 0.0
C2030 C 0.60939 0.09818 0.51182 0.0
H2031 H 0.69379 0.10221 0.45882 0.0
H2032 H 0.6603 0.09277 0.46298 0.0
H2033 H 0.63235 0.11913 0.5142 0.0
H2034 H 0.56711 0.03745 0.53738 0.0
H2035 H 0.59453 0.05999 0.53409 0.0
H2036 H 0.60916 0.05766 0.48464 0.0
C2037 C 0.66806 0.09961 0.47472 0.0
C2038 C 0.62757 0.10563 0.50772 0.0
C2039 C 0.68712 0.10513 0.47221 0.0
C2040 C 0.56728 0.04751 0.52603 0.0
C2041 C 0.58286 0.06033 0.52415 0.0
C2042 C 0.61415 0.07117 0.49099 0.0
C2043 C 0.65923 0.10278 0.49221 0.0
C2044 C 0.6394 0.09569 0.49551 0.0
C2045 C 0.58422 0.07205 0.50843 0.0
C2046 C 0.60268 0.0809 0.50348 0.0
H2047 H 0.69659 0.1249 0.51583 0.0
H2048 H 0.66378 0.11432 0.52071 0.0
H2049 H 0.64113 0.0701 0.47804 0.0
H2050 H 0.54237 0.05899 0.48689 0.0
H2051 H 0.57014 0.08097 0.48322 0.0
C2052 C 0.14912 0.44214 0.76086 0.0
C2053 C 0.1611 0.45718 0.75446 0.0
C2054 C 0.15382 0.42338 0.75787 0.0
C2055 C 0.18523 0.39294 0.73066 0.0
H2056 H 0.18469 0.36377 0.77639 0.0
C2057 C 0.23463 0.33238 0.74524 0.0
C2058 C 0.22762 0.31778 0.75683 0.0
C2059 C 0.2234 0.34755 0.74131 0.0
C2060 C 0.18457 0.37146 0.76332 0.0
H2061 H 0.18725 0.46443 0.7398 0.0
H2062 H 0.19568 0.4317 0.7351 0.0
H2063 H 0.16971 0.39369 0.77619 0.0
H2064 H 0.20288 0.30619 0.77151 0.0
H2065 H 0.18334 0.3321 0.76427 0.0
H2066 H 0.20073 0.37074 0.71805 0.0
C2067 C 0.18249 0.4344 0.74204 0.0
C2068 C 0.17594 0.38863 0.76324 0.0
C2069 C 0.17782 0.45314 0.74503 0.0
C2070 C 0.20896 0.3178 0.76332 0.0
C2071 C 0.19768 0.33254 0.75903 0.0
C2072 C 0.19384 0.3756 0.73072 0.0
C2073 C 0.17056 0.41938 0.74846 0.0
C2074 C 0.17669 0.39979 0.74713 0.0
C2075 C 0.20496 0.34789 0.74857 0.0
C2076 C 0.194 0.36498 0.74725 0.0
H2077 H 0.136 0.44482 0.76793 0.0
H2078 H 0.14438 0.41199 0.76294 0.0
H2079 H 0.18573 0.40125 0.71798 0.0
H2080 H 0.24878 0.33221 0.73958 0.0
H2081 H 0.22935 0.35924 0.73318 0.0
C2082 C 0.34845 0.56752 0.26223 0.0
C2083 C 0.33717 0.55244 0.25397 0.0
C2084 C 0.34397 0.5864 0.25963 0.0
C2085 C 0.31619 0.61606 0.22824 0.0
H2086 H 0.31481 0.65017 0.27177 0.0
C2087 C 0.2618 0.67099 0.23968 0.0
C2088 C 0.26604 0.68663 0.25178 0.0
C2089 C 0.27591 0.65882 0.23466 0.0
C2090 C 0.31561 0.6411 0.25929 0.0
H2091 H 0.31208 0.54539 0.23692 0.0
H2092 H 0.30413 0.57812 0.23271 0.0
H2093 H 0.3287 0.61964 0.27481 0.0
H2094 H 0.28825 0.70302 0.26691 0.0
H2095 H 0.31308 0.68182 0.25806 0.0
H2096 H 0.30211 0.63717 0.21302 0.0
C2097 C 0.31667 0.57543 0.24084 0.0
C2098 C 0.32351 0.62351 0.26108 0.0
C2099 C 0.32108 0.55663 0.2435 0.0
C2100 C 0.28481 0.69107 0.25736 0.0
C2101 C 0.29894 0.67887 0.25243 0.0
C2102 C 0.30826 0.63366 0.22645 0.0
C2103 C 0.32819 0.59055 0.24863 0.0
C2104 C 0.32312 0.61047 0.2458 0.0
C2105 C 0.29436 0.66199 0.24201 0.0
C2106 C 0.30715 0.64602 0.24218 0.0
H2107 H 0.36103 0.56478 0.27028 0.0
H2108 H 0.35309 0.59774 0.26587 0.0
H2109 H 0.31616 0.60649 0.21606 0.0
H2110 H 0.24731 0.66723 0.23549 0.0
H2111 H 0.27185 0.64592 0.2267 0.0
C2112 C 0.48184 0.69563 0.60157 0.0
C2113 C 0.48999 0.70898 0.5891 0.0
C2114 C 0.48512 0.67637 0.59948 0.0
C2115 C 0.51931 0.64452 0.57871 0.0
H2116 H 0.47863 0.60588 0.58355 0.0
C2117 C 0.51257 0.57611 0.53726 0.0
C2118 C 0.49902 0.56218 0.54284 0.0
C2119 C 0.5182 0.59101 0.54968 0.0
C2120 C 0.49039 0.61634 0.58277 0.0
H2121 H 0.50687 0.71235 0.56384 0.0
H2122 H 0.5122 0.67853 0.55991 0.0
H2123 H 0.47254 0.63888 0.5896 0.0
H2124 H 0.48316 0.55062 0.5663 0.0
H2125 H 0.49339 0.57641 0.58834 0.0
H2126 H 0.53695 0.62192 0.57105 0.0
C2127 C 0.50376 0.68314 0.57166 0.0
C2128 C 0.48679 0.63536 0.58604 0.0
C2129 C 0.50047 0.70246 0.57374 0.0
C2130 C 0.49361 0.56138 0.56178 0.0
C2131 C 0.49933 0.57623 0.5743 0.0
C2132 C 0.52295 0.62543 0.57548 0.0
C2133 C 0.49657 0.67 0.58484 0.0
C2134 C 0.50101 0.6497 0.58335 0.0
C2135 C 0.51011 0.59212 0.56773 0.0
C2136 C 0.50831 0.61118 0.57669 0.0
H2137 H 0.4736 0.70013 0.6135 0.0
H2138 H 0.4793 0.6666 0.60981 0.0
H2139 H 0.53069 0.65527 0.57706 0.0
H2140 H 0.51686 0.57688 0.52263 0.0
H2141 H 0.5267 0.60283 0.54413 0.0
C2142 C 0.56727 0.25962 0.85965 0.0
C2143 C 0.55225 0.2462 0.85583 0.0
C2144 C 0.5842 0.25856 0.8498 0.0
C2145 C 0.61261 0.22807 0.82069 0.0
H2146 H 0.6204 0.2711 0.78773 0.0
C2147 C 0.66099 0.22064 0.75923 0.0
C2148 C 0.67541 0.23507 0.75854 0.0
C2149 C 0.6444 0.22381 0.76892 0.0
C2150 C 0.61848 0.25906 0.79692 0.0
H2151 H 0.54335 0.22036 0.84039 0.0
H2152 H 0.57325 0.21798 0.82382 0.0
H2153 H 0.59756 0.27247 0.81346 0.0
H2154 H 0.68279 0.26488 0.76472 0.0
H2155 H 0.65408 0.27025 0.78215 0.0
H2156 H 0.63346 0.21462 0.80448 0.0
C2157 C 0.57189 0.22946 0.83406 0.0
C2158 C 0.6056 0.25993 0.81171 0.0
C2159 C 0.55485 0.23081 0.84348 0.0
C2160 C 0.67189 0.25347 0.76518 0.0
C2161 C 0.65544 0.25653 0.77525 0.0
C2162 C 0.62557 0.22727 0.80608 0.0
C2163 C 0.58634 0.24377 0.83652 0.0
C2164 C 0.60232 0.24426 0.82341 0.0
C2165 C 0.64226 0.2413 0.77839 0.0
C2166 C 0.6283 0.24254 0.79373 0.0
H2167 H 0.56539 0.27167 0.86908 0.0
H2168 H 0.59527 0.26968 0.85189 0.0
H2169 H 0.61031 0.21589 0.82963 0.0
H2170 H 0.66329 0.20644 0.75388 0.0
H2171 H 0.63403 0.21205 0.77045 0.0
C2172 C 0.98331 0.3122 0.08492 0.0
C2173 C 0.00102 0.3059 0.07953 0.0
C2174 C 0.97893 0.33111 0.08224 0.0
C2175 C 0.00212 0.37802 0.08096 0.0
H2176 H 0.96084 0.39427 0.05013 0.0
C2177 C 0.00532 0.45387 0.06064 0.0
C2178 C 0.00577 0.45489 0.04093 0.0
C2179 C -0.00362 0.43811 0.06915 0.0
C2180 C 0.97225 0.38997 0.05904 0.0
H2181 H 0.02784 0.3143 0.06671 0.0
H2182 H 0.02035 0.3473 0.06245 0.0
H2183 H 0.96301 0.36038 0.05679 0.0
H2184 H -0.0044 0.44176 0.01466 0.0
H2185 H 0.9804 0.41402 0.02933 0.0
H2186 H 0.01212 0.40705 0.08255 0.0
C2187 C 0.00983 0.3376 0.06862 0.0
C2188 C 0.97345 0.37062 0.06285 0.0
C2189 C 0.01405 0.31869 0.07095 0.0
C2190 C -0.00473 0.44124 0.02993 0.0
C2191 C 0.98653 0.42535 0.0384 0.0
C2192 C 0.00084 0.39725 0.07735 0.0
C2193 C 0.99238 0.34405 0.07451 0.0
C2194 C 0.98887 0.36447 0.07318 0.0
C2195 C 0.98831 0.42292 0.05799 0.0
C2196 C 0.98634 0.40343 0.06571 0.0
H2197 H 0.97298 0.30261 0.09153 0.0
H2198 H 0.96537 0.33579 0.08683 0.0
H2199 H 0.01402 0.37362 0.08916 0.0
H2200 H 0.01342 0.46428 0.06934 0.0
H2201 H -0.00248 0.43691 0.08433 0.0
C2202 C 0.93012 0.74112 0.3426 0.0
C2203 C 0.94433 0.7553 0.33934 0.0
C2204 C 0.91167 0.74334 0.33633 0.0
C2205 C 0.88411 0.77185 0.30369 0.0
H2206 H 0.84181 0.74931 0.33146 0.0
C2207 C 0.80813 0.77463 0.27702 0.0
C2208 C 0.80259 0.75618 0.27059 0.0
C2209 C 0.82312 0.77746 0.28984 0.0
C2210 C 0.85353 0.75595 0.32383 0.0
H2211 H 0.95057 0.78291 0.32717 0.0
H2212 H 0.91845 0.78718 0.31701 0.0
H2213 H 0.87384 0.7485 0.34443 0.0
H2214 H 0.80668 0.72617 0.27346 0.0
H2215 H 0.83259 0.73107 0.29641 0.0
H2216 H 0.86372 0.77929 0.28317 0.0
C2217 C 0.92146 0.77403 0.32374 0.0
C2218 C 0.87186 0.75524 0.33103 0.0
C2219 C 0.93992 0.77158 0.32955 0.0
C2220 C 0.81103 0.74051 0.27816 0.0
C2221 C 0.8256 0.7433 0.29138 0.0
C2222 C 0.8658 0.77295 0.29678 0.0
C2223 C 0.90706 0.76 0.32712 0.0
C2224 C 0.88743 0.76259 0.32069 0.0
C2225 C 0.83219 0.7618 0.29673 0.0
C2226 C 0.85049 0.76448 0.30649 0.0
H2227 H 0.93322 0.72844 0.35015 0.0
H2228 H 0.90106 0.73199 0.33873 0.0
H2229 H 0.89568 0.77744 0.29517 0.0
H2230 H 0.80164 0.78684 0.27129 0.0
H2231 H 0.82818 0.79183 0.29374 0.0
C2232 C 0.50221 0.32797 0.88821 0.0
C2233 C 0.49062 0.31198 0.89296 0.0
C2234 C 0.50068 0.34524 0.89804 0.0
C2235 C 0.4862 0.36205 0.94445 0.0
H2236 H 0.48919 0.41229 0.92301 0.0
C2237 C 0.47792 0.42687 0.99195 0.0
C2238 C 0.49079 0.44241 0.98943 0.0
C2239 C 0.47586 0.4125 0.97815 0.0
C2240 C 0.48846 0.39834 0.92918 0.0
H2241 H 0.46744 0.30169 0.91049 0.0
H2242 H 0.46446 0.33186 0.92729 0.0
H2243 H 0.48956 0.3841 0.90214 0.0
H2244 H 0.51118 0.45569 0.9705 0.0
H2245 H 0.50826 0.43006 0.94662 0.0
H2246 H 0.48563 0.37595 0.9714 0.0
C2247 C 0.47509 0.33098 0.91644 0.0
C2248 C 0.48866 0.38226 0.91725 0.0
C2249 C 0.47676 0.31375 0.90682 0.0
C2250 C 0.50105 0.44383 0.9726 0.0
C2251 C 0.49932 0.4292 0.95894 0.0
C2252 C 0.4861 0.37802 0.95631 0.0
C2253 C 0.48742 0.34671 0.91258 0.0
C2254 C 0.48734 0.36397 0.92482 0.0
C2255 C 0.48707 0.41313 0.96184 0.0
C2256 C 0.48703 0.39635 0.94884 0.0
H2257 H 0.51303 0.3269 0.87758 0.0
H2258 H 0.51043 0.35712 0.89487 0.0
H2259 H 0.48571 0.34814 0.95073 0.0
H2260 H 0.46973 0.42565 0.00477 0.0
H2261 H 0.46589 0.40059 0.98056 0.0
C2262 C 0.94338 0.24098 0.16124 0.0
C2263 C 0.9493 0.25497 0.1484 0.0
C2264 C 0.92638 0.24215 0.17077 0.0
C2265 C 0.88005 0.2624 0.17045 0.0
H2266 H 0.8819 0.25055 0.22365 0.0
C2267 C 0.81339 0.25878 0.21797 0.0
C2268 C 0.81131 0.24181 0.22803 0.0
C2269 C 0.83052 0.26387 0.20915 0.0
C2270 C 0.88115 0.25393 0.20883 0.0
H2271 H 0.94167 0.28083 0.13494 0.0
H2272 H 0.91171 0.28298 0.15195 0.0
H2273 H 0.91099 0.25265 0.20556 0.0
H2274 H 0.8258 0.21734 0.23743 0.0
H2275 H 0.85546 0.22621 0.22222 0.0
H2276 H 0.85001 0.2631 0.17372 0.0
C2277 C 0.92038 0.27111 0.15453 0.0
C2278 C 0.89779 0.2551 0.19846 0.0
C2279 C 0.93751 0.26992 0.14487 0.0
C2280 C 0.82691 0.23051 0.2298 0.0
C2281 C 0.84397 0.23564 0.22114 0.0
C2282 C 0.86331 0.26123 0.18088 0.0
C2283 C 0.91486 0.25739 0.16783 0.0
C2284 C 0.89738 0.25877 0.17905 0.0
C2285 C 0.84589 0.25218 0.21045 0.0
C2286 C 0.86367 0.25643 0.20005 0.0
H2287 H 0.95192 0.22906 0.16401 0.0
H2288 H 0.92226 0.23107 0.18054 0.0
H2289 H 0.87933 0.26521 0.1555 0.0
H2290 H 0.80161 0.26778 0.21633 0.0
H2291 H 0.83168 0.27678 0.20111 0.0
C2292 C 0.97537 0.69956 0.42431 0.0
C2293 C 0.98811 0.70432 0.40996 0.0
C2294 C 0.97498 0.68142 0.43187 0.0
C2295 C -0.00203 0.63496 0.4287 0.0
H2296 H 0.00205 0.64235 0.4831 0.0
C2297 C 0.03828 0.58427 0.47119 0.0
C2298 C 0.02652 0.57436 0.48396 0.0
C2299 C 0.03312 0.60163 0.46439 0.0
C2300 C 0.0009 0.64015 0.46794 0.0
H2301 H 0.00919 0.69409 0.39095 0.0
H2302 H 0.00923 0.66278 0.40452 0.0
H2303 H 0.98917 0.66697 0.46401 0.0
H2304 H 0.00215 0.57636 0.50224 0.0
H2305 H 0.99322 0.60671 0.49027 0.0
H2306 H 0.01055 0.60848 0.4327 0.0
C2307 C -0.00091 0.67251 0.40975 0.0
C2308 C 0.99325 0.65405 0.457 0.0
C2309 C -0.00083 0.69047 0.40199 0.0
C2310 C 0.01127 0.58347 0.49207 0.0
C2311 C 0.00613 0.60086 0.48525 0.0
C2312 C 0.00586 0.62123 0.43962 0.0
C2313 C 0.9878 0.66819 0.42552 0.0
C2314 C 0.99213 0.65181 0.4372 0.0
C2315 C 0.01628 0.60928 0.47042 0.0
C2316 C 0.00779 0.62395 0.45924 0.0
H2317 H 0.9667 0.7102 0.43051 0.0
H2318 H 0.96573 0.67828 0.44364 0.0
H2319 H -0.00301 0.63264 0.41356 0.0
H2320 H 0.05044 0.57785 0.46512 0.0
H2321 H 0.04144 0.6083 0.45332 0.0
C2322 C 0.55996 0.76428 0.63482 0.0
C2323 C 0.54324 0.77132 0.64204 0.0
C2324 C 0.57557 0.76239 0.64661 0.0
C2325 C 0.59985 0.78029 0.68885 0.0
H2326 H 0.62229 0.73132 0.68786 0.0
C2327 C 0.67131 0.77006 0.7258 0.0
C2328 C 0.68422 0.762 0.71351 0.0
C2329 C 0.65195 0.76888 0.72131 0.0
C2330 C 0.61618 0.74507 0.68835 0.0
H2331 H 0.53007 0.78275 0.66703 0.0
H2332 H 0.55779 0.78009 0.68755 0.0
H2333 H 0.5928 0.73521 0.6707 0.0
H2334 H 0.68736 0.74553 0.68773 0.0
H2335 H 0.65382 0.74322 0.67998 0.0
H2336 H 0.62376 0.79048 0.70557 0.0
C2337 C 0.55856 0.77571 0.67284 0.0
C2338 C 0.59933 0.74727 0.67852 0.0
C2339 C 0.54276 0.77723 0.66111 0.0
C2340 C 0.67756 0.75179 0.69741 0.0
C2341 C 0.65832 0.7504 0.69305 0.0
C2342 C 0.61685 0.77814 0.69854 0.0
C2343 C 0.57492 0.76785 0.66577 0.0
C2344 C 0.59134 0.76504 0.67822 0.0
C2345 C 0.64533 0.75943 0.70461 0.0
C2346 C 0.62553 0.76066 0.69786 0.0
H2347 H 0.56076 0.75951 0.62022 0.0
H2348 H 0.58814 0.75653 0.64079 0.0
H2349 H 0.59392 0.79412 0.68881 0.0
H2350 H 0.67627 0.7781 0.73825 0.0
H2351 H 0.64226 0.77587 0.73056 0.0
C2352 C 0.61041 0.50144 0.69351 0.0
C2353 C 0.60438 0.49062 0.70901 0.0
C2354 C 0.59852 0.50296 0.67787 0.0
C2355 C 0.55845 0.48071 0.65198 0.0
H2356 H 0.54603 0.53197 0.63968 0.0
C2357 C 0.50497 0.48986 0.59415 0.0
C2358 C 0.51087 0.503 0.58054 0.0
C2359 C 0.51312 0.49086 0.61215 0.0
C2360 C 0.54941 0.51758 0.64284 0.0
H2361 H 0.58194 0.47177 0.71978 0.0
H2362 H 0.56143 0.47386 0.69207 0.0
H2363 H 0.56919 0.52703 0.66461 0.0
H2364 H 0.5281 0.52867 0.5754 0.0
H2365 H 0.54292 0.53009 0.60653 0.0
H2366 H 0.5395 0.47109 0.62989 0.0
C2367 C 0.57515 0.48148 0.69224 0.0
C2368 C 0.5627 0.51478 0.65706 0.0
C2369 C 0.58685 0.4803 0.70806 0.0
C2370 C 0.52326 0.51847 0.5858 0.0
C2371 C 0.53182 0.51919 0.60366 0.0
C2372 C 0.54542 0.48348 0.63761 0.0
C2373 C 0.58063 0.49332 0.67733 0.0
C2374 C 0.56725 0.49631 0.66175 0.0
C2375 C 0.52778 0.50461 0.61656 0.0
C2376 C 0.54062 0.50194 0.63289 0.0
H2377 H 0.62386 0.50958 0.69388 0.0
H2378 H 0.60311 0.51198 0.66639 0.0
H2379 H 0.56189 0.46635 0.65526 0.0
H2380 H 0.49538 0.47784 0.59034 0.0
H2381 H 0.50907 0.47987 0.62203 0.0
C2382 C 0.73456 0.33254 0.93968 0.0
C2383 C 0.74123 0.35113 0.94433 0.0
C2384 C 0.736 0.32556 0.92129 0.0
C2385 C 0.74426 0.33621 0.87178 0.0
H2386 H 0.76381 0.28585 0.87228 0.0
C2387 C 0.75514 0.28529 0.80592 0.0
C2388 C 0.74397 0.26831 0.8081 0.0
C2389 C 0.75781 0.2983 0.82107 0.0
C2390 C 0.75862 0.30002 0.87192 0.0
H2391 H 0.75349 0.37754 0.93347 0.0
H2392 H 0.7564 0.36507 0.90102 0.0
H2393 H 0.76149 0.30394 0.90174 0.0
H2394 H 0.7264 0.25196 0.82762 0.0
H2395 H 0.73115 0.27452 0.85384 0.0
H2396 H 0.74083 0.33173 0.8418 0.0
C2397 C 0.74988 0.35603 0.9116 0.0
C2398 C 0.75713 0.31029 0.88874 0.0
C2399 C 0.74815 0.36315 0.93007 0.0
C2400 C 0.73537 0.26471 0.82555 0.0
C2401 C 0.73805 0.27761 0.84056 0.0
C2402 C 0.74583 0.32586 0.8548 0.0
C2403 C 0.74454 0.33692 0.90731 0.0
C2404 C 0.74907 0.32803 0.88895 0.0
C2405 C 0.74939 0.2944 0.83851 0.0
C2406 C 0.75222 0.30735 0.85498 0.0
H2407 H 0.72898 0.32314 0.95046 0.0
H2408 H 0.73124 0.31093 0.91817 0.0
H2409 H 0.73822 0.34998 0.87161 0.0
H2410 H 0.76192 0.28843 0.7926 0.0
H2411 H 0.76664 0.3112 0.81928 0.0
C2412 C 0.89746 0.49802 0.19095 0.0
C2413 C 0.89689 0.51521 0.20125 0.0
C2414 C 0.90743 0.49743 0.17408 0.0
C2415 C 0.92545 0.52503 0.13559 0.0
H2416 H 0.9716 0.49794 0.13853 0.0
C2417 C 0.98043 0.54011 0.08174 0.0
C2418 C 0.98523 0.52387 0.07155 0.0
C2419 C 0.97294 0.53834 0.09971 0.0
C2420 C 0.95872 0.50543 0.13753 0.0
H2421 H 0.9048 0.54532 0.20197 0.0
H2422 H 0.92152 0.5445 0.17184 0.0
H2423 H 0.94798 0.49455 0.16362 0.0
H2424 H 0.98865 0.49353 0.07273 0.0
H2425 H 0.97478 0.49029 0.104 0.0
H2426 H 0.93582 0.53587 0.10962 0.0
C2427 C 0.91466 0.5315 0.17699 0.0
C2428 C 0.94522 0.50337 0.15169 0.0
C2429 C 0.9052 0.53199 0.19409 0.0
C2430 C 0.98487 0.50622 0.0804 0.0
C2431 C 0.97696 0.50437 0.09827 0.0
C2432 C 0.93879 0.52696 0.12143 0.0
C2433 C 0.91633 0.51413 0.16726 0.0
C2434 C 0.92876 0.51353 0.15094 0.0
C2435 C 0.96969 0.52024 0.10737 0.0
C2436 C 0.95578 0.51765 0.12254 0.0
H2437 H 0.89116 0.48494 0.19648 0.0
H2438 H 0.90863 0.48395 0.16666 0.0
H2439 H 0.91273 0.53284 0.13481 0.0
H2440 H 0.981 0.5539 0.07521 0.0
H2441 H 0.96802 0.55087 0.10684 0.0
C2442 C 0.75815 0.65111 0.41665 0.0
C2443 C 0.76308 0.66394 0.43152 0.0
C2444 C 0.7593 0.65692 0.39792 0.0
C2445 C 0.76247 0.70143 0.37013 0.0
H2446 H 0.76642 0.66577 0.32801 0.0
C2447 C 0.75803 0.72761 0.29583 0.0
C2448 C 0.73937 0.72261 0.29019 0.0
C2449 C 0.76671 0.7171 0.30961 0.0
C2450 C 0.76567 0.67588 0.33969 0.0
H2451 H 0.77391 0.6925 0.43872 0.0
H2452 H 0.77745 0.70231 0.40614 0.0
H2453 H 0.77059 0.65496 0.36031 0.0
H2454 H 0.71602 0.70163 0.29228 0.0
H2455 H 0.73147 0.68281 0.31581 0.0
H2456 H 0.75774 0.72229 0.34941 0.0
C2457 C 0.77173 0.68804 0.4087 0.0
C2458 C 0.76774 0.6697 0.35823 0.0
C2459 C 0.76994 0.68241 0.42743 0.0
C2460 C 0.73047 0.70564 0.29646 0.0
C2461 C 0.73932 0.69487 0.30985 0.0
C2462 C 0.76096 0.70765 0.35168 0.0
C2463 C 0.76595 0.67556 0.39364 0.0
C2464 C 0.76574 0.68232 0.37376 0.0
C2465 C 0.75693 0.70128 0.31746 0.0
C2466 C 0.76221 0.6949 0.33635 0.0
H2467 H 0.75254 0.63685 0.41953 0.0
H2468 H 0.75428 0.64694 0.38693 0.0
H2469 H 0.76022 0.71156 0.38147 0.0
H2470 H 0.76502 0.7408 0.29132 0.0
H2471 H 0.78028 0.72231 0.31539 0.0
C2472 C 0.58239 0.51133 0.81963 0.0
C2473 C 0.59581 0.49835 0.81435 0.0
C2474 C 0.5737 0.51026 0.83715 0.0
C2475 C 0.57766 0.49218 0.88512 0.0
H2476 H 0.52447 0.50254 0.88598 0.0
C2477 C 0.53342 0.49808 0.95418 0.0
C2478 C 0.52495 0.51563 0.9555 0.0
C2479 C 0.54124 0.49209 0.93706 0.0
C2480 C 0.53928 0.49947 0.88595 0.0
H2481 H 0.61104 0.47431 0.82349 0.0
H2482 H 0.59541 0.47219 0.85429 0.0
H2483 H 0.54044 0.49944 0.85585 0.0
H2484 H 0.51731 0.54023 0.93982 0.0
H2485 H 0.53057 0.52969 0.91019 0.0
H2486 H 0.57642 0.4927 0.91541 0.0
C2487 C 0.59178 0.48328 0.84479 0.0
C2488 C 0.54847 0.49781 0.86873 0.0
C2489 C 0.60067 0.48445 0.82718 0.0
C2490 C 0.52382 0.52668 0.93931 0.0
C2491 C 0.53131 0.5206 0.92228 0.0
C2492 C 0.56839 0.49374 0.90245 0.0
C2493 C 0.578 0.49604 0.84982 0.0
C2494 C 0.56791 0.49484 0.8681 0.0
C2495 C 0.5403 0.50339 0.921 0.0
C2496 C 0.54927 0.49804 0.90298 0.0
H2497 H 0.57864 0.52247 0.81023 0.0
H2498 H 0.56359 0.52069 0.8408 0.0
H2499 H 0.59265 0.48991 0.8851 0.0
H2500 H 0.53451 0.48931 0.96646 0.0
H2501 H 0.54807 0.47873 0.93638 0.0
C2502 C 0.74898 0.36276 0.06675 0.0
C2503 C 0.73737 0.35783 0.05104 0.0
C2504 C 0.74865 0.35117 0.08244 0.0
C2505 C 0.7222 0.31388 0.10713 0.0
H2506 H 0.77098 0.29328 0.11655 0.0
C2507 C 0.72561 0.25904 0.16204 0.0
C2508 C 0.73948 0.26398 0.1757 0.0
C2509 C 0.72753 0.26597 0.14388 0.0
C2510 C 0.7573 0.29891 0.11411 0.0
H2511 H 0.71489 0.33836 0.04011 0.0
H2512 H 0.71403 0.31835 0.0678 0.0
H2513 H 0.76828 0.31831 0.0935 0.0
H2514 H 0.76725 0.27755 0.18092 0.0
H2515 H 0.77019 0.29064 0.14963 0.0
H2516 H 0.71119 0.29532 0.12811 0.0
C2517 C 0.72362 0.33089 0.06777 0.0
C2518 C 0.7558 0.31329 0.10107 0.0
C2519 C 0.72417 0.34227 0.05196 0.0
C2520 C 0.7564 0.27362 0.17046 0.0
C2521 C 0.75805 0.28112 0.15248 0.0
C2522 C 0.72372 0.29974 0.12033 0.0
C2523 C 0.73643 0.33482 0.0827 0.0
C2524 C 0.73823 0.3208 0.0975 0.0
C2525 C 0.7429 0.27861 0.13957 0.0
C2526 C 0.74126 0.29201 0.12394 0.0
H2527 H 0.75917 0.3748 0.06644 0.0
H2528 H 0.75844 0.35453 0.09402 0.0
H2529 H 0.70855 0.31957 0.10457 0.0
H2530 H 0.71255 0.25138 0.16589 0.0
H2531 H 0.71602 0.26311 0.13388 0.0
C2532 C 0.90852 0.52526 0.3206 0.0
C2533 C 0.91043 0.51043 0.30738 0.0
C2534 C 0.91235 0.5224 0.3397 0.0
C2535 C 0.9384 0.49026 0.36948 0.0
H2536 H 0.91456 0.51684 0.41058 0.0
C2537 C 0.96901 0.48553 0.44234 0.0
C2538 C 0.97405 0.50356 0.45003 0.0
C2539 C 0.95521 0.48346 0.42821 0.0
C2540 C 0.92118 0.50918 0.39922 0.0
H2541 H 0.91633 0.48078 0.30349 0.0
H2542 H 0.922 0.47546 0.33665 0.0
H2543 H 0.90238 0.51925 0.37834 0.0
H2544 H 0.9682 0.53336 0.45039 0.0
H2545 H 0.94459 0.52998 0.42507 0.0
H2546 H 0.95746 0.48059 0.38997 0.0
C2547 C 0.91863 0.48957 0.33245 0.0
C2548 C 0.91434 0.51069 0.38078 0.0
C2549 C 0.91543 0.4926 0.31344 0.0
C2550 C 0.96434 0.51932 0.44453 0.0
C2551 C 0.95074 0.51733 0.4302 0.0
C2552 C 0.94506 0.48861 0.3878 0.0
C2553 C 0.91756 0.5045 0.34579 0.0
C2554 C 0.92321 0.50159 0.36565 0.0
C2555 C 0.94671 0.49951 0.4213 0.0
C2556 C 0.93688 0.49844 0.40281 0.0
H2557 H 0.90439 0.53904 0.31614 0.0
H2558 H 0.91162 0.53428 0.34958 0.0
H2559 H 0.94589 0.48336 0.35821 0.0
H2560 H 0.97639 0.47324 0.4466 0.0
H2561 H 0.95213 0.46952 0.42179 0.0
C2562 C 0.75098 0.64385 0.55299 0.0
C2563 C 0.76326 0.65154 0.53929 0.0
C2564 C 0.75185 0.65085 0.57159 0.0
C2565 C 0.76928 0.69347 0.59924 0.0
H2566 H 0.75881 0.66175 0.64246 0.0
C2567 C 0.77746 0.72618 0.67222 0.0
C2568 C 0.76125 0.72418 0.68335 0.0
C2569 C 0.77985 0.71388 0.65689 0.0
C2570 C 0.76177 0.67073 0.6305 0.0
H2571 H 0.7866 0.67191 0.53432 0.0
H2572 H 0.78881 0.68361 0.56699 0.0
H2573 H 0.75879 0.64731 0.61066 0.0
H2574 H 0.73551 0.70705 0.68836 0.0
H2575 H 0.73945 0.68559 0.66107 0.0
H2576 H 0.77222 0.71683 0.61888 0.0
C2577 C 0.77798 0.67267 0.56328 0.0
C2578 C 0.76167 0.66252 0.61228 0.0
C2579 C 0.77683 0.66594 0.54459 0.0
C2580 C 0.74823 0.70868 0.68 0.0
C2581 C 0.75047 0.69646 0.66439 0.0
C2582 C 0.76956 0.70158 0.61733 0.0
C2583 C 0.76527 0.66547 0.57695 0.0
C2584 C 0.76552 0.67382 0.59644 0.0
C2585 C 0.76583 0.69963 0.65215 0.0
C2586 C 0.76593 0.69033 0.63317 0.0
H2587 H 0.74026 0.63281 0.54919 0.0
H2588 H 0.74164 0.64518 0.5816 0.0
H2589 H 0.77169 0.70275 0.58741 0.0
H2590 H 0.78768 0.73804 0.67465 0.0
H2591 H 0.79205 0.71634 0.64794 0.0
C2592 C 0.68708 0.61965 0.49352 0.0
C2593 C 0.69891 0.61283 0.47941 0.0
C2594 C 0.66881 0.61154 0.49569 0.0
C2595 C 0.63968 0.56746 0.48271 0.0
H2596 H 0.59936 0.59542 0.50477 0.0
C2597 C 0.56234 0.53754 0.48955 0.0
C2598 C 0.5589 0.53297 0.50841 0.0
C2599 C 0.57792 0.54959 0.48499 0.0
C2600 C 0.61052 0.58756 0.49851 0.0
H2601 H 0.70079 0.59296 0.45589 0.0
H2602 H 0.66841 0.57962 0.45872 0.0
H2603 H 0.62954 0.61218 0.49747 0.0
H2604 H 0.56794 0.53805 0.53742 0.0
H2605 H 0.59495 0.55979 0.52944 0.0
H2606 H 0.62031 0.54299 0.48337 0.0
C2607 C 0.67343 0.5906 0.46875 0.0
C2608 C 0.62787 0.59705 0.49446 0.0
C2609 C 0.69192 0.59835 0.46695 0.0
C2610 C 0.57053 0.54136 0.52277 0.0
C2611 C 0.5858 0.55381 0.51824 0.0
C2612 C 0.62225 0.55813 0.48636 0.0
C2613 C 0.66176 0.59673 0.48347 0.0
C2614 C 0.6428 0.58707 0.48669 0.0
C2615 C 0.58984 0.5576 0.4993 0.0
C2616 C 0.60765 0.56806 0.49442 0.0
H2617 H 0.69229 0.63063 0.50349 0.0
H2618 H 0.66054 0.61644 0.50743 0.0
H2619 H 0.65085 0.55909 0.47724 0.0
H2620 H 0.55347 0.53115 0.47833 0.0
H2621 H 0.58094 0.5523 0.47029 0.0
C2622 C 0.17781 0.91027 0.48442 0.0
C2623 C 0.18829 0.91019 0.50129 0.0
C2624 C 0.15984 0.9175 0.48443 0.0
C2625 C 0.12091 0.93031 0.51475 0.0
H2626 H 0.122 0.97849 0.48907 0.0
C2627 C 0.07209 0.98471 0.53938 0.0
C2628 C 0.06016 0.99057 0.52504 0.0
C2629 C 0.08912 0.977 0.5347 0.0
C2630 C 0.12145 0.96501 0.49616 0.0
H2631 H 0.18797 0.91561 0.5315 0.0
H2632 H 0.15653 0.92769 0.53163 0.0
H2633 H 0.14594 0.95569 0.48189 0.0
H2634 H 0.05801 -0.00366 0.49514 0.0
H2635 H 0.08753 0.98245 0.48696 0.0
H2636 H 0.09679 0.9396 0.52934 0.0
C2637 C 0.16217 0.92259 0.51839 0.0
C2638 C 0.13491 0.95191 0.49187 0.0
C2639 C 0.18019 0.91592 0.51829 0.0
C2640 C 0.06684 0.99158 0.50643 0.0
C2641 C 0.08375 0.9836 0.50171 0.0
C2642 C 0.10746 0.94331 0.51896 0.0
C2643 C 0.15215 0.92402 0.50142 0.0
C2644 C 0.1351 0.93482 0.50167 0.0
C2645 C 0.09418 0.97491 0.51566 0.0
C2646 C 0.10808 0.96107 0.51026 0.0
H2647 H 0.18387 0.90568 0.4712 0.0
H2648 H 0.15222 0.91856 0.47122 0.0
H2649 H 0.12084 0.91716 0.5224 0.0
H2650 H 0.06745 0.98432 0.55391 0.0
H2651 H 0.09743 0.97106 0.54578 0.0
C2652 C 0.34603 0.95725 0.77347 0.0
C2653 C 0.36086 0.96138 0.76097 0.0
C2654 C 0.33731 0.93911 0.77369 0.0
C2655 C 0.34059 0.88911 0.76026 0.0
H2656 H 0.28592 0.89036 0.75934 0.0
C2657 C 0.2861 0.82369 0.75175 0.0
C2658 C 0.2699 0.82484 0.76295 0.0
C2659 C 0.29986 0.83873 0.75192 0.0
C2660 C 0.30117 0.88978 0.75976 0.0
H2661 H 0.37898 0.94974 0.73961 0.0
H2662 H 0.36334 0.91777 0.7398 0.0
H2663 H 0.30516 0.91991 0.75829 0.0
H2664 H 0.25615 0.84131 0.78445 0.0
H2665 H 0.2804 0.86724 0.78523 0.0
H2666 H 0.33634 0.85874 0.76179 0.0
C2667 C 0.35866 0.9286 0.7495 0.0
C2668 C 0.31216 0.90667 0.75913 0.0
C2669 C 0.36756 0.94682 0.7494 0.0
C2670 C 0.26841 0.84029 0.77551 0.0
C2671 C 0.28221 0.85512 0.77587 0.0
C2672 C 0.32949 0.87205 0.76089 0.0
C2673 C 0.34311 0.92481 0.76128 0.0
C2674 C 0.33193 0.90655 0.75995 0.0
C2675 C 0.29755 0.85489 0.76343 0.0
C2676 C 0.30969 0.87238 0.76123 0.0
H2677 H 0.34083 0.96819 0.78274 0.0
H2678 H 0.32562 0.93639 0.78322 0.0
H2679 H 0.35585 0.88872 0.76074 0.0
H2680 H 0.28746 0.81187 0.74189 0.0
H2681 H 0.31158 0.83826 0.74222 0.0
C2682 C 0.32668 0.1005 0.97079 0.0
C2683 C 0.31167 0.09499 0.9827 0.0
C2684 C 0.34422 0.09239 0.97254 0.0
C2685 C 0.36712 0.05187 -0.00497 0.0
H2686 H 0.41297 0.08429 0.99121 0.0
C2687 C 0.43719 0.03656 0.0312 0.0
C2688 C 0.45353 0.03717 0.02005 0.0
C2689 C 0.4202 0.04257 0.02407 0.0
C2690 C 0.40027 0.07504 0.99206 0.0
H2691 H 0.30334 0.0768 0.00589 0.0
H2692 H 0.33372 0.0633 0.00936 0.0
H2693 H 0.38248 0.09685 0.98336 0.0
H2694 H 0.46491 0.04453 0.99267 0.0
H2695 H 0.43506 0.05564 0.98032 0.0
H2696 H 0.38489 0.03045 0.00477 0.0
C2697 C 0.33197 0.07328 -0.00183 0.0
C2698 C 0.3828 0.08217 0.98751 0.0
C2699 C 0.31448 0.08113 -0.00378 0.0
C2700 C 0.45252 0.04391 0.00156 0.0
C2701 C 0.43553 0.05031 -0.00547 0.0
C2702 C 0.3845 0.04488 -0.00013 0.0
C2703 C 0.34713 0.07879 0.98641 0.0
C2704 C 0.36594 0.07077 0.98928 0.0
C2705 C 0.41923 0.04963 0.00574 0.0
C2706 C 0.40119 0.05648 -0.0013 0.0
H2707 H 0.32495 0.11122 0.96028 0.0
H2708 H 0.3555 0.09684 0.9631 0.0
H2709 H 0.35455 0.04248 -0.00388 0.0
H2710 H 0.43748 0.03134 0.04546 0.0
H2711 H 0.40785 0.04202 0.03302 0.0
C2712 C 0.64274 0.56663 0.74616 0.0
C2713 C 0.65395 0.55581 0.75771 0.0
C2714 C 0.64924 0.58468 0.7406 0.0
C2715 C 0.6934 0.61581 0.73793 0.0
H2716 H 0.65827 0.65557 0.73239 0.0
C2717 C 0.69743 0.69828 0.75243 0.0
C2718 C 0.71579 0.70233 0.74597 0.0
C2719 C 0.68724 0.68186 0.74616 0.0
C2720 C 0.66826 0.64458 0.73371 0.0
H2721 H 0.68031 0.55551 0.77325 0.0
H2722 H 0.69122 0.5877 0.76471 0.0
H2723 H 0.64638 0.62366 0.73991 0.0
H2724 H 0.73728 0.69406 0.7264 0.0
H2725 H 0.7193 0.66526 0.71505 0.0
H2726 H 0.7154 0.63709 0.73339 0.0
C2727 C 0.67779 0.58192 0.75912 0.0
C2728 C 0.66144 0.6262 0.73793 0.0
C2729 C 0.67148 0.5636 0.76425 0.0
C2730 C 0.72302 0.69115 0.73143 0.0
C2731 C 0.71282 0.67459 0.72515 0.0
C2732 C 0.70024 0.63425 0.73402 0.0
C2733 C 0.66692 0.59254 0.74687 0.0
C2734 C 0.67398 0.61169 0.74067 0.0
C2735 C 0.69541 0.66911 0.73349 0.0
C2736 C 0.6878 0.64902 0.73252 0.0
H2737 H 0.62928 0.56078 0.74065 0.0
H2738 H 0.64058 0.5922 0.73095 0.0
H2739 H 0.70345 0.6049 0.73934 0.0
H2740 H 0.69174 0.70675 0.76377 0.0
H2741 H 0.67393 0.67819 0.75296 0.0
C2742 C 0.81926 0.38776 0.00594 0.0
C2743 C 0.80617 0.39595 0.99409 0.0
C2744 C 0.83809 0.39483 0.00648 0.0
C2745 C 0.86617 0.43868 -0.00427 0.0
H2746 H 0.90966 0.40781 -0.00064 0.0
C2747 C 0.93776 0.47251 0.98289 0.0
C2748 C 0.94997 0.47234 -0.00152 0.0
C2749 C 0.9225 0.45928 0.98128 0.0
C2750 C 0.89758 0.4165 -0.0016 0.0
H2751 H 0.80236 0.41695 0.97276 0.0
H2752 H 0.83532 0.42869 0.97296 0.0
H2753 H 0.87759 0.39246 -0.00097 0.0
H2754 H 0.9571 0.45753 0.02379 0.0
H2755 H 0.92984 0.43439 0.0212 0.0
H2756 H 0.88591 0.46262 -0.00519 0.0
C2757 C 0.83105 0.41736 0.98239 0.0
C2758 C 0.8793 0.40779 -0.00171 0.0
C2759 C 0.81223 0.41058 0.98213 0.0
C2760 C 0.94783 0.45772 0.01157 0.0
C2761 C 0.93231 0.44455 0.0101 0.0
C2762 C 0.88427 0.44727 -0.00435 0.0
C2763 C 0.84406 0.40997 -0.00504 0.0
C2764 C 0.86345 0.41882 -0.0035 0.0
C2765 C 0.91903 0.44596 -0.00453 0.0
C2766 C 0.90012 0.43626 -0.00346 0.0
H2767 H 0.81475 0.37657 0.01543 0.0
H2768 H 0.84776 0.38896 0.01641 0.0
H2769 H 0.85427 0.44764 -0.00496 0.0
H2770 H 0.93933 0.48364 0.97259 0.0
H2771 H 0.91257 0.46038 0.96971 0.0
C2772 C 0.33114 0.06854 0.734 0.0
C2773 C 0.33929 0.06425 0.75134 0.0
C2774 C 0.322 0.08525 0.73203 0.0
C2775 C 0.31428 0.13195 0.75396 0.0
H2776 H 0.26829 0.1264 0.72361 0.0
C2777 C 0.26474 0.19227 0.74562 0.0
C2778 C 0.26755 0.19947 0.72745 0.0
C2779 C 0.26986 0.174 0.74958 0.0
C2780 C 0.28098 0.12799 0.73226 0.0
H2781 H 0.34563 0.07431 0.77989 0.0
H2782 H 0.32857 0.10349 0.77681 0.0
H2783 H 0.2866 0.09871 0.72909 0.0
H2784 H 0.27565 0.19288 0.69874 0.0
H2785 H 0.28388 0.16042 0.70556 0.0
H2786 H 0.30834 0.1613 0.75717 0.0
C2787 C 0.32946 0.09398 0.76467 0.0
C2788 C 0.29159 0.11231 0.73523 0.0
C2789 C 0.33908 0.07732 0.76651 0.0
C2790 C 0.27351 0.18756 0.71284 0.0
C2791 C 0.27815 0.16909 0.71671 0.0
C2792 C 0.30344 0.14756 0.75126 0.0
C2793 C 0.32039 0.09777 0.74752 0.0
C2794 C 0.30858 0.11423 0.74573 0.0
C2795 C 0.27726 0.16267 0.73529 0.0
C2796 C 0.28695 0.14567 0.74015 0.0
H2797 H 0.33179 0.0589 0.72192 0.0
H2798 H 0.31589 0.08818 0.71842 0.0
H2799 H 0.32737 0.1339 0.76192 0.0
H2800 H 0.26023 0.20128 0.75714 0.0
H2801 H 0.26914 0.16915 0.76398 0.0
C2802 C 0.15571 0.93206 0.27735 0.0
C2803 C 0.16235 0.94439 0.26319 0.0
C2804 C 0.16232 0.91372 0.27846 0.0
C2805 C 0.20326 0.88734 0.26454 0.0
H2806 H 0.17035 0.84141 0.26443 0.0
C2807 C 0.22242 0.8195 0.2281 0.0
C2808 C 0.22107 0.80225 0.23772 0.0
C2809 C 0.21535 0.83581 0.23601 0.0
C2810 C 0.1797 0.85413 0.26496 0.0
H2811 H 0.18026 0.94684 0.23853 0.0
H2812 H 0.19157 0.91512 0.2404 0.0
H2813 H 0.15687 0.87258 0.26917 0.0
H2814 H 0.21126 0.78861 0.26329 0.0
H2815 H 0.19846 0.81758 0.27715 0.0
H2816 H 0.22587 0.8692 0.25919 0.0
C2817 C 0.18174 0.91971 0.25098 0.0
C2818 C 0.17201 0.8719 0.26761 0.0
C2819 C 0.17525 0.93791 0.24992 0.0
C2820 C 0.21252 0.80173 0.25559 0.0
C2821 C 0.20515 0.81819 0.26347 0.0
C2822 C 0.21086 0.86972 0.26187 0.0
C2823 C 0.17564 0.90755 0.26542 0.0
C2824 C 0.18368 0.88867 0.26659 0.0
C2825 C 0.20663 0.83535 0.25369 0.0
C2826 C 0.19908 0.85304 0.26129 0.0
H2827 H 0.14558 0.93664 0.28764 0.0
H2828 H 0.15734 0.90453 0.28966 0.0
H2829 H 0.2126 0.90004 0.26405 0.0
H2830 H 0.22892 0.82046 0.21434 0.0
H2831 H 0.21646 0.84883 0.22811 0.0
C2832 C 0.51845 0.3262 0.40822 0.0
C2833 C 0.50172 0.31455 0.40844 0.0
C2834 C 0.51828 0.34529 0.41414 0.0
C2835 C 0.48788 0.38523 0.4233 0.0
H2836 H 0.51994 0.39589 0.46726 0.0
C2837 C 0.50349 0.45486 0.47163 0.0
C2838 C 0.50112 0.45048 0.49073 0.0
C2839 C 0.50017 0.44063 0.45768 0.0
C2840 C 0.51106 0.39316 0.45486 0.0
H2841 H 0.47157 0.31381 0.41361 0.0
H2842 H 0.47124 0.34715 0.42352 0.0
H2843 H 0.52332 0.36673 0.44872 0.0
H2844 H 0.49146 0.42898 0.5103 0.0
H2845 H 0.48529 0.40428 0.48598 0.0
H2846 H 0.47539 0.41172 0.42994 0.0
C2847 C 0.48447 0.34157 0.41907 0.0
C2848 C 0.51312 0.37661 0.44418 0.0
C2849 C 0.48472 0.32245 0.41368 0.0
C2850 C 0.49328 0.43259 0.4956 0.0
C2851 C 0.48983 0.41849 0.48174 0.0
C2852 C 0.48604 0.40206 0.43389 0.0
C2853 C 0.50128 0.35306 0.41974 0.0
C2854 C 0.50123 0.37223 0.42862 0.0
C2855 C 0.49442 0.42208 0.46288 0.0
C2856 C 0.49726 0.40577 0.45006 0.0
H2857 H 0.53168 0.32041 0.40408 0.0
H2858 H 0.53145 0.35391 0.41466 0.0
H2859 H 0.47857 0.38209 0.41131 0.0
H2860 H 0.50976 0.46858 0.46768 0.0
H2861 H 0.50385 0.44361 0.44318 0.0
C2862 C 0.44288 0.74039 0.17775 0.0
C2863 C 0.44682 0.75497 0.16487 0.0
C2864 C 0.42519 0.73839 0.18625 0.0
C2865 C 0.37622 0.75084 0.17819 0.0
H2866 H 0.36869 0.73893 0.23094 0.0
C2867 C 0.30696 0.76368 0.21301 0.0
C2868 C 0.29785 0.74846 0.22233 0.0
C2869 C 0.3259 0.76316 0.20828 0.0
C2870 C 0.37065 0.74203 0.21615 0.0
H2871 H 0.43581 0.77947 0.15154 0.0
H2872 H 0.40513 0.77639 0.16685 0.0
H2873 H 0.40079 0.74093 0.21802 0.0
H2874 H 0.30143 0.72124 0.23508 0.0
H2875 H 0.33498 0.72013 0.22644 0.0
H2876 H 0.34627 0.75234 0.17632 0.0
C2877 C 0.41551 0.76616 0.16996 0.0
C2878 C 0.38895 0.74319 0.20876 0.0
C2879 C 0.43311 0.76805 0.16133 0.0
C2880 C 0.30827 0.73313 0.22791 0.0
C2881 C 0.32735 0.73251 0.22297 0.0
C2882 C 0.35807 0.74977 0.18555 0.0
C2883 C 0.41119 0.75102 0.18212 0.0
C2884 C 0.3919 0.74815 0.18983 0.0
C2885 C 0.33606 0.74728 0.21255 0.0
C2886 C 0.35517 0.7459 0.20469 0.0
H2887 H 0.45313 0.72997 0.1806 0.0
H2888 H 0.42223 0.72652 0.19544 0.0
H2889 H 0.37797 0.75404 0.1634 0.0
H2890 H 0.29926 0.77581 0.20889 0.0
H2891 H 0.33246 0.77494 0.20067 0.0
C2892 C 0.98607 0.68909 0.91051 0.0
C2893 C 0.00273 0.70076 0.9095 0.0
C2894 C 0.9868 0.67043 0.9168 0.0
C2895 C 0.01702 0.63065 0.92264 0.0
H2896 H 0.98981 0.62115 0.9691 0.0
C2897 C -0.00039 0.559 0.96104 0.0
C2898 C 0.0016 0.56026 0.98074 0.0
C2899 C 0.0044 0.57482 0.95011 0.0
C2900 C -0.00246 0.62366 0.95616 0.0
H2901 H 0.0332 0.70199 0.91291 0.0
H2902 H 0.03449 0.66926 0.92328 0.0
H2903 H 0.98624 0.65093 0.9528 0.0
H2904 H 0.01171 0.57796 0.00443 0.0
H2905 H 0.02004 0.60565 0.98536 0.0
H2906 H 0.02803 0.60307 0.92597 0.0
C2907 C 0.02092 0.67457 0.91961 0.0
C2908 C -0.00471 0.64054 0.94674 0.0
C2909 C 0.02013 0.6933 0.91391 0.0
C2910 C 0.01038 0.57666 0.9892 0.0
C2911 C 0.01496 0.5925 0.97834 0.0
C2912 C 0.01895 0.61349 0.93189 0.0
C2913 C 0.00426 0.6631 0.92147 0.0
C2914 C 0.00515 0.64427 0.93004 0.0
C2915 C 0.01087 0.59204 0.9589 0.0
C2916 C 0.00947 0.61006 0.9489 0.0
H2917 H 0.97253 0.69457 0.90704 0.0
H2918 H 0.97377 0.66178 0.91822 0.0
H2919 H 0.0248 0.63333 0.90977 0.0
H2920 H 0.99251 0.54656 0.95436 0.0
H2921 H 0.00111 0.57419 0.93514 0.0
C2922 C 0.05502 0.27255 0.65302 0.0
C2923 C 0.04901 0.26064 0.6378 0.0
C2924 C 0.07271 0.27071 0.6613 0.0
C2925 C 0.1192 0.25036 0.65399 0.0
H2926 H 0.12267 0.25856 0.70822 0.0
C2927 C 0.18711 0.24478 0.70149 0.0
C2928 C 0.19006 0.2605 0.7139 0.0
C2929 C 0.17052 0.24271 0.69057 0.0
C2930 C 0.12187 0.25618 0.69307 0.0
H2931 H 0.05662 0.23755 0.61915 0.0
H2932 H 0.08736 0.23392 0.63398 0.0
H2933 H 0.09201 0.25861 0.6926 0.0
H2934 H 0.17916 0.28714 0.72351 0.0
H2935 H 0.15053 0.2837 0.70431 0.0
H2936 H 0.14928 0.24794 0.65472 0.0
C2937 C 0.07867 0.24501 0.63923 0.0
C2938 C 0.10436 0.25634 0.68409 0.0
C2939 C 0.0611 0.24711 0.63072 0.0
C2940 C 0.177 0.27473 0.71426 0.0
C2941 C 0.16062 0.27272 0.70338 0.0
C2942 C 0.13678 0.25002 0.66305 0.0
C2943 C 0.08457 0.25663 0.65478 0.0
C2944 C 0.1029 0.25414 0.66438 0.0
C2945 C 0.15689 0.2564 0.69198 0.0
C2946 C 0.13829 0.25362 0.68256 0.0
H2947 H 0.04597 0.28316 0.65865 0.0
H2948 H 0.07703 0.28026 0.67292 0.0
H2949 H 0.11854 0.24853 0.63878 0.0
H2950 H 0.19703 0.23362 0.70109 0.0
H2951 H 0.16791 0.23004 0.68177 0.0
C2952 C 0.47565 0.68626 0.10846 0.0
C2953 C 0.48064 0.70078 0.09587 0.0
C2954 C 0.47924 0.66746 0.10396 0.0
C2955 C 0.49538 0.63578 0.06531 0.0
H2956 H 0.51732 0.60908 0.10679 0.0
C2957 C 0.53756 0.57269 0.0504 0.0
C2958 C 0.5249 0.55677 0.0524 0.0
C2959 C 0.53464 0.58952 0.06035 0.0
C2960 C 0.51127 0.6165 0.09517 0.0
H2961 H 0.49179 0.70698 0.06813 0.0
H2962 H 0.49856 0.6744 0.06045 0.0
H2963 H 0.50391 0.63991 0.11278 0.0
H2964 H 0.50152 0.54485 0.0688 0.0
H2965 H 0.49663 0.57433 0.08636 0.0
H2966 H 0.50345 0.61265 0.04767 0.0
C2967 C 0.49162 0.6773 0.07368 0.0
C2968 C 0.50335 0.63396 0.09855 0.0
C2969 C 0.48771 0.69604 0.07806 0.0
C2970 C 0.51134 0.55697 0.06679 0.0
C2971 C 0.50854 0.5738 0.07688 0.0
C2972 C 0.50359 0.61858 0.06192 0.0
C2973 C 0.48816 0.66293 0.08692 0.0
C2974 C 0.49535 0.64381 0.08362 0.0
C2975 C 0.51932 0.59043 0.07266 0.0
C2976 C 0.51162 0.60891 0.07679 0.0
H2977 H 0.46997 0.68958 0.12223 0.0
H2978 H 0.47583 0.65663 0.11419 0.0
H2979 H 0.48908 0.64275 0.05356 0.0
H2980 H 0.54841 0.57282 0.0397 0.0
H2981 H 0.54314 0.60228 0.05704 0.0
C2982 C 0.05724 0.74112 0.83427 0.0
C2983 C 0.05449 0.74754 0.85291 0.0
C2984 C 0.0755 0.7383 0.82774 0.0
C2985 C 0.12405 0.75617 0.83647 0.0
H2986 H 0.13734 0.71466 0.80317 0.0
C2987 C 0.19302 0.76417 0.8002 0.0
C2988 C 0.18941 0.76454 0.78077 0.0
C2989 C 0.18037 0.75418 0.8119 0.0
C2990 C 0.13388 0.72618 0.81267 0.0
H2991 H 0.06864 0.75572 0.8794 0.0
H2992 H 0.10028 0.75101 0.86796 0.0
H2993 H 0.10594 0.71399 0.81764 0.0
H2994 H 0.1717 0.75317 0.75779 0.0
H2995 H 0.14952 0.73579 0.77809 0.0
H2996 H 0.15131 0.76896 0.83088 0.0
C2997 C 0.08841 0.74813 0.8584 0.0
C2998 C 0.11591 0.72589 0.82078 0.0
C2999 C 0.07026 0.75079 0.86494 0.0
C3000 C 0.17459 0.75299 0.77283 0.0
C3001 C 0.16198 0.74297 0.78448 0.0
C3002 C 0.1419 0.75647 0.82841 0.0
C3003 C 0.09126 0.74204 0.83971 0.0
C3004 C 0.11072 0.74111 0.83243 0.0
C3005 C 0.1639 0.74481 0.80421 0.0
C3006 C 0.14688 0.74174 0.81604 0.0
H3007 H 0.04534 0.73836 0.82474 0.0
H3008 H 0.07733 0.73378 0.81319 0.0
H3009 H 0.12037 0.76826 0.84512 0.0
H3010 H 0.20447 0.77306 0.8065 0.0
H3011 H 0.18239 0.7555 0.82705 0.0
C3012 C 0.98441 0.31078 0.56812 0.0
C3013 C 0.98997 0.30676 0.58654 0.0
C3014 C 0.98532 0.3295 0.56201 0.0
C3015 C 0.99211 0.37977 0.57908 0.0
H3016 H 0.00827 0.38807 0.52754 0.0
C3017 C 0.0111 0.45457 0.55373 0.0
C3018 C 0.00214 0.45942 0.53693 0.0
C3019 C 0.01153 0.43562 0.55877 0.0
C3020 C 0.0037 0.38593 0.54194 0.0
H3021 H 0.00068 0.31877 0.61315 0.0
H3022 H 0.00321 0.35136 0.60232 0.0
H3023 H 0.00382 0.3557 0.53889 0.0
H3024 H 0.98773 0.44838 0.51158 0.0
H3025 H 0.98792 0.41509 0.52072 0.0
H3026 H 0.99229 0.40999 0.58218 0.0
C3027 C -0.00257 0.34032 0.59271 0.0
C3028 C 0.001 0.36741 0.54843 0.0
C3029 C -0.00399 0.32166 0.59896 0.0
C3030 C -0.00547 0.44496 0.52472 0.0
C3031 C -0.00523 0.42595 0.52988 0.0
C3032 C -0.00499 0.39824 0.57266 0.0
C3033 C 0.99237 0.34444 0.57406 0.0
C3034 C -0.00493 0.36411 0.56706 0.0
C3035 C 0.00282 0.42118 0.54721 0.0
C3036 C 0.00075 0.40151 0.55402 0.0
H3037 H 0.97963 0.2994 0.55838 0.0
H3038 H 0.9808 0.33221 0.54773 0.0
H3039 H 0.98725 0.37782 0.5934 0.0
H3040 H 0.01761 0.46547 0.56309 0.0
H3041 H 0.01828 0.43227 0.57196 0.0
C3042 C 0.45299 0.27259 0.32909 0.0
C3043 C 0.45349 0.26558 0.34749 0.0
C3044 C 0.43576 0.27347 0.31947 0.0
C3045 C 0.39207 0.24628 0.31551 0.0
H3046 H 0.37177 0.28798 0.28847 0.0
C3047 C 0.32053 0.23587 0.27973 0.0
C3048 C 0.31775 0.2435 0.26187 0.0
C3049 C 0.33646 0.24125 0.29044 0.0
C3050 C 0.37742 0.27616 0.29574 0.0
H3051 H 0.43627 0.25493 0.37063 0.0
H3052 H 0.40632 0.25587 0.35357 0.0
H3053 H 0.40083 0.29346 0.3075 0.0
H3054 H 0.32892 0.26363 0.24156 0.0
H3055 H 0.35789 0.27239 0.26003 0.0
H3056 H 0.36961 0.22868 0.30338 0.0
C3057 C 0.41924 0.26085 0.3467 0.0
C3058 C 0.39391 0.27935 0.3067 0.0
C3059 C 0.43638 0.26027 0.3564 0.0
C3060 C 0.33102 0.25723 0.25512 0.0
C3061 C 0.34742 0.26236 0.26579 0.0
C3062 C 0.37593 0.24303 0.30437 0.0
C3063 C 0.41883 0.26706 0.32802 0.0
C3064 C 0.40122 0.26441 0.31678 0.0
C3065 C 0.35043 0.2541 0.28345 0.0
C3066 C 0.36821 0.25793 0.29452 0.0
H3067 H 0.46594 0.27702 0.32198 0.0
H3068 H 0.43575 0.27822 0.30503 0.0
H3069 H 0.39767 0.23446 0.32283 0.0
H3070 H 0.31014 0.22584 0.28565 0.0
H3071 H 0.33782 0.23519 0.30426 0.0
C3072 C 0.39788 0.50942 0.32243 0.0
C3073 C 0.40831 0.50132 0.30784 0.0
C3074 C 0.40394 0.50854 0.3412 0.0
C3075 C 0.43599 0.48409 0.37319 0.0
H3076 H 0.43731 0.53201 0.40118 0.0
C3077 C 0.48222 0.50229 0.44067 0.0
C3078 C 0.4742 0.51425 0.45413 0.0
C3079 C 0.47249 0.49768 0.42366 0.0
C3080 C 0.4368 0.5184 0.39372 0.0
H3081 H 0.433 0.48549 0.30156 0.0
H3082 H 0.4437 0.48428 0.3342 0.0
H3083 H 0.42254 0.52968 0.37022 0.0
H3084 H 0.44903 0.52884 0.46155 0.0
H3085 H 0.43215 0.52055 0.43252 0.0
H3086 H 0.45061 0.47298 0.39683 0.0
C3087 C 0.43075 0.49113 0.33118 0.0
C3088 C 0.42827 0.51708 0.37596 0.0
C3089 C 0.42474 0.49207 0.31244 0.0
C3090 C 0.45589 0.52024 0.45105 0.0
C3091 C 0.44616 0.51544 0.43443 0.0
C3092 C 0.44453 0.4854 0.3911 0.0
C3093 C 0.42051 0.49948 0.34574 0.0
C3094 C 0.42797 0.50002 0.36537 0.0
C3095 C 0.45457 0.50475 0.42022 0.0
C3096 C 0.44515 0.50265 0.40147 0.0
H3097 H 0.38499 0.51638 0.31938 0.0
H3098 H 0.39565 0.51496 0.35216 0.0
H3099 H 0.43576 0.47068 0.3654 0.0
H3100 H 0.49616 0.49716 0.44298 0.0
H3101 H 0.47926 0.48929 0.41296 0.0
C3102 C 0.26938 0.64374 0.0659 0.0
C3103 C 0.26615 0.65597 0.05102 0.0
C3104 C 0.26468 0.6489 0.08433 0.0
C3105 C 0.24831 0.68933 0.11364 0.0
H3106 H 0.2245 0.64891 0.14315 0.0
C3107 C 0.20609 0.70912 0.17573 0.0
C3108 C 0.21748 0.70677 0.19171 0.0
C3109 C 0.2085 0.69804 0.15952 0.0
C3110 C 0.23103 0.66024 0.13492 0.0
H3111 H 0.25643 0.68347 0.04361 0.0
H3112 H 0.24746 0.69214 0.07537 0.0
H3113 H 0.23912 0.6412 0.11291 0.0
H3114 H 0.23768 0.68883 0.20456 0.0
H3115 H 0.24192 0.66952 0.17604 0.0
H3116 H 0.23954 0.70837 0.1353 0.0
C3117 C 0.25415 0.67884 0.0732 0.0
C3118 C 0.23965 0.65589 0.11778 0.0
C3119 C 0.2593 0.67389 0.05491 0.0
C3120 C 0.22891 0.69112 0.19232 0.0
C3121 C 0.23131 0.68001 0.17605 0.0
C3122 C 0.23935 0.69366 0.13044 0.0
C3123 C 0.25623 0.66616 0.08805 0.0
C3124 C 0.24832 0.67044 0.1069 0.0
C3125 C 0.22219 0.68445 0.15923 0.0
C3126 C 0.23056 0.6792 0.1411 0.0
H3127 H 0.27476 0.62986 0.06316 0.0
H3128 H 0.26701 0.63904 0.09552 0.0
H3129 H 0.25522 0.70085 0.10597 0.0
H3130 H 0.19683 0.72082 0.17506 0.0
H3131 H 0.2012 0.70149 0.14665 0.0
C3132 C 0.09421 0.49263 0.81977 0.0
C3133 C 0.08869 0.50591 0.80669 0.0
C3134 C 0.08736 0.49321 0.83814 0.0
C3135 C 0.04761 0.50989 0.86543 0.0
H3136 H 0.07847 0.49568 0.90766 0.0
C3137 C 0.02438 0.50669 0.94411 0.0
C3138 C 0.03054 0.49097 0.95386 0.0
C3139 C 0.02988 0.50963 0.92549 0.0
C3140 C 0.06969 0.49957 0.89593 0.0
H3141 H 0.07262 0.53083 0.80263 0.0
H3142 H 0.06093 0.53207 0.83487 0.0
H3143 H 0.093 0.50063 0.87699 0.0
H3144 H 0.04528 0.46491 0.95131 0.0
H3145 H 0.05459 0.46989 0.91866 0.0
H3146 H 0.02429 0.50879 0.88457 0.0
C3147 C 0.07004 0.52086 0.8308 0.0
C3148 C 0.07799 0.50242 0.87843 0.0
C3149 C 0.07667 0.52011 0.81236 0.0
C3150 C 0.04071 0.47734 0.94421 0.0
C3151 C 0.04609 0.48023 0.92562 0.0
C3152 C 0.03931 0.50716 0.88303 0.0
C3153 C 0.07513 0.50728 0.84379 0.0
C3154 C 0.06692 0.507 0.86287 0.0
C3155 C 0.04148 0.49682 0.91646 0.0
C3156 C 0.05021 0.50137 0.89822 0.0
H3157 H 0.10358 0.48164 0.81573 0.0
H3158 H 0.09132 0.48237 0.84778 0.0
H3159 H 0.03871 0.51339 0.85366 0.0
H3160 H 0.01646 0.5174 0.95122 0.0
H3161 H 0.02608 0.52247 0.91861 0.0
C3162 C 0.22596 0.34069 0.55593 0.0
C3163 C 0.22888 0.36037 0.55364 0.0
C3164 C 0.22532 0.33314 0.57392 0.0
C3165 C 0.21953 0.34217 0.6245 0.0
H3166 H 0.25512 0.30258 0.62853 0.0
C3167 C 0.25251 0.30722 0.69113 0.0
C3168 C 0.25324 0.28743 0.68911 0.0
C3169 C 0.24407 0.31751 0.677 0.0
C3170 C 0.24497 0.31346 0.62755 0.0
H3171 H 0.232 0.38771 0.56844 0.0
H3172 H 0.23085 0.37434 0.60006 0.0
H3173 H 0.25155 0.31837 0.59869 0.0
H3174 H 0.24439 0.26253 0.67222 0.0
H3175 H 0.22958 0.28043 0.64759 0.0
H3176 H 0.2133 0.33719 0.65377 0.0
C3177 C 0.22914 0.36486 0.58784 0.0
C3178 C 0.24294 0.32249 0.61051 0.0
C3179 C 0.22991 0.37245 0.56976 0.0
C3180 C 0.24379 0.2778 0.67403 0.0
C3181 C 0.23539 0.28802 0.65997 0.0
C3182 C 0.22163 0.33307 0.64175 0.0
C3183 C 0.22747 0.3451 0.59001 0.0
C3184 C 0.22995 0.33662 0.60867 0.0
C3185 C 0.23654 0.30799 0.66078 0.0
C3186 C 0.23409 0.31837 0.64319 0.0
H3187 H 0.22498 0.331 0.54383 0.0
H3188 H 0.2238 0.31785 0.57528 0.0
H3189 H 0.20953 0.35316 0.62339 0.0
H3190 H 0.25993 0.31481 0.70268 0.0
H3191 H 0.24515 0.33291 0.67784 0.0
C3192 C 0.41039 0.52102 0.19766 0.0
C3193 C 0.39231 0.5124 0.20065 0.0
C3194 C 0.41707 0.52361 0.17931 0.0
C3195 C 0.41171 0.50162 0.13259 0.0
H3196 H 0.4429 0.5453 0.11661 0.0
C3197 C 0.45298 0.49508 0.0654 0.0
C3198 C 0.47232 0.49881 0.06886 0.0
C3199 C 0.43973 0.50262 0.07753 0.0
C3200 C 0.43408 0.53308 0.12082 0.0
H3201 H 0.36683 0.50033 0.18674 0.0
H3202 H 0.37861 0.50466 0.15484 0.0
H3203 H 0.42637 0.54662 0.14684 0.0
H3204 H 0.49325 0.51423 0.08646 0.0
H3205 H 0.47025 0.52747 0.10773 0.0
H3206 H 0.42011 0.4876 0.10731 0.0
C3207 C 0.38759 0.5094 0.16665 0.0
C3208 C 0.42471 0.53381 0.13812 0.0
C3209 C 0.38086 0.50696 0.18494 0.0
C3210 C 0.47831 0.51148 0.08346 0.0
C3211 C 0.4651 0.51905 0.0956 0.0
C3212 C 0.42109 0.50086 0.11539 0.0
C3213 C 0.40587 0.51748 0.16364 0.0
C3214 C 0.41383 0.51789 0.14437 0.0
C3215 C 0.44575 0.51373 0.09344 0.0
C3216 C 0.4328 0.51638 0.10953 0.0
H3217 H 0.4195 0.52547 0.20947 0.0
H3218 H 0.4313 0.5297 0.17742 0.0
H3219 H 0.40366 0.48902 0.13713 0.0
H3220 H 0.44817 0.48515 0.05425 0.0
H3221 H 0.42489 0.49855 0.07532 0.0
C3222 C 0.26143 0.66045 0.93017 0.0
C3223 C 0.26683 0.6724 0.94557 0.0
C3224 C 0.25829 0.66815 0.91254 0.0
C3225 C 0.24668 0.71398 0.89206 0.0
H3226 H 0.25439 0.68697 0.84477 0.0
C3227 C 0.24653 0.74596 0.81754 0.0
C3228 C 0.23922 0.73404 0.8028 0.0
C3229 C 0.2467 0.7394 0.83599 0.0
C3230 C 0.25189 0.69454 0.85791 0.0
H3231 H 0.27498 0.70128 0.95455 0.0
H3232 H 0.27077 0.71465 0.92342 0.0
H3233 H 0.26439 0.67333 0.87411 0.0
H3234 H 0.22404 0.70714 0.79589 0.0
H3235 H 0.22431 0.69573 0.82813 0.0
H3236 H 0.23482 0.73556 0.8755 0.0
C3237 C 0.268 0.69951 0.92508 0.0
C3238 C 0.25767 0.68675 0.87473 0.0
C3239 C 0.27068 0.69186 0.94281 0.0
C3240 C 0.23038 0.71631 0.80697 0.0
C3241 C 0.23043 0.70983 0.82537 0.0
C3242 C 0.24114 0.72192 0.87515 0.0
C3243 C 0.26092 0.68787 0.90997 0.0
C3244 C 0.25519 0.69639 0.89201 0.0
C3245 C 0.23943 0.72093 0.83983 0.0
C3246 C 0.24373 0.71223 0.85796 0.0
H3247 H 0.25813 0.64541 0.93209 0.0
H3248 H 0.25272 0.65875 0.90128 0.0
H3249 H 0.24412 0.72158 0.90516 0.0
H3250 H 0.25314 0.75983 0.81467 0.0
H3251 H 0.25369 0.74822 0.84696 0.0
C3252 C 0.1165 0.51569 0.68974 0.0
C3253 C 0.10796 0.50199 0.7015 0.0
C3254 C 0.10945 0.51815 0.6717 0.0
C3255 C 0.06683 0.51021 0.64262 0.0
H3256 H 0.10177 0.52179 0.60188 0.0
C3257 C 0.05455 0.51372 0.56048 0.0
C3258 C 0.04574 0.53095 0.55834 0.0
C3259 C 0.06417 0.51025 0.57715 0.0
C3260 C 0.09196 0.51857 0.61319 0.0
H3261 H 0.08564 0.47983 0.70367 0.0
H3262 H 0.07362 0.48365 0.67149 0.0
H3263 H 0.11404 0.51375 0.63286 0.0
H3264 H 0.04158 0.55867 0.57106 0.0
H3265 H 0.05862 0.5525 0.60029 0.0
H3266 H 0.04479 0.5151 0.62269 0.0
C3267 C 0.08552 0.49275 0.6765 0.0
C3268 C 0.09889 0.51403 0.63086 0.0
C3269 C 0.09244 0.49047 0.69479 0.0
C3270 C 0.04816 0.54526 0.57242 0.0
C3271 C 0.05775 0.54173 0.58911 0.0
C3272 C 0.05992 0.51483 0.62492 0.0
C3273 C 0.09393 0.50673 0.66486 0.0
C3274 C 0.08641 0.51 0.6458 0.0
C3275 C 0.06517 0.52398 0.59174 0.0
C3276 C 0.0725 0.51916 0.61024 0.0
H3277 H 0.12823 0.52506 0.69472 0.0
H3278 H 0.1159 0.52938 0.66329 0.0
H3279 H 0.05689 0.50734 0.6539 0.0
H3280 H 0.05274 0.50233 0.55 0.0
H3281 H 0.06984 0.49646 0.5791 0.0
C3282 C 0.23369 0.35662 0.43116 0.0
C3283 C 0.23503 0.34421 0.44634 0.0
C3284 C 0.23517 0.34981 0.41252 0.0
C3285 C 0.25701 0.31119 0.38701 0.0
H3286 H 0.22545 0.3227 0.34427 0.0
C3287 C 0.25451 0.26431 0.32126 0.0
C3288 C 0.25482 0.27243 0.30333 0.0
C3289 C 0.25222 0.27544 0.3374 0.0
C3290 C 0.23457 0.31966 0.35602 0.0
H3291 H 0.23738 0.3148 0.45392 0.0
H3292 H 0.23959 0.30291 0.42155 0.0
H3293 H 0.21995 0.33755 0.37532 0.0
H3294 H 0.25265 0.29865 0.28823 0.0
H3295 H 0.24879 0.31845 0.3169 0.0
H3296 H 0.27151 0.29323 0.36806 0.0
C3297 C 0.23795 0.31796 0.424 0.0
C3298 C 0.23138 0.32807 0.37377 0.0
C3299 C 0.23657 0.32474 0.44253 0.0
C3300 C 0.25241 0.29202 0.30188 0.0
C3301 C 0.2502 0.30331 0.31823 0.0
C3302 C 0.26023 0.30292 0.3694 0.0
C3303 C 0.23797 0.33049 0.40884 0.0
C3304 C 0.24219 0.32339 0.38955 0.0
C3305 C 0.25034 0.29509 0.33617 0.0
C3306 C 0.24866 0.30653 0.35385 0.0
H3307 H 0.23254 0.37173 0.43369 0.0
H3308 H 0.23511 0.35977 0.4011 0.0
H3309 H 0.26596 0.30777 0.39877 0.0
H3310 H 0.25597 0.24921 0.32289 0.0
H3311 H 0.25187 0.26859 0.35094 0.0
C3312 C 0.31078 0.38863 0.5066 0.0
C3313 C 0.29744 0.39909 0.4971 0.0
C3314 C 0.32889 0.39676 0.51065 0.0
C3315 C 0.35101 0.44407 0.51921 0.0
H3316 H 0.39942 0.42221 0.51124 0.0
C3317 C 0.41725 0.49005 0.50879 0.0
C3318 C 0.43404 0.48639 0.51835 0.0
C3319 C 0.40162 0.47728 0.50938 0.0
C3320 C 0.38596 0.42828 0.51393 0.0
H3321 H 0.29309 0.42532 0.48272 0.0
H3322 H 0.32473 0.43931 0.48939 0.0
H3323 H 0.36999 0.40292 0.50451 0.0
H3324 H 0.44768 0.46621 0.53584 0.0
H3325 H 0.41986 0.44365 0.53697 0.0
H3326 H 0.36671 0.46952 0.52799 0.0
C3327 C 0.32103 0.42512 0.49427 0.0
C3328 C 0.36919 0.41732 0.50999 0.0
C3329 C 0.30297 0.4171 0.49036 0.0
C3330 C 0.43488 0.46945 0.52844 0.0
C3331 C 0.41906 0.45655 0.52904 0.0
C3332 C 0.36762 0.45491 0.52316 0.0
C3333 C 0.33385 0.41539 0.50516 0.0
C3334 C 0.35162 0.42548 0.51181 0.0
C3335 C 0.40227 0.46051 0.51959 0.0
C3336 C 0.38523 0.44742 0.51977 0.0
H3337 H 0.30688 0.37468 0.51195 0.0
H3338 H 0.33857 0.38894 0.51897 0.0
H3339 H 0.33762 0.45049 0.52131 0.0
H3340 H 0.41618 0.50269 0.50051 0.0
H3341 H 0.38902 0.48043 0.50157 0.0
C3342 C 0.80275 0.0792 0.51739 0.0
C3343 C 0.79964 0.08925 0.50085 0.0
C3344 C 0.82049 0.07265 0.52129 0.0
C3345 C 0.87051 0.07625 0.50601 0.0
H3346 H 0.86969 0.02306 0.51947 0.0
C3347 C 0.92762 0.03016 0.48163 0.0
C3348 C 0.93832 0.02245 0.49599 0.0
C3349 C 0.91005 0.03698 0.48566 0.0
C3350 C 0.8701 0.03797 0.516 0.0
H3351 H 0.81262 0.10099 0.47577 0.0
H3352 H 0.84344 0.08865 0.48199 0.0
H3353 H 0.84067 0.04013 0.52136 0.0
H3354 H 0.93823 0.01367 0.52517 0.0
H3355 H 0.90715 0.02552 0.53214 0.0
H3356 H 0.89969 0.07367 0.49959 0.0
C3357 C 0.83233 0.08623 0.49222 0.0
C3358 C 0.85359 0.0478 0.51716 0.0
C3359 C 0.81464 0.09305 0.48848 0.0
C3360 C 0.93024 0.0196 0.51387 0.0
C3361 C 0.91258 0.02647 0.51791 0.0
C3362 C 0.8869 0.06638 0.50468 0.0
C3363 C 0.83537 0.07579 0.50858 0.0
C3364 C 0.85348 0.06678 0.51134 0.0
C3365 C 0.90295 0.03612 0.50406 0.0
C3366 C 0.88655 0.04699 0.50887 0.0
H3367 H 0.79152 0.07662 0.52748 0.0
H3368 H 0.82252 0.06499 0.53417 0.0
H3369 H 0.87097 0.09102 0.50201 0.0
H3370 H 0.93341 0.0322 0.46766 0.0
H3371 H 0.9025 0.04396 0.47469 0.0
C3372 C 0.62937 0.0707 0.25292 0.0
C3373 C 0.63979 0.05748 0.26255 0.0
C3374 C 0.63739 0.08873 0.24929 0.0
C3375 C 0.68429 0.11039 0.24169 0.0
H3376 H 0.65961 0.15816 0.24139 0.0
C3377 C 0.72584 0.18069 0.23652 0.0
C3378 C 0.71921 0.19479 0.22502 0.0
C3379 C 0.71473 0.16429 0.23967 0.0
C3380 C 0.6665 0.14482 0.24109 0.0
H3381 H 0.66578 0.05343 0.27791 0.0
H3382 H 0.67965 0.0852 0.27195 0.0
H3383 H 0.6424 0.12946 0.25257 0.0
H3384 H 0.69593 0.20339 0.20789 0.0
H3385 H 0.67619 0.17393 0.21311 0.0
H3386 H 0.70836 0.12559 0.23037 0.0
C3387 C 0.66554 0.08133 0.26664 0.0
C3388 C 0.65675 0.12849 0.24762 0.0
C3389 C 0.65758 0.06323 0.27015 0.0
C3390 C 0.70122 0.19245 0.21668 0.0
C3391 C 0.69002 0.17577 0.21973 0.0
C3392 C 0.69395 0.12661 0.23514 0.0
C3393 C 0.65586 0.09387 0.2554 0.0
C3394 C 0.66576 0.11126 0.24839 0.0
C3395 C 0.69679 0.16158 0.23125 0.0
C3396 C 0.68533 0.14405 0.23524 0.0
H3397 H 0.61551 0.06674 0.24703 0.0
H3398 H 0.62961 0.09813 0.24062 0.0
H3399 H 0.69135 0.09715 0.2415 0.0
H3400 H 0.73956 0.18255 0.24341 0.0
H3401 H 0.72008 0.15385 0.24903 0.0
C3402 C 0.69461 0.93542 0.01455 0.0
C3403 C 0.69734 0.92063 0.00139 0.0
C3404 C 0.6765 0.94118 0.01837 0.0
C3405 C 0.62583 0.92503 0.01353 0.0
H3406 H 0.61801 0.97885 0.01891 0.0
C3407 C 0.56187 0.96076 0.98809 0.0
C3408 C 0.55827 0.97888 -0.00479 0.0
C3409 C 0.57519 0.95007 -0.0031 0.0
C3410 C 0.61989 0.9637 0.01809 0.0
H3411 H 0.68326 0.90094 0.98118 0.0
H3412 H 0.65164 0.91156 0.98728 0.0
H3413 H 0.64979 0.96843 0.01608 0.0
H3414 H 0.56403 -0.00057 0.01778 0.0
H3415 H 0.58715 0.9806 0.03365 0.0
H3416 H 0.59566 0.92054 0.01439 0.0
C3417 C 0.66348 0.91824 -0.00485 0.0
C3418 C 0.63821 0.95772 0.01629 0.0
C3419 C 0.68163 0.91237 0.99142 0.0
C3420 C 0.56638 0.98529 0.01241 0.0
C3421 C 0.57976 0.9746 0.02127 0.0
C3422 C 0.60743 0.93105 0.01526 0.0
C3423 C 0.66067 0.93243 0.00898 0.0
C3424 C 0.64136 0.9384 0.01327 0.0
C3425 C 0.58533 0.95758 0.01275 0.0
C3426 C 0.60424 0.95053 0.01677 0.0
H3427 H 0.70639 0.94203 0.02256 0.0
H3428 H 0.67487 0.95211 0.02913 0.0
H3429 H 0.62783 0.90998 0.01178 0.0
H3430 H 0.55566 0.9556 0.97479 0.0
H3431 H 0.57906 0.93703 0.98993 0.0
C3432 C 0.36517 0.43032 0.25525 0.0
C3433 C 0.35349 0.44456 0.26165 0.0
C3434 C 0.35931 0.41119 0.25649 0.0
C3435 C 0.32545 0.37688 0.27852 0.0
H3436 H 0.32862 0.34987 0.23048 0.0
C3437 C 0.27543 0.3152 0.25179 0.0
C3438 C 0.28224 0.30267 0.23819 0.0
C3439 C 0.28777 0.32891 0.26054 0.0
C3440 C 0.32809 0.35693 0.2442 0.0
H3441 H 0.32692 0.4499 0.27522 0.0
H3442 H 0.3166 0.4162 0.27734 0.0
H3443 H 0.34274 0.38186 0.23397 0.0
H3444 H 0.3071 0.29281 0.2244 0.0
H3445 H 0.32884 0.3166 0.23986 0.0
H3446 H 0.30997 0.35199 0.2884 0.0
C3447 C 0.33031 0.41998 0.2714 0.0
C3448 C 0.33611 0.37535 0.24614 0.0
C3449 C 0.33611 0.43923 0.27 0.0
C3450 C 0.30167 0.30249 0.23487 0.0
C3451 C 0.31403 0.31612 0.24365 0.0
C3452 C 0.31739 0.35831 0.27657 0.0
C3453 C 0.34171 0.40582 0.26427 0.0
C3454 C 0.33459 0.38565 0.26319 0.0
C3455 C 0.30699 0.33026 0.25556 0.0
C3456 C 0.31834 0.3483 0.25924 0.0
H3457 H 0.37868 0.43394 0.2488 0.0
H3458 H 0.36843 0.40058 0.25101 0.0
H3459 H 0.32426 0.38449 0.29187 0.0
H3460 H 0.2604 0.31547 0.25443 0.0
H3461 H 0.28191 0.33957 0.26966 0.0
C3462 C 0.18979 0.63009 0.00404 0.0
C3463 C 0.20145 0.6213 0.99095 0.0
C3464 C 0.17127 0.62291 0.00678 0.0
C3465 C 0.14361 0.57758 0.00166 0.0
H3466 H 0.1015 0.60718 0.01688 0.0
C3467 C 0.06184 0.55727 0.01288 0.0
C3468 C 0.06398 0.54171 0.02466 0.0
C3469 C 0.07694 0.57066 0.01041 0.0
C3470 C 0.11318 0.59883 0.01262 0.0
H3471 H 0.2027 0.59914 0.96944 0.0
H3472 H 0.16997 0.58707 0.97351 0.0
H3473 H 0.13104 0.62347 0.00637 0.0
H3474 H 0.08239 0.52929 0.04496 0.0
H3475 H 0.1086 0.55276 0.0408 0.0
H3476 H 0.12591 0.55302 0.0079 0.0
C3477 C 0.17531 0.59908 0.98218 0.0
C3478 C 0.13006 0.60808 0.00666 0.0
C3479 C 0.19397 0.60602 0.97974 0.0
C3480 C 0.08052 0.54098 0.03556 0.0
C3481 C 0.09549 0.55436 0.03318 0.0
C3482 C 0.1269 0.56842 0.0077 0.0
C3483 C 0.16398 0.607 -0.00378 0.0
C3484 C 0.14549 0.59752 0.0012 0.0
C3485 C 0.0942 0.56862 0.01979 0.0
C3486 C 0.11164 0.57893 0.01344 0.0
H3487 H 0.19534 0.64177 0.01303 0.0
H3488 H 0.16307 0.62918 0.01789 0.0
H3489 H 0.15525 0.56897 -0.00213 0.0
H3490 H 0.04921 0.55814 0.0043 0.0
H3491 H 0.07566 0.58157 1e-05 0.0
C3492 C 0.65517 0.93767 0.26164 0.0
C3493 C 0.65925 0.95288 0.24968 0.0
C3494 C 0.66136 0.91969 0.25706 0.0
C3495 C 0.69857 0.89824 0.22935 0.0
H3496 H 0.67447 0.85199 0.24872 0.0
C3497 C 0.73064 0.82319 0.23406 0.0
C3498 C 0.72974 0.81688 0.25277 0.0
C3499 C 0.72174 0.83956 0.22902 0.0
C3500 C 0.68119 0.86479 0.24299 0.0
H3501 H 0.67144 0.96115 0.22288 0.0
H3502 H 0.68165 0.92976 0.21457 0.0
H3503 H 0.65671 0.88063 0.24741 0.0
H3504 H 0.72115 0.82413 0.28128 0.0
H3505 H 0.70576 0.85261 0.27244 0.0
H3506 H 0.72319 0.88233 0.22542 0.0
C3507 C 0.67448 0.93174 0.22785 0.0
C3508 C 0.67113 0.88117 0.24237 0.0
C3509 C 0.66873 0.94974 0.23267 0.0
C3510 C 0.72177 0.82839 0.26668 0.0
C3511 C 0.71278 0.84454 0.26163 0.0
C3512 C 0.70853 0.88176 0.22975 0.0
C3513 C 0.67131 0.91661 0.24019 0.0
C3514 C 0.68008 0.89833 0.23655 0.0
C3515 C 0.71192 0.84968 0.24267 0.0
C3516 C 0.70022 0.8653 0.23754 0.0
H3517 H 0.6476 0.93977 0.27469 0.0
H3518 H 0.65891 0.90842 0.26704 0.0
H3519 H 0.70593 0.91119 0.22477 0.0
H3520 H 0.73686 0.81474 0.22306 0.0
H3521 H 0.72152 0.84362 0.21436 0.0
C3522 C 0.84976 0.07202 0.76074 0.0
C3523 C 0.83847 0.05721 0.75203 0.0
C3524 C 0.8455 0.09101 0.75846 0.0
C3525 C 0.81852 0.1218 0.7275 0.0
H3526 H 0.81576 0.15427 0.7721 0.0
C3527 C 0.76425 0.17726 0.73768 0.0
C3528 C 0.76779 0.1923 0.75067 0.0
C3529 C 0.77843 0.16494 0.73333 0.0
C3530 C 0.81694 0.14569 0.75934 0.0
H3531 H 0.81366 0.05077 0.73438 0.0
H3532 H 0.80613 0.0837 0.73069 0.0
H3533 H 0.82968 0.1237 0.77442 0.0
H3534 H 0.78895 0.20737 0.76831 0.0
H3535 H 0.81402 0.1861 0.76042 0.0
H3536 H 0.80497 0.14347 0.71261 0.0
C3537 C 0.81848 0.08071 0.73898 0.0
C3538 C 0.82486 0.12807 0.76073 0.0
C3539 C 0.82265 0.06179 0.74133 0.0
C3540 C 0.78607 0.19593 0.75805 0.0
C3541 C 0.80031 0.18365 0.75367 0.0
C3542 C 0.81064 0.13946 0.72609 0.0
C3543 C 0.82995 0.09556 0.74732 0.0
C3544 C 0.82497 0.11558 0.74502 0.0
C3545 C 0.79631 0.16737 0.74214 0.0
C3546 C 0.80899 0.15125 0.7422 0.0
H3547 H 0.86214 0.06897 0.76895 0.0
H3548 H 0.85457 0.10215 0.76511 0.0
H3549 H 0.81887 0.11266 0.71502 0.0
H3550 H 0.7501 0.17408 0.73212 0.0
H3551 H 0.77475 0.15251 0.72451 0.0
loop_
_geom_bond_atom_site_label_1
_geom_bond_atom_site_label_2
_geom_bond_distance
_geom_bond_site_symmetry_2
_ccdc_geom_bond_type
O0 Cd1 2.223 . S
O0 C8 1.315 . S
Cd1 O0 2.223 . S
Cd1 O4 2.297 1_455 S
Cd1 O5 2.439 1_455 S
Cd1 O11 2.240 . S
Cd2 O3 2.240 . S
Cd2 O10 2.223 . S
Cd2 O12 2.297 . S
Cd2 O13 2.439 . S
O3 Cd2 2.240 . S
O3 C8 1.279 . S
O4 Cd1 2.297 1_655 S
O4 C6 1.247 . S
O5 Cd1 2.439 1_655 S
O5 C6 1.208 . S
C6 O4 1.247 . S
C6 O5 1.208 . S
C7 O12 1.247 . S
C7 O13 1.208 . S
C8 O0 1.315 . S
C8 O3 1.279 . S
C9 O10 1.315 . S
C9 O11 1.279 . S
O10 Cd2 2.223 . S
O10 C9 1.315 . S
O11 Cd1 2.240 . S
O11 C9 1.279 . S
O12 Cd2 2.297 . S
O12 C7 1.247 . S
O13 Cd2 2.439 . S
O13 C7 1.208 . S
O14 Cd15 2.223 . S
O14 C22 1.315 . S
Cd15 O14 2.223 . S
Cd15 O18 2.297 . S
Cd15 O19 2.439 1_455 S
Cd15 O25 2.240 1_455 S
Cd16 O17 2.240 1_655 S
Cd16 O24 2.223 1_655 S
Cd16 O26 2.297 . S
Cd16 O27 2.439 . S
O17 Cd16 2.240 1_455 S
O17 C22 1.279 . S
O18 Cd15 2.297 . S
O18 C20 1.247 . S
O19 Cd15 2.439 1_655 S
O19 C20 1.208 1_655 S
C20 O18 1.247 . S
C20 O19 1.208 1_455 S
C21 O26 1.247 . S
C21 O27 1.208 . S
C22 O14 1.315 . S
C22 O17 1.279 . S
C23 O24 1.315 . S
C23 O25 1.279 1_455 S
O24 Cd16 2.223 1_455 S
O24 C23 1.315 . S
O25 Cd15 2.240 1_655 S
O25 C23 1.279 1_655 S
O26 Cd16 2.297 . S
O26 C21 1.247 . S
O27 Cd16 2.439 . S
O27 C21 1.208 . S
O28 Cd29 2.223 . S
O28 C36 1.315 . S
Cd29 O28 2.223 . S
Cd29 O32 2.297 . S
Cd29 O33 2.439 . S
Cd29 O39 2.240 . S
Cd30 O31 2.240 . S
Cd30 O38 2.223 . S
Cd30 O40 2.297 . S
Cd30 O41 2.439 . S
O31 Cd30 2.240 . S
O31 C36 1.279 . S
O32 Cd29 2.297 . S
O32 C34 1.247 . S
O33 Cd29 2.439 . S
O33 C34 1.208 . S
C34 O32 1.247 . S
C34 O33 1.208 . S
C35 O40 1.247 . S
C35 O41 1.208 . S
C36 O28 1.315 . S
C36 O31 1.279 . S
C37 O38 1.315 . S
C37 O39 1.279 . S
O38 Cd30 2.223 . S
O38 C37 1.315 . S
O39 Cd29 2.240 . S
O39 C37 1.279 . S
O40 Cd30 2.297 . S
O40 C35 1.247 . S
O41 Cd30 2.439 . S
O41 C35 1.208 . S
O42 Cd43 2.223 . S
O42 C50 1.315 . S
Cd43 O42 2.223 . S
Cd43 O46 2.297 . S
Cd43 O47 2.439 . S
Cd43 O53 2.240 . S
Cd44 O45 2.240 . S
Cd44 O52 2.223 . S
Cd44 O54 2.297 . S
Cd44 O55 2.439 . S
O45 Cd44 2.240 . S
O45 C50 1.279 . S
O46 Cd43 2.297 . S
O46 C48 1.247 . S
O47 Cd43 2.439 . S
O47 C48 1.208 . S
C48 O46 1.247 . S
C48 O47 1.208 . S
C49 O54 1.247 . S
C49 O55 1.208 . S
C50 O42 1.315 . S
C50 O45 1.279 . S
C51 O52 1.315 . S
C51 O53 1.279 . S
O52 Cd44 2.223 . S
O52 C51 1.315 . S
O53 Cd43 2.240 . S
O53 C51 1.279 . S
O54 Cd44 2.297 . S
O54 C49 1.247 . S
O55 Cd44 2.439 . S
O55 C49 1.208 . S
O56 Cd57 2.223 1_545 S
O56 C64 1.319 . S
Cd57 O56 2.223 1_565 S
Cd57 O60 2.297 . S
Cd57 O61 2.439 . S
Cd57 O67 2.240 1_565 S
Cd58 O59 2.240 1_545 S
Cd58 O66 2.223 . S
Cd58 O68 2.297 . S
Cd58 O69 2.439 1_545 S
O59 Cd58 2.240 1_565 S
O59 C64 1.263 1_565 S
O60 Cd57 2.297 . S
O60 C62 1.247 . S
O61 Cd57 2.439 . S
O61 C62 1.208 . S
C62 O60 1.247 . S
C62 O61 1.208 . S
C63 O68 1.247 . S
C63 O69 1.208 1_545 S
C64 O56 1.319 . S
C64 O59 1.263 1_545 S
C65 O66 1.315 . S
C65 O67 1.279 . S
O66 Cd58 2.223 . S
O66 C65 1.315 . S
O67 Cd57 2.240 1_545 S
O67 C65 1.279 . S
O68 Cd58 2.297 . S
O68 C63 1.247 . S
O69 Cd58 2.439 1_565 S
O69 C63 1.208 1_565 S
O70 Cd71 2.223 . S
O70 C78 1.315 . S
Cd71 O70 2.223 . S
Cd71 O74 2.297 . S
Cd71 O75 2.439 . S
Cd71 O81 2.240 . S
Cd72 O73 2.240 . S
Cd72 O80 2.223 . S
Cd72 O82 2.297 . S
Cd72 O83 2.439 . S
O73 Cd72 2.240 . S
O73 C78 1.279 . S
O74 Cd71 2.297 . S
O74 C76 1.247 . S
O75 Cd71 2.439 . S
O75 C76 1.208 . S
C76 O74 1.247 . S
C76 O75 1.208 . S
C77 O82 1.247 . S
C77 O83 1.208 . S
C78 O70 1.315 . S
C78 O73 1.279 . S
C79 O80 1.315 . S
C79 O81 1.279 . S
O80 Cd72 2.223 . S
O80 C79 1.315 . S
O81 Cd71 2.240 . S
O81 C79 1.279 . S
O82 Cd72 2.297 . S
O82 C77 1.247 . S
O83 Cd72 2.439 . S
O83 C77 1.208 . S
O84 Cd85 2.223 . S
O84 C92 1.315 . S
Cd85 O84 2.223 . S
Cd85 O88 2.297 . S
Cd85 O89 2.439 . S
Cd85 O95 2.240 . S
Cd86 O87 2.240 . S
Cd86 O94 2.223 1_545 S
Cd86 O96 2.306 . S
Cd86 O97 2.439 . S
O87 Cd86 2.240 . S
O87 C92 1.279 . S
O88 Cd85 2.297 . S
O88 C90 1.247 . S
O89 Cd85 2.439 . S
O89 C90 1.208 . S
C90 O88 1.247 . S
C90 O89 1.208 . S
C91 O96 1.268 . S
C91 O97 1.208 . S
C92 O84 1.315 . S
C92 O87 1.279 . S
C93 O94 1.315 . S
C93 O95 1.279 1_565 S
O94 Cd86 2.223 1_565 S
O94 C93 1.315 . S
O95 Cd85 2.240 . S
O95 C93 1.279 1_545 S
O96 Cd86 2.306 . S
O96 C91 1.268 . S
O97 Cd86 2.439 . S
O97 C91 1.208 . S
O98 Cd99 2.223 . S
O98 C106 1.315 . S
Cd99 O98 2.223 . S
Cd99 O102 2.297 . S
Cd99 O103 2.439 1_554 S
Cd99 O109 2.240 1_554 S
Cd100 O101 2.240 1_556 S
Cd100 O108 2.223 1_556 S
Cd100 O110 2.297 . S
Cd100 O111 2.439 . S
O101 Cd100 2.240 1_554 S
O101 C106 1.279 . S
O102 Cd99 2.297 . S
O102 C104 1.247 . S
O103 Cd99 2.439 1_556 S
O103 C104 1.208 1_556 S
C104 O102 1.247 . S
C104 O103 1.208 1_554 S
C105 O110 1.247 . S
C105 O111 1.208 . S
C106 O98 1.315 . S
C106 O101 1.279 . S
C107 O108 1.315 . S
C107 O109 1.279 1_554 S
O108 Cd100 2.223 1_554 S
O108 C107 1.315 . S
O109 Cd99 2.240 1_556 S
O109 C107 1.279 1_556 S
O110 Cd100 2.297 . S
O110 C105 1.247 . S
O111 Cd100 2.439 . S
O111 C105 1.208 . S
O112 Cd113 2.223 . S
O112 C120 1.315 . S
Cd113 O112 2.223 . S
Cd113 O116 2.297 . S
Cd113 O117 2.439 . S
Cd113 O123 2.240 . S
Cd114 O115 2.277 . S
Cd114 O122 2.236 . S
Cd114 O124 2.255 1_554 S
Cd114 O125 2.401 1_554 S
O115 Cd114 2.277 . S
O115 C120 1.279 . S
O116 Cd113 2.297 . S
O116 C118 1.247 . S
O117 Cd113 2.439 . S
O117 C118 1.208 . S
C118 O116 1.247 . S
C118 O117 1.208 . S
C119 O124 1.247 . S
C119 O125 1.208 . S
C120 O112 1.315 . S
C120 O115 1.279 . S
C121 O122 1.315 . S
C121 O123 1.279 . S
O122 Cd114 2.236 . S
O122 C121 1.315 . S
O123 Cd113 2.240 . S
O123 C121 1.279 . S
O124 Cd114 2.255 1_556 S
O124 C119 1.247 . S
O125 Cd114 2.401 1_556 S
O125 C119 1.208 . S
O126 Cd127 2.223 . S
O126 C134 1.315 . S
Cd127 O126 2.223 . S
Cd127 O130 2.297 . S
Cd127 O131 2.439 . S
Cd127 O137 2.240 . S
Cd128 O129 2.240 . S
Cd128 O136 2.223 . S
Cd128 O138 2.297 . S
Cd128 O139 2.439 . S
O129 Cd128 2.240 . S
O129 C134 1.279 . S
O130 Cd127 2.297 . S
O130 C132 1.247 . S
O131 Cd127 2.439 . S
O131 C132 1.208 . S
C132 O130 1.247 . S
C132 O131 1.208 . S
C133 O138 1.247 . S
C133 O139 1.208 . S
C134 O126 1.315 . S
C134 O129 1.279 . S
C135 O136 1.315 . S
C135 O137 1.279 . S
O136 Cd128 2.223 . S
O136 C135 1.315 . S
O137 Cd127 2.240 . S
O137 C135 1.279 . S
O138 Cd128 2.297 . S
O138 C133 1.247 . S
O139 Cd128 2.439 . S
O139 C133 1.208 . S
O140 Cd141 2.223 . S
O140 C148 1.315 . S
Cd141 O140 2.223 . S
Cd141 O144 2.297 . S
Cd141 O145 2.439 . S
Cd141 O151 2.240 . S
Cd142 O143 2.240 . S
Cd142 O150 2.223 . S
Cd142 O152 2.297 . S
Cd142 O153 2.439 . S
O143 Cd142 2.240 . S
O143 C148 1.279 . S
O144 Cd141 2.297 . S
O144 C146 1.247 . S
O145 Cd141 2.439 . S
O145 C146 1.208 . S
C146 O144 1.247 . S
C146 O145 1.208 . S
C147 O152 1.247 . S
C147 O153 1.208 . S
C148 O140 1.315 . S
C148 O143 1.279 . S
C149 O150 1.315 . S
C149 O151 1.279 . S
O150 Cd142 2.223 . S
O150 C149 1.315 . S
O151 Cd141 2.240 . S
O151 C149 1.279 . S
O152 Cd142 2.297 . S
O152 C147 1.247 . S
O153 Cd142 2.439 . S
O153 C147 1.208 . S
O154 Cd155 2.223 . S
O154 C162 1.315 . S
Cd155 O154 2.223 . S
Cd155 O158 2.297 . S
Cd155 O159 2.439 . S
Cd155 O165 2.240 . S
Cd156 O157 2.240 . S
Cd156 O164 2.223 . S
Cd156 O166 2.297 . S
Cd156 O167 2.439 . S
O157 Cd156 2.240 . S
O157 C162 1.279 . S
O158 Cd155 2.297 . S
O158 C160 1.247 . S
O159 Cd155 2.439 . S
O159 C160 1.208 . S
C160 O158 1.247 . S
C160 O159 1.208 . S
C161 O166 1.247 . S
C161 O167 1.208 . S
C162 O154 1.315 . S
C162 O157 1.279 . S
C163 O164 1.315 . S
C163 O165 1.279 . S
O164 Cd156 2.223 . S
O164 C163 1.315 . S
O165 Cd155 2.240 . S
O165 C163 1.279 . S
O166 Cd156 2.297 . S
O166 C161 1.247 . S
O167 Cd156 2.439 . S
O167 C161 1.208 . S
O168 Cd169 2.223 . S
O168 C176 1.315 . S
Cd169 O168 2.223 . S
Cd169 O172 2.297 . S
Cd169 O173 2.438 1_455 S
Cd169 O179 2.243 1_455 S
Cd170 O171 2.240 1_655 S
Cd170 O178 2.223 1_655 S
Cd170 O180 2.297 . S
Cd170 O181 2.439 . S
O171 Cd170 2.240 1_455 S
O171 C176 1.279 . S
O172 Cd169 2.297 . S
O172 C174 1.247 . S
O173 Cd169 2.438 1_655 S
O173 C174 1.208 1_655 S
C174 O172 1.247 . S
C174 O173 1.208 1_455 S
C175 O180 1.247 . S
C175 O181 1.208 . S
C176 O168 1.315 . S
C176 O171 1.279 . S
C177 O178 1.315 . S
C177 O179 1.281 1_455 S
O178 Cd170 2.223 1_455 S
O178 C177 1.315 . S
O179 Cd169 2.243 1_655 S
O179 C177 1.281 1_655 S
O180 Cd170 2.297 . S
O180 C175 1.247 . S
O181 Cd170 2.439 . S
O181 C175 1.208 . S
O182 Cd183 2.223 1_455 S
O182 C190 1.320 . S
Cd183 O182 2.223 1_655 S
Cd183 O186 2.297 . S
Cd183 O187 2.439 . S
Cd183 O193 2.240 1_655 S
Cd184 O185 2.240 1_455 S
Cd184 O192 2.223 . S
Cd184 O194 2.297 . S
Cd184 O195 2.439 1_455 S
O185 Cd184 2.240 1_655 S
O185 C190 1.262 1_655 S
O186 Cd183 2.297 . S
O186 C188 1.247 . S
O187 Cd183 2.439 . S
O187 C188 1.208 . S
C188 O186 1.247 . S
C188 O187 1.208 . S
C189 O194 1.247 . S
C189 O195 1.208 1_455 S
C190 O182 1.320 . S
C190 O185 1.262 1_455 S
C191 O192 1.315 . S
C191 O193 1.279 . S
O192 Cd184 2.223 . S
O192 C191 1.315 . S
O193 Cd183 2.240 1_455 S
O193 C191 1.279 . S
O194 Cd184 2.297 . S
O194 C189 1.247 . S
O195 Cd184 2.439 1_655 S
O195 C189 1.208 1_655 S
O196 Cd197 2.223 . S
O196 C204 1.315 . S
Cd197 O196 2.223 . S
Cd197 O200 2.297 . S
Cd197 O201 2.439 . S
Cd197 O207 2.240 . S
Cd198 O199 2.240 . S
Cd198 O206 2.223 . S
Cd198 O208 2.297 . S
Cd198 O209 2.439 . S
O199 Cd198 2.240 . S
O199 C204 1.279 . S
O200 Cd197 2.297 . S
O200 C202 1.247 . S
O201 Cd197 2.439 . S
O201 C202 1.208 . S
C202 O200 1.247 . S
C202 O201 1.208 . S
C203 O208 1.247 . S
C203 O209 1.208 . S
C204 O196 1.315 . S
C204 O199 1.279 . S
C205 O206 1.315 . S
C205 O207 1.279 . S
O206 Cd198 2.223 . S
O206 C205 1.315 . S
O207 Cd197 2.240 . S
O207 C205 1.279 . S
O208 Cd198 2.297 . S
O208 C203 1.247 . S
O209 Cd198 2.439 . S
O209 C203 1.208 . S
O210 Cd211 2.223 . S
O210 C218 1.315 . S
Cd211 O210 2.223 . S
Cd211 O214 2.297 . S
Cd211 O215 2.439 . S
Cd211 O221 2.240 . S
Cd212 O213 2.240 . S
Cd212 O220 2.223 . S
Cd212 O222 2.297 . S
Cd212 O223 2.439 . S
O213 Cd212 2.240 . S
O213 C218 1.279 . S
O214 Cd211 2.297 . S
O214 C216 1.247 . S
O215 Cd211 2.439 . S
O215 C216 1.208 . S
C216 O214 1.247 . S
C216 O215 1.208 . S
C217 O222 1.247 . S
C217 O223 1.208 . S
C218 O210 1.315 . S
C218 O213 1.279 . S
C219 O220 1.315 . S
C219 O221 1.279 . S
O220 Cd212 2.223 . S
O220 C219 1.315 . S
O221 Cd211 2.240 . S
O221 C219 1.279 . S
O222 Cd212 2.297 . S
O222 C217 1.247 . S
O223 Cd212 2.439 . S
O223 C217 1.208 . S
O224 Cd225 2.223 . S
O224 C232 1.315 . S
Cd225 O224 2.223 . S
Cd225 O228 2.297 . S
Cd225 O229 2.439 . S
Cd225 O235 2.240 1_545 S
Cd226 O227 2.240 1_565 S
Cd226 O234 2.223 . S
Cd226 O236 2.297 . S
Cd226 O237 2.439 1_565 S
O227 Cd226 2.240 1_545 S
O227 C232 1.279 . S
O228 Cd225 2.297 . S
O228 C230 1.247 . S
O229 Cd225 2.439 . S
O229 C230 1.208 . S
C230 O228 1.247 . S
C230 O229 1.208 . S
C231 O236 1.246 1_545 S
C231 O237 1.209 . S
C232 O224 1.315 . S
C232 O227 1.279 . S
C233 O234 1.315 . S
C233 O235 1.279 . S
O234 Cd226 2.223 . S
O234 C233 1.315 . S
O235 Cd225 2.240 1_565 S
O235 C233 1.279 . S
O236 Cd226 2.297 . S
O236 C231 1.246 1_565 S
O237 Cd226 2.439 1_545 S
O237 C231 1.209 . S
O238 Cd239 2.223 . S
O238 C246 1.315 . S
Cd239 O238 2.223 . S
Cd239 O242 2.297 . S
Cd239 O243 2.439 . S
Cd239 O249 2.240 . S
Cd240 O241 2.240 . S
Cd240 O248 2.223 . S
Cd240 O250 2.297 . S
Cd240 O251 2.439 . S
O241 Cd240 2.240 . S
O241 C246 1.279 . S
O242 Cd239 2.297 . S
O242 C244 1.247 . S
O243 Cd239 2.439 . S
O243 C244 1.208 . S
C244 O242 1.247 . S
C244 O243 1.208 . S
C245 O250 1.247 . S
C245 O251 1.208 . S
C246 O238 1.315 . S
C246 O241 1.279 . S
C247 O248 1.315 . S
C247 O249 1.279 . S
O248 Cd240 2.223 . S
O248 C247 1.315 . S
O249 Cd239 2.240 . S
O249 C247 1.279 . S
O250 Cd240 2.297 . S
O250 C245 1.247 . S
O251 Cd240 2.439 . S
O251 C245 1.208 . S
O252 Cd253 2.223 . S
O252 C260 1.315 . S
Cd253 O252 2.223 . S
Cd253 O256 2.297 1_545 S
Cd253 O257 2.439 1_545 S
Cd253 O263 2.240 . S
Cd254 O255 2.240 . S
Cd254 O262 2.223 . S
Cd254 O264 2.297 . S
Cd254 O265 2.439 . S
O255 Cd254 2.240 . S
O255 C260 1.279 . S
O256 Cd253 2.297 1_565 S
O256 C258 1.247 . S
O257 Cd253 2.439 1_565 S
O257 C258 1.208 . S
C258 O256 1.247 . S
C258 O257 1.208 . S
C259 O264 1.247 . S
C259 O265 1.208 . S
C260 O252 1.315 . S
C260 O255 1.279 . S
C261 O262 1.315 . S
C261 O263 1.279 . S
O262 Cd254 2.223 . S
O262 C261 1.315 . S
O263 Cd253 2.240 . S
O263 C261 1.279 . S
O264 Cd254 2.297 . S
O264 C259 1.247 . S
O265 Cd254 2.439 . S
O265 C259 1.208 . S
O266 Cd267 2.223 . S
O266 C274 1.315 . S
Cd267 O266 2.223 . S
Cd267 O270 2.297 . S
Cd267 O271 2.439 1_554 S
Cd267 O277 2.240 1_554 S
Cd268 O269 2.240 1_556 S
Cd268 O276 2.223 1_556 S
Cd268 O278 2.297 . S
Cd268 O279 2.439 . S
O269 Cd268 2.240 1_554 S
O269 C274 1.279 . S
O270 Cd267 2.297 . S
O270 C272 1.247 . S
O271 Cd267 2.439 1_556 S
O271 C272 1.208 1_556 S
C272 O270 1.247 . S
C272 O271 1.208 1_554 S
C273 O278 1.247 . S
C273 O279 1.208 . S
C274 O266 1.315 . S
C274 O269 1.279 . S
C275 O276 1.315 . S
C275 O277 1.279 1_554 S
O276 Cd268 2.223 1_554 S
O276 C275 1.315 . S
O277 Cd267 2.240 1_556 S
O277 C275 1.279 1_556 S
O278 Cd268 2.297 . S
O278 C273 1.247 . S
O279 Cd268 2.439 . S
O279 C273 1.208 . S
O280 Cd281 2.223 . S
O280 C288 1.315 . S
Cd281 O280 2.223 . S
Cd281 O284 2.297 . S
Cd281 O285 2.417 1_554 S
Cd281 O291 2.240 1_554 S
Cd282 O283 2.240 1_556 S
Cd282 O290 2.223 1_556 S
Cd282 O292 2.297 . S
Cd282 O293 2.439 . S
O283 Cd282 2.240 1_554 S
O283 C288 1.279 . S
O284 Cd281 2.297 . S
O284 C286 1.247 . S
O285 Cd281 2.417 1_556 S
O285 C286 1.174 1_556 S
C286 O284 1.247 . S
C286 O285 1.174 1_554 S
C287 O292 1.247 . S
C287 O293 1.208 . S
C288 O280 1.315 . S
C288 O283 1.279 . S
C289 O290 1.315 . S
C289 O291 1.279 1_554 S
O290 Cd282 2.223 1_554 S
O290 C289 1.315 . S
O291 Cd281 2.240 1_556 S
O291 C289 1.279 1_556 S
O292 Cd282 2.297 . S
O292 C287 1.247 . S
O293 Cd282 2.439 . S
O293 C287 1.208 . S
O294 Cd295 2.223 . S
O294 C302 1.315 . S
Cd295 O294 2.223 . S
Cd295 O298 2.297 . S
Cd295 O299 2.439 . S
Cd295 O305 2.240 . S
Cd296 O297 2.240 . S
Cd296 O304 2.223 . S
Cd296 O306 2.297 . S
Cd296 O307 2.439 . S
O297 Cd296 2.240 . S
O297 C302 1.279 . S
O298 Cd295 2.297 . S
O298 C300 1.247 . S
O299 Cd295 2.439 . S
O299 C300 1.208 . S
C300 O298 1.247 . S
C300 O299 1.208 . S
C301 O306 1.247 . S
C301 O307 1.208 . S
C302 O294 1.315 . S
C302 O297 1.279 . S
C303 O304 1.315 . S
C303 O305 1.279 . S
O304 Cd296 2.223 . S
O304 C303 1.315 . S
O305 Cd295 2.240 . S
O305 C303 1.279 . S
O306 Cd296 2.297 . S
O306 C301 1.247 . S
O307 Cd296 2.439 . S
O307 C301 1.208 . S
O308 Cd309 2.223 . S
O308 C316 1.315 . S
Cd309 O308 2.223 . S
Cd309 O312 2.297 . S
Cd309 O313 2.439 . S
Cd309 O319 2.240 . S
Cd310 O311 2.240 . S
Cd310 O318 2.223 . S
Cd310 O320 2.297 . S
Cd310 O321 2.439 . S
O311 Cd310 2.240 . S
O311 C316 1.279 . S
O312 Cd309 2.297 . S
O312 C314 1.247 . S
O313 Cd309 2.439 . S
O313 C314 1.208 . S
C314 O312 1.247 . S
C314 O313 1.208 . S
C315 O320 1.247 . S
C315 O321 1.208 . S
C316 O308 1.315 . S
C316 O311 1.279 . S
C317 O318 1.315 . S
C317 O319 1.279 . S
O318 Cd310 2.223 . S
O318 C317 1.315 . S
O319 Cd309 2.240 . S
O319 C317 1.279 . S
O320 Cd310 2.297 . S
O320 C315 1.247 . S
O321 Cd310 2.439 . S
O321 C315 1.208 . S
O322 Cd323 2.223 . S
O322 C330 1.315 . S
Cd323 O322 2.223 . S
Cd323 O326 2.297 . S
Cd323 O327 2.439 . S
Cd323 O333 2.240 . S
Cd324 O325 2.240 . S
Cd324 O332 2.223 . S
Cd324 O334 2.297 . S
Cd324 O335 2.439 . S
O325 Cd324 2.240 . S
O325 C330 1.279 . S
O326 Cd323 2.297 . S
O326 C328 1.247 . S
O327 Cd323 2.439 . S
O327 C328 1.208 . S
C328 O326 1.247 . S
C328 O327 1.208 . S
C329 O334 1.247 . S
C329 O335 1.208 . S
C330 O322 1.315 . S
C330 O325 1.279 . S
C331 O332 1.315 . S
C331 O333 1.279 . S
O332 Cd324 2.223 . S
O332 C331 1.315 . S
O333 Cd323 2.240 . S
O333 C331 1.279 . S
O334 Cd324 2.297 . S
O334 C329 1.247 . S
O335 Cd324 2.439 . S
O335 C329 1.208 . S
O336 Mg337 1.990 1_556 S
O336 C350 1.253 . S
Mg337 O336 1.990 1_554 S
Mg337 O340 2.184 . S
Mg337 O341 2.117 . S
Mg337 O355 2.030 . S
O338 Mg339 2.072 1_556 S
O338 C350 1.260 1_455 S
Mg339 O338 2.072 1_554 S
Mg339 O340 2.097 1_455 S
Mg339 O342 2.079 1_545 S
Mg339 O343 2.072 . S
Mg339 O345 2.099 1_545 S
Mg339 O356 2.079 1_445 S
O340 Mg337 2.184 . S
O340 Mg339 2.097 1_655 S
O340 C351 1.279 1_655 S
O341 Mg337 2.117 . S
O341 C351 1.250 1_655 S
O342 Mg339 2.079 1_565 S
O342 C352 1.264 . S
O343 Mg339 2.072 . S
O343 C353 1.260 . S
Mg344 O345 2.180 . S
Mg344 O346 2.030 . S
Mg344 O347 2.030 . S
Mg344 O348 2.117 1_554 S
O345 Mg339 2.099 1_565 S
O345 Mg344 2.180 . S
O345 C354 1.279 1_554 S
O346 Mg344 2.030 . S
O346 C352 1.248 . S
O347 Mg344 2.030 . S
O347 C353 1.211 1_565 S
O348 Mg344 2.117 1_556 S
O348 C354 1.250 . S
C349 O355 1.248 1_565 S
C349 O356 1.264 . S
C350 O336 1.253 . S
C350 O338 1.260 1_655 S
C351 O340 1.279 1_455 S
C351 O341 1.250 1_455 S
C352 O342 1.264 . S
C352 O346 1.248 . S
C353 O343 1.260 . S
C353 O347 1.211 1_545 S
C354 O345 1.279 1_556 S
C354 O348 1.250 . S
O355 Mg337 2.030 . S
O355 C349 1.248 1_545 S
O356 Mg339 2.079 1_665 S
O356 C349 1.264 . S
O357 Mg358 1.990 . S
O357 C371 1.253 . S
Mg358 O357 1.990 . S
Mg358 O361 2.180 . S
Mg358 O362 2.117 . S
Mg358 O376 2.030 . S
O359 Mg360 2.072 . S
O359 C371 1.260 . S
Mg360 O359 2.072 . S
Mg360 O361 2.099 . S
Mg360 O363 2.079 . S
Mg360 O364 2.072 . S
Mg360 O366 2.099 . S
Mg360 O377 2.079 . S
O361 Mg358 2.180 . S
O361 Mg360 2.099 . S
O361 C372 1.279 . S
O362 Mg358 2.117 . S
O362 C372 1.250 . S
O363 Mg360 2.079 . S
O363 C373 1.264 . S
O364 Mg360 2.072 . S
O364 C374 1.260 . S
Mg365 O366 2.180 . S
Mg365 O367 2.030 . S
Mg365 O368 1.990 . S
Mg365 O369 2.117 . S
O366 Mg360 2.099 . S
O366 Mg365 2.180 . S
O366 C375 1.279 . S
O367 Mg365 2.030 . S
O367 C373 1.248 . S
O368 Mg365 1.990 . S
O368 C374 1.253 . S
O369 Mg365 2.117 . S
O369 C375 1.250 . S
C370 O376 1.248 . S
C370 O377 1.264 . S
C371 O357 1.253 . S
C371 O359 1.260 . S
C372 O361 1.279 . S
C372 O362 1.250 . S
C373 O363 1.264 . S
C373 O367 1.248 . S
C374 O364 1.260 . S
C374 O368 1.253 . S
C375 O366 1.279 . S
C375 O369 1.250 . S
O376 Mg358 2.030 . S
O376 C370 1.248 . S
O377 Mg360 2.079 . S
O377 C370 1.264 . S
O378 Mg379 1.990 . S
O378 C392 1.253 1_565 S
Mg379 O378 1.990 . S
Mg379 O382 2.180 . S
Mg379 O383 2.117 . S
Mg379 O397 2.030 1_565 S
O380 Mg381 2.072 . S
O380 C392 1.260 . S
Mg381 O380 2.072 . S
Mg381 O382 2.099 1_545 S
Mg381 O384 2.079 . S
Mg381 O385 2.072 . S
Mg381 O387 2.099 . S
Mg381 O398 2.079 . S
O382 Mg379 2.180 . S
O382 Mg381 2.099 1_565 S
O382 C393 1.279 . S
O383 Mg379 2.117 . S
O383 C393 1.250 . S
O384 Mg381 2.079 . S
O384 C394 1.264 . S
O385 Mg381 2.072 . S
O385 C395 1.260 . S
Mg386 O387 2.180 . S
Mg386 O388 2.030 . S
Mg386 O389 1.990 . S
Mg386 O390 2.117 . S
O387 Mg381 2.099 . S
O387 Mg386 2.180 . S
O387 C396 1.279 . S
O388 Mg386 2.030 . S
O388 C394 1.248 . S
O389 Mg386 1.990 . S
O389 C395 1.253 . S
O390 Mg386 2.117 . S
O390 C396 1.250 . S
C391 O397 1.248 . S
C391 O398 1.264 . S
C392 O378 1.253 1_545 S
C392 O380 1.260 . S
C393 O382 1.279 . S
C393 O383 1.250 . S
C394 O384 1.264 . S
C394 O388 1.248 . S
C395 O385 1.260 . S
C395 O389 1.253 . S
C396 O387 1.279 . S
C396 O390 1.250 . S
O397 Mg379 2.030 1_545 S
O397 C391 1.248 . S
O398 Mg381 2.079 . S
O398 C391 1.264 . S
O399 Mg400 1.990 . S
O399 C413 1.253 . S
Mg400 O399 1.990 . S
Mg400 O403 2.180 . S
Mg400 O404 2.117 . S
Mg400 O418 2.030 . S
O401 Mg402 2.072 . S
O401 C413 1.260 . S
Mg402 O401 2.072 . S
Mg402 O403 2.099 . S
Mg402 O405 2.079 . S
Mg402 O406 2.072 . S
Mg402 O408 2.099 . S
Mg402 O419 2.079 . S
O403 Mg400 2.180 . S
O403 Mg402 2.099 . S
O403 C414 1.279 . S
O404 Mg400 2.117 . S
O404 C414 1.250 . S
O405 Mg402 2.079 . S
O405 C415 1.264 . S
O406 Mg402 2.072 . S
O406 C416 1.260 . S
Mg407 O408 2.180 . S
Mg407 O409 2.030 . S
Mg407 O410 1.990 . S
Mg407 O411 2.117 . S
O408 Mg402 2.099 . S
O408 Mg407 2.180 . S
O408 C417 1.279 . S
O409 Mg407 2.030 . S
O409 C415 1.248 . S
O410 Mg407 1.990 . S
O410 C416 1.253 . S
O411 Mg407 2.117 . S
O411 C417 1.250 . S
C412 O418 1.248 . S
C412 O419 1.264 . S
C413 O399 1.253 . S
C413 O401 1.260 . S
C414 O403 1.279 . S
C414 O404 1.250 . S
C415 O405 1.264 . S
C415 O409 1.248 . S
C416 O406 1.260 . S
C416 O410 1.253 . S
C417 O408 1.279 . S
C417 O411 1.250 . S
O418 Mg400 2.030 . S
O418 C412 1.248 . S
O419 Mg402 2.079 . S
O419 C412 1.264 . S
O420 Mg421 1.990 1_655 S
O420 C434 1.253 . S
Mg421 O420 1.990 1_455 S
Mg421 O424 2.179 . S
Mg421 O425 2.117 1_455 S
Mg421 O439 2.030 . S
O422 Mg423 2.082 1_565 S
O422 C434 1.255 1_455 S
Mg423 O422 2.082 1_545 S
Mg423 O424 2.098 1_545 S
Mg423 O426 2.079 . S
Mg423 O427 2.072 1_455 S
Mg423 O429 2.099 . S
Mg423 O440 2.079 . S
O424 Mg421 2.179 . S
O424 Mg423 2.098 1_565 S
O424 C435 1.281 1_455 S
O425 Mg421 2.117 1_655 S
O425 C435 1.250 . S
O426 Mg423 2.079 . S
O426 C436 1.264 . S
O427 Mg423 2.072 1_655 S
O427 C437 1.260 . S
Mg428 O429 2.180 1_655 S
Mg428 O430 2.030 1_655 S
Mg428 O431 1.990 . S
Mg428 O432 2.117 1_655 S
O429 Mg423 2.099 . S
O429 Mg428 2.180 1_455 S
O429 C438 1.279 . S
O430 Mg428 2.030 1_455 S
O430 C436 1.248 . S
O431 Mg428 1.990 . S
O431 C437 1.253 . S
O432 Mg428 2.117 1_455 S
O432 C438 1.250 . S
C433 O439 1.248 . S
C433 O440 1.264 1_565 S
C434 O420 1.253 . S
C434 O422 1.255 1_655 S
C435 O424 1.281 1_655 S
C435 O425 1.250 . S
C436 O426 1.264 . S
C436 O430 1.248 . S
C437 O427 1.260 . S
C437 O431 1.253 . S
C438 O429 1.279 . S
C438 O432 1.250 . S
O439 Mg421 2.030 . S
O439 C433 1.248 . S
O440 Mg423 2.079 . S
O440 C433 1.264 1_545 S
O441 Mg442 1.990 . S
O441 C455 1.253 . S
Mg442 O441 1.990 . S
Mg442 O445 2.180 . S
Mg442 O446 2.117 . S
Mg442 O460 2.030 . S
O443 Mg444 2.072 . S
O443 C455 1.260 . S
Mg444 O443 2.072 . S
Mg444 O445 2.099 . S
Mg444 O447 2.079 . S
Mg444 O448 2.072 . S
Mg444 O450 2.099 . S
Mg444 O461 2.079 . S
O445 Mg442 2.180 . S
O445 Mg444 2.099 . S
O445 C456 1.279 . S
O446 Mg442 2.117 . S
O446 C456 1.250 . S
O447 Mg444 2.079 . S
O447 C457 1.264 . S
O448 Mg444 2.072 . S
O448 C458 1.260 . S
Mg449 O450 2.180 . S
Mg449 O451 2.030 . S
Mg449 O452 1.990 . S
Mg449 O453 2.117 . S
O450 Mg444 2.099 . S
O450 Mg449 2.180 . S
O450 C459 1.279 . S
O451 Mg449 2.030 . S
O451 C457 1.248 . S
O452 Mg449 1.990 . S
O452 C458 1.253 . S
O453 Mg449 2.117 . S
O453 C459 1.250 . S
C454 O460 1.248 . S
C454 O461 1.264 . S
C455 O441 1.253 . S
C455 O443 1.260 . S
C456 O445 1.279 . S
C456 O446 1.250 . S
C457 O447 1.264 . S
C457 O451 1.248 . S
C458 O448 1.260 . S
C458 O452 1.253 . S
C459 O450 1.279 . S
C459 O453 1.250 . S
O460 Mg442 2.030 . S
O460 C454 1.248 . S
O461 Mg444 2.079 . S
O461 C454 1.264 . S
O462 Mg463 1.990 1_565 S
O462 C476 1.253 . S
Mg463 O462 1.990 1_545 S
Mg463 O466 2.180 . S
Mg463 O467 2.117 . S
Mg463 O481 2.030 . S
O464 Mg465 2.072 1_565 S
O464 C476 1.260 . S
Mg465 O464 2.072 1_545 S
Mg465 O466 2.099 . S
Mg465 O468 2.079 . S
Mg465 O469 2.072 1_554 S
Mg465 O471 2.125 . S
Mg465 O482 2.079 . S
O466 Mg463 2.180 . S
O466 Mg465 2.099 . S
O466 C477 1.279 . S
O467 Mg463 2.117 . S
O467 C477 1.250 . S
O468 Mg465 2.079 . S
O468 C478 1.264 1_554 S
O469 Mg465 2.072 1_556 S
O469 C479 1.260 . S
Mg470 O471 2.124 1_556 S
Mg470 O472 2.030 . S
Mg470 O473 1.990 . S
Mg470 O474 2.117 1_545 S
O471 Mg465 2.125 . S
O471 Mg470 2.124 1_554 S
O471 C480 1.256 1_544 S
O472 Mg470 2.030 . S
O472 C478 1.248 . S
O473 Mg470 1.990 . S
O473 C479 1.253 . S
O474 Mg470 2.117 1_565 S
O474 C480 1.252 . S
C475 O481 1.248 . S
C475 O482 1.264 . S
C476 O462 1.253 . S
C476 O464 1.260 . S
C477 O466 1.279 . S
C477 O467 1.250 . S
C478 O468 1.264 1_556 S
C478 O472 1.248 . S
C479 O469 1.260 . S
C479 O473 1.253 . S
C480 O471 1.256 1_566 S
C480 O474 1.252 . S
O481 Mg463 2.030 . S
O481 C475 1.248 . S
O482 Mg465 2.079 . S
O482 C475 1.264 . S
O483 Mg484 1.990 . S
O483 C497 1.253 . S
Mg484 O483 1.990 . S
Mg484 O487 2.180 . S
Mg484 O488 2.117 . S
Mg484 O502 2.030 . S
O485 Mg486 2.072 . S
O485 C497 1.260 . S
Mg486 O485 2.072 . S
Mg486 O487 2.099 . S
Mg486 O489 2.079 . S
Mg486 O490 2.072 . S
Mg486 O492 2.099 . S
Mg486 O503 2.079 . S
O487 Mg484 2.180 . S
O487 Mg486 2.099 . S
O487 C498 1.279 . S
O488 Mg484 2.117 . S
O488 C498 1.250 . S
O489 Mg486 2.079 . S
O489 C499 1.264 . S
O490 Mg486 2.072 . S
O490 C500 1.260 . S
Mg491 O492 2.180 . S
Mg491 O493 2.030 . S
Mg491 O494 1.990 . S
Mg491 O495 2.117 . S
O492 Mg486 2.099 . S
O492 Mg491 2.180 . S
O492 C501 1.279 . S
O493 Mg491 2.030 . S
O493 C499 1.248 . S
O494 Mg491 1.990 . S
O494 C500 1.253 . S
O495 Mg491 2.117 . S
O495 C501 1.250 . S
C496 O502 1.248 . S
C496 O503 1.264 . S
C497 O483 1.253 . S
C497 O485 1.260 . S
C498 O487 1.279 . S
C498 O488 1.250 . S
C499 O489 1.264 . S
C499 O493 1.248 . S
C500 O490 1.260 . S
C500 O494 1.253 . S
C501 O492 1.279 . S
C501 O495 1.250 . S
O502 Mg484 2.030 . S
O502 C496 1.248 . S
O503 Mg486 2.079 . S
O503 C496 1.264 . S
O504 Mg505 1.990 . S
O504 C518 1.253 1_556 S
Mg505 O504 1.990 . S
Mg505 O508 2.180 . S
Mg505 O509 2.117 . S
Mg505 O523 2.030 1_556 S
O506 Mg507 2.072 . S
O506 C518 1.260 . S
Mg507 O506 2.072 . S
Mg507 O508 2.099 1_554 S
Mg507 O510 2.079 . S
Mg507 O511 2.072 . S
Mg507 O513 2.099 . S
Mg507 O524 2.079 . S
O508 Mg505 2.180 . S
O508 Mg507 2.099 1_556 S
O508 C519 1.279 . S
O509 Mg505 2.117 . S
O509 C519 1.250 . S
O510 Mg507 2.079 . S
O510 C520 1.264 . S
O511 Mg507 2.072 . S
O511 C521 1.260 . S
Mg512 O513 2.180 . S
Mg512 O514 2.030 . S
Mg512 O515 1.990 . S
Mg512 O516 2.117 . S
O513 Mg507 2.099 . S
O513 Mg512 2.180 . S
O513 C522 1.279 . S
O514 Mg512 2.030 . S
O514 C520 1.248 . S
O515 Mg512 1.990 . S
O515 C521 1.253 . S
O516 Mg512 2.117 . S
O516 C522 1.250 . S
C517 O523 1.248 . S
C517 O524 1.264 . S
C518 O504 1.253 1_554 S
C518 O506 1.260 . S
C519 O508 1.279 . S
C519 O509 1.250 . S
C520 O510 1.264 . S
C520 O514 1.248 . S
C521 O511 1.260 . S
C521 O515 1.253 . S
C522 O513 1.279 . S
C522 O516 1.250 . S
O523 Mg505 2.030 1_554 S
O523 C517 1.248 . S
O524 Mg507 2.079 . S
O524 C517 1.264 . S
O525 Mg526 1.990 . S
O525 C539 1.253 . S
Mg526 O525 1.990 . S
Mg526 O529 2.180 . S
Mg526 O530 2.117 . S
Mg526 O544 2.030 . S
O527 Mg528 2.072 . S
O527 C539 1.260 . S
Mg528 O527 2.072 . S
Mg528 O529 2.099 . S
Mg528 O531 2.079 . S
Mg528 O532 2.072 . S
Mg528 O534 2.099 . S
Mg528 O545 2.079 . S
O529 Mg526 2.180 . S
O529 Mg528 2.099 . S
O529 C540 1.279 . S
O530 Mg526 2.117 . S
O530 C540 1.250 . S
O531 Mg528 2.079 . S
O531 C541 1.264 . S
O532 Mg528 2.072 . S
O532 C542 1.260 . S
Mg533 O534 2.180 . S
Mg533 O535 2.030 . S
Mg533 O536 1.990 . S
Mg533 O537 2.117 . S
O534 Mg528 2.099 . S
O534 Mg533 2.180 . S
O534 C543 1.279 . S
O535 Mg533 2.030 . S
O535 C541 1.248 . S
O536 Mg533 1.990 . S
O536 C542 1.253 . S
O537 Mg533 2.117 . S
O537 C543 1.250 . S
C538 O544 1.248 . S
C538 O545 1.264 . S
C539 O525 1.253 . S
C539 O527 1.260 . S
C540 O529 1.279 . S
C540 O530 1.250 . S
C541 O531 1.264 . S
C541 O535 1.248 . S
C542 O532 1.260 . S
C542 O536 1.253 . S
C543 O534 1.279 . S
C543 O537 1.250 . S
O544 Mg526 2.030 . S
O544 C538 1.248 . S
O545 Mg528 2.079 . S
O545 C538 1.264 . S
O546 Mg547 1.990 . S
O546 C560 1.253 1_655 S
Mg547 O546 1.990 . S
Mg547 O550 2.180 . S
Mg547 O551 2.117 . S
Mg547 O565 2.030 1_655 S
O548 Mg549 2.072 . S
O548 C560 1.260 . S
Mg549 O548 2.072 . S
Mg549 O550 2.099 1_455 S
Mg549 O552 2.079 . S
Mg549 O553 2.072 1_455 S
Mg549 O555 2.099 . S
Mg549 O566 2.079 . S
O550 Mg547 2.180 . S
O550 Mg549 2.099 1_655 S
O550 C561 1.279 . S
O551 Mg547 2.117 . S
O551 C561 1.250 . S
O552 Mg549 2.079 . S
O552 C562 1.264 . S
O553 Mg549 2.072 1_655 S
O553 C563 1.260 . S
Mg554 O555 2.180 . S
Mg554 O556 2.030 . S
Mg554 O557 1.990 . S
Mg554 O558 2.117 . S
O555 Mg549 2.099 . S
O555 Mg554 2.180 . S
O555 C564 1.279 . S
O556 Mg554 2.030 . S
O556 C562 1.248 . S
O557 Mg554 1.990 . S
O557 C563 1.256 1_455 S
O558 Mg554 2.117 . S
O558 C564 1.250 . S
C559 O565 1.248 . S
C559 O566 1.264 . S
C560 O546 1.253 1_455 S
C560 O548 1.260 . S
C561 O550 1.279 . S
C561 O551 1.250 . S
C562 O552 1.264 . S
C562 O556 1.248 . S
C563 O553 1.260 . S
C563 O557 1.256 1_655 S
C564 O555 1.279 . S
C564 O558 1.250 . S
O565 Mg547 2.030 1_455 S
O565 C559 1.248 . S
O566 Mg549 2.079 . S
O566 C559 1.264 . S
O567 Mg568 1.990 . S
O567 C581 1.253 . S
Mg568 O567 1.990 . S
Mg568 O571 2.180 . S
Mg568 O572 2.117 . S
Mg568 O586 2.030 . S
O569 Mg570 2.072 . S
O569 C581 1.260 . S
Mg570 O569 2.072 . S
Mg570 O571 2.099 . S
Mg570 O573 2.079 . S
Mg570 O574 2.072 . S
Mg570 O576 2.099 . S
Mg570 O587 2.079 . S
O571 Mg568 2.180 . S
O571 Mg570 2.099 . S
O571 C582 1.279 . S
O572 Mg568 2.117 . S
O572 C582 1.250 . S
O573 Mg570 2.079 . S
O573 C583 1.264 . S
O574 Mg570 2.072 . S
O574 C584 1.260 . S
Mg575 O576 2.180 . S
Mg575 O577 2.030 . S
Mg575 O578 1.990 . S
Mg575 O579 2.117 . S
O576 Mg570 2.099 . S
O576 Mg575 2.180 . S
O576 C585 1.279 . S
O577 Mg575 2.030 . S
O577 C583 1.248 . S
O578 Mg575 1.990 . S
O578 C584 1.253 . S
O579 Mg575 2.117 . S
O579 C585 1.250 . S
C580 O586 1.248 . S
C580 O587 1.264 . S
C581 O567 1.253 . S
C581 O569 1.260 . S
C582 O571 1.279 . S
C582 O572 1.250 . S
C583 O573 1.264 . S
C583 O577 1.248 . S
C584 O574 1.260 . S
C584 O578 1.253 . S
C585 O576 1.279 . S
C585 O579 1.250 . S
O586 Mg568 2.030 . S
O586 C580 1.248 . S
O587 Mg570 2.079 . S
O587 C580 1.264 . S
O588 Mg589 1.990 . S
O588 C602 1.253 . S
Mg589 O588 1.990 . S
Mg589 O592 2.180 . S
Mg589 O593 2.117 . S
Mg589 O607 2.030 . S
O590 Mg591 2.072 . S
O590 C602 1.260 . S
Mg591 O590 2.072 . S
Mg591 O592 2.099 . S
Mg591 O594 2.079 . S
Mg591 O595 2.072 . S
Mg591 O597 2.099 . S
Mg591 O608 2.079 . S
O592 Mg589 2.180 . S
O592 Mg591 2.099 . S
O592 C603 1.279 . S
O593 Mg589 2.117 . S
O593 C603 1.250 . S
O594 Mg591 2.079 . S
O594 C604 1.264 . S
O595 Mg591 2.072 . S
O595 C605 1.260 . S
Mg596 O597 2.180 . S
Mg596 O598 2.030 . S
Mg596 O599 1.990 . S
Mg596 O600 2.117 . S
O597 Mg591 2.099 . S
O597 Mg596 2.180 . S
O597 C606 1.279 . S
O598 Mg596 2.030 . S
O598 C604 1.248 . S
O599 Mg596 1.990 . S
O599 C605 1.253 . S
O600 Mg596 2.117 . S
O600 C606 1.250 . S
C601 O607 1.248 . S
C601 O608 1.264 . S
C602 O588 1.253 . S
C602 O590 1.260 . S
C603 O592 1.279 . S
C603 O593 1.250 . S
C604 O594 1.264 . S
C604 O598 1.248 . S
C605 O595 1.260 . S
C605 O599 1.253 . S
C606 O597 1.279 . S
C606 O600 1.250 . S
O607 Mg589 2.030 . S
O607 C601 1.248 . S
O608 Mg591 2.079 . S
O608 C601 1.264 . S
O609 Mg610 1.990 . S
O609 C623 1.253 . S
Mg610 O609 1.990 . S
Mg610 O613 2.180 . S
Mg610 O614 2.117 . S
Mg610 O628 2.030 . S
O611 Mg612 2.072 . S
O611 C623 1.260 . S
Mg612 O611 2.072 . S
Mg612 O613 2.099 . S
Mg612 O615 2.079 . S
Mg612 O616 2.072 . S
Mg612 O618 2.099 . S
Mg612 O629 2.079 . S
O613 Mg610 2.180 . S
O613 Mg612 2.099 . S
O613 C624 1.279 . S
O614 Mg610 2.117 . S
O614 C624 1.250 . S
O615 Mg612 2.079 . S
O615 C625 1.264 . S
O616 Mg612 2.072 . S
O616 C626 1.260 . S
Mg617 O618 2.180 . S
Mg617 O619 2.030 . S
Mg617 O620 1.990 . S
Mg617 O621 2.117 . S
O618 Mg612 2.099 . S
O618 Mg617 2.180 . S
O618 C627 1.279 . S
O619 Mg617 2.030 . S
O619 C625 1.248 . S
O620 Mg617 1.990 . S
O620 C626 1.253 . S
O621 Mg617 2.117 . S
O621 C627 1.250 . S
C622 O628 1.248 . S
C622 O629 1.264 . S
C623 O609 1.253 . S
C623 O611 1.260 . S
C624 O613 1.279 . S
C624 O614 1.250 . S
C625 O615 1.264 . S
C625 O619 1.248 . S
C626 O616 1.260 . S
C626 O620 1.253 . S
C627 O618 1.279 . S
C627 O621 1.250 . S
O628 Mg610 2.030 . S
O628 C622 1.248 . S
O629 Mg612 2.079 . S
O629 C622 1.264 . S
O630 Mg631 1.990 . S
O630 C644 1.253 . S
Mg631 O630 1.990 . S
Mg631 O634 2.180 . S
Mg631 O635 2.117 . S
Mg631 O649 2.030 . S
O632 Mg633 2.072 . S
O632 C644 1.260 . S
Mg633 O632 2.072 . S
Mg633 O634 2.099 . S
Mg633 O636 2.079 . S
Mg633 O637 2.072 . S
Mg633 O639 2.099 . S
Mg633 O650 2.079 . S
O634 Mg631 2.180 . S
O634 Mg633 2.099 . S
O634 C645 1.279 . S
O635 Mg631 2.117 . S
O635 C645 1.250 . S
O636 Mg633 2.079 . S
O636 C646 1.264 . S
O637 Mg633 2.072 . S
O637 C647 1.260 . S
Mg638 O639 2.180 . S
Mg638 O640 2.030 . S
Mg638 O641 1.990 . S
Mg638 O642 2.117 . S
O639 Mg633 2.099 . S
O639 Mg638 2.180 . S
O639 C648 1.279 . S
O640 Mg638 2.030 . S
O640 C646 1.248 . S
O641 Mg638 1.990 . S
O641 C647 1.253 . S
O642 Mg638 2.117 . S
O642 C648 1.250 . S
C643 O649 1.248 . S
C643 O650 1.264 . S
C644 O630 1.253 . S
C644 O632 1.260 . S
C645 O634 1.279 . S
C645 O635 1.250 . S
C646 O636 1.264 . S
C646 O640 1.248 . S
C647 O637 1.260 . S
C647 O641 1.253 . S
C648 O639 1.279 . S
C648 O642 1.250 . S
O649 Mg631 2.030 . S
O649 C643 1.248 . S
O650 Mg633 2.079 . S
O650 C643 1.264 . S
O651 Mg652 1.990 1_556 S
O651 C665 1.253 . S
Mg652 O651 1.990 1_554 S
Mg652 O655 2.180 . S
Mg652 O656 2.117 . S
Mg652 O670 2.030 . S
O653 Mg654 2.072 1_556 S
O653 C665 1.260 . S
Mg654 O653 2.072 1_554 S
Mg654 O655 2.099 . S
Mg654 O657 2.079 . S
Mg654 O658 2.072 1_455 S
Mg654 O660 2.074 1_455 S
Mg654 O671 2.079 . S
O655 Mg652 2.180 . S
O655 Mg654 2.099 . S
O655 C666 1.279 . S
O656 Mg652 2.117 . S
O656 C666 1.250 . S
O657 Mg654 2.079 . S
O657 C667 1.264 1_455 S
O658 Mg654 2.072 1_655 S
O658 C668 1.260 . S
Mg659 O660 2.231 . S
Mg659 O661 2.030 . S
Mg659 O662 1.990 . S
Mg659 O663 2.117 1_554 S
O660 Mg654 2.074 1_655 S
O660 Mg659 2.231 . S
O660 C669 1.296 1_554 S
O661 Mg659 2.030 . S
O661 C667 1.248 . S
O662 Mg659 1.990 . S
O662 C668 1.253 . S
O663 Mg659 2.117 1_556 S
O663 C669 1.250 . S
C664 O670 1.248 . S
C664 O671 1.264 . S
C665 O651 1.253 . S
C665 O653 1.260 . S
C666 O655 1.279 . S
C666 O656 1.250 . S
C667 O657 1.264 1_655 S
C667 O661 1.248 . S
C668 O658 1.260 . S
C668 O662 1.253 . S
C669 O660 1.296 1_556 S
C669 O663 1.250 . S
O670 Mg652 2.030 . S
O670 C664 1.248 . S
O671 Mg654 2.079 . S
O671 C664 1.264 . S
C672 C673 1.349 1_655 S
C672 C674 1.327 . S
C672 H697 0.950 . S
C673 C672 1.349 1_455 S
C673 C689 1.349 . S
C674 C672 1.327 . S
C674 C693 1.429 1_655 S
C674 H698 0.950 . S
C675 C692 1.574 . S
C675 C694 1.368 . S
C675 H699 0.949 . S
H676 C680 0.949 . S
C677 C678 1.349 . S
C677 C679 1.327 . S
C677 H700 0.950 . S
C678 C677 1.349 . S
C678 C690 1.349 1_455 S
C679 C677 1.327 . S
C679 C695 1.429 . S
C679 H701 0.950 . S
C680 H676 0.949 . S
C680 C688 1.574 . S
C680 C696 1.368 1_655 S
H681 C689 0.950 . S
H682 C687 0.950 . S
H683 C688 0.949 . S
H684 C690 0.950 . S
H685 C691 0.950 . S
H686 C692 0.949 . S
C687 H682 0.950 . S
C687 C689 1.327 . S
C687 C693 1.429 . S
C688 C680 1.574 . S
C688 H683 0.949 . S
C688 C694 1.368 1_655 S
C689 C673 1.349 . S
C689 H681 0.950 . S
C689 C687 1.327 . S
C690 C678 1.349 1_655 S
C690 H684 0.950 . S
C690 C691 1.327 . S
C691 H685 0.950 . S
C691 C690 1.327 . S
C691 C695 1.429 1_655 S
C692 C675 1.574 . S
C692 H686 0.949 . S
C692 C696 1.368 . S
C693 C674 1.429 1_455 S
C693 C687 1.429 . S
C693 C694 1.523 . S
C694 C675 1.368 . S
C694 C688 1.368 1_455 S
C694 C693 1.523 . S
C695 C679 1.429 . S
C695 C691 1.429 1_455 S
C695 C696 1.523 . S
C696 C680 1.368 1_455 S
C696 C692 1.368 . S
C696 C695 1.523 . S
H697 C672 0.950 . S
H698 C674 0.950 . S
H699 C675 0.949 . S
H700 C677 0.950 . S
H701 C679 0.950 . S
C702 C703 1.349 . S
C702 C704 1.327 . S
C702 H727 0.950 . S
C703 C702 1.349 . S
C703 C719 1.349 . S
C704 C702 1.327 . S
C704 C723 1.429 . S
C704 H728 0.950 . S
C705 C722 1.574 . S
C705 C724 1.368 . S
C705 H729 0.949 . S
H706 C710 0.949 . S
C707 C708 1.349 . S
C707 C709 1.327 . S
C707 H730 0.950 . S
C708 C707 1.349 . S
C708 C720 1.349 . S
C709 C707 1.327 . S
C709 C725 1.429 . S
C709 H731 0.950 . S
C710 H706 0.949 . S
C710 C718 1.574 . S
C710 C726 1.368 . S
H711 C719 0.950 . S
H712 C717 0.950 . S
H713 C718 0.949 . S
H714 C720 0.950 . S
H715 C721 0.950 . S
H716 C722 0.949 . S
C717 H712 0.950 . S
C717 C719 1.327 . S
C717 C723 1.429 . S
C718 C710 1.574 . S
C718 H713 0.949 . S
C718 C724 1.368 . S
C719 C703 1.349 . S
C719 H711 0.950 . S
C719 C717 1.327 . S
C720 C708 1.349 . S
C720 H714 0.950 . S
C720 C721 1.327 . S
C721 H715 0.950 . S
C721 C720 1.327 . S
C721 C725 1.429 . S
C722 C705 1.574 . S
C722 H716 0.949 . S
C722 C726 1.368 . S
C723 C704 1.429 . S
C723 C717 1.429 . S
C723 C724 1.523 . S
C724 C705 1.368 . S
C724 C718 1.368 . S
C724 C723 1.523 . S
C725 C709 1.429 . S
C725 C721 1.429 . S
C725 C726 1.523 . S
C726 C710 1.368 . S
C726 C722 1.368 . S
C726 C725 1.523 . S
H727 C702 0.950 . S
H728 C704 0.950 . S
H729 C705 0.949 . S
H730 C707 0.950 . S
H731 C709 0.950 . S
C732 C733 1.349 . S
C732 C734 1.327 . S
C732 H757 0.950 . S
C733 C732 1.349 . S
C733 C749 1.349 . S
C734 C732 1.327 . S
C734 C753 1.429 . S
C734 H758 0.950 . S
C735 C752 1.574 . S
C735 C754 1.368 . S
C735 H759 0.949 . S
H736 C740 0.949 . S
C737 C738 1.349 . S
C737 C739 1.327 . S
C737 H760 0.950 . S
C738 C737 1.349 . S
C738 C750 1.349 . S
C739 C737 1.327 . S
C739 C755 1.429 . S
C739 H761 0.950 . S
C740 H736 0.949 . S
C740 C748 1.574 . S
C740 C756 1.368 . S
H741 C749 0.950 . S
H742 C747 0.950 . S
H743 C748 0.949 . S
H744 C750 0.950 . S
H745 C751 0.950 . S
H746 C752 0.949 . S
C747 H742 0.950 . S
C747 C749 1.327 . S
C747 C753 1.429 . S
C748 C740 1.574 . S
C748 H743 0.949 . S
C748 C754 1.368 . S
C749 C733 1.349 . S
C749 H741 0.950 . S
C749 C747 1.327 . S
C750 C738 1.349 . S
C750 H744 0.950 . S
C750 C751 1.327 . S
C751 H745 0.950 . S
C751 C750 1.327 . S
C751 C755 1.429 . S
C752 C735 1.574 . S
C752 H746 0.949 . S
C752 C756 1.368 . S
C753 C734 1.429 . S
C753 C747 1.429 . S
C753 C754 1.523 . S
C754 C735 1.368 . S
C754 C748 1.368 . S
C754 C753 1.523 . S
C755 C739 1.429 . S
C755 C751 1.429 . S
C755 C756 1.523 . S
C756 C740 1.368 . S
C756 C752 1.368 . S
C756 C755 1.523 . S
H757 C732 0.950 . S
H758 C734 0.950 . S
H759 C735 0.949 . S
H760 C737 0.950 . S
H761 C739 0.950 . S
C762 C763 1.349 . S
C762 C764 1.327 . S
C762 H787 0.950 . S
C763 C762 1.349 . S
C763 C779 1.349 . S
C764 C762 1.327 . S
C764 C783 1.429 . S
C764 H788 0.950 . S
C765 C782 1.574 . S
C765 C784 1.368 . S
C765 H789 0.949 . S
H766 C770 0.949 . S
C767 C768 1.349 . S
C767 C769 1.327 . S
C767 H790 0.950 . S
C768 C767 1.349 . S
C768 C780 1.349 . S
C769 C767 1.327 . S
C769 C785 1.429 . S
C769 H791 0.950 . S
C770 H766 0.949 . S
C770 C778 1.574 . S
C770 C786 1.368 . S
H771 C779 0.950 . S
H772 C777 0.950 . S
H773 C778 0.949 . S
H774 C780 0.950 . S
H775 C781 0.950 . S
H776 C782 0.949 . S
C777 H772 0.950 . S
C777 C779 1.327 . S
C777 C783 1.429 . S
C778 C770 1.574 . S
C778 H773 0.949 . S
C778 C784 1.368 . S
C779 C763 1.349 . S
C779 H771 0.950 . S
C779 C777 1.327 . S
C780 C768 1.349 . S
C780 H774 0.950 . S
C780 C781 1.327 . S
C781 H775 0.950 . S
C781 C780 1.327 . S
C781 C785 1.429 . S
C782 C765 1.574 . S
C782 H776 0.949 . S
C782 C786 1.368 . S
C783 C764 1.429 . S
C783 C777 1.429 . S
C783 C784 1.523 . S
C784 C765 1.368 . S
C784 C778 1.368 . S
C784 C783 1.523 . S
C785 C769 1.429 . S
C785 C781 1.429 . S
C785 C786 1.523 . S
C786 C770 1.368 . S
C786 C782 1.368 . S
C786 C785 1.523 . S
H787 C762 0.950 . S
H788 C764 0.950 . S
H789 C765 0.949 . S
H790 C767 0.950 . S
H791 C769 0.950 . S
C792 C793 1.349 1_655 S
C792 C794 1.327 . S
C792 H817 0.950 . S
C793 C792 1.349 1_455 S
C793 C809 1.349 . S
C794 C792 1.327 . S
C794 C813 1.429 1_655 S
C794 H818 0.950 . S
C795 C812 1.574 . S
C795 C814 1.368 . S
C795 H819 0.949 . S
H796 C800 0.949 . S
C797 C798 1.349 1_455 S
C797 C799 1.327 . S
C797 H820 0.950 . S
C798 C797 1.349 1_655 S
C798 C810 1.349 . S
C799 C797 1.327 . S
C799 C815 1.437 . S
C799 H821 0.950 . S
C800 H796 0.949 . S
C800 C808 1.574 . S
C800 C816 1.368 1_655 S
H801 C809 0.950 . S
H802 C807 0.950 . S
H803 C808 0.949 . S
H804 C810 0.950 . S
H805 C811 0.950 . S
H806 C812 0.949 . S
C807 H802 0.950 . S
C807 C809 1.327 . S
C807 C813 1.429 . S
C808 C800 1.574 . S
C808 H803 0.949 . S
C808 C814 1.368 1_655 S
C809 C793 1.349 . S
C809 H801 0.950 . S
C809 C807 1.327 . S
C810 C798 1.349 . S
C810 H804 0.950 . S
C810 C811 1.327 . S
C811 H805 0.950 . S
C811 C810 1.327 . S
C811 C815 1.419 1_655 S
C812 C795 1.574 . S
C812 H806 0.949 . S
C812 C816 1.368 . S
C813 C794 1.429 1_455 S
C813 C807 1.429 . S
C813 C814 1.523 . S
C814 C795 1.368 . S
C814 C808 1.368 1_455 S
C814 C813 1.523 . S
C815 C799 1.437 . S
C815 C811 1.419 1_455 S
C815 C816 1.524 . S
C816 C800 1.368 1_455 S
C816 C812 1.368 . S
C816 C815 1.524 . S
H817 C792 0.950 . S
H818 C794 0.950 . S
H819 C795 0.949 . S
H820 C797 0.950 . S
H821 C799 0.950 . S
C822 C823 1.349 . S
C822 C824 1.327 . S
C822 H847 0.950 . S
C823 C822 1.349 . S
C823 C839 1.349 . S
C824 C822 1.327 . S
C824 C843 1.429 . S
C824 H848 0.950 . S
C825 C842 1.574 . S
C825 C844 1.368 . S
C825 H849 0.949 . S
H826 C830 0.949 . S
C827 C828 1.349 . S
C827 C829 1.327 . S
C827 H850 0.950 . S
C828 C827 1.349 . S
C828 C840 1.349 . S
C829 C827 1.327 . S
C829 C845 1.429 . S
C829 H851 0.950 . S
C830 H826 0.949 . S
C830 C838 1.574 . S
C830 C846 1.368 . S
H831 C839 0.950 . S
H832 C837 0.950 . S
H833 C838 0.949 . S
H834 C840 0.950 . S
H835 C841 0.950 . S
H836 C842 0.949 . S
C837 H832 0.950 . S
C837 C839 1.327 . S
C837 C843 1.429 . S
C838 C830 1.574 . S
C838 H833 0.949 . S
C838 C844 1.368 . S
C839 C823 1.349 . S
C839 H831 0.950 . S
C839 C837 1.327 . S
C840 C828 1.349 . S
C840 H834 0.950 . S
C840 C841 1.327 . S
C841 H835 0.950 . S
C841 C840 1.327 . S
C841 C845 1.429 . S
C842 C825 1.574 . S
C842 H836 0.949 . S
C842 C846 1.368 . S
C843 C824 1.429 . S
C843 C837 1.429 . S
C843 C844 1.523 . S
C844 C825 1.368 . S
C844 C838 1.368 . S
C844 C843 1.523 . S
C845 C829 1.429 . S
C845 C841 1.429 . S
C845 C846 1.523 . S
C846 C830 1.368 . S
C846 C842 1.368 . S
C846 C845 1.523 . S
H847 C822 0.950 . S
H848 C824 0.950 . S
H849 C825 0.949 . S
H850 C827 0.950 . S
H851 C829 0.950 . S
C852 C853 1.349 . S
C852 C854 1.327 . S
C852 H877 0.950 . S
C853 C852 1.349 . S
C853 C869 1.349 . S
C854 C852 1.327 . S
C854 C873 1.429 . S
C854 H878 0.950 . S
C855 C872 1.574 . S
C855 C874 1.368 . S
C855 H879 0.949 . S
H856 C860 0.949 . S
C857 C858 1.349 . S
C857 C859 1.327 . S
C857 H880 0.950 1_556 S
C858 C857 1.349 . S
C858 C870 1.349 . S
C859 C857 1.327 . S
C859 C875 1.429 . S
C859 H881 0.950 . S
C860 H856 0.949 . S
C860 C868 1.574 . S
C860 C876 1.368 . S
H861 C869 0.950 . S
H862 C867 0.950 . S
H863 C868 0.949 . S
H864 C870 0.950 . S
H865 C871 0.950 . S
H866 C872 0.949 . S
C867 H862 0.950 . S
C867 C869 1.327 . S
C867 C873 1.429 . S
C868 C860 1.574 . S
C868 H863 0.949 . S
C868 C874 1.368 . S
C869 C853 1.349 . S
C869 H861 0.950 . S
C869 C867 1.327 . S
C870 C858 1.349 . S
C870 H864 0.950 . S
C870 C871 1.327 . S
C871 H865 0.950 . S
C871 C870 1.327 . S
C871 C875 1.429 . S
C872 C855 1.574 . S
C872 H866 0.949 . S
C872 C876 1.368 . S
C873 C854 1.429 . S
C873 C867 1.429 . S
C873 C874 1.523 . S
C874 C855 1.368 . S
C874 C868 1.368 . S
C874 C873 1.523 . S
C875 C859 1.429 . S
C875 C871 1.429 . S
C875 C876 1.523 . S
C876 C860 1.368 . S
C876 C872 1.368 . S
C876 C875 1.523 . S
H877 C852 0.950 . S
H878 C854 0.950 . S
H879 C855 0.949 . S
H880 C857 0.950 1_554 S
H881 C859 0.950 . S
C882 C883 1.349 . S
C882 C884 1.327 . S
C882 H907 0.950 . S
C883 C882 1.349 . S
C883 C899 1.349 . S
C884 C882 1.327 . S
C884 C903 1.429 . S
C884 H908 0.950 . S
C885 C902 1.574 . S
C885 C904 1.368 . S
C885 H909 0.949 . S
H886 C890 0.949 . S
C887 C888 1.349 . S
C887 C889 1.327 . S
C887 H910 0.950 . S
C888 C887 1.349 . S
C888 C900 1.349 . S
C889 C887 1.327 . S
C889 C905 1.429 . S
C889 H911 0.950 . S
C890 H886 0.949 . S
C890 C898 1.574 . S
C890 C906 1.368 . S
H891 C899 0.950 . S
H892 C897 0.950 . S
H893 C898 0.949 . S
H894 C900 0.950 . S
H895 C901 0.950 . S
H896 C902 0.949 . S
C897 H892 0.950 . S
C897 C899 1.327 . S
C897 C903 1.429 . S
C898 C890 1.574 . S
C898 H893 0.949 . S
C898 C904 1.368 . S
C899 C883 1.349 . S
C899 H891 0.950 . S
C899 C897 1.327 . S
C900 C888 1.349 . S
C900 H894 0.950 . S
C900 C901 1.327 . S
C901 H895 0.950 . S
C901 C900 1.327 . S
C901 C905 1.429 . S
C902 C885 1.574 . S
C902 H896 0.949 . S
C902 C906 1.368 . S
C903 C884 1.429 . S
C903 C897 1.429 . S
C903 C904 1.523 . S
C904 C885 1.368 . S
C904 C898 1.368 . S
C904 C903 1.523 . S
C905 C889 1.429 . S
C905 C901 1.429 . S
C905 C906 1.523 . S
C906 C890 1.368 . S
C906 C902 1.368 . S
C906 C905 1.523 . S
H907 C882 0.950 . S
H908 C884 0.950 . S
H909 C885 0.949 . S
H910 C887 0.950 . S
H911 C889 0.950 . S
C912 C913 1.349 1_565 S
C912 C914 1.327 . S
C912 H937 0.950 . S
C913 C912 1.349 1_545 S
C913 C929 1.349 . S
C914 C912 1.327 . S
C914 C933 1.401 1_565 S
C914 H938 0.950 . S
C915 C932 1.574 . S
C915 C934 1.363 1_545 S
C915 H939 0.949 . S
H916 C920 0.949 . S
C917 C918 1.349 1_545 S
C917 C919 1.327 . S
C917 H940 0.950 . S
C918 C917 1.349 1_565 S
C918 C930 1.349 . S
C919 C917 1.327 . S
C919 C935 1.429 1_545 S
C919 H941 0.950 . S
C920 H916 0.949 . S
C920 C928 1.574 . S
C920 C936 1.368 . S
H921 C929 0.950 . S
H922 C927 0.950 . S
H923 C928 0.949 . S
H924 C930 0.950 . S
H925 C931 0.950 . S
H926 C932 0.949 . S
C927 H922 0.950 . S
C927 C929 1.327 . S
C927 C933 1.457 . S
C928 C920 1.574 . S
C928 H923 0.949 . S
C928 C934 1.374 . S
C929 C913 1.349 . S
C929 H921 0.950 . S
C929 C927 1.327 . S
C930 C918 1.349 . S
C930 H924 0.950 . S
C930 C931 1.327 . S
C931 H925 0.950 . S
C931 C930 1.327 . S
C931 C935 1.429 . S
C932 C915 1.574 . S
C932 H926 0.949 . S
C932 C936 1.368 1_545 S
C933 C914 1.401 1_545 S
C933 C927 1.457 . S
C933 C934 1.524 1_545 S
C934 C915 1.363 1_565 S
C934 C928 1.374 . S
C934 C933 1.524 1_565 S
C935 C919 1.429 1_565 S
C935 C931 1.429 . S
C935 C936 1.523 . S
C936 C920 1.368 . S
C936 C932 1.368 1_565 S
C936 C935 1.523 . S
H937 C912 0.950 . S
H938 C914 0.950 . S
H939 C915 0.949 . S
H940 C917 0.950 . S
H941 C919 0.950 . S
C942 C943 1.349 . S
C942 C944 1.327 . S
C942 H967 0.950 . S
C943 C942 1.349 . S
C943 C959 1.349 . S
C944 C942 1.327 . S
C944 C963 1.429 . S
C944 H968 0.950 . S
C945 C962 1.574 . S
C945 C964 1.368 . S
C945 H969 0.949 . S
H946 C950 0.949 . S
C947 C948 1.349 . S
C947 C949 1.327 . S
C947 H970 0.950 . S
C948 C947 1.349 . S
C948 C960 1.349 . S
C949 C947 1.327 . S
C949 C965 1.429 . S
C949 H971 0.950 . S
C950 H946 0.949 . S
C950 C958 1.574 . S
C950 C966 1.368 . S
H951 C959 0.950 . S
H952 C957 0.950 . S
H953 C958 0.949 . S
H954 C960 0.950 . S
H955 C961 0.950 . S
H956 C962 0.949 . S
C957 H952 0.950 . S
C957 C959 1.327 . S
C957 C963 1.429 . S
C958 C950 1.574 . S
C958 H953 0.949 . S
C958 C964 1.368 . S
C959 C943 1.349 . S
C959 H951 0.950 . S
C959 C957 1.327 . S
C960 C948 1.349 . S
C960 H954 0.950 . S
C960 C961 1.327 . S
C961 H955 0.950 . S
C961 C960 1.327 . S
C961 C965 1.429 . S
C962 C945 1.574 . S
C962 H956 0.949 . S
C962 C966 1.368 . S
C963 C944 1.429 . S
C963 C957 1.429 . S
C963 C964 1.523 . S
C964 C945 1.368 . S
C964 C958 1.368 . S
C964 C963 1.523 . S
C965 C949 1.429 . S
C965 C961 1.429 . S
C965 C966 1.523 . S
C966 C950 1.368 . S
C966 C962 1.368 . S
C966 C965 1.523 . S
H967 C942 0.950 . S
H968 C944 0.950 . S
H969 C945 0.949 . S
H970 C947 0.950 . S
H971 C949 0.950 . S
C972 C973 1.349 . S
C972 C974 1.327 . S
C972 H997 0.950 1_545 S
C973 C972 1.349 . S
C973 C989 1.349 . S
C974 C972 1.327 . S
C974 C993 1.429 . S
C974 H998 0.950 1_545 S
C975 C992 1.574 . S
C975 C994 1.368 . S
C975 H999 0.949 . S
H976 C980 0.973 . S
C977 C978 1.349 . S
C977 C979 1.327 . S
C977 H1000 0.950 . S
C978 C977 1.349 . S
C978 C990 1.349 . S
C979 C977 1.327 . S
C979 C995 1.429 . S
C979 H1001 0.950 . S
C980 H976 0.973 . S
C980 C988 1.574 . S
C980 C996 1.368 . S
H981 C989 0.950 . S
H982 C987 0.950 . S
H983 C988 0.949 1_565 S
H984 C990 0.950 . S
H985 C991 0.950 . S
H986 C992 0.949 . S
C987 H982 0.950 . S
C987 C989 1.327 . S
C987 C993 1.429 . S
C988 C980 1.574 . S
C988 H983 0.949 1_545 S
C988 C994 1.368 . S
C989 C973 1.349 . S
C989 H981 0.950 . S
C989 C987 1.327 . S
C990 C978 1.349 . S
C990 H984 0.950 . S
C990 C991 1.327 . S
C991 H985 0.950 . S
C991 C990 1.327 . S
C991 C995 1.429 . S
C992 C975 1.574 . S
C992 H986 0.949 . S
C992 C996 1.368 . S
C993 C974 1.429 . S
C993 C987 1.429 . S
C993 C994 1.523 . S
C994 C975 1.368 . S
C994 C988 1.368 . S
C994 C993 1.523 . S
C995 C979 1.429 . S
C995 C991 1.429 . S
C995 C996 1.523 . S
C996 C980 1.368 . S
C996 C992 1.368 . S
C996 C995 1.523 . S
H997 C972 0.950 1_565 S
H998 C974 0.950 1_565 S
H999 C975 0.949 . S
H1000 C977 0.950 . S
H1001 C979 0.950 . S
C1002 C1003 1.349 . S
C1002 C1004 1.327 . S
C1002 H1027 0.950 . S
C1003 C1002 1.349 . S
C1003 C1019 1.349 . S
C1004 C1002 1.327 . S
C1004 C1023 1.429 . S
C1004 H1028 0.950 . S
C1005 C1022 1.574 . S
C1005 C1024 1.368 . S
C1005 H1029 0.949 . S
H1006 C1010 0.949 . S
C1007 C1008 1.349 . S
C1007 C1009 1.327 . S
C1007 H1030 0.950 . S
C1008 C1007 1.349 . S
C1008 C1020 1.349 . S
C1009 C1007 1.327 . S
C1009 C1025 1.429 . S
C1009 H1031 0.950 . S
C1010 H1006 0.949 . S
C1010 C1018 1.574 . S
C1010 C1026 1.368 . S
H1011 C1019 0.950 . S
H1012 C1017 0.950 . S
H1013 C1018 0.949 . S
H1014 C1020 0.950 . S
H1015 C1021 0.950 . S
H1016 C1022 0.949 . S
C1017 H1012 0.950 . S
C1017 C1019 1.327 . S
C1017 C1023 1.429 . S
C1018 C1010 1.574 . S
C1018 H1013 0.949 . S
C1018 C1024 1.368 . S
C1019 C1003 1.349 . S
C1019 H1011 0.950 . S
C1019 C1017 1.327 . S
C1020 C1008 1.349 . S
C1020 H1014 0.950 . S
C1020 C1021 1.327 . S
C1021 H1015 0.950 . S
C1021 C1020 1.327 . S
C1021 C1025 1.429 . S
C1022 C1005 1.574 . S
C1022 H1016 0.949 . S
C1022 C1026 1.368 . S
C1023 C1004 1.429 . S
C1023 C1017 1.429 . S
C1023 C1024 1.523 . S
C1024 C1005 1.368 . S
C1024 C1018 1.368 . S
C1024 C1023 1.523 . S
C1025 C1009 1.429 . S
C1025 C1021 1.429 . S
C1025 C1026 1.523 . S
C1026 C1010 1.368 . S
C1026 C1022 1.368 . S
C1026 C1025 1.523 . S
H1027 C1002 0.950 . S
H1028 C1004 0.950 . S
H1029 C1005 0.949 . S
H1030 C1007 0.950 . S
H1031 C1009 0.950 . S
C1032 C1033 1.349 . S
C1032 C1034 1.327 . S
C1032 H1057 0.930 1_545 S
C1033 C1032 1.349 . S
C1033 C1049 1.349 . S
C1034 C1032 1.327 . S
C1034 C1053 1.429 . S
C1034 H1058 0.947 1_545 S
C1035 C1052 1.574 . S
C1035 C1054 1.368 . S
C1035 H1059 0.949 . S
H1036 C1040 0.949 . S
C1037 C1038 1.349 . S
C1037 C1039 1.327 . S
C1037 H1060 0.950 . S
C1038 C1037 1.349 . S
C1038 C1050 1.349 . S
C1039 C1037 1.327 . S
C1039 C1055 1.429 . S
C1039 H1061 0.950 . S
C1040 H1036 0.949 . S
C1040 C1048 1.574 . S
C1040 C1056 1.368 . S
H1041 C1049 0.950 . S
H1042 C1047 0.950 . S
H1043 C1048 0.960 . S
H1044 C1050 0.950 . S
H1045 C1051 0.950 . S
H1046 C1052 0.949 . S
C1047 H1042 0.950 . S
C1047 C1049 1.327 . S
C1047 C1053 1.429 . S
C1048 C1040 1.574 . S
C1048 H1043 0.960 . S
C1048 C1054 1.368 . S
C1049 C1033 1.349 . S
C1049 H1041 0.950 . S
C1049 C1047 1.327 . S
C1050 C1038 1.349 . S
C1050 H1044 0.950 . S
C1050 C1051 1.327 . S
C1051 H1045 0.950 . S
C1051 C1050 1.327 . S
C1051 C1055 1.429 . S
C1052 C1035 1.574 . S
C1052 H1046 0.949 . S
C1052 C1056 1.368 . S
C1053 C1034 1.429 . S
C1053 C1047 1.429 . S
C1053 C1054 1.523 . S
C1054 C1035 1.368 . S
C1054 C1048 1.368 . S
C1054 C1053 1.523 . S
C1055 C1039 1.429 . S
C1055 C1051 1.429 . S
C1055 C1056 1.523 . S
C1056 C1040 1.368 . S
C1056 C1052 1.368 . S
C1056 C1055 1.523 . S
H1057 C1032 0.930 1_565 S
H1058 C1034 0.947 1_565 S
H1059 C1035 0.949 . S
H1060 C1037 0.950 . S
H1061 C1039 0.950 . S
C1062 C1063 1.349 . S
C1062 C1064 1.327 . S
C1062 H1087 0.950 . S
C1063 C1062 1.349 . S
C1063 C1079 1.349 . S
C1064 C1062 1.327 . S
C1064 C1083 1.429 . S
C1064 H1088 0.950 . S
C1065 C1082 1.574 . S
C1065 C1084 1.368 . S
C1065 H1089 0.949 . S
H1066 C1070 0.949 . S
C1067 C1068 1.349 . S
C1067 C1069 1.327 . S
C1067 H1090 0.950 . S
C1068 C1067 1.349 . S
C1068 C1080 1.349 . S
C1069 C1067 1.327 . S
C1069 C1085 1.429 . S
C1069 H1091 0.950 . S
C1070 H1066 0.949 . S
C1070 C1078 1.574 . S
C1070 C1086 1.368 . S
H1071 C1079 0.950 . S
H1072 C1077 0.950 . S
H1073 C1078 0.949 . S
H1074 C1080 0.950 . S
H1075 C1081 0.950 . S
H1076 C1082 0.949 . S
C1077 H1072 0.950 . S
C1077 C1079 1.327 . S
C1077 C1083 1.429 . S
C1078 C1070 1.574 . S
C1078 H1073 0.949 . S
C1078 C1084 1.368 . S
C1079 C1063 1.349 . S
C1079 H1071 0.950 . S
C1079 C1077 1.327 . S
C1080 C1068 1.349 . S
C1080 H1074 0.950 . S
C1080 C1081 1.327 . S
C1081 H1075 0.950 . S
C1081 C1080 1.327 . S
C1081 C1085 1.429 . S
C1082 C1065 1.574 . S
C1082 H1076 0.949 . S
C1082 C1086 1.368 . S
C1083 C1064 1.429 . S
C1083 C1077 1.429 . S
C1083 C1084 1.523 . S
C1084 C1065 1.368 . S
C1084 C1078 1.368 . S
C1084 C1083 1.523 . S
C1085 C1069 1.429 . S
C1085 C1081 1.429 . S
C1085 C1086 1.523 . S
C1086 C1070 1.368 . S
C1086 C1082 1.368 . S
C1086 C1085 1.523 . S
H1087 C1062 0.950 . S
H1088 C1064 0.950 . S
H1089 C1065 0.949 . S
H1090 C1067 0.950 . S
H1091 C1069 0.950 . S
C1092 C1093 1.349 . S
C1092 C1094 1.332 . S
C1092 H1117 0.950 1_545 S
C1093 C1092 1.349 . S
C1093 C1109 1.349 . S
C1094 C1092 1.332 . S
C1094 C1113 1.454 . S
C1094 H1118 0.920 1_545 S
C1095 C1112 1.574 . S
C1095 C1114 1.368 . S
C1095 H1119 0.949 . S
H1096 C1100 0.949 . S
C1097 C1098 1.349 . S
C1097 C1099 1.327 . S
C1097 H1120 0.950 . S
C1098 C1097 1.349 . S
C1098 C1110 1.349 1_545 S
C1099 C1097 1.327 . S
C1099 C1115 1.429 . S
C1099 H1121 0.950 . S
C1100 H1096 0.949 . S
C1100 C1108 1.574 . S
C1100 C1116 1.368 1_565 S
H1101 C1109 0.950 . S
H1102 C1107 0.950 . S
H1103 C1108 0.949 . S
H1104 C1110 0.950 . S
H1105 C1111 0.950 . S
H1106 C1112 0.949 . S
C1107 H1102 0.950 . S
C1107 C1109 1.327 . S
C1107 C1113 1.429 . S
C1108 C1100 1.574 . S
C1108 H1103 0.949 . S
C1108 C1114 1.368 1_565 S
C1109 C1093 1.349 . S
C1109 H1101 0.950 . S
C1109 C1107 1.327 . S
C1110 C1098 1.349 1_565 S
C1110 H1104 0.950 . S
C1110 C1111 1.327 . S
C1111 H1105 0.950 . S
C1111 C1110 1.327 . S
C1111 C1115 1.429 1_565 S
C1112 C1095 1.574 . S
C1112 H1106 0.949 . S
C1112 C1116 1.368 . S
C1113 C1094 1.454 . S
C1113 C1107 1.429 . S
C1113 C1114 1.523 . S
C1114 C1095 1.368 . S
C1114 C1108 1.368 1_545 S
C1114 C1113 1.523 . S
C1115 C1099 1.429 . S
C1115 C1111 1.429 1_545 S
C1115 C1116 1.523 . S
C1116 C1100 1.368 1_545 S
C1116 C1112 1.368 . S
C1116 C1115 1.523 . S
H1117 C1092 0.950 1_565 S
H1118 C1094 0.920 1_565 S
H1119 C1095 0.949 . S
H1120 C1097 0.950 . S
H1121 C1099 0.950 . S
C1122 C1123 1.349 . S
C1122 C1124 1.327 . S
C1122 H1147 0.950 . S
C1123 C1122 1.349 . S
C1123 C1139 1.349 . S
C1124 C1122 1.327 . S
C1124 C1143 1.429 . S
C1124 H1148 0.950 . S
C1125 C1142 1.574 . S
C1125 C1144 1.368 . S
C1125 H1149 0.949 . S
H1126 C1130 0.949 . S
C1127 C1128 1.349 . S
C1127 C1129 1.327 . S
C1127 H1150 0.950 . S
C1128 C1127 1.349 . S
C1128 C1140 1.349 . S
C1129 C1127 1.327 . S
C1129 C1145 1.429 . S
C1129 H1151 0.950 . S
C1130 H1126 0.949 . S
C1130 C1138 1.574 . S
C1130 C1146 1.368 . S
H1131 C1139 0.950 . S
H1132 C1137 0.950 . S
H1133 C1138 0.949 . S
H1134 C1140 0.950 . S
H1135 C1141 0.950 . S
H1136 C1142 0.949 . S
C1137 H1132 0.950 . S
C1137 C1139 1.327 . S
C1137 C1143 1.429 . S
C1138 C1130 1.574 . S
C1138 H1133 0.949 . S
C1138 C1144 1.368 . S
C1139 C1123 1.349 . S
C1139 H1131 0.950 . S
C1139 C1137 1.327 . S
C1140 C1128 1.349 . S
C1140 H1134 0.950 . S
C1140 C1141 1.327 . S
C1141 H1135 0.950 . S
C1141 C1140 1.327 . S
C1141 C1145 1.429 . S
C1142 C1125 1.574 . S
C1142 H1136 0.949 . S
C1142 C1146 1.368 . S
C1143 C1124 1.429 . S
C1143 C1137 1.429 . S
C1143 C1144 1.523 . S
C1144 C1125 1.368 . S
C1144 C1138 1.368 . S
C1144 C1143 1.523 . S
C1145 C1129 1.429 . S
C1145 C1141 1.429 . S
C1145 C1146 1.523 . S
C1146 C1130 1.368 . S
C1146 C1142 1.368 . S
C1146 C1145 1.523 . S
H1147 C1122 0.950 . S
H1148 C1124 0.950 . S
H1149 C1125 0.949 . S
H1150 C1127 0.950 . S
H1151 C1129 0.950 . S
C1152 C1153 1.349 . S
C1152 C1154 1.327 . S
C1152 H1177 0.950 . S
C1153 C1152 1.349 . S
C1153 C1169 1.349 1_554 S
C1154 C1152 1.327 . S
C1154 C1173 1.429 . S
C1154 H1178 0.950 . S
C1155 C1172 1.574 . S
C1155 C1174 1.368 1_556 S
C1155 H1179 0.949 . S
H1156 C1160 0.949 . S
C1157 C1158 1.349 1_556 S
C1157 C1159 1.327 . S
C1157 H1180 0.950 . S
C1158 C1157 1.349 1_554 S
C1158 C1170 1.349 . S
C1159 C1157 1.327 . S
C1159 C1175 1.429 1_556 S
C1159 H1181 0.950 . S
C1160 H1156 0.949 . S
C1160 C1168 1.574 . S
C1160 C1176 1.368 . S
H1161 C1169 0.950 . S
H1162 C1167 0.950 . S
H1163 C1168 0.949 . S
H1164 C1170 0.950 . S
H1165 C1171 0.950 . S
H1166 C1172 0.949 . S
C1167 H1162 0.950 . S
C1167 C1169 1.327 . S
C1167 C1173 1.429 1_556 S
C1168 C1160 1.574 . S
C1168 H1163 0.949 . S
C1168 C1174 1.368 . S
C1169 C1153 1.349 1_556 S
C1169 H1161 0.950 . S
C1169 C1167 1.327 . S
C1170 C1158 1.349 . S
C1170 H1164 0.950 . S
C1170 C1171 1.327 . S
C1171 H1165 0.950 . S
C1171 C1170 1.327 . S
C1171 C1175 1.429 . S
C1172 C1155 1.574 . S
C1172 H1166 0.949 . S
C1172 C1176 1.368 1_556 S
C1173 C1154 1.429 . S
C1173 C1167 1.429 1_554 S
C1173 C1174 1.523 . S
C1174 C1155 1.368 1_554 S
C1174 C1168 1.368 . S
C1174 C1173 1.523 . S
C1175 C1159 1.429 1_554 S
C1175 C1171 1.429 . S
C1175 C1176 1.523 . S
C1176 C1160 1.368 . S
C1176 C1172 1.368 1_554 S
C1176 C1175 1.523 . S
H1177 C1152 0.950 . S
H1178 C1154 0.950 . S
H1179 C1155 0.949 . S
H1180 C1157 0.950 . S
H1181 C1159 0.950 . S
C1182 C1183 1.349 . S
C1182 C1184 1.327 . S
C1182 H1207 0.950 1_554 S
C1183 C1182 1.349 . S
C1183 C1199 1.349 . S
C1184 C1182 1.327 . S
C1184 C1203 1.429 . S
C1184 H1208 0.950 1_554 S
C1185 C1202 1.574 . S
C1185 C1204 1.368 . S
C1185 H1209 0.949 . S
H1186 C1190 0.949 . S
C1187 C1188 1.349 . S
C1187 C1189 1.327 . S
C1187 H1210 0.950 . S
C1188 C1187 1.349 . S
C1188 C1200 1.349 . S
C1189 C1187 1.327 . S
C1189 C1205 1.429 . S
C1189 H1211 0.950 . S
C1190 H1186 0.949 . S
C1190 C1198 1.574 . S
C1190 C1206 1.368 . S
H1191 C1199 0.950 . S
H1192 C1197 0.950 . S
H1193 C1198 0.949 1_556 S
H1194 C1200 0.950 . S
H1195 C1201 0.950 . S
H1196 C1202 0.949 . S
C1197 H1192 0.950 . S
C1197 C1199 1.327 . S
C1197 C1203 1.429 . S
C1198 C1190 1.574 . S
C1198 H1193 0.949 1_554 S
C1198 C1204 1.368 . S
C1199 C1183 1.349 . S
C1199 H1191 0.950 . S
C1199 C1197 1.327 . S
C1200 C1188 1.349 . S
C1200 H1194 0.950 . S
C1200 C1201 1.327 . S
C1201 H1195 0.950 . S
C1201 C1200 1.327 . S
C1201 C1205 1.429 . S
C1202 C1185 1.574 . S
C1202 H1196 0.949 . S
C1202 C1206 1.368 . S
C1203 C1184 1.429 . S
C1203 C1197 1.429 . S
C1203 C1204 1.523 . S
C1204 C1185 1.368 . S
C1204 C1198 1.368 . S
C1204 C1203 1.523 . S
C1205 C1189 1.429 . S
C1205 C1201 1.429 . S
C1205 C1206 1.523 . S
C1206 C1190 1.368 . S
C1206 C1202 1.368 . S
C1206 C1205 1.523 . S
H1207 C1182 0.950 1_556 S
H1208 C1184 0.950 1_556 S
H1209 C1185 0.949 . S
H1210 C1187 0.950 . S
H1211 C1189 0.950 . S
C1212 C1213 1.349 . S
C1212 C1214 1.327 . S
C1212 H1237 0.950 . S
C1213 C1212 1.349 . S
C1213 C1229 1.349 . S
C1214 C1212 1.327 . S
C1214 C1233 1.429 . S
C1214 H1238 0.950 . S
C1215 C1232 1.574 . S
C1215 C1234 1.368 . S
C1215 H1239 0.949 . S
H1216 C1220 0.949 . S
C1217 C1218 1.349 . S
C1217 C1219 1.327 . S
C1217 H1240 0.950 . S
C1218 C1217 1.349 . S
C1218 C1230 1.349 . S
C1219 C1217 1.327 . S
C1219 C1235 1.429 . S
C1219 H1241 0.950 . S
C1220 H1216 0.949 . S
C1220 C1228 1.574 . S
C1220 C1236 1.368 . S
H1221 C1229 0.950 . S
H1222 C1227 0.950 . S
H1223 C1228 0.949 . S
H1224 C1230 0.950 . S
H1225 C1231 0.950 . S
H1226 C1232 0.949 . S
C1227 H1222 0.950 . S
C1227 C1229 1.327 . S
C1227 C1233 1.429 . S
C1228 C1220 1.574 . S
C1228 H1223 0.949 . S
C1228 C1234 1.368 . S
C1229 C1213 1.349 . S
C1229 H1221 0.950 . S
C1229 C1227 1.327 . S
C1230 C1218 1.349 . S
C1230 H1224 0.950 . S
C1230 C1231 1.327 . S
C1231 H1225 0.950 . S
C1231 C1230 1.327 . S
C1231 C1235 1.429 . S
C1232 C1215 1.574 . S
C1232 H1226 0.949 . S
C1232 C1236 1.368 . S
C1233 C1214 1.429 . S
C1233 C1227 1.429 . S
C1233 C1234 1.523 . S
C1234 C1215 1.368 . S
C1234 C1228 1.368 . S
C1234 C1233 1.523 . S
C1235 C1219 1.429 . S
C1235 C1231 1.429 . S
C1235 C1236 1.523 . S
C1236 C1220 1.368 . S
C1236 C1232 1.368 . S
C1236 C1235 1.523 . S
H1237 C1212 0.950 . S
H1238 C1214 0.950 . S
H1239 C1215 0.949 . S
H1240 C1217 0.950 . S
H1241 C1219 0.950 . S
C1242 C1243 1.349 . S
C1242 C1244 1.327 . S
C1242 H1267 0.950 . S
C1243 C1242 1.349 . S
C1243 C1259 1.349 . S
C1244 C1242 1.327 . S
C1244 C1263 1.429 . S
C1244 H1268 0.950 . S
C1245 C1262 1.574 . S
C1245 C1264 1.368 . S
C1245 H1269 0.949 . S
H1246 C1250 0.949 . S
C1247 C1248 1.349 . S
C1247 C1249 1.327 . S
C1247 H1270 0.950 . S
C1248 C1247 1.349 . S
C1248 C1260 1.349 . S
C1249 C1247 1.327 . S
C1249 C1265 1.429 . S
C1249 H1271 0.950 . S
C1250 H1246 0.949 . S
C1250 C1258 1.574 . S
C1250 C1266 1.368 . S
H1251 C1259 0.950 . S
H1252 C1257 0.950 . S
H1253 C1258 0.949 . S
H1254 C1260 0.950 . S
H1255 C1261 0.950 . S
H1256 C1262 0.949 . S
C1257 H1252 0.950 . S
C1257 C1259 1.327 . S
C1257 C1263 1.429 . S
C1258 C1250 1.574 . S
C1258 H1253 0.949 . S
C1258 C1264 1.368 . S
C1259 C1243 1.349 . S
C1259 H1251 0.950 . S
C1259 C1257 1.327 . S
C1260 C1248 1.349 . S
C1260 H1254 0.950 . S
C1260 C1261 1.327 . S
C1261 H1255 0.950 . S
C1261 C1260 1.327 . S
C1261 C1265 1.429 . S
C1262 C1245 1.574 . S
C1262 H1256 0.949 . S
C1262 C1266 1.368 . S
C1263 C1244 1.429 . S
C1263 C1257 1.429 . S
C1263 C1264 1.523 . S
C1264 C1245 1.368 . S
C1264 C1258 1.368 . S
C1264 C1263 1.523 . S
C1265 C1249 1.429 . S
C1265 C1261 1.429 . S
C1265 C1266 1.523 . S
C1266 C1250 1.368 . S
C1266 C1262 1.368 . S
C1266 C1265 1.523 . S
H1267 C1242 0.950 . S
H1268 C1244 0.950 . S
H1269 C1245 0.949 . S
H1270 C1247 0.950 . S
H1271 C1249 0.950 . S
C1272 C1273 1.349 . S
C1272 C1274 1.327 . S
C1272 H1297 0.950 . S
C1273 C1272 1.349 . S
C1273 C1289 1.349 . S
C1274 C1272 1.327 . S
C1274 C1293 1.429 . S
C1274 H1298 0.950 . S
C1275 C1292 1.574 . S
C1275 C1294 1.368 . S
C1275 H1299 0.949 . S
H1276 C1280 0.949 . S
C1277 C1278 1.349 . S
C1277 C1279 1.327 . S
C1277 H1300 0.950 . S
C1278 C1277 1.349 . S
C1278 C1290 1.349 . S
C1279 C1277 1.327 . S
C1279 C1295 1.429 . S
C1279 H1301 0.950 . S
C1280 H1276 0.949 . S
C1280 C1288 1.574 . S
C1280 C1296 1.368 . S
H1281 C1289 0.950 . S
H1282 C1287 0.950 . S
H1283 C1288 0.949 . S
H1284 C1290 0.950 . S
H1285 C1291 0.950 . S
H1286 C1292 0.949 . S
C1287 H1282 0.950 . S
C1287 C1289 1.327 . S
C1287 C1293 1.429 . S
C1288 C1280 1.574 . S
C1288 H1283 0.949 . S
C1288 C1294 1.368 . S
C1289 C1273 1.349 . S
C1289 H1281 0.950 . S
C1289 C1287 1.327 . S
C1290 C1278 1.349 . S
C1290 H1284 0.950 . S
C1290 C1291 1.327 . S
C1291 H1285 0.950 . S
C1291 C1290 1.327 . S
C1291 C1295 1.429 . S
C1292 C1275 1.574 . S
C1292 H1286 0.949 . S
C1292 C1296 1.368 . S
C1293 C1274 1.429 . S
C1293 C1287 1.429 . S
C1293 C1294 1.523 . S
C1294 C1275 1.368 . S
C1294 C1288 1.368 . S
C1294 C1293 1.523 . S
C1295 C1279 1.429 . S
C1295 C1291 1.429 . S
C1295 C1296 1.523 . S
C1296 C1280 1.368 . S
C1296 C1292 1.368 . S
C1296 C1295 1.523 . S
H1297 C1272 0.950 . S
H1298 C1274 0.950 . S
H1299 C1275 0.949 . S
H1300 C1277 0.950 . S
H1301 C1279 0.950 . S
C1302 C1303 1.349 . S
C1302 C1304 1.327 . S
C1302 H1327 0.950 . S
C1303 C1302 1.349 . S
C1303 C1319 1.349 . S
C1304 C1302 1.327 . S
C1304 C1323 1.429 . S
C1304 H1328 0.950 . S
C1305 C1322 1.574 . S
C1305 C1324 1.368 . S
C1305 H1329 0.949 . S
H1306 C1310 0.949 . S
C1307 C1308 1.349 . S
C1307 C1309 1.327 . S
C1307 H1330 0.950 . S
C1308 C1307 1.349 . S
C1308 C1320 1.349 . S
C1309 C1307 1.327 . S
C1309 C1325 1.429 . S
C1309 H1331 0.950 . S
C1310 H1306 0.949 . S
C1310 C1318 1.574 . S
C1310 C1326 1.368 . S
H1311 C1319 0.950 . S
H1312 C1317 0.950 . S
H1313 C1318 0.949 . S
H1314 C1320 0.950 1_545 S
H1315 C1321 0.950 . S
H1316 C1322 0.949 . S
C1317 H1312 0.950 . S
C1317 C1319 1.327 . S
C1317 C1323 1.429 . S
C1318 C1310 1.574 . S
C1318 H1313 0.949 . S
C1318 C1324 1.368 . S
C1319 C1303 1.349 . S
C1319 H1311 0.950 . S
C1319 C1317 1.327 . S
C1320 C1308 1.349 . S
C1320 H1314 0.950 1_565 S
C1320 C1321 1.327 . S
C1321 H1315 0.950 . S
C1321 C1320 1.327 . S
C1321 C1325 1.429 . S
C1322 C1305 1.574 . S
C1322 H1316 0.949 . S
C1322 C1326 1.368 . S
C1323 C1304 1.429 . S
C1323 C1317 1.429 . S
C1323 C1324 1.523 . S
C1324 C1305 1.368 . S
C1324 C1318 1.368 . S
C1324 C1323 1.523 . S
C1325 C1309 1.429 . S
C1325 C1321 1.429 . S
C1325 C1326 1.523 . S
C1326 C1310 1.368 . S
C1326 C1322 1.368 . S
C1326 C1325 1.523 . S
H1327 C1302 0.950 . S
H1328 C1304 0.950 . S
H1329 C1305 0.949 . S
H1330 C1307 0.950 . S
H1331 C1309 0.950 . S
C1332 C1333 1.349 . S
C1332 C1334 1.327 . S
C1332 H1357 0.950 . S
C1333 C1332 1.349 . S
C1333 C1349 1.349 . S
C1334 C1332 1.327 . S
C1334 C1353 1.429 . S
C1334 H1358 0.950 . S
C1335 C1352 1.574 . S
C1335 C1354 1.368 . S
C1335 H1359 0.949 . S
H1336 C1340 0.949 . S
C1337 C1338 1.349 . S
C1337 C1339 1.327 . S
C1337 H1360 0.950 . S
C1338 C1337 1.349 . S
C1338 C1350 1.349 . S
C1339 C1337 1.327 . S
C1339 C1355 1.429 . S
C1339 H1361 0.950 . S
C1340 H1336 0.949 . S
C1340 C1348 1.574 . S
C1340 C1356 1.368 . S
H1341 C1349 0.950 . S
H1342 C1347 0.950 . S
H1343 C1348 0.949 . S
H1344 C1350 0.950 . S
H1345 C1351 0.950 . S
H1346 C1352 0.949 . S
C1347 H1342 0.950 . S
C1347 C1349 1.327 . S
C1347 C1353 1.429 . S
C1348 C1340 1.574 . S
C1348 H1343 0.949 . S
C1348 C1354 1.368 . S
C1349 C1333 1.349 . S
C1349 H1341 0.950 . S
C1349 C1347 1.327 . S
C1350 C1338 1.349 . S
C1350 H1344 0.950 . S
C1350 C1351 1.327 . S
C1351 H1345 0.950 . S
C1351 C1350 1.327 . S
C1351 C1355 1.429 . S
C1352 C1335 1.574 . S
C1352 H1346 0.949 . S
C1352 C1356 1.368 . S
C1353 C1334 1.429 . S
C1353 C1347 1.429 . S
C1353 C1354 1.523 . S
C1354 C1335 1.368 . S
C1354 C1348 1.368 . S
C1354 C1353 1.523 . S
C1355 C1339 1.429 . S
C1355 C1351 1.429 . S
C1355 C1356 1.523 . S
C1356 C1340 1.368 . S
C1356 C1352 1.368 . S
C1356 C1355 1.523 . S
H1357 C1332 0.950 . S
H1358 C1334 0.950 . S
H1359 C1335 0.949 . S
H1360 C1337 0.950 . S
H1361 C1339 0.950 . S
C1362 C1363 1.349 . S
C1362 C1364 1.327 . S
C1362 H1387 0.950 . S
C1363 C1362 1.349 . S
C1363 C1379 1.349 . S
C1364 C1362 1.327 . S
C1364 C1383 1.429 . S
C1364 H1388 0.950 . S
C1365 C1382 1.574 . S
C1365 C1384 1.368 . S
C1365 H1389 0.949 . S
H1366 C1370 0.949 . S
C1367 C1368 1.349 . S
C1367 C1369 1.327 . S
C1367 H1390 0.950 . S
C1368 C1367 1.349 . S
C1368 C1380 1.349 . S
C1369 C1367 1.327 . S
C1369 C1385 1.429 . S
C1369 H1391 0.950 . S
C1370 H1366 0.949 . S
C1370 C1378 1.574 . S
C1370 C1386 1.368 . S
H1371 C1379 0.950 . S
H1372 C1377 0.950 . S
H1373 C1378 0.949 . S
H1374 C1380 0.950 . S
H1375 C1381 0.950 . S
H1376 C1382 0.949 . S
C1377 H1372 0.950 . S
C1377 C1379 1.327 . S
C1377 C1383 1.429 . S
C1378 C1370 1.574 . S
C1378 H1373 0.949 . S
C1378 C1384 1.368 . S
C1379 C1363 1.349 . S
C1379 H1371 0.950 . S
C1379 C1377 1.327 . S
C1380 C1368 1.349 . S
C1380 H1374 0.950 . S
C1380 C1381 1.327 . S
C1381 H1375 0.950 . S
C1381 C1380 1.327 . S
C1381 C1385 1.429 . S
C1382 C1365 1.574 . S
C1382 H1376 0.949 . S
C1382 C1386 1.368 . S
C1383 C1364 1.429 . S
C1383 C1377 1.429 . S
C1383 C1384 1.523 . S
C1384 C1365 1.368 . S
C1384 C1378 1.368 . S
C1384 C1383 1.523 . S
C1385 C1369 1.429 . S
C1385 C1381 1.429 . S
C1385 C1386 1.523 . S
C1386 C1370 1.368 . S
C1386 C1382 1.368 . S
C1386 C1385 1.523 . S
H1387 C1362 0.950 . S
H1388 C1364 0.950 . S
H1389 C1365 0.949 . S
H1390 C1367 0.950 . S
H1391 C1369 0.950 . S
C1392 C1393 1.349 . S
C1392 C1394 1.327 . S
C1392 H1417 0.950 1_455 S
C1393 C1392 1.349 . S
C1393 C1409 1.349 . S
C1394 C1392 1.327 . S
C1394 C1413 1.429 . S
C1394 H1418 0.950 1_455 S
C1395 C1412 1.574 . S
C1395 C1414 1.368 . S
C1395 H1419 0.949 . S
H1396 C1400 0.949 . S
C1397 C1398 1.349 . S
C1397 C1399 1.327 . S
C1397 H1420 0.950 1_556 S
C1398 C1397 1.349 . S
C1398 C1410 1.349 . S
C1399 C1397 1.327 . S
C1399 C1415 1.429 . S
C1399 H1421 0.950 . S
C1400 H1396 0.949 . S
C1400 C1408 1.574 . S
C1400 C1416 1.368 . S
H1401 C1409 0.950 . S
H1402 C1407 0.950 . S
H1403 C1408 0.949 1_655 S
H1404 C1410 0.950 . S
H1405 C1411 0.950 . S
H1406 C1412 0.949 . S
C1407 H1402 0.950 . S
C1407 C1409 1.327 . S
C1407 C1413 1.429 . S
C1408 C1400 1.574 . S
C1408 H1403 0.949 1_455 S
C1408 C1414 1.368 . S
C1409 C1393 1.349 . S
C1409 H1401 0.950 . S
C1409 C1407 1.327 . S
C1410 C1398 1.349 . S
C1410 H1404 0.950 . S
C1410 C1411 1.327 . S
C1411 H1405 0.950 . S
C1411 C1410 1.327 . S
C1411 C1415 1.429 . S
C1412 C1395 1.574 . S
C1412 H1406 0.949 . S
C1412 C1416 1.368 . S
C1413 C1394 1.429 . S
C1413 C1407 1.429 . S
C1413 C1414 1.523 . S
C1414 C1395 1.368 . S
C1414 C1408 1.368 . S
C1414 C1413 1.523 . S
C1415 C1399 1.429 . S
C1415 C1411 1.429 . S
C1415 C1416 1.523 . S
C1416 C1400 1.368 . S
C1416 C1412 1.368 . S
C1416 C1415 1.523 . S
H1417 C1392 0.950 1_655 S
H1418 C1394 0.950 1_655 S
H1419 C1395 0.949 . S
H1420 C1397 0.950 1_554 S
H1421 C1399 0.950 . S
C1422 C1423 1.349 . S
C1422 C1424 1.327 . S
C1422 H1447 0.950 . S
C1423 C1422 1.349 . S
C1423 C1439 1.349 . S
C1424 C1422 1.327 . S
C1424 C1443 1.429 . S
C1424 H1448 0.950 . S
C1425 C1442 1.574 . S
C1425 C1444 1.368 . S
C1425 H1449 0.949 . S
H1426 C1430 0.949 . S
C1427 C1428 1.349 . S
C1427 C1429 1.327 . S
C1427 H1450 0.950 . S
C1428 C1427 1.349 . S
C1428 C1440 1.349 . S
C1429 C1427 1.327 . S
C1429 C1445 1.429 . S
C1429 H1451 0.950 . S
C1430 H1426 0.949 . S
C1430 C1438 1.574 . S
C1430 C1446 1.368 . S
H1431 C1439 0.950 . S
H1432 C1437 0.950 . S
H1433 C1438 0.949 . S
H1434 C1440 0.950 . S
H1435 C1441 0.950 . S
H1436 C1442 0.949 . S
C1437 H1432 0.950 . S
C1437 C1439 1.327 . S
C1437 C1443 1.429 . S
C1438 C1430 1.574 . S
C1438 H1433 0.949 . S
C1438 C1444 1.368 . S
C1439 C1423 1.349 . S
C1439 H1431 0.950 . S
C1439 C1437 1.327 . S
C1440 C1428 1.349 . S
C1440 H1434 0.950 . S
C1440 C1441 1.327 . S
C1441 H1435 0.950 . S
C1441 C1440 1.327 . S
C1441 C1445 1.429 . S
C1442 C1425 1.574 . S
C1442 H1436 0.949 . S
C1442 C1446 1.368 . S
C1443 C1424 1.429 . S
C1443 C1437 1.429 . S
C1443 C1444 1.523 . S
C1444 C1425 1.368 . S
C1444 C1438 1.368 . S
C1444 C1443 1.523 . S
C1445 C1429 1.429 . S
C1445 C1441 1.429 . S
C1445 C1446 1.523 . S
C1446 C1430 1.368 . S
C1446 C1442 1.368 . S
C1446 C1445 1.523 . S
H1447 C1422 0.950 . S
H1448 C1424 0.950 . S
H1449 C1425 0.949 . S
H1450 C1427 0.950 . S
H1451 C1429 0.950 . S
C1452 C1453 1.349 . S
C1452 C1454 1.327 . S
C1452 H1477 0.950 . S
C1453 C1452 1.349 . S
C1453 C1469 1.349 . S
C1454 C1452 1.327 . S
C1454 C1473 1.429 . S
C1454 H1478 0.950 . S
C1455 C1472 1.574 . S
C1455 C1474 1.368 . S
C1455 H1479 0.949 . S
H1456 C1460 0.949 . S
C1457 C1458 1.349 . S
C1457 C1459 1.327 . S
C1457 H1480 0.950 . S
C1458 C1457 1.349 . S
C1458 C1470 1.349 . S
C1459 C1457 1.327 . S
C1459 C1475 1.429 . S
C1459 H1481 0.950 . S
C1460 H1456 0.949 . S
C1460 C1468 1.574 . S
C1460 C1476 1.368 . S
H1461 C1469 0.950 . S
H1462 C1467 0.950 . S
H1463 C1468 0.949 . S
H1464 C1470 0.950 . S
H1465 C1471 0.950 . S
H1466 C1472 0.949 . S
C1467 H1462 0.950 . S
C1467 C1469 1.327 . S
C1467 C1473 1.429 . S
C1468 C1460 1.574 . S
C1468 H1463 0.949 . S
C1468 C1474 1.368 . S
C1469 C1453 1.349 . S
C1469 H1461 0.950 . S
C1469 C1467 1.327 . S
C1470 C1458 1.349 . S
C1470 H1464 0.950 . S
C1470 C1471 1.327 . S
C1471 H1465 0.950 . S
C1471 C1470 1.327 . S
C1471 C1475 1.429 . S
C1472 C1455 1.574 . S
C1472 H1466 0.949 . S
C1472 C1476 1.368 . S
C1473 C1454 1.429 . S
C1473 C1467 1.429 . S
C1473 C1474 1.523 . S
C1474 C1455 1.368 . S
C1474 C1468 1.368 . S
C1474 C1473 1.523 . S
C1475 C1459 1.429 . S
C1475 C1471 1.429 . S
C1475 C1476 1.523 . S
C1476 C1460 1.368 . S
C1476 C1472 1.368 . S
C1476 C1475 1.523 . S
H1477 C1452 0.950 . S
H1478 C1454 0.950 . S
H1479 C1455 0.949 . S
H1480 C1457 0.950 . S
H1481 C1459 0.950 . S
C1482 C1483 1.349 . S
C1482 C1484 1.327 . S
C1482 H1507 0.950 . S
C1483 C1482 1.349 . S
C1483 C1499 1.349 . S
C1484 C1482 1.327 . S
C1484 C1503 1.429 . S
C1484 H1508 0.950 . S
C1485 C1502 1.574 . S
C1485 C1504 1.368 . S
C1485 H1509 0.949 . S
H1486 C1490 0.949 . S
C1487 C1488 1.349 . S
C1487 C1489 1.327 . S
C1487 H1510 0.950 . S
C1488 C1487 1.349 . S
C1488 C1500 1.349 . S
C1489 C1487 1.327 . S
C1489 C1505 1.429 . S
C1489 H1511 0.950 . S
C1490 H1486 0.949 . S
C1490 C1498 1.574 . S
C1490 C1506 1.368 . S
H1491 C1499 0.950 . S
H1492 C1497 0.950 . S
H1493 C1498 0.949 . S
H1494 C1500 0.950 . S
H1495 C1501 0.950 . S
H1496 C1502 0.949 . S
C1497 H1492 0.950 . S
C1497 C1499 1.327 . S
C1497 C1503 1.429 . S
C1498 C1490 1.574 . S
C1498 H1493 0.949 . S
C1498 C1504 1.368 . S
C1499 C1483 1.349 . S
C1499 H1491 0.950 . S
C1499 C1497 1.327 . S
C1500 C1488 1.349 . S
C1500 H1494 0.950 . S
C1500 C1501 1.327 . S
C1501 H1495 0.950 . S
C1501 C1500 1.327 . S
C1501 C1505 1.429 . S
C1502 C1485 1.574 . S
C1502 H1496 0.949 . S
C1502 C1506 1.368 . S
C1503 C1484 1.429 . S
C1503 C1497 1.429 . S
C1503 C1504 1.523 . S
C1504 C1485 1.368 . S
C1504 C1498 1.368 . S
C1504 C1503 1.523 . S
C1505 C1489 1.429 . S
C1505 C1501 1.429 . S
C1505 C1506 1.523 . S
C1506 C1490 1.368 . S
C1506 C1502 1.368 . S
C1506 C1505 1.523 . S
H1507 C1482 0.950 . S
H1508 C1484 0.950 . S
H1509 C1485 0.949 . S
H1510 C1487 0.950 . S
H1511 C1489 0.950 . S
C1512 C1513 1.349 1_655 S
C1512 C1514 1.327 . S
C1512 H1537 0.950 . S
C1513 C1512 1.349 1_455 S
C1513 C1529 1.349 . S
C1514 C1512 1.327 . S
C1514 C1533 1.429 1_655 S
C1514 H1538 0.950 . S
C1515 C1532 1.574 . S
C1515 C1534 1.368 . S
C1515 H1539 0.949 . S
H1516 C1520 0.949 . S
C1517 C1518 1.349 . S
C1517 C1519 1.327 . S
C1517 H1540 0.950 . S
C1518 C1517 1.349 . S
C1518 C1530 1.349 . S
C1519 C1517 1.327 . S
C1519 C1535 1.429 . S
C1519 H1541 0.950 . S
C1520 H1516 0.949 . S
C1520 C1528 1.574 . S
C1520 C1536 1.368 1_655 S
H1521 C1529 0.950 . S
H1522 C1527 0.950 . S
H1523 C1528 0.949 . S
H1524 C1530 0.950 1_655 S
H1525 C1531 0.948 1_655 S
H1526 C1532 0.949 . S
C1527 H1522 0.950 . S
C1527 C1529 1.327 . S
C1527 C1533 1.429 . S
C1528 C1520 1.574 . S
C1528 H1523 0.949 . S
C1528 C1534 1.368 1_655 S
C1529 C1513 1.349 . S
C1529 H1521 0.950 . S
C1529 C1527 1.327 . S
C1530 C1518 1.349 . S
C1530 H1524 0.950 1_455 S
C1530 C1531 1.327 . S
C1531 H1525 0.948 1_455 S
C1531 C1530 1.327 . S
C1531 C1535 1.430 . S
C1532 C1515 1.574 . S
C1532 H1526 0.949 . S
C1532 C1536 1.368 . S
C1533 C1514 1.429 1_455 S
C1533 C1527 1.429 . S
C1533 C1534 1.523 . S
C1534 C1515 1.368 . S
C1534 C1528 1.368 1_455 S
C1534 C1533 1.523 . S
C1535 C1519 1.429 . S
C1535 C1531 1.430 . S
C1535 C1536 1.523 . S
C1536 C1520 1.368 1_455 S
C1536 C1532 1.368 . S
C1536 C1535 1.523 . S
H1537 C1512 0.950 . S
H1538 C1514 0.950 . S
H1539 C1515 0.949 . S
H1540 C1517 0.950 . S
H1541 C1519 0.950 . S
C1542 C1543 1.349 . S
C1542 C1544 1.327 . S
C1542 H1567 0.950 . S
C1543 C1542 1.349 . S
C1543 C1559 1.349 . S
C1544 C1542 1.327 . S
C1544 C1563 1.429 . S
C1544 H1568 0.950 . S
C1545 C1562 1.574 . S
C1545 C1564 1.368 . S
C1545 H1569 0.949 . S
H1546 C1550 0.949 . S
C1547 C1548 1.349 . S
C1547 C1549 1.327 . S
C1547 H1570 0.950 . S
C1548 C1547 1.349 . S
C1548 C1560 1.349 . S
C1549 C1547 1.327 . S
C1549 C1565 1.429 . S
C1549 H1571 0.950 . S
C1550 H1546 0.949 . S
C1550 C1558 1.574 . S
C1550 C1566 1.368 . S
H1551 C1559 0.950 . S
H1552 C1557 0.950 . S
H1553 C1558 0.949 . S
H1554 C1560 0.950 . S
H1555 C1561 0.950 . S
H1556 C1562 0.949 . S
C1557 H1552 0.950 . S
C1557 C1559 1.327 . S
C1557 C1563 1.429 . S
C1558 C1550 1.574 . S
C1558 H1553 0.949 . S
C1558 C1564 1.368 . S
C1559 C1543 1.349 . S
C1559 H1551 0.950 . S
C1559 C1557 1.327 . S
C1560 C1548 1.349 . S
C1560 H1554 0.950 . S
C1560 C1561 1.327 . S
C1561 H1555 0.950 . S
C1561 C1560 1.327 . S
C1561 C1565 1.429 . S
C1562 C1545 1.574 . S
C1562 H1556 0.949 . S
C1562 C1566 1.368 . S
C1563 C1544 1.429 . S
C1563 C1557 1.429 . S
C1563 C1564 1.523 . S
C1564 C1545 1.368 . S
C1564 C1558 1.368 . S
C1564 C1563 1.523 . S
C1565 C1549 1.429 . S
C1565 C1561 1.429 . S
C1565 C1566 1.523 . S
C1566 C1550 1.368 . S
C1566 C1562 1.368 . S
C1566 C1565 1.523 . S
H1567 C1542 0.950 . S
H1568 C1544 0.950 . S
H1569 C1545 0.949 . S
H1570 C1547 0.950 . S
H1571 C1549 0.950 . S
C1572 C1573 1.349 . S
C1572 C1574 1.327 . S
C1572 H1597 0.950 . S
C1573 C1572 1.349 . S
C1573 C1589 1.349 . S
C1574 C1572 1.327 . S
C1574 C1593 1.429 . S
C1574 H1598 0.950 . S
C1575 C1592 1.574 . S
C1575 C1594 1.368 . S
C1575 H1599 0.949 . S
H1576 C1580 0.949 . S
C1577 C1578 1.349 . S
C1577 C1579 1.327 . S
C1577 H1600 0.950 . S
C1578 C1577 1.349 . S
C1578 C1590 1.349 . S
C1579 C1577 1.327 . S
C1579 C1595 1.429 . S
C1579 H1601 0.950 . S
C1580 H1576 0.949 . S
C1580 C1588 1.574 . S
C1580 C1596 1.368 . S
H1581 C1589 0.950 . S
H1582 C1587 0.950 . S
H1583 C1588 0.949 . S
H1584 C1590 0.950 . S
H1585 C1591 0.950 . S
H1586 C1592 0.949 . S
C1587 H1582 0.950 . S
C1587 C1589 1.327 . S
C1587 C1593 1.429 . S
C1588 C1580 1.574 . S
C1588 H1583 0.949 . S
C1588 C1594 1.368 . S
C1589 C1573 1.349 . S
C1589 H1581 0.950 . S
C1589 C1587 1.327 . S
C1590 C1578 1.349 . S
C1590 H1584 0.950 . S
C1590 C1591 1.327 . S
C1591 H1585 0.950 . S
C1591 C1590 1.327 . S
C1591 C1595 1.429 . S
C1592 C1575 1.574 . S
C1592 H1586 0.949 . S
C1592 C1596 1.368 . S
C1593 C1574 1.429 . S
C1593 C1587 1.429 . S
C1593 C1594 1.523 . S
C1594 C1575 1.368 . S
C1594 C1588 1.368 . S
C1594 C1593 1.523 . S
C1595 C1579 1.429 . S
C1595 C1591 1.429 . S
C1595 C1596 1.523 . S
C1596 C1580 1.368 . S
C1596 C1592 1.368 . S
C1596 C1595 1.523 . S
H1597 C1572 0.950 . S
H1598 C1574 0.950 . S
H1599 C1575 0.949 . S
H1600 C1577 0.950 . S
H1601 C1579 0.950 . S
C1602 C1603 1.349 . S
C1602 C1604 1.327 . S
C1602 H1627 0.950 . S
C1603 C1602 1.349 . S
C1603 C1619 1.349 . S
C1604 C1602 1.327 . S
C1604 C1623 1.429 . S
C1604 H1628 0.950 . S
C1605 C1622 1.574 . S
C1605 C1624 1.368 . S
C1605 H1629 0.949 . S
H1606 C1610 0.949 . S
C1607 C1608 1.349 . S
C1607 C1609 1.327 . S
C1607 H1630 0.950 . S
C1608 C1607 1.349 . S
C1608 C1620 1.349 . S
C1609 C1607 1.327 . S
C1609 C1625 1.429 . S
C1609 H1631 0.950 . S
C1610 H1606 0.949 . S
C1610 C1618 1.574 . S
C1610 C1626 1.368 . S
H1611 C1619 0.950 . S
H1612 C1617 0.950 . S
H1613 C1618 0.949 . S
H1614 C1620 0.950 . S
H1615 C1621 0.950 . S
H1616 C1622 0.949 . S
C1617 H1612 0.950 . S
C1617 C1619 1.327 . S
C1617 C1623 1.429 . S
C1618 C1610 1.574 . S
C1618 H1613 0.949 . S
C1618 C1624 1.368 . S
C1619 C1603 1.349 . S
C1619 H1611 0.950 . S
C1619 C1617 1.327 . S
C1620 C1608 1.349 . S
C1620 H1614 0.950 . S
C1620 C1621 1.327 . S
C1621 H1615 0.950 . S
C1621 C1620 1.327 . S
C1621 C1625 1.429 . S
C1622 C1605 1.574 . S
C1622 H1616 0.949 . S
C1622 C1626 1.368 . S
C1623 C1604 1.429 . S
C1623 C1617 1.429 . S
C1623 C1624 1.523 . S
C1624 C1605 1.368 . S
C1624 C1618 1.368 . S
C1624 C1623 1.523 . S
C1625 C1609 1.429 . S
C1625 C1621 1.429 . S
C1625 C1626 1.523 . S
C1626 C1610 1.368 . S
C1626 C1622 1.368 . S
C1626 C1625 1.523 . S
H1627 C1602 0.950 . S
H1628 C1604 0.950 . S
H1629 C1605 0.949 . S
H1630 C1607 0.950 . S
H1631 C1609 0.950 . S
C1632 C1633 1.349 1_565 S
C1632 C1634 1.327 . S
C1632 H1657 0.950 . S
C1633 C1632 1.349 1_545 S
C1633 C1649 1.349 . S
C1634 C1632 1.327 . S
C1634 C1653 1.429 1_565 S
C1634 H1658 0.950 . S
C1635 C1652 1.574 . S
C1635 C1654 1.368 . S
C1635 H1659 0.949 . S
H1636 C1640 0.949 . S
C1637 C1638 1.349 . S
C1637 C1639 1.327 . S
C1637 H1660 0.950 . S
C1638 C1637 1.349 . S
C1638 C1650 1.349 1_545 S
C1639 C1637 1.327 . S
C1639 C1655 1.429 . S
C1639 H1661 0.950 . S
C1640 H1636 0.949 . S
C1640 C1648 1.574 . S
C1640 C1656 1.368 1_565 S
H1641 C1649 0.950 . S
H1642 C1647 0.950 . S
H1643 C1648 0.949 . S
H1644 C1650 0.931 1_455 S
H1645 C1651 0.950 . S
H1646 C1652 0.949 . S
C1647 H1642 0.950 . S
C1647 C1649 1.327 . S
C1647 C1653 1.429 . S
C1648 C1640 1.574 . S
C1648 H1643 0.949 . S
C1648 C1654 1.368 1_565 S
C1649 C1633 1.349 . S
C1649 H1641 0.950 . S
C1649 C1647 1.327 . S
C1650 C1638 1.349 1_565 S
C1650 H1644 0.931 1_655 S
C1650 C1651 1.327 . S
C1651 H1645 0.950 . S
C1651 C1650 1.327 . S
C1651 C1655 1.429 1_565 S
C1652 C1635 1.574 . S
C1652 H1646 0.949 . S
C1652 C1656 1.368 . S
C1653 C1634 1.429 1_545 S
C1653 C1647 1.429 . S
C1653 C1654 1.523 . S
C1654 C1635 1.368 . S
C1654 C1648 1.368 1_545 S
C1654 C1653 1.523 . S
C1655 C1639 1.429 . S
C1655 C1651 1.429 1_545 S
C1655 C1656 1.523 . S
C1656 C1640 1.368 1_545 S
C1656 C1652 1.368 . S
C1656 C1655 1.523 . S
H1657 C1632 0.950 . S
H1658 C1634 0.950 . S
H1659 C1635 0.949 . S
H1660 C1637 0.950 . S
H1661 C1639 0.950 . S
C1662 C1663 1.349 . S
C1662 C1664 1.327 . S
C1662 H1687 0.950 . S
C1663 C1662 1.349 . S
C1663 C1679 1.349 . S
C1664 C1662 1.327 . S
C1664 C1683 1.429 . S
C1664 H1688 0.950 . S
C1665 C1682 1.574 . S
C1665 C1684 1.368 . S
C1665 H1689 0.949 . S
H1666 C1670 0.949 . S
C1667 C1668 1.349 . S
C1667 C1669 1.327 . S
C1667 H1690 0.950 . S
C1668 C1667 1.349 . S
C1668 C1680 1.349 . S
C1669 C1667 1.327 . S
C1669 C1685 1.429 . S
C1669 H1691 0.950 . S
C1670 H1666 0.949 . S
C1670 C1678 1.574 . S
C1670 C1686 1.368 . S
H1671 C1679 0.950 . S
H1672 C1677 0.950 . S
H1673 C1678 0.949 . S
H1674 C1680 0.950 . S
H1675 C1681 0.950 . S
H1676 C1682 0.949 . S
C1677 H1672 0.950 . S
C1677 C1679 1.327 . S
C1677 C1683 1.429 . S
C1678 C1670 1.574 . S
C1678 H1673 0.949 . S
C1678 C1684 1.368 . S
C1679 C1663 1.349 . S
C1679 H1671 0.950 . S
C1679 C1677 1.327 . S
C1680 C1668 1.349 . S
C1680 H1674 0.950 . S
C1680 C1681 1.327 . S
C1681 H1675 0.950 . S
C1681 C1680 1.327 . S
C1681 C1685 1.429 . S
C1682 C1665 1.574 . S
C1682 H1676 0.949 . S
C1682 C1686 1.368 . S
C1683 C1664 1.429 . S
C1683 C1677 1.429 . S
C1683 C1684 1.523 . S
C1684 C1665 1.368 . S
C1684 C1678 1.368 . S
C1684 C1683 1.523 . S
C1685 C1669 1.429 . S
C1685 C1681 1.429 . S
C1685 C1686 1.523 . S
C1686 C1670 1.368 . S
C1686 C1682 1.368 . S
C1686 C1685 1.523 . S
H1687 C1662 0.950 . S
H1688 C1664 0.950 . S
H1689 C1665 0.949 . S
H1690 C1667 0.950 . S
H1691 C1669 0.950 . S
C1692 C1693 1.349 . S
C1692 C1694 1.330 . S
C1692 H1717 0.950 1_545 S
C1693 C1692 1.349 . S
C1693 C1709 1.349 . S
C1694 C1692 1.330 . S
C1694 C1713 1.474 . S
C1694 H1718 0.903 1_545 S
C1695 C1712 1.574 . S
C1695 C1714 1.368 . S
C1695 H1719 0.949 . S
H1696 C1700 0.994 . S
C1697 C1698 1.349 . S
C1697 C1699 1.327 . S
C1697 H1720 0.950 . S
C1698 C1697 1.349 . S
C1698 C1710 1.349 1_545 S
C1699 C1697 1.327 . S
C1699 C1715 1.429 . S
C1699 H1721 0.950 . S
C1700 H1696 0.994 . S
C1700 C1708 1.574 . S
C1700 C1716 1.321 1_565 S
H1701 C1709 0.950 . S
H1702 C1707 0.950 . S
H1703 C1708 0.971 . S
H1704 C1710 0.950 . S
H1705 C1711 0.950 . S
H1706 C1712 0.949 . S
C1707 H1702 0.950 . S
C1707 C1709 1.327 . S
C1707 C1713 1.429 . S
C1708 C1700 1.574 . S
C1708 H1703 0.971 . S
C1708 C1714 1.344 1_565 S
C1709 C1693 1.349 . S
C1709 H1701 0.950 . S
C1709 C1707 1.327 . S
C1710 C1698 1.349 1_565 S
C1710 H1704 0.950 . S
C1710 C1711 1.327 . S
C1711 H1705 0.950 . S
C1711 C1710 1.327 . S
C1711 C1715 1.429 1_565 S
C1712 C1695 1.574 . S
C1712 H1706 0.949 . S
C1712 C1716 1.368 . S
C1713 C1694 1.474 . S
C1713 C1707 1.429 . S
C1713 C1714 1.523 . S
C1714 C1695 1.368 . S
C1714 C1708 1.344 1_545 S
C1714 C1713 1.523 . S
C1715 C1699 1.429 . S
C1715 C1711 1.429 1_545 S
C1715 C1716 1.523 . S
C1716 C1700 1.321 1_545 S
C1716 C1712 1.368 . S
C1716 C1715 1.523 . S
H1717 C1692 0.950 1_565 S
H1718 C1694 0.903 1_565 S
H1719 C1695 0.949 . S
H1720 C1697 0.950 . S
H1721 C1699 0.950 . S
C1722 C1723 1.349 . S
C1722 C1724 1.327 . S
C1722 H1747 0.950 . S
C1723 C1722 1.349 . S
C1723 C1739 1.349 . S
C1724 C1722 1.327 . S
C1724 C1743 1.429 . S
C1724 H1748 0.950 . S
C1725 C1742 1.574 . S
C1725 C1744 1.368 . S
C1725 H1749 0.949 . S
H1726 C1730 0.949 . S
C1727 C1728 1.349 . S
C1727 C1729 1.327 . S
C1727 H1750 0.950 . S
C1728 C1727 1.349 . S
C1728 C1740 1.349 . S
C1729 C1727 1.327 . S
C1729 C1745 1.429 . S
C1729 H1751 0.950 . S
C1730 H1726 0.949 . S
C1730 C1738 1.574 . S
C1730 C1746 1.368 . S
H1731 C1739 0.950 . S
H1732 C1737 0.950 . S
H1733 C1738 0.949 . S
H1734 C1740 0.950 . S
H1735 C1741 0.950 . S
H1736 C1742 0.949 . S
C1737 H1732 0.950 . S
C1737 C1739 1.327 . S
C1737 C1743 1.429 . S
C1738 C1730 1.574 . S
C1738 H1733 0.949 . S
C1738 C1744 1.368 . S
C1739 C1723 1.349 . S
C1739 H1731 0.950 . S
C1739 C1737 1.327 . S
C1740 C1728 1.349 . S
C1740 H1734 0.950 . S
C1740 C1741 1.327 . S
C1741 H1735 0.950 . S
C1741 C1740 1.327 . S
C1741 C1745 1.429 . S
C1742 C1725 1.574 . S
C1742 H1736 0.949 . S
C1742 C1746 1.368 . S
C1743 C1724 1.429 . S
C1743 C1737 1.429 . S
C1743 C1744 1.523 . S
C1744 C1725 1.368 . S
C1744 C1738 1.368 . S
C1744 C1743 1.523 . S
C1745 C1729 1.429 . S
C1745 C1741 1.429 . S
C1745 C1746 1.523 . S
C1746 C1730 1.368 . S
C1746 C1742 1.368 . S
C1746 C1745 1.523 . S
H1747 C1722 0.950 . S
H1748 C1724 0.950 . S
H1749 C1725 0.949 . S
H1750 C1727 0.950 . S
H1751 C1729 0.950 . S
C1752 C1753 1.349 . S
C1752 C1754 1.327 . S
C1752 H1777 0.950 . S
C1753 C1752 1.349 . S
C1753 C1769 1.349 1_545 S
C1754 C1752 1.327 . S
C1754 C1773 1.429 . S
C1754 H1778 0.950 . S
C1755 C1772 1.574 . S
C1755 C1774 1.368 1_565 S
C1755 H1779 0.949 . S
H1756 C1760 0.949 . S
C1757 C1758 1.347 . S
C1757 C1759 1.327 . S
C1757 H1780 0.950 . S
C1758 C1757 1.347 . S
C1758 C1770 1.351 1_565 S
C1759 C1757 1.327 . S
C1759 C1775 1.391 1_565 S
C1759 H1781 0.950 . S
C1760 H1756 0.949 . S
C1760 C1768 1.574 . S
C1760 C1776 1.368 . S
H1761 C1769 0.950 . S
H1762 C1767 0.950 . S
H1763 C1768 0.949 . S
H1764 C1770 0.950 . S
H1765 C1771 0.950 . S
H1766 C1772 0.949 . S
C1767 H1762 0.950 . S
C1767 C1769 1.327 . S
C1767 C1773 1.429 1_565 S
C1768 C1760 1.574 . S
C1768 H1763 0.949 . S
C1768 C1774 1.368 . S
C1769 C1753 1.349 1_565 S
C1769 H1761 0.950 . S
C1769 C1767 1.327 . S
C1770 C1758 1.351 1_545 S
C1770 H1764 0.950 . S
C1770 C1771 1.327 . S
C1771 H1765 0.950 . S
C1771 C1770 1.327 . S
C1771 C1775 1.466 . S
C1772 C1755 1.574 . S
C1772 H1766 0.949 . S
C1772 C1776 1.368 1_565 S
C1773 C1754 1.429 . S
C1773 C1767 1.429 1_545 S
C1773 C1774 1.523 . S
C1774 C1755 1.368 1_545 S
C1774 C1768 1.368 . S
C1774 C1773 1.523 . S
C1775 C1759 1.391 1_545 S
C1775 C1771 1.466 . S
C1775 C1776 1.526 . S
C1776 C1760 1.368 . S
C1776 C1772 1.368 1_545 S
C1776 C1775 1.526 . S
H1777 C1752 0.950 . S
H1778 C1754 0.950 . S
H1779 C1755 0.949 . S
H1780 C1757 0.950 . S
H1781 C1759 0.950 . S
C1782 C1783 1.349 . S
C1782 C1784 1.327 . S
C1782 H1807 0.950 . S
C1783 C1782 1.349 . S
C1783 C1799 1.349 . S
C1784 C1782 1.327 . S
C1784 C1803 1.429 . S
C1784 H1808 0.950 . S
C1785 C1802 1.574 . S
C1785 C1804 1.368 . S
C1785 H1809 0.949 . S
H1786 C1790 0.949 . S
C1787 C1788 1.349 . S
C1787 C1789 1.327 . S
C1787 H1810 0.950 . S
C1788 C1787 1.349 . S
C1788 C1800 1.349 . S
C1789 C1787 1.327 . S
C1789 C1805 1.429 . S
C1789 H1811 0.950 . S
C1790 H1786 0.949 . S
C1790 C1798 1.574 . S
C1790 C1806 1.368 . S
H1791 C1799 0.950 . S
H1792 C1797 0.950 . S
H1793 C1798 0.949 . S
H1794 C1800 0.950 . S
H1795 C1801 0.950 . S
H1796 C1802 0.949 . S
C1797 H1792 0.950 . S
C1797 C1799 1.327 . S
C1797 C1803 1.429 . S
C1798 C1790 1.574 . S
C1798 H1793 0.949 . S
C1798 C1804 1.368 . S
C1799 C1783 1.349 . S
C1799 H1791 0.950 . S
C1799 C1797 1.327 . S
C1800 C1788 1.349 . S
C1800 H1794 0.950 . S
C1800 C1801 1.327 . S
C1801 H1795 0.950 . S
C1801 C1800 1.327 . S
C1801 C1805 1.429 . S
C1802 C1785 1.574 . S
C1802 H1796 0.949 . S
C1802 C1806 1.368 . S
C1803 C1784 1.429 . S
C1803 C1797 1.429 . S
C1803 C1804 1.523 . S
C1804 C1785 1.368 . S
C1804 C1798 1.368 . S
C1804 C1803 1.523 . S
C1805 C1789 1.429 . S
C1805 C1801 1.429 . S
C1805 C1806 1.523 . S
C1806 C1790 1.368 . S
C1806 C1802 1.368 . S
C1806 C1805 1.523 . S
H1807 C1782 0.950 . S
H1808 C1784 0.950 . S
H1809 C1785 0.949 . S
H1810 C1787 0.950 . S
H1811 C1789 0.950 . S
C1812 C1813 1.334 1_565 S
C1812 C1814 1.322 1_565 S
C1812 H1837 0.968 . S
C1813 C1812 1.334 1_545 S
C1813 C1829 1.349 . S
C1814 C1812 1.322 1_545 S
C1814 C1833 1.451 . S
C1814 H1838 0.930 1_545 S
C1815 C1832 1.574 . S
C1815 C1834 1.368 . S
C1815 H1839 0.949 . S
H1816 C1820 0.949 1_565 S
C1817 C1818 1.349 . S
C1817 C1819 1.327 . S
C1817 H1840 0.950 . S
C1818 C1817 1.349 . S
C1818 C1830 1.349 . S
C1819 C1817 1.327 . S
C1819 C1835 1.429 . S
C1819 H1841 0.950 . S
C1820 H1816 0.949 1_545 S
C1820 C1828 1.574 . S
C1820 C1836 1.368 . S
H1821 C1829 0.950 . S
H1822 C1827 0.950 . S
H1823 C1828 0.949 1_565 S
H1824 C1830 0.950 . S
H1825 C1831 0.950 1_565 S
H1826 C1832 0.949 . S
C1827 H1822 0.950 . S
C1827 C1829 1.327 . S
C1827 C1833 1.429 . S
C1828 C1820 1.574 . S
C1828 H1823 0.949 1_545 S
C1828 C1834 1.368 . S
C1829 C1813 1.349 . S
C1829 H1821 0.950 . S
C1829 C1827 1.327 . S
C1830 C1818 1.349 . S
C1830 H1824 0.950 . S
C1830 C1831 1.327 . S
C1831 H1825 0.950 1_545 S
C1831 C1830 1.327 . S
C1831 C1835 1.429 . S
C1832 C1815 1.574 . S
C1832 H1826 0.949 . S
C1832 C1836 1.368 . S
C1833 C1814 1.451 . S
C1833 C1827 1.429 . S
C1833 C1834 1.523 . S
C1834 C1815 1.368 . S
C1834 C1828 1.368 . S
C1834 C1833 1.523 . S
C1835 C1819 1.429 . S
C1835 C1831 1.429 . S
C1835 C1836 1.523 . S
C1836 C1820 1.368 . S
C1836 C1832 1.368 . S
C1836 C1835 1.523 . S
H1837 C1812 0.968 . S
H1838 C1814 0.930 1_565 S
H1839 C1815 0.949 . S
H1840 C1817 0.950 . S
H1841 C1819 0.950 . S
C1842 C1843 1.349 . S
C1842 C1844 1.327 . S
C1842 H1867 0.950 . S
C1843 C1842 1.349 . S
C1843 C1859 1.349 . S
C1844 C1842 1.327 . S
C1844 C1863 1.429 . S
C1844 H1868 0.950 . S
C1845 C1862 1.574 . S
C1845 C1864 1.368 . S
C1845 H1869 0.949 . S
H1846 C1850 0.949 . S
C1847 C1848 1.349 . S
C1847 C1849 1.327 . S
C1847 H1870 0.950 . S
C1848 C1847 1.349 . S
C1848 C1860 1.349 . S
C1849 C1847 1.327 . S
C1849 C1865 1.429 . S
C1849 H1871 0.950 . S
C1850 H1846 0.949 . S
C1850 C1858 1.574 . S
C1850 C1866 1.368 . S
H1851 C1859 0.950 . S
H1852 C1857 0.950 . S
H1853 C1858 0.949 . S
H1854 C1860 0.950 . S
H1855 C1861 0.950 . S
H1856 C1862 0.949 . S
C1857 H1852 0.950 . S
C1857 C1859 1.327 . S
C1857 C1863 1.429 . S
C1858 C1850 1.574 . S
C1858 H1853 0.949 . S
C1858 C1864 1.368 . S
C1859 C1843 1.349 . S
C1859 H1851 0.950 . S
C1859 C1857 1.327 . S
C1860 C1848 1.349 . S
C1860 H1854 0.950 . S
C1860 C1861 1.327 . S
C1861 H1855 0.950 . S
C1861 C1860 1.327 . S
C1861 C1865 1.429 . S
C1862 C1845 1.574 . S
C1862 H1856 0.949 . S
C1862 C1866 1.368 . S
C1863 C1844 1.429 . S
C1863 C1857 1.429 . S
C1863 C1864 1.523 . S
C1864 C1845 1.368 . S
C1864 C1858 1.368 . S
C1864 C1863 1.523 . S
C1865 C1849 1.429 . S
C1865 C1861 1.429 . S
C1865 C1866 1.523 . S
C1866 C1850 1.368 . S
C1866 C1862 1.368 . S
C1866 C1865 1.523 . S
H1867 C1842 0.950 . S
H1868 C1844 0.950 . S
H1869 C1845 0.949 . S
H1870 C1847 0.950 . S
H1871 C1849 0.950 . S
C1872 C1873 1.349 1_556 S
C1872 C1874 1.327 . S
C1872 H1897 0.950 . S
C1873 C1872 1.349 1_554 S
C1873 C1889 1.349 . S
C1874 C1872 1.327 . S
C1874 C1893 1.429 1_556 S
C1874 H1898 0.950 . S
C1875 C1892 1.574 . S
C1875 C1894 1.368 . S
C1875 H1899 0.949 . S
H1876 C1880 0.949 1_556 S
C1877 C1878 1.349 . S
C1877 C1879 1.327 . S
C1877 H1900 0.950 . S
C1878 C1877 1.349 . S
C1878 C1890 1.349 . S
C1879 C1877 1.327 . S
C1879 C1895 1.429 . S
C1879 H1901 0.950 . S
C1880 H1876 0.949 1_554 S
C1880 C1888 1.574 . S
C1880 C1896 1.368 . S
H1881 C1889 0.950 . S
H1882 C1887 0.950 . S
H1883 C1888 0.946 1_556 S
H1884 C1890 0.951 1_556 S
H1885 C1891 0.950 1_556 S
H1886 C1892 0.949 . S
C1887 H1882 0.950 . S
C1887 C1889 1.327 . S
C1887 C1893 1.429 . S
C1888 C1880 1.574 . S
C1888 H1883 0.946 1_554 S
C1888 C1894 1.371 . S
C1889 C1873 1.349 . S
C1889 H1881 0.950 . S
C1889 C1887 1.327 . S
C1890 C1878 1.349 . S
C1890 H1884 0.951 1_554 S
C1890 C1891 1.327 . S
C1891 H1885 0.950 1_554 S
C1891 C1890 1.327 . S
C1891 C1895 1.429 . S
C1892 C1875 1.574 . S
C1892 H1886 0.949 . S
C1892 C1896 1.368 . S
C1893 C1874 1.429 1_554 S
C1893 C1887 1.429 . S
C1893 C1894 1.523 . S
C1894 C1875 1.368 . S
C1894 C1888 1.371 . S
C1894 C1893 1.523 . S
C1895 C1879 1.429 . S
C1895 C1891 1.429 . S
C1895 C1896 1.523 . S
C1896 C1880 1.368 . S
C1896 C1892 1.368 . S
C1896 C1895 1.523 . S
H1897 C1872 0.950 . S
H1898 C1874 0.950 . S
H1899 C1875 0.949 . S
H1900 C1877 0.950 . S
H1901 C1879 0.950 . S
C1902 C1903 1.349 . S
C1902 C1904 1.327 . S
C1902 H1927 0.950 . S
C1903 C1902 1.349 . S
C1903 C1919 1.349 1_554 S
C1904 C1902 1.327 . S
C1904 C1923 1.429 . S
C1904 H1928 0.950 . S
C1905 C1922 1.574 . S
C1905 C1924 1.368 1_556 S
C1905 H1929 0.949 . S
H1906 C1910 0.949 . S
C1907 C1908 1.349 1_556 S
C1907 C1909 1.327 . S
C1907 H1930 0.950 . S
C1908 C1907 1.349 1_554 S
C1908 C1920 1.349 . S
C1909 C1907 1.327 . S
C1909 C1925 1.429 1_556 S
C1909 H1931 0.950 . S
C1910 H1906 0.949 . S
C1910 C1918 1.574 . S
C1910 C1926 1.368 . S
H1911 C1919 0.950 . S
H1912 C1917 0.950 . S
H1913 C1918 0.949 . S
H1914 C1920 0.950 . S
H1915 C1921 0.950 . S
H1916 C1922 0.949 . S
C1917 H1912 0.950 . S
C1917 C1919 1.327 . S
C1917 C1923 1.429 1_556 S
C1918 C1910 1.574 . S
C1918 H1913 0.949 . S
C1918 C1924 1.368 . S
C1919 C1903 1.349 1_556 S
C1919 H1911 0.950 . S
C1919 C1917 1.327 . S
C1920 C1908 1.349 . S
C1920 H1914 0.950 . S
C1920 C1921 1.327 . S
C1921 H1915 0.950 . S
C1921 C1920 1.327 . S
C1921 C1925 1.429 . S
C1922 C1905 1.574 . S
C1922 H1916 0.949 . S
C1922 C1926 1.368 1_556 S
C1923 C1904 1.429 . S
C1923 C1917 1.429 1_554 S
C1923 C1924 1.523 . S
C1924 C1905 1.368 1_554 S
C1924 C1918 1.368 . S
C1924 C1923 1.523 . S
C1925 C1909 1.429 1_554 S
C1925 C1921 1.429 . S
C1925 C1926 1.523 . S
C1926 C1910 1.368 . S
C1926 C1922 1.368 1_554 S
C1926 C1925 1.523 . S
H1927 C1902 0.950 . S
H1928 C1904 0.950 . S
H1929 C1905 0.949 . S
H1930 C1907 0.950 . S
H1931 C1909 0.950 . S
C1932 C1933 1.349 . S
C1932 C1934 1.327 . S
C1932 H1957 0.950 . S
C1933 C1932 1.349 . S
C1933 C1949 1.349 . S
C1934 C1932 1.327 . S
C1934 C1953 1.429 . S
C1934 H1958 0.950 . S
C1935 C1952 1.574 . S
C1935 C1954 1.368 . S
C1935 H1959 0.949 . S
H1936 C1940 0.949 . S
C1937 C1938 1.349 . S
C1937 C1939 1.327 . S
C1937 H1960 0.950 . S
C1938 C1937 1.349 . S
C1938 C1950 1.349 . S
C1939 C1937 1.327 . S
C1939 C1955 1.429 . S
C1939 H1961 0.950 . S
C1940 H1936 0.949 . S
C1940 C1948 1.574 . S
C1940 C1956 1.368 . S
H1941 C1949 0.950 . S
H1942 C1947 0.950 . S
H1943 C1948 0.949 . S
H1944 C1950 0.950 . S
H1945 C1951 0.950 . S
H1946 C1952 0.949 . S
C1947 H1942 0.950 . S
C1947 C1949 1.327 . S
C1947 C1953 1.429 . S
C1948 C1940 1.574 . S
C1948 H1943 0.949 . S
C1948 C1954 1.368 . S
C1949 C1933 1.349 . S
C1949 H1941 0.950 . S
C1949 C1947 1.327 . S
C1950 C1938 1.349 . S
C1950 H1944 0.950 . S
C1950 C1951 1.327 . S
C1951 H1945 0.950 . S
C1951 C1950 1.327 . S
C1951 C1955 1.429 . S
C1952 C1935 1.574 . S
C1952 H1946 0.949 . S
C1952 C1956 1.368 . S
C1953 C1934 1.429 . S
C1953 C1947 1.429 . S
C1953 C1954 1.523 . S
C1954 C1935 1.368 . S
C1954 C1948 1.368 . S
C1954 C1953 1.523 . S
C1955 C1939 1.429 . S
C1955 C1951 1.429 . S
C1955 C1956 1.523 . S
C1956 C1940 1.368 . S
C1956 C1952 1.368 . S
C1956 C1955 1.523 . S
H1957 C1932 0.950 . S
H1958 C1934 0.950 . S
H1959 C1935 0.949 . S
H1960 C1937 0.950 . S
H1961 C1939 0.950 . S
C1962 C1963 1.349 . S
C1962 C1964 1.327 . S
C1962 H1987 0.950 . S
C1963 C1962 1.349 . S
C1963 C1979 1.349 . S
C1964 C1962 1.327 . S
C1964 C1983 1.429 . S
C1964 H1988 0.950 . S
C1965 C1982 1.574 . S
C1965 C1984 1.368 . S
C1965 H1989 0.949 . S
H1966 C1970 0.949 . S
C1967 C1968 1.349 . S
C1967 C1969 1.327 . S
C1967 H1990 0.950 . S
C1968 C1967 1.349 . S
C1968 C1980 1.349 . S
C1969 C1967 1.327 . S
C1969 C1985 1.429 . S
C1969 H1991 0.950 . S
C1970 H1966 0.949 . S
C1970 C1978 1.574 . S
C1970 C1986 1.368 . S
H1971 C1979 0.950 . S
H1972 C1977 0.950 . S
H1973 C1978 0.949 . S
H1974 C1980 0.950 . S
H1975 C1981 0.950 . S
H1976 C1982 0.949 . S
C1977 H1972 0.950 . S
C1977 C1979 1.327 . S
C1977 C1983 1.429 . S
C1978 C1970 1.574 . S
C1978 H1973 0.949 . S
C1978 C1984 1.368 . S
C1979 C1963 1.349 . S
C1979 H1971 0.950 . S
C1979 C1977 1.327 . S
C1980 C1968 1.349 . S
C1980 H1974 0.950 . S
C1980 C1981 1.327 . S
C1981 H1975 0.950 . S
C1981 C1980 1.327 . S
C1981 C1985 1.429 . S
C1982 C1965 1.574 . S
C1982 H1976 0.949 . S
C1982 C1986 1.368 . S
C1983 C1964 1.429 . S
C1983 C1977 1.429 . S
C1983 C1984 1.523 . S
C1984 C1965 1.368 . S
C1984 C1978 1.368 . S
C1984 C1983 1.523 . S
C1985 C1969 1.429 . S
C1985 C1981 1.429 . S
C1985 C1986 1.523 . S
C1986 C1970 1.368 . S
C1986 C1982 1.368 . S
C1986 C1985 1.523 . S
H1987 C1962 0.950 . S
H1988 C1964 0.950 . S
H1989 C1965 0.949 . S
H1990 C1967 0.950 . S
H1991 C1969 0.950 . S
C1992 C1993 1.349 . S
C1992 C1994 1.327 . S
C1992 H2017 0.950 . S
C1993 C1992 1.349 . S
C1993 C2009 1.349 . S
C1994 C1992 1.327 . S
C1994 C2013 1.429 . S
C1994 H2018 0.950 . S
C1995 C2012 1.574 . S
C1995 C2014 1.368 . S
C1995 H2019 0.949 . S
H1996 C2000 0.949 . S
C1997 C1998 1.349 . S
C1997 C1999 1.327 . S
C1997 H2020 0.950 . S
C1998 C1997 1.349 . S
C1998 C2010 1.349 . S
C1999 C1997 1.327 . S
C1999 C2015 1.429 . S
C1999 H2021 0.950 . S
C2000 H1996 0.949 . S
C2000 C2008 1.574 . S
C2000 C2016 1.368 . S
H2001 C2009 0.950 . S
H2002 C2007 0.950 . S
H2003 C2008 0.949 . S
H2004 C2010 0.950 . S
H2005 C2011 0.950 . S
H2006 C2012 0.949 . S
C2007 H2002 0.950 . S
C2007 C2009 1.327 . S
C2007 C2013 1.429 . S
C2008 C2000 1.574 . S
C2008 H2003 0.949 . S
C2008 C2014 1.368 . S
C2009 C1993 1.349 . S
C2009 H2001 0.950 . S
C2009 C2007 1.327 . S
C2010 C1998 1.349 . S
C2010 H2004 0.950 . S
C2010 C2011 1.327 . S
C2011 H2005 0.950 . S
C2011 C2010 1.327 . S
C2011 C2015 1.429 . S
C2012 C1995 1.574 . S
C2012 H2006 0.949 . S
C2012 C2016 1.368 . S
C2013 C1994 1.429 . S
C2013 C2007 1.429 . S
C2013 C2014 1.523 . S
C2014 C1995 1.368 . S
C2014 C2008 1.368 . S
C2014 C2013 1.523 . S
C2015 C1999 1.429 . S
C2015 C2011 1.429 . S
C2015 C2016 1.523 . S
C2016 C2000 1.368 . S
C2016 C2012 1.368 . S
C2016 C2015 1.523 . S
H2017 C1992 0.950 . S
H2018 C1994 0.950 . S
H2019 C1995 0.949 . S
H2020 C1997 0.950 . S
H2021 C1999 0.950 . S
C2022 C2023 1.349 . S
C2022 C2024 1.327 . S
C2022 H2047 0.950 . S
C2023 C2022 1.349 . S
C2023 C2039 1.349 . S
C2024 C2022 1.327 . S
C2024 C2043 1.429 . S
C2024 H2048 0.950 . S
C2025 C2042 1.574 . S
C2025 C2044 1.368 . S
C2025 H2049 0.949 . S
H2026 C2030 0.949 . S
C2027 C2028 1.349 . S
C2027 C2029 1.327 . S
C2027 H2050 0.950 . S
C2028 C2027 1.349 . S
C2028 C2040 1.349 . S
C2029 C2027 1.327 . S
C2029 C2045 1.429 . S
C2029 H2051 0.950 . S
C2030 H2026 0.949 . S
C2030 C2038 1.574 . S
C2030 C2046 1.368 . S
H2031 C2039 0.950 . S
H2032 C2037 0.950 . S
H2033 C2038 0.949 . S
H2034 C2040 0.950 . S
H2035 C2041 0.950 . S
H2036 C2042 0.949 . S
C2037 H2032 0.950 . S
C2037 C2039 1.327 . S
C2037 C2043 1.429 . S
C2038 C2030 1.574 . S
C2038 H2033 0.949 . S
C2038 C2044 1.368 . S
C2039 C2023 1.349 . S
C2039 H2031 0.950 . S
C2039 C2037 1.327 . S
C2040 C2028 1.349 . S
C2040 H2034 0.950 . S
C2040 C2041 1.327 . S
C2041 H2035 0.950 . S
C2041 C2040 1.327 . S
C2041 C2045 1.429 . S
C2042 C2025 1.574 . S
C2042 H2036 0.949 . S
C2042 C2046 1.368 . S
C2043 C2024 1.429 . S
C2043 C2037 1.429 . S
C2043 C2044 1.523 . S
C2044 C2025 1.368 . S
C2044 C2038 1.368 . S
C2044 C2043 1.523 . S
C2045 C2029 1.429 . S
C2045 C2041 1.429 . S
C2045 C2046 1.523 . S
C2046 C2030 1.368 . S
C2046 C2042 1.368 . S
C2046 C2045 1.523 . S
H2047 C2022 0.950 . S
H2048 C2024 0.950 . S
H2049 C2025 0.949 . S
H2050 C2027 0.950 . S
H2051 C2029 0.950 . S
C2052 C2053 1.349 . S
C2052 C2054 1.327 . S
C2052 H2077 0.950 . S
C2053 C2052 1.349 . S
C2053 C2069 1.349 . S
C2054 C2052 1.327 . S
C2054 C2073 1.429 . S
C2054 H2078 0.950 . S
C2055 C2072 1.574 . S
C2055 C2074 1.368 . S
C2055 H2079 0.949 . S
H2056 C2060 0.949 . S
C2057 C2058 1.349 . S
C2057 C2059 1.327 . S
C2057 H2080 0.950 . S
C2058 C2057 1.349 . S
C2058 C2070 1.349 . S
C2059 C2057 1.327 . S
C2059 C2075 1.429 . S
C2059 H2081 0.950 . S
C2060 H2056 0.949 . S
C2060 C2068 1.574 . S
C2060 C2076 1.368 . S
H2061 C2069 0.950 . S
H2062 C2067 0.950 . S
H2063 C2068 0.949 . S
H2064 C2070 0.950 . S
H2065 C2071 0.950 . S
H2066 C2072 0.949 . S
C2067 H2062 0.950 . S
C2067 C2069 1.327 . S
C2067 C2073 1.429 . S
C2068 C2060 1.574 . S
C2068 H2063 0.949 . S
C2068 C2074 1.368 . S
C2069 C2053 1.349 . S
C2069 H2061 0.950 . S
C2069 C2067 1.327 . S
C2070 C2058 1.349 . S
C2070 H2064 0.950 . S
C2070 C2071 1.327 . S
C2071 H2065 0.950 . S
C2071 C2070 1.327 . S
C2071 C2075 1.429 . S
C2072 C2055 1.574 . S
C2072 H2066 0.949 . S
C2072 C2076 1.368 . S
C2073 C2054 1.429 . S
C2073 C2067 1.429 . S
C2073 C2074 1.523 . S
C2074 C2055 1.368 . S
C2074 C2068 1.368 . S
C2074 C2073 1.523 . S
C2075 C2059 1.429 . S
C2075 C2071 1.429 . S
C2075 C2076 1.523 . S
C2076 C2060 1.368 . S
C2076 C2072 1.368 . S
C2076 C2075 1.523 . S
H2077 C2052 0.950 . S
H2078 C2054 0.950 . S
H2079 C2055 0.949 . S
H2080 C2057 0.950 . S
H2081 C2059 0.950 . S
C2082 C2083 1.349 . S
C2082 C2084 1.327 . S
C2082 H2107 0.950 . S
C2083 C2082 1.349 . S
C2083 C2099 1.349 . S
C2084 C2082 1.327 . S
C2084 C2103 1.429 . S
C2084 H2108 0.950 . S
C2085 C2102 1.574 . S
C2085 C2104 1.368 . S
C2085 H2109 0.949 . S
H2086 C2090 0.949 . S
C2087 C2088 1.349 . S
C2087 C2089 1.327 . S
C2087 H2110 0.950 . S
C2088 C2087 1.349 . S
C2088 C2100 1.349 . S
C2089 C2087 1.327 . S
C2089 C2105 1.429 . S
C2089 H2111 0.950 . S
C2090 H2086 0.949 . S
C2090 C2098 1.574 . S
C2090 C2106 1.368 . S
H2091 C2099 0.950 . S
H2092 C2097 0.950 . S
H2093 C2098 0.949 . S
H2094 C2100 0.950 . S
H2095 C2101 0.950 . S
H2096 C2102 0.949 . S
C2097 H2092 0.950 . S
C2097 C2099 1.327 . S
C2097 C2103 1.429 . S
C2098 C2090 1.574 . S
C2098 H2093 0.949 . S
C2098 C2104 1.368 . S
C2099 C2083 1.349 . S
C2099 H2091 0.950 . S
C2099 C2097 1.327 . S
C2100 C2088 1.349 . S
C2100 H2094 0.950 . S
C2100 C2101 1.327 . S
C2101 H2095 0.950 . S
C2101 C2100 1.327 . S
C2101 C2105 1.429 . S
C2102 C2085 1.574 . S
C2102 H2096 0.949 . S
C2102 C2106 1.368 . S
C2103 C2084 1.429 . S
C2103 C2097 1.429 . S
C2103 C2104 1.523 . S
C2104 C2085 1.368 . S
C2104 C2098 1.368 . S
C2104 C2103 1.523 . S
C2105 C2089 1.429 . S
C2105 C2101 1.429 . S
C2105 C2106 1.523 . S
C2106 C2090 1.368 . S
C2106 C2102 1.368 . S
C2106 C2105 1.523 . S
H2107 C2082 0.950 . S
H2108 C2084 0.950 . S
H2109 C2085 0.949 . S
H2110 C2087 0.950 . S
H2111 C2089 0.950 . S
C2112 C2113 1.349 . S
C2112 C2114 1.327 . S
C2112 H2137 0.950 . S
C2113 C2112 1.349 . S
C2113 C2129 1.349 . S
C2114 C2112 1.327 . S
C2114 C2133 1.429 . S
C2114 H2138 0.950 . S
C2115 C2132 1.574 . S
C2115 C2134 1.368 . S
C2115 H2139 0.949 . S
H2116 C2120 0.949 . S
C2117 C2118 1.349 . S
C2117 C2119 1.327 . S
C2117 H2140 0.950 . S
C2118 C2117 1.349 . S
C2118 C2130 1.349 . S
C2119 C2117 1.327 . S
C2119 C2135 1.429 . S
C2119 H2141 0.950 . S
C2120 H2116 0.949 . S
C2120 C2128 1.574 . S
C2120 C2136 1.368 . S
H2121 C2129 0.950 . S
H2122 C2127 0.950 . S
H2123 C2128 0.949 . S
H2124 C2130 0.950 . S
H2125 C2131 0.950 . S
H2126 C2132 0.949 . S
C2127 H2122 0.950 . S
C2127 C2129 1.327 . S
C2127 C2133 1.429 . S
C2128 C2120 1.574 . S
C2128 H2123 0.949 . S
C2128 C2134 1.368 . S
C2129 C2113 1.349 . S
C2129 H2121 0.950 . S
C2129 C2127 1.327 . S
C2130 C2118 1.349 . S
C2130 H2124 0.950 . S
C2130 C2131 1.327 . S
C2131 H2125 0.950 . S
C2131 C2130 1.327 . S
C2131 C2135 1.429 . S
C2132 C2115 1.574 . S
C2132 H2126 0.949 . S
C2132 C2136 1.368 . S
C2133 C2114 1.429 . S
C2133 C2127 1.429 . S
C2133 C2134 1.523 . S
C2134 C2115 1.368 . S
C2134 C2128 1.368 . S
C2134 C2133 1.523 . S
C2135 C2119 1.429 . S
C2135 C2131 1.429 . S
C2135 C2136 1.523 . S
C2136 C2120 1.368 . S
C2136 C2132 1.368 . S
C2136 C2135 1.523 . S
H2137 C2112 0.950 . S
H2138 C2114 0.950 . S
H2139 C2115 0.949 . S
H2140 C2117 0.950 . S
H2141 C2119 0.950 . S
C2142 C2143 1.349 . S
C2142 C2144 1.327 . S
C2142 H2167 0.950 . S
C2143 C2142 1.349 . S
C2143 C2159 1.349 . S
C2144 C2142 1.327 . S
C2144 C2163 1.429 . S
C2144 H2168 0.950 . S
C2145 C2162 1.574 . S
C2145 C2164 1.368 . S
C2145 H2169 0.949 . S
H2146 C2150 0.949 . S
C2147 C2148 1.349 . S
C2147 C2149 1.327 . S
C2147 H2170 0.950 . S
C2148 C2147 1.349 . S
C2148 C2160 1.349 . S
C2149 C2147 1.327 . S
C2149 C2165 1.429 . S
C2149 H2171 0.950 . S
C2150 H2146 0.949 . S
C2150 C2158 1.574 . S
C2150 C2166 1.368 . S
H2151 C2159 0.950 . S
H2152 C2157 0.950 . S
H2153 C2158 0.949 . S
H2154 C2160 0.950 . S
H2155 C2161 0.950 . S
H2156 C2162 0.949 . S
C2157 H2152 0.950 . S
C2157 C2159 1.327 . S
C2157 C2163 1.429 . S
C2158 C2150 1.574 . S
C2158 H2153 0.949 . S
C2158 C2164 1.368 . S
C2159 C2143 1.349 . S
C2159 H2151 0.950 . S
C2159 C2157 1.327 . S
C2160 C2148 1.349 . S
C2160 H2154 0.950 . S
C2160 C2161 1.327 . S
C2161 H2155 0.950 . S
C2161 C2160 1.327 . S
C2161 C2165 1.429 . S
C2162 C2145 1.574 . S
C2162 H2156 0.949 . S
C2162 C2166 1.368 . S
C2163 C2144 1.429 . S
C2163 C2157 1.429 . S
C2163 C2164 1.523 . S
C2164 C2145 1.368 . S
C2164 C2158 1.368 . S
C2164 C2163 1.523 . S
C2165 C2149 1.429 . S
C2165 C2161 1.429 . S
C2165 C2166 1.523 . S
C2166 C2150 1.368 . S
C2166 C2162 1.368 . S
C2166 C2165 1.523 . S
H2167 C2142 0.950 . S
H2168 C2144 0.950 . S
H2169 C2145 0.949 . S
H2170 C2147 0.950 . S
H2171 C2149 0.950 . S
C2172 C2173 1.349 . S
C2172 C2174 1.327 . S
C2172 H2197 0.950 1_455 S
C2173 C2172 1.349 . S
C2173 C2189 1.349 . S
C2174 C2172 1.327 . S
C2174 C2193 1.429 . S
C2174 H2198 0.950 1_455 S
C2175 C2192 1.574 . S
C2175 C2194 1.368 . S
C2175 H2199 0.949 . S
H2176 C2180 0.949 1_655 S
C2177 C2178 1.349 . S
C2177 C2179 1.327 . S
C2177 H2200 0.950 . S
C2178 C2177 1.349 . S
C2178 C2190 1.349 . S
C2179 C2177 1.327 . S
C2179 C2195 1.429 . S
C2179 H2201 0.950 . S
C2180 H2176 0.949 1_455 S
C2180 C2188 1.574 . S
C2180 C2196 1.368 . S
H2181 C2189 0.950 . S
H2182 C2187 0.950 . S
H2183 C2188 0.949 1_655 S
H2184 C2190 0.950 1_655 S
H2185 C2191 0.950 1_655 S
H2186 C2192 0.949 . S
C2187 H2182 0.950 . S
C2187 C2189 1.327 . S
C2187 C2193 1.429 . S
C2188 C2180 1.574 . S
C2188 H2183 0.949 1_455 S
C2188 C2194 1.368 . S
C2189 C2173 1.349 . S
C2189 H2181 0.950 . S
C2189 C2187 1.327 . S
C2190 C2178 1.349 . S
C2190 H2184 0.950 1_455 S
C2190 C2191 1.327 . S
C2191 H2185 0.950 1_455 S
C2191 C2190 1.327 . S
C2191 C2195 1.429 . S
C2192 C2175 1.574 . S
C2192 H2186 0.949 . S
C2192 C2196 1.368 . S
C2193 C2174 1.429 . S
C2193 C2187 1.429 . S
C2193 C2194 1.523 . S
C2194 C2175 1.368 . S
C2194 C2188 1.368 . S
C2194 C2193 1.523 . S
C2195 C2179 1.429 . S
C2195 C2191 1.429 . S
C2195 C2196 1.523 . S
C2196 C2180 1.368 . S
C2196 C2192 1.368 . S
C2196 C2195 1.523 . S
H2197 C2172 0.950 1_655 S
H2198 C2174 0.950 1_655 S
H2199 C2175 0.949 . S
H2200 C2177 0.950 . S
H2201 C2179 0.950 . S
C2202 C2203 1.349 . S
C2202 C2204 1.327 . S
C2202 H2227 0.950 . S
C2203 C2202 1.349 . S
C2203 C2219 1.349 . S
C2204 C2202 1.327 . S
C2204 C2223 1.429 . S
C2204 H2228 0.950 . S
C2205 C2222 1.574 . S
C2205 C2224 1.368 . S
C2205 H2229 0.949 . S
H2206 C2210 0.949 . S
C2207 C2208 1.349 . S
C2207 C2209 1.327 . S
C2207 H2230 0.950 . S
C2208 C2207 1.349 . S
C2208 C2220 1.349 . S
C2209 C2207 1.327 . S
C2209 C2225 1.429 . S
C2209 H2231 0.950 . S
C2210 H2206 0.949 . S
C2210 C2218 1.574 . S
C2210 C2226 1.368 . S
H2211 C2219 0.950 . S
H2212 C2217 0.950 . S
H2213 C2218 0.949 . S
H2214 C2220 0.950 . S
H2215 C2221 0.950 . S
H2216 C2222 0.949 . S
C2217 H2212 0.950 . S
C2217 C2219 1.327 . S
C2217 C2223 1.429 . S
C2218 C2210 1.574 . S
C2218 H2213 0.949 . S
C2218 C2224 1.368 . S
C2219 C2203 1.349 . S
C2219 H2211 0.950 . S
C2219 C2217 1.327 . S
C2220 C2208 1.349 . S
C2220 H2214 0.950 . S
C2220 C2221 1.327 . S
C2221 H2215 0.950 . S
C2221 C2220 1.327 . S
C2221 C2225 1.429 . S
C2222 C2205 1.574 . S
C2222 H2216 0.949 . S
C2222 C2226 1.368 . S
C2223 C2204 1.429 . S
C2223 C2217 1.429 . S
C2223 C2224 1.523 . S
C2224 C2205 1.368 . S
C2224 C2218 1.368 . S
C2224 C2223 1.523 . S
C2225 C2209 1.429 . S
C2225 C2221 1.429 . S
C2225 C2226 1.523 . S
C2226 C2210 1.368 . S
C2226 C2222 1.368 . S
C2226 C2225 1.523 . S
H2227 C2202 0.950 . S
H2228 C2204 0.950 . S
H2229 C2205 0.949 . S
H2230 C2207 0.950 . S
H2231 C2209 0.950 . S
C2232 C2233 1.349 . S
C2232 C2234 1.327 . S
C2232 H2257 0.950 . S
C2233 C2232 1.349 . S
C2233 C2249 1.349 . S
C2234 C2232 1.327 . S
C2234 C2253 1.429 . S
C2234 H2258 0.950 . S
C2235 C2252 1.574 . S
C2235 C2254 1.368 . S
C2235 H2259 0.949 . S
H2236 C2240 0.949 . S
C2237 C2238 1.349 . S
C2237 C2239 1.327 . S
C2237 H2260 0.950 1_556 S
C2238 C2237 1.349 . S
C2238 C2250 1.349 . S
C2239 C2237 1.327 . S
C2239 C2255 1.429 . S
C2239 H2261 0.950 . S
C2240 H2236 0.949 . S
C2240 C2248 1.574 . S
C2240 C2256 1.368 . S
H2241 C2249 0.950 . S
H2242 C2247 0.950 . S
H2243 C2248 0.949 . S
H2244 C2250 0.950 . S
H2245 C2251 0.950 . S
H2246 C2252 0.949 . S
C2247 H2242 0.950 . S
C2247 C2249 1.327 . S
C2247 C2253 1.429 . S
C2248 C2240 1.574 . S
C2248 H2243 0.949 . S
C2248 C2254 1.368 . S
C2249 C2233 1.349 . S
C2249 H2241 0.950 . S
C2249 C2247 1.327 . S
C2250 C2238 1.349 . S
C2250 H2244 0.950 . S
C2250 C2251 1.327 . S
C2251 H2245 0.950 . S
C2251 C2250 1.327 . S
C2251 C2255 1.429 . S
C2252 C2235 1.574 . S
C2252 H2246 0.949 . S
C2252 C2256 1.368 . S
C2253 C2234 1.429 . S
C2253 C2247 1.429 . S
C2253 C2254 1.523 . S
C2254 C2235 1.368 . S
C2254 C2248 1.368 . S
C2254 C2253 1.523 . S
C2255 C2239 1.429 . S
C2255 C2251 1.429 . S
C2255 C2256 1.523 . S
C2256 C2240 1.368 . S
C2256 C2252 1.368 . S
C2256 C2255 1.523 . S
H2257 C2232 0.950 . S
H2258 C2234 0.950 . S
H2259 C2235 0.949 . S
H2260 C2237 0.950 1_554 S
H2261 C2239 0.950 . S
C2262 C2263 1.349 . S
C2262 C2264 1.327 . S
C2262 H2287 0.950 . S
C2263 C2262 1.349 . S
C2263 C2279 1.349 . S
C2264 C2262 1.327 . S
C2264 C2283 1.429 . S
C2264 H2288 0.950 . S
C2265 C2282 1.574 . S
C2265 C2284 1.368 . S
C2265 H2289 0.949 . S
H2266 C2270 0.949 . S
C2267 C2268 1.349 . S
C2267 C2269 1.327 . S
C2267 H2290 0.950 . S
C2268 C2267 1.349 . S
C2268 C2280 1.349 . S
C2269 C2267 1.327 . S
C2269 C2285 1.429 . S
C2269 H2291 0.950 . S
C2270 H2266 0.949 . S
C2270 C2278 1.574 . S
C2270 C2286 1.368 . S
H2271 C2279 0.950 . S
H2272 C2277 0.950 . S
H2273 C2278 0.949 . S
H2274 C2280 0.950 . S
H2275 C2281 0.950 . S
H2276 C2282 0.949 . S
C2277 H2272 0.950 . S
C2277 C2279 1.327 . S
C2277 C2283 1.429 . S
C2278 C2270 1.574 . S
C2278 H2273 0.949 . S
C2278 C2284 1.368 . S
C2279 C2263 1.349 . S
C2279 H2271 0.950 . S
C2279 C2277 1.327 . S
C2280 C2268 1.349 . S
C2280 H2274 0.950 . S
C2280 C2281 1.327 . S
C2281 H2275 0.950 . S
C2281 C2280 1.327 . S
C2281 C2285 1.429 . S
C2282 C2265 1.574 . S
C2282 H2276 0.949 . S
C2282 C2286 1.368 . S
C2283 C2264 1.429 . S
C2283 C2277 1.429 . S
C2283 C2284 1.523 . S
C2284 C2265 1.368 . S
C2284 C2278 1.368 . S
C2284 C2283 1.523 . S
C2285 C2269 1.429 . S
C2285 C2281 1.429 . S
C2285 C2286 1.523 . S
C2286 C2270 1.368 . S
C2286 C2282 1.368 . S
C2286 C2285 1.523 . S
H2287 C2262 0.950 . S
H2288 C2264 0.950 . S
H2289 C2265 0.949 . S
H2290 C2267 0.950 . S
H2291 C2269 0.950 . S
C2292 C2293 1.349 1_655 S
C2292 C2294 1.332 . S
C2292 H2317 0.950 . S
C2293 C2292 1.349 1_455 S
C2293 C2309 1.349 . S
C2294 C2292 1.332 . S
C2294 C2313 1.407 1_655 S
C2294 H2318 0.968 . S
C2295 C2312 1.574 . S
C2295 C2314 1.368 . S
C2295 H2319 0.949 . S
H2296 C2300 0.949 1_655 S
C2297 C2298 1.349 . S
C2297 C2299 1.327 . S
C2297 H2320 0.950 . S
C2298 C2297 1.349 . S
C2298 C2310 1.349 . S
C2299 C2297 1.327 . S
C2299 C2315 1.429 . S
C2299 H2321 0.950 . S
C2300 H2296 0.949 1_455 S
C2300 C2308 1.574 . S
C2300 C2316 1.368 . S
H2301 C2309 0.950 . S
H2302 C2307 0.950 . S
H2303 C2308 0.949 1_655 S
H2304 C2310 0.950 . S
H2305 C2311 0.952 . S
H2306 C2312 0.949 . S
C2307 H2302 0.950 . S
C2307 C2309 1.327 . S
C2307 C2313 1.429 . S
C2308 C2300 1.574 . S
C2308 H2303 0.949 1_455 S
C2308 C2314 1.368 . S
C2309 C2293 1.349 . S
C2309 H2301 0.950 . S
C2309 C2307 1.327 . S
C2310 C2298 1.349 . S
C2310 H2304 0.950 . S
C2310 C2311 1.327 . S
C2311 H2305 0.952 . S
C2311 C2310 1.327 . S
C2311 C2315 1.429 . S
C2312 C2295 1.574 . S
C2312 H2306 0.949 . S
C2312 C2316 1.368 . S
C2313 C2294 1.407 1_455 S
C2313 C2307 1.429 . S
C2313 C2314 1.523 . S
C2314 C2295 1.368 . S
C2314 C2308 1.368 . S
C2314 C2313 1.523 . S
C2315 C2299 1.429 . S
C2315 C2311 1.429 . S
C2315 C2316 1.523 . S
C2316 C2300 1.368 . S
C2316 C2312 1.368 . S
C2316 C2315 1.523 . S
H2317 C2292 0.950 . S
H2318 C2294 0.968 . S
H2319 C2295 0.949 . S
H2320 C2297 0.950 . S
H2321 C2299 0.950 . S
C2322 C2323 1.349 . S
C2322 C2324 1.327 . S
C2322 H2347 0.950 . S
C2323 C2322 1.349 . S
C2323 C2339 1.349 . S
C2324 C2322 1.327 . S
C2324 C2343 1.429 . S
C2324 H2348 0.950 . S
C2325 C2342 1.574 . S
C2325 C2344 1.368 . S
C2325 H2349 0.949 . S
H2326 C2330 0.949 . S
C2327 C2328 1.349 . S
C2327 C2329 1.327 . S
C2327 H2350 0.950 . S
C2328 C2327 1.349 . S
C2328 C2340 1.349 . S
C2329 C2327 1.327 . S
C2329 C2345 1.429 . S
C2329 H2351 0.950 . S
C2330 H2326 0.949 . S
C2330 C2338 1.574 . S
C2330 C2346 1.368 . S
H2331 C2339 0.950 . S
H2332 C2337 0.950 . S
H2333 C2338 0.949 . S
H2334 C2340 0.950 . S
H2335 C2341 0.950 . S
H2336 C2342 0.949 . S
C2337 H2332 0.950 . S
C2337 C2339 1.327 . S
C2337 C2343 1.429 . S
C2338 C2330 1.574 . S
C2338 H2333 0.949 . S
C2338 C2344 1.368 . S
C2339 C2323 1.349 . S
C2339 H2331 0.950 . S
C2339 C2337 1.327 . S
C2340 C2328 1.349 . S
C2340 H2334 0.950 . S
C2340 C2341 1.327 . S
C2341 H2335 0.950 . S
C2341 C2340 1.327 . S
C2341 C2345 1.429 . S
C2342 C2325 1.574 . S
C2342 H2336 0.949 . S
C2342 C2346 1.368 . S
C2343 C2324 1.429 . S
C2343 C2337 1.429 . S
C2343 C2344 1.523 . S
C2344 C2325 1.368 . S
C2344 C2338 1.368 . S
C2344 C2343 1.523 . S
C2345 C2329 1.429 . S
C2345 C2341 1.429 . S
C2345 C2346 1.523 . S
C2346 C2330 1.368 . S
C2346 C2342 1.368 . S
C2346 C2345 1.523 . S
H2347 C2322 0.950 . S
H2348 C2324 0.950 . S
H2349 C2325 0.949 . S
H2350 C2327 0.950 . S
H2351 C2329 0.950 . S
C2352 C2353 1.349 . S
C2352 C2354 1.327 . S
C2352 H2377 0.950 . S
C2353 C2352 1.349 . S
C2353 C2369 1.349 . S
C2354 C2352 1.327 . S
C2354 C2373 1.429 . S
C2354 H2378 0.950 . S
C2355 C2372 1.574 . S
C2355 C2374 1.368 . S
C2355 H2379 0.949 . S
H2356 C2360 0.949 . S
C2357 C2358 1.349 . S
C2357 C2359 1.327 . S
C2357 H2380 0.950 . S
C2358 C2357 1.349 . S
C2358 C2370 1.349 . S
C2359 C2357 1.327 . S
C2359 C2375 1.429 . S
C2359 H2381 0.950 . S
C2360 H2356 0.949 . S
C2360 C2368 1.574 . S
C2360 C2376 1.368 . S
H2361 C2369 0.950 . S
H2362 C2367 0.950 . S
H2363 C2368 0.949 . S
H2364 C2370 0.950 . S
H2365 C2371 0.950 . S
H2366 C2372 0.949 . S
C2367 H2362 0.950 . S
C2367 C2369 1.327 . S
C2367 C2373 1.429 . S
C2368 C2360 1.574 . S
C2368 H2363 0.949 . S
C2368 C2374 1.368 . S
C2369 C2353 1.349 . S
C2369 H2361 0.950 . S
C2369 C2367 1.327 . S
C2370 C2358 1.349 . S
C2370 H2364 0.950 . S
C2370 C2371 1.327 . S
C2371 H2365 0.950 . S
C2371 C2370 1.327 . S
C2371 C2375 1.429 . S
C2372 C2355 1.574 . S
C2372 H2366 0.949 . S
C2372 C2376 1.368 . S
C2373 C2354 1.429 . S
C2373 C2367 1.429 . S
C2373 C2374 1.523 . S
C2374 C2355 1.368 . S
C2374 C2368 1.368 . S
C2374 C2373 1.523 . S
C2375 C2359 1.429 . S
C2375 C2371 1.429 . S
C2375 C2376 1.523 . S
C2376 C2360 1.368 . S
C2376 C2372 1.368 . S
C2376 C2375 1.523 . S
H2377 C2352 0.950 . S
H2378 C2354 0.950 . S
H2379 C2355 0.949 . S
H2380 C2357 0.950 . S
H2381 C2359 0.950 . S
C2382 C2383 1.349 . S
C2382 C2384 1.327 . S
C2382 H2407 0.950 . S
C2383 C2382 1.349 . S
C2383 C2399 1.349 . S
C2384 C2382 1.327 . S
C2384 C2403 1.429 . S
C2384 H2408 0.950 . S
C2385 C2402 1.574 . S
C2385 C2404 1.368 . S
C2385 H2409 0.949 . S
H2386 C2390 0.949 . S
C2387 C2388 1.349 . S
C2387 C2389 1.327 . S
C2387 H2410 0.950 . S
C2388 C2387 1.349 . S
C2388 C2400 1.349 . S
C2389 C2387 1.327 . S
C2389 C2405 1.429 . S
C2389 H2411 0.950 . S
C2390 H2386 0.949 . S
C2390 C2398 1.574 . S
C2390 C2406 1.368 . S
H2391 C2399 0.950 . S
H2392 C2397 0.950 . S
H2393 C2398 0.949 . S
H2394 C2400 0.950 . S
H2395 C2401 0.950 . S
H2396 C2402 0.949 . S
C2397 H2392 0.950 . S
C2397 C2399 1.327 . S
C2397 C2403 1.429 . S
C2398 C2390 1.574 . S
C2398 H2393 0.949 . S
C2398 C2404 1.368 . S
C2399 C2383 1.349 . S
C2399 H2391 0.950 . S
C2399 C2397 1.327 . S
C2400 C2388 1.349 . S
C2400 H2394 0.950 . S
C2400 C2401 1.327 . S
C2401 H2395 0.950 . S
C2401 C2400 1.327 . S
C2401 C2405 1.429 . S
C2402 C2385 1.574 . S
C2402 H2396 0.949 . S
C2402 C2406 1.368 . S
C2403 C2384 1.429 . S
C2403 C2397 1.429 . S
C2403 C2404 1.523 . S
C2404 C2385 1.368 . S
C2404 C2398 1.368 . S
C2404 C2403 1.523 . S
C2405 C2389 1.429 . S
C2405 C2401 1.429 . S
C2405 C2406 1.523 . S
C2406 C2390 1.368 . S
C2406 C2402 1.368 . S
C2406 C2405 1.523 . S
H2407 C2382 0.950 . S
H2408 C2384 0.950 . S
H2409 C2385 0.949 . S
H2410 C2387 0.950 . S
H2411 C2389 0.950 . S
C2412 C2413 1.349 . S
C2412 C2414 1.327 . S
C2412 H2437 0.950 . S
C2413 C2412 1.349 . S
C2413 C2429 1.349 . S
C2414 C2412 1.327 . S
C2414 C2433 1.429 . S
C2414 H2438 0.950 . S
C2415 C2432 1.574 . S
C2415 C2434 1.368 . S
C2415 H2439 0.949 . S
H2416 C2420 0.949 . S
C2417 C2418 1.349 . S
C2417 C2419 1.327 . S
C2417 H2440 0.950 . S
C2418 C2417 1.349 . S
C2418 C2430 1.349 . S
C2419 C2417 1.327 . S
C2419 C2435 1.429 . S
C2419 H2441 0.950 . S
C2420 H2416 0.949 . S
C2420 C2428 1.574 . S
C2420 C2436 1.368 . S
H2421 C2429 0.950 . S
H2422 C2427 0.950 . S
H2423 C2428 0.949 . S
H2424 C2430 0.950 . S
H2425 C2431 0.950 . S
H2426 C2432 0.949 . S
C2427 H2422 0.950 . S
C2427 C2429 1.327 . S
C2427 C2433 1.429 . S
C2428 C2420 1.574 . S
C2428 H2423 0.949 . S
C2428 C2434 1.368 . S
C2429 C2413 1.349 . S
C2429 H2421 0.950 . S
C2429 C2427 1.327 . S
C2430 C2418 1.349 . S
C2430 H2424 0.950 . S
C2430 C2431 1.327 . S
C2431 H2425 0.950 . S
C2431 C2430 1.327 . S
C2431 C2435 1.429 . S
C2432 C2415 1.574 . S
C2432 H2426 0.949 . S
C2432 C2436 1.368 . S
C2433 C2414 1.429 . S
C2433 C2427 1.429 . S
C2433 C2434 1.523 . S
C2434 C2415 1.368 . S
C2434 C2428 1.368 . S
C2434 C2433 1.523 . S
C2435 C2419 1.429 . S
C2435 C2431 1.429 . S
C2435 C2436 1.523 . S
C2436 C2420 1.368 . S
C2436 C2432 1.368 . S
C2436 C2435 1.523 . S
H2437 C2412 0.950 . S
H2438 C2414 0.950 . S
H2439 C2415 0.949 . S
H2440 C2417 0.950 . S
H2441 C2419 0.950 . S
C2442 C2443 1.349 . S
C2442 C2444 1.327 . S
C2442 H2467 0.950 . S
C2443 C2442 1.349 . S
C2443 C2459 1.349 . S
C2444 C2442 1.327 . S
C2444 C2463 1.429 . S
C2444 H2468 0.950 . S
C2445 C2462 1.574 . S
C2445 C2464 1.368 . S
C2445 H2469 0.949 . S
H2446 C2450 0.949 . S
C2447 C2448 1.349 . S
C2447 C2449 1.327 . S
C2447 H2470 0.950 . S
C2448 C2447 1.349 . S
C2448 C2460 1.349 . S
C2449 C2447 1.327 . S
C2449 C2465 1.429 . S
C2449 H2471 0.950 . S
C2450 H2446 0.949 . S
C2450 C2458 1.574 . S
C2450 C2466 1.368 . S
H2451 C2459 0.950 . S
H2452 C2457 0.950 . S
H2453 C2458 0.949 . S
H2454 C2460 0.950 . S
H2455 C2461 0.950 . S
H2456 C2462 0.949 . S
C2457 H2452 0.950 . S
C2457 C2459 1.327 . S
C2457 C2463 1.429 . S
C2458 C2450 1.574 . S
C2458 H2453 0.949 . S
C2458 C2464 1.368 . S
C2459 C2443 1.349 . S
C2459 H2451 0.950 . S
C2459 C2457 1.327 . S
C2460 C2448 1.349 . S
C2460 H2454 0.950 . S
C2460 C2461 1.327 . S
C2461 H2455 0.950 . S
C2461 C2460 1.327 . S
C2461 C2465 1.429 . S
C2462 C2445 1.574 . S
C2462 H2456 0.949 . S
C2462 C2466 1.368 . S
C2463 C2444 1.429 . S
C2463 C2457 1.429 . S
C2463 C2464 1.523 . S
C2464 C2445 1.368 . S
C2464 C2458 1.368 . S
C2464 C2463 1.523 . S
C2465 C2449 1.429 . S
C2465 C2461 1.429 . S
C2465 C2466 1.523 . S
C2466 C2450 1.368 . S
C2466 C2462 1.368 . S
C2466 C2465 1.523 . S
H2467 C2442 0.950 . S
H2468 C2444 0.950 . S
H2469 C2445 0.949 . S
H2470 C2447 0.950 . S
H2471 C2449 0.950 . S
C2472 C2473 1.349 . S
C2472 C2474 1.327 . S
C2472 H2497 0.950 . S
C2473 C2472 1.349 . S
C2473 C2489 1.349 . S
C2474 C2472 1.327 . S
C2474 C2493 1.429 . S
C2474 H2498 0.950 . S
C2475 C2492 1.574 . S
C2475 C2494 1.368 . S
C2475 H2499 0.949 . S
H2476 C2480 0.949 . S
C2477 C2478 1.349 . S
C2477 C2479 1.327 . S
C2477 H2500 0.950 . S
C2478 C2477 1.349 . S
C2478 C2490 1.349 . S
C2479 C2477 1.327 . S
C2479 C2495 1.429 . S
C2479 H2501 0.950 . S
C2480 H2476 0.949 . S
C2480 C2488 1.574 . S
C2480 C2496 1.368 . S
H2481 C2489 0.950 . S
H2482 C2487 0.950 . S
H2483 C2488 0.949 . S
H2484 C2490 0.950 . S
H2485 C2491 0.950 . S
H2486 C2492 0.949 . S
C2487 H2482 0.950 . S
C2487 C2489 1.327 . S
C2487 C2493 1.429 . S
C2488 C2480 1.574 . S
C2488 H2483 0.949 . S
C2488 C2494 1.368 . S
C2489 C2473 1.349 . S
C2489 H2481 0.950 . S
C2489 C2487 1.327 . S
C2490 C2478 1.349 . S
C2490 H2484 0.950 . S
C2490 C2491 1.327 . S
C2491 H2485 0.950 . S
C2491 C2490 1.327 . S
C2491 C2495 1.429 . S
C2492 C2475 1.574 . S
C2492 H2486 0.949 . S
C2492 C2496 1.368 . S
C2493 C2474 1.429 . S
C2493 C2487 1.429 . S
C2493 C2494 1.523 . S
C2494 C2475 1.368 . S
C2494 C2488 1.368 . S
C2494 C2493 1.523 . S
C2495 C2479 1.429 . S
C2495 C2491 1.429 . S
C2495 C2496 1.523 . S
C2496 C2480 1.368 . S
C2496 C2492 1.368 . S
C2496 C2495 1.523 . S
H2497 C2472 0.950 . S
H2498 C2474 0.950 . S
H2499 C2475 0.949 . S
H2500 C2477 0.950 . S
H2501 C2479 0.950 . S
C2502 C2503 1.349 . S
C2502 C2504 1.327 . S
C2502 H2527 0.950 . S
C2503 C2502 1.349 . S
C2503 C2519 1.349 . S
C2504 C2502 1.327 . S
C2504 C2523 1.429 . S
C2504 H2528 0.950 . S
C2505 C2522 1.574 . S
C2505 C2524 1.368 . S
C2505 H2529 0.949 . S
H2506 C2510 0.949 . S
C2507 C2508 1.349 . S
C2507 C2509 1.327 . S
C2507 H2530 0.950 . S
C2508 C2507 1.349 . S
C2508 C2520 1.349 . S
C2509 C2507 1.327 . S
C2509 C2525 1.429 . S
C2509 H2531 0.950 . S
C2510 H2506 0.949 . S
C2510 C2518 1.574 . S
C2510 C2526 1.368 . S
H2511 C2519 0.950 . S
H2512 C2517 0.950 . S
H2513 C2518 0.949 . S
H2514 C2520 0.950 . S
H2515 C2521 0.950 . S
H2516 C2522 0.949 . S
C2517 H2512 0.950 . S
C2517 C2519 1.327 . S
C2517 C2523 1.429 . S
C2518 C2510 1.574 . S
C2518 H2513 0.949 . S
C2518 C2524 1.368 . S
C2519 C2503 1.349 . S
C2519 H2511 0.950 . S
C2519 C2517 1.327 . S
C2520 C2508 1.349 . S
C2520 H2514 0.950 . S
C2520 C2521 1.327 . S
C2521 H2515 0.950 . S
C2521 C2520 1.327 . S
C2521 C2525 1.429 . S
C2522 C2505 1.574 . S
C2522 H2516 0.949 . S
C2522 C2526 1.368 . S
C2523 C2504 1.429 . S
C2523 C2517 1.429 . S
C2523 C2524 1.523 . S
C2524 C2505 1.368 . S
C2524 C2518 1.368 . S
C2524 C2523 1.523 . S
C2525 C2509 1.429 . S
C2525 C2521 1.429 . S
C2525 C2526 1.523 . S
C2526 C2510 1.368 . S
C2526 C2522 1.368 . S
C2526 C2525 1.523 . S
H2527 C2502 0.950 . S
H2528 C2504 0.950 . S
H2529 C2505 0.949 . S
H2530 C2507 0.950 . S
H2531 C2509 0.950 . S
C2532 C2533 1.349 . S
C2532 C2534 1.327 . S
C2532 H2557 0.950 . S
C2533 C2532 1.349 . S
C2533 C2549 1.349 . S
C2534 C2532 1.327 . S
C2534 C2553 1.429 . S
C2534 H2558 0.950 . S
C2535 C2552 1.574 . S
C2535 C2554 1.368 . S
C2535 H2559 0.949 . S
H2536 C2540 0.949 . S
C2537 C2538 1.349 . S
C2537 C2539 1.327 . S
C2537 H2560 0.950 . S
C2538 C2537 1.349 . S
C2538 C2550 1.349 . S
C2539 C2537 1.327 . S
C2539 C2555 1.429 . S
C2539 H2561 0.950 . S
C2540 H2536 0.949 . S
C2540 C2548 1.574 . S
C2540 C2556 1.368 . S
H2541 C2549 0.950 . S
H2542 C2547 0.950 . S
H2543 C2548 0.949 . S
H2544 C2550 0.950 . S
H2545 C2551 0.950 . S
H2546 C2552 0.949 . S
C2547 H2542 0.950 . S
C2547 C2549 1.327 . S
C2547 C2553 1.429 . S
C2548 C2540 1.574 . S
C2548 H2543 0.949 . S
C2548 C2554 1.368 . S
C2549 C2533 1.349 . S
C2549 H2541 0.950 . S
C2549 C2547 1.327 . S
C2550 C2538 1.349 . S
C2550 H2544 0.950 . S
C2550 C2551 1.327 . S
C2551 H2545 0.950 . S
C2551 C2550 1.327 . S
C2551 C2555 1.429 . S
C2552 C2535 1.574 . S
C2552 H2546 0.949 . S
C2552 C2556 1.368 . S
C2553 C2534 1.429 . S
C2553 C2547 1.429 . S
C2553 C2554 1.523 . S
C2554 C2535 1.368 . S
C2554 C2548 1.368 . S
C2554 C2553 1.523 . S
C2555 C2539 1.429 . S
C2555 C2551 1.429 . S
C2555 C2556 1.523 . S
C2556 C2540 1.368 . S
C2556 C2552 1.368 . S
C2556 C2555 1.523 . S
H2557 C2532 0.950 . S
H2558 C2534 0.950 . S
H2559 C2535 0.949 . S
H2560 C2537 0.950 . S
H2561 C2539 0.950 . S
C2562 C2563 1.349 . S
C2562 C2564 1.327 . S
C2562 H2587 0.950 . S
C2563 C2562 1.349 . S
C2563 C2579 1.349 . S
C2564 C2562 1.327 . S
C2564 C2583 1.429 . S
C2564 H2588 0.950 . S
C2565 C2582 1.574 . S
C2565 C2584 1.368 . S
C2565 H2589 0.949 . S
H2566 C2570 0.949 . S
C2567 C2568 1.349 . S
C2567 C2569 1.327 . S
C2567 H2590 0.950 . S
C2568 C2567 1.349 . S
C2568 C2580 1.349 . S
C2569 C2567 1.327 . S
C2569 C2585 1.429 . S
C2569 H2591 0.950 . S
C2570 H2566 0.949 . S
C2570 C2578 1.574 . S
C2570 C2586 1.368 . S
H2571 C2579 0.950 . S
H2572 C2577 0.950 . S
H2573 C2578 0.949 . S
H2574 C2580 0.950 . S
H2575 C2581 0.950 . S
H2576 C2582 0.949 . S
C2577 H2572 0.950 . S
C2577 C2579 1.327 . S
C2577 C2583 1.429 . S
C2578 C2570 1.574 . S
C2578 H2573 0.949 . S
C2578 C2584 1.368 . S
C2579 C2563 1.349 . S
C2579 H2571 0.950 . S
C2579 C2577 1.327 . S
C2580 C2568 1.349 . S
C2580 H2574 0.950 . S
C2580 C2581 1.327 . S
C2581 H2575 0.950 . S
C2581 C2580 1.327 . S
C2581 C2585 1.429 . S
C2582 C2565 1.574 . S
C2582 H2576 0.949 . S
C2582 C2586 1.368 . S
C2583 C2564 1.429 . S
C2583 C2577 1.429 . S
C2583 C2584 1.523 . S
C2584 C2565 1.368 . S
C2584 C2578 1.368 . S
C2584 C2583 1.523 . S
C2585 C2569 1.429 . S
C2585 C2581 1.429 . S
C2585 C2586 1.523 . S
C2586 C2570 1.368 . S
C2586 C2582 1.368 . S
C2586 C2585 1.523 . S
H2587 C2562 0.950 . S
H2588 C2564 0.950 . S
H2589 C2565 0.949 . S
H2590 C2567 0.950 . S
H2591 C2569 0.950 . S
C2592 C2593 1.349 . S
C2592 C2594 1.327 . S
C2592 H2617 0.950 . S
C2593 C2592 1.349 . S
C2593 C2609 1.349 . S
C2594 C2592 1.327 . S
C2594 C2613 1.429 . S
C2594 H2618 0.950 . S
C2595 C2612 1.574 . S
C2595 C2614 1.368 . S
C2595 H2619 0.949 . S
H2596 C2600 0.949 . S
C2597 C2598 1.349 . S
C2597 C2599 1.327 . S
C2597 H2620 0.950 . S
C2598 C2597 1.349 . S
C2598 C2610 1.349 . S
C2599 C2597 1.327 . S
C2599 C2615 1.429 . S
C2599 H2621 0.950 . S
C2600 H2596 0.949 . S
C2600 C2608 1.574 . S
C2600 C2616 1.368 . S
H2601 C2609 0.950 . S
H2602 C2607 0.950 . S
H2603 C2608 0.949 . S
H2604 C2610 0.950 . S
H2605 C2611 0.950 . S
H2606 C2612 0.949 . S
C2607 H2602 0.950 . S
C2607 C2609 1.327 . S
C2607 C2613 1.429 . S
C2608 C2600 1.574 . S
C2608 H2603 0.949 . S
C2608 C2614 1.368 . S
C2609 C2593 1.349 . S
C2609 H2601 0.950 . S
C2609 C2607 1.327 . S
C2610 C2598 1.349 . S
C2610 H2604 0.950 . S
C2610 C2611 1.327 . S
C2611 H2605 0.950 . S
C2611 C2610 1.327 . S
C2611 C2615 1.429 . S
C2612 C2595 1.574 . S
C2612 H2606 0.949 . S
C2612 C2616 1.368 . S
C2613 C2594 1.429 . S
C2613 C2607 1.429 . S
C2613 C2614 1.523 . S
C2614 C2595 1.368 . S
C2614 C2608 1.368 . S
C2614 C2613 1.523 . S
C2615 C2599 1.429 . S
C2615 C2611 1.429 . S
C2615 C2616 1.523 . S
C2616 C2600 1.368 . S
C2616 C2612 1.368 . S
C2616 C2615 1.523 . S
H2617 C2592 0.950 . S
H2618 C2594 0.950 . S
H2619 C2595 0.949 . S
H2620 C2597 0.950 . S
H2621 C2599 0.950 . S
C2622 C2623 1.349 . S
C2622 C2624 1.327 . S
C2622 H2647 0.950 . S
C2623 C2622 1.349 . S
C2623 C2639 1.349 . S
C2624 C2622 1.327 . S
C2624 C2643 1.429 . S
C2624 H2648 0.950 . S
C2625 C2642 1.574 . S
C2625 C2644 1.368 . S
C2625 H2649 0.949 . S
H2626 C2630 0.949 . S
C2627 C2628 1.349 . S
C2627 C2629 1.327 . S
C2627 H2650 0.950 . S
C2628 C2627 1.349 . S
C2628 C2640 1.349 . S
C2629 C2627 1.327 . S
C2629 C2645 1.429 . S
C2629 H2651 0.950 . S
C2630 H2626 0.949 . S
C2630 C2638 1.574 . S
C2630 C2646 1.368 . S
H2631 C2639 0.950 . S
H2632 C2637 0.950 . S
H2633 C2638 0.949 . S
H2634 C2640 0.950 . S
H2635 C2641 0.950 . S
H2636 C2642 0.949 . S
C2637 H2632 0.950 . S
C2637 C2639 1.327 . S
C2637 C2643 1.429 . S
C2638 C2630 1.574 . S
C2638 H2633 0.949 . S
C2638 C2644 1.368 . S
C2639 C2623 1.349 . S
C2639 H2631 0.950 . S
C2639 C2637 1.327 . S
C2640 C2628 1.349 . S
C2640 H2634 0.950 . S
C2640 C2641 1.327 . S
C2641 H2635 0.950 . S
C2641 C2640 1.327 . S
C2641 C2645 1.429 . S
C2642 C2625 1.574 . S
C2642 H2636 0.949 . S
C2642 C2646 1.368 . S
C2643 C2624 1.429 . S
C2643 C2637 1.429 . S
C2643 C2644 1.523 . S
C2644 C2625 1.368 . S
C2644 C2638 1.368 . S
C2644 C2643 1.523 . S
C2645 C2629 1.429 . S
C2645 C2641 1.429 . S
C2645 C2646 1.523 . S
C2646 C2630 1.368 . S
C2646 C2642 1.368 . S
C2646 C2645 1.523 . S
H2647 C2622 0.950 . S
H2648 C2624 0.950 . S
H2649 C2625 0.949 . S
H2650 C2627 0.950 . S
H2651 C2629 0.950 . S
C2652 C2653 1.349 . S
C2652 C2654 1.327 . S
C2652 H2677 0.950 . S
C2653 C2652 1.349 . S
C2653 C2669 1.349 . S
C2654 C2652 1.327 . S
C2654 C2673 1.429 . S
C2654 H2678 0.950 . S
C2655 C2672 1.574 . S
C2655 C2674 1.368 . S
C2655 H2679 0.949 . S
H2656 C2660 0.949 . S
C2657 C2658 1.349 . S
C2657 C2659 1.327 . S
C2657 H2680 0.950 . S
C2658 C2657 1.349 . S
C2658 C2670 1.349 . S
C2659 C2657 1.327 . S
C2659 C2675 1.429 . S
C2659 H2681 0.950 . S
C2660 H2656 0.949 . S
C2660 C2668 1.574 . S
C2660 C2676 1.368 . S
H2661 C2669 0.950 . S
H2662 C2667 0.950 . S
H2663 C2668 0.949 . S
H2664 C2670 0.950 . S
H2665 C2671 0.950 . S
H2666 C2672 0.949 . S
C2667 H2662 0.950 . S
C2667 C2669 1.327 . S
C2667 C2673 1.429 . S
C2668 C2660 1.574 . S
C2668 H2663 0.949 . S
C2668 C2674 1.368 . S
C2669 C2653 1.349 . S
C2669 H2661 0.950 . S
C2669 C2667 1.327 . S
C2670 C2658 1.349 . S
C2670 H2664 0.950 . S
C2670 C2671 1.327 . S
C2671 H2665 0.950 . S
C2671 C2670 1.327 . S
C2671 C2675 1.429 . S
C2672 C2655 1.574 . S
C2672 H2666 0.949 . S
C2672 C2676 1.368 . S
C2673 C2654 1.429 . S
C2673 C2667 1.429 . S
C2673 C2674 1.523 . S
C2674 C2655 1.368 . S
C2674 C2668 1.368 . S
C2674 C2673 1.523 . S
C2675 C2659 1.429 . S
C2675 C2671 1.429 . S
C2675 C2676 1.523 . S
C2676 C2660 1.368 . S
C2676 C2672 1.368 . S
C2676 C2675 1.523 . S
H2677 C2652 0.950 . S
H2678 C2654 0.950 . S
H2679 C2655 0.949 . S
H2680 C2657 0.950 . S
H2681 C2659 0.950 . S
C2682 C2683 1.349 1_556 S
C2682 C2684 1.327 . S
C2682 H2707 0.950 . S
C2683 C2682 1.349 1_554 S
C2683 C2699 1.349 . S
C2684 C2682 1.327 . S
C2684 C2703 1.429 1_556 S
C2684 H2708 0.950 . S
C2685 C2702 1.574 . S
C2685 C2704 1.368 . S
C2685 H2709 0.949 . S
H2686 C2690 0.943 1_556 S
C2687 C2688 1.349 . S
C2687 C2689 1.327 . S
C2687 H2710 0.950 . S
C2688 C2687 1.349 . S
C2688 C2700 1.349 . S
C2689 C2687 1.327 . S
C2689 C2705 1.429 . S
C2689 H2711 0.950 . S
C2690 H2686 0.943 1_554 S
C2690 C2698 1.573 1_554 S
C2690 C2706 1.375 . S
H2691 C2699 0.950 . S
H2692 C2697 0.950 . S
H2693 C2698 0.949 . S
H2694 C2700 0.950 1_556 S
H2695 C2701 0.950 1_556 S
H2696 C2702 0.949 . S
C2697 H2692 0.950 . S
C2697 C2699 1.327 . S
C2697 C2703 1.429 . S
C2698 C2690 1.573 1_556 S
C2698 H2693 0.949 . S
C2698 C2704 1.368 1_556 S
C2699 C2683 1.349 . S
C2699 H2691 0.950 . S
C2699 C2697 1.327 . S
C2700 C2688 1.349 . S
C2700 H2694 0.950 1_554 S
C2700 C2701 1.327 . S
C2701 H2695 0.950 1_554 S
C2701 C2700 1.327 . S
C2701 C2705 1.429 . S
C2702 C2685 1.574 . S
C2702 H2696 0.949 . S
C2702 C2706 1.368 . S
C2703 C2684 1.429 1_554 S
C2703 C2697 1.429 . S
C2703 C2704 1.523 . S
C2704 C2685 1.368 . S
C2704 C2698 1.368 1_554 S
C2704 C2703 1.523 . S
C2705 C2689 1.429 . S
C2705 C2701 1.429 . S
C2705 C2706 1.523 . S
C2706 C2690 1.375 . S
C2706 C2702 1.368 . S
C2706 C2705 1.523 . S
H2707 C2682 0.950 . S
H2708 C2684 0.950 . S
H2709 C2685 0.949 . S
H2710 C2687 0.950 . S
H2711 C2689 0.950 . S
C2712 C2713 1.349 . S
C2712 C2714 1.327 . S
C2712 H2737 0.950 . S
C2713 C2712 1.349 . S
C2713 C2729 1.349 . S
C2714 C2712 1.327 . S
C2714 C2733 1.429 . S
C2714 H2738 0.950 . S
C2715 C2732 1.574 . S
C2715 C2734 1.368 . S
C2715 H2739 0.949 . S
H2716 C2720 0.949 . S
C2717 C2718 1.349 . S
C2717 C2719 1.327 . S
C2717 H2740 0.950 . S
C2718 C2717 1.349 . S
C2718 C2730 1.349 . S
C2719 C2717 1.327 . S
C2719 C2735 1.429 . S
C2719 H2741 0.950 . S
C2720 H2716 0.949 . S
C2720 C2728 1.574 . S
C2720 C2736 1.368 . S
H2721 C2729 0.950 . S
H2722 C2727 0.950 . S
H2723 C2728 0.949 . S
H2724 C2730 0.950 . S
H2725 C2731 0.950 . S
H2726 C2732 0.949 . S
C2727 H2722 0.950 . S
C2727 C2729 1.327 . S
C2727 C2733 1.429 . S
C2728 C2720 1.574 . S
C2728 H2723 0.949 . S
C2728 C2734 1.368 . S
C2729 C2713 1.349 . S
C2729 H2721 0.950 . S
C2729 C2727 1.327 . S
C2730 C2718 1.349 . S
C2730 H2724 0.950 . S
C2730 C2731 1.327 . S
C2731 H2725 0.950 . S
C2731 C2730 1.327 . S
C2731 C2735 1.429 . S
C2732 C2715 1.574 . S
C2732 H2726 0.949 . S
C2732 C2736 1.368 . S
C2733 C2714 1.429 . S
C2733 C2727 1.429 . S
C2733 C2734 1.523 . S
C2734 C2715 1.368 . S
C2734 C2728 1.368 . S
C2734 C2733 1.523 . S
C2735 C2719 1.429 . S
C2735 C2731 1.429 . S
C2735 C2736 1.523 . S
C2736 C2720 1.368 . S
C2736 C2732 1.368 . S
C2736 C2735 1.523 . S
H2737 C2712 0.950 . S
H2738 C2714 0.950 . S
H2739 C2715 0.949 . S
H2740 C2717 0.950 . S
H2741 C2719 0.950 . S
C2742 C2743 1.349 . S
C2742 C2744 1.327 . S
C2742 H2767 0.950 . S
C2743 C2742 1.349 . S
C2743 C2759 1.349 1_554 S
C2744 C2742 1.327 . S
C2744 C2763 1.429 . S
C2744 H2768 0.950 . S
C2745 C2762 1.574 . S
C2745 C2764 1.368 1_556 S
C2745 H2769 0.949 . S
H2746 C2750 0.949 . S
C2747 C2748 1.349 1_556 S
C2747 C2749 1.327 . S
C2747 H2770 0.950 . S
C2748 C2747 1.349 1_554 S
C2748 C2760 1.349 . S
C2749 C2747 1.327 . S
C2749 C2765 1.429 1_556 S
C2749 H2771 0.950 . S
C2750 H2746 0.949 . S
C2750 C2758 1.574 . S
C2750 C2766 1.368 . S
H2751 C2759 0.950 . S
H2752 C2757 0.950 . S
H2753 C2758 0.949 . S
H2754 C2760 0.950 . S
H2755 C2761 0.950 . S
H2756 C2762 0.949 . S
C2757 H2752 0.950 . S
C2757 C2759 1.327 . S
C2757 C2763 1.429 1_556 S
C2758 C2750 1.574 . S
C2758 H2753 0.949 . S
C2758 C2764 1.368 . S
C2759 C2743 1.349 1_556 S
C2759 H2751 0.950 . S
C2759 C2757 1.327 . S
C2760 C2748 1.349 . S
C2760 H2754 0.950 . S
C2760 C2761 1.327 . S
C2761 H2755 0.950 . S
C2761 C2760 1.327 . S
C2761 C2765 1.429 . S
C2762 C2745 1.574 . S
C2762 H2756 0.949 . S
C2762 C2766 1.368 1_556 S
C2763 C2744 1.429 . S
C2763 C2757 1.429 1_554 S
C2763 C2764 1.523 . S
C2764 C2745 1.368 1_554 S
C2764 C2758 1.368 . S
C2764 C2763 1.523 . S
C2765 C2749 1.429 1_554 S
C2765 C2761 1.429 . S
C2765 C2766 1.523 . S
C2766 C2750 1.368 . S
C2766 C2762 1.368 1_554 S
C2766 C2765 1.523 . S
H2767 C2742 0.950 . S
H2768 C2744 0.950 . S
H2769 C2745 0.949 . S
H2770 C2747 0.950 . S
H2771 C2749 0.950 . S
C2772 C2773 1.349 . S
C2772 C2774 1.327 . S
C2772 H2797 0.950 . S
C2773 C2772 1.349 . S
C2773 C2789 1.349 . S
C2774 C2772 1.327 . S
C2774 C2793 1.429 . S
C2774 H2798 0.950 . S
C2775 C2792 1.574 . S
C2775 C2794 1.368 . S
C2775 H2799 0.949 . S
H2776 C2780 0.949 . S
C2777 C2778 1.349 . S
C2777 C2779 1.327 . S
C2777 H2800 0.950 . S
C2778 C2777 1.349 . S
C2778 C2790 1.349 . S
C2779 C2777 1.327 . S
C2779 C2795 1.429 . S
C2779 H2801 0.950 . S
C2780 H2776 0.949 . S
C2780 C2788 1.574 . S
C2780 C2796 1.368 . S
H2781 C2789 0.950 . S
H2782 C2787 0.950 . S
H2783 C2788 0.949 . S
H2784 C2790 0.950 . S
H2785 C2791 0.950 . S
H2786 C2792 0.949 . S
C2787 H2782 0.950 . S
C2787 C2789 1.327 . S
C2787 C2793 1.429 . S
C2788 C2780 1.574 . S
C2788 H2783 0.949 . S
C2788 C2794 1.368 . S
C2789 C2773 1.349 . S
C2789 H2781 0.950 . S
C2789 C2787 1.327 . S
C2790 C2778 1.349 . S
C2790 H2784 0.950 . S
C2790 C2791 1.327 . S
C2791 H2785 0.950 . S
C2791 C2790 1.327 . S
C2791 C2795 1.429 . S
C2792 C2775 1.574 . S
C2792 H2786 0.949 . S
C2792 C2796 1.368 . S
C2793 C2774 1.429 . S
C2793 C2787 1.429 . S
C2793 C2794 1.523 . S
C2794 C2775 1.368 . S
C2794 C2788 1.368 . S
C2794 C2793 1.523 . S
C2795 C2779 1.429 . S
C2795 C2791 1.429 . S
C2795 C2796 1.523 . S
C2796 C2780 1.368 . S
C2796 C2792 1.368 . S
C2796 C2795 1.523 . S
H2797 C2772 0.950 . S
H2798 C2774 0.950 . S
H2799 C2775 0.949 . S
H2800 C2777 0.950 . S
H2801 C2779 0.950 . S
C2802 C2803 1.349 . S
C2802 C2804 1.327 . S
C2802 H2827 0.950 . S
C2803 C2802 1.349 . S
C2803 C2819 1.349 . S
C2804 C2802 1.327 . S
C2804 C2823 1.429 . S
C2804 H2828 0.950 . S
C2805 C2822 1.574 . S
C2805 C2824 1.368 . S
C2805 H2829 0.949 . S
H2806 C2810 0.949 . S
C2807 C2808 1.349 . S
C2807 C2809 1.327 . S
C2807 H2830 0.950 . S
C2808 C2807 1.349 . S
C2808 C2820 1.349 . S
C2809 C2807 1.327 . S
C2809 C2825 1.429 . S
C2809 H2831 0.950 . S
C2810 H2806 0.949 . S
C2810 C2818 1.574 . S
C2810 C2826 1.368 . S
H2811 C2819 0.950 . S
H2812 C2817 0.950 . S
H2813 C2818 0.949 . S
H2814 C2820 0.950 . S
H2815 C2821 0.950 . S
H2816 C2822 0.949 . S
C2817 H2812 0.950 . S
C2817 C2819 1.327 . S
C2817 C2823 1.429 . S
C2818 C2810 1.574 . S
C2818 H2813 0.949 . S
C2818 C2824 1.368 . S
C2819 C2803 1.349 . S
C2819 H2811 0.950 . S
C2819 C2817 1.327 . S
C2820 C2808 1.349 . S
C2820 H2814 0.950 . S
C2820 C2821 1.327 . S
C2821 H2815 0.950 . S
C2821 C2820 1.327 . S
C2821 C2825 1.429 . S
C2822 C2805 1.574 . S
C2822 H2816 0.949 . S
C2822 C2826 1.368 . S
C2823 C2804 1.429 . S
C2823 C2817 1.429 . S
C2823 C2824 1.523 . S
C2824 C2805 1.368 . S
C2824 C2818 1.368 . S
C2824 C2823 1.523 . S
C2825 C2809 1.429 . S
C2825 C2821 1.429 . S
C2825 C2826 1.523 . S
C2826 C2810 1.368 . S
C2826 C2822 1.368 . S
C2826 C2825 1.523 . S
H2827 C2802 0.950 . S
H2828 C2804 0.950 . S
H2829 C2805 0.949 . S
H2830 C2807 0.950 . S
H2831 C2809 0.950 . S
C2832 C2833 1.349 . S
C2832 C2834 1.327 . S
C2832 H2857 0.950 . S
C2833 C2832 1.349 . S
C2833 C2849 1.349 . S
C2834 C2832 1.327 . S
C2834 C2853 1.429 . S
C2834 H2858 0.950 . S
C2835 C2852 1.574 . S
C2835 C2854 1.368 . S
C2835 H2859 0.949 . S
H2836 C2840 0.949 . S
C2837 C2838 1.349 . S
C2837 C2839 1.327 . S
C2837 H2860 0.950 . S
C2838 C2837 1.349 . S
C2838 C2850 1.349 . S
C2839 C2837 1.327 . S
C2839 C2855 1.429 . S
C2839 H2861 0.950 . S
C2840 H2836 0.949 . S
C2840 C2848 1.574 . S
C2840 C2856 1.368 . S
H2841 C2849 0.950 . S
H2842 C2847 0.950 . S
H2843 C2848 0.949 . S
H2844 C2850 0.950 . S
H2845 C2851 0.950 . S
H2846 C2852 0.949 . S
C2847 H2842 0.950 . S
C2847 C2849 1.327 . S
C2847 C2853 1.429 . S
C2848 C2840 1.574 . S
C2848 H2843 0.949 . S
C2848 C2854 1.368 . S
C2849 C2833 1.349 . S
C2849 H2841 0.950 . S
C2849 C2847 1.327 . S
C2850 C2838 1.349 . S
C2850 H2844 0.950 . S
C2850 C2851 1.327 . S
C2851 H2845 0.950 . S
C2851 C2850 1.327 . S
C2851 C2855 1.429 . S
C2852 C2835 1.574 . S
C2852 H2846 0.949 . S
C2852 C2856 1.368 . S
C2853 C2834 1.429 . S
C2853 C2847 1.429 . S
C2853 C2854 1.523 . S
C2854 C2835 1.368 . S
C2854 C2848 1.368 . S
C2854 C2853 1.523 . S
C2855 C2839 1.429 . S
C2855 C2851 1.429 . S
C2855 C2856 1.523 . S
C2856 C2840 1.368 . S
C2856 C2852 1.368 . S
C2856 C2855 1.523 . S
H2857 C2832 0.950 . S
H2858 C2834 0.950 . S
H2859 C2835 0.949 . S
H2860 C2837 0.950 . S
H2861 C2839 0.950 . S
C2862 C2863 1.349 . S
C2862 C2864 1.327 . S
C2862 H2887 0.950 . S
C2863 C2862 1.349 . S
C2863 C2879 1.349 . S
C2864 C2862 1.327 . S
C2864 C2883 1.429 . S
C2864 H2888 0.950 . S
C2865 C2882 1.574 . S
C2865 C2884 1.368 . S
C2865 H2889 0.949 . S
H2866 C2870 0.949 . S
C2867 C2868 1.349 . S
C2867 C2869 1.327 . S
C2867 H2890 0.950 . S
C2868 C2867 1.349 . S
C2868 C2880 1.349 . S
C2869 C2867 1.327 . S
C2869 C2885 1.429 . S
C2869 H2891 0.950 . S
C2870 H2866 0.949 . S
C2870 C2878 1.574 . S
C2870 C2886 1.368 . S
H2871 C2879 0.950 . S
H2872 C2877 0.950 . S
H2873 C2878 0.949 . S
H2874 C2880 0.950 . S
H2875 C2881 0.950 . S
H2876 C2882 0.949 . S
C2877 H2872 0.950 . S
C2877 C2879 1.327 . S
C2877 C2883 1.429 . S
C2878 C2870 1.574 . S
C2878 H2873 0.949 . S
C2878 C2884 1.368 . S
C2879 C2863 1.349 . S
C2879 H2871 0.950 . S
C2879 C2877 1.327 . S
C2880 C2868 1.349 . S
C2880 H2874 0.950 . S
C2880 C2881 1.327 . S
C2881 H2875 0.950 . S
C2881 C2880 1.327 . S
C2881 C2885 1.429 . S
C2882 C2865 1.574 . S
C2882 H2876 0.949 . S
C2882 C2886 1.368 . S
C2883 C2864 1.429 . S
C2883 C2877 1.429 . S
C2883 C2884 1.523 . S
C2884 C2865 1.368 . S
C2884 C2878 1.368 . S
C2884 C2883 1.523 . S
C2885 C2869 1.429 . S
C2885 C2881 1.429 . S
C2885 C2886 1.523 . S
C2886 C2870 1.368 . S
C2886 C2882 1.368 . S
C2886 C2885 1.523 . S
H2887 C2862 0.950 . S
H2888 C2864 0.950 . S
H2889 C2865 0.949 . S
H2890 C2867 0.950 . S
H2891 C2869 0.950 . S
C2892 C2893 1.349 1_655 S
C2892 C2894 1.327 . S
C2892 H2917 0.950 . S
C2893 C2892 1.349 1_455 S
C2893 C2909 1.349 . S
C2894 C2892 1.327 . S
C2894 C2913 1.429 1_655 S
C2894 H2918 0.950 . S
C2895 C2912 1.574 . S
C2895 C2914 1.368 . S
C2895 H2919 0.949 . S
H2896 C2900 0.949 . S
C2897 C2898 1.349 . S
C2897 C2899 1.327 . S
C2897 H2920 0.950 . S
C2898 C2897 1.349 . S
C2898 C2910 1.349 1_455 S
C2899 C2897 1.327 . S
C2899 C2915 1.429 . S
C2899 H2921 0.950 . S
C2900 H2896 0.949 . S
C2900 C2908 1.574 . S
C2900 C2916 1.368 1_655 S
H2901 C2909 0.950 . S
H2902 C2907 0.950 . S
H2903 C2908 0.949 . S
H2904 C2910 0.950 1_554 S
H2905 C2911 0.950 . S
H2906 C2912 0.949 . S
C2907 H2902 0.950 . S
C2907 C2909 1.327 . S
C2907 C2913 1.429 . S
C2908 C2900 1.574 . S
C2908 H2903 0.949 . S
C2908 C2914 1.368 1_655 S
C2909 C2893 1.349 . S
C2909 H2901 0.950 . S
C2909 C2907 1.327 . S
C2910 C2898 1.349 1_655 S
C2910 H2904 0.950 1_556 S
C2910 C2911 1.327 . S
C2911 H2905 0.950 . S
C2911 C2910 1.327 . S
C2911 C2915 1.429 1_655 S
C2912 C2895 1.574 . S
C2912 H2906 0.949 . S
C2912 C2916 1.368 . S
C2913 C2894 1.429 1_455 S
C2913 C2907 1.429 . S
C2913 C2914 1.523 . S
C2914 C2895 1.368 . S
C2914 C2908 1.368 1_455 S
C2914 C2913 1.523 . S
C2915 C2899 1.429 . S
C2915 C2911 1.429 1_455 S
C2915 C2916 1.523 . S
C2916 C2900 1.368 1_455 S
C2916 C2912 1.368 . S
C2916 C2915 1.523 . S
H2917 C2892 0.950 . S
H2918 C2894 0.950 . S
H2919 C2895 0.949 . S
H2920 C2897 0.950 . S
H2921 C2899 0.950 . S
C2922 C2923 1.349 . S
C2922 C2924 1.327 . S
C2922 H2947 0.950 . S
C2923 C2922 1.349 . S
C2923 C2939 1.349 . S
C2924 C2922 1.327 . S
C2924 C2943 1.429 . S
C2924 H2948 0.950 . S
C2925 C2942 1.574 . S
C2925 C2944 1.368 . S
C2925 H2949 0.949 . S
H2926 C2930 0.949 . S
C2927 C2928 1.349 . S
C2927 C2929 1.327 . S
C2927 H2950 0.950 . S
C2928 C2927 1.349 . S
C2928 C2940 1.349 . S
C2929 C2927 1.327 . S
C2929 C2945 1.429 . S
C2929 H2951 0.950 . S
C2930 H2926 0.949 . S
C2930 C2938 1.574 . S
C2930 C2946 1.368 . S
H2931 C2939 0.950 . S
H2932 C2937 0.950 . S
H2933 C2938 0.949 . S
H2934 C2940 0.950 . S
H2935 C2941 0.950 . S
H2936 C2942 0.949 . S
C2937 H2932 0.950 . S
C2937 C2939 1.327 . S
C2937 C2943 1.429 . S
C2938 C2930 1.574 . S
C2938 H2933 0.949 . S
C2938 C2944 1.368 . S
C2939 C2923 1.349 . S
C2939 H2931 0.950 . S
C2939 C2937 1.327 . S
C2940 C2928 1.349 . S
C2940 H2934 0.950 . S
C2940 C2941 1.327 . S
C2941 H2935 0.950 . S
C2941 C2940 1.327 . S
C2941 C2945 1.429 . S
C2942 C2925 1.574 . S
C2942 H2936 0.949 . S
C2942 C2946 1.368 . S
C2943 C2924 1.429 . S
C2943 C2937 1.429 . S
C2943 C2944 1.523 . S
C2944 C2925 1.368 . S
C2944 C2938 1.368 . S
C2944 C2943 1.523 . S
C2945 C2929 1.429 . S
C2945 C2941 1.429 . S
C2945 C2946 1.523 . S
C2946 C2930 1.368 . S
C2946 C2942 1.368 . S
C2946 C2945 1.523 . S
H2947 C2922 0.950 . S
H2948 C2924 0.950 . S
H2949 C2925 0.949 . S
H2950 C2927 0.950 . S
H2951 C2929 0.950 . S
C2952 C2953 1.349 . S
C2952 C2954 1.327 . S
C2952 H2977 0.950 . S
C2953 C2952 1.349 . S
C2953 C2969 1.349 . S
C2954 C2952 1.327 . S
C2954 C2973 1.429 . S
C2954 H2978 0.950 . S
C2955 C2972 1.574 . S
C2955 C2974 1.368 . S
C2955 H2979 0.949 . S
H2956 C2960 0.949 . S
C2957 C2958 1.349 . S
C2957 C2959 1.327 . S
C2957 H2980 0.950 . S
C2958 C2957 1.349 . S
C2958 C2970 1.349 . S
C2959 C2957 1.327 . S
C2959 C2975 1.429 . S
C2959 H2981 0.950 . S
C2960 H2956 0.949 . S
C2960 C2968 1.574 . S
C2960 C2976 1.368 . S
H2961 C2969 0.950 . S
H2962 C2967 0.950 . S
H2963 C2968 0.949 . S
H2964 C2970 0.950 . S
H2965 C2971 0.950 . S
H2966 C2972 0.949 . S
C2967 H2962 0.950 . S
C2967 C2969 1.327 . S
C2967 C2973 1.429 . S
C2968 C2960 1.574 . S
C2968 H2963 0.949 . S
C2968 C2974 1.368 . S
C2969 C2953 1.349 . S
C2969 H2961 0.950 . S
C2969 C2967 1.327 . S
C2970 C2958 1.349 . S
C2970 H2964 0.950 . S
C2970 C2971 1.327 . S
C2971 H2965 0.950 . S
C2971 C2970 1.327 . S
C2971 C2975 1.429 . S
C2972 C2955 1.574 . S
C2972 H2966 0.949 . S
C2972 C2976 1.368 . S
C2973 C2954 1.429 . S
C2973 C2967 1.429 . S
C2973 C2974 1.523 . S
C2974 C2955 1.368 . S
C2974 C2968 1.368 . S
C2974 C2973 1.523 . S
C2975 C2959 1.429 . S
C2975 C2971 1.429 . S
C2975 C2976 1.523 . S
C2976 C2960 1.368 . S
C2976 C2972 1.368 . S
C2976 C2975 1.523 . S
H2977 C2952 0.950 . S
H2978 C2954 0.950 . S
H2979 C2955 0.949 . S
H2980 C2957 0.950 . S
H2981 C2959 0.950 . S
C2982 C2983 1.349 . S
C2982 C2984 1.327 . S
C2982 H3007 0.950 . S
C2983 C2982 1.349 . S
C2983 C2999 1.349 . S
C2984 C2982 1.327 . S
C2984 C3003 1.429 . S
C2984 H3008 0.950 . S
C2985 C3002 1.574 . S
C2985 C3004 1.368 . S
C2985 H3009 0.949 . S
H2986 C2990 0.949 . S
C2987 C2988 1.349 . S
C2987 C2989 1.327 . S
C2987 H3010 0.950 . S
C2988 C2987 1.349 . S
C2988 C3000 1.349 . S
C2989 C2987 1.327 . S
C2989 C3005 1.429 . S
C2989 H3011 0.950 . S
C2990 H2986 0.949 . S
C2990 C2998 1.574 . S
C2990 C3006 1.368 . S
H2991 C2999 0.950 . S
H2992 C2997 0.950 . S
H2993 C2998 0.949 . S
H2994 C3000 0.950 . S
H2995 C3001 0.950 . S
H2996 C3002 0.949 . S
C2997 H2992 0.950 . S
C2997 C2999 1.327 . S
C2997 C3003 1.429 . S
C2998 C2990 1.574 . S
C2998 H2993 0.949 . S
C2998 C3004 1.368 . S
C2999 C2983 1.349 . S
C2999 H2991 0.950 . S
C2999 C2997 1.327 . S
C3000 C2988 1.349 . S
C3000 H2994 0.950 . S
C3000 C3001 1.327 . S
C3001 H2995 0.950 . S
C3001 C3000 1.327 . S
C3001 C3005 1.429 . S
C3002 C2985 1.574 . S
C3002 H2996 0.949 . S
C3002 C3006 1.368 . S
C3003 C2984 1.429 . S
C3003 C2997 1.429 . S
C3003 C3004 1.523 . S
C3004 C2985 1.368 . S
C3004 C2998 1.368 . S
C3004 C3003 1.523 . S
C3005 C2989 1.429 . S
C3005 C3001 1.429 . S
C3005 C3006 1.523 . S
C3006 C2990 1.368 . S
C3006 C3002 1.368 . S
C3006 C3005 1.523 . S
H3007 C2982 0.950 . S
H3008 C2984 0.950 . S
H3009 C2985 0.949 . S
H3010 C2987 0.950 . S
H3011 C2989 0.950 . S
C3012 C3013 1.335 1_655 S
C3012 C3014 1.330 . S
C3012 H3037 0.961 . S
C3013 C3012 1.335 1_455 S
C3013 C3029 1.349 . S
C3014 C3012 1.330 . S
C3014 C3033 1.429 1_655 S
C3014 H3038 0.950 . S
C3015 C3032 1.574 . S
C3015 C3034 1.368 . S
C3015 H3039 0.949 . S
H3016 C3020 0.949 . S
C3017 C3018 1.349 . S
C3017 C3019 1.327 . S
C3017 H3040 0.950 . S
C3018 C3017 1.349 . S
C3018 C3030 1.349 1_455 S
C3019 C3017 1.327 . S
C3019 C3035 1.429 . S
C3019 H3041 0.950 . S
C3020 H3016 0.949 . S
C3020 C3028 1.574 . S
C3020 C3036 1.368 1_655 S
H3021 C3029 0.950 . S
H3022 C3027 0.950 . S
H3023 C3028 0.949 . S
H3024 C3030 0.950 . S
H3025 C3031 0.950 . S
H3026 C3032 0.949 . S
C3027 H3022 0.950 . S
C3027 C3029 1.327 . S
C3027 C3033 1.429 . S
C3028 C3020 1.574 . S
C3028 H3023 0.949 . S
C3028 C3034 1.368 1_655 S
C3029 C3013 1.349 . S
C3029 H3021 0.950 . S
C3029 C3027 1.327 . S
C3030 C3018 1.349 1_655 S
C3030 H3024 0.950 . S
C3030 C3031 1.327 . S
C3031 H3025 0.950 . S
C3031 C3030 1.327 . S
C3031 C3035 1.429 1_655 S
C3032 C3015 1.574 . S
C3032 H3026 0.949 . S
C3032 C3036 1.368 . S
C3033 C3014 1.429 1_455 S
C3033 C3027 1.429 . S
C3033 C3034 1.523 . S
C3034 C3015 1.368 . S
C3034 C3028 1.368 1_455 S
C3034 C3033 1.523 . S
C3035 C3019 1.429 . S
C3035 C3031 1.429 1_455 S
C3035 C3036 1.523 . S
C3036 C3020 1.368 1_455 S
C3036 C3032 1.368 . S
C3036 C3035 1.523 . S
H3037 C3012 0.961 . S
H3038 C3014 0.950 . S
H3039 C3015 0.949 . S
H3040 C3017 0.950 . S
H3041 C3019 0.950 . S
C3042 C3043 1.349 . S
C3042 C3044 1.327 . S
C3042 H3067 0.950 . S
C3043 C3042 1.349 . S
C3043 C3059 1.349 . S
C3044 C3042 1.327 . S
C3044 C3063 1.429 . S
C3044 H3068 0.950 . S
C3045 C3062 1.574 . S
C3045 C3064 1.368 . S
C3045 H3069 0.949 . S
H3046 C3050 0.949 . S
C3047 C3048 1.349 . S
C3047 C3049 1.327 . S
C3047 H3070 0.950 . S
C3048 C3047 1.349 . S
C3048 C3060 1.349 . S
C3049 C3047 1.327 . S
C3049 C3065 1.429 . S
C3049 H3071 0.950 . S
C3050 H3046 0.949 . S
C3050 C3058 1.574 . S
C3050 C3066 1.368 . S
H3051 C3059 0.950 . S
H3052 C3057 0.950 . S
H3053 C3058 0.949 . S
H3054 C3060 0.950 . S
H3055 C3061 0.950 . S
H3056 C3062 0.949 . S
C3057 H3052 0.950 . S
C3057 C3059 1.327 . S
C3057 C3063 1.429 . S
C3058 C3050 1.574 . S
C3058 H3053 0.949 . S
C3058 C3064 1.368 . S
C3059 C3043 1.349 . S
C3059 H3051 0.950 . S
C3059 C3057 1.327 . S
C3060 C3048 1.349 . S
C3060 H3054 0.950 . S
C3060 C3061 1.327 . S
C3061 H3055 0.950 . S
C3061 C3060 1.327 . S
C3061 C3065 1.429 . S
C3062 C3045 1.574 . S
C3062 H3056 0.949 . S
C3062 C3066 1.368 . S
C3063 C3044 1.429 . S
C3063 C3057 1.429 . S
C3063 C3064 1.523 . S
C3064 C3045 1.368 . S
C3064 C3058 1.368 . S
C3064 C3063 1.523 . S
C3065 C3049 1.429 . S
C3065 C3061 1.429 . S
C3065 C3066 1.523 . S
C3066 C3050 1.368 . S
C3066 C3062 1.368 . S
C3066 C3065 1.523 . S
H3067 C3042 0.950 . S
H3068 C3044 0.950 . S
H3069 C3045 0.949 . S
H3070 C3047 0.950 . S
H3071 C3049 0.950 . S
C3072 C3073 1.349 . S
C3072 C3074 1.327 . S
C3072 H3097 0.950 . S
C3073 C3072 1.349 . S
C3073 C3089 1.349 . S
C3074 C3072 1.327 . S
C3074 C3093 1.429 . S
C3074 H3098 0.950 . S
C3075 C3092 1.574 . S
C3075 C3094 1.368 . S
C3075 H3099 0.949 . S
H3076 C3080 0.949 . S
C3077 C3078 1.349 . S
C3077 C3079 1.327 . S
C3077 H3100 0.950 . S
C3078 C3077 1.349 . S
C3078 C3090 1.349 . S
C3079 C3077 1.327 . S
C3079 C3095 1.429 . S
C3079 H3101 0.950 . S
C3080 H3076 0.949 . S
C3080 C3088 1.574 . S
C3080 C3096 1.368 . S
H3081 C3089 0.950 . S
H3082 C3087 0.950 . S
H3083 C3088 0.949 . S
H3084 C3090 0.950 . S
H3085 C3091 0.950 . S
H3086 C3092 0.949 . S
C3087 H3082 0.950 . S
C3087 C3089 1.327 . S
C3087 C3093 1.429 . S
C3088 C3080 1.574 . S
C3088 H3083 0.949 . S
C3088 C3094 1.368 . S
C3089 C3073 1.349 . S
C3089 H3081 0.950 . S
C3089 C3087 1.327 . S
C3090 C3078 1.349 . S
C3090 H3084 0.950 . S
C3090 C3091 1.327 . S
C3091 H3085 0.950 . S
C3091 C3090 1.327 . S
C3091 C3095 1.429 . S
C3092 C3075 1.574 . S
C3092 H3086 0.949 . S
C3092 C3096 1.368 . S
C3093 C3074 1.429 . S
C3093 C3087 1.429 . S
C3093 C3094 1.523 . S
C3094 C3075 1.368 . S
C3094 C3088 1.368 . S
C3094 C3093 1.523 . S
C3095 C3079 1.429 . S
C3095 C3091 1.429 . S
C3095 C3096 1.523 . S
C3096 C3080 1.368 . S
C3096 C3092 1.368 . S
C3096 C3095 1.523 . S
H3097 C3072 0.950 . S
H3098 C3074 0.950 . S
H3099 C3075 0.949 . S
H3100 C3077 0.950 . S
H3101 C3079 0.950 . S
C3102 C3103 1.349 . S
C3102 C3104 1.327 . S
C3102 H3127 0.950 . S
C3103 C3102 1.349 . S
C3103 C3119 1.349 . S
C3104 C3102 1.327 . S
C3104 C3123 1.429 . S
C3104 H3128 0.950 . S
C3105 C3122 1.574 . S
C3105 C3124 1.368 . S
C3105 H3129 0.949 . S
H3106 C3110 0.949 . S
C3107 C3108 1.349 . S
C3107 C3109 1.327 . S
C3107 H3130 0.950 . S
C3108 C3107 1.349 . S
C3108 C3120 1.349 . S
C3109 C3107 1.327 . S
C3109 C3125 1.429 . S
C3109 H3131 0.950 . S
C3110 H3106 0.949 . S
C3110 C3118 1.574 . S
C3110 C3126 1.368 . S
H3111 C3119 0.950 . S
H3112 C3117 0.950 . S
H3113 C3118 0.949 . S
H3114 C3120 0.950 . S
H3115 C3121 0.950 . S
H3116 C3122 0.949 . S
C3117 H3112 0.950 . S
C3117 C3119 1.327 . S
C3117 C3123 1.429 . S
C3118 C3110 1.574 . S
C3118 H3113 0.949 . S
C3118 C3124 1.368 . S
C3119 C3103 1.349 . S
C3119 H3111 0.950 . S
C3119 C3117 1.327 . S
C3120 C3108 1.349 . S
C3120 H3114 0.950 . S
C3120 C3121 1.327 . S
C3121 H3115 0.950 . S
C3121 C3120 1.327 . S
C3121 C3125 1.429 . S
C3122 C3105 1.574 . S
C3122 H3116 0.949 . S
C3122 C3126 1.368 . S
C3123 C3104 1.429 . S
C3123 C3117 1.429 . S
C3123 C3124 1.523 . S
C3124 C3105 1.368 . S
C3124 C3118 1.368 . S
C3124 C3123 1.523 . S
C3125 C3109 1.429 . S
C3125 C3121 1.429 . S
C3125 C3126 1.523 . S
C3126 C3110 1.368 . S
C3126 C3122 1.368 . S
C3126 C3125 1.523 . S
H3127 C3102 0.950 . S
H3128 C3104 0.950 . S
H3129 C3105 0.949 . S
H3130 C3107 0.950 . S
H3131 C3109 0.950 . S
C3132 C3133 1.349 . S
C3132 C3134 1.327 . S
C3132 H3157 0.950 . S
C3133 C3132 1.349 . S
C3133 C3149 1.349 . S
C3134 C3132 1.327 . S
C3134 C3153 1.429 . S
C3134 H3158 0.950 . S
C3135 C3152 1.574 . S
C3135 C3154 1.368 . S
C3135 H3159 0.949 . S
H3136 C3140 0.949 . S
C3137 C3138 1.349 . S
C3137 C3139 1.327 . S
C3137 H3160 0.950 . S
C3138 C3137 1.349 . S
C3138 C3150 1.349 . S
C3139 C3137 1.327 . S
C3139 C3155 1.429 . S
C3139 H3161 0.950 . S
C3140 H3136 0.949 . S
C3140 C3148 1.574 . S
C3140 C3156 1.368 . S
H3141 C3149 0.950 . S
H3142 C3147 0.950 . S
H3143 C3148 0.949 . S
H3144 C3150 0.950 . S
H3145 C3151 0.950 . S
H3146 C3152 0.949 . S
C3147 H3142 0.950 . S
C3147 C3149 1.327 . S
C3147 C3153 1.429 . S
C3148 C3140 1.574 . S
C3148 H3143 0.949 . S
C3148 C3154 1.368 . S
C3149 C3133 1.349 . S
C3149 H3141 0.950 . S
C3149 C3147 1.327 . S
C3150 C3138 1.349 . S
C3150 H3144 0.950 . S
C3150 C3151 1.327 . S
C3151 H3145 0.950 . S
C3151 C3150 1.327 . S
C3151 C3155 1.429 . S
C3152 C3135 1.574 . S
C3152 H3146 0.949 . S
C3152 C3156 1.368 . S
C3153 C3134 1.429 . S
C3153 C3147 1.429 . S
C3153 C3154 1.523 . S
C3154 C3135 1.368 . S
C3154 C3148 1.368 . S
C3154 C3153 1.523 . S
C3155 C3139 1.429 . S
C3155 C3151 1.429 . S
C3155 C3156 1.523 . S
C3156 C3140 1.368 . S
C3156 C3152 1.368 . S
C3156 C3155 1.523 . S
H3157 C3132 0.950 . S
H3158 C3134 0.950 . S
H3159 C3135 0.949 . S
H3160 C3137 0.950 . S
H3161 C3139 0.950 . S
C3162 C3163 1.349 . S
C3162 C3164 1.327 . S
C3162 H3187 0.950 . S
C3163 C3162 1.349 . S
C3163 C3179 1.349 . S
C3164 C3162 1.327 . S
C3164 C3183 1.429 . S
C3164 H3188 0.950 . S
C3165 C3182 1.574 . S
C3165 C3184 1.368 . S
C3165 H3189 0.949 . S
H3166 C3170 0.949 . S
C3167 C3168 1.349 . S
C3167 C3169 1.327 . S
C3167 H3190 0.950 . S
C3168 C3167 1.349 . S
C3168 C3180 1.349 . S
C3169 C3167 1.327 . S
C3169 C3185 1.429 . S
C3169 H3191 0.950 . S
C3170 H3166 0.949 . S
C3170 C3178 1.574 . S
C3170 C3186 1.368 . S
H3171 C3179 0.950 . S
H3172 C3177 0.950 . S
H3173 C3178 0.949 . S
H3174 C3180 0.950 . S
H3175 C3181 0.950 . S
H3176 C3182 0.949 . S
C3177 H3172 0.950 . S
C3177 C3179 1.327 . S
C3177 C3183 1.429 . S
C3178 C3170 1.574 . S
C3178 H3173 0.949 . S
C3178 C3184 1.368 . S
C3179 C3163 1.349 . S
C3179 H3171 0.950 . S
C3179 C3177 1.327 . S
C3180 C3168 1.349 . S
C3180 H3174 0.950 . S
C3180 C3181 1.327 . S
C3181 H3175 0.950 . S
C3181 C3180 1.327 . S
C3181 C3185 1.429 . S
C3182 C3165 1.574 . S
C3182 H3176 0.949 . S
C3182 C3186 1.368 . S
C3183 C3164 1.429 . S
C3183 C3177 1.429 . S
C3183 C3184 1.523 . S
C3184 C3165 1.368 . S
C3184 C3178 1.368 . S
C3184 C3183 1.523 . S
C3185 C3169 1.429 . S
C3185 C3181 1.429 . S
C3185 C3186 1.523 . S
C3186 C3170 1.368 . S
C3186 C3182 1.368 . S
C3186 C3185 1.523 . S
H3187 C3162 0.950 . S
H3188 C3164 0.950 . S
H3189 C3165 0.949 . S
H3190 C3167 0.950 . S
H3191 C3169 0.950 . S
C3192 C3193 1.349 . S
C3192 C3194 1.327 . S
C3192 H3217 0.950 . S
C3193 C3192 1.349 . S
C3193 C3209 1.349 . S
C3194 C3192 1.327 . S
C3194 C3213 1.429 . S
C3194 H3218 0.950 . S
C3195 C3212 1.574 . S
C3195 C3214 1.368 . S
C3195 H3219 0.949 . S
H3196 C3200 0.949 . S
C3197 C3198 1.349 . S
C3197 C3199 1.327 . S
C3197 H3220 0.950 . S
C3198 C3197 1.349 . S
C3198 C3210 1.349 . S
C3199 C3197 1.327 . S
C3199 C3215 1.429 . S
C3199 H3221 0.950 . S
C3200 H3196 0.949 . S
C3200 C3208 1.574 . S
C3200 C3216 1.368 . S
H3201 C3209 0.950 . S
H3202 C3207 0.950 . S
H3203 C3208 0.949 . S
H3204 C3210 0.950 . S
H3205 C3211 0.950 . S
H3206 C3212 0.949 . S
C3207 H3202 0.950 . S
C3207 C3209 1.327 . S
C3207 C3213 1.429 . S
C3208 C3200 1.574 . S
C3208 H3203 0.949 . S
C3208 C3214 1.368 . S
C3209 C3193 1.349 . S
C3209 H3201 0.950 . S
C3209 C3207 1.327 . S
C3210 C3198 1.349 . S
C3210 H3204 0.950 . S
C3210 C3211 1.327 . S
C3211 H3205 0.950 . S
C3211 C3210 1.327 . S
C3211 C3215 1.429 . S
C3212 C3195 1.574 . S
C3212 H3206 0.949 . S
C3212 C3216 1.368 . S
C3213 C3194 1.429 . S
C3213 C3207 1.429 . S
C3213 C3214 1.523 . S
C3214 C3195 1.368 . S
C3214 C3208 1.368 . S
C3214 C3213 1.523 . S
C3215 C3199 1.429 . S
C3215 C3211 1.429 . S
C3215 C3216 1.523 . S
C3216 C3200 1.368 . S
C3216 C3212 1.368 . S
C3216 C3215 1.523 . S
H3217 C3192 0.950 . S
H3218 C3194 0.950 . S
H3219 C3195 0.949 . S
H3220 C3197 0.950 . S
H3221 C3199 0.950 . S
C3222 C3223 1.349 . S
C3222 C3224 1.327 . S
C3222 H3247 0.950 . S
C3223 C3222 1.349 . S
C3223 C3239 1.349 . S
C3224 C3222 1.327 . S
C3224 C3243 1.429 . S
C3224 H3248 0.950 . S
C3225 C3242 1.574 . S
C3225 C3244 1.368 . S
C3225 H3249 0.949 . S
H3226 C3230 0.949 . S
C3227 C3228 1.349 . S
C3227 C3229 1.327 . S
C3227 H3250 0.950 . S
C3228 C3227 1.349 . S
C3228 C3240 1.349 . S
C3229 C3227 1.327 . S
C3229 C3245 1.429 . S
C3229 H3251 0.950 . S
C3230 H3226 0.949 . S
C3230 C3238 1.574 . S
C3230 C3246 1.368 . S
H3231 C3239 0.950 . S
H3232 C3237 0.950 . S
H3233 C3238 0.949 . S
H3234 C3240 0.950 . S
H3235 C3241 0.950 . S
H3236 C3242 0.949 . S
C3237 H3232 0.950 . S
C3237 C3239 1.327 . S
C3237 C3243 1.429 . S
C3238 C3230 1.574 . S
C3238 H3233 0.949 . S
C3238 C3244 1.368 . S
C3239 C3223 1.349 . S
C3239 H3231 0.950 . S
C3239 C3237 1.327 . S
C3240 C3228 1.349 . S
C3240 H3234 0.950 . S
C3240 C3241 1.327 . S
C3241 H3235 0.950 . S
C3241 C3240 1.327 . S
C3241 C3245 1.429 . S
C3242 C3225 1.574 . S
C3242 H3236 0.949 . S
C3242 C3246 1.368 . S
C3243 C3224 1.429 . S
C3243 C3237 1.429 . S
C3243 C3244 1.523 . S
C3244 C3225 1.368 . S
C3244 C3238 1.368 . S
C3244 C3243 1.523 . S
C3245 C3229 1.429 . S
C3245 C3241 1.429 . S
C3245 C3246 1.523 . S
C3246 C3230 1.368 . S
C3246 C3242 1.368 . S
C3246 C3245 1.523 . S
H3247 C3222 0.950 . S
H3248 C3224 0.950 . S
H3249 C3225 0.949 . S
H3250 C3227 0.950 . S
H3251 C3229 0.950 . S
C3252 C3253 1.349 . S
C3252 C3254 1.327 . S
C3252 H3277 0.950 . S
C3253 C3252 1.349 . S
C3253 C3269 1.349 . S
C3254 C3252 1.327 . S
C3254 C3273 1.429 . S
C3254 H3278 0.950 . S
C3255 C3272 1.574 . S
C3255 C3274 1.368 . S
C3255 H3279 0.949 . S
H3256 C3260 0.949 . S
C3257 C3258 1.349 . S
C3257 C3259 1.327 . S
C3257 H3280 0.950 . S
C3258 C3257 1.349 . S
C3258 C3270 1.349 . S
C3259 C3257 1.327 . S
C3259 C3275 1.429 . S
C3259 H3281 0.950 . S
C3260 H3256 0.949 . S
C3260 C3268 1.574 . S
C3260 C3276 1.368 . S
H3261 C3269 0.950 . S
H3262 C3267 0.950 . S
H3263 C3268 0.949 . S
H3264 C3270 0.950 . S
H3265 C3271 0.950 . S
H3266 C3272 0.949 . S
C3267 H3262 0.950 . S
C3267 C3269 1.327 . S
C3267 C3273 1.429 . S
C3268 C3260 1.574 . S
C3268 H3263 0.949 . S
C3268 C3274 1.368 . S
C3269 C3253 1.349 . S
C3269 H3261 0.950 . S
C3269 C3267 1.327 . S
C3270 C3258 1.349 . S
C3270 H3264 0.950 . S
C3270 C3271 1.327 . S
C3271 H3265 0.950 . S
C3271 C3270 1.327 . S
C3271 C3275 1.429 . S
C3272 C3255 1.574 . S
C3272 H3266 0.949 . S
C3272 C3276 1.368 . S
C3273 C3254 1.429 . S
C3273 C3267 1.429 . S
C3273 C3274 1.523 . S
C3274 C3255 1.368 . S
C3274 C3268 1.368 . S
C3274 C3273 1.523 . S
C3275 C3259 1.429 . S
C3275 C3271 1.429 . S
C3275 C3276 1.523 . S
C3276 C3260 1.368 . S
C3276 C3272 1.368 . S
C3276 C3275 1.523 . S
H3277 C3252 0.950 . S
H3278 C3254 0.950 . S
H3279 C3255 0.949 . S
H3280 C3257 0.950 . S
H3281 C3259 0.950 . S
C3282 C3283 1.349 . S
C3282 C3284 1.327 . S
C3282 H3307 0.950 . S
C3283 C3282 1.349 . S
C3283 C3299 1.349 . S
C3284 C3282 1.327 . S
C3284 C3303 1.429 . S
C3284 H3308 0.950 . S
C3285 C3302 1.574 . S
C3285 C3304 1.368 . S
C3285 H3309 0.949 . S
H3286 C3290 0.949 . S
C3287 C3288 1.349 . S
C3287 C3289 1.327 . S
C3287 H3310 0.950 . S
C3288 C3287 1.349 . S
C3288 C3300 1.349 . S
C3289 C3287 1.327 . S
C3289 C3305 1.429 . S
C3289 H3311 0.950 . S
C3290 H3286 0.949 . S
C3290 C3298 1.574 . S
C3290 C3306 1.368 . S
H3291 C3299 0.950 . S
H3292 C3297 0.950 . S
H3293 C3298 0.949 . S
H3294 C3300 0.950 . S
H3295 C3301 0.950 . S
H3296 C3302 0.949 . S
C3297 H3292 0.950 . S
C3297 C3299 1.327 . S
C3297 C3303 1.429 . S
C3298 C3290 1.574 . S
C3298 H3293 0.949 . S
C3298 C3304 1.368 . S
C3299 C3283 1.349 . S
C3299 H3291 0.950 . S
C3299 C3297 1.327 . S
C3300 C3288 1.349 . S
C3300 H3294 0.950 . S
C3300 C3301 1.327 . S
C3301 H3295 0.950 . S
C3301 C3300 1.327 . S
C3301 C3305 1.429 . S
C3302 C3285 1.574 . S
C3302 H3296 0.949 . S
C3302 C3306 1.368 . S
C3303 C3284 1.429 . S
C3303 C3297 1.429 . S
C3303 C3304 1.523 . S
C3304 C3285 1.368 . S
C3304 C3298 1.368 . S
C3304 C3303 1.523 . S
C3305 C3289 1.429 . S
C3305 C3301 1.429 . S
C3305 C3306 1.523 . S
C3306 C3290 1.368 . S
C3306 C3302 1.368 . S
C3306 C3305 1.523 . S
H3307 C3282 0.950 . S
H3308 C3284 0.950 . S
H3309 C3285 0.949 . S
H3310 C3287 0.950 . S
H3311 C3289 0.950 . S
C3312 C3313 1.349 . S
C3312 C3314 1.327 . S
C3312 H3337 0.950 . S
C3313 C3312 1.349 . S
C3313 C3329 1.349 . S
C3314 C3312 1.327 . S
C3314 C3333 1.429 . S
C3314 H3338 0.950 . S
C3315 C3332 1.574 . S
C3315 C3334 1.368 . S
C3315 H3339 0.949 . S
H3316 C3320 0.949 . S
C3317 C3318 1.349 . S
C3317 C3319 1.327 . S
C3317 H3340 0.950 . S
C3318 C3317 1.349 . S
C3318 C3330 1.349 . S
C3319 C3317 1.327 . S
C3319 C3335 1.429 . S
C3319 H3341 0.950 . S
C3320 H3316 0.949 . S
C3320 C3328 1.574 . S
C3320 C3336 1.368 . S
H3321 C3329 0.950 . S
H3322 C3327 0.950 . S
H3323 C3328 0.949 . S
H3324 C3330 0.950 . S
H3325 C3331 0.950 . S
H3326 C3332 0.949 . S
C3327 H3322 0.950 . S
C3327 C3329 1.327 . S
C3327 C3333 1.429 . S
C3328 C3320 1.574 . S
C3328 H3323 0.949 . S
C3328 C3334 1.368 . S
C3329 C3313 1.349 . S
C3329 H3321 0.950 . S
C3329 C3327 1.327 . S
C3330 C3318 1.349 . S
C3330 H3324 0.950 . S
C3330 C3331 1.327 . S
C3331 H3325 0.950 . S
C3331 C3330 1.327 . S
C3331 C3335 1.429 . S
C3332 C3315 1.574 . S
C3332 H3326 0.949 . S
C3332 C3336 1.368 . S
C3333 C3314 1.429 . S
C3333 C3327 1.429 . S
C3333 C3334 1.523 . S
C3334 C3315 1.368 . S
C3334 C3328 1.368 . S
C3334 C3333 1.523 . S
C3335 C3319 1.429 . S
C3335 C3331 1.429 . S
C3335 C3336 1.523 . S
C3336 C3320 1.368 . S
C3336 C3332 1.368 . S
C3336 C3335 1.523 . S
H3337 C3312 0.950 . S
H3338 C3314 0.950 . S
H3339 C3315 0.949 . S
H3340 C3317 0.950 . S
H3341 C3319 0.950 . S
C3342 C3343 1.349 . S
C3342 C3344 1.327 . S
C3342 H3367 0.950 . S
C3343 C3342 1.349 . S
C3343 C3359 1.349 . S
C3344 C3342 1.327 . S
C3344 C3363 1.429 . S
C3344 H3368 0.950 . S
C3345 C3362 1.574 . S
C3345 C3364 1.368 . S
C3345 H3369 0.949 . S
H3346 C3350 0.949 . S
C3347 C3348 1.349 . S
C3347 C3349 1.327 . S
C3347 H3370 0.950 . S
C3348 C3347 1.349 . S
C3348 C3360 1.349 . S
C3349 C3347 1.327 . S
C3349 C3365 1.429 . S
C3349 H3371 0.950 . S
C3350 H3346 0.949 . S
C3350 C3358 1.574 . S
C3350 C3366 1.368 . S
H3351 C3359 0.950 . S
H3352 C3357 0.950 . S
H3353 C3358 0.949 . S
H3354 C3360 0.950 . S
H3355 C3361 0.950 . S
H3356 C3362 0.949 . S
C3357 H3352 0.950 . S
C3357 C3359 1.327 . S
C3357 C3363 1.429 . S
C3358 C3350 1.574 . S
C3358 H3353 0.949 . S
C3358 C3364 1.368 . S
C3359 C3343 1.349 . S
C3359 H3351 0.950 . S
C3359 C3357 1.327 . S
C3360 C3348 1.349 . S
C3360 H3354 0.950 . S
C3360 C3361 1.327 . S
C3361 H3355 0.950 . S
C3361 C3360 1.327 . S
C3361 C3365 1.429 . S
C3362 C3345 1.574 . S
C3362 H3356 0.949 . S
C3362 C3366 1.368 . S
C3363 C3344 1.429 . S
C3363 C3357 1.429 . S
C3363 C3364 1.523 . S
C3364 C3345 1.368 . S
C3364 C3358 1.368 . S
C3364 C3363 1.523 . S
C3365 C3349 1.429 . S
C3365 C3361 1.429 . S
C3365 C3366 1.523 . S
C3366 C3350 1.368 . S
C3366 C3362 1.368 . S
C3366 C3365 1.523 . S
H3367 C3342 0.950 . S
H3368 C3344 0.950 . S
H3369 C3345 0.949 . S
H3370 C3347 0.950 . S
H3371 C3349 0.950 . S
C3372 C3373 1.349 . S
C3372 C3374 1.327 . S
C3372 H3397 0.950 . S
C3373 C3372 1.349 . S
C3373 C3389 1.349 . S
C3374 C3372 1.327 . S
C3374 C3393 1.429 . S
C3374 H3398 0.950 . S
C3375 C3392 1.574 . S
C3375 C3394 1.368 . S
C3375 H3399 0.949 . S
H3376 C3380 0.949 . S
C3377 C3378 1.349 . S
C3377 C3379 1.327 . S
C3377 H3400 0.950 . S
C3378 C3377 1.349 . S
C3378 C3390 1.349 . S
C3379 C3377 1.327 . S
C3379 C3395 1.429 . S
C3379 H3401 0.950 . S
C3380 H3376 0.949 . S
C3380 C3388 1.574 . S
C3380 C3396 1.368 . S
H3381 C3389 0.950 . S
H3382 C3387 0.950 . S
H3383 C3388 0.949 . S
H3384 C3390 0.950 . S
H3385 C3391 0.950 . S
H3386 C3392 0.949 . S
C3387 H3382 0.950 . S
C3387 C3389 1.327 . S
C3387 C3393 1.429 . S
C3388 C3380 1.574 . S
C3388 H3383 0.949 . S
C3388 C3394 1.368 . S
C3389 C3373 1.349 . S
C3389 H3381 0.950 . S
C3389 C3387 1.327 . S
C3390 C3378 1.349 . S
C3390 H3384 0.950 . S
C3390 C3391 1.327 . S
C3391 H3385 0.950 . S
C3391 C3390 1.327 . S
C3391 C3395 1.429 . S
C3392 C3375 1.574 . S
C3392 H3386 0.949 . S
C3392 C3396 1.368 . S
C3393 C3374 1.429 . S
C3393 C3387 1.429 . S
C3393 C3394 1.523 . S
C3394 C3375 1.368 . S
C3394 C3388 1.368 . S
C3394 C3393 1.523 . S
C3395 C3379 1.429 . S
C3395 C3391 1.429 . S
C3395 C3396 1.523 . S
C3396 C3380 1.368 . S
C3396 C3392 1.368 . S
C3396 C3395 1.523 . S
H3397 C3372 0.950 . S
H3398 C3374 0.950 . S
H3399 C3375 0.949 . S
H3400 C3377 0.950 . S
H3401 C3379 0.950 . S
C3402 C3403 1.349 . S
C3402 C3404 1.327 . S
C3402 H3427 0.950 . S
C3403 C3402 1.349 . S
C3403 C3419 1.349 1_554 S
C3404 C3402 1.327 . S
C3404 C3423 1.429 . S
C3404 H3428 0.950 . S
C3405 C3422 1.574 . S
C3405 C3424 1.368 1_556 S
C3405 H3429 0.949 . S
H3406 C3410 0.949 . S
C3407 C3408 1.349 1_556 S
C3407 C3409 1.327 . S
C3407 H3430 0.950 . S
C3408 C3407 1.349 1_554 S
C3408 C3420 1.349 . S
C3409 C3407 1.327 . S
C3409 C3425 1.429 1_556 S
C3409 H3431 0.950 . S
C3410 H3406 0.949 . S
C3410 C3418 1.574 . S
C3410 C3426 1.368 . S
H3411 C3419 0.950 . S
H3412 C3417 0.950 . S
H3413 C3418 0.949 . S
H3414 C3420 0.950 1_545 S
H3415 C3421 0.950 . S
H3416 C3422 0.949 . S
C3417 H3412 0.950 . S
C3417 C3419 1.327 . S
C3417 C3423 1.429 1_556 S
C3418 C3410 1.574 . S
C3418 H3413 0.949 . S
C3418 C3424 1.368 . S
C3419 C3403 1.349 1_556 S
C3419 H3411 0.950 . S
C3419 C3417 1.327 . S
C3420 C3408 1.349 . S
C3420 H3414 0.950 1_565 S
C3420 C3421 1.327 . S
C3421 H3415 0.950 . S
C3421 C3420 1.327 . S
C3421 C3425 1.429 . S
C3422 C3405 1.574 . S
C3422 H3416 0.949 . S
C3422 C3426 1.368 1_556 S
C3423 C3404 1.429 . S
C3423 C3417 1.429 1_554 S
C3423 C3424 1.523 . S
C3424 C3405 1.368 1_554 S
C3424 C3418 1.368 . S
C3424 C3423 1.523 . S
C3425 C3409 1.429 1_554 S
C3425 C3421 1.429 . S
C3425 C3426 1.523 . S
C3426 C3410 1.368 . S
C3426 C3422 1.368 1_554 S
C3426 C3425 1.523 . S
H3427 C3402 0.950 . S
H3428 C3404 0.950 . S
H3429 C3405 0.949 . S
H3430 C3407 0.950 . S
H3431 C3409 0.950 . S
C3432 C3433 1.349 . S
C3432 C3434 1.327 . S
C3432 H3457 0.950 . S
C3433 C3432 1.349 . S
C3433 C3449 1.349 . S
C3434 C3432 1.327 . S
C3434 C3453 1.429 . S
C3434 H3458 0.950 . S
C3435 C3452 1.574 . S
C3435 C3454 1.368 . S
C3435 H3459 0.949 . S
H3436 C3440 0.949 . S
C3437 C3438 1.349 . S
C3437 C3439 1.327 . S
C3437 H3460 0.950 . S
C3438 C3437 1.349 . S
C3438 C3450 1.349 . S
C3439 C3437 1.327 . S
C3439 C3455 1.429 . S
C3439 H3461 0.950 . S
C3440 H3436 0.949 . S
C3440 C3448 1.574 . S
C3440 C3456 1.368 . S
H3441 C3449 0.950 . S
H3442 C3447 0.950 . S
H3443 C3448 0.949 . S
H3444 C3450 0.950 . S
H3445 C3451 0.950 . S
H3446 C3452 0.949 . S
C3447 H3442 0.950 . S
C3447 C3449 1.327 . S
C3447 C3453 1.429 . S
C3448 C3440 1.574 . S
C3448 H3443 0.949 . S
C3448 C3454 1.368 . S
C3449 C3433 1.349 . S
C3449 H3441 0.950 . S
C3449 C3447 1.327 . S
C3450 C3438 1.349 . S
C3450 H3444 0.950 . S
C3450 C3451 1.327 . S
C3451 H3445 0.950 . S
C3451 C3450 1.327 . S
C3451 C3455 1.429 . S
C3452 C3435 1.574 . S
C3452 H3446 0.949 . S
C3452 C3456 1.368 . S
C3453 C3434 1.429 . S
C3453 C3447 1.429 . S
C3453 C3454 1.523 . S
C3454 C3435 1.368 . S
C3454 C3448 1.368 . S
C3454 C3453 1.523 . S
C3455 C3439 1.429 . S
C3455 C3451 1.429 . S
C3455 C3456 1.523 . S
C3456 C3440 1.368 . S
C3456 C3452 1.368 . S
C3456 C3455 1.523 . S
H3457 C3432 0.950 . S
H3458 C3434 0.950 . S
H3459 C3435 0.949 . S
H3460 C3437 0.950 . S
H3461 C3439 0.950 . S
C3462 C3463 1.349 . S
C3462 C3464 1.327 . S
C3462 H3487 0.950 . S
C3463 C3462 1.349 . S
C3463 C3479 1.349 1_554 S
C3464 C3462 1.327 . S
C3464 C3483 1.429 . S
C3464 H3488 0.950 . S
C3465 C3482 1.574 . S
C3465 C3484 1.368 1_556 S
C3465 H3489 0.949 . S
H3466 C3470 0.949 . S
C3467 C3468 1.349 . S
C3467 C3469 1.327 . S
C3467 H3490 0.950 1_554 S
C3468 C3467 1.349 . S
C3468 C3480 1.349 . S
C3469 C3467 1.327 . S
C3469 C3485 1.429 . S
C3469 H3491 0.950 1_554 S
C3470 H3466 0.949 . S
C3470 C3478 1.574 . S
C3470 C3486 1.368 . S
H3471 C3479 0.950 . S
H3472 C3477 0.950 . S
H3473 C3478 0.949 . S
H3474 C3480 0.950 . S
H3475 C3481 0.950 . S
H3476 C3482 0.949 . S
C3477 H3472 0.950 . S
C3477 C3479 1.327 . S
C3477 C3483 1.429 1_556 S
C3478 C3470 1.574 . S
C3478 H3473 0.949 . S
C3478 C3484 1.368 . S
C3479 C3463 1.349 1_556 S
C3479 H3471 0.950 . S
C3479 C3477 1.327 . S
C3480 C3468 1.349 . S
C3480 H3474 0.950 . S
C3480 C3481 1.327 . S
C3481 H3475 0.950 . S
C3481 C3480 1.327 . S
C3481 C3485 1.429 . S
C3482 C3465 1.574 . S
C3482 H3476 0.949 . S
C3482 C3486 1.368 1_556 S
C3483 C3464 1.429 . S
C3483 C3477 1.429 1_554 S
C3483 C3484 1.523 . S
C3484 C3465 1.368 1_554 S
C3484 C3478 1.368 . S
C3484 C3483 1.523 . S
C3485 C3469 1.429 . S
C3485 C3481 1.429 . S
C3485 C3486 1.523 . S
C3486 C3470 1.368 . S
C3486 C3482 1.368 1_554 S
C3486 C3485 1.523 . S
H3487 C3462 0.950 . S
H3488 C3464 0.950 . S
H3489 C3465 0.949 . S
H3490 C3467 0.950 1_556 S
H3491 C3469 0.950 1_556 S
C3492 C3493 1.349 . S
C3492 C3494 1.327 . S
C3492 H3517 0.950 . S
C3493 C3492 1.349 . S
C3493 C3509 1.349 . S
C3494 C3492 1.327 . S
C3494 C3513 1.429 . S
C3494 H3518 0.950 . S
C3495 C3512 1.574 . S
C3495 C3514 1.368 . S
C3495 H3519 0.949 . S
H3496 C3500 0.949 . S
C3497 C3498 1.349 . S
C3497 C3499 1.327 . S
C3497 H3520 0.950 . S
C3498 C3497 1.349 . S
C3498 C3510 1.349 . S
C3499 C3497 1.327 . S
C3499 C3515 1.429 . S
C3499 H3521 0.950 . S
C3500 H3496 0.949 . S
C3500 C3508 1.574 . S
C3500 C3516 1.368 . S
H3501 C3509 0.950 . S
H3502 C3507 0.950 . S
H3503 C3508 0.949 . S
H3504 C3510 0.950 . S
H3505 C3511 0.950 . S
H3506 C3512 0.949 . S
C3507 H3502 0.950 . S
C3507 C3509 1.327 . S
C3507 C3513 1.429 . S
C3508 C3500 1.574 . S
C3508 H3503 0.949 . S
C3508 C3514 1.368 . S
C3509 C3493 1.349 . S
C3509 H3501 0.950 . S
C3509 C3507 1.327 . S
C3510 C3498 1.349 . S
C3510 H3504 0.950 . S
C3510 C3511 1.327 . S
C3511 H3505 0.950 . S
C3511 C3510 1.327 . S
C3511 C3515 1.429 . S
C3512 C3495 1.574 . S
C3512 H3506 0.949 . S
C3512 C3516 1.368 . S
C3513 C3494 1.429 . S
C3513 C3507 1.429 . S
C3513 C3514 1.523 . S
C3514 C3495 1.368 . S
C3514 C3508 1.368 . S
C3514 C3513 1.523 . S
C3515 C3499 1.429 . S
C3515 C3511 1.429 . S
C3515 C3516 1.523 . S
C3516 C3500 1.368 . S
C3516 C3512 1.368 . S
C3516 C3515 1.523 . S
H3517 C3492 0.950 . S
H3518 C3494 0.950 . S
H3519 C3495 0.949 . S
H3520 C3497 0.950 . S
H3521 C3499 0.950 . S
C3522 C3523 1.349 . S
C3522 C3524 1.327 . S
C3522 H3547 0.950 . S
C3523 C3522 1.349 . S
C3523 C3539 1.349 . S
C3524 C3522 1.327 . S
C3524 C3543 1.429 . S
C3524 H3548 0.950 . S
C3525 C3542 1.574 . S
C3525 C3544 1.368 . S
C3525 H3549 0.949 . S
H3526 C3530 0.949 . S
C3527 C3528 1.349 . S
C3527 C3529 1.327 . S
C3527 H3550 0.950 . S
C3528 C3527 1.349 . S
C3528 C3540 1.349 . S
C3529 C3527 1.327 . S
C3529 C3545 1.429 . S
C3529 H3551 0.950 . S
C3530 H3526 0.949 . S
C3530 C3538 1.574 . S
C3530 C3546 1.368 . S
H3531 C3539 0.950 . S
H3532 C3537 0.950 . S
H3533 C3538 0.949 . S
H3534 C3540 0.950 . S
H3535 C3541 0.950 . S
H3536 C3542 0.949 . S
C3537 H3532 0.950 . S
C3537 C3539 1.327 . S
C3537 C3543 1.429 . S
C3538 C3530 1.574 . S
C3538 H3533 0.949 . S
C3538 C3544 1.368 . S
C3539 C3523 1.349 . S
C3539 H3531 0.950 . S
C3539 C3537 1.327 . S
C3540 C3528 1.349 . S
C3540 H3534 0.950 . S
C3540 C3541 1.327 . S
C3541 H3535 0.950 . S
C3541 C3540 1.327 . S
C3541 C3545 1.429 . S
C3542 C3525 1.574 . S
C3542 H3536 0.949 . S
C3542 C3546 1.368 . S
C3543 C3524 1.429 . S
C3543 C3537 1.429 . S
C3543 C3544 1.523 . S
C3544 C3525 1.368 . S
C3544 C3538 1.368 . S
C3544 C3543 1.523 . S
C3545 C3529 1.429 . S
C3545 C3541 1.429 . S
C3545 C3546 1.523 . S
C3546 C3530 1.368 . S
C3546 C3542 1.368 . S
C3546 C3545 1.523 . S
H3547 C3522 0.950 . S
H3548 C3524 0.950 . S
H3549 C3525 0.949 . S
H3550 C3527 0.950 . S
H3551 C3529 0.950 . S
C678 C351 1.331 . S
C673 C8 1.465 . S
C703 C22 1.424 . S
C708 C370 1.387 . S
C733 C35 1.121 . S
C738 C393 1.038 . S
C768 C413 1.269 . S
C763 C49 1.253 . S
C793 C23 1.695 . S
C798 C434 1.684 . S
C828 C456 1.096 . S
C823 C34 1.179 . S
C858 C478 0.961 . S
C853 C48 0.969 . S
C883 C9 1.487 . S
C888 C496 1.447 . S
C913 C64 1.397 . S
C918 C352 1.357 . S
C943 C77 1.227 . S
C948 C371 1.234 . S
C978 C394 1.335 . S
C973 C92 1.365 . S
C1008 C417 1.360 . S
C1003 C105 1.443 . S
C1033 C63 1.309 . S
C1038 C438 1.234 . S
C1068 C457 1.314 . S
C1063 C78 1.344 . S
C1098 C479 1.339 . S
C1093 C91 1.332 . S
C1128 C497 1.328 . S
C1123 C106 1.346 . S
C1158 C353 1.392 . S
C1153 C107 1.409 . S
C1188 C520 0.973 . S
C1183 C118 0.982 . S
C1213 C135 1.602 . S
C1218 C542 1.576 . S
C1248 C561 1.308 . S
C1243 C146 1.374 . S
C1273 C65 1.413 . S
C1278 C501 1.281 . S
C1308 C395 1.546 1_565 S
C1303 C79 1.560 . S
C1333 C132 1.108 . S
C1338 C583 1.096 . S
C1368 C606 1.134 . S
C1363 C160 1.201 . S
C1393 C177 1.352 . S
C1398 C354 1.250 . S
C1428 C605 1.038 . S
C1423 C188 1.050 . S
C1453 C204 1.534 . S
C1458 C396 1.415 . S
C1483 C219 1.211 . S
C1488 C580 1.176 . S
C1518 C436 1.245 . S
C1513 C190 1.289 . S
C1548 C543 1.133 . S
C1543 C202 1.200 . S
C1578 C476 1.128 . S
C1573 C217 1.136 . S
C1608 C626 1.206 . S
C1603 C175 1.213 . S
C1638 C350 1.239 . S
C1633 C231 1.246 . S
C1663 C246 1.299 . S
C1668 C604 1.263 . S
C1698 C392 1.089 . S
C1693 C259 1.096 . S
C1723 C274 1.399 . S
C1728 C585 1.291 . S
C1753 C232 1.430 . S
C1758 C435 1.314 . S
C1783 C245 1.145 . S
C1788 C539 1.140 . S
C1818 C475 1.110 . S
C1813 C260 1.141 . S
C1843 C273 1.051 . S
C1848 C625 1.042 . S
C1873 C275 1.350 . S
C1878 C349 1.311 . S
C1903 C286 1.221 . S
C1908 C518 1.211 . S
C1933 C303 1.259 . S
C1938 C454 1.224 . S
C1963 C314 1.124 . S
C1968 C564 1.067 . S
C1998 C624 1.206 . S
C1993 C233 1.294 . S
C2028 C391 1.239 . S
C2023 C247 1.276 . S
C2058 C416 1.118 . S
C2053 C300 1.128 . S
C2088 C372 1.178 . S
C2083 C328 1.250 . S
C2113 C36 1.457 . S
C2118 C648 1.325 . S
C2148 C601 1.386 . S
C2143 C50 1.424 . S
C2178 C666 1.029 . S
C2173 C7 1.112 . S
C2203 C21 1.258 . S
C2208 C584 1.274 . S
C2233 C51 1.699 . S
C2238 C521 1.689 1_556 S
C2268 C540 1.086 . S
C2263 C6 1.168 . S
C2298 C562 0.963 . S
C2293 C20 0.971 . S
C2328 C622 1.445 . S
C2323 C37 1.479 . S
C2358 C643 1.272 . S
C2353 C162 1.316 . S
C2383 C119 1.217 . S
C2388 C602 1.222 . S
C2413 C134 1.290 . S
C2418 C667 1.248 . S
C2448 C582 1.345 . S
C2443 C147 1.425 . S
C2478 C519 1.224 . S
C2473 C161 1.300 . S
C2503 C120 1.271 . S
C2508 C541 1.230 . S
C2538 C563 1.325 . S
C2533 C133 1.322 . S
C2563 C148 1.273 . S
C2568 C623 1.258 . S
C2598 C644 1.451 . S
C2593 C149 1.478 . S
C2628 C433 0.900 . S
C2623 C76 0.905 . S
C2658 C458 1.521 . S
C2653 C93 1.537 . S
C2683 C104 1.299 . S
C2688 C477 1.234 . S
C2718 C627 1.331 . S
C2713 C163 1.481 . S
C2743 C121 1.625 . S
C2748 C668 1.600 . S
C2778 C412 1.023 . S
C2773 C90 1.032 . S
C2808 C375 1.065 . S
C2803 C62 1.132 . S
C2833 C203 1.077 . S
C2838 C645 1.027 . S
C2868 C374 1.094 . S
C2863 C216 1.102 . S
C2898 C669 1.182 1_455 S
C2893 C174 1.251 . S
C2923 C191 1.270 . S
C2928 C415 1.233 . S
C2953 C218 1.223 . S
C2958 C517 1.184 . S
C2983 C176 1.480 . S
C2988 C459 1.363 . S
C3013 C189 1.078 . S
C3018 C560 1.075 . S
C3043 C205 1.500 . S
C3048 C500 1.462 . S
C3078 C647 1.219 . S
C3073 C329 1.222 . S
C3103 C288 1.225 . S
C3108 C373 1.186 . S
C3138 C665 1.063 . S
C3133 C301 1.067 . S
C3163 C316 1.320 . S
C3168 C414 1.219 . S
C3193 C330 1.510 . S
C3198 C522 1.388 . S
C3228 C455 1.168 . S
C3223 C287 1.178 . S
C3253 C302 1.219 . S
C3258 C559 1.189 . S
C3288 C499 1.085 . S
C3283 C315 1.084 . S
C3318 C646 1.237 . S
C3313 C317 1.274 . S
C3348 C437 1.199 . S
C3343 C244 1.211 . S
C3373 C261 1.183 . S
C3378 C538 1.150 . S
C3408 C480 1.059 1_554 S
C3403 C272 1.109 . S
C3438 C498 1.271 . S
C3433 C331 1.374 . S
C3463 C289 1.192 . S
C3468 C664 1.158 . S
C3498 C581 1.130 . S
C3493 C258 1.138 . S
C3528 C603 1.194 . S
C3523 C230 1.265 . S
