# Generated by pormake.
# Topology gar, (4,6)-cn, num edge types: 1
# Building blocks:
#     Node 0, Type 0, BuildingBlock: QUQFOY_clean_sbu_3, # of connection points: 4
#     Node 1, Type 0, BuildingBlock: QUQFOY_clean_sbu_3, # of connection points: 4
#     Node 2, Type 0, BuildingBlock: QUQFOY_clean_sbu_3, # of connection points: 4
#     Node 3, Type 0, BuildingBlock: QUQFOY_clean_sbu_3, # of connection points: 4
#     Node 4, Type 0, BuildingBlock: QUQFOY_clean_sbu_3, # of connection points: 4
#     Node 5, Type 0, BuildingBlock: QUQFOY_clean_sbu_3, # of connection points: 4
#     Node 6, Type 0, BuildingBlock: QUQFOY_clean_sbu_3, # of connection points: 4
#     Node 7, Type 0, BuildingBlock: QUQFOY_clean_sbu_3, # of connection points: 4
#     Node 8, Type 0, BuildingBlock: QUQFOY_clean_sbu_3, # of connection points: 4
#     Node 9, Type 0, BuildingBlock: QUQFOY_clean_sbu_3, # of connection points: 4
#     Node 10, Type 0, BuildingBlock: QUQFOY_clean_sbu_3, # of connection points: 4
#     Node 11, Type 0, BuildingBlock: QUQFOY_clean_sbu_3, # of connection points: 4
#     Node 12, Type 0, BuildingBlock: QUQFOY_clean_sbu_3, # of connection points: 4
#     Node 13, Type 0, BuildingBlock: QUQFOY_clean_sbu_3, # of connection points: 4
#     Node 14, Type 0, BuildingBlock: QUQFOY_clean_sbu_3, # of connection points: 4
#     Node 15, Type 0, BuildingBlock: QUQFOY_clean_sbu_3, # of connection points: 4
#     Node 16, Type 0, BuildingBlock: QUQFOY_clean_sbu_3, # of connection points: 4
#     Node 17, Type 0, BuildingBlock: QUQFOY_clean_sbu_3, # of connection points: 4
#     Node 18, Type 0, BuildingBlock: QUQFOY_clean_sbu_3, # of connection points: 4
#     Node 19, Type 0, BuildingBlock: QUQFOY_clean_sbu_3, # of connection points: 4
#     Node 20, Type 0, BuildingBlock: QUQFOY_clean_sbu_3, # of connection points: 4
#     Node 21, Type 0, BuildingBlock: QUQFOY_clean_sbu_3, # of connection points: 4
#     Node 22, Type 0, BuildingBlock: QUQFOY_clean_sbu_3, # of connection points: 4
#     Node 23, Type 0, BuildingBlock: QUQFOY_clean_sbu_3, # of connection points: 4
#     Node 24, Type 1, BuildingBlock: KUMBUR_clean_sbu_0, # of connection points: 6
#     Node 25, Type 1, BuildingBlock: KUMBUR_clean_sbu_0, # of connection points: 6
#     Node 26, Type 1, BuildingBlock: KUMBUR_clean_sbu_0, # of connection points: 6
#     Node 27, Type 1, BuildingBlock: KUMBUR_clean_sbu_0, # of connection points: 6
#     Node 28, Type 1, BuildingBlock: KUMBUR_clean_sbu_0, # of connection points: 6
#     Node 29, Type 1, BuildingBlock: KUMBUR_clean_sbu_0, # of connection points: 6
#     Node 30, Type 1, BuildingBlock: KUMBUR_clean_sbu_0, # of connection points: 6
#     Node 31, Type 1, BuildingBlock: KUMBUR_clean_sbu_0, # of connection points: 6
#     Node 32, Type 1, BuildingBlock: KUMBUR_clean_sbu_0, # of connection points: 6
#     Node 33, Type 1, BuildingBlock: KUMBUR_clean_sbu_0, # of connection points: 6
#     Node 34, Type 1, BuildingBlock: KUMBUR_clean_sbu_0, # of connection points: 6
#     Node 35, Type 1, BuildingBlock: KUMBUR_clean_sbu_0, # of connection points: 6
#     Node 36, Type 1, BuildingBlock: KUMBUR_clean_sbu_0, # of connection points: 6
#     Node 37, Type 1, BuildingBlock: KUMBUR_clean_sbu_0, # of connection points: 6
#     Node 38, Type 1, BuildingBlock: KUMBUR_clean_sbu_0, # of connection points: 6
#     Node 39, Type 1, BuildingBlock: KUMBUR_clean_sbu_0, # of connection points: 6
#     Edge 40, Type (0, 1), BuildingBlock: TEMPAE_clean_linker_10, # of connection points: 2
#     Edge 41, Type (0, 1), BuildingBlock: TEMPAE_clean_linker_10, # of connection points: 2
#     Edge 42, Type (0, 1), BuildingBlock: TEMPAE_clean_linker_10, # of connection points: 2
#     Edge 43, Type (0, 1), BuildingBlock: TEMPAE_clean_linker_10, # of connection points: 2
#     Edge 44, Type (0, 1), BuildingBlock: TEMPAE_clean_linker_10, # of connection points: 2
#     Edge 45, Type (0, 1), BuildingBlock: TEMPAE_clean_linker_10, # of connection points: 2
#     Edge 46, Type (0, 1), BuildingBlock: TEMPAE_clean_linker_10, # of connection points: 2
#     Edge 47, Type (0, 1), BuildingBlock: TEMPAE_clean_linker_10, # of connection points: 2
#     Edge 48, Type (0, 1), BuildingBlock: TEMPAE_clean_linker_10, # of connection points: 2
#     Edge 49, Type (0, 1), BuildingBlock: TEMPAE_clean_linker_10, # of connection points: 2
#     Edge 50, Type (0, 1), BuildingBlock: TEMPAE_clean_linker_10, # of connection points: 2
#     Edge 51, Type (0, 1), BuildingBlock: TEMPAE_clean_linker_10, # of connection points: 2
#     Edge 52, Type (0, 1), BuildingBlock: TEMPAE_clean_linker_10, # of connection points: 2
#     Edge 53, Type (0, 1), BuildingBlock: TEMPAE_clean_linker_10, # of connection points: 2
#     Edge 54, Type (0, 1), BuildingBlock: TEMPAE_clean_linker_10, # of connection points: 2
#     Edge 55, Type (0, 1), BuildingBlock: TEMPAE_clean_linker_10, # of connection points: 2
#     Edge 56, Type (0, 1), BuildingBlock: TEMPAE_clean_linker_10, # of connection points: 2
#     Edge 57, Type (0, 1), BuildingBlock: TEMPAE_clean_linker_10, # of connection points: 2
#     Edge 58, Type (0, 1), BuildingBlock: TEMPAE_clean_linker_10, # of connection points: 2
#     Edge 59, Type (0, 1), BuildingBlock: TEMPAE_clean_linker_10, # of connection points: 2
#     Edge 60, Type (0, 1), BuildingBlock: TEMPAE_clean_linker_10, # of connection points: 2
#     Edge 61, Type (0, 1), BuildingBlock: TEMPAE_clean_linker_10, # of connection points: 2
#     Edge 62, Type (0, 1), BuildingBlock: TEMPAE_clean_linker_10, # of connection points: 2
#     Edge 63, Type (0, 1), BuildingBlock: TEMPAE_clean_linker_10, # of connection points: 2
#     Edge 64, Type (0, 1), BuildingBlock: TEMPAE_clean_linker_10, # of connection points: 2
#     Edge 65, Type (0, 1), BuildingBlock: TEMPAE_clean_linker_10, # of connection points: 2
#     Edge 66, Type (0, 1), BuildingBlock: TEMPAE_clean_linker_10, # of connection points: 2
#     Edge 67, Type (0, 1), BuildingBlock: TEMPAE_clean_linker_10, # of connection points: 2
#     Edge 68, Type (0, 1), BuildingBlock: TEMPAE_clean_linker_10, # of connection points: 2
#     Edge 69, Type (0, 1), BuildingBlock: TEMPAE_clean_linker_10, # of connection points: 2
#     Edge 70, Type (0, 1), BuildingBlock: TEMPAE_clean_linker_10, # of connection points: 2
#     Edge 71, Type (0, 1), BuildingBlock: TEMPAE_clean_linker_10, # of connection points: 2
#     Edge 72, Type (0, 1), BuildingBlock: TEMPAE_clean_linker_10, # of connection points: 2
#     Edge 73, Type (0, 1), BuildingBlock: TEMPAE_clean_linker_10, # of connection points: 2
#     Edge 74, Type (0, 1), BuildingBlock: TEMPAE_clean_linker_10, # of connection points: 2
#     Edge 75, Type (0, 1), BuildingBlock: TEMPAE_clean_linker_10, # of connection points: 2
#     Edge 76, Type (0, 1), BuildingBlock: TEMPAE_clean_linker_10, # of connection points: 2
#     Edge 77, Type (0, 1), BuildingBlock: TEMPAE_clean_linker_10, # of connection points: 2
#     Edge 78, Type (0, 1), BuildingBlock: TEMPAE_clean_linker_10, # of connection points: 2
#     Edge 79, Type (0, 1), BuildingBlock: TEMPAE_clean_linker_10, # of connection points: 2
#     Edge 80, Type (0, 1), BuildingBlock: TEMPAE_clean_linker_10, # of connection points: 2
#     Edge 81, Type (0, 1), BuildingBlock: TEMPAE_clean_linker_10, # of connection points: 2
#     Edge 82, Type (0, 1), BuildingBlock: TEMPAE_clean_linker_10, # of connection points: 2
#     Edge 83, Type (0, 1), BuildingBlock: TEMPAE_clean_linker_10, # of connection points: 2
#     Edge 84, Type (0, 1), BuildingBlock: TEMPAE_clean_linker_10, # of connection points: 2
#     Edge 85, Type (0, 1), BuildingBlock: TEMPAE_clean_linker_10, # of connection points: 2
#     Edge 86, Type (0, 1), BuildingBlock: TEMPAE_clean_linker_10, # of connection points: 2
#     Edge 87, Type (0, 1), BuildingBlock: TEMPAE_clean_linker_10, # of connection points: 2
#     Edge 88, Type (0, 1), BuildingBlock: TEMPAE_clean_linker_10, # of connection points: 2
#     Edge 89, Type (0, 1), BuildingBlock: TEMPAE_clean_linker_10, # of connection points: 2
#     Edge 90, Type (0, 1), BuildingBlock: TEMPAE_clean_linker_10, # of connection points: 2
#     Edge 91, Type (0, 1), BuildingBlock: TEMPAE_clean_linker_10, # of connection points: 2
#     Edge 92, Type (0, 1), BuildingBlock: TEMPAE_clean_linker_10, # of connection points: 2
#     Edge 93, Type (0, 1), BuildingBlock: TEMPAE_clean_linker_10, # of connection points: 2
#     Edge 94, Type (0, 1), BuildingBlock: TEMPAE_clean_linker_10, # of connection points: 2
#     Edge 95, Type (0, 1), BuildingBlock: TEMPAE_clean_linker_10, # of connection points: 2
#     Edge 96, Type (0, 1), BuildingBlock: TEMPAE_clean_linker_10, # of connection points: 2
#     Edge 97, Type (0, 1), BuildingBlock: TEMPAE_clean_linker_10, # of connection points: 2
#     Edge 98, Type (0, 1), BuildingBlock: TEMPAE_clean_linker_10, # of connection points: 2
#     Edge 99, Type (0, 1), BuildingBlock: TEMPAE_clean_linker_10, # of connection points: 2
#     Edge 100, Type (0, 1), BuildingBlock: TEMPAE_clean_linker_10, # of connection points: 2
#     Edge 101, Type (0, 1), BuildingBlock: TEMPAE_clean_linker_10, # of connection points: 2
#     Edge 102, Type (0, 1), BuildingBlock: TEMPAE_clean_linker_10, # of connection points: 2
#     Edge 103, Type (0, 1), BuildingBlock: TEMPAE_clean_linker_10, # of connection points: 2
#     Edge 104, Type (0, 1), BuildingBlock: TEMPAE_clean_linker_10, # of connection points: 2
#     Edge 105, Type (0, 1), BuildingBlock: TEMPAE_clean_linker_10, # of connection points: 2
#     Edge 106, Type (0, 1), BuildingBlock: TEMPAE_clean_linker_10, # of connection points: 2
#     Edge 107, Type (0, 1), BuildingBlock: TEMPAE_clean_linker_10, # of connection points: 2
#     Edge 108, Type (0, 1), BuildingBlock: TEMPAE_clean_linker_10, # of connection points: 2
#     Edge 109, Type (0, 1), BuildingBlock: TEMPAE_clean_linker_10, # of connection points: 2
#     Edge 110, Type (0, 1), BuildingBlock: TEMPAE_clean_linker_10, # of connection points: 2
#     Edge 111, Type (0, 1), BuildingBlock: TEMPAE_clean_linker_10, # of connection points: 2
#     Edge 112, Type (0, 1), BuildingBlock: TEMPAE_clean_linker_10, # of connection points: 2
#     Edge 113, Type (0, 1), BuildingBlock: TEMPAE_clean_linker_10, # of connection points: 2
#     Edge 114, Type (0, 1), BuildingBlock: TEMPAE_clean_linker_10, # of connection points: 2
#     Edge 115, Type (0, 1), BuildingBlock: TEMPAE_clean_linker_10, # of connection points: 2
#     Edge 116, Type (0, 1), BuildingBlock: TEMPAE_clean_linker_10, # of connection points: 2
#     Edge 117, Type (0, 1), BuildingBlock: TEMPAE_clean_linker_10, # of connection points: 2
#     Edge 118, Type (0, 1), BuildingBlock: TEMPAE_clean_linker_10, # of connection points: 2
#     Edge 119, Type (0, 1), BuildingBlock: TEMPAE_clean_linker_10, # of connection points: 2
#     Edge 120, Type (0, 1), BuildingBlock: TEMPAE_clean_linker_10, # of connection points: 2
#     Edge 121, Type (0, 1), BuildingBlock: TEMPAE_clean_linker_10, # of connection points: 2
#     Edge 122, Type (0, 1), BuildingBlock: TEMPAE_clean_linker_10, # of connection points: 2
#     Edge 123, Type (0, 1), BuildingBlock: TEMPAE_clean_linker_10, # of connection points: 2
#     Edge 124, Type (0, 1), BuildingBlock: TEMPAE_clean_linker_10, # of connection points: 2
#     Edge 125, Type (0, 1), BuildingBlock: TEMPAE_clean_linker_10, # of connection points: 2
#     Edge 126, Type (0, 1), BuildingBlock: TEMPAE_clean_linker_10, # of connection points: 2
#     Edge 127, Type (0, 1), BuildingBlock: TEMPAE_clean_linker_10, # of connection points: 2
#     Edge 128, Type (0, 1), BuildingBlock: TEMPAE_clean_linker_10, # of connection points: 2
#     Edge 129, Type (0, 1), BuildingBlock: TEMPAE_clean_linker_10, # of connection points: 2
#     Edge 130, Type (0, 1), BuildingBlock: TEMPAE_clean_linker_10, # of connection points: 2
#     Edge 131, Type (0, 1), BuildingBlock: TEMPAE_clean_linker_10, # of connection points: 2
#     Edge 132, Type (0, 1), BuildingBlock: TEMPAE_clean_linker_10, # of connection points: 2
#     Edge 133, Type (0, 1), BuildingBlock: TEMPAE_clean_linker_10, # of connection points: 2
#     Edge 134, Type (0, 1), BuildingBlock: TEMPAE_clean_linker_10, # of connection points: 2
#     Edge 135, Type (0, 1), BuildingBlock: TEMPAE_clean_linker_10, # of connection points: 2
# Relax obj value: 0.121
# Max RMSD: 0.327
# Mean RMSD: 0.148
data_MOF--net-gar--node1-QUQFOY_clean_sbu_3--node2-KUMBUR_clean_sbu_0--edge1-TEMPAE_clean_linker_10
_symmetry_space_group_name_H-M    P1
_symmetry_Int_Tables_number       1
_symmetry_cell_setting            triclinic
loop_
_symmetry_equiv_pos_as_xyz
'x, y, z'
_cell_length_a     62.205636
_cell_length_b     58.243835
_cell_length_c     57.731874
_cell_angle_alpha  101.23775
_cell_angle_beta   93.314235
_cell_angle_gamma 102.6011
loop_
_atom_site_label
_atom_site_type_symbol
_atom_site_fract_x
_atom_site_fract_y
_atom_site_fract_z
_atom_type_partial_charge
C0 C 0.07775 0.33093 0.35276 0.0
O1 O 0.09117 0.34029 0.33954 0.0
Cd2 Cd 0.12991 0.3501 0.34531 0.0
O3 O 0.08446 0.32269 0.37004 0.0
Cd4 Cd 0.11961 0.31713 0.38784 0.0
C5 C 0.12905 0.37659 0.40443 0.0
O6 O 0.13708 0.31468 0.35302 0.0
O7 O 0.1594 0.3217 0.38485 0.0
O8 O 0.10028 0.27681 0.3894 0.0
C9 C 0.15673 0.3193 0.36251 0.0
O10 O 0.13255 0.37771 0.38311 0.0
C11 C 0.10891 0.27817 0.41027 0.0
O12 O 0.1238 0.35666 0.41097 0.0
O13 O 0.12241 0.29771 0.42054 0.0
C14 C 0.97084 0.7543 0.69732 0.0
O15 O 0.98248 0.7438 0.7085 0.0
Cd16 Cd 0.01753 0.73675 0.69932 0.0
O17 O 0.97676 0.76222 0.67915 0.0
Cd18 Cd 0.00617 0.76271 0.65424 0.0
C19 C 0.997 0.70281 0.64374 0.0
O20 O 0.0352 0.7706 0.68496 0.0
O21 O 0.04464 0.76237 0.64956 0.0
O22 O 0.00304 0.80121 0.64681 0.0
C23 C 0.05016 0.76702 0.67171 0.0
O24 O 0.00652 0.70475 0.66441 0.0
C25 C 0.00351 0.7943 0.62461 0.0
O26 O 0.99326 0.721 0.63658 0.0
O27 O 0.00375 0.77249 0.61652 0.0
C28 C 0.57625 0.83202 0.85374 0.0
O29 O 0.58954 0.83922 0.83934 0.0
Cd30 Cd 0.62831 0.84616 0.84225 0.0
O31 O 0.58296 0.82546 0.87214 0.0
Cd32 Cd 0.61807 0.82073 0.8906 0.0
C33 C 0.63356 0.88102 0.89865 0.0
O34 O 0.63327 0.81226 0.85536 0.0
O35 O 0.6572 0.82116 0.88613 0.0
O36 O 0.6004 0.78102 0.8947 0.0
C37 C 0.65322 0.81635 0.86369 0.0
O38 O 0.63609 0.87891 0.87667 0.0
C39 C 0.60566 0.7852 0.91697 0.0
O40 O 0.62647 0.86291 0.90773 0.0
O41 O 0.61671 0.80624 0.927 0.0
C42 C 0.47507 0.25834 0.20026 0.0
O43 O 0.48904 0.25088 0.21194 0.0
Cd44 Cd 0.52369 0.24545 0.19962 0.0
O45 O 0.47856 0.26367 0.18028 0.0
Cd46 Cd 0.50602 0.26392 0.15254 0.0
C47 C 0.50086 0.20516 0.14721 0.0
O48 O 0.53788 0.2771 0.18061 0.0
O49 O 0.54369 0.26219 0.14504 0.0
O50 O 0.50118 0.30145 0.144 0.0
C51 C 0.55152 0.27136 0.16639 0.0
O52 O 0.51228 0.2105 0.16738 0.0
C53 C 0.50005 0.29386 0.12169 0.0
O54 O 0.49422 0.22107 0.13834 0.0
O55 O 0.49982 0.27183 0.11404 0.0
C56 C 0.05854 0.80645 0.14831 0.0
O57 O 0.0702 0.79698 0.16074 0.0
Cd58 Cd 0.10565 0.78918 0.15532 0.0
O59 O 0.06591 0.81458 0.13047 0.0
Cd60 Cd 0.10191 0.82013 0.10997 0.0
C61 C 0.09586 0.75706 0.09619 0.0
O62 O 0.1253 0.82521 0.1472 0.0
O63 O 0.14433 0.8249 0.1176 0.0
O64 O 0.10331 0.86362 0.10846 0.0
C65 C 0.14409 0.82565 0.13976 0.0
O66 O 0.10008 0.75931 0.1185 0.0
C67 C 0.09701 0.86059 0.08652 0.0
O68 O 0.09438 0.77544 0.08745 0.0
O69 O 0.09362 0.839 0.07475 0.0
C70 C 0.4791 0.76798 0.39123 0.0
O71 O 0.49514 0.7773 0.38088 0.0
Cd72 Cd 0.53308 0.78782 0.3946 0.0
O73 O 0.48315 0.76042 0.41027 0.0
Cd74 Cd 0.52119 0.75971 0.4347 0.0
C75 C 0.52941 0.82135 0.4504 0.0
O76 O 0.54482 0.75347 0.40198 0.0
O77 O 0.56231 0.77393 0.43517 0.0
O78 O 0.51079 0.71593 0.43805 0.0
C79 C 0.5633 0.7626 0.41431 0.0
O80 O 0.53426 0.82 0.42913 0.0
C81 C 0.51982 0.71877 0.45907 0.0
O82 O 0.52323 0.80217 0.45842 0.0
O83 O 0.52766 0.74057 0.46972 0.0
C84 C 0.55504 0.3052 0.64462 0.0
O85 O 0.56532 0.295 0.65764 0.0
Cd86 Cd 0.60164 0.28829 0.65293 0.0
O87 O 0.56406 0.31372 0.62783 0.0
Cd88 Cd 0.60057 0.31899 0.60953 0.0
C89 C 0.5925 0.2567 0.59401 0.0
O90 O 0.62381 0.32523 0.64786 0.0
O91 O 0.64193 0.32169 0.61758 0.0
O92 O 0.58728 0.35607 0.60712 0.0
C93 C 0.64223 0.32408 0.63995 0.0
O94 O 0.5973 0.25816 0.61609 0.0
C95 C 0.59497 0.35988 0.58799 0.0
O96 O 0.59076 0.27537 0.58602 0.0
O97 O 0.60609 0.34521 0.57855 0.0
C98 C 0.97718 0.26732 0.89043 0.0
O99 O 0.9923 0.27824 0.87996 0.0
Cd100 Cd 0.03089 0.29033 0.89211 0.0
O101 O 0.9823 0.26007 0.90934 0.0
Cd102 Cd 0.02084 0.26122 0.93351 0.0
C103 C 0.03095 0.32366 0.94884 0.0
O104 O 0.0423 0.25584 0.89868 0.0
O105 O 0.06209 0.27109 0.93188 0.0
O106 O 0.00926 0.21795 0.93924 0.0
C107 C 0.06147 0.26256 0.90986 0.0
O108 O 0.03597 0.32223 0.92761 0.0
C109 C 0.02063 0.22122 0.95915 0.0
O110 O 0.02309 0.30447 0.95633 0.0
O111 O 0.03027 0.243 0.96823 0.0
C112 C 0.45909 0.04474 0.34052 0.0
O113 O 0.46767 0.03245 0.32458 0.0
Cd114 Cd 0.45136 0.0157 0.28562 0.0
O115 O 0.44102 0.05053 0.33646 0.0
Cd116 Cd 0.41531 0.04897 0.30411 0.0
C117 C 0.39811 0.99047 0.29689 0.0
O118 O 0.44136 0.04984 0.27671 0.0
O119 O 0.4081 0.0452 0.2607 0.0
O120 O 0.4199 0.09078 0.31866 0.0
C121 C 0.42846 0.04703 0.2582 0.0
O122 O 0.41683 0.98856 0.28992 0.0
C123 C 0.39928 0.08931 0.31881 0.0
O124 O 0.39334 0.01062 0.30361 0.0
O125 O 0.38648 0.06842 0.31452 0.0
C126 C 0.32684 0.15548 0.51747 0.0
O127 O 0.31168 0.14397 0.52751 0.0
Cd128 Cd 0.27547 0.15001 0.53206 0.0
O129 O 0.32367 0.17272 0.50807 0.0
Cd130 Cd 0.29122 0.19095 0.50202 0.0
C131 C 0.28769 0.20996 0.56091 0.0
O132 O 0.26357 0.15312 0.49365 0.0
O133 O 0.24976 0.18413 0.49718 0.0
O134 O 0.29761 0.18982 0.46102 0.0
C135 C 0.24645 0.16134 0.49259 0.0
O136 O 0.27908 0.18788 0.56028 0.0
C137 C 0.30128 0.2123 0.46215 0.0
O138 O 0.29546 0.21668 0.5427 0.0
O139 O 0.3009 0.2256 0.48233 0.0
C140 C 0.14332 0.01512 0.8172 0.0
O141 O 0.13267 0.02531 0.80456 0.0
Cd142 Cd 0.14606 0.03455 0.76778 0.0
O143 O 0.16001 0.00743 0.80849 0.0
Cd144 Cd 0.17999 1.00403 0.76493 0.0
C145 C 0.19945 0.06951 0.7754 0.0
O146 O 0.14439 1.00082 0.73446 0.0
O147 O 0.17503 0.0121 0.72119 0.0
O148 O 0.18462 0.95843 0.76407 0.0
C149 C 0.15403 0.00697 0.71691 0.0
O150 O 0.1788 0.06891 0.7738 0.0
C151 C 0.20552 0.96105 0.76363 0.0
O152 O 0.20557 0.04944 0.77383 0.0
O153 O 0.21499 0.98271 0.76304 0.0
C154 C 0.36519 0.98402 0.01089 0.0
O155 O 0.35667 0.9954 0.99764 0.0
Cd156 Cd 0.32101 0.97536 0.97764 0.0
O157 O 0.35445 0.96427 0.01485 0.0
Cd158 Cd 0.32036 0.93484 0.01135 0.0
C159 C 0.33364 0.92023 0.95651 0.0
O160 O 0.30224 0.96493 0.01011 0.0
O161 O 0.28035 0.92943 0.00378 0.0
O162 O 0.3332 0.93913 0.05221 0.0
C163 C 0.28276 0.95201 0.00647 0.0
O164 O 0.3301 0.94004 0.95281 0.0
C165 C 0.32433 0.91744 0.05257 0.0
O166 O 0.33095 0.91419 0.97629 0.0
O167 O 0.31372 0.90389 0.03355 0.0
C168 C 0.36256 0.43016 0.03486 0.0
O169 O 0.35039 0.43856 0.0219 0.0
Cd170 Cd 0.31184 0.42395 0.00971 0.0
O171 O 0.3543 0.41151 0.0429 0.0
Cd172 Cd 0.31521 0.38495 0.03978 0.0
C173 C 0.30873 0.36588 0.97956 0.0
O174 O 0.29563 0.41704 0.04438 0.0
O175 O 0.27485 0.38183 0.03031 0.0
O176 O 0.31317 0.38537 0.08182 0.0
C177 C 0.27625 0.40403 0.03851 0.0
O178 O 0.30584 0.38688 0.9797 0.0
C179 C 0.31216 0.36323 0.08063 0.0
O180 O 0.31435 0.36005 0.99886 0.0
O181 O 0.31373 0.35071 0.0604 0.0
C182 C 0.8196 0.10936 0.04356 0.0
O183 O 0.80537 0.09898 0.05554 0.0
Cd184 Cd 0.76633 0.09974 0.05555 0.0
O185 O 0.81452 0.12237 0.02982 0.0
Cd186 Cd 0.7843 0.13739 0.01758 0.0
C187 C 0.77278 0.16001 0.07368 0.0
O188 O 0.75785 0.10077 0.01538 0.0
O189 O 0.74678 0.12661 0.99881 0.0
O190 O 0.79851 0.14548 0.98103 0.0
C191 C 0.74188 0.1072 0.00607 0.0
O192 O 0.76528 0.13928 0.078 0.0
C193 C 0.79504 0.1666 0.98549 0.0
O194 O 0.78101 0.16255 0.05448 0.0
O195 O 0.78883 0.1741 0.00557 0.0
C196 C 0.17195 0.53975 0.27758 0.0
O197 O 0.15919 0.5491 0.26639 0.0
Cd198 Cd 0.16061 0.55715 0.22829 0.0
O199 O 0.1879 0.53228 0.26847 0.0
Cd200 Cd 0.20056 0.52906 0.22916 0.0
C201 C 0.21538 0.58743 0.2365 0.0
O202 O 0.16658 0.52069 0.20851 0.0
O203 O 0.19364 0.52992 0.18771 0.0
O204 O 0.20036 0.48883 0.22848 0.0
C205 C 0.17297 0.52346 0.18875 0.0
O206 O 0.19503 0.58667 0.2313 0.0
C207 C 0.21996 0.49112 0.22272 0.0
O208 O 0.22206 0.56895 0.23914 0.0
O209 O 0.23056 0.5118 0.22072 0.0
C210 C 0.86225 0.92922 0.53429 0.0
O211 O 0.85019 0.93853 0.52217 0.0
Cd212 Cd 0.81155 0.92401 0.51028 0.0
O213 O 0.85385 0.91028 0.54184 0.0
Cd214 Cd 0.81452 0.88441 0.5401 0.0
C215 C 0.80928 0.86587 0.48042 0.0
O216 O 0.79683 0.91833 0.54608 0.0
O217 O 0.77432 0.88383 0.53476 0.0
O218 O 0.82554 0.88008 0.58054 0.0
C219 C 0.77698 0.90633 0.54188 0.0
O220 O 0.80574 0.88659 0.48041 0.0
C221 C 0.81218 0.85982 0.57884 0.0
O222 O 0.81511 0.86029 0.49975 0.0
O223 O 0.80103 0.85034 0.55887 0.0
C224 C 0.97437 0.06174 0.32241 0.0
O225 O 0.98242 0.04954 0.30588 0.0
Cd226 Cd 0.96955 0.03944 0.26408 0.0
O227 O 0.95875 0.07197 0.31621 0.0
Cd228 Cd 0.9363 0.07409 0.27123 0.0
C229 C 0.91563 0.00857 0.2646 0.0
O230 O 0.97105 0.07396 0.24599 0.0
O231 O 0.94055 0.06806 0.225 0.0
O232 O 0.92967 0.11944 0.28371 0.0
C233 C 0.96139 0.07072 0.22513 0.0
O234 O 0.9354 0.00805 0.26039 0.0
C235 C 0.90996 0.11613 0.27383 0.0
O236 O 0.91059 0.02929 0.26967 0.0
O237 O 0.90199 0.0941 0.26372 0.0
C238 C 0.32378 0.61392 0.53986 0.0
O239 O 0.31233 0.60623 0.55546 0.0
Cd240 Cd 0.27391 0.60857 0.5567 0.0
O241 O 0.31624 0.62493 0.52568 0.0
Cd242 Cd 0.28562 0.64077 0.52069 0.0
C243 C 0.28265 0.66791 0.57515 0.0
O244 O 0.256 0.60476 0.51778 0.0
O245 O 0.2479 0.63967 0.5211 0.0
O246 O 0.28527 0.64107 0.47923 0.0
C247 C 0.24144 0.61695 0.51695 0.0
O248 O 0.27233 0.64774 0.57867 0.0
C249 C 0.29142 0.66385 0.48287 0.0
O250 O 0.29239 0.66973 0.55675 0.0
O251 O 0.29607 0.67558 0.50414 0.0
C252 C 0.47399 0.56272 0.82202 0.0
O253 O 0.48381 0.55099 0.80694 0.0
Cd254 Cd 0.47062 0.53865 0.76505 0.0
O255 O 0.45775 0.57121 0.81419 0.0
Cd256 Cd 0.43593 0.57287 0.76922 0.0
C257 C 0.41607 0.50747 0.7647 0.0
O258 O 0.47114 0.57219 0.74528 0.0
O259 O 0.44103 0.56618 0.72344 0.0
O260 O 0.43016 0.61863 0.78143 0.0
C261 C 0.46187 0.56854 0.72416 0.0
O262 O 0.43637 0.50725 0.76307 0.0
C263 C 0.41044 0.61575 0.77179 0.0
O264 O 0.41035 0.52784 0.76697 0.0
O265 O 0.40206 0.59377 0.76177 0.0
C266 C 0.67434 0.04381 0.77697 0.0
O267 O 0.66177 0.05447 0.76719 0.0
Cd268 Cd 0.66123 0.06155 0.7287 0.0
O269 O 0.68863 0.03452 0.76615 0.0
Cd270 Cd 0.70012 0.03137 0.72615 0.0
C271 C 0.71598 0.09086 0.73873 0.0
O272 O 0.66406 0.02247 0.71078 0.0
O273 O 0.68716 0.02428 0.6843 0.0
O274 O 0.70533 0.99314 0.72863 0.0
C275 C 0.66731 0.01919 0.68924 0.0
O276 O 0.69574 0.09173 0.73653 0.0
C277 C 0.72458 0.99748 0.72188 0.0
O278 O 0.72184 0.07111 0.73526 0.0
O279 O 0.73207 0.01779 0.71684 0.0
C280 C 0.82612 0.65595 0.0171 0.0
O281 O 0.81062 0.64322 0.02571 0.0
Cd282 Cd 0.77345 0.64658 0.02775 0.0
O283 O 0.82287 0.67321 0.00777 0.0
Cd284 Cd 0.79129 0.69227 1.00102 0.0
C285 C 0.78754 0.70513 0.06089 0.0
O286 O 0.76418 0.65434 0.99055 0.0
O287 O 0.75002 0.68502 0.99364 0.0
O288 O 0.80887 0.69573 0.96487 0.0
C289 C 0.7469 0.66228 0.9894 0.0
O290 O 0.77802 0.68293 0.05816 0.0
C291 C 0.80513 0.71595 0.96331 0.0
O292 O 0.79569 0.71369 0.04365 0.0
O293 O 0.79534 0.7259 0.9798 0.0
C294 C 0.9603 0.53679 0.83064 0.0
O295 O 0.96875 0.52979 0.81185 0.0
Cd296 Cd 0.95328 0.52588 0.77314 0.0
O297 O 0.94254 0.54407 0.83052 0.0
Cd298 Cd 0.91624 0.549 0.80178 0.0
C299 C 0.90516 0.49035 0.78369 0.0
O300 O 0.94123 0.56195 0.77628 0.0
O301 O 0.90895 0.54501 0.75839 0.0
O302 O 0.91041 0.58704 0.821 0.0
C303 C 0.92896 0.55494 0.75691 0.0
O304 O 0.92129 0.49261 0.77104 0.0
C305 C 0.88948 0.57914 0.81832 0.0
O306 O 0.90108 0.50794 0.79795 0.0
O307 O 0.88194 0.55656 0.81151 0.0
C308 C 0.86509 0.48241 0.51301 0.0
O309 O 0.85606 0.49482 0.50139 0.0
Cd310 Cd 0.819 0.47624 0.48469 0.0
O311 O 0.8539 0.46347 0.51818 0.0
Cd312 Cd 0.81935 0.43594 0.51892 0.0
C313 C 0.82844 0.41934 0.46311 0.0
O314 O 0.80127 0.46641 0.51795 0.0
O315 O 0.7794 0.43089 0.51195 0.0
O316 O 0.83447 0.44045 0.55928 0.0
C317 C 0.78178 0.45341 0.51406 0.0
O318 O 0.82542 0.43949 0.4598 0.0
C319 C 0.82498 0.41913 0.56034 0.0
O320 O 0.82693 0.41365 0.48318 0.0
O321 O 0.81299 0.40568 0.5421 0.0
C322 C 0.64391 0.51527 0.3157 0.0
O323 O 0.63396 0.52685 0.30394 0.0
Cd324 Cd 0.64523 0.53523 0.26579 0.0
O325 O 0.65976 0.50654 0.30626 0.0
Cd326 Cd 0.68006 0.50404 0.26335 0.0
C327 C 0.6988 0.56969 0.27069 0.0
O328 O 0.64432 0.50101 0.23357 0.0
O329 O 0.67481 0.50978 0.21904 0.0
O330 O 0.68477 0.4581 0.25779 0.0
C331 C 0.6538 0.50588 0.21547 0.0
O332 O 0.67807 0.56857 0.26851 0.0
C333 C 0.70572 0.46152 0.2622 0.0
O334 O 0.70525 0.55003 0.27111 0.0
O335 O 0.71528 0.4839 0.26649 0.0
Tb336 Tb 0.03165 0.02284 0.00735 0.0
C337 C 0.09843 0.1103 0.0696 0.0
C338 C 0.108 0.13752 0.04311 0.0
C339 C 0.11415 0.15296 0.08572 0.0
C340 C 0.09936 0.11415 0.04688 0.0
C341 C 0.10633 0.12956 0.08933 0.0
C342 C 0.11492 0.15694 0.06262 0.0
C343 C 0.10091 0.10076 0.11461 0.0
N344 N 0.09162 0.08736 0.07235 0.0
C345 C 0.09359 0.08228 0.09449 0.0
C346 C 0.10712 0.12456 0.11205 0.0
Tb347 Tb 0.08193 0.05759 0.03854 0.0
N348 N 0.09352 0.09473 0.02858 0.0
C349 C 0.09735 0.09768 0.00601 0.0
C350 C 0.11044 0.14056 0.01993 0.0
C351 C 0.10532 0.12048 1.00134 0.0
H352 H 0.08912 0.06388 0.09666 0.0
H353 H 0.10761 0.12248 0.98332 0.0
H354 H 0.12159 0.17496 0.06004 0.0
H355 H 0.10197 0.09661 0.13205 0.0
H356 H 0.09374 0.08286 0.99099 0.0
H357 H 0.00464 0.96031 0.06441 0.0
H358 H 0.11694 0.15819 0.01629 0.0
H359 H 0.02757 0.01472 0.94879 0.0
H360 H 0.0198 0.99935 0.05589 0.0
H361 H 0.0161 0.9809 0.91405 0.0
H362 H 0.12026 0.16796 0.10063 0.0
H363 H 0.9953 0.92393 0.0322 0.0
H364 H 0.99188 0.90588 0.98878 0.0
H365 H 0.11315 0.13883 0.12763 0.0
H366 H 0.99495 0.91142 0.94786 0.0
N367 N 0.0198 0.98646 0.01846 0.0
C368 C 0.0158 0.98423 0.04115 0.0
C369 C 0.0021 0.9413 0.02814 0.0
C370 C 0.0052 0.94359 0.00486 0.0
C371 C 0.00722 0.96177 0.04632 0.0
C372 C 0.01417 0.96665 1.00053 0.0
H373 H 0.00387 0.93927 0.91986 0.0
N374 N 0.02344 0.99233 0.9741 0.0
C375 C 0.01619 0.97746 0.93181 0.0
C376 C 0.016 0.96971 0.97757 0.0
C377 C 0.02277 0.99654 0.95153 0.0
C378 C 0.00932 0.95399 0.93516 0.0
C379 C 0.00881 0.9499 0.95822 0.0
O380 O 0.00961 0.03598 0.98788 0.0
O381 O 0.05114 0.05942 0.02106 0.0
O382 O 0.05726 0.06623 0.06356 0.0
O383 O 0.02652 0.03591 0.04597 0.0
O384 O 0.03882 0.05026 0.98603 0.0
O385 O 0.9984 0.01751 0.01562 0.0
O386 O 0.10548 0.04561 0.0575 0.0
O387 O 0.06229 0.02117 0.02514 0.0
O388 O 0.05703 0.01329 0.98361 0.0
O389 O 0.08627 0.04585 0.99955 0.0
O390 O 0.07535 0.02984 0.0597 0.0
O391 O 0.11329 0.05996 0.02632 0.0
C392 C 0.04929 0.06797 0.00259 0.0
C393 C 0.97141 0.02004 0.98547 0.0
C394 C 0.93596 0.03064 0.98194 0.0
C395 C 0.95435 0.02861 0.99592 0.0
C396 C 0.93344 0.02062 0.9574 0.0
C397 C 0.96876 0.00992 0.96105 0.0
C398 C 0.94952 0.00968 0.94719 0.0
C399 C 0.03703 0.05306 0.06467 0.0
C400 C 0.9931 0.02845 0.99928 0.0
C401 C 0.00055 0.92683 0.96248 0.0
C402 C 0.99879 0.92368 0.98576 0.0
C403 C 0.06436 0.0123 0.04334 0.0
C404 C 0.14283 0.06116 0.0543 0.0
C405 C 0.15725 0.04621 0.04993 0.0
C406 C 0.1796 0.05436 0.05824 0.0
C407 C 0.18731 0.07746 0.07273 0.0
C408 C 0.15028 0.08439 0.06846 0.0
C409 C 0.17255 0.09239 0.07792 0.0
C410 C 0.07647 0.02752 0.98166 0.0
C411 C 0.12034 0.05098 0.0434 0.0
H412 H 0.95651 0.03572 0.01493 0.0
H413 H 0.91961 0.02199 0.9459 0.0
H414 H 0.98187 1.00341 0.95248 0.0
H415 H 0.94768 1.00233 0.92827 0.0
H416 H 0.15101 0.02804 0.03942 0.0
H417 H 0.20463 0.08407 0.07947 0.0
H418 H 0.1391 0.09616 0.07213 0.0
H419 H 0.17845 0.11027 0.08891 0.0
Tb420 Tb 0.31463 0.78135 0.25177 0.0
C421 C 0.28637 0.85486 0.33325 0.0
C422 C 0.32132 0.87492 0.35637 0.0
C423 C 0.28924 0.89185 0.36262 0.0
C424 C 0.30818 0.85529 0.33939 0.0
C425 C 0.2767 0.87332 0.34449 0.0
C426 C 0.31156 0.8927 0.3685 0.0
C427 C 0.24337 0.8547 0.31813 0.0
N428 N 0.27503 0.83708 0.31516 0.0
C429 C 0.25364 0.83685 0.30756 0.0
C430 C 0.25488 0.87293 0.33683 0.0
Tb431 Tb 0.29071 0.8048 0.30352 0.0
N432 N 0.31696 0.8378 0.32698 0.0
C433 C 0.33971 0.84133 0.32885 0.0
C434 C 0.34406 0.87683 0.35985 0.0
C435 C 0.35334 0.86032 0.34554 0.0
H436 H 0.24386 0.82231 0.29394 0.0
H437 H 0.37112 0.86235 0.34711 0.0
H438 H 0.32133 0.90764 0.38185 0.0
H439 H 0.22642 0.85412 0.31209 0.0
H440 H 0.34801 0.82988 0.31757 0.0
H441 H 0.24412 0.71496 0.20342 0.0
H442 H 0.35471 0.89168 0.37261 0.0
H443 H 0.36736 0.78033 0.2614 0.0
H444 H 0.26197 0.74882 0.2358 0.0
H445 H 0.3919 0.75411 0.24612 0.0
H446 H 0.28204 0.90601 0.37164 0.0
H447 H 0.26633 0.68898 0.18184 0.0
H448 H 0.30339 0.67871 0.17767 0.0
H449 H 0.24686 0.88673 0.34505 0.0
H450 H 0.34344 0.68851 0.19042 0.0
N451 N 0.29478 0.74431 0.23111 0.0
C452 C 0.27222 0.73838 0.22617 0.0
C453 C 0.27442 0.70426 0.19581 0.0
C454 C 0.29722 0.70924 0.20225 0.0
C455 C 0.26186 0.71886 0.20795 0.0
C456 C 0.30698 0.72973 0.22005 0.0
H457 H 0.37649 0.71613 0.21664 0.0
N458 N 0.3378 0.75578 0.2436 0.0
C459 C 0.37426 0.74845 0.24078 0.0
C460 C 0.32931 0.73539 0.22696 0.0
C461 C 0.36022 0.76301 0.2498 0.0
C462 C 0.36553 0.72709 0.22408 0.0
C463 C 0.34283 0.72055 0.2166 0.0
O464 O 0.33918 0.80171 0.2361 0.0
O465 O 0.30755 0.8123 0.27413 0.0
O466 O 0.27391 0.81326 0.27181 0.0
O467 O 0.2828 0.78798 0.23925 0.0
O468 O 0.33965 0.81389 0.26749 0.0
O469 O 0.30759 0.78383 0.21613 0.0
O470 O 0.25707 0.78659 0.30063 0.0
O471 O 0.29058 0.77402 0.27595 0.0
O472 O 0.3334 0.77427 0.28265 0.0
O473 O 0.32128 0.79504 0.31711 0.0
O474 O 0.29051 0.76954 0.31073 0.0
O475 O 0.27571 0.80401 0.33486 0.0
C476 C 0.32615 0.8263 0.27621 0.0
C477 C 0.33855 0.79538 0.19496 0.0
C478 C 0.35107 0.81556 0.16359 0.0
C479 C 0.33613 0.81108 0.18027 0.0
C480 C 0.36751 0.80237 0.16035 0.0
C481 C 0.35495 0.78225 0.19178 0.0
C482 C 0.36915 0.78549 0.17418 0.0
C483 C 0.27018 0.80207 0.24894 0.0
C484 C 0.327 0.79778 0.21618 0.0
C485 C 0.33332 0.70006 0.19878 0.0
C486 C 0.31056 0.69451 0.19147 0.0
C487 C 0.29001 0.75881 0.28893 0.0
C488 C 0.24492 0.77184 0.33423 0.0
C489 C 0.25604 0.76267 0.35076 0.0
C490 C 0.24402 0.74686 0.36322 0.0
C491 C 0.22089 0.73957 0.35878 0.0
C492 C 0.22179 0.76428 0.32957 0.0
C493 C 0.20984 0.74807 0.34174 0.0
C494 C 0.33529 0.78293 0.30614 0.0
C495 C 0.25676 0.79112 0.32364 0.0
H496 H 0.32317 0.82086 0.18284 0.0
H497 H 0.37939 0.80551 0.14767 0.0
H498 H 0.35731 0.7703 0.2033 0.0
H499 H 0.38201 0.77561 0.17188 0.0
H500 H 0.2739 0.76848 0.35465 0.0
H501 H 0.21148 0.72731 0.36845 0.0
H502 H 0.21295 0.77137 0.31695 0.0
H503 H 0.19198 0.74246 0.33829 0.0
Tb504 Tb 0.58635 0.04486 0.51609 0.0
C505 C 0.50051 0.99688 0.55152 0.0
C506 C 0.47958 0.96363 0.52071 0.0
C507 C 0.47459 0.96363 0.5621 0.0
C508 C 0.49523 0.98598 0.52751 0.0
C509 C 0.4899 0.98593 0.56895 0.0
C510 C 0.46944 0.95254 0.53808 0.0
C511 C 0.50843 0.02097 0.59875 0.0
N512 N 0.51518 0.01864 0.55778 0.0
C513 C 0.51823 0.03135 0.58095 0.0
C514 C 0.4944 0.99804 0.59276 0.0
Tb515 Tb 0.529 0.03394 0.52647 0.0
N516 N 0.50533 0.99707 0.51091 0.0
C517 C 0.49991 0.98667 0.48721 0.0
C518 C 0.4745 0.95293 0.49661 0.0
C519 C 0.4847 0.9645 0.47985 0.0
H520 H 0.52889 0.04929 0.58573 0.0
H521 H 0.48071 0.95643 0.46111 0.0
H522 H 0.45746 0.93538 0.5331 0.0
H523 H 0.51151 0.03077 0.61703 0.0
H524 H 0.50677 0.99498 0.47339 0.0
H525 H 0.62903 0.13102 0.5703 0.0
H526 H 0.46266 0.93577 0.49075 0.0
H527 H 0.58973 0.02041 0.4582 0.0
H528 H 0.6052 0.09043 0.56256 0.0
H529 H 0.60481 0.03419 0.42397 0.0
H530 H 0.46638 0.95497 0.57526 0.0
H531 H 0.64429 0.14815 0.53705 0.0
H532 H 0.64703 0.14356 0.49348 0.0
H533 H 0.4866 0.99014 0.60659 0.0
H534 H 0.63998 0.11737 0.45359 0.0
N535 N 0.60619 0.08411 0.52496 0.0
C536 C 0.61122 0.09756 0.54769 0.0
C537 C 0.63331 0.13039 0.53347 0.0
C538 C 0.6282 0.11667 0.51032 0.0
C539 C 0.62483 0.12076 0.55224 0.0
C540 C 0.61471 0.09314 0.50661 0.0
H541 H 0.62443 0.07662 0.42761 0.0
N542 N 0.59936 0.05513 0.48183 0.0
C543 C 0.60655 0.04683 0.44079 0.0
C544 C 0.61103 0.07828 0.48428 0.0
C545 C 0.59796 0.03911 0.46054 0.0
C546 C 0.61757 0.07079 0.4429 0.0
C547 C 0.62035 0.08673 0.46491 0.0
O548 O 0.60113 0.01619 0.52044 0.0
O549 O 0.55655 0.01747 0.51787 0.0
O550 O 0.54834 0.02398 0.55366 0.0
O551 O 0.57979 0.05265 0.55316 0.0
O552 O 0.57602 0.00987 0.49187 0.0
O553 O 0.61927 0.05237 0.53181 0.0
O554 O 0.51635 0.06047 0.54742 0.0
O555 O 0.56103 0.06063 0.53212 0.0
O556 O 0.5675 0.05302 0.48717 0.0
O557 O 0.53266 0.02871 0.48912 0.0
O558 O 0.53429 0.07063 0.51978 0.0
O559 O 0.49783 0.03795 0.51426 0.0
C560 C 0.55851 1.00079 0.50082 0.0
C561 C 0.63887 0.02402 0.51501 0.0
C562 C 0.66627 0.99977 0.50781 0.0
C563 C 0.64864 1.00575 0.52015 0.0
C564 C 0.67363 0.01216 0.49001 0.0
C565 C 0.64661 0.0361 0.49723 0.0
C566 C 0.66375 0.03004 0.48471 0.0
C567 C 0.56778 0.03694 0.56365 0.0
C568 C 0.6204 0.03008 0.52792 0.0
C569 C 0.63281 0.11054 0.46828 0.0
C570 C 0.63683 0.12545 0.49098 0.0
C571 C 0.555 0.07816 0.5261 0.0
C572 C 0.47785 0.05828 0.5424 0.0
C573 C 0.46783 0.07613 0.53676 0.0
C574 C 0.44881 0.08043 0.54706 0.0
C575 C 0.43993 0.06658 0.56319 0.0
C576 C 0.46863 0.04444 0.55826 0.0
C577 C 0.44979 0.04868 0.56868 0.0
C578 C 0.54704 0.04187 0.4783 0.0
C579 C 0.49854 0.05581 0.5324 0.0
H580 H 0.64249 0.99627 0.53371 0.0
H581 H 0.68745 0.00853 0.48053 0.0
H582 H 0.63965 0.05041 0.49314 0.0
H583 H 0.66964 0.03953 0.47109 0.0
H584 H 0.47507 0.08694 0.5246 0.0
H585 H 0.42507 0.06921 0.57117 0.0
H586 H 0.47588 0.0305 0.5627 0.0
H587 H 0.44276 0.03801 0.58098 0.0
Tb588 Tb 0.2798 0.29598 0.76849 0.0
C589 C 0.35268 0.26214 0.81523 0.0
C590 C 0.36962 0.29626 0.84694 0.0
C591 C 0.3693 0.25574 0.8519 0.0
C592 C 0.3579 0.28665 0.82419 0.0
C593 C 0.35889 0.24642 0.82869 0.0
C594 C 0.37465 0.28064 0.86103 0.0
C595 C 0.34656 0.21393 0.79429 0.0
N596 N 0.34301 0.25388 0.79261 0.0
C597 C 0.34091 0.23027 0.7816 0.0
C598 C 0.35526 0.22197 0.81807 0.0
Tb599 Tb 0.33326 0.28189 0.77374 0.0
N600 N 0.3531 0.30114 0.80987 0.0
C601 C 0.36142 0.32557 0.81661 0.0
C602 C 0.37691 0.32124 0.85438 0.0
C603 C 0.37328 0.3359 0.83889 0.0
H604 H 0.33418 0.22401 0.76318 0.0
H605 H 0.37937 0.35525 0.84419 0.0
H606 H 0.3834 0.28767 0.87864 0.0
H607 H 0.34424 0.19518 0.78572 0.0
H608 H 0.35885 0.33759 0.80532 0.0
H609 H 0.23847 0.22669 0.69221 0.0
H610 H 0.38601 0.32932 0.87168 0.0
H611 H 0.27665 0.35253 0.78475 0.0
H612 H 0.26145 0.24246 0.72981 0.0
H613 H 0.2624 0.38251 0.76741 0.0
H614 H 0.37399 0.24394 0.86263 0.0
H615 H 0.22382 0.25415 0.67133 0.0
H616 H 0.22145 0.2962 0.66987 0.0
H617 H 0.3598 0.20932 0.82782 0.0
H618 H 0.22869 0.3389 0.68992 0.0
N619 N 0.2605 0.27923 0.73144 0.0
C620 C 0.25523 0.25502 0.72161 0.0
C621 C 0.23422 0.26136 0.688 0.0
C622 C 0.2394 0.28598 0.698 0.0
C623 C 0.24227 0.24582 0.69983 0.0
C624 C 0.25249 0.29439 0.7201 0.0
H625 H 0.24381 0.37124 0.7264 0.0
N626 N 0.2676 0.32498 0.75331 0.0
C627 C 0.26078 0.36454 0.75696 0.0
C628 C 0.25651 0.31822 0.73128 0.0
C629 C 0.26886 0.34751 0.76669 0.0
C630 C 0.25036 0.35813 0.73379 0.0
C631 C 0.24764 0.33457 0.72084 0.0
O632 O 0.2626 0.30835 0.79708 0.0
O633 O 0.30682 0.29263 0.79172 0.0
O634 O 0.30929 0.25261 0.78532 0.0
O635 O 0.27574 0.25693 0.76886 0.0
O636 O 0.29433 0.32225 0.80105 0.0
O637 O 0.24892 0.27459 0.7734 0.0
O638 O 0.34893 0.26707 0.7451 0.0
O639 O 0.30679 0.28596 0.74987 0.0
O640 O 0.30276 0.3273 0.75944 0.0
O641 O 0.33734 0.32028 0.76996 0.0
O642 O 0.31821 0.25501 0.74244 0.0
O643 O 0.36617 0.29922 0.76939 0.0
C644 C 0.30856 0.31124 0.80774 0.0
C645 C 0.22363 0.29513 0.79281 0.0
C646 C 0.18983 0.29587 0.81278 0.0
C647 C 0.2104 0.28933 0.81098 0.0
C648 C 0.18273 0.30796 0.79603 0.0
C649 C 0.21584 0.30688 0.77626 0.0
C650 C 0.19557 0.31328 0.77791 0.0
C651 C 0.28775 0.2439 0.77806 0.0
C652 C 0.24586 0.28988 0.79185 0.0
C653 C 0.23551 0.3266 0.69832 0.0
C654 C 0.23134 0.30229 0.68694 0.0
C655 C 0.30545 0.26695 0.73426 0.0
C656 C 0.38778 0.27469 0.74769 0.0
C657 C 0.40381 0.28435 0.73353 0.0
C658 C 0.42166 0.2734 0.72782 0.0
C659 C 0.4224 0.25221 0.73594 0.0
C660 C 0.39016 0.25463 0.75668 0.0
C661 C 0.40712 0.24329 0.75057 0.0
C662 C 0.32478 0.33444 0.76368 0.0
C663 C 0.36726 0.2835 0.75038 0.0
H664 H 0.21627 0.28025 0.82389 0.0
H665 H 0.16698 0.31302 0.79676 0.0
H666 H 0.22542 0.31126 0.76209 0.0
H667 H 0.18979 0.32245 0.76507 0.0
H668 H 0.40222 0.30015 0.72696 0.0
H669 H 0.43477 0.2422 0.73094 0.0
H670 H 0.37851 0.24717 0.76781 0.0
H671 H 0.40823 0.22724 0.75692 0.0
Tb672 Tb 0.05415 0.06449 0.53647 0.0
C673 C 0.08176 0.99472 0.45864 0.0
C674 C 0.04947 0.97698 0.43026 0.0
C675 C 0.08618 0.9797 0.41724 0.0
C676 C 0.05912 0.98849 0.45355 0.0
C677 C 0.09561 0.98997 0.44067 0.0
C678 C 0.06312 0.97321 0.41204 0.0
C679 C 0.12688 1.00365 0.47072 0.0
N680 N 0.09018 1.00409 0.48154 0.0
C681 C 0.11244 0.00777 0.48792 0.0
C682 C 0.11846 0.99495 0.44694 0.0
Tb683 Tb 0.06542 0.01111 0.50859 0.0
N684 N 0.04657 0.99193 0.47179 0.0
C685 C 0.02419 0.98219 0.46798 0.0
C686 C 0.02649 0.96857 0.42618 0.0
C687 C 0.01386 0.9707 0.44525 0.0
H688 H 0.11921 0.01461 0.50624 0.0
H689 H 0.99612 0.96345 0.44252 0.0
H690 H 0.056 0.96458 0.39404 0.0
H691 H 0.1445 0.00715 0.47584 0.0
H692 H 0.01382 0.98275 0.48214 0.0
H693 H 0.12137 0.1 0.60738 0.0
H694 H 0.01845 0.95958 0.40861 0.0
H695 H 0.00059 0.06428 0.53503 0.0
H696 H 0.10485 0.0801 0.56729 0.0
H697 H 0.97505 0.07788 0.56261 0.0
H698 H 0.09653 0.97605 0.40316 0.0
H699 H 0.09797 0.11341 0.63795 0.0
H700 H 0.06036 0.11768 0.64865 0.0
H701 H 0.12966 0.99157 0.43366 0.0
H702 H 0.0206 0.11168 0.63653 0.0
N703 N 0.07158 0.08106 0.57423 0.0
C704 C 0.09403 0.08552 0.58002 0.0
C705 C 0.09043 0.10443 0.62019 0.0
C706 C 0.06764 0.10054 0.61415 0.0
C707 C 0.10367 0.09694 0.60299 0.0
C708 C 0.05862 0.08867 0.59077 0.0
H709 H 0.98869 0.09686 0.60455 0.0
N710 N 0.02854 0.07442 0.56119 0.0
C711 C 0.99224 0.07996 0.5689 0.0
C712 C 0.03634 0.08523 0.58402 0.0
C713 C 0.00684 0.07223 0.5533 0.0
C714 C 0.99998 0.09064 0.59256 0.0
C715 C 0.02232 0.0936 0.60035 0.0
O716 O 0.04228 0.08772 0.5185 0.0
O717 O 0.05333 0.04142 0.50133 0.0
O718 O 0.08675 0.03957 0.49495 0.0
O719 O 0.08868 0.0691 0.52822 0.0
O720 O 0.02641 0.05408 0.5076 0.0
O721 O 0.07394 0.09969 0.53978 0.0
O722 O 0.08237 0.98772 0.52066 0.0
O723 O 0.06587 0.03352 0.5442 0.0
O724 O 0.03042 0.03744 0.54912 0.0
O725 O 0.03078 0.00637 0.51745 0.0
O726 O 0.0935 0.02238 0.53649 0.0
O727 O 0.04664 0.97773 0.51252 0.0
C728 C 0.03453 0.04158 0.49091 0.0
C729 C 0.05536 0.12913 0.53127 0.0
C730 C 0.05735 0.16582 0.51666 0.0
C731 C 0.06503 0.14512 0.51769 0.0
C732 C 0.0408 0.17116 0.53107 0.0
C733 C 0.03903 0.1346 0.54568 0.0
C734 C 0.03203 0.15582 0.54581 0.0
C735 C 0.09683 0.06045 0.5087 0.0
C736 C 0.0596 0.1052 0.52583 0.0
C737 C 0.0311 0.1051 0.62374 0.0
C738 C 0.05373 0.10853 0.63063 0.0
C739 C 0.08477 0.03265 0.55405 0.0
C740 C 0.06527 0.94658 0.51199 0.0
C741 C 0.05571 0.93078 0.52568 0.0
C742 C 0.05785 0.90708 0.52107 0.0
C743 C 0.06927 0.89893 0.50203 0.0
C744 C 0.07689 0.93874 0.49306 0.0
C745 C 0.07877 0.9148 0.48806 0.0
C746 C 0.02128 0.01611 0.53559 0.0
C747 C 0.06423 0.97144 0.51988 0.0
H748 H 0.07788 0.14061 0.50697 0.0
H749 H 0.03411 0.18673 0.53052 0.0
H750 H 0.03117 0.12216 0.55603 0.0
H751 H 0.01915 0.15991 0.55662 0.0
H752 H 0.04683 0.93713 0.54036 0.0
H753 H 0.07116 0.88056 0.4983 0.0
H754 H 0.08468 0.95107 0.48252 0.0
H755 H 0.08784 0.90864 0.47359 0.0
Tb756 Tb 0.33089 0.80577 0.76185 0.0
C757 C 0.27326 0.73737 0.81359 0.0
C758 C 0.27846 0.69819 0.79529 0.0
C759 C 0.26612 0.70463 0.83468 0.0
C760 C 0.27925 0.72249 0.79474 0.0
C761 C 0.26602 0.72847 0.83354 0.0
C762 C 0.27236 0.68951 0.81558 0.0
C763 C 0.25629 0.76619 0.84817 0.0
N764 N 0.27269 0.76001 0.81146 0.0
C765 C 0.26336 0.77404 0.82789 0.0
C766 C 0.25791 0.74341 0.85119 0.0
Tb767 Tb 0.28359 0.77108 0.77725 0.0
N768 N 0.28447 0.73141 0.77526 0.0
C769 C 0.28793 0.71631 0.75514 0.0
C770 C 0.28305 0.68313 0.77515 0.0
C771 C 0.28757 0.69219 0.75489 0.0
H772 H 0.26173 0.79158 0.82575 0.0
H773 H 0.2908 0.68062 0.73903 0.0
H774 H 0.27178 0.67096 0.81638 0.0
H775 H 0.24945 0.77766 0.86138 0.0
H776 H 0.29146 0.72262 0.73916 0.0
H777 H 0.32778 0.89474 0.80994 0.0
H778 H 0.28266 0.66439 0.77487 0.0
H779 H 0.34404 0.78701 0.70782 0.0
H780 H 0.32736 0.85223 0.80577 0.0
H781 H 0.35182 0.80368 0.6722 0.0
H782 H 0.26074 0.69749 0.84991 0.0
H783 H 0.33214 0.91381 0.77529 0.0
H784 H 0.33876 0.91022 0.73241 0.0
H785 H 0.25215 0.73724 0.86677 0.0
H786 H 0.34556 0.8856 0.69502 0.0
N787 N 0.33097 0.84605 0.7685 0.0
C788 C 0.32936 0.8598 0.79023 0.0
C789 C 0.33194 0.89487 0.77321 0.0
C790 C 0.33463 0.88112 0.75133 0.0
C791 C 0.32954 0.8842 0.79281 0.0
C792 C 0.33411 0.85649 0.74954 0.0
H793 H 0.35062 0.84592 0.67245 0.0
N794 N 0.3379 0.81931 0.72784 0.0
C795 C 0.34787 0.81484 0.6879 0.0
C796 C 0.33783 0.84268 0.72853 0.0
C797 C 0.34349 0.80547 0.70813 0.0
C798 C 0.34711 0.83866 0.6881 0.0
C799 C 0.34229 0.85299 0.70866 0.0
O800 O 0.36213 0.8003 0.75413 0.0
O801 O 0.3189 0.7716 0.7733 0.0
O802 O 0.3051 0.78112 0.81023 0.0
O803 O 0.33014 0.81259 0.80021 0.0
O804 O 0.33675 0.77052 0.74517 0.0
O805 O 0.35828 0.82531 0.78596 0.0
O806 O 0.25177 0.77777 0.7773 0.0
O807 O 0.29618 0.80517 0.76613 0.0
O808 O 0.30655 0.79719 0.73102 0.0
O809 O 0.288 0.762 0.73984 0.0
O810 O 0.27734 0.80684 0.79302 0.0
O811 O 0.25804 0.74757 0.75283 0.0
C812 C 0.32848 0.75744 0.75953 0.0
C813 C 0.39364 0.83027 0.77238 0.0
C814 C 0.4319 0.84284 0.78912 0.0
C815 C 0.41017 0.83057 0.78983 0.0
C816 C 0.43711 0.85532 0.77093 0.0
C817 C 0.3987 0.84252 0.75402 0.0
C818 C 0.42049 0.85514 0.75341 0.0
C819 C 0.32191 0.80008 0.8157 0.0
C820 C 0.3719 0.81535 0.77348 0.0
C821 C 0.34225 0.87734 0.71012 0.0
C822 C 0.33838 0.89136 0.7314 0.0
C823 C 0.28715 0.82 0.7795 0.0
C824 C 0.22175 0.74474 0.76354 0.0
C825 C 0.20386 0.74528 0.74823 0.0
C826 C 0.18237 0.73362 0.75115 0.0
C827 C 0.17889 0.72068 0.76926 0.0
C828 C 0.2183 0.73195 0.78174 0.0
C829 C 0.19688 0.71986 0.7845 0.0
C830 C 0.29272 0.77598 0.72463 0.0
C831 C 0.24332 0.75907 0.76052 0.0
H832 H 0.40623 0.82065 0.80374 0.0
H833 H 0.45405 0.86454 0.76991 0.0
H834 H 0.38602 0.84205 0.74016 0.0
H835 H 0.42458 0.8644 0.73915 0.0
H836 H 0.20661 0.75533 0.73424 0.0
H837 H 0.1623 0.71184 0.77199 0.0
H838 H 0.23191 0.73145 0.79386 0.0
H839 H 0.19418 0.71019 0.79869 0.0
Tb840 Tb 0.56094 0.02689 0.04581 0.0
C841 C 0.5069 0.05494 0.963 0.0
C842 C 0.48849 0.01643 0.93801 0.0
C843 C 0.47444 0.05185 0.93596 0.0
C844 C 0.50578 0.03075 0.95513 0.0
C845 C 0.4914 0.06587 0.95337 0.0
C846 C 0.47293 0.02714 0.92837 0.0
C847 C 0.51086 0.10378 0.97853 0.0
N848 N 0.52305 0.06771 0.98036 0.0
C849 C 0.5258 0.09208 0.98749 0.0
C850 C 0.49346 0.09058 0.96151 0.0
Tb851 Tb 0.5484 0.04804 0.99212 0.0
N852 N 0.52087 0.02105 0.96534 0.0
C853 C 0.51932 0.99673 0.95899 0.0
C854 C 0.4871 0.99173 0.93143 0.0
C855 C 0.50253 0.98185 0.94206 0.0
H856 H 0.53967 0.10248 1.00007 0.0
H857 H 0.50145 0.96268 0.93729 0.0
H858 H 0.4596 0.01645 0.91516 0.0
H859 H 0.51293 0.123 0.98456 0.0
H860 H 0.53058 0.98817 0.96699 0.0
H861 H 0.60464 0.11136 0.10399 0.0
H862 H 0.47404 0.98011 0.9184 0.0
H863 H 0.57079 0.97283 0.04133 0.0
H864 H 0.57306 0.0836 0.07894 0.0
H865 H 0.6023 0.95513 0.04981 0.0
H866 H 0.46234 0.05989 0.92838 0.0
H867 H 0.63957 0.09879 0.11055 0.0
H868 H 0.66021 0.06589 0.10459 0.0
H869 H 0.48191 0.09967 0.95454 0.0
H870 H 0.65974 0.02321 0.08948 0.0
N871 N 0.58941 0.0547 0.07046 0.0
C872 C 0.58789 0.07733 0.08137 0.0
C873 C 0.62563 0.08629 0.0994 0.0
C874 C 0.62682 0.06285 0.08921 0.0
C875 C 0.60592 0.0934 0.09581 0.0
C876 C 0.60816 0.0473 0.07485 0.0
H877 H 0.63805 0.9816 0.06931 0.0
N878 N 0.58896 0.009 0.05448 0.0
C879 C 0.6042 0.97444 0.05443 0.0
C880 C 0.60793 0.02352 0.06645 0.0
C881 C 0.58642 0.98451 0.04966 0.0
C882 C 0.62437 0.98944 0.06535 0.0
C883 C 0.62625 0.01426 0.07208 0.0
O884 O 0.54476 0.99869 0.06073 0.0
O885 O 0.53775 0.0263 0.01713 0.0
O886 O 0.52792 0.06248 0.01725 0.0
O887 O 0.54471 0.05741 0.05295 0.0
O888 O 0.537 0.99461 0.02622 0.0
O889 O 0.54624 0.03596 0.07689 0.0
O890 O 0.5689 0.07668 0.98155 0.0
O891 O 0.57113 0.04863 0.02139 0.0
O892 O 0.57872 0.01039 0.01869 0.0
O893 O 0.56238 0.01655 0.9834 0.0
O894 O 0.57242 0.08041 0.01261 0.0
O895 O 0.56225 0.04037 0.96 0.0
C896 C 0.52599 1.00533 0.01397 0.0
C897 C 0.54318 0.00872 0.10188 0.0
C898 C 0.5292 0.00946 0.13999 0.0
C899 C 0.52762 0.01368 0.11714 0.0
C900 C 0.54686 1.00045 0.14782 0.0
C901 C 0.56083 0.99955 0.10936 0.0
C902 C 0.5626 0.99541 0.1324 0.0
C903 C 0.53129 0.06664 0.0406 0.0
C904 C 0.53991 0.01353 0.07842 0.0
C905 C 0.64539 0.02989 0.08518 0.0
C906 C 0.64565 0.05418 0.09378 0.0
C907 C 0.58227 0.06988 0.02616 0.0
C908 C 0.57047 0.07299 0.9406 0.0
C909 C 0.58104 0.06341 0.92186 0.0
C910 C 0.58685 0.07606 0.90408 0.0
C911 C 0.57938 0.09714 0.90367 0.0
C912 C 0.56307 0.09407 0.94027 0.0
C913 C 0.56708 0.10576 0.92148 0.0
C914 C 0.57455 1.00588 0.99537 0.0
C915 C 0.57165 0.06309 0.96181 0.0
H916 H 0.51417 0.02104 0.11121 0.0
H917 H 0.54826 0.99708 0.16557 0.0
H918 H 0.57308 0.99566 0.09758 0.0
H919 H 0.57613 0.98826 0.13828 0.0
H920 H 0.58625 0.04685 0.9222 0.0
H921 H 0.58375 0.1075 0.89027 0.0
H922 H 0.5551 0.10207 0.95485 0.0
H923 H 0.5617 0.1222 0.9214 0.0
Tb924 Tb 0.31872 0.3073 0.28317 0.0
C925 C 0.23242 0.23418 0.23803 0.0
C926 C 0.21435 0.22079 0.27066 0.0
C927 C 0.19285 0.21524 0.23285 0.0
C928 C 0.2338 0.23115 0.26115 0.0
C929 C 0.21193 0.22575 0.22349 0.0
C930 C 0.19405 0.2128 0.25639 0.0
C931 C 0.23097 0.23501 0.19028 0.0
N932 N 0.25127 0.24388 0.22923 0.0
C933 C 0.25079 0.24247 0.20515 0.0
C934 C 0.21133 0.22696 0.19958 0.0
Tb935 Tb 0.2841 0.25055 0.25317 0.0
N936 N 0.25383 0.23918 0.27461 0.0
C937 C 0.25431 0.23881 0.29848 0.0
C938 C 0.21559 0.21928 0.29445 0.0
C939 C 0.23557 0.22877 0.30849 0.0
H940 H 0.26587 0.24572 0.19678 0.0
H941 H 0.23653 0.2288 0.32728 0.0
H942 H 0.17913 0.20475 0.26344 0.0
H943 H 0.23103 0.2345 0.17144 0.0
H944 H 0.26836 0.24723 0.31095 0.0
H945 H 0.36761 0.32139 0.21074 0.0
H946 H 0.20106 0.21165 0.30235 0.0
H947 H 0.33292 0.31398 0.34109 0.0
H948 H 0.33535 0.30213 0.22804 0.0
H949 H 0.36607 0.33314 0.36934 0.0
H950 H 0.17711 0.20863 0.22191 0.0
H951 H 0.4015 0.34465 0.23669 0.0
H952 H 0.42215 0.35757 0.27747 0.0
H953 H 0.19601 0.22054 0.1879 0.0
H954 H 0.42209 0.35954 0.32043 0.0
N955 N 0.34994 0.315 0.2639 0.0
C956 C 0.3497 0.31238 0.2398 0.0
C957 C 0.38735 0.33591 0.24442 0.0
C958 C 0.38808 0.33718 0.26887 0.0
C959 C 0.36821 0.32301 0.22978 0.0
C960 C 0.36887 0.32639 0.27815 0.0
H961 H 0.40142 0.35011 0.35476 0.0
N962 N 0.34975 0.31716 0.31024 0.0
C963 C 0.36723 0.33123 0.35045 0.0
C964 C 0.36885 0.32727 0.30216 0.0
C965 C 0.34856 0.31993 0.33429 0.0
C966 C 0.3871 0.34088 0.34217 0.0
C967 C 0.38804 0.3393 0.3178 0.0
O968 O 0.31349 0.33388 0.31124 0.0
O969 O 0.28496 0.2867 0.27068 0.0
O970 O 0.28477 0.2767 0.22947 0.0
O971 O 0.30563 0.31427 0.25009 0.0
O972 O 0.29148 0.30297 0.30528 0.0
O973 O 0.32435 0.34269 0.27777 0.0
O974 O 0.29273 0.23341 0.22061 0.0
O975 O 0.31641 0.27479 0.25734 0.0
O976 O 0.32509 0.2818 0.30386 0.0
O977 O 0.29617 0.24753 0.28914 0.0
O978 O 0.31503 0.23948 0.25819 0.0
O979 O 0.27233 0.21327 0.24241 0.0
C980 C 0.27568 0.29168 0.28902 0.0
C981 C 0.32204 0.37551 0.30924 0.0
C982 C 0.3115 0.41122 0.30279 0.0
C983 C 0.30869 0.38636 0.29738 0.0
C984 C 0.32667 0.42517 0.32201 0.0
C985 C 0.33737 0.38905 0.32836 0.0
C986 C 0.33944 0.41395 0.33495 0.0
C987 C 0.29375 0.29996 0.23086 0.0
C988 C 0.32081 0.35043 0.29964 0.0
C989 C 0.40725 0.35011 0.3087 0.0
C990 C 0.40726 0.34909 0.28427 0.0
C991 C 0.32817 0.26 0.259 0.0
C992 C 0.29135 0.19199 0.21538 0.0
C993 C 0.30474 0.18535 0.23182 0.0
C994 C 0.31242 0.16454 0.22544 0.0
C995 C 0.30657 0.15 0.20259 0.0
C996 C 0.28569 0.17775 0.19236 0.0
C997 C 0.29329 0.15674 0.18601 0.0
C998 C 0.312 0.26137 0.30582 0.0
C999 C 0.28148 0.21235 0.22258 0.0
H1000 H 0.29649 0.37527 0.2831 0.0
H1001 H 0.32902 0.44455 0.3266 0.0
H1002 H 0.34796 0.38053 0.33766 0.0
H1003 H 0.35136 0.42461 0.34958 0.0
H1004 H 0.30849 0.19567 0.24991 0.0
H1005 H 0.31226 0.13358 0.19767 0.0
H1006 H 0.27501 0.18259 0.17955 0.0
H1007 H 0.28868 0.14556 0.16835 0.0
Tb1008 Tb 0.55397 0.5651 0.03594 0.0
C1009 C 0.5826 0.49161 0.96005 0.0
C1010 C 0.55087 0.47505 0.93064 0.0
C1011 C 0.58744 0.47143 0.9203 0.0
C1012 C 0.56016 0.48734 0.95384 0.0
C1013 C 0.59654 0.48356 0.94343 0.0
C1014 C 0.56464 0.46722 0.91391 0.0
C1015 C 0.62724 0.49898 0.97406 0.0
N1016 N 0.59073 0.50314 0.9826 0.0
C1017 C 0.61273 0.50639 0.98996 0.0
C1018 C 0.61913 0.48756 0.95067 0.0
Tb1019 Tb 0.56539 0.51238 0.00803 0.0
N1020 N 0.5474 0.49507 0.97056 0.0
C1021 C 0.52492 0.49063 0.96501 0.0
C1022 C 0.52801 0.47083 0.92498 0.0
C1023 C 0.51499 0.47868 0.94226 0.0
H1024 H 0.61921 0.51496 0.00806 0.0
H1025 H 0.49728 0.47564 0.93808 0.0
H1026 H 0.5578 0.45774 0.89605 0.0
H1027 H 0.64465 0.5019 0.97993 0.0
H1028 H 0.51431 0.49678 0.97759 0.0
H1029 H 0.62385 0.60644 0.1029 0.0
H1030 H 0.52026 0.46156 0.90736 0.0
H1031 H 0.50015 0.56133 0.03755 0.0
H1032 H 0.60566 0.58126 0.06532 0.0
H1033 H 0.47537 0.57544 0.06594 0.0
H1034 H 0.59786 0.46508 0.90729 0.0
H1035 H 0.60177 0.62307 0.13328 0.0
H1036 H 0.56449 0.62674 0.1456 0.0
H1037 H 0.63037 0.48163 0.93844 0.0
H1038 H 0.52408 0.61765 0.13591 0.0
N1039 N 0.57285 0.58391 0.07268 0.0
C1040 C 0.59544 0.58879 0.07753 0.0
C1041 C 0.59352 0.61215 0.11641 0.0
C1042 C 0.57048 0.6069 0.1117 0.0
C1043 C 0.60603 0.60291 0.09929 0.0
C1044 C 0.56055 0.59261 0.08942 0.0
H1045 H 0.49071 0.59834 0.10639 0.0
N1046 N 0.52928 0.5747 0.06205 0.0
C1047 C 0.49293 0.57889 0.07131 0.0
C1048 C 0.53794 0.58752 0.08403 0.0
C1049 C 0.50707 0.57085 0.05529 0.0
C1050 C 0.50164 0.59177 0.09413 0.0
C1051 C 0.52444 0.59651 0.10065 0.0
O1052 O 0.53839 0.58841 0.02175 0.0
O1053 O 0.55395 0.54322 1.00022 0.0
O1054 O 0.58815 0.54002 0.99495 0.0
O1055 O 0.58857 0.57037 0.02728 0.0
O1056 O 0.52614 0.55404 0.0077 0.0
O1057 O 0.57332 0.59919 0.03436 0.0
O1058 O 0.58018 0.48872 0.02229 0.0
O1059 O 0.56519 0.53415 0.04382 0.0
O1060 O 0.53104 0.53701 0.04867 0.0
O1061 O 0.53079 0.50677 0.01629 0.0
O1062 O 0.59284 0.52328 0.03694 0.0
O1063 O 0.54572 0.47783 0.0076 0.0
C1064 C 0.53512 0.54398 0.99022 0.0
C1065 C 0.55431 0.62973 0.03143 0.0
C1066 C 0.55714 0.66797 0.01984 0.0
C1067 C 0.5609 0.64481 0.01589 0.0
C1068 C 0.54666 0.67601 0.03976 0.0
C1069 C 0.54389 0.63773 0.05131 0.0
C1070 C 0.54017 0.66092 0.05547 0.0
C1071 C 0.59759 0.56122 0.00853 0.0
C1072 C 0.55654 0.60509 0.02449 0.0
C1073 C 0.53416 0.6105 0.12294 0.0
C1074 C 0.55716 0.61572 0.12844 0.0
C1075 C 0.58382 0.53345 0.05437 0.0
C1076 C 0.56467 0.44737 0.01147 0.0
C1077 C 0.55389 0.43119 0.02422 0.0
C1078 C 0.55869 0.40872 0.02228 0.0
C1079 C 0.57401 0.40201 0.00701 0.0
C1080 C 0.57993 0.44083 0.99596 0.0
C1081 C 0.58444 0.41802 0.99365 0.0
C1082 C 0.52162 0.51579 0.03496 0.0
C1083 C 0.5621 0.47186 0.01818 0.0
H1084 H 0.5683 0.63811 1.00013 0.0
H1085 H 0.54363 0.69392 0.04322 0.0
H1086 H 0.53828 0.62603 0.06321 0.0
H1087 H 0.53202 0.66712 0.07074 0.0
H1088 H 0.54251 0.43652 0.03667 0.0
H1089 H 0.57796 0.38461 0.00561 0.0
H1090 H 0.58876 0.45346 0.98633 0.0
H1091 H 0.59641 0.41299 0.98197 0.0
Tb1092 Tb 0.83061 0.30435 0.26622 0.0
C1093 C 0.77636 0.23147 0.30429 0.0
C1094 C 0.78093 0.19438 0.27978 0.0
C1095 C 0.7748 0.19589 0.32107 0.0
C1096 C 0.78006 0.21885 0.28257 0.0
C1097 C 0.77302 0.21981 0.32357 0.0
C1098 C 0.77873 0.1832 0.29922 0.0
C1099 C 0.76276 0.25473 0.34532 0.0
N1100 N 0.77416 0.25439 0.30601 0.0
C1101 C 0.76577 0.26525 0.32565 0.0
C1102 C 0.76685 0.23208 0.34447 0.0
Tb1103 Tb 0.77975 0.27015 0.27243 0.0
N1104 N 0.78188 0.2301 0.26397 0.0
C1105 C 0.78307 0.2169 0.24172 0.0
C1106 C 0.78365 0.18165 0.25747 0.0
C1107 C 0.78447 0.19291 0.23833 0.0
H1108 H 0.76093 0.28202 0.32615 0.0
H1109 H 0.78594 0.18301 0.22079 0.0
H1110 H 0.77956 0.16455 0.29739 0.0
H1111 H 0.75673 0.26389 0.36088 0.0
H1112 H 0.78298 0.22415 0.22602 0.0
H1113 H 0.81706 0.38784 0.31596 0.0
H1114 H 0.78457 0.16296 0.25471 0.0
H1115 H 0.85317 0.29194 0.21566 0.0
H1116 H 0.81994 0.34563 0.30991 0.0
H1117 H 0.86385 0.31218 0.1828 0.0
H1118 H 0.77244 0.18679 0.33573 0.0
H1119 H 0.82374 0.40992 0.28354 0.0
H1120 H 0.83488 0.41037 0.24243 0.0
H1121 H 0.76409 0.22371 0.35958 0.0
H1122 H 0.84751 0.38977 0.20618 0.0
N1123 N 0.82753 0.34342 0.2742 0.0
C1124 C 0.82279 0.35495 0.29561 0.0
C1125 C 0.82495 0.39132 0.28077 0.0
C1126 C 0.8308 0.37975 0.25927 0.0
C1127 C 0.8212 0.37894 0.29912 0.0
C1128 C 0.83205 0.3555 0.25652 0.0
H1129 H 0.85851 0.35323 0.18385 0.0
N1130 N 0.84083 0.32082 0.23448 0.0
C1131 C 0.85672 0.32121 0.19757 0.0
C1132 C 0.83896 0.34386 0.23601 0.0
C1133 C 0.85068 0.30982 0.21619 0.0
C1134 C 0.85364 0.34437 0.19822 0.0
C1135 C 0.84506 0.35617 0.2178 0.0
O1136 O 0.86275 0.29921 0.264 0.0
O1137 O 0.8154 0.26873 0.2736 0.0
O1138 O 0.79309 0.29497 0.30616 0.0
O1139 O 0.82993 0.29915 0.30232 0.0
O1140 O 0.83603 0.26998 0.24736 0.0
O1141 O 0.85628 0.32769 0.29069 0.0
O1142 O 0.75004 0.27736 0.28362 0.0
O1143 O 0.79699 0.3079 0.27393 0.0
O1144 O 0.8121 0.29668 0.23159 0.0
O1145 O 0.78543 0.2637 0.23545 0.0
O1146 O 0.76756 0.29543 0.25385 0.0
O1147 O 0.74996 0.24857 0.25329 0.0
C1148 C 0.82591 0.25559 0.25974 0.0
C1149 C 0.89267 0.33179 0.27962 0.0
C1150 C 0.93171 0.34248 0.29293 0.0
C1151 C 0.91015 0.33096 0.29534 0.0
C1152 C 0.93593 0.35523 0.2748 0.0
C1153 C 0.89669 0.34458 0.26146 0.0
C1154 C 0.91836 0.35633 0.25912 0.0
C1155 C 0.81378 0.3005 0.31562 0.0
C1156 C 0.8711 0.31699 0.28173 0.0
C1157 C 0.84307 0.38005 0.22006 0.0
C1158 C 0.83591 0.3918 0.24073 0.0
C1159 C 0.78267 0.31482 0.26132 0.0
C1160 C 0.71622 0.24795 0.27113 0.0
C1161 C 0.69955 0.24331 0.2525 0.0
C1162 C 0.67722 0.23793 0.25652 0.0
C1163 C 0.67171 0.23461 0.27913 0.0
C1164 C 0.71067 0.24481 0.29369 0.0
C1165 C 0.68843 0.23763 0.29749 0.0
C1166 C 0.79655 0.27742 0.22263 0.0
C1167 C 0.73818 0.26041 0.26678 0.0
H1168 H 0.90711 0.32061 0.30906 0.0
H1169 H 0.95274 0.36379 0.2725 0.0
H1170 H 0.88337 0.34519 0.24897 0.0
H1171 H 0.92158 0.3659 0.24492 0.0
H1172 H 0.70408 0.2458 0.23513 0.0
H1173 H 0.65461 0.23084 0.28296 0.0
H1174 H 0.72326 0.2486 0.30846 0.0
H1175 H 0.68412 0.23557 0.31499 0.0
Tb1176 Tb 0.06234 0.5285 0.54802 0.0
C1177 C 0.00307 0.55279 0.46767 0.0
C1178 C 0.98923 0.51743 0.43637 0.0
C1179 C 0.97055 0.55032 0.44096 0.0
C1180 C 0.0046 0.53029 0.45605 0.0
C1181 C 0.98631 0.56332 0.46001 0.0
C1182 C 0.97202 0.5274 0.42915 0.0
C1183 C 0.00355 0.59985 0.48859 0.0
N1184 N 0.019 0.56512 0.4854 0.0
C1185 C 0.02006 0.58878 0.49515 0.0
C1186 C 0.98646 0.58699 0.47107 0.0
Tb1187 Tb 0.04656 0.54677 0.49371 0.0
N1188 N 0.02183 0.52158 0.46319 0.0
C1189 C 0.02492 0.50019 0.45052 0.0
C1190 C 0.99189 0.4952 0.42418 0.0
C1191 C 0.00987 0.48661 0.43124 0.0
H1192 H 0.03359 0.59902 0.50824 0.0
H1193 H 0.0123 0.4696 0.42167 0.0
H1194 H 0.96004 0.51775 0.41415 0.0
H1195 H 0.00423 0.6184 0.49679 0.0
H1196 H 0.03875 0.49297 0.45487 0.0
H1197 H 0.10437 0.61174 0.60867 0.0
H1198 H 0.9804 0.48475 0.40906 0.0
H1199 H 0.07383 0.47508 0.5381 0.0
H1200 H 0.07341 0.58435 0.58206 0.0
H1201 H 0.10563 0.45758 0.54614 0.0
H1202 H 0.95753 0.55807 0.43483 0.0
H1203 H 0.1394 0.59935 0.61535 0.0
H1204 H 0.16063 0.56697 0.60832 0.0
H1205 H 0.9739 0.59573 0.46567 0.0
H1206 H 0.16098 0.52486 0.59138 0.0
N1207 N 0.09039 0.55617 0.57292 0.0
C1208 C 0.0884 0.57837 0.58449 0.0
C1209 C 0.12577 0.5871 0.60352 0.0
C1210 C 0.12741 0.56404 0.59249 0.0
C1211 C 0.10601 0.59411 0.59986 0.0
C1212 C 0.10913 0.54876 0.57733 0.0
H1213 H 0.14037 0.48376 0.56847 0.0
N1214 N 0.09083 0.51084 0.5548 0.0
C1215 C 0.10695 0.47666 0.55227 0.0
C1216 C 0.10935 0.52521 0.56795 0.0
C1217 C 0.08899 0.48659 0.54779 0.0
C1218 C 0.12655 0.49152 0.56481 0.0
C1219 C 0.12781 0.51605 0.5732 0.0
O1220 O 0.04776 0.50054 0.56401 0.0
O1221 O 0.0386 0.52393 0.5183 0.0
O1222 O 0.02283 0.55375 0.51874 0.0
O1223 O 0.0458 0.55862 0.55367 0.0
O1224 O 0.03923 0.49431 0.52992 0.0
O1225 O 0.04889 0.53802 0.57991 0.0
O1226 O 0.06276 0.57641 0.4808 0.0
O1227 O 0.06976 0.55116 0.52366 0.0
O1228 O 0.0844 0.51929 0.5222 0.0
O1229 O 0.06076 0.51487 0.48796 0.0
O1230 O 0.06821 0.58122 0.51348 0.0
O1231 O 0.0649 0.53994 0.46501 0.0
C1232 C 0.02796 0.5025 0.51534 0.0
C1233 C 0.04583 0.51056 0.60508 0.0
C1234 C 0.02854 0.50603 0.64081 0.0
C1235 C 0.02732 0.50897 0.61744 0.0
C1236 C 0.04839 0.5029 0.65128 0.0
C1237 C 0.06579 0.50782 0.61539 0.0
C1238 C 0.06693 0.50364 0.63846 0.0
C1239 C 0.02884 0.56292 0.54157 0.0
C1240 C 0.04304 0.51558 0.5817 0.0
C1241 C 0.14653 0.53147 0.58728 0.0
C1242 C 0.14634 0.55545 0.59692 0.0
C1243 C 0.07979 0.57278 0.52749 0.0
C1244 C 0.06948 0.56806 0.44088 0.0
C1245 C 0.08836 0.56779 0.42932 0.0
C1246 C 0.08846 0.57041 0.40587 0.0
C1247 C 0.06963 0.57487 0.39445 0.0
C1248 C 0.05061 0.57232 0.42965 0.0
C1249 C 0.05084 0.57603 0.40645 0.0
C1250 C 0.07755 0.50994 0.49969 0.0
C1251 C 0.07035 0.5627 0.46425 0.0
H1252 H 0.01193 0.51084 0.60898 0.0
H1253 H 0.04979 0.50073 0.66948 0.0
H1254 H 0.08029 0.50898 0.60575 0.0
H1255 H 0.08229 0.50153 0.6466 0.0
H1256 H 0.10292 0.56487 0.43854 0.0
H1257 H 0.0692 0.57676 0.37615 0.0
H1258 H 0.03586 0.57263 0.43865 0.0
H1259 H 0.03632 0.57925 0.3976 0.0
Tb1260 Tb 0.78099 0.79572 0.27254 0.0
C1261 C 0.84939 0.76369 0.31533 0.0
C1262 C 0.86631 0.79744 0.34733 0.0
C1263 C 0.86065 0.75681 0.35401 0.0
C1264 C 0.85627 0.78815 0.32379 0.0
C1265 C 0.85266 0.7477 0.32998 0.0
C1266 C 0.8674 0.78171 0.36272 0.0
C1267 C 0.84437 0.71555 0.29518 0.0
N1268 N 0.84234 0.75569 0.2919 0.0
C1269 C 0.84159 0.73216 0.28143 0.0
C1270 C 0.8493 0.72323 0.3197 0.0
Tb1271 Tb 0.83506 0.78435 0.27172 0.0
N1272 N 0.85542 0.80263 0.30816 0.0
C1273 C 0.86735 0.82614 0.31423 0.0
C1274 C 0.87621 0.822 0.35425 0.0
C1275 C 0.87736 0.83625 0.33738 0.0
H1276 H 0.838 0.72575 0.26242 0.0
H1277 H 0.8861 0.85501 0.34211 0.0
H1278 H 0.87464 0.78855 0.38097 0.0
H1279 H 0.84283 0.69687 0.28681 0.0
H1280 H 0.86979 0.83745 0.30146 0.0
H1281 H 0.74354 0.72248 0.19867 0.0
H1282 H 0.88407 0.82983 0.37214 0.0
H1283 H 0.77608 0.85242 0.28528 0.0
H1284 H 0.76399 0.74087 0.23776 0.0
H1285 H 0.76237 0.88055 0.26441 0.0
H1286 H 0.86285 0.74479 0.36564 0.0
H1287 H 0.72955 0.74788 0.17453 0.0
H1288 H 0.72661 0.78903 0.16983 0.0
H1289 H 0.85174 0.71039 0.33029 0.0
H1290 H 0.73254 0.83227 0.18735 0.0
N1291 N 0.76294 0.77675 0.23579 0.0
C1292 C 0.75857 0.75237 0.22744 0.0
C1293 C 0.7391 0.75615 0.19152 0.0
C1294 C 0.74327 0.78101 0.20025 0.0
C1295 C 0.74682 0.74177 0.20517 0.0
C1296 C 0.75522 0.79085 0.22282 0.0
H1297 H 0.7458 0.86656 0.22264 0.0
N1298 N 0.76897 0.82344 0.25496 0.0
C1299 C 0.76142 0.86225 0.25517 0.0
C1300 C 0.7586 0.81509 0.23262 0.0
C1301 C 0.76922 0.84635 0.26689 0.0
C1302 C 0.7521 0.85429 0.23159 0.0
C1303 C 0.75006 0.83029 0.22021 0.0
O1304 O 0.76405 0.80691 0.30178 0.0
O1305 O 0.80949 0.7922 0.29369 0.0
O1306 O 0.80994 0.74889 0.26513 0.0
O1307 O 0.77912 0.75954 0.28067 0.0
O1308 O 0.79694 0.8222 0.30398 0.0
O1309 O 0.74826 0.77657 0.27472 0.0
O1310 O 0.8493 0.76272 0.24614 0.0
O1311 O 0.80353 0.77992 0.25096 0.0
O1312 O 0.80339 0.8283 0.264 0.0
O1313 O 0.83854 0.82391 0.27562 0.0
O1314 O 0.83155 0.796 0.23847 0.0
O1315 O 0.86725 0.79828 0.26384 0.0
C1316 C 0.81137 0.81092 0.30982 0.0
C1317 C 0.72489 0.79802 0.29685 0.0
C1318 C 0.69038 0.79837 0.31583 0.0
C1319 C 0.70987 0.78965 0.31264 0.0
C1320 C 0.68705 0.81636 0.30375 0.0
C1321 C 0.71997 0.8146 0.28401 0.0
C1322 C 0.70148 0.82405 0.2878 0.0
C1323 C 0.7906 0.74311 0.27396 0.0
C1324 C 0.74604 0.79029 0.29462 0.0
C1325 C 0.73902 0.82083 0.19727 0.0
C1326 C 0.73557 0.79621 0.18733 0.0
C1327 C 0.81066 0.78796 0.23328 0.0
C1328 C 0.88865 0.77173 0.24706 0.0
C1329 C 0.90216 0.77676 0.22898 0.0
C1330 C 0.92284 0.77054 0.22811 0.0
C1331 C 0.92964 0.7592 0.24576 0.0
C1332 C 0.89593 0.76063 0.26445 0.0
C1333 C 0.91629 0.7543 0.26368 0.0
C1334 C 0.82517 0.83721 0.26949 0.0
C1335 C 0.86754 0.77923 0.24791 0.0
H1336 H 0.71325 0.77626 0.32208 0.0
H1337 H 0.67312 0.82458 0.3065 0.0
H1338 H 0.73045 0.82046 0.27114 0.0
H1339 H 0.6983 0.83745 0.27827 0.0
H1340 H 0.89653 0.7855 0.21563 0.0
H1341 H 0.94559 0.7546 0.24609 0.0
H1342 H 0.88604 0.75713 0.27874 0.0
H1343 H 0.9219 0.74582 0.27722 0.0
Tb1344 Tb 0.81537 0.2775 0.74595 0.0
C1345 C 0.78833 0.35735 0.81906 0.0
C1346 C 0.82338 0.3789 0.84147 0.0
C1347 C 0.79172 0.39695 0.84432 0.0
C1348 C 0.81009 0.35826 0.82598 0.0
C1349 C 0.77888 0.37681 0.82804 0.0
C1350 C 0.81394 0.39798 0.85106 0.0
C1351 C 0.74456 0.35486 0.80491 0.0
N1352 N 0.77653 0.33749 0.80332 0.0
C1353 C 0.75448 0.33588 0.79686 0.0
C1354 C 0.75679 0.37543 0.8206 0.0
Tb1355 Tb 0.79271 0.30476 0.79819 0.0
N1356 N 0.81863 0.33954 0.81622 0.0
C1357 C 0.84113 0.34242 0.81801 0.0
C1358 C 0.8459 0.38005 0.84618 0.0
C1359 C 0.855 0.36221 0.83355 0.0
H1360 H 0.74395 0.31959 0.78608 0.0
H1361 H 0.87272 0.36384 0.83549 0.0
H1362 H 0.82383 0.41387 0.86317 0.0
H1363 H 0.72725 0.35327 0.79953 0.0
H1364 H 0.84854 0.32986 0.80705 0.0
H1365 H 0.75481 0.22527 0.67136 0.0
H1366 H 0.85662 0.39534 0.85835 0.0
H1367 H 0.86336 0.26419 0.7628 0.0
H1368 H 0.77626 0.2618 0.69717 0.0
H1369 H 0.87859 0.229 0.76084 0.0
H1370 H 0.78468 0.41194 0.85157 0.0
H1371 H 0.76446 0.18656 0.67183 0.0
H1372 H 0.79131 0.16508 0.68546 0.0
H1373 H 0.74894 0.38996 0.82713 0.0
H1374 H 0.82541 0.16626 0.70951 0.0
N1375 N 0.79467 0.24418 0.71819 0.0
C1376 C 0.7793 0.24508 0.70036 0.0
C1377 C 0.77306 0.20253 0.68475 0.0
C1378 C 0.79078 0.20203 0.7004 0.0
C1379 C 0.7675 0.22427 0.68452 0.0
C1380 C 0.80125 0.22322 0.71736 0.0
H1381 H 0.85722 0.18933 0.73853 0.0
N1382 N 0.83081 0.2446 0.74636 0.0
C1383 C 0.86181 0.22692 0.75314 0.0
C1384 C 0.8199 0.22347 0.73181 0.0
C1385 C 0.8526 0.24686 0.75474 0.0
C1386 C 0.84974 0.20466 0.74052 0.0
C1387 C 0.82907 0.20296 0.72867 0.0
O1388 O 0.8487 0.29358 0.74349 0.0
O1389 O 0.81615 0.30931 0.77261 0.0
O1390 O 0.77377 0.30924 0.76633 0.0
O1391 O 0.78205 0.28213 0.73477 0.0
O1392 O 0.8167 0.3127 0.73782 0.0
O1393 O 0.82582 0.27611 0.71199 0.0
O1394 O 0.75994 0.29067 0.80401 0.0
O1395 O 0.79097 0.27343 0.77019 0.0
O1396 O 0.83365 0.27563 0.78007 0.0
O1397 O 0.82191 0.29593 0.81444 0.0
O1398 O 0.78877 0.26824 0.80428 0.0
O1399 O 0.78522 0.30881 0.83347 0.0
C1400 C 0.81692 0.32411 0.75931 0.0
C1401 C 0.85872 0.30331 0.70696 0.0
C1402 C 0.86075 0.32974 0.67924 0.0
C1403 C 0.84852 0.31675 0.69403 0.0
C1404 C 0.88309 0.3295 0.67748 0.0
C1405 C 0.88113 0.30328 0.70528 0.0
C1406 C 0.89326 0.31637 0.69059 0.0
C1407 C 0.76985 0.29697 0.74406 0.0
C1408 C 0.84617 0.28714 0.72039 0.0
C1409 C 0.81843 0.18196 0.71223 0.0
C1410 C 0.7991 0.18134 0.69845 0.0
C1411 C 0.78802 0.25779 0.78246 0.0
C1412 C 0.75345 0.28169 0.84139 0.0
C1413 C 0.76501 0.26838 0.85302 0.0
C1414 C 0.75388 0.2533 0.86683 0.0
C1415 C 0.73131 0.25176 0.86921 0.0
C1416 C 0.73092 0.28015 0.84393 0.0
C1417 C 0.71991 0.26525 0.85785 0.0
C1418 C 0.83559 0.28382 0.80353 0.0
C1419 C 0.76438 0.29792 0.82702 0.0
H1420 H 0.83112 0.31657 0.69486 0.0
H1421 H 0.89255 0.33935 0.66585 0.0
H1422 H 0.88909 0.29265 0.71491 0.0
H1423 H 0.91046 0.31605 0.68911 0.0
H1424 H 0.78249 0.26965 0.85136 0.0
H1425 H 0.72264 0.24042 0.88018 0.0
H1426 H 0.72189 0.29062 0.83525 0.0
H1427 H 0.70256 0.26423 0.85991 0.0
Tb1428 Tb 0.81301 0.80696 0.78159 0.0
C1429 C 0.73189 0.72823 0.74114 0.0
C1430 C 0.71818 0.71275 0.7748 0.0
C1431 C 0.6936 0.70547 0.73871 0.0
C1432 C 0.73574 0.72483 0.76382 0.0
C1433 C 0.7107 0.71846 0.72829 0.0
C1434 C 0.69732 0.70266 0.76196 0.0
C1435 C 0.72488 0.73373 0.69511 0.0
N1436 N 0.74886 0.74088 0.7316 0.0
C1437 C 0.74556 0.74278 0.70832 0.0
C1438 C 0.70733 0.72159 0.70514 0.0
Tb1439 Tb 0.78372 0.74764 0.75186 0.0
N1440 N 0.75606 0.73532 0.77587 0.0
C1441 C 0.75834 0.73716 0.80011 0.0
C1442 C 0.72169 0.71228 0.79876 0.0
C1443 C 0.74165 0.72518 0.81163 0.0
H1444 H 0.75885 0.74969 0.69869 0.0
H1445 H 0.74398 0.72664 0.83063 0.0
H1446 H 0.68379 0.69318 0.77005 0.0
H1447 H 0.72276 0.73537 0.6768 0.0
H1448 H 0.77207 0.7492 0.81144 0.0
H1449 H 0.86669 0.83142 0.71509 0.0
H1450 H 0.70861 0.70339 0.80783 0.0
H1451 H 0.8228 0.8197 0.83988 0.0
H1452 H 0.83219 0.81436 0.7293 0.0
H1453 H 0.85466 0.83701 0.87042 0.0
H1454 H 0.67737 0.69773 0.72901 0.0
H1455 H 0.9009 0.84659 0.74268 0.0
H1456 H 0.91984 0.85271 0.78352 0.0
H1457 H 0.69141 0.7142 0.69468 0.0
H1458 H 0.91676 0.85337 0.82589 0.0
N1459 N 0.84569 0.81848 0.76516 0.0
C1460 C 0.84652 0.82043 0.74192 0.0
C1461 C 0.88569 0.8383 0.74902 0.0
C1462 C 0.88501 0.83643 0.7727 0.0
C1463 C 0.86638 0.8301 0.73352 0.0
C1464 C 0.8645 0.82656 0.78036 0.0
H1465 H 0.89245 0.84804 0.85852 0.0
N1466 N 0.84238 0.81948 0.81079 0.0
C1467 C 0.85727 0.83397 0.85181 0.0
C1468 C 0.86279 0.82694 0.80404 0.0
C1469 C 0.83927 0.82413 0.83441 0.0
C1470 C 0.87856 0.8401 0.84503 0.0
C1471 C 0.88149 0.83719 0.82091 0.0
O1472 O 0.80226 0.83219 0.80666 0.0
O1473 O 0.78096 0.78276 0.76822 0.0
O1474 O 0.78683 0.77126 0.72619 0.0
O1475 O 0.79888 0.81079 0.74733 0.0
O1476 O 0.78594 0.79873 0.80315 0.0
O1477 O 0.81382 0.84081 0.77393 0.0
O1478 O 0.78931 0.7317 0.71745 0.0
O1479 O 0.81375 0.77521 0.75614 0.0
O1480 O 0.82119 0.78275 0.80375 0.0
O1481 O 0.79872 0.7442 0.78653 0.0
O1482 O 0.81658 0.74072 0.75666 0.0
O1483 O 0.77474 0.71008 0.74139 0.0
C1484 C 0.77105 0.78634 0.78629 0.0
C1485 C 0.81505 0.87336 0.80584 0.0
C1486 C 0.81311 0.91399 0.80478 0.0
C1487 C 0.80886 0.88973 0.79405 0.0
C1488 C 0.82394 0.9222 0.82784 0.0
C1489 C 0.82617 0.88125 0.82885 0.0
C1490 C 0.83077 0.90578 0.83973 0.0
C1491 C 0.79113 0.79476 0.72742 0.0
C1492 C 0.80645 0.84836 0.79396 0.0
C1493 C 0.9022 0.84562 0.81324 0.0
C1494 C 0.90395 0.84529 0.78914 0.0
C1495 C 0.82744 0.76245 0.75756 0.0
C1496 C 0.79492 0.69263 0.71267 0.0
C1497 C 0.80858 0.68642 0.7292 0.0
C1498 C 0.81929 0.66787 0.72229 0.0
C1499 C 0.81708 0.65618 0.69827 0.0
C1500 C 0.79265 0.68094 0.68873 0.0
C1501 C 0.80387 0.66285 0.68154 0.0
C1502 C 0.81263 0.75982 0.80408 0.0
C1503 C 0.78177 0.71002 0.72055 0.0
H1504 H 0.79939 0.88322 0.77665 0.0
H1505 H 0.82688 0.941 0.83656 0.0
H1506 H 0.83069 0.86865 0.83857 0.0
H1507 H 0.83911 0.91196 0.85756 0.0
H1508 H 0.81023 0.69538 0.74773 0.0
H1509 H 0.82493 0.64145 0.6926 0.0
H1510 H 0.78194 0.6855 0.67574 0.0
H1511 H 0.8019 0.6536 0.6631 0.0
Tb1512 Tb 0.53269 0.52264 0.50928 0.0
C1513 C 0.59741 0.6102 0.56229 0.0
C1514 C 0.60764 0.63401 0.53284 0.0
C1515 C 0.60935 0.65399 0.57404 0.0
C1516 C 0.5999 0.61134 0.53876 0.0
C1517 C 0.60299 0.63156 0.58022 0.0
C1518 C 0.61157 0.65522 0.5504 0.0
C1519 C 0.59954 0.60725 0.60966 0.0
N1520 N 0.59194 0.58825 0.56797 0.0
C1521 C 0.59448 0.58668 0.59147 0.0
C1522 C 0.6034 0.62982 0.60402 0.0
Tb1523 Tb 0.58498 0.55543 0.53641 0.0
N1524 N 0.59701 0.5904 0.52222 0.0
C1525 C 0.60365 0.59153 0.5 0.0
C1526 C 0.6126 0.63485 0.50974 0.0
C1527 C 0.61109 0.61352 0.49346 0.0
H1528 H 0.59189 0.5694 0.59645 0.0
H1529 H 0.61574 0.61394 0.47574 0.0
H1530 H 0.6174 0.67264 0.54603 0.0
H1531 H 0.60069 0.60564 0.62803 0.0
H1532 H 0.6036 0.57607 0.48648 0.0
H1533 H 0.51787 0.45591 0.56345 0.0
H1534 H 0.6186 0.65186 0.50461 0.0
H1535 H 0.52013 0.51827 0.45161 0.0
H1536 H 0.52999 0.49639 0.55627 0.0
H1537 H 0.50627 0.48597 0.41608 0.0
H1538 H 0.61353 0.67048 0.58757 0.0
H1539 H 0.5059 0.42104 0.52972 0.0
H1540 H 0.49823 0.4053 0.48584 0.0
H1541 H 0.60771 0.64578 0.61819 0.0
H1542 H 0.49547 0.41341 0.44569 0.0
N1543 N 0.52574 0.48526 0.51838 0.0
C1544 C 0.52485 0.48168 0.54113 0.0
C1545 C 0.5116 0.4389 0.52634 0.0
C1546 C 0.51175 0.44263 0.50314 0.0
C1547 C 0.51814 0.45854 0.54541 0.0
C1548 C 0.51899 0.4663 0.49965 0.0
H1549 H 0.49845 0.44337 0.41953 0.0
N1550 N 0.52249 0.4942 0.47465 0.0
C1551 C 0.50958 0.48148 0.43306 0.0
C1552 C 0.5174 0.47092 0.47704 0.0
C1553 C 0.51763 0.49974 0.45322 0.0
C1554 C 0.50522 0.45745 0.43507 0.0
C1555 C 0.50859 0.45193 0.45732 0.0
O1556 O 0.50902 0.54332 0.50727 0.0
O1557 O 0.55395 0.55868 0.52079 0.0
O1558 O 0.5612 0.55846 0.56463 0.0
O1559 O 0.52771 0.53326 0.54733 0.0
O1560 O 0.53839 0.54934 0.48694 0.0
O1561 O 0.49939 0.50693 0.51163 0.0
O1562 O 0.6029 0.54433 0.56265 0.0
O1563 O 0.56057 0.52145 0.53249 0.0
O1564 O 0.55534 0.51562 0.48096 0.0
O1565 O 0.58848 0.54289 0.49768 0.0
O1566 O 0.59157 0.51988 0.52425 0.0
O1567 O 0.61926 0.56328 0.53671 0.0
C1568 C 0.55121 0.56684 0.50219 0.0
C1569 C 0.47305 0.52187 0.49214 0.0
C1570 C 0.43931 0.53441 0.48491 0.0
C1571 C 0.45995 0.53818 0.49752 0.0
C1572 C 0.43205 0.51449 0.4659 0.0
C1573 C 0.46593 0.50178 0.47327 0.0
C1574 C 0.44555 0.49838 0.45992 0.0
C1575 C 0.54009 0.548 0.56609 0.0
C1576 C 0.49275 0.52569 0.50849 0.0
C1577 C 0.5023 0.42821 0.46062 0.0
C1578 C 0.50385 0.42358 0.48348 0.0
C1579 C 0.5727 0.50681 0.52634 0.0
C1580 C 0.64225 0.56006 0.56937 0.0
C1581 C 0.65603 0.54428 0.56509 0.0
C1582 C 0.67867 0.55213 0.57209 0.0
C1583 C 0.68707 0.57502 0.58674 0.0
C1584 C 0.65053 0.58331 0.58322 0.0
C1585 C 0.67283 0.59041 0.59265 0.0
C1586 C 0.57611 0.5271 0.4792 0.0
C1587 C 0.62142 0.55262 0.55433 0.0
H1588 H 0.46524 0.55309 0.51277 0.0
H1589 H 0.41588 0.51119 0.45615 0.0
H1590 H 0.47565 0.4885 0.46929 0.0
H1591 H 0.43991 0.48284 0.44546 0.0
H1592 H 0.64947 0.52645 0.55396 0.0
H1593 H 0.70462 0.58139 0.59249 0.0
H1594 H 0.64017 0.59608 0.58601 0.0
H1595 H 0.67937 0.60833 0.60334 0.0
Tb1596 Tb 0.08373 0.54155 0.01051 0.0
C1597 C 0.00418 0.49617 0.05644 0.0
C1598 C 0.98378 0.46331 0.02529 0.0
C1599 C 0.98247 0.46013 0.06656 0.0
C1600 C 0.99819 0.48632 0.03267 0.0
C1601 C 0.996 0.48351 0.07376 0.0
C1602 C 0.97641 0.45001 0.04234 0.0
C1603 C 0.0137 0.51876 0.10381 0.0
N1604 N 0.01721 0.51876 0.06261 0.0
C1605 C 0.02136 0.53057 0.08593 0.0
C1606 C 0.0012 0.495 0.09772 0.0
Tb1607 Tb 0.03007 0.5362 0.0323 0.0
N1608 N 0.00545 0.49992 0.01687 0.0
C1609 C 0.99742 0.49214 0.99337 0.0
C1610 C 0.9766 0.45475 1.00112 0.0
C1611 C 0.9831 0.46945 0.98517 0.0
H1612 H 0.03115 0.54888 0.09076 0.0
H1613 H 0.97725 0.46325 0.96649 0.0
H1614 H 0.96552 0.4322 0.03701 0.0
H1615 H 0.01746 0.52797 0.12227 0.0
H1616 H 0.00217 0.50295 0.98054 0.0
H1617 H 0.13625 0.62005 0.06948 0.0
H1618 H 0.96557 0.43715 0.99471 0.0
H1619 H 0.07764 0.52366 0.95123 0.0
H1620 H 0.10813 0.58207 0.05957 0.0
H1621 H 0.09344 0.53836 0.91738 0.0
H1622 H 0.97619 0.44997 0.07958 0.0
H1623 H 0.15392 0.63751 0.03759 0.0
H1624 H 0.15734 0.6345 0.99406 0.0
H1625 H 0.99522 0.4859 0.11159 0.0
H1626 H 0.14555 0.61248 0.95279 0.0
N1627 N 0.1089 0.57781 0.0221 0.0
C1628 C 0.1153 0.58934 0.04531 0.0
C1629 C 0.1414 0.62075 0.03305 0.0
C1630 C 0.13507 0.60878 0.00937 0.0
C1631 C 0.13144 0.61098 0.05109 0.0
C1632 C 0.11858 0.58707 0.0044 0.0
H1633 H 0.12168 0.57679 0.92407 0.0
N1634 N 0.09583 0.55405 0.97722 0.0
C1635 C 0.09864 0.54888 0.93523 0.0
C1636 C 0.11178 0.57485 0.98121 0.0
C1637 C 0.08959 0.54067 0.95455 0.0
C1638 C 0.11459 0.57056 0.93908 0.0
C1639 C 0.12149 0.58375 0.96228 0.0
O1640 O 0.09539 0.51016 1.00074 0.0
O1641 O 0.05355 0.51773 0.01622 0.0
O1642 O 0.04971 0.52059 0.0538 0.0
O1643 O 0.08391 0.54342 0.04834 0.0
O1644 O 0.06621 0.50831 0.98526 0.0
O1645 O 0.11541 0.54049 0.02548 0.0
O1646 O 0.01625 0.56326 0.05052 0.0
O1647 O 0.05994 0.56091 0.02647 0.0
O1648 O 0.06504 0.55731 0.988 0.0
O1649 O 0.02975 0.53791 0.99514 0.0
O1650 O 0.04767 0.56863 0.05788 0.0
O1651 O 0.00198 0.54328 0.01546 0.0
C1652 C 0.0504 0.50137 0.99762 0.0
C1653 C 0.13362 0.51462 1.00072 0.0
C1654 C 0.16395 0.49376 0.99592 0.0
C1655 C 0.14818 0.50239 0.00989 0.0
C1656 C 0.16453 0.49792 0.97261 0.0
C1657 C 0.13574 0.51959 0.9781 0.0
C1658 C 0.15101 0.51125 0.96415 0.0
C1659 C 0.07054 0.53109 0.06082 0.0
C1660 C 0.1144 0.51897 0.01326 0.0
C1661 C 0.13791 0.60535 0.9671 0.0
C1662 C 0.14466 0.61785 0.9906 0.0
C1663 C 0.06206 0.57755 0.04489 0.0
C1664 C 0.97867 0.56071 0.0408 0.0
C1665 C 0.96724 0.57586 0.03186 0.0
C1666 C 0.94681 0.57821 0.03957 0.0
C1667 C 0.93785 0.5655 0.05643 0.0
C1668 C 0.96967 0.54798 0.05763 0.0
C1669 C 0.9493 0.55048 0.06546 0.0
C1670 C 0.04346 0.54988 0.98271 0.0
C1671 C 0.00062 0.56009 0.03348 0.0
H1672 H 0.14672 0.49939 0.02769 0.0
H1673 H 0.17505 0.4906 0.96039 0.0
H1674 H 0.12499 0.52901 0.97071 0.0
H1675 H 0.15191 0.51449 0.94635 0.0
H1676 H 0.97426 0.58587 0.01899 0.0
H1677 H 0.92207 0.56731 0.06264 0.0
H1678 H 0.97845 0.53644 0.0649 0.0
H1679 H 0.94242 0.54084 0.07859 0.0
C1680 C 0.04436 0.20245 0.98377 0.0
C1681 C 0.02433 0.20056 0.97002 0.0
C1682 C 0.04933 0.18246 0.99177 0.0
C1683 C 0.03367 0.15991 0.98671 0.0
C1684 C 0.01295 0.15828 0.97391 0.0
C1685 C 0.00875 0.17831 0.96536 0.0
C1686 C 0.07191 0.18516 0.00454 0.0
C1687 C 0.9953 0.13509 0.96876 0.0
C1688 C 0.0514 0.09994 0.97906 0.0
C1689 C 0.04817 0.09314 1.00088 0.0
C1690 C 0.04789 0.12196 0.97487 0.0
C1691 C 0.03967 0.13749 0.99243 0.0
C1692 C 0.03648 0.13084 0.01472 0.0
C1693 C 0.04114 0.10901 0.01883 0.0
C1694 C 0.05261 0.12831 0.95125 0.0
C1695 C 0.02737 0.14635 0.03393 0.0
H1696 H 0.0567 0.21936 0.98734 0.0
H1697 H 0.99319 0.17649 0.95491 0.0
H1698 H 0.07037 0.17856 0.02127 0.0
H1699 H 0.08128 0.17398 0.99326 0.0
H1700 H 0.08166 0.20413 0.00876 0.0
H1701 H 0.97932 0.1373 0.96098 0.0
H1702 H 0.00082 0.12112 0.95615 0.0
H1703 H 0.99254 0.12837 0.98532 0.0
H1704 H 0.05671 0.08778 0.96502 0.0
H1705 H 0.0382 0.10381 0.03561 0.0
H1706 H 0.06316 0.14682 0.95398 0.0
H1707 H 0.03687 0.12793 0.94096 0.0
H1708 H 0.06107 0.11566 0.94049 0.0
H1709 H 0.03929 0.16401 0.04014 0.0
H1710 H 0.02409 0.13788 0.04942 0.0
H1711 H 0.01174 0.14989 0.02678 0.0
C1712 C 0.18539 0.83246 0.15219 0.0
C1713 C 0.16324 0.82272 0.15525 0.0
C1714 C 0.20322 0.83025 0.16745 0.0
C1715 C 0.19903 0.81706 0.18567 0.0
C1716 C 0.17671 0.80665 0.18833 0.0
C1717 C 0.15926 0.81009 0.17361 0.0
C1718 C 0.22659 0.84224 0.16419 0.0
C1719 C 0.17118 0.79159 0.20666 0.0
C1720 C 0.24514 0.79108 0.21038 0.0
C1721 C 0.25217 0.80638 0.23287 0.0
C1722 C 0.22813 0.7944 0.19495 0.0
C1723 C 0.21781 0.81379 0.20176 0.0
C1724 C 0.22501 0.82949 0.22431 0.0
C1725 C 0.24193 0.82557 0.23954 0.0
C1726 C 0.22095 0.77681 0.17145 0.0
C1727 C 0.21491 0.85064 0.23235 0.0
H1728 H 0.18876 0.84237 0.13823 0.0
H1729 H 0.14237 0.80238 0.17626 0.0
H1730 H 0.23523 0.85353 0.18135 0.0
H1731 H 0.23598 0.82837 0.15834 0.0
H1732 H 0.22709 0.8537 0.15086 0.0
H1733 H 0.15319 0.78322 0.20536 0.0
H1734 H 0.18035 0.77708 0.20452 0.0
H1735 H 0.17643 0.80292 0.22474 0.0
H1736 H 0.25277 0.77613 0.20484 0.0
H1737 H 0.24732 0.8378 0.25658 0.0
H1738 H 0.22349 0.78642 0.15666 0.0
H1739 H 0.203 0.76836 0.17019 0.0
H1740 H 0.23021 0.76237 0.16893 0.0
H1741 H 0.21709 0.86252 0.21937 0.0
H1742 H 0.22244 0.8614 0.25016 0.0
H1743 H 0.19685 0.84426 0.23301 0.0
C1744 C 0.54236 0.8557 0.48631 0.0
C1745 C 0.52946 0.84576 0.46443 0.0
C1746 C 0.54605 0.8806 0.49658 0.0
C1747 C 0.53601 0.89571 0.48505 0.0
C1748 C 0.52163 0.88516 0.46392 0.0
C1749 C 0.51887 0.86059 0.45374 0.0
C1750 C 0.56171 0.89095 0.51897 0.0
C1751 C 0.51023 0.90019 0.45107 0.0
C1752 C 0.53854 0.96215 0.51313 0.0
C1753 C 0.55237 0.97398 0.49862 0.0
C1754 C 0.53289 0.93663 0.50926 0.0
C1755 C 0.54321 0.92277 0.4922 0.0
C1756 C 0.55935 0.935 0.47978 0.0
C1757 C 0.56289 0.96001 0.48229 0.0
C1758 C 0.51525 0.92462 0.52269 0.0
C1759 C 0.57278 0.92162 0.46343 0.0
H1760 H 0.55073 0.84439 0.49456 0.0
H1761 H 0.50891 0.85305 0.4368 0.0
H1762 H 0.57438 0.9068 0.5167 0.0
H1763 H 0.55239 0.89717 0.5338 0.0
H1764 H 0.57026 0.87753 0.5241 0.0
H1765 H 0.49683 0.88888 0.4374 0.0
H1766 H 0.50309 0.91261 0.46383 0.0
H1767 H 0.52249 0.91133 0.4421 0.0
H1768 H 0.53219 0.97268 0.52741 0.0
H1769 H 0.5745 0.96871 0.47157 0.0
H1770 H 0.51933 0.90865 0.52795 0.0
H1771 H 0.49944 0.91824 0.51091 0.0
H1772 H 0.51265 0.93722 0.53881 0.0
H1773 H 0.57892 0.90845 0.472 0.0
H1774 H 0.58725 0.934 0.45855 0.0
H1775 H 0.56223 0.91146 0.4469 0.0
C1776 C 0.52951 0.32568 0.66782 0.0
C1777 C 0.53243 0.30718 0.64967 0.0
C1778 C 0.50912 0.32444 0.67745 0.0
C1779 C 0.49144 0.30392 0.66908 0.0
C1780 C 0.49373 0.28643 0.64908 0.0
C1781 C 0.51428 0.28823 0.63968 0.0
C1782 C 0.50733 0.34389 0.69822 0.0
C1783 C 0.47534 0.26441 0.6393 0.0
C1784 C 0.46097 0.27963 0.71752 0.0
C1785 C 0.43958 0.2833 0.71349 0.0
C1786 C 0.47757 0.28595 0.70299 0.0
C1787 C 0.47344 0.29776 0.68456 0.0
C1788 C 0.45241 0.30305 0.68115 0.0
C1789 C 0.43562 0.29544 0.69541 0.0
C1790 C 0.49953 0.27947 0.70717 0.0
C1791 C 0.44769 0.31676 0.66256 0.0
H1792 H 0.54361 0.34032 0.67557 0.0
H1793 H 0.5166 0.27389 0.62566 0.0
H1794 H 0.49062 0.3477 0.69732 0.0
H1795 H 0.50997 0.33779 0.71499 0.0
H1796 H 0.51995 0.36084 0.69894 0.0
H1797 H 0.47831 0.25462 0.62169 0.0
H1798 H 0.4741 0.252 0.65177 0.0
H1799 H 0.45919 0.26937 0.63755 0.0
H1800 H 0.46488 0.27146 0.73205 0.0
H1801 H 0.41933 0.29863 0.69201 0.0
H1802 H 0.51302 0.29604 0.71215 0.0
H1803 H 0.50331 0.26845 0.69063 0.0
H1804 H 0.49969 0.26916 0.72145 0.0
H1805 H 0.45876 0.33509 0.66695 0.0
H1806 H 0.43024 0.31846 0.6613 0.0
H1807 H 0.45126 0.3078 0.6449 0.0
C1808 C 0.02839 0.81239 0.59869 0.0
C1809 C 0.00898 0.81171 0.60977 0.0
C1810 C 0.03529 0.82952 0.58528 0.0
C1811 C 0.02191 0.84567 0.58227 0.0
C1812 C 0.00215 0.84501 0.59341 0.0
C1813 C 0.99607 0.82814 0.60758 0.0
C1814 C 0.05694 0.83038 0.57444 0.0
C1815 C 0.98738 0.86176 0.59006 0.0
C1816 C 0.0528 0.8995 0.56143 0.0
C1817 C 0.04829 0.89144 0.53674 0.0
C1818 C 0.04319 0.88533 0.57672 0.0
C1819 C 0.02874 0.86273 0.56692 0.0
C1820 C 0.02353 0.85492 0.54204 0.0
C1821 C 0.03357 0.86937 0.52715 0.0
C1822 C 0.04939 0.89396 0.6032 0.0
C1823 C 0.00805 0.8309 0.53114 0.0
H1824 H 0.03849 0.79983 0.60105 0.0
H1825 H 0.98115 0.82745 0.6165 0.0
H1826 H 0.05388 0.82666 0.5548 0.0
H1827 H 0.06801 0.84863 0.58026 0.0
H1828 H 0.06576 0.81711 0.57944 0.0
H1829 H 0.97303 0.85945 0.60068 0.0
H1830 H 0.99693 0.88076 0.59515 0.0
H1831 H 0.98108 0.85833 0.57103 0.0
H1832 H 0.06419 0.91672 0.56874 0.0
H1833 H 0.02982 0.86354 0.50805 0.0
H1834 H 0.05977 0.88271 0.60956 0.0
H1835 H 0.03438 0.89202 0.6128 0.0
H1836 H 0.05879 0.91307 0.60801 0.0
H1837 H 0.01615 0.8162 0.53351 0.0
H1838 H 0.00348 0.82898 0.51185 0.0
H1839 H 0.99271 0.82851 0.54018 0.0
C1840 C 0.53795 0.82889 0.86627 0.0
C1841 C 0.55282 0.83232 0.84918 0.0
C1842 C 0.51593 0.83046 0.86201 0.0
C1843 C 0.5088 0.83518 0.84007 0.0
C1844 C 0.52379 0.83862 0.82284 0.0
C1845 C 0.54555 0.83716 0.82764 0.0
C1846 C 0.50042 0.82677 0.88082 0.0
C1847 C 0.51689 0.84379 0.79917 0.0
C1848 C 0.45284 0.81764 0.80649 0.0
C1849 C 0.44926 0.84049 0.80617 0.0
C1850 C 0.47103 0.81515 0.82031 0.0
C1851 C 0.48568 0.83604 0.83406 0.0
C1852 C 0.48043 0.85875 0.83611 0.0
C1853 C 0.4624 0.86082 0.82165 0.0
C1854 C 0.47593 0.79058 0.81804 0.0
C1855 C 0.49509 0.88116 0.85172 0.0
H1856 H 0.54355 0.82527 0.88304 0.0
H1857 H 0.55692 0.83984 0.81434 0.0
H1858 H 0.48828 0.83821 0.88114 0.0
H1859 H 0.49102 0.80769 0.87695 0.0
H1860 H 0.50964 0.83071 0.89875 0.0
H1861 H 0.53066 0.84579 0.78774 0.0
H1862 H 0.50305 0.829 0.78942 0.0
H1863 H 0.51095 0.86065 0.80199 0.0
H1864 H 0.44224 0.80189 0.79475 0.0
H1865 H 0.45901 0.87834 0.82185 0.0
H1866 H 0.48155 0.78778 0.83564 0.0
H1867 H 0.48951 0.78927 0.80654 0.0
H1868 H 0.46124 0.77591 0.81006 0.0
H1869 H 0.50108 0.87737 0.86875 0.0
H1870 H 0.48628 0.89592 0.85556 0.0
H1871 H 0.50979 0.88743 0.8426 0.0
C1872 C 0.48402 0.17333 0.11129 0.0
C1873 C 0.4983 0.18097 0.13244 0.0
C1874 C 0.48474 0.15229 0.09509 0.0
C1875 C 0.50041 0.13918 0.10012 0.0
C1876 C 0.51394 0.14607 0.12201 0.0
C1877 C 0.51246 0.16672 0.13807 0.0
C1878 C 0.46984 0.14499 0.07201 0.0
C1879 C 0.53135 0.13288 0.12764 0.0
C1880 C 0.50415 0.07796 0.06743 0.0
C1881 C 0.52118 0.08453 0.05361 0.0
C1882 C 0.49572 0.09571 0.08143 0.0
C1883 C 0.505 0.1202 0.08161 0.0
C1884 C 0.52154 0.12663 0.06666 0.0
C1885 C 0.52944 0.10854 0.05275 0.0
C1886 C 0.47781 0.08845 0.09693 0.0
C1887 C 0.53208 0.15259 0.06663 0.0
H1888 H 0.47293 0.18425 0.10699 0.0
H1889 H 0.52359 0.17257 0.15435 0.0
H1890 H 0.47966 0.14925 0.05731 0.0
H1891 H 0.4626 0.12529 0.06779 0.0
H1892 H 0.45619 0.15455 0.07255 0.0
H1893 H 0.53942 0.13963 0.14614 0.0
H1894 H 0.52396 0.11332 0.12507 0.0
H1895 H 0.54435 0.13517 0.11534 0.0
H1896 H 0.49782 0.0591 0.06761 0.0
H1897 H 0.54286 0.11324 0.0421 0.0
H1898 H 0.46372 0.09663 0.09357 0.0
H1899 H 0.48426 0.09531 0.11592 0.0
H1900 H 0.47164 0.06861 0.0938 0.0
H1901 H 0.51918 0.16234 0.06325 0.0
H1902 H 0.5439 0.15428 0.053 0.0
H1903 H 0.54115 0.16165 0.08431 0.0
C1904 C 0.17099 0.33256 0.32679 0.0
C1905 C 0.17518 0.32732 0.34913 0.0
C1906 C 0.18804 0.33695 0.31239 0.0
C1907 C 0.20915 0.33456 0.32009 0.0
C1908 C 0.21415 0.33296 0.34392 0.0
C1909 C 0.19693 0.3293 0.35827 0.0
C1910 C 0.18278 0.34076 0.2878 0.0
C1911 C 0.23692 0.33148 0.35314 0.0
C1912 C 0.23531 0.28828 0.28997 0.0
C1913 C 0.25618 0.30195 0.2882 0.0
C1914 C 0.21798 0.29899 0.2959 0.0
C1915 C 0.22243 0.3244 0.30234 0.0
C1916 C 0.24254 0.33844 0.29755 0.0
C1917 C 0.25916 0.32683 0.28996 0.0
C1918 C 0.19616 0.28296 0.29914 0.0
C1919 C 0.24766 0.36557 0.30272 0.0
H1920 H 0.15427 0.33195 0.3199 0.0
H1921 H 0.20027 0.32612 0.37588 0.0
H1922 H 0.19734 0.35209 0.28194 0.0
H1923 H 0.17826 0.32311 0.27507 0.0
H1924 H 0.16856 0.3494 0.28713 0.0
H1925 H 0.239 0.3345 0.37282 0.0
H1926 H 0.23956 0.31334 0.34576 0.0
H1927 H 0.24989 0.34497 0.34745 0.0
H1928 H 0.23268 0.26958 0.28927 0.0
H1929 H 0.27512 0.33745 0.28765 0.0
H1930 H 0.18199 0.28925 0.29223 0.0
H1931 H 0.19502 0.2833 0.31831 0.0
H1932 H 0.19447 0.26397 0.28982 0.0
H1933 H 0.25347 0.37207 0.28679 0.0
H1934 H 0.26142 0.37286 0.31722 0.0
H1935 H 0.23319 0.37292 0.30788 0.0
C1936 C 0.96587 0.07745 0.18227 0.0
C1937 C 0.9734 0.06932 0.20213 0.0
C1938 C 0.97659 0.07621 0.1608 0.0
C1939 C 0.99506 0.06539 0.1577 0.0
C1940 C 0.00257 0.05687 0.17763 0.0
C1941 C 0.9922 0.05941 0.19935 0.0
C1942 C 0.96807 0.08681 0.14131 0.0
C1943 C 0.02158 0.04461 0.17597 0.0
C1944 C 0.00678 0.04035 0.09213 0.0
C1945 C 0.02597 0.0568 0.08827 0.0
C1946 C 0.99706 0.04271 0.1142 0.0
C1947 C 0.00593 0.06247 0.13371 0.0
C1948 C 0.02513 0.07937 0.12983 0.0
C1949 C 0.03481 0.07628 0.10771 0.0
C1950 C 0.97726 0.02352 0.11674 0.0
C1951 C 0.03537 0.10126 0.14901 0.0
H1952 H 0.95163 0.08534 0.18364 0.0
H1953 H 0.9985 0.05285 0.21406 0.0
H1954 H 0.98201 0.09863 0.13501 0.0
H1955 H 0.96004 0.07217 0.12598 0.0
H1956 H 0.95582 0.09744 0.14724 0.0
H1957 H 0.02359 0.03589 0.19118 0.0
H1958 H 0.01905 0.03076 0.15923 0.0
H1959 H 0.0372 0.058 0.17566 0.0
H1960 H 0.99931 0.02515 0.07785 0.0
H1961 H 0.04937 0.08949 0.10562 0.0
H1962 H 0.96262 0.03136 0.1191 0.0
H1963 H 0.98042 0.01643 0.13281 0.0
H1964 H 0.9732 0.00829 0.10105 0.0
H1965 H 0.02333 0.11276 0.15235 0.0
H1966 H 0.0508 0.11211 0.14416 0.0
H1967 H 0.03924 0.09587 0.16587 0.0
C1968 C 0.26965 0.66882 0.44833 0.0
C1969 C 0.28911 0.67645 0.46384 0.0
C1970 C 0.26482 0.6828 0.43261 0.0
C1971 C 0.28032 0.70433 0.43189 0.0
C1972 C 0.30041 0.71169 0.44698 0.0
C1973 C 0.30438 0.6978 0.46328 0.0
C1974 C 0.24281 0.67493 0.41739 0.0
C1975 C 0.31733 0.73443 0.44633 0.0
C1976 C 0.26977 0.72318 0.37462 0.0
C1977 C 0.25571 0.73846 0.38133 0.0
C1978 C 0.27942 0.71319 0.39147 0.0
C1979 C 0.27498 0.71903 0.41538 0.0
C1980 C 0.26219 0.73602 0.42248 0.0
C1981 C 0.25244 0.74539 0.40518 0.0
C1982 C 0.29291 0.69503 0.38341 0.0
C1983 C 0.25737 0.74287 0.44792 0.0
H1984 H 0.25761 0.65262 0.44946 0.0
H1985 H 0.31923 0.70369 0.47572 0.0
H1986 H 0.2333 0.68905 0.42127 0.0
H1987 H 0.2455 0.67249 0.39833 0.0
H1988 H 0.23255 0.65782 0.42043 0.0
H1989 H 0.33289 0.7364 0.45778 0.0
H1990 H 0.32134 0.73456 0.42788 0.0
H1991 H 0.31041 0.75032 0.45245 0.0
H1992 H 0.27232 0.7182 0.35606 0.0
H1993 H 0.24184 0.75767 0.41014 0.0
H1994 H 0.28317 0.67672 0.38376 0.0
H1995 H 0.30827 0.69863 0.39561 0.0
H1996 H 0.29743 0.6951 0.36508 0.0
H1997 H 0.24459 0.72807 0.452 0.0
H1998 H 0.25111 0.75956 0.4512 0.0
H1999 H 0.27237 0.74557 0.46041 0.0
C2000 C 0.65076 1.0052 0.64772 0.0
C2001 C 0.64873 0.01445 0.67145 0.0
C2002 C 0.63373 1.00358 0.63034 0.0
C2003 C 0.61499 0.01215 0.63726 0.0
C2004 C 0.61215 0.01969 0.66135 0.0
C2005 C 0.62912 0.02051 0.67832 0.0
C2006 C 0.63686 0.99521 0.60455 0.0
C2007 C 0.59264 0.02982 0.66903 0.0
C2008 C 0.59654 0.04822 0.59696 0.0
C2009 C 0.57754 0.03199 0.58477 0.0
C2010 C 0.60881 0.04193 0.61442 0.0
C2011 C 0.6015 0.01896 0.6197 0.0
C2012 C 0.58164 1.00301 0.6084 0.0
C2013 C 0.56968 0.00982 0.59089 0.0
C2014 C 0.62995 0.05951 0.62653 0.0
C2015 C 0.57367 0.97848 0.61398 0.0
H2016 H 0.66591 1.00015 0.64272 0.0
H2017 H 0.62764 0.02761 0.69683 0.0
H2018 H 0.62112 0.98402 0.59446 0.0
H2019 H 0.64203 0.0111 0.59648 0.0
H2020 H 0.64979 0.98469 0.60253 0.0
H2021 H 0.59117 0.03116 0.68831 0.0
H2022 H 0.59478 0.04815 0.66535 0.0
H2023 H 0.57693 0.01861 0.65891 0.0
H2024 H 0.6023 0.0655 0.59225 0.0
H2025 H 0.5549 0.99733 0.58122 0.0
H2026 H 0.64438 0.05165 0.62257 0.0
H2027 H 0.62956 0.0632 0.64607 0.0
H2028 H 0.63264 0.07692 0.62069 0.0
H2029 H 0.58542 0.96715 0.60827 0.0
H2030 H 0.55692 0.96915 0.60491 0.0
H2031 H 0.57324 0.98002 0.6334 0.0
C2032 C 0.32133 0.3344 0.95063 0.0
C2033 C 0.30641 0.34907 0.95617 0.0
C2034 C 0.32217 0.32285 0.92692 0.0
C2035 C 0.30752 0.32583 0.90856 0.0
C2036 C 0.291 0.33864 0.91455 0.0
C2037 C 0.29083 0.35029 0.93817 0.0
C2038 C 0.34003 0.3094 0.92133 0.0
C2039 C 0.27461 0.34178 0.89573 0.0
C2040 C 0.32319 0.33458 0.84816 0.0
C2041 C 0.31279 0.31245 0.83339 0.0
C2042 C 0.32382 0.33798 0.87289 0.0
C2043 C 0.31165 0.31963 0.88311 0.0
C2044 C 0.30104 0.29708 0.86825 0.0
C2045 C 0.30228 0.29353 0.84354 0.0
C2046 C 0.33629 0.36191 0.88797 0.0
C2047 C 0.28694 0.27747 0.87815 0.0
H2048 H 0.3334 0.33338 0.96449 0.0
H2049 H 0.27904 0.36134 0.94242 0.0
H2050 H 0.33365 0.2928 0.90743 0.0
H2051 H 0.35367 0.32097 0.91435 0.0
H2052 H 0.34695 0.30447 0.93735 0.0
H2053 H 0.26071 0.34862 0.90354 0.0
H2054 H 0.28315 0.35485 0.88566 0.0
H2055 H 0.26771 0.32449 0.88291 0.0
H2056 H 0.33053 0.3495 0.84026 0.0
H2057 H 0.29342 0.27669 0.83201 0.0
H2058 H 0.34596 0.35922 0.90357 0.0
H2059 H 0.32438 0.37264 0.89466 0.0
H2060 H 0.34783 0.37245 0.87779 0.0
H2061 H 0.29654 0.27338 0.89298 0.0
H2062 H 0.28059 0.26065 0.86445 0.0
H2063 H 0.27259 0.28372 0.88545 0.0
C2064 C 0.97477 0.07007 0.36951 0.0
C2065 C 0.98377 0.06192 0.34829 0.0
C2066 C 0.98351 0.06776 0.39254 0.0
C2067 C 0.00183 0.05682 0.39528 0.0
C2068 C 0.01104 0.04895 0.374 0.0
C2069 C 0.00222 0.05164 0.35149 0.0
C2070 C 0.97295 0.07704 0.41415 0.0
C2071 C 0.03007 0.03677 0.37479 0.0
C2072 C 0.03837 0.06401 0.45607 0.0
C2073 C 0.02863 0.04362 0.465 0.0
C2074 C 0.02971 0.06885 0.43428 0.0
C2075 C 0.01094 0.05266 0.41975 0.0
C2076 C 0.00137 0.03185 0.42854 0.0
C2077 C 0.00949 0.02836 0.45108 0.0
C2078 C 0.04029 0.092 0.42728 0.0
C2079 C 0.98217 0.01308 0.41418 0.0
H2080 H 0.96063 0.07796 0.36818 0.0
H2081 H 0.0099 0.04508 0.33598 0.0
H2082 H 0.96552 0.0619 0.4224 0.0
H2083 H 0.98575 0.08981 0.42756 0.0
H2084 H 0.95985 0.08625 0.40984 0.0
H2085 H 0.03619 0.0324 0.35714 0.0
H2086 H 0.04404 0.04843 0.38749 0.0
H2087 H 0.02471 0.01984 0.38118 0.0
H2088 H 0.05228 0.077 0.46681 0.0
H2089 H 0.0003 0.01369 0.45809 0.0
H2090 H 0.02766 0.10252 0.4253 0.0
H2091 H 0.0468 0.08808 0.40983 0.0
H2092 H 0.05406 0.10329 0.44054 0.0
H2093 H 0.96731 0.02064 0.41357 0.0
H2094 H 0.97813 0.99669 0.42172 0.0
H2095 H 0.98599 0.00778 0.39562 0.0
C2096 C 0.30253 0.70322 0.605 0.0
C2097 C 0.2827 0.68969 0.5921 0.0
C2098 C 0.30245 0.72272 0.62332 0.0
C2099 C 0.28206 0.72884 0.62797 0.0
C2100 C 0.2625 0.71698 0.61286 0.0
C2101 C 0.26291 0.69691 0.59532 0.0
C2102 C 0.32363 0.73484 0.63927 0.0
C2103 C 0.24087 0.7242 0.61653 0.0
C2104 C 0.27673 0.74051 0.69289 0.0
C2105 C 0.28584 0.76533 0.6995 0.0
C2106 C 0.27455 0.72854 0.66934 0.0
C2107 C 0.2802 0.74207 0.65182 0.0
C2108 C 0.28674 0.76749 0.65801 0.0
C2109 C 0.28994 0.77892 0.68205 0.0
C2110 C 0.26803 0.70125 0.66368 0.0
C2111 C 0.29165 0.78259 0.63964 0.0
H2112 H 0.31779 0.69755 0.6018 0.0
H2113 H 0.24777 0.68658 0.58452 0.0
H2114 H 0.32659 0.75467 0.64181 0.0
H2115 H 0.32218 0.7303 0.65701 0.0
H2116 H 0.33826 0.72916 0.63201 0.0
H2117 H 0.22885 0.71724 0.60036 0.0
H2118 H 0.23335 0.71681 0.63128 0.0
H2119 H 0.24365 0.7441 0.62144 0.0
H2120 H 0.27268 0.72999 0.70622 0.0
H2121 H 0.29626 0.79827 0.68713 0.0
H2122 H 0.28113 0.6939 0.65466 0.0
H2123 H 0.25252 0.69469 0.65151 0.0
H2124 H 0.26541 0.69367 0.67982 0.0
H2125 H 0.30969 0.78658 0.63797 0.0
H2126 H 0.28707 0.8001 0.64522 0.0
H2127 H 0.28269 0.77332 0.62197 0.0
C2128 C 0.67859 0.06224 0.819 0.0
C2129 C 0.67112 0.04165 0.80105 0.0
C2130 C 0.66759 0.06529 0.83935 0.0
C2131 C 0.64879 0.04729 0.84117 0.0
C2132 C 0.64322 0.02507 0.82453 0.0
C2133 C 0.65461 0.0225 0.80443 0.0
C2134 C 0.67408 0.08912 0.85696 0.0
C2135 C 0.62335 1.00546 0.82613 0.0
C2136 C 0.61944 0.05838 0.89582 0.0
C2137 C 0.60243 0.06825 0.88767 0.0
C2138 C 0.63414 0.05046 0.88059 0.0
C2139 C 0.63252 0.05372 0.8571 0.0
C2140 C 0.61573 0.06402 0.84877 0.0
C2141 C 0.60061 0.0708 0.86412 0.0
C2142 C 0.65151 0.03891 0.88966 0.0
C2143 C 0.61391 0.06822 0.82378 0.0
H2144 H 0.69129 0.07704 0.81591 0.0
H2145 H 0.64884 0.00677 0.79012 0.0
H2146 H 0.66224 0.10024 0.85384 0.0
H2147 H 0.67334 0.08649 0.87543 0.0
H2148 H 0.69102 0.09928 0.85522 0.0
H2149 H 0.62412 0.98786 0.815 0.0
H2150 H 0.62198 1.00349 0.84475 0.0
H2151 H 0.60807 0.01025 0.81976 0.0
H2152 H 0.62153 0.05705 0.91423 0.0
H2153 H 0.5874 0.07811 0.85767 0.0
H2154 H 0.66826 0.05038 0.88963 0.0
H2155 H 0.65077 0.02125 0.87777 0.0
H2156 H 0.64944 0.0361 0.90796 0.0
H2157 H 0.62943 0.08033 0.82074 0.0
H2158 H 0.59986 0.07645 0.82024 0.0
H2159 H 0.61164 0.05096 0.81072 0.0
C2160 C 0.31999 0.3367 0.10789 0.0
C2161 C 0.30793 0.35267 0.10167 0.0
C2162 C 0.31685 0.32809 0.12891 0.0
C2163 C 0.30069 0.33492 0.14343 0.0
C2164 C 0.28786 0.35026 0.13661 0.0
C2165 C 0.29195 0.35931 0.11606 0.0
C2166 C 0.33116 0.31216 0.13587 0.0
C2167 C 0.27003 0.35737 0.15118 0.0
C2168 C 0.28032 0.29694 0.18796 0.0
C2169 C 0.29312 0.31012 0.20907 0.0
C2170 C 0.28257 0.3047 0.16647 0.0
C2171 C 0.29762 0.32665 0.16615 0.0
C2172 C 0.30964 0.34085 0.18762 0.0
C2173 C 0.3073 0.33242 0.20873 0.0
C2174 C 0.2691 0.28917 0.14406 0.0
C2175 C 0.32557 0.36462 0.1882 0.0
H2176 H 0.33239 0.33167 0.09679 0.0
H2177 H 0.28246 0.37148 0.11108 0.0
H2178 H 0.34049 0.32067 0.15354 0.0
H2179 H 0.32063 0.29463 0.13741 0.0
H2180 H 0.34317 0.30877 0.12284 0.0
H2181 H 0.26036 0.36786 0.14245 0.0
H2182 H 0.25845 0.34111 0.15428 0.0
H2183 H 0.27761 0.36841 0.16883 0.0
H2184 H 0.2686 0.28046 0.18797 0.0
H2185 H 0.31723 0.34308 0.22485 0.0
H2186 H 0.28031 0.28332 0.13106 0.0
H2187 H 0.25922 0.2997 0.13572 0.0
H2188 H 0.25768 0.2729 0.14743 0.0
H2189 H 0.33942 0.36151 0.17766 0.0
H2190 H 0.33256 0.37421 0.20657 0.0
H2191 H 0.31717 0.37649 0.18002 0.0
C2192 C 0.24477 0.95205 0.01718 0.0
C2193 C 0.26439 0.96362 0.00957 0.0
C2194 C 0.22939 0.96519 0.02536 0.0
C2195 C 0.23407 0.99014 0.02571 0.0
C2196 C 0.25333 1.00149 0.01685 0.0
C2197 C 0.26818 0.98795 0.00862 0.0
C2198 C 0.20853 0.95263 0.03413 0.0
C2199 C 0.25873 0.02812 0.01691 0.0
C2200 C 0.19138 0.02622 0.02648 0.0
C2201 C 0.19431 0.03852 0.05032 0.0
C2202 C 0.20307 0.00892 0.01867 0.0
C2203 C 0.21883 1.00474 0.03487 0.0
C2204 C 0.22212 0.01715 0.05893 0.0
C2205 C 0.20962 0.03395 0.06648 0.0
C2206 C 0.19911 0.99577 0.99292 0.0
C2207 C 0.23918 0.01309 0.07642 0.0
H2208 H 0.24199 0.93318 0.01789 0.0
H2209 H 0.28335 0.99672 0.00246 0.0
H2210 H 0.20678 0.96215 0.05228 0.0
H2211 H 0.19389 0.95305 0.02244 0.0
H2212 H 0.20832 0.93356 0.03441 0.0
H2213 H 0.27463 0.03404 0.00954 0.0
H2214 H 0.24536 0.03254 0.0063 0.0
H2215 H 0.25984 0.03868 0.03532 0.0
H2216 H 0.17972 0.03004 0.01388 0.0
H2217 H 0.21159 0.04325 0.08494 0.0
H2218 H 0.19687 0.97611 0.99155 0.0
H2219 H 0.21375 1.00185 0.98364 0.0
H2220 H 0.18432 0.99896 0.98349 0.0
H2221 H 0.23663 0.99361 0.07629 0.0
H2222 H 0.23857 0.02294 0.09481 0.0
H2223 H 0.256 0.0192 0.07112 0.0
C2224 C 0.72272 0.62276 0.99222 0.0
C2225 C 0.72465 0.64632 0.98883 0.0
C2226 C 0.70202 0.60797 0.99389 0.0
C2227 C 0.68265 0.6167 0.99156 0.0
C2228 C 0.6844 0.64018 0.9873 0.0
C2229 C 0.70541 0.6548 0.98622 0.0
C2230 C 0.70102 0.58337 0.99915 0.0
C2231 C 0.66414 0.65011 0.98457 0.0
C2232 C 0.62675 0.57113 0.98116 0.0
C2233 C 0.61945 0.57485 0.00383 0.0
C2234 C 0.64714 0.58486 0.97673 0.0
C2235 C 0.66085 0.60208 0.99558 0.0
C2236 C 0.65378 0.60539 0.01859 0.0
C2237 C 0.63309 0.5921 0.02229 0.0
C2238 C 0.65385 0.58126 0.95182 0.0
C2239 C 0.66815 0.62288 0.03944 0.0
H2240 H 0.73752 0.61609 0.9944 0.0
H2241 H 0.70677 0.67296 0.98359 0.0
H2242 H 0.694 0.58235 0.01627 0.0
H2243 H 0.6899 0.56931 0.9852 0.0
H2244 H 0.71758 0.57917 1.00025 0.0
H2245 H 0.668 0.66759 0.97887 0.0
H2246 H 0.65131 0.6371 0.97138 0.0
H2247 H 0.6569 0.65285 1.00172 0.0
H2248 H 0.61629 0.55792 0.96677 0.0
H2249 H 0.62778 0.59517 0.03985 0.0
H2250 H 0.66978 0.57566 0.9515 0.0
H2251 H 0.65648 0.59854 0.94579 0.0
H2252 H 0.6412 0.56748 0.93904 0.0
H2253 H 0.68445 0.6183 0.04159 0.0
H2254 H 0.66048 0.6228 0.05635 0.0
H2255 H 0.67131 0.64141 0.03621 0.0
C2256 C 0.74096 0.44514 0.27105 0.0
C2257 C 0.71819 0.44072 0.26264 0.0
C2258 C 0.75247 0.42621 0.27192 0.0
C2259 C 0.74164 0.40126 0.26391 0.0
C2260 C 0.71871 0.39669 0.25527 0.0
C2261 C 0.70752 0.41595 0.25493 0.0
C2262 C 0.77655 0.43304 0.28159 0.0
C2263 C 0.70571 0.37109 0.24627 0.0
C2264 C 0.77526 0.35102 0.2447 0.0
C2265 C 0.77594 0.33949 0.2641 0.0
C2266 C 0.76509 0.37104 0.24471 0.0
C2267 C 0.75411 0.38028 0.26433 0.0
C2268 C 0.75482 0.36875 0.28408 0.0
C2269 C 0.7654 0.34891 0.2837 0.0
C2270 C 0.76564 0.38194 0.22309 0.0
C2271 C 0.7438 0.37703 0.30569 0.0
H2272 H 0.74998 0.46371 0.27728 0.0
H2273 H 0.69013 0.41145 0.24834 0.0
H2274 H 0.77909 0.42384 0.2963 0.0
H2275 H 0.78671 0.42694 0.26752 0.0
H2276 H 0.78269 0.45278 0.28825 0.0
H2277 H 0.68855 0.37004 0.23888 0.0
H2278 H 0.71418 0.36169 0.23229 0.0
H2279 H 0.70492 0.36128 0.26097 0.0
H2280 H 0.78245 0.34398 0.22897 0.0
H2281 H 0.76473 0.34016 0.29866 0.0
H2282 H 0.77247 0.40168 0.22832 0.0
H2283 H 0.74852 0.37894 0.21456 0.0
H2284 H 0.77579 0.37414 0.20986 0.0
H2285 H 0.75071 0.39654 0.3129 0.0
H2286 H 0.74599 0.36706 0.31988 0.0
H2287 H 0.72582 0.37453 0.30068 0.0
C2288 C 0.89888 0.46758 0.51626 0.0
C2289 C 0.88912 0.48723 0.51733 0.0
C2290 C 0.92176 0.47082 0.51771 0.0
C2291 C 0.9351 0.49434 0.52075 0.0
C2292 C 0.92541 0.51438 0.52283 0.0
C2293 C 0.90231 0.51057 0.52087 0.0
C2294 C 0.93154 0.44895 0.51442 0.0
C2295 C 0.93938 0.53967 0.52702 0.0
C2296 C 0.9955 0.5003 0.53823 0.0
C2297 C 0.00386 0.49786 0.51606 0.0
C2298 C 0.97317 0.4998 0.54021 0.0
C2299 C 0.95902 0.49733 0.51947 0.0
C2300 C 0.96724 0.49472 0.49701 0.0
C2301 C 0.98948 0.49419 0.49561 0.0
C2302 C 0.96474 0.50135 0.56437 0.0
C2303 C 0.95278 0.49301 0.47449 0.0
H2304 H 0.88858 0.44944 0.51311 0.0
H2305 H 0.8946 0.52568 0.52193 0.0
H2306 H 0.93936 0.44713 0.49756 0.0
H2307 H 0.94464 0.45103 0.52906 0.0
H2308 H 0.91887 0.43206 0.51377 0.0
H2309 H 0.92924 0.55312 0.52659 0.0
H2310 H 0.94894 0.54391 0.54472 0.0
H2311 H 0.9514 0.54127 0.5136 0.0
H2312 H 0.00637 0.50287 0.55415 0.0
H2313 H 0.99537 0.49063 0.47854 0.0
H2314 H 0.95464 0.48344 0.56548 0.0
H2315 H 0.95391 0.51424 0.56716 0.0
H2316 H 0.97845 0.50692 0.57899 0.0
H2317 H 0.95966 0.48468 0.45853 0.0
H2318 H 0.95182 0.51147 0.47293 0.0
H2319 H 0.93565 0.48245 0.47455 0.0
C2320 C 0.37964 0.12245 0.32494 0.0
C2321 C 0.39084 0.10777 0.31075 0.0
C2322 C 0.36801 0.1366 0.31461 0.0
C2323 C 0.36696 0.13459 0.2897 0.0
C2324 C 0.37908 0.12035 0.27565 0.0
C2325 C 0.39127 0.10745 0.28656 0.0
C2326 C 0.35591 0.15253 0.32996 0.0
C2327 C 0.37776 0.11705 0.24889 0.0
C2328 C 0.3175 0.13691 0.25144 0.0
C2329 C 0.32579 0.15782 0.24335 0.0
C2330 C 0.33007 0.13027 0.26866 0.0
C2331 C 0.3514 0.14488 0.27745 0.0
C2332 C 0.35928 0.16676 0.27027 0.0
C2333 C 0.34622 0.17308 0.25322 0.0
C2334 C 0.32125 0.10673 0.27599 0.0
C2335 C 0.3821 0.18248 0.27913 0.0
H2336 H 0.37944 0.12226 0.34367 0.0
H2337 H 0.39987 0.09559 0.27582 0.0
H2338 H 0.35815 0.17025 0.32486 0.0
H2339 H 0.33792 0.14403 0.32734 0.0
H2340 H 0.36173 0.15547 0.3491 0.0
H2341 H 0.38908 0.10606 0.24096 0.0
H2342 H 0.36059 0.10791 0.241 0.0
H2343 H 0.38193 0.13475 0.24377 0.0
H2344 H 0.30133 0.12566 0.24405 0.0
H2345 H 0.35224 0.18952 0.24701 0.0
H2346 H 0.32367 0.10909 0.29556 0.0
H2347 H 0.33051 0.09333 0.26819 0.0
H2348 H 0.30336 0.09927 0.26993 0.0
H2349 H 0.38651 0.18273 0.29809 0.0
H2350 H 0.38333 0.20124 0.277 0.0
H2351 H 0.3945 0.17518 0.26874 0.0
C2352 C 0.36824 0.16415 0.5162 0.0
C2353 C 0.348 0.14788 0.51646 0.0
C2354 C 0.38839 0.15701 0.5183 0.0
C2355 C 0.38805 0.1331 0.52043 0.0
C2356 C 0.36753 0.1163 0.51894 0.0
C2357 C 0.34785 0.12393 0.51708 0.0
C2358 C 0.40999 0.1752 0.51932 0.0
C2359 C 0.36631 0.09049 0.52073 0.0
C2360 C 0.43331 0.09923 0.51641 0.0
C2361 C 0.43753 0.0985 0.54036 0.0
C2362 C 0.41899 0.11288 0.50957 0.0
C2363 C 0.40862 0.12585 0.52712 0.0
C2364 C 0.41475 0.1272 0.55145 0.0
C2365 C 0.42915 0.11349 0.55777 0.0
C2366 C 0.41337 0.11145 0.48347 0.0
C2367 C 0.40437 0.14114 0.57078 0.0
H2368 H 0.36839 0.18264 0.51548 0.0
H2369 H 0.33222 0.11115 0.5167 0.0
H2370 H 0.41902 0.17921 0.53731 0.0
H2371 H 0.42075 0.16777 0.50664 0.0
H2372 H 0.40744 0.19233 0.51519 0.0
H2373 H 0.34904 0.07938 0.51759 0.0
H2374 H 0.3762 0.08211 0.50764 0.0
H2375 H 0.37338 0.09002 0.53868 0.0
H2376 H 0.43993 0.08785 0.50286 0.0
H2377 H 0.43296 0.11354 0.57635 0.0
H2378 H 0.41154 0.12911 0.48021 0.0
H2379 H 0.39734 0.09826 0.47723 0.0
H2380 H 0.4262 0.10553 0.47273 0.0
H2381 H 0.40457 0.15937 0.56767 0.0
H2382 H 0.413 0.14298 0.58868 0.0
H2383 H 0.3868 0.13168 0.57062 0.0
C2384 C 0.70572 0.61331 0.26598 0.0
C2385 C 0.7145 0.59442 0.27178 0.0
C2386 C 0.71897 0.63668 0.26663 0.0
C2387 C 0.74211 0.6424 0.27361 0.0
C2388 C 0.75123 0.62359 0.27973 0.0
C2389 C 0.73754 0.60002 0.27855 0.0
C2390 C 0.70799 0.65536 0.25958 0.0
C2391 C 0.77553 0.62857 0.28806 0.0
C2392 C 0.7791 0.69791 0.25497 0.0
C2393 C 0.77996 0.71698 0.27448 0.0
C2394 C 0.7672 0.67386 0.25453 0.0
C2395 C 0.75638 0.66794 0.27445 0.0
C2396 C 0.75804 0.68708 0.29457 0.0
C2397 C 0.76919 0.71112 0.2941 0.0
C2398 C 0.7655 0.65487 0.23223 0.0
C2399 C 0.7477 0.68235 0.31668 0.0
H2400 H 0.68813 0.60981 0.2606 0.0
H2401 H 0.74488 0.58611 0.2833 0.0
H2402 H 0.71005 0.67092 0.27472 0.0
H2403 H 0.71605 0.66221 0.24481 0.0
H2404 H 0.69001 0.64815 0.2539 0.0
H2405 H 0.78044 0.61235 0.29186 0.0
H2406 H 0.78562 0.6352 0.27445 0.0
H2407 H 0.77952 0.643 0.30442 0.0
H2408 H 0.78695 0.70199 0.2395 0.0
H2409 H 0.7696 0.72545 0.30936 0.0
H2410 H 0.74786 0.6478 0.22495 0.0
H2411 H 0.77172 0.6395 0.23631 0.0
H2412 H 0.77497 0.66192 0.21836 0.0
H2413 H 0.72948 0.67958 0.31354 0.0
H2414 H 0.75389 0.69761 0.33212 0.0
H2415 H 0.75115 0.66576 0.32124 0.0
C2416 C 0.87909 0.45382 0.76137 0.0
C2417 C 0.89122 0.46683 0.78267 0.0
C2418 C 0.86495 0.43147 0.7605 0.0
C2419 C 0.86374 0.42193 0.78127 0.0
C2420 C 0.8759 0.43531 0.80291 0.0
C2421 C 0.88932 0.45798 0.80343 0.0
C2422 C 0.85204 0.41769 0.73718 0.0
C2423 C 0.87505 0.42566 0.82529 0.0
C2424 C 0.81715 0.36696 0.77347 0.0
C2425 C 0.82853 0.34905 0.76665 0.0
C2426 C 0.8288 0.391 0.78061 0.0
C2427 C 0.85191 0.39684 0.77921 0.0
C2428 C 0.86337 0.37857 0.77227 0.0
C2429 C 0.85145 0.35475 0.76622 0.0
C2430 C 0.8164 0.41013 0.78889 0.0
C2431 C 0.88796 0.38424 0.77002 0.0
H2432 H 0.88053 0.46127 0.74556 0.0
H2433 H 0.89876 0.46857 0.81989 0.0
H2434 H 0.85846 0.40154 0.73067 0.0
H2435 H 0.83429 0.41141 0.73948 0.0
H2436 H 0.85335 0.42879 0.72351 0.0
H2437 H 0.8871 0.43751 0.84004 0.0
H2438 H 0.85817 0.42404 0.83097 0.0
H2439 H 0.87858 0.40751 0.82196 0.0
H2440 H 0.79929 0.36218 0.77311 0.0
H2441 H 0.85998 0.34055 0.76073 0.0
H2442 H 0.81755 0.4226 0.7765 0.0
H2443 H 0.82402 0.42094 0.80661 0.0
H2444 H 0.79863 0.40233 0.79007 0.0
H2445 H 0.89142 0.39431 0.75567 0.0
H2446 H 0.89444 0.36773 0.76583 0.0
H2447 H 0.89718 0.39585 0.78674 0.0
C2448 C 0.10599 0.90469 0.08422 0.0
C2449 C 0.09299 0.88118 0.07576 0.0
C2450 C 0.10162 0.92455 0.07556 0.0
C2451 C 0.08303 0.92141 0.05874 0.0
C2452 C 0.06999 0.89762 0.04987 0.0
C2453 C 0.0754 0.87786 0.05804 0.0
C2454 C 0.11678 0.94912 0.08481 0.0
C2455 C 0.04979 0.8931 0.03232 0.0
C2456 C 0.06024 0.97826 0.06459 0.0
C2457 C 0.06607 0.98708 0.04429 0.0
C2458 C 0.06411 0.95621 0.06833 0.0
C2459 C 0.0761 0.94323 0.05255 0.0
C2460 C 0.08238 0.95217 0.03201 0.0
C2461 C 0.0769 0.97365 0.02789 0.0
C2462 C 0.05567 0.94708 0.08962 0.0
C2463 C 0.09626 0.94012 0.01524 0.0
H2464 H 0.11974 0.90759 0.09771 0.0
H2465 H 0.06515 0.85988 0.05133 0.0
H2466 H 0.12127 0.95811 0.06991 0.0
H2467 H 0.10816 0.96057 0.09678 0.0
H2468 H 0.13223 0.94814 0.09485 0.0
H2469 H 0.04019 0.87409 0.02876 0.0
H2470 H 0.03879 0.905 0.03906 0.0
H2471 H 0.05488 0.89744 0.01529 0.0
H2472 H 0.05246 0.98876 0.07775 0.0
H2473 H 0.08235 0.98071 0.01263 0.0
H2474 H 0.06977 0.94885 0.10302 0.0
H2475 H 0.04716 0.92772 0.08435 0.0
H2476 H 0.04394 0.95719 0.09808 0.0
H2477 H 0.11356 0.94454 0.02371 0.0
H2478 H 0.0964 0.9463 0.9982 0.0
H2479 H 0.09029 0.92026 0.01144 0.0
C2480 C 0.93704 0.27044 0.89307 0.0
C2481 C 0.95379 0.264 0.87966 0.0
C2482 C 0.91677 0.2725 0.88188 0.0
C2483 C 0.91293 0.2678 0.85665 0.0
C2484 C 0.9294 0.26015 0.84317 0.0
C2485 C 0.94946 0.25853 0.85475 0.0
C2486 C 0.89982 0.28075 0.89704 0.0
C2487 C 0.92638 0.25483 0.81636 0.0
C2488 C 0.85498 0.25732 0.82315 0.0
C2489 C 0.85491 0.27991 0.81805 0.0
C2490 C 0.87322 0.25332 0.83635 0.0
C2491 C 0.89248 0.27218 0.84421 0.0
C2492 C 0.8927 0.29495 0.8387 0.0
C2493 C 0.87405 0.29851 0.82589 0.0
C2494 C 0.87196 0.22871 0.84159 0.0
C2495 C 0.91292 0.31553 0.84591 0.0
H2496 H 0.94027 0.27522 0.91226 0.0
H2497 H 0.96228 0.25373 0.84413 0.0
H2498 H 0.89789 0.29851 0.89412 0.0
H2499 H 0.88345 0.26793 0.89181 0.0
H2500 H 0.90453 0.28244 0.91626 0.0
H2501 H 0.93971 0.24699 0.80843 0.0
H2502 H 0.91019 0.24215 0.80955 0.0
H2503 H 0.92638 0.27171 0.81016 0.0
H2504 H 0.84086 0.24256 0.81674 0.0
H2505 H 0.8749 0.31584 0.82153 0.0
H2506 H 0.87569 0.23026 0.86093 0.0
H2507 H 0.88458 0.22054 0.83253 0.0
H2508 H 0.8554 0.21639 0.83567 0.0
H2509 H 0.91712 0.31947 0.86544 0.0
H2510 H 0.91049 0.33221 0.84062 0.0
H2511 H 0.92733 0.31044 0.83762 0.0
C2512 C 0.60606 0.21995 0.57956 0.0
C2513 C 0.58938 0.23251 0.57823 0.0
C2514 C 0.60235 0.19526 0.5694 0.0
C2515 C 0.58123 0.18239 0.55779 0.0
C2516 C 0.56451 0.19525 0.55551 0.0
C2517 C 0.56881 0.22019 0.56565 0.0
C2518 C 0.62096 0.18285 0.57166 0.0
C2519 C 0.54165 0.18236 0.54364 0.0
C2520 C 0.57248 0.11886 0.51905 0.0
C2521 C 0.56494 0.10425 0.53494 0.0
C2522 C 0.57854 0.14418 0.52633 0.0
C2523 C 0.57617 0.15534 0.54988 0.0
C2524 C 0.56866 0.14051 0.56602 0.0
C2525 C 0.56327 0.11522 0.5584 0.0
C2526 C 0.58707 0.15896 0.50862 0.0
C2527 C 0.56569 0.15141 0.59123 0.0
H2528 H 0.62194 0.22939 0.58939 0.0
H2529 H 0.55568 0.22968 0.56501 0.0
H2530 H 0.61567 0.16729 0.58012 0.0
H2531 H 0.62521 0.17603 0.55368 0.0
H2532 H 0.63607 0.19507 0.58222 0.0
H2533 H 0.53109 0.19505 0.54141 0.0
H2534 H 0.54269 0.17131 0.52596 0.0
H2535 H 0.53347 0.1699 0.55451 0.0
H2536 H 0.57359 0.11047 0.50084 0.0
H2537 H 0.55691 0.10398 0.57055 0.0
H2538 H 0.60303 0.17176 0.5161 0.0
H2539 H 0.57515 0.16974 0.50481 0.0
H2540 H 0.58957 0.14756 0.49164 0.0
H2541 H 0.58166 0.16301 0.60042 0.0
H2542 H 0.5596 0.13751 0.60155 0.0
H2543 H 0.55372 0.16302 0.59121 0.0
C2544 C 0.6 0.78737 0.40805 0.0
C2545 C 0.58438 0.76523 0.40311 0.0
C2546 C 0.61878 0.79102 0.39548 0.0
C2547 C 0.62253 0.77179 0.37815 0.0
C2548 C 0.60757 0.74889 0.3744 0.0
C2549 C 0.58842 0.74605 0.38649 0.0
C2550 C 0.6338 0.8159 0.39967 0.0
C2551 C 0.61146 0.72757 0.35707 0.0
C2552 C 0.65069 0.78799 0.32479 0.0
C2553 C 0.67315 0.78916 0.33122 0.0
C2554 C 0.63432 0.78239 0.33986 0.0
C2555 C 0.64006 0.77653 0.3617 0.0
C2556 C 0.66239 0.77604 0.36775 0.0
C2557 C 0.67872 0.7827 0.35264 0.0
C2558 C 0.61089 0.78355 0.33265 0.0
C2559 C 0.6692 0.76905 0.39041 0.0
H2560 H 0.59689 0.80228 0.42083 0.0
H2561 H 0.57653 0.72881 0.38287 0.0
H2562 H 0.65127 0.81513 0.40339 0.0
H2563 H 0.63265 0.82323 0.38339 0.0
H2564 H 0.62942 0.82854 0.41469 0.0
H2565 H 0.59996 0.71046 0.35837 0.0
H2566 H 0.60914 0.73023 0.33867 0.0
H2567 H 0.62875 0.7259 0.36032 0.0
H2568 H 0.64581 0.79189 0.30793 0.0
H2569 H 0.69588 0.78341 0.35797 0.0
H2570 H 0.6054 0.79649 0.34649 0.0
H2571 H 0.59944 0.7657 0.33108 0.0
H2572 H 0.60927 0.78918 0.31545 0.0
H2573 H 0.66997 0.78418 0.40569 0.0
H2574 H 0.68573 0.76474 0.39021 0.0
H2575 H 0.65689 0.75325 0.39339 0.0
C2576 C 0.08117 0.24413 0.41879 0.0
C2577 C 0.1028 0.25842 0.42263 0.0
C2578 C 0.0743 0.22731 0.43275 0.0
C2579 C 0.0897 0.22438 0.45033 0.0
C2580 C 0.11199 0.23756 0.45303 0.0
C2581 C 0.11819 0.25483 0.4394 0.0
C2582 C 0.05028 0.21385 0.42973 0.0
C2583 C 0.12906 0.23397 0.47082 0.0
C2584 C 0.06789 0.20581 0.50523 0.0
C2585 C 0.06589 0.18088 0.49966 0.0
C2586 C 0.0754 0.22009 0.48914 0.0
C2587 C 0.08198 0.20934 0.46739 0.0
C2588 C 0.08068 0.18435 0.46183 0.0
C2589 C 0.07205 0.17031 0.47772 0.0
C2590 C 0.07607 0.24668 0.49535 0.0
C2591 C 0.08823 0.17242 0.43908 0.0
H2592 H 0.06932 0.24705 0.4058 0.0
H2593 H 0.13502 0.26572 0.44201 0.0
H2594 H 0.04891 0.19422 0.42741 0.0
H2595 H 0.04245 0.21962 0.44599 0.0
H2596 H 0.0408 0.2171 0.41427 0.0
H2597 H 0.14605 0.24405 0.46914 0.0
H2598 H 0.125 0.2401 0.48912 0.0
H2599 H 0.1289 0.21456 0.46845 0.0
H2600 H 0.06362 0.21426 0.52221 0.0
H2601 H 0.06999 0.15098 0.47272 0.0
H2602 H 0.06626 0.25161 0.4812 0.0
H2603 H 0.09336 0.25731 0.49646 0.0
H2604 H 0.06941 0.25198 0.51253 0.0
H2605 H 0.0768 0.1726 0.4237 0.0
H2606 H 0.08877 0.15345 0.4389 0.0
H2607 H 0.10495 0.18249 0.43654 0.0
C2608 C 0.58315 0.2516 0.1617 0.0
C2609 C 0.57258 0.26747 0.17561 0.0
C2610 C 0.60114 0.24468 0.17168 0.0
C2611 C 0.60861 0.25404 0.19597 0.0
C2612 C 0.59856 0.27082 0.20979 0.0
C2613 C 0.58064 0.27735 0.1994 0.0
C2614 C 0.61165 0.22685 0.15652 0.0
C2615 C 0.60632 0.28137 0.23576 0.0
C2616 C 0.63904 0.22397 0.2348 0.0
C2617 C 0.66022 0.23931 0.23813 0.0
C2618 C 0.62223 0.22742 0.21956 0.0
C2619 C 0.62692 0.24651 0.20737 0.0
C2620 C 0.64861 0.26089 0.20929 0.0
C2621 C 0.66491 0.25738 0.22494 0.0
C2622 C 0.59914 0.21178 0.21781 0.0
C2623 C 0.65422 0.28123 0.19628 0.0
H2624 H 0.57683 0.24381 0.1433 0.0
H2625 H 0.57248 0.28965 0.21011 0.0
H2626 H 0.62975 0.23425 0.15735 0.0
H2627 H 0.60929 0.21009 0.16344 0.0
H2628 H 0.60449 0.22216 0.13765 0.0
H2629 H 0.59659 0.29412 0.24394 0.0
H2630 H 0.60496 0.26673 0.24574 0.0
H2631 H 0.62402 0.29103 0.23784 0.0
H2632 H 0.63542 0.20978 0.24466 0.0
H2633 H 0.68106 0.26973 0.22769 0.0
H2634 H 0.59189 0.20558 0.19902 0.0
H2635 H 0.58835 0.22246 0.22734 0.0
H2636 H 0.59889 0.19579 0.2257 0.0
H2637 H 0.64697 0.2753 0.17748 0.0
H2638 H 0.67239 0.28815 0.19675 0.0
H2639 H 0.64705 0.2963 0.20462 0.0
C2640 C 0.64477 0.91821 0.93036 0.0
C2641 C 0.6303 0.90388 0.91102 0.0
C2642 C 0.639 0.93817 0.94409 0.0
C2643 C 0.61801 0.94267 0.93868 0.0
C2644 C 0.60375 0.92847 0.91865 0.0
C2645 C 0.61033 0.90943 0.90479 0.0
C2646 C 0.65474 0.95366 0.96495 0.0
C2647 C 0.58087 0.93216 0.91286 0.0
C2648 C 0.58662 0.96797 0.98694 0.0
C2649 C 0.58657 0.99028 0.98164 0.0
C2650 C 0.59785 0.9526 0.97372 0.0
C2651 C 0.60956 0.96023 0.95521 0.0
C2652 C 0.61025 0.98325 0.95044 0.0
C2653 C 0.59828 0.99792 0.96351 0.0
C2654 C 0.596 0.92772 0.97862 0.0
C2655 C 0.6231 0.99205 0.9312 0.0
H2656 H 0.66014 0.91349 0.93501 0.0
H2657 H 0.59917 0.89781 0.88988 0.0
H2658 H 0.65589 0.97302 0.96535 0.0
H2659 H 0.64841 0.94991 0.98173 0.0
H2660 H 0.67159 0.9502 0.96441 0.0
H2661 H 0.57219 0.91979 0.89621 0.0
H2662 H 0.57064 0.92905 0.92758 0.0
H2663 H 0.58188 0.95094 0.91099 0.0
H2664 H 0.57707 0.96211 1.00069 0.0
H2665 H 0.59829 0.01547 0.95977 0.0
H2666 H 0.61266 0.92414 0.98121 0.0
H2667 H 0.58668 0.91403 0.96313 0.0
H2668 H 0.58736 0.9253 0.99461 0.0
H2669 H 0.64046 0.99037 0.93376 0.0
H2670 H 0.62316 0.01111 0.93101 0.0
H2671 H 0.61579 0.98077 0.91356 0.0
C2672 C 0.94768 0.78082 0.71423 0.0
C2673 C 0.95001 0.75758 0.7054 0.0
C2674 C 0.92777 0.78445 0.72228 0.0
C2675 C 0.90987 0.76434 0.72064 0.0
C2676 C 0.91193 0.74084 0.71058 0.0
C2677 C 0.9323 0.73769 0.70332 0.0
C2678 C 0.92596 0.80969 0.73254 0.0
C2679 C 0.89285 0.71909 0.70797 0.0
C2680 C 0.86726 0.7653 0.76407 0.0
C2681 C 0.84922 0.76705 0.74965 0.0
C2682 C 0.88759 0.76547 0.75501 0.0
C2683 C 0.88952 0.76748 0.73113 0.0
C2684 C 0.87142 0.77021 0.71685 0.0
C2685 C 0.85118 0.76927 0.72618 0.0
C2686 C 0.90663 0.76219 0.7705 0.0
C2687 C 0.87302 0.77283 0.69145 0.0
H2688 H 0.96159 0.79604 0.71525 0.0
H2689 H 0.93436 0.71981 0.69585 0.0
H2690 H 0.91424 0.81482 0.72042 0.0
H2691 H 0.91939 0.81058 0.75006 0.0
H2692 H 0.94212 0.82299 0.73476 0.0
H2693 H 0.8969 0.70233 0.6984 0.0
H2694 H 0.88829 0.71659 0.72576 0.0
H2695 H 0.87807 0.72183 0.69816 0.0
H2696 H 0.86521 0.76294 0.78206 0.0
H2697 H 0.83672 0.76983 0.71503 0.0
H2698 H 0.92161 0.77665 0.77068 0.0
H2699 H 0.91069 0.74476 0.7631 0.0
H2700 H 0.90275 0.76236 0.78907 0.0
H2701 H 0.88864 0.78561 0.68984 0.0
H2702 H 0.85886 0.77923 0.68452 0.0
H2703 H 0.87306 0.75513 0.68009 0.0
C2704 C 0.14881 0.02226 0.86354 0.0
C2705 C 0.13522 0.01281 0.84178 0.0
C2706 C 0.13999 0.02414 0.88622 0.0
C2707 C 0.11681 0.01606 0.88804 0.0
C2708 C 0.10321 1.00583 0.86611 0.0
C2709 C 0.11233 1.00478 0.84378 0.0
C2710 C 0.15559 0.03555 0.90841 0.0
C2711 C 0.07861 0.99645 0.86608 0.0
C2712 C 0.09384 1.00327 0.94793 0.0
C2713 C 0.08687 0.02429 0.95782 0.0
C2714 C 0.10382 1.00058 0.92598 0.0
C2715 C 0.10668 0.01895 0.91242 0.0
C2716 C 0.09915 0.03995 0.92215 0.0
C2717 C 0.08982 0.04243 0.94442 0.0
C2718 C 0.11141 0.97786 0.91726 0.0
C2719 C 0.10076 0.06 0.90884 0.0
H2720 H 0.16633 0.02929 0.86288 0.0
H2721 H 0.10124 0.99782 0.82753 0.0
H2722 H 0.15056 0.05165 0.91805 0.0
H2723 H 0.15466 0.02274 0.92045 0.0
H2724 H 0.17303 0.04107 0.90453 0.0
H2725 H 0.07045 0.98691 0.84811 0.0
H2726 H 0.07531 0.98392 0.87837 0.0
H2727 H 0.0709 0.01166 0.87252 0.0
H2728 H 0.09182 0.9889 0.95763 0.0
H2729 H 0.0843 0.05863 0.95114 0.0
H2730 H 0.12934 0.9824 0.91504 0.0
H2731 H 0.10252 0.96847 0.89959 0.0
H2732 H 0.10857 0.96533 0.92962 0.0
H2733 H 0.11833 0.06729 0.90649 0.0
H2734 H 0.09388 0.07493 0.91813 0.0
H2735 H 0.09166 0.05292 0.89085 0.0
C2736 C 0.84979 0.41024 0.59044 0.0
C2737 C 0.82835 0.40991 0.58155 0.0
C2738 C 0.8531 0.39845 0.60876 0.0
C2739 C 0.83446 0.38677 0.61852 0.0
C2740 C 0.81292 0.38821 0.61084 0.0
C2741 C 0.81004 0.39936 0.59192 0.0
C2742 C 0.87634 0.39743 0.61684 0.0
C2743 C 0.79296 0.37732 0.62209 0.0
C2744 C 0.84384 0.33291 0.64071 0.0
C2745 C 0.85025 0.34296 0.66476 0.0
C2746 C 0.83731 0.34676 0.62563 0.0
C2747 C 0.83748 0.37115 0.63503 0.0
C2748 C 0.84261 0.38085 0.65967 0.0
C2749 C 0.84902 0.36651 0.67433 0.0
C2750 C 0.83161 0.33576 0.59943 0.0
C2751 C 0.84259 0.40655 0.6707 0.0
H2752 H 0.86384 0.41858 0.58221 0.0
H2753 H 0.79352 0.39963 0.58504 0.0
H2754 H 0.87972 0.40379 0.6364 0.0
H2755 H 0.87801 0.37851 0.61251 0.0
H2756 H 0.88906 0.40854 0.6083 0.0
H2757 H 0.77775 0.38234 0.61583 0.0
H2758 H 0.7901 0.3574 0.61782 0.0
H2759 H 0.79596 0.38331 0.64171 0.0
H2760 H 0.84485 0.31455 0.63359 0.0
H2761 H 0.85405 0.37402 0.69305 0.0
H2762 H 0.84451 0.34444 0.58932 0.0
H2763 H 0.8156 0.33899 0.593 0.0
H2764 H 0.83045 0.31606 0.5954 0.0
H2765 H 0.85987 0.41674 0.67707 0.0
H2766 H 0.83305 0.40686 0.68636 0.0
H2767 H 0.83531 0.41595 0.65843 0.0
C2768 C 0.4938 0.06225 0.36585 0.0
C2769 C 0.4709 0.0538 0.36384 0.0
C2770 C 0.50596 0.06792 0.38791 0.0
C2771 C 0.49467 0.06415 0.40788 0.0
C2772 C 0.4713 0.05849 0.40634 0.0
C2773 C 0.4595 0.05342 0.38398 0.0
C2774 C 0.53096 0.07425 0.38919 0.0
C2775 C 0.45899 0.05488 0.42765 0.0
C2776 C 0.52521 0.02994 0.4403 0.0
C2777 C 0.53738 0.04842 0.45831 0.0
C2778 C 0.50995 0.03467 0.42452 0.0
C2779 C 0.50711 0.05851 0.42719 0.0
C2780 C 0.51907 0.07714 0.44577 0.0
C2781 C 0.53448 0.07185 0.46108 0.0
C2782 C 0.49709 0.01418 0.40497 0.0
C2783 C 0.51548 0.10236 0.44953 0.0
H2784 H 0.50228 0.06325 0.35004 0.0
H2785 H 0.44159 0.04737 0.38206 0.0
H2786 H 0.53823 0.08882 0.40485 0.0
H2787 H 0.5373 0.05823 0.39105 0.0
H2788 H 0.53686 0.08008 0.37299 0.0
H2789 H 0.441 0.05373 0.42399 0.0
H2790 H 0.46095 0.03796 0.43269 0.0
H2791 H 0.46592 0.06981 0.44311 0.0
H2792 H 0.52706 0.01167 0.43922 0.0
H2793 H 0.54317 0.08561 0.47607 0.0
H2794 H 0.50102 0.01792 0.38738 0.0
H2795 H 0.47904 0.01236 0.40574 0.0
H2796 H 0.5009 0.99666 0.40623 0.0
H2797 H 0.52148 0.11083 0.43477 0.0
H2798 H 0.52427 0.1139 0.46654 0.0
H2799 H 0.49756 0.10189 0.44947 0.0
C2800 C 0.77289 0.71495 0.09976 0.0
C2801 C 0.78956 0.72036 0.08502 0.0
C2802 C 0.77522 0.72669 0.12368 0.0
C2803 C 0.79487 0.7442 0.13334 0.0
C2804 C 0.81171 0.75011 0.11845 0.0
C2805 C 0.80874 0.73828 0.09432 0.0
C2806 C 0.75649 0.72039 0.13851 0.0
C2807 C 0.83331 0.76794 0.12825 0.0
C2808 C 0.79639 0.78806 0.19214 0.0
C2809 C 0.80343 0.77562 0.2084 0.0
C2810 C 0.79272 0.77769 0.16771 0.0
C2811 C 0.7981 0.75531 0.15926 0.0
C2812 C 0.80604 0.74313 0.17569 0.0
C2813 C 0.80802 0.75314 0.2001 0.0
C2814 C 0.78319 0.7907 0.15098 0.0
C2815 C 0.81291 0.7198 0.16748 0.0
H2816 H 0.75797 0.7012 0.09258 0.0
H2817 H 0.82184 0.7422 0.08308 0.0
H2818 H 0.76263 0.71684 0.15558 0.0
H2819 H 0.74878 0.73594 0.14262 0.0
H2820 H 0.74353 0.70442 0.12916 0.0
H2821 H 0.84383 0.77221 0.11404 0.0
H2822 H 0.83026 0.78492 0.13848 0.0
H2823 H 0.84262 0.76038 0.14069 0.0
H2824 H 0.79373 0.80589 0.19856 0.0
H2825 H 0.81421 0.74392 0.21269 0.0
H2826 H 0.76791 0.7787 0.14058 0.0
H2827 H 0.79514 0.79543 0.13816 0.0
H2828 H 0.77906 0.80742 0.16051 0.0
H2829 H 0.79831 0.70551 0.15859 0.0
H2830 H 0.82043 0.71365 0.18239 0.0
H2831 H 0.82508 0.72199 0.15428 0.0
C2832 C 0.12082 0.99682 0.68345 0.0
C2833 C 0.14186 0.01104 0.69408 0.0
C2834 C 0.11011 1.0002 0.66191 0.0
C2835 C 0.11973 0.01907 0.65038 0.0
C2836 C 0.14051 0.03405 0.66165 0.0
C2837 C 0.1513 0.0296 0.68252 0.0
C2838 C 0.08855 0.98294 0.65105 0.0
C2839 C 0.15142 0.05532 0.65179 0.0
C2840 C 0.10868 0.0165 0.58198 0.0
C2841 C 0.09174 0.02898 0.5794 0.0
C2842 C 0.11683 0.01245 0.60418 0.0
C2843 C 0.10923 0.02211 0.62595 0.0
C2844 C 0.09205 0.0348 0.62373 0.0
C2845 C 0.0831 0.03723 0.60084 0.0
C2846 C 0.13365 0.9973 0.60413 0.0
C2847 C 0.083 0.04613 0.64561 0.0
H2848 H 0.11287 0.98238 0.69162 0.0
H2849 H 0.16722 0.04122 0.69015 0.0
H2850 H 0.07537 0.99291 0.65003 0.0
H2851 H 0.09026 0.97409 0.63261 0.0
H2852 H 0.08321 0.96884 0.66135 0.0
H2853 H 0.1661 0.0669 0.66361 0.0
H2854 H 0.15678 0.049 0.63416 0.0
H2855 H 0.13937 0.06638 0.64921 0.0
H2856 H 0.1157 0.00931 0.5662 0.0
H2857 H 0.06964 0.04614 0.6 0.0
H2858 H 0.1282 0.9829 0.61405 0.0
H2859 H 0.14976 0.00858 0.61321 0.0
H2860 H 0.13626 0.98879 0.58587 0.0
H2861 H 0.07029 0.03223 0.65108 0.0
H2862 H 0.07501 0.06063 0.64224 0.0
H2863 H 0.09625 0.05374 0.66058 0.0
C2864 C 0.83662 0.37973 0.44709 0.0
C2865 C 0.8333 0.40186 0.44332 0.0
C2866 C 0.83816 0.36155 0.42802 0.0
C2867 C 0.83639 0.36578 0.40483 0.0
C2868 C 0.83528 0.38882 0.40111 0.0
C2869 C 0.83367 0.40667 0.4205 0.0
C2870 C 0.83952 0.33719 0.43251 0.0
C2871 C 0.83375 0.39394 0.37646 0.0
C2872 C 0.84198 0.32195 0.34965 0.0
C2873 C 0.81962 0.31307 0.34056 0.0
C2874 C 0.84795 0.33836 0.37142 0.0
C2875 C 0.83108 0.34531 0.38446 0.0
C2876 C 0.80854 0.3347 0.37643 0.0
C2877 C 0.80311 0.3191 0.35431 0.0
C2878 C 0.87215 0.34964 0.37939 0.0
C2879 C 0.79004 0.34131 0.39024 0.0
H2880 H 0.83691 0.37611 0.46481 0.0
H2881 H 0.83163 0.42393 0.41758 0.0
H2882 H 0.82295 0.32463 0.42778 0.0
H2883 H 0.85116 0.32947 0.42127 0.0
H2884 H 0.84488 0.33812 0.45143 0.0
H2885 H 0.83656 0.41353 0.3769 0.0
H2886 H 0.846 0.38666 0.36582 0.0
H2887 H 0.81703 0.38493 0.36719 0.0
H2888 H 0.85492 0.31735 0.33914 0.0
H2889 H 0.78592 0.31301 0.34732 0.0
H2890 H 0.87582 0.35137 0.39877 0.0
H2891 H 0.87631 0.36804 0.37578 0.0
H2892 H 0.88306 0.3391 0.36985 0.0
H2893 H 0.79325 0.34072 0.40919 0.0
H2894 H 0.77369 0.32905 0.38306 0.0
H2895 H 0.7891 0.35995 0.38945 0.0
C2896 C 0.43913 0.05449 0.21934 0.0
C2897 C 0.43601 0.03921 0.23532 0.0
C2898 C 0.45206 0.05009 0.20061 0.0
C2899 C 0.4621 0.03028 0.19853 0.0
C2900 C 0.45752 0.01389 0.21371 0.0
C2901 C 0.44421 0.01845 0.2318 0.0
C2902 C 0.45614 0.06737 0.1841 0.0
C2903 C 0.46808 0.99264 0.21208 0.0
C2904 C 0.48974 1.00549 0.14649 0.0
C2905 C 0.5121 0.01482 0.15514 0.0
C2906 C 0.47306 0.01176 0.15976 0.0
C2907 C 0.47906 0.02756 0.18218 0.0
C2908 C 0.50165 0.03776 0.19058 0.0
C2909 C 0.51801 0.0311 0.17693 0.0
C2910 C 0.44913 1.0006 0.1503 0.0
C2911 C 0.50857 0.05491 0.21439 0.0
H2912 H 0.43269 0.07057 0.22237 0.0
H2913 H 0.44125 0.00648 0.24406 0.0
H2914 H 0.47386 0.07701 0.18664 0.0
H2915 H 0.45245 0.05736 0.16536 0.0
H2916 H 0.44589 0.08088 0.18718 0.0
H2917 H 0.46176 0.98095 0.22446 0.0
H2918 H 0.46502 0.98156 0.19375 0.0
H2919 H 0.48629 0.99919 0.21639 0.0
H2920 H 0.48533 0.99311 0.12937 0.0
H2921 H 0.53537 0.03877 0.18311 0.0
H2922 H 0.439 0.01418 0.15337 0.0
H2923 H 0.44233 0.98627 0.15984 0.0
H2924 H 0.44728 0.99244 0.131 0.0
H2925 H 0.49932 0.06933 0.21632 0.0
H2926 H 0.5266 0.0634 0.21693 0.0
H2927 H 0.50456 0.045 0.22877 0.0
C2928 C 0.79804 0.74119 0.93446 0.0
C2929 C 0.81043 0.72616 0.94217 0.0
C2930 C 0.80063 0.7478 0.91242 0.0
C2931 C 0.81623 0.73948 0.89802 0.0
C2932 C 0.82983 0.72571 0.90652 0.0
C2933 C 0.8266 0.71899 0.92836 0.0
C2934 C 0.78596 0.76273 0.90408 0.0
C2935 C 0.84722 0.71729 0.89209 0.0
C2936 C 0.80387 0.73086 0.83117 0.0
C2937 C 0.81698 0.75207 0.82671 0.0
C2938 C 0.80366 0.72649 0.85425 0.0
C2939 C 0.8172 0.74351 0.87334 0.0
C2940 C 0.83179 0.76398 0.86867 0.0
C2941 C 0.83184 0.76764 0.84534 0.0
C2942 C 0.78826 0.70408 0.85834 0.0
C2943 C 0.8466 0.7826 0.88838 0.0
H2944 H 0.78552 0.74677 0.94507 0.0
H2945 H 0.83644 0.70764 0.9344 0.0
H2946 H 0.79616 0.77863 0.89876 0.0
H2947 H 0.77478 0.7519 0.88819 0.0
H2948 H 0.77568 0.76906 0.91797 0.0
H2949 H 0.85745 0.70813 0.90189 0.0
H2950 H 0.83913 0.70461 0.8754 0.0
H2951 H 0.85833 0.73278 0.88704 0.0
H2952 H 0.79291 0.71815 0.81686 0.0
H2953 H 0.84325 0.78304 0.84185 0.0
H2954 H 0.77607 0.70915 0.87047 0.0
H2955 H 0.7978 0.69347 0.86701 0.0
H2956 H 0.77909 0.69245 0.84156 0.0
H2957 H 0.83635 0.79297 0.89925 0.0
H2958 H 0.85921 0.79547 0.88145 0.0
H2959 H 0.8552 0.77394 0.90035 0.0
C2960 C 0.84572 0.08408 0.05099 0.0
C2961 C 0.84137 0.10357 0.04226 0.0
C2962 C 0.86362 0.07441 0.04399 0.0
C2963 C 0.87701 0.08438 0.02775 0.0
C2964 C 0.87402 0.10552 0.02084 0.0
C2965 C 0.8564 0.11512 0.02855 0.0
C2966 C 0.86719 0.05246 0.05248 0.0
C2967 C 0.88775 0.11647 0.00322 0.0
C2968 C 0.92897 0.06455 0.01229 0.0
C2969 C 0.92079 0.04498 0.993 0.0
C2970 C 0.9148 0.07707 0.02432 0.0
C2971 C 0.8922 0.07109 0.01574 0.0
C2972 C 0.88399 0.05257 0.99536 0.0
C2973 C 0.89829 0.03928 0.98459 0.0
C2974 C 0.92396 0.09643 0.04632 0.0
C2975 C 0.86006 0.0467 0.98502 0.0
H2976 H 0.83435 0.07536 0.06191 0.0
H2977 H 0.8534 0.13059 0.02219 0.0
H2978 H 0.86317 0.0366 0.03744 0.0
H2979 H 0.88484 0.05515 0.05917 0.0
H2980 H 0.85672 0.04835 0.06678 0.0
H2981 H 0.8858 0.13492 0.00287 0.0
H2982 H 0.90557 0.11728 0.00722 0.0
H2983 H 0.88238 0.10502 0.98519 0.0
H2984 H 0.94651 0.07016 0.01825 0.0
H2985 H 0.89173 0.0243 0.96978 0.0
H2986 H 0.91485 0.09226 0.06153 0.0
H2987 H 0.92156 0.11407 0.04365 0.0
H2988 H 0.94188 0.09819 0.05113 0.0
H2989 H 0.84915 0.03953 0.99777 0.0
H2990 H 0.85683 0.03319 0.96798 0.0
H2991 H 0.85538 0.06326 0.9819 0.0
C2992 C 0.40254 0.43121 0.04744 0.0
C2993 C 0.38645 0.44267 0.04026 0.0
C2994 C 0.4253 0.4427 0.05009 0.0
C2995 C 0.43205 0.46619 0.04556 0.0
C2996 C 0.41576 0.47816 0.03944 0.0
C2997 C 0.3933 0.46632 0.0369 0.0
C2998 C 0.44215 0.4294 0.05684 0.0
C2999 C 0.42205 0.50304 0.03417 0.0
C3000 C 0.49042 0.50699 0.06056 0.0
C3001 C 0.49931 0.5023 0.03882 0.0
C3002 C 0.46902 0.49431 0.06359 0.0
C3003 C 0.45591 0.47724 0.04417 0.0
C3004 C 0.46496 0.47236 0.02232 0.0
C3005 C 0.48658 0.48449 0.02012 0.0
C3006 C 0.46029 0.4994 0.08743 0.0
C3007 C 0.4515 0.45494 1.00083 0.0
H3008 H 0.39744 0.41299 0.05015 0.0
H3009 H 0.38103 0.47552 0.03168 0.0
H3010 H 0.45164 0.4249 0.04159 0.0
H3011 H 0.4542 0.44099 0.07169 0.0
H3012 H 0.43431 0.41243 0.06217 0.0
H3013 H 0.4074 0.51059 0.0314 0.0
H3014 H 0.43358 0.51557 0.04889 0.0
H3015 H 0.43078 0.50228 0.0179 0.0
H3016 H 0.50019 0.52045 0.07522 0.0
H3017 H 0.4932 0.48037 0.00333 0.0
H3018 H 0.45415 0.4823 0.09327 0.0
H3019 H 0.44608 0.50787 0.08599 0.0
H3020 H 0.47313 0.51155 0.10124 0.0
H3021 H 0.44622 0.43679 0.00478 0.0
H3022 H 0.46086 0.45348 0.985 0.0
H3023 H 0.43627 0.46085 0.99633 0.0
C3024 C 0.40626 0.66042 0.78548 0.0
C3025 C 0.39801 0.63668 0.77174 0.0
C3026 C 0.39506 0.67973 0.78523 0.0
C3027 C 0.37458 0.67627 0.77079 0.0
C3028 C 0.36621 0.65237 0.75689 0.0
C3029 C 0.37766 0.63337 0.7576 0.0
C3030 C 0.40539 0.70416 0.80063 0.0
C3031 C 0.34493 0.64677 0.74083 0.0
C3032 C 0.33647 0.72388 0.78259 0.0
C3033 C 0.33987 0.73676 0.76411 0.0
C3034 C 0.3469 0.70427 0.78469 0.0
C3035 C 0.36274 0.69754 0.76907 0.0
C3036 C 0.36709 0.71144 0.75133 0.0
C3037 C 0.3556 0.72989 0.74885 0.0
C3038 C 0.34057 0.69036 0.80364 0.0
C3039 C 0.38436 0.70703 0.73479 0.0
H3040 H 0.42171 0.66406 0.79668 0.0
H3041 H 0.37059 0.61567 0.74661 0.0
H3042 H 0.40701 0.7182 0.78989 0.0
H3043 H 0.39448 0.70859 0.81454 0.0
H3044 H 0.42197 0.70498 0.80943 0.0
H3045 H 0.33958 0.6274 0.73207 0.0
H3046 H 0.33157 0.65196 0.75113 0.0
H3047 H 0.34708 0.65752 0.72688 0.0
H3048 H 0.32532 0.72879 0.79534 0.0
H3049 H 0.35935 0.73936 0.73464 0.0
H3050 H 0.35538 0.69202 0.81606 0.0
H3051 H 0.33428 0.67096 0.79539 0.0
H3052 H 0.32765 0.69672 0.8139 0.0
H3053 H 0.40044 0.70901 0.74526 0.0
H3054 H 0.38677 0.71967 0.72252 0.0
H3055 H 0.37951 0.68834 0.72412 0.0
C3056 C 0.20335 0.61822 0.50537 0.0
C3057 C 0.21781 0.60608 0.51446 0.0
C3058 C 0.18071 0.61138 0.50684 0.0
C3059 C 0.17257 0.59207 0.51785 0.0
C3060 C 0.18688 0.57862 0.52559 0.0
C3061 C 0.20959 0.58578 0.52369 0.0
C3062 C 0.16569 0.62554 0.49759 0.0
C3063 C 0.17832 0.55748 0.5368 0.0
C3064 C 0.11847 0.59546 0.54301 0.0
C3065 C 0.1037 0.57796 0.52607 0.0
C3066 C 0.14132 0.59907 0.54145 0.0
C3067 C 0.14902 0.58634 0.52137 0.0
C3068 C 0.13401 0.56982 0.50344 0.0
C3069 C 0.11161 0.56533 0.50644 0.0
C3070 C 0.15719 0.61664 0.56101 0.0
C3071 C 0.1415 0.5576 0.48074 0.0
H3072 H 0.20987 0.63369 0.49787 0.0
H3073 H 0.22095 0.57644 0.53062 0.0
H3074 H 0.15125 0.61326 0.48598 0.0
H3075 H 0.15918 0.63587 0.51271 0.0
H3076 H 0.17444 0.63838 0.48739 0.0
H3077 H 0.19164 0.54881 0.54171 0.0
H3078 H 0.17054 0.56357 0.553 0.0
H3079 H 0.16531 0.5438 0.52442 0.0
H3080 H 0.11225 0.60624 0.55732 0.0
H3081 H 0.10022 0.55226 0.49297 0.0
H3082 H 0.1671 0.63141 0.55381 0.0
H3083 H 0.16895 0.60735 0.56833 0.0
H3084 H 0.14852 0.62459 0.5757 0.0
H3085 H 0.15089 0.57124 0.47181 0.0
H3086 H 0.12741 0.54613 0.468 0.0
H3087 H 0.15285 0.54635 0.48488 0.0
C3088 C 0.73041 0.95775 0.72496 0.0
C3089 C 0.73924 0.98203 0.72523 0.0
C3090 C 0.74296 0.94466 0.73544 0.0
C3091 C 0.76423 0.95673 0.74697 0.0
C3092 C 0.7737 0.98074 0.74569 0.0
C3093 C 0.76119 0.99297 0.73416 0.0
C3094 C 0.7327 0.91872 0.73571 0.0
C3095 C 0.79617 0.99424 0.75843 0.0
C3096 C 0.78676 0.93935 0.80099 0.0
C3097 C 0.80363 0.92915 0.79178 0.0
C3098 C 0.77304 0.94771 0.78624 0.0
C3099 C 0.77633 0.94528 0.7619 0.0
C3100 C 0.79318 0.93481 0.75253 0.0
C3101 C 0.80713 0.9275 0.7678 0.0
C3102 C 0.75501 0.95891 0.79655 0.0
C3103 C 0.79613 0.93092 0.72635 0.0
H3104 H 0.71334 0.94948 0.71786 0.0
H3105 H 0.7678 0.01188 0.73445 0.0
H3106 H 0.74535 0.90793 0.73571 0.0
H3107 H 0.72414 0.91795 0.75197 0.0
H3108 H 0.72015 0.91032 0.72016 0.0
H3109 H 0.80114 0.01282 0.75533 0.0
H3110 H 0.79589 0.99538 0.77783 0.0
H3111 H 0.80901 0.9845 0.75256 0.0
H3112 H 0.78364 0.93967 0.81933 0.0
H3113 H 0.81987 0.9189 0.76072 0.0
H3114 H 0.73864 0.94894 0.787 0.0
H3115 H 0.75768 0.97775 0.79418 0.0
H3116 H 0.75444 0.95895 0.81576 0.0
H3117 H 0.7802 0.92097 0.71574 0.0
H3118 H 0.80894 0.92068 0.72167 0.0
H3119 H 0.80095 0.94852 0.7211 0.0
C3120 C 0.73638 0.90511 0.53656 0.0
C3121 C 0.75848 0.91836 0.54018 0.0
C3122 C 0.71892 0.9163 0.53311 0.0
C3123 C 0.72379 0.94113 0.53276 0.0
C3124 C 0.74603 0.95465 0.53701 0.0
C3125 C 0.76306 0.94315 0.5409 0.0
C3126 C 0.69539 0.90138 0.52906 0.0
C3127 C 0.75197 0.9811 0.53642 0.0
C3128 C 0.68638 0.96702 0.49633 0.0
C3129 C 0.67792 0.98167 0.51406 0.0
C3130 C 0.70063 0.95293 0.50214 0.0
C3131 C 0.70601 0.95284 0.52626 0.0
C3132 C 0.69605 0.96593 0.54414 0.0
C3133 C 0.68231 0.98042 0.53786 0.0
C3134 C 0.71097 0.9393 0.48252 0.0
C3135 C 0.70076 0.96555 0.56999 0.0
H3136 H 0.73274 0.88595 0.53611 0.0
H3137 H 0.78008 0.9535 0.54366 0.0
H3138 H 0.68424 0.91124 0.53902 0.0
H3139 H 0.68939 0.89768 0.50993 0.0
H3140 H 0.69405 0.88388 0.53447 0.0
H3141 H 0.77002 0.98916 0.54072 0.0
H3142 H 0.74684 0.98354 0.5185 0.0
H3143 H 0.74297 0.9912 0.54925 0.0
H3144 H 0.68249 0.9672 0.47783 0.0
H3145 H 0.67589 0.99162 0.55175 0.0
H3146 H 0.70802 0.92006 0.48348 0.0
H3147 H 0.72917 0.94666 0.48473 0.0
H3148 H 0.70436 0.94048 0.4646 0.0
H3149 H 0.69846 0.94672 0.57228 0.0
H3150 H 0.68989 0.97453 0.58137 0.0
H3151 H 0.71826 0.97487 0.57628 0.0
C3152 C 0.37828 0.47582 0.75441 0.0
C3153 C 0.40025 0.48338 0.76538 0.0
C3154 C 0.3651 0.45202 0.75326 0.0
C3155 C 0.37351 0.43512 0.76393 0.0
C3156 C 0.3954 0.44306 0.77562 0.0
C3157 C 0.40835 0.46649 0.77583 0.0
C3158 C 0.34223 0.44471 0.74004 0.0
C3159 C 0.40544 0.42666 0.7879 0.0
C3160 C 0.33337 0.37994 0.7797 0.0
C3161 C 0.33616 0.36019 0.76269 0.0
C3162 C 0.34513 0.40404 0.78025 0.0
C3163 C 0.3598 0.40926 0.76288 0.0
C3164 C 0.36222 0.38931 0.74529 0.0
C3165 C 0.35086 0.36528 0.7457 0.0
C3166 C 0.34236 0.42393 0.80005 0.0
C3167 C 0.37686 0.39333 0.72584 0.0
H3168 H 0.37163 0.48818 0.74591 0.0
H3169 H 0.42516 0.47167 0.78443 0.0
H3170 H 0.34065 0.42804 0.72628 0.0
H3171 H 0.32968 0.44062 0.75245 0.0
H3172 H 0.33841 0.45899 0.73136 0.0
H3173 H 0.42154 0.43615 0.79841 0.0
H3174 H 0.39395 0.41897 0.79992 0.0
H3175 H 0.40819 0.4114 0.77452 0.0
H3176 H 0.32243 0.37643 0.7932 0.0
H3177 H 0.35336 0.35038 0.73248 0.0
H3178 H 0.33626 0.43779 0.79261 0.0
H3179 H 0.35865 0.43291 0.81037 0.0
H3180 H 0.33062 0.41721 0.81234 0.0
H3181 H 0.37175 0.40646 0.7164 0.0
H3182 H 0.37619 0.37639 0.71274 0.0
H3183 H 0.39427 0.40113 0.73358 0.0
C3184 C 0.22765 0.62803 0.22926 0.0
C3185 C 0.23093 0.61071 0.24177 0.0
C3186 C 0.23937 0.65181 0.23684 0.0
C3187 C 0.25497 0.65815 0.25725 0.0
C3188 C 0.2589 0.64042 0.26949 0.0
C3189 C 0.24698 0.61663 0.26129 0.0
C3190 C 0.23371 0.66978 0.22335 0.0
C3191 C 0.27369 0.64689 0.29265 0.0
C3192 C 0.29546 0.71858 0.27081 0.0
C3193 C 0.28205 0.733 0.28144 0.0
C3194 C 0.28683 0.69387 0.2625 0.0
C3195 C 0.26522 0.68358 0.26727 0.0
C3196 C 0.25269 0.69792 0.28059 0.0
C3197 C 0.26109 0.72269 0.28694 0.0
C3198 C 0.30035 0.67904 0.24788 0.0
C3199 C 0.23005 0.68735 0.28716 0.0
H3200 H 0.21517 0.62316 0.21409 0.0
H3201 H 0.249 0.60306 0.27117 0.0
H3202 H 0.23998 0.68868 0.23291 0.0
H3203 H 0.24057 0.66706 0.206 0.0
H3204 H 0.21546 0.6665 0.21948 0.0
H3205 H 0.27703 0.63071 0.29828 0.0
H3206 H 0.28972 0.65918 0.29146 0.0
H3207 H 0.26547 0.65654 0.30671 0.0
H3208 H 0.31233 0.72668 0.26849 0.0
H3209 H 0.25121 0.73404 0.29613 0.0
H3210 H 0.29142 0.67124 0.22989 0.0
H3211 H 0.30244 0.66374 0.25583 0.0
H3212 H 0.31702 0.68984 0.24617 0.0
H3213 H 0.21776 0.68308 0.27131 0.0
H3214 H 0.2247 0.70007 0.30138 0.0
H3215 H 0.22989 0.67039 0.29326 0.0
C3216 C 0.53908 0.70087 0.48884 0.0
C3217 C 0.52293 0.69774 0.46962 0.0
C3218 C 0.54414 0.68098 0.49697 0.0
C3219 C 0.53253 0.65711 0.48606 0.0
C3220 C 0.51542 0.65395 0.46749 0.0
C3221 C 0.51109 0.6741 0.45933 0.0
C3222 C 0.56277 0.68549 0.51645 0.0
C3223 C 0.50189 0.62912 0.45582 0.0
C3224 C 0.55766 0.602 0.48232 0.0
C3225 C 0.54977 0.59205 0.50133 0.0
C3226 C 0.5537 0.62403 0.47855 0.0
C3227 C 0.53937 0.63542 0.49248 0.0
C3228 C 0.53069 0.62501 0.51135 0.0
C3229 C 0.53653 0.60396 0.51598 0.0
C3230 C 0.56447 0.63473 0.4591 0.0
C3231 C 0.51433 0.63537 0.52591 0.0
H3232 H 0.5485 0.71891 0.49695 0.0
H3233 H 0.49852 0.67126 0.44459 0.0
H3234 H 0.5573 0.67585 0.53063 0.0
H3235 H 0.57668 0.67836 0.5091 0.0
H3236 H 0.569 0.70496 0.52453 0.0
H3237 H 0.48771 0.62972 0.44353 0.0
H3238 H 0.5125 0.61872 0.44561 0.0
H3239 H 0.49545 0.6192 0.46951 0.0
H3240 H 0.56686 0.59235 0.47009 0.0
H3241 H 0.52947 0.59587 0.53005 0.0
H3242 H 0.57211 0.65419 0.46578 0.0
H3243 H 0.55179 0.63309 0.44419 0.0
H3244 H 0.57747 0.62565 0.45217 0.0
H3245 H 0.52253 0.65348 0.53658 0.0
H3246 H 0.50727 0.62383 0.53813 0.0
H3247 H 0.50054 0.63753 0.51406 0.0
C3248 C 0.6612 0.32376 0.67994 0.0
C3249 C 0.66157 0.3212 0.65523 0.0
C3250 C 0.67875 0.32008 0.69445 0.0
C3251 C 0.69735 0.31351 0.68422 0.0
C3252 C 0.69785 0.31098 0.65928 0.0
C3253 C 0.68011 0.31488 0.6452 0.0
C3254 C 0.67726 0.32304 0.72082 0.0
C3255 C 0.71713 0.30395 0.6474 0.0
C3256 C 0.75137 0.32423 0.72522 0.0
C3257 C 0.7515 0.30101 0.72852 0.0
C3258 C 0.73424 0.32845 0.71054 0.0
C3259 C 0.71615 0.30917 0.69952 0.0
C3260 C 0.71607 0.28572 0.70323 0.0
C3261 C 0.73388 0.28187 0.71725 0.0
C3262 C 0.73566 0.35358 0.70664 0.0
C3263 C 0.69694 0.2647 0.69268 0.0
H3264 H 0.64704 0.32855 0.68801 0.0
H3265 H 0.68066 0.31264 0.62618 0.0
H3266 H 0.67845 0.30616 0.72644 0.0
H3267 H 0.69135 0.33745 0.73064 0.0
H3268 H 0.66157 0.32767 0.72606 0.0
H3269 H 0.71544 0.30329 0.62801 0.0
H3270 H 0.73281 0.31695 0.65552 0.0
H3271 H 0.7185 0.28598 0.65018 0.0
H3272 H 0.76498 0.3391 0.7338 0.0
H3273 H 0.73375 0.26391 0.71989 0.0
H3274 H 0.72107 0.36005 0.7129 0.0
H3275 H 0.73539 0.35346 0.68738 0.0
H3276 H 0.75094 0.36654 0.71603 0.0
H3277 H 0.68135 0.26837 0.69927 0.0
H3278 H 0.69923 0.24763 0.69719 0.0
H3279 H 0.69489 0.26226 0.67308 0.0
C3280 C 0.05192 0.36657 0.96093 0.0
C3281 C 0.03389 0.34843 0.96378 0.0
C3282 C 0.05335 0.39104 0.97059 0.0
C3283 C 0.03608 0.39795 0.98318 0.0
C3284 C 0.01841 0.37966 0.98736 0.0
C3285 C 0.01758 0.35509 0.97775 0.0
C3286 C 0.07282 0.40961 0.96605 0.0
C3287 C 0.99958 0.38608 1.00056 0.0
C3288 C 0.04879 0.46456 0.01471 0.0
C3289 C 0.04223 0.47514 0.99645 0.0
C3290 C 0.04596 0.43932 0.01125 0.0
C3291 C 0.03562 0.42421 0.98929 0.0
C3292 C 0.02747 0.43489 0.97159 0.0
C3293 C 0.03161 0.46013 0.97504 0.0
C3294 C 0.05566 0.4291 0.03038 0.0
C3295 C 0.01546 0.4197 0.94833 0.0
H3296 H 0.06466 0.36164 0.95027 0.0
H3297 H 0.00346 0.34129 0.97986 0.0
H3298 H 0.0672 0.41964 0.9533 0.0
H3299 H 0.07994 0.42287 0.98273 0.0
H3300 H 0.08609 0.40134 0.95856 0.0
H3301 H 0.98929 0.37027 0.00598 0.0
H3302 H 0.00587 0.40056 0.01659 0.0
H3303 H 0.98886 0.39302 0.98891 0.0
H3304 H 0.05766 0.47608 0.03103 0.0
H3305 H 0.02688 0.46823 0.96073 0.0
H3306 H 0.07078 0.42343 0.02467 0.0
H3307 H 0.04383 0.41293 0.03328 0.0
H3308 H 0.06024 0.44249 0.04749 0.0
H3309 H 0.02741 0.41223 0.93736 0.0
H3310 H 0.00722 0.43026 0.93809 0.0
H3311 H 0.00277 0.40431 0.95147 0.0
C3312 C 0.01716 0.79954 0.13909 0.0
C3313 C 0.03619 0.8076 0.15544 0.0
C3314 C 0.99582 0.79533 0.14698 0.0
C3315 C 0.99361 0.79947 0.17172 0.0
C3316 C 0.01281 0.80953 0.18804 0.0
C3317 C 0.03375 0.81331 0.17971 0.0
C3318 C 0.97577 0.78514 0.12897 0.0
C3319 C 0.01145 0.81455 0.21453 0.0
C3320 C 0.94133 0.79892 0.20315 0.0
C3321 C 0.93793 0.77647 0.20968 0.0
C3322 C 0.95817 0.80597 0.18883 0.0
C3323 C 0.97211 0.79035 0.18108 0.0
C3324 C 0.96753 0.76697 0.18602 0.0
C3325 C 0.95048 0.76031 0.20006 0.0
C3326 C 0.96196 0.83074 0.18335 0.0
C3327 C 0.98172 0.74953 0.17798 0.0
H3328 H 0.01898 0.79503 0.12029 0.0
H3329 H 0.04844 0.81973 0.19238 0.0
H3330 H 0.96815 0.76642 0.13029 0.0
H3331 H 0.96311 0.79578 0.13267 0.0
H3332 H 0.98 0.785 0.11052 0.0
H3333 H 0.02765 0.82432 0.22469 0.0
H3334 H 0.99913 0.82542 0.21917 0.0
H3335 H 0.0059 0.7973 0.22029 0.0
H3336 H 0.93168 0.81155 0.21028 0.0
H3337 H 0.94755 0.74263 0.2043 0.0
H3338 H 0.96492 0.82996 0.16448 0.0
H3339 H 0.97693 0.84262 0.19439 0.0
H3340 H 0.94769 0.83903 0.18703 0.0
H3341 H 0.98318 0.74757 0.15868 0.0
H3342 H 0.97497 0.73143 0.18161 0.0
H3343 H 0.99868 0.75661 0.18734 0.0
C3344 C 0.51578 0.30595 0.08664 0.0
C3345 C 0.50357 0.31079 0.10586 0.0
C3346 C 0.52353 0.32357 0.07395 0.0
C3347 C 0.51817 0.3462 0.08012 0.0
C3348 C 0.50487 0.35083 0.09876 0.0
C3349 C 0.49797 0.33306 0.11176 0.0
C3350 C 0.53831 0.31832 0.05466 0.0
C3351 C 0.4984 0.3746 0.10525 0.0
C3352 C 0.5588 0.39411 0.05962 0.0
C3353 C 0.54819 0.39312 0.03734 0.0
C3354 C 0.54845 0.3801 0.07474 0.0
C3355 C 0.52712 0.36491 0.06709 0.0
C3356 C 0.51593 0.36497 0.04508 0.0
C3357 C 0.52667 0.3792 0.03039 0.0
C3358 C 0.56077 0.38063 0.09824 0.0
C3359 C 0.49313 0.34908 0.03655 0.0
H3360 H 0.52051 0.28888 0.08244 0.0
H3361 H 0.48861 0.33671 0.12677 0.0
H3362 H 0.53118 0.32097 0.03759 0.0
H3363 H 0.5548 0.33104 0.0593 0.0
H3364 H 0.54071 0.29967 0.05199 0.0
H3365 H 0.48795 0.37524 0.12023 0.0
H3366 H 0.51342 0.38955 0.11023 0.0
H3367 H 0.48912 0.37784 0.08966 0.0
H3368 H 0.57522 0.4057 0.06508 0.0
H3369 H 0.51841 0.37929 0.01335 0.0
H3370 H 0.56596 0.36345 0.09739 0.0
H3371 H 0.54989 0.38234 0.11273 0.0
H3372 H 0.57576 0.3957 0.10286 0.0
H3373 H 0.49427 0.33002 0.03179 0.0
H3374 H 0.48555 0.35374 0.02071 0.0
H3375 H 0.48201 0.35052 0.05084 0.0
C3376 C 0.03869 0.32275 0.36347 0.0
C3377 C 0.05429 0.33139 0.34872 0.0
C3378 C 0.01654 0.32408 0.35975 0.0
C3379 C 0.01008 0.33401 0.34072 0.0
C3380 C 0.02591 0.3433 0.32625 0.0
C3381 C 0.04775 0.34182 0.33041 0.0
C3382 C 0.00015 0.3143 0.37575 0.0
C3383 C 0.01974 0.35436 0.3059 0.0
C3384 C 0.95613 0.3171 0.30313 0.0
C3385 C 0.94981 0.33898 0.30804 0.0
C3386 C 0.97456 0.31396 0.31602 0.0
C3387 C 0.98668 0.33325 0.33408 0.0
C3388 C 0.97871 0.35429 0.34085 0.0
C3389 C 0.96038 0.35709 0.32741 0.0
C3390 C 0.98234 0.29104 0.30872 0.0
C3391 C 0.99066 0.37463 0.36088 0.0
H3392 H 0.04372 0.31495 0.37788 0.0
H3393 H 0.05972 0.34886 0.31912 0.0
H3394 H 0.98677 0.32416 0.37792 0.0
H3395 H 0.9924 0.29511 0.36786 0.0
H3396 H 0.00848 0.31523 0.39358 0.0
H3397 H 0.03428 0.36127 0.29681 0.0
H3398 H 0.00747 0.34076 0.2926 0.0
H3399 H 0.01201 0.36951 0.31248 0.0
H3400 H 0.94729 0.30293 0.28845 0.0
H3401 H 0.95474 0.37364 0.33152 0.0
H3402 H 0.9871 0.28443 0.32457 0.0
H3403 H 0.99722 0.29471 0.29907 0.0
H3404 H 0.96943 0.2766 0.29693 0.0
H3405 H 0.99641 0.36754 0.37602 0.0
H3406 H 0.97993 0.38701 0.36721 0.0
H3407 H 0.00547 0.38513 0.35464 0.0
C3408 C 0.98878 0.67883 0.60231 0.0
C3409 C 0.99347 0.67983 0.62661 0.0
C3410 C 0.99084 0.65894 0.58539 0.0
C3411 C 0.99756 0.63986 0.59318 0.0
C3412 C 0.0001 0.63968 0.61761 0.0
C3413 C 0.998 0.65976 0.63412 0.0
C3414 C 0.98738 0.65902 0.55931 0.0
C3415 C 0.00669 0.6191 0.62634 0.0
C3416 C 0.99739 0.58038 0.55351 0.0
C3417 C 0.02008 0.58298 0.55244 0.0
C3418 C 0.98934 0.59942 0.56571 0.0
C3419 C 0.00454 0.62137 0.57624 0.0
C3420 C 0.02732 0.62458 0.57318 0.0
C3421 C 0.03488 0.60509 0.56156 0.0
C3422 C 0.96483 0.59537 0.56798 0.0
C3423 C 0.04385 0.64817 0.58319 0.0
H3424 H 0.98493 0.69418 0.5964 0.0
H3425 H 0.00122 0.66028 0.6529 0.0
H3426 H 0.00348 0.66066 0.55169 0.0
H3427 H 0.97629 0.64176 0.54963 0.0
H3428 H 0.98012 0.6741 0.55616 0.0
H3429 H 0.0056 0.62057 0.64569 0.0
H3430 H 0.99595 0.60164 0.61666 0.0
H3431 H 0.02402 0.61893 0.6228 0.0
H3432 H 0.98618 0.56321 0.54577 0.0
H3433 H 0.05241 0.60705 0.5597 0.0
H3434 H 0.95983 0.61125 0.57807 0.0
H3435 H 0.95957 0.58006 0.57683 0.0
H3436 H 0.95569 0.59042 0.54997 0.0
H3437 H 0.03781 0.66333 0.5783 0.0
H3438 H 0.06037 0.64838 0.57674 0.0
H3439 H 0.04585 0.65133 0.60286 0.0
C3440 C 0.69293 0.82602 0.85684 0.0
C3441 C 0.67067 0.82196 0.84834 0.0
C3442 C 0.70922 0.82814 0.84121 0.0
C3443 C 0.70277 0.82611 0.81678 0.0
C3444 C 0.6809 0.82603 0.80905 0.0
C3445 C 0.66489 0.8232 0.8248 0.0
C3446 C 0.7327 0.82884 0.8502 0.0
C3447 C 0.67371 0.82519 0.78344 0.0
C3448 C 0.75077 0.81773 0.78294 0.0
C3449 C 0.75024 0.794 0.78488 0.0
C3450 C 0.73407 0.8288 0.79129 0.0
C3451 C 0.71586 0.81486 0.79964 0.0
C3452 C 0.71319 0.78968 0.79661 0.0
C3453 C 0.73104 0.77995 0.79058 0.0
C3454 C 0.73744 0.85565 0.79387 0.0
C3455 C 0.69311 0.77354 0.80347 0.0
H3456 H 0.69746 0.82581 0.8752 0.0
H3457 H 0.64771 0.82063 0.81813 0.0
H3458 H 0.73565 0.81044 0.84561 0.0
H3459 H 0.74477 0.84076 0.84178 0.0
H3460 H 0.73585 0.83519 0.8698 0.0
H3461 H 0.65966 0.83397 0.78207 0.0
H3462 H 0.68749 0.83412 0.77451 0.0
H3463 H 0.66801 0.80614 0.77381 0.0
H3464 H 0.76519 0.82835 0.77727 0.0
H3465 H 0.73033 0.76208 0.79267 0.0
H3466 H 0.74726 0.86487 0.81113 0.0
H3467 H 0.72148 0.8612 0.79355 0.0
H3468 H 0.7469 0.86192 0.77964 0.0
H3469 H 0.69372 0.7766 0.8231 0.0
H3470 H 0.69237 0.75417 0.79646 0.0
H3471 H 0.67762 0.77749 0.79656 0.0
C3472 C 0.49448 0.55919 0.70043 0.0
C3473 C 0.47436 0.56676 0.70155 0.0
C3474 C 0.50546 0.55638 0.67915 0.0
C3475 C 0.49707 0.56216 0.65796 0.0
C3476 C 0.47715 0.57058 0.6593 0.0
C3477 C 0.46601 0.5722 0.68045 0.0
C3478 C 0.5261 0.54682 0.67939 0.0
C3479 C 0.4675 0.57817 0.63824 0.0
C3480 C 0.53695 0.57287 0.60813 0.0
C3481 C 0.5296 0.55196 0.58989 0.0
C3482 C 0.52662 0.57657 0.62978 0.0
C3483 C 0.50853 0.55875 0.63445 0.0
C3484 C 0.50131 0.53749 0.6162 0.0
C3485 C 0.51146 0.53462 0.59447 0.0
C3486 C 0.53503 0.59995 0.64763 0.0
C3487 C 0.48297 0.51724 0.6198 0.0
H3488 H 0.50145 0.55475 0.71615 0.0
H3489 H 0.45072 0.57823 0.68054 0.0
H3490 H 0.52539 0.53261 0.66327 0.0
H3491 H 0.54074 0.56159 0.67933 0.0
H3492 H 0.52856 0.53927 0.69533 0.0
H3493 H 0.45401 0.58746 0.6428 0.0
H3494 H 0.4806 0.59039 0.63122 0.0
H3495 H 0.46069 0.56213 0.62381 0.0
H3496 H 0.55054 0.58682 0.60526 0.0
H3497 H 0.50525 0.51829 0.58104 0.0
H3498 H 0.54347 0.59656 0.66363 0.0
H3499 H 0.521 0.60788 0.65331 0.0
H3500 H 0.54695 0.61327 0.64043 0.0
H3501 H 0.48758 0.51111 0.63603 0.0
H3502 H 0.4794 0.50162 0.60448 0.0
H3503 H 0.46758 0.52363 0.62253 0.0
C3504 C 0.77671 0.19236 0.96655 0.0
C3505 C 0.79365 0.18003 0.96683 0.0
C3506 C 0.77291 0.20336 0.94788 0.0
C3507 C 0.78692 0.20267 0.92946 0.0
C3508 C 0.80436 0.19066 0.92981 0.0
C3509 C 0.80732 0.17901 0.94845 0.0
C3510 C 0.75361 0.2153 0.94772 0.0
C3511 C 0.81979 0.19017 0.91059 0.0
C3512 C 0.75861 0.21473 0.87557 0.0
C3513 C 0.76583 0.23975 0.87962 0.0
C3514 C 0.76709 0.20186 0.89046 0.0
C3515 C 0.78283 0.21459 0.90993 0.0
C3516 C 0.79137 0.23969 0.91298 0.0
C3517 C 0.78278 0.25206 0.89759 0.0
C3518 C 0.75758 0.17509 0.88669 0.0
C3519 C 0.80794 0.25378 0.93378 0.0
H3520 H 0.76578 0.19257 0.98053 0.0
H3521 H 0.82028 0.16925 0.94875 0.0
H3522 H 0.75965 0.23471 0.94784 0.0
H3523 H 0.74217 0.2071 0.93129 0.0
H3524 H 0.74404 0.21362 0.96322 0.0
H3525 H 0.83173 0.17888 0.91276 0.0
H3526 H 0.81018 0.18321 0.89286 0.0
H3527 H 0.82922 0.20877 0.91092 0.0
H3528 H 0.74559 0.2054 0.86142 0.0
H3529 H 0.78819 0.2715 0.90059 0.0
H3530 H 0.74548 0.17159 0.89972 0.0
H3531 H 0.77074 0.1655 0.88957 0.0
H3532 H 0.7489 0.16741 0.86855 0.0
H3533 H 0.79952 0.25534 0.95025 0.0
H3534 H 0.8155 0.27223 0.93151 0.0
H3535 H 0.8213 0.24433 0.93628 0.0
C3536 C 0.13786 0.53324 0.1786 0.0
C3537 C 0.15751 0.52751 0.1713 0.0
C3538 C 0.1228 0.53783 0.16266 0.0
C3539 C 0.12707 0.53515 0.13883 0.0
C3540 C 0.14712 0.53022 0.13129 0.0
C3541 C 0.16246 0.52667 0.14794 0.0
C3542 C 0.10197 0.54457 0.17106 0.0
C3543 C 0.15195 0.52805 0.10571 0.0
C3544 C 0.07933 0.51171 0.0923 0.0
C3545 C 0.07882 0.53275 0.08468 0.0
C3546 C 0.09461 0.51252 0.11107 0.0
C3547 C 0.10941 0.53483 0.12146 0.0
C3548 C 0.10739 0.55644 0.11507 0.0
C3549 C 0.09123 0.55516 0.09712 0.0
C3550 C 0.09612 0.48938 0.11845 0.0
C3551 C 0.12269 0.58065 0.12596 0.0
H3552 H 0.13406 0.53405 0.19675 0.0
H3553 H 0.17788 0.52259 0.14263 0.0
H3554 H 0.10032 0.5615 0.16583 0.0
H3555 H 0.08723 0.53031 0.16245 0.0
H3556 H 0.10189 0.54714 0.19063 0.0
H3557 H 0.16905 0.52592 0.10326 0.0
H3558 H 0.14008 0.51223 0.09442 0.0
H3559 H 0.14969 0.54424 0.09932 0.0
H3560 H 0.06933 0.49457 0.08233 0.0
H3561 H 0.08976 0.5714 0.09127 0.0
H3562 H 0.09606 0.49161 0.13798 0.0
H3563 H 0.11194 0.48477 0.11374 0.0
H3564 H 0.08223 0.47408 0.10969 0.0
H3565 H 0.11468 0.59022 0.14027 0.0
H3566 H 0.12568 0.59202 0.11254 0.0
H3567 H 0.13896 0.57917 0.13366 0.0
C3568 C 0.82401 0.83594 0.45219 0.0
C3569 C 0.80787 0.84914 0.45724 0.0
C3570 C 0.82557 0.82447 0.42869 0.0
C3571 C 0.81038 0.82594 0.41008 0.0
C3572 C 0.79273 0.83718 0.41558 0.0
C3573 C 0.79189 0.84891 0.43902 0.0
C3574 C 0.84464 0.81275 0.42353 0.0
C3575 C 0.77574 0.83859 0.39643 0.0
C3576 C 0.82632 0.83465 0.34977 0.0
C3577 C 0.81635 0.81226 0.33527 0.0
C3578 C 0.82641 0.83846 0.37447 0.0
C3579 C 0.81491 0.81984 0.38481 0.0
C3580 C 0.8054 0.79682 0.37025 0.0
C3581 C 0.80658 0.79318 0.34558 0.0
C3582 C 0.8374 0.86307 0.38929 0.0
C3583 C 0.79248 0.7767 0.38042 0.0
H3584 H 0.8364 0.8361 0.46625 0.0
H3585 H 0.7792 0.85883 0.44296 0.0
H3586 H 0.83908 0.7955 0.41033 0.0
H3587 H 0.8573 0.82475 0.41578 0.0
H3588 H 0.85256 0.80932 0.43986 0.0
H3589 H 0.7613 0.84449 0.40394 0.0
H3590 H 0.78347 0.85166 0.38594 0.0
H3591 H 0.76972 0.82086 0.38404 0.0
H3592 H 0.83337 0.84951 0.34165 0.0
H3593 H 0.79828 0.77603 0.33418 0.0
H3594 H 0.84744 0.86146 0.40516 0.0
H3595 H 0.82453 0.87262 0.39559 0.0
H3596 H 0.84832 0.87423 0.37907 0.0
H3597 H 0.80269 0.77349 0.39532 0.0
H3598 H 0.78692 0.75962 0.36689 0.0
H3599 H 0.77767 0.78187 0.38768 0.0
C3600 C 0.47046 0.54762 0.86125 0.0
C3601 C 0.48159 0.56419 0.84846 0.0
C3602 C 0.48 0.54429 0.88332 0.0
C3603 C 0.5015 0.55793 0.89395 0.0
C3604 C 0.51266 0.57501 0.88129 0.0
C3605 C 0.50299 0.57741 0.8589 0.0
C3606 C 0.46722 0.52525 0.89487 0.0
C3607 C 0.53527 0.59064 0.89102 0.0
C3608 C 0.51363 0.56284 0.96254 0.0
C3609 C 0.52883 0.54824 0.965 0.0
C3610 C 0.50579 0.56689 0.94024 0.0
C3611 C 0.51169 0.55496 0.91843 0.0
C3612 C 0.52727 0.5404 0.92056 0.0
C3613 C 0.5362 0.53809 0.94344 0.0
C3614 C 0.49124 0.58448 0.94018 0.0
C3615 C 0.5341 0.5265 0.89851 0.0
H3616 H 0.45452 0.53623 0.85336 0.0
H3617 H 0.51258 0.58951 0.84921 0.0
H3618 H 0.47752 0.51251 0.89776 0.0
H3619 H 0.46325 0.53368 0.91254 0.0
H3620 H 0.45151 0.51496 0.88403 0.0
H3621 H 0.53921 0.60682 0.88314 0.0
H3622 H 0.53656 0.59657 0.91062 0.0
H3623 H 0.54798 0.58021 0.88668 0.0
H3624 H 0.50783 0.57168 0.97843 0.0
H3625 H 0.54856 0.52778 0.9442 0.0
H3626 H 0.47433 0.57481 0.93196 0.0
H3627 H 0.49789 0.59773 0.92938 0.0
H3628 H 0.49004 0.59443 0.95836 0.0
H3629 H 0.51922 0.51403 0.88778 0.0
H3630 H 0.54608 0.51587 0.90265 0.0
H3631 H 0.54168 0.53895 0.88739 0.0
C3632 C 0.78847 0.2032 0.0915 0.0
C3633 C 0.77308 0.18169 0.09165 0.0
C3634 C 0.79122 0.22313 0.11022 0.0
C3635 C 0.77808 0.22143 0.12921 0.0
C3636 C 0.76107 0.20059 0.12833 0.0
C3637 C 0.75892 0.18076 0.10957 0.0
C3638 C 0.80967 0.245 0.11081 0.0
C3639 C 0.74652 0.1984 0.14822 0.0
C3640 C 0.8054 0.24822 0.19097 0.0
C3641 C 0.79517 0.26717 0.19759 0.0
C3642 C 0.80051 0.2337 0.16832 0.0
C3643 C 0.78522 0.23869 0.15197 0.0
C3644 C 0.77592 0.25889 0.15816 0.0
C3645 C 0.78091 0.27296 0.18127 0.0
C3646 C 0.81055 0.21209 0.16252 0.0
C3647 C 0.75995 0.26482 0.14083 0.0
H3648 H 0.79935 0.20401 0.07753 0.0
H3649 H 0.74668 0.16428 0.10936 0.0
H3650 H 0.80424 0.26182 0.1173 0.0
H3651 H 0.82387 0.24482 0.12329 0.0
H3652 H 0.81557 0.24533 0.09305 0.0
H3653 H 0.73204 0.18277 0.14311 0.0
H3654 H 0.75632 0.1961 0.16394 0.0
H3655 H 0.74043 0.21499 0.15364 0.0
H3656 H 0.81622 0.24385 0.20403 0.0
H3657 H 0.77295 0.28763 0.1869 0.0
H3658 H 0.81856 0.21201 0.14585 0.0
H3659 H 0.79731 0.19531 0.15976 0.0
H3660 H 0.82306 0.21173 0.1769 0.0
H3661 H 0.76762 0.26678 0.12423 0.0
H3662 H 0.75487 0.28169 0.14822 0.0
H3663 H 0.74492 0.24988 0.13598 0.0
C3664 C 0.14554 0.52537 0.30381 0.0
C3665 C 0.16709 0.53685 0.30117 0.0
C3666 C 0.13742 0.52917 0.3258 0.0
C3667 C 0.15144 0.54486 0.34534 0.0
C3668 C 0.17415 0.55381 0.34336 0.0
C3669 C 0.18182 0.54974 0.32094 0.0
C3670 C 0.11311 0.51899 0.32722 0.0
C3671 C 0.18963 0.56949 0.3643 0.0
C3672 C 0.11559 0.58109 0.37744 0.0
C3673 C 0.10771 0.56666 0.39323 0.0
C3674 C 0.1321 0.57577 0.36336 0.0
C3675 C 0.14089 0.55565 0.36543 0.0
C3676 C 0.13473 0.54266 0.38313 0.0
C3677 C 0.11785 0.54802 0.39656 0.0
C3678 C 0.13842 0.59016 0.34464 0.0
C3679 C 0.14426 0.52163 0.38635 0.0
H3680 H 0.13445 0.51523 0.28822 0.0
H3681 H 0.19858 0.55843 0.31853 0.0
H3682 H 0.11086 0.51015 0.34254 0.0
H3683 H 0.10429 0.5338 0.32982 0.0
H3684 H 0.10515 0.50562 0.31086 0.0
H3685 H 0.20719 0.57273 0.3604 0.0
H3686 H 0.18522 0.58714 0.36924 0.0
H3687 H 0.18795 0.56101 0.37993 0.0
H3688 H 0.10824 0.59592 0.37542 0.0
H3689 H 0.11183 0.53669 0.40876 0.0
H3690 H 0.13175 0.57889 0.32679 0.0
H3691 H 0.15667 0.59557 0.34496 0.0
H3692 H 0.13183 0.60664 0.34708 0.0
H3693 H 0.1343 0.50493 0.37442 0.0
H3694 H 0.14373 0.51898 0.40487 0.0
H3695 H 0.16162 0.52412 0.38191 0.0
C3696 C 0.7864 0.84027 0.60446 0.0
C3697 C 0.80818 0.84893 0.5997 0.0
C3698 C 0.78206 0.83155 0.62516 0.0
C3699 C 0.79997 0.83066 0.64098 0.0
C3700 C 0.82202 0.83878 0.63586 0.0
C3701 C 0.82586 0.84833 0.61551 0.0
C3702 C 0.75836 0.82377 0.63037 0.0
C3703 C 0.84154 0.8373 0.65186 0.0
C3704 C 0.79252 0.82801 0.70541 0.0
C3705 C 0.79061 0.80348 0.70495 0.0
C3706 C 0.79506 0.83704 0.68464 0.0
C3707 C 0.7957 0.82116 0.66286 0.0
C3708 C 0.79307 0.79627 0.66214 0.0
C3709 C 0.79071 0.78776 0.68319 0.0
C3710 C 0.79767 0.8637 0.68615 0.0
C3711 C 0.79359 0.77871 0.63928 0.0
H3712 H 0.77272 0.84112 0.59237 0.0
H3713 H 0.84269 0.85502 0.61175 0.0
H3714 H 0.75475 0.80481 0.63241 0.0
H3715 H 0.75579 0.83496 0.64741 0.0
H3716 H 0.74631 0.82543 0.61617 0.0
H3717 H 0.8576 0.84375 0.64503 0.0
H3718 H 0.8416 0.84823 0.66991 0.0
H3719 H 0.84014 0.81841 0.65364 0.0
H3720 H 0.79259 0.84031 0.72215 0.0
H3721 H 0.78989 0.7689 0.68267 0.0
H3722 H 0.7855 0.86678 0.67296 0.0
H3723 H 0.81444 0.87169 0.68183 0.0
H3724 H 0.79537 0.87334 0.7041 0.0
H3725 H 0.78108 0.78005 0.62543 0.0
H3726 H 0.79029 0.75978 0.64153 0.0
H3727 H 0.81005 0.78325 0.63266 0.0
C3728 C 0.74267 0.453 0.52038 0.0
C3729 C 0.76312 0.46473 0.5146 0.0
C3730 C 0.72679 0.46603 0.52694 0.0
C3731 C 0.73183 0.49105 0.5276 0.0
C3732 C 0.75154 0.5023 0.51944 0.0
C3733 C 0.76696 0.48887 0.51285 0.0
C3734 C 0.70543 0.4535 0.53481 0.0
C3735 C 0.75731 0.52895 0.5197 0.0
C3736 C 0.68917 0.52761 0.5364 0.0
C3737 C 0.69313 0.5373 0.56096 0.0
C3738 C 0.70111 0.51173 0.52537 0.0
C3739 C 0.71782 0.50609 0.53918 0.0
C3740 C 0.72232 0.51616 0.56387 0.0
C3741 C 0.70978 0.53173 0.57455 0.0
C3742 C 0.69597 0.50119 0.49902 0.0
C3743 C 0.74038 0.51053 0.5789 0.0
H3744 H 0.73971 0.4342 0.52141 0.0
H3745 H 0.78268 0.49771 0.50783 0.0
H3746 H 0.70487 0.46067 0.55398 0.0
H3747 H 0.69107 0.45712 0.52505 0.0
H3748 H 0.70356 0.4337 0.53188 0.0
H3749 H 0.77214 0.53421 0.51036 0.0
H3750 H 0.74325 0.53433 0.51128 0.0
H3751 H 0.76072 0.53926 0.53836 0.0
H3752 H 0.67652 0.53236 0.52578 0.0
H3753 H 0.7127 0.53918 0.5935 0.0
H3754 H 0.69256 0.48125 0.49563 0.0
H3755 H 0.71051 0.50733 0.48964 0.0
H3756 H 0.68149 0.50639 0.49118 0.0
H3757 H 0.73731 0.49081 0.57766 0.0
H3758 H 0.7415 0.5196 0.59788 0.0
H3759 H 0.75661 0.51631 0.57217 0.0
C3760 C 0.20492 0.15377 0.48729 0.0
C3761 C 0.22404 0.14523 0.49047 0.0
C3762 C 0.18373 0.13887 0.48696 0.0
C3763 C 0.18166 0.11507 0.49043 0.0
C3764 C 0.20091 0.10614 0.49284 0.0
C3765 C 0.2218 0.12123 0.4926 0.0
C3766 C 0.16359 0.14892 0.48387 0.0
C3767 C 0.19954 0.08107 0.49699 0.0
C3768 C 0.13264 0.09068 0.52192 0.0
C3769 C 0.11855 0.07384 0.50354 0.0
C3770 C 0.15322 0.10386 0.51784 0.0
C3771 C 0.15982 0.10067 0.49461 0.0
C3772 C 0.1457 0.08372 0.47586 0.0
C3773 C 0.1253 0.07027 0.4806 0.0
C3774 C 0.16798 0.12114 0.53854 0.0
C3775 C 0.1519 0.08017 0.45075 0.0
H3776 H 0.20651 0.17221 0.48541 0.0
H3777 H 0.23649 0.11444 0.49502 0.0
H3778 H 0.1508 0.13594 0.47062 0.0
H3779 H 0.15623 0.15182 0.50095 0.0
H3780 H 0.16768 0.16634 0.4781 0.0
H3781 H 0.21592 0.07637 0.4972 0.0
H3782 H 0.19299 0.07965 0.51427 0.0
H3783 H 0.18791 0.06758 0.48301 0.0
H3784 H 0.12772 0.09347 0.53972 0.0
H3785 H 0.11446 0.05736 0.46629 0.0
H3786 H 0.1708 0.13977 0.53558 0.0
H3787 H 0.1844 0.11668 0.54002 0.0
H3788 H 0.1608 0.12075 0.55567 0.0
H3789 H 0.15266 0.09701 0.44422 0.0
H3790 H 0.13983 0.06525 0.43849 0.0
H3791 H 0.16858 0.07633 0.45015 0.0
C3792 C 0.24115 0.9432 0.76215 0.0
C3793 C 0.21809 0.94026 0.76428 0.0
C3794 C 0.25287 0.92443 0.76321 0.0
C3795 C 0.24196 0.90114 0.76661 0.0
C3796 C 0.21866 0.89802 0.76863 0.0
C3797 C 0.20733 0.91706 0.76742 0.0
C3798 C 0.27735 0.92968 0.76075 0.0
C3799 C 0.20547 0.87429 0.77232 0.0
C3800 C 0.26979 0.84464 0.75223 0.0
C3801 C 0.27802 0.84201 0.77478 0.0
C3802 C 0.25829 0.86324 0.74929 0.0
C3803 C 0.25483 0.88079 0.76913 0.0
C3804 C 0.26373 0.87847 0.79174 0.0
C3805 C 0.27444 0.85937 0.79421 0.0
C3806 C 0.24918 0.86363 0.72468 0.0
C3807 C 0.26178 0.89629 0.81378 0.0
H3808 H 0.25029 0.96048 0.75966 0.0
H3809 H 0.18974 0.9137 0.76922 0.0
H3810 H 0.28652 0.92638 0.77637 0.0
H3811 H 0.28063 0.91731 0.74485 0.0
H3812 H 0.28399 0.94852 0.75904 0.0
H3813 H 0.18746 0.87361 0.77198 0.0
H3814 H 0.20799 0.85934 0.75838 0.0
H3815 H 0.21138 0.8712 0.7897 0.0
H3816 H 0.27154 0.83152 0.73678 0.0
H3817 H 0.28016 0.858 0.81187 0.0
H3818 H 0.25614 0.88134 0.7204 0.0
H3819 H 0.23094 0.86129 0.7239 0.0
H3820 H 0.25296 0.84924 0.71096 0.0
H3821 H 0.26886 0.9149 0.8117 0.0
H3822 H 0.27044 0.89331 0.82992 0.0
H3823 H 0.24406 0.89493 0.81643 0.0
C3824 C 0.39975 0.97248 0.00447 0.0
C3825 C 0.38893 0.98926 0.01614 0.0
C3826 C 0.42248 0.97578 0.0089 0.0
C3827 C 0.43443 0.99618 0.02582 0.0
C3828 C 0.42336 0.01254 0.03874 0.0
C3829 C 0.40047 0.00908 0.03339 0.0
C3830 C 0.43375 0.95799 0.99467 0.0
C3831 C 0.43572 0.03375 0.05772 0.0
C3832 C 0.49248 0.98892 0.0328 0.0
C3833 C 0.50224 1.00244 0.01685 0.0
C3834 C 0.47106 0.98944 0.03868 0.0
C3835 C 0.45859 1.00194 0.02668 0.0
C3836 C 0.46846 0.01604 0.01117 0.0
C3837 C 0.4904 0.01684 0.00744 0.0
C3838 C 0.46172 0.97604 0.05712 0.0
C3839 C 0.45556 0.02889 0.99706 0.0
H3840 H 0.39037 0.95694 0.99144 0.0
H3841 H 0.39163 0.02154 0.04273 0.0
H3842 H 0.44645 0.96742 0.98484 0.0
H3843 H 0.44231 0.94943 0.00677 0.0
H3844 H 0.42188 0.94353 0.98169 0.0
H3845 H 0.42434 0.04146 0.06941 0.0
H3846 H 0.44816 0.02836 0.06877 0.0
H3847 H 0.44476 0.04811 0.04939 0.0
H3848 H 0.50172 0.97858 0.0414 0.0
H3849 H 0.49818 0.02908 0.99736 0.0
H3850 H 0.45448 0.9569 0.04858 0.0
H3851 H 0.4486 0.98373 0.06573 0.0
H3852 H 0.47499 0.97653 0.07107 0.0
H3853 H 0.44374 0.01535 0.98324 0.0
H3854 H 0.46648 0.0414 0.9881 0.0
H3855 H 0.4458 0.03929 0.00853 0.0
C3856 C 0.88349 0.62016 0.82077 0.0
C3857 C 0.87548 0.59518 0.81366 0.0
C3858 C 0.87502 0.63558 0.80889 0.0
C3859 C 0.85881 0.62548 0.78926 0.0
C3860 C 0.84975 0.60039 0.78303 0.0
C3861 C 0.85763 0.58562 0.79598 0.0
C3862 C 0.88414 0.66244 0.81647 0.0
C3863 C 0.83312 0.58889 0.76147 0.0
C3864 C 0.82114 0.65661 0.76149 0.0
C3865 C 0.83101 0.65958 0.74069 0.0
C3866 C 0.8312 0.6475 0.77868 0.0
C3867 C 0.85129 0.64071 0.77461 0.0
C3868 C 0.8619 0.64463 0.7542 0.0
C3869 C 0.85158 0.65417 0.7374 0.0
C3870 C 0.81951 0.6434 0.80028 0.0
C3871 C 0.8833 0.63726 0.74929 0.0
H3872 H 0.89732 0.62748 0.83444 0.0
H3873 H 0.85146 0.56628 0.79029 0.0
H3874 H 0.89121 0.66977 0.80148 0.0
H3875 H 0.87054 0.67134 0.82156 0.0
H3876 H 0.89718 0.66731 0.83173 0.0
H3877 H 0.82793 0.569 0.75904 0.0
H3878 H 0.81815 0.59628 0.76293 0.0
H3879 H 0.84042 0.59309 0.74525 0.0
H3880 H 0.80505 0.6605 0.76393 0.0
H3881 H 0.85931 0.65688 0.72148 0.0
H3882 H 0.83137 0.6495 0.81658 0.0
H3883 H 0.81235 0.62386 0.79848 0.0
H3884 H 0.80589 0.65294 0.80258 0.0
H3885 H 0.89574 0.64443 0.76504 0.0
H3886 H 0.89038 0.64368 0.73382 0.0
H3887 H 0.88029 0.61733 0.74562 0.0
C3888 C 0.85389 0.63958 0.03681 0.0
C3889 C 0.84815 0.65045 0.01853 0.0
C3890 C 0.87341 0.63153 0.03759 0.0
C3891 C 0.88756 0.63424 0.01948 0.0
C3892 C 0.88256 0.64642 1.00162 0.0
C3893 C 0.86281 0.65451 1.00138 0.0
C3894 C 0.87824 0.61899 0.05723 0.0
C3895 C 0.89732 0.64972 0.9821 0.0
C3896 C 0.94049 0.61866 0.03826 0.0
C3897 C 0.93455 0.59368 0.02994 0.0
C3898 C 0.92637 0.63301 0.03261 0.0
C3899 C 0.90604 0.62187 0.01843 0.0
C3900 C 0.90137 0.59699 0.00788 0.0
C3901 C 0.91564 0.5831 0.014 0.0
C3902 C 0.93216 0.65956 0.04367 0.0
C3903 C 0.88016 0.58452 0.99217 0.0
H3904 H 0.84279 0.63685 0.05035 0.0
H3905 H 0.85842 0.66298 0.98724 0.0
H3906 H 0.8777 0.59982 0.04959 0.0
H3907 H 0.89509 0.6274 0.0664 0.0
H3908 H 0.86616 0.61964 0.07065 0.0
H3909 H 0.89435 0.66433 0.97342 0.0
H3910 H 0.91507 0.65385 0.98898 0.0
H3911 H 0.89385 0.63277 0.96839 0.0
H3912 H 0.95539 0.62671 0.05038 0.0
H3913 H 0.91143 0.56376 0.00735 0.0
H3914 H 0.92251 0.66295 0.05904 0.0
H3915 H 0.92779 0.67011 0.0308 0.0
H3916 H 0.95006 0.6662 0.05007 0.0
H3917 H 0.86616 0.58254 0.00328 0.0
H3918 H 0.8808 0.56632 0.98232 0.0
H3919 H 0.87667 0.59534 0.97921 0.0
C3920 C 0.20977 0.11495 0.7913 0.0
C3921 C 0.21555 0.09422 0.77866 0.0
C3922 C 0.22268 0.13867 0.79267 0.0
C3923 C 0.24188 0.14265 0.78039 0.0
C3924 C 0.248 0.1218 0.76772 0.0
C3925 C 0.23511 0.09808 0.76731 0.0
C3926 C 0.21527 0.15961 0.80696 0.0
C3927 C 0.26776 0.12459 0.75371 0.0
C3928 C 0.25742 0.2052 0.7633 0.0
C3929 C 0.27644 0.21792 0.77891 0.0
C3930 C 0.24682 0.18087 0.76303 0.0
C3931 C 0.25442 0.16846 0.77958 0.0
C3932 C 0.27336 0.18134 0.79579 0.0
C3933 C 0.28425 0.20544 0.79497 0.0
C3934 C 0.22733 0.1684 0.74478 0.0
C3935 C 0.28178 0.16994 0.81466 0.0
H3936 H 0.19478 0.11264 0.80014 0.0
H3937 H 0.23981 0.0826 0.75711 0.0
H3938 H 0.22959 0.17292 0.81779 0.0
H3939 H 0.2077 0.16889 0.79477 0.0
H3940 H 0.20282 0.15372 0.81894 0.0
H3941 H 0.27014 0.10699 0.74413 0.0
H3942 H 0.26571 0.1358 0.74059 0.0
H3943 H 0.28297 0.13409 0.76573 0.0
H3944 H 0.25076 0.21413 0.75083 0.0
H3945 H 0.29861 0.21478 0.80746 0.0
H3946 H 0.21192 0.16546 0.75365 0.0
H3947 H 0.22936 0.15047 0.73573 0.0
H3948 H 0.22523 0.17904 0.73114 0.0
H3949 H 0.26896 0.1667 0.82701 0.0
H3950 H 0.29729 0.18145 0.82504 0.0
H3951 H 0.28485 0.15222 0.80657 0.0
C3952 C 0.38525 0.94991 0.3041 0.0
C3953 C 0.38087 0.96883 0.29466 0.0
C3954 C 0.37002 0.92779 0.29921 0.0
C3955 C 0.35073 0.92447 0.28338 0.0
C3956 C 0.34577 0.94397 0.27471 0.0
C3957 C 0.36083 0.96631 0.28103 0.0
C3958 C 0.37539 0.90761 0.30975 0.0
C3959 C 0.32531 0.94148 0.25812 0.0
C3960 C 0.34398 0.86042 0.25878 0.0
C3961 C 0.32859 0.85102 0.27326 0.0
C3962 C 0.34786 0.88467 0.2579 0.0
C3963 C 0.338 0.89983 0.2739 0.0
C3964 C 0.3202 0.88989 0.28565 0.0
C3965 C 0.31496 0.86511 0.28391 0.0
C3966 C 0.36449 0.89452 0.24219 0.0
C3967 C 0.30867 0.90528 0.30237 0.0
H3968 H 0.4008 0.95229 0.31484 0.0
H3969 H 0.35764 0.98133 0.27396 0.0
H3970 H 0.36031 0.89682 0.31525 0.0
H3971 H 0.38205 0.89545 0.29624 0.0
H3972 H 0.38803 0.91452 0.3254 0.0
H3973 H 0.32944 0.95171 0.24399 0.0
H3974 H 0.31724 0.92253 0.2496 0.0
H3975 H 0.31316 0.94948 0.2683 0.0
H3976 H 0.35337 0.84916 0.24859 0.0
H3977 H 0.30123 0.85711 0.29215 0.0
H3978 H 0.38118 0.90056 0.25227 0.0
H3979 H 0.36027 0.91017 0.23626 0.0
H3980 H 0.36519 0.88051 0.22632 0.0
H3981 H 0.31828 0.91053 0.32017 0.0
H3982 H 0.29171 0.89527 0.30422 0.0
H3983 H 0.30757 0.92194 0.29634 0.0
C3984 C 0.56936 0.38509 0.57702 0.0
C3985 C 0.59049 0.38013 0.57725 0.0
C3986 C 0.56472 0.40442 0.56769 0.0
C3987 C 0.58182 0.42003 0.55914 0.0
C3988 C 0.60324 0.41513 0.55942 0.0
C3989 C 0.60719 0.39504 0.56798 0.0
C3990 C 0.54139 0.40791 0.56666 0.0
C3991 C 0.62223 0.43157 0.55129 0.0
C3992 C 0.57025 0.46217 0.51853 0.0
C3993 C 0.57226 0.48403 0.53477 0.0
C3994 C 0.57224 0.44102 0.52622 0.0
C3995 C 0.57756 0.44189 0.55071 0.0
C3996 C 0.57953 0.46404 0.56714 0.0
C3997 C 0.57669 0.48467 0.55902 0.0
C3998 C 0.56894 0.41781 0.50803 0.0
C3999 C 0.58534 0.46618 0.59333 0.0
H4000 H 0.55626 0.37354 0.58388 0.0
H4001 H 0.62359 0.39151 0.56822 0.0
H4002 H 0.54113 0.42629 0.57621 0.0
H4003 H 0.53501 0.40603 0.54788 0.0
H4004 H 0.53 0.39461 0.5744 0.0
H4005 H 0.6379 0.42549 0.55265 0.0
H4006 H 0.61819 0.43255 0.5326 0.0
H4007 H 0.62492 0.45008 0.56222 0.0
H4008 H 0.56711 0.46163 0.49974 0.0
H4009 H 0.57857 0.50159 0.57163 0.0
H4010 H 0.55718 0.40318 0.51366 0.0
H4011 H 0.58492 0.4124 0.50654 0.0
H4012 H 0.5625 0.41946 0.49022 0.0
H4013 H 0.5727 0.45333 0.6002 0.0
H4014 H 0.58644 0.48463 0.6038 0.0
H4015 H 0.60146 0.46143 0.59627 0.0
C4016 C 0.43632 0.75523 0.38726 0.0
C4017 C 0.45617 0.76834 0.38108 0.0
C4018 C 0.41533 0.75611 0.37661 0.0
C4019 C 0.41399 0.77062 0.35957 0.0
C4020 C 0.43396 0.78414 0.35374 0.0
C4021 C 0.45447 0.78275 0.36433 0.0
C4022 C 0.39454 0.7412 0.38326 0.0
C4023 C 0.43378 0.80024 0.33615 0.0
C4024 C 0.36493 0.76015 0.31194 0.0
C4025 C 0.35398 0.77818 0.32101 0.0
C4026 C 0.38362 0.75668 0.32477 0.0
C4027 C 0.39205 0.77172 0.34736 0.0
C4028 C 0.38071 0.78955 0.3569 0.0
C4029 C 0.36178 0.79233 0.34384 0.0
C4030 C 0.39477 0.73727 0.31375 0.0
C4031 C 0.38908 0.80638 0.3806 0.0
H4032 H 0.43715 0.74407 0.4001 0.0
H4033 H 0.4694 0.79336 0.3594 0.0
H4034 H 0.3829 0.75266 0.38894 0.0
H4035 H 0.38604 0.72734 0.36749 0.0
H4036 H 0.39804 0.73207 0.39776 0.0
H4037 H 0.45069 0.81018 0.334 0.0
H4038 H 0.42594 0.78935 0.31854 0.0
H4039 H 0.42379 0.81353 0.34201 0.0
H4040 H 0.35897 0.74869 0.29461 0.0
H4041 H 0.35354 0.80621 0.35129 0.0
H4042 H 0.39682 0.72564 0.32642 0.0
H4043 H 0.41156 0.74561 0.30972 0.0
H4044 H 0.38528 0.72582 0.29705 0.0
H4045 H 0.38978 0.79587 0.3946 0.0
H4046 H 0.37847 0.81922 0.38571 0.0
H4047 H 0.40618 0.81681 0.38003 0.0
C4048 C 0.1027 0.71573 0.09009 0.0
C4049 C 0.09256 0.7321 0.08131 0.0
C4050 C 0.09765 0.69111 0.0794 0.0
C4051 C 0.08183 0.68209 0.05923 0.0
C4052 C 0.07236 0.69863 0.04931 0.0
C4053 C 0.07789 0.72347 0.06042 0.0
C4054 C 0.10839 0.67449 0.09069 0.0
C4055 C 0.05523 0.69006 0.02801 0.0
C4056 C 0.07819 0.61597 0.02999 0.0
C4057 C 0.06557 0.6041 0.04541 0.0
C4058 C 0.08335 0.64143 0.03354 0.0
C4059 C 0.0735 0.65519 0.05114 0.0
C4060 C 0.05785 0.64285 0.06397 0.0
C4061 C 0.0549 0.61789 0.06178 0.0
C4062 C 0.1003 0.65356 0.01945 0.0
C4063 C 0.04489 0.65613 0.08097 0.0
H4064 H 0.11423 0.72207 0.10606 0.0
H4065 H 0.06982 0.7358 0.05348 0.0
H4066 H 0.09596 0.66343 0.09956 0.0
H4067 H 0.1145 0.662 0.07698 0.0
H4068 H 0.12243 0.68453 0.1042 0.0
H4069 H 0.05505 0.70452 0.01802 0.0
H4070 H 0.05808 0.67405 0.01579 0.0
H4071 H 0.03862 0.68494 0.03415 0.0
H4072 H 0.08452 0.60563 0.01559 0.0
H4073 H 0.04398 0.60922 0.0731 0.0
H4074 H 0.11623 0.66091 0.03091 0.0
H4075 H 0.09523 0.66887 0.01373 0.0
H4076 H 0.10312 0.64081 0.00355 0.0
H4077 H 0.05568 0.66539 0.09761 0.0
H4078 H 0.03023 0.64374 0.0855 0.0
H4079 H 0.03913 0.67001 0.07321 0.0
C4080 C 0.10297 0.26977 0.90992 0.0
C4081 C 0.0819 0.26488 0.89732 0.0
C4082 C 0.12239 0.27322 0.89828 0.0
C4083 C 0.1208 0.27233 0.8735 0.0
C4084 C 0.09953 0.26695 0.86068 0.0
C4085 C 0.08042 0.26309 0.87266 0.0
C4086 C 0.14461 0.2785 0.91267 0.0
C4087 C 0.09693 0.26605 0.83433 0.0
C4088 C 0.16629 0.3083 0.84455 0.0
C4089 C 0.17523 0.29024 0.83161 0.0
C4090 C 0.14947 0.30287 0.85926 0.0
C4091 C 0.14115 0.2787 0.86107 0.0
C4092 C 0.15106 0.26056 0.8492 0.0
C4093 C 0.16804 0.26656 0.83467 0.0
C4094 C 0.13977 0.3229 0.87185 0.0
C4095 C 0.14302 0.23465 0.85097 0.0
H4096 H 0.1043 0.27105 0.92895 0.0
H4097 H 0.06426 0.25938 0.86275 0.0
H4098 H 0.15559 0.2679 0.90342 0.0
H4099 H 0.15281 0.29782 0.91484 0.0
H4100 H 0.14302 0.27444 0.9306 0.0
H4101 H 0.07929 0.26098 0.8268 0.0
H4102 H 0.10467 0.28393 0.83082 0.0
H4103 H 0.10561 0.25289 0.82484 0.0
H4104 H 0.17196 0.3267 0.84249 0.0
H4105 H 0.17483 0.2525 0.8247 0.0
H4106 H 0.13974 0.32272 0.89102 0.0
H4107 H 0.1223 0.32011 0.86446 0.0
H4108 H 0.14907 0.34092 0.86999 0.0
H4109 H 0.14269 0.23331 0.86986 0.0
H4110 H 0.15359 0.22305 0.8424 0.0
H4111 H 0.12582 0.22757 0.84229 0.0
C4112 C 0.60294 0.77207 0.95537 0.0
C4113 C 0.59902 0.76641 0.93057 0.0
C4114 C 0.5961 0.75459 0.96859 0.0
C4115 C 0.58521 0.73093 0.95665 0.0
C4116 C 0.58169 0.72491 0.93159 0.0
C4117 C 0.58854 0.74283 0.9188 0.0
C4118 C 0.60022 0.76152 0.99537 0.0
C4119 C 0.57037 0.69973 0.91831 0.0
C4120 C 0.58466 0.68463 0.99411 0.0
C4121 C 0.5639 0.68329 0.00276 0.0
C4122 C 0.59141 0.69918 0.97802 0.0
C4123 C 0.57711 0.71281 0.9707 0.0
C4124 C 0.55581 0.71081 0.97862 0.0
C4125 C 0.54944 0.69603 0.99462 0.0
C4126 C 0.61411 0.70061 0.96957 0.0
C4127 C 0.54006 0.7249 0.97081 0.0
H4128 H 0.61111 0.79026 0.9645 0.0
H4129 H 0.58559 0.73837 0.89958 0.0
H4130 H 0.58422 0.75851 0.00319 0.0
H4131 H 0.61012 0.74999 0.002 0.0
H4132 H 0.60912 0.78066 0.00186 0.0
H4133 H 0.57167 0.69727 0.89891 0.0
H4134 H 0.57759 0.6862 0.92509 0.0
H4135 H 0.55257 0.69597 0.92116 0.0
H4136 H 0.59584 0.6747 1.00035 0.0
H4137 H 0.53317 0.69444 1.00081 0.0
H4138 H 0.62492 0.71869 0.9772 0.0
H4139 H 0.61303 0.69819 0.94995 0.0
H4140 H 0.62213 0.68684 0.97481 0.0
H4141 H 0.54706 0.74444 0.97778 0.0
H4142 H 0.52351 0.7199 0.97718 0.0
H4143 H 0.53793 0.72189 0.95116 0.0
C4144 C 0.07252 0.75881 0.70461 0.0
C4145 C 0.07034 0.76142 0.68107 0.0
C4146 C 0.09084 0.75188 0.71353 0.0
C4147 C 0.10749 0.74791 0.69862 0.0
C4148 C 0.10531 0.75019 0.67472 0.0
C4149 C 0.08662 0.75692 0.66616 0.0
C4150 C 0.09258 0.74928 0.73908 0.0
C4151 C 0.12282 0.7459 0.65841 0.0
C4152 C 0.1627 0.75996 0.73394 0.0
C4153 C 0.16374 0.73672 0.73625 0.0
C4154 C 0.14501 0.76368 0.72038 0.0
C4155 C 0.12801 0.74362 0.70899 0.0
C4156 C 0.12946 0.72 0.71032 0.0
C4157 C 0.14733 0.71682 0.72424 0.0
C4158 C 0.14393 0.78914 0.71931 0.0
C4159 C 0.11171 0.69822 0.69802 0.0
H4160 H 0.05979 0.76194 0.71607 0.0
H4161 H 0.08479 0.7587 0.64785 0.0
H4162 H 0.09536 0.7313 0.74006 0.0
H4163 H 0.10699 0.76297 0.7493 0.0
H4164 H 0.07747 0.75151 0.74777 0.0
H4165 H 0.11773 0.74653 0.63983 0.0
H4166 H 0.13841 0.75978 0.66481 0.0
H4167 H 0.12651 0.72814 0.65859 0.0
H4168 H 0.17544 0.77533 0.74335 0.0
H4169 H 0.14844 0.69886 0.72582 0.0
H4170 H 0.13011 0.79396 0.72903 0.0
H4171 H 0.14056 0.79064 0.70066 0.0
H4172 H 0.15951 0.80246 0.72728 0.0
H4173 H 0.09727 0.69653 0.70852 0.0
H4174 H 0.11767 0.68138 0.69628 0.0
H4175 H 0.10587 0.70005 0.6801 0.0
C4176 C 0.11504 0.41326 0.4106 0.0
C4177 C 0.12596 0.39812 0.42022 0.0
C4178 C 0.10791 0.43141 0.42533 0.0
C4179 C 0.11248 0.43479 0.45016 0.0
C4180 C 0.12423 0.42017 0.46003 0.0
C4181 C 0.13062 0.4016 0.44482 0.0
C4182 C 0.09478 0.44634 0.41434 0.0
C4183 C 0.12931 0.42365 0.48656 0.0
C4184 C 0.10899 0.49556 0.4838 0.0
C4185 C 0.0869 0.4907 0.4883 0.0
C4186 C 0.11788 0.47722 0.47178 0.0
C4187 C 0.10449 0.45352 0.46562 0.0
C4188 C 0.0826 0.44832 0.47197 0.0
C4189 C 0.07382 0.46727 0.4828 0.0
C4190 C 0.14102 0.48339 0.46452 0.0
C4191 C 0.06813 0.42308 0.46641 0.0
H4192 H 0.1109 0.41003 0.39155 0.0
H4193 H 0.13883 0.38956 0.4521 0.0
H4194 H 0.07794 0.4436 0.42029 0.0
H4195 H 0.10286 0.46576 0.42029 0.0
H4196 H 0.09309 0.44161 0.39462 0.0
H4197 H 0.13945 0.4114 0.49128 0.0
H4198 H 0.13829 0.44252 0.49427 0.0
H4199 H 0.11362 0.42032 0.49493 0.0
H4200 H 0.11899 0.51375 0.48903 0.0
H4201 H 0.05682 0.46383 0.48712 0.0
H4202 H 0.14013 0.48117 0.44492 0.0
H4203 H 0.15082 0.47097 0.46948 0.0
H4204 H 0.14992 0.50218 0.47274 0.0
H4205 H 0.06177 0.41808 0.44731 0.0
H4206 H 0.05372 0.42154 0.477 0.0
H4207 H 0.07768 0.40989 0.46992 0.0
C4208 C 0.44349 0.24292 0.22154 0.0
C4209 C 0.45396 0.25996 0.2093 0.0
C4210 C 0.42256 0.24345 0.22886 0.0
C4211 C 0.41249 0.26199 0.22453 0.0
C4212 C 0.42305 0.27912 0.212 0.0
C4213 C 0.44371 0.2778 0.20444 0.0
C4214 C 0.41106 0.22395 0.2408 0.0
C4215 C 0.41328 0.29934 0.20695 0.0
C4216 C 0.35087 0.25186 0.22662 0.0
C4217 C 0.3498 0.26148 0.25052 0.0
C4218 C 0.37127 0.25211 0.21778 0.0
C4219 C 0.39087 0.2631 0.23315 0.0
C4220 C 0.3898 0.27344 0.25723 0.0
C4221 C 0.3691 0.27148 0.26595 0.0
C4222 C 0.37183 0.24023 0.19219 0.0
C4223 C 0.41044 0.28661 0.27362 0.0
H4224 H 0.45136 0.22879 0.22473 0.0
H4225 H 0.45196 0.29095 0.19491 0.0
H4226 H 0.40935 0.23187 0.25948 0.0
H4227 H 0.39411 0.21561 0.23178 0.0
H4228 H 0.42024 0.20958 0.24072 0.0
H4229 H 0.41789 0.3039 0.18981 0.0
H4230 H 0.39502 0.2951 0.20638 0.0
H4231 H 0.42036 0.31551 0.22113 0.0
H4232 H 0.3357 0.24378 0.21495 0.0
H4233 H 0.36797 0.27817 0.28459 0.0
H4234 H 0.38124 0.22598 0.19134 0.0
H4235 H 0.3805 0.25365 0.18256 0.0
H4236 H 0.35497 0.232 0.18286 0.0
H4237 H 0.42077 0.27391 0.27642 0.0
H4238 H 0.40655 0.29549 0.2912 0.0
H4239 H 0.4205 0.30049 0.2654 0.0
C4240 C 0.61477 0.49932 0.34236 0.0
C4241 C 0.63623 0.51272 0.34033 0.0
C4242 C 0.60533 0.50012 0.36454 0.0
C4243 C 0.61692 0.51545 0.38603 0.0
C4244 C 0.63868 0.52896 0.38411 0.0
C4245 C 0.64792 0.52739 0.36174 0.0
C4246 C 0.58247 0.4848 0.36477 0.0
C4247 C 0.65207 0.54589 0.40577 0.0
C4248 C 0.583 0.53725 0.43828 0.0
C4249 C 0.58589 0.52322 0.45509 0.0
C4250 C 0.59278 0.53494 0.41628 0.0
C4251 C 0.60612 0.51801 0.41 0.0
C4252 C 0.60892 0.50362 0.42691 0.0
C4253 C 0.59906 0.50645 0.44892 0.0
C4254 C 0.58892 0.551 0.39969 0.0
C4255 C 0.62233 0.48493 0.42166 0.0
H4256 H 0.60499 0.48837 0.32626 0.0
H4257 H 0.6641 0.5386 0.36086 0.0
H4258 H 0.58237 0.47454 0.37909 0.0
H4259 H 0.57067 0.49651 0.36853 0.0
H4260 H 0.57645 0.4719 0.34757 0.0
H4261 H 0.66853 0.55531 0.40179 0.0
H4262 H 0.64291 0.55955 0.41313 0.0
H4263 H 0.65453 0.53579 0.41975 0.0
H4264 H 0.57314 0.55043 0.44249 0.0
H4265 H 0.60173 0.49542 0.46141 0.0
H4266 H 0.58034 0.53987 0.38246 0.0
H4267 H 0.60504 0.56152 0.39603 0.0
H4268 H 0.5788 0.5637 0.40703 0.0
H4269 H 0.61453 0.47135 0.40541 0.0
H4270 H 0.6237 0.47556 0.43651 0.0
H4271 H 0.63923 0.49342 0.41809 0.0
C4272 C 0.34731 0.91607 0.08841 0.0
C4273 C 0.3273 0.90788 0.07371 0.0
C4274 C 0.35184 0.9042 0.10628 0.0
C4275 C 0.33569 0.88424 0.10958 0.0
C4276 C 0.31464 0.8775 0.09629 0.0
C4277 C 0.31083 0.8892 0.0781 0.0
C4278 C 0.37445 0.91172 0.12021 0.0
C4279 C 0.29669 0.85698 0.10026 0.0
C4280 C 0.35291 0.83117 0.12633 0.0
C4281 C 0.34951 0.83452 0.15036 0.0
C4282 C 0.34947 0.84801 0.11317 0.0
C4283 C 0.34176 0.86817 0.1242 0.0
C4284 C 0.33873 0.87201 0.14855 0.0
C4285 C 0.3433 0.85546 0.16153 0.0
C4286 C 0.35331 0.84375 0.08723 0.0
C4287 C 0.33019 0.89315 0.16077 0.0
H4288 H 0.35996 0.93067 0.0849 0.0
H4289 H 0.2952 0.88332 0.06689 0.0
H4290 H 0.37294 0.91355 0.13948 0.0
H4291 H 0.38374 0.89761 0.11491 0.0
H4292 H 0.38426 0.92904 0.11715 0.0
H4293 H 0.28048 0.85611 0.09056 0.0
H4294 H 0.30141 0.83966 0.0941 0.0
H4295 H 0.29471 0.85886 0.11947 0.0
H4296 H 0.35756 0.81502 0.11759 0.0
H4297 H 0.34147 0.85868 0.18036 0.0
H4298 H 0.3642 0.86005 0.08333 0.0
H4299 H 0.33731 0.84013 0.07607 0.0
H4300 H 0.36102 0.82827 0.08193 0.0
H4301 H 0.34343 0.90988 0.16337 0.0
H4302 H 0.32491 0.89099 0.17844 0.0
H4303 H 0.31595 0.89557 0.14977 0.0
C4304 C 0.9594 0.53045 0.87133 0.0
C4305 C 0.97159 0.53721 0.85315 0.0
C4306 C 0.97021 0.53166 0.89343 0.0
C4307 C 0.99339 0.54063 0.89704 0.0
C4308 C 0.0057 0.5474 0.87866 0.0
C4309 C 0.99455 0.54523 0.85661 0.0
C4310 C 0.95692 0.52371 0.91278 0.0
C4311 C 0.03055 0.55718 0.8824 0.0
C4312 C 0.02409 0.56803 0.95666 0.0
C4313 C 0.03423 0.54965 0.95969 0.0
C4314 C 0.00947 0.56484 0.93657 0.0
C4315 C 0.0053 0.54275 0.91984 0.0
C4316 C 0.01515 0.52391 0.92334 0.0
C4317 C 0.0298 0.52773 0.94339 0.0
C4318 C 0.99861 0.58491 0.93322 0.0
C4319 C 0.01024 0.49989 0.90598 0.0
H4320 H 0.94152 0.52406 0.86816 0.0
H4321 H 0.00366 0.55053 0.84229 0.0
H4322 H 0.96541 0.51307 0.92262 0.0
H4323 H 0.95512 0.53978 0.92572 0.0
H4324 H 0.94007 0.51272 0.90555 0.0
H4325 H 0.03739 0.56219 0.86624 0.0
H4326 H 0.0349 0.57333 0.89712 0.0
H4327 H 0.03877 0.54354 0.88752 0.0
H4328 H 0.02693 0.58433 0.97038 0.0
H4329 H 0.03691 0.51319 0.94701 0.0
H4330 H 0.98034 0.57828 0.93097 0.0
H4331 H 0.00348 0.59104 0.91684 0.0
H4332 H 0.00321 0.60059 0.94847 0.0
H4333 H 0.99208 0.49245 0.90232 0.0
H4334 H 0.01785 0.48653 0.91266 0.0
H4335 H 0.01666 0.50232 0.88886 0.0
C4336 C 0.30822 0.24521 0.59273 0.0
C4337 C 0.28895 0.2273 0.58367 0.0
C4338 C 0.31109 0.25767 0.61666 0.0
C4339 C 0.29419 0.25216 0.63159 0.0
C4340 C 0.27389 0.23591 0.62162 0.0
C4341 C 0.27161 0.22357 0.59792 0.0
C4342 C 0.33307 0.27473 0.62643 0.0
C4343 C 0.25516 0.23007 0.63653 0.0
C4344 C 0.30703 0.24414 0.69375 0.0
C4345 C 0.30264 0.26464 0.70808 0.0
C4346 C 0.30618 0.24117 0.6691 0.0
C4347 C 0.29918 0.25828 0.65799 0.0
C4348 C 0.29489 0.27925 0.67224 0.0
C4349 C 0.2976 0.28267 0.69725 0.0
C4350 C 0.31213 0.21914 0.6549 0.0
C4351 C 0.28693 0.29769 0.66114 0.0
H4352 H 0.32169 0.24815 0.58173 0.0
H4353 H 0.25654 0.21002 0.59082 0.0
H4354 H 0.33107 0.28983 0.6405 0.0
H4355 H 0.34386 0.26484 0.63442 0.0
H4356 H 0.34162 0.28219 0.6122 0.0
H4357 H 0.23987 0.21847 0.62579 0.0
H4358 H 0.26012 0.22072 0.65025 0.0
H4359 H 0.25143 0.24703 0.64576 0.0
H4360 H 0.31149 0.23031 0.70187 0.0
H4361 H 0.29541 0.29915 0.70822 0.0
H4362 H 0.32383 0.22432 0.64198 0.0
H4363 H 0.29699 0.20669 0.64469 0.0
H4364 H 0.31986 0.20925 0.66637 0.0
H4365 H 0.29891 0.30455 0.64917 0.0
H4366 H 0.28463 0.31313 0.67467 0.0
H4367 H 0.27091 0.28917 0.65015 0.0
C4368 C 0.61819 0.50207 0.18694 0.0
C4369 C 0.64153 0.5092 0.19238 0.0
C4370 C 0.60699 0.50525 0.16562 0.0
C4371 C 0.61889 0.51647 0.14869 0.0
C4372 C 0.64239 0.524 0.15432 0.0
C4373 C 0.65317 0.5201 0.17544 0.0
C4374 C 0.58225 0.49569 0.16085 0.0
C4375 C 0.65638 0.5367 0.13804 0.0
C4376 C 0.59864 0.50811 0.08097 0.0
C4377 C 0.589 0.52781 0.07935 0.0
C4378 C 0.60669 0.50345 0.10296 0.0
C4379 C 0.60724 0.51975 0.12502 0.0
C4380 C 0.59715 0.53944 0.12379 0.0
C4381 C 0.58735 0.54241 0.1016 0.0
C4382 C 0.61469 0.48073 0.1024 0.0
C4383 C 0.59705 0.55797 0.146 0.0
H4384 H 0.60852 0.49357 0.1993 0.0
H4385 H 0.67103 0.52604 0.17884 0.0
H4386 H 0.57414 0.50957 0.15621 0.0
H4387 H 0.57847 0.48025 0.14537 0.0
H4388 H 0.57488 0.48957 0.17631 0.0
H4389 H 0.67406 0.54316 0.14537 0.0
H4390 H 0.65537 0.52435 0.12057 0.0
H4391 H 0.64997 0.55231 0.13489 0.0
H4392 H 0.59998 0.49587 0.06472 0.0
H4393 H 0.5789 0.55668 0.10198 0.0
H4394 H 0.608 0.47172 0.1166 0.0
H4395 H 0.633 0.48518 0.10568 0.0
H4396 H 0.60966 0.46783 0.08504 0.0
H4397 H 0.58423 0.55052 0.15682 0.0
H4398 H 0.59333 0.57461 0.14189 0.0
H4399 H 0.6133 0.5628 0.15695 0.0
C4400 C 0.33735 0.90535 0.91388 0.0
C4401 C 0.34049 0.90346 0.93755 0.0
C4402 C 0.34029 0.88709 0.89555 0.0
C4403 C 0.3466 0.86676 0.90132 0.0
C4404 C 0.35223 0.86614 0.92514 0.0
C4405 C 0.34896 0.88451 0.94309 0.0
C4406 C 0.33452 0.88846 0.87013 0.0
C4407 C 0.35977 0.84508 0.93172 0.0
C4408 C 0.31544 0.81195 0.85751 0.0
C4409 C 0.33034 0.81049 0.84049 0.0
C4410 C 0.32124 0.82914 0.87867 0.0
C4411 C 0.34273 0.84455 0.88293 0.0
C4412 C 0.35884 0.84076 0.86729 0.0
C4413 C 0.35234 0.82378 0.84597 0.0
C4414 C 0.30349 0.8327 0.89492 0.0
C4415 C 0.38216 0.85623 0.87169 0.0
H4416 H 0.33124 0.92025 0.90959 0.0
H4417 H 0.35212 0.88342 0.96147 0.0
H4418 H 0.34746 0.88378 0.85891 0.0
H4419 H 0.3187 0.87525 0.86285 0.0
H4420 H 0.33262 0.90666 0.86862 0.0
H4421 H 0.36764 0.84951 0.95031 0.0
H4422 H 0.34528 0.82963 0.92991 0.0
H4423 H 0.37168 0.83922 0.91961 0.0
H4424 H 0.29858 0.80166 0.85333 0.0
H4425 H 0.36403 0.82223 0.83285 0.0
H4426 H 0.29862 0.84969 0.89365 0.0
H4427 H 0.30979 0.83427 0.91365 0.0
H4428 H 0.28844 0.8177 0.89023 0.0
H4429 H 0.38261 0.87275 0.8647 0.0
H4430 H 0.39385 0.84661 0.86243 0.0
H4431 H 0.38795 0.86179 0.89093 0.0
C4432 C 0.96273 0.55489 0.7368 0.0
C4433 C 0.93958 0.54786 0.73545 0.0
C4434 C 0.97434 0.54363 0.72002 0.0
C4435 C 0.96244 0.52607 0.70043 0.0
C4436 C 0.93902 0.51967 0.69815 0.0
C4437 C 0.92777 0.53051 0.71594 0.0
C4438 C 0.99941 0.55039 0.72346 0.0
C4439 C 0.92599 0.50126 0.67715 0.0
C4440 C 0.99919 0.52746 0.65204 0.0
C4441 C 0.00958 0.5088 0.65434 0.0
C4442 C 0.98174 0.53139 0.66507 0.0
C4443 C 0.97498 0.51679 0.68139 0.0
C4444 C 0.98441 0.49698 0.68282 0.0
C4445 C 0.00179 0.49325 0.66924 0.0
C4446 C 0.97205 0.55267 0.66303 0.0
C4447 C 0.97757 0.48093 0.7 0.0
H4448 H 0.97197 0.56822 0.75189 0.0
H4449 H 0.90989 0.52484 0.71499 0.0
H4450 H 0.00597 0.534 0.72242 0.0
H4451 H 0.00589 0.55931 0.70914 0.0
H4452 H 0.006 0.56276 0.74082 0.0
H4453 H 0.90789 0.49742 0.67867 0.0
H4454 H 0.9291 0.50786 0.66059 0.0
H4455 H 0.93153 0.4842 0.67543 0.0
H4456 H 0.00533 0.53975 0.64073 0.0
H4457 H 0.00956 0.47856 0.67065 0.0
H4458 H 0.97881 0.5676 0.67859 0.0
H4459 H 0.95378 0.54789 0.66299 0.0
H4460 H 0.97614 0.55937 0.64669 0.0
H4461 H 0.98799 0.48863 0.71719 0.0
H4462 H 0.9801 0.46258 0.69333 0.0
H4463 H 0.95999 0.47946 0.70333 0.0
C4464 C 0.29383 0.20798 0.41873 0.0
C4465 C 0.30463 0.22197 0.44052 0.0
C4466 C 0.2965 0.21634 0.39771 0.0
C4467 C 0.31101 0.23889 0.39832 0.0
C4468 C 0.32214 0.25311 0.42027 0.0
C4469 C 0.31848 0.24464 0.44127 0.0
C4470 C 0.28353 0.20114 0.37486 0.0
C4471 C 0.33794 0.27712 0.42152 0.0
C4472 C 0.32769 0.24347 0.33691 0.0
C4473 C 0.31291 0.2562 0.32965 0.0
C4474 C 0.32852 0.23929 0.36009 0.0
C4475 C 0.31377 0.2475 0.37585 0.0
C4476 C 0.29964 0.26147 0.36878 0.0
C4477 C 0.29993 0.26624 0.34598 0.0
C4478 C 0.34465 0.22547 0.36747 0.0
C4479 C 0.28314 0.26999 0.38455 0.0
H4480 H 0.28288 0.19059 0.4182 0.0
H4481 H 0.32683 0.25543 0.45816 0.0
H4482 H 0.27361 0.21173 0.36665 0.0
H4483 H 0.29506 0.1958 0.362 0.0
H4484 H 0.27216 0.18457 0.37765 0.0
H4485 H 0.34672 0.28495 0.43959 0.0
H4486 H 0.35039 0.27512 0.40872 0.0
H4487 H 0.32878 0.29004 0.41646 0.0
H4488 H 0.33847 0.23677 0.32451 0.0
H4489 H 0.28941 0.2773 0.34065 0.0
H4490 H 0.33554 0.20714 0.36854 0.0
H4491 H 0.3533 0.23448 0.38536 0.0
H4492 H 0.3572 0.22372 0.35471 0.0
H4493 H 0.26955 0.25434 0.38535 0.0
H4494 H 0.27576 0.28348 0.37782 0.0
H4495 H 0.2909 0.27797 0.40295 0.0
C4496 C 0.35108 0.60521 0.51273 0.0
C4497 C 0.34512 0.6083 0.53594 0.0
C4498 C 0.37006 0.59743 0.5073 0.0
C4499 C 0.38357 0.59314 0.52572 0.0
C4500 C 0.3789 0.59856 0.5496 0.0
C4501 C 0.35925 0.60569 0.55447 0.0
C4502 C 0.37437 0.59155 0.48152 0.0
C4503 C 0.39401 0.59562 0.56966 0.0
C4504 C 0.40434 0.53899 0.50099 0.0
C4505 C 0.42473 0.54969 0.49438 0.0
C4506 C 0.39153 0.55312 0.51328 0.0
C4507 C 0.39943 0.57848 0.51889 0.0
C4508 C 0.42046 0.58934 0.51315 0.0
C4509 C 0.43281 0.57475 0.50063 0.0
C4510 C 0.36909 0.54098 0.51923 0.0
C4511 C 0.42955 0.61629 0.51925 0.0
H4512 H 0.34016 0.60746 0.49842 0.0
H4513 H 0.35482 0.60886 0.57251 0.0
H4514 H 0.39165 0.60012 0.47931 0.0
H4515 H 0.37209 0.57179 0.47554 0.0
H4516 H 0.36304 0.59761 0.46969 0.0
H4517 H 0.38983 0.60402 0.58729 0.0
H4518 H 0.39267 0.5762 0.56904 0.0
H4519 H 0.41151 0.6038 0.56777 0.0
H4520 H 0.39863 0.51954 0.49692 0.0
H4521 H 0.44892 0.58287 0.4959 0.0
H4522 H 0.35588 0.54602 0.50893 0.0
H4523 H 0.36743 0.54709 0.53834 0.0
H4524 H 0.36622 0.52104 0.51517 0.0
H4525 H 0.4235 0.62429 0.50495 0.0
H4526 H 0.44795 0.62097 0.52074 0.0
H4527 H 0.42405 0.62465 0.53613 0.0
C4528 C 0.9026 0.92816 0.53816 0.0
C4529 C 0.88614 0.94128 0.53965 0.0
C4530 C 0.92519 0.93999 0.53972 0.0
C4531 C 0.93141 0.96549 0.54341 0.0
C4532 C 0.91484 0.97876 0.54631 0.0
C4533 C 0.89249 0.96651 0.54411 0.0
C4534 C 0.94229 0.92516 0.53621 0.0
C4535 C 0.9206 1.00591 0.55054 0.0
C4536 C 0.99182 1.00039 0.56039 0.0
C4537 C 0.99832 1.00394 0.53828 0.0
C4538 C 0.97023 0.98747 0.56236 0.0
C4539 C 0.95477 0.97827 0.5418 0.0
C4540 C 0.96127 0.98238 0.51956 0.0
C4541 C 0.98288 0.99517 0.51812 0.0
C4542 C 0.96397 0.98355 0.58639 0.0
C4543 C 0.94534 0.97341 0.49721 0.0
H4544 H 0.89776 0.90866 0.53453 0.0
H4545 H 0.87981 0.97673 0.54544 0.0
H4546 H 0.95006 0.92744 0.51972 0.0
H4547 H 0.95566 0.93152 0.55115 0.0
H4548 H 0.93503 0.90569 0.53485 0.0
H4549 H 0.90614 0.01363 0.55497 0.0
H4550 H 0.9341 0.01367 0.56522 0.0
H4551 H 0.92667 0.0116 0.53437 0.0
H4552 H 0.00374 0.00726 0.576 0.0
H4553 H 0.9876 0.99871 0.50117 0.0
H4554 H 0.95901 0.96397 0.58596 0.0
H4555 H 0.9495 0.99115 0.59089 0.0
H4556 H 0.97779 0.99194 0.60065 0.0
H4557 H 0.93888 0.95364 0.49433 0.0
H4558 H 0.95318 0.97755 0.48123 0.0
H4559 H 0.93095 0.98176 0.49908 0.0
C4560 C 0.877 0.1329 0.2588 0.0
C4561 C 0.89709 0.13662 0.27353 0.0
C4562 C 0.86515 0.1515 0.25779 0.0
C4563 C 0.87284 0.17539 0.27192 0.0
C4564 C 0.89302 0.17924 0.28699 0.0
C4565 C 0.90462 0.16032 0.28756 0.0
C4566 C 0.84414 0.14548 0.24122 0.0
C4567 C 0.9026 0.20368 0.30274 0.0
C4568 C 0.85289 0.22793 0.24899 0.0
C4569 C 0.83701 0.23466 0.2641 0.0
C4570 C 0.86483 0.20998 0.25193 0.0
C4571 C 0.86061 0.19624 0.26982 0.0
C4572 C 0.8446 0.20281 0.28527 0.0
C4573 C 0.83391 0.22214 0.28286 0.0
C4574 C 0.88257 0.20608 0.23588 0.0
C4575 C 0.83819 0.18892 0.30421 0.0
H4576 H 0.87047 0.1152 0.2476 0.0
H4577 H 0.91983 0.16423 0.29924 0.0
H4578 H 0.83043 0.15034 0.25114 0.0
H4579 H 0.84639 0.15625 0.22729 0.0
H4580 H 0.83922 0.1261 0.23244 0.0
H4581 H 0.91932 0.20502 0.31154 0.0
H4582 H 0.90369 0.21793 0.2923 0.0
H4583 H 0.89151 0.20731 0.31669 0.0
H4584 H 0.85653 0.23727 0.23467 0.0
H4585 H 0.82314 0.2274 0.29588 0.0
H4586 H 0.87787 0.18763 0.22466 0.0
H4587 H 0.89839 0.2077 0.24669 0.0
H4588 H 0.88543 0.21921 0.22413 0.0
H4589 H 0.82849 0.17054 0.29562 0.0
H4590 H 0.82798 0.1976 0.31674 0.0
H4591 H 0.85311 0.18693 0.31438 0.0
C4592 C 0.70218 0.10432 0.99705 0.0
C4593 C 0.71886 0.09758 0.00958 0.0
C4594 C 0.68049 0.09943 0.00287 0.0
C4595 C 0.67547 0.08749 0.02167 0.0
C4596 C 0.69198 0.07957 0.03367 0.0
C4597 C 0.71367 0.08473 0.02745 0.0
C4598 C 0.66297 0.107 0.98882 0.0
C4599 C 0.68668 0.06576 0.05299 0.0
C4600 C 0.62036 0.09483 0.04177 0.0
C4601 C 0.60645 0.07419 0.02759 0.0
C4602 C 0.64345 0.09841 0.04188 0.0
C4603 C 0.65232 0.08133 0.02677 0.0
C4604 C 0.63823 0.06034 0.01281 0.0
C4605 C 0.61557 0.05755 0.01292 0.0
C4606 C 0.65826 0.1209 0.05714 0.0
C4607 C 0.64652 0.04161 0.99597 0.0
H4608 H 0.70622 0.114 0.98303 0.0
H4609 H 0.7266 0.07945 0.03708 0.0
H4610 H 0.65029 0.09085 0.97936 0.0
H4611 H 0.65444 0.11845 1.00094 0.0
H4612 H 0.66996 0.11715 0.97549 0.0
H4613 H 0.70128 0.06021 0.06009 0.0
H4614 H 0.68065 0.07709 0.06777 0.0
H4615 H 0.6732 0.04942 0.04608 0.0
H4616 H 0.61326 0.10821 0.05239 0.0
H4617 H 0.60502 0.04296 1.00026 0.0
H4618 H 0.66555 0.13317 0.04567 0.0
H4619 H 0.67215 0.11637 0.06686 0.0
H4620 H 0.64911 0.13059 0.07019 0.0
H4621 H 0.6441 0.04439 0.9776 0.0
H4622 H 0.63674 0.02328 0.99622 0.0
H4623 H 0.66424 0.04215 1.00025 0.0
C4624 C 0.22051 0.45116 0.2302 0.0
C4625 C 0.23129 0.47194 0.22304 0.0
C4626 C 0.23284 0.43739 0.23982 0.0
C4627 C 0.25615 0.44495 0.24203 0.0
C4628 C 0.26689 0.4638 0.23163 0.0
C4629 C 0.25412 0.47689 0.2217 0.0
C4630 C 0.22097 0.41672 0.25004 0.0
C4631 C 0.29184 0.4722 0.2338 0.0
C4632 C 0.28794 0.43937 0.29696 0.0
C4633 C 0.29868 0.42162 0.28732 0.0
C4634 C 0.27353 0.44696 0.28231 0.0
C4635 C 0.26943 0.43571 0.25788 0.0
C4636 C 0.27984 0.4175 0.24817 0.0
C4637 C 0.29519 0.41146 0.26283 0.0
C4638 C 0.26288 0.46703 0.29288 0.0
C4639 C 0.27474 0.40441 0.22242 0.0
H4640 H 0.20268 0.44701 0.23056 0.0
H4641 H 0.26228 0.49264 0.21545 0.0
H4642 H 0.23009 0.40221 0.24856 0.0
H4643 H 0.21962 0.42334 0.26915 0.0
H4644 H 0.20391 0.40903 0.24102 0.0
H4645 H 0.29741 0.48627 0.22351 0.0
H4646 H 0.2982 0.47974 0.25275 0.0
H4647 H 0.29947 0.45691 0.22754 0.0
H4648 H 0.29047 0.44695 0.31589 0.0
H4649 H 0.30395 0.3981 0.2552 0.0
H4650 H 0.2446 0.46049 0.29057 0.0
H4651 H 0.26704 0.48208 0.28348 0.0
H4652 H 0.26832 0.47413 0.31211 0.0
H4653 H 0.25655 0.39793 0.2178 0.0
H4654 H 0.28243 0.38875 0.21847 0.0
H4655 H 0.28084 0.41686 0.21069 0.0
C4656 C 0.25958 0.43955 0.04724 0.0
C4657 C 0.25721 0.41522 0.03659 0.0
C4658 C 0.24294 0.45157 0.04332 0.0
C4659 C 0.22353 0.43902 0.02815 0.0
C4660 C 0.2205 0.41412 0.01834 0.0
C4661 C 0.23736 0.40244 0.0228 0.0
C4662 C 0.24667 0.47803 0.05444 0.0
C4663 C 0.20022 0.40021 1.00173 0.0
C4664 C 0.17453 0.46797 0.02367 0.0
C4665 C 0.17933 0.47997 0.00494 0.0
C4666 C 0.18896 0.45504 0.03186 0.0
C4667 C 0.20797 0.4527 0.02015 0.0
C4668 C 0.21273 0.46418 1.00102 0.0
C4669 C 0.19899 0.47842 0.99441 0.0
C4670 C 0.18397 0.44403 0.05313 0.0
C4671 C 0.23245 0.46153 0.98747 0.0
H4672 H 0.27479 0.44947 0.05813 0.0
H4673 H 0.23542 0.38362 0.01456 0.0
H4674 H 0.24965 0.48876 0.04054 0.0
H4675 H 0.23176 0.48179 0.06263 0.0
H4676 H 0.26114 0.4843 0.06819 0.0
H4677 H 0.19897 0.3805 0.99813 0.0
H4678 H 0.18494 0.40381 0.00915 0.0
H4679 H 0.20093 0.40619 0.98462 0.0
H4680 H 0.15947 0.46837 0.03203 0.0
H4681 H 0.20401 0.48835 0.98088 0.0
H4682 H 0.1984 0.45043 0.06691 0.0
H4683 H 0.1811 0.42417 0.04794 0.0
H4684 H 0.1692 0.44859 0.0611 0.0
H4685 H 0.24801 0.47062 0.99906 0.0
H4686 H 0.23242 0.46937 0.9714 0.0
H4687 H 0.23259 0.44222 0.98186 0.0
C4688 C 0.90706 0.96277 0.25815 0.0
C4689 C 0.89965 0.98427 0.26445 0.0
C4690 C 0.89389 0.93972 0.25881 0.0
C4691 C 0.87218 0.93715 0.26592 0.0
C4692 C 0.86431 0.95862 0.27206 0.0
C4693 C 0.87797 0.98169 0.27128 0.0
C4694 C 0.90349 0.91797 0.25198 0.0
C4695 C 0.84147 0.95726 0.27992 0.0
C4696 C 0.83251 0.87299 0.24888 0.0
C4697 C 0.83551 0.86335 0.26906 0.0
C4698 C 0.84391 0.89678 0.2477 0.0
C4699 C 0.85832 0.91213 0.26745 0.0
C4700 C 0.86064 0.90266 0.28818 0.0
C4701 C 0.84965 0.87859 0.28858 0.0
C4702 C 0.84109 0.90518 0.22486 0.0
C4703 C 0.87514 0.9179 0.31003 0.0
H4704 H 0.92359 0.96384 0.25279 0.0
H4705 H 0.87173 0.99773 0.27636 0.0
H4706 H 0.90399 0.90882 0.26708 0.0
H4707 H 0.89277 0.90485 0.23698 0.0
H4708 H 0.92052 0.9227 0.24669 0.0
H4709 H 0.83713 0.97504 0.28306 0.0
H4710 H 0.82895 0.94435 0.26634 0.0
H4711 H 0.8405 0.9504 0.29656 0.0
H4712 H 0.82187 0.86154 0.23355 0.0
H4713 H 0.85204 0.87169 0.30442 0.0
H4714 H 0.85716 0.90831 0.21719 0.0
H4715 H 0.83604 0.92255 0.22833 0.0
H4716 H 0.82858 0.89187 0.21151 0.0
H4717 H 0.89271 0.92141 0.30631 0.0
H4718 H 0.87356 0.90909 0.32548 0.0
H4719 H 0.87079 0.9356 0.31488 0.0
C4720 C 0.72797 0.13048 0.76582 0.0
C4721 C 0.73276 0.11292 0.74802 0.0
C4722 C 0.74334 0.15228 0.77419 0.0
C4723 C 0.76331 0.15675 0.76353 0.0
C4724 C 0.76929 0.13794 0.74775 0.0
C4725 C 0.7538 0.11602 0.74012 0.0
C4726 C 0.73727 0.17131 0.79275 0.0
C4727 C 0.79125 0.14091 0.73774 0.0
C4728 C 0.7698 0.21967 0.75527 0.0
C4729 C 0.78533 0.23211 0.77439 0.0
C4730 C 0.76434 0.19455 0.74984 0.0
C4731 C 0.77427 0.18196 0.76448 0.0
C4732 C 0.79073 0.19459 0.78317 0.0
C4733 C 0.79558 0.21967 0.78828 0.0
C4734 C 0.74657 0.18154 0.72975 0.0
C4735 C 0.80159 0.18199 0.79932 0.0
H4736 H 0.71205 0.12735 0.77288 0.0
H4737 H 0.75779 0.10181 0.72715 0.0
H4738 H 0.75174 0.18075 0.80591 0.0
H4739 H 0.73206 0.18492 0.78408 0.0
H4740 H 0.72345 0.16351 0.80233 0.0
H4741 H 0.79872 0.12567 0.73979 0.0
H4742 H 0.78848 0.13999 0.7184 0.0
H4743 H 0.80312 0.15794 0.74649 0.0
H4744 H 0.7612 0.22954 0.74529 0.0
H4745 H 0.80633 0.22954 0.80401 0.0
H4746 H 0.73135 0.17326 0.73701 0.0
H4747 H 0.75217 0.16685 0.7182 0.0
H4748 H 0.74212 0.19383 0.71878 0.0
H4749 H 0.79146 0.17961 0.81425 0.0
H4750 H 0.81837 0.19289 0.80695 0.0
H4751 H 0.80302 0.16397 0.78988 0.0
loop_
_geom_bond_atom_site_label_1
_geom_bond_atom_site_label_2
_geom_bond_distance
_geom_bond_site_symmetry_2
_ccdc_geom_bond_type
C0 O1 1.306 . S
C0 O3 1.160 . S
O1 C0 1.306 . S
O1 Cd2 2.228 . S
Cd2 O1 2.228 . S
Cd2 O6 2.273 . S
Cd2 O10 2.277 . S
O3 C0 1.160 . S
O3 Cd4 2.203 . S
Cd4 O3 2.203 . S
Cd4 O6 2.411 . S
Cd4 O7 2.333 . S
Cd4 O8 2.352 . S
Cd4 O12 2.277 . S
Cd4 O13 2.356 . S
C5 O10 1.209 . S
C5 O12 1.226 . S
O6 Cd2 2.273 . S
O6 Cd4 2.411 . S
O6 C9 1.320 . S
O7 Cd4 2.333 . S
O7 C9 1.214 . S
O8 Cd4 2.352 . S
O8 C11 1.258 . S
C9 O6 1.320 . S
C9 O7 1.214 . S
O10 Cd2 2.277 . S
O10 C5 1.209 . S
C11 O8 1.258 . S
C11 O13 1.282 . S
O12 Cd4 2.277 . S
O12 C5 1.226 . S
O13 Cd4 2.356 . S
O13 C11 1.282 . S
C14 O15 1.306 . S
C14 O17 1.160 . S
O15 C14 1.306 . S
O15 Cd16 2.228 1_655 S
Cd16 O15 2.228 1_455 S
Cd16 O20 2.273 . S
Cd16 O24 2.277 1_455 S
O17 C14 1.160 . S
O17 Cd18 2.203 1_655 S
Cd18 O17 2.203 1_455 S
Cd18 O20 2.411 . S
Cd18 O21 2.333 . S
Cd18 O22 2.352 . S
Cd18 O26 2.277 1_455 S
Cd18 O27 2.356 . S
C19 O24 1.209 . S
C19 O26 1.226 . S
O20 Cd16 2.273 . S
O20 Cd18 2.411 . S
O20 C23 1.320 . S
O21 Cd18 2.333 . S
O21 C23 1.214 . S
O22 Cd18 2.352 . S
O22 C25 1.258 . S
C23 O20 1.320 . S
C23 O21 1.214 . S
O24 Cd16 2.277 1_655 S
O24 C19 1.209 . S
C25 O22 1.258 . S
C25 O27 1.282 . S
O26 Cd18 2.277 1_655 S
O26 C19 1.226 . S
O27 Cd18 2.356 . S
O27 C25 1.282 . S
C28 O29 1.306 . S
C28 O31 1.160 . S
O29 C28 1.306 . S
O29 Cd30 2.228 . S
Cd30 O29 2.228 . S
Cd30 O34 2.273 . S
Cd30 O38 2.277 . S
O31 C28 1.160 . S
O31 Cd32 2.203 . S
Cd32 O31 2.203 . S
Cd32 O34 2.411 . S
Cd32 O35 2.333 . S
Cd32 O36 2.352 . S
Cd32 O40 2.277 . S
Cd32 O41 2.356 . S
C33 O38 1.209 . S
C33 O40 1.226 . S
O34 Cd30 2.273 . S
O34 Cd32 2.411 . S
O34 C37 1.320 . S
O35 Cd32 2.333 . S
O35 C37 1.214 . S
O36 Cd32 2.352 . S
O36 C39 1.258 . S
C37 O34 1.320 . S
C37 O35 1.214 . S
O38 Cd30 2.277 . S
O38 C33 1.209 . S
C39 O36 1.258 . S
C39 O41 1.282 . S
O40 Cd32 2.277 . S
O40 C33 1.226 . S
O41 Cd32 2.356 . S
O41 C39 1.282 . S
C42 O43 1.306 . S
C42 O45 1.160 . S
O43 C42 1.306 . S
O43 Cd44 2.228 . S
Cd44 O43 2.228 . S
Cd44 O48 2.273 . S
Cd44 O52 2.277 . S
O45 C42 1.160 . S
O45 Cd46 2.203 . S
Cd46 O45 2.203 . S
Cd46 O48 2.411 . S
Cd46 O49 2.333 . S
Cd46 O50 2.352 . S
Cd46 O54 2.277 . S
Cd46 O55 2.356 . S
C47 O52 1.209 . S
C47 O54 1.226 . S
O48 Cd44 2.273 . S
O48 Cd46 2.411 . S
O48 C51 1.320 . S
O49 Cd46 2.333 . S
O49 C51 1.214 . S
O50 Cd46 2.352 . S
O50 C53 1.258 . S
C51 O48 1.320 . S
C51 O49 1.214 . S
O52 Cd44 2.277 . S
O52 C47 1.209 . S
C53 O50 1.258 . S
C53 O55 1.282 . S
O54 Cd46 2.277 . S
O54 C47 1.226 . S
O55 Cd46 2.356 . S
O55 C53 1.282 . S
C56 O57 1.306 . S
C56 O59 1.160 . S
O57 C56 1.306 . S
O57 Cd58 2.228 . S
Cd58 O57 2.228 . S
Cd58 O62 2.273 . S
Cd58 O66 2.277 . S
O59 C56 1.160 . S
O59 Cd60 2.203 . S
Cd60 O59 2.203 . S
Cd60 O62 2.411 . S
Cd60 O63 2.333 . S
Cd60 O64 2.352 . S
Cd60 O68 2.277 . S
Cd60 O69 2.356 . S
C61 O66 1.209 . S
C61 O68 1.226 . S
O62 Cd58 2.273 . S
O62 Cd60 2.411 . S
O62 C65 1.320 . S
O63 Cd60 2.333 . S
O63 C65 1.214 . S
O64 Cd60 2.352 . S
O64 C67 1.258 . S
C65 O62 1.320 . S
C65 O63 1.214 . S
O66 Cd58 2.277 . S
O66 C61 1.209 . S
C67 O64 1.258 . S
C67 O69 1.282 . S
O68 Cd60 2.277 . S
O68 C61 1.226 . S
O69 Cd60 2.356 . S
O69 C67 1.282 . S
C70 O71 1.306 . S
C70 O73 1.160 . S
O71 C70 1.306 . S
O71 Cd72 2.228 . S
Cd72 O71 2.228 . S
Cd72 O76 2.273 . S
Cd72 O80 2.277 . S
O73 C70 1.160 . S
O73 Cd74 2.203 . S
Cd74 O73 2.203 . S
Cd74 O76 2.411 . S
Cd74 O77 2.333 . S
Cd74 O78 2.352 . S
Cd74 O82 2.277 . S
Cd74 O83 2.356 . S
C75 O80 1.209 . S
C75 O82 1.226 . S
O76 Cd72 2.273 . S
O76 Cd74 2.411 . S
O76 C79 1.320 . S
O77 Cd74 2.333 . S
O77 C79 1.214 . S
O78 Cd74 2.352 . S
O78 C81 1.258 . S
C79 O76 1.320 . S
C79 O77 1.214 . S
O80 Cd72 2.277 . S
O80 C75 1.209 . S
C81 O78 1.258 . S
C81 O83 1.282 . S
O82 Cd74 2.277 . S
O82 C75 1.226 . S
O83 Cd74 2.356 . S
O83 C81 1.282 . S
C84 O85 1.306 . S
C84 O87 1.160 . S
O85 C84 1.306 . S
O85 Cd86 2.228 . S
Cd86 O85 2.228 . S
Cd86 O90 2.273 . S
Cd86 O94 2.277 . S
O87 C84 1.160 . S
O87 Cd88 2.203 . S
Cd88 O87 2.203 . S
Cd88 O90 2.411 . S
Cd88 O91 2.333 . S
Cd88 O92 2.352 . S
Cd88 O96 2.277 . S
Cd88 O97 2.356 . S
C89 O94 1.209 . S
C89 O96 1.226 . S
O90 Cd86 2.273 . S
O90 Cd88 2.411 . S
O90 C93 1.320 . S
O91 Cd88 2.333 . S
O91 C93 1.214 . S
O92 Cd88 2.352 . S
O92 C95 1.258 . S
C93 O90 1.320 . S
C93 O91 1.214 . S
O94 Cd86 2.277 . S
O94 C89 1.209 . S
C95 O92 1.258 . S
C95 O97 1.282 . S
O96 Cd88 2.277 . S
O96 C89 1.226 . S
O97 Cd88 2.356 . S
O97 C95 1.282 . S
C98 O99 1.306 . S
C98 O101 1.160 . S
O99 C98 1.306 . S
O99 Cd100 2.228 1_655 S
Cd100 O99 2.228 1_455 S
Cd100 O104 2.273 . S
Cd100 O108 2.277 . S
O101 C98 1.160 . S
O101 Cd102 2.203 1_655 S
Cd102 O101 2.203 1_455 S
Cd102 O104 2.411 . S
Cd102 O105 2.333 . S
Cd102 O106 2.352 . S
Cd102 O110 2.277 . S
Cd102 O111 2.356 . S
C103 O108 1.209 . S
C103 O110 1.226 . S
O104 Cd100 2.273 . S
O104 Cd102 2.411 . S
O104 C107 1.320 . S
O105 Cd102 2.333 . S
O105 C107 1.214 . S
O106 Cd102 2.352 . S
O106 C109 1.258 . S
C107 O104 1.320 . S
C107 O105 1.214 . S
O108 Cd100 2.277 . S
O108 C103 1.209 . S
C109 O106 1.258 . S
C109 O111 1.282 . S
O110 Cd102 2.277 . S
O110 C103 1.226 . S
O111 Cd102 2.356 . S
O111 C109 1.282 . S
C112 O113 1.306 . S
C112 O115 1.160 . S
O113 C112 1.306 . S
O113 Cd114 2.228 1_545 S
Cd114 O113 2.228 1_565 S
Cd114 O118 2.273 1_565 S
Cd114 O122 2.277 . S
O115 C112 1.160 . S
O115 Cd116 2.203 . S
Cd116 O115 2.203 . S
Cd116 O118 2.411 . S
Cd116 O119 2.333 . S
Cd116 O120 2.352 . S
Cd116 O124 2.277 1_545 S
Cd116 O125 2.356 . S
C117 O122 1.209 . S
C117 O124 1.226 . S
O118 Cd114 2.273 1_545 S
O118 Cd116 2.411 . S
O118 C121 1.320 . S
O119 Cd116 2.333 . S
O119 C121 1.214 . S
O120 Cd116 2.352 . S
O120 C123 1.258 . S
C121 O118 1.320 . S
C121 O119 1.214 . S
O122 Cd114 2.277 . S
O122 C117 1.209 . S
C123 O120 1.258 . S
C123 O125 1.282 . S
O124 Cd116 2.277 1_565 S
O124 C117 1.226 . S
O125 Cd116 2.356 . S
O125 C123 1.282 . S
C126 O127 1.306 . S
C126 O129 1.160 . S
O127 C126 1.306 . S
O127 Cd128 2.228 . S
Cd128 O127 2.228 . S
Cd128 O132 2.273 . S
Cd128 O136 2.277 . S
O129 C126 1.160 . S
O129 Cd130 2.203 . S
Cd130 O129 2.203 . S
Cd130 O132 2.411 . S
Cd130 O133 2.333 . S
Cd130 O134 2.352 . S
Cd130 O138 2.277 . S
Cd130 O139 2.356 . S
C131 O136 1.209 . S
C131 O138 1.226 . S
O132 Cd128 2.273 . S
O132 Cd130 2.411 . S
O132 C135 1.320 . S
O133 Cd130 2.333 . S
O133 C135 1.214 . S
O134 Cd130 2.352 . S
O134 C137 1.258 . S
C135 O132 1.320 . S
C135 O133 1.214 . S
O136 Cd128 2.277 . S
O136 C131 1.209 . S
C137 O134 1.258 . S
C137 O139 1.282 . S
O138 Cd130 2.277 . S
O138 C131 1.226 . S
O139 Cd130 2.356 . S
O139 C137 1.282 . S
C140 O141 1.306 . S
C140 O143 1.160 . S
O141 C140 1.306 . S
O141 Cd142 2.228 . S
Cd142 O141 2.228 . S
Cd142 O146 2.273 1_545 S
Cd142 O150 2.277 . S
O143 C140 1.160 . S
O143 Cd144 2.203 1_545 S
Cd144 O143 2.203 1_565 S
Cd144 O146 2.411 . S
Cd144 O147 2.333 . S
Cd144 O148 2.352 . S
Cd144 O152 2.277 1_565 S
Cd144 O153 2.356 . S
C145 O150 1.209 . S
C145 O152 1.226 . S
O146 Cd142 2.273 1_565 S
O146 Cd144 2.411 . S
O146 C149 1.320 . S
O147 Cd144 2.333 . S
O147 C149 1.214 . S
O148 Cd144 2.352 . S
O148 C151 1.258 . S
C149 O146 1.320 . S
C149 O147 1.214 . S
O150 Cd142 2.277 . S
O150 C145 1.209 . S
C151 O148 1.258 . S
C151 O153 1.282 . S
O152 Cd144 2.277 1_545 S
O152 C145 1.226 . S
O153 Cd144 2.356 . S
O153 C151 1.282 . S
C154 O155 1.306 . S
C154 O157 1.160 . S
O155 C154 1.306 . S
O155 Cd156 2.228 1_554 S
Cd156 O155 2.228 1_556 S
Cd156 O160 2.273 1_556 S
Cd156 O164 2.277 . S
O157 C154 1.160 . S
O157 Cd158 2.203 . S
Cd158 O157 2.203 . S
Cd158 O160 2.411 . S
Cd158 O161 2.333 . S
Cd158 O162 2.352 . S
Cd158 O166 2.277 1_554 S
Cd158 O167 2.356 . S
C159 O164 1.209 . S
C159 O166 1.226 . S
O160 Cd156 2.273 1_554 S
O160 Cd158 2.411 . S
O160 C163 1.320 . S
O161 Cd158 2.333 . S
O161 C163 1.214 . S
O162 Cd158 2.352 . S
O162 C165 1.258 . S
C163 O160 1.320 . S
C163 O161 1.214 . S
O164 Cd156 2.277 . S
O164 C159 1.209 . S
C165 O162 1.258 . S
C165 O167 1.282 . S
O166 Cd158 2.277 1_556 S
O166 C159 1.226 . S
O167 Cd158 2.356 . S
O167 C165 1.282 . S
C168 O169 1.306 . S
C168 O171 1.160 . S
O169 C168 1.306 . S
O169 Cd170 2.228 . S
Cd170 O169 2.228 . S
Cd170 O174 2.273 . S
Cd170 O178 2.277 1_554 S
O171 C168 1.160 . S
O171 Cd172 2.203 . S
Cd172 O171 2.203 . S
Cd172 O174 2.411 . S
Cd172 O175 2.333 . S
Cd172 O176 2.352 . S
Cd172 O180 2.277 . S
Cd172 O181 2.356 . S
C173 O178 1.209 . S
C173 O180 1.226 1_556 S
O174 Cd170 2.273 . S
O174 Cd172 2.411 . S
O174 C177 1.320 . S
O175 Cd172 2.333 . S
O175 C177 1.214 . S
O176 Cd172 2.352 . S
O176 C179 1.258 . S
C177 O174 1.320 . S
C177 O175 1.214 . S
O178 Cd170 2.277 1_556 S
O178 C173 1.209 . S
C179 O176 1.258 . S
C179 O181 1.282 . S
O180 Cd172 2.277 . S
O180 C173 1.226 1_554 S
O181 Cd172 2.356 . S
O181 C179 1.282 . S
C182 O183 1.306 . S
C182 O185 1.160 . S
O183 C182 1.306 . S
O183 Cd184 2.228 . S
Cd184 O183 2.228 . S
Cd184 O188 2.273 . S
Cd184 O192 2.277 . S
O185 C182 1.160 . S
O185 Cd186 2.203 . S
Cd186 O185 2.203 . S
Cd186 O188 2.411 . S
Cd186 O189 2.333 . S
Cd186 O190 2.352 1_554 S
Cd186 O194 2.277 . S
Cd186 O195 2.356 . S
C187 O192 1.209 . S
C187 O194 1.226 . S
O188 Cd184 2.273 . S
O188 Cd186 2.411 . S
O188 C191 1.320 . S
O189 Cd186 2.333 . S
O189 C191 1.214 . S
O190 Cd186 2.352 1_556 S
O190 C193 1.258 . S
C191 O188 1.320 . S
C191 O189 1.214 . S
O192 Cd184 2.277 . S
O192 C187 1.209 . S
C193 O190 1.258 . S
C193 O195 1.282 1_556 S
O194 Cd186 2.277 . S
O194 C187 1.226 . S
O195 Cd186 2.356 . S
O195 C193 1.282 1_554 S
C196 O197 1.306 . S
C196 O199 1.160 . S
O197 C196 1.306 . S
O197 Cd198 2.228 . S
Cd198 O197 2.228 . S
Cd198 O202 2.273 . S
Cd198 O206 2.277 . S
O199 C196 1.160 . S
O199 Cd200 2.203 . S
Cd200 O199 2.203 . S
Cd200 O202 2.411 . S
Cd200 O203 2.333 . S
Cd200 O204 2.352 . S
Cd200 O208 2.277 . S
Cd200 O209 2.356 . S
C201 O206 1.209 . S
C201 O208 1.226 . S
O202 Cd198 2.273 . S
O202 Cd200 2.411 . S
O202 C205 1.320 . S
O203 Cd200 2.333 . S
O203 C205 1.214 . S
O204 Cd200 2.352 . S
O204 C207 1.258 . S
C205 O202 1.320 . S
C205 O203 1.214 . S
O206 Cd198 2.277 . S
O206 C201 1.209 . S
C207 O204 1.258 . S
C207 O209 1.282 . S
O208 Cd200 2.277 . S
O208 C201 1.226 . S
O209 Cd200 2.356 . S
O209 C207 1.282 . S
C210 O211 1.306 . S
C210 O213 1.160 . S
O211 C210 1.306 . S
O211 Cd212 2.228 . S
Cd212 O211 2.228 . S
Cd212 O216 2.273 . S
Cd212 O220 2.277 . S
O213 C210 1.160 . S
O213 Cd214 2.203 . S
Cd214 O213 2.203 . S
Cd214 O216 2.411 . S
Cd214 O217 2.333 . S
Cd214 O218 2.352 . S
Cd214 O222 2.277 . S
Cd214 O223 2.356 . S
C215 O220 1.209 . S
C215 O222 1.226 . S
O216 Cd212 2.273 . S
O216 Cd214 2.411 . S
O216 C219 1.320 . S
O217 Cd214 2.333 . S
O217 C219 1.214 . S
O218 Cd214 2.352 . S
O218 C221 1.258 . S
C219 O216 1.320 . S
C219 O217 1.214 . S
O220 Cd212 2.277 . S
O220 C215 1.209 . S
C221 O218 1.258 . S
C221 O223 1.282 . S
O222 Cd214 2.277 . S
O222 C215 1.226 . S
O223 Cd214 2.356 . S
O223 C221 1.282 . S
C224 O225 1.306 . S
C224 O227 1.160 . S
O225 C224 1.306 . S
O225 Cd226 2.228 . S
Cd226 O225 2.228 . S
Cd226 O230 2.273 . S
Cd226 O234 2.277 . S
O227 C224 1.160 . S
O227 Cd228 2.203 . S
Cd228 O227 2.203 . S
Cd228 O230 2.411 . S
Cd228 O231 2.333 . S
Cd228 O232 2.352 . S
Cd228 O236 2.277 . S
Cd228 O237 2.356 . S
C229 O234 1.209 . S
C229 O236 1.226 . S
O230 Cd226 2.273 . S
O230 Cd228 2.411 . S
O230 C233 1.320 . S
O231 Cd228 2.333 . S
O231 C233 1.214 . S
O232 Cd228 2.352 . S
O232 C235 1.258 . S
C233 O230 1.320 . S
C233 O231 1.214 . S
O234 Cd226 2.277 . S
O234 C229 1.209 . S
C235 O232 1.258 . S
C235 O237 1.282 . S
O236 Cd228 2.277 . S
O236 C229 1.226 . S
O237 Cd228 2.356 . S
O237 C235 1.282 . S
C238 O239 1.306 . S
C238 O241 1.160 . S
O239 C238 1.306 . S
O239 Cd240 2.228 . S
Cd240 O239 2.228 . S
Cd240 O244 2.273 . S
Cd240 O248 2.277 . S
O241 C238 1.160 . S
O241 Cd242 2.203 . S
Cd242 O241 2.203 . S
Cd242 O244 2.411 . S
Cd242 O245 2.333 . S
Cd242 O246 2.352 . S
Cd242 O250 2.277 . S
Cd242 O251 2.356 . S
C243 O248 1.209 . S
C243 O250 1.226 . S
O244 Cd240 2.273 . S
O244 Cd242 2.411 . S
O244 C247 1.320 . S
O245 Cd242 2.333 . S
O245 C247 1.214 . S
O246 Cd242 2.352 . S
O246 C249 1.258 . S
C247 O244 1.320 . S
C247 O245 1.214 . S
O248 Cd240 2.277 . S
O248 C243 1.209 . S
C249 O246 1.258 . S
C249 O251 1.282 . S
O250 Cd242 2.277 . S
O250 C243 1.226 . S
O251 Cd242 2.356 . S
O251 C249 1.282 . S
C252 O253 1.306 . S
C252 O255 1.160 . S
O253 C252 1.306 . S
O253 Cd254 2.228 . S
Cd254 O253 2.228 . S
Cd254 O258 2.273 . S
Cd254 O262 2.277 . S
O255 C252 1.160 . S
O255 Cd256 2.203 . S
Cd256 O255 2.203 . S
Cd256 O258 2.411 . S
Cd256 O259 2.333 . S
Cd256 O260 2.352 . S
Cd256 O264 2.277 . S
Cd256 O265 2.356 . S
C257 O262 1.209 . S
C257 O264 1.226 . S
O258 Cd254 2.273 . S
O258 Cd256 2.411 . S
O258 C261 1.320 . S
O259 Cd256 2.333 . S
O259 C261 1.214 . S
O260 Cd256 2.352 . S
O260 C263 1.258 . S
C261 O258 1.320 . S
C261 O259 1.214 . S
O262 Cd254 2.277 . S
O262 C257 1.209 . S
C263 O260 1.258 . S
C263 O265 1.282 . S
O264 Cd256 2.277 . S
O264 C257 1.226 . S
O265 Cd256 2.356 . S
O265 C263 1.282 . S
C266 O267 1.306 . S
C266 O269 1.160 . S
O267 C266 1.306 . S
O267 Cd268 2.228 . S
Cd268 O267 2.228 . S
Cd268 O272 2.273 . S
Cd268 O276 2.277 . S
O269 C266 1.160 . S
O269 Cd270 2.203 . S
Cd270 O269 2.203 . S
Cd270 O272 2.411 . S
Cd270 O273 2.333 . S
Cd270 O274 2.352 . S
Cd270 O278 2.277 . S
Cd270 O279 2.356 . S
C271 O276 1.209 . S
C271 O278 1.226 . S
O272 Cd268 2.273 . S
O272 Cd270 2.411 . S
O272 C275 1.320 . S
O273 Cd270 2.333 . S
O273 C275 1.214 . S
O274 Cd270 2.352 . S
O274 C277 1.258 . S
C275 O272 1.320 . S
C275 O273 1.214 . S
O276 Cd268 2.277 . S
O276 C271 1.209 . S
C277 O274 1.258 . S
C277 O279 1.282 . S
O278 Cd270 2.277 . S
O278 C271 1.226 . S
O279 Cd270 2.356 . S
O279 C277 1.282 . S
C280 O281 1.306 . S
C280 O283 1.160 1_554 S
O281 C280 1.306 . S
O281 Cd282 2.228 . S
Cd282 O281 2.228 . S
Cd282 O286 2.273 1_554 S
Cd282 O290 2.277 . S
O283 C280 1.160 1_556 S
O283 Cd284 2.203 . S
Cd284 O283 2.203 . S
Cd284 O286 2.411 . S
Cd284 O287 2.333 . S
Cd284 O288 2.352 . S
Cd284 O292 2.277 1_556 S
Cd284 O293 2.356 . S
C285 O290 1.209 . S
C285 O292 1.226 . S
O286 Cd282 2.273 1_556 S
O286 Cd284 2.411 . S
O286 C289 1.320 . S
O287 Cd284 2.333 . S
O287 C289 1.214 . S
O288 Cd284 2.352 . S
O288 C291 1.258 . S
C289 O286 1.320 . S
C289 O287 1.214 . S
O290 Cd282 2.277 . S
O290 C285 1.209 . S
C291 O288 1.258 . S
C291 O293 1.282 . S
O292 Cd284 2.277 1_554 S
O292 C285 1.226 . S
O293 Cd284 2.356 . S
O293 C291 1.282 . S
C294 O295 1.306 . S
C294 O297 1.160 . S
O295 C294 1.306 . S
O295 Cd296 2.228 . S
Cd296 O295 2.228 . S
Cd296 O300 2.273 . S
Cd296 O304 2.277 . S
O297 C294 1.160 . S
O297 Cd298 2.203 . S
Cd298 O297 2.203 . S
Cd298 O300 2.411 . S
Cd298 O301 2.333 . S
Cd298 O302 2.352 . S
Cd298 O306 2.277 . S
Cd298 O307 2.356 . S
C299 O304 1.209 . S
C299 O306 1.226 . S
O300 Cd296 2.273 . S
O300 Cd298 2.411 . S
O300 C303 1.320 . S
O301 Cd298 2.333 . S
O301 C303 1.214 . S
O302 Cd298 2.352 . S
O302 C305 1.258 . S
C303 O300 1.320 . S
C303 O301 1.214 . S
O304 Cd296 2.277 . S
O304 C299 1.209 . S
C305 O302 1.258 . S
C305 O307 1.282 . S
O306 Cd298 2.277 . S
O306 C299 1.226 . S
O307 Cd298 2.356 . S
O307 C305 1.282 . S
C308 O309 1.306 . S
C308 O311 1.160 . S
O309 C308 1.306 . S
O309 Cd310 2.228 . S
Cd310 O309 2.228 . S
Cd310 O314 2.273 . S
Cd310 O318 2.277 . S
O311 C308 1.160 . S
O311 Cd312 2.203 . S
Cd312 O311 2.203 . S
Cd312 O314 2.411 . S
Cd312 O315 2.333 . S
Cd312 O316 2.352 . S
Cd312 O320 2.277 . S
Cd312 O321 2.356 . S
C313 O318 1.209 . S
C313 O320 1.226 . S
O314 Cd310 2.273 . S
O314 Cd312 2.411 . S
O314 C317 1.320 . S
O315 Cd312 2.333 . S
O315 C317 1.214 . S
O316 Cd312 2.352 . S
O316 C319 1.258 . S
C317 O314 1.320 . S
C317 O315 1.214 . S
O318 Cd310 2.277 . S
O318 C313 1.209 . S
C319 O316 1.258 . S
C319 O321 1.282 . S
O320 Cd312 2.277 . S
O320 C313 1.226 . S
O321 Cd312 2.356 . S
O321 C319 1.282 . S
C322 O323 1.306 . S
C322 O325 1.160 . S
O323 C322 1.306 . S
O323 Cd324 2.228 . S
Cd324 O323 2.228 . S
Cd324 O328 2.273 . S
Cd324 O332 2.277 . S
O325 C322 1.160 . S
O325 Cd326 2.203 . S
Cd326 O325 2.203 . S
Cd326 O328 2.411 . S
Cd326 O329 2.333 . S
Cd326 O330 2.352 . S
Cd326 O334 2.277 . S
Cd326 O335 2.356 . S
C327 O332 1.209 . S
C327 O334 1.226 . S
O328 Cd324 2.273 . S
O328 Cd326 2.411 . S
O328 C331 1.320 . S
O329 Cd326 2.333 . S
O329 C331 1.214 . S
O330 Cd326 2.352 . S
O330 C333 1.258 . S
C331 O328 1.320 . S
C331 O329 1.214 . S
O332 Cd324 2.277 . S
O332 C327 1.209 . S
C333 O330 1.258 . S
C333 O335 1.282 . S
O334 Cd326 2.277 . S
O334 C327 1.226 . S
O335 Cd326 2.356 . S
O335 C333 1.282 . S
Tb336 N367 2.660 1_545 S
Tb336 N374 2.600 1_544 S
Tb336 O380 2.546 1_454 S
Tb336 O381 2.610 . S
Tb336 O383 2.320 . S
Tb336 O384 2.552 . S
Tb336 O385 2.413 1_455 S
Tb336 O387 2.362 . S
Tb336 O388 2.421 1_554 S
Tb336 C400 2.833 1_454 S
C337 C340 1.432 . S
C337 C341 1.414 . S
C337 N344 1.359 . S
C338 C340 1.417 . S
C338 C342 1.432 . S
C338 C350 1.410 . S
C339 C341 1.444 . S
C339 C342 1.317 . S
C339 H362 0.929 . S
C340 C337 1.432 . S
C340 C338 1.417 . S
C340 N348 1.360 . S
C341 C337 1.414 . S
C341 C339 1.444 . S
C341 C346 1.385 . S
C342 C338 1.432 . S
C342 C339 1.317 . S
C342 H354 0.930 . S
C343 C345 1.392 . S
C343 C346 1.370 . S
C343 H355 0.931 . S
N344 C337 1.359 . S
N344 C345 1.327 . S
N344 Tb347 2.600 . S
C345 C343 1.392 . S
C345 N344 1.327 . S
C345 H352 0.930 . S
C346 C341 1.385 . S
C346 C343 1.370 . S
C346 H365 0.930 . S
Tb347 N344 2.600 . S
Tb347 N348 2.660 . S
Tb347 O381 2.362 . S
Tb347 O382 2.421 . S
Tb347 O386 2.546 . S
Tb347 O387 2.610 . S
Tb347 O389 2.320 1_554 S
Tb347 O390 2.552 . S
Tb347 O391 2.413 . S
Tb347 C411 2.833 . S
N348 C340 1.360 . S
N348 Tb347 2.660 . S
N348 C349 1.305 1_554 S
C349 N348 1.305 1_556 S
C349 C351 1.407 . S
C349 H356 0.930 . S
C350 C338 1.410 . S
C350 C351 1.345 1_554 S
C350 H358 0.930 1_554 S
C351 C349 1.407 . S
C351 C350 1.345 1_556 S
C351 H353 0.930 . S
H352 C345 0.930 . S
H353 C351 0.930 . S
H354 C342 0.930 . S
H355 C343 0.931 . S
H356 C349 0.930 . S
H357 C371 0.930 . S
H358 C350 0.930 1_556 S
H359 C377 0.930 . S
H360 C368 0.930 . S
H361 C375 0.931 . S
H362 C339 0.929 . S
H363 C369 0.930 . S
H364 C402 0.930 1_554 S
H365 C346 0.930 . S
H366 C401 0.929 . S
N367 Tb336 2.660 1_565 S
N367 C368 1.305 . S
N367 C372 1.368 . S
C368 H360 0.930 . S
C368 N367 1.305 . S
C368 C371 1.407 . S
C369 H363 0.930 . S
C369 C370 1.410 . S
C369 C371 1.345 1_655 S
C370 C369 1.410 . S
C370 C372 1.408 1_655 S
C370 C402 1.432 1_554 S
C371 H357 0.930 . S
C371 C368 1.407 . S
C371 C369 1.345 1_455 S
C372 N367 1.368 . S
C372 C370 1.408 1_455 S
C372 C376 1.433 1_554 S
H373 C378 0.930 . S
N374 Tb336 2.600 1_566 S
N374 C376 1.365 . S
N374 C377 1.327 . S
C375 H361 0.931 . S
C375 C377 1.385 1_655 S
C375 C378 1.378 . S
C376 C372 1.433 1_556 S
C376 N374 1.365 . S
C376 C379 1.410 1_455 S
C377 H359 0.930 . S
C377 N374 1.327 . S
C377 C375 1.385 1_455 S
C378 H373 0.930 . S
C378 C375 1.378 . S
C378 C379 1.385 . S
C379 C376 1.410 1_655 S
C379 C378 1.385 . S
C379 C401 1.444 . S
O380 Tb336 2.546 1_656 S
O380 C400 1.251 . S
O381 Tb336 2.610 . S
O381 Tb347 2.362 . S
O381 C392 1.283 . S
O382 Tb347 2.421 . S
O382 C399 1.262 . S
O383 Tb336 2.320 . S
O383 C399 1.260 . S
O384 Tb336 2.552 . S
O384 C392 1.243 . S
O385 Tb336 2.413 1_655 S
O385 C400 1.256 1_554 S
O386 Tb347 2.546 . S
O386 C411 1.251 . S
O387 Tb336 2.362 . S
O387 Tb347 2.610 . S
O387 C403 1.283 1_545 S
O388 Tb336 2.421 1_556 S
O388 C410 1.262 . S
O389 Tb347 2.320 1_556 S
O389 C410 1.260 . S
O390 Tb347 2.552 . S
O390 C403 1.243 1_545 S
O391 Tb347 2.413 . S
O391 C411 1.256 . S
C392 O381 1.283 . S
C392 O384 1.243 . S
C393 C395 1.382 1_556 S
C393 C397 1.393 . S
C393 C400 1.500 . S
C394 C395 1.399 1_556 S
C394 C396 1.390 . S
C395 C393 1.382 1_554 S
C395 C394 1.399 1_554 S
C395 H412 0.930 . S
C396 C394 1.390 . S
C396 C398 1.392 . S
C396 H413 0.931 . S
C397 C393 1.393 . S
C397 C398 1.401 . S
C397 H414 0.930 . S
C398 C396 1.392 . S
C398 C397 1.401 . S
C398 H415 0.930 . S
C399 O382 1.262 . S
C399 O383 1.260 . S
C400 Tb336 2.833 1_656 S
C400 O380 1.251 . S
C400 O385 1.256 1_556 S
C400 C393 1.500 . S
C401 H366 0.929 . S
C401 C379 1.444 . S
C401 C402 1.317 . S
C402 H364 0.930 1_556 S
C402 C370 1.432 1_556 S
C402 C401 1.317 . S
C403 O387 1.283 1_565 S
C403 O390 1.243 1_565 S
C404 C405 1.382 . S
C404 C408 1.393 . S
C404 C411 1.500 . S
C405 C404 1.382 . S
C405 C406 1.400 . S
C405 H416 0.930 . S
C406 C405 1.400 . S
C406 C407 1.384 . S
C407 C406 1.384 . S
C407 C409 1.392 . S
C407 H417 0.931 . S
C408 C404 1.393 . S
C408 C409 1.401 . S
C408 H418 0.930 . S
C409 C407 1.392 . S
C409 C408 1.401 . S
C409 H419 0.930 . S
C410 O388 1.262 . S
C410 O389 1.260 . S
C411 Tb347 2.833 . S
C411 O386 1.251 . S
C411 O391 1.256 . S
C411 C404 1.500 . S
H412 C395 0.930 . S
H413 C396 0.931 . S
H414 C397 0.930 . S
H415 C398 0.930 . S
H416 C405 0.930 . S
H417 C407 0.931 . S
H418 C408 0.930 . S
H419 C409 0.930 . S
Tb420 N451 2.660 . S
Tb420 N458 2.600 . S
Tb420 O464 2.546 . S
Tb420 O465 2.610 . S
Tb420 O467 2.320 . S
Tb420 O468 2.552 . S
Tb420 O469 2.413 . S
Tb420 O471 2.362 . S
Tb420 O472 2.421 . S
Tb420 C484 2.833 . S
C421 C424 1.432 . S
C421 C425 1.414 . S
C421 N428 1.359 . S
C422 C424 1.417 . S
C422 C426 1.432 . S
C422 C434 1.410 . S
C423 C425 1.444 . S
C423 C426 1.317 . S
C423 H446 0.929 . S
C424 C421 1.432 . S
C424 C422 1.417 . S
C424 N432 1.360 . S
C425 C421 1.414 . S
C425 C423 1.444 . S
C425 C430 1.385 . S
C426 C422 1.432 . S
C426 C423 1.317 . S
C426 H438 0.930 . S
C427 C429 1.392 . S
C427 C430 1.370 . S
C427 H439 0.931 . S
N428 C421 1.359 . S
N428 C429 1.327 . S
N428 Tb431 2.600 . S
C429 C427 1.392 . S
C429 N428 1.327 . S
C429 H436 0.930 . S
C430 C425 1.385 . S
C430 C427 1.370 . S
C430 H449 0.930 . S
Tb431 N428 2.600 . S
Tb431 N432 2.660 . S
Tb431 O465 2.362 . S
Tb431 O466 2.421 . S
Tb431 O470 2.546 . S
Tb431 O471 2.610 . S
Tb431 O473 2.320 . S
Tb431 O474 2.552 . S
Tb431 O475 2.413 . S
Tb431 C495 2.833 . S
N432 C424 1.360 . S
N432 Tb431 2.660 . S
N432 C433 1.305 . S
C433 N432 1.305 . S
C433 C435 1.407 . S
C433 H440 0.930 . S
C434 C422 1.410 . S
C434 C435 1.345 . S
C434 H442 0.930 . S
C435 C433 1.407 . S
C435 C434 1.345 . S
C435 H437 0.930 . S
H436 C429 0.930 . S
H437 C435 0.930 . S
H438 C426 0.930 . S
H439 C427 0.931 . S
H440 C433 0.930 . S
H441 C455 0.930 . S
H442 C434 0.930 . S
H443 C461 0.930 . S
H444 C452 0.930 . S
H445 C459 0.931 . S
H446 C423 0.929 . S
H447 C453 0.930 . S
H448 C486 0.930 . S
H449 C430 0.930 . S
H450 C485 0.929 . S
N451 Tb420 2.660 . S
N451 C452 1.305 . S
N451 C456 1.360 . S
C452 H444 0.930 . S
C452 N451 1.305 . S
C452 C455 1.407 . S
C453 H447 0.930 . S
C453 C454 1.410 . S
C453 C455 1.345 . S
C454 C453 1.410 . S
C454 C456 1.417 . S
C454 C486 1.432 . S
C455 H441 0.930 . S
C455 C452 1.407 . S
C455 C453 1.345 . S
C456 N451 1.360 . S
C456 C454 1.417 . S
C456 C460 1.432 . S
H457 C462 0.930 . S
N458 Tb420 2.600 . S
N458 C460 1.359 . S
N458 C461 1.327 . S
C459 H445 0.931 . S
C459 C461 1.392 . S
C459 C462 1.370 . S
C460 C456 1.432 . S
C460 N458 1.359 . S
C460 C463 1.414 . S
C461 H443 0.930 . S
C461 N458 1.327 . S
C461 C459 1.392 . S
C462 H457 0.930 . S
C462 C459 1.370 . S
C462 C463 1.385 . S
C463 C460 1.414 . S
C463 C462 1.385 . S
C463 C485 1.444 . S
O464 Tb420 2.546 . S
O464 C484 1.251 . S
O465 Tb420 2.610 . S
O465 Tb431 2.362 . S
O465 C476 1.283 . S
O466 Tb431 2.421 . S
O466 C483 1.262 . S
O467 Tb420 2.320 . S
O467 C483 1.260 . S
O468 Tb420 2.552 . S
O468 C476 1.243 . S
O469 Tb420 2.413 . S
O469 C484 1.256 . S
O470 Tb431 2.546 . S
O470 C495 1.251 . S
O471 Tb420 2.362 . S
O471 Tb431 2.610 . S
O471 C487 1.283 . S
O472 Tb420 2.421 . S
O472 C494 1.262 . S
O473 Tb431 2.320 . S
O473 C494 1.260 . S
O474 Tb431 2.552 . S
O474 C487 1.243 . S
O475 Tb431 2.413 . S
O475 C495 1.256 . S
C476 O465 1.283 . S
C476 O468 1.243 . S
C477 C479 1.382 . S
C477 C481 1.393 . S
C477 C484 1.500 . S
C478 C479 1.400 . S
C478 C480 1.384 . S
C479 C477 1.382 . S
C479 C478 1.400 . S
C479 H496 0.930 . S
C480 C478 1.384 . S
C480 C482 1.392 . S
C480 H497 0.931 . S
C481 C477 1.393 . S
C481 C482 1.401 . S
C481 H498 0.930 . S
C482 C480 1.392 . S
C482 C481 1.401 . S
C482 H499 0.930 . S
C483 O466 1.262 . S
C483 O467 1.260 . S
C484 Tb420 2.833 . S
C484 O464 1.251 . S
C484 O469 1.256 . S
C484 C477 1.500 . S
C485 H450 0.929 . S
C485 C463 1.444 . S
C485 C486 1.317 . S
C486 H448 0.930 . S
C486 C454 1.432 . S
C486 C485 1.317 . S
C487 O471 1.283 . S
C487 O474 1.243 . S
C488 C489 1.382 . S
C488 C492 1.393 . S
C488 C495 1.500 . S
C489 C488 1.382 . S
C489 C490 1.400 . S
C489 H500 0.930 . S
C490 C489 1.400 . S
C490 C491 1.384 . S
C491 C490 1.384 . S
C491 C493 1.392 . S
C491 H501 0.931 . S
C492 C488 1.393 . S
C492 C493 1.401 . S
C492 H502 0.930 . S
C493 C491 1.392 . S
C493 C492 1.401 . S
C493 H503 0.930 . S
C494 O472 1.262 . S
C494 O473 1.260 . S
C495 Tb431 2.833 . S
C495 O470 1.251 . S
C495 O475 1.256 . S
C495 C488 1.500 . S
H496 C479 0.930 . S
H497 C480 0.931 . S
H498 C481 0.930 . S
H499 C482 0.930 . S
H500 C489 0.930 . S
H501 C491 0.931 . S
H502 C492 0.930 . S
H503 C493 0.930 . S
Tb504 N535 2.660 . S
Tb504 N542 2.600 . S
Tb504 O548 2.546 . S
Tb504 O549 2.610 . S
Tb504 O551 2.320 . S
Tb504 O552 2.552 1_545 S
Tb504 O553 2.413 . S
Tb504 O555 2.362 . S
Tb504 O556 2.421 . S
Tb504 C568 2.833 . S
C505 C508 1.432 . S
C505 C509 1.414 . S
C505 N512 1.359 1_565 S
C506 C508 1.417 . S
C506 C510 1.432 . S
C506 C518 1.410 . S
C507 C509 1.444 . S
C507 C510 1.317 . S
C507 H530 0.929 . S
C508 C505 1.432 . S
C508 C506 1.417 . S
C508 N516 1.360 . S
C509 C505 1.414 . S
C509 C507 1.444 . S
C509 C514 1.385 . S
C510 C506 1.432 . S
C510 C507 1.317 . S
C510 H522 0.930 . S
C511 C513 1.391 1_565 S
C511 C514 1.371 . S
C511 H523 0.930 1_565 S
N512 C505 1.359 1_545 S
N512 C513 1.327 . S
N512 Tb515 2.600 . S
C513 C511 1.391 1_545 S
C513 N512 1.327 . S
C513 H520 0.930 . S
C514 C509 1.385 . S
C514 C511 1.371 . S
C514 H533 0.930 . S
Tb515 N512 2.600 . S
Tb515 N516 2.660 1_545 S
Tb515 O549 2.362 . S
Tb515 O550 2.421 . S
Tb515 O554 2.546 . S
Tb515 O555 2.610 . S
Tb515 O557 2.320 . S
Tb515 O558 2.552 . S
Tb515 O559 2.413 . S
Tb515 C579 2.833 . S
N516 C508 1.360 . S
N516 Tb515 2.660 1_565 S
N516 C517 1.305 . S
C517 N516 1.305 . S
C517 C519 1.407 . S
C517 H524 0.930 . S
C518 C506 1.410 . S
C518 C519 1.345 . S
C518 H526 0.930 . S
C519 C517 1.407 . S
C519 C518 1.345 . S
C519 H521 0.930 . S
H520 C513 0.930 . S
H521 C519 0.930 . S
H522 C510 0.930 . S
H523 C511 0.930 1_545 S
H524 C517 0.930 . S
H525 C539 0.930 . S
H526 C518 0.930 . S
H527 C545 0.930 . S
H528 C536 0.930 . S
H529 C543 0.931 . S
H530 C507 0.929 . S
H531 C537 0.930 . S
H532 C570 0.930 . S
H533 C514 0.930 . S
H534 C569 0.929 . S
N535 Tb504 2.660 . S
N535 C536 1.305 . S
N535 C540 1.360 . S
C536 H528 0.930 . S
C536 N535 1.305 . S
C536 C539 1.407 . S
C537 H531 0.930 . S
C537 C538 1.410 . S
C537 C539 1.345 . S
C538 C537 1.410 . S
C538 C540 1.417 . S
C538 C570 1.432 . S
C539 H525 0.930 . S
C539 C536 1.407 . S
C539 C537 1.345 . S
C540 N535 1.360 . S
C540 C538 1.417 . S
C540 C544 1.432 . S
H541 C546 0.930 . S
N542 Tb504 2.600 . S
N542 C544 1.359 . S
N542 C545 1.327 . S
C543 H529 0.931 . S
C543 C545 1.392 . S
C543 C546 1.370 . S
C544 C540 1.432 . S
C544 N542 1.359 . S
C544 C547 1.414 . S
C545 H527 0.930 . S
C545 N542 1.327 . S
C545 C543 1.392 . S
C546 H541 0.930 . S
C546 C543 1.370 . S
C546 C547 1.385 . S
C547 C544 1.414 . S
C547 C546 1.385 . S
C547 C569 1.444 . S
O548 Tb504 2.546 . S
O548 C568 1.251 . S
O549 Tb504 2.610 . S
O549 Tb515 2.362 . S
O549 C560 1.283 1_545 S
O550 Tb515 2.421 . S
O550 C567 1.262 . S
O551 Tb504 2.320 . S
O551 C567 1.260 . S
O552 Tb504 2.552 1_565 S
O552 C560 1.243 . S
O553 Tb504 2.413 . S
O553 C568 1.256 . S
O554 Tb515 2.546 . S
O554 C579 1.251 . S
O555 Tb504 2.362 . S
O555 Tb515 2.610 . S
O555 C571 1.283 . S
O556 Tb504 2.421 . S
O556 C578 1.262 . S
O557 Tb515 2.320 . S
O557 C578 1.260 . S
O558 Tb515 2.552 . S
O558 C571 1.243 . S
O559 Tb515 2.413 . S
O559 C579 1.256 . S
C560 O549 1.283 1_565 S
C560 O552 1.243 . S
C561 C563 1.382 1_545 S
C561 C565 1.391 . S
C561 C568 1.500 . S
C562 C563 1.400 . S
C562 C564 1.384 . S
C563 C561 1.382 1_565 S
C563 C562 1.400 . S
C563 H580 0.930 . S
C564 C562 1.384 . S
C564 C566 1.392 . S
C564 H581 0.931 . S
C565 C561 1.391 . S
C565 C566 1.372 1_545 S
C565 H582 0.964 . S
C566 C564 1.392 . S
C566 C565 1.372 1_565 S
C566 H583 0.930 . S
C567 O550 1.262 . S
C567 O551 1.260 . S
C568 Tb504 2.833 . S
C568 O548 1.251 . S
C568 O553 1.256 . S
C568 C561 1.500 . S
C569 H534 0.929 . S
C569 C547 1.444 . S
C569 C570 1.317 . S
C570 H532 0.930 . S
C570 C538 1.432 . S
C570 C569 1.317 . S
C571 O555 1.283 . S
C571 O558 1.243 . S
C572 C573 1.382 . S
C572 C576 1.393 . S
C572 C579 1.500 . S
C573 C572 1.382 . S
C573 C574 1.400 . S
C573 H584 0.930 . S
C574 C573 1.400 . S
C574 C575 1.384 . S
C575 C574 1.384 . S
C575 C577 1.392 . S
C575 H585 0.931 . S
C576 C572 1.393 . S
C576 C577 1.401 . S
C576 H586 0.930 . S
C577 C575 1.392 . S
C577 C576 1.401 . S
C577 H587 0.930 . S
C578 O556 1.262 . S
C578 O557 1.260 . S
C579 Tb515 2.833 . S
C579 O554 1.251 . S
C579 O559 1.256 . S
C579 C572 1.500 . S
H580 C563 0.930 . S
H581 C564 0.931 . S
H582 C565 0.964 . S
H583 C566 0.930 . S
H584 C573 0.930 . S
H585 C575 0.931 . S
H586 C576 0.930 . S
H587 C577 0.930 . S
Tb588 N619 2.660 . S
Tb588 N626 2.600 . S
Tb588 O632 2.546 . S
Tb588 O633 2.610 . S
Tb588 O635 2.320 . S
Tb588 O636 2.552 . S
Tb588 O637 2.413 . S
Tb588 O639 2.362 . S
Tb588 O640 2.421 . S
Tb588 C652 2.833 . S
C589 C592 1.432 . S
C589 C593 1.414 . S
C589 N596 1.359 . S
C590 C592 1.417 . S
C590 C594 1.432 . S
C590 C602 1.410 . S
C591 C593 1.444 . S
C591 C594 1.317 . S
C591 H614 0.929 . S
C592 C589 1.432 . S
C592 C590 1.417 . S
C592 N600 1.360 . S
C593 C589 1.414 . S
C593 C591 1.444 . S
C593 C598 1.385 . S
C594 C590 1.432 . S
C594 C591 1.317 . S
C594 H606 0.930 . S
C595 C597 1.392 . S
C595 C598 1.370 . S
C595 H607 0.931 . S
N596 C589 1.359 . S
N596 C597 1.327 . S
N596 Tb599 2.600 . S
C597 C595 1.392 . S
C597 N596 1.327 . S
C597 H604 0.930 . S
C598 C593 1.385 . S
C598 C595 1.370 . S
C598 H617 0.930 . S
Tb599 N596 2.600 . S
Tb599 N600 2.660 . S
Tb599 O633 2.362 . S
Tb599 O634 2.421 . S
Tb599 O638 2.546 . S
Tb599 O639 2.610 . S
Tb599 O641 2.320 . S
Tb599 O642 2.552 . S
Tb599 O643 2.413 . S
Tb599 C663 2.833 . S
N600 C592 1.360 . S
N600 Tb599 2.660 . S
N600 C601 1.305 . S
C601 N600 1.305 . S
C601 C603 1.407 . S
C601 H608 0.930 . S
C602 C590 1.410 . S
C602 C603 1.345 . S
C602 H610 0.930 . S
C603 C601 1.407 . S
C603 C602 1.345 . S
C603 H605 0.930 . S
H604 C597 0.930 . S
H605 C603 0.930 . S
H606 C594 0.930 . S
H607 C595 0.931 . S
H608 C601 0.930 . S
H609 C623 0.930 . S
H610 C602 0.930 . S
H611 C629 0.930 . S
H612 C620 0.930 . S
H613 C627 0.931 . S
H614 C591 0.929 . S
H615 C621 0.930 . S
H616 C654 0.930 . S
H617 C598 0.930 . S
H618 C653 0.929 . S
N619 Tb588 2.660 . S
N619 C620 1.305 . S
N619 C624 1.360 . S
C620 H612 0.930 . S
C620 N619 1.305 . S
C620 C623 1.407 . S
C621 H615 0.930 . S
C621 C622 1.410 . S
C621 C623 1.345 . S
C622 C621 1.410 . S
C622 C624 1.417 . S
C622 C654 1.432 . S
C623 H609 0.930 . S
C623 C620 1.407 . S
C623 C621 1.345 . S
C624 N619 1.360 . S
C624 C622 1.417 . S
C624 C628 1.432 . S
H625 C630 0.930 . S
N626 Tb588 2.600 . S
N626 C628 1.359 . S
N626 C629 1.327 . S
C627 H613 0.931 . S
C627 C629 1.392 . S
C627 C630 1.370 . S
C628 C624 1.432 . S
C628 N626 1.359 . S
C628 C631 1.414 . S
C629 H611 0.930 . S
C629 N626 1.327 . S
C629 C627 1.392 . S
C630 H625 0.930 . S
C630 C627 1.370 . S
C630 C631 1.385 . S
C631 C628 1.414 . S
C631 C630 1.385 . S
C631 C653 1.444 . S
O632 Tb588 2.546 . S
O632 C652 1.251 . S
O633 Tb588 2.610 . S
O633 Tb599 2.362 . S
O633 C644 1.283 . S
O634 Tb599 2.421 . S
O634 C651 1.262 . S
O635 Tb588 2.320 . S
O635 C651 1.260 . S
O636 Tb588 2.552 . S
O636 C644 1.243 . S
O637 Tb588 2.413 . S
O637 C652 1.256 . S
O638 Tb599 2.546 . S
O638 C663 1.251 . S
O639 Tb588 2.362 . S
O639 Tb599 2.610 . S
O639 C655 1.283 . S
O640 Tb588 2.421 . S
O640 C662 1.262 . S
O641 Tb599 2.320 . S
O641 C662 1.260 . S
O642 Tb599 2.552 . S
O642 C655 1.243 . S
O643 Tb599 2.413 . S
O643 C663 1.256 . S
C644 O633 1.283 . S
C644 O636 1.243 . S
C645 C647 1.382 . S
C645 C649 1.393 . S
C645 C652 1.500 . S
C646 C647 1.400 . S
C646 C648 1.384 . S
C647 C645 1.382 . S
C647 C646 1.400 . S
C647 H664 0.930 . S
C648 C646 1.384 . S
C648 C650 1.392 . S
C648 H665 0.931 . S
C649 C645 1.393 . S
C649 C650 1.401 . S
C649 H666 0.930 . S
C650 C648 1.392 . S
C650 C649 1.401 . S
C650 H667 0.930 . S
C651 O634 1.262 . S
C651 O635 1.260 . S
C652 Tb588 2.833 . S
C652 O632 1.251 . S
C652 O637 1.256 . S
C652 C645 1.500 . S
C653 H618 0.929 . S
C653 C631 1.444 . S
C653 C654 1.317 . S
C654 H616 0.930 . S
C654 C622 1.432 . S
C654 C653 1.317 . S
C655 O639 1.283 . S
C655 O642 1.243 . S
C656 C657 1.382 . S
C656 C660 1.393 . S
C656 C663 1.500 . S
C657 C656 1.382 . S
C657 C658 1.400 . S
C657 H668 0.930 . S
C658 C657 1.400 . S
C658 C659 1.384 . S
C659 C658 1.384 . S
C659 C661 1.392 . S
C659 H669 0.931 . S
C660 C656 1.393 . S
C660 C661 1.401 . S
C660 H670 0.930 . S
C661 C659 1.392 . S
C661 C660 1.401 . S
C661 H671 0.930 . S
C662 O640 1.262 . S
C662 O641 1.260 . S
C663 Tb599 2.833 . S
C663 O638 1.251 . S
C663 O643 1.256 . S
C663 C656 1.500 . S
H664 C647 0.930 . S
H665 C648 0.931 . S
H666 C649 0.930 . S
H667 C650 0.930 . S
H668 C657 0.930 . S
H669 C659 0.931 . S
H670 C660 0.930 . S
H671 C661 0.930 . S
Tb672 N703 2.660 . S
Tb672 N710 2.600 . S
Tb672 O716 2.546 . S
Tb672 O717 2.610 . S
Tb672 O719 2.320 . S
Tb672 O720 2.552 . S
Tb672 O721 2.413 . S
Tb672 O723 2.362 . S
Tb672 O724 2.421 . S
Tb672 C736 2.833 . S
C673 C676 1.432 . S
C673 C677 1.414 . S
C673 N680 1.359 . S
C674 C676 1.417 . S
C674 C678 1.432 . S
C674 C686 1.410 . S
C675 C677 1.444 . S
C675 C678 1.317 . S
C675 H698 0.929 . S
C676 C673 1.432 . S
C676 C674 1.417 . S
C676 N684 1.360 . S
C677 C673 1.414 . S
C677 C675 1.444 . S
C677 C682 1.385 . S
C678 C674 1.432 . S
C678 C675 1.317 . S
C678 H690 0.930 . S
C679 C681 1.392 . S
C679 C682 1.370 . S
C679 H691 0.931 . S
N680 C673 1.359 . S
N680 C681 1.327 . S
N680 Tb683 2.599 . S
C681 C679 1.392 . S
C681 N680 1.327 . S
C681 H688 0.930 . S
C682 C677 1.385 . S
C682 C679 1.370 . S
C682 H701 0.930 . S
Tb683 N680 2.599 . S
Tb683 N684 2.659 . S
Tb683 O717 2.365 1_565 S
Tb683 O718 2.422 1_565 S
Tb683 O722 2.543 . S
Tb683 O723 2.612 1_565 S
Tb683 O725 2.325 . S
Tb683 O726 2.551 1_565 S
Tb683 O727 2.411 . S
Tb683 C747 2.830 . S
N684 C676 1.360 . S
N684 Tb683 2.659 . S
N684 C685 1.305 . S
C685 N684 1.305 . S
C685 C687 1.407 . S
C685 H692 0.930 . S
C686 C674 1.410 . S
C686 C687 1.345 . S
C686 H694 0.930 . S
C687 C685 1.407 . S
C687 C686 1.345 . S
C687 H689 0.930 1_455 S
H688 C681 0.930 . S
H689 C687 0.930 1_655 S
H690 C678 0.930 . S
H691 C679 0.931 . S
H692 C685 0.930 . S
H693 C707 0.930 . S
H694 C686 0.930 . S
H695 C713 0.930 . S
H696 C704 0.930 . S
H697 C711 0.931 1_655 S
H698 C675 0.929 . S
H699 C705 0.930 . S
H700 C738 0.930 . S
H701 C682 0.930 . S
H702 C737 0.929 . S
N703 Tb672 2.660 . S
N703 C704 1.305 . S
N703 C708 1.360 . S
C704 H696 0.930 . S
C704 N703 1.305 . S
C704 C707 1.407 . S
C705 H699 0.930 . S
C705 C706 1.410 . S
C705 C707 1.345 . S
C706 C705 1.410 . S
C706 C708 1.417 . S
C706 C738 1.432 . S
C707 H693 0.930 . S
C707 C704 1.407 . S
C707 C705 1.345 . S
C708 N703 1.360 . S
C708 C706 1.417 . S
C708 C712 1.432 . S
H709 C714 0.930 . S
N710 Tb672 2.600 . S
N710 C712 1.359 . S
N710 C713 1.327 . S
C711 H697 0.931 1_455 S
C711 C713 1.392 . S
C711 C714 1.370 . S
C712 C708 1.432 . S
C712 N710 1.359 . S
C712 C715 1.414 . S
C713 H695 0.930 . S
C713 N710 1.327 . S
C713 C711 1.392 . S
C714 H709 0.930 . S
C714 C711 1.370 . S
C714 C715 1.385 . S
C715 C712 1.414 . S
C715 C714 1.385 . S
C715 C737 1.444 . S
O716 Tb672 2.546 . S
O716 C736 1.251 . S
O717 Tb672 2.610 . S
O717 Tb683 2.365 1_545 S
O717 C728 1.283 . S
O718 Tb683 2.422 1_545 S
O718 C735 1.262 . S
O719 Tb672 2.320 . S
O719 C735 1.260 . S
O720 Tb672 2.552 . S
O720 C728 1.243 . S
O721 Tb672 2.413 . S
O721 C736 1.256 . S
O722 Tb683 2.543 . S
O722 C747 1.251 . S
O723 Tb672 2.362 . S
O723 Tb683 2.612 1_545 S
O723 C739 1.283 . S
O724 Tb672 2.421 . S
O724 C746 1.262 . S
O725 Tb683 2.325 . S
O725 C746 1.243 1_565 S
O726 Tb683 2.551 1_545 S
O726 C739 1.243 . S
O727 Tb683 2.411 . S
O727 C747 1.256 . S
C728 O717 1.283 . S
C728 O720 1.243 . S
C729 C731 1.382 . S
C729 C733 1.393 . S
C729 C736 1.500 . S
C730 C731 1.400 . S
C730 C732 1.384 . S
C731 C729 1.382 . S
C731 C730 1.400 . S
C731 H748 0.930 . S
C732 C730 1.384 . S
C732 C734 1.392 . S
C732 H749 0.931 . S
C733 C729 1.393 . S
C733 C734 1.401 . S
C733 H750 0.930 . S
C734 C732 1.392 . S
C734 C733 1.401 . S
C734 H751 0.930 . S
C735 O718 1.262 . S
C735 O719 1.260 . S
C736 Tb672 2.833 . S
C736 O716 1.251 . S
C736 O721 1.256 . S
C736 C729 1.500 . S
C737 H702 0.929 . S
C737 C715 1.444 . S
C737 C738 1.317 . S
C738 H700 0.930 . S
C738 C706 1.432 . S
C738 C737 1.317 . S
C739 O723 1.283 . S
C739 O726 1.243 . S
C740 C741 1.382 . S
C740 C744 1.393 . S
C740 C747 1.500 . S
C741 C740 1.382 . S
C741 C742 1.400 . S
C741 H752 0.930 . S
C742 C741 1.400 . S
C742 C743 1.384 . S
C743 C742 1.384 . S
C743 C745 1.392 . S
C743 H753 0.931 . S
C744 C740 1.393 . S
C744 C745 1.401 . S
C744 H754 0.930 . S
C745 C743 1.392 . S
C745 C744 1.401 . S
C745 H755 0.930 . S
C746 O724 1.262 . S
C746 O725 1.243 1_545 S
C747 Tb683 2.830 . S
C747 O722 1.251 . S
C747 O727 1.256 . S
C747 C740 1.500 . S
H748 C731 0.930 . S
H749 C732 0.931 . S
H750 C733 0.930 . S
H751 C734 0.930 . S
H752 C741 0.930 . S
H753 C743 0.931 . S
H754 C744 0.930 . S
H755 C745 0.930 . S
Tb756 N787 2.660 . S
Tb756 N794 2.600 . S
Tb756 O800 2.546 . S
Tb756 O801 2.610 . S
Tb756 O803 2.320 . S
Tb756 O804 2.552 . S
Tb756 O805 2.413 . S
Tb756 O807 2.362 . S
Tb756 O808 2.421 . S
Tb756 C820 2.833 . S
C757 C760 1.432 . S
C757 C761 1.414 . S
C757 N764 1.359 . S
C758 C760 1.417 . S
C758 C762 1.432 . S
C758 C770 1.410 . S
C759 C761 1.444 . S
C759 C762 1.317 . S
C759 H782 0.929 . S
C760 C757 1.432 . S
C760 C758 1.417 . S
C760 N768 1.360 . S
C761 C757 1.414 . S
C761 C759 1.444 . S
C761 C766 1.385 . S
C762 C758 1.432 . S
C762 C759 1.317 . S
C762 H774 0.930 . S
C763 C765 1.392 . S
C763 C766 1.370 . S
C763 H775 0.931 . S
N764 C757 1.359 . S
N764 C765 1.327 . S
N764 Tb767 2.600 . S
C765 C763 1.392 . S
C765 N764 1.327 . S
C765 H772 0.930 . S
C766 C761 1.385 . S
C766 C763 1.370 . S
C766 H785 0.930 . S
Tb767 N764 2.600 . S
Tb767 N768 2.660 . S
Tb767 O801 2.362 . S
Tb767 O802 2.421 . S
Tb767 O806 2.546 . S
Tb767 O807 2.610 . S
Tb767 O809 2.320 . S
Tb767 O810 2.552 . S
Tb767 O811 2.413 . S
Tb767 C831 2.833 . S
N768 C760 1.360 . S
N768 Tb767 2.660 . S
N768 C769 1.305 . S
C769 N768 1.305 . S
C769 C771 1.407 . S
C769 H776 0.930 . S
C770 C758 1.410 . S
C770 C771 1.345 . S
C770 H778 0.930 . S
C771 C769 1.407 . S
C771 C770 1.345 . S
C771 H773 0.930 . S
H772 C765 0.930 . S
H773 C771 0.930 . S
H774 C762 0.930 . S
H775 C763 0.931 . S
H776 C769 0.930 . S
H777 C791 0.930 . S
H778 C770 0.930 . S
H779 C797 0.930 . S
H780 C788 0.930 . S
H781 C795 0.931 . S
H782 C759 0.929 . S
H783 C789 0.930 . S
H784 C822 0.930 . S
H785 C766 0.930 . S
H786 C821 0.929 . S
N787 Tb756 2.660 . S
N787 C788 1.305 . S
N787 C792 1.360 . S
C788 H780 0.930 . S
C788 N787 1.305 . S
C788 C791 1.407 . S
C789 H783 0.930 . S
C789 C790 1.410 . S
C789 C791 1.345 . S
C790 C789 1.410 . S
C790 C792 1.417 . S
C790 C822 1.432 . S
C791 H777 0.930 . S
C791 C788 1.407 . S
C791 C789 1.345 . S
C792 N787 1.360 . S
C792 C790 1.417 . S
C792 C796 1.432 . S
H793 C798 0.930 . S
N794 Tb756 2.600 . S
N794 C796 1.359 . S
N794 C797 1.327 . S
C795 H781 0.931 . S
C795 C797 1.392 . S
C795 C798 1.370 . S
C796 C792 1.432 . S
C796 N794 1.359 . S
C796 C799 1.414 . S
C797 H779 0.930 . S
C797 N794 1.327 . S
C797 C795 1.392 . S
C798 H793 0.930 . S
C798 C795 1.370 . S
C798 C799 1.385 . S
C799 C796 1.414 . S
C799 C798 1.385 . S
C799 C821 1.444 . S
O800 Tb756 2.546 . S
O800 C820 1.251 . S
O801 Tb756 2.610 . S
O801 Tb767 2.362 . S
O801 C812 1.283 . S
O802 Tb767 2.421 . S
O802 C819 1.262 . S
O803 Tb756 2.320 . S
O803 C819 1.260 . S
O804 Tb756 2.552 . S
O804 C812 1.243 . S
O805 Tb756 2.413 . S
O805 C820 1.256 . S
O806 Tb767 2.546 . S
O806 C831 1.251 . S
O807 Tb756 2.362 . S
O807 Tb767 2.610 . S
O807 C823 1.283 . S
O808 Tb756 2.421 . S
O808 C830 1.262 . S
O809 Tb767 2.320 . S
O809 C830 1.260 . S
O810 Tb767 2.552 . S
O810 C823 1.243 . S
O811 Tb767 2.413 . S
O811 C831 1.256 . S
C812 O801 1.283 . S
C812 O804 1.243 . S
C813 C815 1.382 . S
C813 C817 1.393 . S
C813 C820 1.500 . S
C814 C815 1.400 . S
C814 C816 1.384 . S
C815 C813 1.382 . S
C815 C814 1.400 . S
C815 H832 0.930 . S
C816 C814 1.384 . S
C816 C818 1.392 . S
C816 H833 0.931 . S
C817 C813 1.393 . S
C817 C818 1.401 . S
C817 H834 0.930 . S
C818 C816 1.392 . S
C818 C817 1.401 . S
C818 H835 0.930 . S
C819 O802 1.262 . S
C819 O803 1.260 . S
C820 Tb756 2.833 . S
C820 O800 1.251 . S
C820 O805 1.256 . S
C820 C813 1.500 . S
C821 H786 0.929 . S
C821 C799 1.444 . S
C821 C822 1.317 . S
C822 H784 0.930 . S
C822 C790 1.432 . S
C822 C821 1.317 . S
C823 O807 1.283 . S
C823 O810 1.243 . S
C824 C825 1.382 . S
C824 C828 1.393 . S
C824 C831 1.500 . S
C825 C824 1.382 . S
C825 C826 1.400 . S
C825 H836 0.930 . S
C826 C825 1.400 . S
C826 C827 1.384 . S
C827 C826 1.384 . S
C827 C829 1.392 . S
C827 H837 0.931 . S
C828 C824 1.393 . S
C828 C829 1.401 . S
C828 H838 0.930 . S
C829 C827 1.392 . S
C829 C828 1.401 . S
C829 H839 0.930 . S
C830 O808 1.262 . S
C830 O809 1.260 . S
C831 Tb767 2.833 . S
C831 O806 1.251 . S
C831 O811 1.256 . S
C831 C824 1.500 . S
H832 C815 0.930 . S
H833 C816 0.931 . S
H834 C817 0.930 . S
H835 C818 0.930 . S
H836 C825 0.930 . S
H837 C827 0.931 . S
H838 C828 0.930 . S
H839 C829 0.930 . S
Tb840 N871 2.660 . S
Tb840 N878 2.600 . S
Tb840 O884 2.546 1_545 S
Tb840 O885 2.610 . S
Tb840 O887 2.320 . S
Tb840 O888 2.552 . S
Tb840 O889 2.413 . S
Tb840 O891 2.362 . S
Tb840 O892 2.421 1_545 S
Tb840 C904 2.833 . S
C841 C844 1.432 . S
C841 C845 1.414 . S
C841 N848 1.359 . S
C842 C844 1.417 . S
C842 C846 1.432 . S
C842 C854 1.410 1_545 S
C843 C845 1.444 . S
C843 C846 1.317 . S
C843 H866 0.929 . S
C844 C841 1.432 . S
C844 C842 1.417 . S
C844 N852 1.360 . S
C845 C841 1.414 . S
C845 C843 1.444 . S
C845 C850 1.385 . S
C846 C842 1.432 . S
C846 C843 1.317 . S
C846 H858 0.930 . S
C847 C849 1.392 . S
C847 C850 1.370 . S
C847 H859 0.931 . S
N848 C841 1.359 . S
N848 C849 1.327 . S
N848 Tb851 2.600 . S
C849 C847 1.392 . S
C849 N848 1.327 . S
C849 H856 0.930 . S
C850 C845 1.385 . S
C850 C847 1.370 . S
C850 H869 0.930 . S
Tb851 N848 2.600 . S
Tb851 N852 2.660 . S
Tb851 O885 2.362 1_556 S
Tb851 O886 2.421 1_556 S
Tb851 O890 2.546 . S
Tb851 O891 2.610 1_556 S
Tb851 O893 2.320 . S
Tb851 O894 2.552 . S
Tb851 O895 2.413 . S
Tb851 C915 2.833 . S
N852 C844 1.360 . S
N852 Tb851 2.660 . S
N852 C853 1.305 1_545 S
C853 N852 1.305 1_565 S
C853 C855 1.407 . S
C853 H860 0.930 . S
C854 C842 1.410 1_565 S
C854 C855 1.345 . S
C854 H862 0.930 . S
C855 C853 1.407 . S
C855 C854 1.345 . S
C855 H857 0.930 . S
H856 C849 0.930 . S
H857 C855 0.930 . S
H858 C846 0.930 . S
H859 C847 0.931 . S
H860 C853 0.930 . S
H861 C875 0.930 . S
H862 C854 0.930 . S
H863 C881 0.930 . S
H864 C872 0.930 . S
H865 C879 0.931 . S
H866 C843 0.929 . S
H867 C873 0.930 . S
H868 C906 0.930 . S
H869 C850 0.930 . S
H870 C905 0.929 . S
N871 Tb840 2.660 . S
N871 C872 1.305 . S
N871 C876 1.360 . S
C872 H864 0.930 . S
C872 N871 1.305 . S
C872 C875 1.407 . S
C873 H867 0.930 . S
C873 C874 1.410 . S
C873 C875 1.345 . S
C874 C873 1.410 . S
C874 C876 1.417 . S
C874 C906 1.432 . S
C875 H861 0.930 . S
C875 C872 1.407 . S
C875 C873 1.345 . S
C876 N871 1.360 . S
C876 C874 1.417 . S
C876 C880 1.432 . S
H877 C882 0.930 . S
N878 Tb840 2.600 . S
N878 C880 1.359 . S
N878 C881 1.327 1_545 S
C879 H865 0.931 . S
C879 C881 1.392 . S
C879 C882 1.370 . S
C880 C876 1.432 . S
C880 N878 1.359 . S
C880 C883 1.414 . S
C881 H863 0.930 . S
C881 N878 1.327 1_565 S
C881 C879 1.392 . S
C882 H877 0.930 . S
C882 C879 1.370 . S
C882 C883 1.385 1_565 S
C883 C880 1.414 . S
C883 C882 1.385 1_545 S
C883 C905 1.444 . S
O884 Tb840 2.546 1_565 S
O884 C904 1.251 1_565 S
O885 Tb840 2.610 . S
O885 Tb851 2.362 1_554 S
O885 C896 1.283 . S
O886 Tb851 2.421 1_554 S
O886 C903 1.262 . S
O887 Tb840 2.320 . S
O887 C903 1.260 . S
O888 Tb840 2.552 . S
O888 C896 1.243 . S
O889 Tb840 2.413 . S
O889 C904 1.256 . S
O890 Tb851 2.546 . S
O890 C915 1.251 . S
O891 Tb840 2.362 . S
O891 Tb851 2.610 1_554 S
O891 C907 1.283 . S
O892 Tb840 2.421 1_565 S
O892 C914 1.262 1_554 S
O893 Tb851 2.320 . S
O893 C914 1.260 1_545 S
O894 Tb851 2.552 . S
O894 C907 1.243 1_556 S
O895 Tb851 2.413 . S
O895 C915 1.256 . S
C896 O885 1.283 . S
C896 O888 1.243 . S
C897 C899 1.382 . S
C897 C901 1.393 1_545 S
C897 C904 1.500 . S
C898 C899 1.400 . S
C898 C900 1.384 1_545 S
C899 C897 1.382 . S
C899 C898 1.400 . S
C899 H916 0.930 . S
C900 C898 1.384 1_565 S
C900 C902 1.392 . S
C900 H917 0.931 . S
C901 C897 1.393 1_565 S
C901 C902 1.401 . S
C901 H918 0.930 . S
C902 C900 1.392 . S
C902 C901 1.401 . S
C902 H919 0.930 . S
C903 O886 1.262 . S
C903 O887 1.260 . S
C904 Tb840 2.833 . S
C904 O884 1.251 1_545 S
C904 O889 1.256 . S
C904 C897 1.500 . S
C905 H870 0.929 . S
C905 C883 1.444 . S
C905 C906 1.317 . S
C906 H868 0.930 . S
C906 C874 1.432 . S
C906 C905 1.317 . S
C907 O891 1.283 . S
C907 O894 1.243 1_554 S
C908 C909 1.382 . S
C908 C912 1.393 . S
C908 C915 1.500 . S
C909 C908 1.382 . S
C909 C910 1.400 . S
C909 H920 0.930 . S
C910 C909 1.400 . S
C910 C911 1.384 . S
C911 C910 1.384 . S
C911 C913 1.392 . S
C911 H921 0.931 . S
C912 C908 1.393 . S
C912 C913 1.401 . S
C912 H922 0.930 . S
C913 C911 1.392 . S
C913 C912 1.401 . S
C913 H923 0.930 . S
C914 O892 1.262 1_556 S
C914 O893 1.260 1_565 S
C915 Tb851 2.833 . S
C915 O890 1.251 . S
C915 O895 1.256 . S
C915 C908 1.500 . S
H916 C899 0.930 . S
H917 C900 0.931 . S
H918 C901 0.930 . S
H919 C902 0.930 . S
H920 C909 0.930 . S
H921 C911 0.931 . S
H922 C912 0.930 . S
H923 C913 0.930 . S
Tb924 N955 2.660 . S
Tb924 N962 2.600 . S
Tb924 O968 2.546 . S
Tb924 O969 2.610 . S
Tb924 O971 2.320 . S
Tb924 O972 2.552 . S
Tb924 O973 2.413 . S
Tb924 O975 2.362 . S
Tb924 O976 2.421 . S
Tb924 C988 2.833 . S
C925 C928 1.432 . S
C925 C929 1.414 . S
C925 N932 1.359 . S
C926 C928 1.417 . S
C926 C930 1.432 . S
C926 C938 1.410 . S
C927 C929 1.444 . S
C927 C930 1.317 . S
C927 H950 0.929 . S
C928 C925 1.432 . S
C928 C926 1.417 . S
C928 N936 1.360 . S
C929 C925 1.414 . S
C929 C927 1.444 . S
C929 C934 1.385 . S
C930 C926 1.432 . S
C930 C927 1.317 . S
C930 H942 0.930 . S
C931 C933 1.392 . S
C931 C934 1.370 . S
C931 H943 0.931 . S
N932 C925 1.359 . S
N932 C933 1.327 . S
N932 Tb935 2.600 . S
C933 C931 1.392 . S
C933 N932 1.327 . S
C933 H940 0.930 . S
C934 C929 1.385 . S
C934 C931 1.370 . S
C934 H953 0.930 . S
Tb935 N932 2.600 . S
Tb935 N936 2.660 . S
Tb935 O969 2.362 . S
Tb935 O970 2.421 . S
Tb935 O974 2.546 . S
Tb935 O975 2.610 . S
Tb935 O977 2.320 . S
Tb935 O978 2.552 . S
Tb935 O979 2.413 . S
Tb935 C999 2.833 . S
N936 C928 1.360 . S
N936 Tb935 2.660 . S
N936 C937 1.305 . S
C937 N936 1.305 . S
C937 C939 1.407 . S
C937 H944 0.930 . S
C938 C926 1.410 . S
C938 C939 1.345 . S
C938 H946 0.930 . S
C939 C937 1.407 . S
C939 C938 1.345 . S
C939 H941 0.930 . S
H940 C933 0.930 . S
H941 C939 0.930 . S
H942 C930 0.930 . S
H943 C931 0.931 . S
H944 C937 0.930 . S
H945 C959 0.930 . S
H946 C938 0.930 . S
H947 C965 0.930 . S
H948 C956 0.930 . S
H949 C963 0.931 . S
H950 C927 0.929 . S
H951 C957 0.930 . S
H952 C990 0.930 . S
H953 C934 0.930 . S
H954 C989 0.929 . S
N955 Tb924 2.660 . S
N955 C956 1.305 . S
N955 C960 1.360 . S
C956 H948 0.930 . S
C956 N955 1.305 . S
C956 C959 1.407 . S
C957 H951 0.930 . S
C957 C958 1.410 . S
C957 C959 1.345 . S
C958 C957 1.410 . S
C958 C960 1.417 . S
C958 C990 1.432 . S
C959 H945 0.930 . S
C959 C956 1.407 . S
C959 C957 1.345 . S
C960 N955 1.360 . S
C960 C958 1.417 . S
C960 C964 1.432 . S
H961 C966 0.930 . S
N962 Tb924 2.600 . S
N962 C964 1.359 . S
N962 C965 1.327 . S
C963 H949 0.931 . S
C963 C965 1.392 . S
C963 C966 1.370 . S
C964 C960 1.432 . S
C964 N962 1.359 . S
C964 C967 1.414 . S
C965 H947 0.930 . S
C965 N962 1.327 . S
C965 C963 1.392 . S
C966 H961 0.930 . S
C966 C963 1.370 . S
C966 C967 1.385 . S
C967 C964 1.414 . S
C967 C966 1.385 . S
C967 C989 1.444 . S
O968 Tb924 2.546 . S
O968 C988 1.251 . S
O969 Tb924 2.610 . S
O969 Tb935 2.362 . S
O969 C980 1.283 . S
O970 Tb935 2.421 . S
O970 C987 1.262 . S
O971 Tb924 2.320 . S
O971 C987 1.260 . S
O972 Tb924 2.552 . S
O972 C980 1.243 . S
O973 Tb924 2.413 . S
O973 C988 1.256 . S
O974 Tb935 2.546 . S
O974 C999 1.251 . S
O975 Tb924 2.362 . S
O975 Tb935 2.610 . S
O975 C991 1.283 . S
O976 Tb924 2.421 . S
O976 C998 1.262 . S
O977 Tb935 2.320 . S
O977 C998 1.260 . S
O978 Tb935 2.552 . S
O978 C991 1.243 . S
O979 Tb935 2.413 . S
O979 C999 1.256 . S
C980 O969 1.283 . S
C980 O972 1.243 . S
C981 C983 1.382 . S
C981 C985 1.393 . S
C981 C988 1.500 . S
C982 C983 1.400 . S
C982 C984 1.384 . S
C983 C981 1.382 . S
C983 C982 1.400 . S
C983 H1000 0.930 . S
C984 C982 1.384 . S
C984 C986 1.392 . S
C984 H1001 0.931 . S
C985 C981 1.393 . S
C985 C986 1.401 . S
C985 H1002 0.930 . S
C986 C984 1.392 . S
C986 C985 1.401 . S
C986 H1003 0.930 . S
C987 O970 1.262 . S
C987 O971 1.260 . S
C988 Tb924 2.833 . S
C988 O968 1.251 . S
C988 O973 1.256 . S
C988 C981 1.500 . S
C989 H954 0.929 . S
C989 C967 1.444 . S
C989 C990 1.317 . S
C990 H952 0.930 . S
C990 C958 1.432 . S
C990 C989 1.317 . S
C991 O975 1.283 . S
C991 O978 1.243 . S
C992 C993 1.382 . S
C992 C996 1.393 . S
C992 C999 1.500 . S
C993 C992 1.382 . S
C993 C994 1.400 . S
C993 H1004 0.930 . S
C994 C993 1.400 . S
C994 C995 1.384 . S
C995 C994 1.384 . S
C995 C997 1.392 . S
C995 H1005 0.931 . S
C996 C992 1.393 . S
C996 C997 1.401 . S
C996 H1006 0.930 . S
C997 C995 1.392 . S
C997 C996 1.401 . S
C997 H1007 0.930 . S
C998 O976 1.262 . S
C998 O977 1.260 . S
C999 Tb935 2.833 . S
C999 O974 1.251 . S
C999 O979 1.256 . S
C999 C992 1.500 . S
H1000 C983 0.930 . S
H1001 C984 0.931 . S
H1002 C985 0.930 . S
H1003 C986 0.930 . S
H1004 C993 0.930 . S
H1005 C995 0.931 . S
H1006 C996 0.930 . S
H1007 C997 0.930 . S
Tb1008 N1039 2.660 . S
Tb1008 N1046 2.600 . S
Tb1008 O1052 2.546 . S
Tb1008 O1053 2.610 1_554 S
Tb1008 O1055 2.320 . S
Tb1008 O1056 2.552 1_554 S
Tb1008 O1057 2.413 . S
Tb1008 O1059 2.362 . S
Tb1008 O1060 2.421 . S
Tb1008 C1072 2.833 . S
C1009 C1012 1.432 . S
C1009 C1013 1.414 . S
C1009 N1016 1.359 . S
C1010 C1012 1.417 . S
C1010 C1014 1.432 . S
C1010 C1022 1.410 . S
C1011 C1013 1.444 . S
C1011 C1014 1.317 . S
C1011 H1034 0.929 . S
C1012 C1009 1.432 . S
C1012 C1010 1.417 . S
C1012 N1020 1.360 . S
C1013 C1009 1.414 . S
C1013 C1011 1.444 . S
C1013 C1018 1.385 . S
C1014 C1010 1.432 . S
C1014 C1011 1.317 . S
C1014 H1026 0.930 . S
C1015 C1017 1.392 . S
C1015 C1018 1.370 . S
C1015 H1027 0.931 . S
N1016 C1009 1.359 . S
N1016 C1017 1.327 . S
N1016 Tb1019 2.600 1_556 S
C1017 C1015 1.392 . S
C1017 N1016 1.327 . S
C1017 H1024 0.930 . S
C1018 C1013 1.385 . S
C1018 C1015 1.370 . S
C1018 H1037 0.930 . S
Tb1019 N1016 2.600 1_554 S
Tb1019 N1020 2.660 1_554 S
Tb1019 O1053 2.362 1_554 S
Tb1019 O1054 2.421 . S
Tb1019 O1058 2.546 . S
Tb1019 O1059 2.610 . S
Tb1019 O1061 2.320 . S
Tb1019 O1062 2.552 . S
Tb1019 O1063 2.413 . S
Tb1019 C1083 2.833 . S
N1020 C1012 1.360 . S
N1020 Tb1019 2.660 1_556 S
N1020 C1021 1.305 . S
C1021 N1020 1.305 . S
C1021 C1023 1.407 . S
C1021 H1028 0.930 . S
C1022 C1010 1.410 . S
C1022 C1023 1.345 . S
C1022 H1030 0.930 . S
C1023 C1021 1.407 . S
C1023 C1022 1.345 . S
C1023 H1025 0.930 . S
H1024 C1017 0.930 . S
H1025 C1023 0.930 . S
H1026 C1014 0.930 . S
H1027 C1015 0.931 . S
H1028 C1021 0.930 . S
H1029 C1043 0.930 . S
H1030 C1022 0.930 . S
H1031 C1049 0.930 . S
H1032 C1040 0.930 . S
H1033 C1047 0.931 . S
H1034 C1011 0.929 . S
H1035 C1041 0.930 . S
H1036 C1074 0.930 . S
H1037 C1018 0.930 . S
H1038 C1073 0.929 . S
N1039 Tb1008 2.660 . S
N1039 C1040 1.305 . S
N1039 C1044 1.360 . S
C1040 H1032 0.930 . S
C1040 N1039 1.305 . S
C1040 C1043 1.407 . S
C1041 H1035 0.930 . S
C1041 C1042 1.410 . S
C1041 C1043 1.345 . S
C1042 C1041 1.410 . S
C1042 C1044 1.417 . S
C1042 C1074 1.432 . S
C1043 H1029 0.930 . S
C1043 C1040 1.407 . S
C1043 C1041 1.345 . S
C1044 N1039 1.360 . S
C1044 C1042 1.417 . S
C1044 C1048 1.432 . S
H1045 C1050 0.930 . S
N1046 Tb1008 2.600 . S
N1046 C1048 1.359 . S
N1046 C1049 1.327 . S
C1047 H1033 0.931 . S
C1047 C1049 1.392 . S
C1047 C1050 1.370 . S
C1048 C1044 1.432 . S
C1048 N1046 1.359 . S
C1048 C1051 1.414 . S
C1049 H1031 0.930 . S
C1049 N1046 1.327 . S
C1049 C1047 1.392 . S
C1050 H1045 0.930 . S
C1050 C1047 1.370 . S
C1050 C1051 1.385 . S
C1051 C1048 1.414 . S
C1051 C1050 1.385 . S
C1051 C1073 1.444 . S
O1052 Tb1008 2.546 . S
O1052 C1072 1.251 . S
O1053 Tb1008 2.610 1_556 S
O1053 Tb1019 2.362 1_556 S
O1053 C1064 1.283 . S
O1054 Tb1019 2.421 . S
O1054 C1071 1.262 . S
O1055 Tb1008 2.320 . S
O1055 C1071 1.260 . S
O1056 Tb1008 2.552 1_556 S
O1056 C1064 1.243 . S
O1057 Tb1008 2.413 . S
O1057 C1072 1.256 . S
O1058 Tb1019 2.546 . S
O1058 C1083 1.251 . S
O1059 Tb1008 2.362 . S
O1059 Tb1019 2.610 . S
O1059 C1075 1.283 . S
O1060 Tb1008 2.421 . S
O1060 C1082 1.262 . S
O1061 Tb1019 2.320 . S
O1061 C1082 1.260 . S
O1062 Tb1019 2.552 . S
O1062 C1075 1.243 . S
O1063 Tb1019 2.413 . S
O1063 C1083 1.256 . S
C1064 O1053 1.283 . S
C1064 O1056 1.243 . S
C1065 C1067 1.382 . S
C1065 C1069 1.393 . S
C1065 C1072 1.500 . S
C1066 C1067 1.400 1_556 S
C1066 C1068 1.384 1_556 S
C1067 C1065 1.382 . S
C1067 C1066 1.400 1_554 S
C1067 H1084 0.930 1_554 S
C1068 C1066 1.384 1_554 S
C1068 C1070 1.392 . S
C1068 H1085 0.931 . S
C1069 C1065 1.393 . S
C1069 C1070 1.401 . S
C1069 H1086 0.930 . S
C1070 C1068 1.392 . S
C1070 C1069 1.401 . S
C1070 H1087 0.930 . S
C1071 O1054 1.262 . S
C1071 O1055 1.260 . S
C1072 Tb1008 2.833 . S
C1072 O1052 1.251 . S
C1072 O1057 1.256 . S
C1072 C1065 1.500 . S
C1073 H1038 0.929 . S
C1073 C1051 1.444 . S
C1073 C1074 1.317 . S
C1074 H1036 0.930 . S
C1074 C1042 1.432 . S
C1074 C1073 1.317 . S
C1075 O1059 1.283 . S
C1075 O1062 1.243 . S
C1076 C1077 1.382 . S
C1076 C1080 1.393 . S
C1076 C1083 1.500 . S
C1077 C1076 1.382 . S
C1077 C1078 1.400 . S
C1077 H1088 0.930 . S
C1078 C1077 1.400 . S
C1078 C1079 1.384 . S
C1079 C1078 1.384 . S
C1079 C1081 1.392 . S
C1079 H1089 0.931 . S
C1080 C1076 1.393 . S
C1080 C1081 1.401 . S
C1080 H1090 0.930 . S
C1081 C1079 1.392 . S
C1081 C1080 1.401 . S
C1081 H1091 0.930 . S
C1082 O1060 1.262 . S
C1082 O1061 1.260 . S
C1083 Tb1019 2.833 . S
C1083 O1058 1.251 . S
C1083 O1063 1.256 . S
C1083 C1076 1.500 . S
H1084 C1067 0.930 1_556 S
H1085 C1068 0.931 . S
H1086 C1069 0.930 . S
H1087 C1070 0.930 . S
H1088 C1077 0.930 . S
H1089 C1079 0.931 . S
H1090 C1080 0.930 . S
H1091 C1081 0.930 . S
Tb1092 N1123 2.660 . S
Tb1092 N1130 2.600 . S
Tb1092 O1136 2.546 . S
Tb1092 O1137 2.610 . S
Tb1092 O1139 2.320 . S
Tb1092 O1140 2.552 . S
Tb1092 O1141 2.413 . S
Tb1092 O1143 2.362 . S
Tb1092 O1144 2.421 . S
Tb1092 C1156 2.833 . S
C1093 C1096 1.432 . S
C1093 C1097 1.414 . S
C1093 N1100 1.359 . S
C1094 C1096 1.417 . S
C1094 C1098 1.432 . S
C1094 C1106 1.410 . S
C1095 C1097 1.444 . S
C1095 C1098 1.317 . S
C1095 H1118 0.929 . S
C1096 C1093 1.432 . S
C1096 C1094 1.417 . S
C1096 N1104 1.360 . S
C1097 C1093 1.414 . S
C1097 C1095 1.444 . S
C1097 C1102 1.385 . S
C1098 C1094 1.432 . S
C1098 C1095 1.317 . S
C1098 H1110 0.930 . S
C1099 C1101 1.392 . S
C1099 C1102 1.370 . S
C1099 H1111 0.931 . S
N1100 C1093 1.359 . S
N1100 C1101 1.327 . S
N1100 Tb1103 2.600 . S
C1101 C1099 1.392 . S
C1101 N1100 1.327 . S
C1101 H1108 0.930 . S
C1102 C1097 1.385 . S
C1102 C1099 1.370 . S
C1102 H1121 0.930 . S
Tb1103 N1100 2.600 . S
Tb1103 N1104 2.660 . S
Tb1103 O1137 2.362 . S
Tb1103 O1138 2.421 . S
Tb1103 O1142 2.546 . S
Tb1103 O1143 2.610 . S
Tb1103 O1145 2.320 . S
Tb1103 O1146 2.552 . S
Tb1103 O1147 2.413 . S
Tb1103 C1167 2.833 . S
N1104 C1096 1.360 . S
N1104 Tb1103 2.660 . S
N1104 C1105 1.305 . S
C1105 N1104 1.305 . S
C1105 C1107 1.407 . S
C1105 H1112 0.930 . S
C1106 C1094 1.410 . S
C1106 C1107 1.345 . S
C1106 H1114 0.930 . S
C1107 C1105 1.407 . S
C1107 C1106 1.345 . S
C1107 H1109 0.930 . S
H1108 C1101 0.930 . S
H1109 C1107 0.930 . S
H1110 C1098 0.930 . S
H1111 C1099 0.931 . S
H1112 C1105 0.930 . S
H1113 C1127 0.930 . S
H1114 C1106 0.930 . S
H1115 C1133 0.930 . S
H1116 C1124 0.930 . S
H1117 C1131 0.931 . S
H1118 C1095 0.929 . S
H1119 C1125 0.930 . S
H1120 C1158 0.930 . S
H1121 C1102 0.930 . S
H1122 C1157 0.929 . S
N1123 Tb1092 2.660 . S
N1123 C1124 1.305 . S
N1123 C1128 1.360 . S
C1124 H1116 0.930 . S
C1124 N1123 1.305 . S
C1124 C1127 1.407 . S
C1125 H1119 0.930 . S
C1125 C1126 1.410 . S
C1125 C1127 1.345 . S
C1126 C1125 1.410 . S
C1126 C1128 1.417 . S
C1126 C1158 1.432 . S
C1127 H1113 0.930 . S
C1127 C1124 1.407 . S
C1127 C1125 1.345 . S
C1128 N1123 1.360 . S
C1128 C1126 1.417 . S
C1128 C1132 1.432 . S
H1129 C1134 0.930 . S
N1130 Tb1092 2.600 . S
N1130 C1132 1.359 . S
N1130 C1133 1.327 . S
C1131 H1117 0.931 . S
C1131 C1133 1.392 . S
C1131 C1134 1.370 . S
C1132 C1128 1.432 . S
C1132 N1130 1.359 . S
C1132 C1135 1.414 . S
C1133 H1115 0.930 . S
C1133 N1130 1.327 . S
C1133 C1131 1.392 . S
C1134 H1129 0.930 . S
C1134 C1131 1.370 . S
C1134 C1135 1.385 . S
C1135 C1132 1.414 . S
C1135 C1134 1.385 . S
C1135 C1157 1.444 . S
O1136 Tb1092 2.546 . S
O1136 C1156 1.251 . S
O1137 Tb1092 2.610 . S
O1137 Tb1103 2.362 . S
O1137 C1148 1.283 . S
O1138 Tb1103 2.421 . S
O1138 C1155 1.262 . S
O1139 Tb1092 2.320 . S
O1139 C1155 1.260 . S
O1140 Tb1092 2.552 . S
O1140 C1148 1.243 . S
O1141 Tb1092 2.413 . S
O1141 C1156 1.256 . S
O1142 Tb1103 2.546 . S
O1142 C1167 1.251 . S
O1143 Tb1092 2.362 . S
O1143 Tb1103 2.610 . S
O1143 C1159 1.283 . S
O1144 Tb1092 2.421 . S
O1144 C1166 1.262 . S
O1145 Tb1103 2.320 . S
O1145 C1166 1.260 . S
O1146 Tb1103 2.552 . S
O1146 C1159 1.243 . S
O1147 Tb1103 2.413 . S
O1147 C1167 1.256 . S
C1148 O1137 1.283 . S
C1148 O1140 1.243 . S
C1149 C1151 1.382 . S
C1149 C1153 1.393 . S
C1149 C1156 1.500 . S
C1150 C1151 1.400 . S
C1150 C1152 1.384 . S
C1151 C1149 1.382 . S
C1151 C1150 1.400 . S
C1151 H1168 0.930 . S
C1152 C1150 1.384 . S
C1152 C1154 1.392 . S
C1152 H1169 0.931 . S
C1153 C1149 1.393 . S
C1153 C1154 1.401 . S
C1153 H1170 0.930 . S
C1154 C1152 1.392 . S
C1154 C1153 1.401 . S
C1154 H1171 0.930 . S
C1155 O1138 1.262 . S
C1155 O1139 1.260 . S
C1156 Tb1092 2.833 . S
C1156 O1136 1.251 . S
C1156 O1141 1.256 . S
C1156 C1149 1.500 . S
C1157 H1122 0.929 . S
C1157 C1135 1.444 . S
C1157 C1158 1.317 . S
C1158 H1120 0.930 . S
C1158 C1126 1.432 . S
C1158 C1157 1.317 . S
C1159 O1143 1.283 . S
C1159 O1146 1.243 . S
C1160 C1161 1.382 . S
C1160 C1164 1.393 . S
C1160 C1167 1.500 . S
C1161 C1160 1.382 . S
C1161 C1162 1.400 . S
C1161 H1172 0.930 . S
C1162 C1161 1.400 . S
C1162 C1163 1.384 . S
C1163 C1162 1.384 . S
C1163 C1165 1.392 . S
C1163 H1173 0.931 . S
C1164 C1160 1.393 . S
C1164 C1165 1.401 . S
C1164 H1174 0.930 . S
C1165 C1163 1.392 . S
C1165 C1164 1.401 . S
C1165 H1175 0.930 . S
C1166 O1144 1.262 . S
C1166 O1145 1.260 . S
C1167 Tb1103 2.833 . S
C1167 O1142 1.251 . S
C1167 O1147 1.256 . S
C1167 C1160 1.500 . S
H1168 C1151 0.930 . S
H1169 C1152 0.931 . S
H1170 C1153 0.930 . S
H1171 C1154 0.930 . S
H1172 C1161 0.930 . S
H1173 C1163 0.931 . S
H1174 C1164 0.930 . S
H1175 C1165 0.930 . S
Tb1176 N1207 2.660 . S
Tb1176 N1214 2.600 . S
Tb1176 O1220 2.546 . S
Tb1176 O1221 2.610 . S
Tb1176 O1223 2.320 . S
Tb1176 O1224 2.552 . S
Tb1176 O1225 2.413 . S
Tb1176 O1227 2.362 . S
Tb1176 O1228 2.421 . S
Tb1176 C1240 2.833 . S
C1177 C1180 1.432 . S
C1177 C1181 1.414 1_455 S
C1177 N1184 1.359 . S
C1178 C1180 1.417 1_655 S
C1178 C1182 1.432 . S
C1178 C1190 1.410 . S
C1179 C1181 1.444 . S
C1179 C1182 1.317 . S
C1179 H1202 0.929 . S
C1180 C1177 1.432 . S
C1180 C1178 1.417 1_455 S
C1180 N1188 1.360 . S
C1181 C1177 1.414 1_655 S
C1181 C1179 1.444 . S
C1181 C1186 1.385 . S
C1182 C1178 1.432 . S
C1182 C1179 1.317 . S
C1182 H1194 0.930 . S
C1183 C1185 1.392 . S
C1183 C1186 1.370 1_455 S
C1183 H1195 0.931 . S
N1184 C1177 1.359 . S
N1184 C1185 1.327 . S
N1184 Tb1187 2.600 . S
C1185 C1183 1.392 . S
C1185 N1184 1.327 . S
C1185 H1192 0.930 . S
C1186 C1181 1.385 . S
C1186 C1183 1.370 1_655 S
C1186 H1205 0.930 . S
Tb1187 N1184 2.600 . S
Tb1187 N1188 2.660 . S
Tb1187 O1221 2.362 . S
Tb1187 O1222 2.421 . S
Tb1187 O1226 2.546 . S
Tb1187 O1227 2.610 . S
Tb1187 O1229 2.320 . S
Tb1187 O1230 2.552 . S
Tb1187 O1231 2.413 . S
Tb1187 C1251 2.833 . S
N1188 C1180 1.360 . S
N1188 Tb1187 2.660 . S
N1188 C1189 1.305 . S
C1189 N1188 1.305 . S
C1189 C1191 1.407 1_455 S
C1189 H1196 0.930 . S
C1190 C1178 1.410 . S
C1190 C1191 1.345 . S
C1190 H1198 0.930 . S
C1191 C1189 1.407 1_655 S
C1191 C1190 1.345 . S
C1191 H1193 0.930 . S
H1192 C1185 0.930 . S
H1193 C1191 0.930 . S
H1194 C1182 0.930 . S
H1195 C1183 0.931 . S
H1196 C1189 0.930 . S
H1197 C1211 0.930 . S
H1198 C1190 0.930 . S
H1199 C1217 0.930 . S
H1200 C1208 0.930 . S
H1201 C1215 0.931 . S
H1202 C1179 0.929 . S
H1203 C1209 0.930 . S
H1204 C1242 0.930 . S
H1205 C1186 0.930 . S
H1206 C1241 0.929 . S
N1207 Tb1176 2.660 . S
N1207 C1208 1.305 . S
N1207 C1212 1.360 . S
C1208 H1200 0.930 . S
C1208 N1207 1.305 . S
C1208 C1211 1.407 . S
C1209 H1203 0.930 . S
C1209 C1210 1.410 . S
C1209 C1211 1.345 . S
C1210 C1209 1.410 . S
C1210 C1212 1.417 . S
C1210 C1242 1.432 . S
C1211 H1197 0.930 . S
C1211 C1208 1.407 . S
C1211 C1209 1.345 . S
C1212 N1207 1.360 . S
C1212 C1210 1.417 . S
C1212 C1216 1.432 . S
H1213 C1218 0.930 . S
N1214 Tb1176 2.600 . S
N1214 C1216 1.359 . S
N1214 C1217 1.327 . S
C1215 H1201 0.931 . S
C1215 C1217 1.392 . S
C1215 C1218 1.370 . S
C1216 C1212 1.432 . S
C1216 N1214 1.359 . S
C1216 C1219 1.414 . S
C1217 H1199 0.930 . S
C1217 N1214 1.327 . S
C1217 C1215 1.392 . S
C1218 H1213 0.930 . S
C1218 C1215 1.370 . S
C1218 C1219 1.385 . S
C1219 C1216 1.414 . S
C1219 C1218 1.385 . S
C1219 C1241 1.444 . S
O1220 Tb1176 2.546 . S
O1220 C1240 1.251 . S
O1221 Tb1176 2.610 . S
O1221 Tb1187 2.362 . S
O1221 C1232 1.283 . S
O1222 Tb1187 2.421 . S
O1222 C1239 1.262 . S
O1223 Tb1176 2.320 . S
O1223 C1239 1.260 . S
O1224 Tb1176 2.552 . S
O1224 C1232 1.243 . S
O1225 Tb1176 2.413 . S
O1225 C1240 1.256 . S
O1226 Tb1187 2.546 . S
O1226 C1251 1.251 . S
O1227 Tb1176 2.362 . S
O1227 Tb1187 2.610 . S
O1227 C1243 1.283 . S
O1228 Tb1176 2.421 . S
O1228 C1250 1.262 . S
O1229 Tb1187 2.320 . S
O1229 C1250 1.260 . S
O1230 Tb1187 2.552 . S
O1230 C1243 1.243 . S
O1231 Tb1187 2.413 . S
O1231 C1251 1.256 . S
C1232 O1221 1.283 . S
C1232 O1224 1.243 . S
C1233 C1235 1.382 . S
C1233 C1237 1.393 . S
C1233 C1240 1.500 . S
C1234 C1235 1.400 . S
C1234 C1236 1.384 . S
C1235 C1233 1.382 . S
C1235 C1234 1.400 . S
C1235 H1252 0.930 . S
C1236 C1234 1.384 . S
C1236 C1238 1.392 . S
C1236 H1253 0.931 . S
C1237 C1233 1.393 . S
C1237 C1238 1.401 . S
C1237 H1254 0.930 . S
C1238 C1236 1.392 . S
C1238 C1237 1.401 . S
C1238 H1255 0.930 . S
C1239 O1222 1.262 . S
C1239 O1223 1.260 . S
C1240 Tb1176 2.833 . S
C1240 O1220 1.251 . S
C1240 O1225 1.256 . S
C1240 C1233 1.500 . S
C1241 H1206 0.929 . S
C1241 C1219 1.444 . S
C1241 C1242 1.317 . S
C1242 H1204 0.930 . S
C1242 C1210 1.432 . S
C1242 C1241 1.317 . S
C1243 O1227 1.283 . S
C1243 O1230 1.243 . S
C1244 C1245 1.382 . S
C1244 C1248 1.393 . S
C1244 C1251 1.500 . S
C1245 C1244 1.382 . S
C1245 C1246 1.400 . S
C1245 H1256 0.930 . S
C1246 C1245 1.400 . S
C1246 C1247 1.384 . S
C1247 C1246 1.384 . S
C1247 C1249 1.392 . S
C1247 H1257 0.931 . S
C1248 C1244 1.393 . S
C1248 C1249 1.401 . S
C1248 H1258 0.930 . S
C1249 C1247 1.392 . S
C1249 C1248 1.401 . S
C1249 H1259 0.930 . S
C1250 O1228 1.262 . S
C1250 O1229 1.260 . S
C1251 Tb1187 2.833 . S
C1251 O1226 1.251 . S
C1251 O1231 1.256 . S
C1251 C1244 1.500 . S
H1252 C1235 0.930 . S
H1253 C1236 0.931 . S
H1254 C1237 0.930 . S
H1255 C1238 0.930 . S
H1256 C1245 0.930 . S
H1257 C1247 0.931 . S
H1258 C1248 0.930 . S
H1259 C1249 0.930 . S
Tb1260 N1291 2.660 . S
Tb1260 N1298 2.600 . S
Tb1260 O1304 2.546 . S
Tb1260 O1305 2.610 . S
Tb1260 O1307 2.320 . S
Tb1260 O1308 2.552 . S
Tb1260 O1309 2.413 . S
Tb1260 O1311 2.362 . S
Tb1260 O1312 2.421 . S
Tb1260 C1324 2.833 . S
C1261 C1264 1.432 . S
C1261 C1265 1.414 . S
C1261 N1268 1.359 . S
C1262 C1264 1.417 . S
C1262 C1266 1.432 . S
C1262 C1274 1.410 . S
C1263 C1265 1.444 . S
C1263 C1266 1.317 . S
C1263 H1286 0.929 . S
C1264 C1261 1.432 . S
C1264 C1262 1.417 . S
C1264 N1272 1.360 . S
C1265 C1261 1.414 . S
C1265 C1263 1.444 . S
C1265 C1270 1.385 . S
C1266 C1262 1.432 . S
C1266 C1263 1.317 . S
C1266 H1278 0.930 . S
C1267 C1269 1.392 . S
C1267 C1270 1.370 . S
C1267 H1279 0.931 . S
N1268 C1261 1.359 . S
N1268 C1269 1.327 . S
N1268 Tb1271 2.600 . S
C1269 C1267 1.392 . S
C1269 N1268 1.327 . S
C1269 H1276 0.930 . S
C1270 C1265 1.385 . S
C1270 C1267 1.370 . S
C1270 H1289 0.930 . S
Tb1271 N1268 2.600 . S
Tb1271 N1272 2.660 . S
Tb1271 O1305 2.362 . S
Tb1271 O1306 2.421 . S
Tb1271 O1310 2.546 . S
Tb1271 O1311 2.610 . S
Tb1271 O1313 2.320 . S
Tb1271 O1314 2.552 . S
Tb1271 O1315 2.413 . S
Tb1271 C1335 2.833 . S
N1272 C1264 1.360 . S
N1272 Tb1271 2.660 . S
N1272 C1273 1.305 . S
C1273 N1272 1.305 . S
C1273 C1275 1.407 . S
C1273 H1280 0.930 . S
C1274 C1262 1.410 . S
C1274 C1275 1.345 . S
C1274 H1282 0.930 . S
C1275 C1273 1.407 . S
C1275 C1274 1.345 . S
C1275 H1277 0.930 . S
H1276 C1269 0.930 . S
H1277 C1275 0.930 . S
H1278 C1266 0.930 . S
H1279 C1267 0.931 . S
H1280 C1273 0.930 . S
H1281 C1295 0.930 . S
H1282 C1274 0.930 . S
H1283 C1301 0.930 . S
H1284 C1292 0.930 . S
H1285 C1299 0.931 . S
H1286 C1263 0.929 . S
H1287 C1293 0.930 . S
H1288 C1326 0.930 . S
H1289 C1270 0.930 . S
H1290 C1325 0.929 . S
N1291 Tb1260 2.660 . S
N1291 C1292 1.305 . S
N1291 C1296 1.360 . S
C1292 H1284 0.930 . S
C1292 N1291 1.305 . S
C1292 C1295 1.407 . S
C1293 H1287 0.930 . S
C1293 C1294 1.410 . S
C1293 C1295 1.345 . S
C1294 C1293 1.410 . S
C1294 C1296 1.417 . S
C1294 C1326 1.432 . S
C1295 H1281 0.930 . S
C1295 C1292 1.407 . S
C1295 C1293 1.345 . S
C1296 N1291 1.360 . S
C1296 C1294 1.417 . S
C1296 C1300 1.432 . S
H1297 C1302 0.930 . S
N1298 Tb1260 2.600 . S
N1298 C1300 1.359 . S
N1298 C1301 1.327 . S
C1299 H1285 0.931 . S
C1299 C1301 1.392 . S
C1299 C1302 1.370 . S
C1300 C1296 1.432 . S
C1300 N1298 1.359 . S
C1300 C1303 1.414 . S
C1301 H1283 0.930 . S
C1301 N1298 1.327 . S
C1301 C1299 1.392 . S
C1302 H1297 0.930 . S
C1302 C1299 1.370 . S
C1302 C1303 1.385 . S
C1303 C1300 1.414 . S
C1303 C1302 1.385 . S
C1303 C1325 1.444 . S
O1304 Tb1260 2.546 . S
O1304 C1324 1.251 . S
O1305 Tb1260 2.610 . S
O1305 Tb1271 2.362 . S
O1305 C1316 1.283 . S
O1306 Tb1271 2.421 . S
O1306 C1323 1.262 . S
O1307 Tb1260 2.320 . S
O1307 C1323 1.260 . S
O1308 Tb1260 2.552 . S
O1308 C1316 1.243 . S
O1309 Tb1260 2.413 . S
O1309 C1324 1.256 . S
O1310 Tb1271 2.546 . S
O1310 C1335 1.251 . S
O1311 Tb1260 2.362 . S
O1311 Tb1271 2.610 . S
O1311 C1327 1.283 . S
O1312 Tb1260 2.421 . S
O1312 C1334 1.262 . S
O1313 Tb1271 2.320 . S
O1313 C1334 1.260 . S
O1314 Tb1271 2.552 . S
O1314 C1327 1.243 . S
O1315 Tb1271 2.413 . S
O1315 C1335 1.256 . S
C1316 O1305 1.283 . S
C1316 O1308 1.243 . S
C1317 C1319 1.382 . S
C1317 C1321 1.393 . S
C1317 C1324 1.500 . S
C1318 C1319 1.400 . S
C1318 C1320 1.384 . S
C1319 C1317 1.382 . S
C1319 C1318 1.400 . S
C1319 H1336 0.930 . S
C1320 C1318 1.384 . S
C1320 C1322 1.392 . S
C1320 H1337 0.931 . S
C1321 C1317 1.393 . S
C1321 C1322 1.401 . S
C1321 H1338 0.930 . S
C1322 C1320 1.392 . S
C1322 C1321 1.401 . S
C1322 H1339 0.930 . S
C1323 O1306 1.262 . S
C1323 O1307 1.260 . S
C1324 Tb1260 2.833 . S
C1324 O1304 1.251 . S
C1324 O1309 1.256 . S
C1324 C1317 1.500 . S
C1325 H1290 0.929 . S
C1325 C1303 1.444 . S
C1325 C1326 1.317 . S
C1326 H1288 0.930 . S
C1326 C1294 1.432 . S
C1326 C1325 1.317 . S
C1327 O1311 1.283 . S
C1327 O1314 1.243 . S
C1328 C1329 1.382 . S
C1328 C1332 1.393 . S
C1328 C1335 1.500 . S
C1329 C1328 1.382 . S
C1329 C1330 1.400 . S
C1329 H1340 0.930 . S
C1330 C1329 1.400 . S
C1330 C1331 1.384 . S
C1331 C1330 1.384 . S
C1331 C1333 1.392 . S
C1331 H1341 0.931 . S
C1332 C1328 1.393 . S
C1332 C1333 1.401 . S
C1332 H1342 0.930 . S
C1333 C1331 1.392 . S
C1333 C1332 1.401 . S
C1333 H1343 0.930 . S
C1334 O1312 1.262 . S
C1334 O1313 1.260 . S
C1335 Tb1271 2.833 . S
C1335 O1310 1.251 . S
C1335 O1315 1.256 . S
C1335 C1328 1.500 . S
H1336 C1319 0.930 . S
H1337 C1320 0.931 . S
H1338 C1321 0.930 . S
H1339 C1322 0.930 . S
H1340 C1329 0.930 . S
H1341 C1331 0.931 . S
H1342 C1332 0.930 . S
H1343 C1333 0.930 . S
Tb1344 N1375 2.660 . S
Tb1344 N1382 2.600 . S
Tb1344 O1388 2.546 . S
Tb1344 O1389 2.610 . S
Tb1344 O1391 2.320 . S
Tb1344 O1392 2.552 . S
Tb1344 O1393 2.413 . S
Tb1344 O1395 2.362 . S
Tb1344 O1396 2.421 . S
Tb1344 C1408 2.833 . S
C1345 C1348 1.432 . S
C1345 C1349 1.414 . S
C1345 N1352 1.359 . S
C1346 C1348 1.417 . S
C1346 C1350 1.432 . S
C1346 C1358 1.410 . S
C1347 C1349 1.444 . S
C1347 C1350 1.317 . S
C1347 H1370 0.929 . S
C1348 C1345 1.432 . S
C1348 C1346 1.417 . S
C1348 N1356 1.360 . S
C1349 C1345 1.414 . S
C1349 C1347 1.444 . S
C1349 C1354 1.385 . S
C1350 C1346 1.432 . S
C1350 C1347 1.317 . S
C1350 H1362 0.930 . S
C1351 C1353 1.392 . S
C1351 C1354 1.370 . S
C1351 H1363 0.931 . S
N1352 C1345 1.359 . S
N1352 C1353 1.327 . S
N1352 Tb1355 2.600 . S
C1353 C1351 1.392 . S
C1353 N1352 1.327 . S
C1353 H1360 0.930 . S
C1354 C1349 1.385 . S
C1354 C1351 1.370 . S
C1354 H1373 0.930 . S
Tb1355 N1352 2.600 . S
Tb1355 N1356 2.660 . S
Tb1355 O1389 2.362 . S
Tb1355 O1390 2.421 . S
Tb1355 O1394 2.546 . S
Tb1355 O1395 2.610 . S
Tb1355 O1397 2.320 . S
Tb1355 O1398 2.552 . S
Tb1355 O1399 2.413 . S
Tb1355 C1419 2.833 . S
N1356 C1348 1.360 . S
N1356 Tb1355 2.660 . S
N1356 C1357 1.305 . S
C1357 N1356 1.305 . S
C1357 C1359 1.407 . S
C1357 H1364 0.930 . S
C1358 C1346 1.410 . S
C1358 C1359 1.345 . S
C1358 H1366 0.930 . S
C1359 C1357 1.407 . S
C1359 C1358 1.345 . S
C1359 H1361 0.930 . S
H1360 C1353 0.930 . S
H1361 C1359 0.930 . S
H1362 C1350 0.930 . S
H1363 C1351 0.931 . S
H1364 C1357 0.930 . S
H1365 C1379 0.930 . S
H1366 C1358 0.930 . S
H1367 C1385 0.930 . S
H1368 C1376 0.930 . S
H1369 C1383 0.931 . S
H1370 C1347 0.929 . S
H1371 C1377 0.930 . S
H1372 C1410 0.930 . S
H1373 C1354 0.930 . S
H1374 C1409 0.929 . S
N1375 Tb1344 2.660 . S
N1375 C1376 1.305 . S
N1375 C1380 1.360 . S
C1376 H1368 0.930 . S
C1376 N1375 1.305 . S
C1376 C1379 1.407 . S
C1377 H1371 0.930 . S
C1377 C1378 1.410 . S
C1377 C1379 1.345 . S
C1378 C1377 1.410 . S
C1378 C1380 1.417 . S
C1378 C1410 1.432 . S
C1379 H1365 0.930 . S
C1379 C1376 1.407 . S
C1379 C1377 1.345 . S
C1380 N1375 1.360 . S
C1380 C1378 1.417 . S
C1380 C1384 1.432 . S
H1381 C1386 0.930 . S
N1382 Tb1344 2.600 . S
N1382 C1384 1.359 . S
N1382 C1385 1.327 . S
C1383 H1369 0.931 . S
C1383 C1385 1.392 . S
C1383 C1386 1.370 . S
C1384 C1380 1.432 . S
C1384 N1382 1.359 . S
C1384 C1387 1.414 . S
C1385 H1367 0.930 . S
C1385 N1382 1.327 . S
C1385 C1383 1.392 . S
C1386 H1381 0.930 . S
C1386 C1383 1.370 . S
C1386 C1387 1.385 . S
C1387 C1384 1.414 . S
C1387 C1386 1.385 . S
C1387 C1409 1.444 . S
O1388 Tb1344 2.546 . S
O1388 C1408 1.251 . S
O1389 Tb1344 2.610 . S
O1389 Tb1355 2.362 . S
O1389 C1400 1.283 . S
O1390 Tb1355 2.421 . S
O1390 C1407 1.262 . S
O1391 Tb1344 2.320 . S
O1391 C1407 1.260 . S
O1392 Tb1344 2.552 . S
O1392 C1400 1.243 . S
O1393 Tb1344 2.413 . S
O1393 C1408 1.256 . S
O1394 Tb1355 2.546 . S
O1394 C1419 1.251 . S
O1395 Tb1344 2.362 . S
O1395 Tb1355 2.610 . S
O1395 C1411 1.283 . S
O1396 Tb1344 2.421 . S
O1396 C1418 1.262 . S
O1397 Tb1355 2.320 . S
O1397 C1418 1.260 . S
O1398 Tb1355 2.552 . S
O1398 C1411 1.243 . S
O1399 Tb1355 2.413 . S
O1399 C1419 1.256 . S
C1400 O1389 1.283 . S
C1400 O1392 1.243 . S
C1401 C1403 1.382 . S
C1401 C1405 1.393 . S
C1401 C1408 1.500 . S
C1402 C1403 1.400 . S
C1402 C1404 1.384 . S
C1403 C1401 1.382 . S
C1403 C1402 1.400 . S
C1403 H1420 0.930 . S
C1404 C1402 1.384 . S
C1404 C1406 1.392 . S
C1404 H1421 0.931 . S
C1405 C1401 1.393 . S
C1405 C1406 1.401 . S
C1405 H1422 0.930 . S
C1406 C1404 1.392 . S
C1406 C1405 1.401 . S
C1406 H1423 0.930 . S
C1407 O1390 1.262 . S
C1407 O1391 1.260 . S
C1408 Tb1344 2.833 . S
C1408 O1388 1.251 . S
C1408 O1393 1.256 . S
C1408 C1401 1.500 . S
C1409 H1374 0.929 . S
C1409 C1387 1.444 . S
C1409 C1410 1.317 . S
C1410 H1372 0.930 . S
C1410 C1378 1.432 . S
C1410 C1409 1.317 . S
C1411 O1395 1.283 . S
C1411 O1398 1.243 . S
C1412 C1413 1.382 . S
C1412 C1416 1.393 . S
C1412 C1419 1.500 . S
C1413 C1412 1.382 . S
C1413 C1414 1.400 . S
C1413 H1424 0.930 . S
C1414 C1413 1.400 . S
C1414 C1415 1.384 . S
C1415 C1414 1.384 . S
C1415 C1417 1.392 . S
C1415 H1425 0.931 . S
C1416 C1412 1.393 . S
C1416 C1417 1.401 . S
C1416 H1426 0.930 . S
C1417 C1415 1.392 . S
C1417 C1416 1.401 . S
C1417 H1427 0.930 . S
C1418 O1396 1.262 . S
C1418 O1397 1.260 . S
C1419 Tb1355 2.833 . S
C1419 O1394 1.251 . S
C1419 O1399 1.256 . S
C1419 C1412 1.500 . S
H1420 C1403 0.930 . S
H1421 C1404 0.931 . S
H1422 C1405 0.930 . S
H1423 C1406 0.930 . S
H1424 C1413 0.930 . S
H1425 C1415 0.931 . S
H1426 C1416 0.930 . S
H1427 C1417 0.930 . S
Tb1428 N1459 2.660 . S
Tb1428 N1466 2.600 . S
Tb1428 O1472 2.546 . S
Tb1428 O1473 2.610 . S
Tb1428 O1475 2.320 . S
Tb1428 O1476 2.552 . S
Tb1428 O1477 2.413 . S
Tb1428 O1479 2.362 . S
Tb1428 O1480 2.421 . S
Tb1428 C1492 2.833 . S
C1429 C1432 1.432 . S
C1429 C1433 1.414 . S
C1429 N1436 1.359 . S
C1430 C1432 1.417 . S
C1430 C1434 1.432 . S
C1430 C1442 1.410 . S
C1431 C1433 1.444 . S
C1431 C1434 1.317 . S
C1431 H1454 0.929 . S
C1432 C1429 1.432 . S
C1432 C1430 1.417 . S
C1432 N1440 1.360 . S
C1433 C1429 1.414 . S
C1433 C1431 1.444 . S
C1433 C1438 1.385 . S
C1434 C1430 1.432 . S
C1434 C1431 1.317 . S
C1434 H1446 0.930 . S
C1435 C1437 1.392 . S
C1435 C1438 1.370 . S
C1435 H1447 0.931 . S
N1436 C1429 1.359 . S
N1436 C1437 1.327 . S
N1436 Tb1439 2.600 . S
C1437 C1435 1.392 . S
C1437 N1436 1.327 . S
C1437 H1444 0.930 . S
C1438 C1433 1.385 . S
C1438 C1435 1.370 . S
C1438 H1457 0.930 . S
Tb1439 N1436 2.600 . S
Tb1439 N1440 2.660 . S
Tb1439 O1473 2.362 . S
Tb1439 O1474 2.421 . S
Tb1439 O1478 2.546 . S
Tb1439 O1479 2.610 . S
Tb1439 O1481 2.320 . S
Tb1439 O1482 2.552 . S
Tb1439 O1483 2.413 . S
Tb1439 C1503 2.833 . S
N1440 C1432 1.360 . S
N1440 Tb1439 2.660 . S
N1440 C1441 1.305 . S
C1441 N1440 1.305 . S
C1441 C1443 1.407 . S
C1441 H1448 0.930 . S
C1442 C1430 1.410 . S
C1442 C1443 1.345 . S
C1442 H1450 0.930 . S
C1443 C1441 1.407 . S
C1443 C1442 1.345 . S
C1443 H1445 0.930 . S
H1444 C1437 0.930 . S
H1445 C1443 0.930 . S
H1446 C1434 0.930 . S
H1447 C1435 0.931 . S
H1448 C1441 0.930 . S
H1449 C1463 0.930 . S
H1450 C1442 0.930 . S
H1451 C1469 0.930 . S
H1452 C1460 0.930 . S
H1453 C1467 0.931 . S
H1454 C1431 0.929 . S
H1455 C1461 0.930 . S
H1456 C1494 0.930 . S
H1457 C1438 0.930 . S
H1458 C1493 0.929 . S
N1459 Tb1428 2.660 . S
N1459 C1460 1.305 . S
N1459 C1464 1.360 . S
C1460 H1452 0.930 . S
C1460 N1459 1.305 . S
C1460 C1463 1.407 . S
C1461 H1455 0.930 . S
C1461 C1462 1.410 . S
C1461 C1463 1.345 . S
C1462 C1461 1.410 . S
C1462 C1464 1.417 . S
C1462 C1494 1.432 . S
C1463 H1449 0.930 . S
C1463 C1460 1.407 . S
C1463 C1461 1.345 . S
C1464 N1459 1.360 . S
C1464 C1462 1.417 . S
C1464 C1468 1.432 . S
H1465 C1470 0.930 . S
N1466 Tb1428 2.600 . S
N1466 C1468 1.359 . S
N1466 C1469 1.327 . S
C1467 H1453 0.931 . S
C1467 C1469 1.392 . S
C1467 C1470 1.370 . S
C1468 C1464 1.432 . S
C1468 N1466 1.359 . S
C1468 C1471 1.414 . S
C1469 H1451 0.930 . S
C1469 N1466 1.327 . S
C1469 C1467 1.392 . S
C1470 H1465 0.930 . S
C1470 C1467 1.370 . S
C1470 C1471 1.385 . S
C1471 C1468 1.414 . S
C1471 C1470 1.385 . S
C1471 C1493 1.444 . S
O1472 Tb1428 2.546 . S
O1472 C1492 1.251 . S
O1473 Tb1428 2.610 . S
O1473 Tb1439 2.362 . S
O1473 C1484 1.283 . S
O1474 Tb1439 2.421 . S
O1474 C1491 1.262 . S
O1475 Tb1428 2.320 . S
O1475 C1491 1.260 . S
O1476 Tb1428 2.552 . S
O1476 C1484 1.243 . S
O1477 Tb1428 2.413 . S
O1477 C1492 1.256 . S
O1478 Tb1439 2.546 . S
O1478 C1503 1.251 . S
O1479 Tb1428 2.362 . S
O1479 Tb1439 2.610 . S
O1479 C1495 1.283 . S
O1480 Tb1428 2.421 . S
O1480 C1502 1.262 . S
O1481 Tb1439 2.320 . S
O1481 C1502 1.260 . S
O1482 Tb1439 2.552 . S
O1482 C1495 1.243 . S
O1483 Tb1439 2.413 . S
O1483 C1503 1.256 . S
C1484 O1473 1.283 . S
C1484 O1476 1.243 . S
C1485 C1487 1.382 . S
C1485 C1489 1.393 . S
C1485 C1492 1.500 . S
C1486 C1487 1.400 . S
C1486 C1488 1.384 . S
C1487 C1485 1.382 . S
C1487 C1486 1.400 . S
C1487 H1504 0.930 . S
C1488 C1486 1.384 . S
C1488 C1490 1.392 . S
C1488 H1505 0.931 . S
C1489 C1485 1.393 . S
C1489 C1490 1.401 . S
C1489 H1506 0.930 . S
C1490 C1488 1.392 . S
C1490 C1489 1.401 . S
C1490 H1507 0.930 . S
C1491 O1474 1.262 . S
C1491 O1475 1.260 . S
C1492 Tb1428 2.833 . S
C1492 O1472 1.251 . S
C1492 O1477 1.256 . S
C1492 C1485 1.500 . S
C1493 H1458 0.929 . S
C1493 C1471 1.444 . S
C1493 C1494 1.317 . S
C1494 H1456 0.930 . S
C1494 C1462 1.432 . S
C1494 C1493 1.317 . S
C1495 O1479 1.283 . S
C1495 O1482 1.243 . S
C1496 C1497 1.382 . S
C1496 C1500 1.393 . S
C1496 C1503 1.500 . S
C1497 C1496 1.382 . S
C1497 C1498 1.400 . S
C1497 H1508 0.930 . S
C1498 C1497 1.400 . S
C1498 C1499 1.384 . S
C1499 C1498 1.384 . S
C1499 C1501 1.392 . S
C1499 H1509 0.931 . S
C1500 C1496 1.393 . S
C1500 C1501 1.401 . S
C1500 H1510 0.930 . S
C1501 C1499 1.392 . S
C1501 C1500 1.401 . S
C1501 H1511 0.930 . S
C1502 O1480 1.262 . S
C1502 O1481 1.260 . S
C1503 Tb1439 2.833 . S
C1503 O1478 1.251 . S
C1503 O1483 1.256 . S
C1503 C1496 1.500 . S
H1504 C1487 0.930 . S
H1505 C1488 0.931 . S
H1506 C1489 0.930 . S
H1507 C1490 0.930 . S
H1508 C1497 0.930 . S
H1509 C1499 0.931 . S
H1510 C1500 0.930 . S
H1511 C1501 0.930 . S
Tb1512 N1543 2.660 . S
Tb1512 N1550 2.600 . S
Tb1512 O1556 2.546 . S
Tb1512 O1557 2.610 . S
Tb1512 O1559 2.320 . S
Tb1512 O1560 2.552 . S
Tb1512 O1561 2.413 . S
Tb1512 O1563 2.362 . S
Tb1512 O1564 2.421 . S
Tb1512 C1576 2.833 . S
C1513 C1516 1.432 . S
C1513 C1517 1.414 . S
C1513 N1520 1.359 . S
C1514 C1516 1.417 . S
C1514 C1518 1.432 . S
C1514 C1526 1.410 . S
C1515 C1517 1.444 . S
C1515 C1518 1.317 . S
C1515 H1538 0.929 . S
C1516 C1513 1.432 . S
C1516 C1514 1.417 . S
C1516 N1524 1.360 . S
C1517 C1513 1.414 . S
C1517 C1515 1.444 . S
C1517 C1522 1.385 . S
C1518 C1514 1.432 . S
C1518 C1515 1.317 . S
C1518 H1530 0.930 . S
C1519 C1521 1.392 . S
C1519 C1522 1.370 . S
C1519 H1531 0.931 . S
N1520 C1513 1.359 . S
N1520 C1521 1.327 . S
N1520 Tb1523 2.600 . S
C1521 C1519 1.392 . S
C1521 N1520 1.327 . S
C1521 H1528 0.930 . S
C1522 C1517 1.385 . S
C1522 C1519 1.370 . S
C1522 H1541 0.930 . S
Tb1523 N1520 2.600 . S
Tb1523 N1524 2.660 . S
Tb1523 O1557 2.362 . S
Tb1523 O1558 2.421 . S
Tb1523 O1562 2.546 . S
Tb1523 O1563 2.610 . S
Tb1523 O1565 2.320 . S
Tb1523 O1566 2.552 . S
Tb1523 O1567 2.413 . S
Tb1523 C1587 2.833 . S
N1524 C1516 1.360 . S
N1524 Tb1523 2.660 . S
N1524 C1525 1.305 . S
C1525 N1524 1.305 . S
C1525 C1527 1.407 . S
C1525 H1532 0.930 . S
C1526 C1514 1.410 . S
C1526 C1527 1.345 . S
C1526 H1534 0.930 . S
C1527 C1525 1.407 . S
C1527 C1526 1.345 . S
C1527 H1529 0.930 . S
H1528 C1521 0.930 . S
H1529 C1527 0.930 . S
H1530 C1518 0.930 . S
H1531 C1519 0.931 . S
H1532 C1525 0.930 . S
H1533 C1547 0.930 . S
H1534 C1526 0.930 . S
H1535 C1553 0.930 . S
H1536 C1544 0.930 . S
H1537 C1551 0.931 . S
H1538 C1515 0.929 . S
H1539 C1545 0.930 . S
H1540 C1578 0.930 . S
H1541 C1522 0.930 . S
H1542 C1577 0.929 . S
N1543 Tb1512 2.660 . S
N1543 C1544 1.305 . S
N1543 C1548 1.360 . S
C1544 H1536 0.930 . S
C1544 N1543 1.305 . S
C1544 C1547 1.407 . S
C1545 H1539 0.930 . S
C1545 C1546 1.410 . S
C1545 C1547 1.345 . S
C1546 C1545 1.410 . S
C1546 C1548 1.417 . S
C1546 C1578 1.432 . S
C1547 H1533 0.930 . S
C1547 C1544 1.407 . S
C1547 C1545 1.345 . S
C1548 N1543 1.360 . S
C1548 C1546 1.417 . S
C1548 C1552 1.432 . S
H1549 C1554 0.930 . S
N1550 Tb1512 2.600 . S
N1550 C1552 1.359 . S
N1550 C1553 1.327 . S
C1551 H1537 0.931 . S
C1551 C1553 1.392 . S
C1551 C1554 1.370 . S
C1552 C1548 1.432 . S
C1552 N1550 1.359 . S
C1552 C1555 1.414 . S
C1553 H1535 0.930 . S
C1553 N1550 1.327 . S
C1553 C1551 1.392 . S
C1554 H1549 0.930 . S
C1554 C1551 1.370 . S
C1554 C1555 1.385 . S
C1555 C1552 1.414 . S
C1555 C1554 1.385 . S
C1555 C1577 1.444 . S
O1556 Tb1512 2.546 . S
O1556 C1576 1.251 . S
O1557 Tb1512 2.610 . S
O1557 Tb1523 2.362 . S
O1557 C1568 1.283 . S
O1558 Tb1523 2.421 . S
O1558 C1575 1.262 . S
O1559 Tb1512 2.320 . S
O1559 C1575 1.260 . S
O1560 Tb1512 2.552 . S
O1560 C1568 1.243 . S
O1561 Tb1512 2.413 . S
O1561 C1576 1.256 . S
O1562 Tb1523 2.546 . S
O1562 C1587 1.251 . S
O1563 Tb1512 2.362 . S
O1563 Tb1523 2.610 . S
O1563 C1579 1.283 . S
O1564 Tb1512 2.421 . S
O1564 C1586 1.262 . S
O1565 Tb1523 2.320 . S
O1565 C1586 1.260 . S
O1566 Tb1523 2.552 . S
O1566 C1579 1.243 . S
O1567 Tb1523 2.413 . S
O1567 C1587 1.256 . S
C1568 O1557 1.283 . S
C1568 O1560 1.243 . S
C1569 C1571 1.382 . S
C1569 C1573 1.393 . S
C1569 C1576 1.500 . S
C1570 C1571 1.400 . S
C1570 C1572 1.384 . S
C1571 C1569 1.382 . S
C1571 C1570 1.400 . S
C1571 H1588 0.930 . S
C1572 C1570 1.384 . S
C1572 C1574 1.392 . S
C1572 H1589 0.931 . S
C1573 C1569 1.393 . S
C1573 C1574 1.401 . S
C1573 H1590 0.930 . S
C1574 C1572 1.392 . S
C1574 C1573 1.401 . S
C1574 H1591 0.930 . S
C1575 O1558 1.262 . S
C1575 O1559 1.260 . S
C1576 Tb1512 2.833 . S
C1576 O1556 1.251 . S
C1576 O1561 1.256 . S
C1576 C1569 1.500 . S
C1577 H1542 0.929 . S
C1577 C1555 1.444 . S
C1577 C1578 1.317 . S
C1578 H1540 0.930 . S
C1578 C1546 1.432 . S
C1578 C1577 1.317 . S
C1579 O1563 1.283 . S
C1579 O1566 1.243 . S
C1580 C1581 1.382 . S
C1580 C1584 1.393 . S
C1580 C1587 1.500 . S
C1581 C1580 1.382 . S
C1581 C1582 1.400 . S
C1581 H1592 0.930 . S
C1582 C1581 1.400 . S
C1582 C1583 1.384 . S
C1583 C1582 1.384 . S
C1583 C1585 1.392 . S
C1583 H1593 0.931 . S
C1584 C1580 1.393 . S
C1584 C1585 1.401 . S
C1584 H1594 0.930 . S
C1585 C1583 1.392 . S
C1585 C1584 1.401 . S
C1585 H1595 0.930 . S
C1586 O1564 1.262 . S
C1586 O1565 1.260 . S
C1587 Tb1523 2.833 . S
C1587 O1562 1.251 . S
C1587 O1567 1.256 . S
C1587 C1580 1.500 . S
H1588 C1571 0.930 . S
H1589 C1572 0.931 . S
H1590 C1573 0.930 . S
H1591 C1574 0.930 . S
H1592 C1581 0.930 . S
H1593 C1583 0.931 . S
H1594 C1584 0.930 . S
H1595 C1585 0.930 . S
Tb1596 N1627 2.660 . S
Tb1596 N1634 2.600 1_554 S
Tb1596 O1640 2.546 1_554 S
Tb1596 O1641 2.610 . S
Tb1596 O1643 2.320 . S
Tb1596 O1644 2.550 . S
Tb1596 O1645 2.413 . S
Tb1596 O1647 2.362 . S
Tb1596 O1648 2.421 1_554 S
Tb1596 C1660 2.833 1_554 S
C1597 C1600 1.432 . S
C1597 C1601 1.414 . S
C1597 N1604 1.359 1_655 S
C1598 C1600 1.417 . S
C1598 C1602 1.432 . S
C1598 C1610 1.410 1_554 S
C1599 C1601 1.444 . S
C1599 C1602 1.317 . S
C1599 H1622 0.929 . S
C1600 C1597 1.432 . S
C1600 C1598 1.417 . S
C1600 N1608 1.346 1_655 S
C1601 C1597 1.414 . S
C1601 C1599 1.444 . S
C1601 C1606 1.385 . S
C1602 C1598 1.432 . S
C1602 C1599 1.317 . S
C1602 H1614 0.930 . S
C1603 C1605 1.392 . S
C1603 C1606 1.370 1_455 S
C1603 H1615 0.931 . S
N1604 C1597 1.359 1_455 S
N1604 C1605 1.327 . S
N1604 Tb1607 2.600 . S
C1605 C1603 1.392 . S
C1605 N1604 1.327 . S
C1605 H1612 0.930 . S
C1606 C1601 1.385 . S
C1606 C1603 1.370 1_655 S
C1606 H1625 0.930 . S
Tb1607 N1604 2.600 . S
Tb1607 N1608 2.678 . S
Tb1607 O1641 2.362 . S
Tb1607 O1642 2.421 . S
Tb1607 O1646 2.546 . S
Tb1607 O1647 2.610 . S
Tb1607 O1649 2.320 1_554 S
Tb1607 O1650 2.552 . S
Tb1607 O1651 2.413 1_455 S
Tb1607 C1671 2.833 1_455 S
N1608 C1600 1.346 1_455 S
N1608 Tb1607 2.678 . S
N1608 C1609 1.303 1_454 S
C1609 N1608 1.303 1_656 S
C1609 C1611 1.407 . S
C1609 H1616 0.930 1_655 S
C1610 C1598 1.410 1_556 S
C1610 C1611 1.345 . S
C1610 H1618 0.930 . S
C1611 C1609 1.407 . S
C1611 C1610 1.345 . S
C1611 H1613 0.930 . S
H1612 C1605 0.930 . S
H1613 C1611 0.930 . S
H1614 C1602 0.930 . S
H1615 C1603 0.931 . S
H1616 C1609 0.930 1_455 S
H1617 C1631 0.930 . S
H1618 C1610 0.930 . S
H1619 C1637 0.930 . S
H1620 C1628 0.930 . S
H1621 C1635 0.931 . S
H1622 C1599 0.929 . S
H1623 C1629 0.930 . S
H1624 C1662 0.930 . S
H1625 C1606 0.930 . S
H1626 C1661 0.929 . S
N1627 Tb1596 2.660 . S
N1627 C1628 1.305 . S
N1627 C1632 1.360 . S
C1628 H1620 0.930 . S
C1628 N1627 1.305 . S
C1628 C1631 1.407 . S
C1629 H1623 0.930 . S
C1629 C1630 1.410 . S
C1629 C1631 1.345 . S
C1630 C1629 1.410 . S
C1630 C1632 1.417 . S
C1630 C1662 1.432 . S
C1631 H1617 0.930 . S
C1631 C1628 1.407 . S
C1631 C1629 1.345 . S
C1632 N1627 1.360 . S
C1632 C1630 1.417 . S
C1632 C1636 1.432 1_554 S
H1633 C1638 0.930 . S
N1634 Tb1596 2.600 1_556 S
N1634 C1636 1.359 . S
N1634 C1637 1.327 . S
C1635 H1621 0.931 . S
C1635 C1637 1.392 . S
C1635 C1638 1.370 . S
C1636 C1632 1.432 1_556 S
C1636 N1634 1.359 . S
C1636 C1639 1.414 . S
C1637 H1619 0.930 . S
C1637 N1634 1.327 . S
C1637 C1635 1.392 . S
C1638 H1633 0.930 . S
C1638 C1635 1.370 . S
C1638 C1639 1.385 . S
C1639 C1636 1.414 . S
C1639 C1638 1.385 . S
C1639 C1661 1.444 . S
O1640 Tb1596 2.546 1_556 S
O1640 C1660 1.251 . S
O1641 Tb1596 2.610 . S
O1641 Tb1607 2.362 . S
O1641 C1652 1.283 . S
O1642 Tb1607 2.421 . S
O1642 C1659 1.262 . S
O1643 Tb1596 2.320 . S
O1643 C1659 1.260 . S
O1644 Tb1596 2.550 . S
O1644 C1652 1.255 . S
O1645 Tb1596 2.413 . S
O1645 C1660 1.256 1_554 S
O1646 Tb1607 2.546 . S
O1646 C1671 1.251 1_455 S
O1647 Tb1596 2.362 . S
O1647 Tb1607 2.610 . S
O1647 C1663 1.283 . S
O1648 Tb1596 2.421 1_556 S
O1648 C1670 1.262 . S
O1649 Tb1607 2.320 1_556 S
O1649 C1670 1.260 . S
O1650 Tb1607 2.552 . S
O1650 C1663 1.243 . S
O1651 Tb1607 2.413 1_655 S
O1651 C1671 1.256 . S
C1652 O1641 1.283 . S
C1652 O1644 1.255 . S
C1653 C1655 1.382 1_556 S
C1653 C1657 1.393 . S
C1653 C1660 1.500 . S
C1654 C1655 1.400 1_556 S
C1654 C1656 1.384 . S
C1655 C1653 1.382 1_554 S
C1655 C1654 1.400 1_554 S
C1655 H1672 0.930 . S
C1656 C1654 1.384 . S
C1656 C1658 1.392 . S
C1656 H1673 0.931 . S
C1657 C1653 1.393 . S
C1657 C1658 1.401 . S
C1657 H1674 0.930 . S
C1658 C1656 1.392 . S
C1658 C1657 1.401 . S
C1658 H1675 0.930 . S
C1659 O1642 1.262 . S
C1659 O1643 1.260 . S
C1660 Tb1596 2.833 1_556 S
C1660 O1640 1.251 . S
C1660 O1645 1.256 1_556 S
C1660 C1653 1.500 . S
C1661 H1626 0.929 . S
C1661 C1639 1.444 . S
C1661 C1662 1.317 1_556 S
C1662 H1624 0.930 . S
C1662 C1630 1.432 . S
C1662 C1661 1.317 1_554 S
C1663 O1647 1.283 . S
C1663 O1650 1.243 . S
C1664 C1665 1.382 . S
C1664 C1668 1.393 . S
C1664 C1671 1.500 . S
C1665 C1664 1.382 . S
C1665 C1666 1.400 . S
C1665 H1676 0.930 . S
C1666 C1665 1.400 . S
C1666 C1667 1.384 . S
C1667 C1666 1.384 . S
C1667 C1669 1.392 . S
C1667 H1677 0.931 . S
C1668 C1664 1.393 . S
C1668 C1669 1.401 . S
C1668 H1678 0.930 . S
C1669 C1667 1.392 . S
C1669 C1668 1.401 . S
C1669 H1679 0.930 . S
C1670 O1648 1.262 . S
C1670 O1649 1.260 . S
C1671 Tb1607 2.833 1_655 S
C1671 O1646 1.251 1_655 S
C1671 O1651 1.256 . S
C1671 C1664 1.500 . S
H1672 C1655 0.930 . S
H1673 C1656 0.931 . S
H1674 C1657 0.930 . S
H1675 C1658 0.930 . S
H1676 C1665 0.930 . S
H1677 C1667 0.931 . S
H1678 C1668 0.930 . S
H1679 C1669 0.930 . S
C1680 C1681 1.391 . S
C1680 C1682 1.394 . S
C1680 H1696 0.931 . S
C1681 C1680 1.391 . S
C1681 C1685 1.376 . S
C1682 C1680 1.394 . S
C1682 C1683 1.369 . S
C1682 C1686 1.531 1_556 S
C1683 C1682 1.369 . S
C1683 C1684 1.410 . S
C1683 C1691 1.503 . S
C1684 C1683 1.410 . S
C1684 C1685 1.392 . S
C1684 C1687 1.511 1_455 S
C1685 C1681 1.376 . S
C1685 C1684 1.392 . S
C1685 H1697 0.929 1_455 S
C1686 C1682 1.531 1_554 S
C1686 H1698 0.960 . S
C1686 H1699 0.962 1_554 S
C1686 H1700 0.960 . S
C1687 C1684 1.511 1_655 S
C1687 H1701 0.961 . S
C1687 H1702 0.961 . S
C1687 H1703 0.961 . S
C1688 C1689 1.370 1_556 S
C1688 C1690 1.363 . S
C1688 H1704 0.931 . S
C1689 C1688 1.370 1_554 S
C1689 C1693 1.408 . S
C1690 C1688 1.363 . S
C1690 C1691 1.370 . S
C1690 C1694 1.524 . S
C1691 C1683 1.503 . S
C1691 C1690 1.370 . S
C1691 C1692 1.403 1_556 S
C1692 C1691 1.403 1_554 S
C1692 C1693 1.404 . S
C1692 C1695 1.539 . S
C1693 C1689 1.408 . S
C1693 C1692 1.404 . S
C1693 H1705 0.930 . S
C1694 C1690 1.524 . S
C1694 H1706 0.956 . S
C1694 H1707 0.961 . S
C1694 H1708 0.961 . S
C1695 C1692 1.539 . S
C1695 H1709 0.958 . S
C1695 H1710 0.961 . S
C1695 H1711 0.960 . S
H1696 C1680 0.931 . S
H1697 C1685 0.929 1_655 S
H1698 C1686 0.960 . S
H1699 C1686 0.962 1_556 S
H1700 C1686 0.960 . S
H1701 C1687 0.961 . S
H1702 C1687 0.961 . S
H1703 C1687 0.961 . S
H1704 C1688 0.931 . S
H1705 C1693 0.930 . S
H1706 C1694 0.956 . S
H1707 C1694 0.961 . S
H1708 C1694 0.961 . S
H1709 C1695 0.958 . S
H1710 C1695 0.961 . S
H1711 C1695 0.960 . S
C1712 C1713 1.391 . S
C1712 C1714 1.394 . S
C1712 H1728 0.931 . S
C1713 C1712 1.391 . S
C1713 C1717 1.376 . S
C1714 C1712 1.394 . S
C1714 C1715 1.369 . S
C1714 C1718 1.531 . S
C1715 C1714 1.369 . S
C1715 C1716 1.410 . S
C1715 C1723 1.503 . S
C1716 C1715 1.410 . S
C1716 C1717 1.392 . S
C1716 C1719 1.511 . S
C1717 C1713 1.376 . S
C1717 C1716 1.392 . S
C1717 H1729 0.929 . S
C1718 C1714 1.531 . S
C1718 H1730 0.960 . S
C1718 H1731 0.962 . S
C1718 H1732 0.960 . S
C1719 C1716 1.511 . S
C1719 H1733 0.961 . S
C1719 H1734 0.961 . S
C1719 H1735 0.961 . S
C1720 C1721 1.370 . S
C1720 C1722 1.363 . S
C1720 H1736 0.931 . S
C1721 C1720 1.370 . S
C1721 C1725 1.408 . S
C1722 C1720 1.363 . S
C1722 C1723 1.370 . S
C1722 C1726 1.524 . S
C1723 C1715 1.503 . S
C1723 C1722 1.370 . S
C1723 C1724 1.403 . S
C1724 C1723 1.403 . S
C1724 C1725 1.404 . S
C1724 C1727 1.539 . S
C1725 C1721 1.408 . S
C1725 C1724 1.404 . S
C1725 H1737 0.930 . S
C1726 C1722 1.524 . S
C1726 H1738 0.956 . S
C1726 H1739 0.961 . S
C1726 H1740 0.961 . S
C1727 C1724 1.539 . S
C1727 H1741 0.958 . S
C1727 H1742 0.961 . S
C1727 H1743 0.960 . S
H1728 C1712 0.931 . S
H1729 C1717 0.929 . S
H1730 C1718 0.960 . S
H1731 C1718 0.962 . S
H1732 C1718 0.960 . S
H1733 C1719 0.961 . S
H1734 C1719 0.961 . S
H1735 C1719 0.961 . S
H1736 C1720 0.931 . S
H1737 C1725 0.930 . S
H1738 C1726 0.956 . S
H1739 C1726 0.961 . S
H1740 C1726 0.961 . S
H1741 C1727 0.958 . S
H1742 C1727 0.961 . S
H1743 C1727 0.960 . S
C1744 C1745 1.391 . S
C1744 C1746 1.394 . S
C1744 H1760 0.931 . S
C1745 C1744 1.391 . S
C1745 C1749 1.376 . S
C1746 C1744 1.394 . S
C1746 C1747 1.369 . S
C1746 C1750 1.531 . S
C1747 C1746 1.369 . S
C1747 C1748 1.410 . S
C1747 C1755 1.503 . S
C1748 C1747 1.410 . S
C1748 C1749 1.392 . S
C1748 C1751 1.511 . S
C1749 C1745 1.376 . S
C1749 C1748 1.392 . S
C1749 H1761 0.929 . S
C1750 C1746 1.531 . S
C1750 H1762 0.960 . S
C1750 H1763 0.962 . S
C1750 H1764 0.960 . S
C1751 C1748 1.511 . S
C1751 H1765 0.961 . S
C1751 H1766 0.961 . S
C1751 H1767 0.961 . S
C1752 C1753 1.370 . S
C1752 C1754 1.363 . S
C1752 H1768 0.931 . S
C1753 C1752 1.370 . S
C1753 C1757 1.408 . S
C1754 C1752 1.363 . S
C1754 C1755 1.370 . S
C1754 C1758 1.524 . S
C1755 C1747 1.503 . S
C1755 C1754 1.370 . S
C1755 C1756 1.403 . S
C1756 C1755 1.403 . S
C1756 C1757 1.404 . S
C1756 C1759 1.539 . S
C1757 C1753 1.408 . S
C1757 C1756 1.404 . S
C1757 H1769 0.930 . S
C1758 C1754 1.524 . S
C1758 H1770 0.956 . S
C1758 H1771 0.961 . S
C1758 H1772 0.961 . S
C1759 C1756 1.539 . S
C1759 H1773 0.958 . S
C1759 H1774 0.961 . S
C1759 H1775 0.960 . S
H1760 C1744 0.931 . S
H1761 C1749 0.929 . S
H1762 C1750 0.960 . S
H1763 C1750 0.962 . S
H1764 C1750 0.960 . S
H1765 C1751 0.961 . S
H1766 C1751 0.961 . S
H1767 C1751 0.961 . S
H1768 C1752 0.931 . S
H1769 C1757 0.930 . S
H1770 C1758 0.956 . S
H1771 C1758 0.961 . S
H1772 C1758 0.961 . S
H1773 C1759 0.958 . S
H1774 C1759 0.961 . S
H1775 C1759 0.960 . S
C1776 C1777 1.391 . S
C1776 C1778 1.394 . S
C1776 H1792 0.931 . S
C1777 C1776 1.391 . S
C1777 C1781 1.376 . S
C1778 C1776 1.394 . S
C1778 C1779 1.369 . S
C1778 C1782 1.531 . S
C1779 C1778 1.369 . S
C1779 C1780 1.410 . S
C1779 C1787 1.503 . S
C1780 C1779 1.410 . S
C1780 C1781 1.392 . S
C1780 C1783 1.511 . S
C1781 C1777 1.376 . S
C1781 C1780 1.392 . S
C1781 H1793 0.929 . S
C1782 C1778 1.531 . S
C1782 H1794 0.960 . S
C1782 H1795 0.962 . S
C1782 H1796 0.960 . S
C1783 C1780 1.511 . S
C1783 H1797 0.961 . S
C1783 H1798 0.961 . S
C1783 H1799 0.961 . S
C1784 C1785 1.370 . S
C1784 C1786 1.363 . S
C1784 H1800 0.931 . S
C1785 C1784 1.370 . S
C1785 C1789 1.408 . S
C1786 C1784 1.363 . S
C1786 C1787 1.370 . S
C1786 C1790 1.524 . S
C1787 C1779 1.503 . S
C1787 C1786 1.370 . S
C1787 C1788 1.403 . S
C1788 C1787 1.403 . S
C1788 C1789 1.404 . S
C1788 C1791 1.539 . S
C1789 C1785 1.408 . S
C1789 C1788 1.404 . S
C1789 H1801 0.930 . S
C1790 C1786 1.524 . S
C1790 H1802 0.956 . S
C1790 H1803 0.961 . S
C1790 H1804 0.961 . S
C1791 C1788 1.539 . S
C1791 H1805 0.958 . S
C1791 H1806 0.961 . S
C1791 H1807 0.960 . S
H1792 C1776 0.931 . S
H1793 C1781 0.929 . S
H1794 C1782 0.960 . S
H1795 C1782 0.962 . S
H1796 C1782 0.960 . S
H1797 C1783 0.961 . S
H1798 C1783 0.961 . S
H1799 C1783 0.961 . S
H1800 C1784 0.931 . S
H1801 C1789 0.930 . S
H1802 C1790 0.956 . S
H1803 C1790 0.961 . S
H1804 C1790 0.961 . S
H1805 C1791 0.958 . S
H1806 C1791 0.961 . S
H1807 C1791 0.960 . S
C1808 C1809 1.391 . S
C1808 C1810 1.394 . S
C1808 H1824 0.931 . S
C1809 C1808 1.391 . S
C1809 C1813 1.376 1_455 S
C1810 C1808 1.394 . S
C1810 C1811 1.369 . S
C1810 C1814 1.531 . S
C1811 C1810 1.369 . S
C1811 C1812 1.410 . S
C1811 C1819 1.503 . S
C1812 C1811 1.410 . S
C1812 C1813 1.392 1_455 S
C1812 C1815 1.511 1_455 S
C1813 C1809 1.376 1_655 S
C1813 C1812 1.392 1_655 S
C1813 H1825 0.929 . S
C1814 C1810 1.531 . S
C1814 H1826 0.960 . S
C1814 H1827 0.962 . S
C1814 H1828 0.960 . S
C1815 C1812 1.511 1_655 S
C1815 H1829 0.961 . S
C1815 H1830 0.961 . S
C1815 H1831 0.961 . S
C1816 C1817 1.370 . S
C1816 C1818 1.363 . S
C1816 H1832 0.931 . S
C1817 C1816 1.370 . S
C1817 C1821 1.408 . S
C1818 C1816 1.363 . S
C1818 C1819 1.370 . S
C1818 C1822 1.524 . S
C1819 C1811 1.503 . S
C1819 C1818 1.370 . S
C1819 C1820 1.403 . S
C1820 C1819 1.403 . S
C1820 C1821 1.404 . S
C1820 C1823 1.539 . S
C1821 C1817 1.408 . S
C1821 C1820 1.404 . S
C1821 H1833 0.930 . S
C1822 C1818 1.524 . S
C1822 H1834 0.956 . S
C1822 H1835 0.961 . S
C1822 H1836 0.961 . S
C1823 C1820 1.539 . S
C1823 H1837 0.958 . S
C1823 H1838 0.961 . S
C1823 H1839 0.960 . S
H1824 C1808 0.931 . S
H1825 C1813 0.929 . S
H1826 C1814 0.960 . S
H1827 C1814 0.962 . S
H1828 C1814 0.960 . S
H1829 C1815 0.961 . S
H1830 C1815 0.961 . S
H1831 C1815 0.961 . S
H1832 C1816 0.931 . S
H1833 C1821 0.930 . S
H1834 C1822 0.956 . S
H1835 C1822 0.961 . S
H1836 C1822 0.961 . S
H1837 C1823 0.958 . S
H1838 C1823 0.961 . S
H1839 C1823 0.960 . S
C1840 C1841 1.391 . S
C1840 C1842 1.394 . S
C1840 H1856 0.931 . S
C1841 C1840 1.391 . S
C1841 C1845 1.376 . S
C1842 C1840 1.394 . S
C1842 C1843 1.369 . S
C1842 C1846 1.531 . S
C1843 C1842 1.369 . S
C1843 C1844 1.410 . S
C1843 C1851 1.503 . S
C1844 C1843 1.410 . S
C1844 C1845 1.392 . S
C1844 C1847 1.511 . S
C1845 C1841 1.376 . S
C1845 C1844 1.392 . S
C1845 H1857 0.929 . S
C1846 C1842 1.531 . S
C1846 H1858 0.960 . S
C1846 H1859 0.962 . S
C1846 H1860 0.960 . S
C1847 C1844 1.511 . S
C1847 H1861 0.961 . S
C1847 H1862 0.961 . S
C1847 H1863 0.961 . S
C1848 C1849 1.370 . S
C1848 C1850 1.363 . S
C1848 H1864 0.931 . S
C1849 C1848 1.370 . S
C1849 C1853 1.408 . S
C1850 C1848 1.363 . S
C1850 C1851 1.370 . S
C1850 C1854 1.524 . S
C1851 C1843 1.503 . S
C1851 C1850 1.370 . S
C1851 C1852 1.403 . S
C1852 C1851 1.403 . S
C1852 C1853 1.404 . S
C1852 C1855 1.539 . S
C1853 C1849 1.408 . S
C1853 C1852 1.404 . S
C1853 H1865 0.930 . S
C1854 C1850 1.524 . S
C1854 H1866 0.956 . S
C1854 H1867 0.961 . S
C1854 H1868 0.961 . S
C1855 C1852 1.539 . S
C1855 H1869 0.958 . S
C1855 H1870 0.961 . S
C1855 H1871 0.960 . S
H1856 C1840 0.931 . S
H1857 C1845 0.929 . S
H1858 C1846 0.960 . S
H1859 C1846 0.962 . S
H1860 C1846 0.960 . S
H1861 C1847 0.961 . S
H1862 C1847 0.961 . S
H1863 C1847 0.961 . S
H1864 C1848 0.931 . S
H1865 C1853 0.930 . S
H1866 C1854 0.956 . S
H1867 C1854 0.961 . S
H1868 C1854 0.961 . S
H1869 C1855 0.958 . S
H1870 C1855 0.961 . S
H1871 C1855 0.960 . S
C1872 C1873 1.391 . S
C1872 C1874 1.394 . S
C1872 H1888 0.931 . S
C1873 C1872 1.391 . S
C1873 C1877 1.376 . S
C1874 C1872 1.394 . S
C1874 C1875 1.369 . S
C1874 C1878 1.531 . S
C1875 C1874 1.369 . S
C1875 C1876 1.410 . S
C1875 C1883 1.503 . S
C1876 C1875 1.410 . S
C1876 C1877 1.392 . S
C1876 C1879 1.511 . S
C1877 C1873 1.376 . S
C1877 C1876 1.392 . S
C1877 H1889 0.929 . S
C1878 C1874 1.531 . S
C1878 H1890 0.960 . S
C1878 H1891 0.962 . S
C1878 H1892 0.960 . S
C1879 C1876 1.511 . S
C1879 H1893 0.961 . S
C1879 H1894 0.961 . S
C1879 H1895 0.961 . S
C1880 C1881 1.370 . S
C1880 C1882 1.363 . S
C1880 H1896 0.931 . S
C1881 C1880 1.370 . S
C1881 C1885 1.408 . S
C1882 C1880 1.363 . S
C1882 C1883 1.370 . S
C1882 C1886 1.524 . S
C1883 C1875 1.503 . S
C1883 C1882 1.370 . S
C1883 C1884 1.403 . S
C1884 C1883 1.403 . S
C1884 C1885 1.404 . S
C1884 C1887 1.539 . S
C1885 C1881 1.408 . S
C1885 C1884 1.404 . S
C1885 H1897 0.930 . S
C1886 C1882 1.524 . S
C1886 H1898 0.956 . S
C1886 H1899 0.961 . S
C1886 H1900 0.961 . S
C1887 C1884 1.539 . S
C1887 H1901 0.958 . S
C1887 H1902 0.961 . S
C1887 H1903 0.960 . S
H1888 C1872 0.931 . S
H1889 C1877 0.929 . S
H1890 C1878 0.960 . S
H1891 C1878 0.962 . S
H1892 C1878 0.960 . S
H1893 C1879 0.961 . S
H1894 C1879 0.961 . S
H1895 C1879 0.961 . S
H1896 C1880 0.931 . S
H1897 C1885 0.930 . S
H1898 C1886 0.956 . S
H1899 C1886 0.961 . S
H1900 C1886 0.961 . S
H1901 C1887 0.958 . S
H1902 C1887 0.961 . S
H1903 C1887 0.960 . S
C1904 C1905 1.391 . S
C1904 C1906 1.394 . S
C1904 H1920 0.931 . S
C1905 C1904 1.391 . S
C1905 C1909 1.376 . S
C1906 C1904 1.394 . S
C1906 C1907 1.369 . S
C1906 C1910 1.531 . S
C1907 C1906 1.369 . S
C1907 C1908 1.410 . S
C1907 C1915 1.503 . S
C1908 C1907 1.410 . S
C1908 C1909 1.392 . S
C1908 C1911 1.511 . S
C1909 C1905 1.376 . S
C1909 C1908 1.392 . S
C1909 H1921 0.929 . S
C1910 C1906 1.531 . S
C1910 H1922 0.960 . S
C1910 H1923 0.962 . S
C1910 H1924 0.960 . S
C1911 C1908 1.511 . S
C1911 H1925 0.961 . S
C1911 H1926 0.961 . S
C1911 H1927 0.961 . S
C1912 C1913 1.370 . S
C1912 C1914 1.363 . S
C1912 H1928 0.931 . S
C1913 C1912 1.370 . S
C1913 C1917 1.408 . S
C1914 C1912 1.363 . S
C1914 C1915 1.370 . S
C1914 C1918 1.524 . S
C1915 C1907 1.503 . S
C1915 C1914 1.370 . S
C1915 C1916 1.403 . S
C1916 C1915 1.403 . S
C1916 C1917 1.404 . S
C1916 C1919 1.539 . S
C1917 C1913 1.408 . S
C1917 C1916 1.404 . S
C1917 H1929 0.930 . S
C1918 C1914 1.524 . S
C1918 H1930 0.956 . S
C1918 H1931 0.961 . S
C1918 H1932 0.961 . S
C1919 C1916 1.539 . S
C1919 H1933 0.958 . S
C1919 H1934 0.961 . S
C1919 H1935 0.960 . S
H1920 C1904 0.931 . S
H1921 C1909 0.929 . S
H1922 C1910 0.960 . S
H1923 C1910 0.962 . S
H1924 C1910 0.960 . S
H1925 C1911 0.961 . S
H1926 C1911 0.961 . S
H1927 C1911 0.961 . S
H1928 C1912 0.931 . S
H1929 C1917 0.930 . S
H1930 C1918 0.956 . S
H1931 C1918 0.961 . S
H1932 C1918 0.961 . S
H1933 C1919 0.958 . S
H1934 C1919 0.961 . S
H1935 C1919 0.960 . S
C1936 C1937 1.391 . S
C1936 C1938 1.394 . S
C1936 H1952 0.931 . S
C1937 C1936 1.391 . S
C1937 C1941 1.376 . S
C1938 C1936 1.394 . S
C1938 C1939 1.369 1_655 S
C1938 C1942 1.531 . S
C1939 C1938 1.369 1_455 S
C1939 C1940 1.410 . S
C1939 C1947 1.503 . S
C1940 C1939 1.410 . S
C1940 C1941 1.392 1_455 S
C1940 C1943 1.511 . S
C1941 C1937 1.376 . S
C1941 C1940 1.392 1_655 S
C1941 H1953 0.929 1_655 S
C1942 C1938 1.531 . S
C1942 H1954 0.960 . S
C1942 H1955 0.962 . S
C1942 H1956 0.960 . S
C1943 C1940 1.511 . S
C1943 H1957 0.961 . S
C1943 H1958 0.961 . S
C1943 H1959 0.961 . S
C1944 C1945 1.370 . S
C1944 C1946 1.363 . S
C1944 H1960 0.931 . S
C1945 C1944 1.370 . S
C1945 C1949 1.408 . S
C1946 C1944 1.363 . S
C1946 C1947 1.370 . S
C1946 C1950 1.524 1_455 S
C1947 C1939 1.503 . S
C1947 C1946 1.370 . S
C1947 C1948 1.403 . S
C1948 C1947 1.403 . S
C1948 C1949 1.404 . S
C1948 C1951 1.539 . S
C1949 C1945 1.408 . S
C1949 C1948 1.404 . S
C1949 H1961 0.930 . S
C1950 C1946 1.524 1_655 S
C1950 H1962 0.956 . S
C1950 H1963 0.961 . S
C1950 H1964 0.961 . S
C1951 C1948 1.539 . S
C1951 H1965 0.958 . S
C1951 H1966 0.961 . S
C1951 H1967 0.960 . S
H1952 C1936 0.931 . S
H1953 C1941 0.929 1_455 S
H1954 C1942 0.960 . S
H1955 C1942 0.962 . S
H1956 C1942 0.960 . S
H1957 C1943 0.961 . S
H1958 C1943 0.961 . S
H1959 C1943 0.961 . S
H1960 C1944 0.931 . S
H1961 C1949 0.930 . S
H1962 C1950 0.956 . S
H1963 C1950 0.961 . S
H1964 C1950 0.961 . S
H1965 C1951 0.958 . S
H1966 C1951 0.961 . S
H1967 C1951 0.960 . S
C1968 C1969 1.391 . S
C1968 C1970 1.394 . S
C1968 H1984 0.931 . S
C1969 C1968 1.391 . S
C1969 C1973 1.376 . S
C1970 C1968 1.394 . S
C1970 C1971 1.369 . S
C1970 C1974 1.531 . S
C1971 C1970 1.369 . S
C1971 C1972 1.410 . S
C1971 C1979 1.503 . S
C1972 C1971 1.410 . S
C1972 C1973 1.392 . S
C1972 C1975 1.511 . S
C1973 C1969 1.376 . S
C1973 C1972 1.392 . S
C1973 H1985 0.929 . S
C1974 C1970 1.531 . S
C1974 H1986 0.960 . S
C1974 H1987 0.962 . S
C1974 H1988 0.960 . S
C1975 C1972 1.511 . S
C1975 H1989 0.961 . S
C1975 H1990 0.961 . S
C1975 H1991 0.961 . S
C1976 C1977 1.370 . S
C1976 C1978 1.363 . S
C1976 H1992 0.931 . S
C1977 C1976 1.370 . S
C1977 C1981 1.408 . S
C1978 C1976 1.363 . S
C1978 C1979 1.370 . S
C1978 C1982 1.524 . S
C1979 C1971 1.503 . S
C1979 C1978 1.370 . S
C1979 C1980 1.403 . S
C1980 C1979 1.403 . S
C1980 C1981 1.404 . S
C1980 C1983 1.539 . S
C1981 C1977 1.408 . S
C1981 C1980 1.404 . S
C1981 H1993 0.930 . S
C1982 C1978 1.524 . S
C1982 H1994 0.956 . S
C1982 H1995 0.961 . S
C1982 H1996 0.961 . S
C1983 C1980 1.539 . S
C1983 H1997 0.958 . S
C1983 H1998 0.961 . S
C1983 H1999 0.960 . S
H1984 C1968 0.931 . S
H1985 C1973 0.929 . S
H1986 C1974 0.960 . S
H1987 C1974 0.962 . S
H1988 C1974 0.960 . S
H1989 C1975 0.961 . S
H1990 C1975 0.961 . S
H1991 C1975 0.961 . S
H1992 C1976 0.931 . S
H1993 C1981 0.930 . S
H1994 C1982 0.956 . S
H1995 C1982 0.961 . S
H1996 C1982 0.961 . S
H1997 C1983 0.958 . S
H1998 C1983 0.961 . S
H1999 C1983 0.960 . S
C2000 C2001 1.391 . S
C2000 C2002 1.394 . S
C2000 H2016 0.931 . S
C2001 C2000 1.391 . S
C2001 C2005 1.376 . S
C2002 C2000 1.394 . S
C2002 C2003 1.369 . S
C2002 C2006 1.531 . S
C2003 C2002 1.369 . S
C2003 C2004 1.410 . S
C2003 C2011 1.503 . S
C2004 C2003 1.410 . S
C2004 C2005 1.392 . S
C2004 C2007 1.511 . S
C2005 C2001 1.376 . S
C2005 C2004 1.392 . S
C2005 H2017 0.929 . S
C2006 C2002 1.531 . S
C2006 H2018 0.960 1_545 S
C2006 H2019 0.962 . S
C2006 H2020 0.960 1_545 S
C2007 C2004 1.511 . S
C2007 H2021 0.961 . S
C2007 H2022 0.961 . S
C2007 H2023 0.961 . S
C2008 C2009 1.370 . S
C2008 C2010 1.363 . S
C2008 H2024 0.931 . S
C2009 C2008 1.370 . S
C2009 C2013 1.408 . S
C2010 C2008 1.363 . S
C2010 C2011 1.370 . S
C2010 C2014 1.524 . S
C2011 C2003 1.503 . S
C2011 C2010 1.370 . S
C2011 C2012 1.403 . S
C2012 C2011 1.403 . S
C2012 C2013 1.404 . S
C2012 C2015 1.539 1_545 S
C2013 C2009 1.408 . S
C2013 C2012 1.404 . S
C2013 H2025 0.930 1_545 S
C2014 C2010 1.524 . S
C2014 H2026 0.956 . S
C2014 H2027 0.961 . S
C2014 H2028 0.961 . S
C2015 C2012 1.539 1_565 S
C2015 H2029 0.958 . S
C2015 H2030 0.961 . S
C2015 H2031 0.960 . S
H2016 C2000 0.931 . S
H2017 C2005 0.929 . S
H2018 C2006 0.960 1_565 S
H2019 C2006 0.962 . S
H2020 C2006 0.960 1_565 S
H2021 C2007 0.961 . S
H2022 C2007 0.961 . S
H2023 C2007 0.961 . S
H2024 C2008 0.931 . S
H2025 C2013 0.930 1_565 S
H2026 C2014 0.956 . S
H2027 C2014 0.961 . S
H2028 C2014 0.961 . S
H2029 C2015 0.958 . S
H2030 C2015 0.961 . S
H2031 C2015 0.960 . S
C2032 C2033 1.391 . S
C2032 C2034 1.394 . S
C2032 H2048 0.931 . S
C2033 C2032 1.391 . S
C2033 C2037 1.376 . S
C2034 C2032 1.394 . S
C2034 C2035 1.369 . S
C2034 C2038 1.531 . S
C2035 C2034 1.369 . S
C2035 C2036 1.410 . S
C2035 C2043 1.503 . S
C2036 C2035 1.410 . S
C2036 C2037 1.392 . S
C2036 C2039 1.511 . S
C2037 C2033 1.376 . S
C2037 C2036 1.392 . S
C2037 H2049 0.929 . S
C2038 C2034 1.531 . S
C2038 H2050 0.960 . S
C2038 H2051 0.962 . S
C2038 H2052 0.960 . S
C2039 C2036 1.511 . S
C2039 H2053 0.961 . S
C2039 H2054 0.961 . S
C2039 H2055 0.961 . S
C2040 C2041 1.370 . S
C2040 C2042 1.363 . S
C2040 H2056 0.931 . S
C2041 C2040 1.370 . S
C2041 C2045 1.408 . S
C2042 C2040 1.363 . S
C2042 C2043 1.370 . S
C2042 C2046 1.524 . S
C2043 C2035 1.503 . S
C2043 C2042 1.370 . S
C2043 C2044 1.403 . S
C2044 C2043 1.403 . S
C2044 C2045 1.404 . S
C2044 C2047 1.539 . S
C2045 C2041 1.408 . S
C2045 C2044 1.404 . S
C2045 H2057 0.930 . S
C2046 C2042 1.524 . S
C2046 H2058 0.956 . S
C2046 H2059 0.961 . S
C2046 H2060 0.961 . S
C2047 C2044 1.539 . S
C2047 H2061 0.958 . S
C2047 H2062 0.961 . S
C2047 H2063 0.960 . S
H2048 C2032 0.931 . S
H2049 C2037 0.929 . S
H2050 C2038 0.960 . S
H2051 C2038 0.962 . S
H2052 C2038 0.960 . S
H2053 C2039 0.961 . S
H2054 C2039 0.961 . S
H2055 C2039 0.961 . S
H2056 C2040 0.931 . S
H2057 C2045 0.930 . S
H2058 C2046 0.956 . S
H2059 C2046 0.961 . S
H2060 C2046 0.961 . S
H2061 C2047 0.958 . S
H2062 C2047 0.961 . S
H2063 C2047 0.960 . S
C2064 C2065 1.391 . S
C2064 C2066 1.394 . S
C2064 H2080 0.931 . S
C2065 C2064 1.391 . S
C2065 C2069 1.384 . S
C2066 C2064 1.394 . S
C2066 C2067 1.369 1_655 S
C2066 C2070 1.531 . S
C2067 C2066 1.369 1_455 S
C2067 C2068 1.410 . S
C2067 C2075 1.503 . S
C2068 C2067 1.410 . S
C2068 C2069 1.388 1_455 S
C2068 C2071 1.511 . S
C2069 C2065 1.384 . S
C2069 C2068 1.388 1_655 S
C2069 H2081 0.925 1_655 S
C2070 C2066 1.531 . S
C2070 H2082 0.960 . S
C2070 H2083 0.962 . S
C2070 H2084 0.960 . S
C2071 C2068 1.511 . S
C2071 H2085 0.961 . S
C2071 H2086 0.961 . S
C2071 H2087 0.961 . S
C2072 C2073 1.370 . S
C2072 C2074 1.363 . S
C2072 H2088 0.931 . S
C2073 C2072 1.370 . S
C2073 C2077 1.408 . S
C2074 C2072 1.363 . S
C2074 C2075 1.370 . S
C2074 C2078 1.524 . S
C2075 C2067 1.503 . S
C2075 C2074 1.370 . S
C2075 C2076 1.403 . S
C2076 C2075 1.403 . S
C2076 C2077 1.404 . S
C2076 C2079 1.539 1_455 S
C2077 C2073 1.408 . S
C2077 C2076 1.404 . S
C2077 H2089 0.930 . S
C2078 C2074 1.524 . S
C2078 H2090 0.956 . S
C2078 H2091 0.961 . S
C2078 H2092 0.961 . S
C2079 C2076 1.539 1_655 S
C2079 H2093 0.958 . S
C2079 H2094 0.961 1_545 S
C2079 H2095 0.960 . S
H2080 C2064 0.931 . S
H2081 C2069 0.925 1_455 S
H2082 C2070 0.960 . S
H2083 C2070 0.962 . S
H2084 C2070 0.960 . S
H2085 C2071 0.961 . S
H2086 C2071 0.961 . S
H2087 C2071 0.961 . S
H2088 C2072 0.931 . S
H2089 C2077 0.930 . S
H2090 C2078 0.956 . S
H2091 C2078 0.961 . S
H2092 C2078 0.961 . S
H2093 C2079 0.958 . S
H2094 C2079 0.961 1_565 S
H2095 C2079 0.960 . S
C2096 C2097 1.391 . S
C2096 C2098 1.394 . S
C2096 H2112 0.931 . S
C2097 C2096 1.391 . S
C2097 C2101 1.376 . S
C2098 C2096 1.394 . S
C2098 C2099 1.369 . S
C2098 C2102 1.531 . S
C2099 C2098 1.369 . S
C2099 C2100 1.410 . S
C2099 C2107 1.503 . S
C2100 C2099 1.410 . S
C2100 C2101 1.392 . S
C2100 C2103 1.511 . S
C2101 C2097 1.376 . S
C2101 C2100 1.392 . S
C2101 H2113 0.929 . S
C2102 C2098 1.531 . S
C2102 H2114 0.960 . S
C2102 H2115 0.962 . S
C2102 H2116 0.960 . S
C2103 C2100 1.511 . S
C2103 H2117 0.961 . S
C2103 H2118 0.961 . S
C2103 H2119 0.961 . S
C2104 C2105 1.370 . S
C2104 C2106 1.363 . S
C2104 H2120 0.931 . S
C2105 C2104 1.370 . S
C2105 C2109 1.408 . S
C2106 C2104 1.363 . S
C2106 C2107 1.370 . S
C2106 C2110 1.524 . S
C2107 C2099 1.503 . S
C2107 C2106 1.370 . S
C2107 C2108 1.403 . S
C2108 C2107 1.403 . S
C2108 C2109 1.404 . S
C2108 C2111 1.539 . S
C2109 C2105 1.408 . S
C2109 C2108 1.404 . S
C2109 H2121 0.930 . S
C2110 C2106 1.524 . S
C2110 H2122 0.956 . S
C2110 H2123 0.961 . S
C2110 H2124 0.961 . S
C2111 C2108 1.539 . S
C2111 H2125 0.958 . S
C2111 H2126 0.961 . S
C2111 H2127 0.960 . S
H2112 C2096 0.931 . S
H2113 C2101 0.929 . S
H2114 C2102 0.960 . S
H2115 C2102 0.962 . S
H2116 C2102 0.960 . S
H2117 C2103 0.961 . S
H2118 C2103 0.961 . S
H2119 C2103 0.961 . S
H2120 C2104 0.931 . S
H2121 C2109 0.930 . S
H2122 C2110 0.956 . S
H2123 C2110 0.961 . S
H2124 C2110 0.961 . S
H2125 C2111 0.958 . S
H2126 C2111 0.961 . S
H2127 C2111 0.960 . S
C2128 C2129 1.391 . S
C2128 C2130 1.394 . S
C2128 H2144 0.931 . S
C2129 C2128 1.391 . S
C2129 C2133 1.376 . S
C2130 C2128 1.394 . S
C2130 C2131 1.369 . S
C2130 C2134 1.531 . S
C2131 C2130 1.369 . S
C2131 C2132 1.410 . S
C2131 C2139 1.503 . S
C2132 C2131 1.410 . S
C2132 C2133 1.392 . S
C2132 C2135 1.511 . S
C2133 C2129 1.376 . S
C2133 C2132 1.392 . S
C2133 H2145 0.929 . S
C2134 C2130 1.531 . S
C2134 H2146 0.960 . S
C2134 H2147 0.962 . S
C2134 H2148 0.960 . S
C2135 C2132 1.511 . S
C2135 H2149 0.961 . S
C2135 H2150 0.961 . S
C2135 H2151 0.961 . S
C2136 C2137 1.370 . S
C2136 C2138 1.363 . S
C2136 H2152 0.931 . S
C2137 C2136 1.370 . S
C2137 C2141 1.408 . S
C2138 C2136 1.363 . S
C2138 C2139 1.370 . S
C2138 C2142 1.524 . S
C2139 C2131 1.503 . S
C2139 C2138 1.370 . S
C2139 C2140 1.403 . S
C2140 C2139 1.403 . S
C2140 C2141 1.404 . S
C2140 C2143 1.539 . S
C2141 C2137 1.408 . S
C2141 C2140 1.404 . S
C2141 H2153 0.930 . S
C2142 C2138 1.524 . S
C2142 H2154 0.956 . S
C2142 H2155 0.961 . S
C2142 H2156 0.961 . S
C2143 C2140 1.539 . S
C2143 H2157 0.958 . S
C2143 H2158 0.961 . S
C2143 H2159 0.960 . S
H2144 C2128 0.931 . S
H2145 C2133 0.929 . S
H2146 C2134 0.960 . S
H2147 C2134 0.962 . S
H2148 C2134 0.960 . S
H2149 C2135 0.961 . S
H2150 C2135 0.961 . S
H2151 C2135 0.961 . S
H2152 C2136 0.931 . S
H2153 C2141 0.930 . S
H2154 C2142 0.956 . S
H2155 C2142 0.961 . S
H2156 C2142 0.961 . S
H2157 C2143 0.958 . S
H2158 C2143 0.961 . S
H2159 C2143 0.960 . S
C2160 C2161 1.391 . S
C2160 C2162 1.394 . S
C2160 H2176 0.931 . S
C2161 C2160 1.391 . S
C2161 C2165 1.376 . S
C2162 C2160 1.394 . S
C2162 C2163 1.369 . S
C2162 C2166 1.531 . S
C2163 C2162 1.369 . S
C2163 C2164 1.410 . S
C2163 C2171 1.503 . S
C2164 C2163 1.410 . S
C2164 C2165 1.392 . S
C2164 C2167 1.511 . S
C2165 C2161 1.376 . S
C2165 C2164 1.392 . S
C2165 H2177 0.929 . S
C2166 C2162 1.531 . S
C2166 H2178 0.960 . S
C2166 H2179 0.962 . S
C2166 H2180 0.960 . S
C2167 C2164 1.511 . S
C2167 H2181 0.961 . S
C2167 H2182 0.961 . S
C2167 H2183 0.961 . S
C2168 C2169 1.370 . S
C2168 C2170 1.363 . S
C2168 H2184 0.931 . S
C2169 C2168 1.370 . S
C2169 C2173 1.408 . S
C2170 C2168 1.363 . S
C2170 C2171 1.370 . S
C2170 C2174 1.524 . S
C2171 C2163 1.503 . S
C2171 C2170 1.370 . S
C2171 C2172 1.403 . S
C2172 C2171 1.403 . S
C2172 C2173 1.404 . S
C2172 C2175 1.539 . S
C2173 C2169 1.408 . S
C2173 C2172 1.404 . S
C2173 H2185 0.930 . S
C2174 C2170 1.524 . S
C2174 H2186 0.956 . S
C2174 H2187 0.961 . S
C2174 H2188 0.961 . S
C2175 C2172 1.539 . S
C2175 H2189 0.958 . S
C2175 H2190 0.961 . S
C2175 H2191 0.960 . S
H2176 C2160 0.931 . S
H2177 C2165 0.929 . S
H2178 C2166 0.960 . S
H2179 C2166 0.962 . S
H2180 C2166 0.960 . S
H2181 C2167 0.961 . S
H2182 C2167 0.961 . S
H2183 C2167 0.961 . S
H2184 C2168 0.931 . S
H2185 C2173 0.930 . S
H2186 C2174 0.956 . S
H2187 C2174 0.961 . S
H2188 C2174 0.961 . S
H2189 C2175 0.958 . S
H2190 C2175 0.961 . S
H2191 C2175 0.960 . S
C2192 C2193 1.391 . S
C2192 C2194 1.394 . S
C2192 H2208 0.931 . S
C2193 C2192 1.391 . S
C2193 C2197 1.376 . S
C2194 C2192 1.394 . S
C2194 C2195 1.369 . S
C2194 C2198 1.531 . S
C2195 C2194 1.369 . S
C2195 C2196 1.410 . S
C2195 C2203 1.503 . S
C2196 C2195 1.410 . S
C2196 C2197 1.392 . S
C2196 C2199 1.511 1_565 S
C2197 C2193 1.376 . S
C2197 C2196 1.392 . S
C2197 H2209 0.929 . S
C2198 C2194 1.531 . S
C2198 H2210 0.960 . S
C2198 H2211 0.962 . S
C2198 H2212 0.960 . S
C2199 C2196 1.511 1_545 S
C2199 H2213 0.961 . S
C2199 H2214 0.961 . S
C2199 H2215 0.961 . S
C2200 C2201 1.370 1_565 S
C2200 C2202 1.363 . S
C2200 H2216 0.931 1_554 S
C2201 C2200 1.370 1_545 S
C2201 C2205 1.408 . S
C2202 C2200 1.363 . S
C2202 C2203 1.370 . S
C2202 C2206 1.524 1_554 S
C2203 C2195 1.503 . S
C2203 C2202 1.370 . S
C2203 C2204 1.385 1_565 S
C2204 C2203 1.385 1_545 S
C2204 C2205 1.430 . S
C2204 C2207 1.536 . S
C2205 C2201 1.408 . S
C2205 C2204 1.430 . S
C2205 H2217 0.930 . S
C2206 C2202 1.524 1_556 S
C2206 H2218 0.956 . S
C2206 H2219 0.961 . S
C2206 H2220 0.961 . S
C2207 C2204 1.536 . S
C2207 H2221 0.958 1_545 S
C2207 H2222 0.961 . S
C2207 H2223 0.960 . S
H2208 C2192 0.931 . S
H2209 C2197 0.929 . S
H2210 C2198 0.960 . S
H2211 C2198 0.962 . S
H2212 C2198 0.960 . S
H2213 C2199 0.961 . S
H2214 C2199 0.961 . S
H2215 C2199 0.961 . S
H2216 C2200 0.931 1_556 S
H2217 C2205 0.930 . S
H2218 C2206 0.956 . S
H2219 C2206 0.961 . S
H2220 C2206 0.961 . S
H2221 C2207 0.958 1_565 S
H2222 C2207 0.961 . S
H2223 C2207 0.960 . S
C2224 C2225 1.391 1_554 S
C2224 C2226 1.394 . S
C2224 H2240 0.931 . S
C2225 C2224 1.391 1_556 S
C2225 C2229 1.376 . S
C2226 C2224 1.394 . S
C2226 C2227 1.369 . S
C2226 C2230 1.531 . S
C2227 C2226 1.369 . S
C2227 C2228 1.414 . S
C2227 C2235 1.503 . S
C2228 C2227 1.414 . S
C2228 C2229 1.388 1_554 S
C2228 C2231 1.510 1_554 S
C2229 C2225 1.376 . S
C2229 C2228 1.388 1_556 S
C2229 H2241 0.929 . S
C2230 C2226 1.531 . S
C2230 H2242 0.960 . S
C2230 H2243 0.962 1_554 S
C2230 H2244 0.960 . S
C2231 C2228 1.510 1_556 S
C2231 H2245 0.964 . S
C2231 H2246 0.962 . S
C2231 H2247 0.957 1_556 S
C2232 C2233 1.326 1_556 S
C2232 C2234 1.363 . S
C2232 H2248 0.931 . S
C2233 C2232 1.326 1_554 S
C2233 C2237 1.447 . S
C2234 C2232 1.363 . S
C2234 C2235 1.370 1_556 S
C2234 C2238 1.524 . S
C2235 C2227 1.503 . S
C2235 C2234 1.370 1_554 S
C2235 C2236 1.403 . S
C2236 C2235 1.403 . S
C2236 C2237 1.404 . S
C2236 C2239 1.539 . S
C2237 C2233 1.447 . S
C2237 C2236 1.404 . S
C2237 H2249 0.930 . S
C2238 C2234 1.524 . S
C2238 H2250 0.956 . S
C2238 H2251 0.961 . S
C2238 H2252 0.961 . S
C2239 C2236 1.539 . S
C2239 H2253 0.958 . S
C2239 H2254 0.961 . S
C2239 H2255 0.960 . S
H2240 C2224 0.931 . S
H2241 C2229 0.929 . S
H2242 C2230 0.960 . S
H2243 C2230 0.962 1_556 S
H2244 C2230 0.960 . S
H2245 C2231 0.964 . S
H2246 C2231 0.962 . S
H2247 C2231 0.957 1_554 S
H2248 C2232 0.931 . S
H2249 C2237 0.930 . S
H2250 C2238 0.956 . S
H2251 C2238 0.961 . S
H2252 C2238 0.961 . S
H2253 C2239 0.958 . S
H2254 C2239 0.961 . S
H2255 C2239 0.960 . S
C2256 C2257 1.391 . S
C2256 C2258 1.394 . S
C2256 H2272 0.931 . S
C2257 C2256 1.391 . S
C2257 C2261 1.376 . S
C2258 C2256 1.394 . S
C2258 C2259 1.369 . S
C2258 C2262 1.531 . S
C2259 C2258 1.369 . S
C2259 C2260 1.410 . S
C2259 C2267 1.503 . S
C2260 C2259 1.410 . S
C2260 C2261 1.392 . S
C2260 C2263 1.511 . S
C2261 C2257 1.376 . S
C2261 C2260 1.392 . S
C2261 H2273 0.929 . S
C2262 C2258 1.531 . S
C2262 H2274 0.960 . S
C2262 H2275 0.962 . S
C2262 H2276 0.960 . S
C2263 C2260 1.511 . S
C2263 H2277 0.961 . S
C2263 H2278 0.961 . S
C2263 H2279 0.961 . S
C2264 C2265 1.370 . S
C2264 C2266 1.363 . S
C2264 H2280 0.931 . S
C2265 C2264 1.370 . S
C2265 C2269 1.408 . S
C2266 C2264 1.363 . S
C2266 C2267 1.370 . S
C2266 C2270 1.524 . S
C2267 C2259 1.503 . S
C2267 C2266 1.370 . S
C2267 C2268 1.403 . S
C2268 C2267 1.403 . S
C2268 C2269 1.404 . S
C2268 C2271 1.539 . S
C2269 C2265 1.408 . S
C2269 C2268 1.404 . S
C2269 H2281 0.930 . S
C2270 C2266 1.524 . S
C2270 H2282 0.956 . S
C2270 H2283 0.961 . S
C2270 H2284 0.961 . S
C2271 C2268 1.539 . S
C2271 H2285 0.958 . S
C2271 H2286 0.961 . S
C2271 H2287 0.960 . S
H2272 C2256 0.931 . S
H2273 C2261 0.929 . S
H2274 C2262 0.960 . S
H2275 C2262 0.962 . S
H2276 C2262 0.960 . S
H2277 C2263 0.961 . S
H2278 C2263 0.961 . S
H2279 C2263 0.961 . S
H2280 C2264 0.931 . S
H2281 C2269 0.930 . S
H2282 C2270 0.956 . S
H2283 C2270 0.961 . S
H2284 C2270 0.961 . S
H2285 C2271 0.958 . S
H2286 C2271 0.961 . S
H2287 C2271 0.960 . S
C2288 C2289 1.391 . S
C2288 C2290 1.394 . S
C2288 H2304 0.931 . S
C2289 C2288 1.391 . S
C2289 C2293 1.376 . S
C2290 C2288 1.394 . S
C2290 C2291 1.369 . S
C2290 C2294 1.531 . S
C2291 C2290 1.369 . S
C2291 C2292 1.410 . S
C2291 C2299 1.503 . S
C2292 C2291 1.410 . S
C2292 C2293 1.392 . S
C2292 C2295 1.511 . S
C2293 C2289 1.376 . S
C2293 C2292 1.392 . S
C2293 H2305 0.929 . S
C2294 C2290 1.531 . S
C2294 H2306 0.960 . S
C2294 H2307 0.962 . S
C2294 H2308 0.960 . S
C2295 C2292 1.511 . S
C2295 H2309 0.961 . S
C2295 H2310 0.961 . S
C2295 H2311 0.961 . S
C2296 C2297 1.370 1_655 S
C2296 C2298 1.363 . S
C2296 H2312 0.931 1_655 S
C2297 C2296 1.370 1_455 S
C2297 C2301 1.408 1_455 S
C2298 C2296 1.363 . S
C2298 C2299 1.370 . S
C2298 C2302 1.524 . S
C2299 C2291 1.503 . S
C2299 C2298 1.370 . S
C2299 C2300 1.403 . S
C2300 C2299 1.403 . S
C2300 C2301 1.404 . S
C2300 C2303 1.539 . S
C2301 C2297 1.408 1_655 S
C2301 C2300 1.404 . S
C2301 H2313 0.930 1_655 S
C2302 C2298 1.524 . S
C2302 H2314 0.956 . S
C2302 H2315 0.961 . S
C2302 H2316 0.961 . S
C2303 C2300 1.539 . S
C2303 H2317 0.958 . S
C2303 H2318 0.961 . S
C2303 H2319 0.960 . S
H2304 C2288 0.931 . S
H2305 C2293 0.929 . S
H2306 C2294 0.960 . S
H2307 C2294 0.962 . S
H2308 C2294 0.960 . S
H2309 C2295 0.961 . S
H2310 C2295 0.961 . S
H2311 C2295 0.961 . S
H2312 C2296 0.931 1_455 S
H2313 C2301 0.930 1_455 S
H2314 C2302 0.956 . S
H2315 C2302 0.961 . S
H2316 C2302 0.961 . S
H2317 C2303 0.958 . S
H2318 C2303 0.961 . S
H2319 C2303 0.960 . S
C2320 C2321 1.391 . S
C2320 C2322 1.394 . S
C2320 H2336 0.931 . S
C2321 C2320 1.391 . S
C2321 C2325 1.376 . S
C2322 C2320 1.394 . S
C2322 C2323 1.369 . S
C2322 C2326 1.531 . S
C2323 C2322 1.369 . S
C2323 C2324 1.410 . S
C2323 C2331 1.503 . S
C2324 C2323 1.410 . S
C2324 C2325 1.392 . S
C2324 C2327 1.511 . S
C2325 C2321 1.376 . S
C2325 C2324 1.392 . S
C2325 H2337 0.929 . S
C2326 C2322 1.531 . S
C2326 H2338 0.960 . S
C2326 H2339 0.962 . S
C2326 H2340 0.960 . S
C2327 C2324 1.511 . S
C2327 H2341 0.961 . S
C2327 H2342 0.961 . S
C2327 H2343 0.961 . S
C2328 C2329 1.370 . S
C2328 C2330 1.363 . S
C2328 H2344 0.931 . S
C2329 C2328 1.370 . S
C2329 C2333 1.408 . S
C2330 C2328 1.363 . S
C2330 C2331 1.370 . S
C2330 C2334 1.524 . S
C2331 C2323 1.503 . S
C2331 C2330 1.370 . S
C2331 C2332 1.403 . S
C2332 C2331 1.403 . S
C2332 C2333 1.404 . S
C2332 C2335 1.539 . S
C2333 C2329 1.408 . S
C2333 C2332 1.404 . S
C2333 H2345 0.930 . S
C2334 C2330 1.524 . S
C2334 H2346 0.956 . S
C2334 H2347 0.961 . S
C2334 H2348 0.961 . S
C2335 C2332 1.539 . S
C2335 H2349 0.958 . S
C2335 H2350 0.961 . S
C2335 H2351 0.960 . S
H2336 C2320 0.931 . S
H2337 C2325 0.929 . S
H2338 C2326 0.960 . S
H2339 C2326 0.962 . S
H2340 C2326 0.960 . S
H2341 C2327 0.961 . S
H2342 C2327 0.961 . S
H2343 C2327 0.961 . S
H2344 C2328 0.931 . S
H2345 C2333 0.930 . S
H2346 C2334 0.956 . S
H2347 C2334 0.961 . S
H2348 C2334 0.961 . S
H2349 C2335 0.958 . S
H2350 C2335 0.961 . S
H2351 C2335 0.960 . S
C2352 C2353 1.391 . S
C2352 C2354 1.394 . S
C2352 H2368 0.931 . S
C2353 C2352 1.391 . S
C2353 C2357 1.376 . S
C2354 C2352 1.394 . S
C2354 C2355 1.369 . S
C2354 C2358 1.531 . S
C2355 C2354 1.369 . S
C2355 C2356 1.410 . S
C2355 C2363 1.503 . S
C2356 C2355 1.410 . S
C2356 C2357 1.392 . S
C2356 C2359 1.511 . S
C2357 C2353 1.376 . S
C2357 C2356 1.392 . S
C2357 H2369 0.929 . S
C2358 C2354 1.531 . S
C2358 H2370 0.960 . S
C2358 H2371 0.962 . S
C2358 H2372 0.960 . S
C2359 C2356 1.511 . S
C2359 H2373 0.961 . S
C2359 H2374 0.961 . S
C2359 H2375 0.961 . S
C2360 C2361 1.370 . S
C2360 C2362 1.363 . S
C2360 H2376 0.931 . S
C2361 C2360 1.370 . S
C2361 C2365 1.408 . S
C2362 C2360 1.363 . S
C2362 C2363 1.370 . S
C2362 C2366 1.524 . S
C2363 C2355 1.503 . S
C2363 C2362 1.370 . S
C2363 C2364 1.403 . S
C2364 C2363 1.403 . S
C2364 C2365 1.404 . S
C2364 C2367 1.539 . S
C2365 C2361 1.408 . S
C2365 C2364 1.404 . S
C2365 H2377 0.930 . S
C2366 C2362 1.524 . S
C2366 H2378 0.956 . S
C2366 H2379 0.961 . S
C2366 H2380 0.961 . S
C2367 C2364 1.539 . S
C2367 H2381 0.958 . S
C2367 H2382 0.961 . S
C2367 H2383 0.960 . S
H2368 C2352 0.931 . S
H2369 C2357 0.929 . S
H2370 C2358 0.960 . S
H2371 C2358 0.962 . S
H2372 C2358 0.960 . S
H2373 C2359 0.961 . S
H2374 C2359 0.961 . S
H2375 C2359 0.961 . S
H2376 C2360 0.931 . S
H2377 C2365 0.930 . S
H2378 C2366 0.956 . S
H2379 C2366 0.961 . S
H2380 C2366 0.961 . S
H2381 C2367 0.958 . S
H2382 C2367 0.961 . S
H2383 C2367 0.960 . S
C2384 C2385 1.391 . S
C2384 C2386 1.394 . S
C2384 H2400 0.931 . S
C2385 C2384 1.391 . S
C2385 C2389 1.376 . S
C2386 C2384 1.394 . S
C2386 C2387 1.369 . S
C2386 C2390 1.531 . S
C2387 C2386 1.369 . S
C2387 C2388 1.410 . S
C2387 C2395 1.503 . S
C2388 C2387 1.410 . S
C2388 C2389 1.392 . S
C2388 C2391 1.511 . S
C2389 C2385 1.376 . S
C2389 C2388 1.392 . S
C2389 H2401 0.929 . S
C2390 C2386 1.531 . S
C2390 H2402 0.960 . S
C2390 H2403 0.962 . S
C2390 H2404 0.960 . S
C2391 C2388 1.511 . S
C2391 H2405 0.961 . S
C2391 H2406 0.961 . S
C2391 H2407 0.961 . S
C2392 C2393 1.370 . S
C2392 C2394 1.363 . S
C2392 H2408 0.931 . S
C2393 C2392 1.370 . S
C2393 C2397 1.408 . S
C2394 C2392 1.363 . S
C2394 C2395 1.370 . S
C2394 C2398 1.524 . S
C2395 C2387 1.503 . S
C2395 C2394 1.370 . S
C2395 C2396 1.403 . S
C2396 C2395 1.403 . S
C2396 C2397 1.404 . S
C2396 C2399 1.539 . S
C2397 C2393 1.408 . S
C2397 C2396 1.404 . S
C2397 H2409 0.930 . S
C2398 C2394 1.524 . S
C2398 H2410 0.956 . S
C2398 H2411 0.961 . S
C2398 H2412 0.961 . S
C2399 C2396 1.539 . S
C2399 H2413 0.958 . S
C2399 H2414 0.961 . S
C2399 H2415 0.960 . S
H2400 C2384 0.931 . S
H2401 C2389 0.929 . S
H2402 C2390 0.960 . S
H2403 C2390 0.962 . S
H2404 C2390 0.960 . S
H2405 C2391 0.961 . S
H2406 C2391 0.961 . S
H2407 C2391 0.961 . S
H2408 C2392 0.931 . S
H2409 C2397 0.930 . S
H2410 C2398 0.956 . S
H2411 C2398 0.961 . S
H2412 C2398 0.961 . S
H2413 C2399 0.958 . S
H2414 C2399 0.961 . S
H2415 C2399 0.960 . S
C2416 C2417 1.391 . S
C2416 C2418 1.394 . S
C2416 H2432 0.931 . S
C2417 C2416 1.391 . S
C2417 C2421 1.376 . S
C2418 C2416 1.394 . S
C2418 C2419 1.369 . S
C2418 C2422 1.531 . S
C2419 C2418 1.369 . S
C2419 C2420 1.410 . S
C2419 C2427 1.503 . S
C2420 C2419 1.410 . S
C2420 C2421 1.392 . S
C2420 C2423 1.511 . S
C2421 C2417 1.376 . S
C2421 C2420 1.392 . S
C2421 H2433 0.929 . S
C2422 C2418 1.531 . S
C2422 H2434 0.960 . S
C2422 H2435 0.962 . S
C2422 H2436 0.960 . S
C2423 C2420 1.511 . S
C2423 H2437 0.961 . S
C2423 H2438 0.961 . S
C2423 H2439 0.961 . S
C2424 C2425 1.370 . S
C2424 C2426 1.363 . S
C2424 H2440 0.931 . S
C2425 C2424 1.370 . S
C2425 C2429 1.408 . S
C2426 C2424 1.363 . S
C2426 C2427 1.370 . S
C2426 C2430 1.524 . S
C2427 C2419 1.503 . S
C2427 C2426 1.370 . S
C2427 C2428 1.403 . S
C2428 C2427 1.403 . S
C2428 C2429 1.404 . S
C2428 C2431 1.539 . S
C2429 C2425 1.408 . S
C2429 C2428 1.404 . S
C2429 H2441 0.930 . S
C2430 C2426 1.524 . S
C2430 H2442 0.956 . S
C2430 H2443 0.961 . S
C2430 H2444 0.961 . S
C2431 C2428 1.539 . S
C2431 H2445 0.958 . S
C2431 H2446 0.961 . S
C2431 H2447 0.960 . S
H2432 C2416 0.931 . S
H2433 C2421 0.929 . S
H2434 C2422 0.960 . S
H2435 C2422 0.962 . S
H2436 C2422 0.960 . S
H2437 C2423 0.961 . S
H2438 C2423 0.961 . S
H2439 C2423 0.961 . S
H2440 C2424 0.931 . S
H2441 C2429 0.930 . S
H2442 C2430 0.956 . S
H2443 C2430 0.961 . S
H2444 C2430 0.961 . S
H2445 C2431 0.958 . S
H2446 C2431 0.961 . S
H2447 C2431 0.960 . S
C2448 C2449 1.391 . S
C2448 C2450 1.394 . S
C2448 H2464 0.931 . S
C2449 C2448 1.391 . S
C2449 C2453 1.376 . S
C2450 C2448 1.394 . S
C2450 C2451 1.369 . S
C2450 C2454 1.531 . S
C2451 C2450 1.369 . S
C2451 C2452 1.410 . S
C2451 C2459 1.503 . S
C2452 C2451 1.410 . S
C2452 C2453 1.392 . S
C2452 C2455 1.511 . S
C2453 C2449 1.376 . S
C2453 C2452 1.392 . S
C2453 H2465 0.929 . S
C2454 C2450 1.531 . S
C2454 H2466 0.960 . S
C2454 H2467 0.962 . S
C2454 H2468 0.960 . S
C2455 C2452 1.511 . S
C2455 H2469 0.961 . S
C2455 H2470 0.961 . S
C2455 H2471 0.961 . S
C2456 C2457 1.370 . S
C2456 C2458 1.363 . S
C2456 H2472 0.931 . S
C2457 C2456 1.370 . S
C2457 C2461 1.408 . S
C2458 C2456 1.363 . S
C2458 C2459 1.370 . S
C2458 C2462 1.524 . S
C2459 C2451 1.503 . S
C2459 C2458 1.370 . S
C2459 C2460 1.403 . S
C2460 C2459 1.403 . S
C2460 C2461 1.404 . S
C2460 C2463 1.539 . S
C2461 C2457 1.408 . S
C2461 C2460 1.404 . S
C2461 H2473 0.930 . S
C2462 C2458 1.524 . S
C2462 H2474 0.956 . S
C2462 H2475 0.961 . S
C2462 H2476 0.961 . S
C2463 C2460 1.539 . S
C2463 H2477 0.958 . S
C2463 H2478 0.961 1_554 S
C2463 H2479 0.960 . S
H2464 C2448 0.931 . S
H2465 C2453 0.929 . S
H2466 C2454 0.960 . S
H2467 C2454 0.962 . S
H2468 C2454 0.960 . S
H2469 C2455 0.961 . S
H2470 C2455 0.961 . S
H2471 C2455 0.961 . S
H2472 C2456 0.931 . S
H2473 C2461 0.930 . S
H2474 C2462 0.956 . S
H2475 C2462 0.961 . S
H2476 C2462 0.961 . S
H2477 C2463 0.958 . S
H2478 C2463 0.961 1_556 S
H2479 C2463 0.960 . S
C2480 C2481 1.391 . S
C2480 C2482 1.394 . S
C2480 H2496 0.931 . S
C2481 C2480 1.391 . S
C2481 C2485 1.376 . S
C2482 C2480 1.394 . S
C2482 C2483 1.369 . S
C2482 C2486 1.531 . S
C2483 C2482 1.369 . S
C2483 C2484 1.410 . S
C2483 C2491 1.503 . S
C2484 C2483 1.410 . S
C2484 C2485 1.392 . S
C2484 C2487 1.511 . S
C2485 C2481 1.376 . S
C2485 C2484 1.392 . S
C2485 H2497 0.929 . S
C2486 C2482 1.531 . S
C2486 H2498 0.960 . S
C2486 H2499 0.962 . S
C2486 H2500 0.960 . S
C2487 C2484 1.511 . S
C2487 H2501 0.961 . S
C2487 H2502 0.961 . S
C2487 H2503 0.961 . S
C2488 C2489 1.370 . S
C2488 C2490 1.363 . S
C2488 H2504 0.931 . S
C2489 C2488 1.370 . S
C2489 C2493 1.408 . S
C2490 C2488 1.363 . S
C2490 C2491 1.370 . S
C2490 C2494 1.524 . S
C2491 C2483 1.503 . S
C2491 C2490 1.370 . S
C2491 C2492 1.403 . S
C2492 C2491 1.403 . S
C2492 C2493 1.404 . S
C2492 C2495 1.539 . S
C2493 C2489 1.408 . S
C2493 C2492 1.404 . S
C2493 H2505 0.930 . S
C2494 C2490 1.524 . S
C2494 H2506 0.956 . S
C2494 H2507 0.961 . S
C2494 H2508 0.961 . S
C2495 C2492 1.539 . S
C2495 H2509 0.958 . S
C2495 H2510 0.961 . S
C2495 H2511 0.960 . S
H2496 C2480 0.931 . S
H2497 C2485 0.929 . S
H2498 C2486 0.960 . S
H2499 C2486 0.962 . S
H2500 C2486 0.960 . S
H2501 C2487 0.961 . S
H2502 C2487 0.961 . S
H2503 C2487 0.961 . S
H2504 C2488 0.931 . S
H2505 C2493 0.930 . S
H2506 C2494 0.956 . S
H2507 C2494 0.961 . S
H2508 C2494 0.961 . S
H2509 C2495 0.958 . S
H2510 C2495 0.961 . S
H2511 C2495 0.960 . S
C2512 C2513 1.391 . S
C2512 C2514 1.394 . S
C2512 H2528 0.931 . S
C2513 C2512 1.391 . S
C2513 C2517 1.376 . S
C2514 C2512 1.394 . S
C2514 C2515 1.369 . S
C2514 C2518 1.531 . S
C2515 C2514 1.369 . S
C2515 C2516 1.410 . S
C2515 C2523 1.503 . S
C2516 C2515 1.410 . S
C2516 C2517 1.392 . S
C2516 C2519 1.511 . S
C2517 C2513 1.376 . S
C2517 C2516 1.392 . S
C2517 H2529 0.929 . S
C2518 C2514 1.531 . S
C2518 H2530 0.960 . S
C2518 H2531 0.962 . S
C2518 H2532 0.960 . S
C2519 C2516 1.511 . S
C2519 H2533 0.961 . S
C2519 H2534 0.961 . S
C2519 H2535 0.961 . S
C2520 C2521 1.370 . S
C2520 C2522 1.363 . S
C2520 H2536 0.931 . S
C2521 C2520 1.370 . S
C2521 C2525 1.408 . S
C2522 C2520 1.363 . S
C2522 C2523 1.370 . S
C2522 C2526 1.524 . S
C2523 C2515 1.503 . S
C2523 C2522 1.370 . S
C2523 C2524 1.403 . S
C2524 C2523 1.403 . S
C2524 C2525 1.404 . S
C2524 C2527 1.539 . S
C2525 C2521 1.408 . S
C2525 C2524 1.404 . S
C2525 H2537 0.930 . S
C2526 C2522 1.524 . S
C2526 H2538 0.956 . S
C2526 H2539 0.961 . S
C2526 H2540 0.961 . S
C2527 C2524 1.539 . S
C2527 H2541 0.958 . S
C2527 H2542 0.961 . S
C2527 H2543 0.960 . S
H2528 C2512 0.931 . S
H2529 C2517 0.929 . S
H2530 C2518 0.960 . S
H2531 C2518 0.962 . S
H2532 C2518 0.960 . S
H2533 C2519 0.961 . S
H2534 C2519 0.961 . S
H2535 C2519 0.961 . S
H2536 C2520 0.931 . S
H2537 C2525 0.930 . S
H2538 C2526 0.956 . S
H2539 C2526 0.961 . S
H2540 C2526 0.961 . S
H2541 C2527 0.958 . S
H2542 C2527 0.961 . S
H2543 C2527 0.960 . S
C2544 C2545 1.391 . S
C2544 C2546 1.394 . S
C2544 H2560 0.931 . S
C2545 C2544 1.391 . S
C2545 C2549 1.376 . S
C2546 C2544 1.394 . S
C2546 C2547 1.369 . S
C2546 C2550 1.531 . S
C2547 C2546 1.369 . S
C2547 C2548 1.410 . S
C2547 C2555 1.503 . S
C2548 C2547 1.410 . S
C2548 C2549 1.392 . S
C2548 C2551 1.511 . S
C2549 C2545 1.376 . S
C2549 C2548 1.392 . S
C2549 H2561 0.929 . S
C2550 C2546 1.531 . S
C2550 H2562 0.960 . S
C2550 H2563 0.962 . S
C2550 H2564 0.960 . S
C2551 C2548 1.511 . S
C2551 H2565 0.961 . S
C2551 H2566 0.961 . S
C2551 H2567 0.961 . S
C2552 C2553 1.370 . S
C2552 C2554 1.363 . S
C2552 H2568 0.931 . S
C2553 C2552 1.370 . S
C2553 C2557 1.408 . S
C2554 C2552 1.363 . S
C2554 C2555 1.370 . S
C2554 C2558 1.524 . S
C2555 C2547 1.503 . S
C2555 C2554 1.370 . S
C2555 C2556 1.403 . S
C2556 C2555 1.403 . S
C2556 C2557 1.404 . S
C2556 C2559 1.539 . S
C2557 C2553 1.408 . S
C2557 C2556 1.404 . S
C2557 H2569 0.930 . S
C2558 C2554 1.524 . S
C2558 H2570 0.956 . S
C2558 H2571 0.961 . S
C2558 H2572 0.961 . S
C2559 C2556 1.539 . S
C2559 H2573 0.958 . S
C2559 H2574 0.961 . S
C2559 H2575 0.960 . S
H2560 C2544 0.931 . S
H2561 C2549 0.929 . S
H2562 C2550 0.960 . S
H2563 C2550 0.962 . S
H2564 C2550 0.960 . S
H2565 C2551 0.961 . S
H2566 C2551 0.961 . S
H2567 C2551 0.961 . S
H2568 C2552 0.931 . S
H2569 C2557 0.930 . S
H2570 C2558 0.956 . S
H2571 C2558 0.961 . S
H2572 C2558 0.961 . S
H2573 C2559 0.958 . S
H2574 C2559 0.961 . S
H2575 C2559 0.960 . S
C2576 C2577 1.391 . S
C2576 C2578 1.394 . S
C2576 H2592 0.931 . S
C2577 C2576 1.391 . S
C2577 C2581 1.376 . S
C2578 C2576 1.394 . S
C2578 C2579 1.369 . S
C2578 C2582 1.531 . S
C2579 C2578 1.369 . S
C2579 C2580 1.410 . S
C2579 C2587 1.503 . S
C2580 C2579 1.410 . S
C2580 C2581 1.392 . S
C2580 C2583 1.511 . S
C2581 C2577 1.376 . S
C2581 C2580 1.392 . S
C2581 H2593 0.929 . S
C2582 C2578 1.531 . S
C2582 H2594 0.960 . S
C2582 H2595 0.962 . S
C2582 H2596 0.960 . S
C2583 C2580 1.511 . S
C2583 H2597 0.961 . S
C2583 H2598 0.961 . S
C2583 H2599 0.961 . S
C2584 C2585 1.370 . S
C2584 C2586 1.363 . S
C2584 H2600 0.931 . S
C2585 C2584 1.370 . S
C2585 C2589 1.408 . S
C2586 C2584 1.363 . S
C2586 C2587 1.370 . S
C2586 C2590 1.524 . S
C2587 C2579 1.503 . S
C2587 C2586 1.370 . S
C2587 C2588 1.403 . S
C2588 C2587 1.403 . S
C2588 C2589 1.404 . S
C2588 C2591 1.539 . S
C2589 C2585 1.408 . S
C2589 C2588 1.404 . S
C2589 H2601 0.930 . S
C2590 C2586 1.524 . S
C2590 H2602 0.956 . S
C2590 H2603 0.961 . S
C2590 H2604 0.961 . S
C2591 C2588 1.539 . S
C2591 H2605 0.958 . S
C2591 H2606 0.961 . S
C2591 H2607 0.960 . S
H2592 C2576 0.931 . S
H2593 C2581 0.929 . S
H2594 C2582 0.960 . S
H2595 C2582 0.962 . S
H2596 C2582 0.960 . S
H2597 C2583 0.961 . S
H2598 C2583 0.961 . S
H2599 C2583 0.961 . S
H2600 C2584 0.931 . S
H2601 C2589 0.930 . S
H2602 C2590 0.956 . S
H2603 C2590 0.961 . S
H2604 C2590 0.961 . S
H2605 C2591 0.958 . S
H2606 C2591 0.961 . S
H2607 C2591 0.960 . S
C2608 C2609 1.391 . S
C2608 C2610 1.394 . S
C2608 H2624 0.931 . S
C2609 C2608 1.391 . S
C2609 C2613 1.376 . S
C2610 C2608 1.394 . S
C2610 C2611 1.369 . S
C2610 C2614 1.531 . S
C2611 C2610 1.369 . S
C2611 C2612 1.410 . S
C2611 C2619 1.503 . S
C2612 C2611 1.410 . S
C2612 C2613 1.392 . S
C2612 C2615 1.511 . S
C2613 C2609 1.376 . S
C2613 C2612 1.392 . S
C2613 H2625 0.929 . S
C2614 C2610 1.531 . S
C2614 H2626 0.960 . S
C2614 H2627 0.962 . S
C2614 H2628 0.960 . S
C2615 C2612 1.511 . S
C2615 H2629 0.961 . S
C2615 H2630 0.961 . S
C2615 H2631 0.961 . S
C2616 C2617 1.370 . S
C2616 C2618 1.363 . S
C2616 H2632 0.931 . S
C2617 C2616 1.370 . S
C2617 C2621 1.408 . S
C2618 C2616 1.363 . S
C2618 C2619 1.370 . S
C2618 C2622 1.524 . S
C2619 C2611 1.503 . S
C2619 C2618 1.370 . S
C2619 C2620 1.403 . S
C2620 C2619 1.403 . S
C2620 C2621 1.404 . S
C2620 C2623 1.539 . S
C2621 C2617 1.408 . S
C2621 C2620 1.404 . S
C2621 H2633 0.930 . S
C2622 C2618 1.524 . S
C2622 H2634 0.956 . S
C2622 H2635 0.961 . S
C2622 H2636 0.961 . S
C2623 C2620 1.539 . S
C2623 H2637 0.958 . S
C2623 H2638 0.961 . S
C2623 H2639 0.960 . S
H2624 C2608 0.931 . S
H2625 C2613 0.929 . S
H2626 C2614 0.960 . S
H2627 C2614 0.962 . S
H2628 C2614 0.960 . S
H2629 C2615 0.961 . S
H2630 C2615 0.961 . S
H2631 C2615 0.961 . S
H2632 C2616 0.931 . S
H2633 C2621 0.930 . S
H2634 C2622 0.956 . S
H2635 C2622 0.961 . S
H2636 C2622 0.961 . S
H2637 C2623 0.958 . S
H2638 C2623 0.961 . S
H2639 C2623 0.960 . S
C2640 C2641 1.391 . S
C2640 C2642 1.394 . S
C2640 H2656 0.931 . S
C2641 C2640 1.391 . S
C2641 C2645 1.376 . S
C2642 C2640 1.394 . S
C2642 C2643 1.369 . S
C2642 C2646 1.531 . S
C2643 C2642 1.369 . S
C2643 C2644 1.410 . S
C2643 C2651 1.503 . S
C2644 C2643 1.410 . S
C2644 C2645 1.392 . S
C2644 C2647 1.511 . S
C2645 C2641 1.376 . S
C2645 C2644 1.392 . S
C2645 H2657 0.929 . S
C2646 C2642 1.531 . S
C2646 H2658 0.960 . S
C2646 H2659 0.962 . S
C2646 H2660 0.960 . S
C2647 C2644 1.511 . S
C2647 H2661 0.961 . S
C2647 H2662 0.961 . S
C2647 H2663 0.961 . S
C2648 C2649 1.370 . S
C2648 C2650 1.363 . S
C2648 H2664 0.931 1_556 S
C2649 C2648 1.370 . S
C2649 C2653 1.408 . S
C2650 C2648 1.363 . S
C2650 C2651 1.370 . S
C2650 C2654 1.524 . S
C2651 C2643 1.503 . S
C2651 C2650 1.370 . S
C2651 C2652 1.403 . S
C2652 C2651 1.403 . S
C2652 C2653 1.404 . S
C2652 C2655 1.539 . S
C2653 C2649 1.408 . S
C2653 C2652 1.404 . S
C2653 H2665 0.930 1_565 S
C2654 C2650 1.524 . S
C2654 H2666 0.956 . S
C2654 H2667 0.961 . S
C2654 H2668 0.961 . S
C2655 C2652 1.539 . S
C2655 H2669 0.958 . S
C2655 H2670 0.961 . S
C2655 H2671 0.960 . S
H2656 C2640 0.931 . S
H2657 C2645 0.929 . S
H2658 C2646 0.960 . S
H2659 C2646 0.962 . S
H2660 C2646 0.960 . S
H2661 C2647 0.961 . S
H2662 C2647 0.961 . S
H2663 C2647 0.961 . S
H2664 C2648 0.931 1_554 S
H2665 C2653 0.930 1_545 S
H2666 C2654 0.956 . S
H2667 C2654 0.961 . S
H2668 C2654 0.961 . S
H2669 C2655 0.958 . S
H2670 C2655 0.961 . S
H2671 C2655 0.960 . S
C2672 C2673 1.391 . S
C2672 C2674 1.394 . S
C2672 H2688 0.931 . S
C2673 C2672 1.391 . S
C2673 C2677 1.376 . S
C2674 C2672 1.394 . S
C2674 C2675 1.369 . S
C2674 C2678 1.531 . S
C2675 C2674 1.369 . S
C2675 C2676 1.410 . S
C2675 C2683 1.503 . S
C2676 C2675 1.410 . S
C2676 C2677 1.392 . S
C2676 C2679 1.511 . S
C2677 C2673 1.376 . S
C2677 C2676 1.392 . S
C2677 H2689 0.929 . S
C2678 C2674 1.531 . S
C2678 H2690 0.960 . S
C2678 H2691 0.962 . S
C2678 H2692 0.960 . S
C2679 C2676 1.511 . S
C2679 H2693 0.961 . S
C2679 H2694 0.961 . S
C2679 H2695 0.961 . S
C2680 C2681 1.370 . S
C2680 C2682 1.363 . S
C2680 H2696 0.931 . S
C2681 C2680 1.370 . S
C2681 C2685 1.408 . S
C2682 C2680 1.363 . S
C2682 C2683 1.370 . S
C2682 C2686 1.524 . S
C2683 C2675 1.503 . S
C2683 C2682 1.370 . S
C2683 C2684 1.403 . S
C2684 C2683 1.403 . S
C2684 C2685 1.404 . S
C2684 C2687 1.539 . S
C2685 C2681 1.408 . S
C2685 C2684 1.404 . S
C2685 H2697 0.930 . S
C2686 C2682 1.524 . S
C2686 H2698 0.956 . S
C2686 H2699 0.961 . S
C2686 H2700 0.961 . S
C2687 C2684 1.539 . S
C2687 H2701 0.958 . S
C2687 H2702 0.961 . S
C2687 H2703 0.960 . S
H2688 C2672 0.931 . S
H2689 C2677 0.929 . S
H2690 C2678 0.960 . S
H2691 C2678 0.962 . S
H2692 C2678 0.960 . S
H2693 C2679 0.961 . S
H2694 C2679 0.961 . S
H2695 C2679 0.961 . S
H2696 C2680 0.931 . S
H2697 C2685 0.930 . S
H2698 C2686 0.956 . S
H2699 C2686 0.961 . S
H2700 C2686 0.961 . S
H2701 C2687 0.958 . S
H2702 C2687 0.961 . S
H2703 C2687 0.960 . S
C2704 C2705 1.391 . S
C2704 C2706 1.394 . S
C2704 H2720 0.931 . S
C2705 C2704 1.391 . S
C2705 C2709 1.376 1_545 S
C2706 C2704 1.394 . S
C2706 C2707 1.369 . S
C2706 C2710 1.531 . S
C2707 C2706 1.369 . S
C2707 C2708 1.416 . S
C2707 C2715 1.503 . S
C2708 C2707 1.416 . S
C2708 C2709 1.392 1_545 S
C2708 C2711 1.507 1_545 S
C2709 C2705 1.376 1_565 S
C2709 C2708 1.392 1_565 S
C2709 H2721 0.929 . S
C2710 C2706 1.531 . S
C2710 H2722 0.960 . S
C2710 H2723 0.962 . S
C2710 H2724 0.960 . S
C2711 C2708 1.507 1_565 S
C2711 H2725 0.961 . S
C2711 H2726 0.961 . S
C2711 H2727 0.961 1_565 S
C2712 C2713 1.370 1_565 S
C2712 C2714 1.363 . S
C2712 H2728 0.931 . S
C2713 C2712 1.370 1_545 S
C2713 C2717 1.408 . S
C2714 C2712 1.363 . S
C2714 C2715 1.370 1_565 S
C2714 C2718 1.524 . S
C2715 C2707 1.503 . S
C2715 C2714 1.370 1_545 S
C2715 C2716 1.403 . S
C2716 C2715 1.403 . S
C2716 C2717 1.404 . S
C2716 C2719 1.539 . S
C2717 C2713 1.408 . S
C2717 C2716 1.404 . S
C2717 H2729 0.930 . S
C2718 C2714 1.524 . S
C2718 H2730 0.956 . S
C2718 H2731 0.961 . S
C2718 H2732 0.961 . S
C2719 C2716 1.539 . S
C2719 H2733 0.958 . S
C2719 H2734 0.961 . S
C2719 H2735 0.960 . S
H2720 C2704 0.931 . S
H2721 C2709 0.929 . S
H2722 C2710 0.960 . S
H2723 C2710 0.962 . S
H2724 C2710 0.960 . S
H2725 C2711 0.961 . S
H2726 C2711 0.961 . S
H2727 C2711 0.961 1_545 S
H2728 C2712 0.931 . S
H2729 C2717 0.930 . S
H2730 C2718 0.956 . S
H2731 C2718 0.961 . S
H2732 C2718 0.961 . S
H2733 C2719 0.958 . S
H2734 C2719 0.961 . S
H2735 C2719 0.960 . S
C2736 C2737 1.391 . S
C2736 C2738 1.394 . S
C2736 H2752 0.931 . S
C2737 C2736 1.391 . S
C2737 C2741 1.376 . S
C2738 C2736 1.394 . S
C2738 C2739 1.369 . S
C2738 C2742 1.531 . S
C2739 C2738 1.369 . S
C2739 C2740 1.410 . S
C2739 C2747 1.503 . S
C2740 C2739 1.410 . S
C2740 C2741 1.392 . S
C2740 C2743 1.511 . S
C2741 C2737 1.376 . S
C2741 C2740 1.392 . S
C2741 H2753 0.929 . S
C2742 C2738 1.531 . S
C2742 H2754 0.960 . S
C2742 H2755 0.962 . S
C2742 H2756 0.960 . S
C2743 C2740 1.511 . S
C2743 H2757 0.961 . S
C2743 H2758 0.961 . S
C2743 H2759 0.961 . S
C2744 C2745 1.370 . S
C2744 C2746 1.363 . S
C2744 H2760 0.931 . S
C2745 C2744 1.370 . S
C2745 C2749 1.408 . S
C2746 C2744 1.363 . S
C2746 C2747 1.370 . S
C2746 C2750 1.524 . S
C2747 C2739 1.503 . S
C2747 C2746 1.370 . S
C2747 C2748 1.403 . S
C2748 C2747 1.403 . S
C2748 C2749 1.404 . S
C2748 C2751 1.539 . S
C2749 C2745 1.408 . S
C2749 C2748 1.404 . S
C2749 H2761 0.930 . S
C2750 C2746 1.524 . S
C2750 H2762 0.956 . S
C2750 H2763 0.961 . S
C2750 H2764 0.961 . S
C2751 C2748 1.539 . S
C2751 H2765 0.958 . S
C2751 H2766 0.961 . S
C2751 H2767 0.960 . S
H2752 C2736 0.931 . S
H2753 C2741 0.929 . S
H2754 C2742 0.960 . S
H2755 C2742 0.962 . S
H2756 C2742 0.960 . S
H2757 C2743 0.961 . S
H2758 C2743 0.961 . S
H2759 C2743 0.961 . S
H2760 C2744 0.931 . S
H2761 C2749 0.930 . S
H2762 C2750 0.956 . S
H2763 C2750 0.961 . S
H2764 C2750 0.961 . S
H2765 C2751 0.958 . S
H2766 C2751 0.961 . S
H2767 C2751 0.960 . S
C2768 C2769 1.391 . S
C2768 C2770 1.394 . S
C2768 H2784 0.931 . S
C2769 C2768 1.391 . S
C2769 C2773 1.376 . S
C2770 C2768 1.394 . S
C2770 C2771 1.369 . S
C2770 C2774 1.531 . S
C2771 C2770 1.369 . S
C2771 C2772 1.410 . S
C2771 C2779 1.503 . S
C2772 C2771 1.410 . S
C2772 C2773 1.392 . S
C2772 C2775 1.511 . S
C2773 C2769 1.376 . S
C2773 C2772 1.392 . S
C2773 H2785 0.929 . S
C2774 C2770 1.531 . S
C2774 H2786 0.960 . S
C2774 H2787 0.962 . S
C2774 H2788 0.960 . S
C2775 C2772 1.511 . S
C2775 H2789 0.961 . S
C2775 H2790 0.961 . S
C2775 H2791 0.961 . S
C2776 C2777 1.370 . S
C2776 C2778 1.363 . S
C2776 H2792 0.931 . S
C2777 C2776 1.370 . S
C2777 C2781 1.408 . S
C2778 C2776 1.363 . S
C2778 C2779 1.370 . S
C2778 C2782 1.524 1_545 S
C2779 C2771 1.503 . S
C2779 C2778 1.370 . S
C2779 C2780 1.403 . S
C2780 C2779 1.403 . S
C2780 C2781 1.404 . S
C2780 C2783 1.539 . S
C2781 C2777 1.408 . S
C2781 C2780 1.404 . S
C2781 H2793 0.930 . S
C2782 C2778 1.524 1_565 S
C2782 H2794 0.956 . S
C2782 H2795 0.961 . S
C2782 H2796 0.961 . S
C2783 C2780 1.539 . S
C2783 H2797 0.958 . S
C2783 H2798 0.961 . S
C2783 H2799 0.960 . S
H2784 C2768 0.931 . S
H2785 C2773 0.929 . S
H2786 C2774 0.960 . S
H2787 C2774 0.962 . S
H2788 C2774 0.960 . S
H2789 C2775 0.961 . S
H2790 C2775 0.961 . S
H2791 C2775 0.961 . S
H2792 C2776 0.931 . S
H2793 C2781 0.930 . S
H2794 C2782 0.956 . S
H2795 C2782 0.961 . S
H2796 C2782 0.961 . S
H2797 C2783 0.958 . S
H2798 C2783 0.961 . S
H2799 C2783 0.960 . S
C2800 C2801 1.391 . S
C2800 C2802 1.394 . S
C2800 H2816 0.931 . S
C2801 C2800 1.391 . S
C2801 C2805 1.376 . S
C2802 C2800 1.394 . S
C2802 C2803 1.369 . S
C2802 C2806 1.531 . S
C2803 C2802 1.369 . S
C2803 C2804 1.410 . S
C2803 C2811 1.503 . S
C2804 C2803 1.410 . S
C2804 C2805 1.392 . S
C2804 C2807 1.511 . S
C2805 C2801 1.376 . S
C2805 C2804 1.392 . S
C2805 H2817 0.929 . S
C2806 C2802 1.531 . S
C2806 H2818 0.960 . S
C2806 H2819 0.962 . S
C2806 H2820 0.960 . S
C2807 C2804 1.511 . S
C2807 H2821 0.961 . S
C2807 H2822 0.961 . S
C2807 H2823 0.961 . S
C2808 C2809 1.370 . S
C2808 C2810 1.363 . S
C2808 H2824 0.931 . S
C2809 C2808 1.370 . S
C2809 C2813 1.408 . S
C2810 C2808 1.363 . S
C2810 C2811 1.370 . S
C2810 C2814 1.524 . S
C2811 C2803 1.503 . S
C2811 C2810 1.370 . S
C2811 C2812 1.403 . S
C2812 C2811 1.403 . S
C2812 C2813 1.404 . S
C2812 C2815 1.539 . S
C2813 C2809 1.408 . S
C2813 C2812 1.404 . S
C2813 H2825 0.930 . S
C2814 C2810 1.524 . S
C2814 H2826 0.956 . S
C2814 H2827 0.961 . S
C2814 H2828 0.961 . S
C2815 C2812 1.539 . S
C2815 H2829 0.958 . S
C2815 H2830 0.961 . S
C2815 H2831 0.960 . S
H2816 C2800 0.931 . S
H2817 C2805 0.929 . S
H2818 C2806 0.960 . S
H2819 C2806 0.962 . S
H2820 C2806 0.960 . S
H2821 C2807 0.961 . S
H2822 C2807 0.961 . S
H2823 C2807 0.961 . S
H2824 C2808 0.931 . S
H2825 C2813 0.930 . S
H2826 C2814 0.956 . S
H2827 C2814 0.961 . S
H2828 C2814 0.961 . S
H2829 C2815 0.958 . S
H2830 C2815 0.961 . S
H2831 C2815 0.960 . S
C2832 C2833 1.391 . S
C2832 C2834 1.394 . S
C2832 H2848 0.931 . S
C2833 C2832 1.391 . S
C2833 C2837 1.376 1_565 S
C2834 C2832 1.394 . S
C2834 C2835 1.369 1_565 S
C2834 C2838 1.531 . S
C2835 C2834 1.369 1_545 S
C2835 C2836 1.410 . S
C2835 C2843 1.503 . S
C2836 C2835 1.410 . S
C2836 C2837 1.392 . S
C2836 C2839 1.511 . S
C2837 C2833 1.376 1_545 S
C2837 C2836 1.392 . S
C2837 H2849 0.929 . S
C2838 C2834 1.531 . S
C2838 H2850 0.960 . S
C2838 H2851 0.962 . S
C2838 H2852 0.960 . S
C2839 C2836 1.511 . S
C2839 H2853 0.961 . S
C2839 H2854 0.961 . S
C2839 H2855 0.961 . S
C2840 C2841 1.370 . S
C2840 C2842 1.363 . S
C2840 H2856 0.931 . S
C2841 C2840 1.370 . S
C2841 C2845 1.408 . S
C2842 C2840 1.363 . S
C2842 C2843 1.370 . S
C2842 C2846 1.524 1_545 S
C2843 C2835 1.503 . S
C2843 C2842 1.370 . S
C2843 C2844 1.403 . S
C2844 C2843 1.403 . S
C2844 C2845 1.404 . S
C2844 C2847 1.539 . S
C2845 C2841 1.408 . S
C2845 C2844 1.404 . S
C2845 H2857 0.930 . S
C2846 C2842 1.524 1_565 S
C2846 H2858 0.956 . S
C2846 H2859 0.966 . S
C2846 H2860 0.961 . S
C2847 C2844 1.539 . S
C2847 H2861 0.958 . S
C2847 H2862 0.961 . S
C2847 H2863 0.960 . S
H2848 C2832 0.931 . S
H2849 C2837 0.929 . S
H2850 C2838 0.960 . S
H2851 C2838 0.962 . S
H2852 C2838 0.960 . S
H2853 C2839 0.961 . S
H2854 C2839 0.961 . S
H2855 C2839 0.961 . S
H2856 C2840 0.931 . S
H2857 C2845 0.930 . S
H2858 C2846 0.956 . S
H2859 C2846 0.966 . S
H2860 C2846 0.961 . S
H2861 C2847 0.958 . S
H2862 C2847 0.961 . S
H2863 C2847 0.960 . S
C2864 C2865 1.391 . S
C2864 C2866 1.394 . S
C2864 H2880 0.931 . S
C2865 C2864 1.391 . S
C2865 C2869 1.376 . S
C2866 C2864 1.394 . S
C2866 C2867 1.369 . S
C2866 C2870 1.531 . S
C2867 C2866 1.369 . S
C2867 C2868 1.410 . S
C2867 C2875 1.503 . S
C2868 C2867 1.410 . S
C2868 C2869 1.392 . S
C2868 C2871 1.511 . S
C2869 C2865 1.376 . S
C2869 C2868 1.392 . S
C2869 H2881 0.929 . S
C2870 C2866 1.531 . S
C2870 H2882 0.960 . S
C2870 H2883 0.962 . S
C2870 H2884 0.960 . S
C2871 C2868 1.511 . S
C2871 H2885 0.961 . S
C2871 H2886 0.961 . S
C2871 H2887 0.961 . S
C2872 C2873 1.370 . S
C2872 C2874 1.363 . S
C2872 H2888 0.931 . S
C2873 C2872 1.370 . S
C2873 C2877 1.408 . S
C2874 C2872 1.363 . S
C2874 C2875 1.370 . S
C2874 C2878 1.524 . S
C2875 C2867 1.503 . S
C2875 C2874 1.370 . S
C2875 C2876 1.403 . S
C2876 C2875 1.403 . S
C2876 C2877 1.404 . S
C2876 C2879 1.539 . S
C2877 C2873 1.408 . S
C2877 C2876 1.404 . S
C2877 H2889 0.930 . S
C2878 C2874 1.524 . S
C2878 H2890 0.956 . S
C2878 H2891 0.961 . S
C2878 H2892 0.961 . S
C2879 C2876 1.539 . S
C2879 H2893 0.958 . S
C2879 H2894 0.961 . S
C2879 H2895 0.960 . S
H2880 C2864 0.931 . S
H2881 C2869 0.929 . S
H2882 C2870 0.960 . S
H2883 C2870 0.962 . S
H2884 C2870 0.960 . S
H2885 C2871 0.961 . S
H2886 C2871 0.961 . S
H2887 C2871 0.961 . S
H2888 C2872 0.931 . S
H2889 C2877 0.930 . S
H2890 C2878 0.956 . S
H2891 C2878 0.961 . S
H2892 C2878 0.961 . S
H2893 C2879 0.958 . S
H2894 C2879 0.961 . S
H2895 C2879 0.960 . S
C2896 C2897 1.391 . S
C2896 C2898 1.394 . S
C2896 H2912 0.931 . S
C2897 C2896 1.391 . S
C2897 C2901 1.408 . S
C2898 C2896 1.394 . S
C2898 C2899 1.369 . S
C2898 C2902 1.531 . S
C2899 C2898 1.369 . S
C2899 C2900 1.410 . S
C2899 C2907 1.503 . S
C2900 C2899 1.410 . S
C2900 C2901 1.398 . S
C2900 C2903 1.511 1_545 S
C2901 C2897 1.408 . S
C2901 C2900 1.398 . S
C2901 H2913 0.891 1_545 S
C2902 C2898 1.531 . S
C2902 H2914 0.960 . S
C2902 H2915 0.962 . S
C2902 H2916 0.960 . S
C2903 C2900 1.511 1_565 S
C2903 H2917 0.961 . S
C2903 H2918 0.961 . S
C2903 H2919 0.961 . S
C2904 C2905 1.370 . S
C2904 C2906 1.363 . S
C2904 H2920 0.931 1_545 S
C2905 C2904 1.370 . S
C2905 C2909 1.408 . S
C2906 C2904 1.363 . S
C2906 C2907 1.370 . S
C2906 C2910 1.524 1_545 S
C2907 C2899 1.503 . S
C2907 C2906 1.370 . S
C2907 C2908 1.403 . S
C2908 C2907 1.403 . S
C2908 C2909 1.404 . S
C2908 C2911 1.539 . S
C2909 C2905 1.408 . S
C2909 C2908 1.404 . S
C2909 H2921 0.930 . S
C2910 C2906 1.524 1_565 S
C2910 H2922 0.957 . S
C2910 H2923 0.961 . S
C2910 H2924 0.961 . S
C2911 C2908 1.539 . S
C2911 H2925 0.958 . S
C2911 H2926 0.961 . S
C2911 H2927 0.960 . S
H2912 C2896 0.931 . S
H2913 C2901 0.891 1_565 S
H2914 C2902 0.960 . S
H2915 C2902 0.962 . S
H2916 C2902 0.960 . S
H2917 C2903 0.961 . S
H2918 C2903 0.961 . S
H2919 C2903 0.961 . S
H2920 C2904 0.931 1_565 S
H2921 C2909 0.930 . S
H2922 C2910 0.957 . S
H2923 C2910 0.961 . S
H2924 C2910 0.961 . S
H2925 C2911 0.958 . S
H2926 C2911 0.961 . S
H2927 C2911 0.960 . S
C2928 C2929 1.391 . S
C2928 C2930 1.394 . S
C2928 H2944 0.931 . S
C2929 C2928 1.391 . S
C2929 C2933 1.376 . S
C2930 C2928 1.394 . S
C2930 C2931 1.369 . S
C2930 C2934 1.531 . S
C2931 C2930 1.369 . S
C2931 C2932 1.410 . S
C2931 C2939 1.503 . S
C2932 C2931 1.410 . S
C2932 C2933 1.392 . S
C2932 C2935 1.511 . S
C2933 C2929 1.376 . S
C2933 C2932 1.392 . S
C2933 H2945 0.929 . S
C2934 C2930 1.531 . S
C2934 H2946 0.960 . S
C2934 H2947 0.962 . S
C2934 H2948 0.960 . S
C2935 C2932 1.511 . S
C2935 H2949 0.961 . S
C2935 H2950 0.961 . S
C2935 H2951 0.961 . S
C2936 C2937 1.370 . S
C2936 C2938 1.363 . S
C2936 H2952 0.931 . S
C2937 C2936 1.370 . S
C2937 C2941 1.408 . S
C2938 C2936 1.363 . S
C2938 C2939 1.370 . S
C2938 C2942 1.524 . S
C2939 C2931 1.503 . S
C2939 C2938 1.370 . S
C2939 C2940 1.403 . S
C2940 C2939 1.403 . S
C2940 C2941 1.404 . S
C2940 C2943 1.539 . S
C2941 C2937 1.408 . S
C2941 C2940 1.404 . S
C2941 H2953 0.930 . S
C2942 C2938 1.524 . S
C2942 H2954 0.956 . S
C2942 H2955 0.961 . S
C2942 H2956 0.961 . S
C2943 C2940 1.539 . S
C2943 H2957 0.958 . S
C2943 H2958 0.961 . S
C2943 H2959 0.960 . S
H2944 C2928 0.931 . S
H2945 C2933 0.929 . S
H2946 C2934 0.960 . S
H2947 C2934 0.962 . S
H2948 C2934 0.960 . S
H2949 C2935 0.961 . S
H2950 C2935 0.961 . S
H2951 C2935 0.961 . S
H2952 C2936 0.931 . S
H2953 C2941 0.930 . S
H2954 C2942 0.956 . S
H2955 C2942 0.961 . S
H2956 C2942 0.961 . S
H2957 C2943 0.958 . S
H2958 C2943 0.961 . S
H2959 C2943 0.960 . S
C2960 C2961 1.391 . S
C2960 C2962 1.394 . S
C2960 H2976 0.931 . S
C2961 C2960 1.391 . S
C2961 C2965 1.376 . S
C2962 C2960 1.394 . S
C2962 C2963 1.369 . S
C2962 C2966 1.531 . S
C2963 C2962 1.369 . S
C2963 C2964 1.410 . S
C2963 C2971 1.503 . S
C2964 C2963 1.410 . S
C2964 C2965 1.392 . S
C2964 C2967 1.511 1_554 S
C2965 C2961 1.376 . S
C2965 C2964 1.392 . S
C2965 H2977 0.929 . S
C2966 C2962 1.531 . S
C2966 H2978 0.960 . S
C2966 H2979 0.962 . S
C2966 H2980 0.960 . S
C2967 C2964 1.511 1_556 S
C2967 H2981 0.961 . S
C2967 H2982 0.971 . S
C2967 H2983 0.961 . S
C2968 C2969 1.370 . S
C2968 C2970 1.363 . S
C2968 H2984 0.931 . S
C2969 C2968 1.370 . S
C2969 C2973 1.408 1_554 S
C2970 C2968 1.363 . S
C2970 C2971 1.370 . S
C2970 C2974 1.524 . S
C2971 C2963 1.503 . S
C2971 C2970 1.370 . S
C2971 C2972 1.403 1_554 S
C2972 C2971 1.403 1_556 S
C2972 C2973 1.404 . S
C2972 C2975 1.539 . S
C2973 C2969 1.408 1_556 S
C2973 C2972 1.404 . S
C2973 H2985 0.930 . S
C2974 C2970 1.524 . S
C2974 H2986 0.956 . S
C2974 H2987 0.961 . S
C2974 H2988 0.961 . S
C2975 C2972 1.539 . S
C2975 H2989 0.958 . S
C2975 H2990 0.961 . S
C2975 H2991 0.960 . S
H2976 C2960 0.931 . S
H2977 C2965 0.929 . S
H2978 C2966 0.960 . S
H2979 C2966 0.962 . S
H2980 C2966 0.960 . S
H2981 C2967 0.961 . S
H2982 C2967 0.971 . S
H2983 C2967 0.961 . S
H2984 C2968 0.931 . S
H2985 C2973 0.930 . S
H2986 C2974 0.956 . S
H2987 C2974 0.961 . S
H2988 C2974 0.961 . S
H2989 C2975 0.958 . S
H2990 C2975 0.961 . S
H2991 C2975 0.960 . S
C2992 C2993 1.391 . S
C2992 C2994 1.394 . S
C2992 H3008 0.931 . S
C2993 C2992 1.391 . S
C2993 C2997 1.376 . S
C2994 C2992 1.394 . S
C2994 C2995 1.369 . S
C2994 C2998 1.531 . S
C2995 C2994 1.369 . S
C2995 C2996 1.410 . S
C2995 C3003 1.503 . S
C2996 C2995 1.410 . S
C2996 C2997 1.392 . S
C2996 C2999 1.511 . S
C2997 C2993 1.376 . S
C2997 C2996 1.392 . S
C2997 H3009 0.929 . S
C2998 C2994 1.531 . S
C2998 H3010 0.960 . S
C2998 H3011 0.962 . S
C2998 H3012 0.960 . S
C2999 C2996 1.511 . S
C2999 H3013 0.961 . S
C2999 H3014 0.961 . S
C2999 H3015 0.961 . S
C3000 C3001 1.370 . S
C3000 C3002 1.363 . S
C3000 H3016 0.931 . S
C3001 C3000 1.370 . S
C3001 C3005 1.408 . S
C3002 C3000 1.363 . S
C3002 C3003 1.370 . S
C3002 C3006 1.524 . S
C3003 C2995 1.503 . S
C3003 C3002 1.370 . S
C3003 C3004 1.403 . S
C3004 C3003 1.403 . S
C3004 C3005 1.404 . S
C3004 C3007 1.539 1_554 S
C3005 C3001 1.408 . S
C3005 C3004 1.404 . S
C3005 H3017 0.933 1_554 S
C3006 C3002 1.524 . S
C3006 H3018 0.956 . S
C3006 H3019 0.961 . S
C3006 H3020 0.961 . S
C3007 C3004 1.539 1_556 S
C3007 H3021 0.958 . S
C3007 H3022 0.961 . S
C3007 H3023 0.960 . S
H3008 C2992 0.931 . S
H3009 C2997 0.929 . S
H3010 C2998 0.960 . S
H3011 C2998 0.962 . S
H3012 C2998 0.960 . S
H3013 C2999 0.961 . S
H3014 C2999 0.961 . S
H3015 C2999 0.961 . S
H3016 C3000 0.931 . S
H3017 C3005 0.933 1_556 S
H3018 C3006 0.956 . S
H3019 C3006 0.961 . S
H3020 C3006 0.961 . S
H3021 C3007 0.958 . S
H3022 C3007 0.961 . S
H3023 C3007 0.960 . S
C3024 C3025 1.391 . S
C3024 C3026 1.394 . S
C3024 H3040 0.931 . S
C3025 C3024 1.391 . S
C3025 C3029 1.376 . S
C3026 C3024 1.394 . S
C3026 C3027 1.369 . S
C3026 C3030 1.531 . S
C3027 C3026 1.369 . S
C3027 C3028 1.410 . S
C3027 C3035 1.503 . S
C3028 C3027 1.410 . S
C3028 C3029 1.392 . S
C3028 C3031 1.511 . S
C3029 C3025 1.376 . S
C3029 C3028 1.392 . S
C3029 H3041 0.929 . S
C3030 C3026 1.531 . S
C3030 H3042 0.960 . S
C3030 H3043 0.962 . S
C3030 H3044 0.960 . S
C3031 C3028 1.511 . S
C3031 H3045 0.961 . S
C3031 H3046 0.961 . S
C3031 H3047 0.961 . S
C3032 C3033 1.370 . S
C3032 C3034 1.363 . S
C3032 H3048 0.931 . S
C3033 C3032 1.370 . S
C3033 C3037 1.408 . S
C3034 C3032 1.363 . S
C3034 C3035 1.370 . S
C3034 C3038 1.524 . S
C3035 C3027 1.503 . S
C3035 C3034 1.370 . S
C3035 C3036 1.403 . S
C3036 C3035 1.403 . S
C3036 C3037 1.404 . S
C3036 C3039 1.539 . S
C3037 C3033 1.408 . S
C3037 C3036 1.404 . S
C3037 H3049 0.930 . S
C3038 C3034 1.524 . S
C3038 H3050 0.956 . S
C3038 H3051 0.961 . S
C3038 H3052 0.961 . S
C3039 C3036 1.539 . S
C3039 H3053 0.958 . S
C3039 H3054 0.961 . S
C3039 H3055 0.960 . S
H3040 C3024 0.931 . S
H3041 C3029 0.929 . S
H3042 C3030 0.960 . S
H3043 C3030 0.962 . S
H3044 C3030 0.960 . S
H3045 C3031 0.961 . S
H3046 C3031 0.961 . S
H3047 C3031 0.961 . S
H3048 C3032 0.931 . S
H3049 C3037 0.930 . S
H3050 C3038 0.956 . S
H3051 C3038 0.961 . S
H3052 C3038 0.961 . S
H3053 C3039 0.958 . S
H3054 C3039 0.961 . S
H3055 C3039 0.960 . S
C3056 C3057 1.391 . S
C3056 C3058 1.394 . S
C3056 H3072 0.931 . S
C3057 C3056 1.391 . S
C3057 C3061 1.376 . S
C3058 C3056 1.394 . S
C3058 C3059 1.369 . S
C3058 C3062 1.531 . S
C3059 C3058 1.369 . S
C3059 C3060 1.410 . S
C3059 C3067 1.503 . S
C3060 C3059 1.410 . S
C3060 C3061 1.392 . S
C3060 C3063 1.511 . S
C3061 C3057 1.376 . S
C3061 C3060 1.392 . S
C3061 H3073 0.929 . S
C3062 C3058 1.531 . S
C3062 H3074 0.960 . S
C3062 H3075 0.962 . S
C3062 H3076 0.960 . S
C3063 C3060 1.511 . S
C3063 H3077 0.961 . S
C3063 H3078 0.961 . S
C3063 H3079 0.961 . S
C3064 C3065 1.370 . S
C3064 C3066 1.363 . S
C3064 H3080 0.931 . S
C3065 C3064 1.370 . S
C3065 C3069 1.408 . S
C3066 C3064 1.363 . S
C3066 C3067 1.370 . S
C3066 C3070 1.524 . S
C3067 C3059 1.503 . S
C3067 C3066 1.370 . S
C3067 C3068 1.403 . S
C3068 C3067 1.403 . S
C3068 C3069 1.404 . S
C3068 C3071 1.539 . S
C3069 C3065 1.408 . S
C3069 C3068 1.404 . S
C3069 H3081 0.930 . S
C3070 C3066 1.524 . S
C3070 H3082 0.956 . S
C3070 H3083 0.961 . S
C3070 H3084 0.961 . S
C3071 C3068 1.539 . S
C3071 H3085 0.958 . S
C3071 H3086 0.961 . S
C3071 H3087 0.960 . S
H3072 C3056 0.931 . S
H3073 C3061 0.929 . S
H3074 C3062 0.960 . S
H3075 C3062 0.962 . S
H3076 C3062 0.960 . S
H3077 C3063 0.961 . S
H3078 C3063 0.961 . S
H3079 C3063 0.961 . S
H3080 C3064 0.931 . S
H3081 C3069 0.930 . S
H3082 C3070 0.956 . S
H3083 C3070 0.961 . S
H3084 C3070 0.961 . S
H3085 C3071 0.958 . S
H3086 C3071 0.961 . S
H3087 C3071 0.960 . S
C3088 C3089 1.391 . S
C3088 C3090 1.394 . S
C3088 H3104 0.931 . S
C3089 C3088 1.391 . S
C3089 C3093 1.373 1_565 S
C3090 C3088 1.394 . S
C3090 C3091 1.369 . S
C3090 C3094 1.531 . S
C3091 C3090 1.369 . S
C3091 C3092 1.410 . S
C3091 C3099 1.503 . S
C3092 C3091 1.410 . S
C3092 C3093 1.370 1_565 S
C3092 C3095 1.511 . S
C3093 C3089 1.373 1_545 S
C3093 C3092 1.370 1_545 S
C3093 H3105 0.955 . S
C3094 C3090 1.531 . S
C3094 H3106 0.960 . S
C3094 H3107 0.962 . S
C3094 H3108 0.960 . S
C3095 C3092 1.511 . S
C3095 H3109 0.961 1_565 S
C3095 H3110 0.961 . S
C3095 H3111 0.961 . S
C3096 C3097 1.370 . S
C3096 C3098 1.363 . S
C3096 H3112 0.931 . S
C3097 C3096 1.370 . S
C3097 C3101 1.408 . S
C3098 C3096 1.363 . S
C3098 C3099 1.370 . S
C3098 C3102 1.524 . S
C3099 C3091 1.503 . S
C3099 C3098 1.370 . S
C3099 C3100 1.403 . S
C3100 C3099 1.403 . S
C3100 C3101 1.404 . S
C3100 C3103 1.539 . S
C3101 C3097 1.408 . S
C3101 C3100 1.404 . S
C3101 H3113 0.930 . S
C3102 C3098 1.524 . S
C3102 H3114 0.956 . S
C3102 H3115 0.961 . S
C3102 H3116 0.961 . S
C3103 C3100 1.539 . S
C3103 H3117 0.958 . S
C3103 H3118 0.961 . S
C3103 H3119 0.960 . S
H3104 C3088 0.931 . S
H3105 C3093 0.955 . S
H3106 C3094 0.960 . S
H3107 C3094 0.962 . S
H3108 C3094 0.960 . S
H3109 C3095 0.961 1_545 S
H3110 C3095 0.961 . S
H3111 C3095 0.961 . S
H3112 C3096 0.931 . S
H3113 C3101 0.930 . S
H3114 C3102 0.956 . S
H3115 C3102 0.961 . S
H3116 C3102 0.961 . S
H3117 C3103 0.958 . S
H3118 C3103 0.961 . S
H3119 C3103 0.960 . S
C3120 C3121 1.391 . S
C3120 C3122 1.394 . S
C3120 H3136 0.931 . S
C3121 C3120 1.391 . S
C3121 C3125 1.376 . S
C3122 C3120 1.394 . S
C3122 C3123 1.369 . S
C3122 C3126 1.531 . S
C3123 C3122 1.369 . S
C3123 C3124 1.410 . S
C3123 C3131 1.503 . S
C3124 C3123 1.410 . S
C3124 C3125 1.392 . S
C3124 C3127 1.511 . S
C3125 C3121 1.376 . S
C3125 C3124 1.392 . S
C3125 H3137 0.929 . S
C3126 C3122 1.531 . S
C3126 H3138 0.960 . S
C3126 H3139 0.962 . S
C3126 H3140 0.960 . S
C3127 C3124 1.511 . S
C3127 H3141 0.961 . S
C3127 H3142 0.961 . S
C3127 H3143 0.961 . S
C3128 C3129 1.370 . S
C3128 C3130 1.363 . S
C3128 H3144 0.931 . S
C3129 C3128 1.370 . S
C3129 C3133 1.408 . S
C3130 C3128 1.363 . S
C3130 C3131 1.370 . S
C3130 C3134 1.524 . S
C3131 C3123 1.503 . S
C3131 C3130 1.370 . S
C3131 C3132 1.403 . S
C3132 C3131 1.403 . S
C3132 C3133 1.404 . S
C3132 C3135 1.539 . S
C3133 C3129 1.408 . S
C3133 C3132 1.404 . S
C3133 H3145 0.930 . S
C3134 C3130 1.524 . S
C3134 H3146 0.956 . S
C3134 H3147 0.961 . S
C3134 H3148 0.961 . S
C3135 C3132 1.539 . S
C3135 H3149 0.958 . S
C3135 H3150 0.961 . S
C3135 H3151 0.960 . S
H3136 C3120 0.931 . S
H3137 C3125 0.929 . S
H3138 C3126 0.960 . S
H3139 C3126 0.962 . S
H3140 C3126 0.960 . S
H3141 C3127 0.961 . S
H3142 C3127 0.961 . S
H3143 C3127 0.961 . S
H3144 C3128 0.931 . S
H3145 C3133 0.930 . S
H3146 C3134 0.956 . S
H3147 C3134 0.961 . S
H3148 C3134 0.961 . S
H3149 C3135 0.958 . S
H3150 C3135 0.961 . S
H3151 C3135 0.960 . S
C3152 C3153 1.391 . S
C3152 C3154 1.394 . S
C3152 H3168 0.931 . S
C3153 C3152 1.391 . S
C3153 C3157 1.376 . S
C3154 C3152 1.394 . S
C3154 C3155 1.369 . S
C3154 C3158 1.531 . S
C3155 C3154 1.369 . S
C3155 C3156 1.410 . S
C3155 C3163 1.503 . S
C3156 C3155 1.410 . S
C3156 C3157 1.392 . S
C3156 C3159 1.511 . S
C3157 C3153 1.376 . S
C3157 C3156 1.392 . S
C3157 H3169 0.929 . S
C3158 C3154 1.531 . S
C3158 H3170 0.960 . S
C3158 H3171 0.962 . S
C3158 H3172 0.960 . S
C3159 C3156 1.511 . S
C3159 H3173 0.961 . S
C3159 H3174 0.961 . S
C3159 H3175 0.961 . S
C3160 C3161 1.370 . S
C3160 C3162 1.363 . S
C3160 H3176 0.931 . S
C3161 C3160 1.370 . S
C3161 C3165 1.408 . S
C3162 C3160 1.363 . S
C3162 C3163 1.370 . S
C3162 C3166 1.524 . S
C3163 C3155 1.503 . S
C3163 C3162 1.370 . S
C3163 C3164 1.403 . S
C3164 C3163 1.403 . S
C3164 C3165 1.404 . S
C3164 C3167 1.539 . S
C3165 C3161 1.408 . S
C3165 C3164 1.404 . S
C3165 H3177 0.930 . S
C3166 C3162 1.524 . S
C3166 H3178 0.956 . S
C3166 H3179 0.961 . S
C3166 H3180 0.961 . S
C3167 C3164 1.539 . S
C3167 H3181 0.958 . S
C3167 H3182 0.961 . S
C3167 H3183 0.960 . S
H3168 C3152 0.931 . S
H3169 C3157 0.929 . S
H3170 C3158 0.960 . S
H3171 C3158 0.962 . S
H3172 C3158 0.960 . S
H3173 C3159 0.961 . S
H3174 C3159 0.961 . S
H3175 C3159 0.961 . S
H3176 C3160 0.931 . S
H3177 C3165 0.930 . S
H3178 C3166 0.956 . S
H3179 C3166 0.961 . S
H3180 C3166 0.961 . S
H3181 C3167 0.958 . S
H3182 C3167 0.961 . S
H3183 C3167 0.960 . S
C3184 C3185 1.391 . S
C3184 C3186 1.394 . S
C3184 H3200 0.931 . S
C3185 C3184 1.391 . S
C3185 C3189 1.376 . S
C3186 C3184 1.394 . S
C3186 C3187 1.369 . S
C3186 C3190 1.531 . S
C3187 C3186 1.369 . S
C3187 C3188 1.410 . S
C3187 C3195 1.503 . S
C3188 C3187 1.410 . S
C3188 C3189 1.392 . S
C3188 C3191 1.511 . S
C3189 C3185 1.376 . S
C3189 C3188 1.392 . S
C3189 H3201 0.929 . S
C3190 C3186 1.531 . S
C3190 H3202 0.960 . S
C3190 H3203 0.962 . S
C3190 H3204 0.960 . S
C3191 C3188 1.511 . S
C3191 H3205 0.961 . S
C3191 H3206 0.961 . S
C3191 H3207 0.961 . S
C3192 C3193 1.370 . S
C3192 C3194 1.363 . S
C3192 H3208 0.931 . S
C3193 C3192 1.370 . S
C3193 C3197 1.408 . S
C3194 C3192 1.363 . S
C3194 C3195 1.370 . S
C3194 C3198 1.524 . S
C3195 C3187 1.503 . S
C3195 C3194 1.370 . S
C3195 C3196 1.403 . S
C3196 C3195 1.403 . S
C3196 C3197 1.404 . S
C3196 C3199 1.539 . S
C3197 C3193 1.408 . S
C3197 C3196 1.404 . S
C3197 H3209 0.930 . S
C3198 C3194 1.524 . S
C3198 H3210 0.956 . S
C3198 H3211 0.961 . S
C3198 H3212 0.961 . S
C3199 C3196 1.539 . S
C3199 H3213 0.958 . S
C3199 H3214 0.961 . S
C3199 H3215 0.960 . S
H3200 C3184 0.931 . S
H3201 C3189 0.929 . S
H3202 C3190 0.960 . S
H3203 C3190 0.962 . S
H3204 C3190 0.960 . S
H3205 C3191 0.961 . S
H3206 C3191 0.961 . S
H3207 C3191 0.961 . S
H3208 C3192 0.931 . S
H3209 C3197 0.930 . S
H3210 C3198 0.956 . S
H3211 C3198 0.961 . S
H3212 C3198 0.961 . S
H3213 C3199 0.958 . S
H3214 C3199 0.961 . S
H3215 C3199 0.960 . S
C3216 C3217 1.391 . S
C3216 C3218 1.394 . S
C3216 H3232 0.931 . S
C3217 C3216 1.391 . S
C3217 C3221 1.376 . S
C3218 C3216 1.394 . S
C3218 C3219 1.369 . S
C3218 C3222 1.531 . S
C3219 C3218 1.369 . S
C3219 C3220 1.410 . S
C3219 C3227 1.503 . S
C3220 C3219 1.410 . S
C3220 C3221 1.392 . S
C3220 C3223 1.511 . S
C3221 C3217 1.376 . S
C3221 C3220 1.392 . S
C3221 H3233 0.929 . S
C3222 C3218 1.531 . S
C3222 H3234 0.960 . S
C3222 H3235 0.962 . S
C3222 H3236 0.960 . S
C3223 C3220 1.511 . S
C3223 H3237 0.961 . S
C3223 H3238 0.961 . S
C3223 H3239 0.961 . S
C3224 C3225 1.370 . S
C3224 C3226 1.363 . S
C3224 H3240 0.931 . S
C3225 C3224 1.370 . S
C3225 C3229 1.408 . S
C3226 C3224 1.363 . S
C3226 C3227 1.370 . S
C3226 C3230 1.524 . S
C3227 C3219 1.503 . S
C3227 C3226 1.370 . S
C3227 C3228 1.403 . S
C3228 C3227 1.403 . S
C3228 C3229 1.404 . S
C3228 C3231 1.539 . S
C3229 C3225 1.408 . S
C3229 C3228 1.404 . S
C3229 H3241 0.930 . S
C3230 C3226 1.524 . S
C3230 H3242 0.956 . S
C3230 H3243 0.961 . S
C3230 H3244 0.961 . S
C3231 C3228 1.539 . S
C3231 H3245 0.958 . S
C3231 H3246 0.961 . S
C3231 H3247 0.960 . S
H3232 C3216 0.931 . S
H3233 C3221 0.929 . S
H3234 C3222 0.960 . S
H3235 C3222 0.962 . S
H3236 C3222 0.960 . S
H3237 C3223 0.961 . S
H3238 C3223 0.961 . S
H3239 C3223 0.961 . S
H3240 C3224 0.931 . S
H3241 C3229 0.930 . S
H3242 C3230 0.956 . S
H3243 C3230 0.961 . S
H3244 C3230 0.961 . S
H3245 C3231 0.958 . S
H3246 C3231 0.961 . S
H3247 C3231 0.960 . S
C3248 C3249 1.391 . S
C3248 C3250 1.394 . S
C3248 H3264 0.931 . S
C3249 C3248 1.391 . S
C3249 C3253 1.376 . S
C3250 C3248 1.394 . S
C3250 C3251 1.369 . S
C3250 C3254 1.531 . S
C3251 C3250 1.369 . S
C3251 C3252 1.410 . S
C3251 C3259 1.503 . S
C3252 C3251 1.410 . S
C3252 C3253 1.392 . S
C3252 C3255 1.511 . S
C3253 C3249 1.376 . S
C3253 C3252 1.392 . S
C3253 H3265 0.929 . S
C3254 C3250 1.531 . S
C3254 H3266 0.960 . S
C3254 H3267 0.962 . S
C3254 H3268 0.960 . S
C3255 C3252 1.511 . S
C3255 H3269 0.961 . S
C3255 H3270 0.961 . S
C3255 H3271 0.961 . S
C3256 C3257 1.370 . S
C3256 C3258 1.363 . S
C3256 H3272 0.931 . S
C3257 C3256 1.370 . S
C3257 C3261 1.408 . S
C3258 C3256 1.363 . S
C3258 C3259 1.370 . S
C3258 C3262 1.524 . S
C3259 C3251 1.503 . S
C3259 C3258 1.370 . S
C3259 C3260 1.403 . S
C3260 C3259 1.403 . S
C3260 C3261 1.404 . S
C3260 C3263 1.539 . S
C3261 C3257 1.408 . S
C3261 C3260 1.404 . S
C3261 H3273 0.930 . S
C3262 C3258 1.524 . S
C3262 H3274 0.956 . S
C3262 H3275 0.961 . S
C3262 H3276 0.961 . S
C3263 C3260 1.539 . S
C3263 H3277 0.958 . S
C3263 H3278 0.961 . S
C3263 H3279 0.960 . S
H3264 C3248 0.931 . S
H3265 C3253 0.929 . S
H3266 C3254 0.960 . S
H3267 C3254 0.962 . S
H3268 C3254 0.960 . S
H3269 C3255 0.961 . S
H3270 C3255 0.961 . S
H3271 C3255 0.961 . S
H3272 C3256 0.931 . S
H3273 C3261 0.930 . S
H3274 C3262 0.956 . S
H3275 C3262 0.961 . S
H3276 C3262 0.961 . S
H3277 C3263 0.958 . S
H3278 C3263 0.961 . S
H3279 C3263 0.960 . S
C3280 C3281 1.391 . S
C3280 C3282 1.394 . S
C3280 H3296 0.931 . S
C3281 C3280 1.391 . S
C3281 C3285 1.376 . S
C3282 C3280 1.394 . S
C3282 C3283 1.369 . S
C3282 C3286 1.531 . S
C3283 C3282 1.369 . S
C3283 C3284 1.410 . S
C3283 C3291 1.503 . S
C3284 C3283 1.410 . S
C3284 C3285 1.392 . S
C3284 C3287 1.511 1_556 S
C3285 C3281 1.376 . S
C3285 C3284 1.392 . S
C3285 H3297 0.929 . S
C3286 C3282 1.531 . S
C3286 H3298 0.960 . S
C3286 H3299 0.962 . S
C3286 H3300 0.960 . S
C3287 C3284 1.511 1_554 S
C3287 H3301 0.961 1_455 S
C3287 H3302 0.961 . S
C3287 H3303 0.961 1_454 S
C3288 C3289 1.370 . S
C3288 C3290 1.363 . S
C3288 H3304 0.931 . S
C3289 C3288 1.370 . S
C3289 C3293 1.408 1_554 S
C3290 C3288 1.363 . S
C3290 C3291 1.370 1_554 S
C3290 C3294 1.524 . S
C3291 C3283 1.503 . S
C3291 C3290 1.370 1_556 S
C3291 C3292 1.403 . S
C3292 C3291 1.403 . S
C3292 C3293 1.404 . S
C3292 C3295 1.539 . S
C3293 C3289 1.408 1_556 S
C3293 C3292 1.404 . S
C3293 H3305 0.930 . S
C3294 C3290 1.524 . S
C3294 H3306 0.956 . S
C3294 H3307 0.961 . S
C3294 H3308 0.961 . S
C3295 C3292 1.539 . S
C3295 H3309 0.958 . S
C3295 H3310 0.961 . S
C3295 H3311 0.960 . S
H3296 C3280 0.931 . S
H3297 C3285 0.929 . S
H3298 C3286 0.960 . S
H3299 C3286 0.962 . S
H3300 C3286 0.960 . S
H3301 C3287 0.961 1_655 S
H3302 C3287 0.961 . S
H3303 C3287 0.961 1_656 S
H3304 C3288 0.931 . S
H3305 C3293 0.930 . S
H3306 C3294 0.956 . S
H3307 C3294 0.961 . S
H3308 C3294 0.961 . S
H3309 C3295 0.958 . S
H3310 C3295 0.961 . S
H3311 C3295 0.960 . S
C3312 C3313 1.391 . S
C3312 C3314 1.394 1_455 S
C3312 H3328 0.931 . S
C3313 C3312 1.391 . S
C3313 C3317 1.376 . S
C3314 C3312 1.394 1_655 S
C3314 C3315 1.369 . S
C3314 C3318 1.531 . S
C3315 C3314 1.369 . S
C3315 C3316 1.410 1_655 S
C3315 C3323 1.503 . S
C3316 C3315 1.410 1_455 S
C3316 C3317 1.392 . S
C3316 C3319 1.511 . S
C3317 C3313 1.376 . S
C3317 C3316 1.392 . S
C3317 H3329 0.929 . S
C3318 C3314 1.531 . S
C3318 H3330 0.960 . S
C3318 H3331 0.962 . S
C3318 H3332 0.960 . S
C3319 C3316 1.511 . S
C3319 H3333 0.961 . S
C3319 H3334 0.961 . S
C3319 H3335 0.961 . S
C3320 C3321 1.370 . S
C3320 C3322 1.363 . S
C3320 H3336 0.931 . S
C3321 C3320 1.370 . S
C3321 C3325 1.408 . S
C3322 C3320 1.363 . S
C3322 C3323 1.370 . S
C3322 C3326 1.524 . S
C3323 C3315 1.503 . S
C3323 C3322 1.370 . S
C3323 C3324 1.403 . S
C3324 C3323 1.403 . S
C3324 C3325 1.404 . S
C3324 C3327 1.539 . S
C3325 C3321 1.408 . S
C3325 C3324 1.404 . S
C3325 H3337 0.930 . S
C3326 C3322 1.524 . S
C3326 H3338 0.956 . S
C3326 H3339 0.961 . S
C3326 H3340 0.961 . S
C3327 C3324 1.539 . S
C3327 H3341 0.958 . S
C3327 H3342 0.961 . S
C3327 H3343 0.960 . S
H3328 C3312 0.931 . S
H3329 C3317 0.929 . S
H3330 C3318 0.960 . S
H3331 C3318 0.962 . S
H3332 C3318 0.960 . S
H3333 C3319 0.961 . S
H3334 C3319 0.961 . S
H3335 C3319 0.961 . S
H3336 C3320 0.931 . S
H3337 C3325 0.930 . S
H3338 C3326 0.956 . S
H3339 C3326 0.961 . S
H3340 C3326 0.961 . S
H3341 C3327 0.958 . S
H3342 C3327 0.961 . S
H3343 C3327 0.960 . S
C3344 C3345 1.391 . S
C3344 C3346 1.394 . S
C3344 H3360 0.931 . S
C3345 C3344 1.391 . S
C3345 C3349 1.376 . S
C3346 C3344 1.394 . S
C3346 C3347 1.369 . S
C3346 C3350 1.531 . S
C3347 C3346 1.369 . S
C3347 C3348 1.410 . S
C3347 C3355 1.503 . S
C3348 C3347 1.410 . S
C3348 C3349 1.392 . S
C3348 C3351 1.511 . S
C3349 C3345 1.376 . S
C3349 C3348 1.392 . S
C3349 H3361 0.929 . S
C3350 C3346 1.531 . S
C3350 H3362 0.960 . S
C3350 H3363 0.962 . S
C3350 H3364 0.960 . S
C3351 C3348 1.511 . S
C3351 H3365 0.961 . S
C3351 H3366 0.961 . S
C3351 H3367 0.961 . S
C3352 C3353 1.370 . S
C3352 C3354 1.363 . S
C3352 H3368 0.931 . S
C3353 C3352 1.370 . S
C3353 C3357 1.408 . S
C3354 C3352 1.363 . S
C3354 C3355 1.370 . S
C3354 C3358 1.524 . S
C3355 C3347 1.503 . S
C3355 C3354 1.370 . S
C3355 C3356 1.403 . S
C3356 C3355 1.403 . S
C3356 C3357 1.404 . S
C3356 C3359 1.539 . S
C3357 C3353 1.408 . S
C3357 C3356 1.404 . S
C3357 H3369 0.930 . S
C3358 C3354 1.524 . S
C3358 H3370 0.956 . S
C3358 H3371 0.961 . S
C3358 H3372 0.961 . S
C3359 C3356 1.539 . S
C3359 H3373 0.958 . S
C3359 H3374 0.961 . S
C3359 H3375 0.960 . S
H3360 C3344 0.931 . S
H3361 C3349 0.929 . S
H3362 C3350 0.960 . S
H3363 C3350 0.962 . S
H3364 C3350 0.960 . S
H3365 C3351 0.961 . S
H3366 C3351 0.961 . S
H3367 C3351 0.961 . S
H3368 C3352 0.931 . S
H3369 C3357 0.930 . S
H3370 C3358 0.956 . S
H3371 C3358 0.961 . S
H3372 C3358 0.961 . S
H3373 C3359 0.958 . S
H3374 C3359 0.961 . S
H3375 C3359 0.960 . S
C3376 C3377 1.391 . S
C3376 C3378 1.394 . S
C3376 H3392 0.931 . S
C3377 C3376 1.391 . S
C3377 C3381 1.376 . S
C3378 C3376 1.394 . S
C3378 C3379 1.369 . S
C3378 C3382 1.512 1_455 S
C3379 C3378 1.369 . S
C3379 C3380 1.410 . S
C3379 C3387 1.503 1_455 S
C3380 C3379 1.410 . S
C3380 C3381 1.392 . S
C3380 C3383 1.511 . S
C3381 C3377 1.376 . S
C3381 C3380 1.392 . S
C3381 H3393 0.929 . S
C3382 C3378 1.512 1_655 S
C3382 H3394 0.981 . S
C3382 H3395 0.965 . S
C3382 H3396 0.955 1_655 S
C3383 C3380 1.511 . S
C3383 H3397 0.961 . S
C3383 H3398 0.961 . S
C3383 H3399 0.961 . S
C3384 C3385 1.370 . S
C3384 C3386 1.363 . S
C3384 H3400 0.931 . S
C3385 C3384 1.370 . S
C3385 C3389 1.408 . S
C3386 C3384 1.363 . S
C3386 C3387 1.370 . S
C3386 C3390 1.524 . S
C3387 C3379 1.503 1_655 S
C3387 C3386 1.370 . S
C3387 C3388 1.403 . S
C3388 C3387 1.403 . S
C3388 C3389 1.404 . S
C3388 C3391 1.539 . S
C3389 C3385 1.408 . S
C3389 C3388 1.404 . S
C3389 H3401 0.930 . S
C3390 C3386 1.524 . S
C3390 H3402 0.956 . S
C3390 H3403 0.961 1_655 S
C3390 H3404 0.961 . S
C3391 C3388 1.539 . S
C3391 H3405 0.958 . S
C3391 H3406 0.961 . S
C3391 H3407 0.960 1_655 S
H3392 C3376 0.931 . S
H3393 C3381 0.929 . S
H3394 C3382 0.981 . S
H3395 C3382 0.965 . S
H3396 C3382 0.955 1_455 S
H3397 C3383 0.961 . S
H3398 C3383 0.961 . S
H3399 C3383 0.961 . S
H3400 C3384 0.931 . S
H3401 C3389 0.930 . S
H3402 C3390 0.956 . S
H3403 C3390 0.961 1_455 S
H3404 C3390 0.961 . S
H3405 C3391 0.958 . S
H3406 C3391 0.961 . S
H3407 C3391 0.960 1_455 S
C3408 C3409 1.391 . S
C3408 C3410 1.394 1_655 S
C3408 H3424 0.931 . S
C3409 C3408 1.391 . S
C3409 C3413 1.376 1_655 S
C3410 C3408 1.394 1_455 S
C3410 C3411 1.369 . S
C3410 C3414 1.531 . S
C3411 C3410 1.369 . S
C3411 C3412 1.410 . S
C3411 C3419 1.503 . S
C3412 C3411 1.410 . S
C3412 C3413 1.392 . S
C3412 C3415 1.511 . S
C3413 C3409 1.376 1_455 S
C3413 C3412 1.392 . S
C3413 H3425 0.929 . S
C3414 C3410 1.531 . S
C3414 H3426 0.960 . S
C3414 H3427 0.962 1_455 S
C3414 H3428 0.960 . S
C3415 C3412 1.511 . S
C3415 H3429 0.961 . S
C3415 H3430 0.961 . S
C3415 H3431 0.961 . S
C3416 C3417 1.370 . S
C3416 C3418 1.363 . S
C3416 H3432 0.931 . S
C3417 C3416 1.370 . S
C3417 C3421 1.408 . S
C3418 C3416 1.363 . S
C3418 C3419 1.370 . S
C3418 C3422 1.524 1_455 S
C3419 C3411 1.503 . S
C3419 C3418 1.370 . S
C3419 C3420 1.403 . S
C3420 C3419 1.403 . S
C3420 C3421 1.404 . S
C3420 C3423 1.539 . S
C3421 C3417 1.408 . S
C3421 C3420 1.404 . S
C3421 H3433 0.930 . S
C3422 C3418 1.524 1_655 S
C3422 H3434 0.956 . S
C3422 H3435 0.961 . S
C3422 H3436 0.961 . S
C3423 C3420 1.539 . S
C3423 H3437 0.958 . S
C3423 H3438 0.961 . S
C3423 H3439 0.960 . S
H3424 C3408 0.931 . S
H3425 C3413 0.929 . S
H3426 C3414 0.960 . S
H3427 C3414 0.962 1_655 S
H3428 C3414 0.960 . S
H3429 C3415 0.961 . S
H3430 C3415 0.961 . S
H3431 C3415 0.961 . S
H3432 C3416 0.931 . S
H3433 C3421 0.930 . S
H3434 C3422 0.956 . S
H3435 C3422 0.961 . S
H3436 C3422 0.961 . S
H3437 C3423 0.958 . S
H3438 C3423 0.961 . S
H3439 C3423 0.960 . S
C3440 C3441 1.391 . S
C3440 C3442 1.394 . S
C3440 H3456 0.931 . S
C3441 C3440 1.391 . S
C3441 C3445 1.376 . S
C3442 C3440 1.394 . S
C3442 C3443 1.369 . S
C3442 C3446 1.531 . S
C3443 C3442 1.369 . S
C3443 C3444 1.410 . S
C3443 C3451 1.503 . S
C3444 C3443 1.410 . S
C3444 C3445 1.392 . S
C3444 C3447 1.511 . S
C3445 C3441 1.376 . S
C3445 C3444 1.392 . S
C3445 H3457 0.929 . S
C3446 C3442 1.531 . S
C3446 H3458 0.960 . S
C3446 H3459 0.962 . S
C3446 H3460 0.960 . S
C3447 C3444 1.511 . S
C3447 H3461 0.961 . S
C3447 H3462 0.961 . S
C3447 H3463 0.961 . S
C3448 C3449 1.370 . S
C3448 C3450 1.363 . S
C3448 H3464 0.931 . S
C3449 C3448 1.370 . S
C3449 C3453 1.408 . S
C3450 C3448 1.363 . S
C3450 C3451 1.370 . S
C3450 C3454 1.524 . S
C3451 C3443 1.503 . S
C3451 C3450 1.370 . S
C3451 C3452 1.403 . S
C3452 C3451 1.403 . S
C3452 C3453 1.404 . S
C3452 C3455 1.539 . S
C3453 C3449 1.408 . S
C3453 C3452 1.404 . S
C3453 H3465 0.930 . S
C3454 C3450 1.524 . S
C3454 H3466 0.956 . S
C3454 H3467 0.961 . S
C3454 H3468 0.961 . S
C3455 C3452 1.539 . S
C3455 H3469 0.958 . S
C3455 H3470 0.961 . S
C3455 H3471 0.960 . S
H3456 C3440 0.931 . S
H3457 C3445 0.929 . S
H3458 C3446 0.960 . S
H3459 C3446 0.962 . S
H3460 C3446 0.960 . S
H3461 C3447 0.961 . S
H3462 C3447 0.961 . S
H3463 C3447 0.961 . S
H3464 C3448 0.931 . S
H3465 C3453 0.930 . S
H3466 C3454 0.956 . S
H3467 C3454 0.961 . S
H3468 C3454 0.961 . S
H3469 C3455 0.958 . S
H3470 C3455 0.961 . S
H3471 C3455 0.960 . S
C3472 C3473 1.391 . S
C3472 C3474 1.394 . S
C3472 H3488 0.931 . S
C3473 C3472 1.391 . S
C3473 C3477 1.376 . S
C3474 C3472 1.394 . S
C3474 C3475 1.369 . S
C3474 C3478 1.531 . S
C3475 C3474 1.369 . S
C3475 C3476 1.410 . S
C3475 C3483 1.503 . S
C3476 C3475 1.410 . S
C3476 C3477 1.392 . S
C3476 C3479 1.511 . S
C3477 C3473 1.376 . S
C3477 C3476 1.392 . S
C3477 H3489 0.929 . S
C3478 C3474 1.531 . S
C3478 H3490 0.960 . S
C3478 H3491 0.962 . S
C3478 H3492 0.960 . S
C3479 C3476 1.511 . S
C3479 H3493 0.961 . S
C3479 H3494 0.961 . S
C3479 H3495 0.961 . S
C3480 C3481 1.370 . S
C3480 C3482 1.363 . S
C3480 H3496 0.931 . S
C3481 C3480 1.370 . S
C3481 C3485 1.408 . S
C3482 C3480 1.363 . S
C3482 C3483 1.370 . S
C3482 C3486 1.524 . S
C3483 C3475 1.503 . S
C3483 C3482 1.370 . S
C3483 C3484 1.403 . S
C3484 C3483 1.403 . S
C3484 C3485 1.404 . S
C3484 C3487 1.539 . S
C3485 C3481 1.408 . S
C3485 C3484 1.404 . S
C3485 H3497 0.930 . S
C3486 C3482 1.524 . S
C3486 H3498 0.956 . S
C3486 H3499 0.961 . S
C3486 H3500 0.961 . S
C3487 C3484 1.539 . S
C3487 H3501 0.958 . S
C3487 H3502 0.961 . S
C3487 H3503 0.960 . S
H3488 C3472 0.931 . S
H3489 C3477 0.929 . S
H3490 C3478 0.960 . S
H3491 C3478 0.962 . S
H3492 C3478 0.960 . S
H3493 C3479 0.961 . S
H3494 C3479 0.961 . S
H3495 C3479 0.961 . S
H3496 C3480 0.931 . S
H3497 C3485 0.930 . S
H3498 C3486 0.956 . S
H3499 C3486 0.961 . S
H3500 C3486 0.961 . S
H3501 C3487 0.958 . S
H3502 C3487 0.961 . S
H3503 C3487 0.960 . S
C3504 C3505 1.391 . S
C3504 C3506 1.394 . S
C3504 H3520 0.931 . S
C3505 C3504 1.391 . S
C3505 C3509 1.376 . S
C3506 C3504 1.394 . S
C3506 C3507 1.369 . S
C3506 C3510 1.531 . S
C3507 C3506 1.369 . S
C3507 C3508 1.410 . S
C3507 C3515 1.503 . S
C3508 C3507 1.410 . S
C3508 C3509 1.392 . S
C3508 C3511 1.511 . S
C3509 C3505 1.376 . S
C3509 C3508 1.392 . S
C3509 H3521 0.929 . S
C3510 C3506 1.531 . S
C3510 H3522 0.960 . S
C3510 H3523 0.962 . S
C3510 H3524 0.960 . S
C3511 C3508 1.511 . S
C3511 H3525 0.961 . S
C3511 H3526 0.961 . S
C3511 H3527 0.961 . S
C3512 C3513 1.370 . S
C3512 C3514 1.363 . S
C3512 H3528 0.931 . S
C3513 C3512 1.370 . S
C3513 C3517 1.408 . S
C3514 C3512 1.363 . S
C3514 C3515 1.370 . S
C3514 C3518 1.524 . S
C3515 C3507 1.503 . S
C3515 C3514 1.370 . S
C3515 C3516 1.403 . S
C3516 C3515 1.403 . S
C3516 C3517 1.404 . S
C3516 C3519 1.539 . S
C3517 C3513 1.408 . S
C3517 C3516 1.404 . S
C3517 H3529 0.930 . S
C3518 C3514 1.524 . S
C3518 H3530 0.956 . S
C3518 H3531 0.961 . S
C3518 H3532 0.961 . S
C3519 C3516 1.539 . S
C3519 H3533 0.958 . S
C3519 H3534 0.961 . S
C3519 H3535 0.960 . S
H3520 C3504 0.931 . S
H3521 C3509 0.929 . S
H3522 C3510 0.960 . S
H3523 C3510 0.962 . S
H3524 C3510 0.960 . S
H3525 C3511 0.961 . S
H3526 C3511 0.961 . S
H3527 C3511 0.961 . S
H3528 C3512 0.931 . S
H3529 C3517 0.930 . S
H3530 C3518 0.956 . S
H3531 C3518 0.961 . S
H3532 C3518 0.961 . S
H3533 C3519 0.958 . S
H3534 C3519 0.961 . S
H3535 C3519 0.960 . S
C3536 C3537 1.391 . S
C3536 C3538 1.394 . S
C3536 H3552 0.931 . S
C3537 C3536 1.391 . S
C3537 C3541 1.376 . S
C3538 C3536 1.394 . S
C3538 C3539 1.369 . S
C3538 C3542 1.531 . S
C3539 C3538 1.369 . S
C3539 C3540 1.410 . S
C3539 C3547 1.503 . S
C3540 C3539 1.410 . S
C3540 C3541 1.392 . S
C3540 C3543 1.511 . S
C3541 C3537 1.376 . S
C3541 C3540 1.392 . S
C3541 H3553 0.929 . S
C3542 C3538 1.531 . S
C3542 H3554 0.960 . S
C3542 H3555 0.962 . S
C3542 H3556 0.960 . S
C3543 C3540 1.511 . S
C3543 H3557 0.961 . S
C3543 H3558 0.961 . S
C3543 H3559 0.961 . S
C3544 C3545 1.370 . S
C3544 C3546 1.363 . S
C3544 H3560 0.931 . S
C3545 C3544 1.370 . S
C3545 C3549 1.408 . S
C3546 C3544 1.363 . S
C3546 C3547 1.370 . S
C3546 C3550 1.524 . S
C3547 C3539 1.503 . S
C3547 C3546 1.370 . S
C3547 C3548 1.403 . S
C3548 C3547 1.403 . S
C3548 C3549 1.404 . S
C3548 C3551 1.539 . S
C3549 C3545 1.408 . S
C3549 C3548 1.404 . S
C3549 H3561 0.930 . S
C3550 C3546 1.524 . S
C3550 H3562 0.956 . S
C3550 H3563 0.961 . S
C3550 H3564 0.961 . S
C3551 C3548 1.539 . S
C3551 H3565 0.958 . S
C3551 H3566 0.961 . S
C3551 H3567 0.960 . S
H3552 C3536 0.931 . S
H3553 C3541 0.929 . S
H3554 C3542 0.960 . S
H3555 C3542 0.962 . S
H3556 C3542 0.960 . S
H3557 C3543 0.961 . S
H3558 C3543 0.961 . S
H3559 C3543 0.961 . S
H3560 C3544 0.931 . S
H3561 C3549 0.930 . S
H3562 C3550 0.956 . S
H3563 C3550 0.961 . S
H3564 C3550 0.961 . S
H3565 C3551 0.958 . S
H3566 C3551 0.961 . S
H3567 C3551 0.960 . S
C3568 C3569 1.391 . S
C3568 C3570 1.394 . S
C3568 H3584 0.931 . S
C3569 C3568 1.391 . S
C3569 C3573 1.376 . S
C3570 C3568 1.394 . S
C3570 C3571 1.369 . S
C3570 C3574 1.531 . S
C3571 C3570 1.369 . S
C3571 C3572 1.410 . S
C3571 C3579 1.503 . S
C3572 C3571 1.410 . S
C3572 C3573 1.392 . S
C3572 C3575 1.511 . S
C3573 C3569 1.376 . S
C3573 C3572 1.392 . S
C3573 H3585 0.929 . S
C3574 C3570 1.531 . S
C3574 H3586 0.960 . S
C3574 H3587 0.962 . S
C3574 H3588 0.960 . S
C3575 C3572 1.511 . S
C3575 H3589 0.961 . S
C3575 H3590 0.961 . S
C3575 H3591 0.961 . S
C3576 C3577 1.370 . S
C3576 C3578 1.363 . S
C3576 H3592 0.931 . S
C3577 C3576 1.370 . S
C3577 C3581 1.408 . S
C3578 C3576 1.363 . S
C3578 C3579 1.370 . S
C3578 C3582 1.524 . S
C3579 C3571 1.503 . S
C3579 C3578 1.370 . S
C3579 C3580 1.403 . S
C3580 C3579 1.403 . S
C3580 C3581 1.404 . S
C3580 C3583 1.539 . S
C3581 C3577 1.408 . S
C3581 C3580 1.404 . S
C3581 H3593 0.930 . S
C3582 C3578 1.524 . S
C3582 H3594 0.956 . S
C3582 H3595 0.961 . S
C3582 H3596 0.961 . S
C3583 C3580 1.539 . S
C3583 H3597 0.958 . S
C3583 H3598 0.961 . S
C3583 H3599 0.960 . S
H3584 C3568 0.931 . S
H3585 C3573 0.929 . S
H3586 C3574 0.960 . S
H3587 C3574 0.962 . S
H3588 C3574 0.960 . S
H3589 C3575 0.961 . S
H3590 C3575 0.961 . S
H3591 C3575 0.961 . S
H3592 C3576 0.931 . S
H3593 C3581 0.930 . S
H3594 C3582 0.956 . S
H3595 C3582 0.961 . S
H3596 C3582 0.961 . S
H3597 C3583 0.958 . S
H3598 C3583 0.961 . S
H3599 C3583 0.960 . S
C3600 C3601 1.391 . S
C3600 C3602 1.394 . S
C3600 H3616 0.931 . S
C3601 C3600 1.391 . S
C3601 C3605 1.376 . S
C3602 C3600 1.394 . S
C3602 C3603 1.369 . S
C3602 C3606 1.531 . S
C3603 C3602 1.369 . S
C3603 C3604 1.410 . S
C3603 C3611 1.503 . S
C3604 C3603 1.410 . S
C3604 C3605 1.392 . S
C3604 C3607 1.511 . S
C3605 C3601 1.376 . S
C3605 C3604 1.392 . S
C3605 H3617 0.929 . S
C3606 C3602 1.531 . S
C3606 H3618 0.960 . S
C3606 H3619 0.962 . S
C3606 H3620 0.960 . S
C3607 C3604 1.511 . S
C3607 H3621 0.961 . S
C3607 H3622 0.961 . S
C3607 H3623 0.961 . S
C3608 C3609 1.370 . S
C3608 C3610 1.363 . S
C3608 H3624 0.931 . S
C3609 C3608 1.370 . S
C3609 C3613 1.408 . S
C3610 C3608 1.363 . S
C3610 C3611 1.370 . S
C3610 C3614 1.524 . S
C3611 C3603 1.503 . S
C3611 C3610 1.370 . S
C3611 C3612 1.403 . S
C3612 C3611 1.403 . S
C3612 C3613 1.404 . S
C3612 C3615 1.539 . S
C3613 C3609 1.408 . S
C3613 C3612 1.404 . S
C3613 H3625 0.930 . S
C3614 C3610 1.524 . S
C3614 H3626 0.956 . S
C3614 H3627 0.961 . S
C3614 H3628 0.961 . S
C3615 C3612 1.539 . S
C3615 H3629 0.958 . S
C3615 H3630 0.961 . S
C3615 H3631 0.960 . S
H3616 C3600 0.931 . S
H3617 C3605 0.929 . S
H3618 C3606 0.960 . S
H3619 C3606 0.962 . S
H3620 C3606 0.960 . S
H3621 C3607 0.961 . S
H3622 C3607 0.961 . S
H3623 C3607 0.961 . S
H3624 C3608 0.931 . S
H3625 C3613 0.930 . S
H3626 C3614 0.956 . S
H3627 C3614 0.961 . S
H3628 C3614 0.961 . S
H3629 C3615 0.958 . S
H3630 C3615 0.961 . S
H3631 C3615 0.960 . S
C3632 C3633 1.391 . S
C3632 C3634 1.394 . S
C3632 H3648 0.931 . S
C3633 C3632 1.391 . S
C3633 C3637 1.376 . S
C3634 C3632 1.394 . S
C3634 C3635 1.369 . S
C3634 C3638 1.531 . S
C3635 C3634 1.369 . S
C3635 C3636 1.410 . S
C3635 C3643 1.503 . S
C3636 C3635 1.410 . S
C3636 C3637 1.392 . S
C3636 C3639 1.511 . S
C3637 C3633 1.376 . S
C3637 C3636 1.392 . S
C3637 H3649 0.929 . S
C3638 C3634 1.531 . S
C3638 H3650 0.960 . S
C3638 H3651 0.962 . S
C3638 H3652 0.960 . S
C3639 C3636 1.511 . S
C3639 H3653 0.961 . S
C3639 H3654 0.961 . S
C3639 H3655 0.961 . S
C3640 C3641 1.370 . S
C3640 C3642 1.363 . S
C3640 H3656 0.931 . S
C3641 C3640 1.370 . S
C3641 C3645 1.408 . S
C3642 C3640 1.363 . S
C3642 C3643 1.370 . S
C3642 C3646 1.524 . S
C3643 C3635 1.503 . S
C3643 C3642 1.370 . S
C3643 C3644 1.403 . S
C3644 C3643 1.403 . S
C3644 C3645 1.404 . S
C3644 C3647 1.539 . S
C3645 C3641 1.408 . S
C3645 C3644 1.404 . S
C3645 H3657 0.930 . S
C3646 C3642 1.524 . S
C3646 H3658 0.956 . S
C3646 H3659 0.961 . S
C3646 H3660 0.961 . S
C3647 C3644 1.539 . S
C3647 H3661 0.958 . S
C3647 H3662 0.961 . S
C3647 H3663 0.960 . S
H3648 C3632 0.931 . S
H3649 C3637 0.929 . S
H3650 C3638 0.960 . S
H3651 C3638 0.962 . S
H3652 C3638 0.960 . S
H3653 C3639 0.961 . S
H3654 C3639 0.961 . S
H3655 C3639 0.961 . S
H3656 C3640 0.931 . S
H3657 C3645 0.930 . S
H3658 C3646 0.956 . S
H3659 C3646 0.961 . S
H3660 C3646 0.961 . S
H3661 C3647 0.958 . S
H3662 C3647 0.961 . S
H3663 C3647 0.960 . S
C3664 C3665 1.391 . S
C3664 C3666 1.394 . S
C3664 H3680 0.931 . S
C3665 C3664 1.391 . S
C3665 C3669 1.376 . S
C3666 C3664 1.394 . S
C3666 C3667 1.369 . S
C3666 C3670 1.531 . S
C3667 C3666 1.369 . S
C3667 C3668 1.410 . S
C3667 C3675 1.503 . S
C3668 C3667 1.410 . S
C3668 C3669 1.392 . S
C3668 C3671 1.511 . S
C3669 C3665 1.376 . S
C3669 C3668 1.392 . S
C3669 H3681 0.929 . S
C3670 C3666 1.531 . S
C3670 H3682 0.960 . S
C3670 H3683 0.962 . S
C3670 H3684 0.960 . S
C3671 C3668 1.511 . S
C3671 H3685 0.961 . S
C3671 H3686 0.961 . S
C3671 H3687 0.961 . S
C3672 C3673 1.370 . S
C3672 C3674 1.363 . S
C3672 H3688 0.931 . S
C3673 C3672 1.370 . S
C3673 C3677 1.408 . S
C3674 C3672 1.363 . S
C3674 C3675 1.370 . S
C3674 C3678 1.524 . S
C3675 C3667 1.503 . S
C3675 C3674 1.370 . S
C3675 C3676 1.403 . S
C3676 C3675 1.403 . S
C3676 C3677 1.404 . S
C3676 C3679 1.539 . S
C3677 C3673 1.408 . S
C3677 C3676 1.404 . S
C3677 H3689 0.930 . S
C3678 C3674 1.524 . S
C3678 H3690 0.956 . S
C3678 H3691 0.961 . S
C3678 H3692 0.961 . S
C3679 C3676 1.539 . S
C3679 H3693 0.958 . S
C3679 H3694 0.961 . S
C3679 H3695 0.960 . S
H3680 C3664 0.931 . S
H3681 C3669 0.929 . S
H3682 C3670 0.960 . S
H3683 C3670 0.962 . S
H3684 C3670 0.960 . S
H3685 C3671 0.961 . S
H3686 C3671 0.961 . S
H3687 C3671 0.961 . S
H3688 C3672 0.931 . S
H3689 C3677 0.930 . S
H3690 C3678 0.956 . S
H3691 C3678 0.961 . S
H3692 C3678 0.961 . S
H3693 C3679 0.958 . S
H3694 C3679 0.961 . S
H3695 C3679 0.960 . S
C3696 C3697 1.391 . S
C3696 C3698 1.394 . S
C3696 H3712 0.931 . S
C3697 C3696 1.391 . S
C3697 C3701 1.376 . S
C3698 C3696 1.394 . S
C3698 C3699 1.369 . S
C3698 C3702 1.531 . S
C3699 C3698 1.369 . S
C3699 C3700 1.410 . S
C3699 C3707 1.503 . S
C3700 C3699 1.410 . S
C3700 C3701 1.392 . S
C3700 C3703 1.511 . S
C3701 C3697 1.376 . S
C3701 C3700 1.392 . S
C3701 H3713 0.929 . S
C3702 C3698 1.531 . S
C3702 H3714 0.960 . S
C3702 H3715 0.962 . S
C3702 H3716 0.960 . S
C3703 C3700 1.511 . S
C3703 H3717 0.961 . S
C3703 H3718 0.961 . S
C3703 H3719 0.961 . S
C3704 C3705 1.370 . S
C3704 C3706 1.363 . S
C3704 H3720 0.931 . S
C3705 C3704 1.370 . S
C3705 C3709 1.408 . S
C3706 C3704 1.363 . S
C3706 C3707 1.370 . S
C3706 C3710 1.524 . S
C3707 C3699 1.503 . S
C3707 C3706 1.370 . S
C3707 C3708 1.403 . S
C3708 C3707 1.403 . S
C3708 C3709 1.404 . S
C3708 C3711 1.539 . S
C3709 C3705 1.408 . S
C3709 C3708 1.404 . S
C3709 H3721 0.930 . S
C3710 C3706 1.524 . S
C3710 H3722 0.956 . S
C3710 H3723 0.961 . S
C3710 H3724 0.961 . S
C3711 C3708 1.539 . S
C3711 H3725 0.958 . S
C3711 H3726 0.961 . S
C3711 H3727 0.960 . S
H3712 C3696 0.931 . S
H3713 C3701 0.929 . S
H3714 C3702 0.960 . S
H3715 C3702 0.962 . S
H3716 C3702 0.960 . S
H3717 C3703 0.961 . S
H3718 C3703 0.961 . S
H3719 C3703 0.961 . S
H3720 C3704 0.931 . S
H3721 C3709 0.930 . S
H3722 C3710 0.956 . S
H3723 C3710 0.961 . S
H3724 C3710 0.961 . S
H3725 C3711 0.958 . S
H3726 C3711 0.961 . S
H3727 C3711 0.960 . S
C3728 C3729 1.391 . S
C3728 C3730 1.394 . S
C3728 H3744 0.931 . S
C3729 C3728 1.391 . S
C3729 C3733 1.376 . S
C3730 C3728 1.394 . S
C3730 C3731 1.369 . S
C3730 C3734 1.531 . S
C3731 C3730 1.369 . S
C3731 C3732 1.410 . S
C3731 C3739 1.503 . S
C3732 C3731 1.410 . S
C3732 C3733 1.392 . S
C3732 C3735 1.511 . S
C3733 C3729 1.376 . S
C3733 C3732 1.392 . S
C3733 H3745 0.929 . S
C3734 C3730 1.531 . S
C3734 H3746 0.960 . S
C3734 H3747 0.962 . S
C3734 H3748 0.960 . S
C3735 C3732 1.511 . S
C3735 H3749 0.961 . S
C3735 H3750 0.961 . S
C3735 H3751 0.961 . S
C3736 C3737 1.370 . S
C3736 C3738 1.363 . S
C3736 H3752 0.931 . S
C3737 C3736 1.370 . S
C3737 C3741 1.408 . S
C3738 C3736 1.363 . S
C3738 C3739 1.370 . S
C3738 C3742 1.524 . S
C3739 C3731 1.503 . S
C3739 C3738 1.370 . S
C3739 C3740 1.403 . S
C3740 C3739 1.403 . S
C3740 C3741 1.404 . S
C3740 C3743 1.539 . S
C3741 C3737 1.408 . S
C3741 C3740 1.404 . S
C3741 H3753 0.930 . S
C3742 C3738 1.524 . S
C3742 H3754 0.956 . S
C3742 H3755 0.961 . S
C3742 H3756 0.961 . S
C3743 C3740 1.539 . S
C3743 H3757 0.958 . S
C3743 H3758 0.961 . S
C3743 H3759 0.960 . S
H3744 C3728 0.931 . S
H3745 C3733 0.929 . S
H3746 C3734 0.960 . S
H3747 C3734 0.962 . S
H3748 C3734 0.960 . S
H3749 C3735 0.961 . S
H3750 C3735 0.961 . S
H3751 C3735 0.961 . S
H3752 C3736 0.931 . S
H3753 C3741 0.930 . S
H3754 C3742 0.956 . S
H3755 C3742 0.961 . S
H3756 C3742 0.961 . S
H3757 C3743 0.958 . S
H3758 C3743 0.961 . S
H3759 C3743 0.960 . S
C3760 C3761 1.391 . S
C3760 C3762 1.394 . S
C3760 H3776 0.931 . S
C3761 C3760 1.391 . S
C3761 C3765 1.376 . S
C3762 C3760 1.394 . S
C3762 C3763 1.369 . S
C3762 C3766 1.531 . S
C3763 C3762 1.369 . S
C3763 C3764 1.410 . S
C3763 C3771 1.503 . S
C3764 C3763 1.410 . S
C3764 C3765 1.392 . S
C3764 C3767 1.511 . S
C3765 C3761 1.376 . S
C3765 C3764 1.392 . S
C3765 H3777 0.929 . S
C3766 C3762 1.531 . S
C3766 H3778 0.960 . S
C3766 H3779 0.962 . S
C3766 H3780 0.960 . S
C3767 C3764 1.511 . S
C3767 H3781 0.961 . S
C3767 H3782 0.961 . S
C3767 H3783 0.961 . S
C3768 C3769 1.370 . S
C3768 C3770 1.363 . S
C3768 H3784 0.931 . S
C3769 C3768 1.370 . S
C3769 C3773 1.408 . S
C3770 C3768 1.363 . S
C3770 C3771 1.370 . S
C3770 C3774 1.524 . S
C3771 C3763 1.503 . S
C3771 C3770 1.370 . S
C3771 C3772 1.403 . S
C3772 C3771 1.403 . S
C3772 C3773 1.404 . S
C3772 C3775 1.539 . S
C3773 C3769 1.408 . S
C3773 C3772 1.404 . S
C3773 H3785 0.930 . S
C3774 C3770 1.524 . S
C3774 H3786 0.956 . S
C3774 H3787 0.961 . S
C3774 H3788 0.961 . S
C3775 C3772 1.539 . S
C3775 H3789 0.958 . S
C3775 H3790 0.961 . S
C3775 H3791 0.960 . S
H3776 C3760 0.931 . S
H3777 C3765 0.929 . S
H3778 C3766 0.960 . S
H3779 C3766 0.962 . S
H3780 C3766 0.960 . S
H3781 C3767 0.961 . S
H3782 C3767 0.961 . S
H3783 C3767 0.961 . S
H3784 C3768 0.931 . S
H3785 C3773 0.930 . S
H3786 C3774 0.956 . S
H3787 C3774 0.961 . S
H3788 C3774 0.961 . S
H3789 C3775 0.958 . S
H3790 C3775 0.961 . S
H3791 C3775 0.960 . S
C3792 C3793 1.391 . S
C3792 C3794 1.394 . S
C3792 H3808 0.931 . S
C3793 C3792 1.391 . S
C3793 C3797 1.376 . S
C3794 C3792 1.394 . S
C3794 C3795 1.369 . S
C3794 C3798 1.531 . S
C3795 C3794 1.369 . S
C3795 C3796 1.410 . S
C3795 C3803 1.503 . S
C3796 C3795 1.410 . S
C3796 C3797 1.392 . S
C3796 C3799 1.511 . S
C3797 C3793 1.376 . S
C3797 C3796 1.392 . S
C3797 H3809 0.929 . S
C3798 C3794 1.531 . S
C3798 H3810 0.960 . S
C3798 H3811 0.962 . S
C3798 H3812 0.960 . S
C3799 C3796 1.511 . S
C3799 H3813 0.961 . S
C3799 H3814 0.961 . S
C3799 H3815 0.961 . S
C3800 C3801 1.370 . S
C3800 C3802 1.363 . S
C3800 H3816 0.931 . S
C3801 C3800 1.370 . S
C3801 C3805 1.408 . S
C3802 C3800 1.363 . S
C3802 C3803 1.370 . S
C3802 C3806 1.524 . S
C3803 C3795 1.503 . S
C3803 C3802 1.370 . S
C3803 C3804 1.403 . S
C3804 C3803 1.403 . S
C3804 C3805 1.404 . S
C3804 C3807 1.539 . S
C3805 C3801 1.408 . S
C3805 C3804 1.404 . S
C3805 H3817 0.930 . S
C3806 C3802 1.524 . S
C3806 H3818 0.956 . S
C3806 H3819 0.961 . S
C3806 H3820 0.961 . S
C3807 C3804 1.539 . S
C3807 H3821 0.958 . S
C3807 H3822 0.961 . S
C3807 H3823 0.960 . S
H3808 C3792 0.931 . S
H3809 C3797 0.929 . S
H3810 C3798 0.960 . S
H3811 C3798 0.962 . S
H3812 C3798 0.960 . S
H3813 C3799 0.961 . S
H3814 C3799 0.961 . S
H3815 C3799 0.961 . S
H3816 C3800 0.931 . S
H3817 C3805 0.930 . S
H3818 C3806 0.956 . S
H3819 C3806 0.961 . S
H3820 C3806 0.961 . S
H3821 C3807 0.958 . S
H3822 C3807 0.961 . S
H3823 C3807 0.960 . S
C3824 C3825 1.391 . S
C3824 C3826 1.394 . S
C3824 H3840 0.931 1_554 S
C3825 C3824 1.391 . S
C3825 C3829 1.376 . S
C3826 C3824 1.394 . S
C3826 C3827 1.369 . S
C3826 C3830 1.531 1_554 S
C3827 C3826 1.369 . S
C3827 C3828 1.410 . S
C3827 C3835 1.503 . S
C3828 C3827 1.410 . S
C3828 C3829 1.392 . S
C3828 C3831 1.511 1_565 S
C3829 C3825 1.376 . S
C3829 C3828 1.392 . S
C3829 H3841 0.929 . S
C3830 C3826 1.531 1_556 S
C3830 H3842 0.960 . S
C3830 H3843 0.962 1_556 S
C3830 H3844 0.960 . S
C3831 C3828 1.511 1_545 S
C3831 H3845 0.961 . S
C3831 H3846 0.961 . S
C3831 H3847 0.961 . S
C3832 C3833 1.370 . S
C3832 C3834 1.363 1_545 S
C3832 H3848 0.931 . S
C3833 C3832 1.370 . S
C3833 C3837 1.408 1_554 S
C3834 C3832 1.363 1_565 S
C3834 C3835 1.370 . S
C3834 C3838 1.524 . S
C3835 C3827 1.503 . S
C3835 C3834 1.370 . S
C3835 C3836 1.403 1_564 S
C3836 C3835 1.403 1_546 S
C3836 C3837 1.404 . S
C3836 C3839 1.539 . S
C3837 C3833 1.408 1_556 S
C3837 C3836 1.404 . S
C3837 H3849 0.930 . S
C3838 C3834 1.524 . S
C3838 H3850 0.956 . S
C3838 H3851 0.961 . S
C3838 H3852 0.961 . S
C3839 C3836 1.539 . S
C3839 H3853 0.958 1_545 S
C3839 H3854 0.961 . S
C3839 H3855 0.960 . S
H3840 C3824 0.931 1_556 S
H3841 C3829 0.929 . S
H3842 C3830 0.960 . S
H3843 C3830 0.962 1_554 S
H3844 C3830 0.960 . S
H3845 C3831 0.961 . S
H3846 C3831 0.961 . S
H3847 C3831 0.961 . S
H3848 C3832 0.931 . S
H3849 C3837 0.930 . S
H3850 C3838 0.956 . S
H3851 C3838 0.961 . S
H3852 C3838 0.961 . S
H3853 C3839 0.958 1_565 S
H3854 C3839 0.961 . S
H3855 C3839 0.960 . S
C3856 C3857 1.391 . S
C3856 C3858 1.394 . S
C3856 H3872 0.931 . S
C3857 C3856 1.391 . S
C3857 C3861 1.376 . S
C3858 C3856 1.394 . S
C3858 C3859 1.369 . S
C3858 C3862 1.531 . S
C3859 C3858 1.369 . S
C3859 C3860 1.410 . S
C3859 C3867 1.503 . S
C3860 C3859 1.410 . S
C3860 C3861 1.392 . S
C3860 C3863 1.511 . S
C3861 C3857 1.376 . S
C3861 C3860 1.392 . S
C3861 H3873 0.929 . S
C3862 C3858 1.531 . S
C3862 H3874 0.960 . S
C3862 H3875 0.962 . S
C3862 H3876 0.960 . S
C3863 C3860 1.511 . S
C3863 H3877 0.961 . S
C3863 H3878 0.961 . S
C3863 H3879 0.961 . S
C3864 C3865 1.370 . S
C3864 C3866 1.363 . S
C3864 H3880 0.931 . S
C3865 C3864 1.370 . S
C3865 C3869 1.408 . S
C3866 C3864 1.363 . S
C3866 C3867 1.370 . S
C3866 C3870 1.524 . S
C3867 C3859 1.503 . S
C3867 C3866 1.370 . S
C3867 C3868 1.403 . S
C3868 C3867 1.403 . S
C3868 C3869 1.404 . S
C3868 C3871 1.539 . S
C3869 C3865 1.408 . S
C3869 C3868 1.404 . S
C3869 H3881 0.930 . S
C3870 C3866 1.524 . S
C3870 H3882 0.956 . S
C3870 H3883 0.961 . S
C3870 H3884 0.961 . S
C3871 C3868 1.539 . S
C3871 H3885 0.958 . S
C3871 H3886 0.961 . S
C3871 H3887 0.960 . S
H3872 C3856 0.931 . S
H3873 C3861 0.929 . S
H3874 C3862 0.960 . S
H3875 C3862 0.962 . S
H3876 C3862 0.960 . S
H3877 C3863 0.961 . S
H3878 C3863 0.961 . S
H3879 C3863 0.961 . S
H3880 C3864 0.931 . S
H3881 C3869 0.930 . S
H3882 C3870 0.956 . S
H3883 C3870 0.961 . S
H3884 C3870 0.961 . S
H3885 C3871 0.958 . S
H3886 C3871 0.961 . S
H3887 C3871 0.960 . S
C3888 C3889 1.391 . S
C3888 C3890 1.394 . S
C3888 H3904 0.931 . S
C3889 C3888 1.391 . S
C3889 C3893 1.376 1_554 S
C3890 C3888 1.394 . S
C3890 C3891 1.369 . S
C3890 C3894 1.531 . S
C3891 C3890 1.369 . S
C3891 C3892 1.410 1_554 S
C3891 C3899 1.503 . S
C3892 C3891 1.410 1_556 S
C3892 C3893 1.392 . S
C3892 C3895 1.511 . S
C3893 C3889 1.376 1_556 S
C3893 C3892 1.392 . S
C3893 H3905 0.929 . S
C3894 C3890 1.531 . S
C3894 H3906 0.960 . S
C3894 H3907 0.962 . S
C3894 H3908 0.960 . S
C3895 C3892 1.511 . S
C3895 H3909 0.961 . S
C3895 H3910 0.961 . S
C3895 H3911 0.961 . S
C3896 C3897 1.370 . S
C3896 C3898 1.363 . S
C3896 H3912 0.931 . S
C3897 C3896 1.370 . S
C3897 C3901 1.408 . S
C3898 C3896 1.363 . S
C3898 C3899 1.370 . S
C3898 C3902 1.524 . S
C3899 C3891 1.503 . S
C3899 C3898 1.370 . S
C3899 C3900 1.403 . S
C3900 C3899 1.403 . S
C3900 C3901 1.404 . S
C3900 C3903 1.539 1_554 S
C3901 C3897 1.408 . S
C3901 C3900 1.404 . S
C3901 H3913 0.930 . S
C3902 C3898 1.524 . S
C3902 H3914 0.956 . S
C3902 H3915 0.961 . S
C3902 H3916 0.961 . S
C3903 C3900 1.539 1_556 S
C3903 H3917 0.985 . S
C3903 H3918 0.961 . S
C3903 H3919 0.960 . S
H3904 C3888 0.931 . S
H3905 C3893 0.929 . S
H3906 C3894 0.960 . S
H3907 C3894 0.962 . S
H3908 C3894 0.960 . S
H3909 C3895 0.961 . S
H3910 C3895 0.961 . S
H3911 C3895 0.961 . S
H3912 C3896 0.931 . S
H3913 C3901 0.930 . S
H3914 C3902 0.956 . S
H3915 C3902 0.961 . S
H3916 C3902 0.961 . S
H3917 C3903 0.985 . S
H3918 C3903 0.961 . S
H3919 C3903 0.960 . S
C3920 C3921 1.391 . S
C3920 C3922 1.394 . S
C3920 H3936 0.931 . S
C3921 C3920 1.391 . S
C3921 C3925 1.376 . S
C3922 C3920 1.394 . S
C3922 C3923 1.369 . S
C3922 C3926 1.531 . S
C3923 C3922 1.369 . S
C3923 C3924 1.410 . S
C3923 C3931 1.503 . S
C3924 C3923 1.410 . S
C3924 C3925 1.392 . S
C3924 C3927 1.511 . S
C3925 C3921 1.376 . S
C3925 C3924 1.392 . S
C3925 H3937 0.929 . S
C3926 C3922 1.531 . S
C3926 H3938 0.960 . S
C3926 H3939 0.962 . S
C3926 H3940 0.960 . S
C3927 C3924 1.511 . S
C3927 H3941 0.961 . S
C3927 H3942 0.961 . S
C3927 H3943 0.961 . S
C3928 C3929 1.370 . S
C3928 C3930 1.363 . S
C3928 H3944 0.931 . S
C3929 C3928 1.370 . S
C3929 C3933 1.408 . S
C3930 C3928 1.363 . S
C3930 C3931 1.370 . S
C3930 C3934 1.524 . S
C3931 C3923 1.503 . S
C3931 C3930 1.370 . S
C3931 C3932 1.403 . S
C3932 C3931 1.403 . S
C3932 C3933 1.404 . S
C3932 C3935 1.539 . S
C3933 C3929 1.408 . S
C3933 C3932 1.404 . S
C3933 H3945 0.930 . S
C3934 C3930 1.524 . S
C3934 H3946 0.956 . S
C3934 H3947 0.961 . S
C3934 H3948 0.961 . S
C3935 C3932 1.539 . S
C3935 H3949 0.958 . S
C3935 H3950 0.961 . S
C3935 H3951 0.960 . S
H3936 C3920 0.931 . S
H3937 C3925 0.929 . S
H3938 C3926 0.960 . S
H3939 C3926 0.962 . S
H3940 C3926 0.960 . S
H3941 C3927 0.961 . S
H3942 C3927 0.961 . S
H3943 C3927 0.961 . S
H3944 C3928 0.931 . S
H3945 C3933 0.930 . S
H3946 C3934 0.956 . S
H3947 C3934 0.961 . S
H3948 C3934 0.961 . S
H3949 C3935 0.958 . S
H3950 C3935 0.961 . S
H3951 C3935 0.960 . S
C3952 C3953 1.391 . S
C3952 C3954 1.394 . S
C3952 H3968 0.931 . S
C3953 C3952 1.391 . S
C3953 C3957 1.376 . S
C3954 C3952 1.394 . S
C3954 C3955 1.369 . S
C3954 C3958 1.531 . S
C3955 C3954 1.369 . S
C3955 C3956 1.410 . S
C3955 C3963 1.503 . S
C3956 C3955 1.410 . S
C3956 C3957 1.392 . S
C3956 C3959 1.511 . S
C3957 C3953 1.376 . S
C3957 C3956 1.392 . S
C3957 H3969 0.929 . S
C3958 C3954 1.531 . S
C3958 H3970 0.960 . S
C3958 H3971 0.962 . S
C3958 H3972 0.960 . S
C3959 C3956 1.511 . S
C3959 H3973 0.961 . S
C3959 H3974 0.961 . S
C3959 H3975 0.961 . S
C3960 C3961 1.370 . S
C3960 C3962 1.363 . S
C3960 H3976 0.931 . S
C3961 C3960 1.370 . S
C3961 C3965 1.408 . S
C3962 C3960 1.363 . S
C3962 C3963 1.370 . S
C3962 C3966 1.524 . S
C3963 C3955 1.503 . S
C3963 C3962 1.370 . S
C3963 C3964 1.403 . S
C3964 C3963 1.403 . S
C3964 C3965 1.404 . S
C3964 C3967 1.539 . S
C3965 C3961 1.408 . S
C3965 C3964 1.404 . S
C3965 H3977 0.930 . S
C3966 C3962 1.524 . S
C3966 H3978 0.956 . S
C3966 H3979 0.961 . S
C3966 H3980 0.961 . S
C3967 C3964 1.539 . S
C3967 H3981 0.958 . S
C3967 H3982 0.961 . S
C3967 H3983 0.960 . S
H3968 C3952 0.931 . S
H3969 C3957 0.929 . S
H3970 C3958 0.960 . S
H3971 C3958 0.962 . S
H3972 C3958 0.960 . S
H3973 C3959 0.961 . S
H3974 C3959 0.961 . S
H3975 C3959 0.961 . S
H3976 C3960 0.931 . S
H3977 C3965 0.930 . S
H3978 C3966 0.956 . S
H3979 C3966 0.961 . S
H3980 C3966 0.961 . S
H3981 C3967 0.958 . S
H3982 C3967 0.961 . S
H3983 C3967 0.960 . S
C3984 C3985 1.391 . S
C3984 C3986 1.394 . S
C3984 H4000 0.931 . S
C3985 C3984 1.391 . S
C3985 C3989 1.376 . S
C3986 C3984 1.394 . S
C3986 C3987 1.369 . S
C3986 C3990 1.531 . S
C3987 C3986 1.369 . S
C3987 C3988 1.410 . S
C3987 C3995 1.503 . S
C3988 C3987 1.410 . S
C3988 C3989 1.392 . S
C3988 C3991 1.511 . S
C3989 C3985 1.376 . S
C3989 C3988 1.392 . S
C3989 H4001 0.929 . S
C3990 C3986 1.531 . S
C3990 H4002 0.960 . S
C3990 H4003 0.962 . S
C3990 H4004 0.960 . S
C3991 C3988 1.511 . S
C3991 H4005 0.961 . S
C3991 H4006 0.961 . S
C3991 H4007 0.961 . S
C3992 C3993 1.370 . S
C3992 C3994 1.363 . S
C3992 H4008 0.931 . S
C3993 C3992 1.370 . S
C3993 C3997 1.408 . S
C3994 C3992 1.363 . S
C3994 C3995 1.370 . S
C3994 C3998 1.524 . S
C3995 C3987 1.503 . S
C3995 C3994 1.370 . S
C3995 C3996 1.403 . S
C3996 C3995 1.403 . S
C3996 C3997 1.404 . S
C3996 C3999 1.539 . S
C3997 C3993 1.408 . S
C3997 C3996 1.404 . S
C3997 H4009 0.930 . S
C3998 C3994 1.524 . S
C3998 H4010 0.956 . S
C3998 H4011 0.961 . S
C3998 H4012 0.961 . S
C3999 C3996 1.539 . S
C3999 H4013 0.958 . S
C3999 H4014 0.961 . S
C3999 H4015 0.960 . S
H4000 C3984 0.931 . S
H4001 C3989 0.929 . S
H4002 C3990 0.960 . S
H4003 C3990 0.962 . S
H4004 C3990 0.960 . S
H4005 C3991 0.961 . S
H4006 C3991 0.961 . S
H4007 C3991 0.961 . S
H4008 C3992 0.931 . S
H4009 C3997 0.930 . S
H4010 C3998 0.956 . S
H4011 C3998 0.961 . S
H4012 C3998 0.961 . S
H4013 C3999 0.958 . S
H4014 C3999 0.961 . S
H4015 C3999 0.960 . S
C4016 C4017 1.391 . S
C4016 C4018 1.394 . S
C4016 H4032 0.931 . S
C4017 C4016 1.391 . S
C4017 C4021 1.376 . S
C4018 C4016 1.394 . S
C4018 C4019 1.369 . S
C4018 C4022 1.531 . S
C4019 C4018 1.369 . S
C4019 C4020 1.410 . S
C4019 C4027 1.503 . S
C4020 C4019 1.410 . S
C4020 C4021 1.392 . S
C4020 C4023 1.511 . S
C4021 C4017 1.376 . S
C4021 C4020 1.392 . S
C4021 H4033 0.929 . S
C4022 C4018 1.531 . S
C4022 H4034 0.960 . S
C4022 H4035 0.962 . S
C4022 H4036 0.960 . S
C4023 C4020 1.511 . S
C4023 H4037 0.961 . S
C4023 H4038 0.961 . S
C4023 H4039 0.961 . S
C4024 C4025 1.370 . S
C4024 C4026 1.363 . S
C4024 H4040 0.931 . S
C4025 C4024 1.370 . S
C4025 C4029 1.408 . S
C4026 C4024 1.363 . S
C4026 C4027 1.370 . S
C4026 C4030 1.524 . S
C4027 C4019 1.503 . S
C4027 C4026 1.370 . S
C4027 C4028 1.403 . S
C4028 C4027 1.403 . S
C4028 C4029 1.404 . S
C4028 C4031 1.539 . S
C4029 C4025 1.408 . S
C4029 C4028 1.404 . S
C4029 H4041 0.930 . S
C4030 C4026 1.524 . S
C4030 H4042 0.956 . S
C4030 H4043 0.961 . S
C4030 H4044 0.961 . S
C4031 C4028 1.539 . S
C4031 H4045 0.958 . S
C4031 H4046 0.961 . S
C4031 H4047 0.960 . S
H4032 C4016 0.931 . S
H4033 C4021 0.929 . S
H4034 C4022 0.960 . S
H4035 C4022 0.962 . S
H4036 C4022 0.960 . S
H4037 C4023 0.961 . S
H4038 C4023 0.961 . S
H4039 C4023 0.961 . S
H4040 C4024 0.931 . S
H4041 C4029 0.930 . S
H4042 C4030 0.956 . S
H4043 C4030 0.961 . S
H4044 C4030 0.961 . S
H4045 C4031 0.958 . S
H4046 C4031 0.961 . S
H4047 C4031 0.960 . S
C4048 C4049 1.391 . S
C4048 C4050 1.394 . S
C4048 H4064 0.931 . S
C4049 C4048 1.391 . S
C4049 C4053 1.376 . S
C4050 C4048 1.394 . S
C4050 C4051 1.369 . S
C4050 C4054 1.531 . S
C4051 C4050 1.369 . S
C4051 C4052 1.410 . S
C4051 C4059 1.503 . S
C4052 C4051 1.410 . S
C4052 C4053 1.392 . S
C4052 C4055 1.511 . S
C4053 C4049 1.376 . S
C4053 C4052 1.392 . S
C4053 H4065 0.929 . S
C4054 C4050 1.531 . S
C4054 H4066 0.960 . S
C4054 H4067 0.962 . S
C4054 H4068 0.960 . S
C4055 C4052 1.511 . S
C4055 H4069 0.961 . S
C4055 H4070 0.961 . S
C4055 H4071 0.961 . S
C4056 C4057 1.370 . S
C4056 C4058 1.363 . S
C4056 H4072 0.931 . S
C4057 C4056 1.370 . S
C4057 C4061 1.408 . S
C4058 C4056 1.363 . S
C4058 C4059 1.370 . S
C4058 C4062 1.524 . S
C4059 C4051 1.503 . S
C4059 C4058 1.370 . S
C4059 C4060 1.403 . S
C4060 C4059 1.403 . S
C4060 C4061 1.404 . S
C4060 C4063 1.539 . S
C4061 C4057 1.408 . S
C4061 C4060 1.404 . S
C4061 H4073 0.930 . S
C4062 C4058 1.524 . S
C4062 H4074 0.956 . S
C4062 H4075 0.961 . S
C4062 H4076 0.961 . S
C4063 C4060 1.539 . S
C4063 H4077 0.958 . S
C4063 H4078 0.961 . S
C4063 H4079 0.960 . S
H4064 C4048 0.931 . S
H4065 C4053 0.929 . S
H4066 C4054 0.960 . S
H4067 C4054 0.962 . S
H4068 C4054 0.960 . S
H4069 C4055 0.961 . S
H4070 C4055 0.961 . S
H4071 C4055 0.961 . S
H4072 C4056 0.931 . S
H4073 C4061 0.930 . S
H4074 C4062 0.956 . S
H4075 C4062 0.961 . S
H4076 C4062 0.961 . S
H4077 C4063 0.958 . S
H4078 C4063 0.961 . S
H4079 C4063 0.960 . S
C4080 C4081 1.391 . S
C4080 C4082 1.394 . S
C4080 H4096 0.931 . S
C4081 C4080 1.391 . S
C4081 C4085 1.376 . S
C4082 C4080 1.394 . S
C4082 C4083 1.369 . S
C4082 C4086 1.531 . S
C4083 C4082 1.369 . S
C4083 C4084 1.410 . S
C4083 C4091 1.503 . S
C4084 C4083 1.410 . S
C4084 C4085 1.392 . S
C4084 C4087 1.511 . S
C4085 C4081 1.376 . S
C4085 C4084 1.392 . S
C4085 H4097 0.929 . S
C4086 C4082 1.531 . S
C4086 H4098 0.960 . S
C4086 H4099 0.962 . S
C4086 H4100 0.960 . S
C4087 C4084 1.511 . S
C4087 H4101 0.961 . S
C4087 H4102 0.961 . S
C4087 H4103 0.961 . S
C4088 C4089 1.370 . S
C4088 C4090 1.363 . S
C4088 H4104 0.931 . S
C4089 C4088 1.370 . S
C4089 C4093 1.408 . S
C4090 C4088 1.363 . S
C4090 C4091 1.370 . S
C4090 C4094 1.524 . S
C4091 C4083 1.503 . S
C4091 C4090 1.370 . S
C4091 C4092 1.403 . S
C4092 C4091 1.403 . S
C4092 C4093 1.404 . S
C4092 C4095 1.539 . S
C4093 C4089 1.408 . S
C4093 C4092 1.404 . S
C4093 H4105 0.930 . S
C4094 C4090 1.524 . S
C4094 H4106 0.956 . S
C4094 H4107 0.961 . S
C4094 H4108 0.961 . S
C4095 C4092 1.539 . S
C4095 H4109 0.958 . S
C4095 H4110 0.961 . S
C4095 H4111 0.960 . S
H4096 C4080 0.931 . S
H4097 C4085 0.929 . S
H4098 C4086 0.960 . S
H4099 C4086 0.962 . S
H4100 C4086 0.960 . S
H4101 C4087 0.961 . S
H4102 C4087 0.961 . S
H4103 C4087 0.961 . S
H4104 C4088 0.931 . S
H4105 C4093 0.930 . S
H4106 C4094 0.956 . S
H4107 C4094 0.961 . S
H4108 C4094 0.961 . S
H4109 C4095 0.958 . S
H4110 C4095 0.961 . S
H4111 C4095 0.960 . S
C4112 C4113 1.391 . S
C4112 C4114 1.394 . S
C4112 H4128 0.931 . S
C4113 C4112 1.391 . S
C4113 C4117 1.376 . S
C4114 C4112 1.394 . S
C4114 C4115 1.369 . S
C4114 C4118 1.531 . S
C4115 C4114 1.369 . S
C4115 C4116 1.410 . S
C4115 C4123 1.503 . S
C4116 C4115 1.410 . S
C4116 C4117 1.392 . S
C4116 C4119 1.511 . S
C4117 C4113 1.376 . S
C4117 C4116 1.392 . S
C4117 H4129 0.929 . S
C4118 C4114 1.531 . S
C4118 H4130 0.960 . S
C4118 H4131 0.962 . S
C4118 H4132 0.960 . S
C4119 C4116 1.511 . S
C4119 H4133 0.961 . S
C4119 H4134 0.961 . S
C4119 H4135 0.961 . S
C4120 C4121 1.370 . S
C4120 C4122 1.363 . S
C4120 H4136 0.931 . S
C4121 C4120 1.370 . S
C4121 C4125 1.408 . S
C4122 C4120 1.363 . S
C4122 C4123 1.370 . S
C4122 C4126 1.524 . S
C4123 C4115 1.503 . S
C4123 C4122 1.370 . S
C4123 C4124 1.403 . S
C4124 C4123 1.403 . S
C4124 C4125 1.404 . S
C4124 C4127 1.539 . S
C4125 C4121 1.408 . S
C4125 C4124 1.404 . S
C4125 H4137 0.930 . S
C4126 C4122 1.524 . S
C4126 H4138 0.956 . S
C4126 H4139 0.961 . S
C4126 H4140 0.961 . S
C4127 C4124 1.539 . S
C4127 H4141 0.958 . S
C4127 H4142 0.961 . S
C4127 H4143 0.960 . S
H4128 C4112 0.931 . S
H4129 C4117 0.929 . S
H4130 C4118 0.960 . S
H4131 C4118 0.962 . S
H4132 C4118 0.960 . S
H4133 C4119 0.961 . S
H4134 C4119 0.961 . S
H4135 C4119 0.961 . S
H4136 C4120 0.931 . S
H4137 C4125 0.930 . S
H4138 C4126 0.956 . S
H4139 C4126 0.961 . S
H4140 C4126 0.961 . S
H4141 C4127 0.958 . S
H4142 C4127 0.961 . S
H4143 C4127 0.960 . S
C4144 C4145 1.391 . S
C4144 C4146 1.394 . S
C4144 H4160 0.931 . S
C4145 C4144 1.391 . S
C4145 C4149 1.376 . S
C4146 C4144 1.394 . S
C4146 C4147 1.369 . S
C4146 C4150 1.531 . S
C4147 C4146 1.369 . S
C4147 C4148 1.410 . S
C4147 C4155 1.503 . S
C4148 C4147 1.410 . S
C4148 C4149 1.392 . S
C4148 C4151 1.511 . S
C4149 C4145 1.376 . S
C4149 C4148 1.392 . S
C4149 H4161 0.929 . S
C4150 C4146 1.531 . S
C4150 H4162 0.960 . S
C4150 H4163 0.962 . S
C4150 H4164 0.960 . S
C4151 C4148 1.511 . S
C4151 H4165 0.961 . S
C4151 H4166 0.961 . S
C4151 H4167 0.961 . S
C4152 C4153 1.370 . S
C4152 C4154 1.363 . S
C4152 H4168 0.931 . S
C4153 C4152 1.370 . S
C4153 C4157 1.408 . S
C4154 C4152 1.363 . S
C4154 C4155 1.370 . S
C4154 C4158 1.524 . S
C4155 C4147 1.503 . S
C4155 C4154 1.370 . S
C4155 C4156 1.403 . S
C4156 C4155 1.403 . S
C4156 C4157 1.404 . S
C4156 C4159 1.539 . S
C4157 C4153 1.408 . S
C4157 C4156 1.404 . S
C4157 H4169 0.930 . S
C4158 C4154 1.524 . S
C4158 H4170 0.956 . S
C4158 H4171 0.961 . S
C4158 H4172 0.961 . S
C4159 C4156 1.539 . S
C4159 H4173 0.958 . S
C4159 H4174 0.961 . S
C4159 H4175 0.960 . S
H4160 C4144 0.931 . S
H4161 C4149 0.929 . S
H4162 C4150 0.960 . S
H4163 C4150 0.962 . S
H4164 C4150 0.960 . S
H4165 C4151 0.961 . S
H4166 C4151 0.961 . S
H4167 C4151 0.961 . S
H4168 C4152 0.931 . S
H4169 C4157 0.930 . S
H4170 C4158 0.956 . S
H4171 C4158 0.961 . S
H4172 C4158 0.961 . S
H4173 C4159 0.958 . S
H4174 C4159 0.961 . S
H4175 C4159 0.960 . S
C4176 C4177 1.391 . S
C4176 C4178 1.394 . S
C4176 H4192 0.931 . S
C4177 C4176 1.391 . S
C4177 C4181 1.376 . S
C4178 C4176 1.394 . S
C4178 C4179 1.369 . S
C4178 C4182 1.531 . S
C4179 C4178 1.369 . S
C4179 C4180 1.410 . S
C4179 C4187 1.503 . S
C4180 C4179 1.410 . S
C4180 C4181 1.392 . S
C4180 C4183 1.511 . S
C4181 C4177 1.376 . S
C4181 C4180 1.392 . S
C4181 H4193 0.929 . S
C4182 C4178 1.531 . S
C4182 H4194 0.960 . S
C4182 H4195 0.962 . S
C4182 H4196 0.960 . S
C4183 C4180 1.511 . S
C4183 H4197 0.961 . S
C4183 H4198 0.961 . S
C4183 H4199 0.961 . S
C4184 C4185 1.370 . S
C4184 C4186 1.363 . S
C4184 H4200 0.931 . S
C4185 C4184 1.370 . S
C4185 C4189 1.408 . S
C4186 C4184 1.363 . S
C4186 C4187 1.370 . S
C4186 C4190 1.524 . S
C4187 C4179 1.503 . S
C4187 C4186 1.370 . S
C4187 C4188 1.403 . S
C4188 C4187 1.403 . S
C4188 C4189 1.404 . S
C4188 C4191 1.539 . S
C4189 C4185 1.408 . S
C4189 C4188 1.404 . S
C4189 H4201 0.930 . S
C4190 C4186 1.524 . S
C4190 H4202 0.956 . S
C4190 H4203 0.961 . S
C4190 H4204 0.961 . S
C4191 C4188 1.539 . S
C4191 H4205 0.958 . S
C4191 H4206 0.961 . S
C4191 H4207 0.960 . S
H4192 C4176 0.931 . S
H4193 C4181 0.929 . S
H4194 C4182 0.960 . S
H4195 C4182 0.962 . S
H4196 C4182 0.960 . S
H4197 C4183 0.961 . S
H4198 C4183 0.961 . S
H4199 C4183 0.961 . S
H4200 C4184 0.931 . S
H4201 C4189 0.930 . S
H4202 C4190 0.956 . S
H4203 C4190 0.961 . S
H4204 C4190 0.961 . S
H4205 C4191 0.958 . S
H4206 C4191 0.961 . S
H4207 C4191 0.960 . S
C4208 C4209 1.391 . S
C4208 C4210 1.394 . S
C4208 H4224 0.931 . S
C4209 C4208 1.391 . S
C4209 C4213 1.376 . S
C4210 C4208 1.394 . S
C4210 C4211 1.369 . S
C4210 C4214 1.531 . S
C4211 C4210 1.369 . S
C4211 C4212 1.410 . S
C4211 C4219 1.503 . S
C4212 C4211 1.410 . S
C4212 C4213 1.392 . S
C4212 C4215 1.511 . S
C4213 C4209 1.376 . S
C4213 C4212 1.392 . S
C4213 H4225 0.929 . S
C4214 C4210 1.531 . S
C4214 H4226 0.960 . S
C4214 H4227 0.962 . S
C4214 H4228 0.960 . S
C4215 C4212 1.511 . S
C4215 H4229 0.961 . S
C4215 H4230 0.961 . S
C4215 H4231 0.961 . S
C4216 C4217 1.370 . S
C4216 C4218 1.363 . S
C4216 H4232 0.931 . S
C4217 C4216 1.370 . S
C4217 C4221 1.408 . S
C4218 C4216 1.363 . S
C4218 C4219 1.370 . S
C4218 C4222 1.524 . S
C4219 C4211 1.503 . S
C4219 C4218 1.370 . S
C4219 C4220 1.403 . S
C4220 C4219 1.403 . S
C4220 C4221 1.404 . S
C4220 C4223 1.539 . S
C4221 C4217 1.408 . S
C4221 C4220 1.404 . S
C4221 H4233 0.930 . S
C4222 C4218 1.524 . S
C4222 H4234 0.956 . S
C4222 H4235 0.961 . S
C4222 H4236 0.961 . S
C4223 C4220 1.539 . S
C4223 H4237 0.958 . S
C4223 H4238 0.961 . S
C4223 H4239 0.960 . S
H4224 C4208 0.931 . S
H4225 C4213 0.929 . S
H4226 C4214 0.960 . S
H4227 C4214 0.962 . S
H4228 C4214 0.960 . S
H4229 C4215 0.961 . S
H4230 C4215 0.961 . S
H4231 C4215 0.961 . S
H4232 C4216 0.931 . S
H4233 C4221 0.930 . S
H4234 C4222 0.956 . S
H4235 C4222 0.961 . S
H4236 C4222 0.961 . S
H4237 C4223 0.958 . S
H4238 C4223 0.961 . S
H4239 C4223 0.960 . S
C4240 C4241 1.391 . S
C4240 C4242 1.394 . S
C4240 H4256 0.931 . S
C4241 C4240 1.391 . S
C4241 C4245 1.376 . S
C4242 C4240 1.394 . S
C4242 C4243 1.369 . S
C4242 C4246 1.531 . S
C4243 C4242 1.369 . S
C4243 C4244 1.410 . S
C4243 C4251 1.503 . S
C4244 C4243 1.410 . S
C4244 C4245 1.392 . S
C4244 C4247 1.511 . S
C4245 C4241 1.376 . S
C4245 C4244 1.392 . S
C4245 H4257 0.929 . S
C4246 C4242 1.531 . S
C4246 H4258 0.960 . S
C4246 H4259 0.962 . S
C4246 H4260 0.960 . S
C4247 C4244 1.511 . S
C4247 H4261 0.961 . S
C4247 H4262 0.961 . S
C4247 H4263 0.961 . S
C4248 C4249 1.370 . S
C4248 C4250 1.363 . S
C4248 H4264 0.931 . S
C4249 C4248 1.370 . S
C4249 C4253 1.408 . S
C4250 C4248 1.363 . S
C4250 C4251 1.370 . S
C4250 C4254 1.524 . S
C4251 C4243 1.503 . S
C4251 C4250 1.370 . S
C4251 C4252 1.403 . S
C4252 C4251 1.403 . S
C4252 C4253 1.404 . S
C4252 C4255 1.539 . S
C4253 C4249 1.408 . S
C4253 C4252 1.404 . S
C4253 H4265 0.930 . S
C4254 C4250 1.524 . S
C4254 H4266 0.956 . S
C4254 H4267 0.961 . S
C4254 H4268 0.961 . S
C4255 C4252 1.539 . S
C4255 H4269 0.958 . S
C4255 H4270 0.961 . S
C4255 H4271 0.960 . S
H4256 C4240 0.931 . S
H4257 C4245 0.929 . S
H4258 C4246 0.960 . S
H4259 C4246 0.962 . S
H4260 C4246 0.960 . S
H4261 C4247 0.961 . S
H4262 C4247 0.961 . S
H4263 C4247 0.961 . S
H4264 C4248 0.931 . S
H4265 C4253 0.930 . S
H4266 C4254 0.956 . S
H4267 C4254 0.961 . S
H4268 C4254 0.961 . S
H4269 C4255 0.958 . S
H4270 C4255 0.961 . S
H4271 C4255 0.960 . S
C4272 C4273 1.391 . S
C4272 C4274 1.394 . S
C4272 H4288 0.931 . S
C4273 C4272 1.391 . S
C4273 C4277 1.376 . S
C4274 C4272 1.394 . S
C4274 C4275 1.369 . S
C4274 C4278 1.531 . S
C4275 C4274 1.369 . S
C4275 C4276 1.410 . S
C4275 C4283 1.503 . S
C4276 C4275 1.410 . S
C4276 C4277 1.392 . S
C4276 C4279 1.511 . S
C4277 C4273 1.376 . S
C4277 C4276 1.392 . S
C4277 H4289 0.929 . S
C4278 C4274 1.531 . S
C4278 H4290 0.960 . S
C4278 H4291 0.962 . S
C4278 H4292 0.960 . S
C4279 C4276 1.511 . S
C4279 H4293 0.961 . S
C4279 H4294 0.961 . S
C4279 H4295 0.961 . S
C4280 C4281 1.370 . S
C4280 C4282 1.363 . S
C4280 H4296 0.931 . S
C4281 C4280 1.370 . S
C4281 C4285 1.408 . S
C4282 C4280 1.363 . S
C4282 C4283 1.370 . S
C4282 C4286 1.524 . S
C4283 C4275 1.503 . S
C4283 C4282 1.370 . S
C4283 C4284 1.403 . S
C4284 C4283 1.403 . S
C4284 C4285 1.404 . S
C4284 C4287 1.539 . S
C4285 C4281 1.408 . S
C4285 C4284 1.404 . S
C4285 H4297 0.930 . S
C4286 C4282 1.524 . S
C4286 H4298 0.956 . S
C4286 H4299 0.961 . S
C4286 H4300 0.961 . S
C4287 C4284 1.539 . S
C4287 H4301 0.958 . S
C4287 H4302 0.961 . S
C4287 H4303 0.960 . S
H4288 C4272 0.931 . S
H4289 C4277 0.929 . S
H4290 C4278 0.960 . S
H4291 C4278 0.962 . S
H4292 C4278 0.960 . S
H4293 C4279 0.961 . S
H4294 C4279 0.961 . S
H4295 C4279 0.961 . S
H4296 C4280 0.931 . S
H4297 C4285 0.930 . S
H4298 C4286 0.956 . S
H4299 C4286 0.961 . S
H4300 C4286 0.961 . S
H4301 C4287 0.958 . S
H4302 C4287 0.961 . S
H4303 C4287 0.960 . S
C4304 C4305 1.391 . S
C4304 C4306 1.394 . S
C4304 H4320 0.931 . S
C4305 C4304 1.391 . S
C4305 C4309 1.376 . S
C4306 C4304 1.394 . S
C4306 C4307 1.369 . S
C4306 C4310 1.531 . S
C4307 C4306 1.369 . S
C4307 C4308 1.410 . S
C4307 C4315 1.503 . S
C4308 C4307 1.410 . S
C4308 C4309 1.392 . S
C4308 C4311 1.511 1_655 S
C4309 C4305 1.376 . S
C4309 C4308 1.392 . S
C4309 H4321 0.929 . S
C4310 C4306 1.531 . S
C4310 H4322 0.960 . S
C4310 H4323 0.962 . S
C4310 H4324 0.960 . S
C4311 C4308 1.511 1_455 S
C4311 H4325 0.961 . S
C4311 H4326 0.961 . S
C4311 H4327 0.961 . S
C4312 C4313 1.370 . S
C4312 C4314 1.363 . S
C4312 H4328 0.931 . S
C4313 C4312 1.370 . S
C4313 C4317 1.408 . S
C4314 C4312 1.363 . S
C4314 C4315 1.370 1_455 S
C4314 C4318 1.524 1_455 S
C4315 C4307 1.503 . S
C4315 C4314 1.370 1_655 S
C4315 C4316 1.403 1_655 S
C4316 C4315 1.403 1_455 S
C4316 C4317 1.404 . S
C4316 C4319 1.539 . S
C4317 C4313 1.408 . S
C4317 C4316 1.404 . S
C4317 H4329 0.930 . S
C4318 C4314 1.524 1_655 S
C4318 H4330 0.956 . S
C4318 H4331 0.961 . S
C4318 H4332 0.966 . S
C4319 C4316 1.539 . S
C4319 H4333 0.958 1_455 S
C4319 H4334 0.961 . S
C4319 H4335 0.960 1_455 S
H4320 C4304 0.931 . S
H4321 C4309 0.929 . S
H4322 C4310 0.960 . S
H4323 C4310 0.962 . S
H4324 C4310 0.960 . S
H4325 C4311 0.961 . S
H4326 C4311 0.961 . S
H4327 C4311 0.961 . S
H4328 C4312 0.931 . S
H4329 C4317 0.930 . S
H4330 C4318 0.956 . S
H4331 C4318 0.961 . S
H4332 C4318 0.966 . S
H4333 C4319 0.958 1_655 S
H4334 C4319 0.961 . S
H4335 C4319 0.960 1_655 S
C4336 C4337 1.391 . S
C4336 C4338 1.394 . S
C4336 H4352 0.931 . S
C4337 C4336 1.391 . S
C4337 C4341 1.376 . S
C4338 C4336 1.394 . S
C4338 C4339 1.369 . S
C4338 C4342 1.531 . S
C4339 C4338 1.369 . S
C4339 C4340 1.410 . S
C4339 C4347 1.503 . S
C4340 C4339 1.410 . S
C4340 C4341 1.392 . S
C4340 C4343 1.511 . S
C4341 C4337 1.376 . S
C4341 C4340 1.392 . S
C4341 H4353 0.929 . S
C4342 C4338 1.531 . S
C4342 H4354 0.960 . S
C4342 H4355 0.962 . S
C4342 H4356 0.960 . S
C4343 C4340 1.511 . S
C4343 H4357 0.961 . S
C4343 H4358 0.961 . S
C4343 H4359 0.961 . S
C4344 C4345 1.370 . S
C4344 C4346 1.363 . S
C4344 H4360 0.931 . S
C4345 C4344 1.370 . S
C4345 C4349 1.408 . S
C4346 C4344 1.363 . S
C4346 C4347 1.370 . S
C4346 C4350 1.524 . S
C4347 C4339 1.503 . S
C4347 C4346 1.370 . S
C4347 C4348 1.403 . S
C4348 C4347 1.403 . S
C4348 C4349 1.404 . S
C4348 C4351 1.539 . S
C4349 C4345 1.408 . S
C4349 C4348 1.404 . S
C4349 H4361 0.930 . S
C4350 C4346 1.524 . S
C4350 H4362 0.956 . S
C4350 H4363 0.961 . S
C4350 H4364 0.961 . S
C4351 C4348 1.539 . S
C4351 H4365 0.958 . S
C4351 H4366 0.961 . S
C4351 H4367 0.960 . S
H4352 C4336 0.931 . S
H4353 C4341 0.929 . S
H4354 C4342 0.960 . S
H4355 C4342 0.962 . S
H4356 C4342 0.960 . S
H4357 C4343 0.961 . S
H4358 C4343 0.961 . S
H4359 C4343 0.961 . S
H4360 C4344 0.931 . S
H4361 C4349 0.930 . S
H4362 C4350 0.956 . S
H4363 C4350 0.961 . S
H4364 C4350 0.961 . S
H4365 C4351 0.958 . S
H4366 C4351 0.961 . S
H4367 C4351 0.960 . S
C4368 C4369 1.391 . S
C4368 C4370 1.394 . S
C4368 H4384 0.931 . S
C4369 C4368 1.391 . S
C4369 C4373 1.376 . S
C4370 C4368 1.394 . S
C4370 C4371 1.369 . S
C4370 C4374 1.531 . S
C4371 C4370 1.369 . S
C4371 C4372 1.410 . S
C4371 C4379 1.503 . S
C4372 C4371 1.410 . S
C4372 C4373 1.392 . S
C4372 C4375 1.511 . S
C4373 C4369 1.376 . S
C4373 C4372 1.392 . S
C4373 H4385 0.929 . S
C4374 C4370 1.531 . S
C4374 H4386 0.960 . S
C4374 H4387 0.962 . S
C4374 H4388 0.960 . S
C4375 C4372 1.511 . S
C4375 H4389 0.961 . S
C4375 H4390 0.961 . S
C4375 H4391 0.961 . S
C4376 C4377 1.370 . S
C4376 C4378 1.363 . S
C4376 H4392 0.931 . S
C4377 C4376 1.370 . S
C4377 C4381 1.408 . S
C4378 C4376 1.363 . S
C4378 C4379 1.370 . S
C4378 C4382 1.524 . S
C4379 C4371 1.503 . S
C4379 C4378 1.370 . S
C4379 C4380 1.403 . S
C4380 C4379 1.403 . S
C4380 C4381 1.404 . S
C4380 C4383 1.539 . S
C4381 C4377 1.408 . S
C4381 C4380 1.404 . S
C4381 H4393 0.930 . S
C4382 C4378 1.524 . S
C4382 H4394 0.956 . S
C4382 H4395 0.961 . S
C4382 H4396 0.961 . S
C4383 C4380 1.539 . S
C4383 H4397 0.958 . S
C4383 H4398 0.961 . S
C4383 H4399 0.960 . S
H4384 C4368 0.931 . S
H4385 C4373 0.929 . S
H4386 C4374 0.960 . S
H4387 C4374 0.962 . S
H4388 C4374 0.960 . S
H4389 C4375 0.961 . S
H4390 C4375 0.961 . S
H4391 C4375 0.961 . S
H4392 C4376 0.931 . S
H4393 C4381 0.930 . S
H4394 C4382 0.956 . S
H4395 C4382 0.961 . S
H4396 C4382 0.961 . S
H4397 C4383 0.958 . S
H4398 C4383 0.961 . S
H4399 C4383 0.960 . S
C4400 C4401 1.391 . S
C4400 C4402 1.394 . S
C4400 H4416 0.931 . S
C4401 C4400 1.391 . S
C4401 C4405 1.376 . S
C4402 C4400 1.394 . S
C4402 C4403 1.369 . S
C4402 C4406 1.531 . S
C4403 C4402 1.369 . S
C4403 C4404 1.410 . S
C4403 C4411 1.503 . S
C4404 C4403 1.410 . S
C4404 C4405 1.392 . S
C4404 C4407 1.511 . S
C4405 C4401 1.376 . S
C4405 C4404 1.392 . S
C4405 H4417 0.929 . S
C4406 C4402 1.531 . S
C4406 H4418 0.960 . S
C4406 H4419 0.962 . S
C4406 H4420 0.960 . S
C4407 C4404 1.511 . S
C4407 H4421 0.961 . S
C4407 H4422 0.961 . S
C4407 H4423 0.961 . S
C4408 C4409 1.370 . S
C4408 C4410 1.363 . S
C4408 H4424 0.931 . S
C4409 C4408 1.370 . S
C4409 C4413 1.408 . S
C4410 C4408 1.363 . S
C4410 C4411 1.370 . S
C4410 C4414 1.524 . S
C4411 C4403 1.503 . S
C4411 C4410 1.370 . S
C4411 C4412 1.403 . S
C4412 C4411 1.403 . S
C4412 C4413 1.404 . S
C4412 C4415 1.539 . S
C4413 C4409 1.408 . S
C4413 C4412 1.404 . S
C4413 H4425 0.930 . S
C4414 C4410 1.524 . S
C4414 H4426 0.956 . S
C4414 H4427 0.961 . S
C4414 H4428 0.961 . S
C4415 C4412 1.539 . S
C4415 H4429 0.958 . S
C4415 H4430 0.961 . S
C4415 H4431 0.960 . S
H4416 C4400 0.931 . S
H4417 C4405 0.929 . S
H4418 C4406 0.960 . S
H4419 C4406 0.962 . S
H4420 C4406 0.960 . S
H4421 C4407 0.961 . S
H4422 C4407 0.961 . S
H4423 C4407 0.961 . S
H4424 C4408 0.931 . S
H4425 C4413 0.930 . S
H4426 C4414 0.956 . S
H4427 C4414 0.961 . S
H4428 C4414 0.961 . S
H4429 C4415 0.958 . S
H4430 C4415 0.961 . S
H4431 C4415 0.960 . S
C4432 C4433 1.391 . S
C4432 C4434 1.394 . S
C4432 H4448 0.931 . S
C4433 C4432 1.391 . S
C4433 C4437 1.376 . S
C4434 C4432 1.394 . S
C4434 C4435 1.369 . S
C4434 C4438 1.506 1_655 S
C4435 C4434 1.369 . S
C4435 C4436 1.410 . S
C4435 C4443 1.503 . S
C4436 C4435 1.410 . S
C4436 C4437 1.392 . S
C4436 C4439 1.511 . S
C4437 C4433 1.376 . S
C4437 C4436 1.392 . S
C4437 H4449 0.929 . S
C4438 C4434 1.506 1_455 S
C4438 H4450 0.979 . S
C4438 H4451 0.958 . S
C4438 H4452 0.971 . S
C4439 C4436 1.511 . S
C4439 H4453 0.961 . S
C4439 H4454 0.961 . S
C4439 H4455 0.961 . S
C4440 C4441 1.392 . S
C4440 C4442 1.363 . S
C4440 H4456 0.931 . S
C4441 C4440 1.392 . S
C4441 C4445 1.401 1_655 S
C4442 C4440 1.363 . S
C4442 C4443 1.370 . S
C4442 C4446 1.524 . S
C4443 C4435 1.503 . S
C4443 C4442 1.370 . S
C4443 C4444 1.403 . S
C4444 C4443 1.403 . S
C4444 C4445 1.404 1_655 S
C4444 C4447 1.539 . S
C4445 C4441 1.401 1_455 S
C4445 C4444 1.404 1_455 S
C4445 H4457 0.930 . S
C4446 C4442 1.524 . S
C4446 H4458 0.956 . S
C4446 H4459 0.961 . S
C4446 H4460 0.961 . S
C4447 C4444 1.539 . S
C4447 H4461 0.958 1_655 S
C4447 H4462 0.961 . S
C4447 H4463 0.960 . S
H4448 C4432 0.931 . S
H4449 C4437 0.929 . S
H4450 C4438 0.979 . S
H4451 C4438 0.958 . S
H4452 C4438 0.971 . S
H4453 C4439 0.961 . S
H4454 C4439 0.961 . S
H4455 C4439 0.961 . S
H4456 C4440 0.931 . S
H4457 C4445 0.930 . S
H4458 C4446 0.956 . S
H4459 C4446 0.961 . S
H4460 C4446 0.961 . S
H4461 C4447 0.958 1_455 S
H4462 C4447 0.961 . S
H4463 C4447 0.960 . S
C4464 C4465 1.391 . S
C4464 C4466 1.394 . S
C4464 H4480 0.931 . S
C4465 C4464 1.391 . S
C4465 C4469 1.376 . S
C4466 C4464 1.394 . S
C4466 C4467 1.369 . S
C4466 C4470 1.531 . S
C4467 C4466 1.369 . S
C4467 C4468 1.410 . S
C4467 C4475 1.503 . S
C4468 C4467 1.410 . S
C4468 C4469 1.392 . S
C4468 C4471 1.511 . S
C4469 C4465 1.376 . S
C4469 C4468 1.392 . S
C4469 H4481 0.929 . S
C4470 C4466 1.531 . S
C4470 H4482 0.960 . S
C4470 H4483 0.962 . S
C4470 H4484 0.960 . S
C4471 C4468 1.511 . S
C4471 H4485 0.961 . S
C4471 H4486 0.961 . S
C4471 H4487 0.961 . S
C4472 C4473 1.370 . S
C4472 C4474 1.363 . S
C4472 H4488 0.931 . S
C4473 C4472 1.370 . S
C4473 C4477 1.408 . S
C4474 C4472 1.363 . S
C4474 C4475 1.370 . S
C4474 C4478 1.524 . S
C4475 C4467 1.503 . S
C4475 C4474 1.370 . S
C4475 C4476 1.403 . S
C4476 C4475 1.403 . S
C4476 C4477 1.404 . S
C4476 C4479 1.539 . S
C4477 C4473 1.408 . S
C4477 C4476 1.404 . S
C4477 H4489 0.930 . S
C4478 C4474 1.524 . S
C4478 H4490 0.956 . S
C4478 H4491 0.961 . S
C4478 H4492 0.961 . S
C4479 C4476 1.539 . S
C4479 H4493 0.958 . S
C4479 H4494 0.961 . S
C4479 H4495 0.960 . S
H4480 C4464 0.931 . S
H4481 C4469 0.929 . S
H4482 C4470 0.960 . S
H4483 C4470 0.962 . S
H4484 C4470 0.960 . S
H4485 C4471 0.961 . S
H4486 C4471 0.961 . S
H4487 C4471 0.961 . S
H4488 C4472 0.931 . S
H4489 C4477 0.930 . S
H4490 C4478 0.956 . S
H4491 C4478 0.961 . S
H4492 C4478 0.961 . S
H4493 C4479 0.958 . S
H4494 C4479 0.961 . S
H4495 C4479 0.960 . S
C4496 C4497 1.391 . S
C4496 C4498 1.394 . S
C4496 H4512 0.931 . S
C4497 C4496 1.391 . S
C4497 C4501 1.376 . S
C4498 C4496 1.394 . S
C4498 C4499 1.369 . S
C4498 C4502 1.531 . S
C4499 C4498 1.369 . S
C4499 C4500 1.410 . S
C4499 C4507 1.503 . S
C4500 C4499 1.410 . S
C4500 C4501 1.392 . S
C4500 C4503 1.511 . S
C4501 C4497 1.376 . S
C4501 C4500 1.392 . S
C4501 H4513 0.929 . S
C4502 C4498 1.531 . S
C4502 H4514 0.960 . S
C4502 H4515 0.962 . S
C4502 H4516 0.960 . S
C4503 C4500 1.511 . S
C4503 H4517 0.961 . S
C4503 H4518 0.961 . S
C4503 H4519 0.961 . S
C4504 C4505 1.370 . S
C4504 C4506 1.363 . S
C4504 H4520 0.931 . S
C4505 C4504 1.370 . S
C4505 C4509 1.408 . S
C4506 C4504 1.363 . S
C4506 C4507 1.370 . S
C4506 C4510 1.524 . S
C4507 C4499 1.503 . S
C4507 C4506 1.370 . S
C4507 C4508 1.403 . S
C4508 C4507 1.403 . S
C4508 C4509 1.404 . S
C4508 C4511 1.539 . S
C4509 C4505 1.408 . S
C4509 C4508 1.404 . S
C4509 H4521 0.930 . S
C4510 C4506 1.524 . S
C4510 H4522 0.956 . S
C4510 H4523 0.961 . S
C4510 H4524 0.961 . S
C4511 C4508 1.539 . S
C4511 H4525 0.958 . S
C4511 H4526 0.961 . S
C4511 H4527 0.960 . S
H4512 C4496 0.931 . S
H4513 C4501 0.929 . S
H4514 C4502 0.960 . S
H4515 C4502 0.962 . S
H4516 C4502 0.960 . S
H4517 C4503 0.961 . S
H4518 C4503 0.961 . S
H4519 C4503 0.961 . S
H4520 C4504 0.931 . S
H4521 C4509 0.930 . S
H4522 C4510 0.956 . S
H4523 C4510 0.961 . S
H4524 C4510 0.961 . S
H4525 C4511 0.958 . S
H4526 C4511 0.961 . S
H4527 C4511 0.960 . S
C4528 C4529 1.391 . S
C4528 C4530 1.394 . S
C4528 H4544 0.931 . S
C4529 C4528 1.391 . S
C4529 C4533 1.376 . S
C4530 C4528 1.394 . S
C4530 C4531 1.369 . S
C4530 C4534 1.531 . S
C4531 C4530 1.369 . S
C4531 C4532 1.410 . S
C4531 C4539 1.503 . S
C4532 C4531 1.410 . S
C4532 C4533 1.392 . S
C4532 C4535 1.511 . S
C4533 C4529 1.376 . S
C4533 C4532 1.392 . S
C4533 H4545 0.929 . S
C4534 C4530 1.531 . S
C4534 H4546 0.960 . S
C4534 H4547 0.962 . S
C4534 H4548 0.960 . S
C4535 C4532 1.511 . S
C4535 H4549 0.961 . S
C4535 H4550 0.961 . S
C4535 H4551 0.961 . S
C4536 C4537 1.370 . S
C4536 C4538 1.363 . S
C4536 H4552 0.931 . S
C4537 C4536 1.370 . S
C4537 C4541 1.408 . S
C4538 C4536 1.363 . S
C4538 C4539 1.370 . S
C4538 C4542 1.524 . S
C4539 C4531 1.503 . S
C4539 C4538 1.370 . S
C4539 C4540 1.403 . S
C4540 C4539 1.403 . S
C4540 C4541 1.404 . S
C4540 C4543 1.539 . S
C4541 C4537 1.408 . S
C4541 C4540 1.404 . S
C4541 H4553 0.930 . S
C4542 C4538 1.524 . S
C4542 H4554 0.956 . S
C4542 H4555 0.961 . S
C4542 H4556 0.961 . S
C4543 C4540 1.539 . S
C4543 H4557 0.958 . S
C4543 H4558 0.961 . S
C4543 H4559 0.960 . S
H4544 C4528 0.931 . S
H4545 C4533 0.929 . S
H4546 C4534 0.960 . S
H4547 C4534 0.962 . S
H4548 C4534 0.960 . S
H4549 C4535 0.961 . S
H4550 C4535 0.961 . S
H4551 C4535 0.961 . S
H4552 C4536 0.931 . S
H4553 C4541 0.930 . S
H4554 C4542 0.956 . S
H4555 C4542 0.961 . S
H4556 C4542 0.961 . S
H4557 C4543 0.958 . S
H4558 C4543 0.961 . S
H4559 C4543 0.960 . S
C4560 C4561 1.391 . S
C4560 C4562 1.394 . S
C4560 H4576 0.931 . S
C4561 C4560 1.391 . S
C4561 C4565 1.376 . S
C4562 C4560 1.394 . S
C4562 C4563 1.369 . S
C4562 C4566 1.531 . S
C4563 C4562 1.369 . S
C4563 C4564 1.410 . S
C4563 C4571 1.503 . S
C4564 C4563 1.410 . S
C4564 C4565 1.392 . S
C4564 C4567 1.511 . S
C4565 C4561 1.376 . S
C4565 C4564 1.392 . S
C4565 H4577 0.929 . S
C4566 C4562 1.531 . S
C4566 H4578 0.960 . S
C4566 H4579 0.962 . S
C4566 H4580 0.960 . S
C4567 C4564 1.511 . S
C4567 H4581 0.961 . S
C4567 H4582 0.961 . S
C4567 H4583 0.961 . S
C4568 C4569 1.370 . S
C4568 C4570 1.363 . S
C4568 H4584 0.931 . S
C4569 C4568 1.370 . S
C4569 C4573 1.408 . S
C4570 C4568 1.363 . S
C4570 C4571 1.370 . S
C4570 C4574 1.524 . S
C4571 C4563 1.503 . S
C4571 C4570 1.370 . S
C4571 C4572 1.403 . S
C4572 C4571 1.403 . S
C4572 C4573 1.404 . S
C4572 C4575 1.539 . S
C4573 C4569 1.408 . S
C4573 C4572 1.404 . S
C4573 H4585 0.930 . S
C4574 C4570 1.524 . S
C4574 H4586 0.956 . S
C4574 H4587 0.961 . S
C4574 H4588 0.961 . S
C4575 C4572 1.539 . S
C4575 H4589 0.958 . S
C4575 H4590 0.961 . S
C4575 H4591 0.960 . S
H4576 C4560 0.931 . S
H4577 C4565 0.929 . S
H4578 C4566 0.960 . S
H4579 C4566 0.962 . S
H4580 C4566 0.960 . S
H4581 C4567 0.961 . S
H4582 C4567 0.961 . S
H4583 C4567 0.961 . S
H4584 C4568 0.931 . S
H4585 C4573 0.930 . S
H4586 C4574 0.956 . S
H4587 C4574 0.961 . S
H4588 C4574 0.961 . S
H4589 C4575 0.958 . S
H4590 C4575 0.961 . S
H4591 C4575 0.960 . S
C4592 C4593 1.391 . S
C4592 C4594 1.394 . S
C4592 H4608 0.931 1_554 S
C4593 C4592 1.391 . S
C4593 C4597 1.376 . S
C4594 C4592 1.394 . S
C4594 C4595 1.369 . S
C4594 C4598 1.531 1_554 S
C4595 C4594 1.369 . S
C4595 C4596 1.410 . S
C4595 C4603 1.503 . S
C4596 C4595 1.410 . S
C4596 C4597 1.392 . S
C4596 C4599 1.511 . S
C4597 C4593 1.376 . S
C4597 C4596 1.392 . S
C4597 H4609 0.929 . S
C4598 C4594 1.531 1_556 S
C4598 H4610 0.960 . S
C4598 H4611 0.962 . S
C4598 H4612 0.960 . S
C4599 C4596 1.511 . S
C4599 H4613 0.961 . S
C4599 H4614 0.961 . S
C4599 H4615 0.961 . S
C4600 C4601 1.370 . S
C4600 C4602 1.363 . S
C4600 H4616 0.931 . S
C4601 C4600 1.370 . S
C4601 C4605 1.408 . S
C4602 C4600 1.363 . S
C4602 C4603 1.370 . S
C4602 C4606 1.524 . S
C4603 C4595 1.503 . S
C4603 C4602 1.370 . S
C4603 C4604 1.425 . S
C4604 C4603 1.425 . S
C4604 C4605 1.412 . S
C4604 C4607 1.513 1_554 S
C4605 C4601 1.408 . S
C4605 C4604 1.412 . S
C4605 H4617 0.930 1_554 S
C4606 C4602 1.524 . S
C4606 H4618 0.956 . S
C4606 H4619 0.961 . S
C4606 H4620 0.961 . S
C4607 C4604 1.513 1_556 S
C4607 H4621 0.958 . S
C4607 H4622 0.961 . S
C4607 H4623 0.960 . S
H4608 C4592 0.931 1_556 S
H4609 C4597 0.929 . S
H4610 C4598 0.960 . S
H4611 C4598 0.962 . S
H4612 C4598 0.960 . S
H4613 C4599 0.961 . S
H4614 C4599 0.961 . S
H4615 C4599 0.961 . S
H4616 C4600 0.931 . S
H4617 C4605 0.930 1_556 S
H4618 C4606 0.956 . S
H4619 C4606 0.961 . S
H4620 C4606 0.961 . S
H4621 C4607 0.958 . S
H4622 C4607 0.961 . S
H4623 C4607 0.960 . S
C4624 C4625 1.391 . S
C4624 C4626 1.394 . S
C4624 H4640 0.931 . S
C4625 C4624 1.391 . S
C4625 C4629 1.376 . S
C4626 C4624 1.394 . S
C4626 C4627 1.369 . S
C4626 C4630 1.531 . S
C4627 C4626 1.369 . S
C4627 C4628 1.410 . S
C4627 C4635 1.503 . S
C4628 C4627 1.410 . S
C4628 C4629 1.392 . S
C4628 C4631 1.511 . S
C4629 C4625 1.376 . S
C4629 C4628 1.392 . S
C4629 H4641 0.929 . S
C4630 C4626 1.531 . S
C4630 H4642 0.960 . S
C4630 H4643 0.962 . S
C4630 H4644 0.960 . S
C4631 C4628 1.511 . S
C4631 H4645 0.961 . S
C4631 H4646 0.961 . S
C4631 H4647 0.961 . S
C4632 C4633 1.370 . S
C4632 C4634 1.363 . S
C4632 H4648 0.931 . S
C4633 C4632 1.370 . S
C4633 C4637 1.408 . S
C4634 C4632 1.363 . S
C4634 C4635 1.370 . S
C4634 C4638 1.524 . S
C4635 C4627 1.503 . S
C4635 C4634 1.370 . S
C4635 C4636 1.403 . S
C4636 C4635 1.403 . S
C4636 C4637 1.404 . S
C4636 C4639 1.539 . S
C4637 C4633 1.408 . S
C4637 C4636 1.404 . S
C4637 H4649 0.930 . S
C4638 C4634 1.524 . S
C4638 H4650 0.956 . S
C4638 H4651 0.961 . S
C4638 H4652 0.961 . S
C4639 C4636 1.539 . S
C4639 H4653 0.958 . S
C4639 H4654 0.961 . S
C4639 H4655 0.960 . S
H4640 C4624 0.931 . S
H4641 C4629 0.929 . S
H4642 C4630 0.960 . S
H4643 C4630 0.962 . S
H4644 C4630 0.960 . S
H4645 C4631 0.961 . S
H4646 C4631 0.961 . S
H4647 C4631 0.961 . S
H4648 C4632 0.931 . S
H4649 C4637 0.930 . S
H4650 C4638 0.956 . S
H4651 C4638 0.961 . S
H4652 C4638 0.961 . S
H4653 C4639 0.958 . S
H4654 C4639 0.961 . S
H4655 C4639 0.960 . S
C4656 C4657 1.391 . S
C4656 C4658 1.394 . S
C4656 H4672 0.931 . S
C4657 C4656 1.391 . S
C4657 C4661 1.376 . S
C4658 C4656 1.394 . S
C4658 C4659 1.369 . S
C4658 C4662 1.531 . S
C4659 C4658 1.369 . S
C4659 C4660 1.410 . S
C4659 C4667 1.503 . S
C4660 C4659 1.410 . S
C4660 C4661 1.392 . S
C4660 C4663 1.508 1_554 S
C4661 C4657 1.376 . S
C4661 C4660 1.392 . S
C4661 H4673 0.929 . S
C4662 C4658 1.531 . S
C4662 H4674 0.960 . S
C4662 H4675 0.962 . S
C4662 H4676 0.960 . S
C4663 C4660 1.508 1_556 S
C4663 H4677 0.957 1_556 S
C4663 H4678 0.960 1_556 S
C4663 H4679 0.969 . S
C4664 C4665 1.370 . S
C4664 C4666 1.363 . S
C4664 H4680 0.931 . S
C4665 C4664 1.370 . S
C4665 C4669 1.408 1_554 S
C4666 C4664 1.363 . S
C4666 C4667 1.370 . S
C4666 C4670 1.524 . S
C4667 C4659 1.503 . S
C4667 C4666 1.370 . S
C4667 C4668 1.403 1_554 S
C4668 C4667 1.403 1_556 S
C4668 C4669 1.404 . S
C4668 C4671 1.539 . S
C4669 C4665 1.408 1_556 S
C4669 C4668 1.404 . S
C4669 H4681 0.930 . S
C4670 C4666 1.524 . S
C4670 H4682 0.956 . S
C4670 H4683 0.961 . S
C4670 H4684 0.961 . S
C4671 C4668 1.539 . S
C4671 H4685 0.958 . S
C4671 H4686 0.961 . S
C4671 H4687 0.960 . S
H4672 C4656 0.931 . S
H4673 C4661 0.929 . S
H4674 C4662 0.960 . S
H4675 C4662 0.962 . S
H4676 C4662 0.960 . S
H4677 C4663 0.957 1_554 S
H4678 C4663 0.960 1_554 S
H4679 C4663 0.969 . S
H4680 C4664 0.931 . S
H4681 C4669 0.930 . S
H4682 C4670 0.956 . S
H4683 C4670 0.961 . S
H4684 C4670 0.961 . S
H4685 C4671 0.958 . S
H4686 C4671 0.961 . S
H4687 C4671 0.960 . S
C4688 C4689 1.391 . S
C4688 C4690 1.394 . S
C4688 H4704 0.931 . S
C4689 C4688 1.391 . S
C4689 C4693 1.376 . S
C4690 C4688 1.394 . S
C4690 C4691 1.369 . S
C4690 C4694 1.531 . S
C4691 C4690 1.369 . S
C4691 C4692 1.410 . S
C4691 C4699 1.503 . S
C4692 C4691 1.410 . S
C4692 C4693 1.392 . S
C4692 C4695 1.511 . S
C4693 C4689 1.376 . S
C4693 C4692 1.392 . S
C4693 H4705 0.929 . S
C4694 C4690 1.531 . S
C4694 H4706 0.960 . S
C4694 H4707 0.962 . S
C4694 H4708 0.960 . S
C4695 C4692 1.511 . S
C4695 H4709 0.961 . S
C4695 H4710 0.961 . S
C4695 H4711 0.961 . S
C4696 C4697 1.370 . S
C4696 C4698 1.363 . S
C4696 H4712 0.931 . S
C4697 C4696 1.370 . S
C4697 C4701 1.408 . S
C4698 C4696 1.363 . S
C4698 C4699 1.370 . S
C4698 C4702 1.524 . S
C4699 C4691 1.503 . S
C4699 C4698 1.370 . S
C4699 C4700 1.403 . S
C4700 C4699 1.403 . S
C4700 C4701 1.404 . S
C4700 C4703 1.539 . S
C4701 C4697 1.408 . S
C4701 C4700 1.404 . S
C4701 H4713 0.930 . S
C4702 C4698 1.524 . S
C4702 H4714 0.956 . S
C4702 H4715 0.961 . S
C4702 H4716 0.961 . S
C4703 C4700 1.539 . S
C4703 H4717 0.958 . S
C4703 H4718 0.961 . S
C4703 H4719 0.960 . S
H4704 C4688 0.931 . S
H4705 C4693 0.929 . S
H4706 C4694 0.960 . S
H4707 C4694 0.962 . S
H4708 C4694 0.960 . S
H4709 C4695 0.961 . S
H4710 C4695 0.961 . S
H4711 C4695 0.961 . S
H4712 C4696 0.931 . S
H4713 C4701 0.930 . S
H4714 C4702 0.956 . S
H4715 C4702 0.961 . S
H4716 C4702 0.961 . S
H4717 C4703 0.958 . S
H4718 C4703 0.961 . S
H4719 C4703 0.960 . S
C4720 C4721 1.391 . S
C4720 C4722 1.394 . S
C4720 H4736 0.931 . S
C4721 C4720 1.391 . S
C4721 C4725 1.376 . S
C4722 C4720 1.394 . S
C4722 C4723 1.369 . S
C4722 C4726 1.531 . S
C4723 C4722 1.369 . S
C4723 C4724 1.410 . S
C4723 C4731 1.503 . S
C4724 C4723 1.410 . S
C4724 C4725 1.392 . S
C4724 C4727 1.511 . S
C4725 C4721 1.376 . S
C4725 C4724 1.392 . S
C4725 H4737 0.929 . S
C4726 C4722 1.531 . S
C4726 H4738 0.960 . S
C4726 H4739 0.962 . S
C4726 H4740 0.960 . S
C4727 C4724 1.511 . S
C4727 H4741 0.961 . S
C4727 H4742 0.961 . S
C4727 H4743 0.961 . S
C4728 C4729 1.370 . S
C4728 C4730 1.363 . S
C4728 H4744 0.931 . S
C4729 C4728 1.370 . S
C4729 C4733 1.408 . S
C4730 C4728 1.363 . S
C4730 C4731 1.370 . S
C4730 C4734 1.524 . S
C4731 C4723 1.503 . S
C4731 C4730 1.370 . S
C4731 C4732 1.403 . S
C4732 C4731 1.403 . S
C4732 C4733 1.404 . S
C4732 C4735 1.539 . S
C4733 C4729 1.408 . S
C4733 C4732 1.404 . S
C4733 H4745 0.930 . S
C4734 C4730 1.524 . S
C4734 H4746 0.956 . S
C4734 H4747 0.961 . S
C4734 H4748 0.961 . S
C4735 C4732 1.539 . S
C4735 H4749 0.958 . S
C4735 H4750 0.961 . S
C4735 H4751 0.960 . S
H4736 C4720 0.931 . S
H4737 C4725 0.929 . S
H4738 C4726 0.960 . S
H4739 C4726 0.962 . S
H4740 C4726 0.960 . S
H4741 C4727 0.961 . S
H4742 C4727 0.961 . S
H4743 C4727 0.961 . S
H4744 C4728 0.931 . S
H4745 C4733 0.930 . S
H4746 C4734 0.956 . S
H4747 C4734 0.961 . S
H4748 C4734 0.961 . S
H4749 C4735 0.958 . S
H4750 C4735 0.961 . S
H4751 C4735 0.960 . S
C1681 C109 1.780 . S
C1689 C392 1.651 . S
C1713 C65 2.227 . S
C1721 C483 2.172 . S
C1745 C75 1.563 . S
C1753 C560 1.466 . S
C1785 C658 1.496 . S
C1777 C84 1.614 . S
C1809 C25 1.520 . S
C1817 C742 1.517 . S
C1849 C814 0.920 . S
C1841 C28 0.947 . S
C1881 C903 0.926 . S
C1873 C47 0.874 . S
C1905 C9 1.528 . S
C1913 C980 1.316 . S
C1945 C399 2.091 . S
C1937 C233 2.187 . S
C1969 C249 0.637 . S
C1977 C490 0.668 . S
C2009 C567 1.241 . S
C2001 C275 1.270 . S
C2041 C644 1.533 . S
C2033 C173 1.646 . S
C2065 C224 2.123 . S
C2073 C728 2.017 . S
C2105 C830 1.152 . S
C2097 C243 1.202 . S
C2137 C910 0.740 . S
C2129 C266 0.761 . S
C2169 C987 1.453 . S
C2161 C179 1.590 . S
C2201 C406 1.416 . S
C2193 C163 1.500 . S
C2225 C289 1.950 . S
C2233 C1071 1.883 . S
C2265 C1159 2.170 . S
C2257 C333 2.356 . S
C2297 C1232 0.580 . S
C2289 C308 0.414 . S
C2321 C123 0.984 . S
C2329 C994 0.984 . S
C2353 C126 1.445 . S
C2361 C574 1.431 . S
C2385 C327 2.287 . S
C2393 C1323 2.208 . S
C2425 C1400 0.758 . S
C2417 C299 0.816 . S
C2457 C403 1.671 . S
C2449 C67 1.811 . S
C2489 C1418 2.182 . S
C2481 C98 2.173 . S
C2513 C89 1.589 . S
C2521 C571 1.501 . S
C2545 C79 1.660 . S
C2553 C1318 1.534 . S
C2585 C730 1.530 . S
C2577 C11 1.568 . S
C2609 C51 0.991 . S
C2617 C1162 0.957 . S
C2649 C914 1.010 . S
C2641 C33 1.019 . S
C2681 C1495 1.325 . S
C2673 C14 1.501 . S
C2713 C410 2.065 . S
C2705 C140 2.169 . S
C2745 C1402 0.719 . S
C2737 C319 0.727 . S
C2769 C112 1.276 . S
C2777 C578 1.250 . S
C2801 C285 1.656 . S
C2809 C1327 1.535 . S
C2833 C149 2.203 . S
C2841 C739 2.048 . S
C2873 C1155 1.147 . S
C2865 C313 1.247 . S
C2897 C121 0.833 . S
C2905 C898 0.804 . S
C2929 C291 1.611 . S
C2937 C1502 1.511 . S
C2961 C182 1.510 . S
C2969 C394 1.401 1_554 S
C2993 C168 1.931 . S
C3001 C1082 1.881 . S
C3025 C263 2.407 . S
C3033 C812 2.223 . S
C3057 C247 0.512 . S
C3065 C1243 0.563 . S
C3097 C1486 0.936 . S
C3089 C277 0.946 1_565 S
C3121 C219 1.528 . S
C3129 C562 1.466 . S
C3161 C662 2.245 . S
C3153 C257 2.326 . S
C3193 C487 0.764 . S
C3185 C201 0.813 . S
C3217 C81 1.789 . S
C3225 C1568 1.641 . S
C3257 C1407 2.157 . S
C3249 C93 2.219 . S
C3281 C103 1.561 . S
C3289 C1652 1.481 . S
C3313 C56 1.584 . S
C3321 C1330 1.460 . S
C3345 C53 1.531 . S
C3353 C1078 1.523 . S
C3385 C1150 0.927 . S
C3377 C0 0.949 . S
C3417 C1239 0.923 . S
C3409 C19 0.869 . S
C3449 C1484 1.357 . S
C3441 C37 1.476 . S
C3481 C1575 2.078 . S
C3473 C261 2.189 . S
C3505 C193 0.643 . S
C3513 C1414 0.698 . S
C3545 C1659 1.211 . S
C3537 C205 1.283 . S
C3577 C1316 1.535 . S
C3569 C215 1.646 . S
C3609 C1064 2.024 . S
C3601 C252 2.118 . S
C3633 C187 1.205 . S
C3641 C1166 1.153 . S
C3673 C1246 0.809 . S
C3665 C196 0.804 . S
C3697 C221 1.571 . S
C3705 C1491 1.456 . S
C3737 C1582 1.416 . S
C3729 C317 1.499 . S
C3761 C135 1.953 . S
C3769 C735 1.884 . S
C3801 C823 2.177 . S
C3793 C151 2.354 . S
C3833 C896 0.584 . S
C3825 C154 0.412 . S
C3865 C1498 0.975 . S
C3857 C305 0.947 . S
C3889 C280 1.461 . S
C3897 C1666 1.445 . S
C3929 C651 2.204 . S
C3921 C145 2.281 . S
C3961 C476 0.821 . S
C3953 C117 0.808 . S
C3985 C95 1.809 . S
C3993 C1579 1.652 . S
C4025 C494 2.182 . S
C4017 C70 2.188 . S
C4049 C61 1.595 . S
C4057 C1663 1.503 . S
C4081 C107 1.657 . S
C4089 C646 1.534 . S
C4113 C39 1.533 . S
C4121 C1066 1.507 . S
C4153 C826 0.946 . S
C4145 C23 0.998 . S
C4177 C5 0.942 . S
C4185 C1250 0.998 . S
C4209 C42 1.475 . S
C4217 C991 1.360 . S
C4249 C1586 2.086 . S
C4241 C322 2.183 . S
C4273 C165 0.717 . S
C4281 C478 0.732 . S
C4313 C1670 1.221 . S
C4305 C294 1.240 . S
C4337 C131 1.662 . S
C4345 C655 1.574 . S
C4369 C331 2.197 . S
C4377 C1075 2.047 . S
C4409 C819 1.171 . S
C4401 C159 1.256 . S
C4433 C303 0.855 . S
C4441 C1234 0.756 1_655 S
C4473 C998 1.481 . S
C4465 C137 1.617 . S
C4505 C1570 1.430 . S
C4497 C238 1.517 . S
C4537 C746 1.881 1_665 S
C4529 C210 1.929 . S
C4561 C235 2.391 . S
C4569 C1148 2.249 . S
C4601 C907 0.577 . S
C4593 C191 0.521 . S
C4625 C207 0.965 . S
C4633 C982 0.944 . S
C4657 C177 1.509 . S
C4665 C1654 1.439 1_554 S
C4697 C1334 2.228 . S
C4689 C229 2.321 1_565 S
C4729 C1411 0.796 . S
C4721 C271 0.805 . S
