# Generated by pormake.
# Topology pyr, (3,6)-cn, num edge types: 1
# Building blocks:
#     Node 0, Type 0, BuildingBlock: OLANEW_clean_sbu_2, # of connection points: 3
#     Node 1, Type 0, BuildingBlock: OLANEW_clean_sbu_2, # of connection points: 3
#     Node 2, Type 0, BuildingBlock: OLANEW_clean_sbu_2, # of connection points: 3
#     Node 3, Type 0, BuildingBlock: OLANEW_clean_sbu_2, # of connection points: 3
#     Node 4, Type 0, BuildingBlock: OLANEW_clean_sbu_2, # of connection points: 3
#     Node 5, Type 0, BuildingBlock: OLANEW_clean_sbu_2, # of connection points: 3
#     Node 6, Type 0, BuildingBlock: OLANEW_clean_sbu_2, # of connection points: 3
#     Node 7, Type 0, BuildingBlock: OLANEW_clean_sbu_2, # of connection points: 3
#     Node 8, Type 1, BuildingBlock: GEDQOX_clean_sbu_0, # of connection points: 6
#     Node 9, Type 1, BuildingBlock: GEDQOX_clean_sbu_0, # of connection points: 6
#     Node 10, Type 1, BuildingBlock: GEDQOX_clean_sbu_0, # of connection points: 6
#     Node 11, Type 1, BuildingBlock: GEDQOX_clean_sbu_0, # of connection points: 6
#     Edge 12, Type (0, 1), None
#     Edge 13, Type (0, 1), None
#     Edge 14, Type (0, 1), None
#     Edge 15, Type (0, 1), None
#     Edge 16, Type (0, 1), None
#     Edge 17, Type (0, 1), None
#     Edge 18, Type (0, 1), None
#     Edge 19, Type (0, 1), None
#     Edge 20, Type (0, 1), None
#     Edge 21, Type (0, 1), None
#     Edge 22, Type (0, 1), None
#     Edge 23, Type (0, 1), None
#     Edge 24, Type (0, 1), None
#     Edge 25, Type (0, 1), None
#     Edge 26, Type (0, 1), None
#     Edge 27, Type (0, 1), None
#     Edge 28, Type (0, 1), None
#     Edge 29, Type (0, 1), None
#     Edge 30, Type (0, 1), None
#     Edge 31, Type (0, 1), None
#     Edge 32, Type (0, 1), None
#     Edge 33, Type (0, 1), None
#     Edge 34, Type (0, 1), None
#     Edge 35, Type (0, 1), None
# Relax obj value: 0.401
# Max RMSD: 0.192
# Mean RMSD: 0.146
data_MOF--net-pyr--node1-OLANEW_clean_sbu_2--node2-GEDQOX_clean_sbu_0--edge1-none
_symmetry_space_group_name_H-M    P1
_symmetry_Int_Tables_number       1
_symmetry_cell_setting            triclinic
loop_
_symmetry_equiv_pos_as_xyz
'x, y, z'
_cell_length_a     21.233976
_cell_length_b     21.885537
_cell_length_c     17.771802
_cell_angle_alpha  98.01695
_cell_angle_beta   92.490598
_cell_angle_gamma 89.080544
loop_
_atom_site_label
_atom_site_type_symbol
_atom_site_fract_x
_atom_site_fract_y
_atom_site_fract_z
_atom_type_partial_charge
O0 O 0.33642 0.17657 0.13318 0.0
Cd1 Cd 0.22472 0.22705 0.11776 0.0
O2 O 0.33739 0.11381 0.22381 0.0
Cd3 Cd 0.25695 0.09364 0.30039 0.0
O4 O 0.19483 0.0665 0.39447 0.0
C5 C 0.17536 0.01204 0.39989 0.0
O6 O 0.19044 0.96643 0.34744 0.0
C7 C 0.36514 0.13788 0.17185 0.0
C8 C 0.17621 0.34352 0.074 0.0
O9 O 0.20315 0.303 1.02629 0.0
O10 O 0.17538 0.33193 0.14273 0.0
O11 O 0.4467 0.93646 0.86825 0.0
Cd12 Cd 0.41954 0.84776 0.77224 0.0
O13 O 0.44036 0.88588 0.96664 0.0
Cd14 Cd 0.39549 0.80633 0.89847 0.0
O15 O 0.33258 0.75908 0.80944 0.0
C16 C 0.27543 0.74858 0.82124 0.0
O17 O 0.25548 0.76105 0.89073 0.0
C18 C 0.45273 0.93492 0.93936 0.0
C19 C 0.51256 0.75571 0.74283 0.0
O20 O 0.46615 0.74741 0.7837 0.0
O21 O 0.51627 0.80758 0.71777 0.0
O22 O 0.93003 0.57304 0.93465 0.0
Cd23 Cd 0.8215 0.60941 0.94903 0.0
O24 O 0.89683 0.48418 0.95828 0.0
Cd25 Cd 0.89326 0.38507 0.95469 0.0
O26 O 0.81367 0.32264 0.9375 0.0
C27 C 0.76053 0.34609 0.92063 0.0
O28 O 0.75734 0.40491 0.91288 0.0
C29 C 0.94166 0.51716 0.9427 0.0
C30 C 0.74651 0.58602 0.8153 0.0
O31 O 0.77035 0.63946 0.83581 0.0
O32 O 0.75873 0.54363 0.85683 0.0
O33 O 0.86237 0.95036 0.44304 0.0
Cd34 Cd 0.79282 0.89976 0.34012 0.0
O35 O 0.92724 0.87245 0.41661 0.0
Cd36 Cd 1.00683 0.81108 0.43387 0.0
O37 O 1.04503 0.71811 0.44004 0.0
C38 C 1.01731 0.67603 0.46857 0.0
O39 O 1.04729 0.62364 0.47331 0.0
C40 C 0.91443 0.92361 0.45624 0.0
C41 C 0.84893 0.78873 0.2796 0.0
O42 O 0.8086 0.79027 0.3314 0.0
O43 O 0.86096 0.83934 0.25473 0.0
O44 O 0.97448 0.8777 0.81097 0.0
Cd45 Cd 0.95448 0.79364 0.89299 0.0
O46 O 0.91474 0.96431 0.8158 0.0
Cd47 Cd 0.83258 0.97597 0.89895 0.0
O48 O 0.73511 0.00838 0.94565 0.0
C49 C 0.7154 0.0279 1.01243 0.0
O50 O 0.75509 0.03137 0.07155 0.0
C51 C 0.96081 0.92997 0.78864 0.0
C52 C 1.03644 0.69618 0.93568 0.0
O53 O 1.02117 0.69935 0.86571 0.0
O54 O 1.01681 0.73998 0.98486 0.0
O55 O 0.63628 0.22052 0.32316 0.0
Cd56 Cd 0.66771 0.2946 0.43458 0.0
O57 O 0.62801 0.28677 0.24062 0.0
Cd58 Cd 0.65946 0.36003 0.33166 0.0
O59 O 0.65671 0.42243 0.43987 0.0
C60 C 0.69812 0.45987 0.47214 0.0
O61 O 0.75178 0.46545 0.43983 0.0
C62 C 0.62321 0.23203 0.25595 0.0
C63 C 0.77871 0.2588 0.50636 0.0
O64 O 0.77986 0.29485 0.45543 0.0
O65 O 0.72499 0.2401 0.52359 0.0
O66 O 0.45511 0.7014 0.29642 0.0
Cd67 Cd 0.41697 0.61806 0.35804 0.0
O68 O 0.45146 0.68363 0.17096 0.0
Cd69 Cd 0.39425 0.60196 0.16571 0.0
O70 O 0.30116 0.56187 0.14618 0.0
C71 C 0.2668 0.57406 0.08973 0.0
O72 O 0.28905 0.6078 0.04157 0.0
C73 C 0.46649 0.71782 0.23269 0.0
C74 C 0.50398 0.62296 0.47998 0.0
O75 O 0.50693 0.57934 0.42409 0.0
O76 O 0.45791 0.66137 0.48082 0.0
O77 O 0.28125 0.18526 0.6795 0.0
Cd78 Cd 0.37138 0.12046 0.64168 0.0
O79 O 0.32865 0.19231 0.79232 0.0
Cd80 Cd 0.33824 0.09303 0.76695 0.0
O81 O 0.27596 0.0237 0.70561 0.0
C82 C 0.2169 0.03243 0.71114 0.0
O83 O 0.19569 0.08045 0.75592 0.0
C84 C 0.2938 0.21643 0.74421 0.0
C85 C 0.45254 0.21925 0.65525 0.0
O86 O 0.42645 0.19832 0.59057 0.0
O87 O 0.44715 0.18809 0.71055 0.0
Nd88 Nd 0.0917 0.91024 0.57948 0.0
Nd89 Nd 1.0396 0.03437 0.60181 0.0
C90 C 0.1186 0.79156 0.57139 0.0
C91 C 0.15037 0.75915 0.63028 0.0
C92 C 0.12625 0.76341 0.70339 0.0
C93 C 0.16562 0.75303 0.7655 0.0
C94 C 0.22978 0.73896 0.75551 0.0
C95 C 0.25149 0.7267 0.68122 0.0
C96 C 0.21195 0.73643 0.61905 0.0
C97 C 0.17297 0.99116 0.66418 0.0
C98 C 0.99653 0.94776 0.72385 0.0
C99 C 1.01016 0.1531 0.61042 0.0
C100 C 0.95117 0.18623 0.59518 0.0
C101 C 0.89285 0.16368 0.61283 0.0
C102 C 0.83666 0.18911 0.58663 0.0
C103 C 0.83782 0.23691 0.54142 0.0
C104 C 0.89627 0.26096 0.52639 0.0
C105 C 0.95245 0.23585 0.55319 0.0
C106 C 0.95844 0.95223 0.51623 0.0
C107 C 0.13676 0.99831 0.4644 0.0
O108 O 1.06213 0.81405 0.58523 0.0
O109 O 0.15417 0.83044 0.54372 0.0
O110 O 0.19087 0.94591 0.61506 0.0
O111 O 0.11424 0.99118 0.67154 0.0
O112 O 1.02567 0.90374 0.6793 0.0
O113 O 0.99807 1.00556 0.71021 0.0
O114 O 1.03346 0.12093 0.55054 0.0
O115 O 1.01297 0.12356 0.66956 0.0
O116 O 0.941 0.9974 0.56583 0.0
O117 O 1.0172 0.95305 0.50917 0.0
O118 O 0.12273 0.04164 0.52097 0.0
O119 O 0.11763 0.94135 0.46597 0.0
H120 H 0.07871 0.78011 0.71399 0.0
H121 H 0.14714 0.76182 0.82189 0.0
H122 H 0.30044 0.71459 0.67158 0.0
H123 H 0.23145 0.7321 0.56318 0.0
H124 H 0.89065 0.12479 0.64423 0.0
H125 H 0.79242 0.16957 0.59924 0.0
H126 H 0.89873 0.29796 0.49203 0.0
H127 H 0.997 0.25344 0.53835 0.0
Nd128 Nd 0.54518 0.05012 0.14872 0.0
Nd129 Nd 0.53783 0.1201 0.03217 0.0
C130 C 0.56512 0.96074 0.23333 0.0
C131 C 0.54352 0.89738 0.23185 0.0
C132 C 0.5365 0.87447 0.30055 0.0
C133 C 0.51285 0.81545 0.30056 0.0
C134 C 0.49565 0.77841 0.23165 0.0
C135 C 0.50412 0.80108 0.16269 0.0
C136 C 0.52789 0.86017 0.16282 0.0
C137 C 0.43362 0.12123 0.15913 0.0
C138 C 0.47903 0.98794 0.98973 0.0
C139 C 0.53683 0.20711 0.94321 0.0
C140 C 0.59227 0.24092 0.92522 0.0
C141 C 0.58777 0.30341 0.91612 0.0
C142 C 0.6425 0.3373 0.91121 0.0
C143 C 0.70244 0.30921 0.91653 0.0
C144 C 0.70641 0.24608 0.92282 0.0
C145 C 0.65197 0.21238 0.9273 0.0
C146 C 0.64851 0.04969 1.02299 0.0
C147 C 0.59988 0.18166 0.19834 0.0
O148 O 0.60125 0.97037 0.17874 0.0
O149 O 0.52276 1.00408 0.2479 0.0
O150 O 0.47178 0.11206 0.21548 0.0
O151 O 0.45472 0.09309 0.0974 0.0
O152 O 0.51204 0.97748 0.05054 0.0
O153 O 0.47186 0.04452 0.97366 0.0
O154 O 0.52137 0.21774 1.01413 0.0
O155 O 0.53631 0.14842 0.91697 0.0
O156 O 0.61001 0.05549 0.96635 0.0
O157 O 0.62739 0.07951 0.08344 0.0
O158 O 0.56971 0.1928 0.13517 0.0
O159 O 0.60518 0.12526 0.21397 0.0
H160 H 0.54847 0.90259 0.35426 0.0
H161 H 0.50713 0.79933 0.35476 0.0
H162 H 0.4914 0.77372 0.10874 0.0
H163 H 0.53335 0.87686 0.10902 0.0
H164 H 0.54227 0.32648 0.91583 0.0
H165 H 0.63788 0.38595 0.90628 0.0
H166 H 0.7517 0.22299 0.92679 0.0
H167 H 0.65684 0.16442 0.93551 0.0
Nd168 Nd 0.58808 0.55625 0.67072 0.0
Nd169 Nd 0.66954 0.64876 0.61527 0.0
C170 C 0.50687 0.47844 0.7123 0.0
C171 C 0.49817 0.41106 0.69657 0.0
C172 C 0.49533 0.37986 0.6218 0.0
C173 C 0.48459 0.31633 0.60823 0.0
C174 C 0.47723 0.28278 0.66915 0.0
C175 C 0.48338 0.31363 0.74397 0.0
C176 C 0.49351 0.3772 0.75747 0.0
C177 C 0.70163 0.57493 0.74994 0.0
C178 C 0.55621 0.70491 0.71767 0.0
C179 C 0.76713 0.71338 0.5843 0.0
C180 C 0.83111 0.70285 0.55536 0.0
C181 C 0.8742 0.66221 0.58538 0.0
C182 C 0.93478 0.65383 0.55728 0.0
C183 C 0.95336 0.68577 0.49864 0.0
C184 C 0.90964 0.72526 0.46785 0.0
C185 C 0.84945 0.73427 0.49653 0.0
C186 C 0.55561 0.63289 0.5372 0.0
C187 C 0.68007 0.50363 0.53826 0.0
O188 O 0.5573 0.49676 0.75325 0.0
O189 O 0.49516 0.51035 0.65614 0.0
O190 O 0.67839 0.5209 0.72679 0.0
O191 O 0.6661 0.61673 0.72937 0.0
O192 O 0.53637 0.64751 0.71372 0.0
O193 O 0.61019 0.71825 0.6902 0.0
O194 O 0.7577 0.69888 0.65191 0.0
O195 O 0.71988 0.69879 0.53573 0.0
O196 O 0.58262 0.68616 0.55447 0.0
O197 O 0.5901 0.59009 0.55709 0.0
O198 O 0.71113 0.55582 0.55702 0.0
O199 O 0.62621 0.49464 0.56868 0.0
H200 H 0.5 0.40467 0.57371 0.0
H201 H 0.47986 0.29392 0.54997 0.0
H202 H 0.4771 0.28931 0.79213 0.0
H203 H 0.49629 0.40022 0.81558 0.0
H204 H 0.86121 0.63697 0.63056 0.0
H205 H 0.96721 0.62259 0.58181 0.0
H206 H 0.92103 0.74782 0.42007 0.0
H207 H 0.81683 0.76549 0.47238 0.0
Nd208 Nd 0.07495 0.53415 0.08141 0.0
Nd209 Nd 0.13233 0.50512 0.92684 0.0
C210 C 0.99789 0.56989 0.19251 0.0
C211 C 0.95786 0.62477 0.21201 0.0
C212 C 0.90696 0.62259 0.25912 0.0
C213 C 0.87007 0.67543 0.27938 0.0
C214 C 0.88379 0.73126 0.25293 0.0
C215 C 0.93404 0.73269 0.20434 0.0
C216 C 0.97075 0.67999 0.18421 0.0
C217 C 0.20095 0.55524 0.08301 0.0
C218 C 0.06686 0.6396 0.95975 0.0
C219 C 0.20317 0.46558 0.81193 0.0
C220 C 0.23443 0.40551 0.79204 0.0
C221 C 0.26711 0.37675 0.84816 0.0
C222 C 0.28648 0.3153 0.83249 0.0
C223 C 0.27311 0.28136 0.76063 0.0
C224 C 0.24209 0.31077 0.70385 0.0
C225 C 0.22299 0.3724 0.71948 0.0
C226 C 1.0041 0.49113 0.92498 0.0
C227 C 0.14778 0.40192 0.05088 0.0
O228 O 0.98068 0.53298 0.13091 0.0
O229 O 1.05863 0.5795 0.19814 0.0
O230 O 0.17373 0.53272 0.13691 0.0
O231 O 0.1618 0.56896 0.03219 0.0
O232 O 1.04766 0.6205 1.02253 0.0
O233 O 0.10636 0.60612 0.91489 0.0
O234 O 0.22495 0.50077 0.87304 0.0
O235 O 0.14168 0.46327 0.80736 0.0
O236 O 1.03395 0.51072 0.87116 0.0
O237 O 1.04319 0.47477 0.97451 0.0
O238 O 0.16463 0.42025 0.98665 0.0
O239 O 0.10734 0.43475 0.09525 0.0
H240 H 0.89628 0.58031 0.28102 0.0
H241 H 0.83169 0.67286 0.31699 0.0
H242 H 0.94606 0.7749 0.18317 0.0
H243 H 1.01 0.68282 0.14806 0.0
H244 H 0.27589 0.40097 0.90499 0.0
H245 H 0.31092 0.29414 0.87717 0.0
H246 H 0.23189 0.28606 0.64759 0.0
H247 H 0.19714 0.39355 0.67575 0.0
loop_
_geom_bond_atom_site_label_1
_geom_bond_atom_site_label_2
_geom_bond_distance
_geom_bond_site_symmetry_2
_ccdc_geom_bond_type
O0 Cd1 2.300 . S
O0 C7 1.275 . S
Cd1 O0 2.300 . S
Cd1 O9 2.381 . S
Cd1 O10 2.378 . S
O2 Cd3 2.385 . S
O2 C7 1.255 . S
Cd3 O2 2.385 . S
Cd3 O4 2.317 . S
O4 Cd3 2.317 . S
O4 C5 1.232 . S
C5 O4 1.232 . S
C5 O6 1.218 . S
O6 C5 1.218 . S
C7 O0 1.275 . S
C7 O2 1.255 . S
C8 O9 1.258 . S
C8 O10 1.256 . S
O9 Cd1 2.381 . S
O9 C8 1.258 . S
O10 Cd1 2.378 . S
O10 C8 1.256 . S
O11 Cd12 2.300 . S
O11 C18 1.275 . S
Cd12 O11 2.300 . S
Cd12 O20 2.381 . S
Cd12 O21 2.378 . S
O13 Cd14 2.385 . S
O13 C18 1.255 . S
Cd14 O13 2.385 . S
Cd14 O15 2.317 . S
O15 Cd14 2.317 . S
O15 C16 1.232 . S
C16 O15 1.232 . S
C16 O17 1.218 . S
O17 C16 1.218 . S
C18 O11 1.275 . S
C18 O13 1.255 . S
C19 O20 1.258 . S
C19 O21 1.256 . S
O20 Cd12 2.381 . S
O20 C19 1.258 . S
O21 Cd12 2.378 . S
O21 C19 1.256 . S
O22 Cd23 2.300 . S
O22 C29 1.275 . S
Cd23 O22 2.300 . S
Cd23 O31 2.381 . S
Cd23 O32 2.378 . S
O24 Cd25 2.385 . S
O24 C29 1.255 . S
Cd25 O24 2.385 . S
Cd25 O26 2.317 . S
O26 Cd25 2.317 . S
O26 C27 1.232 . S
C27 O26 1.232 . S
C27 O28 1.218 . S
O28 C27 1.218 . S
C29 O22 1.275 . S
C29 O24 1.255 . S
C30 O31 1.258 . S
C30 O32 1.256 . S
O31 Cd23 2.381 . S
O31 C30 1.258 . S
O32 Cd23 2.378 . S
O32 C30 1.256 . S
O33 Cd34 2.300 1_545 S
O33 C40 1.275 1_455 S
Cd34 O33 2.300 1_565 S
Cd34 O42 2.381 . S
Cd34 O43 2.378 . S
O35 Cd36 2.385 . S
O35 C40 1.255 1_565 S
Cd36 O35 2.385 . S
Cd36 O37 2.317 . S
O37 Cd36 2.317 . S
O37 C38 1.232 . S
C38 O37 1.232 . S
C38 O39 1.218 . S
O39 C38 1.218 . S
C40 O33 1.275 1_655 S
C40 O35 1.255 1_545 S
C41 O42 1.258 . S
C41 O43 1.256 . S
O42 Cd34 2.381 . S
O42 C41 1.258 . S
O43 Cd34 2.378 . S
O43 C41 1.256 . S
O44 Cd45 2.300 . S
O44 C51 1.275 . S
Cd45 O44 2.300 . S
Cd45 O53 2.381 . S
Cd45 O54 2.378 1_556 S
O46 Cd47 2.385 1_566 S
O46 C51 1.255 . S
Cd47 O46 2.385 1_544 S
Cd47 O48 2.317 1_544 S
O48 Cd47 2.317 1_566 S
O48 C49 1.232 . S
C49 O48 1.232 . S
C49 O50 1.218 1_565 S
O50 C49 1.218 1_545 S
C51 O44 1.275 . S
C51 O46 1.255 . S
C52 O53 1.258 . S
C52 O54 1.256 1_556 S
O53 Cd45 2.381 . S
O53 C52 1.258 . S
O54 Cd45 2.378 1_554 S
O54 C52 1.256 1_554 S
O55 Cd56 2.300 . S
O55 C62 1.275 . S
Cd56 O55 2.300 . S
Cd56 O64 2.381 . S
Cd56 O65 2.378 . S
O57 Cd58 2.385 . S
O57 C62 1.255 . S
Cd58 O57 2.385 . S
Cd58 O59 2.317 . S
O59 Cd58 2.317 . S
O59 C60 1.232 . S
C60 O59 1.232 . S
C60 O61 1.218 . S
O61 C60 1.218 . S
C62 O55 1.275 . S
C62 O57 1.255 . S
C63 O64 1.258 . S
C63 O65 1.256 . S
O64 Cd56 2.381 . S
O64 C63 1.258 . S
O65 Cd56 2.378 . S
O65 C63 1.256 . S
O66 Cd67 2.300 . S
O66 C73 1.275 . S
Cd67 O66 2.300 . S
Cd67 O75 2.381 . S
Cd67 O76 2.378 . S
O68 Cd69 2.385 . S
O68 C73 1.255 . S
Cd69 O68 2.385 . S
Cd69 O70 2.317 . S
O70 Cd69 2.317 . S
O70 C71 1.232 . S
C71 O70 1.232 . S
C71 O72 1.218 . S
O72 C71 1.218 . S
C73 O66 1.275 . S
C73 O68 1.255 . S
C74 O75 1.258 . S
C74 O76 1.256 . S
O75 Cd67 2.381 . S
O75 C74 1.258 . S
O76 Cd67 2.378 . S
O76 C74 1.256 . S
O77 Cd78 2.300 . S
O77 C84 1.275 . S
Cd78 O77 2.300 . S
Cd78 O86 2.381 . S
Cd78 O87 2.378 . S
O79 Cd80 2.385 . S
O79 C84 1.255 . S
Cd80 O79 2.385 . S
Cd80 O81 2.317 . S
O81 Cd80 2.317 . S
O81 C82 1.232 1_545 S
C82 O81 1.232 1_565 S
C82 O83 1.218 . S
O83 C82 1.218 . S
C84 O77 1.275 . S
C84 O79 1.255 . S
C85 O86 1.258 . S
C85 O87 1.256 . S
O86 Cd78 2.381 . S
O86 C85 1.258 . S
O87 Cd78 2.378 . S
O87 C85 1.256 . S
Nd88 C90 2.836 . S
Nd88 O108 2.500 . S
Nd88 O109 2.492 . S
Nd88 O110 2.487 1_565 S
Nd88 O111 2.682 1_565 S
Nd88 O112 2.410 . S
Nd88 O117 2.414 1_455 S
Nd88 O119 2.424 1_565 S
Nd89 C99 2.836 . S
Nd89 O111 2.414 1_655 S
Nd89 O113 2.424 . S
Nd89 O114 2.500 . S
Nd89 O115 2.492 . S
Nd89 O116 2.487 1_545 S
Nd89 O117 2.682 1_545 S
Nd89 O118 2.410 . S
C90 Nd88 2.836 . S
C90 C91 1.498 . S
C90 O108 1.258 . S
C90 O109 1.239 . S
C91 C90 1.498 . S
C91 C92 1.366 . S
C91 C96 1.407 . S
C92 C91 1.366 . S
C92 C93 1.392 . S
C92 H120 0.930 . S
C93 C92 1.392 . S
C93 C94 1.398 . S
C93 H121 0.929 . S
C94 C93 1.398 . S
C94 C95 1.352 . S
C95 C94 1.352 . S
C95 C96 1.384 . S
C95 H122 0.930 . S
C96 C91 1.407 . S
C96 C95 1.384 . S
C96 H123 0.929 . S
C97 O110 1.241 . S
C97 O111 1.273 . S
C98 O112 1.251 1_655 S
C98 O113 1.268 1_565 S
C99 Nd89 2.836 . S
C99 C100 1.498 . S
C99 O114 1.258 . S
C99 O115 1.239 . S
C100 C99 1.498 . S
C100 C101 1.366 . S
C100 C105 1.407 . S
C101 C100 1.366 . S
C101 C102 1.392 . S
C101 H124 0.930 . S
C102 C101 1.392 . S
C102 C103 1.398 . S
C102 H125 0.929 . S
C103 C102 1.398 . S
C103 C104 1.352 . S
C104 C103 1.352 . S
C104 C105 1.384 . S
C104 H126 0.930 . S
C105 C100 1.407 . S
C105 C104 1.384 . S
C105 H127 0.929 . S
C106 O116 1.241 . S
C106 O117 1.273 . S
C107 O118 1.251 1_455 S
C107 O119 1.268 . S
O108 Nd88 2.500 . S
O108 C90 1.258 . S
O109 Nd88 2.492 . S
O109 C90 1.239 . S
O110 Nd88 2.487 1_545 S
O110 C97 1.241 . S
O111 Nd88 2.682 1_545 S
O111 Nd89 2.414 1_455 S
O111 C97 1.273 . S
O112 Nd88 2.410 . S
O112 C98 1.251 1_455 S
O113 Nd89 2.424 . S
O113 C98 1.268 1_545 S
O114 Nd89 2.500 . S
O114 C99 1.258 . S
O115 Nd89 2.492 . S
O115 C99 1.239 . S
O116 Nd89 2.487 1_565 S
O116 C106 1.241 . S
O117 Nd88 2.414 1_655 S
O117 Nd89 2.682 1_565 S
O117 C106 1.273 . S
O118 Nd89 2.410 . S
O118 C107 1.251 1_655 S
O119 Nd88 2.424 1_545 S
O119 C107 1.268 . S
H120 C92 0.930 . S
H121 C93 0.929 . S
H122 C95 0.930 . S
H123 C96 0.929 . S
H124 C101 0.930 . S
H125 C102 0.929 . S
H126 C104 0.930 . S
H127 C105 0.929 . S
Nd128 C130 2.836 . S
Nd128 O148 2.500 . S
Nd128 O149 2.492 . S
Nd128 O150 2.487 1_565 S
Nd128 O151 2.682 1_565 S
Nd128 O152 2.410 . S
Nd128 O157 2.414 . S
Nd128 O159 2.424 1_565 S
Nd129 C139 2.836 . S
Nd129 O151 2.414 1_556 S
Nd129 O153 2.424 1_545 S
Nd129 O154 2.500 . S
Nd129 O155 2.492 . S
Nd129 O156 2.487 . S
Nd129 O157 2.682 1_546 S
Nd129 O158 2.410 1_556 S
C130 Nd128 2.836 . S
C130 C131 1.498 . S
C130 O148 1.258 . S
C130 O149 1.239 . S
C131 C130 1.498 . S
C131 C132 1.366 . S
C131 C136 1.407 . S
C132 C131 1.366 . S
C132 C133 1.392 . S
C132 H160 0.930 . S
C133 C132 1.392 . S
C133 C134 1.398 . S
C133 H161 0.929 . S
C134 C133 1.398 . S
C134 C135 1.352 . S
C135 C134 1.352 . S
C135 C136 1.384 . S
C135 H162 0.930 . S
C136 C131 1.407 . S
C136 C135 1.384 . S
C136 H163 0.929 . S
C137 O150 1.241 . S
C137 O151 1.273 . S
C138 O152 1.251 1_556 S
C138 O153 1.268 . S
C139 Nd129 2.836 . S
C139 C140 1.498 . S
C139 O154 1.258 . S
C139 O155 1.239 . S
C140 C139 1.498 . S
C140 C141 1.366 . S
C140 C145 1.407 . S
C141 C140 1.366 . S
C141 C142 1.392 . S
C141 H164 0.930 . S
C142 C141 1.392 . S
C142 C143 1.398 . S
C142 H165 0.929 . S
C143 C142 1.398 . S
C143 C144 1.352 . S
C144 C143 1.352 . S
C144 C145 1.384 . S
C144 H166 0.930 . S
C145 C140 1.407 . S
C145 C144 1.384 . S
C145 H167 0.929 . S
C146 O156 1.241 1_564 S
C146 O157 1.273 . S
C147 O158 1.251 . S
C147 O159 1.268 . S
O148 Nd128 2.500 . S
O148 C130 1.258 . S
O149 Nd128 2.492 . S
O149 C130 1.239 . S
O150 Nd128 2.487 1_545 S
O150 C137 1.241 . S
O151 Nd128 2.682 1_545 S
O151 Nd129 2.414 1_554 S
O151 C137 1.273 . S
O152 Nd128 2.410 . S
O152 C138 1.251 1_554 S
O153 Nd129 2.424 1_565 S
O153 C138 1.268 . S
O154 Nd129 2.500 . S
O154 C139 1.258 . S
O155 Nd129 2.492 . S
O155 C139 1.239 . S
O156 Nd129 2.487 . S
O156 C146 1.241 1_546 S
O157 Nd128 2.414 . S
O157 Nd129 2.682 1_564 S
O157 C146 1.273 . S
O158 Nd129 2.410 1_554 S
O158 C147 1.251 . S
O159 Nd128 2.424 1_545 S
O159 C147 1.268 . S
H160 C132 0.930 . S
H161 C133 0.929 . S
H162 C135 0.930 . S
H163 C136 0.929 . S
H164 C141 0.930 . S
H165 C142 0.929 . S
H166 C144 0.930 . S
H167 C145 0.929 . S
Nd168 C170 2.836 . S
Nd168 O188 2.500 . S
Nd168 O189 2.492 . S
Nd168 O190 2.487 . S
Nd168 O191 2.682 . S
Nd168 O192 2.410 . S
Nd168 O197 2.414 . S
Nd168 O199 2.424 . S
Nd169 C179 2.836 . S
Nd169 O191 2.414 . S
Nd169 O193 2.424 . S
Nd169 O194 2.500 . S
Nd169 O195 2.492 . S
Nd169 O196 2.487 . S
Nd169 O197 2.682 . S
Nd169 O198 2.410 . S
C170 Nd168 2.836 . S
C170 C171 1.498 . S
C170 O188 1.258 . S
C170 O189 1.239 . S
C171 C170 1.498 . S
C171 C172 1.366 . S
C171 C176 1.407 . S
C172 C171 1.366 . S
C172 C173 1.392 . S
C172 H200 0.930 . S
C173 C172 1.392 . S
C173 C174 1.398 . S
C173 H201 0.929 . S
C174 C173 1.398 . S
C174 C175 1.352 . S
C175 C174 1.352 . S
C175 C176 1.384 . S
C175 H202 0.930 . S
C176 C171 1.407 . S
C176 C175 1.384 . S
C176 H203 0.929 . S
C177 O190 1.241 . S
C177 O191 1.273 . S
C178 O192 1.251 . S
C178 O193 1.268 . S
C179 Nd169 2.836 . S
C179 C180 1.498 . S
C179 O194 1.258 . S
C179 O195 1.239 . S
C180 C179 1.498 . S
C180 C181 1.366 . S
C180 C185 1.407 . S
C181 C180 1.366 . S
C181 C182 1.392 . S
C181 H204 0.930 . S
C182 C181 1.392 . S
C182 C183 1.398 . S
C182 H205 0.929 . S
C183 C182 1.398 . S
C183 C184 1.352 . S
C184 C183 1.352 . S
C184 C185 1.384 . S
C184 H206 0.930 . S
C185 C180 1.407 . S
C185 C184 1.384 . S
C185 H207 0.929 . S
C186 O196 1.241 . S
C186 O197 1.273 . S
C187 O198 1.251 . S
C187 O199 1.268 . S
O188 Nd168 2.500 . S
O188 C170 1.258 . S
O189 Nd168 2.492 . S
O189 C170 1.239 . S
O190 Nd168 2.487 . S
O190 C177 1.241 . S
O191 Nd168 2.682 . S
O191 Nd169 2.414 . S
O191 C177 1.273 . S
O192 Nd168 2.410 . S
O192 C178 1.251 . S
O193 Nd169 2.424 . S
O193 C178 1.268 . S
O194 Nd169 2.500 . S
O194 C179 1.258 . S
O195 Nd169 2.492 . S
O195 C179 1.239 . S
O196 Nd169 2.487 . S
O196 C186 1.241 . S
O197 Nd168 2.414 . S
O197 Nd169 2.682 . S
O197 C186 1.273 . S
O198 Nd169 2.410 . S
O198 C187 1.251 . S
O199 Nd168 2.424 . S
O199 C187 1.268 . S
H200 C172 0.930 . S
H201 C173 0.929 . S
H202 C175 0.930 . S
H203 C176 0.929 . S
H204 C181 0.930 . S
H205 C182 0.929 . S
H206 C184 0.930 . S
H207 C185 0.929 . S
Nd208 C210 2.836 1_455 S
Nd208 O228 2.500 1_455 S
Nd208 O229 2.492 . S
Nd208 O230 2.487 . S
Nd208 O231 2.682 . S
Nd208 O232 2.410 . S
Nd208 O237 2.414 1_454 S
Nd208 O239 2.424 . S
Nd209 C219 2.836 . S
Nd209 O231 2.414 1_556 S
Nd209 O233 2.424 . S
Nd209 O234 2.500 . S
Nd209 O235 2.492 . S
Nd209 O236 2.487 1_455 S
Nd209 O237 2.682 1_455 S
Nd209 O238 2.410 . S
C210 Nd208 2.836 1_655 S
C210 C211 1.498 . S
C210 O228 1.258 . S
C210 O229 1.239 1_655 S
C211 C210 1.498 . S
C211 C212 1.366 . S
C211 C216 1.407 1_655 S
C212 C211 1.366 . S
C212 C213 1.392 . S
C212 H240 0.930 . S
C213 C212 1.392 . S
C213 C214 1.398 . S
C213 H241 0.929 . S
C214 C213 1.398 . S
C214 C215 1.352 . S
C215 C214 1.352 . S
C215 C216 1.384 1_655 S
C215 H242 0.930 1_655 S
C216 C211 1.407 1_455 S
C216 C215 1.384 1_455 S
C216 H243 0.929 . S
C217 O230 1.241 . S
C217 O231 1.273 . S
C218 O232 1.251 1_556 S
C218 O233 1.268 . S
C219 Nd209 2.836 . S
C219 C220 1.498 . S
C219 O234 1.258 . S
C219 O235 1.239 . S
C220 C219 1.498 . S
C220 C221 1.366 . S
C220 C225 1.407 . S
C221 C220 1.366 . S
C221 C222 1.392 . S
C221 H244 0.930 . S
C222 C221 1.392 . S
C222 C223 1.398 . S
C222 H245 0.929 . S
C223 C222 1.398 . S
C223 C224 1.352 . S
C224 C223 1.352 . S
C224 C225 1.384 . S
C224 H246 0.930 . S
C225 C220 1.407 . S
C225 C224 1.384 . S
C225 H247 0.929 . S
C226 O236 1.241 . S
C226 O237 1.273 . S
C227 O238 1.251 1_554 S
C227 O239 1.268 . S
O228 Nd208 2.500 1_655 S
O228 C210 1.258 . S
O229 Nd208 2.492 . S
O229 C210 1.239 1_455 S
O230 Nd208 2.487 . S
O230 C217 1.241 . S
O231 Nd208 2.682 . S
O231 Nd209 2.414 1_554 S
O231 C217 1.273 . S
O232 Nd208 2.410 . S
O232 C218 1.251 1_554 S
O233 Nd209 2.424 . S
O233 C218 1.268 . S
O234 Nd209 2.500 . S
O234 C219 1.258 . S
O235 Nd209 2.492 . S
O235 C219 1.239 . S
O236 Nd209 2.487 1_655 S
O236 C226 1.241 . S
O237 Nd208 2.414 1_656 S
O237 Nd209 2.682 1_655 S
O237 C226 1.273 . S
O238 Nd209 2.410 . S
O238 C227 1.251 1_556 S
O239 Nd208 2.424 . S
O239 C227 1.268 . S
H240 C212 0.930 . S
H241 C213 0.929 . S
H242 C215 0.930 1_455 S
H243 C216 0.929 . S
H244 C221 0.930 . S
H245 C222 0.929 . S
H246 C224 0.930 . S
H247 C225 0.929 . S
C5 C107 4.675 . S
C18 C138 3.384 . S
C177 C30 1.729 . S
C41 C214 2.042 1_455 S
C137 C7 4.725 . S
C94 C16 1.361 . S
C226 C29 2.167 . S
C183 C38 2.722 . S
C8 C227 3.496 . S
C143 C27 2.912 . S
C40 C106 2.569 1_545 S
C19 C178 3.088 . S
C98 C51 4.545 . S
C62 C147 3.571 . S
C74 C186 1.754 . S
C84 C223 1.074 . S
C49 C146 4.251 1_556 S
C103 C63 0.922 . S
C217 C71 1.040 . S
C174 C85 2.519 . S
C52 C218 3.308 1_655 S
C134 C73 1.423 . S
C97 C82 2.577 1_545 S
C60 C187 3.646 . S
