# Generated by pormake.
# Topology iac, (4,6)-cn, num edge types: 1
# Building blocks:
#     Node 0, Type 0, BuildingBlock: QUQFOY_clean_sbu_3, # of connection points: 4
#     Node 1, Type 0, BuildingBlock: QUQFOY_clean_sbu_3, # of connection points: 4
#     Node 2, Type 0, BuildingBlock: QUQFOY_clean_sbu_3, # of connection points: 4
#     Node 3, Type 0, BuildingBlock: QUQFOY_clean_sbu_3, # of connection points: 4
#     Node 4, Type 0, BuildingBlock: QUQFOY_clean_sbu_3, # of connection points: 4
#     Node 5, Type 0, BuildingBlock: QUQFOY_clean_sbu_3, # of connection points: 4
#     Node 6, Type 0, BuildingBlock: QUQFOY_clean_sbu_3, # of connection points: 4
#     Node 7, Type 0, BuildingBlock: QUQFOY_clean_sbu_3, # of connection points: 4
#     Node 8, Type 0, BuildingBlock: QUQFOY_clean_sbu_3, # of connection points: 4
#     Node 9, Type 0, BuildingBlock: QUQFOY_clean_sbu_3, # of connection points: 4
#     Node 10, Type 0, BuildingBlock: QUQFOY_clean_sbu_3, # of connection points: 4
#     Node 11, Type 0, BuildingBlock: QUQFOY_clean_sbu_3, # of connection points: 4
#     Node 12, Type 0, BuildingBlock: QUQFOY_clean_sbu_3, # of connection points: 4
#     Node 13, Type 0, BuildingBlock: QUQFOY_clean_sbu_3, # of connection points: 4
#     Node 14, Type 0, BuildingBlock: QUQFOY_clean_sbu_3, # of connection points: 4
#     Node 15, Type 0, BuildingBlock: QUQFOY_clean_sbu_3, # of connection points: 4
#     Node 16, Type 0, BuildingBlock: QUQFOY_clean_sbu_3, # of connection points: 4
#     Node 17, Type 0, BuildingBlock: QUQFOY_clean_sbu_3, # of connection points: 4
#     Node 18, Type 0, BuildingBlock: QUQFOY_clean_sbu_3, # of connection points: 4
#     Node 19, Type 0, BuildingBlock: QUQFOY_clean_sbu_3, # of connection points: 4
#     Node 20, Type 0, BuildingBlock: QUQFOY_clean_sbu_3, # of connection points: 4
#     Node 21, Type 0, BuildingBlock: QUQFOY_clean_sbu_3, # of connection points: 4
#     Node 22, Type 0, BuildingBlock: QUQFOY_clean_sbu_3, # of connection points: 4
#     Node 23, Type 0, BuildingBlock: QUQFOY_clean_sbu_3, # of connection points: 4
#     Node 24, Type 1, BuildingBlock: VOLQOD_clean_sbu_1, # of connection points: 6
#     Node 25, Type 1, BuildingBlock: VOLQOD_clean_sbu_1, # of connection points: 6
#     Node 26, Type 1, BuildingBlock: VOLQOD_clean_sbu_1, # of connection points: 6
#     Node 27, Type 1, BuildingBlock: VOLQOD_clean_sbu_1, # of connection points: 6
#     Node 28, Type 1, BuildingBlock: VOLQOD_clean_sbu_1, # of connection points: 6
#     Node 29, Type 1, BuildingBlock: VOLQOD_clean_sbu_1, # of connection points: 6
#     Node 30, Type 1, BuildingBlock: VOLQOD_clean_sbu_1, # of connection points: 6
#     Node 31, Type 1, BuildingBlock: VOLQOD_clean_sbu_1, # of connection points: 6
#     Node 32, Type 1, BuildingBlock: VOLQOD_clean_sbu_1, # of connection points: 6
#     Node 33, Type 1, BuildingBlock: VOLQOD_clean_sbu_1, # of connection points: 6
#     Node 34, Type 1, BuildingBlock: VOLQOD_clean_sbu_1, # of connection points: 6
#     Node 35, Type 1, BuildingBlock: VOLQOD_clean_sbu_1, # of connection points: 6
#     Node 36, Type 1, BuildingBlock: VOLQOD_clean_sbu_1, # of connection points: 6
#     Node 37, Type 1, BuildingBlock: VOLQOD_clean_sbu_1, # of connection points: 6
#     Node 38, Type 1, BuildingBlock: VOLQOD_clean_sbu_1, # of connection points: 6
#     Node 39, Type 1, BuildingBlock: VOLQOD_clean_sbu_1, # of connection points: 6
#     Edge 40, Type (0, 1), BuildingBlock: UVAHIK_clean_linker_0, # of connection points: 2
#     Edge 41, Type (0, 1), BuildingBlock: UVAHIK_clean_linker_0, # of connection points: 2
#     Edge 42, Type (0, 1), BuildingBlock: UVAHIK_clean_linker_0, # of connection points: 2
#     Edge 43, Type (0, 1), BuildingBlock: UVAHIK_clean_linker_0, # of connection points: 2
#     Edge 44, Type (0, 1), BuildingBlock: UVAHIK_clean_linker_0, # of connection points: 2
#     Edge 45, Type (0, 1), BuildingBlock: UVAHIK_clean_linker_0, # of connection points: 2
#     Edge 46, Type (0, 1), BuildingBlock: UVAHIK_clean_linker_0, # of connection points: 2
#     Edge 47, Type (0, 1), BuildingBlock: UVAHIK_clean_linker_0, # of connection points: 2
#     Edge 48, Type (0, 1), BuildingBlock: UVAHIK_clean_linker_0, # of connection points: 2
#     Edge 49, Type (0, 1), BuildingBlock: UVAHIK_clean_linker_0, # of connection points: 2
#     Edge 50, Type (0, 1), BuildingBlock: UVAHIK_clean_linker_0, # of connection points: 2
#     Edge 51, Type (0, 1), BuildingBlock: UVAHIK_clean_linker_0, # of connection points: 2
#     Edge 52, Type (0, 1), BuildingBlock: UVAHIK_clean_linker_0, # of connection points: 2
#     Edge 53, Type (0, 1), BuildingBlock: UVAHIK_clean_linker_0, # of connection points: 2
#     Edge 54, Type (0, 1), BuildingBlock: UVAHIK_clean_linker_0, # of connection points: 2
#     Edge 55, Type (0, 1), BuildingBlock: UVAHIK_clean_linker_0, # of connection points: 2
#     Edge 56, Type (0, 1), BuildingBlock: UVAHIK_clean_linker_0, # of connection points: 2
#     Edge 57, Type (0, 1), BuildingBlock: UVAHIK_clean_linker_0, # of connection points: 2
#     Edge 58, Type (0, 1), BuildingBlock: UVAHIK_clean_linker_0, # of connection points: 2
#     Edge 59, Type (0, 1), BuildingBlock: UVAHIK_clean_linker_0, # of connection points: 2
#     Edge 60, Type (0, 1), BuildingBlock: UVAHIK_clean_linker_0, # of connection points: 2
#     Edge 61, Type (0, 1), BuildingBlock: UVAHIK_clean_linker_0, # of connection points: 2
#     Edge 62, Type (0, 1), BuildingBlock: UVAHIK_clean_linker_0, # of connection points: 2
#     Edge 63, Type (0, 1), BuildingBlock: UVAHIK_clean_linker_0, # of connection points: 2
#     Edge 64, Type (0, 1), BuildingBlock: UVAHIK_clean_linker_0, # of connection points: 2
#     Edge 65, Type (0, 1), BuildingBlock: UVAHIK_clean_linker_0, # of connection points: 2
#     Edge 66, Type (0, 1), BuildingBlock: UVAHIK_clean_linker_0, # of connection points: 2
#     Edge 67, Type (0, 1), BuildingBlock: UVAHIK_clean_linker_0, # of connection points: 2
#     Edge 68, Type (0, 1), BuildingBlock: UVAHIK_clean_linker_0, # of connection points: 2
#     Edge 69, Type (0, 1), BuildingBlock: UVAHIK_clean_linker_0, # of connection points: 2
#     Edge 70, Type (0, 1), BuildingBlock: UVAHIK_clean_linker_0, # of connection points: 2
#     Edge 71, Type (0, 1), BuildingBlock: UVAHIK_clean_linker_0, # of connection points: 2
#     Edge 72, Type (0, 1), BuildingBlock: UVAHIK_clean_linker_0, # of connection points: 2
#     Edge 73, Type (0, 1), BuildingBlock: UVAHIK_clean_linker_0, # of connection points: 2
#     Edge 74, Type (0, 1), BuildingBlock: UVAHIK_clean_linker_0, # of connection points: 2
#     Edge 75, Type (0, 1), BuildingBlock: UVAHIK_clean_linker_0, # of connection points: 2
#     Edge 76, Type (0, 1), BuildingBlock: UVAHIK_clean_linker_0, # of connection points: 2
#     Edge 77, Type (0, 1), BuildingBlock: UVAHIK_clean_linker_0, # of connection points: 2
#     Edge 78, Type (0, 1), BuildingBlock: UVAHIK_clean_linker_0, # of connection points: 2
#     Edge 79, Type (0, 1), BuildingBlock: UVAHIK_clean_linker_0, # of connection points: 2
#     Edge 80, Type (0, 1), BuildingBlock: UVAHIK_clean_linker_0, # of connection points: 2
#     Edge 81, Type (0, 1), BuildingBlock: UVAHIK_clean_linker_0, # of connection points: 2
#     Edge 82, Type (0, 1), BuildingBlock: UVAHIK_clean_linker_0, # of connection points: 2
#     Edge 83, Type (0, 1), BuildingBlock: UVAHIK_clean_linker_0, # of connection points: 2
#     Edge 84, Type (0, 1), BuildingBlock: UVAHIK_clean_linker_0, # of connection points: 2
#     Edge 85, Type (0, 1), BuildingBlock: UVAHIK_clean_linker_0, # of connection points: 2
#     Edge 86, Type (0, 1), BuildingBlock: UVAHIK_clean_linker_0, # of connection points: 2
#     Edge 87, Type (0, 1), BuildingBlock: UVAHIK_clean_linker_0, # of connection points: 2
#     Edge 88, Type (0, 1), BuildingBlock: UVAHIK_clean_linker_0, # of connection points: 2
#     Edge 89, Type (0, 1), BuildingBlock: UVAHIK_clean_linker_0, # of connection points: 2
#     Edge 90, Type (0, 1), BuildingBlock: UVAHIK_clean_linker_0, # of connection points: 2
#     Edge 91, Type (0, 1), BuildingBlock: UVAHIK_clean_linker_0, # of connection points: 2
#     Edge 92, Type (0, 1), BuildingBlock: UVAHIK_clean_linker_0, # of connection points: 2
#     Edge 93, Type (0, 1), BuildingBlock: UVAHIK_clean_linker_0, # of connection points: 2
#     Edge 94, Type (0, 1), BuildingBlock: UVAHIK_clean_linker_0, # of connection points: 2
#     Edge 95, Type (0, 1), BuildingBlock: UVAHIK_clean_linker_0, # of connection points: 2
#     Edge 96, Type (0, 1), BuildingBlock: UVAHIK_clean_linker_0, # of connection points: 2
#     Edge 97, Type (0, 1), BuildingBlock: UVAHIK_clean_linker_0, # of connection points: 2
#     Edge 98, Type (0, 1), BuildingBlock: UVAHIK_clean_linker_0, # of connection points: 2
#     Edge 99, Type (0, 1), BuildingBlock: UVAHIK_clean_linker_0, # of connection points: 2
#     Edge 100, Type (0, 1), BuildingBlock: UVAHIK_clean_linker_0, # of connection points: 2
#     Edge 101, Type (0, 1), BuildingBlock: UVAHIK_clean_linker_0, # of connection points: 2
#     Edge 102, Type (0, 1), BuildingBlock: UVAHIK_clean_linker_0, # of connection points: 2
#     Edge 103, Type (0, 1), BuildingBlock: UVAHIK_clean_linker_0, # of connection points: 2
#     Edge 104, Type (0, 1), BuildingBlock: UVAHIK_clean_linker_0, # of connection points: 2
#     Edge 105, Type (0, 1), BuildingBlock: UVAHIK_clean_linker_0, # of connection points: 2
#     Edge 106, Type (0, 1), BuildingBlock: UVAHIK_clean_linker_0, # of connection points: 2
#     Edge 107, Type (0, 1), BuildingBlock: UVAHIK_clean_linker_0, # of connection points: 2
#     Edge 108, Type (0, 1), BuildingBlock: UVAHIK_clean_linker_0, # of connection points: 2
#     Edge 109, Type (0, 1), BuildingBlock: UVAHIK_clean_linker_0, # of connection points: 2
#     Edge 110, Type (0, 1), BuildingBlock: UVAHIK_clean_linker_0, # of connection points: 2
#     Edge 111, Type (0, 1), BuildingBlock: UVAHIK_clean_linker_0, # of connection points: 2
#     Edge 112, Type (0, 1), BuildingBlock: UVAHIK_clean_linker_0, # of connection points: 2
#     Edge 113, Type (0, 1), BuildingBlock: UVAHIK_clean_linker_0, # of connection points: 2
#     Edge 114, Type (0, 1), BuildingBlock: UVAHIK_clean_linker_0, # of connection points: 2
#     Edge 115, Type (0, 1), BuildingBlock: UVAHIK_clean_linker_0, # of connection points: 2
#     Edge 116, Type (0, 1), BuildingBlock: UVAHIK_clean_linker_0, # of connection points: 2
#     Edge 117, Type (0, 1), BuildingBlock: UVAHIK_clean_linker_0, # of connection points: 2
#     Edge 118, Type (0, 1), BuildingBlock: UVAHIK_clean_linker_0, # of connection points: 2
#     Edge 119, Type (0, 1), BuildingBlock: UVAHIK_clean_linker_0, # of connection points: 2
#     Edge 120, Type (0, 1), BuildingBlock: UVAHIK_clean_linker_0, # of connection points: 2
#     Edge 121, Type (0, 1), BuildingBlock: UVAHIK_clean_linker_0, # of connection points: 2
#     Edge 122, Type (0, 1), BuildingBlock: UVAHIK_clean_linker_0, # of connection points: 2
#     Edge 123, Type (0, 1), BuildingBlock: UVAHIK_clean_linker_0, # of connection points: 2
#     Edge 124, Type (0, 1), BuildingBlock: UVAHIK_clean_linker_0, # of connection points: 2
#     Edge 125, Type (0, 1), BuildingBlock: UVAHIK_clean_linker_0, # of connection points: 2
#     Edge 126, Type (0, 1), BuildingBlock: UVAHIK_clean_linker_0, # of connection points: 2
#     Edge 127, Type (0, 1), BuildingBlock: UVAHIK_clean_linker_0, # of connection points: 2
#     Edge 128, Type (0, 1), BuildingBlock: UVAHIK_clean_linker_0, # of connection points: 2
#     Edge 129, Type (0, 1), BuildingBlock: UVAHIK_clean_linker_0, # of connection points: 2
#     Edge 130, Type (0, 1), BuildingBlock: UVAHIK_clean_linker_0, # of connection points: 2
#     Edge 131, Type (0, 1), BuildingBlock: UVAHIK_clean_linker_0, # of connection points: 2
#     Edge 132, Type (0, 1), BuildingBlock: UVAHIK_clean_linker_0, # of connection points: 2
#     Edge 133, Type (0, 1), BuildingBlock: UVAHIK_clean_linker_0, # of connection points: 2
#     Edge 134, Type (0, 1), BuildingBlock: UVAHIK_clean_linker_0, # of connection points: 2
#     Edge 135, Type (0, 1), BuildingBlock: UVAHIK_clean_linker_0, # of connection points: 2
# Relax obj value: 0.302
# Max RMSD: 0.293
# Mean RMSD: 0.139
data_MOF--net-iac--node1-QUQFOY_clean_sbu_3--node2-VOLQOD_clean_sbu_1--edge1-UVAHIK_clean_linker_0
_symmetry_space_group_name_H-M    P1
_symmetry_Int_Tables_number       1
_symmetry_cell_setting            triclinic
loop_
_symmetry_equiv_pos_as_xyz
'x, y, z'
_cell_length_a     69.882176
_cell_length_b     71.125235
_cell_length_c     70.287625
_cell_angle_alpha  91.02908
_cell_angle_beta   90.033817
_cell_angle_gamma 90.942302
loop_
_atom_site_label
_atom_site_type_symbol
_atom_site_fract_x
_atom_site_fract_y
_atom_site_fract_z
_atom_type_partial_charge
C0 C 0.97502 0.23495 0.17687 0.0
O1 O 0.98962 0.23059 0.18647 0.0
Cd2 Cd 0.02103 0.23694 0.17493 0.0
O3 O 0.97681 0.24438 0.16172 0.0
Cd4 Cd 0.00275 0.25853 0.14266 0.0
C5 C 0.01331 0.21378 0.13251 0.0
O6 O 0.02384 0.26987 0.16767 0.0
O7 O 0.03689 0.26551 0.14006 0.0
O8 O 0.98542 0.2876 0.13982 0.0
C9 C 0.03765 0.27318 0.15648 0.0
O10 O 0.02153 0.21391 0.14868 0.0
C11 C 0.98848 0.28937 0.12213 0.0
O12 O 0.0049 0.22832 0.1267 0.0
O13 O -0.00331 0.27582 0.11361 0.0
C14 C 0.00166 0.75174 0.362 0.0
O15 O 0.0148 0.75344 0.34964 0.0
Cd16 Cd 0.04618 0.74236 0.35405 0.0
O17 O 0.00494 0.74411 0.37796 0.0
Cd18 Cd 0.03249 0.73003 0.39483 0.0
C19 C 0.05744 0.77126 0.39166 0.0
O20 O 0.03882 0.71189 0.36697 0.0
O21 O 0.06054 0.70935 0.38829 0.0
O22 O 0.00756 0.7122 0.41082 0.0
C23 C 0.05342 0.70348 0.37264 0.0
O24 O 0.06001 0.76754 0.37409 0.0
C25 C 0.01614 0.71167 0.42671 0.0
O26 O 0.04776 0.76011 0.40197 0.0
O27 O 0.0322 0.7202 0.42795 0.0
C28 C 0.47426 0.74141 0.65874 0.0
O29 O 0.48573 0.73571 0.67132 0.0
Cd30 Cd 0.51956 0.73817 0.66748 0.0
O31 O 0.48052 0.75046 0.6445 0.0
Cd32 Cd 0.51187 0.76199 0.63299 0.0
C33 C 0.52034 0.71659 0.62372 0.0
O34 O 0.52803 0.77051 0.66249 0.0
O35 O 0.54629 0.76518 0.63821 0.0
O36 O 0.4991 0.79296 0.62863 0.0
C37 C 0.54431 0.77233 0.65475 0.0
O38 O 0.52493 0.71583 0.64122 0.0
C39 C 0.50601 0.7952 0.61211 0.0
O40 O 0.51427 0.73177 0.61677 0.0
O41 O 0.51423 0.78116 0.60445 0.0
C42 C 0.49294 0.25739 0.85555 0.0
O43 O 0.50753 0.2594 0.84498 0.0
Cd44 Cd 0.53767 0.24544 0.85077 0.0
O45 O 0.49387 0.24804 0.87085 0.0
Cd46 Cd 0.51916 0.23123 0.88837 0.0
C47 C 0.54882 0.26973 0.89106 0.0
O48 O 0.52809 0.21416 0.86022 0.0
O49 O 0.54685 0.21003 0.884 0.0
O50 O 0.4948 0.21081 0.90238 0.0
C51 C 0.54145 0.20493 0.86745 0.0
O52 O 0.55342 0.26695 0.87374 0.0
C53 C 0.50139 0.21242 0.91919 0.0
O54 O 0.53629 0.25929 0.89886 0.0
O55 O 0.51578 0.22329 0.92164 0.0
C56 C 0.10402 0.04843 0.28631 0.0
O57 O 0.09341 0.05697 0.27477 0.0
Cd58 Cd 0.09491 0.05249 0.24113 0.0
O59 O 0.1166 0.03704 0.28019 0.0
Cd60 Cd 0.12786 0.02658 0.24819 0.0
C61 C 0.13963 0.07025 0.23442 0.0
O62 O 0.09638 0.01929 0.23479 0.0
O63 O 0.11944 0.02114 0.21452 0.0
O64 O 0.13307 -0.00403 0.26185 0.0
C65 C 0.10244 0.01588 0.21815 0.0
O66 O 0.12191 0.07159 0.23065 0.0
C67 C 0.14895 -0.00692 0.25366 0.0
O68 O 0.14592 0.05573 0.24254 0.0
O69 O 0.15586 0.00647 0.24397 0.0
C70 C 0.28186 0.92087 0.48771 0.0
O71 O 0.26914 0.93096 0.48024 0.0
Cd72 Cd 0.23538 0.92419 0.481 0.0
O73 O 0.27734 0.90557 0.49584 0.0
Cd74 Cd 0.24765 0.88778 0.50209 0.0
C75 C 0.23181 0.88297 0.45646 0.0
O76 O 0.2304 0.91534 0.51341 0.0
O77 O 0.21456 0.88903 0.51298 0.0
O78 O 0.26044 0.87581 0.53164 0.0
C79 C 0.2154 0.90624 0.51785 0.0
O80 O 0.22691 0.90011 0.4571 0.0
C81 C 0.25682 0.85867 0.52748 0.0
O82 O 0.24067 0.87584 0.4703 0.0
O83 O 0.25017 0.85508 0.51099 0.0
C84 C 0.37731 0.9769 0.7972 0.0
O85 O 0.38971 0.96725 0.78837 0.0
Cd86 Cd 0.39383 0.96769 0.75465 0.0
O87 O 0.36546 0.98676 0.78812 0.0
Cd88 Cd 0.35835 -0.00768 0.75432 0.0
C89 C 0.35199 0.94667 0.74195 0.0
O90 O 0.39148 0.0002 0.74662 0.0
O91 O 0.37211 -0.00199 0.7228 0.0
O92 O 0.34685 0.022 0.76689 0.0
C93 C 0.3884 0.00303 0.72919 0.0
O94 O 0.37013 0.94598 0.74092 0.0
C95 C 0.33278 0.02305 0.75558 0.0
O96 O 0.34384 0.96142 0.74812 0.0
O97 O 0.33003 0.00929 0.74409 0.0
C98 C 0.24441 0.07647 0.03637 0.0
O99 O 0.22795 0.07902 0.04348 0.0
Cd100 Cd 0.20308 0.09613 0.0287 0.0
O101 O 0.2493 0.08415 0.02079 0.0
Cd102 Cd 0.23384 0.10689 -0.00038 0.0
C103 C 0.22354 0.13877 0.03434 0.0
O104 O 0.20519 0.08858 -0.00482 0.0
O105 O 0.20262 0.11747 0.98713 0.0
O106 O 0.24975 0.09983 0.9691 0.0
C107 C 0.19589 0.10082 0.98647 0.0
O108 O 0.2086 0.12915 0.03828 0.0
C109 C 0.25684 0.11632 0.96767 0.0
O110 O 0.23544 0.13272 0.02216 0.0
O111 O 0.25418 0.12758 0.98155 0.0
C112 C 0.78654 0.40323 0.98292 0.0
O113 O 0.77564 0.41508 0.97523 0.0
Cd114 Cd 0.74243 0.41986 0.98142 0.0
O115 O 0.77983 0.39083 -0.00586 0.0
Cd116 Cd 0.74725 0.38177 0.00517 0.0
C117 C 0.72424 0.38048 0.96145 0.0
O118 O 0.74212 0.41392 0.01501 0.0
O119 O 0.71991 0.39464 0.02348 0.0
O120 O 0.75996 0.36256 0.03103 0.0
C121 C 0.72662 0.41129 0.02381 0.0
O122 O 0.72498 0.39827 0.96013 0.0
C123 C 0.74968 0.34824 0.02644 0.0
O124 O 0.73179 0.37245 0.97551 0.0
O125 O 0.73892 0.3497 0.01204 0.0
C126 C 0.85688 0.46543 0.27951 0.0
O127 O 0.86923 0.4607 0.26714 0.0
Cd128 Cd 0.8699 0.47281 0.23559 0.0
O129 O 0.84323 0.47621 0.27519 0.0
Cd130 Cd 0.83183 0.49198 0.24646 0.0
C131 C 0.82893 0.45316 0.21832 0.0
O132 O 0.86316 0.50561 0.24009 0.0
O133 O 0.84197 0.5097 0.2184 0.0
O134 O 0.81787 0.51447 0.26862 0.0
C135 C 0.85842 0.51373 0.225 0.0
O136 O 0.84699 0.45446 0.21639 0.0
C137 C 0.8027 0.51663 0.25903 0.0
O138 O 0.82019 0.46407 0.22976 0.0
O139 O 0.80069 0.50656 0.24406 0.0
C140 C 0.75064 0.61738 0.5662 0.0
O141 O 0.7373 0.61683 0.57844 0.0
Cd142 Cd 0.70638 0.62972 0.57209 0.0
O143 O 0.7481 0.62524 0.55026 0.0
Cd144 Cd 0.72267 0.64208 0.53379 0.0
C145 C 0.71498 0.67626 0.56706 0.0
O146 O 0.69861 0.61823 0.54037 0.0
O147 O 0.6886 0.64271 0.52577 0.0
O148 O 0.72919 0.63283 0.50069 0.0
C149 C 0.68554 0.62592 0.5309 0.0
O150 O 0.70756 0.66384 0.5777 0.0
C151 C 0.73632 0.64869 0.49634 0.0
O152 O 0.72187 0.67162 0.55101 0.0
O153 O 0.7378 0.66103 0.5095 0.0
C154 C 0.61235 0.54596 0.77625 0.0
O155 O 0.60272 0.55295 0.76287 0.0
Cd156 Cd 0.60822 0.54536 0.72994 0.0
O157 O 0.62568 0.53445 0.77257 0.0
Cd158 Cd 0.64027 0.52005 0.74395 0.0
C159 C 0.65417 0.56123 0.72548 0.0
O160 O 0.61049 0.51187 0.72719 0.0
O161 O 0.63665 0.50908 0.71113 0.0
O162 O 0.64288 0.49159 0.76218 0.0
C163 C 0.61885 0.5057 0.71241 0.0
O164 O 0.63683 0.5625 0.72017 0.0
C165 C 0.65957 0.48764 0.75645 0.0
O166 O 0.65935 0.54783 0.73596 0.0
O167 O 0.66803 0.49975 0.74622 0.0
C168 C 0.98783 0.74377 0.84545 0.0
O169 O 0.00249 0.74998 0.83678 0.0
Cd170 Cd 0.03205 0.75634 0.85292 0.0
O171 O 0.98848 0.74051 0.86321 0.0
Cd172 Cd 0.01071 0.741 0.89049 0.0
C173 C 0.01839 0.78796 0.88763 0.0
O174 O 0.03658 0.72913 0.87217 0.0
O175 O 0.04479 0.73926 0.90008 0.0
O176 O -0.00468 0.71238 0.90139 0.0
C177 C 0.04958 0.73137 0.88453 0.0
O178 O 0.0273 0.78522 0.87205 0.0
C179 C -0.00895 0.71885 0.91777 0.0
O180 O 0.01056 0.7744 0.89643 0.0
O181 O -0.0037 0.73566 0.92165 0.0
C182 C 0.95205 0.2456 0.68433 0.0
O183 O 0.96195 0.23528 0.69498 0.0
Cd184 Cd -0.00697 0.22463 0.68547 0.0
O185 O 0.95823 0.25034 0.66804 0.0
Cd186 Cd 0.9856 0.24755 0.64642 0.0
C187 C 0.98276 0.19978 0.64421 0.0
O188 O 0.00723 0.25254 0.67251 0.0
O189 O 0.02097 0.24849 0.64537 0.0
O190 O 0.97467 0.27825 0.63763 0.0
C191 C 0.02261 0.25155 0.66313 0.0
O192 O 0.98835 0.19954 0.66145 0.0
C193 C 0.97571 0.27541 0.61979 0.0
O194 O 0.97981 0.21527 0.636 0.0
O195 O 0.98205 0.25963 0.61416 0.0
C196 C 0.4784 0.23896 0.33493 0.0
O197 O 0.4934 0.24375 0.32587 0.0
Cd198 Cd 0.5247 0.24527 0.33929 0.0
O199 O 0.47918 0.23437 0.35237 0.0
Cd200 Cd 0.50221 0.2299 0.37849 0.0
C201 C 0.51647 0.27597 0.37667 0.0
O202 O 0.52366 0.21673 0.35661 0.0
O203 O 0.5356 0.21914 0.38457 0.0
O204 O 0.47862 0.20703 0.38922 0.0
C205 C 0.53799 0.21469 0.3672 0.0
O206 O 0.52469 0.27325 0.36069 0.0
C207 C 0.48034 0.2115 0.40673 0.0
O208 O 0.50726 0.26278 0.38474 0.0
O209 O 0.49265 0.22419 0.41109 0.0
C210 C 0.45712 0.73748 0.18785 0.0
O211 O 0.46757 0.72684 0.19761 0.0
Cd212 Cd 0.49933 0.72014 0.1861 0.0
O213 O 0.46346 0.74454 0.17257 0.0
Cd214 Cd 0.49063 0.74782 0.15118 0.0
C215 C 0.49095 0.70106 0.14144 0.0
O216 O 0.51233 0.75066 0.17776 0.0
O217 O 0.5253 0.75313 0.15 0.0
O218 O 0.47565 0.77784 0.1488 0.0
C219 C 0.52734 0.75311 0.16793 0.0
O220 O 0.49548 0.69848 0.15874 0.0
C221 C 0.47666 0.77881 0.13083 0.0
O222 O 0.48802 0.71749 0.13535 0.0
O223 O 0.485 0.76549 0.12206 0.0
C224 C 0.95124 0.04204 0.78112 0.0
O225 O 0.96125 0.02903 0.77372 0.0
Cd226 Cd 0.95365 0.012 0.74434 0.0
O227 O 0.93585 0.0472 0.77324 0.0
Cd228 Cd 0.91487 0.04144 0.74613 0.0
C229 C 0.90953 -0.00551 0.75722 0.0
O230 O 0.94014 0.03506 0.72444 0.0
O231 O 0.9122 0.03612 0.7118 0.0
O232 O 0.90446 0.07393 0.74907 0.0
C233 C 0.92963 0.03179 0.71002 0.0
O234 O 0.92695 0.99118 0.75314 0.0
C235 C 0.88681 0.06931 0.75015 0.0
O236 O 0.90286 0.01101 0.7563 0.0
O237 O 0.88252 0.05191 0.74882 0.0
C238 C 0.78887 0.09299 0.47289 0.0
O239 O 0.77383 0.0861 0.48037 0.0
Cd240 Cd 0.74737 0.10379 0.49148 0.0
O241 O 0.79092 0.11068 0.47066 0.0
Cd242 Cd 0.77267 0.14032 0.47504 0.0
C243 C 0.76873 0.13665 0.5226 0.0
O244 O 0.74354 0.12455 0.46595 0.0
O245 O 0.73963 0.15298 0.47529 0.0
O246 O 0.79089 0.14839 0.44696 0.0
C247 C 0.73201 0.13756 0.46976 0.0
O248 O 0.7573 0.12276 0.51942 0.0
C249 C 0.79195 0.1659 0.45061 0.0
O250 O 0.77753 0.14467 0.50902 0.0
O251 O 0.78406 0.17172 0.46582 0.0
C252 C 0.57236 0.96628 0.28946 0.0
O253 O 0.56225 0.97075 0.27525 0.0
Cd254 Cd 0.57487 0.97366 0.24337 0.0
O255 O 0.59024 0.96363 0.28769 0.0
Cd256 Cd 0.61615 0.96413 0.26445 0.0
C257 C 0.60738 0.00929 0.25196 0.0
O258 O 0.59747 0.94893 0.24021 0.0
O259 O 0.62542 0.95785 0.23105 0.0
O260 O 0.63189 0.94001 0.2823 0.0
C261 C 0.60934 0.95045 0.22671 0.0
O262 O 0.59258 0.0038 0.24268 0.0
C263 C 0.64757 0.94916 0.28429 0.0
O264 O 0.61696 -0.00204 0.26188 0.0
O265 O 0.64867 0.96523 0.27675 0.0
C266 C 0.72755 0.89887 0.01764 0.0
O267 O 0.7144 0.9074 0.00897 0.0
Cd268 Cd 0.68273 0.89474 0.00464 0.0
O269 O 0.72442 0.88271 0.02467 0.0
Cd270 Cd 0.69908 0.85853 0.02895 0.0
C271 C 0.69414 0.85337 0.98115 0.0
O272 O 0.6763 0.88193 0.03499 0.0
O273 O 0.6636 0.85433 0.0327 0.0
O274 O 0.7146 0.85389 0.05911 0.0
C275 C 0.66128 0.87187 0.03519 0.0
O276 O 0.68589 0.86922 0.98088 0.0
C277 C 0.71632 0.83622 0.05714 0.0
O278 O 0.7012 0.84707 -0.00358 0.0
O279 O 0.70901 0.82857 0.04229 0.0
C280 C 0.30243 0.57435 -0.00426 0.0
O281 O 0.29137 0.56758 0.00834 0.0
Cd282 Cd 0.26066 0.57969 0.01672 0.0
O283 O 0.29822 0.58938 0.98716 0.0
Cd284 Cd 0.27312 0.61335 0.98541 0.0
C285 C 0.27153 0.62518 0.03246 0.0
O286 O 0.24948 0.58888 0.98658 0.0
O287 O 0.23777 0.61622 0.98305 0.0
O288 O 0.2859 0.61552 0.9535 0.0
C289 C 0.23475 0.59886 0.98575 0.0
O290 O 0.26479 0.60871 0.03538 0.0
C291 C 0.2847 0.63325 0.95251 0.0
O292 O 0.27724 0.62993 0.01598 0.0
O293 O 0.27785 0.64189 0.96687 0.0
C294 C 0.06088 0.48586 0.79166 0.0
O295 O 0.05095 0.49207 0.77804 0.0
Cd296 Cd 0.05817 0.48611 0.74481 0.0
O297 O 0.07612 0.47677 0.7885 0.0
Cd298 Cd 0.0969 0.46591 0.76284 0.0
C299 C 0.10124 0.50933 0.74234 0.0
O300 O 0.07078 0.45499 0.74366 0.0
O301 O 0.09839 0.45201 0.73055 0.0
O302 O 0.10799 0.43914 0.78083 0.0
C303 C 0.08034 0.45027 0.7291 0.0
O304 O 0.08388 0.50843 0.7368 0.0
C305 C 0.12519 0.44517 0.78198 0.0
O306 O 0.10826 0.4965 0.75251 0.0
O307 O 0.12916 0.46057 0.77389 0.0
C308 C 0.25277 0.41572 0.51423 0.0
O309 O 0.24343 0.42699 0.50407 0.0
Cd310 Cd 0.21411 0.41763 0.48857 0.0
O311 O 0.24695 0.39884 0.51638 0.0
Cd312 Cd 0.22154 0.37545 0.50894 0.0
C313 C 0.22945 0.37945 0.46137 0.0
O314 O 0.19886 0.39949 0.51254 0.0
O315 O 0.18615 0.37236 0.50625 0.0
O316 O 0.23165 0.36687 0.54017 0.0
C317 C 0.1839 0.38988 0.50893 0.0
O318 O 0.22382 0.39639 0.46264 0.0
C319 C 0.23168 0.34925 0.5371 0.0
O320 O 0.23047 0.36916 0.47598 0.0
O321 O 0.22602 0.34337 0.52082 0.0
C322 C 0.43222 0.5275 0.27632 0.0
O323 O 0.44546 0.51851 0.26792 0.0
Cd324 Cd 0.45041 0.51545 0.23408 0.0
O325 O 0.41987 0.5365 0.26695 0.0
Cd326 Cd 0.41086 0.54413 0.23426 0.0
C327 C 0.40615 0.49731 0.22118 0.0
O328 O 0.44291 0.54569 0.22315 0.0
O329 O 0.42199 0.55238 0.20219 0.0
O330 O 0.3985 0.57418 0.24562 0.0
C331 C 0.43914 0.54806 0.20576 0.0
O332 O 0.42413 0.495 0.22287 0.0
C333 C 0.38168 0.57084 0.23933 0.0
O334 O 0.39851 0.51305 0.22514 0.0
O335 O 0.37886 0.55543 0.23026 0.0
O336 O 0.96119 0.04273 0.03154 0.0
Zn337 Zn 0.97004 0.02479 0.01186 0.0
O338 O 0.96523 -0.00098 0.01894 0.0
Zn339 Zn 0.98949 0.98585 0.02152 0.0
Zn340 Zn 0.95121 -0.00113 0.04317 0.0
Zn341 Zn 0.95029 0.98728 -0.0015 0.0
O342 O -0.0094 0.96322 0.00397 0.0
O343 O 0.96414 0.96558 0.98669 0.0
O344 O -0.0023 0.02948 0.00771 0.0
O345 O 0.01189 0.00277 0.01466 0.0
O346 O -0.00678 0.97744 0.04833 0.0
O347 O 0.9664 0.98558 0.06308 0.0
O348 O 0.92527 0.98602 0.03968 0.0
O349 O 0.95793 0.03156 0.98758 0.0
O350 O 0.92559 0.97781 0.00897 0.0
O351 O 0.94465 0.00493 0.97711 0.0
C352 C 0.9528 0.04127 0.04746 0.0
C353 C 0.97974 0.95745 0.99047 0.0
C354 C 0.98287 0.97817 0.06321 0.0
C355 C 0.01266 0.01974 0.00919 0.0
C356 C 0.91735 0.97822 0.02512 0.0
C357 C 0.94866 0.02227 0.97498 0.0
O358 O 0.94799 0.02532 0.05409 0.0
O359 O 0.21525 0.72931 0.2002 0.0
Zn360 Zn 0.21118 0.72951 0.22821 0.0
O361 O 0.2164 0.75426 0.23905 0.0
Zn362 Zn 0.23452 0.75178 0.25999 0.0
Zn363 Zn 0.22711 0.7706 0.21948 0.0
Zn364 Zn 0.19264 0.76468 0.2486 0.0
O365 O 0.22445 0.76277 0.28435 0.0
O366 O 0.19527 0.77166 0.27637 0.0
O367 O 0.22826 0.71021 0.23926 0.0
O368 O 0.24191 0.72496 0.26391 0.0
O369 O 0.25928 0.76471 0.25383 0.0
O370 O 0.25481 0.77642 0.22515 0.0
O371 O 0.21295 0.79512 0.21893 0.0
O372 O 0.18451 0.72092 0.23345 0.0
O373 O 0.18698 0.78914 0.23615 0.0
O374 O 0.17064 0.74602 0.24614 0.0
C375 C 0.22138 0.74119 0.18824 0.0
C376 C 0.20855 0.77022 0.28863 0.0
C377 C 0.26553 0.77341 0.23939 0.0
C378 C 0.23906 0.71015 0.25382 0.0
C379 C 0.1969 0.80012 0.2258 0.0
C380 C 0.16989 0.72893 0.24035 0.0
O381 O 0.22641 0.75782 0.19341 0.0
O382 O 0.5233 0.97999 0.53353 0.0
Zn383 Zn 0.50788 -0.001 0.52046 0.0
O384 O 0.51324 0.02393 0.53104 0.0
Zn385 Zn 0.48991 0.03453 0.54178 0.0
Zn386 Zn 0.53348 0.02273 0.55056 0.0
Zn387 Zn 0.52133 0.03968 0.51039 0.0
O388 O 0.48119 0.0575 0.52831 0.0
O389 O 0.50225 0.05938 0.50487 0.0
O390 O 0.48042 0.99177 0.5239 0.0
O391 O 0.46789 0.01606 0.53946 0.0
O392 O 0.49396 0.04154 0.56906 0.0
O393 O 0.52345 0.03233 0.57585 0.0
O394 O 0.55647 0.03928 0.54336 0.0
O395 O 0.51375 -0.00322 0.49265 0.0
O396 O 0.54583 0.05246 0.517 0.0
O397 O 0.5251 0.02516 0.48608 0.0
C398 C 0.5357 0.98028 0.54676 0.0
C399 C 0.48731 0.06518 0.51326 0.0
C400 C 0.50769 0.03974 0.58075 0.0
C401 C 0.46626 -0.00021 0.53174 0.0
C402 C 0.55851 0.05091 0.52983 0.0
C403 C 0.52093 0.00836 0.48098 0.0
O404 O 0.54118 -0.00439 0.55491 0.0
O405 O 0.26164 0.24847 0.80869 0.0
Zn406 Zn 0.26685 0.26763 0.78847 0.0
O407 O 0.25849 0.25818 0.76371 0.0
Zn408 Zn 0.28021 0.2511 0.74775 0.0
Zn409 Zn 0.24147 0.23663 0.76686 0.0
Zn410 Zn 0.24489 0.27802 0.75184 0.0
O411 O 0.27792 0.26202 0.72141 0.0
O412 O 0.25375 0.28157 0.72526 0.0
O413 O 0.29508 0.27214 0.78769 0.0
O414 O 0.30501 0.26004 0.76006 0.0
O415 O 0.28056 0.22293 0.74404 0.0
O416 O 0.25099 0.21438 0.75213 0.0
O417 O 0.21439 0.24187 0.75895 0.0
O418 O 0.25507 0.29259 0.79551 0.0
O419 O 0.21713 0.27141 0.74962 0.0
O420 O 0.24677 0.30208 0.76679 0.0
C421 C 0.25138 0.23349 0.80861 0.0
C422 C 0.26648 0.27406 0.71481 0.0
C423 C 0.26732 0.21045 0.74527 0.0
C424 C 0.3084 0.26842 0.77593 0.0
C425 C 0.20702 0.25671 0.75249 0.0
C426 C 0.24936 0.30536 0.78448 0.0
O427 O 0.24221 0.22803 0.79381 0.0
O428 O 0.00854 0.00082 0.45962 0.0
Zn429 Zn -0.00692 0.98263 0.47495 0.0
O430 O -0.00227 0.98728 0.5021 0.0
Zn431 Zn 0.0061 0.96429 0.51386 0.0
Zn432 Zn 0.01735 0.00714 0.50557 0.0
Zn433 Zn 0.97419 -0.00528 0.51441 0.0
O434 O 0.98806 0.95449 0.53361 0.0
O435 O 0.96674 0.97717 0.53513 0.0
O436 O 0.00214 0.9568 0.46697 0.0
O437 O 0.01109 0.94431 0.49425 0.0
O438 O 0.03052 0.96907 0.52776 0.0
O439 O 0.03976 -0.00186 0.52082 0.0
O440 O 0.00666 0.02912 0.52012 0.0
O441 O 0.96516 0.98584 0.46792 0.0
O442 O 0.97663 0.02062 0.52628 0.0
O443 O 0.95284 -0.0055 0.4958 0.0
C444 C 0.0217 0.01292 0.46333 0.0
C445 C 0.97321 0.96169 0.54096 0.0
C446 C 0.04241 0.98272 0.52927 0.0
C447 C 0.0091 0.94328 0.47626 0.0
C448 C 0.99042 0.03251 0.5275 0.0
C449 C 0.95096 0.99071 0.47814 0.0
O450 O 0.02707 0.01646 0.48036 0.0
O451 O 0.28519 0.71173 0.71523 0.0
Zn452 Zn 0.26626 0.72328 0.73285 0.0
O453 O 0.24056 0.71704 0.72368 0.0
Zn454 Zn 0.22561 0.73998 0.72232 0.0
Zn455 Zn 0.24106 0.70418 0.69874 0.0
Zn456 Zn 0.22914 0.70015 0.74155 0.0
O457 O 0.20355 0.73997 0.74103 0.0
O458 O 0.20555 0.71109 0.75236 0.0
O459 O 0.27096 0.75123 0.73356 0.0
O460 O 0.24223 0.76272 0.72781 0.0
O461 O 0.21671 0.74403 0.69552 0.0
O462 O 0.23006 0.72081 0.67896 0.0
O463 O 0.22644 0.67919 0.69856 0.0
O464 O 0.27162 0.71362 0.75907 0.0
O465 O 0.22221 0.67558 0.72961 0.0
O466 O 0.24612 0.69541 0.76364 0.0
C467 C 0.2843 0.70294 0.69931 0.0
C468 C 0.19732 0.72686 0.75161 0.0
C469 C 0.22055 0.73593 0.6797 0.0
C470 C 0.25993 0.76511 0.73153 0.0
C471 C 0.221 0.66937 0.7126 0.0
C472 C 0.26222 0.70203 0.76915 0.0
O473 O 0.26841 0.69932 0.69101 0.0
O474 O 0.49587 0.01007 0.06148 0.0
Zn475 Zn 0.48351 0.0124 0.0358 0.0
O476 O 0.45775 0.00108 0.0361 0.0
Zn477 Zn 0.457 0.9794 0.01894 0.0
Zn478 Zn 0.45113 -0.0072 0.06158 0.0
Zn479 Zn 0.4392 0.0193 0.02793 0.0
O480 O 0.44008 0.98398 -0.00302 0.0
O481 O 0.4266 0.01151 0.00288 0.0
O482 O 0.50114 -0.00217 0.01847 0.0
O483 O 0.48303 0.97349 0.00917 0.0
O484 O 0.44743 0.95607 0.0315 0.0
O485 O 0.44343 0.96558 0.0614 0.0
O486 O 0.42873 0.00647 0.07253 0.0
O487 O 0.48308 0.0398 0.02851 0.0
O488 O 0.41919 0.02315 0.04793 0.0
O489 O 0.45194 0.04428 0.02446 0.0
C490 C 0.4906 0.00244 0.07691 0.0
C491 C 0.42873 -0.00308 0.99235 0.0
C492 C 0.44262 0.95278 0.04856 0.0
C493 C 0.49911 0.98209 0.0097 0.0
C494 C 0.41714 0.01774 0.06499 0.0
C495 C 0.46911 0.05048 0.02489 0.0
O496 O 0.47386 -0.00462 0.07879 0.0
O497 O 0.21699 0.30285 0.22699 0.0
Zn498 Zn 0.2395 0.28857 0.23619 0.0
O499 O 0.26128 0.29445 0.22028 0.0
Zn500 Zn 0.27283 0.27164 0.2104 0.0
Zn501 Zn 0.2543 0.31031 0.19927 0.0
Zn502 Zn 0.27941 0.30771 0.23604 0.0
O503 O 0.29825 0.26662 0.22274 0.0
O504 O 0.2995 0.29014 0.24399 0.0
O505 O 0.23304 0.26087 0.23503 0.0
O506 O 0.25583 0.24942 0.21634 0.0
O507 O 0.27473 0.27201 0.18193 0.0
O508 O 0.255 0.29512 0.17479 0.0
O509 O 0.27288 0.33224 0.19681 0.0
O510 O 0.24369 0.29702 0.26345 0.0
O511 O 0.29176 0.32867 0.22192 0.0
O512 O 0.26768 0.31753 0.26013 0.0
C513 C 0.21434 0.31508 0.21427 0.0
C514 C 0.30592 0.27487 0.23711 0.0
C515 C 0.26506 0.28107 0.16986 0.0
C516 C 0.2408 0.2471 0.22632 0.0
C517 C 0.28742 0.33716 0.20677 0.0
C518 C 0.25448 0.31016 0.27014 0.0
O519 O 0.22762 0.31987 0.20284 0.0
O520 O 0.52858 0.50072 0.95716 0.0
Zn521 Zn 0.51606 0.48349 0.97584 0.0
O522 O 0.52208 0.49174 0.00185 0.0
Zn523 Zn 0.53584 0.47222 0.01509 0.0
Zn524 Zn 0.53756 0.51508 0.00143 0.0
Zn525 Zn 0.49837 0.49603 0.01534 0.0
O526 O 0.52234 0.46338 0.03879 0.0
O527 O 0.49585 0.48004 0.03808 0.0
O528 O 0.52621 0.45756 0.97078 0.0
O529 O 0.54104 0.45021 -0.00242 0.0
O530 O 0.56073 0.48256 0.02452 0.0
O531 O 0.56249 0.51235 0.01568 0.0
O532 O 0.52352 0.53638 0.01398 0.0
O533 O 0.48763 0.48366 0.97034 0.0
O534 O 0.497 0.52272 0.02489 0.0
O535 O 0.47577 0.49091 -0.00121 0.0
C536 C 0.53906 0.51549 0.95849 0.0
C537 C 0.50633 0.46798 0.04593 0.0
C538 C 0.56945 0.49838 0.02423 0.0
C539 C 0.53616 0.44631 0.98048 0.0
C540 C 0.50778 0.53716 0.02304 0.0
C541 C 0.47346 0.4865 0.98133 0.0
O542 O 0.54379 0.52257 0.97462 0.0
O543 O 0.78354 0.22187 0.22433 0.0
Zn544 Zn 0.76248 0.23751 0.23428 0.0
O545 O 0.73865 0.2258 0.22641 0.0
Zn546 Zn 0.72159 0.24414 0.21567 0.0
Zn547 Zn 0.74258 0.20564 0.2079 0.0
Zn548 Zn 0.72794 0.21556 0.24892 0.0
O549 O 0.69846 0.24858 0.23256 0.0
O550 O 0.7067 0.23162 0.25752 0.0
O551 O 0.7649 0.26349 0.22419 0.0
O552 O 0.73584 0.26876 0.21279 0.0
O553 O 0.7145 0.23704 0.18868 0.0
O554 O 0.73551 0.21475 0.18199 0.0
O555 O 0.72581 0.1831 0.21406 0.0
O556 O 0.76674 0.23795 0.26269 0.0
O557 O 0.71732 0.18979 0.24387 0.0
O558 O 0.74659 0.21497 0.27032 0.0
C559 C 0.78502 0.20663 0.21475 0.0
C560 C 0.69589 0.24338 0.24965 0.0
C561 C 0.72319 0.22658 0.17667 0.0
C562 C 0.75298 0.27417 0.21621 0.0
C563 C 0.71711 0.17882 0.22936 0.0
C564 C 0.76041 0.22612 0.2746 0.0
O565 O 0.77045 0.19818 0.20751 0.0
O566 O 0.98741 0.49781 0.54534 0.0
Zn567 Zn 0.98032 0.50183 0.51812 0.0
O568 O 0.95599 0.48945 0.51212 0.0
Zn569 Zn 0.9605 0.46787 0.49552 0.0
Zn570 Zn 0.94353 0.48111 0.53548 0.0
Zn571 Zn 0.93978 0.50709 0.49928 0.0
O572 O 0.94587 0.46985 0.47129 0.0
O573 O 0.93028 0.49671 0.47403 0.0
O574 O 0.00169 0.49054 0.503 0.0
O575 O 0.98836 0.46522 0.48929 0.0
O576 O 0.95162 0.44406 0.50767 0.0
O577 O 0.93657 0.45356 0.53383 0.0
O578 O 0.92018 0.49637 0.54171 0.0
O579 O 0.97976 0.52949 0.51305 0.0
O580 O 0.91738 0.51332 0.51567 0.0
O581 O 0.95332 0.53197 0.49582 0.0
C582 C 0.97878 0.49016 0.5592 0.0
C583 C 0.93424 0.48171 0.46477 0.0
C584 C 0.94173 0.4405 0.5224 0.0
C585 C 0.00297 0.47561 0.49285 0.0
C586 C 0.91154 0.50864 0.5321 0.0
C587 C 0.96844 0.53922 0.50318 0.0
O588 O 0.96185 0.48348 0.55743 0.0
O589 O 0.75856 0.75495 0.3176 0.0
Zn590 Zn 0.77036 0.76905 0.29587 0.0
O591 O 0.76235 0.75866 0.27129 0.0
Zn592 Zn 0.78328 0.74543 0.25869 0.0
Zn593 Zn 0.7413 0.74111 0.2752 0.0
Zn594 Zn 0.75404 0.77907 0.25563 0.0
O595 O 0.78661 0.75405 0.23159 0.0
O596 O 0.76859 0.77952 0.23122 0.0
O597 O 0.79856 0.7669 0.29823 0.0
O598 O 0.80805 0.75023 0.27299 0.0
O599 O 0.77775 0.71754 0.25745 0.0
O600 O 0.74663 0.71596 0.26362 0.0
O601 O 0.71683 0.75047 0.26449 0.0
O602 O 0.76483 0.79653 0.29869 0.0
O603 O 0.72613 0.7759 0.24885 0.0
O604 O 0.75722 0.80399 0.26915 0.0
C605 C 0.74604 0.74177 0.31789 0.0
C606 C 0.78032 0.76843 0.2232 0.0
C607 C 0.76213 0.70814 0.25869 0.0
C608 C 0.8117 0.7592 0.28848 0.0
C609 C 0.71315 0.76421 0.25381 0.0
C610 C 0.76078 0.80873 0.28636 0.0
O611 O 0.73816 0.73545 0.30273 0.0
O612 O 0.71943 0.22042 0.71036 0.0
Zn613 Zn 0.71442 0.22346 0.73816 0.0
O614 O 0.71791 0.24951 0.74622 0.0
Zn615 Zn 0.73736 0.25114 0.76621 0.0
Zn616 Zn 0.726 0.26454 0.72453 0.0
Zn617 Zn 0.6937 0.2587 0.756 0.0
O618 O 0.72683 0.26235 0.7903 0.0
O619 O 0.69606 0.26599 0.78373 0.0
O620 O 0.73253 0.20677 0.75158 0.0
O621 O 0.74813 0.22582 0.77178 0.0
O622 O 0.76 0.26657 0.758 0.0
O623 O 0.7529 0.27408 0.72837 0.0
O624 O 0.70978 0.28751 0.72229 0.0
O625 O 0.68801 0.21382 0.74331 0.0
O626 O 0.6866 0.2826 0.7433 0.0
O627 O 0.67264 0.23913 0.7535 0.0
C628 C 0.72384 0.23148 0.69698 0.0
C629 C 0.7101 0.26724 0.79527 0.0
C630 C 0.76443 0.27427 0.74238 0.0
C631 C 0.74497 0.20952 0.76459 0.0
C632 C 0.69461 0.29276 0.73076 0.0
C633 C 0.67278 0.22171 0.74889 0.0
O634 O 0.72628 0.24908 0.70005 0.0
O635 O 0.71631 0.79172 0.74784 0.0
Zn636 Zn 0.7379 0.77676 0.75749 0.0
O637 O 0.76207 0.78745 0.74924 0.0
Zn638 Zn 0.77562 0.76953 0.73299 0.0
Zn639 Zn 0.7574 0.81057 0.7355 0.0
Zn640 Zn 0.77751 0.79281 0.77152 0.0
O641 O 0.80148 0.76297 0.74359 0.0
O642 O 0.79885 0.77472 0.77299 0.0
O643 O 0.73461 0.75017 0.74819 0.0
O644 O 0.76062 0.7451 0.73085 0.0
O645 O 0.77803 0.77922 0.70649 0.0
O646 O 0.76356 0.80679 0.70773 0.0
O647 O 0.77378 0.83181 0.74604 0.0
O648 O 0.73503 0.7778 0.7858 0.0
O649 O 0.78905 0.81876 0.77012 0.0
O650 O 0.76237 0.7909 0.79568 0.0
C651 C 0.71482 0.80793 0.74071 0.0
C652 C 0.80752 0.76476 0.76062 0.0
C653 C 0.77198 0.79386 0.69837 0.0
C654 C 0.74469 0.73948 0.73766 0.0
C655 C 0.78593 0.83275 0.75956 0.0
C656 C 0.74574 0.78424 0.79909 0.0
O657 O 0.72954 0.81765 0.73619 0.0
O658 O 0.48564 0.53436 0.51754 0.0
Zn659 Zn 0.48745 0.51324 0.49895 0.0
O660 O 0.48408 0.48959 0.51165 0.0
Zn661 Zn 0.50824 0.47628 0.51084 0.0
Zn662 Zn 0.47593 0.49416 0.53796 0.0
Zn663 Zn 0.46471 0.47497 0.49812 0.0
O664 O 0.5068 0.4539 0.49303 0.0
O665 O 0.47626 0.45309 0.48432 0.0
O666 O 0.51359 0.51609 0.48787 0.0
O667 O 0.52946 0.49303 0.50123 0.0
O668 O 0.51554 0.46782 0.5369 0.0
O669 O 0.49365 0.4809 0.5556 0.0
O670 O 0.44945 0.48327 0.54253 0.0
O671 O 0.46812 0.51692 0.47859 0.0
O672 O 0.44471 0.46601 0.51619 0.0
O673 O 0.45162 0.49005 0.47813 0.0
C674 C 0.48174 0.53621 0.53512 0.0
C675 C 0.49309 0.44656 0.4834 0.0
C676 C 0.50849 0.47093 0.55334 0.0
C677 C 0.52918 0.50782 0.49131 0.0
C678 C 0.43968 0.4712 0.53286 0.0
C679 C 0.45469 0.50651 0.47189 0.0
O680 O 0.47723 0.52204 0.54514 0.0
O681 O 0.0156 0.47728 0.03674 0.0
Zn682 Zn 0.00506 0.49929 0.0231 0.0
O683 O 0.00544 0.52199 0.03863 0.0
Zn684 Zn 0.97953 0.53034 0.04376 0.0
Zn685 Zn 0.01929 0.51679 0.06202 0.0
Zn686 Zn 0.01832 0.54165 0.02499 0.0
O687 O 0.97394 0.55543 0.03216 0.0
O688 O 0.00321 0.56511 0.02455 0.0
O689 O 0.97806 0.49161 0.01758 0.0
O690 O 0.95984 0.5112 0.03423 0.0
O691 O 0.97705 0.53522 0.07171 0.0
O692 O 0.00514 0.52783 0.08444 0.0
O693 O 0.04624 0.52797 0.0611 0.0
O694 O 0.01807 0.50286 -0.00193 0.0
O695 O 0.0435 0.5475 0.03691 0.0
O696 O 0.02318 0.53376 -0.00216 0.0
C697 C 0.0196 0.47492 0.05419 0.0
C698 C 0.98547 0.56823 0.02661 0.0
C699 C 0.98832 0.53434 0.0859 0.0
C700 C 0.9617 0.49685 0.02328 0.0
C701 C 0.05308 0.54081 0.05051 0.0
C702 C 0.02337 0.5177 0.98957 0.0
O703 O 0.02057 0.48877 0.06592 0.0
C704 C 0.01445 0.17867 0.13094 0.0
C705 C 0.01043 0.19573 0.12206 0.0
C706 C 0.00781 0.16162 0.12308 0.0
C707 C 0.98882 0.1389 0.07945 0.0
H708 H 0.96145 0.10635 0.11427 0.0
C709 C 0.94763 0.0755 0.05021 0.0
C710 C 0.95135 0.05848 0.05916 0.0
C711 C 0.9521 0.09257 0.05929 0.0
C712 C 0.96914 0.11523 0.1044 0.0
H713 H -0.0024 0.20812 0.09721 0.0
H714 H 0.98625 0.17833 0.0834 0.0
H715 H 0.9774 0.13498 0.12638 0.0
H716 H 0.96107 0.04578 0.08512 0.0
H717 H 0.9693 0.07569 0.10099 0.0
H718 H 0.98092 0.11917 0.05751 0.0
C719 C -0.00561 0.17818 0.09652 0.0
C720 C 0.97833 0.13155 0.11134 0.0
C721 C 0.0009 0.19524 0.10444 0.0
C722 C 0.95791 0.05877 0.07803 0.0
C723 C 0.96269 0.07591 0.08706 0.0
C724 C 0.97974 0.12257 0.07254 0.0
C725 C -0.00278 0.16128 0.1061 0.0
C726 C 0.98822 0.14356 0.0989 0.0
C727 C 0.96075 0.09292 0.07735 0.0
C728 C 0.96968 0.11059 0.0849 0.0
H729 H 0.02178 0.17852 0.14452 0.0
H730 H 0.01049 0.14874 0.13056 0.0
H731 H -0.00348 0.14777 0.06958 0.0
H732 H 0.94247 0.07557 0.03567 0.0
H733 H 0.94986 0.10546 0.05169 0.0
C734 C 0.08361 0.69117 0.35863 0.0
C735 C 0.06358 0.69102 0.35932 0.0
C736 C 0.09292 0.68403 0.34253 0.0
C737 C 0.08192 0.68358 0.29245 0.0
H738 H 0.13565 0.67151 0.28895 0.0
C739 C 0.15387 0.69755 0.24414 0.0
C740 C 0.15274 0.71731 0.24451 0.0
C741 C 0.13964 0.68658 0.25267 0.0
C742 C 0.12049 0.6744 0.28943 0.0
H743 H 0.03762 0.68088 0.3454 0.0
H744 H 0.05389 0.668 0.31754 0.0
H745 H 0.1177 0.66314 0.31736 0.0
H746 H 0.13474 0.74086 0.25195 0.0
H747 H 0.10991 0.72178 0.2667 0.0
H748 H 0.08507 0.69601 0.26511 0.0
C749 C 0.06241 0.67411 0.32903 0.0
C750 C 0.11026 0.66975 0.30579 0.0
C751 C 0.05312 0.68146 0.34497 0.0
C752 C 0.13612 0.72571 0.25163 0.0
C753 C 0.12181 0.71473 0.25996 0.0
C754 C 0.09214 0.68824 0.27613 0.0
C755 C 0.08229 0.67651 0.32706 0.0
C756 C 0.09121 0.67536 0.30794 0.0
C757 C 0.12393 0.69517 0.26142 0.0
C758 C 0.11179 0.68474 0.27501 0.0
H759 H 0.09196 0.69842 0.36957 0.0
H760 H 0.10826 0.68616 0.34149 0.0
H761 H 0.06726 0.68817 0.29358 0.0
H762 H 0.16641 0.6906 0.23859 0.0
H763 H 0.1415 0.67153 0.25348 0.0
C764 C 0.50283 0.82996 0.61499 0.0
C765 C 0.50718 0.81409 0.60373 0.0
C766 C 0.50741 0.84799 0.60879 0.0
C767 C 0.53951 0.8725 0.57479 0.0
H768 H 0.5093 0.91559 0.58959 0.0
C769 C 0.54274 0.94646 0.5418 0.0
C770 C 0.5413 0.96201 0.5543 0.0
C771 C 0.54233 0.92822 0.54878 0.0
C772 C 0.51803 0.90369 0.58562 0.0
H773 H 0.51859 0.80471 0.57657 0.0
H774 H 0.52572 0.8363 0.56526 0.0
H775 H 0.49846 0.88421 0.59815 0.0
H776 H 0.53971 0.97086 0.58389 0.0
H777 H 0.53861 0.93881 0.59613 0.0
H778 H 0.55854 0.89222 0.56139 0.0
C779 C 0.51945 0.83479 0.57924 0.0
C780 C 0.51182 0.88567 0.5905 0.0
C781 C 0.51512 0.81668 0.58559 0.0
C782 C 0.54103 0.9591 0.57399 0.0
C783 C 0.54022 0.94081 0.58096 0.0
C784 C 0.54554 0.89054 0.56962 0.0
C785 C 0.51616 0.85065 0.591 0.0
C786 C 0.52248 0.86981 0.58519 0.0
C787 C 0.54009 0.92525 0.56833 0.0
C788 C 0.53487 0.90628 0.57506 0.0
H789 H 0.49684 0.82845 0.6291 0.0
H790 H 0.50484 0.85975 0.61838 0.0
H791 H 0.54833 0.8607 0.57078 0.0
H792 H 0.54289 0.94839 0.52655 0.0
H793 H 0.54219 0.91646 0.53876 0.0
C794 C 0.45723 0.25837 0.85733 0.0
C795 C 0.47441 0.26471 0.84913 0.0
C796 C 0.43967 0.26329 0.84954 0.0
C797 C 0.41919 0.27741 0.80387 0.0
H798 H 0.37318 0.28242 0.83415 0.0
C799 C 0.33182 0.28656 0.79609 0.0
C800 C 0.32827 0.27312 0.78157 0.0
C801 C 0.35028 0.2895 0.80318 0.0
C802 C 0.38591 0.2814 0.82543 0.0
H803 H 0.48668 0.28225 0.82716 0.0
H804 H 0.45603 0.29119 0.81386 0.0
H805 H 0.40409 0.28137 0.84989 0.0
H806 H 0.34135 0.25285 0.76244 0.0
H807 H 0.37354 0.25753 0.7752 0.0
H808 H 0.401 0.27758 0.77939 0.0
C809 C 0.45612 0.28199 0.82597 0.0
C810 C 0.40362 0.28053 0.8345 0.0
C811 C 0.47368 0.27694 0.83366 0.0
C812 C 0.34368 0.26332 0.77362 0.0
C813 C 0.36215 0.26609 0.78089 0.0
C814 C 0.40148 0.27843 0.79479 0.0
C815 C 0.43893 0.27481 0.83349 0.0
C816 C 0.42042 0.27808 0.82385 0.0
C817 C 0.36556 0.27888 0.79608 0.0
C818 C 0.38459 0.28001 0.80548 0.0
H819 H 0.45731 0.2489 0.86923 0.0
H820 H 0.42672 0.25733 0.85557 0.0
H821 H 0.43183 0.27535 0.79522 0.0
H822 H 0.32025 0.29455 0.8023 0.0
H823 H 0.35249 0.29978 0.81456 0.0
C824 C 0.06153 0.7937 0.41913 0.0
C825 C 0.06263 0.79011 0.39944 0.0
C826 C 0.06143 0.81215 0.42621 0.0
C827 C 0.04354 0.85678 0.4113 0.0
H828 H 0.0636 0.87482 0.45982 0.0
C829 C 0.01949 0.92687 0.4462 0.0
C830 C 0.0165 0.92661 0.46597 0.0
C831 C 0.02816 0.91171 0.43686 0.0
C832 C 0.0578 0.86994 0.44628 0.0
H833 H 0.06637 0.80299 0.3719 0.0
H834 H 0.06607 0.83525 0.38434 0.0
H835 H 0.07574 0.84579 0.44565 0.0
H836 H 0.01973 0.90998 0.49133 0.0
H837 H 0.03424 0.88343 0.47502 0.0
H838 H 0.0249 0.8803 0.4123 0.0
C839 C 0.06512 0.82376 0.39422 0.0
C840 C 0.06487 0.8534 0.43813 0.0
C841 C 0.06542 0.80528 0.38714 0.0
C842 C 0.02193 0.9107 0.47611 0.0
C843 C 0.03046 0.89554 0.46678 0.0
C844 C 0.03636 0.87323 0.4195 0.0
C845 C 0.0623 0.82734 0.41373 0.0
C846 C 0.05748 0.84643 0.42078 0.0
C847 C 0.03391 0.89595 0.44709 0.0
C848 C 0.04305 0.87972 0.43734 0.0
H849 H 0.0595 0.78229 0.42898 0.0
H850 H 0.05919 0.81446 0.44132 0.0
H851 H 0.03735 0.85159 0.39804 0.0
H852 H 0.01562 0.93898 0.43799 0.0
H853 H 0.0307 0.91252 0.4217 0.0
C854 C 0.44172 0.73841 0.64393 0.0
C855 C 0.45387 0.73572 0.65958 0.0
C856 C 0.42303 0.73114 0.64393 0.0
C857 C 0.39242 0.69574 0.66788 0.0
H858 H 0.35063 0.72724 0.65243 0.0
C859 C 0.31853 0.69456 0.70095 0.0
C860 C 0.3024 0.69831 0.68985 0.0
C861 C 0.33659 0.69394 0.69268 0.0
C862 C 0.36215 0.71805 0.65631 0.0
H863 H 0.45572 0.72382 0.68773 0.0
H864 H 0.42303 0.71164 0.68793 0.0
H865 H 0.38352 0.73776 0.6472 0.0
H866 H 0.29215 0.70306 0.66126 0.0
H867 H 0.32406 0.70243 0.64675 0.0
H868 H 0.37097 0.67658 0.67805 0.0
C869 C 0.4281 0.71888 0.67543 0.0
C870 C 0.381 0.72411 0.65339 0.0
C871 C 0.44677 0.72607 0.67542 0.0
C872 C 0.30441 0.7001 0.67008 0.0
C873 C 0.32261 0.69983 0.66182 0.0
C874 C 0.37359 0.68974 0.67089 0.0
C875 C 0.41612 0.72109 0.65959 0.0
C876 C 0.39631 0.71335 0.65983 0.0
C877 C 0.33889 0.69735 0.67319 0.0
C878 C 0.35831 0.70117 0.66578 0.0
H879 H 0.4468 0.74567 0.63145 0.0
H880 H 0.41413 0.73305 0.63152 0.0
H881 H 0.40395 0.68692 0.67252 0.0
H882 H 0.31729 0.69303 0.71622 0.0
H883 H 0.34889 0.69218 0.70182 0.0
C884 C 0.48084 0.18606 0.9309 0.0
C885 C 0.49402 0.20072 0.93477 0.0
C886 C 0.47628 0.17304 0.94485 0.0
C887 C 0.49772 0.15255 0.98719 0.0
H888 H 0.44905 0.12575 0.98871 0.0
C889 C 0.45792 0.08344 0.0229 0.0
C890 C 0.47264 0.07041 0.02043 0.0
C891 C 0.46025 0.10186 0.01678 0.0
C892 C 0.46266 0.13326 0.98883 0.0
H893 H 0.51168 0.21413 0.95667 0.0
H894 H 0.50337 0.19159 0.98119 0.0
H895 H 0.45194 0.15435 0.97055 0.0
H896 H 0.50166 0.0666 0.01046 0.0
H897 H 0.50555 0.09861 -0.00095 0.0
H898 H 0.50842 0.13147 0.00554 0.0
C899 C 0.49694 0.18988 0.96723 0.0
C900 C 0.46436 0.14954 0.97817 0.0
C901 C 0.5016 0.20285 0.95322 0.0
C902 C 0.49009 0.07638 0.01254 0.0
C903 C 0.49233 0.09477 0.00612 0.0
C904 C 0.49597 0.13633 -0.002 0.0
C905 C 0.48469 0.17449 0.96302 0.0
C906 C 0.48205 0.15906 0.97675 0.0
C907 C 0.47724 0.10759 0.00773 0.0
C908 C 0.47856 0.12619 -0.00149 0.0
H909 H 0.47478 0.18405 0.9168 0.0
H910 H 0.46696 0.16125 0.94102 0.0
H911 H 0.51162 0.15944 0.98631 0.0
H912 H 0.44441 0.0793 0.02926 0.0
H913 H 0.44852 0.11148 0.01869 0.0
C914 C 0.05122 0.29929 0.17666 0.0
C915 C 0.05365 0.28572 0.16215 0.0
C916 C 0.06633 0.31137 0.18193 0.0
C917 C 0.10359 0.32399 0.19996 0.0
H918 H 0.14584 0.33267 0.1654 0.0
C919 C 0.17968 0.31527 0.22246 0.0
C920 C 0.19494 0.32258 0.21178 0.0
C921 C 0.16091 0.3196 0.21795 0.0
C922 C 0.1341 0.33098 0.17529 0.0
H923 H 0.07347 0.27425 0.14151 0.0
H924 H 0.10018 0.29436 0.15141 0.0
H925 H 0.11469 0.32393 0.15272 0.0
H926 H 0.20264 0.34193 0.1894 0.0
H927 H 0.16972 0.34989 0.18178 0.0
H928 H 0.12296 0.33124 0.22252 0.0
C929 C 0.08649 0.29636 0.1583 0.0
C930 C 0.11626 0.32556 0.16799 0.0
C931 C 0.07127 0.28459 0.15278 0.0
C932 C 0.19113 0.33577 0.19766 0.0
C933 C 0.17227 0.34029 0.19326 0.0
C934 C 0.12131 0.32987 0.20723 0.0
C935 C 0.08428 0.30983 0.17305 0.0
C936 C 0.1012 0.32069 0.1803 0.0
C937 C 0.1569 0.33156 0.20277 0.0
C938 C 0.13712 0.33205 0.19507 0.0
H939 H 0.0376 0.30066 0.18386 0.0
H940 H 0.06397 0.32175 0.19309 0.0
H941 H 0.09233 0.32059 0.20996 0.0
H942 H 0.18209 0.30523 0.23358 0.0
H943 H 0.14957 0.31237 0.22551 0.0
C944 C 0.0743 -0.00433 0.20904 0.0
C945 C 0.09002 0.00686 0.2036 0.0
C946 C 0.0625 0.98704 0.1953 0.0
C947 C 0.03276 0.9806 0.16462 0.0
H948 H 0.05237 0.9691 0.11429 0.0
C949 C 0.98563 0.98211 0.09839 0.0
C950 C -0.00858 0.97298 0.08155 0.0
C951 C -0.00355 0.98074 0.11497 0.0
C952 C 0.04656 0.97174 0.12834 0.0
H953 H 0.10583 0.01786 0.17965 0.0
H954 H 0.08471 0.00381 0.15566 0.0
H955 H 0.07449 0.97675 0.13982 0.0
H956 H 0.0118 0.95357 0.06932 0.0
H957 H 0.03012 0.95028 0.09856 0.0
H958 H 0.00487 0.97492 0.15328 0.0
C959 C 0.08179 0.00096 0.17046 0.0
C960 C 0.05932 0.97656 0.14296 0.0
C961 C 0.09382 0.00923 0.18421 0.0
C962 C 0.00718 0.961 0.08206 0.0
C963 C 0.01777 0.95927 0.09879 0.0
C964 C 0.02002 0.97534 0.15009 0.0
C965 C 0.06593 0.98976 0.17581 0.0
C966 C 0.05257 0.98182 0.1611 0.0
C967 C 0.01311 0.96987 0.1152 0.0
C968 C 0.02668 0.97161 0.13154 0.0
H969 H 0.07122 -0.00659 0.22394 0.0
H970 H 0.05071 0.97824 0.20001 0.0
H971 H 0.02692 0.98455 0.17834 0.0
H972 H 0.97358 0.99151 0.09842 0.0
H973 H -0.0076 0.98931 0.12714 0.0
C974 C 0.23532 0.85332 0.43732 0.0
C975 C 0.22682 0.87095 0.43977 0.0
C976 C 0.23042 0.84169 0.42184 0.0
C977 C 0.20897 0.8427 0.37386 0.0
H978 H 0.20792 0.78852 0.37947 0.0
C979 C 0.19192 0.79231 0.31098 0.0
C980 C 0.20618 0.77891 0.30772 0.0
C981 C 0.19134 0.80244 0.32816 0.0
C982 C 0.20812 0.80363 0.37775 0.0
H983 H 0.20634 0.89016 0.42799 0.0
H984 H 0.19744 0.86966 0.40113 0.0
H985 H 0.21274 0.80889 0.40744 0.0
H986 H 0.23023 0.76478 0.32034 0.0
H987 H 0.22903 0.78232 0.35043 0.0
H988 H 0.20439 0.83735 0.34413 0.0
C989 C 0.20819 0.86497 0.41099 0.0
C990 C 0.21099 0.8153 0.39371 0.0
C991 C 0.21325 0.87671 0.42641 0.0
C992 C 0.21914 0.77508 0.32238 0.0
C993 C 0.2184 0.78504 0.33965 0.0
C994 C 0.20589 0.83102 0.35795 0.0
C995 C 0.21673 0.84732 0.40853 0.0
C996 C 0.21188 0.83497 0.39189 0.0
C997 C 0.20481 0.79915 0.34249 0.0
C998 C 0.20581 0.81138 0.3597 0.0
H999 H 0.24592 0.84851 0.4473 0.0
H1000 H 0.23762 0.82839 0.42018 0.0
H1001 H 0.20982 0.85775 0.37187 0.0
H1002 H 0.18171 0.79558 0.29996 0.0
H1003 H 0.18063 0.81315 0.3301 0.0
C1004 C 0.42025 0.01887 0.7249 0.0
C1005 C 0.4032 0.01148 0.71695 0.0
C1006 C 0.4342 0.02707 0.71332 0.0
C1007 C 0.4658 0.03199 0.68389 0.0
H1008 H 0.44975 0.05773 0.63864 0.0
C1009 C 0.50831 0.03125 0.61482 0.0
C1010 C 0.50402 0.04432 0.60083 0.0
C1011 C 0.49984 0.03268 0.63276 0.0
C1012 C 0.45472 0.05107 0.65141 0.0
H1013 H 0.38737 0.00677 0.69072 0.0
H1014 H 0.41185 0.02051 0.67047 0.0
H1015 H 0.42637 0.04989 0.66262 0.0
H1016 H 0.48984 0.07044 0.59508 0.0
H1017 H 0.47606 0.07371 0.62679 0.0
H1018 H 0.49424 0.03326 0.67266 0.0
C1019 C 0.41431 0.02047 0.68568 0.0
C1020 C 0.44115 0.04623 0.66503 0.0
C1021 C 0.40034 0.01242 0.69725 0.0
C1022 C 0.4931 0.06005 0.60566 0.0
C1023 C 0.48508 0.06179 0.62375 0.0
C1024 C 0.47949 0.03708 0.67035 0.0
C1025 C 0.43138 0.02794 0.69357 0.0
C1026 C 0.44637 0.0359 0.68099 0.0
C1027 C 0.48725 0.04743 0.63706 0.0
C1028 C 0.47398 0.04597 0.65354 0.0
H1029 H 0.42279 0.01844 0.74009 0.0
H1030 H 0.44711 0.03282 0.71985 0.0
H1031 H 0.47033 0.0241 0.69609 0.0
H1032 H 0.51667 0.01896 0.61133 0.0
H1033 H 0.50185 0.02129 0.64253 0.0
C1034 C 0.27389 0.14106 0.94937 0.0
C1035 C 0.26461 0.1234 0.94962 0.0
C1036 C 0.27624 0.15055 0.93231 0.0
C1037 C 0.24953 0.15489 0.88874 0.0
H1038 H 0.2905 0.18924 0.87451 0.0
C1039 C 0.24389 0.20267 0.8237 0.0
C1040 C 0.25203 0.22086 0.82511 0.0
C1041 C 0.24667 0.18972 0.83806 0.0
C1042 C 0.27886 0.17986 0.87843 0.0
H1043 H 0.25235 0.10091 0.93205 0.0
H1044 H 0.25646 0.11753 0.90216 0.0
H1045 H 0.29564 0.16694 0.89999 0.0
H1046 H 0.2688 0.23993 0.84316 0.0
H1047 H 0.27311 0.21749 0.86856 0.0
H1048 H 0.23245 0.16817 0.86784 0.0
C1049 C 0.2617 0.12411 0.91521 0.0
C1050 C 0.28188 0.16698 0.89289 0.0
C1051 C 0.25951 0.11454 0.93229 0.0
C1052 C 0.26238 0.22603 0.84159 0.0
C1053 C 0.26504 0.21308 0.85605 0.0
C1054 C 0.24646 0.16782 0.87442 0.0
C1055 C 0.26923 0.14257 0.91522 0.0
C1056 C 0.26717 0.1545 0.8983 0.0
C1057 C 0.2575 0.19467 0.8543 0.0
C1058 C 0.261 0.18061 0.86923 0.0
H1059 H 0.27808 0.14817 0.96253 0.0
H1060 H 0.28209 0.16475 0.93278 0.0
H1061 H 0.23777 0.14574 0.89289 0.0
H1062 H 0.23594 0.19813 0.81115 0.0
H1063 H 0.24081 0.17563 0.83613 0.0
C1064 C 0.09001 0.06608 0.31385 0.0
C1065 C 0.10071 0.05086 0.30696 0.0
C1066 C 0.08455 0.06709 0.33292 0.0
C1067 C 0.09067 0.04492 0.38026 0.0
H1068 H 0.03668 0.05577 0.38518 0.0
C1069 C 0.02381 0.02045 0.42886 0.0
C1070 C 0.03134 0.02241 0.44734 0.0
C1071 C 0.03343 0.02817 0.41344 0.0
C1072 C 0.05179 0.05279 0.38407 0.0
H1073 H 0.11512 0.02539 0.31487 0.0
H1074 H 0.10507 0.02679 0.34803 0.0
H1075 H 0.05281 0.06145 0.35522 0.0
H1076 H 0.05469 0.03446 0.46417 0.0
H1077 H 0.07159 0.04798 0.43701 0.0
H1078 H 0.08918 0.03511 0.40887 0.0
C1079 C 0.10117 0.03816 0.33882 0.0
C1080 C 0.06114 0.05627 0.36696 0.0
C1081 C 0.10683 0.03727 0.31977 0.0
C1082 C 0.04851 0.03271 0.4501 0.0
C1083 C 0.05823 0.04036 0.43457 0.0
C1084 C 0.08127 0.04138 0.39742 0.0
C1085 C 0.08944 0.05277 0.34547 0.0
C1086 C 0.08056 0.05187 0.36464 0.0
C1087 C 0.05084 0.03802 0.41606 0.0
C1088 C 0.06158 0.04473 0.39926 0.0
H1089 H 0.08535 0.07695 0.30438 0.0
H1090 H 0.07591 0.07877 0.33768 0.0
H1091 H 0.1057 0.04164 0.37903 0.0
H1092 H 0.0106 0.01266 0.42621 0.0
H1093 H 0.0275 0.02586 0.39933 0.0
C1094 C 0.25835 0.84916 0.56135 0.0
C1095 C 0.2574 0.844 0.54201 0.0
C1096 C 0.2548 0.83586 0.5753 0.0
C1097 C 0.22966 0.79013 0.58122 0.0
H1098 H 0.25147 0.79451 0.63186 0.0
C1099 C 0.22171 0.73771 0.64418 0.0
C1100 C 0.21762 0.74626 0.6619 0.0
C1101 C 0.22439 0.74868 0.62806 0.0
C1102 C 0.2452 0.79324 0.61778 0.0
H1103 H 0.25353 0.82062 0.52208 0.0
H1104 H 0.24817 0.79717 0.54648 0.0
H1105 H 0.26386 0.81443 0.60674 0.0
H1106 H 0.21117 0.77278 0.67613 0.0
H1107 H 0.21613 0.79181 0.64805 0.0
H1108 H 0.21143 0.76838 0.59244 0.0
C1109 C 0.25093 0.81163 0.55088 0.0
C1110 C 0.25226 0.80465 0.60339 0.0
C1111 C 0.25422 0.82502 0.5369 0.0
C1112 C 0.21441 0.76573 0.66276 0.0
C1113 C 0.21735 0.77667 0.64674 0.0
C1114 C 0.22285 0.77844 0.59559 0.0
C1115 C 0.25051 0.81702 0.57023 0.0
C1116 C 0.24435 0.80351 0.585 0.0
C1117 C 0.22318 0.76831 0.62952 0.0
C1118 C 0.23034 0.7802 0.61404 0.0
H1119 H 0.26065 0.8637 0.56573 0.0
H1120 H 0.2544 0.84064 0.59 0.0
H1121 H 0.223 0.78902 0.56733 0.0
H1122 H 0.22415 0.72274 0.64302 0.0
H1123 H 0.22881 0.74197 0.61486 0.0
C1124 C 0.38792 0.96439 0.8283 0.0
C1125 C 0.3777 0.97777 0.81818 0.0
C1126 C 0.39044 0.96646 0.84788 0.0
C1127 C 0.37463 0.99221 0.89124 0.0
H1128 H 0.42634 0.98163 0.90753 0.0
C1129 C 0.40861 0.00999 0.9661 0.0
C1130 C 0.41869 -0.00501 0.97389 0.0
C1131 C 0.40108 0.00841 0.94765 0.0
C1132 C 0.41182 0.98456 0.90319 0.0
H1133 H 0.36122 0.0033 0.82073 0.0
H1134 H 0.36605 0.00715 0.855 0.0
H1135 H 0.41774 0.9775 0.87423 0.0
H1136 H 0.42759 0.96616 0.96893 0.0
H1137 H 0.41464 0.96359 0.937 0.0
H1138 H 0.36902 -0.00043 0.9205 0.0
C1139 C 0.37191 -0.00506 0.84781 0.0
C1140 C 0.40685 0.98209 0.88416 0.0
C1141 C 0.3692 -0.00724 0.82818 0.0
C1142 C 0.4202 0.97812 0.96331 0.0
C1143 C 0.41279 0.9766 0.94499 0.0
C1144 C 0.3797 -0.00516 0.9104 0.0
C1145 C 0.38303 0.9821 0.85775 0.0
C1146 C 0.38812 0.9855 0.878 0.0
C1147 C 0.40364 0.99186 0.93681 0.0
C1148 C 0.39825 0.99067 0.91652 0.0
H1149 H 0.39438 0.95254 0.82102 0.0
H1150 H 0.39864 0.95603 0.85523 0.0
H1151 H 0.36009 -0.00502 0.8869 0.0
H1152 H 0.40714 0.02313 0.97395 0.0
H1153 H 0.39404 0.02035 0.94156 0.0
C1154 C 0.24645 0.16446 0.04384 0.0
C1155 C 0.2278 0.15675 0.04443 0.0
C1156 C 0.25112 0.18073 0.05425 0.0
C1157 C 0.23337 0.22306 0.07676 0.0
H1158 H 0.27308 0.21569 0.11429 0.0
C1159 C 0.24537 0.27286 0.14135 0.0
C1160 C 0.26323 0.27311 0.15048 0.0
C1161 C 0.24225 0.26147 0.12522 0.0
C1162 C 0.26235 0.21831 0.1036 0.0
H1163 H 0.19921 0.16052 0.05572 0.0
H1164 H 0.20743 0.18939 0.07379 0.0
H1165 H 0.26475 0.19041 0.09208 0.0
H1166 H 0.29239 0.26342 0.14893 0.0
H1167 H 0.28742 0.24458 0.12002 0.0
H1168 H 0.23114 0.2511 0.08798 0.0
C1169 C 0.21835 0.18262 0.06529 0.0
C1170 C 0.25746 0.20368 0.091 0.0
C1171 C 0.21372 0.16608 0.05509 0.0
C1172 C 0.27842 0.26325 0.14224 0.0
C1173 C 0.27546 0.25229 0.12581 0.0
C1174 C 0.23854 0.23792 0.08914 0.0
C1175 C 0.23718 0.18982 0.0652 0.0
C1176 C 0.24277 0.20584 0.07769 0.0
C1177 C 0.25708 0.25045 0.11767 0.0
C1178 C 0.25292 0.23563 0.10294 0.0
H1179 H 0.25765 0.15763 0.03577 0.0
H1180 H 0.26572 0.18609 0.05399 0.0
H1181 H 0.22208 0.22502 0.06645 0.0
H1182 H 0.23338 0.28026 0.14752 0.0
H1183 H 0.22787 0.2604 0.11953 0.0
C1184 C 0.16106 0.10677 0.98812 0.0
C1185 C 0.17624 0.09645 0.98057 0.0
C1186 C 0.14237 0.09962 0.98674 0.0
C1187 C 0.11857 0.05309 0.98181 0.0
H1188 H 0.07274 0.08276 0.986 0.0
C1189 C 0.03137 0.04316 0.9907 0.0
C1190 C 0.03108 0.0283 0.00359 0.0
C1191 C 0.04863 0.05147 0.98521 0.0
C1192 C 0.08533 0.07418 0.98454 0.0
H1193 H 0.18409 0.07179 0.9641 0.0
H1194 H 0.15137 0.0599 0.96042 0.0
H1195 H 0.103 0.09811 0.97836 0.0
H1196 H 0.04854 0.01046 0.02093 0.0
H1197 H 0.07877 0.02552 0.01207 0.0
H1198 H 0.10086 0.02909 0.98733 0.0
C1199 C 0.15377 0.07299 0.96824 0.0
C1200 C 0.10276 0.08306 0.9804 0.0
C1201 C 0.17247 0.07987 0.9701 0.0
C1202 C 0.0484 0.02184 0.0109 0.0
C1203 C 0.0657 0.0304 0.00569 0.0
C1204 C 0.10112 0.04418 0.9856 0.0
C1205 C 0.13863 0.08222 0.97744 0.0
C1206 C 0.11967 0.07267 0.97936 0.0
C1207 C 0.06601 0.04533 -0.00724 0.0
C1208 C 0.08434 0.05466 0.98742 0.0
H1209 H 0.16379 0.1195 -0.00354 0.0
H1210 H 0.13115 0.10708 -0.00586 0.0
H1211 H 0.13128 0.04459 0.98149 0.0
H1212 H 0.01822 0.04825 0.98462 0.0
H1213 H 0.04832 0.06261 0.97493 0.0
C1214 C 0.69952 0.42399 0.04303 0.0
C1215 C 0.71627 0.42716 0.0325 0.0
C1216 C 0.68871 0.43913 0.04952 0.0
C1217 C 0.66982 0.4743 0.06513 0.0
H1218 H 0.65478 0.50142 0.02033 0.0
C1219 C 0.59365 0.48632 0.0466 0.0
C1220 C 0.58833 0.5 0.03355 0.0
C1221 C 0.6124 0.48554 0.05311 0.0
C1222 C 0.6591 0.49463 0.03328 0.0
H1223 H 0.73557 0.44862 0.02157 0.0
H1224 H 0.71639 0.47505 0.03256 0.0
H1225 H 0.68401 0.48367 0.01982 0.0
H1226 H 0.59791 0.52487 0.01867 0.0
H1227 H 0.63096 0.52348 0.03005 0.0
H1228 H 0.64426 0.48442 0.0782 0.0
C1229 C 0.7117 0.46088 0.03585 0.0
C1230 C 0.6759 0.48435 0.03294 0.0
C1231 C 0.7226 0.44574 0.02951 0.0
C1232 C 0.60171 0.514 0.02852 0.0
C1233 C 0.62061 0.51319 0.03503 0.0
C1234 C 0.65312 0.48481 0.06557 0.0
C1235 C 0.6944 0.45769 0.04546 0.0
C1236 C 0.68069 0.47308 0.04838 0.0
C1237 C 0.62634 0.49841 0.0467 0.0
C1238 C 0.64685 0.4939 0.04913 0.0
H1239 H 0.69439 0.40982 0.04568 0.0
H1240 H 0.67528 0.43624 0.05666 0.0
H1241 H 0.67345 0.46601 0.07736 0.0
H1242 H 0.58356 0.47555 0.05107 0.0
H1243 H 0.6162 0.47384 0.06192 0.0
C1244 C 0.79987 0.43259 0.21493 0.0
C1245 C 0.81823 0.43773 0.20859 0.0
C1246 C 0.79098 0.41613 0.20812 0.0
C1247 C 0.80545 0.37014 0.18963 0.0
H1248 H 0.75096 0.36015 0.19414 0.0
C1249 C 0.74848 0.30347 0.19753 0.0
C1250 C 0.75945 0.29301 0.21022 0.0
C1251 C 0.75498 0.32109 0.19155 0.0
C1252 C 0.76618 0.36265 0.19241 0.0
H1253 H 0.84083 0.43081 0.18865 0.0
H1254 H 0.82501 0.40233 0.17625 0.0
H1255 H 0.76263 0.39242 0.19157 0.0
H1256 H 0.78573 0.29285 0.22666 0.0
H1257 H 0.79671 0.32366 0.21681 0.0
H1258 H 0.80902 0.34041 0.19042 0.0
C1259 C 0.81777 0.41064 0.18702 0.0
C1260 C 0.7729 0.38118 0.19116 0.0
C1261 C 0.82682 0.42699 0.19407 0.0
C1262 C 0.77699 0.3005 0.2168 0.0
C1263 C 0.78339 0.31811 0.21096 0.0
C1264 C 0.79873 0.35164 0.19057 0.0
C1265 C 0.80013 0.40458 0.19459 0.0
C1266 C 0.79268 0.38519 0.19078 0.0
C1267 C 0.77251 0.3286 0.19823 0.0
C1268 C 0.77912 0.34775 0.193 0.0
H1269 H 0.79282 0.44062 0.22605 0.0
H1270 H 0.77753 0.4119 0.2145 0.0
H1271 H 0.82078 0.37257 0.18938 0.0
H1272 H 0.73497 0.29799 0.19207 0.0
H1273 H 0.74633 0.32877 0.18165 0.0
C1274 C 0.78476 0.61163 0.55808 0.0
C1275 C 0.76895 0.60803 0.56986 0.0
C1276 C 0.80153 0.60156 0.56012 0.0
C1277 C 0.81766 0.55576 0.57431 0.0
H1278 H 0.86747 0.57833 0.56437 0.0
C1279 C 0.88679 0.51326 0.5577 0.0
C1280 C 0.89539 0.51898 0.5406 0.0
C1281 C 0.87225 0.52395 0.56603 0.0
C1282 C 0.85368 0.57185 0.56735 0.0
H1283 H 0.75856 0.59157 0.59352 0.0
H1284 H 0.78802 0.57375 0.59695 0.0
H1285 H 0.84039 0.59846 0.57157 0.0
H1286 H 0.89538 0.54031 0.51884 0.0
H1287 H 0.87031 0.55879 0.53339 0.0
H1288 H 0.83092 0.52914 0.56924 0.0
C1289 C 0.78732 0.58439 0.58615 0.0
C1290 C 0.83821 0.58334 0.57144 0.0
C1291 C 0.77052 0.59463 0.58423 0.0
C1292 C 0.88908 0.53544 0.53198 0.0
C1293 C 0.87484 0.54617 0.54041 0.0
C1294 C 0.83322 0.54423 0.57029 0.0
C1295 C 0.80288 0.58759 0.57391 0.0
C1296 C 0.81988 0.57545 0.57411 0.0
C1297 C 0.8664 0.54064 0.55756 0.0
C1298 C 0.85113 0.55225 0.56595 0.0
H1299 H 0.78404 0.62191 0.54693 0.0
H1300 H 0.81316 0.60417 0.55027 0.0
H1301 H 0.80367 0.54929 0.57623 0.0
H1302 H 0.89134 0.50064 0.56467 0.0
H1303 H 0.86582 0.51937 0.57922 0.0
C1304 C 0.14635 0.10106 0.21911 0.0
C1305 C 0.15252 0.08647 0.23073 0.0
C1306 C 0.15728 0.11753 0.21748 0.0
C1307 C 0.20501 0.1393 0.22696 0.0
H1308 H 0.1757 0.18512 0.22929 0.0
C1309 C 0.21628 0.22475 0.23948 0.0
C1310 C 0.23197 0.22808 0.22744 0.0
C1311 C 0.20753 0.20698 0.24 0.0
C1312 C 0.18414 0.17248 0.22882 0.0
H1313 H 0.17544 0.07735 0.24903 0.0
H1314 H 0.19441 0.10632 0.24645 0.0
H1315 H 0.15914 0.15486 0.22933 0.0
H1316 H 0.25095 0.21522 0.2067 0.0
H1317 H 0.23546 0.18433 0.20738 0.0
H1318 H 0.23006 0.15707 0.227 0.0
C1319 C 0.18121 0.10492 0.23843 0.0
C1320 C 0.17462 0.1551 0.22853 0.0
C1321 C 0.17031 0.08834 0.23995 0.0
C1322 C 0.23891 0.21314 0.21617 0.0
C1323 C 0.2301 0.19538 0.21664 0.0
C1324 C 0.21457 0.15674 0.22729 0.0
C1325 C 0.17455 0.11989 0.22755 0.0
C1326 C 0.18491 0.13829 0.22754 0.0
C1327 C 0.2142 0.19214 0.22843 0.0
C1328 C 0.20422 0.17353 0.22825 0.0
H1329 H 0.13282 0.09996 0.21161 0.0
H1330 H 0.15198 0.12858 0.20858 0.0
H1331 H 0.21336 0.12662 0.22609 0.0
H1332 H 0.21066 0.23589 0.24846 0.0
H1333 H 0.19552 0.20486 0.2495 0.0
C1334 C 0.30574 0.94732 0.48741 0.0
C1335 C 0.30176 0.92798 0.48903 0.0
C1336 C 0.32394 0.95454 0.49168 0.0
C1337 C 0.37423 0.94364 0.49587 0.0
H1338 H 0.37545 0.98243 0.5354 0.0
C1339 C 0.44559 0.9712 0.52671 0.0
C1340 C 0.44724 0.99066 0.53022 0.0
C1341 C 0.42776 0.96287 0.5229 0.0
C1342 C 0.37539 0.97181 0.52417 0.0
H1343 H 0.31397 0.90089 0.49517 0.0
H1344 H 0.34601 0.91357 0.50213 0.0
H1345 H 0.34479 0.96963 0.52424 0.0
H1346 H 0.43154 0.01659 0.53303 0.0
H1347 H 0.40054 0.00224 0.52572 0.0
H1348 H 0.4047 0.94617 0.4952 0.0
C1349 C 0.33492 0.92307 0.49782 0.0
C1350 C 0.35784 0.96447 0.51784 0.0
C1351 C 0.31662 0.91587 0.49388 0.0
C1352 C 0.43067 0.00153 0.53052 0.0
C1353 C 0.41287 -0.00674 0.52638 0.0
C1354 C 0.39179 0.9512 0.50195 0.0
C1355 C 0.33854 0.94251 0.49728 0.0
C1356 C 0.35715 0.95037 0.50364 0.0
C1357 C 0.41125 0.97388 0.52217 0.0
C1358 C 0.39259 0.96539 0.51619 0.0
H1359 H 0.29458 0.95701 0.48375 0.0
H1360 H 0.32653 0.96958 0.491 0.0
H1361 H 0.37397 0.9328 0.48484 0.0
H1362 H 0.45814 0.96245 0.52658 0.0
H1363 H 0.42698 0.94784 0.52022 0.0
C1364 C 0.77767 0.53893 0.24901 0.0
C1365 C 0.78982 0.53234 0.26327 0.0
C1366 C 0.7697 0.55673 0.25076 0.0
C1367 C 0.78398 0.60141 0.27292 0.0
H1368 H 0.73842 0.61971 0.2483 0.0
C1369 C 0.74587 0.67667 0.26097 0.0
C1370 C 0.76229 0.68744 0.25652 0.0
C1371 C 0.74673 0.65711 0.26181 0.0
C1372 C 0.75113 0.61479 0.25536 0.0
H1373 H 0.80101 0.53794 0.29161 0.0
H1374 H 0.78657 0.56877 0.29495 0.0
H1375 H 0.74199 0.58593 0.25289 0.0
H1376 H 0.79211 0.68603 0.24814 0.0
H1377 H 0.79351 0.65188 0.24925 0.0
H1378 H 0.79314 0.6301 0.2755 0.0
C1379 C 0.7838 0.56053 0.28211 0.0
C1380 C 0.7532 0.59547 0.25792 0.0
C1381 C 0.79197 0.54283 0.28025 0.0
C1382 C 0.77927 0.67817 0.25181 0.0
C1383 C 0.78011 0.65862 0.25259 0.0
C1384 C 0.7819 0.62063 0.27041 0.0
C1385 C 0.77359 0.56813 0.26689 0.0
C1386 C 0.7698 0.58857 0.26649 0.0
C1387 C 0.76401 0.64795 0.25816 0.0
C1388 C 0.76565 0.62751 0.26128 0.0
H1389 H 0.77566 0.53108 0.23579 0.0
H1390 H 0.7619 0.56213 0.23877 0.0
H1391 H 0.79712 0.59662 0.27926 0.0
H1392 H 0.73252 0.68335 0.26463 0.0
H1393 H 0.73412 0.64928 0.26618 0.0
C1394 C 0.68285 0.46269 0.74759 0.0
C1395 C 0.66703 0.46847 0.75842 0.0
C1396 C 0.68678 0.44358 0.7453 0.0
C1397 C 0.6604 0.39875 0.74456 0.0
H1398 H 0.71058 0.37661 0.7407 0.0
C1399 C 0.6726 0.3189 0.73943 0.0
C1400 C 0.68828 0.31239 0.72881 0.0
C1401 C 0.66935 0.33813 0.74146 0.0
C1402 C 0.69648 0.38267 0.74142 0.0
H1403 H 0.64415 0.45895 0.77693 0.0
H1404 H 0.65124 0.42567 0.77321 0.0
H1405 H 0.70781 0.40968 0.75004 0.0
H1406 H 0.7118 0.32096 0.71057 0.0
H1407 H 0.70588 0.35453 0.71387 0.0
H1408 H 0.64903 0.37182 0.73592 0.0
C1409 C 0.66026 0.43586 0.76606 0.0
C1410 C 0.69491 0.40157 0.7469 0.0
C1411 C 0.65633 0.45493 0.76834 0.0
C1412 C 0.69966 0.32548 0.71896 0.0
C1413 C 0.69642 0.34474 0.72101 0.0
C1414 C 0.66196 0.3799 0.73906 0.0
C1415 C 0.67498 0.42995 0.75383 0.0
C1416 C 0.67684 0.40977 0.74864 0.0
C1417 C 0.68168 0.35128 0.73287 0.0
C1418 C 0.68001 0.37162 0.73749 0.0
H1419 H 0.69138 0.47279 0.73978 0.0
H1420 H 0.69824 0.43948 0.73581 0.0
H1421 H 0.64628 0.40479 0.74532 0.0
H1422 H 0.66348 0.30922 0.74714 0.0
H1423 H 0.65788 0.3427 0.75071 0.0
C1424 C 0.01684 0.82296 0.88474 0.0
C1425 C 0.0175 0.80697 0.89616 0.0
C1426 C 0.01487 0.84081 0.89314 0.0
C1427 C 0.02395 0.86884 0.93539 0.0
H1428 H 0.97538 0.89299 0.92721 0.0
C1429 C -0.00253 0.9275 0.98572 0.0
C1430 C 0.98563 0.94138 0.97844 0.0
C1431 C 0.00286 0.91223 0.97426 0.0
C1432 C 0.98923 0.88677 0.92938 0.0
H1433 H 0.0175 0.79705 0.92517 0.0
H1434 H 0.01472 0.8283 0.93978 0.0
H1435 H 0.98322 0.8648 0.90885 0.0
H1436 H 0.9707 0.95068 0.95335 0.0
H1437 H 0.98081 0.92464 0.93309 0.0
H1438 H 0.03027 0.89079 0.95565 0.0
C1439 C 0.01542 0.82697 0.92441 0.0
C1440 C -0.00637 0.87058 0.91888 0.0
C1441 C 0.01687 0.80915 0.91605 0.0
C1442 C 0.97961 0.93999 0.9594 0.0
C1443 C 0.98535 0.92498 0.94782 0.0
C1444 C 0.01976 0.88527 0.94561 0.0
C1445 C 0.01414 0.84287 0.91303 0.0
C1446 C 0.01083 0.86132 0.92211 0.0
C1447 C -0.00312 0.91077 0.95513 0.0
C1448 C 0.00214 0.89422 0.94307 0.0
H1449 H 0.01726 0.82159 0.86938 0.0
H1450 H 0.01383 0.85297 0.88417 0.0
H1451 H 0.03732 0.86184 0.93803 0.0
H1452 H 0.00223 0.92821 0.00039 0.0
H1453 H 0.01139 0.90142 0.98057 0.0
C1454 C 0.92674 0.2491 0.70937 0.0
C1455 C 0.93361 0.25308 0.69107 0.0
C1456 C 0.90949 0.25661 0.71573 0.0
C1457 C 0.86424 0.27379 0.69751 0.0
H1458 H 0.85678 0.29153 0.74944 0.0
C1459 C 0.78932 0.29049 0.72277 0.0
C1460 C 0.78426 0.28114 0.73952 0.0
C1461 C 0.80854 0.29312 0.71798 0.0
C1462 C 0.85867 0.28666 0.73488 0.0
H1463 H 0.92789 0.26833 0.66521 0.0
H1464 H 0.89786 0.28132 0.67632 0.0
H1465 H 0.88886 0.28328 0.73857 0.0
H1466 H 0.79534 0.26896 0.76532 0.0
H1467 H 0.82873 0.27307 0.75674 0.0
H1468 H 0.83412 0.27624 0.69393 0.0
C1469 C 0.90574 0.2723 0.68568 0.0
C1470 C 0.87699 0.2819 0.72869 0.0
C1471 C 0.92295 0.26484 0.67934 0.0
C1472 C 0.79875 0.2761 0.75223 0.0
C1473 C 0.81796 0.27857 0.74735 0.0
C1474 C 0.84597 0.27844 0.7037 0.0
C1475 C 0.89878 0.26819 0.70389 0.0
C1476 C 0.87985 0.27505 0.71006 0.0
C1477 C 0.82303 0.28628 0.72975 0.0
C1478 C 0.84288 0.28454 0.72257 0.0
H1479 H 0.93464 0.24015 0.71877 0.0
H1480 H 0.90431 0.25299 0.72974 0.0
H1481 H 0.86596 0.26833 0.68314 0.0
H1482 H 0.77846 0.29485 0.71284 0.0
H1483 H 0.81202 0.29957 0.70455 0.0
C1484 C 0.45246 0.19164 0.41663 0.0
C1485 C 0.46933 0.20159 0.42141 0.0
C1486 C 0.44358 0.18003 0.42991 0.0
C1487 C 0.44217 0.14391 0.45086 0.0
H1488 H 0.45468 0.146 0.5046 0.0
C1489 C 0.48027 0.08573 0.48602 0.0
C1490 C 0.47667 0.08076 0.50492 0.0
C1491 C 0.47066 0.10054 0.47792 0.0
C1492 C 0.45054 0.14522 0.48974 0.0
H1493 H 0.48926 0.20863 0.44416 0.0
H1494 H 0.47466 0.1876 0.46687 0.0
H1495 H 0.45159 0.17514 0.48719 0.0
H1496 H 0.45992 0.08721 0.53012 0.0
H1497 H 0.4433 0.11369 0.51591 0.0
H1498 H 0.44178 0.11403 0.45329 0.0
C1499 C 0.46775 0.18901 0.4532 0.0
C1500 C 0.44901 0.16191 0.47969 0.0
C1501 C 0.47634 0.20094 0.44007 0.0
C1502 C 0.46298 0.09077 0.51551 0.0
C1503 C 0.45347 0.10585 0.50741 0.0
C1504 C 0.44343 0.12732 0.46094 0.0
C1505 C 0.45175 0.17774 0.44801 0.0
C1506 C 0.4463 0.16136 0.45983 0.0
C1507 C 0.45728 0.11085 0.48853 0.0
C1508 C 0.44908 0.12781 0.48009 0.0
H1509 H 0.4465 0.1923 0.40243 0.0
H1510 H 0.43095 0.17202 0.42558 0.0
H1511 H 0.43993 0.14274 0.43564 0.0
H1512 H 0.49064 0.07824 0.47743 0.0
H1513 H 0.47425 0.10433 0.46348 0.0
C1514 C 0.56189 0.76263 0.1665 0.0
C1515 C 0.54617 0.75595 0.17701 0.0
C1516 C 0.57977 0.76509 0.17518 0.0
C1517 C 0.60847 0.74706 0.2135 0.0
H1518 H 0.63823 0.79337 0.20995 0.0
C1519 C 0.67814 0.75709 0.25545 0.0
C1520 C 0.69358 0.76597 0.24629 0.0
C1521 C 0.65984 0.75739 0.24758 0.0
C1522 C 0.63021 0.78027 0.21088 0.0
H1523 H 0.53671 0.74668 0.20475 0.0
H1524 H 0.56805 0.75064 0.2198 0.0
H1525 H 0.60694 0.79075 0.19443 0.0
H1526 H 0.70193 0.7825 0.22195 0.0
H1527 H 0.67008 0.78248 0.20782 0.0
H1528 H 0.63174 0.73622 0.22932 0.0
C1529 C 0.56649 0.75405 0.20489 0.0
C1530 C 0.61231 0.77881 0.20205 0.0
C1531 C 0.54859 0.75185 0.19632 0.0
C1532 C 0.69027 0.77561 0.22937 0.0
C1533 C 0.67199 0.77566 0.22132 0.0
C1534 C 0.62643 0.7484 0.22208 0.0
C1535 C 0.58223 0.76062 0.1944 0.0
C1536 C 0.60127 0.76223 0.20341 0.0
C1537 C 0.65661 0.76628 0.23019 0.0
C1538 C 0.63748 0.76505 0.22101 0.0
H1539 H 0.56039 0.76596 0.15163 0.0
H1540 H 0.59173 0.77007 0.16681 0.0
H1541 H 0.60032 0.73403 0.21449 0.0
H1542 H 0.68022 0.74976 0.26865 0.0
H1543 H 0.64825 0.75047 0.25508 0.0
C1544 C 0.98565 0.16476 0.64123 0.0
C1545 C 0.98055 0.18193 0.63321 0.0
C1546 C 0.98495 0.14815 0.63033 0.0
C1547 C 0.96497 0.12651 0.58626 0.0
H1548 H 0.00946 0.09478 0.58903 0.0
C1549 C 0.00336 0.06281 0.54132 0.0
C1550 C 0.98788 0.05018 0.5386 0.0
C1551 C 0.00144 0.07881 0.55289 0.0
C1552 C -0.00302 0.10355 0.58803 0.0
H1553 H 0.97005 0.19499 0.60762 0.0
H1554 H 0.96893 0.16604 0.58864 0.0
H1555 H 0.00746 0.12256 0.60967 0.0
H1556 H 0.95804 0.04478 0.54553 0.0
H1557 H 0.95472 0.07277 0.56575 0.0
H1558 H 0.95471 0.10764 0.5643 0.0
C1559 C 0.97337 0.1654 0.60338 0.0
C1560 C -0.00428 0.11932 0.60003 0.0
C1561 C 0.97412 0.18202 0.61425 0.0
C1562 C 0.97026 0.0542 0.54732 0.0
C1563 C 0.96832 0.07027 0.55885 0.0
C1564 C 0.96619 0.11066 0.5743 0.0
C1565 C 0.97906 0.14835 0.61121 0.0
C1566 C 0.97977 0.13105 0.59917 0.0
C1567 C 0.98398 0.08259 0.56196 0.0
C1568 C 0.98231 0.09913 0.57495 0.0
H1569 H -0.00942 0.16417 0.65582 0.0
H1570 H 0.98918 0.13515 0.63682 0.0
H1571 H 0.95244 0.13522 0.58539 0.0
H1572 H 0.01712 0.06022 0.53477 0.0
H1573 H 0.01366 0.08823 0.55477 0.0
C1574 C 0.5586 0.2091 0.3392 0.0
C1575 C 0.55707 0.21472 0.35838 0.0
C1576 C 0.57462 0.21418 0.32864 0.0
C1577 C 0.62402 0.23059 0.32973 0.0
H1578 H 0.60998 0.25599 0.28343 0.0
C1579 C 0.68229 0.25552 0.27968 0.0
C1580 C 0.67943 0.24977 0.26069 0.0
C1581 C 0.66695 0.256 0.2923 0.0
C1582 C 0.61414 0.2489 0.29626 0.0
H1583 H 0.57188 0.22837 0.38212 0.0
H1584 H 0.60032 0.23692 0.36359 0.0
H1585 H 0.58505 0.24455 0.30478 0.0
H1586 H 0.65844 0.24145 0.23943 0.0
H1587 H 0.63155 0.2417 0.26155 0.0
H1588 H 0.65303 0.23407 0.32092 0.0
C1589 C 0.58889 0.22884 0.35675 0.0
C1590 C 0.5999 0.24235 0.30845 0.0
C1591 C 0.57272 0.22382 0.36736 0.0
C1592 C 0.66085 0.24614 0.25401 0.0
C1593 C 0.64549 0.24627 0.26673 0.0
C1594 C 0.63829 0.23696 0.31744 0.0
C1595 C 0.58948 0.22483 0.33712 0.0
C1596 C 0.60473 0.23281 0.32507 0.0
C1597 C 0.64858 0.25026 0.28622 0.0
C1598 C 0.6335 0.24591 0.30038 0.0
H1599 H 0.5468 0.20191 0.33198 0.0
H1600 H 0.57501 0.21054 0.31361 0.0
H1601 H 0.62805 0.22326 0.34247 0.0
H1602 H 0.6966 0.25841 0.28505 0.0
H1603 H 0.66971 0.25968 0.30708 0.0
C1604 C 0.47188 0.79764 0.10146 0.0
C1605 C 0.46819 0.79468 0.12082 0.0
C1606 C 0.46436 0.81325 0.09243 0.0
C1607 C 0.44845 0.8607 0.10438 0.0
H1608 H 0.43075 0.86112 0.05209 0.0
C1609 C 0.4289 0.92995 0.07158 0.0
C1610 C 0.43784 0.93336 0.05407 0.0
C1611 C 0.42746 0.91171 0.07841 0.0
C1612 C 0.43564 0.86118 0.06671 0.0
H1613 H 0.45288 0.80502 0.14564 0.0
H1614 H 0.43963 0.832 0.12989 0.0
H1615 H 0.43864 0.83121 0.0667 0.0
H1616 H 0.45087 0.92027 0.02926 0.0
H1617 H 0.4489 0.88849 0.04148 0.0
H1618 H 0.44621 0.89051 0.10438 0.0
C1619 C 0.44866 0.82258 0.12176 0.0
C1620 C 0.44019 0.8441 0.07504 0.0
C1621 C 0.45626 0.80712 0.13078 0.0
C1622 C 0.44397 0.91806 0.04286 0.0
C1623 C 0.44274 0.89982 0.04981 0.0
C1624 C 0.44396 0.87767 0.0961 0.0
C1625 C 0.45296 0.82605 0.10263 0.0
C1626 C 0.44683 0.84376 0.09391 0.0
C1627 C 0.43518 0.89658 0.06801 0.0
C1628 C 0.4377 0.87817 0.07712 0.0
H1629 H 0.48095 0.78819 0.09342 0.0
H1630 H 0.46805 0.81566 0.0777 0.0
H1631 H 0.45391 0.86096 0.11881 0.0
H1632 H 0.42372 0.94145 0.08036 0.0
H1633 H 0.4211 0.90958 0.09228 0.0
C1634 C 0.95356 0.7333 0.84451 0.0
C1635 C 0.9697 0.7405 0.83501 0.0
C1636 C 0.93607 0.73138 0.83512 0.0
C1637 C 0.91219 0.73044 0.78834 0.0
H1638 H 0.87102 0.75372 0.81665 0.0
C1639 C 0.84132 0.75532 0.75482 0.0
C1640 C 0.82505 0.75541 0.76649 0.0
C1641 C 0.85883 0.74935 0.76202 0.0
C1642 C 0.88217 0.74675 0.80865 0.0
H1643 H 0.98037 0.75042 0.8079 0.0
H1644 H 0.9496 0.74727 0.79157 0.0
H1645 H 0.90206 0.75079 0.83142 0.0
H1646 H 0.81357 0.74765 0.79391 0.0
H1647 H 0.84376 0.7364 0.80617 0.0
H1648 H 0.89215 0.72667 0.76541 0.0
C1649 C 0.95061 0.743 0.80625 0.0
C1650 C 0.90001 0.74514 0.81713 0.0
C1651 C 0.96816 0.74495 0.81566 0.0
C1652 C 0.82607 0.74802 0.7848 0.0
C1653 C 0.84337 0.74168 0.79182 0.0
C1654 C 0.89418 0.73193 0.77983 0.0
C1655 C 0.93432 0.73661 0.81605 0.0
C1656 C 0.91523 0.73709 0.80706 0.0
C1657 C 0.86013 0.74312 0.78087 0.0
C1658 C 0.879 0.74019 0.78991 0.0
H1659 H 0.9543 0.7295 0.85935 0.0
H1660 H 0.92377 0.72617 0.84292 0.0
H1661 H 0.92372 0.72412 0.78031 0.0
H1662 H 0.84078 0.76098 0.74062 0.0
H1663 H 0.87148 0.75069 0.75324 0.0
C1664 C 0.96883 0.04032 0.81207 0.0
C1665 C 0.95552 0.04932 0.80049 0.0
C1666 C 0.96922 0.04402 0.83165 0.0
C1667 C 0.93455 0.05423 0.86777 0.0
H1668 H 0.97798 0.05484 0.90212 0.0
C1669 C 0.93522 0.02141 0.94193 0.0
C1670 C 0.94501 0.03123 0.95657 0.0
C1671 C 0.93492 0.02855 0.92356 0.0
C1672 C 0.96571 0.05497 0.8927 0.0
H1673 H 0.93389 0.07092 0.79995 0.0
H1674 H 0.93453 0.07716 0.83409 0.0
H1675 H 0.98316 0.05972 0.86811 0.0
H1676 H 0.96095 0.05692 0.96373 0.0
H1677 H 0.96062 0.0691 0.9316 0.0
H1678 H 0.91722 0.04845 0.89218 0.0
C1679 C 0.9444 0.06708 0.82807 0.0
C1680 C 0.9687 0.05766 0.8733 0.0
C1681 C 0.94407 0.06348 0.80853 0.0
C1682 C 0.95338 0.0489 0.95276 0.0
C1683 C 0.95328 0.0559 0.93437 0.0
C1684 C 0.9316 0.05127 0.88711 0.0
C1685 C 0.9563 0.05674 0.83988 0.0
C1686 C 0.95317 0.05694 0.86064 0.0
C1687 C 0.94455 0.04552 0.91954 0.0
C1688 C 0.94719 0.05124 0.89965 0.0
H1689 H 0.97792 0.02944 0.80629 0.0
H1690 H 0.97853 0.03584 0.8405 0.0
H1691 H 0.92236 0.05336 0.85825 0.0
H1692 H 0.92857 0.00781 0.94442 0.0
H1693 H 0.92815 0.02026 0.91228 0.0
C1694 C 0.75998 0.1366 0.55711 0.0
C1695 C 0.76966 0.14517 0.54194 0.0
C1696 C 0.75784 0.14616 0.57447 0.0
C1697 C 0.75435 0.19418 0.59307 0.0
H1698 H 0.75536 0.17016 0.64211 0.0
C1699 C 0.73849 0.23336 0.66445 0.0
C1700 C 0.72797 0.22321 0.678 0.0
C1701 C 0.74467 0.22449 0.64766 0.0
C1702 C 0.75484 0.17702 0.62849 0.0
H1703 H 0.78577 0.17005 0.53356 0.0
H1704 H 0.78204 0.18667 0.56395 0.0
H1705 H 0.76601 0.15294 0.61386 0.0
H1706 H 0.71471 0.19616 0.68404 0.0
H1707 H 0.72509 0.18092 0.65471 0.0
H1708 H 0.74277 0.21812 0.60764 0.0
C1709 C 0.77591 0.17266 0.56226 0.0
C1710 C 0.76103 0.16718 0.61235 0.0
C1711 C 0.77816 0.16305 0.54492 0.0
C1712 C 0.72297 0.20433 0.674 0.0
C1713 C 0.72907 0.19553 0.65726 0.0
C1714 C 0.7481 0.20402 0.60923 0.0
C1715 C 0.76527 0.16451 0.57702 0.0
C1716 C 0.76059 0.17556 0.59443 0.0
C1717 C 0.74038 0.20536 0.64412 0.0
C1718 C 0.74798 0.19543 0.62706 0.0
H1719 H 0.75331 0.12283 0.55533 0.0
H1720 H 0.74948 0.13955 0.58554 0.0
H1721 H 0.75359 0.20092 0.5794 0.0
H1722 H 0.74263 0.2479 0.66714 0.0
H1723 H 0.7534 0.23244 0.63782 0.0
C1724 C 0.57446 0.95792 0.32364 0.0
C1725 C 0.56386 0.96542 0.30865 0.0
C1726 C 0.56799 0.95951 0.3423 0.0
C1727 C 0.52701 0.97101 0.37309 0.0
H1728 H 0.56662 0.99191 0.40634 0.0
C1729 C 0.51763 0.98465 0.45432 0.0
C1730 C 0.52449 0.00222 0.46114 0.0
C1731 C 0.52123 0.97885 0.43559 0.0
C1732 C 0.55541 0.98611 0.39721 0.0
H1733 H 0.53748 0.97923 0.30131 0.0
H1734 H 0.52624 0.98221 0.33415 0.0
H1735 H 0.57454 0.9829 0.37378 0.0
H1736 H 0.54027 0.02756 0.45359 0.0
H1737 H 0.54663 0.01734 0.421 0.0
H1738 H 0.50783 0.97462 0.39666 0.0
C1739 C 0.53953 0.97504 0.33135 0.0
C1740 C 0.55997 0.98075 0.37866 0.0
C1741 C 0.546 0.9734 0.31258 0.0
C1742 C 0.53485 0.01392 0.44881 0.0
C1743 C 0.53855 0.00806 0.43018 0.0
C1744 C 0.52246 0.97626 0.3918 0.0
C1745 C 0.55081 0.96868 0.34641 0.0
C1746 C 0.54582 0.97326 0.36637 0.0
C1747 C 0.53189 0.99044 0.42344 0.0
C1748 C 0.53661 0.98406 0.40392 0.0
H1749 H 0.58814 0.95139 0.32105 0.0
H1750 H 0.57677 0.95415 0.35363 0.0
H1751 H 0.51586 0.96523 0.3639 0.0
H1752 H 0.50953 0.97535 0.46344 0.0
H1753 H 0.51604 0.96515 0.43073 0.0
C1754 C 0.72961 0.8059 0.06881 0.0
C1755 C 0.72745 0.82544 0.07095 0.0
C1756 C 0.74102 0.7961 0.08153 0.0
C1757 C 0.77918 0.80355 0.11772 0.0
H1758 H 0.75592 0.76078 0.14272 0.0
C1759 C 0.78544 0.7899 0.19621 0.0
C1760 C 0.78485 0.7715 0.20305 0.0
C1761 C 0.78528 0.79305 0.17672 0.0
C1762 C 0.76294 0.77234 0.13554 0.0
H1763 H 0.73554 0.85002 0.08805 0.0
H1764 H 0.75511 0.833 0.11021 0.0
H1765 H 0.74121 0.77293 0.1141 0.0
H1766 H 0.78503 0.74194 0.19506 0.0
H1767 H 0.78427 0.74748 0.16072 0.0
H1768 H 0.80014 0.80376 0.13995 0.0
C1769 C 0.74832 0.82524 0.09857 0.0
C1770 C 0.75447 0.77934 0.11917 0.0
C1771 C 0.73688 0.83497 0.086 0.0
C1772 C 0.78557 0.75626 0.19009 0.0
C1773 C 0.78504 0.75942 0.17049 0.0
C1774 C 0.78761 0.79659 0.13409 0.0
C1775 C 0.75059 0.80573 0.09646 0.0
C1776 C 0.76196 0.79561 0.1107 0.0
C1777 C 0.78421 0.77785 0.16368 0.0
C1778 C 0.77901 0.78152 0.14369 0.0
H1779 H 0.72258 0.7982 0.05727 0.0
H1780 H 0.74248 0.78104 0.07961 0.0
H1781 H 0.78551 0.81585 0.11119 0.0
H1782 H 0.78494 0.80186 0.20595 0.0
H1783 H 0.78444 0.80741 0.17193 0.0
C1784 C 0.95247 0.00883 0.69553 0.0
C1785 C 0.9355 0.01908 0.69438 0.0
C1786 C 0.95654 -0.00505 0.68184 0.0
C1787 C 0.93321 0.96575 0.6437 0.0
H1788 H 0.98343 0.9668 0.62044 0.0
C1789 C 0.94753 0.95989 0.56536 0.0
C1790 C 0.96551 0.95413 0.55883 0.0
C1791 C 0.94278 0.95837 0.58452 0.0
C1792 C 0.96948 0.96579 0.6271 0.0
H1793 H 0.90986 0.02336 0.67771 0.0
H1794 H 0.91721 -0.0003 0.65362 0.0
H1795 H 0.97811 0.98449 0.64974 0.0
H1796 H -0.00851 0.93978 0.56654 0.0
H1797 H 0.98325 0.93737 0.60015 0.0
H1798 H 0.92427 0.94821 0.62014 0.0
C1799 C 0.92708 0.00185 0.66538 0.0
C1800 C 0.96642 0.97604 0.64389 0.0
C1801 C 0.923 0.01562 0.67903 0.0
C1802 C 0.97758 0.94452 0.57122 0.0
C1803 C 0.97292 0.94318 0.59048 0.0
C1804 C 0.93625 0.95558 0.62684 0.0
C1805 C 0.94373 0.99114 0.66678 0.0
C1806 C 0.948 0.97693 0.65178 0.0
C1807 C 0.95603 0.95121 0.59747 0.0
C1808 C 0.95418 0.95632 0.61787 0.0
H1809 H 0.96232 0.01113 0.70727 0.0
H1810 H 0.96953 0.98698 0.68323 0.0
H1811 H 0.91897 0.96575 0.6498 0.0
H1812 H 0.93784 0.96711 0.55604 0.0
H1813 H 0.92965 0.96469 0.58946 0.0
C1814 C 0.79128 0.19608 0.43331 0.0
C1815 C 0.80007 0.17887 0.43659 0.0
C1816 C 0.79546 0.206 0.4168 0.0
C1817 C 0.80449 0.22456 0.37943 0.0
H1818 H 0.80415 0.18669 0.33906 0.0
C1819 C 0.78433 0.23708 0.29942 0.0
C1820 C 0.76972 0.22446 0.29337 0.0
C1821 C 0.79361 0.23459 0.31686 0.0
C1822 C 0.80452 0.19749 0.35014 0.0
H1823 H 0.82201 0.1598 0.42697 0.0
H1824 H 0.83022 0.17764 0.39876 0.0
H1825 H 0.81245 0.17788 0.37099 0.0
H1826 H 0.75317 0.19963 0.3011 0.0
H1827 H 0.76933 0.19532 0.33115 0.0
H1828 H 0.79486 0.24373 0.35832 0.0
C1829 C 0.81938 0.18308 0.40829 0.0
C1830 C 0.80952 0.19253 0.3685 0.0
C1831 C 0.81478 0.17289 0.42448 0.0
C1832 C 0.76439 0.20957 0.30521 0.0
C1833 C 0.77374 0.20701 0.3224 0.0
C1834 C 0.79939 0.22951 0.36093 0.0
C1835 C 0.8088 0.199 0.40353 0.0
C1836 C 0.80868 0.20576 0.38361 0.0
C1837 C 0.78858 0.2193 0.32828 0.0
C1838 C 0.79845 0.21574 0.3464 0.0
H1839 H 0.7799 0.20098 0.44252 0.0
H1840 H 0.78695 0.21815 0.4137 0.0
H1841 H 0.80408 0.2352 0.39064 0.0
H1842 H 0.78871 0.24874 0.29063 0.0
H1843 H 0.80496 0.2443 0.32121 0.0
C1844 C 0.61276 0.95921 0.19255 0.0
C1845 C 0.60252 0.94986 0.20686 0.0
C1846 C 0.6041 0.96261 0.17504 0.0
C1847 C 0.56086 0.95167 0.14566 0.0
H1848 H 0.56366 0.00476 0.13395 0.0
C1849 C 0.5002 0.98791 0.10746 0.0
C1850 C 0.50504 -0.00096 0.09179 0.0
C1851 C 0.51438 0.9816 0.11961 0.0
C1852 C 0.56295 0.98986 0.13687 0.0
H1853 H 0.57604 0.93507 0.21347 0.0
H1854 H 0.56097 0.941 0.18312 0.0
H1855 H 0.58576 0.99198 0.15711 0.0
H1856 H 0.52847 0.0133 0.07739 0.0
H1857 H 0.55323 0.00246 0.09898 0.0
H1858 H 0.53744 0.94979 0.12607 0.0
C1859 C 0.57562 0.94576 0.18527 0.0
C1860 C 0.57567 0.98249 0.15002 0.0
C1861 C 0.58422 0.94243 0.20274 0.0
C1862 C 0.52425 0.00471 0.0893 0.0
C1863 C 0.53845 -0.00151 0.1016 0.0
C1864 C 0.54808 0.95906 0.13264 0.0
C1865 C 0.58515 0.95657 0.17155 0.0
C1866 C 0.57436 0.96343 0.15498 0.0
C1867 C 0.53367 0.9864 0.11649 0.0
C1868 C 0.54864 0.97833 0.12857 0.0
H1869 H 0.62694 0.96501 0.19529 0.0
H1870 H 0.61189 0.97072 0.1646 0.0
H1871 H 0.55972 0.93687 0.14894 0.0
H1872 H 0.48556 0.98335 0.1099 0.0
H1873 H 0.51028 0.97264 0.13129 0.0
C1874 C 0.68315 0.84435 0.94836 0.0
C1875 C 0.69622 0.8424 0.96332 0.0
C1876 C 0.68568 0.8345 0.9312 0.0
C1877 C 0.7148 0.79656 0.90815 0.0
H1878 H 0.70299 0.82372 0.86238 0.0
C1879 C 0.75052 0.78733 0.83426 0.0
C1880 C 0.73809 0.78549 0.8186 0.0
C1881 C 0.74324 0.79065 0.85248 0.0
C1882 C 0.70611 0.81588 0.87506 0.0
H1883 H 0.72204 0.82857 0.97225 0.0
H1884 H 0.7271 0.81227 0.9421 0.0
H1885 H 0.69421 0.83695 0.8932 0.0
H1886 H 0.70831 0.78501 0.80976 0.0
H1887 H 0.69569 0.79144 0.84161 0.0
H1888 H 0.72797 0.77617 0.88969 0.0
C1889 C 0.71447 0.82075 0.94368 0.0
C1890 C 0.70099 0.82337 0.89276 0.0
C1891 C 0.71168 0.83024 0.96096 0.0
C1892 C 0.71823 0.78632 0.82158 0.0
C1893 C 0.71099 0.79002 0.83973 0.0
C1894 C 0.7203 0.78928 0.89043 0.0
C1895 C 0.7016 0.82287 0.92848 0.0
C1896 C 0.70549 0.81395 0.90959 0.0
C1897 C 0.72347 0.79252 0.85523 0.0
C1898 C 0.71614 0.79901 0.87381 0.0
H1899 H 0.67096 0.85346 0.94992 0.0
H1900 H 0.67521 0.83617 0.92003 0.0
H1901 H 0.71812 0.78866 0.92072 0.0
H1902 H 0.76588 0.78667 0.83236 0.0
H1903 H 0.75309 0.79267 0.86428 0.0
C1904 C 0.76148 0.89843 0.02904 0.0
C1905 C 0.74661 0.90792 0.02 0.0
C1906 C 0.77949 0.90696 0.03125 0.0
C1907 C 0.81016 0.94342 0.01037 0.0
H1908 H 0.8406 0.93739 0.05599 0.0
C1909 C 0.8903 0.95946 0.01101 0.0
C1910 C 0.89796 0.96976 0.02656 0.0
C1911 C 0.87167 0.95232 0.01156 0.0
C1912 C 0.83218 0.93933 0.04325 0.0
H1913 H 0.73891 0.93396 0.00652 0.0
H1914 H 0.7703 0.94886 0.01052 0.0
H1915 H 0.80783 0.92479 0.05472 0.0
H1916 H 0.89221 0.98013 0.05518 0.0
H1917 H 0.85935 0.96766 0.05607 0.0
H1918 H 0.83434 0.95803 -0.00108 0.0
C1919 C 0.76808 0.93473 0.01567 0.0
C1920 C 0.81352 0.93197 0.04244 0.0
C1921 C 0.75008 0.9262 0.01342 0.0
C1922 C 0.8867 0.97228 0.04295 0.0
C1923 C 0.86794 0.96512 0.04349 0.0
C1924 C 0.82875 0.95075 0.01118 0.0
C1925 C 0.78301 0.92515 0.02449 0.0
C1926 C 0.8024 0.93378 0.02591 0.0
C1927 C 0.86017 0.95534 0.02765 0.0
C1928 C 0.84004 0.94855 0.0275 0.0
H1929 H 0.75929 0.88433 0.03429 0.0
H1930 H 0.79078 0.89912 0.03788 0.0
H1931 H 0.80204 0.9449 -0.00263 0.0
H1932 H 0.89863 0.95701 -0.00177 0.0
H1933 H 0.86623 0.94447 -0.00069 0.0
C1934 C 0.32453 0.54732 -0.00085 0.0
C1935 C 0.31933 0.56362 0.98956 0.0
C1936 C 0.33944 0.53626 0.99239 0.0
C1937 C 0.38275 0.53825 0.96303 0.0
H1938 H 0.3802 0.48415 0.96903 0.0
C1939 C 0.43846 0.48227 0.98543 0.0
C1940 C 0.45392 0.48704 0.97364 0.0
C1941 C 0.41998 0.48749 0.98068 0.0
C1942 C 0.38101 0.4992 0.967 0.0
H1943 H 0.32582 0.58115 0.96534 0.0
H1944 H 0.35184 0.56177 0.95352 0.0
H1945 H 0.35159 0.50277 0.97439 0.0
H1946 H 0.46214 0.49938 0.94684 0.0
H1947 H 0.42965 0.5089 0.93864 0.0
H1948 H 0.41234 0.53479 0.95645 0.0
C1949 C 0.34444 0.55763 0.96635 0.0
C1950 C 0.36472 0.50989 0.97023 0.0
C1951 C 0.32956 0.56876 0.97317 0.0
C1952 C 0.4504 0.49552 0.95613 0.0
C1953 C 0.43187 0.50105 0.9515 0.0
C1954 C 0.399 0.52755 0.9597 0.0
C1955 C 0.34945 0.54119 0.97581 0.0
C1956 C 0.36564 0.5296 0.96909 0.0
C1957 C 0.41667 0.49783 0.96419 0.0
C1958 C 0.39849 0.50803 0.96245 0.0
H1959 H 0.31698 0.54298 0.01184 0.0
H1960 H 0.34325 0.52394 0.0003 0.0
H1961 H 0.38398 0.5534 0.96209 0.0
H1962 H 0.44085 0.47565 -0.00103 0.0
H1963 H 0.4086 0.48492 0.99082 0.0
C1964 C 0.13176 0.52784 0.74531 0.0
C1965 C 0.11366 0.52536 0.73684 0.0
C1966 C 0.14361 0.5429 0.74035 0.0
C1967 C 0.15417 0.57703 0.70343 0.0
H1968 H 0.17711 0.60547 0.74538 0.0
C1969 C 0.19736 0.64765 0.69648 0.0
C1970 C 0.21224 0.65064 0.70966 0.0
C1971 C 0.18598 0.63127 0.69726 0.0
C1972 C 0.17108 0.59752 0.73347 0.0
H1973 H 0.09395 0.53656 0.7162 0.0
H1974 H 0.11486 0.56302 0.70749 0.0
H1975 H 0.15534 0.57947 0.75194 0.0
H1976 H 0.22825 0.63842 0.73259 0.0
H1977 H 0.2091 0.60959 0.7334 0.0
H1978 H 0.17017 0.59516 0.68496 0.0
C1979 C 0.11976 0.5532 0.71796 0.0
C1980 C 0.15853 0.58269 0.73726 0.0
C1981 C 0.10778 0.53816 0.72306 0.0
C1982 C 0.2167 0.63644 0.72242 0.0
C1983 C 0.20562 0.62005 0.72298 0.0
C1984 C 0.16691 0.59191 0.69961 0.0
C1985 C 0.1377 0.55578 0.72673 0.0
C1986 C 0.15014 0.57214 0.72232 0.0
C1987 C 0.18955 0.61769 0.7111 0.0
C1988 C 0.17571 0.60211 0.71463 0.0
H1989 H 0.13679 0.51822 0.75592 0.0
H1990 H 0.15747 0.54445 0.74717 0.0
H1991 H 0.14788 0.56906 0.69167 0.0
H1992 H 0.19363 0.65853 0.68662 0.0
H1993 H 0.17372 0.62983 0.68789 0.0
C1994 C 0.14937 0.38867 0.49922 0.0
C1995 C 0.16554 0.3991 0.50535 0.0
C1996 C 0.1323 0.39777 0.49512 0.0
C1997 C 0.10679 0.44139 0.50587 0.0
H1998 H 0.07605 0.42736 0.46173 0.0
C1999 C 0.03836 0.48062 0.49048 0.0
C2000 C 0.02216 0.46901 0.48736 0.0
C2001 C 0.05669 0.47327 0.48902 0.0
C2002 C 0.08449 0.43138 0.47412 0.0
H2003 H 0.17658 0.42718 0.51194 0.0
H2004 H 0.14693 0.44296 0.50477 0.0
H2005 H 0.10631 0.41153 0.46735 0.0
H2006 H 0.01254 0.44097 0.47867 0.0
H2007 H 0.0445 0.42809 0.47647 0.0
H2008 H 0.08495 0.46089 0.51296 0.0
C2009 C 0.14733 0.42778 0.5033 0.0
C2010 C 0.10174 0.42229 0.47737 0.0
C2011 C 0.16433 0.41873 0.50736 0.0
C2012 C 0.02472 0.45029 0.48125 0.0
C2013 C 0.04307 0.4429 0.47991 0.0
C2014 C 0.0896 0.45043 0.50265 0.0
C2015 C 0.13113 0.41742 0.49715 0.0
C2016 C 0.113 0.42715 0.49335 0.0
C2017 C 0.05919 0.45413 0.48454 0.0
C2018 C 0.07819 0.44548 0.4868 0.0
H2019 H 0.14991 0.37353 0.4975 0.0
H2020 H 0.11996 0.38941 0.49062 0.0
H2021 H 0.115 0.44523 0.51847 0.0
H2022 H 0.0369 0.49519 0.49492 0.0
H2023 H 0.06889 0.48239 0.49221 0.0
C2024 C 0.87644 0.98129 0.76072 0.0
C2025 C 0.89633 0.97875 0.76167 0.0
C2026 C 0.86384 0.9661 0.76296 0.0
C2027 C 0.85783 0.91927 0.78204 0.0
H2028 H 0.82337 0.91052 0.73941 0.0
C2029 C 0.81521 0.84974 0.77152 0.0
C2030 C 0.79726 0.85022 0.76257 0.0
C2031 C 0.82657 0.866 0.77316 0.0
C2032 C 0.83256 0.91291 0.75165 0.0
H2033 H 0.91856 0.95847 0.76668 0.0
H2034 H 0.89634 0.93189 0.77095 0.0
H2035 H 0.8445 0.93801 0.73984 0.0
H2036 H 0.77669 0.86821 0.74914 0.0
H2037 H 0.7961 0.89678 0.75273 0.0
H2038 H 0.84568 0.89441 0.79411 0.0
C2039 C 0.89065 0.94568 0.76831 0.0
C2040 C 0.84475 0.92861 0.7518 0.0
C2041 C 0.90332 0.96084 0.76578 0.0
C2042 C 0.79058 0.8674 0.7559 0.0
C2043 C 0.80178 0.88374 0.75786 0.0
C2044 C 0.84538 0.90369 0.78207 0.0
C2045 C 0.87085 0.94814 0.76648 0.0
C2046 C 0.85756 0.93184 0.76691 0.0
C2047 C 0.82009 0.88318 0.76618 0.0
C2048 C 0.83269 0.90023 0.76678 0.0
H2049 H 0.87056 -0.00511 0.75759 0.0
H2050 H 0.8486 0.96832 0.76162 0.0
H2051 H 0.86755 0.92159 0.7939 0.0
H2052 H 0.82077 0.83665 0.77669 0.0
H2053 H 0.84068 0.86493 0.77937 0.0
C2054 C 0.70182 0.14359 0.48787 0.0
C2055 C 0.71202 0.1327 0.47457 0.0
C2056 C 0.68473 0.13667 0.49564 0.0
C2057 C 0.66055 0.09119 0.50442 0.0
H2058 H 0.61604 0.12136 0.51517 0.0
C2059 C 0.59285 0.05866 0.53812 0.0
C2060 C 0.57596 0.06283 0.52832 0.0
C2061 C 0.60969 0.06905 0.53478 0.0
C2062 C 0.6284 0.11277 0.51231 0.0
H2063 H 0.71162 0.10683 0.45779 0.0
H2064 H 0.68158 0.09505 0.47085 0.0
H2065 H 0.64431 0.13596 0.50092 0.0
H2066 H 0.56319 0.08188 0.50829 0.0
H2067 H 0.59232 0.09962 0.50237 0.0
H2068 H 0.64442 0.06783 0.51499 0.0
C2069 C 0.68706 0.10861 0.4758 0.0
C2070 C 0.64462 0.12116 0.50425 0.0
C2071 C 0.70413 0.11545 0.46814 0.0
C2072 C 0.576 0.07814 0.51594 0.0
C2073 C 0.59269 0.0885 0.51269 0.0
C2074 C 0.64435 0.0828 0.51243 0.0
C2075 C 0.67754 0.11881 0.49014 0.0
C2076 C 0.6607 0.11036 0.49981 0.0
C2077 C 0.60983 0.08385 0.52173 0.0
C2078 C 0.62793 0.09339 0.51606 0.0
H2079 H 0.7076 0.15691 0.49317 0.0
H2080 H 0.67771 0.14488 0.50664 0.0
H2081 H 0.6729 0.08257 0.50159 0.0
H2082 H 0.59323 0.047 0.54781 0.0
H2083 H 0.62267 0.06527 0.54211 0.0
C2084 C 0.13729 0.41538 0.79545 0.0
C2085 C 0.14013 0.43452 0.79169 0.0
C2086 C 0.15219 0.40483 0.80271 0.0
C2087 C 0.20472 0.40516 0.80245 0.0
H2088 H 0.19576 0.35763 0.8273 0.0
C2089 C 0.23965 0.32661 0.81159 0.0
C2090 C 0.24413 0.324 0.79224 0.0
C2091 C 0.23153 0.34345 0.818 0.0
C2092 C 0.19877 0.37105 0.82081 0.0
H2093 H 0.16017 0.45804 0.79404 0.0
H2094 H 0.18603 0.43977 0.80729 0.0
H2095 H 0.17118 0.38141 0.8283 0.0
H2096 H 0.24531 0.3375 0.76482 0.0
H2097 H 0.23109 0.36645 0.77579 0.0
H2098 H 0.23218 0.39468 0.79474 0.0
C2099 C 0.17253 0.43272 0.80405 0.0
C2100 C 0.18452 0.38459 0.82111 0.0
C2101 C 0.15771 0.4432 0.79649 0.0
C2102 C 0.24179 0.33899 0.77978 0.0
C2103 C 0.23382 0.35574 0.78616 0.0
C2104 C 0.21905 0.39175 0.8024 0.0
C2105 C 0.17018 0.41325 0.80665 0.0
C2106 C 0.18687 0.40132 0.81093 0.0
C2107 C 0.22796 0.35795 0.80519 0.0
C2108 C 0.21575 0.37408 0.81051 0.0
H2109 H 0.12385 0.40834 0.79193 0.0
H2110 H 0.14985 0.38984 0.8042 0.0
H2111 H 0.20718 0.41786 0.79448 0.0
H2112 H 0.2414 0.31532 0.82155 0.0
H2113 H 0.22733 0.34481 0.83279 0.0
C2114 C 0.36866 0.60038 0.25389 0.0
C2115 C 0.36585 0.58393 0.24282 0.0
C2116 C 0.35344 0.61246 0.25745 0.0
C2117 C 0.30735 0.62595 0.23753 0.0
H2118 H 0.29901 0.64919 0.28711 0.0
C2119 C 0.24532 0.67597 0.2486 0.0
C2120 C 0.25012 0.69313 0.25774 0.0
C2121 C 0.25757 0.66074 0.2496 0.0
C2122 C 0.30121 0.64285 0.27318 0.0
H2123 H 0.34488 0.56709 0.22698 0.0
H2124 H 0.31842 0.58815 0.23316 0.0
H2125 H 0.32475 0.6266 0.28287 0.0
H2126 H 0.27085 0.70737 0.2762 0.0
H2127 H 0.29243 0.68093 0.27757 0.0
H2128 H 0.28432 0.64246 0.22759 0.0
C2129 C 0.33238 0.59181 0.23896 0.0
C2130 C 0.31594 0.62996 0.27075 0.0
C2131 C 0.34754 0.57974 0.23546 0.0
C2132 C 0.26676 0.69434 0.26897 0.0
C2133 C 0.27911 0.67914 0.26982 0.0
C2134 C 0.29272 0.63884 0.23991 0.0
C2135 C 0.33518 0.60832 0.24992 0.0
C2136 C 0.31922 0.62149 0.25286 0.0
C2137 C 0.27496 0.6624 0.25959 0.0
C2138 C 0.28954 0.64755 0.25772 0.0
H2139 H 0.38259 0.60394 0.25982 0.0
H2140 H 0.35604 0.62521 0.26577 0.0
H2141 H 0.30972 0.61988 0.2235 0.0
H2142 H 0.23245 0.67452 0.24006 0.0
H2143 H 0.25374 0.64786 0.24195 0.0
C2144 C 0.52848 0.68277 0.61837 0.0
C2145 C 0.51922 0.69898 0.61229 0.0
C2146 C 0.52485 0.6654 0.60936 0.0
C2147 C 0.50513 0.62904 0.59719 0.0
H2148 H 0.49328 0.62498 0.54342 0.0
C2149 C 0.47743 0.55926 0.56237 0.0
C2150 C 0.48429 0.55508 0.54402 0.0
C2151 C 0.48089 0.57705 0.5707 0.0
C2152 C 0.49673 0.62576 0.55843 0.0
H2153 H 0.49933 0.7098 0.59163 0.0
H2154 H 0.49256 0.67959 0.57635 0.0
H2155 H 0.50308 0.65514 0.55701 0.0
H2156 H 0.50038 0.56621 0.52016 0.0
H2157 H 0.50691 0.59656 0.53478 0.0
H2158 H 0.49975 0.5994 0.59834 0.0
C2159 C 0.50299 0.68021 0.58775 0.0
C2160 C 0.50211 0.6432 0.56631 0.0
C2161 C 0.50686 0.69761 0.59654 0.0
C2162 C 0.49462 0.56899 0.53422 0.0
C2163 C 0.49829 0.58654 0.5426 0.0
C2164 C 0.50005 0.61151 0.58923 0.0
C2165 C 0.51165 0.66381 0.59427 0.0
C2166 C 0.50639 0.64509 0.58579 0.0
C2167 C 0.49147 0.59087 0.56092 0.0
C2168 C 0.49587 0.60963 0.56972 0.0
H2169 H 0.53816 0.68341 0.63042 0.0
H2170 H 0.53219 0.65318 0.61446 0.0
H2171 H 0.50793 0.62999 0.61233 0.0
H2172 H 0.46943 0.54883 0.57027 0.0
H2173 H 0.47521 0.57997 0.58476 0.0
C2174 C 0.57216 0.19043 0.85741 0.0
C2175 C 0.55229 0.19177 0.85544 0.0
C2176 C 0.5829 0.182 0.84295 0.0
C2177 C 0.57845 0.17898 0.79159 0.0
H2178 H 0.63176 0.16585 0.79661 0.0
C2179 C 0.657 0.19035 0.75379 0.0
C2180 C 0.65555 0.20999 0.75231 0.0
C2181 C 0.64176 0.17969 0.76097 0.0
C2182 C 0.61677 0.16899 0.79469 0.0
H2183 H 0.52768 0.18307 0.83849 0.0
H2184 H 0.54635 0.16772 0.81359 0.0
H2185 H 0.60967 0.15937 0.82252 0.0
H2186 H 0.6364 0.23354 0.75523 0.0
H2187 H 0.60992 0.21507 0.76772 0.0
H2188 H 0.5858 0.18953 0.7642 0.0
C2189 C 0.55377 0.17378 0.82582 0.0
C2190 C 0.60415 0.16547 0.80965 0.0
C2191 C 0.54309 0.18254 0.84008 0.0
C2192 C 0.63802 0.21848 0.75641 0.0
C2193 C 0.62276 0.20782 0.76339 0.0
C2194 C 0.59102 0.18238 0.77662 0.0
C2195 C 0.57387 0.17456 0.82646 0.0
C2196 C 0.5852 0.17169 0.8088 0.0
C2197 C 0.62476 0.18847 0.76654 0.0
C2198 C 0.61056 0.17868 0.77861 0.0
H2199 H 0.57954 0.19739 0.8692 0.0
H2200 H 0.59835 0.18296 0.84397 0.0
H2201 H 0.56396 0.18395 0.79028 0.0
H2202 H 0.6703 0.18336 0.75061 0.0
H2203 H 0.64362 0.16479 0.76314 0.0
C2204 C 0.98095 0.3235 0.12388 0.0
C2205 C 0.98598 0.30766 0.11287 0.0
C2206 C 0.98331 0.34154 0.11667 0.0
C2207 C -0.0088 0.36927 0.07371 0.0
H2208 H 0.02196 0.4014 0.10731 0.0
C2209 C 0.02136 0.44019 0.04841 0.0
C2210 C 0.02012 0.45548 0.06127 0.0
C2211 C 0.01824 0.42182 0.05454 0.0
C2212 C 0.01318 0.39274 0.09782 0.0
H2213 H -0.00428 0.2982 0.08505 0.0
H2214 H -0.00048 0.32979 0.07235 0.0
H2215 H 0.0116 0.37042 0.11779 0.0
H2216 H 0.01557 0.4634 0.09085 0.0
H2217 H 0.00975 0.43149 0.10147 0.0
H2218 H -0.00759 0.39167 0.05386 0.0
C2219 C -0.00604 0.32821 0.08663 0.0
C2220 C 0.00723 0.37499 0.10385 0.0
C2221 C -0.00824 0.31013 0.0939 0.0
C2222 C 0.01675 0.45193 0.08059 0.0
C2223 C 0.01341 0.43358 0.08668 0.0
C2224 C -0.00304 0.38713 0.06774 0.0
C2225 C -0.00946 0.34408 0.09825 0.0
C2226 C -0.00384 0.36311 0.09187 0.0
C2227 C 0.01361 0.41834 0.07363 0.0
C2228 C 0.00804 0.39909 0.07973 0.0
H2229 H 0.97637 0.32209 0.13851 0.0
H2230 H 0.98024 0.35356 0.12579 0.0
H2231 H 0.98263 0.36038 0.06423 0.0
H2232 H 0.0241 0.44244 0.03344 0.0
H2233 H 0.01902 0.41039 0.04419 0.0
C2234 C 0.96625 0.74973 0.36676 0.0
C2235 C 0.98207 0.75718 0.35696 0.0
C2236 C 0.94772 0.75259 0.36011 0.0
C2237 C 0.92288 0.76241 0.31537 0.0
H2238 H 0.87856 0.7667 0.34818 0.0
C2239 C 0.83611 0.77361 0.31039 0.0
C2240 C 0.83154 0.76076 0.29558 0.0
C2241 C 0.85461 0.77479 0.31774 0.0
C2242 C 0.8908 0.76573 0.3388 0.0
H2243 H -0.00913 0.77467 0.33344 0.0
H2244 H 0.95853 0.78007 0.32217 0.0
H2245 H 0.91047 0.76746 0.36211 0.0
H2246 H 0.84285 0.73921 0.2767 0.0
H2247 H 0.87517 0.74097 0.28985 0.0
H2248 H 0.90324 0.76101 0.29204 0.0
C2249 C 0.96045 0.77152 0.3346 0.0
C2250 C 0.90907 0.76596 0.34681 0.0
C2251 C 0.97896 0.76852 0.34113 0.0
C2252 C 0.84595 0.74929 0.28807 0.0
C2253 C 0.86447 0.75037 0.29554 0.0
C2254 C 0.90462 0.76229 0.30736 0.0
C2255 C 0.94467 0.7631 0.34365 0.0
C2256 C 0.9253 0.76414 0.33519 0.0
C2257 C 0.86894 0.76304 0.31056 0.0
C2258 C 0.88838 0.76378 0.31899 0.0
H2259 H 0.96821 0.74091 0.37899 0.0
H2260 H 0.93588 0.74579 0.36734 0.0
H2261 H 0.93506 0.76069 0.30603 0.0
H2262 H 0.82538 0.78282 0.31637 0.0
H2263 H 0.85767 0.78495 0.32904 0.0
C2264 C 0.56787 0.29999 0.89281 0.0
C2265 C 0.55634 0.28638 0.90174 0.0
C2266 C 0.57204 0.31718 0.90202 0.0
C2267 C 0.56714 0.34318 0.94857 0.0
H2268 H 0.55801 0.38561 0.91614 0.0
C2269 C 0.53417 0.42197 0.9544 0.0
C2270 C 0.54251 0.42852 0.97149 0.0
C2271 C 0.54015 0.40522 0.94585 0.0
C2272 C 0.56053 0.37392 0.92542 0.0
H2273 H 0.54145 0.27958 0.9279 0.0
H2274 H 0.54823 0.30944 0.9436 0.0
H2275 H 0.56182 0.35455 0.90194 0.0
H2276 H 0.56402 0.42284 -0.00718 0.0
H2277 H 0.57477 0.39379 0.97767 0.0
H2278 H 0.56437 0.36232 0.97213 0.0
C2279 C 0.55431 0.30694 0.92964 0.0
C2280 C 0.56307 0.35611 0.91724 0.0
C2281 C 0.55025 0.28978 0.92052 0.0
C2282 C 0.55716 0.41807 0.97974 0.0
C2283 C 0.5633 0.40139 0.97107 0.0
C2284 C 0.56437 0.36096 0.95677 0.0
C2285 C 0.56471 0.3211 0.92029 0.0
C2286 C 0.56579 0.3404 0.92875 0.0
C2287 C 0.5548 0.39471 0.95406 0.0
C2288 C 0.56041 0.37643 0.94531 0.0
H2289 H 0.57294 0.29774 0.8784 0.0
H2290 H 0.58042 0.32765 0.89455 0.0
H2291 H 0.56959 0.33146 0.95784 0.0
H2292 H 0.52278 0.42964 0.94772 0.0
H2293 H 0.53294 0.40032 0.93301 0.0
C2294 C 0.95462 0.21119 0.19345 0.0
C2295 C 0.95609 0.22708 0.18189 0.0
C2296 C 0.93692 0.20229 0.19628 0.0
C2297 C 0.88741 0.19972 0.17661 0.0
H2298 H 0.87397 0.18418 0.22751 0.0
C2299 C 0.80905 0.18792 0.19618 0.0
C2300 C 0.80433 0.19903 0.21214 0.0
C2301 C 0.8282 0.1836 0.19252 0.0
C2302 C 0.87755 0.18827 0.21315 0.0
H2303 H 0.94017 0.24645 0.16473 0.0
H2304 H 0.90921 0.23154 0.17039 0.0
H2305 H 0.90677 0.19363 0.22062 0.0
H2306 H 0.81546 0.21269 0.23779 0.0
H2307 H 0.84847 0.20558 0.23135 0.0
H2308 H 0.85785 0.19607 0.16963 0.0
C2309 C 0.92178 0.22546 0.17668 0.0
C2310 C 0.89641 0.19356 0.20915 0.0
C2311 C 0.93948 0.2342 0.17366 0.0
C2312 C 0.81873 0.20438 0.22517 0.0
C2313 C 0.83769 0.20003 0.22161 0.0
C2314 C 0.86851 0.1947 0.18069 0.0
C2315 C 0.92031 0.20923 0.18778 0.0
C2316 C 0.90134 0.20022 0.19107 0.0
C2317 C 0.84277 0.19022 0.20489 0.0
C2318 C 0.8632 0.18985 0.19927 0.0
H2319 H 0.96722 0.20523 0.19979 0.0
H2320 H 0.93633 0.18978 0.20482 0.0
H2321 H 0.89089 0.20417 0.16235 0.0
H2322 H 0.79816 0.1835 0.186 0.0
H2323 H 0.83168 0.17584 0.17962 0.0
C2324 C -0.00906 0.69063 0.44027 0.0
C2325 C 0.00874 0.69992 0.44223 0.0
C2326 C 0.98546 0.67675 0.45302 0.0
C2327 C 0.00842 0.6414 0.48105 0.0
H2328 H 0.95618 0.628 0.49436 0.0
C2329 C 0.98862 0.56815 0.50948 0.0
C2330 C 0.97261 0.55948 0.50066 0.0
C2331 C -0.00751 0.5873 0.5071 0.0
C2332 C 0.97085 0.63157 0.49075 0.0
H2333 H 0.034 0.70319 0.46001 0.0
H2334 H 0.02437 0.67888 0.48234 0.0
H2335 H 0.96352 0.65944 0.48268 0.0
H2336 H 0.94796 0.56423 0.48268 0.0
H2337 H 0.95493 0.59744 0.47821 0.0
H2338 H 0.01565 0.61332 0.48818 0.0
C2339 C 0.0148 0.68219 0.47079 0.0
C2340 C 0.97505 0.64957 0.48415 0.0
C2341 C 0.02027 0.69614 0.45805 0.0
C2342 C 0.96043 0.57043 0.48965 0.0
C2343 C 0.96431 0.58954 0.48725 0.0
C2344 C 0.00422 0.62341 0.48761 0.0
C2345 C -0.00232 0.67187 0.46796 0.0
C2346 C -0.00623 0.65445 0.47864 0.0
C2347 C 0.98044 0.59817 0.49585 0.0
C2348 C 0.98529 0.6181 0.49192 0.0
H2349 H 0.98169 0.69334 0.42829 0.0
H2350 H 0.97224 0.66898 0.45036 0.0
H2351 H 0.02295 0.64462 0.47668 0.0
H2352 H -0.00178 0.56016 0.5182 0.0
H2353 H 0.00495 0.59358 0.51402 0.0
C2354 C 0.55628 0.79496 0.67973 0.0
C2355 C 0.56006 0.78275 0.66431 0.0
C2356 C 0.57112 0.80525 0.68849 0.0
C2357 C 0.60609 0.81394 0.71256 0.0
H2358 H 0.65239 0.82607 0.68471 0.0
C2359 C 0.67944 0.80514 0.74367 0.0
C2360 C 0.69548 0.81469 0.73634 0.0
C2361 C 0.66119 0.80887 0.737 0.0
C2362 C 0.63947 0.82333 0.69277 0.0
H2363 H 0.58219 0.77177 0.64584 0.0
H2364 H 0.60821 0.78889 0.66165 0.0
H2365 H 0.62321 0.81826 0.6674 0.0
H2366 H 0.7048 0.83699 0.71766 0.0
H2367 H 0.67267 0.8437 0.70608 0.0
H2368 H 0.62237 0.819 0.73793 0.0
C2369 C 0.59376 0.79113 0.66664 0.0
C2370 C 0.62279 0.81848 0.6828 0.0
C2371 C 0.57888 0.78109 0.65771 0.0
C2372 C 0.69271 0.82926 0.72342 0.0
C2373 C 0.67433 0.83304 0.71673 0.0
C2374 C 0.62268 0.81911 0.72253 0.0
C2375 C 0.59009 0.80331 0.68218 0.0
C2376 C 0.60624 0.81267 0.69258 0.0
C2377 C 0.65847 0.82232 0.72289 0.0
C2378 C 0.63985 0.82273 0.71275 0.0
H2379 H 0.54181 0.79672 0.68492 0.0
H2380 H 0.56772 0.81466 0.70024 0.0
H2381 H 0.59361 0.80967 0.72063 0.0
H2382 H 0.68105 0.79401 0.75384 0.0
H2383 H 0.64943 0.80016 0.74197 0.0
C2384 C 0.58826 0.49437 0.69747 0.0
C2385 C 0.60833 0.4953 0.69729 0.0
C2386 C 0.5783 0.48507 0.68279 0.0
C2387 C 0.58427 0.47208 0.63256 0.0
H2388 H 0.53459 0.44811 0.6396 0.0
C2389 C 0.53674 0.45596 0.56847 0.0
C2390 C 0.51877 0.46441 0.57031 0.0
C2391 C 0.54797 0.45293 0.58452 0.0
C2392 C 0.54852 0.45462 0.63744 0.0
H2393 H 0.63379 0.48642 0.6822 0.0
H2394 H 0.61641 0.46993 0.6567 0.0
H2395 H 0.55453 0.45591 0.66731 0.0
H2396 H 0.49771 0.47457 0.59057 0.0
H2397 H 0.51738 0.46952 0.61846 0.0
H2398 H 0.57804 0.47151 0.60284 0.0
C2399 C 0.60834 0.47672 0.66795 0.0
C2400 C 0.55989 0.45916 0.65327 0.0
C2401 C 0.61829 0.48617 0.68255 0.0
C2402 C 0.51159 0.46825 0.58862 0.0
C2403 C 0.5228 0.46519 0.60466 0.0
C2404 C 0.57297 0.46747 0.61677 0.0
C2405 C 0.58822 0.47637 0.66772 0.0
C2406 C 0.5776 0.46855 0.65102 0.0
C2407 C 0.5414 0.45822 0.6027 0.0
C2408 C 0.55471 0.45928 0.61908 0.0
H2409 H 0.58021 0.50124 0.7087 0.0
H2410 H 0.56281 0.48534 0.68291 0.0
H2411 H 0.5977 0.47951 0.63029 0.0
H2412 H 0.54261 0.4526 0.55458 0.0
H2413 H 0.56216 0.44728 0.58265 0.0
C2414 C 0.71387 0.37559 0.92757 0.0
C2415 C 0.71569 0.36869 0.94606 0.0
C2416 C 0.70854 0.36347 0.91253 0.0
C2417 C 0.69201 0.33584 0.88314 0.0
H2418 H 0.71795 0.28808 0.8844 0.0
C2419 C 0.68936 0.28304 0.81971 0.0
C2420 C 0.70722 0.27576 0.81439 0.0
C2421 C 0.68722 0.29268 0.83707 0.0
C2422 C 0.71059 0.30135 0.88383 0.0
H2423 H 0.71178 0.34415 0.96363 0.0
H2424 H 0.70199 0.3232 0.93754 0.0
H2425 H 0.71924 0.30901 0.91205 0.0
H2426 H 0.73664 0.27236 0.82348 0.0
H2427 H 0.73295 0.28927 0.85351 0.0
H2428 H 0.68432 0.32853 0.85444 0.0
C2429 C 0.70528 0.33778 0.93449 0.0
C2430 C 0.7111 0.31327 0.89979 0.0
C2431 C 0.71081 0.3498 0.94946 0.0
C2432 C 0.72268 0.27777 0.8271 0.0
C2433 C 0.72053 0.28737 0.84441 0.0
C2434 C 0.69156 0.32392 0.86712 0.0
C2435 C 0.70475 0.34429 0.91575 0.0
C2436 C 0.70214 0.33083 0.89952 0.0
C2437 C 0.70286 0.29518 0.84947 0.0
C2438 C 0.70123 0.30673 0.86716 0.0
H2439 H 0.71755 0.39008 0.92453 0.0
H2440 H 0.70842 0.36894 0.89825 0.0
H2441 H 0.68476 0.34917 0.88256 0.0
H2442 H 0.67713 0.2817 0.81029 0.0
H2443 H 0.67337 0.29835 0.84068 0.0
C2444 C 0.86993 0.52779 0.19481 0.0
C2445 C 0.87248 0.52495 0.21431 0.0
C2446 C 0.88438 0.53631 0.18419 0.0
C2447 C 0.91487 0.55796 0.16388 0.0
H2448 H 0.96546 0.53994 0.17574 0.0
C2449 C 0.97119 0.55756 0.10599 0.0
C2450 C 0.98127 0.54073 0.10449 0.0
C2451 C 0.96176 0.56231 0.12284 0.0
C2452 C 0.95143 0.54507 0.17217 0.0
H2453 H 0.89135 0.53011 0.2384 0.0
H2454 H 0.91636 0.54567 0.21999 0.0
H2455 H 0.93976 0.53586 0.19848 0.0
H2456 H -0.00947 0.51617 0.11939 0.0
H2457 H 0.97304 0.52359 0.14836 0.0
H2458 H 0.92585 0.56527 0.13679 0.0
C2459 C 0.90352 0.54073 0.21272 0.0
C2460 C 0.9367 0.54303 0.18541 0.0
C2461 C 0.88918 0.53189 0.22328 0.0
C2462 C 0.98282 0.52924 0.12034 0.0
C2463 C 0.97288 0.53366 0.13701 0.0
C2464 C 0.92945 0.55957 0.15048 0.0
C2465 C 0.90157 0.5425 0.19293 0.0
C2466 C 0.91801 0.54864 0.18102 0.0
C2467 C 0.96162 0.54992 0.13823 0.0
C2468 C 0.94772 0.55234 0.15409 0.0
H2469 H 0.85718 0.52257 0.18754 0.0
H2470 H 0.88242 0.53707 0.16895 0.0
H2471 H 0.90082 0.56302 0.16029 0.0
H2472 H 0.97012 0.56676 0.09393 0.0
H2473 H 0.95384 0.57526 0.12341 0.0
C2474 C 0.72667 0.64884 0.46244 0.0
C2475 C 0.74014 0.65366 0.47654 0.0
C2476 C 0.72789 0.65689 0.44451 0.0
C2477 C 0.75094 0.69818 0.42098 0.0
H2478 H 0.72591 0.67603 0.37664 0.0
C2479 C 0.74235 0.74128 0.35322 0.0
C2480 C 0.74273 0.73168 0.33566 0.0
C2481 C 0.74109 0.73126 0.37011 0.0
C2482 C 0.7333 0.6824 0.38872 0.0
H2483 H 0.76624 0.66929 0.48282 0.0
H2484 H 0.76954 0.68199 0.45103 0.0
H2485 H 0.72842 0.65794 0.40521 0.0
H2486 H 0.74225 0.70426 0.32176 0.0
H2487 H 0.74147 0.68677 0.35097 0.0
H2488 H 0.75728 0.72199 0.40406 0.0
C2489 C 0.75729 0.67299 0.45395 0.0
C2490 C 0.73441 0.67207 0.40537 0.0
C2491 C 0.75564 0.66549 0.4721 0.0
C2492 C 0.74165 0.71198 0.33518 0.0
C2493 C 0.74109 0.70195 0.35202 0.0
C2494 C 0.75043 0.70824 0.40415 0.0
C2495 C 0.74298 0.66948 0.44013 0.0
C2496 C 0.74304 0.67988 0.42186 0.0
C2497 C 0.74095 0.71141 0.36979 0.0
C2498 C 0.74141 0.70061 0.3878 0.0
H2499 H 0.71442 0.63992 0.46569 0.0
H2500 H 0.71638 0.65394 0.43455 0.0
H2501 H 0.75732 0.70502 0.43336 0.0
H2502 H 0.7431 0.7565 0.35388 0.0
H2503 H 0.74042 0.73916 0.38339 0.0
C2504 C 0.59226 0.56249 0.80068 0.0
C2505 C 0.60717 0.55012 0.79628 0.0
C2506 C 0.58585 0.56462 0.81941 0.0
C2507 C 0.59696 0.55308 0.86971 0.0
H2508 H 0.54184 0.54758 0.87387 0.0
C2509 C 0.53967 0.51751 0.92306 0.0
C2510 C 0.54603 0.52437 0.94088 0.0
C2511 C 0.54672 0.52523 0.90634 0.0
C2512 C 0.55725 0.54922 0.87295 0.0
H2513 H 0.62781 0.53116 0.80826 0.0
H2514 H 0.61641 0.53457 0.84075 0.0
H2515 H 0.55619 0.55329 0.84296 0.0
H2516 H 0.56452 0.54505 0.95509 0.0
H2517 H 0.5769 0.55853 0.92571 0.0
H2518 H 0.59801 0.54782 0.89957 0.0
C2519 C 0.60979 0.54283 0.82983 0.0
C2520 C 0.56548 0.55272 0.85527 0.0
C2521 C 0.61623 0.54075 0.81113 0.0
C2522 C 0.55936 0.53941 0.94158 0.0
C2523 C 0.5665 0.5471 0.92479 0.0
C2524 C 0.58871 0.54954 0.88741 0.0
C2525 C 0.5942 0.5544 0.8341 0.0
C2526 C 0.58547 0.55409 0.85334 0.0
C2527 C 0.56034 0.53998 0.907 0.0
C2528 C 0.56881 0.54693 0.88907 0.0
H2529 H 0.5851 0.57009 0.78959 0.0
H2530 H 0.574 0.57387 0.8223 0.0
H2531 H 0.6124 0.55435 0.86872 0.0
H2532 H 0.52939 0.50597 0.92196 0.0
H2533 H 0.54193 0.51921 0.89286 0.0
C2534 C 0.73758 0.3156 0.0319 0.0
C2535 C 0.74913 0.33099 0.03783 0.0
C2536 C 0.73515 0.30004 0.04351 0.0
C2537 C 0.75437 0.27627 0.0856 0.0
H2538 H 0.70144 0.26102 0.09352 0.0
C2539 C 0.7091 0.24482 0.15015 0.0
C2540 C 0.7217 0.23093 0.15621 0.0
C2541 C 0.71113 0.2526 0.13216 0.0
C2542 C 0.71629 0.265 0.09133 0.0
H2543 H 0.76791 0.34178 0.06017 0.0
H2544 H 0.76357 0.3146 0.08058 0.0
H2545 H 0.70928 0.28383 0.0691 0.0
H2546 H 0.74493 0.21286 0.14732 0.0
H2547 H 0.74837 0.22645 0.1159 0.0
H2548 H 0.76128 0.25816 0.10847 0.0
C2549 C 0.7565 0.31453 0.06686 0.0
C2550 C 0.72082 0.27796 0.07727 0.0
C2551 C 0.75892 0.33013 0.05523 0.0
C2552 C 0.7351 0.22368 0.14319 0.0
C2553 C 0.73718 0.23154 0.12523 0.0
C2554 C 0.74986 0.26325 0.09961 0.0
C2555 C 0.74424 0.29952 0.0613 0.0
C2556 C 0.73985 0.28409 0.07459 0.0
C2557 C 0.72579 0.24665 0.11989 0.0
C2558 C 0.73072 0.25784 0.10294 0.0
H2559 H 0.72995 0.31575 0.01848 0.0
H2560 H 0.72586 0.28857 0.03872 0.0
H2561 H 0.76918 0.28058 0.08371 0.0
H2562 H 0.69852 0.25063 0.15975 0.0
H2563 H 0.70214 0.26426 0.12848 0.0
C2564 C 0.87396 0.44753 0.30446 0.0
C2565 C 0.85995 0.46054 0.29959 0.0
C2566 C 0.87962 0.44573 0.32337 0.0
C2567 C 0.86881 0.46083 0.37331 0.0
H2568 H 0.92414 0.46161 0.37782 0.0
C2569 C 0.90944 0.48832 0.44009 0.0
C2570 C 0.92483 0.47754 0.44632 0.0
C2571 C 0.90027 0.48388 0.42288 0.0
C2572 C 0.90867 0.46116 0.37682 0.0
H2573 H 0.83976 0.48074 0.31089 0.0
H2574 H 0.84997 0.478 0.34371 0.0
H2575 H 0.90947 0.45653 0.34679 0.0
H2576 H 0.94271 0.45369 0.43933 0.0
H2577 H 0.92682 0.44613 0.40929 0.0
H2578 H 0.86822 0.46625 0.4034 0.0
C2579 C 0.85646 0.46898 0.33304 0.0
C2580 C 0.90022 0.45812 0.35905 0.0
C2581 C 0.85065 0.47062 0.31416 0.0
C2582 C 0.93091 0.46231 0.43495 0.0
C2583 C 0.92186 0.45797 0.41772 0.0
C2584 C 0.87729 0.46403 0.3911 0.0
C2585 C 0.87153 0.45707 0.33775 0.0
C2586 C 0.8802 0.45813 0.35703 0.0
C2587 C 0.90645 0.4687 0.41153 0.0
C2588 C 0.89731 0.46442 0.39296 0.0
H2589 H 0.88118 0.43935 0.29357 0.0
H2590 H 0.89091 0.43605 0.32661 0.0
H2591 H 0.85334 0.4607 0.37227 0.0
H2592 H 0.90437 0.5001 0.44855 0.0
H2593 H 0.88856 0.49251 0.4183 0.0
C2594 C 0.71102 0.70133 0.59217 0.0
C2595 C 0.71713 0.69598 0.57387 0.0
C2596 C 0.71551 0.71923 0.59951 0.0
C2597 C 0.7536 0.75415 0.59606 0.0
H2598 H 0.72279 0.77958 0.63408 0.0
C2599 C 0.75796 0.80488 0.66788 0.0
C2600 C 0.77139 0.79388 0.67734 0.0
C2601 C 0.75278 0.80052 0.64908 0.0
C2602 C 0.73153 0.77311 0.62314 0.0
H2603 H 0.7315 0.70572 0.54837 0.0
H2604 H 0.73937 0.73691 0.56129 0.0
H2605 H 0.70776 0.7568 0.61238 0.0
H2606 H 0.79205 0.77169 0.6737 0.0
H2607 H 0.78303 0.76404 0.64116 0.0
H2608 H 0.77756 0.76971 0.60753 0.0
C2609 C 0.73129 0.72719 0.56999 0.0
C2610 C 0.72292 0.75986 0.61087 0.0
C2611 C 0.72675 0.70931 0.56262 0.0
C2612 C 0.78142 0.78021 0.6669 0.0
C2613 C 0.77632 0.77592 0.64812 0.0
C2614 C 0.76222 0.76741 0.60835 0.0
C2615 C 0.7262 0.73214 0.58871 0.0
C2616 C 0.73405 0.74951 0.59793 0.0
C2617 C 0.76107 0.7852 0.63946 0.0
C2618 C 0.75146 0.77624 0.62272 0.0
H2619 H 0.70352 0.69144 0.60116 0.0
H2620 H 0.71157 0.72253 0.61408 0.0
H2621 H 0.76259 0.74642 0.58622 0.0
H2622 H 0.75013 0.81568 0.67546 0.0
H2623 H 0.74123 0.80813 0.64263 0.0
C2624 C 0.65632 0.62216 0.51039 0.0
C2625 C 0.66915 0.61466 0.52354 0.0
C2626 C 0.64209 0.61071 0.50199 0.0
C2627 C 0.62995 0.56082 0.49189 0.0
H2628 H 0.5775 0.57765 0.49113 0.0
C2629 C 0.56472 0.51144 0.49396 0.0
C2630 C 0.54737 0.51722 0.48604 0.0
C2631 C 0.5811 0.52282 0.49269 0.0
C2632 C 0.59213 0.57285 0.49075 0.0
H2633 H 0.67681 0.5895 0.53862 0.0
H2634 H 0.65191 0.5697 0.5242 0.0
H2635 H 0.60291 0.59943 0.50114 0.0
H2636 H 0.53414 0.53835 0.46865 0.0
H2637 H 0.56283 0.55806 0.46625 0.0
H2638 H 0.61907 0.53403 0.48214 0.0
C2639 C 0.65307 0.58428 0.52006 0.0
C2640 C 0.60667 0.58534 0.49657 0.0
C2641 C 0.66719 0.59568 0.52848 0.0
C2642 C 0.54721 0.53366 0.47521 0.0
C2643 C 0.56361 0.545 0.47388 0.0
C2644 C 0.61541 0.54834 0.48602 0.0
C2645 C 0.64054 0.59159 0.50655 0.0
C2646 C 0.62562 0.57926 0.49778 0.0
C2647 C 0.58046 0.54013 0.48338 0.0
C2648 C 0.59628 0.55406 0.48596 0.0
H2649 H 0.65754 0.63673 0.50625 0.0
H2650 H 0.63258 0.61671 0.49163 0.0
H2651 H 0.64452 0.5559 0.49233 0.0
H2652 H 0.56536 0.4988 0.5023 0.0
H2653 H 0.59383 0.51869 0.50024 0.0
C2654 C 0.19734 0.93486 0.52708 0.0
C2655 C 0.19964 0.91535 0.52806 0.0
C2656 C 0.1816 0.94335 0.53563 0.0
C2657 C 0.13257 0.93058 0.54947 0.0
H2658 H 0.13085 0.98355 0.5634 0.0
C2659 C 0.06111 0.96511 0.55299 0.0
C2660 C 0.06024 0.97975 0.53989 0.0
C2661 C 0.07868 0.95943 0.56003 0.0
C2662 C 0.13117 0.96868 0.55979 0.0
H2663 H 0.18836 0.88957 0.53995 0.0
H2664 H 0.16126 0.90444 0.55558 0.0
H2665 H 0.16179 0.96821 0.56013 0.0
H2666 H 0.07671 0.00135 0.52554 0.0
H2667 H 0.10755 0.99105 0.53741 0.0
H2668 H 0.10215 0.93109 0.54845 0.0
C2669 C 0.17113 0.91314 0.54759 0.0
C2670 C 0.14884 0.95992 0.55779 0.0
C2671 C 0.18663 0.9046 0.53867 0.0
C2672 C 0.07701 0.9899 0.53549 0.0
C2673 C 0.09466 0.98409 0.54242 0.0
C2674 C 0.11501 0.93924 0.55169 0.0
C2675 C 0.16806 0.93252 0.54564 0.0
C2676 C 0.14973 0.94095 0.55181 0.0
C2677 C 0.0957 0.96816 0.55392 0.0
C2678 C 0.11413 0.95853 0.55614 0.0
H2679 H 0.20726 0.94346 0.51902 0.0
H2680 H 0.17961 0.95823 0.53354 0.0
H2681 H 0.13256 0.91607 0.54455 0.0
H2682 H 0.04832 0.95732 0.55698 0.0
H2683 H 0.07908 0.94733 0.56917 0.0
C2684 C 0.32263 0.92667 0.74608 0.0
C2685 C 0.34049 0.9296 0.7374 0.0
C2686 C 0.31287 0.9095 0.74374 0.0
C2687 C 0.32235 0.85978 0.73073 0.0
H2688 H 0.26708 0.85523 0.73332 0.0
C2689 C 0.25877 0.79912 0.72336 0.0
C2690 C 0.26803 0.7844 0.73249 0.0
C2691 C 0.26704 0.81713 0.72317 0.0
C2692 C 0.28253 0.85621 0.73232 0.0
H2693 H 0.36156 0.91745 0.71843 0.0
H2694 H 0.34414 0.88783 0.71355 0.0
H2695 H 0.2821 0.88625 0.73228 0.0
H2696 H 0.29284 0.77708 0.74915 0.0
H2697 H 0.30685 0.80863 0.7496 0.0
H2698 H 0.32279 0.8298 0.72991 0.0
C2699 C 0.33799 0.89843 0.72284 0.0
C2700 C 0.29117 0.87405 0.732 0.0
C2701 C 0.34792 0.91546 0.72549 0.0
C2702 C 0.28546 0.78812 0.74185 0.0
C2703 C 0.29356 0.8062 0.74195 0.0
C2704 C 0.31371 0.84197 0.73074 0.0
C2705 C 0.32061 0.895 0.73238 0.0
C2706 C 0.31122 0.87608 0.73142 0.0
C2707 C 0.2846 0.82088 0.73238 0.0
C2708 C 0.29369 0.83993 0.73179 0.0
H2709 H 0.31662 0.93731 0.75543 0.0
H2710 H 0.29967 0.90736 0.75151 0.0
H2711 H 0.33783 0.8607 0.73059 0.0
H2712 H 0.2454 0.79662 0.71586 0.0
H2713 H 0.25985 0.82796 0.7154 0.0
C2714 C 0.27346 0.05664 0.0372 0.0
C2715 C 0.2584 0.06541 0.04688 0.0
C2716 C 0.28761 0.04752 0.04733 0.0
C2717 C 0.3114 0.02291 0.07322 0.0
H2718 H 0.34178 0.05973 0.10192 0.0
C2719 C 0.3899 0.01004 0.08647 0.0
C2720 C 0.3998 0.0232 0.07534 0.0
C2721 C 0.37117 0.01354 0.09235 0.0
C2722 C 0.3332 0.0491 0.09449 0.0
H2723 H 0.24595 0.07113 0.07463 0.0
H2724 H 0.27132 0.05578 0.0924 0.0
H2725 H 0.30895 0.06702 0.09284 0.0
H2726 H 0.39903 0.05105 0.06344 0.0
H2727 H 0.36658 0.05738 0.07407 0.0
H2728 H 0.33606 0.00556 0.07358 0.0
C2729 C 0.27183 0.05566 0.077 0.0
C2730 C 0.31447 0.05324 0.08931 0.0
C2731 C 0.2574 0.06441 0.06683 0.0
C2732 C 0.39158 0.04066 0.0719 0.0
C2733 C 0.37309 0.04433 0.07815 0.0
C2734 C 0.33 0.01865 0.07866 0.0
C2735 C 0.28713 0.04734 0.06731 0.0
C2736 C 0.3039 0.04061 0.07769 0.0
C2737 C 0.36239 0.03043 0.08755 0.0
C2738 C 0.34141 0.03218 0.08832 0.0
H2739 H 0.2745 0.05714 0.02184 0.0
H2740 H 0.29946 0.04142 0.03959 0.0
H2741 H 0.30343 0.01298 0.0643 0.0
H2742 H 0.39598 -0.00356 0.08925 0.0
H2743 H 0.36313 0.00262 0.09952 0.0
C2744 C 0.66362 0.58879 0.70594 0.0
C2745 C 0.66782 0.57648 0.72071 0.0
C2746 C 0.67477 0.60497 0.70328 0.0
C2747 C 0.71913 0.63071 0.71899 0.0
H2748 H 0.68694 0.67421 0.71367 0.0
C2749 C 0.71968 0.71414 0.74007 0.0
C2750 C 0.73754 0.72022 0.73312 0.0
C2751 C 0.71267 0.69614 0.73569 0.0
C2752 C 0.69614 0.6622 0.71515 0.0
H2753 H 0.68775 0.57071 0.74344 0.0
H2754 H 0.70689 0.59927 0.73922 0.0
H2755 H 0.67292 0.64291 0.71041 0.0
H2756 H 0.76211 0.71205 0.71618 0.0
H2757 H 0.74973 0.68046 0.70849 0.0
H2758 H 0.74216 0.65027 0.72474 0.0
C2759 C 0.69518 0.59631 0.72946 0.0
C2760 C 0.68816 0.64422 0.71301 0.0
C2761 C 0.68415 0.57998 0.73196 0.0
C2762 C 0.74829 0.7078 0.72176 0.0
C2763 C 0.74126 0.6897 0.71741 0.0
C2764 C 0.72713 0.64878 0.72117 0.0
C2765 C 0.69019 0.60932 0.71552 0.0
C2766 C 0.69946 0.62824 0.71529 0.0
C2767 C 0.72331 0.68376 0.72424 0.0
C2768 C 0.71557 0.66468 0.71975 0.0
H2769 H 0.6513 0.58628 0.69682 0.0
H2770 H 0.67083 0.61446 0.69211 0.0
H2771 H 0.72825 0.61868 0.72063 0.0
H2772 H 0.71104 0.72328 0.74893 0.0
H2773 H 0.69895 0.69184 0.74148 0.0
C2774 C 0.81475 0.41829 0.96734 0.0
C2775 C 0.80742 0.40618 0.98124 0.0
C2776 C 0.83346 0.4253 0.9687 0.0
C2777 C 0.87946 0.42226 -0.00523 0.0
H2778 H 0.87909 0.47662 0.99082 0.0
C2779 C 0.92615 0.49122 0.02224 0.0
C2780 C 0.94468 0.48568 0.01715 0.0
C2781 C 0.91022 0.48048 0.01637 0.0
C2782 C 0.8794 0.46146 0.99205 0.0
H2783 H 0.81454 0.39035 0.00629 0.0
H2784 H 0.84716 0.40276 0.00878 0.0
H2785 H 0.85077 0.45823 0.9818 0.0
H2786 H 0.96099 0.46443 0.00192 0.0
H2787 H 0.93323 0.44586 0.99169 0.0
H2788 H 0.90797 0.42567 0.00564 0.0
C2789 C 0.83848 0.40682 -0.00318 0.0
C2790 C 0.86329 0.45088 0.9866 0.0
C2791 C 0.81976 0.3997 -0.00461 0.0
C2792 C 0.94692 0.46914 0.00612 0.0
C2793 C 0.93103 0.4584 0.00033 0.0
C2794 C 0.89565 0.43287 0.00017 0.0
C2795 C 0.84516 0.4204 0.98403 0.0
C2796 C 0.86307 0.43119 0.98806 0.0
C2797 C 0.91253 0.46396 0.00536 0.0
C2798 C 0.89567 0.4526 -0.00093 0.0
H2799 H 0.80567 0.4233 0.95607 0.0
H2800 H 0.83841 0.43537 0.95834 0.0
H2801 H 0.87971 0.40711 -0.00397 0.0
H2802 H 0.92392 0.50384 0.03076 0.0
H2803 H 0.8961 0.48498 0.02064 0.0
C2804 C 0.3241 0.05464 0.7684 0.0
C2805 C 0.32157 0.04038 0.75452 0.0
C2806 C 0.31609 0.07225 0.76593 0.0
C2807 C 0.28127 0.09901 0.73799 0.0
H2808 H 0.31608 0.14045 0.75048 0.0
C2809 C 0.28951 0.18553 0.73341 0.0
C2810 C 0.27154 0.19058 0.74065 0.0
C2811 C 0.29449 0.16663 0.73191 0.0
C2812 C 0.30627 0.12907 0.74661 0.0
H2813 H 0.30777 0.03296 0.72772 0.0
H2814 H 0.29396 0.0639 0.72326 0.0
H2815 H 0.32611 0.10841 0.75529 0.0
H2816 H 0.24422 0.17967 0.75073 0.0
H2817 H 0.25307 0.14686 0.74849 0.0
H2818 H 0.26151 0.11983 0.72907 0.0
C2819 C 0.30201 0.06141 0.73612 0.0
C2820 C 0.3119 0.11068 0.74971 0.0
C2821 C 0.30994 0.04371 0.73866 0.0
C2822 C 0.25823 0.1763 0.74518 0.0
C2823 C 0.26326 0.15743 0.74379 0.0
C2824 C 0.27562 0.11747 0.73485 0.0
C2825 C 0.30553 0.07603 0.74945 0.0
C2826 C 0.29939 0.09546 0.7457 0.0
C2827 C 0.28166 0.15241 0.73772 0.0
C2828 C 0.28802 0.13271 0.7393 0.0
H2829 H 0.33282 0.05242 0.78089 0.0
H2830 H 0.31863 0.08309 0.7767 0.0
H2831 H 0.27132 0.08756 0.73476 0.0
H2832 H 0.30001 0.19617 0.72957 0.0
H2833 H 0.30864 0.16318 0.72678 0.0
C2834 C 0.17324 0.97023 0.24154 0.0
C2835 C 0.15733 0.97412 0.25312 0.0
C2836 C 0.17872 0.95165 0.23807 0.0
C2837 C 0.15704 0.90465 0.23539 0.0
H2838 H 0.20901 0.88646 0.23545 0.0
C2839 C 0.17412 0.82598 0.23325 0.0
C2840 C 0.19088 0.81991 0.22413 0.0
C2841 C 0.17004 0.84508 0.23471 0.0
C2842 C 0.19445 0.8914 0.23501 0.0
H2843 H 0.13558 0.96168 0.27122 0.0
H2844 H 0.1452 0.92937 0.26521 0.0
H2845 H 0.20301 0.91939 0.24364 0.0
H2846 H 0.21589 0.82917 0.20834 0.0
H2847 H 0.2085 0.86255 0.21054 0.0
H2848 H 0.14838 0.87687 0.22665 0.0
C2849 C 0.15322 0.94064 0.25857 0.0
C2850 C 0.19103 0.91022 0.23983 0.0
C2851 C 0.14782 0.95917 0.26213 0.0
C2852 C 0.20289 0.83335 0.21553 0.0
C2853 C 0.19877 0.8525 0.21695 0.0
C2854 C 0.16045 0.88593 0.23043 0.0
C2855 C 0.16832 0.93666 0.24603 0.0
C2856 C 0.17226 0.91693 0.24038 0.0
C2857 C 0.18255 0.85862 0.227 0.0
C2858 C 0.17915 0.87898 0.23047 0.0
H2859 H 0.18085 0.98145 0.23439 0.0
H2860 H 0.19044 0.94897 0.22836 0.0
H2861 H 0.14245 0.90956 0.23526 0.0
H2862 H 0.16452 0.81606 0.24005 0.0
H2863 H 0.15752 0.84925 0.2427 0.0
C2864 C 0.52425 0.3107 0.37692 0.0
C2865 C 0.51702 0.29469 0.38614 0.0
C2866 C 0.52317 0.32848 0.38576 0.0
C2867 C 0.5268 0.36243 0.4143 0.0
H2868 H 0.4776 0.3722 0.43772 0.0
C2869 C 0.51442 0.42126 0.47069 0.0
C2870 C 0.49685 0.43059 0.47028 0.0
C2871 C 0.51779 0.40612 0.45826 0.0
C2872 C 0.49134 0.36987 0.43105 0.0
H2873 H 0.50402 0.28467 0.41224 0.0
H2874 H 0.50223 0.31539 0.42742 0.0
H2875 H 0.48216 0.34315 0.4198 0.0
H2876 H 0.46936 0.43186 0.45599 0.0
H2877 H 0.47532 0.40567 0.43426 0.0
H2878 H 0.53596 0.38925 0.42576 0.0
C2879 C 0.50836 0.31432 0.41329 0.0
C2880 C 0.494 0.35313 0.42095 0.0
C2881 C 0.50945 0.2967 0.40457 0.0
C2882 C 0.48293 0.42479 0.45689 0.0
C2883 C 0.48634 0.40978 0.44442 0.0
C2884 C 0.52414 0.37926 0.4245 0.0
C2885 C 0.51479 0.33042 0.40384 0.0
C2886 C 0.51183 0.34908 0.41281 0.0
C2887 C 0.50368 0.4001 0.44515 0.0
C2888 C 0.50643 0.38301 0.43318 0.0
H2889 H 0.53025 0.30958 0.36275 0.0
H2890 H 0.52826 0.34073 0.37822 0.0
H2891 H 0.54068 0.35958 0.40815 0.0
H2892 H 0.52546 0.42544 0.4808 0.0
H2893 H 0.5312 0.39879 0.45932 0.0
C2894 C 0.4307 0.73707 0.21215 0.0
C2895 C 0.43788 0.74286 0.19448 0.0
C2896 C 0.41277 0.74308 0.21845 0.0
C2897 C 0.36734 0.76067 0.20017 0.0
H2898 H 0.35865 0.77749 0.2522 0.0
C2899 C 0.29384 0.78615 0.22176 0.0
C2900 C 0.28631 0.77732 0.2379 0.0
C2901 C 0.31346 0.78586 0.21812 0.0
C2902 C 0.36089 0.77281 0.23763 0.0
H2903 H 0.43186 0.75955 0.16962 0.0
H2904 H 0.40089 0.76994 0.18061 0.0
H2905 H 0.39065 0.76767 0.24242 0.0
H2906 H 0.29367 0.76298 0.26387 0.0
H2907 H 0.32775 0.76216 0.2573 0.0
H2908 H 0.33769 0.7653 0.19536 0.0
C2909 C 0.40895 0.76064 0.18952 0.0
C2910 C 0.37915 0.76711 0.23208 0.0
C2911 C 0.42677 0.75469 0.18326 0.0
C2912 C 0.29898 0.76978 0.25121 0.0
C2913 C 0.31857 0.76938 0.2475 0.0
C2914 C 0.34917 0.76631 0.2057 0.0
C2915 C 0.40173 0.75489 0.20714 0.0
C2916 C 0.38251 0.76094 0.21329 0.0
C2917 C 0.32588 0.77663 0.23048 0.0
C2918 C 0.3457 0.77239 0.2245 0.0
H2919 H 0.43896 0.72802 0.22115 0.0
H2920 H 0.40744 0.73829 0.23203 0.0
H2921 H 0.36942 0.75567 0.18568 0.0
H2922 H 0.2845 0.79234 0.21137 0.0
H2923 H 0.31877 0.792 0.20512 0.0
C2924 C 0.97686 0.68812 0.92747 0.0
C2925 C 0.98098 0.70709 0.93179 0.0
C2926 C 0.96897 0.67644 0.94121 0.0
C2927 C 0.96931 0.67205 -0.0073 0.0
H2928 H 0.94226 0.62569 0.97918 0.0
C2929 C -0.00858 0.60207 0.02008 0.0
C2930 C 0.97834 0.58705 0.02206 0.0
C2931 C 0.9853 0.61949 0.01408 0.0
C2932 C 0.94936 0.63873 0.98349 0.0
H2933 H 0.97881 0.72909 0.95342 0.0
H2934 H 0.96482 0.70865 0.97746 0.0
H2935 H 0.94141 0.65213 0.95773 0.0
H2936 H 0.94835 0.5788 0.02035 0.0
H2937 H 0.93761 0.60946 0.00954 0.0
H2938 H 0.97774 0.65844 0.01817 0.0
C2939 C 0.96801 0.70274 0.96354 0.0
C2940 C 0.94909 0.65381 0.97106 0.0
C2941 C 0.97602 0.71443 0.94978 0.0
C2942 C 0.95878 0.59011 0.01883 0.0
C2943 C 0.95264 0.60762 0.01264 0.0
C2944 C 0.9694 0.65705 0.00521 0.0
C2945 C 0.96489 0.68347 0.95957 0.0
C2946 C 0.96012 0.67015 0.97496 0.0
C2947 C 0.96593 0.62237 0.00984 0.0
C2948 C 0.96052 0.63982 0.00012 0.0
H2949 H 0.98041 0.68207 0.91369 0.0
H2950 H 0.96712 0.66163 0.93769 0.0
H2951 H 0.97789 0.68442 -0.00373 0.0
H2952 H 0.00656 0.60025 0.02266 0.0
H2953 H -0.004 0.6304 0.01176 0.0
C2954 C 0.04224 0.25501 0.69263 0.0
C2955 C 0.04135 0.25259 0.67276 0.0
C2956 C 0.05983 0.25551 0.70199 0.0
C2957 C 0.11107 0.2644 0.69439 0.0
H2958 H 0.11676 0.23739 0.74149 0.0
C2959 C 0.17839 0.27324 0.74029 0.0
C2960 C 0.1867 0.25661 0.74665 0.0
C2961 C 0.16004 0.27289 0.73254 0.0
C2962 C 0.11539 0.24492 0.72832 0.0
H2963 H 0.05814 0.24891 0.64708 0.0
H2964 H 0.08899 0.24971 0.66349 0.0
H2965 H 0.08618 0.2361 0.72464 0.0
H2966 H 0.18187 0.22673 0.7507 0.0
H2967 H 0.14976 0.22614 0.73702 0.0
H2968 H 0.14034 0.27296 0.69785 0.0
C2969 C 0.07605 0.25136 0.67178 0.0
C2970 C 0.09786 0.24433 0.71876 0.0
C2971 C 0.05841 0.25083 0.6624 0.0
C2972 C 0.17588 0.23978 0.74592 0.0
C2973 C 0.15748 0.23944 0.73813 0.0
C2974 C 0.12856 0.26503 0.70395 0.0
C2975 C 0.07691 0.25362 0.69168 0.0
C2976 C 0.09554 0.25408 0.70171 0.0
C2977 C 0.14957 0.25592 0.73096 0.0
C2978 C 0.13089 0.25533 0.72103 0.0
H2979 H 0.02933 0.25645 0.70101 0.0
H2980 H 0.06007 0.25755 0.7173 0.0
H2981 H 0.10965 0.27218 0.68137 0.0
H2982 H 0.18624 0.2865 0.74083 0.0
H2983 H 0.15414 0.28589 0.72749 0.0
C2984 C 0.49191 0.68767 0.1084 0.0
C2985 C 0.4897 0.6849 0.12803 0.0
C2986 C 0.49177 0.67236 0.09572 0.0
C2987 C 0.47508 0.62447 0.08811 0.0
H2988 H 0.52111 0.6177 0.05815 0.0
C2989 C 0.49124 0.55463 0.04916 0.0
C2990 C 0.50253 0.55492 0.03266 0.0
C2991 C 0.48784 0.57121 0.05942 0.0
C2992 C 0.50793 0.61952 0.06602 0.0
H2993 H 0.48494 0.66404 0.14973 0.0
H2994 H 0.48422 0.63722 0.12736 0.0
H2995 H 0.51813 0.64545 0.07859 0.0
H2996 H 0.5182 0.57282 0.01329 0.0
H2997 H 0.51146 0.60193 0.03059 0.0
H2998 H 0.46457 0.59886 0.07531 0.0
C2999 C 0.48625 0.65127 0.12193 0.0
C3000 C 0.50634 0.63537 0.07783 0.0
C3001 C 0.48677 0.66657 0.13469 0.0
C3002 C 0.50963 0.57219 0.02611 0.0
C3003 C 0.50587 0.58884 0.03613 0.0
C3004 C 0.47648 0.60877 0.07598 0.0
C3005 C 0.48902 0.65406 0.1024 0.0
C3006 C 0.49004 0.63783 0.08914 0.0
C3007 C 0.49533 0.58853 0.05319 0.0
C3008 C 0.49306 0.60594 0.06498 0.0
H3009 H 0.49424 0.70164 0.10286 0.0
H3010 H 0.49391 0.67478 0.08068 0.0
H3011 H 0.4623 0.62622 0.09664 0.0
H3012 H 0.4857 0.54147 0.05462 0.0
H3013 H 0.47993 0.57028 0.07262 0.0
C3014 C 0.08241 0.74513 0.8819 0.0
C3015 C 0.0696 0.73001 0.87862 0.0
C3016 C 0.09968 0.74607 0.87189 0.0
C3017 C 0.13307 0.7191 0.84222 0.0
H3018 H 0.13362 0.76206 0.80891 0.0
C3019 C 0.17022 0.71487 0.77078 0.0
C3020 C 0.18153 0.73019 0.76499 0.0
C3021 C 0.158 0.71666 0.78629 0.0
C3022 C 0.13392 0.75017 0.81832 0.0
H3023 H 0.06512 0.70341 0.86373 0.0
H3024 H 0.09557 0.70462 0.84685 0.0
H3025 H 0.11173 0.76133 0.83603 0.0
H3026 H 0.18822 0.75971 0.77007 0.0
H3027 H 0.16681 0.76287 0.79752 0.0
H3028 H 0.15487 0.70768 0.82442 0.0
C3029 C 0.0923 0.71582 0.85692 0.0
C3030 C 0.12147 0.74979 0.83387 0.0
C3031 C 0.0749 0.71511 0.86654 0.0
C3032 C 0.17951 0.74772 0.77422 0.0
C3033 C 0.16737 0.74949 0.78996 0.0
C3034 C 0.1456 0.71954 0.82683 0.0
C3035 C 0.10445 0.73165 0.85892 0.0
C3036 C 0.1205 0.73395 0.84551 0.0
C3037 C 0.15702 0.73376 0.79653 0.0
C3038 C 0.14561 0.73473 0.81427 0.0
H3039 H 0.07842 0.7569 0.89098 0.0
H3040 H 0.10887 0.75839 0.87361 0.0
H3041 H 0.13264 0.70681 0.85111 0.0
H3042 H 0.17137 0.70124 0.76376 0.0
H3043 H 0.1497 0.70447 0.79058 0.0
C3044 C 0.95947 0.30553 0.61324 0.0
C3045 C 0.96913 0.28965 0.60636 0.0
C3046 C 0.95284 0.31893 0.60073 0.0
C3047 C 0.9626 0.339 0.55463 0.0
H3048 H 0.9137 0.36286 0.56291 0.0
C3049 C 0.94417 0.406 0.51527 0.0
C3050 C 0.93811 0.42065 0.52743 0.0
C3051 C 0.94391 0.38744 0.52141 0.0
C3052 C 0.92737 0.35631 0.56039 0.0
H3053 H 0.97936 0.27526 0.58097 0.0
H3054 H 0.96797 0.299 0.55901 0.0
H3055 H 0.9216 0.33479 0.5806 0.0
H3056 H 0.92564 0.4271 0.55501 0.0
H3057 H 0.92549 0.39487 0.5658 0.0
H3058 H 0.96885 0.36098 0.53518 0.0
C3059 C 0.9655 0.30095 0.57412 0.0
C3060 C 0.93188 0.34026 0.57049 0.0
C3061 C 0.972 0.2874 0.58667 0.0
C3062 C 0.93049 0.41618 0.54531 0.0
C3063 C 0.93029 0.39764 0.55146 0.0
C3064 C 0.95813 0.3551 0.54459 0.0
C3065 C 0.95583 0.31682 0.58106 0.0
C3066 C 0.94978 0.33182 0.56814 0.0
C3067 C 0.93762 0.38316 0.53983 0.0
C3068 C 0.94072 0.36428 0.54781 0.0
H3069 H 0.95697 0.30764 0.62833 0.0
H3070 H 0.94574 0.33119 0.60651 0.0
H3071 H 0.97655 0.33285 0.55264 0.0
H3072 H 0.94991 0.40893 0.5013 0.0
H3073 H 0.94931 0.37654 0.512 0.0
C3074 C 0.4427 0.23823 0.33558 0.0
C3075 C 0.4598 0.23862 0.32508 0.0
C3076 C 0.4251 0.23875 0.32629 0.0
C3077 C 0.40041 0.23058 0.28108 0.0
H3078 H 0.36886 0.27212 0.29751 0.0
C3079 C 0.33703 0.25802 0.23695 0.0
C3080 C 0.32188 0.26619 0.24699 0.0
C3081 C 0.35303 0.25171 0.24679 0.0
C3082 C 0.37721 0.26016 0.29297 0.0
H3083 H 0.47191 0.23899 0.29664 0.0
H3084 H 0.44101 0.23978 0.28043 0.0
H3085 H 0.39823 0.26589 0.31446 0.0
H3086 H 0.31051 0.27277 0.27495 0.0
H3087 H 0.33778 0.26091 0.29213 0.0
H3088 H 0.37927 0.22474 0.25963 0.0
C3089 C 0.44133 0.23912 0.29582 0.0
C3090 C 0.39409 0.25669 0.30266 0.0
C3091 C 0.45896 0.23885 0.30511 0.0
C3092 C 0.32228 0.26687 0.26692 0.0
C3093 C 0.33795 0.26017 0.27673 0.0
C3094 C 0.38329 0.23387 0.27151 0.0
C3095 C 0.42431 0.2394 0.30637 0.0
C3096 C 0.40589 0.24199 0.29671 0.0
C3097 C 0.35383 0.25316 0.26679 0.0
C3098 C 0.37156 0.2488 0.27729 0.0
H3099 H 0.44291 0.23798 0.35098 0.0
H3100 H 0.4121 0.23892 0.33467 0.0
H3101 H 0.40936 0.21913 0.27632 0.0
H3102 H 0.3369 0.25735 0.22154 0.0
H3103 H 0.36506 0.24649 0.23868 0.0
C3104 C 0.41478 0.53437 0.30669 0.0
C3105 C 0.43113 0.52763 0.29729 0.0
C3106 C 0.41382 0.53464 0.32653 0.0
C3107 C 0.44436 0.53612 0.36862 0.0
H3108 H 0.40122 0.51374 0.39516 0.0
C3109 C 0.44655 0.53142 0.44883 0.0
C3110 C 0.44415 0.51286 0.45505 0.0
C3111 C 0.44022 0.53642 0.43084 0.0
C3112 C 0.41325 0.52019 0.38791 0.0
H3113 H 0.45925 0.51581 0.30132 0.0
H3114 H 0.45761 0.51644 0.33595 0.0
H3115 H 0.40055 0.51575 0.36038 0.0
H3116 H 0.43143 0.48554 0.44814 0.0
H3117 H 0.42068 0.49421 0.41659 0.0
H3118 H 0.45748 0.53993 0.39584 0.0
C3119 C 0.44559 0.52157 0.32793 0.0
C3120 C 0.41284 0.5214 0.36809 0.0
C3121 C 0.44647 0.52111 0.30812 0.0
C3122 C 0.43364 0.49991 0.44369 0.0
C3123 C 0.42737 0.50491 0.42564 0.0
C3124 C 0.44472 0.53504 0.38837 0.0
C3125 C 0.42929 0.52839 0.3373 0.0
C3126 C 0.42863 0.52893 0.35828 0.0
C3127 C 0.43144 0.52295 0.41872 0.0
C3128 C 0.42937 0.52669 0.39819 0.0
H3129 H 0.40268 0.53942 0.29873 0.0
H3130 H 0.40114 0.54 0.33346 0.0
H3131 H 0.45662 0.54218 0.36138 0.0
H3132 H 0.45428 0.54183 0.45741 0.0
H3133 H 0.44317 0.55055 0.42599 0.0
C3134 C 0.27675 0.6582 0.0451 0.0
C3135 C 0.26999 0.63966 0.04776 0.0
C3136 C 0.27232 0.67246 0.0583 0.0
C3137 C 0.23435 0.68512 0.09039 0.0
H3138 H 0.2707 0.71566 0.11956 0.0
C3139 C 0.21557 0.71768 0.16215 0.0
C3140 C 0.22419 0.73467 0.16837 0.0
C3141 C 0.22036 0.70967 0.14462 0.0
C3142 C 0.26033 0.7076 0.11119 0.0
H3143 H 0.25421 0.62146 0.06692 0.0
H3144 H 0.24636 0.64634 0.0896 0.0
H3145 H 0.28222 0.69426 0.09454 0.0
H3146 H 0.24385 0.75716 0.16058 0.0
H3147 H 0.25217 0.74313 0.12965 0.0
H3148 H 0.21246 0.69809 0.10697 0.0
C3149 C 0.25498 0.6498 0.07729 0.0
C3150 C 0.26696 0.6953 0.09698 0.0
C3151 C 0.2596 0.63555 0.06434 0.0
C3152 C 0.23696 0.74404 0.15617 0.0
C3153 C 0.24184 0.73595 0.13854 0.0
C3154 C 0.22772 0.69753 0.10435 0.0
C3155 C 0.26086 0.66842 0.07413 0.0
C3156 C 0.25404 0.6835 0.087 0.0
C3157 C 0.23389 0.71845 0.13279 0.0
C3158 C 0.24067 0.70836 0.11545 0.0
H3159 H 0.28482 0.66182 0.03251 0.0
H3160 H 0.27707 0.68676 0.05569 0.0
H3161 H 0.22412 0.67634 0.08259 0.0
H3162 H 0.20561 0.71013 0.17115 0.0
H3163 H 0.21414 0.69608 0.14081 0.0
C3164 C 0.04477 0.50556 0.81662 0.0
C3165 C 0.05533 0.48962 0.81155 0.0
C3166 C 0.04136 0.50993 0.83579 0.0
C3167 C 0.06017 0.4994 0.88379 0.0
H3168 H 0.01249 0.52071 0.90141 0.0
C3169 C 0.03508 0.49909 0.96165 0.0
C3170 C 0.02889 0.51628 0.96938 0.0
C3171 C 0.03918 0.49738 0.9423 0.0
C3172 C 0.02593 0.51494 0.89658 0.0
H3173 H 0.06962 0.46516 0.82232 0.0
H3174 H 0.06299 0.47224 0.85552 0.0
H3175 H 0.01701 0.51417 0.86745 0.0
H3176 H 0.0222 0.54519 0.96302 0.0
H3177 H 0.029 0.54199 0.92895 0.0
H3178 H 0.06869 0.49947 0.91305 0.0
C3179 C 0.05802 0.48187 0.8449 0.0
C3180 C 0.02856 0.51124 0.87718 0.0
C3181 C 0.06168 0.4777 0.82585 0.0
C3182 C 0.02706 0.5318 0.95744 0.0
C3183 C 0.03081 0.52997 0.93799 0.0
C3184 C 0.05741 0.50283 0.90315 0.0
C3185 C 0.04823 0.49826 0.85016 0.0
C3186 C 0.04562 0.50318 0.87059 0.0
C3187 C 0.03683 0.51272 0.9303 0.0
C3188 C 0.04021 0.51044 0.90971 0.0
H3189 H 0.03979 0.51503 0.80584 0.0
H3190 H 0.03386 0.52272 0.83934 0.0
H3191 H 0.0737 0.4937 0.87918 0.0
H3192 H 0.03664 0.48692 0.97053 0.0
H3193 H 0.04371 0.48391 0.9366 0.0
C3194 C 0.23457 0.31712 0.55104 0.0
C3195 C 0.23872 0.33651 0.55178 0.0
C3196 C 0.24081 0.30552 0.56563 0.0
C3197 C 0.24193 0.29114 0.60656 0.0
H3198 H 0.29104 0.29921 0.63152 0.0
C3199 C 0.25102 0.28791 0.6865 0.0
C3200 C 0.26644 0.27816 0.69425 0.0
C3201 C 0.24977 0.29061 0.66699 0.0
C3202 C 0.27743 0.29648 0.62453 0.0
H3203 H 0.25339 0.35883 0.56774 0.0
H3204 H 0.26423 0.33871 0.59296 0.0
H3205 H 0.2858 0.31164 0.59973 0.0
H3206 H 0.2929 0.26393 0.68754 0.0
H3207 H 0.29093 0.26926 0.65315 0.0
H3208 H 0.2332 0.27695 0.63179 0.0
C3209 C 0.25624 0.33239 0.58121 0.0
C3210 C 0.27439 0.30367 0.60642 0.0
C3211 C 0.2498 0.34396 0.56688 0.0
C3212 C 0.28085 0.27152 0.682 0.0
C3213 C 0.27972 0.27449 0.66237 0.0
C3214 C 0.24492 0.2841 0.6247 0.0
C3215 C 0.2516 0.31312 0.58091 0.0
C3216 C 0.25635 0.30174 0.59763 0.0
C3217 C 0.26398 0.28382 0.65472 0.0
C3218 C 0.26242 0.28741 0.63414 0.0
H3219 H 0.22613 0.31102 0.5395 0.0
H3220 H 0.23701 0.29069 0.56511 0.0
H3221 H 0.22788 0.2895 0.60017 0.0
H3222 H 0.23963 0.29321 0.69544 0.0
H3223 H 0.23771 0.29822 0.66151 0.0
C3224 C 0.44233 0.53413 0.17317 0.0
C3225 C 0.45062 0.53852 0.19095 0.0
C3226 C 0.45098 0.52132 0.16082 0.0
C3227 C 0.49478 0.50048 0.14571 0.0
H3228 H 0.46127 0.46011 0.12716 0.0
C3229 C 0.5157 0.46042 0.07912 0.0
C3230 C 0.50128 0.46244 0.06541 0.0
C3231 C 0.51135 0.46232 0.09848 0.0
C3232 C 0.47089 0.47116 0.13232 0.0
H3233 H 0.47527 0.53414 0.20904 0.0
H3234 H 0.49079 0.51214 0.18689 0.0
H3235 H 0.45055 0.48096 0.15284 0.0
H3236 H 0.47077 0.46506 0.06104 0.0
H3237 H 0.46315 0.46835 0.09449 0.0
H3238 H 0.5145 0.49181 0.12424 0.0
C3239 C 0.47735 0.51833 0.18289 0.0
C3240 C 0.46474 0.48308 0.14697 0.0
C3241 C 0.46853 0.53098 0.19545 0.0
C3242 C 0.48218 0.46367 0.07135 0.0
C3243 C 0.47782 0.46547 0.09061 0.0
C3244 C 0.50085 0.4887 0.13086 0.0
C3245 C 0.46824 0.5129 0.16583 0.0
C3246 C 0.47631 0.49831 0.15317 0.0
C3247 C 0.49252 0.46611 0.10431 0.0
C3248 C 0.48858 0.47448 0.12338 0.0
H3249 H 0.42859 0.53972 0.16921 0.0
H3250 H 0.44394 0.51765 0.14749 0.0
H3251 H 0.50393 0.51212 0.15035 0.0
H3252 H 0.53056 0.45937 0.07492 0.0
H3253 H 0.52292 0.46235 0.10874 0.0
C3254 C 0.28297 0.66097 0.93124 0.0
C3255 C 0.29018 0.64312 0.93504 0.0
C3256 C 0.28603 0.66907 0.91351 0.0
C3257 C 0.2939 0.65314 0.86442 0.0
H3258 H 0.29371 0.70655 0.85423 0.0
C3259 C 0.28619 0.70485 0.79583 0.0
C3260 C 0.26987 0.6961 0.78767 0.0
C3261 C 0.29294 0.69922 0.81358 0.0
C3262 C 0.2941 0.6916 0.85685 0.0
H3263 H 0.30774 0.62053 0.92411 0.0
H3264 H 0.31358 0.63488 0.89342 0.0
H3265 H 0.29951 0.69592 0.88664 0.0
H3266 H 0.2479 0.67458 0.79172 0.0
H3267 H 0.25961 0.66488 0.8224 0.0
H3268 H 0.28815 0.64879 0.83481 0.0
C3269 C 0.30501 0.64237 0.90382 0.0
C3270 C 0.29722 0.68551 0.8754 0.0
C3271 C 0.3017 0.63415 0.9214 0.0
C3272 C 0.26053 0.6816 0.79753 0.0
C3273 C 0.26732 0.67594 0.81508 0.0
C3274 C 0.29083 0.65921 0.84597 0.0
C3275 C 0.29656 0.65955 0.89937 0.0
C3276 C 0.29657 0.66621 0.87947 0.0
C3277 C 0.28359 0.68463 0.82328 0.0
C3278 C 0.29023 0.67847 0.84212 0.0
H3279 H 0.27409 0.66821 0.94156 0.0
H3280 H 0.27917 0.68224 0.91054 0.0
H3281 H 0.29307 0.63819 0.86698 0.0
H3282 H 0.29365 0.71612 0.78861 0.0
H3283 H 0.30551 0.70614 0.81963 0.0
C3284 C 0.05094 0.44689 0.70919 0.0
C3285 C 0.07097 0.44854 0.71035 0.0
C3286 C 0.04165 0.44889 0.6918 0.0
C3287 C 0.04793 0.47435 0.64814 0.0
H3288 H 0.00385 0.44519 0.63044 0.0
C3289 C 0.00934 0.48965 0.57766 0.0
C3290 C 0.98936 0.48711 0.57705 0.0
C3291 C 0.0197 0.48443 0.59364 0.0
C3292 C 0.01599 0.45361 0.63534 0.0
H3293 H 0.09708 0.45226 0.69405 0.0
H3294 H 0.08076 0.45588 0.66363 0.0
H3295 H 0.02165 0.43494 0.65819 0.0
H3296 H 0.96448 0.47798 0.59311 0.0
H3297 H 0.98252 0.46944 0.62123 0.0
H3298 H 0.04201 0.49337 0.62578 0.0
C3299 C 0.0723 0.45317 0.67623 0.0
C3300 C 0.02624 0.44765 0.65111 0.0
C3301 C 0.08161 0.45098 0.6936 0.0
C3302 C 0.97988 0.47999 0.59308 0.0
C3303 C 0.99024 0.47492 0.60912 0.0
C3304 C 0.03758 0.48042 0.63248 0.0
C3305 C 0.05222 0.45272 0.6753 0.0
C3306 C 0.04224 0.45802 0.6577 0.0
C3307 C 0.0103 0.47672 0.60943 0.0
C3308 C 0.02142 0.47019 0.62597 0.0
H3309 H 0.04238 0.44494 0.72188 0.0
H3310 H 0.02615 0.44854 0.69148 0.0
H3311 H 0.06001 0.4828 0.65315 0.0
H3312 H 0.01711 0.49499 0.56551 0.0
H3313 H 0.03515 0.48585 0.59332 0.0
C3314 C 0.23299 0.35191 0.4391 0.0
C3315 C 0.23411 0.37144 0.44246 0.0
C3316 C 0.23604 0.34446 0.42084 0.0
C3317 C 0.25934 0.35336 0.37564 0.0
H3318 H 0.21883 0.32238 0.3531 0.0
C3319 C 0.25908 0.33451 0.29583 0.0
C3320 C 0.25198 0.31675 0.28999 0.0
C3321 C 0.25716 0.34063 0.31469 0.0
C3322 C 0.23046 0.33071 0.35924 0.0
H3323 H 0.23993 0.39841 0.42956 0.0
H3324 H 0.24575 0.38529 0.39776 0.0
H3325 H 0.21593 0.33353 0.38596 0.0
H3326 H 0.23744 0.29138 0.29931 0.0
H3327 H 0.23473 0.30174 0.33241 0.0
H3328 H 0.27417 0.35028 0.34925 0.0
C3329 C 0.24231 0.37583 0.40922 0.0
C3330 C 0.22872 0.33714 0.37804 0.0
C3331 C 0.23891 0.38332 0.42737 0.0
C3332 C 0.24291 0.30522 0.30338 0.0
C3333 C 0.24128 0.31121 0.32234 0.0
C3334 C 0.26125 0.34668 0.35696 0.0
C3335 C 0.24064 0.35638 0.40577 0.0
C3336 C 0.24305 0.34868 0.38629 0.0
C3337 C 0.24841 0.329 0.32825 0.0
C3338 C 0.24672 0.33546 0.34842 0.0
H3339 H 0.22924 0.34242 0.45044 0.0
H3340 H 0.23476 0.3294 0.41848 0.0
H3341 H 0.27064 0.36212 0.38181 0.0
H3342 H 0.26598 0.34378 0.28577 0.0
H3343 H 0.26242 0.35459 0.31855 0.0
C3344 C 0.27971 0.43899 0.51875 0.0
C3345 C 0.27048 0.42219 0.52396 0.0
C3346 C 0.29701 0.44447 0.52727 0.0
C3347 C 0.33828 0.42349 0.55041 0.0
H3348 H 0.35501 0.47568 0.55385 0.0
C3349 C 0.41329 0.44733 0.53203 0.0
C3350 C 0.42157 0.46353 0.5405 0.0
C3351 C 0.39506 0.44125 0.53727 0.0
C3352 C 0.35053 0.46103 0.55348 0.0
H3353 H 0.27152 0.39851 0.54299 0.0
H3354 H 0.30152 0.40827 0.55807 0.0
H3355 H 0.32113 0.4681 0.54986 0.0
H3356 H 0.41781 0.48536 0.56206 0.0
H3357 H 0.38564 0.47471 0.5712 0.0
H3358 H 0.36771 0.41644 0.55361 0.0
C3359 C 0.29566 0.41698 0.54709 0.0
C3360 C 0.33113 0.45669 0.55089 0.0
C3361 C 0.27846 0.4114 0.53844 0.0
C3362 C 0.41172 0.47288 0.55521 0.0
C3363 C 0.39332 0.46683 0.56039 0.0
C3364 C 0.35763 0.42783 0.55315 0.0
C3365 C 0.30535 0.43337 0.54133 0.0
C3366 C 0.32494 0.43791 0.54837 0.0
C3367 C 0.38463 0.45123 0.5511 0.0
C3368 C 0.36406 0.44664 0.5537 0.0
H3369 H 0.2739 0.44761 0.50766 0.0
H3370 H 0.30423 0.45701 0.52221 0.0
H3371 H 0.33408 0.40886 0.54853 0.0
H3372 H 0.4206 0.43969 0.5208 0.0
H3373 H 0.38873 0.42934 0.52962 0.0
C3374 C 0.79886 0.06155 0.46063 0.0
C3375 C 0.80377 0.08012 0.46601 0.0
C3376 C 0.81291 0.04907 0.45464 0.0
C3377 C 0.86498 0.0461 0.44224 0.0
H3378 H 0.85932 -0.00336 0.46401 0.0
C3379 C 0.91573 -0.00724 0.48118 0.0
C3380 C 0.93201 -0.00655 0.46953 0.0
C3381 C 0.89823 -0.00102 0.47458 0.0
C3382 C 0.86108 0.01034 0.45768 0.0
H3383 H 0.82708 0.10041 0.46881 0.0
H3384 H 0.85183 0.0784 0.45945 0.0
H3385 H 0.83246 0.01769 0.46444 0.0
H3386 H 0.94247 -0.00028 0.44129 0.0
H3387 H 0.9116 0.01067 0.42959 0.0
H3388 H 0.89424 0.03927 0.43721 0.0
C3389 C 0.83707 0.07354 0.45918 0.0
C3390 C 0.84557 0.02241 0.45772 0.0
C3391 C 0.82293 0.08615 0.46478 0.0
C3392 C 0.93012 -0.00091 0.45057 0.0
C3393 C 0.91251 0.00546 0.44394 0.0
C3394 C 0.88061 0.03411 0.44248 0.0
C3395 C 0.83228 0.05474 0.4543 0.0
C3396 C 0.84755 0.04076 0.45076 0.0
C3397 C 0.89655 0.00609 0.45613 0.0
C3398 C 0.87905 0.01644 0.45104 0.0
H3399 H 0.78411 0.05664 0.46106 0.0
H3400 H 0.80858 0.03488 0.45056 0.0
H3401 H 0.86687 0.05991 0.43622 0.0
H3402 H 0.91672 0.98831 0.49581 0.0
H3403 H 0.88637 -0.00057 0.48448 0.0
C3404 C 0.61288 0.03822 0.23291 0.0
C3405 C 0.61483 0.02865 0.25007 0.0
C3406 C 0.62289 0.05514 0.23008 0.0
C3407 C 0.66588 0.08044 0.24859 0.0
H3408 H 0.64757 0.12166 0.21854 0.0
C3409 C 0.70206 0.1533 0.24828 0.0
C3410 C 0.70608 0.16103 0.23044 0.0
C3411 C 0.6909 0.13699 0.24964 0.0
C3412 C 0.65286 0.11012 0.2268 0.0
H3413 H 0.62737 0.02984 0.27828 0.0
H3414 H 0.64404 0.05969 0.27375 0.0
H3415 H 0.62668 0.09426 0.2238 0.0
H3416 H 0.70153 0.1578 0.20002 0.0
H3417 H 0.68156 0.12924 0.20249 0.0
H3418 H 0.6918 0.09656 0.25205 0.0
C3419 C 0.63553 0.05385 0.26212 0.0
C3420 C 0.64095 0.09446 0.22982 0.0
C3421 C 0.62584 0.03684 0.2648 0.0
C3422 C 0.69875 0.15207 0.21393 0.0
C3423 C 0.68725 0.13586 0.21534 0.0
C3424 C 0.67762 0.09614 0.24579 0.0
C3425 C 0.63478 0.06284 0.24449 0.0
C3426 C 0.64727 0.07951 0.24093 0.0
C3427 C 0.68327 0.12823 0.23322 0.0
C3428 C 0.67117 0.11116 0.235 0.0
H3429 H 0.60454 0.03212 0.22129 0.0
H3430 H 0.62203 0.06164 0.2163 0.0
H3431 H 0.67148 0.06896 0.25673 0.0
H3432 H 0.70754 0.15988 0.26124 0.0
H3433 H 0.68792 0.1314 0.26359 0.0
C3434 C 0.64113 0.9002 0.03637 0.0
C3435 C 0.64265 0.88086 0.03239 0.0
C3436 C 0.62518 0.90998 0.03047 0.0
C3437 C 0.57529 0.90563 0.01539 0.0
H3438 H 0.5863 0.95391 0.99253 0.0
C3439 C 0.51434 0.95381 -0.00506 0.0
C3440 C 0.51627 0.97194 0.00312 0.0
C3441 C 0.53015 0.94213 -0.00661 0.0
C3442 C 0.583 0.94045 -0.00116 0.0
H3443 H 0.62817 0.85634 0.02009 0.0
H3444 H 0.59992 0.87357 0.00989 0.0
H3445 H 0.61257 0.93375 0.00158 0.0
H3446 H 0.53668 -0.00727 0.01417 0.0
H3447 H 0.56415 0.97238 0.01156 0.0
H3448 H 0.54574 0.91261 0.01331 0.0
C3449 C 0.61124 0.88109 0.01749 0.0
C3450 C 0.59801 0.92894 0.00406 0.0
C3451 C 0.62732 0.87124 0.02341 0.0
C3452 C 0.53465 0.97881 0.0079 0.0
C3453 C 0.55045 0.96713 0.00636 0.0
C3454 C 0.56025 0.91718 0.0102 0.0
C3455 C 0.61035 0.90067 0.02045 0.0
C3456 C 0.59432 0.91167 0.0129 0.0
C3457 C 0.54819 0.94838 -8e-05 0.0
C3458 C 0.56396 0.93494 0.00233 0.0
H3459 H 0.65265 0.90796 0.04343 0.0
H3460 H 0.62463 0.92497 0.03344 0.0
H3461 H 0.57205 0.89242 0.02221 0.0
H3462 H 0.50042 0.94815 0.99085 0.0
H3463 H 0.52806 0.92789 0.98797 0.0
C3464 C 0.40055 0.46302 0.21443 0.0
C3465 C 0.39389 0.48152 0.21427 0.0
C3466 C 0.38872 0.44806 0.20843 0.0
C3467 C 0.33761 0.43566 0.20229 0.0
H3468 H 0.35848 0.39006 0.18016 0.0
C3469 C 0.29185 0.36817 0.19088 0.0
C3470 C 0.29953 0.3532 0.20101 0.0
C3471 C 0.30304 0.38423 0.1874 0.0
C3472 C 0.35245 0.4028 0.18614 0.0
H3473 H 0.36991 0.49899 0.20692 0.0
H3474 H 0.34945 0.47296 0.19597 0.0
H3475 H 0.37884 0.41815 0.18355 0.0
H3476 H 0.32513 0.34266 0.21431 0.0
H3477 H 0.34469 0.37048 0.20793 0.0
H3478 H 0.31131 0.42012 0.20512 0.0
C3479 C 0.36361 0.46991 0.20122 0.0
C3480 C 0.36411 0.41882 0.18825 0.0
C3481 C 0.37536 0.48484 0.20747 0.0
C3482 C 0.31881 0.35408 0.20663 0.0
C3483 C 0.33005 0.36991 0.20283 0.0
C3484 C 0.3259 0.41971 0.19994 0.0
C3485 C 0.37005 0.45131 0.20188 0.0
C3486 C 0.35701 0.43524 0.19696 0.0
C3487 C 0.32215 0.3853 0.1936 0.0
C3488 C 0.3334 0.40299 0.19243 0.0
H3489 H 0.41475 0.46001 0.21963 0.0
H3490 H 0.39405 0.43391 0.20949 0.0
H3491 H 0.33168 0.44795 0.20925 0.0
H3492 H 0.27701 0.36781 0.18641 0.0
H3493 H 0.29668 0.39597 0.18026 0.0
C3494 C 0.21448 0.5732 -0.0007 0.0
C3495 C 0.21621 0.59178 -0.00705 0.0
C3496 C 0.19788 0.5671 0.0085 0.0
C3497 C 0.15648 0.58545 0.03511 0.0
H3498 H 0.13421 0.53607 0.02454 0.0
C3499 C 0.07803 0.56569 0.04746 0.0
C3500 C 0.07309 0.54725 0.05255 0.0
C3501 C 0.09712 0.57093 0.04492 0.0
C3502 C 0.1405 0.54973 0.02799 0.0
H3503 H 0.2016 0.61829 0.99048 0.0
H3504 H 0.17238 0.60748 0.00615 0.0
H3505 H 0.16381 0.54545 0.00878 0.0
H3506 H 0.08413 0.52018 0.06036 0.0
H3507 H 0.11779 0.52933 0.0557 0.0
H3508 H 0.13272 0.58995 0.05379 0.0
C3509 C 0.18407 0.59778 0.00445 0.0
C3510 C 0.1574 0.55515 0.01888 0.0
C3511 C 0.20071 0.60391 -0.00472 0.0
C3512 C 0.08762 0.53451 0.05649 0.0
C3513 C 0.10681 0.53969 0.05368 0.0
C3514 C 0.13954 0.58006 0.04417 0.0
C3515 C 0.18263 0.57942 0.01148 0.0
C3516 C 0.16535 0.57322 0.02203 0.0
C3517 C 0.11164 0.55776 0.04721 0.0
C3518 C 0.13118 0.56229 0.04039 0.0
H3519 H 0.2262 0.56352 -0.00225 0.0
H3520 H 0.19727 0.55291 0.01382 0.0
H3521 H 0.1625 0.5993 0.03819 0.0
H3522 H 0.06705 0.57579 0.04441 0.0
H3523 H 0.10036 0.58491 0.03981 0.0
C3524 C 0.66259 0.92291 0.30154 0.0
C3525 C 0.66406 0.94104 0.29411 0.0
C3526 C 0.6787 0.91418 0.30869 0.0
C3527 C 0.72967 0.91385 0.29942 0.0
H3528 H 0.72534 0.87148 0.33313 0.0
C3529 C 0.76008 0.83413 0.31159 0.0
C3530 C 0.75902 0.82866 0.29228 0.0
C3531 C 0.75573 0.85251 0.31727 0.0
C3532 C 0.72724 0.88351 0.32405 0.0
H3533 H 0.68318 0.96493 0.28981 0.0
H3534 H 0.71143 0.94964 0.30241 0.0
H3535 H 0.70248 0.89672 0.33566 0.0
H3536 H 0.75427 0.83858 0.26367 0.0
H3537 H 0.74627 0.87021 0.2735 0.0
H3538 H 0.75403 0.90031 0.28737 0.0
C3539 C 0.69785 0.94208 0.30243 0.0
C3540 C 0.71394 0.89789 0.32536 0.0
C3541 C 0.68169 0.95081 0.29521 0.0
C3542 C 0.75498 0.84225 0.27869 0.0
C3543 C 0.75065 0.86054 0.28434 0.0
C3544 C 0.74312 0.8996 0.29829 0.0
C3545 C 0.69666 0.92342 0.30866 0.0
C3546 C 0.71415 0.91242 0.31207 0.0
C3547 C 0.75029 0.86573 0.30374 0.0
C3548 C 0.74112 0.88359 0.30959 0.0
H3549 H 0.64916 0.91507 0.30104 0.0
H3550 H 0.67723 0.89971 0.31306 0.0
H3551 H 0.73042 0.92492 0.28906 0.0
H3552 H 0.76341 0.82404 0.32241 0.0
H3553 H 0.75579 0.85614 0.33231 0.0
C3554 C 0.85246 0.07788 0.75238 0.0
C3555 C 0.87184 0.08336 0.75345 0.0
C3556 C 0.83816 0.09087 0.75604 0.0
C3557 C 0.82833 0.13569 0.78015 0.0
H3558 H 0.78668 0.13807 0.74386 0.0
C3559 C 0.77605 0.19755 0.77654 0.0
C3560 C 0.75746 0.19388 0.76965 0.0
C3561 C 0.78919 0.18304 0.77768 0.0
C3562 C 0.79795 0.13735 0.75439 0.0
H3563 H 0.89149 0.10667 0.75932 0.0
H3564 H 0.86633 0.12948 0.76573 0.0
H3565 H 0.81155 0.11503 0.73912 0.0
H3566 H 0.73744 0.17199 0.76036 0.0
H3567 H 0.76013 0.14656 0.76303 0.0
H3568 H 0.81469 0.15807 0.79544 0.0
C3569 C 0.86231 0.11508 0.76213 0.0
C3570 C 0.81227 0.12422 0.75158 0.0
C3571 C 0.87666 0.10209 0.75831 0.0
C3572 C 0.75178 0.17525 0.76544 0.0
C3573 C 0.76482 0.16072 0.76685 0.0
C3574 C 0.81387 0.14878 0.78308 0.0
C3575 C 0.84294 0.10957 0.76096 0.0
C3576 C 0.82765 0.12334 0.76434 0.0
C3577 C 0.7839 0.16457 0.77218 0.0
C3578 C 0.79857 0.14983 0.77015 0.0
H3579 H 0.8483 0.06352 0.74874 0.0
H3580 H 0.82333 0.08623 0.75518 0.0
H3581 H 0.83997 0.13513 0.7903 0.0
H3582 H 0.78084 0.2118 0.77986 0.0
H3583 H 0.80379 0.18653 0.78176 0.0
loop_
_geom_bond_atom_site_label_1
_geom_bond_atom_site_label_2
_geom_bond_distance
_geom_bond_site_symmetry_2
_ccdc_geom_bond_type
C0 O1 1.306 . S
C0 O3 1.160 . S
O1 C0 1.306 . S
O1 Cd2 2.228 1_655 S
Cd2 O1 2.228 1_455 S
Cd2 O6 2.273 . S
Cd2 O10 2.277 . S
O3 C0 1.160 . S
O3 Cd4 2.203 1_655 S
Cd4 O3 2.203 1_455 S
Cd4 O6 2.411 . S
Cd4 O7 2.333 . S
Cd4 O8 2.352 . S
Cd4 O12 2.277 . S
Cd4 O13 2.356 . S
C5 O10 1.209 . S
C5 O12 1.226 . S
O6 Cd2 2.273 . S
O6 Cd4 2.411 . S
O6 C9 1.320 . S
O7 Cd4 2.333 . S
O7 C9 1.214 . S
O8 Cd4 2.352 . S
O8 C11 1.258 . S
C9 O6 1.320 . S
C9 O7 1.214 . S
O10 Cd2 2.277 . S
O10 C5 1.209 . S
C11 O8 1.258 . S
C11 O13 1.282 . S
O12 Cd4 2.277 . S
O12 C5 1.226 . S
O13 Cd4 2.356 . S
O13 C11 1.282 . S
C14 O15 1.306 . S
C14 O17 1.160 . S
O15 C14 1.306 . S
O15 Cd16 2.228 1_655 S
Cd16 O15 2.228 1_455 S
Cd16 O20 2.273 . S
Cd16 O24 2.277 . S
O17 C14 1.160 . S
O17 Cd18 2.203 1_655 S
Cd18 O17 2.203 1_455 S
Cd18 O20 2.411 . S
Cd18 O21 2.333 . S
Cd18 O22 2.352 . S
Cd18 O26 2.277 . S
Cd18 O27 2.356 . S
C19 O24 1.209 . S
C19 O26 1.226 . S
O20 Cd16 2.273 . S
O20 Cd18 2.411 . S
O20 C23 1.320 . S
O21 Cd18 2.333 . S
O21 C23 1.214 . S
O22 Cd18 2.352 . S
O22 C25 1.258 . S
C23 O20 1.320 . S
C23 O21 1.214 . S
O24 Cd16 2.277 . S
O24 C19 1.209 . S
C25 O22 1.258 . S
C25 O27 1.282 . S
O26 Cd18 2.277 . S
O26 C19 1.226 . S
O27 Cd18 2.356 . S
O27 C25 1.282 . S
C28 O29 1.306 . S
C28 O31 1.160 . S
O29 C28 1.306 . S
O29 Cd30 2.228 . S
Cd30 O29 2.228 . S
Cd30 O34 2.273 . S
Cd30 O38 2.277 . S
O31 C28 1.160 . S
O31 Cd32 2.203 . S
Cd32 O31 2.203 . S
Cd32 O34 2.411 . S
Cd32 O35 2.333 . S
Cd32 O36 2.352 . S
Cd32 O40 2.277 . S
Cd32 O41 2.356 . S
C33 O38 1.209 . S
C33 O40 1.226 . S
O34 Cd30 2.273 . S
O34 Cd32 2.411 . S
O34 C37 1.320 . S
O35 Cd32 2.333 . S
O35 C37 1.214 . S
O36 Cd32 2.352 . S
O36 C39 1.258 . S
C37 O34 1.320 . S
C37 O35 1.214 . S
O38 Cd30 2.277 . S
O38 C33 1.209 . S
C39 O36 1.258 . S
C39 O41 1.282 . S
O40 Cd32 2.277 . S
O40 C33 1.226 . S
O41 Cd32 2.356 . S
O41 C39 1.282 . S
C42 O43 1.306 . S
C42 O45 1.160 . S
O43 C42 1.306 . S
O43 Cd44 2.228 . S
Cd44 O43 2.228 . S
Cd44 O48 2.273 . S
Cd44 O52 2.277 . S
O45 C42 1.160 . S
O45 Cd46 2.203 . S
Cd46 O45 2.203 . S
Cd46 O48 2.411 . S
Cd46 O49 2.333 . S
Cd46 O50 2.352 . S
Cd46 O54 2.277 . S
Cd46 O55 2.356 . S
C47 O52 1.209 . S
C47 O54 1.226 . S
O48 Cd44 2.273 . S
O48 Cd46 2.411 . S
O48 C51 1.320 . S
O49 Cd46 2.333 . S
O49 C51 1.214 . S
O50 Cd46 2.352 . S
O50 C53 1.258 . S
C51 O48 1.320 . S
C51 O49 1.214 . S
O52 Cd44 2.277 . S
O52 C47 1.209 . S
C53 O50 1.258 . S
C53 O55 1.282 . S
O54 Cd46 2.277 . S
O54 C47 1.226 . S
O55 Cd46 2.356 . S
O55 C53 1.282 . S
C56 O57 1.306 . S
C56 O59 1.160 . S
O57 C56 1.306 . S
O57 Cd58 2.228 . S
Cd58 O57 2.228 . S
Cd58 O62 2.273 . S
Cd58 O66 2.277 . S
O59 C56 1.160 . S
O59 Cd60 2.203 . S
Cd60 O59 2.203 . S
Cd60 O62 2.411 . S
Cd60 O63 2.333 . S
Cd60 O64 2.352 1_545 S
Cd60 O68 2.277 . S
Cd60 O69 2.356 1_545 S
C61 O66 1.209 . S
C61 O68 1.226 . S
O62 Cd58 2.273 . S
O62 Cd60 2.411 . S
O62 C65 1.320 . S
O63 Cd60 2.333 . S
O63 C65 1.214 . S
O64 Cd60 2.352 1_565 S
O64 C67 1.258 . S
C65 O62 1.320 . S
C65 O63 1.214 . S
O66 Cd58 2.277 . S
O66 C61 1.209 . S
C67 O64 1.258 . S
C67 O69 1.282 . S
O68 Cd60 2.277 . S
O68 C61 1.226 . S
O69 Cd60 2.356 1_565 S
O69 C67 1.282 . S
C70 O71 1.306 . S
C70 O73 1.160 . S
O71 C70 1.306 . S
O71 Cd72 2.228 . S
Cd72 O71 2.228 . S
Cd72 O76 2.273 . S
Cd72 O80 2.277 . S
O73 C70 1.160 . S
O73 Cd74 2.203 . S
Cd74 O73 2.203 . S
Cd74 O76 2.411 . S
Cd74 O77 2.333 . S
Cd74 O78 2.352 . S
Cd74 O82 2.277 . S
Cd74 O83 2.356 . S
C75 O80 1.209 . S
C75 O82 1.226 . S
O76 Cd72 2.273 . S
O76 Cd74 2.411 . S
O76 C79 1.320 . S
O77 Cd74 2.333 . S
O77 C79 1.214 . S
O78 Cd74 2.352 . S
O78 C81 1.258 . S
C79 O76 1.320 . S
C79 O77 1.214 . S
O80 Cd72 2.277 . S
O80 C75 1.209 . S
C81 O78 1.258 . S
C81 O83 1.282 . S
O82 Cd74 2.277 . S
O82 C75 1.226 . S
O83 Cd74 2.356 . S
O83 C81 1.282 . S
C84 O85 1.306 . S
C84 O87 1.160 1_565 S
O85 C84 1.306 . S
O85 Cd86 2.228 . S
Cd86 O85 2.228 . S
Cd86 O90 2.270 1_565 S
Cd86 O94 2.277 . S
O87 C84 1.160 1_545 S
O87 Cd88 2.203 . S
Cd88 O87 2.203 . S
Cd88 O90 2.411 . S
Cd88 O91 2.333 . S
Cd88 O92 2.352 . S
Cd88 O96 2.277 1_545 S
Cd88 O97 2.356 . S
C89 O94 1.209 . S
C89 O96 1.226 . S
O90 Cd86 2.270 1_545 S
O90 Cd88 2.411 . S
O90 C93 1.321 . S
O91 Cd88 2.333 . S
O91 C93 1.214 . S
O92 Cd88 2.352 . S
O92 C95 1.258 . S
C93 O90 1.321 . S
C93 O91 1.214 . S
O94 Cd86 2.277 . S
O94 C89 1.209 . S
C95 O92 1.258 . S
C95 O97 1.282 . S
O96 Cd88 2.277 1_565 S
O96 C89 1.226 . S
O97 Cd88 2.356 . S
O97 C95 1.282 . S
C98 O99 1.306 . S
C98 O101 1.160 . S
O99 C98 1.306 . S
O99 Cd100 2.228 . S
Cd100 O99 2.228 . S
Cd100 O104 2.273 . S
Cd100 O108 2.277 . S
O101 C98 1.160 . S
O101 Cd102 2.203 . S
Cd102 O101 2.203 . S
Cd102 O104 2.411 . S
Cd102 O105 2.333 . S
Cd102 O106 2.352 1_554 S
Cd102 O110 2.277 . S
Cd102 O111 2.356 1_554 S
C103 O108 1.209 . S
C103 O110 1.226 . S
O104 Cd100 2.273 . S
O104 Cd102 2.411 . S
O104 C107 1.320 . S
O105 Cd102 2.333 . S
O105 C107 1.214 . S
O106 Cd102 2.352 1_556 S
O106 C109 1.258 . S
C107 O104 1.320 . S
C107 O105 1.214 . S
O108 Cd100 2.277 . S
O108 C103 1.209 . S
C109 O106 1.258 . S
C109 O111 1.282 . S
O110 Cd102 2.277 . S
O110 C103 1.226 . S
O111 Cd102 2.356 1_556 S
O111 C109 1.282 . S
C112 O113 1.285 1_554 S
C112 O115 1.160 . S
O113 C112 1.285 1_556 S
O113 Cd114 2.258 . S
Cd114 O113 2.258 . S
Cd114 O118 2.273 1_556 S
Cd114 O122 2.277 . S
O115 C112 1.160 . S
O115 Cd116 2.203 . S
Cd116 O115 2.203 . S
Cd116 O118 2.411 . S
Cd116 O119 2.333 . S
Cd116 O120 2.352 . S
Cd116 O124 2.277 1_554 S
Cd116 O125 2.356 . S
C117 O122 1.209 . S
C117 O124 1.226 . S
O118 Cd114 2.273 1_554 S
O118 Cd116 2.411 . S
O118 C121 1.320 . S
O119 Cd116 2.333 . S
O119 C121 1.214 . S
O120 Cd116 2.352 . S
O120 C123 1.258 . S
C121 O118 1.320 . S
C121 O119 1.214 . S
O122 Cd114 2.277 . S
O122 C117 1.209 . S
C123 O120 1.258 . S
C123 O125 1.282 . S
O124 Cd116 2.277 1_556 S
O124 C117 1.226 . S
O125 Cd116 2.356 . S
O125 C123 1.282 . S
C126 O127 1.306 . S
C126 O129 1.160 . S
O127 C126 1.306 . S
O127 Cd128 2.228 . S
Cd128 O127 2.228 . S
Cd128 O132 2.273 . S
Cd128 O136 2.277 . S
O129 C126 1.160 . S
O129 Cd130 2.203 . S
Cd130 O129 2.203 . S
Cd130 O132 2.411 . S
Cd130 O133 2.333 . S
Cd130 O134 2.352 . S
Cd130 O138 2.277 . S
Cd130 O139 2.356 . S
C131 O136 1.209 . S
C131 O138 1.226 . S
O132 Cd128 2.273 . S
O132 Cd130 2.411 . S
O132 C135 1.320 . S
O133 Cd130 2.333 . S
O133 C135 1.214 . S
O134 Cd130 2.352 . S
O134 C137 1.258 . S
C135 O132 1.320 . S
C135 O133 1.214 . S
O136 Cd128 2.277 . S
O136 C131 1.209 . S
C137 O134 1.258 . S
C137 O139 1.282 . S
O138 Cd130 2.277 . S
O138 C131 1.226 . S
O139 Cd130 2.356 . S
O139 C137 1.282 . S
C140 O141 1.306 . S
C140 O143 1.160 . S
O141 C140 1.306 . S
O141 Cd142 2.228 . S
Cd142 O141 2.228 . S
Cd142 O146 2.273 . S
Cd142 O150 2.277 . S
O143 C140 1.160 . S
O143 Cd144 2.203 . S
Cd144 O143 2.203 . S
Cd144 O146 2.411 . S
Cd144 O147 2.333 . S
Cd144 O148 2.352 . S
Cd144 O152 2.277 . S
Cd144 O153 2.356 . S
C145 O150 1.209 . S
C145 O152 1.226 . S
O146 Cd142 2.273 . S
O146 Cd144 2.411 . S
O146 C149 1.320 . S
O147 Cd144 2.333 . S
O147 C149 1.214 . S
O148 Cd144 2.352 . S
O148 C151 1.258 . S
C149 O146 1.320 . S
C149 O147 1.214 . S
O150 Cd142 2.277 . S
O150 C145 1.209 . S
C151 O148 1.258 . S
C151 O153 1.282 . S
O152 Cd144 2.277 . S
O152 C145 1.226 . S
O153 Cd144 2.356 . S
O153 C151 1.282 . S
C154 O155 1.306 . S
C154 O157 1.160 . S
O155 C154 1.306 . S
O155 Cd156 2.228 . S
Cd156 O155 2.228 . S
Cd156 O160 2.273 . S
Cd156 O164 2.277 . S
O157 C154 1.160 . S
O157 Cd158 2.203 . S
Cd158 O157 2.203 . S
Cd158 O160 2.411 . S
Cd158 O161 2.333 . S
Cd158 O162 2.352 . S
Cd158 O166 2.277 . S
Cd158 O167 2.356 . S
C159 O164 1.209 . S
C159 O166 1.226 . S
O160 Cd156 2.273 . S
O160 Cd158 2.411 . S
O160 C163 1.320 . S
O161 Cd158 2.333 . S
O161 C163 1.214 . S
O162 Cd158 2.352 . S
O162 C165 1.258 . S
C163 O160 1.320 . S
C163 O161 1.214 . S
O164 Cd156 2.277 . S
O164 C159 1.209 . S
C165 O162 1.258 . S
C165 O167 1.282 . S
O166 Cd158 2.277 . S
O166 C159 1.226 . S
O167 Cd158 2.356 . S
O167 C165 1.282 . S
C168 O169 1.306 . S
C168 O171 1.160 . S
O169 C168 1.306 . S
O169 Cd170 2.228 1_655 S
Cd170 O169 2.228 1_455 S
Cd170 O174 2.273 . S
Cd170 O178 2.277 . S
O171 C168 1.160 . S
O171 Cd172 2.203 1_655 S
Cd172 O171 2.203 1_455 S
Cd172 O174 2.411 . S
Cd172 O175 2.333 . S
Cd172 O176 2.352 . S
Cd172 O180 2.277 . S
Cd172 O181 2.356 . S
C173 O178 1.209 . S
C173 O180 1.226 . S
O174 Cd170 2.273 . S
O174 Cd172 2.411 . S
O174 C177 1.320 . S
O175 Cd172 2.333 . S
O175 C177 1.214 . S
O176 Cd172 2.352 . S
O176 C179 1.258 . S
C177 O174 1.320 . S
C177 O175 1.214 . S
O178 Cd170 2.277 . S
O178 C173 1.209 . S
C179 O176 1.258 . S
C179 O181 1.282 . S
O180 Cd172 2.277 . S
O180 C173 1.226 . S
O181 Cd172 2.356 . S
O181 C179 1.282 . S
C182 O183 1.306 . S
C182 O185 1.160 . S
O183 C182 1.306 . S
O183 Cd184 2.228 1_655 S
Cd184 O183 2.228 1_455 S
Cd184 O188 2.273 . S
Cd184 O192 2.277 . S
O185 C182 1.160 . S
O185 Cd186 2.203 1_655 S
Cd186 O185 2.203 1_455 S
Cd186 O188 2.411 . S
Cd186 O189 2.333 . S
Cd186 O190 2.352 . S
Cd186 O194 2.277 . S
Cd186 O195 2.356 . S
C187 O192 1.209 . S
C187 O194 1.226 . S
O188 Cd184 2.273 . S
O188 Cd186 2.411 . S
O188 C191 1.320 . S
O189 Cd186 2.333 . S
O189 C191 1.214 . S
O190 Cd186 2.352 . S
O190 C193 1.258 . S
C191 O188 1.320 . S
C191 O189 1.214 . S
O192 Cd184 2.277 . S
O192 C187 1.209 . S
C193 O190 1.258 . S
C193 O195 1.282 . S
O194 Cd186 2.277 . S
O194 C187 1.226 . S
O195 Cd186 2.356 . S
O195 C193 1.282 . S
C196 O197 1.306 . S
C196 O199 1.160 . S
O197 C196 1.306 . S
O197 Cd198 2.228 . S
Cd198 O197 2.228 . S
Cd198 O202 2.273 . S
Cd198 O206 2.277 . S
O199 C196 1.160 . S
O199 Cd200 2.203 . S
Cd200 O199 2.203 . S
Cd200 O202 2.411 . S
Cd200 O203 2.333 . S
Cd200 O204 2.352 . S
Cd200 O208 2.277 . S
Cd200 O209 2.356 . S
C201 O206 1.209 . S
C201 O208 1.226 . S
O202 Cd198 2.273 . S
O202 Cd200 2.411 . S
O202 C205 1.320 . S
O203 Cd200 2.333 . S
O203 C205 1.214 . S
O204 Cd200 2.352 . S
O204 C207 1.258 . S
C205 O202 1.320 . S
C205 O203 1.214 . S
O206 Cd198 2.277 . S
O206 C201 1.209 . S
C207 O204 1.258 . S
C207 O209 1.282 . S
O208 Cd200 2.277 . S
O208 C201 1.226 . S
O209 Cd200 2.356 . S
O209 C207 1.282 . S
C210 O211 1.306 . S
C210 O213 1.160 . S
O211 C210 1.306 . S
O211 Cd212 2.228 . S
Cd212 O211 2.228 . S
Cd212 O216 2.273 . S
Cd212 O220 2.277 . S
O213 C210 1.160 . S
O213 Cd214 2.203 . S
Cd214 O213 2.203 . S
Cd214 O216 2.411 . S
Cd214 O217 2.333 . S
Cd214 O218 2.352 . S
Cd214 O222 2.277 . S
Cd214 O223 2.356 . S
C215 O220 1.209 . S
C215 O222 1.226 . S
O216 Cd212 2.273 . S
O216 Cd214 2.411 . S
O216 C219 1.320 . S
O217 Cd214 2.333 . S
O217 C219 1.214 . S
O218 Cd214 2.352 . S
O218 C221 1.258 . S
C219 O216 1.320 . S
C219 O217 1.214 . S
O220 Cd212 2.277 . S
O220 C215 1.209 . S
C221 O218 1.258 . S
C221 O223 1.282 . S
O222 Cd214 2.277 . S
O222 C215 1.226 . S
O223 Cd214 2.356 . S
O223 C221 1.282 . S
C224 O225 1.306 . S
C224 O227 1.160 . S
O225 C224 1.306 . S
O225 Cd226 2.228 1_545 S
Cd226 O225 2.228 1_565 S
Cd226 O230 2.273 1_565 S
Cd226 O234 2.277 . S
O227 C224 1.160 . S
O227 Cd228 2.203 . S
Cd228 O227 2.203 . S
Cd228 O230 2.411 . S
Cd228 O231 2.333 . S
Cd228 O232 2.352 . S
Cd228 O236 2.277 1_545 S
Cd228 O237 2.356 . S
C229 O234 1.209 . S
C229 O236 1.226 . S
O230 Cd226 2.273 1_545 S
O230 Cd228 2.411 . S
O230 C233 1.320 . S
O231 Cd228 2.333 . S
O231 C233 1.214 . S
O232 Cd228 2.352 . S
O232 C235 1.258 . S
C233 O230 1.320 . S
C233 O231 1.214 . S
O234 Cd226 2.277 . S
O234 C229 1.209 . S
C235 O232 1.258 . S
C235 O237 1.282 . S
O236 Cd228 2.277 1_565 S
O236 C229 1.226 . S
O237 Cd228 2.356 . S
O237 C235 1.282 . S
C238 O239 1.306 . S
C238 O241 1.160 . S
O239 C238 1.306 . S
O239 Cd240 2.228 . S
Cd240 O239 2.228 . S
Cd240 O244 2.273 . S
Cd240 O248 2.277 . S
O241 C238 1.160 . S
O241 Cd242 2.203 . S
Cd242 O241 2.203 . S
Cd242 O244 2.411 . S
Cd242 O245 2.333 . S
Cd242 O246 2.352 . S
Cd242 O250 2.277 . S
Cd242 O251 2.356 . S
C243 O248 1.209 . S
C243 O250 1.226 . S
O244 Cd240 2.273 . S
O244 Cd242 2.411 . S
O244 C247 1.320 . S
O245 Cd242 2.333 . S
O245 C247 1.214 . S
O246 Cd242 2.352 . S
O246 C249 1.258 . S
C247 O244 1.320 . S
C247 O245 1.214 . S
O248 Cd240 2.277 . S
O248 C243 1.209 . S
C249 O246 1.258 . S
C249 O251 1.282 . S
O250 Cd242 2.277 . S
O250 C243 1.226 . S
O251 Cd242 2.356 . S
O251 C249 1.282 . S
C252 O253 1.306 . S
C252 O255 1.160 1_545 S
O253 C252 1.306 . S
O253 Cd254 2.228 . S
Cd254 O253 2.228 . S
Cd254 O258 2.273 . S
Cd254 O262 2.277 . S
O255 C252 1.160 1_565 S
O255 Cd256 2.203 . S
Cd256 O255 2.203 . S
Cd256 O258 2.411 1_565 S
Cd256 O259 2.333 . S
Cd256 O260 2.352 . S
Cd256 O264 2.277 1_565 S
Cd256 O265 2.356 . S
C257 O262 1.209 . S
C257 O264 1.226 . S
O258 Cd254 2.273 . S
O258 Cd256 2.411 1_545 S
O258 C261 1.317 1_545 S
O259 Cd256 2.333 . S
O259 C261 1.221 . S
O260 Cd256 2.352 . S
O260 C263 1.258 . S
C261 O258 1.317 1_565 S
C261 O259 1.221 . S
O262 Cd254 2.277 . S
O262 C257 1.209 . S
C263 O260 1.258 . S
C263 O265 1.282 . S
O264 Cd256 2.277 1_545 S
O264 C257 1.226 . S
O265 Cd256 2.356 . S
O265 C263 1.282 . S
C266 O267 1.306 1_554 S
C266 O269 1.160 . S
O267 C266 1.306 1_556 S
O267 Cd268 2.228 . S
Cd268 O267 2.228 . S
Cd268 O272 2.273 1_556 S
Cd268 O276 2.277 . S
O269 C266 1.160 . S
O269 Cd270 2.203 . S
Cd270 O269 2.203 . S
Cd270 O272 2.411 . S
Cd270 O273 2.333 . S
Cd270 O274 2.352 . S
Cd270 O278 2.277 1_554 S
Cd270 O279 2.356 . S
C271 O276 1.209 . S
C271 O278 1.226 . S
O272 Cd268 2.273 1_554 S
O272 Cd270 2.411 . S
O272 C275 1.320 . S
O273 Cd270 2.333 . S
O273 C275 1.214 . S
O274 Cd270 2.352 . S
O274 C277 1.258 . S
C275 O272 1.320 . S
C275 O273 1.214 . S
O276 Cd268 2.277 . S
O276 C271 1.209 . S
C277 O274 1.258 . S
C277 O279 1.282 . S
O278 Cd270 2.277 1_556 S
O278 C271 1.226 . S
O279 Cd270 2.356 . S
O279 C277 1.282 . S
C280 O281 1.306 . S
C280 O283 1.172 . S
O281 C280 1.306 . S
O281 Cd282 2.228 . S
Cd282 O281 2.228 . S
Cd282 O286 2.273 . S
Cd282 O290 2.277 . S
O283 C280 1.172 . S
O283 Cd284 2.202 1_554 S
Cd284 O283 2.202 1_556 S
Cd284 O286 2.409 1_556 S
Cd284 O287 2.333 1_556 S
Cd284 O288 2.362 . S
Cd284 O292 2.269 1_556 S
Cd284 O293 2.363 . S
C285 O290 1.209 . S
C285 O292 1.226 . S
O286 Cd282 2.273 . S
O286 Cd284 2.409 1_554 S
O286 C289 1.320 . S
O287 Cd284 2.333 1_554 S
O287 C289 1.214 . S
O288 Cd284 2.362 . S
O288 C291 1.258 . S
C289 O286 1.320 . S
C289 O287 1.214 . S
O290 Cd282 2.277 . S
O290 C285 1.209 . S
C291 O288 1.258 . S
C291 O293 1.282 . S
O292 Cd284 2.269 1_554 S
O292 C285 1.226 . S
O293 Cd284 2.363 . S
O293 C291 1.282 . S
C294 O295 1.306 . S
C294 O297 1.160 . S
O295 C294 1.306 . S
O295 Cd296 2.228 . S
Cd296 O295 2.228 . S
Cd296 O300 2.273 . S
Cd296 O304 2.277 . S
O297 C294 1.160 . S
O297 Cd298 2.203 . S
Cd298 O297 2.203 . S
Cd298 O300 2.411 . S
Cd298 O301 2.333 . S
Cd298 O302 2.352 . S
Cd298 O306 2.277 . S
Cd298 O307 2.356 . S
C299 O304 1.209 . S
C299 O306 1.226 . S
O300 Cd296 2.273 . S
O300 Cd298 2.411 . S
O300 C303 1.320 . S
O301 Cd298 2.333 . S
O301 C303 1.214 . S
O302 Cd298 2.352 . S
O302 C305 1.258 . S
C303 O300 1.320 . S
C303 O301 1.214 . S
O304 Cd296 2.277 . S
O304 C299 1.209 . S
C305 O302 1.258 . S
C305 O307 1.282 . S
O306 Cd298 2.277 . S
O306 C299 1.226 . S
O307 Cd298 2.356 . S
O307 C305 1.282 . S
C308 O309 1.306 . S
C308 O311 1.160 . S
O309 C308 1.306 . S
O309 Cd310 2.228 . S
Cd310 O309 2.228 . S
Cd310 O314 2.273 . S
Cd310 O318 2.277 . S
O311 C308 1.160 . S
O311 Cd312 2.203 . S
Cd312 O311 2.203 . S
Cd312 O314 2.411 . S
Cd312 O315 2.333 . S
Cd312 O316 2.352 . S
Cd312 O320 2.277 . S
Cd312 O321 2.356 . S
C313 O318 1.209 . S
C313 O320 1.226 . S
O314 Cd310 2.273 . S
O314 Cd312 2.411 . S
O314 C317 1.320 . S
O315 Cd312 2.333 . S
O315 C317 1.214 . S
O316 Cd312 2.352 . S
O316 C319 1.258 . S
C317 O314 1.320 . S
C317 O315 1.214 . S
O318 Cd310 2.277 . S
O318 C313 1.209 . S
C319 O316 1.258 . S
C319 O321 1.282 . S
O320 Cd312 2.277 . S
O320 C313 1.226 . S
O321 Cd312 2.356 . S
O321 C319 1.282 . S
C322 O323 1.306 . S
C322 O325 1.160 . S
O323 C322 1.306 . S
O323 Cd324 2.228 . S
Cd324 O323 2.228 . S
Cd324 O328 2.273 . S
Cd324 O332 2.277 . S
O325 C322 1.160 . S
O325 Cd326 2.203 . S
Cd326 O325 2.203 . S
Cd326 O328 2.411 . S
Cd326 O329 2.333 . S
Cd326 O330 2.352 . S
Cd326 O334 2.277 . S
Cd326 O335 2.356 . S
C327 O332 1.209 . S
C327 O334 1.226 . S
O328 Cd324 2.273 . S
O328 Cd326 2.411 . S
O328 C331 1.320 . S
O329 Cd326 2.333 . S
O329 C331 1.214 . S
O330 Cd326 2.352 . S
O330 C333 1.258 . S
C331 O328 1.320 . S
C331 O329 1.214 . S
O332 Cd324 2.277 . S
O332 C327 1.209 . S
C333 O330 1.258 . S
C333 O335 1.282 . S
O334 Cd326 2.277 . S
O334 C327 1.226 . S
O335 Cd326 2.356 . S
O335 C333 1.282 . S
O336 Zn337 1.953 . S
O336 C352 1.225 1_455 S
Zn337 O336 1.953 . S
Zn337 O338 1.949 . S
Zn337 O344 1.919 . S
Zn337 O349 1.924 1_454 S
O338 Zn337 1.949 . S
O338 Zn339 1.923 1_545 S
O338 Zn340 1.950 1_455 S
O338 Zn341 1.945 1_444 S
Zn339 O338 1.923 1_565 S
Zn339 O342 1.933 . S
Zn339 O345 1.941 1_565 S
Zn339 O346 1.965 . S
Zn340 O338 1.950 1_655 S
Zn340 O347 1.938 . S
Zn340 O348 1.906 1_545 S
Zn340 O358 1.953 . S
Zn341 O338 1.945 1_666 S
Zn341 O343 1.932 . S
Zn341 O350 1.977 1_556 S
Zn341 O351 1.910 1_565 S
O342 Zn339 1.933 . S
O342 C353 1.245 . S
O343 Zn341 1.932 . S
O343 C353 1.296 1_656 S
O344 Zn337 1.919 . S
O344 C355 1.253 . S
O345 Zn339 1.941 1_545 S
O345 C355 1.283 . S
O346 Zn339 1.965 . S
O346 C354 1.303 1_565 S
O347 Zn340 1.938 . S
O347 C354 1.247 1_655 S
O348 Zn340 1.906 1_565 S
O348 C356 1.304 . S
O349 Zn337 1.924 1_656 S
O349 C357 1.311 . S
O350 Zn341 1.977 1_554 S
O350 C356 1.272 . S
O351 Zn341 1.910 1_545 S
O351 C357 1.231 . S
C352 O336 1.225 1_655 S
C352 O358 1.298 . S
C353 O342 1.245 . S
C353 O343 1.296 1_454 S
C354 O346 1.303 1_545 S
C354 O347 1.247 1_455 S
C355 O344 1.253 . S
C355 O345 1.283 . S
C356 O348 1.304 . S
C356 O350 1.272 . S
C357 O349 1.311 . S
C357 O351 1.231 . S
O358 Zn340 1.953 . S
O358 C352 1.298 . S
O359 Zn360 1.953 . S
O359 C375 1.225 . S
Zn360 O359 1.953 . S
Zn360 O361 1.949 . S
Zn360 O367 1.919 . S
Zn360 O372 1.924 . S
O361 Zn360 1.949 . S
O361 Zn362 1.923 . S
O361 Zn363 1.950 . S
O361 Zn364 1.945 . S
Zn362 O361 1.923 . S
Zn362 O365 1.933 . S
Zn362 O368 1.941 . S
Zn362 O369 1.965 . S
Zn363 O361 1.950 . S
Zn363 O370 1.938 . S
Zn363 O371 1.906 . S
Zn363 O381 1.953 . S
Zn364 O361 1.945 . S
Zn364 O366 1.932 . S
Zn364 O373 1.977 . S
Zn364 O374 1.910 . S
O365 Zn362 1.933 . S
O365 C376 1.226 . S
O366 Zn364 1.932 . S
O366 C376 1.307 . S
O367 Zn360 1.919 . S
O367 C378 1.253 . S
O368 Zn362 1.941 . S
O368 C378 1.283 . S
O369 Zn362 1.965 . S
O369 C377 1.303 . S
O370 Zn363 1.938 . S
O370 C377 1.247 . S
O371 Zn363 1.906 . S
O371 C379 1.304 . S
O372 Zn360 1.924 . S
O372 C380 1.311 . S
O373 Zn364 1.977 . S
O373 C379 1.272 . S
O374 Zn364 1.910 . S
O374 C380 1.231 . S
C375 O359 1.225 . S
C375 O381 1.298 . S
C376 O365 1.226 . S
C376 O366 1.307 . S
C377 O369 1.303 . S
C377 O370 1.247 . S
C378 O367 1.253 . S
C378 O368 1.283 . S
C379 O371 1.304 . S
C379 O373 1.272 . S
C380 O372 1.311 . S
C380 O374 1.231 . S
O381 Zn363 1.953 . S
O381 C375 1.298 . S
O382 Zn383 1.953 . S
O382 C398 1.225 . S
Zn383 O382 1.953 . S
Zn383 O384 1.949 1_565 S
Zn383 O390 1.919 . S
Zn383 O395 1.924 . S
O384 Zn383 1.949 1_545 S
O384 Zn385 1.923 . S
O384 Zn386 1.950 . S
O384 Zn387 1.945 . S
Zn385 O384 1.923 . S
Zn385 O388 1.933 . S
Zn385 O391 1.941 . S
Zn385 O392 1.965 . S
Zn386 O384 1.950 . S
Zn386 O393 1.938 . S
Zn386 O394 1.906 . S
Zn386 O404 1.953 1_545 S
Zn387 O384 1.945 . S
Zn387 O389 1.932 . S
Zn387 O396 1.977 . S
Zn387 O397 1.910 . S
O388 Zn385 1.933 . S
O388 C399 1.226 . S
O389 Zn387 1.932 . S
O389 C399 1.307 . S
O390 Zn383 1.919 . S
O390 C401 1.212 1_565 S
O391 Zn385 1.941 . S
O391 C401 1.324 . S
O392 Zn385 1.965 . S
O392 C400 1.303 . S
O393 Zn386 1.938 . S
O393 C400 1.247 . S
O394 Zn386 1.906 . S
O394 C402 1.304 . S
O395 Zn383 1.924 . S
O395 C403 1.311 . S
O396 Zn387 1.977 . S
O396 C402 1.272 . S
O397 Zn387 1.910 . S
O397 C403 1.231 1_545 S
C398 O382 1.225 . S
C398 O404 1.298 . S
C399 O388 1.226 . S
C399 O389 1.307 . S
C400 O392 1.303 . S
C400 O393 1.247 . S
C401 O390 1.212 1_545 S
C401 O391 1.324 . S
C402 O394 1.304 . S
C402 O396 1.272 . S
C403 O395 1.311 . S
C403 O397 1.231 1_565 S
O404 Zn386 1.953 1_565 S
O404 C398 1.298 . S
O405 Zn406 1.953 . S
O405 C421 1.225 . S
Zn406 O405 1.953 . S
Zn406 O407 1.949 . S
Zn406 O413 1.919 . S
Zn406 O418 1.924 . S
O407 Zn406 1.949 . S
O407 Zn408 1.923 . S
O407 Zn409 1.950 . S
O407 Zn410 1.945 . S
Zn408 O407 1.923 . S
Zn408 O411 1.933 . S
Zn408 O414 1.941 . S
Zn408 O415 1.965 . S
Zn409 O407 1.950 . S
Zn409 O416 1.938 . S
Zn409 O417 1.906 . S
Zn409 O427 1.953 . S
Zn410 O407 1.945 . S
Zn410 O412 1.932 . S
Zn410 O419 1.977 . S
Zn410 O420 1.910 . S
O411 Zn408 1.933 . S
O411 C422 1.226 . S
O412 Zn410 1.932 . S
O412 C422 1.307 . S
O413 Zn406 1.919 . S
O413 C424 1.253 . S
O414 Zn408 1.941 . S
O414 C424 1.283 . S
O415 Zn408 1.965 . S
O415 C423 1.303 . S
O416 Zn409 1.938 . S
O416 C423 1.247 . S
O417 Zn409 1.906 . S
O417 C425 1.304 . S
O418 Zn406 1.924 . S
O418 C426 1.311 . S
O419 Zn410 1.977 . S
O419 C425 1.272 . S
O420 Zn410 1.910 . S
O420 C426 1.231 . S
C421 O405 1.225 . S
C421 O427 1.298 . S
C422 O411 1.226 . S
C422 O412 1.307 . S
C423 O415 1.303 . S
C423 O416 1.247 . S
C424 O413 1.253 . S
C424 O414 1.283 . S
C425 O417 1.304 . S
C425 O419 1.272 . S
C426 O418 1.311 . S
C426 O420 1.231 . S
O427 Zn409 1.953 . S
O427 C421 1.298 . S
O428 Zn429 1.953 1_455 S
O428 C444 1.225 . S
Zn429 O428 1.953 1_655 S
Zn429 O430 1.949 1_655 S
Zn429 O436 1.919 1_545 S
Zn429 O441 1.924 . S
O430 Zn429 1.949 1_455 S
O430 Zn431 1.923 1_545 S
O430 Zn432 1.950 . S
O430 Zn433 1.945 1_455 S
Zn431 O430 1.923 1_565 S
Zn431 O434 1.933 . S
Zn431 O437 1.941 . S
Zn431 O438 1.965 . S
Zn432 O430 1.950 . S
Zn432 O439 1.938 . S
Zn432 O440 1.906 . S
Zn432 O450 1.953 . S
Zn433 O430 1.945 1_655 S
Zn433 O435 1.932 . S
Zn433 O442 1.977 1_655 S
Zn433 O443 1.910 . S
O434 Zn431 1.933 . S
O434 C445 1.196 1_465 S
O435 Zn433 1.932 . S
O435 C445 1.352 . S
O436 Zn429 1.919 1_565 S
O436 C447 1.253 . S
O437 Zn431 1.941 . S
O437 C447 1.283 1_455 S
O438 Zn431 1.965 . S
O438 C446 1.292 1_565 S
O439 Zn432 1.938 . S
O439 C446 1.268 . S
O440 Zn432 1.906 . S
O440 C448 1.304 . S
O441 Zn429 1.924 . S
O441 C449 1.311 . S
O442 Zn433 1.977 1_455 S
O442 C448 1.272 . S
O443 Zn433 1.910 . S
O443 C449 1.231 . S
C444 O428 1.225 . S
C444 O450 1.298 . S
C445 O434 1.196 1_645 S
C445 O435 1.352 . S
C446 O438 1.292 1_545 S
C446 O439 1.268 . S
C447 O436 1.253 . S
C447 O437 1.283 1_655 S
C448 O440 1.304 . S
C448 O442 1.272 . S
C449 O441 1.311 . S
C449 O443 1.231 . S
O450 Zn432 1.953 . S
O450 C444 1.298 . S
O451 Zn452 1.953 . S
O451 C467 1.225 . S
Zn452 O451 1.953 . S
Zn452 O453 1.949 . S
Zn452 O459 1.919 . S
Zn452 O464 1.924 . S
O453 Zn452 1.949 . S
O453 Zn454 1.923 . S
O453 Zn455 1.950 . S
O453 Zn456 1.945 . S
Zn454 O453 1.923 . S
Zn454 O457 1.933 . S
Zn454 O460 1.941 . S
Zn454 O461 1.965 . S
Zn455 O453 1.950 . S
Zn455 O462 1.938 . S
Zn455 O463 1.906 . S
Zn455 O473 1.953 . S
Zn456 O453 1.945 . S
Zn456 O458 1.932 . S
Zn456 O465 1.977 . S
Zn456 O466 1.910 . S
O457 Zn454 1.933 . S
O457 C468 1.226 . S
O458 Zn456 1.932 . S
O458 C468 1.307 . S
O459 Zn452 1.919 . S
O459 C470 1.253 . S
O460 Zn454 1.941 . S
O460 C470 1.283 . S
O461 Zn454 1.965 . S
O461 C469 1.303 . S
O462 Zn455 1.938 . S
O462 C469 1.247 . S
O463 Zn455 1.906 . S
O463 C471 1.304 . S
O464 Zn452 1.924 . S
O464 C472 1.311 . S
O465 Zn456 1.977 . S
O465 C471 1.272 . S
O466 Zn456 1.910 . S
O466 C472 1.231 . S
C467 O451 1.225 . S
C467 O473 1.298 . S
C468 O457 1.226 . S
C468 O458 1.307 . S
C469 O461 1.303 . S
C469 O462 1.247 . S
C470 O459 1.253 . S
C470 O460 1.283 . S
C471 O463 1.304 . S
C471 O465 1.272 . S
C472 O464 1.311 . S
C472 O466 1.231 . S
O473 Zn455 1.953 . S
O473 C467 1.298 . S
O474 Zn475 1.953 . S
O474 C490 1.225 . S
Zn475 O474 1.953 . S
Zn475 O476 1.949 . S
Zn475 O482 1.922 1_545 S
Zn475 O487 1.924 . S
O476 Zn475 1.949 . S
O476 Zn477 1.923 1_545 S
O476 Zn478 1.950 . S
O476 Zn479 1.945 1_554 S
Zn477 O476 1.923 1_565 S
Zn477 O480 1.933 1_554 S
Zn477 O483 1.947 . S
Zn477 O484 1.965 . S
Zn478 O476 1.950 . S
Zn478 O485 1.938 1_545 S
Zn478 O486 1.906 . S
Zn478 O496 1.953 . S
Zn479 O476 1.945 1_556 S
Zn479 O481 1.932 . S
Zn479 O488 1.977 1_556 S
Zn479 O489 1.910 . S
O480 Zn477 1.933 1_556 S
O480 C491 1.226 . S
O481 Zn479 1.932 . S
O481 C491 1.307 1_545 S
O482 Zn475 1.922 1_565 S
O482 C493 1.251 1_554 S
O483 Zn477 1.947 . S
O483 C493 1.281 1_554 S
O484 Zn477 1.965 . S
O484 C492 1.303 . S
O485 Zn478 1.938 1_565 S
O485 C492 1.247 . S
O486 Zn478 1.906 . S
O486 C494 1.304 . S
O487 Zn475 1.924 . S
O487 C495 1.311 . S
O488 Zn479 1.977 1_554 S
O488 C494 1.272 . S
O489 Zn479 1.910 . S
O489 C495 1.231 1_556 S
C490 O474 1.225 . S
C490 O496 1.298 . S
C491 O480 1.226 . S
C491 O481 1.307 1_565 S
C492 O484 1.303 . S
C492 O485 1.247 . S
C493 O482 1.251 1_556 S
C493 O483 1.281 1_556 S
C494 O486 1.304 . S
C494 O488 1.272 . S
C495 O487 1.311 . S
C495 O489 1.231 1_554 S
O496 Zn478 1.953 . S
O496 C490 1.298 . S
O497 Zn498 1.953 . S
O497 C513 1.225 . S
Zn498 O497 1.953 . S
Zn498 O499 1.949 . S
Zn498 O505 1.919 . S
Zn498 O510 1.924 . S
O499 Zn498 1.949 . S
O499 Zn500 1.923 . S
O499 Zn501 1.950 . S
O499 Zn502 1.945 . S
Zn500 O499 1.923 . S
Zn500 O503 1.933 . S
Zn500 O506 1.941 . S
Zn500 O507 1.965 . S
Zn501 O499 1.950 . S
Zn501 O508 1.938 . S
Zn501 O509 1.906 . S
Zn501 O519 1.953 . S
Zn502 O499 1.945 . S
Zn502 O504 1.932 . S
Zn502 O511 1.977 . S
Zn502 O512 1.910 . S
O503 Zn500 1.933 . S
O503 C514 1.226 . S
O504 Zn502 1.932 . S
O504 C514 1.307 . S
O505 Zn498 1.919 . S
O505 C516 1.253 . S
O506 Zn500 1.941 . S
O506 C516 1.283 . S
O507 Zn500 1.965 . S
O507 C515 1.303 . S
O508 Zn501 1.938 . S
O508 C515 1.247 . S
O509 Zn501 1.906 . S
O509 C517 1.304 . S
O510 Zn498 1.924 . S
O510 C518 1.311 . S
O511 Zn502 1.977 . S
O511 C517 1.272 . S
O512 Zn502 1.910 . S
O512 C518 1.231 . S
C513 O497 1.225 . S
C513 O519 1.298 . S
C514 O503 1.226 . S
C514 O504 1.307 . S
C515 O507 1.303 . S
C515 O508 1.247 . S
C516 O505 1.253 . S
C516 O506 1.283 . S
C517 O509 1.304 . S
C517 O511 1.272 . S
C518 O510 1.311 . S
C518 O512 1.231 . S
O519 Zn501 1.953 . S
O519 C513 1.298 . S
O520 Zn521 1.953 . S
O520 C536 1.225 . S
Zn521 O520 1.953 . S
Zn521 O522 1.949 1_556 S
Zn521 O528 1.919 . S
Zn521 O533 1.924 . S
O522 Zn521 1.949 1_554 S
O522 Zn523 1.923 . S
O522 Zn524 1.950 . S
O522 Zn525 1.945 . S
Zn523 O522 1.923 . S
Zn523 O526 1.933 . S
Zn523 O529 1.941 . S
Zn523 O530 1.965 . S
Zn524 O522 1.950 . S
Zn524 O531 1.938 . S
Zn524 O532 1.906 . S
Zn524 O542 1.953 1_554 S
Zn525 O522 1.945 . S
Zn525 O527 1.932 . S
Zn525 O534 1.977 . S
Zn525 O535 1.910 . S
O526 Zn523 1.933 . S
O526 C537 1.226 . S
O527 Zn525 1.932 . S
O527 C537 1.307 . S
O528 Zn521 1.919 . S
O528 C539 1.253 1_556 S
O529 Zn523 1.941 . S
O529 C539 1.283 . S
O530 Zn523 1.965 . S
O530 C538 1.303 . S
O531 Zn524 1.938 . S
O531 C538 1.247 . S
O532 Zn524 1.906 . S
O532 C540 1.304 . S
O533 Zn521 1.924 . S
O533 C541 1.311 . S
O534 Zn525 1.977 . S
O534 C540 1.272 . S
O535 Zn525 1.910 . S
O535 C541 1.231 1_554 S
C536 O520 1.225 . S
C536 O542 1.298 . S
C537 O526 1.226 . S
C537 O527 1.307 . S
C538 O530 1.303 . S
C538 O531 1.247 . S
C539 O528 1.253 1_554 S
C539 O529 1.283 . S
C540 O532 1.304 . S
C540 O534 1.272 . S
C541 O533 1.311 . S
C541 O535 1.231 1_556 S
O542 Zn524 1.953 1_556 S
O542 C536 1.298 . S
O543 Zn544 1.953 . S
O543 C559 1.225 . S
Zn544 O543 1.953 . S
Zn544 O545 1.949 . S
Zn544 O551 1.919 . S
Zn544 O556 1.924 . S
O545 Zn544 1.949 . S
O545 Zn546 1.923 . S
O545 Zn547 1.950 . S
O545 Zn548 1.945 . S
Zn546 O545 1.923 . S
Zn546 O549 1.933 . S
Zn546 O552 1.941 . S
Zn546 O553 1.965 . S
Zn547 O545 1.950 . S
Zn547 O554 1.938 . S
Zn547 O555 1.906 . S
Zn547 O565 1.953 . S
Zn548 O545 1.945 . S
Zn548 O550 1.932 . S
Zn548 O557 1.977 . S
Zn548 O558 1.910 . S
O549 Zn546 1.933 . S
O549 C560 1.226 . S
O550 Zn548 1.932 . S
O550 C560 1.307 . S
O551 Zn544 1.919 . S
O551 C562 1.253 . S
O552 Zn546 1.941 . S
O552 C562 1.283 . S
O553 Zn546 1.965 . S
O553 C561 1.303 . S
O554 Zn547 1.938 . S
O554 C561 1.247 . S
O555 Zn547 1.906 . S
O555 C563 1.304 . S
O556 Zn544 1.924 . S
O556 C564 1.311 . S
O557 Zn548 1.977 . S
O557 C563 1.272 . S
O558 Zn548 1.910 . S
O558 C564 1.231 . S
C559 O543 1.225 . S
C559 O565 1.298 . S
C560 O549 1.226 . S
C560 O550 1.307 . S
C561 O553 1.303 . S
C561 O554 1.247 . S
C562 O551 1.253 . S
C562 O552 1.283 . S
C563 O555 1.304 . S
C563 O557 1.272 . S
C564 O556 1.311 . S
C564 O558 1.231 . S
O565 Zn547 1.953 . S
O565 C559 1.298 . S
O566 Zn567 1.953 . S
O566 C582 1.225 . S
Zn567 O566 1.953 . S
Zn567 O568 1.976 . S
Zn567 O574 1.919 . S
Zn567 O579 1.924 . S
O568 Zn567 1.976 . S
O568 Zn569 1.924 . S
O568 Zn570 1.935 1_455 S
O568 Zn571 1.932 1_455 S
Zn569 O568 1.924 . S
Zn569 O572 1.933 1_455 S
Zn569 O575 1.941 . S
Zn569 O576 1.965 1_455 S
Zn570 O568 1.935 1_655 S
Zn570 O577 1.938 . S
Zn570 O578 1.906 . S
Zn570 O588 1.935 1_655 S
Zn571 O568 1.932 1_655 S
Zn571 O573 1.932 . S
Zn571 O580 1.977 . S
Zn571 O581 1.910 1_655 S
O572 Zn569 1.933 1_655 S
O572 C583 1.226 . S
O573 Zn571 1.932 . S
O573 C583 1.307 . S
O574 Zn567 1.919 . S
O574 C585 1.253 . S
O575 Zn569 1.941 . S
O575 C585 1.283 . S
O576 Zn569 1.965 1_655 S
O576 C584 1.303 . S
O577 Zn570 1.938 . S
O577 C584 1.247 . S
O578 Zn570 1.906 . S
O578 C586 1.304 . S
O579 Zn567 1.924 . S
O579 C587 1.311 . S
O580 Zn571 1.977 . S
O580 C586 1.272 . S
O581 Zn571 1.910 1_455 S
O581 C587 1.231 . S
C582 O566 1.225 . S
C582 O588 1.334 . S
C583 O572 1.226 . S
C583 O573 1.307 . S
C584 O576 1.303 . S
C584 O577 1.247 . S
C585 O574 1.253 . S
C585 O575 1.283 . S
C586 O578 1.304 . S
C586 O580 1.272 . S
C587 O579 1.311 . S
C587 O581 1.231 . S
O588 Zn570 1.935 1_455 S
O588 C582 1.334 . S
O589 Zn590 1.953 . S
O589 C605 1.225 . S
Zn590 O589 1.953 . S
Zn590 O591 1.949 . S
Zn590 O597 1.919 . S
Zn590 O602 1.924 . S
O591 Zn590 1.949 . S
O591 Zn592 1.923 . S
O591 Zn593 1.950 . S
O591 Zn594 1.945 . S
Zn592 O591 1.923 . S
Zn592 O595 1.933 . S
Zn592 O598 1.941 . S
Zn592 O599 1.965 . S
Zn593 O591 1.950 . S
Zn593 O600 1.938 . S
Zn593 O601 1.906 . S
Zn593 O611 1.953 . S
Zn594 O591 1.945 . S
Zn594 O596 1.932 . S
Zn594 O603 1.977 . S
Zn594 O604 1.910 . S
O595 Zn592 1.933 . S
O595 C606 1.226 . S
O596 Zn594 1.932 . S
O596 C606 1.307 . S
O597 Zn590 1.919 . S
O597 C608 1.253 . S
O598 Zn592 1.941 . S
O598 C608 1.283 . S
O599 Zn592 1.965 . S
O599 C607 1.303 . S
O600 Zn593 1.938 . S
O600 C607 1.247 . S
O601 Zn593 1.906 . S
O601 C609 1.304 . S
O602 Zn590 1.924 . S
O602 C610 1.311 . S
O603 Zn594 1.977 . S
O603 C609 1.272 . S
O604 Zn594 1.910 . S
O604 C610 1.231 . S
C605 O589 1.225 . S
C605 O611 1.298 . S
C606 O595 1.226 . S
C606 O596 1.307 . S
C607 O599 1.303 . S
C607 O600 1.247 . S
C608 O597 1.253 . S
C608 O598 1.283 . S
C609 O601 1.304 . S
C609 O603 1.272 . S
C610 O602 1.311 . S
C610 O604 1.231 . S
O611 Zn593 1.953 . S
O611 C605 1.298 . S
O612 Zn613 1.953 . S
O612 C628 1.225 . S
Zn613 O612 1.953 . S
Zn613 O614 1.949 . S
Zn613 O620 1.919 . S
Zn613 O625 1.924 . S
O614 Zn613 1.949 . S
O614 Zn615 1.923 . S
O614 Zn616 1.950 . S
O614 Zn617 1.945 . S
Zn615 O614 1.923 . S
Zn615 O618 1.933 . S
Zn615 O621 1.941 . S
Zn615 O622 1.965 . S
Zn616 O614 1.950 . S
Zn616 O623 1.938 . S
Zn616 O624 1.906 . S
Zn616 O634 1.953 . S
Zn617 O614 1.945 . S
Zn617 O619 1.932 . S
Zn617 O626 1.977 . S
Zn617 O627 1.910 . S
O618 Zn615 1.933 . S
O618 C629 1.226 . S
O619 Zn617 1.932 . S
O619 C629 1.307 . S
O620 Zn613 1.919 . S
O620 C631 1.253 . S
O621 Zn615 1.941 . S
O621 C631 1.283 . S
O622 Zn615 1.965 . S
O622 C630 1.303 . S
O623 Zn616 1.938 . S
O623 C630 1.247 . S
O624 Zn616 1.906 . S
O624 C632 1.304 . S
O625 Zn613 1.924 . S
O625 C633 1.311 . S
O626 Zn617 1.977 . S
O626 C632 1.272 . S
O627 Zn617 1.910 . S
O627 C633 1.231 . S
C628 O612 1.225 . S
C628 O634 1.298 . S
C629 O618 1.226 . S
C629 O619 1.307 . S
C630 O622 1.303 . S
C630 O623 1.247 . S
C631 O620 1.253 . S
C631 O621 1.283 . S
C632 O624 1.304 . S
C632 O626 1.272 . S
C633 O625 1.311 . S
C633 O627 1.231 . S
O634 Zn616 1.953 . S
O634 C628 1.298 . S
O635 Zn636 1.953 . S
O635 C651 1.225 . S
Zn636 O635 1.953 . S
Zn636 O637 1.949 . S
Zn636 O643 1.919 . S
Zn636 O648 1.924 . S
O637 Zn636 1.949 . S
O637 Zn638 1.923 . S
O637 Zn639 1.950 . S
O637 Zn640 1.945 . S
Zn638 O637 1.923 . S
Zn638 O641 1.933 . S
Zn638 O644 1.941 . S
Zn638 O645 1.965 . S
Zn639 O637 1.950 . S
Zn639 O646 1.938 . S
Zn639 O647 1.906 . S
Zn639 O657 1.953 . S
Zn640 O637 1.945 . S
Zn640 O642 1.932 . S
Zn640 O649 1.977 . S
Zn640 O650 1.910 . S
O641 Zn638 1.933 . S
O641 C652 1.226 . S
O642 Zn640 1.932 . S
O642 C652 1.307 . S
O643 Zn636 1.919 . S
O643 C654 1.253 . S
O644 Zn638 1.941 . S
O644 C654 1.283 . S
O645 Zn638 1.965 . S
O645 C653 1.303 . S
O646 Zn639 1.938 . S
O646 C653 1.247 . S
O647 Zn639 1.906 . S
O647 C655 1.304 . S
O648 Zn636 1.924 . S
O648 C656 1.311 . S
O649 Zn640 1.977 . S
O649 C655 1.272 . S
O650 Zn640 1.910 . S
O650 C656 1.231 . S
C651 O635 1.225 . S
C651 O657 1.298 . S
C652 O641 1.226 . S
C652 O642 1.307 . S
C653 O645 1.303 . S
C653 O646 1.247 . S
C654 O643 1.253 . S
C654 O644 1.283 . S
C655 O647 1.304 . S
C655 O649 1.272 . S
C656 O648 1.311 . S
C656 O650 1.231 . S
O657 Zn639 1.953 . S
O657 C651 1.298 . S
O658 Zn659 1.953 . S
O658 C674 1.225 . S
Zn659 O658 1.953 . S
Zn659 O660 1.949 . S
Zn659 O666 1.919 . S
Zn659 O671 1.924 . S
O660 Zn659 1.949 . S
O660 Zn661 1.923 . S
O660 Zn662 1.950 . S
O660 Zn663 1.945 . S
Zn661 O660 1.923 . S
Zn661 O664 1.933 . S
Zn661 O667 1.941 . S
Zn661 O668 1.965 . S
Zn662 O660 1.950 . S
Zn662 O669 1.938 . S
Zn662 O670 1.906 . S
Zn662 O680 1.953 . S
Zn663 O660 1.945 . S
Zn663 O665 1.932 . S
Zn663 O672 1.977 . S
Zn663 O673 1.910 . S
O664 Zn661 1.933 . S
O664 C675 1.226 . S
O665 Zn663 1.932 . S
O665 C675 1.307 . S
O666 Zn659 1.919 . S
O666 C677 1.253 . S
O667 Zn661 1.941 . S
O667 C677 1.283 . S
O668 Zn661 1.965 . S
O668 C676 1.303 . S
O669 Zn662 1.938 . S
O669 C676 1.247 . S
O670 Zn662 1.906 . S
O670 C678 1.304 . S
O671 Zn659 1.924 . S
O671 C679 1.311 . S
O672 Zn663 1.977 . S
O672 C678 1.272 . S
O673 Zn663 1.910 . S
O673 C679 1.231 . S
C674 O658 1.225 . S
C674 O680 1.298 . S
C675 O664 1.226 . S
C675 O665 1.307 . S
C676 O668 1.303 . S
C676 O669 1.247 . S
C677 O666 1.253 . S
C677 O667 1.283 . S
C678 O670 1.304 . S
C678 O672 1.272 . S
C679 O671 1.311 . S
C679 O673 1.231 . S
O680 Zn662 1.953 . S
O680 C674 1.298 . S
O681 Zn682 1.943 1_455 S
O681 C697 1.225 . S
Zn682 O681 1.943 1_655 S
Zn682 O683 1.936 1_655 S
Zn682 O689 1.956 . S
Zn682 O694 1.907 1_654 S
O683 Zn682 1.936 1_455 S
O683 Zn684 1.923 1_455 S
O683 Zn685 1.950 . S
O683 Zn686 1.945 1_554 S
Zn684 O683 1.923 1_655 S
Zn684 O687 1.933 . S
Zn684 O690 1.941 . S
Zn684 O691 1.965 . S
Zn685 O683 1.950 . S
Zn685 O692 1.938 . S
Zn685 O693 1.906 . S
Zn685 O703 1.953 . S
Zn686 O683 1.945 1_556 S
Zn686 O688 1.932 . S
Zn686 O695 1.977 1_556 S
Zn686 O696 1.910 . S
O687 Zn684 1.933 . S
O687 C698 1.226 . S
O688 Zn686 1.932 . S
O688 C698 1.307 1_456 S
O689 Zn682 1.956 . S
O689 C700 1.253 . S
O690 Zn684 1.941 . S
O690 C700 1.283 . S
O691 Zn684 1.965 . S
O691 C699 1.303 . S
O692 Zn685 1.938 . S
O692 C699 1.247 1_455 S
O693 Zn685 1.906 . S
O693 C701 1.304 . S
O694 Zn682 1.907 1_456 S
O694 C702 1.311 . S
O695 Zn686 1.977 1_554 S
O695 C701 1.272 . S
O696 Zn686 1.910 . S
O696 C702 1.231 . S
C697 O681 1.225 . S
C697 O703 1.298 . S
C698 O687 1.226 . S
C698 O688 1.307 1_654 S
C699 O691 1.303 . S
C699 O692 1.247 1_655 S
C700 O689 1.253 . S
C700 O690 1.283 . S
C701 O693 1.304 . S
C701 O695 1.272 . S
C702 O694 1.311 . S
C702 O696 1.231 . S
O703 Zn685 1.953 . S
O703 C697 1.298 . S
C704 C705 1.349 1_655 S
C704 C706 1.327 . S
C704 H729 0.950 . S
C705 C704 1.349 1_455 S
C705 C721 1.349 . S
C706 C704 1.327 . S
C706 C725 1.440 . S
C706 H730 0.950 . S
C707 C724 1.574 . S
C707 C726 1.368 1_455 S
C707 H731 0.949 . S
H708 C712 0.949 . S
C709 C710 1.371 . S
C709 C711 1.324 1_655 S
C709 H732 0.932 1_655 S
C710 C709 1.371 . S
C710 C722 1.349 . S
C711 C709 1.324 1_455 S
C711 C727 1.429 1_455 S
C711 H733 0.950 . S
C712 H708 0.949 . S
C712 C720 1.574 . S
C712 C728 1.368 . S
H713 C721 0.950 . S
H714 C719 0.950 . S
H715 C720 0.949 . S
H716 C722 0.950 . S
H717 C723 0.950 . S
H718 C724 0.949 . S
C719 H714 0.950 . S
C719 C721 1.327 . S
C719 C725 1.415 1_455 S
C720 C712 1.574 . S
C720 H715 0.949 . S
C720 C726 1.368 . S
C721 C705 1.349 . S
C721 H713 0.950 . S
C721 C719 1.327 . S
C722 C710 1.349 . S
C722 H716 0.950 . S
C722 C723 1.327 . S
C723 H717 0.950 . S
C723 C722 1.327 . S
C723 C727 1.429 . S
C724 C707 1.574 . S
C724 H718 0.949 . S
C724 C728 1.368 1_455 S
C725 C706 1.440 . S
C725 C719 1.415 1_655 S
C725 C726 1.525 . S
C726 C707 1.368 1_655 S
C726 C720 1.368 . S
C726 C725 1.525 . S
C727 C711 1.429 1_655 S
C727 C723 1.429 . S
C727 C728 1.523 . S
C728 C712 1.368 . S
C728 C724 1.368 1_655 S
C728 C727 1.523 . S
H729 C704 0.950 . S
H730 C706 0.950 . S
H731 C707 0.949 . S
H732 C709 0.932 1_455 S
H733 C711 0.950 . S
C734 C735 1.349 . S
C734 C736 1.327 . S
C734 H759 0.950 . S
C735 C734 1.349 . S
C735 C751 1.349 . S
C736 C734 1.327 . S
C736 C755 1.429 . S
C736 H760 0.950 . S
C737 C754 1.574 . S
C737 C756 1.368 . S
C737 H761 0.949 . S
H738 C742 0.949 . S
C739 C740 1.349 . S
C739 C741 1.327 . S
C739 H762 0.950 . S
C740 C739 1.349 . S
C740 C752 1.349 . S
C741 C739 1.327 . S
C741 C757 1.429 . S
C741 H763 0.950 . S
C742 H738 0.949 . S
C742 C750 1.574 . S
C742 C758 1.368 . S
H743 C751 0.950 . S
H744 C749 0.950 . S
H745 C750 0.949 . S
H746 C752 0.950 . S
H747 C753 0.950 . S
H748 C754 0.949 . S
C749 H744 0.950 . S
C749 C751 1.327 . S
C749 C755 1.429 . S
C750 C742 1.574 . S
C750 H745 0.949 . S
C750 C756 1.368 . S
C751 C735 1.349 . S
C751 H743 0.950 . S
C751 C749 1.327 . S
C752 C740 1.349 . S
C752 H746 0.950 . S
C752 C753 1.327 . S
C753 H747 0.950 . S
C753 C752 1.327 . S
C753 C757 1.429 . S
C754 C737 1.574 . S
C754 H748 0.949 . S
C754 C758 1.368 . S
C755 C736 1.429 . S
C755 C749 1.429 . S
C755 C756 1.523 . S
C756 C737 1.368 . S
C756 C750 1.368 . S
C756 C755 1.523 . S
C757 C741 1.429 . S
C757 C753 1.429 . S
C757 C758 1.523 . S
C758 C742 1.368 . S
C758 C754 1.368 . S
C758 C757 1.523 . S
H759 C734 0.950 . S
H760 C736 0.950 . S
H761 C737 0.949 . S
H762 C739 0.950 . S
H763 C741 0.950 . S
C764 C765 1.349 . S
C764 C766 1.327 . S
C764 H789 0.950 . S
C765 C764 1.349 . S
C765 C781 1.349 . S
C766 C764 1.327 . S
C766 C785 1.429 . S
C766 H790 0.950 . S
C767 C784 1.574 . S
C767 C786 1.368 . S
C767 H791 0.949 . S
H768 C772 0.949 . S
C769 C770 1.349 . S
C769 C771 1.327 . S
C769 H792 0.950 . S
C770 C769 1.349 . S
C770 C782 1.349 . S
C771 C769 1.327 . S
C771 C787 1.429 . S
C771 H793 0.950 . S
C772 H768 0.949 . S
C772 C780 1.574 . S
C772 C788 1.368 . S
H773 C781 0.950 . S
H774 C779 0.950 . S
H775 C780 0.949 . S
H776 C782 0.950 . S
H777 C783 0.950 . S
H778 C784 0.949 . S
C779 H774 0.950 . S
C779 C781 1.327 . S
C779 C785 1.429 . S
C780 C772 1.574 . S
C780 H775 0.949 . S
C780 C786 1.368 . S
C781 C765 1.349 . S
C781 H773 0.950 . S
C781 C779 1.327 . S
C782 C770 1.349 . S
C782 H776 0.950 . S
C782 C783 1.327 . S
C783 H777 0.950 . S
C783 C782 1.327 . S
C783 C787 1.429 . S
C784 C767 1.574 . S
C784 H778 0.949 . S
C784 C788 1.368 . S
C785 C766 1.429 . S
C785 C779 1.429 . S
C785 C786 1.523 . S
C786 C767 1.368 . S
C786 C780 1.368 . S
C786 C785 1.523 . S
C787 C771 1.429 . S
C787 C783 1.429 . S
C787 C788 1.523 . S
C788 C772 1.368 . S
C788 C784 1.368 . S
C788 C787 1.523 . S
H789 C764 0.950 . S
H790 C766 0.950 . S
H791 C767 0.949 . S
H792 C769 0.950 . S
H793 C771 0.950 . S
C794 C795 1.349 . S
C794 C796 1.327 . S
C794 H819 0.950 . S
C795 C794 1.349 . S
C795 C811 1.349 . S
C796 C794 1.327 . S
C796 C815 1.429 . S
C796 H820 0.950 . S
C797 C814 1.574 . S
C797 C816 1.368 . S
C797 H821 0.949 . S
H798 C802 0.949 . S
C799 C800 1.349 . S
C799 C801 1.327 . S
C799 H822 0.950 . S
C800 C799 1.349 . S
C800 C812 1.349 . S
C801 C799 1.327 . S
C801 C817 1.429 . S
C801 H823 0.950 . S
C802 H798 0.949 . S
C802 C810 1.574 . S
C802 C818 1.368 . S
H803 C811 0.950 . S
H804 C809 0.950 . S
H805 C810 0.949 . S
H806 C812 0.950 . S
H807 C813 0.950 . S
H808 C814 0.949 . S
C809 H804 0.950 . S
C809 C811 1.327 . S
C809 C815 1.429 . S
C810 C802 1.574 . S
C810 H805 0.949 . S
C810 C816 1.368 . S
C811 C795 1.349 . S
C811 H803 0.950 . S
C811 C809 1.327 . S
C812 C800 1.349 . S
C812 H806 0.950 . S
C812 C813 1.327 . S
C813 H807 0.950 . S
C813 C812 1.327 . S
C813 C817 1.429 . S
C814 C797 1.574 . S
C814 H808 0.949 . S
C814 C818 1.368 . S
C815 C796 1.429 . S
C815 C809 1.429 . S
C815 C816 1.523 . S
C816 C797 1.368 . S
C816 C810 1.368 . S
C816 C815 1.523 . S
C817 C801 1.429 . S
C817 C813 1.429 . S
C817 C818 1.523 . S
C818 C802 1.368 . S
C818 C814 1.368 . S
C818 C817 1.523 . S
H819 C794 0.950 . S
H820 C796 0.950 . S
H821 C797 0.949 . S
H822 C799 0.950 . S
H823 C801 0.950 . S
C824 C825 1.349 . S
C824 C826 1.327 . S
C824 H849 0.950 . S
C825 C824 1.349 . S
C825 C841 1.349 1_455 S
C826 C824 1.327 . S
C826 C845 1.429 . S
C826 H850 0.950 . S
C827 C844 1.574 . S
C827 C846 1.350 1_655 S
C827 H851 0.949 . S
H828 C832 0.949 . S
C829 C830 1.349 . S
C829 C831 1.327 . S
C829 H852 0.950 . S
C830 C829 1.349 . S
C830 C842 1.349 1_655 S
C831 C829 1.327 . S
C831 C847 1.429 . S
C831 H853 0.950 . S
C832 H828 0.949 . S
C832 C840 1.574 . S
C832 C848 1.368 1_455 S
H833 C841 0.950 . S
H834 C839 0.950 . S
H835 C840 0.949 . S
H836 C842 0.950 . S
H837 C843 0.950 . S
H838 C844 0.949 . S
C839 H834 0.950 . S
C839 C841 1.327 . S
C839 C845 1.429 1_655 S
C840 C832 1.574 . S
C840 H835 0.949 . S
C840 C846 1.385 . S
C841 C825 1.349 1_655 S
C841 H833 0.950 . S
C841 C839 1.327 . S
C842 C830 1.349 1_455 S
C842 H836 0.950 . S
C842 C843 1.327 . S
C843 H837 0.950 . S
C843 C842 1.327 . S
C843 C847 1.429 1_455 S
C844 C827 1.574 . S
C844 H838 0.949 . S
C844 C848 1.368 . S
C845 C826 1.429 . S
C845 C839 1.429 1_455 S
C845 C846 1.525 . S
C846 C827 1.350 1_455 S
C846 C840 1.385 . S
C846 C845 1.525 . S
C847 C831 1.429 . S
C847 C843 1.429 1_655 S
C847 C848 1.523 . S
C848 C832 1.368 1_655 S
C848 C844 1.368 . S
C848 C847 1.523 . S
H849 C824 0.950 . S
H850 C826 0.950 . S
H851 C827 0.949 . S
H852 C829 0.950 . S
H853 C831 0.950 . S
C854 C855 1.349 . S
C854 C856 1.327 . S
C854 H879 0.950 . S
C855 C854 1.349 . S
C855 C871 1.349 . S
C856 C854 1.327 . S
C856 C875 1.429 . S
C856 H880 0.950 . S
C857 C874 1.574 . S
C857 C876 1.368 . S
C857 H881 0.949 . S
H858 C862 0.949 . S
C859 C860 1.349 . S
C859 C861 1.327 . S
C859 H882 0.950 . S
C860 C859 1.349 . S
C860 C872 1.349 . S
C861 C859 1.327 . S
C861 C877 1.429 . S
C861 H883 0.950 . S
C862 H858 0.949 . S
C862 C870 1.574 . S
C862 C878 1.368 . S
H863 C871 0.950 . S
H864 C869 0.950 . S
H865 C870 0.949 . S
H866 C872 0.950 . S
H867 C873 0.950 . S
H868 C874 0.949 . S
C869 H864 0.950 . S
C869 C871 1.327 . S
C869 C875 1.429 . S
C870 C862 1.574 . S
C870 H865 0.949 . S
C870 C876 1.368 . S
C871 C855 1.349 . S
C871 H863 0.950 . S
C871 C869 1.327 . S
C872 C860 1.349 . S
C872 H866 0.950 . S
C872 C873 1.327 . S
C873 H867 0.950 . S
C873 C872 1.327 . S
C873 C877 1.429 . S
C874 C857 1.574 . S
C874 H868 0.949 . S
C874 C878 1.368 . S
C875 C856 1.429 . S
C875 C869 1.429 . S
C875 C876 1.523 . S
C876 C857 1.368 . S
C876 C870 1.368 . S
C876 C875 1.523 . S
C877 C861 1.429 . S
C877 C873 1.429 . S
C877 C878 1.523 . S
C878 C862 1.368 . S
C878 C874 1.368 . S
C878 C877 1.523 . S
H879 C854 0.950 . S
H880 C856 0.950 . S
H881 C857 0.949 . S
H882 C859 0.950 . S
H883 C861 0.950 . S
C884 C885 1.349 . S
C884 C886 1.327 . S
C884 H909 0.950 . S
C885 C884 1.349 . S
C885 C901 1.349 . S
C886 C884 1.327 . S
C886 C905 1.429 . S
C886 H910 0.950 . S
C887 C904 1.574 . S
C887 C906 1.368 . S
C887 H911 0.949 . S
H888 C892 0.949 . S
C889 C890 1.349 . S
C889 C891 1.324 . S
C889 H912 0.950 . S
C890 C889 1.349 . S
C890 C902 1.349 1_554 S
C891 C889 1.324 . S
C891 C907 1.435 1_554 S
C891 H913 0.947 . S
C892 H888 0.949 . S
C892 C900 1.574 . S
C892 C908 1.368 . S
H893 C901 0.950 . S
H894 C899 0.950 . S
H895 C900 0.949 . S
H896 C902 0.950 . S
H897 C903 0.950 . S
H898 C904 0.949 . S
C899 H894 0.950 . S
C899 C901 1.327 . S
C899 C905 1.429 . S
C900 C892 1.574 . S
C900 H895 0.949 . S
C900 C906 1.368 . S
C901 C885 1.349 . S
C901 H893 0.950 . S
C901 C899 1.327 . S
C902 C890 1.349 1_556 S
C902 H896 0.950 . S
C902 C903 1.327 . S
C903 H897 0.950 . S
C903 C902 1.327 . S
C903 C907 1.429 . S
C904 C887 1.574 . S
C904 H898 0.949 . S
C904 C908 1.368 . S
C905 C886 1.429 . S
C905 C899 1.429 . S
C905 C906 1.523 . S
C906 C887 1.368 . S
C906 C900 1.368 . S
C906 C905 1.523 . S
C907 C891 1.435 1_556 S
C907 C903 1.429 . S
C907 C908 1.523 . S
C908 C892 1.368 . S
C908 C904 1.368 . S
C908 C907 1.523 . S
H909 C884 0.950 . S
H910 C886 0.950 . S
H911 C887 0.949 . S
H912 C889 0.950 . S
H913 C891 0.947 . S
C914 C915 1.349 . S
C914 C916 1.327 . S
C914 H939 0.950 . S
C915 C914 1.349 . S
C915 C931 1.349 . S
C916 C914 1.327 . S
C916 C935 1.429 . S
C916 H940 0.950 . S
C917 C934 1.574 . S
C917 C936 1.368 . S
C917 H941 0.949 . S
H918 C922 0.949 . S
C919 C920 1.349 . S
C919 C921 1.327 . S
C919 H942 0.950 . S
C920 C919 1.349 . S
C920 C932 1.349 . S
C921 C919 1.327 . S
C921 C937 1.429 . S
C921 H943 0.950 . S
C922 H918 0.949 . S
C922 C930 1.574 . S
C922 C938 1.368 . S
H923 C931 0.950 . S
H924 C929 0.950 . S
H925 C930 0.949 . S
H926 C932 0.950 . S
H927 C933 0.950 . S
H928 C934 0.949 . S
C929 H924 0.950 . S
C929 C931 1.327 . S
C929 C935 1.429 . S
C930 C922 1.574 . S
C930 H925 0.949 . S
C930 C936 1.368 . S
C931 C915 1.349 . S
C931 H923 0.950 . S
C931 C929 1.327 . S
C932 C920 1.349 . S
C932 H926 0.950 . S
C932 C933 1.327 . S
C933 H927 0.950 . S
C933 C932 1.327 . S
C933 C937 1.429 . S
C934 C917 1.574 . S
C934 H928 0.949 . S
C934 C938 1.368 . S
C935 C916 1.429 . S
C935 C929 1.429 . S
C935 C936 1.523 . S
C936 C917 1.368 . S
C936 C930 1.368 . S
C936 C935 1.523 . S
C937 C921 1.429 . S
C937 C933 1.429 . S
C937 C938 1.523 . S
C938 C922 1.368 . S
C938 C934 1.368 . S
C938 C937 1.523 . S
H939 C914 0.950 . S
H940 C916 0.950 . S
H941 C917 0.949 . S
H942 C919 0.950 . S
H943 C921 0.950 . S
C944 C945 1.349 . S
C944 C946 1.327 . S
C944 H969 0.950 1_545 S
C945 C944 1.349 . S
C945 C961 1.349 . S
C946 C944 1.327 . S
C946 C965 1.429 . S
C946 H970 0.950 1_545 S
C947 C964 1.574 . S
C947 C966 1.368 . S
C947 H971 0.949 . S
H948 C952 0.949 . S
C949 C950 1.349 . S
C949 C951 1.327 . S
C949 H972 0.950 . S
C950 C949 1.349 . S
C950 C962 1.349 1_545 S
C951 C949 1.327 . S
C951 C967 1.429 . S
C951 H973 0.950 . S
C952 H948 0.949 . S
C952 C960 1.574 . S
C952 C968 1.368 1_565 S
H953 C961 0.950 . S
H954 C959 0.950 . S
H955 C960 0.949 . S
H956 C962 0.950 . S
H957 C963 0.950 . S
H958 C964 0.949 . S
C959 H954 0.950 . S
C959 C961 1.327 . S
C959 C965 1.429 . S
C960 C952 1.574 . S
C960 H955 0.949 . S
C960 C966 1.368 1_565 S
C961 C945 1.349 . S
C961 H953 0.950 . S
C961 C959 1.327 . S
C962 C950 1.349 1_565 S
C962 H956 0.950 . S
C962 C963 1.327 . S
C963 H957 0.950 . S
C963 C962 1.327 . S
C963 C967 1.429 1_565 S
C964 C947 1.574 . S
C964 H958 0.949 . S
C964 C968 1.368 . S
C965 C946 1.429 . S
C965 C959 1.429 . S
C965 C966 1.523 . S
C966 C947 1.368 . S
C966 C960 1.368 1_545 S
C966 C965 1.523 . S
C967 C951 1.429 . S
C967 C963 1.429 1_545 S
C967 C968 1.523 . S
C968 C952 1.368 1_545 S
C968 C964 1.368 . S
C968 C967 1.523 . S
H969 C944 0.950 1_565 S
H970 C946 0.950 1_565 S
H971 C947 0.949 . S
H972 C949 0.950 . S
H973 C951 0.950 . S
C974 C975 1.349 . S
C974 C976 1.327 . S
C974 H999 0.950 . S
C975 C974 1.349 . S
C975 C991 1.349 . S
C976 C974 1.327 . S
C976 C995 1.429 . S
C976 H1000 0.950 . S
C977 C994 1.574 . S
C977 C996 1.368 . S
C977 H1001 0.949 . S
H978 C982 0.949 . S
C979 C980 1.349 . S
C979 C981 1.327 . S
C979 H1002 0.950 . S
C980 C979 1.349 . S
C980 C992 1.349 . S
C981 C979 1.327 . S
C981 C997 1.429 . S
C981 H1003 0.950 . S
C982 H978 0.949 . S
C982 C990 1.574 . S
C982 C998 1.368 . S
H983 C991 0.950 . S
H984 C989 0.950 . S
H985 C990 0.949 . S
H986 C992 0.950 . S
H987 C993 0.950 . S
H988 C994 0.949 . S
C989 H984 0.950 . S
C989 C991 1.327 . S
C989 C995 1.429 . S
C990 C982 1.574 . S
C990 H985 0.949 . S
C990 C996 1.368 . S
C991 C975 1.349 . S
C991 H983 0.950 . S
C991 C989 1.327 . S
C992 C980 1.349 . S
C992 H986 0.950 . S
C992 C993 1.327 . S
C993 H987 0.950 . S
C993 C992 1.327 . S
C993 C997 1.429 . S
C994 C977 1.574 . S
C994 H988 0.949 . S
C994 C998 1.368 . S
C995 C976 1.429 . S
C995 C989 1.429 . S
C995 C996 1.523 . S
C996 C977 1.368 . S
C996 C990 1.368 . S
C996 C995 1.523 . S
C997 C981 1.429 . S
C997 C993 1.429 . S
C997 C998 1.523 . S
C998 C982 1.368 . S
C998 C994 1.368 . S
C998 C997 1.523 . S
H999 C974 0.950 . S
H1000 C976 0.950 . S
H1001 C977 0.949 . S
H1002 C979 0.950 . S
H1003 C981 0.950 . S
C1004 C1005 1.349 . S
C1004 C1006 1.327 . S
C1004 H1029 0.950 . S
C1005 C1004 1.349 . S
C1005 C1021 1.349 1_545 S
C1006 C1004 1.327 . S
C1006 C1025 1.429 . S
C1006 H1030 0.950 . S
C1007 C1024 1.574 . S
C1007 C1026 1.368 1_565 S
C1007 H1031 0.949 . S
H1008 C1012 0.949 . S
C1009 C1010 1.349 . S
C1009 C1011 1.334 . S
C1009 H1032 0.950 1_545 S
C1010 C1009 1.349 . S
C1010 C1022 1.349 . S
C1011 C1009 1.334 . S
C1011 C1027 1.458 . S
C1011 H1033 0.915 1_545 S
C1012 H1008 0.949 . S
C1012 C1020 1.574 . S
C1012 C1028 1.368 . S
H1013 C1021 0.950 . S
H1014 C1019 0.950 . S
H1015 C1020 0.949 . S
H1016 C1022 0.950 . S
H1017 C1023 0.950 . S
H1018 C1024 0.949 . S
C1019 H1014 0.950 . S
C1019 C1021 1.327 . S
C1019 C1025 1.429 1_565 S
C1020 C1012 1.574 . S
C1020 H1015 0.949 . S
C1020 C1026 1.368 . S
C1021 C1005 1.349 1_565 S
C1021 H1013 0.950 . S
C1021 C1019 1.327 . S
C1022 C1010 1.349 . S
C1022 H1016 0.950 . S
C1022 C1023 1.327 . S
C1023 H1017 0.950 . S
C1023 C1022 1.327 . S
C1023 C1027 1.429 . S
C1024 C1007 1.574 . S
C1024 H1018 0.949 . S
C1024 C1028 1.368 1_565 S
C1025 C1006 1.429 . S
C1025 C1019 1.429 1_545 S
C1025 C1026 1.523 . S
C1026 C1007 1.368 1_545 S
C1026 C1020 1.368 . S
C1026 C1025 1.523 . S
C1027 C1011 1.458 . S
C1027 C1023 1.429 . S
C1027 C1028 1.523 . S
C1028 C1012 1.368 . S
C1028 C1024 1.368 1_545 S
C1028 C1027 1.523 . S
H1029 C1004 0.950 . S
H1030 C1006 0.950 . S
H1031 C1007 0.949 . S
H1032 C1009 0.950 1_565 S
H1033 C1011 0.915 1_565 S
C1034 C1035 1.349 . S
C1034 C1036 1.327 . S
C1034 H1059 0.950 . S
C1035 C1034 1.349 . S
C1035 C1051 1.349 . S
C1036 C1034 1.327 . S
C1036 C1055 1.429 . S
C1036 H1060 0.950 . S
C1037 C1054 1.574 . S
C1037 C1056 1.368 . S
C1037 H1061 0.949 . S
H1038 C1042 0.949 . S
C1039 C1040 1.349 . S
C1039 C1041 1.327 . S
C1039 H1062 0.950 . S
C1040 C1039 1.349 . S
C1040 C1052 1.349 . S
C1041 C1039 1.327 . S
C1041 C1057 1.429 . S
C1041 H1063 0.950 . S
C1042 H1038 0.949 . S
C1042 C1050 1.574 . S
C1042 C1058 1.368 . S
H1043 C1051 0.950 . S
H1044 C1049 0.950 . S
H1045 C1050 0.949 . S
H1046 C1052 0.950 . S
H1047 C1053 0.950 . S
H1048 C1054 0.949 . S
C1049 H1044 0.950 . S
C1049 C1051 1.327 . S
C1049 C1055 1.429 . S
C1050 C1042 1.574 . S
C1050 H1045 0.949 . S
C1050 C1056 1.368 . S
C1051 C1035 1.349 . S
C1051 H1043 0.950 . S
C1051 C1049 1.327 . S
C1052 C1040 1.349 . S
C1052 H1046 0.950 . S
C1052 C1053 1.327 . S
C1053 H1047 0.950 . S
C1053 C1052 1.327 . S
C1053 C1057 1.429 . S
C1054 C1037 1.574 . S
C1054 H1048 0.949 . S
C1054 C1058 1.368 . S
C1055 C1036 1.429 . S
C1055 C1049 1.429 . S
C1055 C1056 1.523 . S
C1056 C1037 1.368 . S
C1056 C1050 1.368 . S
C1056 C1055 1.523 . S
C1057 C1041 1.429 . S
C1057 C1053 1.429 . S
C1057 C1058 1.523 . S
C1058 C1042 1.368 . S
C1058 C1054 1.368 . S
C1058 C1057 1.523 . S
H1059 C1034 0.950 . S
H1060 C1036 0.950 . S
H1061 C1037 0.949 . S
H1062 C1039 0.950 . S
H1063 C1041 0.950 . S
C1064 C1065 1.349 . S
C1064 C1066 1.327 . S
C1064 H1089 0.950 . S
C1065 C1064 1.349 . S
C1065 C1081 1.349 . S
C1066 C1064 1.327 . S
C1066 C1085 1.429 . S
C1066 H1090 0.950 . S
C1067 C1084 1.574 . S
C1067 C1086 1.368 . S
C1067 H1091 0.949 1_545 S
H1068 C1072 0.949 . S
C1069 C1070 1.349 . S
C1069 C1071 1.327 . S
C1069 H1092 0.950 . S
C1070 C1069 1.349 . S
C1070 C1082 1.349 . S
C1071 C1069 1.327 . S
C1071 C1087 1.429 . S
C1071 H1093 0.995 . S
C1072 H1068 0.949 . S
C1072 C1080 1.574 . S
C1072 C1088 1.368 . S
H1073 C1081 0.950 1_565 S
H1074 C1079 0.950 1_565 S
H1075 C1080 0.949 . S
H1076 C1082 0.950 . S
H1077 C1083 0.950 . S
H1078 C1084 0.947 1_565 S
C1079 H1074 0.950 1_545 S
C1079 C1081 1.327 . S
C1079 C1085 1.429 . S
C1080 C1072 1.574 . S
C1080 H1075 0.949 . S
C1080 C1086 1.368 . S
C1081 C1065 1.349 . S
C1081 H1073 0.950 1_545 S
C1081 C1079 1.327 . S
C1082 C1070 1.349 . S
C1082 H1076 0.950 . S
C1082 C1083 1.327 . S
C1083 H1077 0.950 . S
C1083 C1082 1.327 . S
C1083 C1087 1.429 . S
C1084 C1067 1.574 . S
C1084 H1078 0.947 1_545 S
C1084 C1088 1.368 . S
C1085 C1066 1.429 . S
C1085 C1079 1.429 . S
C1085 C1086 1.523 . S
C1086 C1067 1.368 . S
C1086 C1080 1.368 . S
C1086 C1085 1.523 . S
C1087 C1071 1.429 . S
C1087 C1083 1.429 . S
C1087 C1088 1.523 . S
C1088 C1072 1.368 . S
C1088 C1084 1.368 . S
C1088 C1087 1.523 . S
H1089 C1064 0.950 . S
H1090 C1066 0.950 . S
H1091 C1067 0.949 1_565 S
H1092 C1069 0.950 . S
H1093 C1071 0.995 . S
C1094 C1095 1.349 . S
C1094 C1096 1.327 . S
C1094 H1119 0.950 . S
C1095 C1094 1.349 . S
C1095 C1111 1.349 . S
C1096 C1094 1.327 . S
C1096 C1115 1.429 . S
C1096 H1120 0.950 . S
C1097 C1114 1.574 . S
C1097 C1116 1.368 . S
C1097 H1121 0.949 . S
H1098 C1102 0.949 . S
C1099 C1100 1.349 . S
C1099 C1101 1.327 . S
C1099 H1122 0.950 . S
C1100 C1099 1.349 . S
C1100 C1112 1.349 . S
C1101 C1099 1.327 . S
C1101 C1117 1.429 . S
C1101 H1123 0.950 . S
C1102 H1098 0.949 . S
C1102 C1110 1.574 . S
C1102 C1118 1.368 . S
H1103 C1111 0.950 . S
H1104 C1109 0.950 . S
H1105 C1110 0.949 . S
H1106 C1112 0.950 . S
H1107 C1113 0.950 . S
H1108 C1114 0.949 . S
C1109 H1104 0.950 . S
C1109 C1111 1.327 . S
C1109 C1115 1.429 . S
C1110 C1102 1.574 . S
C1110 H1105 0.949 . S
C1110 C1116 1.368 . S
C1111 C1095 1.349 . S
C1111 H1103 0.950 . S
C1111 C1109 1.327 . S
C1112 C1100 1.349 . S
C1112 H1106 0.950 . S
C1112 C1113 1.327 . S
C1113 H1107 0.950 . S
C1113 C1112 1.327 . S
C1113 C1117 1.429 . S
C1114 C1097 1.574 . S
C1114 H1108 0.949 . S
C1114 C1118 1.368 . S
C1115 C1096 1.429 . S
C1115 C1109 1.429 . S
C1115 C1116 1.523 . S
C1116 C1097 1.368 . S
C1116 C1110 1.368 . S
C1116 C1115 1.523 . S
C1117 C1101 1.429 . S
C1117 C1113 1.429 . S
C1117 C1118 1.523 . S
C1118 C1102 1.368 . S
C1118 C1114 1.368 . S
C1118 C1117 1.523 . S
H1119 C1094 0.950 . S
H1120 C1096 0.950 . S
H1121 C1097 0.949 . S
H1122 C1099 0.950 . S
H1123 C1101 0.950 . S
C1124 C1125 1.371 . S
C1124 C1126 1.327 . S
C1124 H1149 0.950 . S
C1125 C1124 1.371 . S
C1125 C1141 1.330 1_565 S
C1126 C1124 1.327 . S
C1126 C1145 1.429 . S
C1126 H1150 0.950 . S
C1127 C1144 1.574 . S
C1127 C1146 1.368 1_545 S
C1127 H1151 0.949 . S
H1128 C1132 0.949 . S
C1129 C1130 1.349 1_545 S
C1129 C1131 1.327 . S
C1129 H1152 0.950 . S
C1130 C1129 1.349 1_565 S
C1130 C1142 1.349 . S
C1131 C1129 1.327 . S
C1131 C1147 1.429 1_545 S
C1131 H1153 0.950 . S
C1132 H1128 0.949 . S
C1132 C1140 1.574 . S
C1132 C1148 1.368 . S
H1133 C1141 0.950 . S
H1134 C1139 0.950 . S
H1135 C1140 0.949 . S
H1136 C1142 0.950 . S
H1137 C1143 0.950 . S
H1138 C1144 0.949 . S
C1139 H1134 0.950 . S
C1139 C1141 1.327 . S
C1139 C1145 1.429 1_545 S
C1140 C1132 1.574 . S
C1140 H1135 0.949 . S
C1140 C1146 1.368 . S
C1141 C1125 1.330 1_545 S
C1141 H1133 0.950 . S
C1141 C1139 1.327 . S
C1142 C1130 1.349 . S
C1142 H1136 0.950 . S
C1142 C1143 1.327 . S
C1143 H1137 0.950 . S
C1143 C1142 1.327 . S
C1143 C1147 1.429 . S
C1144 C1127 1.574 . S
C1144 H1138 0.949 . S
C1144 C1148 1.368 1_545 S
C1145 C1126 1.429 . S
C1145 C1139 1.429 1_565 S
C1145 C1146 1.523 . S
C1146 C1127 1.368 1_565 S
C1146 C1140 1.368 . S
C1146 C1145 1.523 . S
C1147 C1131 1.429 1_565 S
C1147 C1143 1.429 . S
C1147 C1148 1.523 . S
C1148 C1132 1.368 . S
C1148 C1144 1.368 1_565 S
C1148 C1147 1.523 . S
H1149 C1124 0.950 . S
H1150 C1126 0.950 . S
H1151 C1127 0.949 . S
H1152 C1129 0.950 . S
H1153 C1131 0.950 . S
C1154 C1155 1.349 . S
C1154 C1156 1.327 . S
C1154 H1179 0.950 . S
C1155 C1154 1.349 . S
C1155 C1171 1.349 . S
C1156 C1154 1.327 . S
C1156 C1175 1.429 . S
C1156 H1180 0.950 . S
C1157 C1174 1.574 . S
C1157 C1176 1.368 . S
C1157 H1181 0.949 . S
H1158 C1162 0.949 . S
C1159 C1160 1.349 . S
C1159 C1161 1.327 . S
C1159 H1182 0.950 . S
C1160 C1159 1.349 . S
C1160 C1172 1.349 . S
C1161 C1159 1.327 . S
C1161 C1177 1.429 . S
C1161 H1183 0.950 . S
C1162 H1158 0.949 . S
C1162 C1170 1.574 . S
C1162 C1178 1.368 . S
H1163 C1171 0.950 . S
H1164 C1169 0.950 . S
H1165 C1170 0.949 . S
H1166 C1172 0.950 . S
H1167 C1173 0.950 . S
H1168 C1174 0.949 . S
C1169 H1164 0.950 . S
C1169 C1171 1.327 . S
C1169 C1175 1.429 . S
C1170 C1162 1.574 . S
C1170 H1165 0.949 . S
C1170 C1176 1.368 . S
C1171 C1155 1.349 . S
C1171 H1163 0.950 . S
C1171 C1169 1.327 . S
C1172 C1160 1.349 . S
C1172 H1166 0.950 . S
C1172 C1173 1.327 . S
C1173 H1167 0.950 . S
C1173 C1172 1.327 . S
C1173 C1177 1.429 . S
C1174 C1157 1.574 . S
C1174 H1168 0.949 . S
C1174 C1178 1.368 . S
C1175 C1156 1.429 . S
C1175 C1169 1.429 . S
C1175 C1176 1.523 . S
C1176 C1157 1.368 . S
C1176 C1170 1.368 . S
C1176 C1175 1.523 . S
C1177 C1161 1.429 . S
C1177 C1173 1.429 . S
C1177 C1178 1.523 . S
C1178 C1162 1.368 . S
C1178 C1174 1.368 . S
C1178 C1177 1.523 . S
H1179 C1154 0.950 . S
H1180 C1156 0.950 . S
H1181 C1157 0.949 . S
H1182 C1159 0.950 . S
H1183 C1161 0.950 . S
C1184 C1185 1.349 . S
C1184 C1186 1.327 . S
C1184 H1209 0.950 . S
C1185 C1184 1.349 . S
C1185 C1201 1.349 1_554 S
C1186 C1184 1.327 . S
C1186 C1205 1.429 . S
C1186 H1210 0.950 . S
C1187 C1204 1.574 . S
C1187 C1206 1.368 1_556 S
C1187 H1211 0.949 . S
H1188 C1192 0.949 . S
C1189 C1190 1.349 1_556 S
C1189 C1191 1.327 . S
C1189 H1212 0.950 . S
C1190 C1189 1.349 1_554 S
C1190 C1202 1.349 . S
C1191 C1189 1.327 . S
C1191 C1207 1.429 1_556 S
C1191 H1213 0.950 . S
C1192 H1188 0.949 . S
C1192 C1200 1.574 . S
C1192 C1208 1.368 . S
H1193 C1201 0.950 . S
H1194 C1199 0.950 . S
H1195 C1200 0.949 . S
H1196 C1202 0.950 . S
H1197 C1203 0.950 . S
H1198 C1204 0.949 . S
C1199 H1194 0.950 . S
C1199 C1201 1.327 . S
C1199 C1205 1.429 1_556 S
C1200 C1192 1.574 . S
C1200 H1195 0.949 . S
C1200 C1206 1.368 . S
C1201 C1185 1.349 1_556 S
C1201 H1193 0.950 . S
C1201 C1199 1.327 . S
C1202 C1190 1.349 . S
C1202 H1196 0.950 . S
C1202 C1203 1.327 . S
C1203 H1197 0.950 . S
C1203 C1202 1.327 . S
C1203 C1207 1.429 . S
C1204 C1187 1.574 . S
C1204 H1198 0.949 . S
C1204 C1208 1.368 1_556 S
C1205 C1186 1.429 . S
C1205 C1199 1.429 1_554 S
C1205 C1206 1.523 . S
C1206 C1187 1.368 1_554 S
C1206 C1200 1.368 . S
C1206 C1205 1.523 . S
C1207 C1191 1.429 1_554 S
C1207 C1203 1.429 . S
C1207 C1208 1.523 . S
C1208 C1192 1.368 . S
C1208 C1204 1.368 1_554 S
C1208 C1207 1.523 . S
H1209 C1184 0.950 . S
H1210 C1186 0.950 . S
H1211 C1187 0.949 . S
H1212 C1189 0.950 . S
H1213 C1191 0.950 . S
C1214 C1215 1.349 1_556 S
C1214 C1216 1.327 . S
C1214 H1239 0.950 . S
C1215 C1214 1.349 1_554 S
C1215 C1231 1.349 . S
C1216 C1214 1.327 . S
C1216 C1235 1.429 1_556 S
C1216 H1240 0.950 . S
C1217 C1234 1.574 . S
C1217 C1236 1.368 . S
C1217 H1241 0.949 . S
H1218 C1222 0.979 . S
C1219 C1220 1.349 . S
C1219 C1221 1.327 . S
C1219 H1242 0.950 . S
C1220 C1219 1.349 . S
C1220 C1232 1.349 . S
C1221 C1219 1.327 . S
C1221 C1237 1.429 . S
C1221 H1243 0.950 . S
C1222 H1218 0.979 . S
C1222 C1230 1.577 . S
C1222 C1238 1.333 1_556 S
H1223 C1231 0.950 . S
H1224 C1229 0.950 . S
H1225 C1230 0.949 . S
H1226 C1232 0.950 1_556 S
H1227 C1233 0.950 1_556 S
H1228 C1234 0.949 . S
C1229 H1224 0.950 . S
C1229 C1231 1.327 . S
C1229 C1235 1.429 . S
C1230 C1222 1.577 . S
C1230 H1225 0.949 . S
C1230 C1236 1.368 1_556 S
C1231 C1215 1.349 . S
C1231 H1223 0.950 . S
C1231 C1229 1.327 . S
C1232 C1220 1.349 . S
C1232 H1226 0.950 1_554 S
C1232 C1233 1.327 . S
C1233 H1227 0.950 1_554 S
C1233 C1232 1.327 . S
C1233 C1237 1.429 . S
C1234 C1217 1.574 . S
C1234 H1228 0.949 . S
C1234 C1238 1.368 . S
C1235 C1216 1.429 1_554 S
C1235 C1229 1.429 . S
C1235 C1236 1.523 . S
C1236 C1217 1.368 . S
C1236 C1230 1.368 1_554 S
C1236 C1235 1.523 . S
C1237 C1221 1.429 . S
C1237 C1233 1.429 . S
C1237 C1238 1.523 . S
C1238 C1222 1.333 1_554 S
C1238 C1234 1.368 . S
C1238 C1237 1.523 . S
H1239 C1214 0.950 . S
H1240 C1216 0.950 . S
H1241 C1217 0.949 . S
H1242 C1219 0.950 . S
H1243 C1221 0.950 . S
C1244 C1245 1.349 . S
C1244 C1246 1.327 . S
C1244 H1269 0.950 . S
C1245 C1244 1.349 . S
C1245 C1261 1.349 . S
C1246 C1244 1.327 . S
C1246 C1265 1.429 . S
C1246 H1270 0.950 . S
C1247 C1264 1.574 . S
C1247 C1266 1.368 . S
C1247 H1271 0.949 . S
H1248 C1252 0.949 . S
C1249 C1250 1.349 . S
C1249 C1251 1.327 . S
C1249 H1272 0.950 . S
C1250 C1249 1.349 . S
C1250 C1262 1.349 . S
C1251 C1249 1.327 . S
C1251 C1267 1.429 . S
C1251 H1273 0.950 . S
C1252 H1248 0.949 . S
C1252 C1260 1.574 . S
C1252 C1268 1.368 . S
H1253 C1261 0.950 . S
H1254 C1259 0.950 . S
H1255 C1260 0.949 . S
H1256 C1262 0.950 . S
H1257 C1263 0.950 . S
H1258 C1264 0.949 . S
C1259 H1254 0.950 . S
C1259 C1261 1.327 . S
C1259 C1265 1.429 . S
C1260 C1252 1.574 . S
C1260 H1255 0.949 . S
C1260 C1266 1.368 . S
C1261 C1245 1.349 . S
C1261 H1253 0.950 . S
C1261 C1259 1.327 . S
C1262 C1250 1.349 . S
C1262 H1256 0.950 . S
C1262 C1263 1.327 . S
C1263 H1257 0.950 . S
C1263 C1262 1.327 . S
C1263 C1267 1.429 . S
C1264 C1247 1.574 . S
C1264 H1258 0.949 . S
C1264 C1268 1.368 . S
C1265 C1246 1.429 . S
C1265 C1259 1.429 . S
C1265 C1266 1.523 . S
C1266 C1247 1.368 . S
C1266 C1260 1.368 . S
C1266 C1265 1.523 . S
C1267 C1251 1.429 . S
C1267 C1263 1.429 . S
C1267 C1268 1.523 . S
C1268 C1252 1.368 . S
C1268 C1264 1.368 . S
C1268 C1267 1.523 . S
H1269 C1244 0.950 . S
H1270 C1246 0.950 . S
H1271 C1247 0.949 . S
H1272 C1249 0.950 . S
H1273 C1251 0.950 . S
C1274 C1275 1.349 . S
C1274 C1276 1.327 . S
C1274 H1299 0.950 . S
C1275 C1274 1.349 . S
C1275 C1291 1.349 . S
C1276 C1274 1.327 . S
C1276 C1295 1.429 . S
C1276 H1300 0.950 . S
C1277 C1294 1.574 . S
C1277 C1296 1.368 . S
C1277 H1301 0.949 . S
H1278 C1282 0.949 . S
C1279 C1280 1.349 . S
C1279 C1281 1.327 . S
C1279 H1302 0.950 . S
C1280 C1279 1.349 . S
C1280 C1292 1.349 . S
C1281 C1279 1.327 . S
C1281 C1297 1.429 . S
C1281 H1303 0.950 . S
C1282 H1278 0.949 . S
C1282 C1290 1.574 . S
C1282 C1298 1.368 . S
H1283 C1291 0.950 . S
H1284 C1289 0.950 . S
H1285 C1290 0.949 . S
H1286 C1292 0.950 . S
H1287 C1293 0.950 . S
H1288 C1294 0.949 . S
C1289 H1284 0.950 . S
C1289 C1291 1.327 . S
C1289 C1295 1.429 . S
C1290 C1282 1.574 . S
C1290 H1285 0.949 . S
C1290 C1296 1.368 . S
C1291 C1275 1.349 . S
C1291 H1283 0.950 . S
C1291 C1289 1.327 . S
C1292 C1280 1.349 . S
C1292 H1286 0.950 . S
C1292 C1293 1.327 . S
C1293 H1287 0.950 . S
C1293 C1292 1.327 . S
C1293 C1297 1.429 . S
C1294 C1277 1.574 . S
C1294 H1288 0.949 . S
C1294 C1298 1.368 . S
C1295 C1276 1.429 . S
C1295 C1289 1.429 . S
C1295 C1296 1.523 . S
C1296 C1277 1.368 . S
C1296 C1290 1.368 . S
C1296 C1295 1.523 . S
C1297 C1281 1.429 . S
C1297 C1293 1.429 . S
C1297 C1298 1.523 . S
C1298 C1282 1.368 . S
C1298 C1294 1.368 . S
C1298 C1297 1.523 . S
H1299 C1274 0.950 . S
H1300 C1276 0.950 . S
H1301 C1277 0.949 . S
H1302 C1279 0.950 . S
H1303 C1281 0.950 . S
C1304 C1305 1.349 . S
C1304 C1306 1.327 . S
C1304 H1329 0.950 . S
C1305 C1304 1.349 . S
C1305 C1321 1.349 . S
C1306 C1304 1.327 . S
C1306 C1325 1.429 . S
C1306 H1330 0.950 . S
C1307 C1324 1.574 . S
C1307 C1326 1.368 . S
C1307 H1331 0.949 . S
H1308 C1312 0.949 . S
C1309 C1310 1.349 . S
C1309 C1311 1.327 . S
C1309 H1332 0.950 . S
C1310 C1309 1.349 . S
C1310 C1322 1.349 . S
C1311 C1309 1.327 . S
C1311 C1327 1.429 . S
C1311 H1333 0.950 . S
C1312 H1308 0.949 . S
C1312 C1320 1.574 . S
C1312 C1328 1.368 . S
H1313 C1321 0.950 . S
H1314 C1319 0.950 . S
H1315 C1320 0.949 . S
H1316 C1322 0.950 . S
H1317 C1323 0.950 . S
H1318 C1324 0.949 . S
C1319 H1314 0.950 . S
C1319 C1321 1.327 . S
C1319 C1325 1.429 . S
C1320 C1312 1.574 . S
C1320 H1315 0.949 . S
C1320 C1326 1.368 . S
C1321 C1305 1.349 . S
C1321 H1313 0.950 . S
C1321 C1319 1.327 . S
C1322 C1310 1.349 . S
C1322 H1316 0.950 . S
C1322 C1323 1.327 . S
C1323 H1317 0.950 . S
C1323 C1322 1.327 . S
C1323 C1327 1.429 . S
C1324 C1307 1.574 . S
C1324 H1318 0.949 . S
C1324 C1328 1.368 . S
C1325 C1306 1.429 . S
C1325 C1319 1.429 . S
C1325 C1326 1.523 . S
C1326 C1307 1.368 . S
C1326 C1320 1.368 . S
C1326 C1325 1.523 . S
C1327 C1311 1.429 . S
C1327 C1323 1.429 . S
C1327 C1328 1.523 . S
C1328 C1312 1.368 . S
C1328 C1324 1.368 . S
C1328 C1327 1.523 . S
H1329 C1304 0.950 . S
H1330 C1306 0.950 . S
H1331 C1307 0.949 . S
H1332 C1309 0.950 . S
H1333 C1311 0.950 . S
C1334 C1335 1.349 . S
C1334 C1336 1.327 . S
C1334 H1359 0.950 . S
C1335 C1334 1.349 . S
C1335 C1351 1.349 . S
C1336 C1334 1.327 . S
C1336 C1355 1.429 . S
C1336 H1360 0.950 . S
C1337 C1354 1.574 . S
C1337 C1356 1.368 . S
C1337 H1361 0.949 . S
H1338 C1342 0.949 . S
C1339 C1340 1.322 1_565 S
C1339 C1341 1.327 . S
C1339 H1362 0.950 . S
C1340 C1339 1.322 1_545 S
C1340 C1352 1.355 . S
C1341 C1339 1.327 . S
C1341 C1357 1.429 . S
C1341 H1363 0.950 . S
C1342 H1338 0.949 . S
C1342 C1350 1.574 . S
C1342 C1358 1.368 . S
H1343 C1351 0.950 . S
H1344 C1349 0.950 . S
H1345 C1350 0.949 . S
H1346 C1352 0.950 . S
H1347 C1353 0.950 . S
H1348 C1354 0.949 . S
C1349 H1344 0.950 . S
C1349 C1351 1.327 . S
C1349 C1355 1.429 . S
C1350 C1342 1.574 . S
C1350 H1345 0.949 . S
C1350 C1356 1.368 . S
C1351 C1335 1.349 . S
C1351 H1343 0.950 . S
C1351 C1349 1.327 . S
C1352 C1340 1.355 . S
C1352 H1346 0.950 . S
C1352 C1353 1.327 1_545 S
C1353 H1347 0.950 . S
C1353 C1352 1.327 1_565 S
C1353 C1357 1.429 . S
C1354 C1337 1.574 . S
C1354 H1348 0.949 . S
C1354 C1358 1.368 . S
C1355 C1336 1.429 . S
C1355 C1349 1.429 . S
C1355 C1356 1.523 . S
C1356 C1337 1.368 . S
C1356 C1350 1.368 . S
C1356 C1355 1.523 . S
C1357 C1341 1.429 . S
C1357 C1353 1.429 . S
C1357 C1358 1.523 . S
C1358 C1342 1.368 . S
C1358 C1354 1.368 . S
C1358 C1357 1.523 . S
H1359 C1334 0.950 . S
H1360 C1336 0.950 . S
H1361 C1337 0.949 . S
H1362 C1339 0.950 . S
H1363 C1341 0.950 . S
C1364 C1365 1.349 . S
C1364 C1366 1.327 . S
C1364 H1389 0.950 . S
C1365 C1364 1.349 . S
C1365 C1381 1.349 . S
C1366 C1364 1.327 . S
C1366 C1385 1.429 . S
C1366 H1390 0.950 . S
C1367 C1384 1.574 . S
C1367 C1386 1.368 . S
C1367 H1391 0.949 . S
H1368 C1372 0.949 . S
C1369 C1370 1.349 . S
C1369 C1371 1.327 . S
C1369 H1392 0.950 . S
C1370 C1369 1.349 . S
C1370 C1382 1.349 . S
C1371 C1369 1.327 . S
C1371 C1387 1.429 . S
C1371 H1393 0.950 . S
C1372 H1368 0.949 . S
C1372 C1380 1.574 . S
C1372 C1388 1.368 . S
H1373 C1381 0.950 . S
H1374 C1379 0.950 . S
H1375 C1380 0.949 . S
H1376 C1382 0.950 . S
H1377 C1383 0.950 . S
H1378 C1384 0.949 . S
C1379 H1374 0.950 . S
C1379 C1381 1.327 . S
C1379 C1385 1.429 . S
C1380 C1372 1.574 . S
C1380 H1375 0.949 . S
C1380 C1386 1.368 . S
C1381 C1365 1.349 . S
C1381 H1373 0.950 . S
C1381 C1379 1.327 . S
C1382 C1370 1.349 . S
C1382 H1376 0.950 . S
C1382 C1383 1.327 . S
C1383 H1377 0.950 . S
C1383 C1382 1.327 . S
C1383 C1387 1.429 . S
C1384 C1367 1.574 . S
C1384 H1378 0.949 . S
C1384 C1388 1.368 . S
C1385 C1366 1.429 . S
C1385 C1379 1.429 . S
C1385 C1386 1.523 . S
C1386 C1367 1.368 . S
C1386 C1380 1.368 . S
C1386 C1385 1.523 . S
C1387 C1371 1.429 . S
C1387 C1383 1.429 . S
C1387 C1388 1.523 . S
C1388 C1372 1.368 . S
C1388 C1384 1.368 . S
C1388 C1387 1.523 . S
H1389 C1364 0.950 . S
H1390 C1366 0.950 . S
H1391 C1367 0.949 . S
H1392 C1369 0.950 . S
H1393 C1371 0.950 . S
C1394 C1395 1.349 . S
C1394 C1396 1.327 . S
C1394 H1419 0.950 . S
C1395 C1394 1.349 . S
C1395 C1411 1.349 . S
C1396 C1394 1.327 . S
C1396 C1415 1.429 . S
C1396 H1420 0.950 . S
C1397 C1414 1.574 . S
C1397 C1416 1.368 . S
C1397 H1421 0.949 . S
H1398 C1402 0.949 . S
C1399 C1400 1.349 . S
C1399 C1401 1.327 . S
C1399 H1422 0.950 . S
C1400 C1399 1.349 . S
C1400 C1412 1.349 . S
C1401 C1399 1.327 . S
C1401 C1417 1.429 . S
C1401 H1423 0.950 . S
C1402 H1398 0.949 . S
C1402 C1410 1.574 . S
C1402 C1418 1.368 . S
H1403 C1411 0.950 . S
H1404 C1409 0.950 . S
H1405 C1410 0.949 . S
H1406 C1412 0.950 . S
H1407 C1413 0.950 . S
H1408 C1414 0.949 . S
C1409 H1404 0.950 . S
C1409 C1411 1.327 . S
C1409 C1415 1.429 . S
C1410 C1402 1.574 . S
C1410 H1405 0.949 . S
C1410 C1416 1.368 . S
C1411 C1395 1.349 . S
C1411 H1403 0.950 . S
C1411 C1409 1.327 . S
C1412 C1400 1.349 . S
C1412 H1406 0.950 . S
C1412 C1413 1.327 . S
C1413 H1407 0.950 . S
C1413 C1412 1.327 . S
C1413 C1417 1.429 . S
C1414 C1397 1.574 . S
C1414 H1408 0.949 . S
C1414 C1418 1.368 . S
C1415 C1396 1.429 . S
C1415 C1409 1.429 . S
C1415 C1416 1.523 . S
C1416 C1397 1.368 . S
C1416 C1410 1.368 . S
C1416 C1415 1.523 . S
C1417 C1401 1.429 . S
C1417 C1413 1.429 . S
C1417 C1418 1.523 . S
C1418 C1402 1.368 . S
C1418 C1414 1.368 . S
C1418 C1417 1.523 . S
H1419 C1394 0.950 . S
H1420 C1396 0.950 . S
H1421 C1397 0.949 . S
H1422 C1399 0.950 . S
H1423 C1401 0.950 . S
C1424 C1425 1.349 1_655 S
C1424 C1426 1.327 . S
C1424 H1449 0.950 . S
C1425 C1424 1.349 1_455 S
C1425 C1441 1.349 . S
C1426 C1424 1.327 . S
C1426 C1445 1.429 1_655 S
C1426 H1450 0.950 . S
C1427 C1444 1.574 . S
C1427 C1446 1.368 . S
C1427 H1451 0.949 . S
H1428 C1432 0.929 1_655 S
C1429 C1430 1.332 1_554 S
C1429 C1431 1.304 1_554 S
C1429 H1452 0.992 . S
C1430 C1429 1.332 1_556 S
C1430 C1442 1.349 . S
C1431 C1429 1.304 1_556 S
C1431 C1447 1.429 . S
C1431 H1453 0.950 . S
C1432 H1428 0.929 1_455 S
C1432 C1440 1.571 1_455 S
C1432 C1448 1.395 . S
H1433 C1441 0.950 . S
H1434 C1439 0.950 . S
H1435 C1440 0.978 . S
H1436 C1442 0.946 1_655 S
H1437 C1443 0.950 1_655 S
H1438 C1444 0.949 . S
C1439 H1434 0.950 . S
C1439 C1441 1.327 . S
C1439 C1445 1.429 . S
C1440 C1432 1.571 1_655 S
C1440 H1435 0.978 . S
C1440 C1446 1.342 1_655 S
C1441 C1425 1.349 . S
C1441 H1433 0.950 . S
C1441 C1439 1.327 . S
C1442 C1430 1.349 . S
C1442 H1436 0.946 1_455 S
C1442 C1443 1.327 . S
C1443 H1437 0.950 1_455 S
C1443 C1442 1.327 . S
C1443 C1447 1.429 . S
C1444 C1427 1.574 . S
C1444 H1438 0.949 . S
C1444 C1448 1.368 . S
C1445 C1426 1.429 1_455 S
C1445 C1439 1.429 . S
C1445 C1446 1.523 . S
C1446 C1427 1.368 . S
C1446 C1440 1.342 1_455 S
C1446 C1445 1.523 . S
C1447 C1431 1.429 . S
C1447 C1443 1.429 . S
C1447 C1448 1.523 . S
C1448 C1432 1.395 . S
C1448 C1444 1.368 . S
C1448 C1447 1.523 . S
H1449 C1424 0.950 . S
H1450 C1426 0.950 . S
H1451 C1427 0.949 . S
H1452 C1429 0.992 . S
H1453 C1431 0.950 . S
C1454 C1455 1.349 . S
C1454 C1456 1.327 . S
C1454 H1479 0.950 . S
C1455 C1454 1.349 . S
C1455 C1471 1.349 . S
C1456 C1454 1.327 . S
C1456 C1475 1.429 . S
C1456 H1480 0.950 . S
C1457 C1474 1.574 . S
C1457 C1476 1.368 . S
C1457 H1481 0.949 . S
H1458 C1462 0.949 . S
C1459 C1460 1.349 . S
C1459 C1461 1.327 . S
C1459 H1482 0.950 . S
C1460 C1459 1.349 . S
C1460 C1472 1.349 . S
C1461 C1459 1.327 . S
C1461 C1477 1.429 . S
C1461 H1483 0.950 . S
C1462 H1458 0.949 . S
C1462 C1470 1.574 . S
C1462 C1478 1.368 . S
H1463 C1471 0.950 . S
H1464 C1469 0.950 . S
H1465 C1470 0.949 . S
H1466 C1472 0.950 . S
H1467 C1473 0.950 . S
H1468 C1474 0.949 . S
C1469 H1464 0.950 . S
C1469 C1471 1.327 . S
C1469 C1475 1.429 . S
C1470 C1462 1.574 . S
C1470 H1465 0.949 . S
C1470 C1476 1.368 . S
C1471 C1455 1.349 . S
C1471 H1463 0.950 . S
C1471 C1469 1.327 . S
C1472 C1460 1.349 . S
C1472 H1466 0.950 . S
C1472 C1473 1.327 . S
C1473 H1467 0.950 . S
C1473 C1472 1.327 . S
C1473 C1477 1.429 . S
C1474 C1457 1.574 . S
C1474 H1468 0.949 . S
C1474 C1478 1.368 . S
C1475 C1456 1.429 . S
C1475 C1469 1.429 . S
C1475 C1476 1.523 . S
C1476 C1457 1.368 . S
C1476 C1470 1.368 . S
C1476 C1475 1.523 . S
C1477 C1461 1.429 . S
C1477 C1473 1.429 . S
C1477 C1478 1.523 . S
C1478 C1462 1.368 . S
C1478 C1474 1.368 . S
C1478 C1477 1.523 . S
H1479 C1454 0.950 . S
H1480 C1456 0.950 . S
H1481 C1457 0.949 . S
H1482 C1459 0.950 . S
H1483 C1461 0.950 . S
C1484 C1485 1.349 . S
C1484 C1486 1.327 . S
C1484 H1509 0.950 . S
C1485 C1484 1.349 . S
C1485 C1501 1.349 . S
C1486 C1484 1.327 . S
C1486 C1505 1.429 . S
C1486 H1510 0.950 . S
C1487 C1504 1.574 . S
C1487 C1506 1.368 . S
C1487 H1511 0.949 . S
H1488 C1492 0.949 . S
C1489 C1490 1.349 . S
C1489 C1491 1.327 . S
C1489 H1512 0.950 . S
C1490 C1489 1.349 . S
C1490 C1502 1.349 . S
C1491 C1489 1.327 . S
C1491 C1507 1.429 . S
C1491 H1513 0.950 . S
C1492 H1488 0.949 . S
C1492 C1500 1.574 . S
C1492 C1508 1.368 . S
H1493 C1501 0.950 . S
H1494 C1499 0.950 . S
H1495 C1500 0.949 . S
H1496 C1502 0.950 . S
H1497 C1503 0.950 . S
H1498 C1504 0.949 . S
C1499 H1494 0.950 . S
C1499 C1501 1.327 . S
C1499 C1505 1.429 . S
C1500 C1492 1.574 . S
C1500 H1495 0.949 . S
C1500 C1506 1.368 . S
C1501 C1485 1.349 . S
C1501 H1493 0.950 . S
C1501 C1499 1.327 . S
C1502 C1490 1.349 . S
C1502 H1496 0.950 . S
C1502 C1503 1.327 . S
C1503 H1497 0.950 . S
C1503 C1502 1.327 . S
C1503 C1507 1.429 . S
C1504 C1487 1.574 . S
C1504 H1498 0.949 . S
C1504 C1508 1.368 . S
C1505 C1486 1.429 . S
C1505 C1499 1.429 . S
C1505 C1506 1.523 . S
C1506 C1487 1.368 . S
C1506 C1500 1.368 . S
C1506 C1505 1.523 . S
C1507 C1491 1.429 . S
C1507 C1503 1.429 . S
C1507 C1508 1.523 . S
C1508 C1492 1.368 . S
C1508 C1504 1.368 . S
C1508 C1507 1.523 . S
H1509 C1484 0.950 . S
H1510 C1486 0.950 . S
H1511 C1487 0.949 . S
H1512 C1489 0.950 . S
H1513 C1491 0.950 . S
C1514 C1515 1.349 . S
C1514 C1516 1.327 . S
C1514 H1539 0.950 . S
C1515 C1514 1.349 . S
C1515 C1531 1.349 . S
C1516 C1514 1.327 . S
C1516 C1535 1.429 . S
C1516 H1540 0.950 . S
C1517 C1534 1.574 . S
C1517 C1536 1.368 . S
C1517 H1541 0.949 . S
H1518 C1522 0.949 . S
C1519 C1520 1.349 . S
C1519 C1521 1.327 . S
C1519 H1542 0.950 . S
C1520 C1519 1.349 . S
C1520 C1532 1.349 . S
C1521 C1519 1.327 . S
C1521 C1537 1.429 . S
C1521 H1543 0.950 . S
C1522 H1518 0.949 . S
C1522 C1530 1.574 . S
C1522 C1538 1.368 . S
H1523 C1531 0.950 . S
H1524 C1529 0.950 . S
H1525 C1530 0.949 . S
H1526 C1532 0.950 . S
H1527 C1533 0.950 . S
H1528 C1534 0.949 . S
C1529 H1524 0.950 . S
C1529 C1531 1.327 . S
C1529 C1535 1.429 . S
C1530 C1522 1.574 . S
C1530 H1525 0.949 . S
C1530 C1536 1.368 . S
C1531 C1515 1.349 . S
C1531 H1523 0.950 . S
C1531 C1529 1.327 . S
C1532 C1520 1.349 . S
C1532 H1526 0.950 . S
C1532 C1533 1.327 . S
C1533 H1527 0.950 . S
C1533 C1532 1.327 . S
C1533 C1537 1.429 . S
C1534 C1517 1.574 . S
C1534 H1528 0.949 . S
C1534 C1538 1.368 . S
C1535 C1516 1.429 . S
C1535 C1529 1.429 . S
C1535 C1536 1.523 . S
C1536 C1517 1.368 . S
C1536 C1530 1.368 . S
C1536 C1535 1.523 . S
C1537 C1521 1.429 . S
C1537 C1533 1.429 . S
C1537 C1538 1.523 . S
C1538 C1522 1.368 . S
C1538 C1534 1.368 . S
C1538 C1537 1.523 . S
H1539 C1514 0.950 . S
H1540 C1516 0.950 . S
H1541 C1517 0.949 . S
H1542 C1519 0.950 . S
H1543 C1521 0.950 . S
C1544 C1545 1.349 . S
C1544 C1546 1.327 . S
C1544 H1569 0.950 1_455 S
C1545 C1544 1.349 . S
C1545 C1561 1.349 . S
C1546 C1544 1.327 . S
C1546 C1565 1.429 . S
C1546 H1570 0.955 . S
C1547 C1564 1.574 . S
C1547 C1566 1.368 . S
C1547 H1571 0.949 . S
H1548 C1552 0.949 . S
C1549 C1550 1.349 . S
C1549 C1551 1.327 . S
C1549 H1572 0.950 . S
C1550 C1549 1.349 . S
C1550 C1562 1.349 . S
C1551 C1549 1.327 . S
C1551 C1567 1.429 . S
C1551 H1573 0.950 . S
C1552 H1548 0.949 . S
C1552 C1560 1.574 . S
C1552 C1568 1.368 . S
H1553 C1561 0.950 . S
H1554 C1559 0.950 . S
H1555 C1560 0.949 . S
H1556 C1562 0.950 . S
H1557 C1563 0.950 . S
H1558 C1564 0.949 . S
C1559 H1554 0.950 . S
C1559 C1561 1.327 . S
C1559 C1565 1.429 . S
C1560 C1552 1.574 . S
C1560 H1555 0.949 . S
C1560 C1566 1.368 . S
C1561 C1545 1.349 . S
C1561 H1553 0.950 . S
C1561 C1559 1.327 . S
C1562 C1550 1.349 . S
C1562 H1556 0.950 . S
C1562 C1563 1.327 . S
C1563 H1557 0.950 . S
C1563 C1562 1.327 . S
C1563 C1567 1.429 . S
C1564 C1547 1.574 . S
C1564 H1558 0.949 . S
C1564 C1568 1.368 . S
C1565 C1546 1.429 . S
C1565 C1559 1.429 . S
C1565 C1566 1.523 . S
C1566 C1547 1.368 . S
C1566 C1560 1.368 . S
C1566 C1565 1.523 . S
C1567 C1551 1.429 . S
C1567 C1563 1.429 . S
C1567 C1568 1.523 . S
C1568 C1552 1.368 . S
C1568 C1564 1.368 . S
C1568 C1567 1.523 . S
H1569 C1544 0.950 1_655 S
H1570 C1546 0.955 . S
H1571 C1547 0.949 . S
H1572 C1549 0.950 . S
H1573 C1551 0.950 . S
C1574 C1575 1.349 . S
C1574 C1576 1.327 . S
C1574 H1599 0.950 . S
C1575 C1574 1.349 . S
C1575 C1591 1.349 . S
C1576 C1574 1.327 . S
C1576 C1595 1.429 . S
C1576 H1600 0.950 . S
C1577 C1594 1.574 . S
C1577 C1596 1.368 . S
C1577 H1601 0.949 . S
H1578 C1582 0.949 . S
C1579 C1580 1.349 . S
C1579 C1581 1.327 . S
C1579 H1602 0.950 . S
C1580 C1579 1.349 . S
C1580 C1592 1.349 . S
C1581 C1579 1.327 . S
C1581 C1597 1.429 . S
C1581 H1603 0.950 . S
C1582 H1578 0.949 . S
C1582 C1590 1.574 . S
C1582 C1598 1.368 . S
H1583 C1591 0.950 . S
H1584 C1589 0.950 . S
H1585 C1590 0.949 . S
H1586 C1592 0.950 . S
H1587 C1593 0.950 . S
H1588 C1594 0.949 . S
C1589 H1584 0.950 . S
C1589 C1591 1.327 . S
C1589 C1595 1.429 . S
C1590 C1582 1.574 . S
C1590 H1585 0.949 . S
C1590 C1596 1.368 . S
C1591 C1575 1.349 . S
C1591 H1583 0.950 . S
C1591 C1589 1.327 . S
C1592 C1580 1.349 . S
C1592 H1586 0.950 . S
C1592 C1593 1.327 . S
C1593 H1587 0.950 . S
C1593 C1592 1.327 . S
C1593 C1597 1.429 . S
C1594 C1577 1.574 . S
C1594 H1588 0.949 . S
C1594 C1598 1.368 . S
C1595 C1576 1.429 . S
C1595 C1589 1.429 . S
C1595 C1596 1.523 . S
C1596 C1577 1.368 . S
C1596 C1590 1.368 . S
C1596 C1595 1.523 . S
C1597 C1581 1.429 . S
C1597 C1593 1.429 . S
C1597 C1598 1.523 . S
C1598 C1582 1.368 . S
C1598 C1594 1.368 . S
C1598 C1597 1.523 . S
H1599 C1574 0.950 . S
H1600 C1576 0.950 . S
H1601 C1577 0.949 . S
H1602 C1579 0.950 . S
H1603 C1581 0.950 . S
C1604 C1605 1.349 . S
C1604 C1606 1.327 . S
C1604 H1629 0.950 . S
C1605 C1604 1.349 . S
C1605 C1621 1.349 . S
C1606 C1604 1.327 . S
C1606 C1625 1.429 . S
C1606 H1630 0.950 . S
C1607 C1624 1.574 . S
C1607 C1626 1.368 . S
C1607 H1631 0.949 . S
H1608 C1612 0.949 . S
C1609 C1610 1.349 . S
C1609 C1611 1.327 . S
C1609 H1632 0.950 . S
C1610 C1609 1.349 . S
C1610 C1622 1.349 . S
C1611 C1609 1.327 . S
C1611 C1627 1.429 . S
C1611 H1633 0.950 . S
C1612 H1608 0.949 . S
C1612 C1620 1.574 . S
C1612 C1628 1.368 . S
H1613 C1621 0.950 . S
H1614 C1619 0.950 . S
H1615 C1620 0.949 . S
H1616 C1622 0.950 . S
H1617 C1623 0.950 . S
H1618 C1624 0.949 . S
C1619 H1614 0.950 . S
C1619 C1621 1.327 . S
C1619 C1625 1.429 . S
C1620 C1612 1.574 . S
C1620 H1615 0.949 . S
C1620 C1626 1.368 . S
C1621 C1605 1.349 . S
C1621 H1613 0.950 . S
C1621 C1619 1.327 . S
C1622 C1610 1.349 . S
C1622 H1616 0.950 . S
C1622 C1623 1.327 . S
C1623 H1617 0.950 . S
C1623 C1622 1.327 . S
C1623 C1627 1.429 . S
C1624 C1607 1.574 . S
C1624 H1618 0.949 . S
C1624 C1628 1.368 . S
C1625 C1606 1.429 . S
C1625 C1619 1.429 . S
C1625 C1626 1.523 . S
C1626 C1607 1.368 . S
C1626 C1620 1.368 . S
C1626 C1625 1.523 . S
C1627 C1611 1.429 . S
C1627 C1623 1.429 . S
C1627 C1628 1.523 . S
C1628 C1612 1.368 . S
C1628 C1624 1.368 . S
C1628 C1627 1.523 . S
H1629 C1604 0.950 . S
H1630 C1606 0.950 . S
H1631 C1607 0.949 . S
H1632 C1609 0.950 . S
H1633 C1611 0.950 . S
C1634 C1635 1.349 . S
C1634 C1636 1.327 . S
C1634 H1659 0.950 . S
C1635 C1634 1.349 . S
C1635 C1651 1.349 . S
C1636 C1634 1.327 . S
C1636 C1655 1.429 . S
C1636 H1660 0.950 . S
C1637 C1654 1.574 . S
C1637 C1656 1.368 . S
C1637 H1661 0.949 . S
H1638 C1642 0.949 . S
C1639 C1640 1.349 . S
C1639 C1641 1.327 . S
C1639 H1662 0.950 . S
C1640 C1639 1.349 . S
C1640 C1652 1.349 . S
C1641 C1639 1.327 . S
C1641 C1657 1.429 . S
C1641 H1663 0.950 . S
C1642 H1638 0.949 . S
C1642 C1650 1.574 . S
C1642 C1658 1.368 . S
H1643 C1651 0.950 . S
H1644 C1649 0.950 . S
H1645 C1650 0.949 . S
H1646 C1652 0.950 . S
H1647 C1653 0.950 . S
H1648 C1654 0.949 . S
C1649 H1644 0.950 . S
C1649 C1651 1.327 . S
C1649 C1655 1.429 . S
C1650 C1642 1.574 . S
C1650 H1645 0.949 . S
C1650 C1656 1.368 . S
C1651 C1635 1.349 . S
C1651 H1643 0.950 . S
C1651 C1649 1.327 . S
C1652 C1640 1.349 . S
C1652 H1646 0.950 . S
C1652 C1653 1.327 . S
C1653 H1647 0.950 . S
C1653 C1652 1.327 . S
C1653 C1657 1.429 . S
C1654 C1637 1.574 . S
C1654 H1648 0.949 . S
C1654 C1658 1.368 . S
C1655 C1636 1.429 . S
C1655 C1649 1.429 . S
C1655 C1656 1.523 . S
C1656 C1637 1.368 . S
C1656 C1650 1.368 . S
C1656 C1655 1.523 . S
C1657 C1641 1.429 . S
C1657 C1653 1.429 . S
C1657 C1658 1.523 . S
C1658 C1642 1.368 . S
C1658 C1654 1.368 . S
C1658 C1657 1.523 . S
H1659 C1634 0.950 . S
H1660 C1636 0.950 . S
H1661 C1637 0.949 . S
H1662 C1639 0.950 . S
H1663 C1641 0.950 . S
C1664 C1665 1.349 . S
C1664 C1666 1.327 . S
C1664 H1689 0.950 1_545 S
C1665 C1664 1.349 . S
C1665 C1681 1.349 . S
C1666 C1664 1.327 . S
C1666 C1685 1.429 . S
C1666 H1690 0.950 1_545 S
C1667 C1684 1.574 . S
C1667 C1686 1.368 . S
C1667 H1691 0.949 . S
H1668 C1672 0.988 . S
C1669 C1670 1.349 . S
C1669 C1671 1.327 . S
C1669 H1692 0.950 . S
C1670 C1669 1.349 . S
C1670 C1682 1.349 . S
C1671 C1669 1.327 . S
C1671 C1687 1.429 . S
C1671 H1693 0.950 . S
C1672 H1668 0.988 . S
C1672 C1680 1.574 . S
C1672 C1688 1.368 . S
H1673 C1681 0.950 . S
H1674 C1679 0.950 . S
H1675 C1680 0.949 1_565 S
H1676 C1682 0.950 . S
H1677 C1683 0.950 . S
H1678 C1684 0.949 . S
C1679 H1674 0.950 . S
C1679 C1681 1.327 . S
C1679 C1685 1.429 . S
C1680 C1672 1.574 . S
C1680 H1675 0.949 1_545 S
C1680 C1686 1.368 . S
C1681 C1665 1.349 . S
C1681 H1673 0.950 . S
C1681 C1679 1.327 . S
C1682 C1670 1.349 . S
C1682 H1676 0.950 . S
C1682 C1683 1.327 . S
C1683 H1677 0.950 . S
C1683 C1682 1.327 . S
C1683 C1687 1.429 . S
C1684 C1667 1.574 . S
C1684 H1678 0.949 . S
C1684 C1688 1.368 . S
C1685 C1666 1.429 . S
C1685 C1679 1.429 . S
C1685 C1686 1.523 . S
C1686 C1667 1.368 . S
C1686 C1680 1.368 . S
C1686 C1685 1.523 . S
C1687 C1671 1.429 . S
C1687 C1683 1.429 . S
C1687 C1688 1.523 . S
C1688 C1672 1.368 . S
C1688 C1684 1.368 . S
C1688 C1687 1.523 . S
H1689 C1664 0.950 1_565 S
H1690 C1666 0.950 1_565 S
H1691 C1667 0.949 . S
H1692 C1669 0.950 . S
H1693 C1671 0.950 . S
C1694 C1695 1.349 . S
C1694 C1696 1.327 . S
C1694 H1719 0.950 . S
C1695 C1694 1.349 . S
C1695 C1711 1.349 . S
C1696 C1694 1.327 . S
C1696 C1715 1.429 . S
C1696 H1720 0.950 . S
C1697 C1714 1.574 . S
C1697 C1716 1.368 . S
C1697 H1721 0.949 . S
H1698 C1702 0.949 . S
C1699 C1700 1.349 . S
C1699 C1701 1.327 . S
C1699 H1722 0.950 . S
C1700 C1699 1.349 . S
C1700 C1712 1.349 . S
C1701 C1699 1.327 . S
C1701 C1717 1.429 . S
C1701 H1723 0.950 . S
C1702 H1698 0.949 . S
C1702 C1710 1.574 . S
C1702 C1718 1.368 . S
H1703 C1711 0.950 . S
H1704 C1709 0.950 . S
H1705 C1710 0.949 . S
H1706 C1712 0.950 . S
H1707 C1713 0.950 . S
H1708 C1714 0.949 . S
C1709 H1704 0.950 . S
C1709 C1711 1.327 . S
C1709 C1715 1.429 . S
C1710 C1702 1.574 . S
C1710 H1705 0.949 . S
C1710 C1716 1.368 . S
C1711 C1695 1.349 . S
C1711 H1703 0.950 . S
C1711 C1709 1.327 . S
C1712 C1700 1.349 . S
C1712 H1706 0.950 . S
C1712 C1713 1.327 . S
C1713 H1707 0.950 . S
C1713 C1712 1.327 . S
C1713 C1717 1.429 . S
C1714 C1697 1.574 . S
C1714 H1708 0.949 . S
C1714 C1718 1.368 . S
C1715 C1696 1.429 . S
C1715 C1709 1.429 . S
C1715 C1716 1.523 . S
C1716 C1697 1.368 . S
C1716 C1710 1.368 . S
C1716 C1715 1.523 . S
C1717 C1701 1.429 . S
C1717 C1713 1.429 . S
C1717 C1718 1.523 . S
C1718 C1702 1.368 . S
C1718 C1714 1.368 . S
C1718 C1717 1.523 . S
H1719 C1694 0.950 . S
H1720 C1696 0.950 . S
H1721 C1697 0.949 . S
H1722 C1699 0.950 . S
H1723 C1701 0.950 . S
C1724 C1725 1.349 1_565 S
C1724 C1726 1.327 . S
C1724 H1749 0.950 . S
C1725 C1724 1.349 1_545 S
C1725 C1741 1.349 . S
C1726 C1724 1.327 . S
C1726 C1745 1.429 . S
C1726 H1750 0.950 . S
C1727 C1744 1.574 . S
C1727 C1746 1.368 1_545 S
C1727 H1751 0.949 . S
H1728 C1732 0.949 . S
C1729 C1730 1.349 1_545 S
C1729 C1731 1.327 . S
C1729 H1752 0.950 . S
C1730 C1729 1.349 1_565 S
C1730 C1742 1.349 . S
C1731 C1729 1.327 . S
C1731 C1747 1.429 1_545 S
C1731 H1753 0.950 . S
C1732 H1728 0.949 . S
C1732 C1740 1.574 . S
C1732 C1748 1.368 . S
H1733 C1741 0.950 . S
H1734 C1739 0.950 . S
H1735 C1740 0.949 . S
H1736 C1742 0.950 . S
H1737 C1743 0.950 . S
H1738 C1744 0.949 . S
C1739 H1734 0.950 . S
C1739 C1741 1.327 . S
C1739 C1745 1.429 1_545 S
C1740 C1732 1.574 . S
C1740 H1735 0.949 . S
C1740 C1746 1.368 . S
C1741 C1725 1.349 . S
C1741 H1733 0.950 . S
C1741 C1739 1.327 . S
C1742 C1730 1.349 . S
C1742 H1736 0.950 . S
C1742 C1743 1.327 . S
C1743 H1737 0.950 . S
C1743 C1742 1.327 . S
C1743 C1747 1.429 . S
C1744 C1727 1.574 . S
C1744 H1738 0.949 . S
C1744 C1748 1.368 1_545 S
C1745 C1726 1.429 . S
C1745 C1739 1.429 1_565 S
C1745 C1746 1.523 . S
C1746 C1727 1.368 1_565 S
C1746 C1740 1.368 . S
C1746 C1745 1.523 . S
C1747 C1731 1.429 1_565 S
C1747 C1743 1.429 . S
C1747 C1748 1.523 . S
C1748 C1732 1.368 . S
C1748 C1744 1.368 1_565 S
C1748 C1747 1.523 . S
H1749 C1724 0.950 . S
H1750 C1726 0.950 . S
H1751 C1727 0.949 . S
H1752 C1729 0.950 . S
H1753 C1731 0.950 . S
C1754 C1755 1.349 . S
C1754 C1756 1.327 . S
C1754 H1779 0.950 . S
C1755 C1754 1.349 . S
C1755 C1771 1.349 . S
C1756 C1754 1.327 . S
C1756 C1775 1.429 . S
C1756 H1780 0.950 . S
C1757 C1774 1.574 . S
C1757 C1776 1.368 . S
C1757 H1781 0.949 . S
H1758 C1762 0.949 . S
C1759 C1760 1.349 . S
C1759 C1761 1.327 . S
C1759 H1782 0.950 . S
C1760 C1759 1.349 . S
C1760 C1772 1.349 . S
C1761 C1759 1.327 . S
C1761 C1777 1.429 . S
C1761 H1783 0.950 . S
C1762 H1758 0.949 . S
C1762 C1770 1.574 . S
C1762 C1778 1.368 . S
H1763 C1771 0.950 . S
H1764 C1769 0.950 . S
H1765 C1770 0.949 . S
H1766 C1772 0.950 . S
H1767 C1773 0.950 . S
H1768 C1774 0.949 . S
C1769 H1764 0.950 . S
C1769 C1771 1.327 . S
C1769 C1775 1.429 . S
C1770 C1762 1.574 . S
C1770 H1765 0.949 . S
C1770 C1776 1.368 . S
C1771 C1755 1.349 . S
C1771 H1763 0.950 . S
C1771 C1769 1.327 . S
C1772 C1760 1.349 . S
C1772 H1766 0.950 . S
C1772 C1773 1.327 . S
C1773 H1767 0.950 . S
C1773 C1772 1.327 . S
C1773 C1777 1.429 . S
C1774 C1757 1.574 . S
C1774 H1768 0.949 . S
C1774 C1778 1.368 . S
C1775 C1756 1.429 . S
C1775 C1769 1.429 . S
C1775 C1776 1.523 . S
C1776 C1757 1.368 . S
C1776 C1770 1.368 . S
C1776 C1775 1.523 . S
C1777 C1761 1.429 . S
C1777 C1773 1.429 . S
C1777 C1778 1.523 . S
C1778 C1762 1.368 . S
C1778 C1774 1.368 . S
C1778 C1777 1.523 . S
H1779 C1754 0.950 . S
H1780 C1756 0.950 . S
H1781 C1757 0.949 . S
H1782 C1759 0.950 . S
H1783 C1761 0.950 . S
C1784 C1785 1.349 . S
C1784 C1786 1.327 . S
C1784 H1809 0.950 . S
C1785 C1784 1.349 . S
C1785 C1801 1.349 . S
C1786 C1784 1.327 . S
C1786 C1805 1.429 . S
C1786 H1810 0.950 . S
C1787 C1804 1.574 . S
C1787 C1806 1.368 1_565 S
C1787 H1811 0.949 . S
H1788 C1792 0.949 . S
C1789 C1790 1.387 . S
C1789 C1791 1.327 . S
C1789 H1812 0.950 . S
C1790 C1789 1.387 . S
C1790 C1802 1.306 1_565 S
C1791 C1789 1.327 . S
C1791 C1807 1.429 1_565 S
C1791 H1813 0.950 . S
C1792 H1788 0.949 . S
C1792 C1800 1.574 . S
C1792 C1808 1.368 . S
H1793 C1801 0.950 1_565 S
H1794 C1799 0.924 1_565 S
H1795 C1800 0.949 . S
H1796 C1802 0.950 . S
H1797 C1803 0.950 . S
H1798 C1804 0.949 . S
C1799 H1794 0.924 1_545 S
C1799 C1801 1.332 . S
C1799 C1805 1.450 . S
C1800 C1792 1.574 . S
C1800 H1795 0.949 . S
C1800 C1806 1.368 . S
C1801 C1785 1.349 . S
C1801 H1793 0.950 1_545 S
C1801 C1799 1.332 . S
C1802 C1790 1.306 1_545 S
C1802 H1796 0.950 . S
C1802 C1803 1.327 . S
C1803 H1797 0.950 . S
C1803 C1802 1.327 . S
C1803 C1807 1.429 . S
C1804 C1787 1.574 . S
C1804 H1798 0.949 . S
C1804 C1808 1.368 1_565 S
C1805 C1786 1.429 . S
C1805 C1799 1.450 . S
C1805 C1806 1.523 . S
C1806 C1787 1.368 1_545 S
C1806 C1800 1.368 . S
C1806 C1805 1.523 . S
C1807 C1791 1.429 1_545 S
C1807 C1803 1.429 . S
C1807 C1808 1.523 . S
C1808 C1792 1.368 . S
C1808 C1804 1.368 1_545 S
C1808 C1807 1.523 . S
H1809 C1784 0.950 . S
H1810 C1786 0.950 . S
H1811 C1787 0.949 . S
H1812 C1789 0.950 . S
H1813 C1791 0.950 . S
C1814 C1815 1.349 . S
C1814 C1816 1.327 . S
C1814 H1839 0.950 . S
C1815 C1814 1.349 . S
C1815 C1831 1.349 . S
C1816 C1814 1.327 . S
C1816 C1835 1.429 . S
C1816 H1840 0.950 . S
C1817 C1834 1.574 . S
C1817 C1836 1.368 . S
C1817 H1841 0.949 . S
H1818 C1822 0.949 . S
C1819 C1820 1.349 . S
C1819 C1821 1.327 . S
C1819 H1842 0.950 . S
C1820 C1819 1.349 . S
C1820 C1832 1.349 . S
C1821 C1819 1.327 . S
C1821 C1837 1.429 . S
C1821 H1843 0.950 . S
C1822 H1818 0.949 . S
C1822 C1830 1.574 . S
C1822 C1838 1.368 . S
H1823 C1831 0.950 . S
H1824 C1829 0.950 . S
H1825 C1830 0.949 . S
H1826 C1832 0.950 . S
H1827 C1833 0.950 . S
H1828 C1834 0.949 . S
C1829 H1824 0.950 . S
C1829 C1831 1.327 . S
C1829 C1835 1.429 . S
C1830 C1822 1.574 . S
C1830 H1825 0.949 . S
C1830 C1836 1.368 . S
C1831 C1815 1.349 . S
C1831 H1823 0.950 . S
C1831 C1829 1.327 . S
C1832 C1820 1.349 . S
C1832 H1826 0.950 . S
C1832 C1833 1.327 . S
C1833 H1827 0.950 . S
C1833 C1832 1.327 . S
C1833 C1837 1.429 . S
C1834 C1817 1.574 . S
C1834 H1828 0.949 . S
C1834 C1838 1.368 . S
C1835 C1816 1.429 . S
C1835 C1829 1.429 . S
C1835 C1836 1.523 . S
C1836 C1817 1.368 . S
C1836 C1830 1.368 . S
C1836 C1835 1.523 . S
C1837 C1821 1.429 . S
C1837 C1833 1.429 . S
C1837 C1838 1.523 . S
C1838 C1822 1.368 . S
C1838 C1834 1.368 . S
C1838 C1837 1.523 . S
H1839 C1814 0.950 . S
H1840 C1816 0.950 . S
H1841 C1817 0.949 . S
H1842 C1819 0.950 . S
H1843 C1821 0.950 . S
C1844 C1845 1.349 . S
C1844 C1846 1.327 . S
C1844 H1869 0.950 . S
C1845 C1844 1.349 . S
C1845 C1861 1.349 1_545 S
C1846 C1844 1.327 . S
C1846 C1865 1.429 . S
C1846 H1870 0.950 . S
C1847 C1864 1.574 . S
C1847 C1866 1.368 1_565 S
C1847 H1871 0.949 . S
H1848 C1852 0.949 . S
C1849 C1850 1.349 . S
C1849 C1851 1.328 . S
C1849 H1872 0.950 1_545 S
C1850 C1849 1.349 . S
C1850 C1862 1.349 . S
C1851 C1849 1.328 . S
C1851 C1867 1.432 . S
C1851 H1873 0.945 1_545 S
C1852 H1848 0.949 . S
C1852 C1860 1.574 . S
C1852 C1868 1.368 . S
H1853 C1861 0.950 . S
H1854 C1859 0.950 . S
H1855 C1860 0.949 . S
H1856 C1862 0.950 . S
H1857 C1863 0.950 . S
H1858 C1864 0.949 . S
C1859 H1854 0.950 . S
C1859 C1861 1.327 . S
C1859 C1865 1.429 1_565 S
C1860 C1852 1.574 . S
C1860 H1855 0.949 . S
C1860 C1866 1.368 . S
C1861 C1845 1.349 1_565 S
C1861 H1853 0.950 . S
C1861 C1859 1.327 . S
C1862 C1850 1.349 . S
C1862 H1856 0.950 . S
C1862 C1863 1.327 . S
C1863 H1857 0.950 . S
C1863 C1862 1.327 . S
C1863 C1867 1.429 . S
C1864 C1847 1.574 . S
C1864 H1858 0.949 . S
C1864 C1868 1.368 1_565 S
C1865 C1846 1.429 . S
C1865 C1859 1.429 1_545 S
C1865 C1866 1.523 . S
C1866 C1847 1.368 1_545 S
C1866 C1860 1.368 . S
C1866 C1865 1.523 . S
C1867 C1851 1.432 . S
C1867 C1863 1.429 . S
C1867 C1868 1.523 . S
C1868 C1852 1.368 . S
C1868 C1864 1.368 1_545 S
C1868 C1867 1.523 . S
H1869 C1844 0.950 . S
H1870 C1846 0.950 . S
H1871 C1847 0.949 . S
H1872 C1849 0.950 1_565 S
H1873 C1851 0.945 1_565 S
C1874 C1875 1.349 . S
C1874 C1876 1.327 . S
C1874 H1899 0.950 . S
C1875 C1874 1.349 . S
C1875 C1891 1.349 . S
C1876 C1874 1.327 . S
C1876 C1895 1.429 . S
C1876 H1900 0.950 . S
C1877 C1894 1.574 . S
C1877 C1896 1.368 . S
C1877 H1901 0.949 . S
H1878 C1882 0.949 . S
C1879 C1880 1.349 . S
C1879 C1881 1.327 . S
C1879 H1902 0.950 . S
C1880 C1879 1.349 . S
C1880 C1892 1.349 . S
C1881 C1879 1.327 . S
C1881 C1897 1.429 . S
C1881 H1903 0.950 . S
C1882 H1878 0.949 . S
C1882 C1890 1.574 . S
C1882 C1898 1.368 . S
H1883 C1891 0.950 . S
H1884 C1889 0.950 . S
H1885 C1890 0.949 . S
H1886 C1892 0.950 . S
H1887 C1893 0.950 . S
H1888 C1894 0.949 . S
C1889 H1884 0.950 . S
C1889 C1891 1.327 . S
C1889 C1895 1.429 . S
C1890 C1882 1.574 . S
C1890 H1885 0.949 . S
C1890 C1896 1.368 . S
C1891 C1875 1.349 . S
C1891 H1883 0.950 . S
C1891 C1889 1.327 . S
C1892 C1880 1.349 . S
C1892 H1886 0.950 . S
C1892 C1893 1.327 . S
C1893 H1887 0.950 . S
C1893 C1892 1.327 . S
C1893 C1897 1.429 . S
C1894 C1877 1.574 . S
C1894 H1888 0.949 . S
C1894 C1898 1.368 . S
C1895 C1876 1.429 . S
C1895 C1889 1.429 . S
C1895 C1896 1.523 . S
C1896 C1877 1.368 . S
C1896 C1890 1.368 . S
C1896 C1895 1.523 . S
C1897 C1881 1.429 . S
C1897 C1893 1.429 . S
C1897 C1898 1.523 . S
C1898 C1882 1.368 . S
C1898 C1894 1.368 . S
C1898 C1897 1.523 . S
H1899 C1874 0.950 . S
H1900 C1876 0.950 . S
H1901 C1877 0.949 . S
H1902 C1879 0.950 . S
H1903 C1881 0.950 . S
C1904 C1905 1.349 . S
C1904 C1906 1.327 . S
C1904 H1929 0.950 . S
C1905 C1904 1.349 . S
C1905 C1921 1.349 1_554 S
C1906 C1904 1.327 . S
C1906 C1925 1.429 . S
C1906 H1930 0.950 . S
C1907 C1924 1.574 . S
C1907 C1926 1.368 . S
C1907 H1931 0.949 1_554 S
H1908 C1912 0.949 . S
C1909 C1910 1.349 . S
C1909 C1911 1.327 . S
C1909 H1932 0.950 . S
C1910 C1909 1.349 . S
C1910 C1922 1.349 . S
C1911 C1909 1.327 . S
C1911 C1927 1.429 . S
C1911 H1933 0.950 . S
C1912 H1908 0.949 . S
C1912 C1920 1.574 . S
C1912 C1928 1.368 . S
H1913 C1921 0.950 . S
H1914 C1919 0.969 . S
H1915 C1920 0.949 . S
H1916 C1922 0.950 . S
H1917 C1923 0.950 . S
H1918 C1924 0.949 . S
C1919 H1914 0.969 . S
C1919 C1921 1.333 . S
C1919 C1925 1.406 1_556 S
C1920 C1912 1.574 . S
C1920 H1915 0.949 . S
C1920 C1926 1.368 . S
C1921 C1905 1.349 1_556 S
C1921 H1913 0.950 . S
C1921 C1919 1.333 . S
C1922 C1910 1.349 . S
C1922 H1916 0.950 . S
C1922 C1923 1.327 . S
C1923 H1917 0.950 . S
C1923 C1922 1.327 . S
C1923 C1927 1.429 . S
C1924 C1907 1.574 . S
C1924 H1918 0.949 . S
C1924 C1928 1.368 . S
C1925 C1906 1.429 . S
C1925 C1919 1.406 1_554 S
C1925 C1926 1.523 . S
C1926 C1907 1.368 . S
C1926 C1920 1.368 . S
C1926 C1925 1.523 . S
C1927 C1911 1.429 . S
C1927 C1923 1.429 . S
C1927 C1928 1.523 . S
C1928 C1912 1.368 . S
C1928 C1924 1.368 . S
C1928 C1927 1.523 . S
H1929 C1904 0.950 . S
H1930 C1906 0.950 . S
H1931 C1907 0.949 1_556 S
H1932 C1909 0.950 . S
H1933 C1911 0.950 . S
C1934 C1935 1.349 . S
C1934 C1936 1.327 . S
C1934 H1959 0.950 . S
C1935 C1934 1.349 . S
C1935 C1951 1.349 1_554 S
C1936 C1934 1.327 . S
C1936 C1955 1.429 . S
C1936 H1960 0.950 . S
C1937 C1954 1.574 . S
C1937 C1956 1.382 . S
C1937 H1961 0.949 . S
H1938 C1942 0.949 . S
C1939 C1940 1.349 . S
C1939 C1941 1.327 . S
C1939 H1962 0.950 . S
C1940 C1939 1.349 . S
C1940 C1952 1.349 1_556 S
C1941 C1939 1.327 . S
C1941 C1957 1.429 . S
C1941 H1963 0.950 . S
C1942 H1938 0.949 . S
C1942 C1950 1.574 . S
C1942 C1958 1.368 1_554 S
H1943 C1951 0.950 . S
H1944 C1949 0.950 . S
H1945 C1950 0.949 . S
H1946 C1952 0.950 . S
H1947 C1953 0.950 . S
H1948 C1954 0.949 . S
C1949 H1944 0.950 . S
C1949 C1951 1.327 . S
C1949 C1955 1.429 1_556 S
C1950 C1942 1.574 . S
C1950 H1945 0.949 . S
C1950 C1956 1.356 1_554 S
C1951 C1935 1.349 1_556 S
C1951 H1943 0.950 . S
C1951 C1949 1.327 . S
C1952 C1940 1.349 1_554 S
C1952 H1946 0.950 . S
C1952 C1953 1.327 . S
C1953 H1947 0.950 . S
C1953 C1952 1.327 . S
C1953 C1957 1.429 1_554 S
C1954 C1937 1.574 . S
C1954 H1948 0.949 . S
C1954 C1958 1.368 . S
C1955 C1936 1.429 . S
C1955 C1949 1.429 1_554 S
C1955 C1956 1.522 1_554 S
C1956 C1937 1.382 . S
C1956 C1950 1.356 1_556 S
C1956 C1955 1.522 1_556 S
C1957 C1941 1.429 . S
C1957 C1953 1.429 1_556 S
C1957 C1958 1.523 . S
C1958 C1942 1.368 1_556 S
C1958 C1954 1.368 . S
C1958 C1957 1.523 . S
H1959 C1934 0.950 . S
H1960 C1936 0.950 . S
H1961 C1937 0.949 . S
H1962 C1939 0.950 . S
H1963 C1941 0.950 . S
C1964 C1965 1.349 . S
C1964 C1966 1.327 . S
C1964 H1989 0.950 . S
C1965 C1964 1.349 . S
C1965 C1981 1.349 . S
C1966 C1964 1.327 . S
C1966 C1985 1.429 . S
C1966 H1990 0.950 . S
C1967 C1984 1.574 . S
C1967 C1986 1.368 . S
C1967 H1991 0.949 . S
H1968 C1972 0.949 . S
C1969 C1970 1.349 . S
C1969 C1971 1.327 . S
C1969 H1992 0.950 . S
C1970 C1969 1.349 . S
C1970 C1982 1.349 . S
C1971 C1969 1.327 . S
C1971 C1987 1.429 . S
C1971 H1993 0.950 . S
C1972 H1968 0.949 . S
C1972 C1980 1.574 . S
C1972 C1988 1.368 . S
H1973 C1981 0.950 . S
H1974 C1979 0.950 . S
H1975 C1980 0.949 . S
H1976 C1982 0.950 . S
H1977 C1983 0.950 . S
H1978 C1984 0.949 . S
C1979 H1974 0.950 . S
C1979 C1981 1.327 . S
C1979 C1985 1.429 . S
C1980 C1972 1.574 . S
C1980 H1975 0.949 . S
C1980 C1986 1.368 . S
C1981 C1965 1.349 . S
C1981 H1973 0.950 . S
C1981 C1979 1.327 . S
C1982 C1970 1.349 . S
C1982 H1976 0.950 . S
C1982 C1983 1.327 . S
C1983 H1977 0.950 . S
C1983 C1982 1.327 . S
C1983 C1987 1.429 . S
C1984 C1967 1.574 . S
C1984 H1978 0.949 . S
C1984 C1988 1.368 . S
C1985 C1966 1.429 . S
C1985 C1979 1.429 . S
C1985 C1986 1.523 . S
C1986 C1967 1.368 . S
C1986 C1980 1.368 . S
C1986 C1985 1.523 . S
C1987 C1971 1.429 . S
C1987 C1983 1.429 . S
C1987 C1988 1.523 . S
C1988 C1972 1.368 . S
C1988 C1984 1.368 . S
C1988 C1987 1.523 . S
H1989 C1964 0.950 . S
H1990 C1966 0.950 . S
H1991 C1967 0.949 . S
H1992 C1969 0.950 . S
H1993 C1971 0.950 . S
C1994 C1995 1.349 . S
C1994 C1996 1.327 . S
C1994 H2019 0.950 . S
C1995 C1994 1.349 . S
C1995 C2011 1.349 . S
C1996 C1994 1.327 . S
C1996 C2015 1.429 . S
C1996 H2020 0.950 . S
C1997 C2014 1.574 . S
C1997 C2016 1.368 . S
C1997 H2021 0.949 . S
H1998 C2002 0.949 . S
C1999 C2000 1.349 . S
C1999 C2001 1.327 . S
C1999 H2022 0.950 . S
C2000 C1999 1.349 . S
C2000 C2012 1.349 . S
C2001 C1999 1.327 . S
C2001 C2017 1.429 . S
C2001 H2023 0.950 . S
C2002 H1998 0.949 . S
C2002 C2010 1.574 . S
C2002 C2018 1.368 . S
H2003 C2011 0.950 . S
H2004 C2009 0.950 . S
H2005 C2010 0.949 . S
H2006 C2012 0.950 . S
H2007 C2013 0.950 . S
H2008 C2014 0.949 . S
C2009 H2004 0.950 . S
C2009 C2011 1.327 . S
C2009 C2015 1.429 . S
C2010 C2002 1.574 . S
C2010 H2005 0.949 . S
C2010 C2016 1.368 . S
C2011 C1995 1.349 . S
C2011 H2003 0.950 . S
C2011 C2009 1.327 . S
C2012 C2000 1.349 . S
C2012 H2006 0.950 . S
C2012 C2013 1.327 . S
C2013 H2007 0.950 . S
C2013 C2012 1.327 . S
C2013 C2017 1.429 . S
C2014 C1997 1.574 . S
C2014 H2008 0.949 . S
C2014 C2018 1.368 . S
C2015 C1996 1.429 . S
C2015 C2009 1.429 . S
C2015 C2016 1.523 . S
C2016 C1997 1.368 . S
C2016 C2010 1.368 . S
C2016 C2015 1.523 . S
C2017 C2001 1.429 . S
C2017 C2013 1.429 . S
C2017 C2018 1.523 . S
C2018 C2002 1.368 . S
C2018 C2014 1.368 . S
C2018 C2017 1.523 . S
H2019 C1994 0.950 . S
H2020 C1996 0.950 . S
H2021 C1997 0.949 . S
H2022 C1999 0.950 . S
H2023 C2001 0.950 . S
C2024 C2025 1.349 . S
C2024 C2026 1.327 . S
C2024 H2049 0.950 . S
C2025 C2024 1.349 . S
C2025 C2041 1.349 . S
C2026 C2024 1.327 . S
C2026 C2045 1.429 . S
C2026 H2050 0.950 . S
C2027 C2044 1.574 . S
C2027 C2046 1.368 . S
C2027 H2051 0.949 . S
H2028 C2032 0.949 . S
C2029 C2030 1.349 . S
C2029 C2031 1.327 . S
C2029 H2052 0.950 . S
C2030 C2029 1.349 . S
C2030 C2042 1.349 . S
C2031 C2029 1.327 . S
C2031 C2047 1.429 . S
C2031 H2053 0.950 . S
C2032 H2028 0.949 . S
C2032 C2040 1.574 . S
C2032 C2048 1.368 . S
H2033 C2041 0.950 . S
H2034 C2039 0.950 . S
H2035 C2040 0.949 . S
H2036 C2042 0.950 . S
H2037 C2043 0.950 . S
H2038 C2044 0.949 . S
C2039 H2034 0.950 . S
C2039 C2041 1.327 . S
C2039 C2045 1.429 . S
C2040 C2032 1.574 . S
C2040 H2035 0.949 . S
C2040 C2046 1.368 . S
C2041 C2025 1.349 . S
C2041 H2033 0.950 . S
C2041 C2039 1.327 . S
C2042 C2030 1.349 . S
C2042 H2036 0.950 . S
C2042 C2043 1.327 . S
C2043 H2037 0.950 . S
C2043 C2042 1.327 . S
C2043 C2047 1.429 . S
C2044 C2027 1.574 . S
C2044 H2038 0.949 . S
C2044 C2048 1.368 . S
C2045 C2026 1.429 . S
C2045 C2039 1.429 . S
C2045 C2046 1.523 . S
C2046 C2027 1.368 . S
C2046 C2040 1.368 . S
C2046 C2045 1.523 . S
C2047 C2031 1.429 . S
C2047 C2043 1.429 . S
C2047 C2048 1.523 . S
C2048 C2032 1.368 . S
C2048 C2044 1.368 . S
C2048 C2047 1.523 . S
H2049 C2024 0.950 . S
H2050 C2026 0.950 . S
H2051 C2027 0.949 . S
H2052 C2029 0.950 . S
H2053 C2031 0.950 . S
C2054 C2055 1.349 . S
C2054 C2056 1.327 . S
C2054 H2079 0.950 . S
C2055 C2054 1.349 . S
C2055 C2071 1.349 . S
C2056 C2054 1.327 . S
C2056 C2075 1.429 . S
C2056 H2080 0.950 . S
C2057 C2074 1.574 . S
C2057 C2076 1.368 . S
C2057 H2081 0.949 . S
H2058 C2062 0.949 . S
C2059 C2060 1.349 . S
C2059 C2061 1.327 . S
C2059 H2082 0.950 . S
C2060 C2059 1.349 . S
C2060 C2072 1.349 . S
C2061 C2059 1.327 . S
C2061 C2077 1.429 . S
C2061 H2083 0.950 . S
C2062 H2058 0.949 . S
C2062 C2070 1.574 . S
C2062 C2078 1.368 . S
H2063 C2071 0.950 . S
H2064 C2069 0.950 . S
H2065 C2070 0.949 . S
H2066 C2072 0.950 . S
H2067 C2073 0.950 . S
H2068 C2074 0.949 . S
C2069 H2064 0.950 . S
C2069 C2071 1.327 . S
C2069 C2075 1.429 . S
C2070 C2062 1.574 . S
C2070 H2065 0.949 . S
C2070 C2076 1.368 . S
C2071 C2055 1.349 . S
C2071 H2063 0.950 . S
C2071 C2069 1.327 . S
C2072 C2060 1.349 . S
C2072 H2066 0.950 . S
C2072 C2073 1.327 . S
C2073 H2067 0.950 . S
C2073 C2072 1.327 . S
C2073 C2077 1.429 . S
C2074 C2057 1.574 . S
C2074 H2068 0.949 . S
C2074 C2078 1.368 . S
C2075 C2056 1.429 . S
C2075 C2069 1.429 . S
C2075 C2076 1.523 . S
C2076 C2057 1.368 . S
C2076 C2070 1.368 . S
C2076 C2075 1.523 . S
C2077 C2061 1.429 . S
C2077 C2073 1.429 . S
C2077 C2078 1.523 . S
C2078 C2062 1.368 . S
C2078 C2074 1.368 . S
C2078 C2077 1.523 . S
H2079 C2054 0.950 . S
H2080 C2056 0.950 . S
H2081 C2057 0.949 . S
H2082 C2059 0.950 . S
H2083 C2061 0.950 . S
C2084 C2085 1.349 . S
C2084 C2086 1.327 . S
C2084 H2109 0.950 . S
C2085 C2084 1.349 . S
C2085 C2101 1.349 . S
C2086 C2084 1.327 . S
C2086 C2105 1.429 . S
C2086 H2110 0.950 . S
C2087 C2104 1.574 . S
C2087 C2106 1.368 . S
C2087 H2111 0.949 . S
H2088 C2092 0.949 . S
C2089 C2090 1.349 . S
C2089 C2091 1.327 . S
C2089 H2112 0.950 . S
C2090 C2089 1.349 . S
C2090 C2102 1.349 . S
C2091 C2089 1.327 . S
C2091 C2107 1.429 . S
C2091 H2113 0.950 . S
C2092 H2088 0.949 . S
C2092 C2100 1.574 . S
C2092 C2108 1.368 . S
H2093 C2101 0.950 . S
H2094 C2099 0.950 . S
H2095 C2100 0.949 . S
H2096 C2102 0.950 . S
H2097 C2103 0.950 . S
H2098 C2104 0.949 . S
C2099 H2094 0.950 . S
C2099 C2101 1.327 . S
C2099 C2105 1.429 . S
C2100 C2092 1.574 . S
C2100 H2095 0.949 . S
C2100 C2106 1.368 . S
C2101 C2085 1.349 . S
C2101 H2093 0.950 . S
C2101 C2099 1.327 . S
C2102 C2090 1.349 . S
C2102 H2096 0.950 . S
C2102 C2103 1.327 . S
C2103 H2097 0.950 . S
C2103 C2102 1.327 . S
C2103 C2107 1.429 . S
C2104 C2087 1.574 . S
C2104 H2098 0.949 . S
C2104 C2108 1.368 . S
C2105 C2086 1.429 . S
C2105 C2099 1.429 . S
C2105 C2106 1.523 . S
C2106 C2087 1.368 . S
C2106 C2100 1.368 . S
C2106 C2105 1.523 . S
C2107 C2091 1.429 . S
C2107 C2103 1.429 . S
C2107 C2108 1.523 . S
C2108 C2092 1.368 . S
C2108 C2104 1.368 . S
C2108 C2107 1.523 . S
H2109 C2084 0.950 . S
H2110 C2086 0.950 . S
H2111 C2087 0.949 . S
H2112 C2089 0.950 . S
H2113 C2091 0.950 . S
C2114 C2115 1.349 . S
C2114 C2116 1.327 . S
C2114 H2139 0.950 . S
C2115 C2114 1.349 . S
C2115 C2131 1.349 . S
C2116 C2114 1.327 . S
C2116 C2135 1.429 . S
C2116 H2140 0.950 . S
C2117 C2134 1.574 . S
C2117 C2136 1.368 . S
C2117 H2141 0.949 . S
H2118 C2122 0.949 . S
C2119 C2120 1.349 . S
C2119 C2121 1.327 . S
C2119 H2142 0.950 . S
C2120 C2119 1.349 . S
C2120 C2132 1.349 . S
C2121 C2119 1.327 . S
C2121 C2137 1.429 . S
C2121 H2143 0.950 . S
C2122 H2118 0.949 . S
C2122 C2130 1.574 . S
C2122 C2138 1.368 . S
H2123 C2131 0.950 . S
H2124 C2129 0.950 . S
H2125 C2130 0.949 . S
H2126 C2132 0.950 . S
H2127 C2133 0.950 . S
H2128 C2134 0.949 . S
C2129 H2124 0.950 . S
C2129 C2131 1.327 . S
C2129 C2135 1.429 . S
C2130 C2122 1.574 . S
C2130 H2125 0.949 . S
C2130 C2136 1.368 . S
C2131 C2115 1.349 . S
C2131 H2123 0.950 . S
C2131 C2129 1.327 . S
C2132 C2120 1.349 . S
C2132 H2126 0.950 . S
C2132 C2133 1.327 . S
C2133 H2127 0.950 . S
C2133 C2132 1.327 . S
C2133 C2137 1.429 . S
C2134 C2117 1.574 . S
C2134 H2128 0.949 . S
C2134 C2138 1.368 . S
C2135 C2116 1.429 . S
C2135 C2129 1.429 . S
C2135 C2136 1.523 . S
C2136 C2117 1.368 . S
C2136 C2130 1.368 . S
C2136 C2135 1.523 . S
C2137 C2121 1.429 . S
C2137 C2133 1.429 . S
C2137 C2138 1.523 . S
C2138 C2122 1.368 . S
C2138 C2134 1.368 . S
C2138 C2137 1.523 . S
H2139 C2114 0.950 . S
H2140 C2116 0.950 . S
H2141 C2117 0.949 . S
H2142 C2119 0.950 . S
H2143 C2121 0.950 . S
C2144 C2145 1.349 . S
C2144 C2146 1.327 . S
C2144 H2169 0.950 . S
C2145 C2144 1.349 . S
C2145 C2161 1.349 . S
C2146 C2144 1.327 . S
C2146 C2165 1.429 . S
C2146 H2170 0.950 . S
C2147 C2164 1.574 . S
C2147 C2166 1.368 . S
C2147 H2171 0.949 . S
H2148 C2152 0.949 . S
C2149 C2150 1.349 . S
C2149 C2151 1.327 . S
C2149 H2172 0.950 . S
C2150 C2149 1.349 . S
C2150 C2162 1.349 . S
C2151 C2149 1.327 . S
C2151 C2167 1.429 . S
C2151 H2173 0.950 . S
C2152 H2148 0.949 . S
C2152 C2160 1.574 . S
C2152 C2168 1.368 . S
H2153 C2161 0.950 . S
H2154 C2159 0.950 . S
H2155 C2160 0.949 . S
H2156 C2162 0.950 . S
H2157 C2163 0.950 . S
H2158 C2164 0.949 . S
C2159 H2154 0.950 . S
C2159 C2161 1.327 . S
C2159 C2165 1.429 . S
C2160 C2152 1.574 . S
C2160 H2155 0.949 . S
C2160 C2166 1.368 . S
C2161 C2145 1.349 . S
C2161 H2153 0.950 . S
C2161 C2159 1.327 . S
C2162 C2150 1.349 . S
C2162 H2156 0.950 . S
C2162 C2163 1.327 . S
C2163 H2157 0.950 . S
C2163 C2162 1.327 . S
C2163 C2167 1.429 . S
C2164 C2147 1.574 . S
C2164 H2158 0.949 . S
C2164 C2168 1.368 . S
C2165 C2146 1.429 . S
C2165 C2159 1.429 . S
C2165 C2166 1.523 . S
C2166 C2147 1.368 . S
C2166 C2160 1.368 . S
C2166 C2165 1.523 . S
C2167 C2151 1.429 . S
C2167 C2163 1.429 . S
C2167 C2168 1.523 . S
C2168 C2152 1.368 . S
C2168 C2164 1.368 . S
C2168 C2167 1.523 . S
H2169 C2144 0.950 . S
H2170 C2146 0.950 . S
H2171 C2147 0.949 . S
H2172 C2149 0.950 . S
H2173 C2151 0.950 . S
C2174 C2175 1.349 . S
C2174 C2176 1.327 . S
C2174 H2199 0.950 . S
C2175 C2174 1.349 . S
C2175 C2191 1.349 . S
C2176 C2174 1.327 . S
C2176 C2195 1.429 . S
C2176 H2200 0.950 . S
C2177 C2194 1.574 . S
C2177 C2196 1.368 . S
C2177 H2201 0.949 . S
H2178 C2182 0.949 . S
C2179 C2180 1.349 . S
C2179 C2181 1.327 . S
C2179 H2202 0.950 . S
C2180 C2179 1.349 . S
C2180 C2192 1.349 . S
C2181 C2179 1.327 . S
C2181 C2197 1.429 . S
C2181 H2203 0.950 . S
C2182 H2178 0.949 . S
C2182 C2190 1.574 . S
C2182 C2198 1.368 . S
H2183 C2191 0.950 . S
H2184 C2189 0.950 . S
H2185 C2190 0.949 . S
H2186 C2192 0.950 . S
H2187 C2193 0.950 . S
H2188 C2194 0.949 . S
C2189 H2184 0.950 . S
C2189 C2191 1.327 . S
C2189 C2195 1.429 . S
C2190 C2182 1.574 . S
C2190 H2185 0.949 . S
C2190 C2196 1.368 . S
C2191 C2175 1.349 . S
C2191 H2183 0.950 . S
C2191 C2189 1.327 . S
C2192 C2180 1.349 . S
C2192 H2186 0.950 . S
C2192 C2193 1.327 . S
C2193 H2187 0.950 . S
C2193 C2192 1.327 . S
C2193 C2197 1.429 . S
C2194 C2177 1.574 . S
C2194 H2188 0.949 . S
C2194 C2198 1.368 . S
C2195 C2176 1.429 . S
C2195 C2189 1.429 . S
C2195 C2196 1.523 . S
C2196 C2177 1.368 . S
C2196 C2190 1.368 . S
C2196 C2195 1.523 . S
C2197 C2181 1.429 . S
C2197 C2193 1.429 . S
C2197 C2198 1.523 . S
C2198 C2182 1.368 . S
C2198 C2194 1.368 . S
C2198 C2197 1.523 . S
H2199 C2174 0.950 . S
H2200 C2176 0.950 . S
H2201 C2177 0.949 . S
H2202 C2179 0.950 . S
H2203 C2181 0.950 . S
C2204 C2205 1.349 . S
C2204 C2206 1.327 . S
C2204 H2229 0.950 . S
C2205 C2204 1.349 . S
C2205 C2221 1.349 1_455 S
C2206 C2204 1.327 . S
C2206 C2225 1.429 . S
C2206 H2230 0.950 . S
C2207 C2224 1.574 1_655 S
C2207 C2226 1.368 1_655 S
C2207 H2231 0.949 . S
H2208 C2212 0.949 . S
C2209 C2210 1.349 . S
C2209 C2211 1.327 . S
C2209 H2232 0.949 . S
C2210 C2209 1.349 . S
C2210 C2222 1.349 . S
C2211 C2209 1.327 . S
C2211 C2227 1.429 . S
C2211 H2233 0.950 1_455 S
C2212 H2208 0.949 . S
C2212 C2220 1.574 . S
C2212 C2228 1.368 . S
H2213 C2221 0.950 . S
H2214 C2219 0.950 . S
H2215 C2220 0.949 . S
H2216 C2222 0.950 . S
H2217 C2223 0.950 . S
H2218 C2224 0.949 1_655 S
C2219 H2214 0.950 . S
C2219 C2221 1.327 . S
C2219 C2225 1.429 1_655 S
C2220 C2212 1.574 . S
C2220 H2215 0.949 . S
C2220 C2226 1.368 . S
C2221 C2205 1.349 1_655 S
C2221 H2213 0.950 . S
C2221 C2219 1.327 . S
C2222 C2210 1.349 . S
C2222 H2216 0.950 . S
C2222 C2223 1.327 . S
C2223 H2217 0.950 . S
C2223 C2222 1.327 . S
C2223 C2227 1.429 . S
C2224 C2207 1.574 1_455 S
C2224 H2218 0.949 1_455 S
C2224 C2228 1.368 . S
C2225 C2206 1.429 . S
C2225 C2219 1.429 1_455 S
C2225 C2226 1.523 . S
C2226 C2207 1.368 1_455 S
C2226 C2220 1.368 . S
C2226 C2225 1.523 . S
C2227 C2211 1.429 . S
C2227 C2223 1.429 . S
C2227 C2228 1.523 . S
C2228 C2212 1.368 . S
C2228 C2224 1.368 . S
C2228 C2227 1.523 . S
H2229 C2204 0.950 . S
H2230 C2206 0.950 . S
H2231 C2207 0.949 . S
H2232 C2209 0.949 . S
H2233 C2211 0.950 1_655 S
C2234 C2235 1.349 . S
C2234 C2236 1.327 . S
C2234 H2259 0.950 . S
C2235 C2234 1.349 . S
C2235 C2251 1.349 . S
C2236 C2234 1.327 . S
C2236 C2255 1.429 . S
C2236 H2260 0.950 . S
C2237 C2254 1.574 . S
C2237 C2256 1.368 . S
C2237 H2261 0.949 . S
H2238 C2242 0.949 . S
C2239 C2240 1.349 . S
C2239 C2241 1.327 . S
C2239 H2262 0.950 . S
C2240 C2239 1.349 . S
C2240 C2252 1.349 . S
C2241 C2239 1.327 . S
C2241 C2257 1.429 . S
C2241 H2263 0.950 . S
C2242 H2238 0.949 . S
C2242 C2250 1.574 . S
C2242 C2258 1.368 . S
H2243 C2251 0.950 . S
H2244 C2249 0.950 . S
H2245 C2250 0.949 . S
H2246 C2252 0.950 . S
H2247 C2253 0.950 . S
H2248 C2254 0.949 . S
C2249 H2244 0.950 . S
C2249 C2251 1.327 . S
C2249 C2255 1.429 . S
C2250 C2242 1.574 . S
C2250 H2245 0.949 . S
C2250 C2256 1.368 . S
C2251 C2235 1.349 . S
C2251 H2243 0.950 . S
C2251 C2249 1.327 . S
C2252 C2240 1.349 . S
C2252 H2246 0.950 . S
C2252 C2253 1.327 . S
C2253 H2247 0.950 . S
C2253 C2252 1.327 . S
C2253 C2257 1.429 . S
C2254 C2237 1.574 . S
C2254 H2248 0.949 . S
C2254 C2258 1.368 . S
C2255 C2236 1.429 . S
C2255 C2249 1.429 . S
C2255 C2256 1.523 . S
C2256 C2237 1.368 . S
C2256 C2250 1.368 . S
C2256 C2255 1.523 . S
C2257 C2241 1.429 . S
C2257 C2253 1.429 . S
C2257 C2258 1.523 . S
C2258 C2242 1.368 . S
C2258 C2254 1.368 . S
C2258 C2257 1.523 . S
H2259 C2234 0.950 . S
H2260 C2236 0.950 . S
H2261 C2237 0.949 . S
H2262 C2239 0.950 . S
H2263 C2241 0.950 . S
C2264 C2265 1.349 . S
C2264 C2266 1.327 . S
C2264 H2289 0.950 . S
C2265 C2264 1.349 . S
C2265 C2281 1.349 . S
C2266 C2264 1.327 . S
C2266 C2285 1.429 . S
C2266 H2290 0.950 . S
C2267 C2284 1.574 . S
C2267 C2286 1.368 . S
C2267 H2291 0.949 . S
H2268 C2272 0.949 . S
C2269 C2270 1.349 . S
C2269 C2271 1.327 1_554 S
C2269 H2292 0.950 . S
C2270 C2269 1.349 . S
C2270 C2282 1.349 1_554 S
C2271 C2269 1.327 1_556 S
C2271 C2287 1.429 . S
C2271 H2293 0.950 1_556 S
C2272 H2268 0.949 . S
C2272 C2280 1.574 . S
C2272 C2288 1.368 . S
H2273 C2281 0.950 . S
H2274 C2279 0.950 . S
H2275 C2280 0.949 . S
H2276 C2282 0.950 . S
H2277 C2283 0.950 . S
H2278 C2284 0.949 . S
C2279 H2274 0.950 . S
C2279 C2281 1.327 . S
C2279 C2285 1.429 . S
C2280 C2272 1.574 . S
C2280 H2275 0.949 . S
C2280 C2286 1.368 . S
C2281 C2265 1.349 . S
C2281 H2273 0.950 . S
C2281 C2279 1.327 . S
C2282 C2270 1.349 1_556 S
C2282 H2276 0.950 . S
C2282 C2283 1.327 . S
C2283 H2277 0.950 . S
C2283 C2282 1.327 . S
C2283 C2287 1.429 . S
C2284 C2267 1.574 . S
C2284 H2278 0.949 . S
C2284 C2288 1.368 . S
C2285 C2266 1.429 . S
C2285 C2279 1.429 . S
C2285 C2286 1.523 . S
C2286 C2267 1.368 . S
C2286 C2280 1.368 . S
C2286 C2285 1.523 . S
C2287 C2271 1.429 . S
C2287 C2283 1.429 . S
C2287 C2288 1.523 . S
C2288 C2272 1.368 . S
C2288 C2284 1.368 . S
C2288 C2287 1.523 . S
H2289 C2264 0.950 . S
H2290 C2266 0.950 . S
H2291 C2267 0.949 . S
H2292 C2269 0.950 . S
H2293 C2271 0.950 1_554 S
C2294 C2295 1.349 . S
C2294 C2296 1.327 . S
C2294 H2319 0.950 . S
C2295 C2294 1.349 . S
C2295 C2311 1.349 . S
C2296 C2294 1.327 . S
C2296 C2315 1.429 . S
C2296 H2320 0.950 . S
C2297 C2314 1.574 . S
C2297 C2316 1.368 . S
C2297 H2321 0.949 . S
H2298 C2302 0.949 . S
C2299 C2300 1.349 . S
C2299 C2301 1.327 . S
C2299 H2322 0.950 . S
C2300 C2299 1.349 . S
C2300 C2312 1.349 . S
C2301 C2299 1.327 . S
C2301 C2317 1.429 . S
C2301 H2323 0.950 . S
C2302 H2298 0.949 . S
C2302 C2310 1.574 . S
C2302 C2318 1.368 . S
H2303 C2311 0.950 . S
H2304 C2309 0.950 . S
H2305 C2310 0.949 . S
H2306 C2312 0.950 . S
H2307 C2313 0.950 . S
H2308 C2314 0.949 . S
C2309 H2304 0.950 . S
C2309 C2311 1.327 . S
C2309 C2315 1.429 . S
C2310 C2302 1.574 . S
C2310 H2305 0.949 . S
C2310 C2316 1.368 . S
C2311 C2295 1.349 . S
C2311 H2303 0.950 . S
C2311 C2309 1.327 . S
C2312 C2300 1.349 . S
C2312 H2306 0.950 . S
C2312 C2313 1.327 . S
C2313 H2307 0.950 . S
C2313 C2312 1.327 . S
C2313 C2317 1.429 . S
C2314 C2297 1.574 . S
C2314 H2308 0.949 . S
C2314 C2318 1.368 . S
C2315 C2296 1.429 . S
C2315 C2309 1.429 . S
C2315 C2316 1.523 . S
C2316 C2297 1.368 . S
C2316 C2310 1.368 . S
C2316 C2315 1.523 . S
C2317 C2301 1.429 . S
C2317 C2313 1.429 . S
C2317 C2318 1.523 . S
C2318 C2302 1.368 . S
C2318 C2314 1.368 . S
C2318 C2317 1.523 . S
H2319 C2294 0.950 . S
H2320 C2296 0.950 . S
H2321 C2297 0.949 . S
H2322 C2299 0.950 . S
H2323 C2301 0.950 . S
C2324 C2325 1.349 . S
C2324 C2326 1.327 . S
C2324 H2349 0.950 . S
C2325 C2324 1.349 . S
C2325 C2341 1.349 . S
C2326 C2324 1.327 . S
C2326 C2345 1.429 . S
C2326 H2350 0.950 . S
C2327 C2344 1.574 . S
C2327 C2346 1.368 . S
C2327 H2351 0.949 . S
H2328 C2332 0.949 . S
C2329 C2330 1.349 . S
C2329 C2331 1.327 . S
C2329 H2352 0.950 . S
C2330 C2329 1.349 . S
C2330 C2342 1.349 . S
C2331 C2329 1.327 . S
C2331 C2347 1.429 . S
C2331 H2353 0.950 . S
C2332 H2328 0.949 . S
C2332 C2340 1.574 . S
C2332 C2348 1.368 . S
H2333 C2341 0.950 . S
H2334 C2339 0.950 . S
H2335 C2340 0.949 . S
H2336 C2342 0.950 . S
H2337 C2343 0.950 . S
H2338 C2344 0.949 . S
C2339 H2334 0.950 . S
C2339 C2341 1.327 . S
C2339 C2345 1.429 . S
C2340 C2332 1.574 . S
C2340 H2335 0.949 . S
C2340 C2346 1.368 . S
C2341 C2325 1.349 . S
C2341 H2333 0.950 . S
C2341 C2339 1.327 . S
C2342 C2330 1.349 . S
C2342 H2336 0.950 . S
C2342 C2343 1.327 . S
C2343 H2337 0.950 . S
C2343 C2342 1.327 . S
C2343 C2347 1.429 . S
C2344 C2327 1.574 . S
C2344 H2338 0.949 . S
C2344 C2348 1.368 . S
C2345 C2326 1.429 . S
C2345 C2339 1.429 . S
C2345 C2346 1.523 . S
C2346 C2327 1.368 . S
C2346 C2340 1.368 . S
C2346 C2345 1.523 . S
C2347 C2331 1.429 . S
C2347 C2343 1.429 . S
C2347 C2348 1.523 . S
C2348 C2332 1.368 . S
C2348 C2344 1.368 . S
C2348 C2347 1.523 . S
H2349 C2324 0.950 . S
H2350 C2326 0.950 . S
H2351 C2327 0.949 . S
H2352 C2329 0.950 . S
H2353 C2331 0.950 . S
C2354 C2355 1.349 . S
C2354 C2356 1.327 . S
C2354 H2379 0.950 . S
C2355 C2354 1.349 . S
C2355 C2371 1.349 . S
C2356 C2354 1.327 . S
C2356 C2375 1.429 . S
C2356 H2380 0.950 . S
C2357 C2374 1.574 . S
C2357 C2376 1.368 . S
C2357 H2381 0.949 . S
H2358 C2362 0.949 . S
C2359 C2360 1.349 . S
C2359 C2361 1.327 . S
C2359 H2382 0.950 . S
C2360 C2359 1.349 . S
C2360 C2372 1.349 . S
C2361 C2359 1.327 . S
C2361 C2377 1.429 . S
C2361 H2383 0.950 . S
C2362 H2358 0.949 . S
C2362 C2370 1.574 . S
C2362 C2378 1.368 . S
H2363 C2371 0.950 . S
H2364 C2369 0.950 . S
H2365 C2370 0.949 . S
H2366 C2372 0.950 . S
H2367 C2373 0.950 . S
H2368 C2374 0.949 . S
C2369 H2364 0.950 . S
C2369 C2371 1.327 . S
C2369 C2375 1.429 . S
C2370 C2362 1.574 . S
C2370 H2365 0.949 . S
C2370 C2376 1.368 . S
C2371 C2355 1.349 . S
C2371 H2363 0.950 . S
C2371 C2369 1.327 . S
C2372 C2360 1.349 . S
C2372 H2366 0.950 . S
C2372 C2373 1.327 . S
C2373 H2367 0.950 . S
C2373 C2372 1.327 . S
C2373 C2377 1.429 . S
C2374 C2357 1.574 . S
C2374 H2368 0.949 . S
C2374 C2378 1.368 . S
C2375 C2356 1.429 . S
C2375 C2369 1.429 . S
C2375 C2376 1.523 . S
C2376 C2357 1.368 . S
C2376 C2370 1.368 . S
C2376 C2375 1.523 . S
C2377 C2361 1.429 . S
C2377 C2373 1.429 . S
C2377 C2378 1.523 . S
C2378 C2362 1.368 . S
C2378 C2374 1.368 . S
C2378 C2377 1.523 . S
H2379 C2354 0.950 . S
H2380 C2356 0.950 . S
H2381 C2357 0.949 . S
H2382 C2359 0.950 . S
H2383 C2361 0.950 . S
C2384 C2385 1.349 . S
C2384 C2386 1.327 . S
C2384 H2409 0.950 . S
C2385 C2384 1.349 . S
C2385 C2401 1.349 . S
C2386 C2384 1.327 . S
C2386 C2405 1.429 . S
C2386 H2410 0.950 . S
C2387 C2404 1.574 . S
C2387 C2406 1.368 . S
C2387 H2411 0.949 . S
H2388 C2392 0.949 . S
C2389 C2390 1.349 . S
C2389 C2391 1.327 . S
C2389 H2412 0.950 . S
C2390 C2389 1.349 . S
C2390 C2402 1.349 . S
C2391 C2389 1.327 . S
C2391 C2407 1.429 . S
C2391 H2413 0.950 . S
C2392 H2388 0.949 . S
C2392 C2400 1.574 . S
C2392 C2408 1.368 . S
H2393 C2401 0.950 . S
H2394 C2399 0.950 . S
H2395 C2400 0.949 . S
H2396 C2402 0.950 . S
H2397 C2403 0.950 . S
H2398 C2404 0.949 . S
C2399 H2394 0.950 . S
C2399 C2401 1.327 . S
C2399 C2405 1.429 . S
C2400 C2392 1.574 . S
C2400 H2395 0.949 . S
C2400 C2406 1.368 . S
C2401 C2385 1.349 . S
C2401 H2393 0.950 . S
C2401 C2399 1.327 . S
C2402 C2390 1.349 . S
C2402 H2396 0.950 . S
C2402 C2403 1.327 . S
C2403 H2397 0.950 . S
C2403 C2402 1.327 . S
C2403 C2407 1.429 . S
C2404 C2387 1.574 . S
C2404 H2398 0.949 . S
C2404 C2408 1.368 . S
C2405 C2386 1.429 . S
C2405 C2399 1.429 . S
C2405 C2406 1.523 . S
C2406 C2387 1.368 . S
C2406 C2400 1.368 . S
C2406 C2405 1.523 . S
C2407 C2391 1.429 . S
C2407 C2403 1.429 . S
C2407 C2408 1.523 . S
C2408 C2392 1.368 . S
C2408 C2404 1.368 . S
C2408 C2407 1.523 . S
H2409 C2384 0.950 . S
H2410 C2386 0.950 . S
H2411 C2387 0.949 . S
H2412 C2389 0.950 . S
H2413 C2391 0.950 . S
C2414 C2415 1.349 . S
C2414 C2416 1.327 . S
C2414 H2439 0.950 . S
C2415 C2414 1.349 . S
C2415 C2431 1.349 . S
C2416 C2414 1.327 . S
C2416 C2435 1.429 . S
C2416 H2440 0.950 . S
C2417 C2434 1.574 . S
C2417 C2436 1.368 . S
C2417 H2441 0.949 . S
H2418 C2422 0.949 . S
C2419 C2420 1.349 . S
C2419 C2421 1.327 . S
C2419 H2442 0.950 . S
C2420 C2419 1.349 . S
C2420 C2432 1.349 . S
C2421 C2419 1.327 . S
C2421 C2437 1.429 . S
C2421 H2443 0.950 . S
C2422 H2418 0.949 . S
C2422 C2430 1.574 . S
C2422 C2438 1.368 . S
H2423 C2431 0.950 . S
H2424 C2429 0.950 . S
H2425 C2430 0.949 . S
H2426 C2432 0.950 . S
H2427 C2433 0.950 . S
H2428 C2434 0.949 . S
C2429 H2424 0.950 . S
C2429 C2431 1.327 . S
C2429 C2435 1.429 . S
C2430 C2422 1.574 . S
C2430 H2425 0.949 . S
C2430 C2436 1.368 . S
C2431 C2415 1.349 . S
C2431 H2423 0.950 . S
C2431 C2429 1.327 . S
C2432 C2420 1.349 . S
C2432 H2426 0.950 . S
C2432 C2433 1.327 . S
C2433 H2427 0.950 . S
C2433 C2432 1.327 . S
C2433 C2437 1.429 . S
C2434 C2417 1.574 . S
C2434 H2428 0.949 . S
C2434 C2438 1.368 . S
C2435 C2416 1.429 . S
C2435 C2429 1.429 . S
C2435 C2436 1.523 . S
C2436 C2417 1.368 . S
C2436 C2430 1.368 . S
C2436 C2435 1.523 . S
C2437 C2421 1.429 . S
C2437 C2433 1.429 . S
C2437 C2438 1.523 . S
C2438 C2422 1.368 . S
C2438 C2434 1.368 . S
C2438 C2437 1.523 . S
H2439 C2414 0.950 . S
H2440 C2416 0.950 . S
H2441 C2417 0.949 . S
H2442 C2419 0.950 . S
H2443 C2421 0.950 . S
C2444 C2445 1.349 . S
C2444 C2446 1.327 . S
C2444 H2469 0.950 . S
C2445 C2444 1.349 . S
C2445 C2461 1.349 . S
C2446 C2444 1.327 . S
C2446 C2465 1.429 . S
C2446 H2470 0.950 . S
C2447 C2464 1.574 . S
C2447 C2466 1.368 . S
C2447 H2471 0.949 . S
H2448 C2452 0.949 . S
C2449 C2450 1.349 . S
C2449 C2451 1.327 . S
C2449 H2472 0.950 . S
C2450 C2449 1.349 . S
C2450 C2462 1.349 . S
C2451 C2449 1.327 . S
C2451 C2467 1.429 . S
C2451 H2473 0.950 . S
C2452 H2448 0.949 . S
C2452 C2460 1.574 . S
C2452 C2468 1.368 . S
H2453 C2461 0.950 . S
H2454 C2459 0.950 . S
H2455 C2460 0.949 . S
H2456 C2462 0.950 . S
H2457 C2463 0.950 . S
H2458 C2464 0.949 . S
C2459 H2454 0.950 . S
C2459 C2461 1.327 . S
C2459 C2465 1.429 . S
C2460 C2452 1.574 . S
C2460 H2455 0.949 . S
C2460 C2466 1.368 . S
C2461 C2445 1.349 . S
C2461 H2453 0.950 . S
C2461 C2459 1.327 . S
C2462 C2450 1.349 . S
C2462 H2456 0.950 . S
C2462 C2463 1.327 . S
C2463 H2457 0.950 . S
C2463 C2462 1.327 . S
C2463 C2467 1.429 . S
C2464 C2447 1.574 . S
C2464 H2458 0.949 . S
C2464 C2468 1.368 . S
C2465 C2446 1.429 . S
C2465 C2459 1.429 . S
C2465 C2466 1.523 . S
C2466 C2447 1.368 . S
C2466 C2460 1.368 . S
C2466 C2465 1.523 . S
C2467 C2451 1.429 . S
C2467 C2463 1.429 . S
C2467 C2468 1.523 . S
C2468 C2452 1.368 . S
C2468 C2464 1.368 . S
C2468 C2467 1.523 . S
H2469 C2444 0.950 . S
H2470 C2446 0.950 . S
H2471 C2447 0.949 . S
H2472 C2449 0.950 . S
H2473 C2451 0.950 . S
C2474 C2475 1.349 . S
C2474 C2476 1.327 . S
C2474 H2499 0.950 . S
C2475 C2474 1.349 . S
C2475 C2491 1.349 . S
C2476 C2474 1.327 . S
C2476 C2495 1.429 . S
C2476 H2500 0.950 . S
C2477 C2494 1.574 . S
C2477 C2496 1.368 . S
C2477 H2501 0.949 . S
H2478 C2482 0.949 . S
C2479 C2480 1.349 . S
C2479 C2481 1.327 . S
C2479 H2502 0.950 . S
C2480 C2479 1.349 . S
C2480 C2492 1.349 . S
C2481 C2479 1.327 . S
C2481 C2497 1.429 . S
C2481 H2503 0.950 . S
C2482 H2478 0.949 . S
C2482 C2490 1.574 . S
C2482 C2498 1.368 . S
H2483 C2491 0.950 . S
H2484 C2489 0.950 . S
H2485 C2490 0.949 . S
H2486 C2492 0.950 . S
H2487 C2493 0.950 . S
H2488 C2494 0.949 . S
C2489 H2484 0.950 . S
C2489 C2491 1.327 . S
C2489 C2495 1.429 . S
C2490 C2482 1.574 . S
C2490 H2485 0.949 . S
C2490 C2496 1.368 . S
C2491 C2475 1.349 . S
C2491 H2483 0.950 . S
C2491 C2489 1.327 . S
C2492 C2480 1.349 . S
C2492 H2486 0.950 . S
C2492 C2493 1.327 . S
C2493 H2487 0.950 . S
C2493 C2492 1.327 . S
C2493 C2497 1.429 . S
C2494 C2477 1.574 . S
C2494 H2488 0.949 . S
C2494 C2498 1.368 . S
C2495 C2476 1.429 . S
C2495 C2489 1.429 . S
C2495 C2496 1.523 . S
C2496 C2477 1.368 . S
C2496 C2490 1.368 . S
C2496 C2495 1.523 . S
C2497 C2481 1.429 . S
C2497 C2493 1.429 . S
C2497 C2498 1.523 . S
C2498 C2482 1.368 . S
C2498 C2494 1.368 . S
C2498 C2497 1.523 . S
H2499 C2474 0.950 . S
H2500 C2476 0.950 . S
H2501 C2477 0.949 . S
H2502 C2479 0.950 . S
H2503 C2481 0.950 . S
C2504 C2505 1.349 . S
C2504 C2506 1.327 . S
C2504 H2529 0.950 . S
C2505 C2504 1.349 . S
C2505 C2521 1.349 . S
C2506 C2504 1.327 . S
C2506 C2525 1.429 . S
C2506 H2530 0.950 . S
C2507 C2524 1.574 . S
C2507 C2526 1.368 . S
C2507 H2531 0.949 . S
H2508 C2512 0.949 . S
C2509 C2510 1.349 . S
C2509 C2511 1.327 . S
C2509 H2532 0.950 . S
C2510 C2509 1.349 . S
C2510 C2522 1.349 . S
C2511 C2509 1.327 . S
C2511 C2527 1.429 . S
C2511 H2533 0.950 . S
C2512 H2508 0.949 . S
C2512 C2520 1.574 . S
C2512 C2528 1.368 . S
H2513 C2521 0.950 . S
H2514 C2519 0.950 . S
H2515 C2520 0.949 . S
H2516 C2522 0.950 . S
H2517 C2523 0.950 . S
H2518 C2524 0.949 . S
C2519 H2514 0.950 . S
C2519 C2521 1.327 . S
C2519 C2525 1.429 . S
C2520 C2512 1.574 . S
C2520 H2515 0.949 . S
C2520 C2526 1.368 . S
C2521 C2505 1.349 . S
C2521 H2513 0.950 . S
C2521 C2519 1.327 . S
C2522 C2510 1.349 . S
C2522 H2516 0.950 . S
C2522 C2523 1.327 . S
C2523 H2517 0.950 . S
C2523 C2522 1.327 . S
C2523 C2527 1.429 . S
C2524 C2507 1.574 . S
C2524 H2518 0.949 . S
C2524 C2528 1.368 . S
C2525 C2506 1.429 . S
C2525 C2519 1.429 . S
C2525 C2526 1.523 . S
C2526 C2507 1.368 . S
C2526 C2520 1.368 . S
C2526 C2525 1.523 . S
C2527 C2511 1.429 . S
C2527 C2523 1.429 . S
C2527 C2528 1.523 . S
C2528 C2512 1.368 . S
C2528 C2524 1.368 . S
C2528 C2527 1.523 . S
H2529 C2504 0.950 . S
H2530 C2506 0.950 . S
H2531 C2507 0.949 . S
H2532 C2509 0.950 . S
H2533 C2511 0.950 . S
C2534 C2535 1.349 . S
C2534 C2536 1.327 . S
C2534 H2559 0.950 . S
C2535 C2534 1.349 . S
C2535 C2551 1.349 . S
C2536 C2534 1.327 . S
C2536 C2555 1.429 . S
C2536 H2560 0.950 . S
C2537 C2554 1.574 . S
C2537 C2556 1.368 . S
C2537 H2561 0.949 . S
H2538 C2542 0.949 . S
C2539 C2540 1.349 . S
C2539 C2541 1.327 . S
C2539 H2562 0.950 . S
C2540 C2539 1.349 . S
C2540 C2552 1.349 . S
C2541 C2539 1.327 . S
C2541 C2557 1.429 . S
C2541 H2563 0.950 . S
C2542 H2538 0.949 . S
C2542 C2550 1.574 . S
C2542 C2558 1.368 . S
H2543 C2551 0.950 . S
H2544 C2549 0.950 . S
H2545 C2550 0.949 . S
H2546 C2552 0.950 . S
H2547 C2553 0.950 . S
H2548 C2554 0.949 . S
C2549 H2544 0.950 . S
C2549 C2551 1.327 . S
C2549 C2555 1.429 . S
C2550 C2542 1.574 . S
C2550 H2545 0.949 . S
C2550 C2556 1.368 . S
C2551 C2535 1.349 . S
C2551 H2543 0.950 . S
C2551 C2549 1.327 . S
C2552 C2540 1.349 . S
C2552 H2546 0.950 . S
C2552 C2553 1.327 . S
C2553 H2547 0.950 . S
C2553 C2552 1.327 . S
C2553 C2557 1.429 . S
C2554 C2537 1.574 . S
C2554 H2548 0.949 . S
C2554 C2558 1.368 . S
C2555 C2536 1.429 . S
C2555 C2549 1.429 . S
C2555 C2556 1.523 . S
C2556 C2537 1.368 . S
C2556 C2550 1.368 . S
C2556 C2555 1.523 . S
C2557 C2541 1.429 . S
C2557 C2553 1.429 . S
C2557 C2558 1.523 . S
C2558 C2542 1.368 . S
C2558 C2554 1.368 . S
C2558 C2557 1.523 . S
H2559 C2534 0.950 . S
H2560 C2536 0.950 . S
H2561 C2537 0.949 . S
H2562 C2539 0.950 . S
H2563 C2541 0.950 . S
C2564 C2565 1.349 . S
C2564 C2566 1.327 . S
C2564 H2589 0.950 . S
C2565 C2564 1.349 . S
C2565 C2581 1.349 . S
C2566 C2564 1.327 . S
C2566 C2585 1.429 . S
C2566 H2590 0.950 . S
C2567 C2584 1.574 . S
C2567 C2586 1.368 . S
C2567 H2591 0.949 . S
H2568 C2572 0.949 . S
C2569 C2570 1.349 . S
C2569 C2571 1.327 . S
C2569 H2592 0.950 . S
C2570 C2569 1.349 . S
C2570 C2582 1.349 . S
C2571 C2569 1.327 . S
C2571 C2587 1.429 . S
C2571 H2593 0.950 . S
C2572 H2568 0.949 . S
C2572 C2580 1.574 . S
C2572 C2588 1.368 . S
H2573 C2581 0.950 . S
H2574 C2579 0.950 . S
H2575 C2580 0.949 . S
H2576 C2582 0.950 . S
H2577 C2583 0.950 . S
H2578 C2584 0.949 . S
C2579 H2574 0.950 . S
C2579 C2581 1.327 . S
C2579 C2585 1.429 . S
C2580 C2572 1.574 . S
C2580 H2575 0.949 . S
C2580 C2586 1.368 . S
C2581 C2565 1.349 . S
C2581 H2573 0.950 . S
C2581 C2579 1.327 . S
C2582 C2570 1.349 . S
C2582 H2576 0.950 . S
C2582 C2583 1.327 . S
C2583 H2577 0.950 . S
C2583 C2582 1.327 . S
C2583 C2587 1.429 . S
C2584 C2567 1.574 . S
C2584 H2578 0.949 . S
C2584 C2588 1.368 . S
C2585 C2566 1.429 . S
C2585 C2579 1.429 . S
C2585 C2586 1.523 . S
C2586 C2567 1.368 . S
C2586 C2580 1.368 . S
C2586 C2585 1.523 . S
C2587 C2571 1.429 . S
C2587 C2583 1.429 . S
C2587 C2588 1.523 . S
C2588 C2572 1.368 . S
C2588 C2584 1.368 . S
C2588 C2587 1.523 . S
H2589 C2564 0.950 . S
H2590 C2566 0.950 . S
H2591 C2567 0.949 . S
H2592 C2569 0.950 . S
H2593 C2571 0.950 . S
C2594 C2595 1.349 . S
C2594 C2596 1.327 . S
C2594 H2619 0.950 . S
C2595 C2594 1.349 . S
C2595 C2611 1.349 . S
C2596 C2594 1.327 . S
C2596 C2615 1.429 . S
C2596 H2620 0.950 . S
C2597 C2614 1.574 . S
C2597 C2616 1.368 . S
C2597 H2621 0.949 . S
H2598 C2602 0.949 . S
C2599 C2600 1.349 . S
C2599 C2601 1.327 . S
C2599 H2622 0.950 . S
C2600 C2599 1.349 . S
C2600 C2612 1.349 . S
C2601 C2599 1.327 . S
C2601 C2617 1.429 . S
C2601 H2623 0.950 . S
C2602 H2598 0.949 . S
C2602 C2610 1.574 . S
C2602 C2618 1.368 . S
H2603 C2611 0.950 . S
H2604 C2609 0.950 . S
H2605 C2610 0.949 . S
H2606 C2612 0.950 . S
H2607 C2613 0.950 . S
H2608 C2614 0.949 . S
C2609 H2604 0.950 . S
C2609 C2611 1.327 . S
C2609 C2615 1.429 . S
C2610 C2602 1.574 . S
C2610 H2605 0.949 . S
C2610 C2616 1.368 . S
C2611 C2595 1.349 . S
C2611 H2603 0.950 . S
C2611 C2609 1.327 . S
C2612 C2600 1.349 . S
C2612 H2606 0.950 . S
C2612 C2613 1.327 . S
C2613 H2607 0.950 . S
C2613 C2612 1.327 . S
C2613 C2617 1.429 . S
C2614 C2597 1.574 . S
C2614 H2608 0.949 . S
C2614 C2618 1.368 . S
C2615 C2596 1.429 . S
C2615 C2609 1.429 . S
C2615 C2616 1.523 . S
C2616 C2597 1.368 . S
C2616 C2610 1.368 . S
C2616 C2615 1.523 . S
C2617 C2601 1.429 . S
C2617 C2613 1.429 . S
C2617 C2618 1.523 . S
C2618 C2602 1.368 . S
C2618 C2614 1.368 . S
C2618 C2617 1.523 . S
H2619 C2594 0.950 . S
H2620 C2596 0.950 . S
H2621 C2597 0.949 . S
H2622 C2599 0.950 . S
H2623 C2601 0.950 . S
C2624 C2625 1.349 . S
C2624 C2626 1.327 . S
C2624 H2649 0.950 . S
C2625 C2624 1.349 . S
C2625 C2641 1.349 . S
C2626 C2624 1.327 . S
C2626 C2645 1.429 . S
C2626 H2650 0.950 . S
C2627 C2644 1.574 . S
C2627 C2646 1.368 . S
C2627 H2651 0.949 . S
H2628 C2632 0.949 . S
C2629 C2630 1.349 . S
C2629 C2631 1.327 . S
C2629 H2652 0.950 . S
C2630 C2629 1.349 . S
C2630 C2642 1.349 . S
C2631 C2629 1.327 . S
C2631 C2647 1.429 . S
C2631 H2653 0.950 . S
C2632 H2628 0.949 . S
C2632 C2640 1.574 . S
C2632 C2648 1.368 . S
H2633 C2641 0.950 . S
H2634 C2639 0.950 . S
H2635 C2640 0.949 . S
H2636 C2642 0.950 . S
H2637 C2643 0.950 . S
H2638 C2644 0.949 . S
C2639 H2634 0.950 . S
C2639 C2641 1.327 . S
C2639 C2645 1.429 . S
C2640 C2632 1.574 . S
C2640 H2635 0.949 . S
C2640 C2646 1.368 . S
C2641 C2625 1.349 . S
C2641 H2633 0.950 . S
C2641 C2639 1.327 . S
C2642 C2630 1.349 . S
C2642 H2636 0.950 . S
C2642 C2643 1.327 . S
C2643 H2637 0.950 . S
C2643 C2642 1.327 . S
C2643 C2647 1.429 . S
C2644 C2627 1.574 . S
C2644 H2638 0.949 . S
C2644 C2648 1.368 . S
C2645 C2626 1.429 . S
C2645 C2639 1.429 . S
C2645 C2646 1.523 . S
C2646 C2627 1.368 . S
C2646 C2640 1.368 . S
C2646 C2645 1.523 . S
C2647 C2631 1.429 . S
C2647 C2643 1.429 . S
C2647 C2648 1.523 . S
C2648 C2632 1.368 . S
C2648 C2644 1.368 . S
C2648 C2647 1.523 . S
H2649 C2624 0.950 . S
H2650 C2626 0.950 . S
H2651 C2627 0.949 . S
H2652 C2629 0.950 . S
H2653 C2631 0.950 . S
C2654 C2655 1.349 . S
C2654 C2656 1.327 . S
C2654 H2679 0.950 . S
C2655 C2654 1.349 . S
C2655 C2671 1.349 . S
C2656 C2654 1.327 . S
C2656 C2675 1.429 . S
C2656 H2680 0.950 . S
C2657 C2674 1.574 . S
C2657 C2676 1.368 . S
C2657 H2681 0.949 . S
H2658 C2662 0.949 . S
C2659 C2660 1.349 . S
C2659 C2661 1.327 . S
C2659 H2682 0.950 . S
C2660 C2659 1.349 . S
C2660 C2672 1.349 . S
C2661 C2659 1.327 . S
C2661 C2677 1.429 . S
C2661 H2683 0.950 . S
C2662 H2658 0.949 . S
C2662 C2670 1.574 . S
C2662 C2678 1.368 . S
H2663 C2671 0.950 . S
H2664 C2669 0.950 . S
H2665 C2670 0.949 . S
H2666 C2672 0.950 . S
H2667 C2673 0.950 . S
H2668 C2674 0.949 . S
C2669 H2664 0.950 . S
C2669 C2671 1.327 . S
C2669 C2675 1.429 . S
C2670 C2662 1.574 . S
C2670 H2665 0.949 . S
C2670 C2676 1.368 . S
C2671 C2655 1.349 . S
C2671 H2663 0.950 . S
C2671 C2669 1.327 . S
C2672 C2660 1.349 . S
C2672 H2666 0.950 . S
C2672 C2673 1.327 . S
C2673 H2667 0.950 . S
C2673 C2672 1.327 . S
C2673 C2677 1.429 . S
C2674 C2657 1.574 . S
C2674 H2668 0.949 . S
C2674 C2678 1.368 . S
C2675 C2656 1.429 . S
C2675 C2669 1.429 . S
C2675 C2676 1.523 . S
C2676 C2657 1.368 . S
C2676 C2670 1.368 . S
C2676 C2675 1.523 . S
C2677 C2661 1.429 . S
C2677 C2673 1.429 . S
C2677 C2678 1.523 . S
C2678 C2662 1.368 . S
C2678 C2674 1.368 . S
C2678 C2677 1.523 . S
H2679 C2654 0.950 . S
H2680 C2656 0.950 . S
H2681 C2657 0.949 . S
H2682 C2659 0.950 . S
H2683 C2661 0.950 . S
C2684 C2685 1.349 . S
C2684 C2686 1.327 . S
C2684 H2709 0.950 . S
C2685 C2684 1.349 . S
C2685 C2701 1.349 . S
C2686 C2684 1.327 . S
C2686 C2705 1.429 . S
C2686 H2710 0.950 . S
C2687 C2704 1.574 . S
C2687 C2706 1.368 . S
C2687 H2711 0.949 . S
H2688 C2692 0.949 . S
C2689 C2690 1.349 . S
C2689 C2691 1.327 . S
C2689 H2712 0.950 . S
C2690 C2689 1.349 . S
C2690 C2702 1.349 . S
C2691 C2689 1.327 . S
C2691 C2707 1.429 . S
C2691 H2713 0.950 . S
C2692 H2688 0.949 . S
C2692 C2700 1.574 . S
C2692 C2708 1.368 . S
H2693 C2701 0.950 . S
H2694 C2699 0.950 . S
H2695 C2700 0.949 . S
H2696 C2702 0.950 . S
H2697 C2703 0.950 . S
H2698 C2704 0.949 . S
C2699 H2694 0.950 . S
C2699 C2701 1.327 . S
C2699 C2705 1.429 . S
C2700 C2692 1.574 . S
C2700 H2695 0.949 . S
C2700 C2706 1.368 . S
C2701 C2685 1.349 . S
C2701 H2693 0.950 . S
C2701 C2699 1.327 . S
C2702 C2690 1.349 . S
C2702 H2696 0.950 . S
C2702 C2703 1.327 . S
C2703 H2697 0.950 . S
C2703 C2702 1.327 . S
C2703 C2707 1.429 . S
C2704 C2687 1.574 . S
C2704 H2698 0.949 . S
C2704 C2708 1.368 . S
C2705 C2686 1.429 . S
C2705 C2699 1.429 . S
C2705 C2706 1.523 . S
C2706 C2687 1.368 . S
C2706 C2700 1.368 . S
C2706 C2705 1.523 . S
C2707 C2691 1.429 . S
C2707 C2703 1.429 . S
C2707 C2708 1.523 . S
C2708 C2692 1.368 . S
C2708 C2704 1.368 . S
C2708 C2707 1.523 . S
H2709 C2684 0.950 . S
H2710 C2686 0.950 . S
H2711 C2687 0.949 . S
H2712 C2689 0.950 . S
H2713 C2691 0.950 . S
C2714 C2715 1.349 1_556 S
C2714 C2716 1.327 . S
C2714 H2739 0.950 . S
C2715 C2714 1.349 1_554 S
C2715 C2731 1.349 . S
C2716 C2714 1.327 . S
C2716 C2735 1.429 1_556 S
C2716 H2740 0.950 . S
C2717 C2734 1.574 . S
C2717 C2736 1.368 . S
C2717 H2741 0.949 . S
H2718 C2722 0.949 . S
C2719 C2720 1.349 . S
C2719 C2721 1.327 . S
C2719 H2742 0.950 . S
C2720 C2719 1.349 . S
C2720 C2732 1.349 . S
C2721 C2719 1.327 . S
C2721 C2737 1.429 . S
C2721 H2743 0.950 . S
C2722 H2718 0.949 . S
C2722 C2730 1.574 . S
C2722 C2738 1.368 1_556 S
H2723 C2731 0.950 . S
H2724 C2729 0.950 . S
H2725 C2730 0.949 . S
H2726 C2732 0.950 1_556 S
H2727 C2733 0.950 1_556 S
H2728 C2734 0.949 . S
C2729 H2724 0.950 . S
C2729 C2731 1.327 . S
C2729 C2735 1.429 . S
C2730 C2722 1.574 . S
C2730 H2725 0.949 . S
C2730 C2736 1.368 1_556 S
C2731 C2715 1.349 . S
C2731 H2723 0.950 . S
C2731 C2729 1.327 . S
C2732 C2720 1.349 . S
C2732 H2726 0.950 1_554 S
C2732 C2733 1.327 . S
C2733 H2727 0.950 1_554 S
C2733 C2732 1.327 . S
C2733 C2737 1.429 . S
C2734 C2717 1.574 . S
C2734 H2728 0.949 . S
C2734 C2738 1.368 . S
C2735 C2716 1.429 1_554 S
C2735 C2729 1.429 . S
C2735 C2736 1.523 . S
C2736 C2717 1.368 . S
C2736 C2730 1.368 1_554 S
C2736 C2735 1.523 . S
C2737 C2721 1.429 . S
C2737 C2733 1.429 . S
C2737 C2738 1.523 . S
C2738 C2722 1.368 1_554 S
C2738 C2734 1.368 . S
C2738 C2737 1.523 . S
H2739 C2714 0.950 . S
H2740 C2716 0.950 . S
H2741 C2717 0.949 . S
H2742 C2719 0.950 . S
H2743 C2721 0.950 . S
C2744 C2745 1.349 . S
C2744 C2746 1.327 . S
C2744 H2769 0.950 . S
C2745 C2744 1.349 . S
C2745 C2761 1.349 . S
C2746 C2744 1.327 . S
C2746 C2765 1.429 . S
C2746 H2770 0.950 . S
C2747 C2764 1.574 . S
C2747 C2766 1.368 . S
C2747 H2771 0.949 . S
H2748 C2752 0.949 . S
C2749 C2750 1.349 . S
C2749 C2751 1.327 . S
C2749 H2772 0.950 . S
C2750 C2749 1.349 . S
C2750 C2762 1.349 . S
C2751 C2749 1.327 . S
C2751 C2767 1.429 . S
C2751 H2773 0.950 . S
C2752 H2748 0.949 . S
C2752 C2760 1.574 . S
C2752 C2768 1.368 . S
H2753 C2761 0.950 . S
H2754 C2759 0.950 . S
H2755 C2760 0.949 . S
H2756 C2762 0.950 . S
H2757 C2763 0.950 . S
H2758 C2764 0.949 . S
C2759 H2754 0.950 . S
C2759 C2761 1.327 . S
C2759 C2765 1.429 . S
C2760 C2752 1.574 . S
C2760 H2755 0.949 . S
C2760 C2766 1.368 . S
C2761 C2745 1.349 . S
C2761 H2753 0.950 . S
C2761 C2759 1.327 . S
C2762 C2750 1.349 . S
C2762 H2756 0.950 . S
C2762 C2763 1.327 . S
C2763 H2757 0.950 . S
C2763 C2762 1.327 . S
C2763 C2767 1.429 . S
C2764 C2747 1.574 . S
C2764 H2758 0.949 . S
C2764 C2768 1.368 . S
C2765 C2746 1.429 . S
C2765 C2759 1.429 . S
C2765 C2766 1.523 . S
C2766 C2747 1.368 . S
C2766 C2760 1.368 . S
C2766 C2765 1.523 . S
C2767 C2751 1.429 . S
C2767 C2763 1.429 . S
C2767 C2768 1.523 . S
C2768 C2752 1.368 . S
C2768 C2764 1.368 . S
C2768 C2767 1.523 . S
H2769 C2744 0.950 . S
H2770 C2746 0.950 . S
H2771 C2747 0.949 . S
H2772 C2749 0.950 . S
H2773 C2751 0.950 . S
C2774 C2775 1.349 1_556 S
C2774 C2776 1.327 . S
C2774 H2799 0.950 . S
C2775 C2774 1.349 1_554 S
C2775 C2791 1.349 . S
C2776 C2774 1.327 . S
C2776 C2795 1.429 1_556 S
C2776 H2800 0.950 . S
C2777 C2794 1.574 . S
C2777 C2796 1.368 . S
C2777 H2801 0.949 . S
H2778 C2782 0.949 . S
C2779 C2780 1.349 . S
C2779 C2781 1.327 . S
C2779 H2802 0.950 . S
C2780 C2779 1.349 . S
C2780 C2792 1.349 1_554 S
C2781 C2779 1.327 . S
C2781 C2797 1.429 . S
C2781 H2803 0.950 . S
C2782 H2778 0.949 . S
C2782 C2790 1.574 . S
C2782 C2798 1.368 1_556 S
H2783 C2791 0.950 . S
H2784 C2789 0.950 . S
H2785 C2790 0.949 . S
H2786 C2792 0.950 . S
H2787 C2793 0.950 . S
H2788 C2794 0.949 . S
C2789 H2784 0.950 . S
C2789 C2791 1.327 . S
C2789 C2795 1.429 . S
C2790 C2782 1.574 . S
C2790 H2785 0.949 . S
C2790 C2796 1.368 1_556 S
C2791 C2775 1.349 . S
C2791 H2783 0.950 . S
C2791 C2789 1.327 . S
C2792 C2780 1.349 1_556 S
C2792 H2786 0.950 . S
C2792 C2793 1.327 . S
C2793 H2787 0.950 . S
C2793 C2792 1.327 . S
C2793 C2797 1.429 1_556 S
C2794 C2777 1.574 . S
C2794 H2788 0.949 . S
C2794 C2798 1.368 . S
C2795 C2776 1.429 1_554 S
C2795 C2789 1.429 . S
C2795 C2796 1.523 . S
C2796 C2777 1.368 . S
C2796 C2790 1.368 1_554 S
C2796 C2795 1.523 . S
C2797 C2781 1.429 . S
C2797 C2793 1.429 1_554 S
C2797 C2798 1.523 . S
C2798 C2782 1.368 1_554 S
C2798 C2794 1.368 . S
C2798 C2797 1.523 . S
H2799 C2774 0.950 . S
H2800 C2776 0.950 . S
H2801 C2777 0.949 . S
H2802 C2779 0.950 . S
H2803 C2781 0.950 . S
C2804 C2805 1.349 . S
C2804 C2806 1.327 . S
C2804 H2829 0.950 . S
C2805 C2804 1.349 . S
C2805 C2821 1.349 . S
C2806 C2804 1.327 . S
C2806 C2825 1.429 . S
C2806 H2830 0.950 . S
C2807 C2824 1.574 . S
C2807 C2826 1.368 . S
C2807 H2831 0.949 . S
H2808 C2812 0.949 . S
C2809 C2810 1.349 . S
C2809 C2811 1.327 . S
C2809 H2832 0.950 . S
C2810 C2809 1.349 . S
C2810 C2822 1.349 . S
C2811 C2809 1.327 . S
C2811 C2827 1.429 . S
C2811 H2833 0.950 . S
C2812 H2808 0.949 . S
C2812 C2820 1.574 . S
C2812 C2828 1.368 . S
H2813 C2821 0.950 . S
H2814 C2819 0.950 . S
H2815 C2820 0.949 . S
H2816 C2822 0.950 . S
H2817 C2823 0.950 . S
H2818 C2824 0.949 . S
C2819 H2814 0.950 . S
C2819 C2821 1.327 . S
C2819 C2825 1.429 . S
C2820 C2812 1.574 . S
C2820 H2815 0.949 . S
C2820 C2826 1.368 . S
C2821 C2805 1.349 . S
C2821 H2813 0.950 . S
C2821 C2819 1.327 . S
C2822 C2810 1.349 . S
C2822 H2816 0.950 . S
C2822 C2823 1.327 . S
C2823 H2817 0.950 . S
C2823 C2822 1.327 . S
C2823 C2827 1.429 . S
C2824 C2807 1.574 . S
C2824 H2818 0.949 . S
C2824 C2828 1.368 . S
C2825 C2806 1.429 . S
C2825 C2819 1.429 . S
C2825 C2826 1.523 . S
C2826 C2807 1.368 . S
C2826 C2820 1.368 . S
C2826 C2825 1.523 . S
C2827 C2811 1.429 . S
C2827 C2823 1.429 . S
C2827 C2828 1.523 . S
C2828 C2812 1.368 . S
C2828 C2824 1.368 . S
C2828 C2827 1.523 . S
H2829 C2804 0.950 . S
H2830 C2806 0.950 . S
H2831 C2807 0.949 . S
H2832 C2809 0.950 . S
H2833 C2811 0.950 . S
C2834 C2835 1.349 . S
C2834 C2836 1.327 . S
C2834 H2859 0.950 . S
C2835 C2834 1.349 . S
C2835 C2851 1.349 . S
C2836 C2834 1.327 . S
C2836 C2855 1.429 . S
C2836 H2860 0.950 . S
C2837 C2854 1.574 . S
C2837 C2856 1.368 . S
C2837 H2861 0.949 . S
H2838 C2842 0.949 . S
C2839 C2840 1.349 . S
C2839 C2841 1.327 . S
C2839 H2862 0.950 . S
C2840 C2839 1.349 . S
C2840 C2852 1.349 . S
C2841 C2839 1.327 . S
C2841 C2857 1.429 . S
C2841 H2863 0.950 . S
C2842 H2838 0.949 . S
C2842 C2850 1.574 . S
C2842 C2858 1.368 . S
H2843 C2851 0.950 . S
H2844 C2849 0.950 . S
H2845 C2850 0.949 . S
H2846 C2852 0.950 . S
H2847 C2853 0.950 . S
H2848 C2854 0.949 . S
C2849 H2844 0.950 . S
C2849 C2851 1.327 . S
C2849 C2855 1.429 . S
C2850 C2842 1.574 . S
C2850 H2845 0.949 . S
C2850 C2856 1.368 . S
C2851 C2835 1.349 . S
C2851 H2843 0.950 . S
C2851 C2849 1.327 . S
C2852 C2840 1.349 . S
C2852 H2846 0.950 . S
C2852 C2853 1.327 . S
C2853 H2847 0.950 . S
C2853 C2852 1.327 . S
C2853 C2857 1.429 . S
C2854 C2837 1.574 . S
C2854 H2848 0.949 . S
C2854 C2858 1.368 . S
C2855 C2836 1.429 . S
C2855 C2849 1.429 . S
C2855 C2856 1.523 . S
C2856 C2837 1.368 . S
C2856 C2850 1.368 . S
C2856 C2855 1.523 . S
C2857 C2841 1.429 . S
C2857 C2853 1.429 . S
C2857 C2858 1.523 . S
C2858 C2842 1.368 . S
C2858 C2854 1.368 . S
C2858 C2857 1.523 . S
H2859 C2834 0.950 . S
H2860 C2836 0.950 . S
H2861 C2837 0.949 . S
H2862 C2839 0.950 . S
H2863 C2841 0.950 . S
C2864 C2865 1.349 . S
C2864 C2866 1.327 . S
C2864 H2889 0.950 . S
C2865 C2864 1.349 . S
C2865 C2881 1.349 . S
C2866 C2864 1.327 . S
C2866 C2885 1.429 . S
C2866 H2890 0.950 . S
C2867 C2884 1.574 . S
C2867 C2886 1.368 . S
C2867 H2891 0.949 . S
H2868 C2872 0.949 . S
C2869 C2870 1.349 . S
C2869 C2871 1.327 . S
C2869 H2892 0.950 . S
C2870 C2869 1.349 . S
C2870 C2882 1.349 . S
C2871 C2869 1.327 . S
C2871 C2887 1.429 . S
C2871 H2893 0.950 . S
C2872 H2868 0.949 . S
C2872 C2880 1.574 . S
C2872 C2888 1.368 . S
H2873 C2881 0.950 . S
H2874 C2879 0.950 . S
H2875 C2880 0.949 . S
H2876 C2882 0.950 . S
H2877 C2883 0.950 . S
H2878 C2884 0.949 . S
C2879 H2874 0.950 . S
C2879 C2881 1.327 . S
C2879 C2885 1.429 . S
C2880 C2872 1.574 . S
C2880 H2875 0.949 . S
C2880 C2886 1.368 . S
C2881 C2865 1.349 . S
C2881 H2873 0.950 . S
C2881 C2879 1.327 . S
C2882 C2870 1.349 . S
C2882 H2876 0.950 . S
C2882 C2883 1.327 . S
C2883 H2877 0.950 . S
C2883 C2882 1.327 . S
C2883 C2887 1.429 . S
C2884 C2867 1.574 . S
C2884 H2878 0.949 . S
C2884 C2888 1.368 . S
C2885 C2866 1.429 . S
C2885 C2879 1.429 . S
C2885 C2886 1.523 . S
C2886 C2867 1.368 . S
C2886 C2880 1.368 . S
C2886 C2885 1.523 . S
C2887 C2871 1.429 . S
C2887 C2883 1.429 . S
C2887 C2888 1.523 . S
C2888 C2872 1.368 . S
C2888 C2884 1.368 . S
C2888 C2887 1.523 . S
H2889 C2864 0.950 . S
H2890 C2866 0.950 . S
H2891 C2867 0.949 . S
H2892 C2869 0.950 . S
H2893 C2871 0.950 . S
C2894 C2895 1.349 . S
C2894 C2896 1.327 . S
C2894 H2919 0.950 . S
C2895 C2894 1.349 . S
C2895 C2911 1.349 . S
C2896 C2894 1.327 . S
C2896 C2915 1.429 . S
C2896 H2920 0.950 . S
C2897 C2914 1.574 . S
C2897 C2916 1.368 . S
C2897 H2921 0.949 . S
H2898 C2902 0.949 . S
C2899 C2900 1.349 . S
C2899 C2901 1.327 . S
C2899 H2922 0.950 . S
C2900 C2899 1.349 . S
C2900 C2912 1.349 . S
C2901 C2899 1.327 . S
C2901 C2917 1.429 . S
C2901 H2923 0.950 . S
C2902 H2898 0.949 . S
C2902 C2910 1.574 . S
C2902 C2918 1.368 . S
H2903 C2911 0.950 . S
H2904 C2909 0.950 . S
H2905 C2910 0.949 . S
H2906 C2912 0.950 . S
H2907 C2913 0.950 . S
H2908 C2914 0.949 . S
C2909 H2904 0.950 . S
C2909 C2911 1.327 . S
C2909 C2915 1.429 . S
C2910 C2902 1.574 . S
C2910 H2905 0.949 . S
C2910 C2916 1.368 . S
C2911 C2895 1.349 . S
C2911 H2903 0.950 . S
C2911 C2909 1.327 . S
C2912 C2900 1.349 . S
C2912 H2906 0.950 . S
C2912 C2913 1.327 . S
C2913 H2907 0.950 . S
C2913 C2912 1.327 . S
C2913 C2917 1.429 . S
C2914 C2897 1.574 . S
C2914 H2908 0.949 . S
C2914 C2918 1.368 . S
C2915 C2896 1.429 . S
C2915 C2909 1.429 . S
C2915 C2916 1.523 . S
C2916 C2897 1.368 . S
C2916 C2910 1.368 . S
C2916 C2915 1.523 . S
C2917 C2901 1.429 . S
C2917 C2913 1.429 . S
C2917 C2918 1.523 . S
C2918 C2902 1.368 . S
C2918 C2914 1.368 . S
C2918 C2917 1.523 . S
H2919 C2894 0.950 . S
H2920 C2896 0.950 . S
H2921 C2897 0.949 . S
H2922 C2899 0.950 . S
H2923 C2901 0.950 . S
C2924 C2925 1.349 . S
C2924 C2926 1.327 . S
C2924 H2949 0.950 . S
C2925 C2924 1.349 . S
C2925 C2941 1.349 1_455 S
C2926 C2924 1.327 . S
C2926 C2945 1.429 . S
C2926 H2950 0.950 . S
C2927 C2944 1.574 . S
C2927 C2946 1.367 . S
C2927 H2951 0.949 . S
H2928 C2932 0.949 . S
C2929 C2930 1.349 1_554 S
C2929 C2931 1.327 1_554 S
C2929 H2952 0.950 . S
C2930 C2929 1.349 1_556 S
C2930 C2942 1.353 . S
C2931 C2929 1.327 1_556 S
C2931 C2947 1.429 . S
C2931 H2953 0.950 1_556 S
C2932 H2928 0.949 . S
C2932 C2940 1.574 . S
C2932 C2948 1.368 1_455 S
H2933 C2941 0.950 . S
H2934 C2939 0.950 . S
H2935 C2940 0.949 . S
H2936 C2942 0.946 1_455 S
H2937 C2943 0.950 . S
H2938 C2944 0.949 . S
C2939 H2934 0.950 . S
C2939 C2941 1.327 . S
C2939 C2945 1.429 1_655 S
C2940 C2932 1.574 . S
C2940 H2935 0.949 . S
C2940 C2946 1.370 1_455 S
C2941 C2925 1.349 1_655 S
C2941 H2933 0.950 . S
C2941 C2939 1.327 . S
C2942 C2930 1.353 . S
C2942 H2936 0.946 1_655 S
C2942 C2943 1.326 1_655 S
C2943 H2937 0.950 . S
C2943 C2942 1.326 1_455 S
C2943 C2947 1.429 1_455 S
C2944 C2927 1.574 . S
C2944 H2938 0.949 . S
C2944 C2948 1.368 . S
C2945 C2926 1.429 . S
C2945 C2939 1.429 1_455 S
C2945 C2946 1.523 1_455 S
C2946 C2927 1.367 . S
C2946 C2940 1.370 1_655 S
C2946 C2945 1.523 1_655 S
C2947 C2931 1.429 . S
C2947 C2943 1.429 1_655 S
C2947 C2948 1.523 . S
C2948 C2932 1.368 1_655 S
C2948 C2944 1.368 . S
C2948 C2947 1.523 . S
H2949 C2924 0.950 . S
H2950 C2926 0.950 . S
H2951 C2927 0.949 . S
H2952 C2929 0.950 . S
H2953 C2931 0.950 1_554 S
C2954 C2955 1.349 . S
C2954 C2956 1.327 . S
C2954 H2979 0.950 . S
C2955 C2954 1.349 . S
C2955 C2971 1.349 . S
C2956 C2954 1.327 . S
C2956 C2975 1.429 . S
C2956 H2980 0.950 . S
C2957 C2974 1.574 . S
C2957 C2976 1.368 . S
C2957 H2981 0.949 . S
H2958 C2962 0.949 . S
C2959 C2960 1.349 . S
C2959 C2961 1.327 . S
C2959 H2982 0.950 . S
C2960 C2959 1.349 . S
C2960 C2972 1.349 . S
C2961 C2959 1.327 . S
C2961 C2977 1.429 . S
C2961 H2983 0.950 . S
C2962 H2958 0.949 . S
C2962 C2970 1.574 . S
C2962 C2978 1.368 . S
H2963 C2971 0.950 . S
H2964 C2969 0.950 . S
H2965 C2970 0.949 . S
H2966 C2972 0.950 . S
H2967 C2973 0.950 . S
H2968 C2974 0.949 . S
C2969 H2964 0.950 . S
C2969 C2971 1.327 . S
C2969 C2975 1.429 . S
C2970 C2962 1.574 . S
C2970 H2965 0.949 . S
C2970 C2976 1.368 . S
C2971 C2955 1.349 . S
C2971 H2963 0.950 . S
C2971 C2969 1.327 . S
C2972 C2960 1.349 . S
C2972 H2966 0.950 . S
C2972 C2973 1.327 . S
C2973 H2967 0.950 . S
C2973 C2972 1.327 . S
C2973 C2977 1.429 . S
C2974 C2957 1.574 . S
C2974 H2968 0.949 . S
C2974 C2978 1.368 . S
C2975 C2956 1.429 . S
C2975 C2969 1.429 . S
C2975 C2976 1.523 . S
C2976 C2957 1.368 . S
C2976 C2970 1.368 . S
C2976 C2975 1.523 . S
C2977 C2961 1.429 . S
C2977 C2973 1.429 . S
C2977 C2978 1.523 . S
C2978 C2962 1.368 . S
C2978 C2974 1.368 . S
C2978 C2977 1.523 . S
H2979 C2954 0.950 . S
H2980 C2956 0.950 . S
H2981 C2957 0.949 . S
H2982 C2959 0.950 . S
H2983 C2961 0.950 . S
C2984 C2985 1.349 . S
C2984 C2986 1.327 . S
C2984 H3009 0.950 . S
C2985 C2984 1.349 . S
C2985 C3001 1.349 . S
C2986 C2984 1.327 . S
C2986 C3005 1.429 . S
C2986 H3010 0.950 . S
C2987 C3004 1.574 . S
C2987 C3006 1.368 . S
C2987 H3011 0.949 . S
H2988 C2992 0.949 . S
C2989 C2990 1.349 . S
C2989 C2991 1.327 . S
C2989 H3012 0.950 . S
C2990 C2989 1.349 . S
C2990 C3002 1.349 . S
C2991 C2989 1.327 . S
C2991 C3007 1.429 . S
C2991 H3013 0.950 . S
C2992 H2988 0.949 . S
C2992 C3000 1.574 . S
C2992 C3008 1.368 . S
H2993 C3001 0.950 . S
H2994 C2999 0.950 . S
H2995 C3000 0.949 . S
H2996 C3002 0.950 . S
H2997 C3003 0.950 . S
H2998 C3004 0.949 . S
C2999 H2994 0.950 . S
C2999 C3001 1.327 . S
C2999 C3005 1.429 . S
C3000 C2992 1.574 . S
C3000 H2995 0.949 . S
C3000 C3006 1.368 . S
C3001 C2985 1.349 . S
C3001 H2993 0.950 . S
C3001 C2999 1.327 . S
C3002 C2990 1.349 . S
C3002 H2996 0.950 . S
C3002 C3003 1.327 . S
C3003 H2997 0.950 . S
C3003 C3002 1.327 . S
C3003 C3007 1.429 . S
C3004 C2987 1.574 . S
C3004 H2998 0.949 . S
C3004 C3008 1.368 . S
C3005 C2986 1.429 . S
C3005 C2999 1.429 . S
C3005 C3006 1.523 . S
C3006 C2987 1.368 . S
C3006 C3000 1.368 . S
C3006 C3005 1.523 . S
C3007 C2991 1.429 . S
C3007 C3003 1.429 . S
C3007 C3008 1.523 . S
C3008 C2992 1.368 . S
C3008 C3004 1.368 . S
C3008 C3007 1.523 . S
H3009 C2984 0.950 . S
H3010 C2986 0.950 . S
H3011 C2987 0.949 . S
H3012 C2989 0.950 . S
H3013 C2991 0.950 . S
C3014 C3015 1.349 . S
C3014 C3016 1.327 . S
C3014 H3039 0.950 . S
C3015 C3014 1.349 . S
C3015 C3031 1.349 . S
C3016 C3014 1.327 . S
C3016 C3035 1.429 . S
C3016 H3040 0.950 . S
C3017 C3034 1.574 . S
C3017 C3036 1.368 . S
C3017 H3041 0.949 . S
H3018 C3022 0.949 . S
C3019 C3020 1.349 . S
C3019 C3021 1.327 . S
C3019 H3042 0.950 . S
C3020 C3019 1.349 . S
C3020 C3032 1.349 . S
C3021 C3019 1.327 . S
C3021 C3037 1.429 . S
C3021 H3043 0.950 . S
C3022 H3018 0.949 . S
C3022 C3030 1.574 . S
C3022 C3038 1.368 . S
H3023 C3031 0.950 . S
H3024 C3029 0.950 . S
H3025 C3030 0.949 . S
H3026 C3032 0.950 . S
H3027 C3033 0.950 . S
H3028 C3034 0.949 . S
C3029 H3024 0.950 . S
C3029 C3031 1.327 . S
C3029 C3035 1.429 . S
C3030 C3022 1.574 . S
C3030 H3025 0.949 . S
C3030 C3036 1.368 . S
C3031 C3015 1.349 . S
C3031 H3023 0.950 . S
C3031 C3029 1.327 . S
C3032 C3020 1.349 . S
C3032 H3026 0.950 . S
C3032 C3033 1.327 . S
C3033 H3027 0.950 . S
C3033 C3032 1.327 . S
C3033 C3037 1.429 . S
C3034 C3017 1.574 . S
C3034 H3028 0.949 . S
C3034 C3038 1.368 . S
C3035 C3016 1.429 . S
C3035 C3029 1.429 . S
C3035 C3036 1.523 . S
C3036 C3017 1.368 . S
C3036 C3030 1.368 . S
C3036 C3035 1.523 . S
C3037 C3021 1.429 . S
C3037 C3033 1.429 . S
C3037 C3038 1.523 . S
C3038 C3022 1.368 . S
C3038 C3034 1.368 . S
C3038 C3037 1.523 . S
H3039 C3014 0.950 . S
H3040 C3016 0.950 . S
H3041 C3017 0.949 . S
H3042 C3019 0.950 . S
H3043 C3021 0.950 . S
C3044 C3045 1.349 1_655 S
C3044 C3046 1.327 . S
C3044 H3069 0.950 . S
C3045 C3044 1.349 1_455 S
C3045 C3061 1.349 . S
C3046 C3044 1.327 . S
C3046 C3065 1.429 1_655 S
C3046 H3070 0.950 . S
C3047 C3064 1.574 . S
C3047 C3066 1.372 . S
C3047 H3071 0.949 . S
H3048 C3052 0.949 . S
C3049 C3050 1.349 1_455 S
C3049 C3051 1.327 . S
C3049 H3072 0.950 . S
C3050 C3049 1.349 1_655 S
C3050 C3062 1.349 . S
C3051 C3049 1.327 . S
C3051 C3067 1.429 1_455 S
C3051 H3073 0.950 . S
C3052 H3048 0.949 . S
C3052 C3060 1.574 . S
C3052 C3068 1.368 . S
H3053 C3061 0.950 . S
H3054 C3059 0.950 . S
H3055 C3060 0.949 . S
H3056 C3062 0.950 . S
H3057 C3063 0.950 . S
H3058 C3064 0.949 . S
C3059 H3054 0.950 . S
C3059 C3061 1.327 . S
C3059 C3065 1.429 . S
C3060 C3052 1.574 . S
C3060 H3055 0.949 . S
C3060 C3066 1.365 1_655 S
C3061 C3045 1.349 . S
C3061 H3053 0.950 . S
C3061 C3059 1.327 . S
C3062 C3050 1.349 . S
C3062 H3056 0.950 . S
C3062 C3063 1.327 . S
C3063 H3057 0.950 . S
C3063 C3062 1.327 . S
C3063 C3067 1.429 . S
C3064 C3047 1.574 . S
C3064 H3058 0.949 . S
C3064 C3068 1.368 1_455 S
C3065 C3046 1.429 1_455 S
C3065 C3059 1.429 . S
C3065 C3066 1.523 . S
C3066 C3047 1.372 . S
C3066 C3060 1.365 1_455 S
C3066 C3065 1.523 . S
C3067 C3051 1.429 1_655 S
C3067 C3063 1.429 . S
C3067 C3068 1.523 . S
C3068 C3052 1.368 . S
C3068 C3064 1.368 1_655 S
C3068 C3067 1.523 . S
H3069 C3044 0.950 . S
H3070 C3046 0.950 . S
H3071 C3047 0.949 . S
H3072 C3049 0.950 . S
H3073 C3051 0.950 . S
C3074 C3075 1.349 . S
C3074 C3076 1.327 . S
C3074 H3099 0.950 . S
C3075 C3074 1.349 . S
C3075 C3091 1.349 . S
C3076 C3074 1.327 . S
C3076 C3095 1.429 . S
C3076 H3100 0.950 . S
C3077 C3094 1.574 . S
C3077 C3096 1.368 . S
C3077 H3101 0.949 . S
H3078 C3082 0.949 . S
C3079 C3080 1.349 . S
C3079 C3081 1.327 . S
C3079 H3102 0.950 . S
C3080 C3079 1.349 . S
C3080 C3092 1.349 . S
C3081 C3079 1.327 . S
C3081 C3097 1.429 . S
C3081 H3103 0.950 . S
C3082 H3078 0.949 . S
C3082 C3090 1.574 . S
C3082 C3098 1.368 . S
H3083 C3091 0.950 . S
H3084 C3089 0.950 . S
H3085 C3090 0.949 . S
H3086 C3092 0.950 . S
H3087 C3093 0.950 . S
H3088 C3094 0.949 . S
C3089 H3084 0.950 . S
C3089 C3091 1.327 . S
C3089 C3095 1.429 . S
C3090 C3082 1.574 . S
C3090 H3085 0.949 . S
C3090 C3096 1.368 . S
C3091 C3075 1.349 . S
C3091 H3083 0.950 . S
C3091 C3089 1.327 . S
C3092 C3080 1.349 . S
C3092 H3086 0.950 . S
C3092 C3093 1.327 . S
C3093 H3087 0.950 . S
C3093 C3092 1.327 . S
C3093 C3097 1.429 . S
C3094 C3077 1.574 . S
C3094 H3088 0.949 . S
C3094 C3098 1.368 . S
C3095 C3076 1.429 . S
C3095 C3089 1.429 . S
C3095 C3096 1.523 . S
C3096 C3077 1.368 . S
C3096 C3090 1.368 . S
C3096 C3095 1.523 . S
C3097 C3081 1.429 . S
C3097 C3093 1.429 . S
C3097 C3098 1.523 . S
C3098 C3082 1.368 . S
C3098 C3094 1.368 . S
C3098 C3097 1.523 . S
H3099 C3074 0.950 . S
H3100 C3076 0.950 . S
H3101 C3077 0.949 . S
H3102 C3079 0.950 . S
H3103 C3081 0.950 . S
C3104 C3105 1.349 . S
C3104 C3106 1.327 . S
C3104 H3129 0.950 . S
C3105 C3104 1.349 . S
C3105 C3121 1.349 . S
C3106 C3104 1.327 . S
C3106 C3125 1.429 . S
C3106 H3130 0.950 . S
C3107 C3124 1.574 . S
C3107 C3126 1.368 . S
C3107 H3131 0.949 . S
H3108 C3112 0.949 . S
C3109 C3110 1.349 . S
C3109 C3111 1.327 . S
C3109 H3132 0.950 . S
C3110 C3109 1.349 . S
C3110 C3122 1.349 . S
C3111 C3109 1.327 . S
C3111 C3127 1.429 . S
C3111 H3133 0.950 . S
C3112 H3108 0.949 . S
C3112 C3120 1.574 . S
C3112 C3128 1.368 . S
H3113 C3121 0.950 . S
H3114 C3119 0.950 . S
H3115 C3120 0.949 . S
H3116 C3122 0.950 . S
H3117 C3123 0.950 . S
H3118 C3124 0.949 . S
C3119 H3114 0.950 . S
C3119 C3121 1.327 . S
C3119 C3125 1.429 . S
C3120 C3112 1.574 . S
C3120 H3115 0.949 . S
C3120 C3126 1.368 . S
C3121 C3105 1.349 . S
C3121 H3113 0.950 . S
C3121 C3119 1.327 . S
C3122 C3110 1.349 . S
C3122 H3116 0.950 . S
C3122 C3123 1.327 . S
C3123 H3117 0.950 . S
C3123 C3122 1.327 . S
C3123 C3127 1.429 . S
C3124 C3107 1.574 . S
C3124 H3118 0.949 . S
C3124 C3128 1.368 . S
C3125 C3106 1.429 . S
C3125 C3119 1.429 . S
C3125 C3126 1.523 . S
C3126 C3107 1.368 . S
C3126 C3120 1.368 . S
C3126 C3125 1.523 . S
C3127 C3111 1.429 . S
C3127 C3123 1.429 . S
C3127 C3128 1.523 . S
C3128 C3112 1.368 . S
C3128 C3124 1.368 . S
C3128 C3127 1.523 . S
H3129 C3104 0.950 . S
H3130 C3106 0.950 . S
H3131 C3107 0.949 . S
H3132 C3109 0.950 . S
H3133 C3111 0.950 . S
C3134 C3135 1.349 . S
C3134 C3136 1.327 . S
C3134 H3159 0.950 . S
C3135 C3134 1.349 . S
C3135 C3151 1.349 . S
C3136 C3134 1.327 . S
C3136 C3155 1.429 . S
C3136 H3160 0.950 . S
C3137 C3154 1.574 . S
C3137 C3156 1.368 . S
C3137 H3161 0.949 . S
H3138 C3142 0.949 . S
C3139 C3140 1.349 . S
C3139 C3141 1.327 . S
C3139 H3162 0.950 . S
C3140 C3139 1.349 . S
C3140 C3152 1.349 . S
C3141 C3139 1.327 . S
C3141 C3157 1.429 . S
C3141 H3163 0.950 . S
C3142 H3138 0.949 . S
C3142 C3150 1.574 . S
C3142 C3158 1.368 . S
H3143 C3151 0.950 . S
H3144 C3149 0.950 . S
H3145 C3150 0.949 . S
H3146 C3152 0.950 . S
H3147 C3153 0.950 . S
H3148 C3154 0.949 . S
C3149 H3144 0.950 . S
C3149 C3151 1.327 . S
C3149 C3155 1.429 . S
C3150 C3142 1.574 . S
C3150 H3145 0.949 . S
C3150 C3156 1.368 . S
C3151 C3135 1.349 . S
C3151 H3143 0.950 . S
C3151 C3149 1.327 . S
C3152 C3140 1.349 . S
C3152 H3146 0.950 . S
C3152 C3153 1.327 . S
C3153 H3147 0.950 . S
C3153 C3152 1.327 . S
C3153 C3157 1.429 . S
C3154 C3137 1.574 . S
C3154 H3148 0.949 . S
C3154 C3158 1.368 . S
C3155 C3136 1.429 . S
C3155 C3149 1.429 . S
C3155 C3156 1.523 . S
C3156 C3137 1.368 . S
C3156 C3150 1.368 . S
C3156 C3155 1.523 . S
C3157 C3141 1.429 . S
C3157 C3153 1.429 . S
C3157 C3158 1.523 . S
C3158 C3142 1.368 . S
C3158 C3154 1.368 . S
C3158 C3157 1.523 . S
H3159 C3134 0.950 . S
H3160 C3136 0.950 . S
H3161 C3137 0.949 . S
H3162 C3139 0.950 . S
H3163 C3141 0.950 . S
C3164 C3165 1.349 . S
C3164 C3166 1.327 . S
C3164 H3189 0.950 . S
C3165 C3164 1.349 . S
C3165 C3181 1.349 . S
C3166 C3164 1.327 . S
C3166 C3185 1.429 . S
C3166 H3190 0.950 . S
C3167 C3184 1.574 . S
C3167 C3186 1.368 . S
C3167 H3191 0.949 . S
H3168 C3172 0.949 . S
C3169 C3170 1.349 . S
C3169 C3171 1.327 . S
C3169 H3192 0.950 . S
C3170 C3169 1.349 . S
C3170 C3182 1.349 . S
C3171 C3169 1.327 . S
C3171 C3187 1.429 . S
C3171 H3193 0.950 . S
C3172 H3168 0.949 . S
C3172 C3180 1.574 . S
C3172 C3188 1.368 . S
H3173 C3181 0.950 . S
H3174 C3179 0.950 . S
H3175 C3180 0.949 . S
H3176 C3182 0.950 . S
H3177 C3183 0.950 . S
H3178 C3184 0.949 . S
C3179 H3174 0.950 . S
C3179 C3181 1.327 . S
C3179 C3185 1.429 . S
C3180 C3172 1.574 . S
C3180 H3175 0.949 . S
C3180 C3186 1.368 . S
C3181 C3165 1.349 . S
C3181 H3173 0.950 . S
C3181 C3179 1.327 . S
C3182 C3170 1.349 . S
C3182 H3176 0.950 . S
C3182 C3183 1.327 . S
C3183 H3177 0.950 . S
C3183 C3182 1.327 . S
C3183 C3187 1.429 . S
C3184 C3167 1.574 . S
C3184 H3178 0.949 . S
C3184 C3188 1.368 . S
C3185 C3166 1.429 . S
C3185 C3179 1.429 . S
C3185 C3186 1.523 . S
C3186 C3167 1.368 . S
C3186 C3180 1.368 . S
C3186 C3185 1.523 . S
C3187 C3171 1.429 . S
C3187 C3183 1.429 . S
C3187 C3188 1.523 . S
C3188 C3172 1.368 . S
C3188 C3184 1.368 . S
C3188 C3187 1.523 . S
H3189 C3164 0.950 . S
H3190 C3166 0.950 . S
H3191 C3167 0.949 . S
H3192 C3169 0.950 . S
H3193 C3171 0.950 . S
C3194 C3195 1.349 . S
C3194 C3196 1.327 . S
C3194 H3219 0.950 . S
C3195 C3194 1.349 . S
C3195 C3211 1.349 . S
C3196 C3194 1.327 . S
C3196 C3215 1.429 . S
C3196 H3220 0.950 . S
C3197 C3214 1.574 . S
C3197 C3216 1.368 . S
C3197 H3221 0.949 . S
H3198 C3202 0.949 . S
C3199 C3200 1.349 . S
C3199 C3201 1.327 . S
C3199 H3222 0.950 . S
C3200 C3199 1.349 . S
C3200 C3212 1.349 . S
C3201 C3199 1.327 . S
C3201 C3217 1.429 . S
C3201 H3223 0.950 . S
C3202 H3198 0.949 . S
C3202 C3210 1.574 . S
C3202 C3218 1.368 . S
H3203 C3211 0.950 . S
H3204 C3209 0.950 . S
H3205 C3210 0.949 . S
H3206 C3212 0.950 . S
H3207 C3213 0.950 . S
H3208 C3214 0.949 . S
C3209 H3204 0.950 . S
C3209 C3211 1.327 . S
C3209 C3215 1.429 . S
C3210 C3202 1.574 . S
C3210 H3205 0.949 . S
C3210 C3216 1.368 . S
C3211 C3195 1.349 . S
C3211 H3203 0.950 . S
C3211 C3209 1.327 . S
C3212 C3200 1.349 . S
C3212 H3206 0.950 . S
C3212 C3213 1.327 . S
C3213 H3207 0.950 . S
C3213 C3212 1.327 . S
C3213 C3217 1.429 . S
C3214 C3197 1.574 . S
C3214 H3208 0.949 . S
C3214 C3218 1.368 . S
C3215 C3196 1.429 . S
C3215 C3209 1.429 . S
C3215 C3216 1.523 . S
C3216 C3197 1.368 . S
C3216 C3210 1.368 . S
C3216 C3215 1.523 . S
C3217 C3201 1.429 . S
C3217 C3213 1.429 . S
C3217 C3218 1.523 . S
C3218 C3202 1.368 . S
C3218 C3214 1.368 . S
C3218 C3217 1.523 . S
H3219 C3194 0.950 . S
H3220 C3196 0.950 . S
H3221 C3197 0.949 . S
H3222 C3199 0.950 . S
H3223 C3201 0.950 . S
C3224 C3225 1.349 . S
C3224 C3226 1.327 . S
C3224 H3249 0.950 . S
C3225 C3224 1.349 . S
C3225 C3241 1.349 . S
C3226 C3224 1.327 . S
C3226 C3245 1.429 . S
C3226 H3250 0.950 . S
C3227 C3244 1.574 . S
C3227 C3246 1.368 . S
C3227 H3251 0.949 . S
H3228 C3232 0.949 . S
C3229 C3230 1.349 . S
C3229 C3231 1.327 . S
C3229 H3252 0.950 . S
C3230 C3229 1.349 . S
C3230 C3242 1.349 . S
C3231 C3229 1.327 . S
C3231 C3247 1.429 . S
C3231 H3253 0.950 . S
C3232 H3228 0.949 . S
C3232 C3240 1.574 . S
C3232 C3248 1.368 . S
H3233 C3241 0.950 . S
H3234 C3239 0.950 . S
H3235 C3240 0.949 . S
H3236 C3242 0.950 . S
H3237 C3243 0.950 . S
H3238 C3244 0.949 . S
C3239 H3234 0.950 . S
C3239 C3241 1.327 . S
C3239 C3245 1.429 . S
C3240 C3232 1.574 . S
C3240 H3235 0.949 . S
C3240 C3246 1.368 . S
C3241 C3225 1.349 . S
C3241 H3233 0.950 . S
C3241 C3239 1.327 . S
C3242 C3230 1.349 . S
C3242 H3236 0.950 . S
C3242 C3243 1.327 . S
C3243 H3237 0.950 . S
C3243 C3242 1.327 . S
C3243 C3247 1.429 . S
C3244 C3227 1.574 . S
C3244 H3238 0.949 . S
C3244 C3248 1.368 . S
C3245 C3226 1.429 . S
C3245 C3239 1.429 . S
C3245 C3246 1.523 . S
C3246 C3227 1.368 . S
C3246 C3240 1.368 . S
C3246 C3245 1.523 . S
C3247 C3231 1.429 . S
C3247 C3243 1.429 . S
C3247 C3248 1.523 . S
C3248 C3232 1.368 . S
C3248 C3244 1.368 . S
C3248 C3247 1.523 . S
H3249 C3224 0.950 . S
H3250 C3226 0.950 . S
H3251 C3227 0.949 . S
H3252 C3229 0.950 . S
H3253 C3231 0.950 . S
C3254 C3255 1.349 . S
C3254 C3256 1.327 . S
C3254 H3279 0.950 . S
C3255 C3254 1.349 . S
C3255 C3271 1.349 . S
C3256 C3254 1.327 . S
C3256 C3275 1.429 . S
C3256 H3280 0.950 . S
C3257 C3274 1.574 . S
C3257 C3276 1.368 . S
C3257 H3281 0.949 . S
H3258 C3262 0.949 . S
C3259 C3260 1.349 . S
C3259 C3261 1.327 . S
C3259 H3282 0.950 . S
C3260 C3259 1.349 . S
C3260 C3272 1.349 . S
C3261 C3259 1.327 . S
C3261 C3277 1.429 . S
C3261 H3283 0.950 . S
C3262 H3258 0.949 . S
C3262 C3270 1.574 . S
C3262 C3278 1.368 . S
H3263 C3271 0.950 . S
H3264 C3269 0.950 . S
H3265 C3270 0.949 . S
H3266 C3272 0.950 . S
H3267 C3273 0.950 . S
H3268 C3274 0.949 . S
C3269 H3264 0.950 . S
C3269 C3271 1.327 . S
C3269 C3275 1.429 . S
C3270 C3262 1.574 . S
C3270 H3265 0.949 . S
C3270 C3276 1.368 . S
C3271 C3255 1.349 . S
C3271 H3263 0.950 . S
C3271 C3269 1.327 . S
C3272 C3260 1.349 . S
C3272 H3266 0.950 . S
C3272 C3273 1.327 . S
C3273 H3267 0.950 . S
C3273 C3272 1.327 . S
C3273 C3277 1.429 . S
C3274 C3257 1.574 . S
C3274 H3268 0.949 . S
C3274 C3278 1.368 . S
C3275 C3256 1.429 . S
C3275 C3269 1.429 . S
C3275 C3276 1.523 . S
C3276 C3257 1.368 . S
C3276 C3270 1.368 . S
C3276 C3275 1.523 . S
C3277 C3261 1.429 . S
C3277 C3273 1.429 . S
C3277 C3278 1.523 . S
C3278 C3262 1.368 . S
C3278 C3274 1.368 . S
C3278 C3277 1.523 . S
H3279 C3254 0.950 . S
H3280 C3256 0.950 . S
H3281 C3257 0.949 . S
H3282 C3259 0.950 . S
H3283 C3261 0.950 . S
C3284 C3285 1.349 . S
C3284 C3286 1.327 . S
C3284 H3309 0.950 . S
C3285 C3284 1.349 . S
C3285 C3301 1.349 . S
C3286 C3284 1.327 . S
C3286 C3305 1.429 . S
C3286 H3310 0.950 . S
C3287 C3304 1.574 . S
C3287 C3306 1.368 . S
C3287 H3311 0.949 . S
H3288 C3292 0.949 . S
C3289 C3290 1.349 . S
C3289 C3291 1.327 . S
C3289 H3312 0.950 . S
C3290 C3289 1.349 . S
C3290 C3302 1.349 . S
C3291 C3289 1.327 . S
C3291 C3307 1.429 . S
C3291 H3313 0.950 . S
C3292 H3288 0.949 . S
C3292 C3300 1.574 . S
C3292 C3308 1.368 . S
H3293 C3301 0.950 . S
H3294 C3299 0.950 . S
H3295 C3300 0.949 . S
H3296 C3302 0.950 . S
H3297 C3303 0.950 . S
H3298 C3304 0.949 . S
C3299 H3294 0.950 . S
C3299 C3301 1.327 . S
C3299 C3305 1.429 . S
C3300 C3292 1.574 . S
C3300 H3295 0.949 . S
C3300 C3306 1.368 . S
C3301 C3285 1.349 . S
C3301 H3293 0.950 . S
C3301 C3299 1.327 . S
C3302 C3290 1.349 . S
C3302 H3296 0.950 . S
C3302 C3303 1.327 . S
C3303 H3297 0.950 . S
C3303 C3302 1.327 . S
C3303 C3307 1.429 . S
C3304 C3287 1.574 . S
C3304 H3298 0.949 . S
C3304 C3308 1.368 . S
C3305 C3286 1.429 . S
C3305 C3299 1.429 . S
C3305 C3306 1.523 . S
C3306 C3287 1.368 . S
C3306 C3300 1.368 . S
C3306 C3305 1.523 . S
C3307 C3291 1.429 . S
C3307 C3303 1.429 . S
C3307 C3308 1.523 . S
C3308 C3292 1.368 . S
C3308 C3304 1.368 . S
C3308 C3307 1.523 . S
H3309 C3284 0.950 . S
H3310 C3286 0.950 . S
H3311 C3287 0.949 . S
H3312 C3289 0.950 . S
H3313 C3291 0.950 . S
C3314 C3315 1.349 . S
C3314 C3316 1.327 . S
C3314 H3339 0.950 . S
C3315 C3314 1.349 . S
C3315 C3331 1.349 . S
C3316 C3314 1.327 . S
C3316 C3335 1.429 . S
C3316 H3340 0.950 . S
C3317 C3334 1.574 . S
C3317 C3336 1.368 . S
C3317 H3341 0.949 . S
H3318 C3322 0.949 . S
C3319 C3320 1.349 . S
C3319 C3321 1.327 . S
C3319 H3342 0.950 . S
C3320 C3319 1.349 . S
C3320 C3332 1.349 . S
C3321 C3319 1.327 . S
C3321 C3337 1.429 . S
C3321 H3343 0.950 . S
C3322 H3318 0.949 . S
C3322 C3330 1.574 . S
C3322 C3338 1.368 . S
H3323 C3331 0.950 . S
H3324 C3329 0.950 . S
H3325 C3330 0.949 . S
H3326 C3332 0.950 . S
H3327 C3333 0.950 . S
H3328 C3334 0.949 . S
C3329 H3324 0.950 . S
C3329 C3331 1.327 . S
C3329 C3335 1.429 . S
C3330 C3322 1.574 . S
C3330 H3325 0.949 . S
C3330 C3336 1.368 . S
C3331 C3315 1.349 . S
C3331 H3323 0.950 . S
C3331 C3329 1.327 . S
C3332 C3320 1.349 . S
C3332 H3326 0.950 . S
C3332 C3333 1.327 . S
C3333 H3327 0.950 . S
C3333 C3332 1.327 . S
C3333 C3337 1.429 . S
C3334 C3317 1.574 . S
C3334 H3328 0.949 . S
C3334 C3338 1.368 . S
C3335 C3316 1.429 . S
C3335 C3329 1.429 . S
C3335 C3336 1.523 . S
C3336 C3317 1.368 . S
C3336 C3330 1.368 . S
C3336 C3335 1.523 . S
C3337 C3321 1.429 . S
C3337 C3333 1.429 . S
C3337 C3338 1.523 . S
C3338 C3322 1.368 . S
C3338 C3334 1.368 . S
C3338 C3337 1.523 . S
H3339 C3314 0.950 . S
H3340 C3316 0.950 . S
H3341 C3317 0.949 . S
H3342 C3319 0.950 . S
H3343 C3321 0.950 . S
C3344 C3345 1.349 . S
C3344 C3346 1.327 . S
C3344 H3369 0.950 . S
C3345 C3344 1.349 . S
C3345 C3361 1.349 . S
C3346 C3344 1.327 . S
C3346 C3365 1.429 . S
C3346 H3370 0.950 . S
C3347 C3364 1.574 . S
C3347 C3366 1.368 . S
C3347 H3371 0.949 . S
H3348 C3352 0.949 . S
C3349 C3350 1.349 . S
C3349 C3351 1.327 . S
C3349 H3372 0.950 . S
C3350 C3349 1.349 . S
C3350 C3362 1.349 . S
C3351 C3349 1.327 . S
C3351 C3367 1.429 . S
C3351 H3373 0.950 . S
C3352 H3348 0.949 . S
C3352 C3360 1.574 . S
C3352 C3368 1.368 . S
H3353 C3361 0.950 . S
H3354 C3359 0.950 . S
H3355 C3360 0.949 . S
H3356 C3362 0.950 . S
H3357 C3363 0.950 . S
H3358 C3364 0.949 . S
C3359 H3354 0.950 . S
C3359 C3361 1.327 . S
C3359 C3365 1.429 . S
C3360 C3352 1.574 . S
C3360 H3355 0.949 . S
C3360 C3366 1.368 . S
C3361 C3345 1.349 . S
C3361 H3353 0.950 . S
C3361 C3359 1.327 . S
C3362 C3350 1.349 . S
C3362 H3356 0.950 . S
C3362 C3363 1.327 . S
C3363 H3357 0.950 . S
C3363 C3362 1.327 . S
C3363 C3367 1.429 . S
C3364 C3347 1.574 . S
C3364 H3358 0.949 . S
C3364 C3368 1.368 . S
C3365 C3346 1.429 . S
C3365 C3359 1.429 . S
C3365 C3366 1.523 . S
C3366 C3347 1.368 . S
C3366 C3360 1.368 . S
C3366 C3365 1.523 . S
C3367 C3351 1.429 . S
C3367 C3363 1.429 . S
C3367 C3368 1.523 . S
C3368 C3352 1.368 . S
C3368 C3364 1.368 . S
C3368 C3367 1.523 . S
H3369 C3344 0.950 . S
H3370 C3346 0.950 . S
H3371 C3347 0.949 . S
H3372 C3349 0.950 . S
H3373 C3351 0.950 . S
C3374 C3375 1.349 . S
C3374 C3376 1.327 . S
C3374 H3399 0.950 . S
C3375 C3374 1.349 . S
C3375 C3391 1.349 . S
C3376 C3374 1.327 . S
C3376 C3395 1.429 . S
C3376 H3400 0.950 . S
C3377 C3394 1.574 . S
C3377 C3396 1.368 . S
C3377 H3401 0.949 . S
H3378 C3382 0.949 . S
C3379 C3380 1.349 . S
C3379 C3381 1.327 . S
C3379 H3402 0.950 . S
C3380 C3379 1.349 . S
C3380 C3392 1.349 . S
C3381 C3379 1.327 . S
C3381 C3397 1.429 . S
C3381 H3403 0.950 . S
C3382 H3378 0.949 . S
C3382 C3390 1.574 . S
C3382 C3398 1.368 . S
H3383 C3391 0.950 . S
H3384 C3389 0.950 . S
H3385 C3390 0.949 . S
H3386 C3392 0.950 . S
H3387 C3393 0.950 . S
H3388 C3394 0.949 . S
C3389 H3384 0.950 . S
C3389 C3391 1.327 . S
C3389 C3395 1.429 . S
C3390 C3382 1.574 . S
C3390 H3385 0.949 . S
C3390 C3396 1.368 . S
C3391 C3375 1.349 . S
C3391 H3383 0.950 . S
C3391 C3389 1.327 . S
C3392 C3380 1.349 . S
C3392 H3386 0.950 . S
C3392 C3393 1.327 . S
C3393 H3387 0.950 . S
C3393 C3392 1.327 . S
C3393 C3397 1.429 . S
C3394 C3377 1.574 . S
C3394 H3388 0.949 . S
C3394 C3398 1.368 . S
C3395 C3376 1.429 . S
C3395 C3389 1.429 . S
C3395 C3396 1.523 . S
C3396 C3377 1.368 . S
C3396 C3390 1.368 . S
C3396 C3395 1.523 . S
C3397 C3381 1.429 . S
C3397 C3393 1.429 . S
C3397 C3398 1.523 . S
C3398 C3382 1.368 . S
C3398 C3394 1.368 . S
C3398 C3397 1.523 . S
H3399 C3374 0.950 . S
H3400 C3376 0.950 . S
H3401 C3377 0.949 . S
H3402 C3379 0.950 . S
H3403 C3381 0.950 . S
C3404 C3405 1.349 . S
C3404 C3406 1.327 . S
C3404 H3429 0.950 . S
C3405 C3404 1.349 . S
C3405 C3421 1.349 . S
C3406 C3404 1.327 . S
C3406 C3425 1.429 . S
C3406 H3430 0.950 . S
C3407 C3424 1.574 . S
C3407 C3426 1.368 . S
C3407 H3431 0.949 . S
H3408 C3412 0.949 . S
C3409 C3410 1.349 . S
C3409 C3411 1.327 . S
C3409 H3432 0.950 . S
C3410 C3409 1.349 . S
C3410 C3422 1.349 . S
C3411 C3409 1.327 . S
C3411 C3427 1.429 . S
C3411 H3433 0.950 . S
C3412 H3408 0.949 . S
C3412 C3420 1.574 . S
C3412 C3428 1.368 . S
H3413 C3421 0.950 . S
H3414 C3419 0.950 . S
H3415 C3420 0.949 . S
H3416 C3422 0.950 . S
H3417 C3423 0.950 . S
H3418 C3424 0.949 . S
C3419 H3414 0.950 . S
C3419 C3421 1.327 . S
C3419 C3425 1.429 . S
C3420 C3412 1.574 . S
C3420 H3415 0.949 . S
C3420 C3426 1.368 . S
C3421 C3405 1.349 . S
C3421 H3413 0.950 . S
C3421 C3419 1.327 . S
C3422 C3410 1.349 . S
C3422 H3416 0.950 . S
C3422 C3423 1.327 . S
C3423 H3417 0.950 . S
C3423 C3422 1.327 . S
C3423 C3427 1.429 . S
C3424 C3407 1.574 . S
C3424 H3418 0.949 . S
C3424 C3428 1.368 . S
C3425 C3406 1.429 . S
C3425 C3419 1.429 . S
C3425 C3426 1.523 . S
C3426 C3407 1.368 . S
C3426 C3420 1.368 . S
C3426 C3425 1.523 . S
C3427 C3411 1.429 . S
C3427 C3423 1.429 . S
C3427 C3428 1.523 . S
C3428 C3412 1.368 . S
C3428 C3424 1.368 . S
C3428 C3427 1.523 . S
H3429 C3404 0.950 . S
H3430 C3406 0.950 . S
H3431 C3407 0.949 . S
H3432 C3409 0.950 . S
H3433 C3411 0.950 . S
C3434 C3435 1.349 1_556 S
C3434 C3436 1.327 . S
C3434 H3459 0.950 . S
C3435 C3434 1.349 1_554 S
C3435 C3451 1.349 . S
C3436 C3434 1.327 . S
C3436 C3455 1.394 1_556 S
C3436 H3460 0.950 . S
C3437 C3454 1.574 . S
C3437 C3456 1.354 1_554 S
C3437 H3461 0.949 . S
H3438 C3442 0.949 . S
C3439 C3440 1.349 1_554 S
C3439 C3441 1.327 . S
C3439 H3462 0.950 . S
C3440 C3439 1.349 1_556 S
C3440 C3452 1.349 . S
C3441 C3439 1.327 . S
C3441 C3457 1.429 1_554 S
C3441 H3463 0.950 . S
C3442 H3438 0.949 . S
C3442 C3450 1.574 . S
C3442 C3458 1.368 . S
H3443 C3451 0.950 . S
H3444 C3449 0.950 . S
H3445 C3450 0.949 . S
H3446 C3452 0.950 . S
H3447 C3453 0.950 . S
H3448 C3454 0.949 . S
C3449 H3444 0.950 . S
C3449 C3451 1.327 . S
C3449 C3455 1.469 . S
C3450 C3442 1.574 . S
C3450 H3445 0.949 . S
C3450 C3456 1.384 . S
C3451 C3435 1.349 . S
C3451 H3443 0.950 . S
C3451 C3449 1.327 . S
C3452 C3440 1.349 . S
C3452 H3446 0.950 . S
C3452 C3453 1.327 . S
C3453 H3447 0.950 . S
C3453 C3452 1.327 . S
C3453 C3457 1.429 . S
C3454 C3437 1.574 . S
C3454 H3448 0.949 . S
C3454 C3458 1.368 1_554 S
C3455 C3436 1.394 1_554 S
C3455 C3449 1.469 . S
C3455 C3456 1.519 1_554 S
C3456 C3437 1.354 1_556 S
C3456 C3450 1.384 . S
C3456 C3455 1.519 1_556 S
C3457 C3441 1.429 1_556 S
C3457 C3453 1.429 . S
C3457 C3458 1.523 . S
C3458 C3442 1.368 . S
C3458 C3454 1.368 1_556 S
C3458 C3457 1.523 . S
H3459 C3434 0.950 . S
H3460 C3436 0.950 . S
H3461 C3437 0.949 . S
H3462 C3439 0.950 . S
H3463 C3441 0.950 . S
C3464 C3465 1.349 . S
C3464 C3466 1.327 . S
C3464 H3489 0.950 . S
C3465 C3464 1.349 . S
C3465 C3481 1.349 . S
C3466 C3464 1.327 . S
C3466 C3485 1.429 . S
C3466 H3490 0.950 . S
C3467 C3484 1.574 . S
C3467 C3486 1.368 . S
C3467 H3491 0.949 . S
H3468 C3472 0.949 . S
C3469 C3470 1.349 . S
C3469 C3471 1.327 . S
C3469 H3492 0.950 . S
C3470 C3469 1.349 . S
C3470 C3482 1.349 . S
C3471 C3469 1.327 . S
C3471 C3487 1.429 . S
C3471 H3493 0.950 . S
C3472 H3468 0.949 . S
C3472 C3480 1.574 . S
C3472 C3488 1.368 . S
H3473 C3481 0.950 . S
H3474 C3479 0.950 . S
H3475 C3480 0.949 . S
H3476 C3482 0.950 . S
H3477 C3483 0.950 . S
H3478 C3484 0.949 . S
C3479 H3474 0.950 . S
C3479 C3481 1.327 . S
C3479 C3485 1.429 . S
C3480 C3472 1.574 . S
C3480 H3475 0.949 . S
C3480 C3486 1.368 . S
C3481 C3465 1.349 . S
C3481 H3473 0.950 . S
C3481 C3479 1.327 . S
C3482 C3470 1.349 . S
C3482 H3476 0.950 . S
C3482 C3483 1.327 . S
C3483 H3477 0.950 . S
C3483 C3482 1.327 . S
C3483 C3487 1.429 . S
C3484 C3467 1.574 . S
C3484 H3478 0.949 . S
C3484 C3488 1.368 . S
C3485 C3466 1.429 . S
C3485 C3479 1.429 . S
C3485 C3486 1.523 . S
C3486 C3467 1.368 . S
C3486 C3480 1.368 . S
C3486 C3485 1.523 . S
C3487 C3471 1.429 . S
C3487 C3483 1.429 . S
C3487 C3488 1.523 . S
C3488 C3472 1.368 . S
C3488 C3484 1.368 . S
C3488 C3487 1.523 . S
H3489 C3464 0.950 . S
H3490 C3466 0.950 . S
H3491 C3467 0.949 . S
H3492 C3469 0.950 . S
H3493 C3471 0.950 . S
C3494 C3495 1.349 1_556 S
C3494 C3496 1.327 . S
C3494 H3519 0.950 . S
C3495 C3494 1.349 1_554 S
C3495 C3511 1.349 . S
C3496 C3494 1.327 . S
C3496 C3515 1.429 1_556 S
C3496 H3520 0.950 . S
C3497 C3514 1.574 . S
C3497 C3516 1.368 . S
C3497 H3521 0.949 . S
H3498 C3502 0.949 1_556 S
C3499 C3500 1.349 . S
C3499 C3501 1.327 . S
C3499 H3522 0.950 . S
C3500 C3499 1.349 . S
C3500 C3512 1.349 . S
C3501 C3499 1.327 . S
C3501 C3517 1.429 . S
C3501 H3523 0.950 . S
C3502 H3498 0.949 1_554 S
C3502 C3510 1.574 1_554 S
C3502 C3518 1.368 . S
H3503 C3511 0.950 . S
H3504 C3509 0.950 . S
H3505 C3510 0.949 . S
H3506 C3512 0.950 . S
H3507 C3513 0.950 1_556 S
H3508 C3514 0.949 . S
C3509 H3504 0.950 . S
C3509 C3511 1.327 . S
C3509 C3515 1.429 . S
C3510 C3502 1.574 1_556 S
C3510 H3505 0.949 . S
C3510 C3516 1.368 1_556 S
C3511 C3495 1.349 . S
C3511 H3503 0.950 . S
C3511 C3509 1.327 . S
C3512 C3500 1.349 . S
C3512 H3506 0.950 . S
C3512 C3513 1.327 . S
C3513 H3507 0.950 1_554 S
C3513 C3512 1.327 . S
C3513 C3517 1.429 . S
C3514 C3497 1.574 . S
C3514 H3508 0.949 . S
C3514 C3518 1.368 . S
C3515 C3496 1.429 1_554 S
C3515 C3509 1.429 . S
C3515 C3516 1.523 . S
C3516 C3497 1.368 . S
C3516 C3510 1.368 1_554 S
C3516 C3515 1.523 . S
C3517 C3501 1.429 . S
C3517 C3513 1.429 . S
C3517 C3518 1.523 . S
C3518 C3502 1.368 . S
C3518 C3514 1.368 . S
C3518 C3517 1.523 . S
H3519 C3494 0.950 . S
H3520 C3496 0.950 . S
H3521 C3497 0.949 . S
H3522 C3499 0.950 . S
H3523 C3501 0.950 . S
C3524 C3525 1.349 . S
C3524 C3526 1.327 . S
C3524 H3549 0.950 . S
C3525 C3524 1.349 . S
C3525 C3541 1.349 . S
C3526 C3524 1.327 . S
C3526 C3545 1.429 . S
C3526 H3550 0.950 . S
C3527 C3544 1.574 . S
C3527 C3546 1.368 . S
C3527 H3551 0.949 . S
H3528 C3532 0.949 . S
C3529 C3530 1.349 . S
C3529 C3531 1.327 . S
C3529 H3552 0.950 . S
C3530 C3529 1.349 . S
C3530 C3542 1.349 . S
C3531 C3529 1.327 . S
C3531 C3547 1.429 . S
C3531 H3553 0.950 . S
C3532 H3528 0.949 . S
C3532 C3540 1.574 . S
C3532 C3548 1.368 . S
H3533 C3541 0.950 . S
H3534 C3539 0.950 . S
H3535 C3540 0.949 . S
H3536 C3542 0.950 . S
H3537 C3543 0.950 . S
H3538 C3544 0.949 . S
C3539 H3534 0.950 . S
C3539 C3541 1.327 . S
C3539 C3545 1.429 . S
C3540 C3532 1.574 . S
C3540 H3535 0.949 . S
C3540 C3546 1.368 . S
C3541 C3525 1.349 . S
C3541 H3533 0.950 . S
C3541 C3539 1.327 . S
C3542 C3530 1.349 . S
C3542 H3536 0.950 . S
C3542 C3543 1.327 . S
C3543 H3537 0.950 . S
C3543 C3542 1.327 . S
C3543 C3547 1.429 . S
C3544 C3527 1.574 . S
C3544 H3538 0.949 . S
C3544 C3548 1.368 . S
C3545 C3526 1.429 . S
C3545 C3539 1.429 . S
C3545 C3546 1.523 . S
C3546 C3527 1.368 . S
C3546 C3540 1.368 . S
C3546 C3545 1.523 . S
C3547 C3531 1.429 . S
C3547 C3543 1.429 . S
C3547 C3548 1.523 . S
C3548 C3532 1.368 . S
C3548 C3544 1.368 . S
C3548 C3547 1.523 . S
H3549 C3524 0.950 . S
H3550 C3526 0.950 . S
H3551 C3527 0.949 . S
H3552 C3529 0.950 . S
H3553 C3531 0.950 . S
C3554 C3555 1.349 . S
C3554 C3556 1.327 . S
C3554 H3579 0.950 . S
C3555 C3554 1.349 . S
C3555 C3571 1.349 . S
C3556 C3554 1.327 . S
C3556 C3575 1.429 . S
C3556 H3580 0.950 . S
C3557 C3574 1.574 . S
C3557 C3576 1.368 . S
C3557 H3581 0.949 . S
H3558 C3562 0.949 . S
C3559 C3560 1.349 . S
C3559 C3561 1.327 . S
C3559 H3582 0.950 . S
C3560 C3559 1.349 . S
C3560 C3572 1.349 . S
C3561 C3559 1.327 . S
C3561 C3577 1.429 . S
C3561 H3583 0.950 . S
C3562 H3558 0.949 . S
C3562 C3570 1.574 . S
C3562 C3578 1.368 . S
H3563 C3571 0.950 . S
H3564 C3569 0.950 . S
H3565 C3570 0.949 . S
H3566 C3572 0.950 . S
H3567 C3573 0.950 . S
H3568 C3574 0.949 . S
C3569 H3564 0.950 . S
C3569 C3571 1.327 . S
C3569 C3575 1.429 . S
C3570 C3562 1.574 . S
C3570 H3565 0.949 . S
C3570 C3576 1.368 . S
C3571 C3555 1.349 . S
C3571 H3563 0.950 . S
C3571 C3569 1.327 . S
C3572 C3560 1.349 . S
C3572 H3566 0.950 . S
C3572 C3573 1.327 . S
C3573 H3567 0.950 . S
C3573 C3572 1.327 . S
C3573 C3577 1.429 . S
C3574 C3557 1.574 . S
C3574 H3568 0.949 . S
C3574 C3578 1.368 . S
C3575 C3556 1.429 . S
C3575 C3569 1.429 . S
C3575 C3576 1.523 . S
C3576 C3557 1.368 . S
C3576 C3570 1.368 . S
C3576 C3575 1.523 . S
C3577 C3561 1.429 . S
C3577 C3573 1.429 . S
C3577 C3578 1.523 . S
C3578 C3562 1.368 . S
C3578 C3574 1.368 . S
C3578 C3577 1.523 . S
H3579 C3554 0.950 . S
H3580 C3556 0.950 . S
H3581 C3557 0.949 . S
H3582 C3559 0.950 . S
H3583 C3561 0.950 . S
C710 C352 1.030 . S
C705 C5 1.044 . S
C735 C23 1.316 . S
C740 C380 1.232 . S
C765 C39 0.978 . S
C770 C398 0.968 . S
C800 C424 1.242 . S
C795 C42 1.346 . S
C825 C19 1.389 . S
C830 C447 1.270 . S
C860 C467 1.000 . S
C855 C28 1.008 . S
C890 C495 1.206 . S
C885 C53 1.283 . S
C915 C9 1.000 . S
C920 C513 0.991 . S
C945 C65 1.368 . S
C950 C354 1.367 . S
C975 C75 0.968 . S
C980 C376 0.958 . S
C1010 C400 1.386 . S
C1005 C93 1.384 . S
C1040 C421 0.940 . S
C1035 C109 0.946 . S
C1065 C56 1.016 . S
C1070 C444 1.011 . S
C1100 C469 1.254 . S
C1095 C81 1.248 . S
C1130 C491 0.976 . S
C1125 C84 0.983 . S
C1160 C515 1.327 . S
C1155 C103 1.328 . S
C1190 C355 0.803 . S
C1185 C107 0.823 . S
C1220 C538 1.103 . S
C1215 C121 1.101 . S
C1245 C131 0.946 . S
C1250 C562 0.896 . S
C1280 C586 1.058 . S
C1275 C140 1.074 . S
C1305 C61 0.889 . S
C1310 C516 0.854 . S
C1340 C401 0.832 . S
C1335 C70 0.860 . S
C1365 C137 1.032 . S
C1370 C607 1.033 . S
C1400 C632 0.975 . S
C1395 C165 0.989 . S
C1425 C173 1.040 . S
C1430 C353 1.019 1_556 S
C1460 C630 0.878 . S
C1455 C182 0.879 . S
C1485 C207 0.984 . S
C1490 C399 0.976 . S
C1515 C219 0.833 . S
C1520 C609 0.825 . S
C1550 C448 0.856 . S
C1545 C187 0.868 . S
C1580 C560 1.012 . S
C1575 C205 1.023 . S
C1610 C492 0.872 . S
C1605 C221 0.872 . S
C1640 C652 0.985 . S
C1635 C168 0.991 . S
C1670 C357 0.798 . S
C1665 C224 0.811 . S
C1695 C243 1.237 . S
C1700 C628 1.216 . S
C1730 C403 0.803 . S
C1725 C252 0.819 . S
C1755 C277 1.152 . S
C1760 C606 1.134 . S
C1785 C233 1.269 . S
C1790 C445 1.243 1_565 S
C1815 C249 0.720 . S
C1820 C564 0.727 . S
C1850 C490 1.274 . S
C1845 C261 1.290 1_545 S
C1875 C271 0.782 . S
C1880 C656 0.774 . S
C1905 C266 1.226 . S
C1910 C356 1.190 . S
C1935 C280 1.102 . S
C1940 C541 1.052 . S
C1965 C299 1.304 . S
C1970 C471 1.262 . S
C1995 C317 1.144 . S
C2000 C585 1.062 . S
C2030 C655 1.253 . S
C2025 C229 1.291 . S
C2060 C402 1.217 . S
C2055 C247 1.257 . S
C2090 C426 1.013 . S
C2085 C305 1.061 . S
C2120 C378 0.998 . S
C2115 C333 1.064 . S
C2145 C33 1.043 . S
C2150 C674 1.029 . S
C2180 C633 1.232 . S
C2175 C51 1.316 . S
C2210 C697 0.968 . S
C2205 C11 0.978 . S
C2235 C14 1.346 . S
C2240 C608 1.242 . S
C2265 C47 1.389 . S
C2270 C539 1.271 . S
C2300 C559 1.000 . S
C2295 C0 1.008 . S
C2330 C587 1.206 . S
C2325 C25 1.283 . S
C2360 C651 0.991 . S
C2355 C37 1.000 . S
C2390 C676 1.367 . S
C2385 C163 1.368 . S
C2415 C117 0.968 . S
C2420 C629 0.958 . S
C2445 C135 1.384 . S
C2450 C699 1.386 . S
C2480 C605 0.941 . S
C2475 C151 0.947 . S
C2510 C536 1.011 . S
C2505 C154 1.016 . S
C2535 C123 1.248 . S
C2540 C561 1.254 . S
C2570 C583 0.976 . S
C2565 C126 0.981 . S
C2595 C145 1.328 . S
C2600 C653 1.326 . S
C2630 C677 0.803 . S
C2625 C149 0.823 . S
C2660 C446 1.092 1_565 S
C2655 C79 1.101 . S
C2690 C470 0.896 . S
C2685 C89 0.946 . S
C2715 C98 1.074 . S
C2720 C494 1.058 . S
C2750 C654 0.854 . S
C2745 C159 0.889 . S
C2775 C112 0.860 . S
C2780 C700 0.832 . S
C2810 C423 1.033 . S
C2805 C95 1.032 . S
C2840 C379 0.975 . S
C2835 C67 0.989 . S
C2865 C201 1.040 . S
C2870 C675 1.029 . S
C2900 C377 0.878 . S
C2895 C210 0.879 . S
C2930 C698 0.976 1_556 S
C2925 C179 0.984 . S
C2955 C191 0.833 . S
C2960 C425 0.825 . S
C2985 C215 0.868 . S
C2990 C540 0.856 . S
C3015 C177 1.023 . S
C3020 C468 1.012 . S
C3045 C193 0.873 . S
C3050 C584 0.872 . S
C3075 C196 0.991 . S
C3080 C514 0.985 . S
C3110 C679 0.798 . S
C3105 C322 0.811 . S
C3135 C285 1.237 . S
C3140 C375 1.216 . S
C3170 C702 0.804 . S
C3165 C294 0.819 . S
C3195 C319 1.152 . S
C3200 C422 1.134 . S
C3225 C331 1.268 . S
C3230 C537 1.250 . S
C3260 C472 0.727 . S
C3255 C291 0.720 . S
C3285 C303 1.295 . S
C3290 C582 1.274 . S
C3320 C518 0.774 . S
C3315 C313 0.782 . S
C3350 C678 1.190 . S
C3345 C308 1.226 . S
C3380 C449 1.052 . S
C3375 C238 1.102 . S
C3405 C257 1.303 . S
C3410 C563 1.256 . S
C3440 C493 1.060 . S
C3435 C275 1.144 . S
C3470 C517 1.253 . S
C3465 C327 1.291 . S
C3495 C289 1.257 . S
C3500 C701 1.217 . S
C3530 C610 1.014 . S
C3525 C263 1.069 . S
C3560 C631 0.998 . S
C3555 C235 1.065 . S
