# Generated by pormake.
# Topology gar, (4,6)-cn, num edge types: 1
# Building blocks:
#     Node 0, Type 0, BuildingBlock: KUFVIS_clean_sbu_0, # of connection points: 4
#     Node 1, Type 0, BuildingBlock: KUFVIS_clean_sbu_0, # of connection points: 4
#     Node 2, Type 0, BuildingBlock: KUFVIS_clean_sbu_0, # of connection points: 4
#     Node 3, Type 0, BuildingBlock: KUFVIS_clean_sbu_0, # of connection points: 4
#     Node 4, Type 0, BuildingBlock: KUFVIS_clean_sbu_0, # of connection points: 4
#     Node 5, Type 0, BuildingBlock: KUFVIS_clean_sbu_0, # of connection points: 4
#     Node 6, Type 0, BuildingBlock: KUFVIS_clean_sbu_0, # of connection points: 4
#     Node 7, Type 0, BuildingBlock: KUFVIS_clean_sbu_0, # of connection points: 4
#     Node 8, Type 0, BuildingBlock: KUFVIS_clean_sbu_0, # of connection points: 4
#     Node 9, Type 0, BuildingBlock: KUFVIS_clean_sbu_0, # of connection points: 4
#     Node 10, Type 0, BuildingBlock: KUFVIS_clean_sbu_0, # of connection points: 4
#     Node 11, Type 0, BuildingBlock: KUFVIS_clean_sbu_0, # of connection points: 4
#     Node 12, Type 0, BuildingBlock: KUFVIS_clean_sbu_0, # of connection points: 4
#     Node 13, Type 0, BuildingBlock: KUFVIS_clean_sbu_0, # of connection points: 4
#     Node 14, Type 0, BuildingBlock: KUFVIS_clean_sbu_0, # of connection points: 4
#     Node 15, Type 0, BuildingBlock: KUFVIS_clean_sbu_0, # of connection points: 4
#     Node 16, Type 0, BuildingBlock: KUFVIS_clean_sbu_0, # of connection points: 4
#     Node 17, Type 0, BuildingBlock: KUFVIS_clean_sbu_0, # of connection points: 4
#     Node 18, Type 0, BuildingBlock: KUFVIS_clean_sbu_0, # of connection points: 4
#     Node 19, Type 0, BuildingBlock: KUFVIS_clean_sbu_0, # of connection points: 4
#     Node 20, Type 0, BuildingBlock: KUFVIS_clean_sbu_0, # of connection points: 4
#     Node 21, Type 0, BuildingBlock: KUFVIS_clean_sbu_0, # of connection points: 4
#     Node 22, Type 0, BuildingBlock: KUFVIS_clean_sbu_0, # of connection points: 4
#     Node 23, Type 0, BuildingBlock: KUFVIS_clean_sbu_0, # of connection points: 4
#     Node 24, Type 1, BuildingBlock: NUHQIS_clean_sbu_0, # of connection points: 6
#     Node 25, Type 1, BuildingBlock: NUHQIS_clean_sbu_0, # of connection points: 6
#     Node 26, Type 1, BuildingBlock: NUHQIS_clean_sbu_0, # of connection points: 6
#     Node 27, Type 1, BuildingBlock: NUHQIS_clean_sbu_0, # of connection points: 6
#     Node 28, Type 1, BuildingBlock: NUHQIS_clean_sbu_0, # of connection points: 6
#     Node 29, Type 1, BuildingBlock: NUHQIS_clean_sbu_0, # of connection points: 6
#     Node 30, Type 1, BuildingBlock: NUHQIS_clean_sbu_0, # of connection points: 6
#     Node 31, Type 1, BuildingBlock: NUHQIS_clean_sbu_0, # of connection points: 6
#     Node 32, Type 1, BuildingBlock: NUHQIS_clean_sbu_0, # of connection points: 6
#     Node 33, Type 1, BuildingBlock: NUHQIS_clean_sbu_0, # of connection points: 6
#     Node 34, Type 1, BuildingBlock: NUHQIS_clean_sbu_0, # of connection points: 6
#     Node 35, Type 1, BuildingBlock: NUHQIS_clean_sbu_0, # of connection points: 6
#     Node 36, Type 1, BuildingBlock: NUHQIS_clean_sbu_0, # of connection points: 6
#     Node 37, Type 1, BuildingBlock: NUHQIS_clean_sbu_0, # of connection points: 6
#     Node 38, Type 1, BuildingBlock: NUHQIS_clean_sbu_0, # of connection points: 6
#     Node 39, Type 1, BuildingBlock: NUHQIS_clean_sbu_0, # of connection points: 6
#     Edge 40, Type (0, 1), BuildingBlock: EZIPEK_clean_linker_0, # of connection points: 2
#     Edge 41, Type (0, 1), BuildingBlock: EZIPEK_clean_linker_0, # of connection points: 2
#     Edge 42, Type (0, 1), BuildingBlock: EZIPEK_clean_linker_0, # of connection points: 2
#     Edge 43, Type (0, 1), BuildingBlock: EZIPEK_clean_linker_0, # of connection points: 2
#     Edge 44, Type (0, 1), BuildingBlock: EZIPEK_clean_linker_0, # of connection points: 2
#     Edge 45, Type (0, 1), BuildingBlock: EZIPEK_clean_linker_0, # of connection points: 2
#     Edge 46, Type (0, 1), BuildingBlock: EZIPEK_clean_linker_0, # of connection points: 2
#     Edge 47, Type (0, 1), BuildingBlock: EZIPEK_clean_linker_0, # of connection points: 2
#     Edge 48, Type (0, 1), BuildingBlock: EZIPEK_clean_linker_0, # of connection points: 2
#     Edge 49, Type (0, 1), BuildingBlock: EZIPEK_clean_linker_0, # of connection points: 2
#     Edge 50, Type (0, 1), BuildingBlock: EZIPEK_clean_linker_0, # of connection points: 2
#     Edge 51, Type (0, 1), BuildingBlock: EZIPEK_clean_linker_0, # of connection points: 2
#     Edge 52, Type (0, 1), BuildingBlock: EZIPEK_clean_linker_0, # of connection points: 2
#     Edge 53, Type (0, 1), BuildingBlock: EZIPEK_clean_linker_0, # of connection points: 2
#     Edge 54, Type (0, 1), BuildingBlock: EZIPEK_clean_linker_0, # of connection points: 2
#     Edge 55, Type (0, 1), BuildingBlock: EZIPEK_clean_linker_0, # of connection points: 2
#     Edge 56, Type (0, 1), BuildingBlock: EZIPEK_clean_linker_0, # of connection points: 2
#     Edge 57, Type (0, 1), BuildingBlock: EZIPEK_clean_linker_0, # of connection points: 2
#     Edge 58, Type (0, 1), BuildingBlock: EZIPEK_clean_linker_0, # of connection points: 2
#     Edge 59, Type (0, 1), BuildingBlock: EZIPEK_clean_linker_0, # of connection points: 2
#     Edge 60, Type (0, 1), BuildingBlock: EZIPEK_clean_linker_0, # of connection points: 2
#     Edge 61, Type (0, 1), BuildingBlock: EZIPEK_clean_linker_0, # of connection points: 2
#     Edge 62, Type (0, 1), BuildingBlock: EZIPEK_clean_linker_0, # of connection points: 2
#     Edge 63, Type (0, 1), BuildingBlock: EZIPEK_clean_linker_0, # of connection points: 2
#     Edge 64, Type (0, 1), BuildingBlock: EZIPEK_clean_linker_0, # of connection points: 2
#     Edge 65, Type (0, 1), BuildingBlock: EZIPEK_clean_linker_0, # of connection points: 2
#     Edge 66, Type (0, 1), BuildingBlock: EZIPEK_clean_linker_0, # of connection points: 2
#     Edge 67, Type (0, 1), BuildingBlock: EZIPEK_clean_linker_0, # of connection points: 2
#     Edge 68, Type (0, 1), BuildingBlock: EZIPEK_clean_linker_0, # of connection points: 2
#     Edge 69, Type (0, 1), BuildingBlock: EZIPEK_clean_linker_0, # of connection points: 2
#     Edge 70, Type (0, 1), BuildingBlock: EZIPEK_clean_linker_0, # of connection points: 2
#     Edge 71, Type (0, 1), BuildingBlock: EZIPEK_clean_linker_0, # of connection points: 2
#     Edge 72, Type (0, 1), BuildingBlock: EZIPEK_clean_linker_0, # of connection points: 2
#     Edge 73, Type (0, 1), BuildingBlock: EZIPEK_clean_linker_0, # of connection points: 2
#     Edge 74, Type (0, 1), BuildingBlock: EZIPEK_clean_linker_0, # of connection points: 2
#     Edge 75, Type (0, 1), BuildingBlock: EZIPEK_clean_linker_0, # of connection points: 2
#     Edge 76, Type (0, 1), BuildingBlock: EZIPEK_clean_linker_0, # of connection points: 2
#     Edge 77, Type (0, 1), BuildingBlock: EZIPEK_clean_linker_0, # of connection points: 2
#     Edge 78, Type (0, 1), BuildingBlock: EZIPEK_clean_linker_0, # of connection points: 2
#     Edge 79, Type (0, 1), BuildingBlock: EZIPEK_clean_linker_0, # of connection points: 2
#     Edge 80, Type (0, 1), BuildingBlock: EZIPEK_clean_linker_0, # of connection points: 2
#     Edge 81, Type (0, 1), BuildingBlock: EZIPEK_clean_linker_0, # of connection points: 2
#     Edge 82, Type (0, 1), BuildingBlock: EZIPEK_clean_linker_0, # of connection points: 2
#     Edge 83, Type (0, 1), BuildingBlock: EZIPEK_clean_linker_0, # of connection points: 2
#     Edge 84, Type (0, 1), BuildingBlock: EZIPEK_clean_linker_0, # of connection points: 2
#     Edge 85, Type (0, 1), BuildingBlock: EZIPEK_clean_linker_0, # of connection points: 2
#     Edge 86, Type (0, 1), BuildingBlock: EZIPEK_clean_linker_0, # of connection points: 2
#     Edge 87, Type (0, 1), BuildingBlock: EZIPEK_clean_linker_0, # of connection points: 2
#     Edge 88, Type (0, 1), BuildingBlock: EZIPEK_clean_linker_0, # of connection points: 2
#     Edge 89, Type (0, 1), BuildingBlock: EZIPEK_clean_linker_0, # of connection points: 2
#     Edge 90, Type (0, 1), BuildingBlock: EZIPEK_clean_linker_0, # of connection points: 2
#     Edge 91, Type (0, 1), BuildingBlock: EZIPEK_clean_linker_0, # of connection points: 2
#     Edge 92, Type (0, 1), BuildingBlock: EZIPEK_clean_linker_0, # of connection points: 2
#     Edge 93, Type (0, 1), BuildingBlock: EZIPEK_clean_linker_0, # of connection points: 2
#     Edge 94, Type (0, 1), BuildingBlock: EZIPEK_clean_linker_0, # of connection points: 2
#     Edge 95, Type (0, 1), BuildingBlock: EZIPEK_clean_linker_0, # of connection points: 2
#     Edge 96, Type (0, 1), BuildingBlock: EZIPEK_clean_linker_0, # of connection points: 2
#     Edge 97, Type (0, 1), BuildingBlock: EZIPEK_clean_linker_0, # of connection points: 2
#     Edge 98, Type (0, 1), BuildingBlock: EZIPEK_clean_linker_0, # of connection points: 2
#     Edge 99, Type (0, 1), BuildingBlock: EZIPEK_clean_linker_0, # of connection points: 2
#     Edge 100, Type (0, 1), BuildingBlock: EZIPEK_clean_linker_0, # of connection points: 2
#     Edge 101, Type (0, 1), BuildingBlock: EZIPEK_clean_linker_0, # of connection points: 2
#     Edge 102, Type (0, 1), BuildingBlock: EZIPEK_clean_linker_0, # of connection points: 2
#     Edge 103, Type (0, 1), BuildingBlock: EZIPEK_clean_linker_0, # of connection points: 2
#     Edge 104, Type (0, 1), BuildingBlock: EZIPEK_clean_linker_0, # of connection points: 2
#     Edge 105, Type (0, 1), BuildingBlock: EZIPEK_clean_linker_0, # of connection points: 2
#     Edge 106, Type (0, 1), BuildingBlock: EZIPEK_clean_linker_0, # of connection points: 2
#     Edge 107, Type (0, 1), BuildingBlock: EZIPEK_clean_linker_0, # of connection points: 2
#     Edge 108, Type (0, 1), BuildingBlock: EZIPEK_clean_linker_0, # of connection points: 2
#     Edge 109, Type (0, 1), BuildingBlock: EZIPEK_clean_linker_0, # of connection points: 2
#     Edge 110, Type (0, 1), BuildingBlock: EZIPEK_clean_linker_0, # of connection points: 2
#     Edge 111, Type (0, 1), BuildingBlock: EZIPEK_clean_linker_0, # of connection points: 2
#     Edge 112, Type (0, 1), BuildingBlock: EZIPEK_clean_linker_0, # of connection points: 2
#     Edge 113, Type (0, 1), BuildingBlock: EZIPEK_clean_linker_0, # of connection points: 2
#     Edge 114, Type (0, 1), BuildingBlock: EZIPEK_clean_linker_0, # of connection points: 2
#     Edge 115, Type (0, 1), BuildingBlock: EZIPEK_clean_linker_0, # of connection points: 2
#     Edge 116, Type (0, 1), BuildingBlock: EZIPEK_clean_linker_0, # of connection points: 2
#     Edge 117, Type (0, 1), BuildingBlock: EZIPEK_clean_linker_0, # of connection points: 2
#     Edge 118, Type (0, 1), BuildingBlock: EZIPEK_clean_linker_0, # of connection points: 2
#     Edge 119, Type (0, 1), BuildingBlock: EZIPEK_clean_linker_0, # of connection points: 2
#     Edge 120, Type (0, 1), BuildingBlock: EZIPEK_clean_linker_0, # of connection points: 2
#     Edge 121, Type (0, 1), BuildingBlock: EZIPEK_clean_linker_0, # of connection points: 2
#     Edge 122, Type (0, 1), BuildingBlock: EZIPEK_clean_linker_0, # of connection points: 2
#     Edge 123, Type (0, 1), BuildingBlock: EZIPEK_clean_linker_0, # of connection points: 2
#     Edge 124, Type (0, 1), BuildingBlock: EZIPEK_clean_linker_0, # of connection points: 2
#     Edge 125, Type (0, 1), BuildingBlock: EZIPEK_clean_linker_0, # of connection points: 2
#     Edge 126, Type (0, 1), BuildingBlock: EZIPEK_clean_linker_0, # of connection points: 2
#     Edge 127, Type (0, 1), BuildingBlock: EZIPEK_clean_linker_0, # of connection points: 2
#     Edge 128, Type (0, 1), BuildingBlock: EZIPEK_clean_linker_0, # of connection points: 2
#     Edge 129, Type (0, 1), BuildingBlock: EZIPEK_clean_linker_0, # of connection points: 2
#     Edge 130, Type (0, 1), BuildingBlock: EZIPEK_clean_linker_0, # of connection points: 2
#     Edge 131, Type (0, 1), BuildingBlock: EZIPEK_clean_linker_0, # of connection points: 2
#     Edge 132, Type (0, 1), BuildingBlock: EZIPEK_clean_linker_0, # of connection points: 2
#     Edge 133, Type (0, 1), BuildingBlock: EZIPEK_clean_linker_0, # of connection points: 2
#     Edge 134, Type (0, 1), BuildingBlock: EZIPEK_clean_linker_0, # of connection points: 2
#     Edge 135, Type (0, 1), BuildingBlock: EZIPEK_clean_linker_0, # of connection points: 2
# Relax obj value: 0.287
# Max RMSD: 0.370
# Mean RMSD: 0.147
data_MOF--net-gar--node1-KUFVIS_clean_sbu_0--node2-NUHQIS_clean_sbu_0--edge1-EZIPEK_clean_linker_0
_symmetry_space_group_name_H-M    P1
_symmetry_Int_Tables_number       1
_symmetry_cell_setting            triclinic
loop_
_symmetry_equiv_pos_as_xyz
'x, y, z'
_cell_length_a     42.629641
_cell_length_b     45.021875
_cell_length_c     43.178579
_cell_angle_alpha  92.41391
_cell_angle_beta   97.422596
_cell_angle_gamma 101.29334
loop_
_atom_site_label
_atom_site_type_symbol
_atom_site_fract_x
_atom_site_fract_y
_atom_site_fract_z
_atom_type_partial_charge
Mn0 Mn 0.09718 0.31665 0.43809 0.0
Mn1 Mn 0.0995 0.36815 0.38007 0.0
C2 C 0.04603 0.32476 0.40592 0.0
C3 C 0.09633 0.26227 0.46224 0.0
C4 C 0.1077 0.39232 0.44998 0.0
O5 O 0.14574 0.3205 0.42231 0.0
O6 O 0.14279 0.35377 0.38496 0.0
C7 C 0.1019 0.32586 0.32616 0.0
N8 N 0.08733 0.34632 0.33987 0.0
C9 C 0.04714 0.3423 0.2944 0.0
C10 C 0.06181 0.32128 0.27987 0.0
C11 C 0.08924 0.31296 0.29587 0.0
C12 C 0.06069 0.35425 0.32475 0.0
H13 H 0.12301 0.31936 0.33817 0.0
C14 C 0.15818 0.3351 0.39933 0.0
O15 O 0.10528 0.28888 0.47711 0.0
O16 O 0.08888 0.26704 0.43285 0.0
N17 N 0.06065 0.38362 0.37045 0.0
C18 C 0.04901 0.40416 0.38756 0.0
C19 C 1.02165 0.41478 0.37473 0.0
C20 C 1.00665 0.40455 0.34428 0.0
C21 C 1.01932 0.38394 0.32683 0.0
C22 C 0.04682 0.37426 0.34076 0.0
H23 H 0.06036 0.41257 0.41086 0.0
O24 O 0.04684 0.31328 0.43307 0.0
O25 O 0.07527 0.33154 0.39837 0.0
O26 O 0.10413 0.36462 0.46003 0.0
O27 O 0.1105 0.39522 0.42083 0.0
C28 C 1.00561 0.37254 0.29617 0.0
C29 C 1.01942 0.35163 0.28002 0.0
H30 H 0.05214 0.31129 0.25648 0.0
H31 H 0.10067 0.29667 0.28485 0.0
H32 H 1.01217 0.43088 0.38829 0.0
H33 H 0.98546 0.41272 0.33451 0.0
H34 H 0.98426 0.37951 0.2849 0.0
H35 H 1.00843 0.34275 0.25659 0.0
Mn36 Mn 0.08229 0.82111 0.6705 0.0
Mn37 Mn 0.09913 0.87786 0.72988 0.0
C38 C 0.1383 0.83665 0.70089 0.0
C39 C 0.07371 0.76391 0.6461 0.0
C40 C 0.08764 0.89533 0.66022 0.0
O41 O 1.03469 0.82067 0.6891 0.0
O42 O 0.05094 0.85864 0.72701 0.0
C43 C 0.08789 0.84046 0.78388 0.0
N44 N 0.10795 0.86089 0.76923 0.0
C45 C 0.15131 0.86427 0.81173 0.0
C46 C 0.13103 0.84345 0.82732 0.0
C47 C 0.09923 0.83142 0.81327 0.0
C48 C 0.1387 0.87243 0.78246 0.0
H49 H 0.06345 0.83098 0.77323 0.0
C50 C 1.02803 0.83743 0.71272 0.0
O51 O 0.06729 0.78706 0.63136 0.0
O52 O 0.08183 0.77311 0.67556 0.0
N53 N 0.14383 0.89764 0.73683 0.0
C54 C 0.16093 0.91627 0.7181 0.0
C55 C 0.19352 0.92935 0.72835 0.0
C56 C 0.20822 0.92324 0.75774 0.0
C57 C 0.19014 0.90418 0.77671 0.0
C58 C 0.15767 0.8919 0.76534 0.0
H59 H 0.14995 0.921 0.6954 0.0
O60 O 0.13243 0.82515 0.67223 0.0
O61 O 0.11129 0.8412 0.71005 0.0
O62 O 0.08347 0.8667 0.64927 0.0
O63 O 0.09177 0.90069 0.69018 0.0
C64 C 0.20318 0.89664 0.80631 0.0
C65 C 0.18375 0.87677 0.82384 0.0
H66 H 0.13972 0.83631 0.84993 0.0
H67 H 0.08349 0.81516 0.82504 0.0
H68 H 0.20734 0.94399 0.71354 0.0
H69 H 0.23344 0.9332 0.76546 0.0
H70 H 0.22821 0.90574 0.81567 0.0
H71 H 0.19417 0.87084 0.8464 0.0
Mn72 Mn 0.59156 0.81838 0.93925 0.0
Mn73 Mn 0.58763 0.86805 0.88013 0.0
C74 C 0.53753 0.825 0.90992 0.0
C75 C 0.59267 0.76313 0.96292 0.0
C76 C 0.60004 0.89512 0.94965 0.0
O77 O 0.63888 0.82255 0.91971 0.0
O78 O 0.63238 0.85646 0.88471 0.0
C79 C 0.58888 0.82151 0.82962 0.0
N80 N 0.5751 0.84366 0.84133 0.0
C81 C 0.53316 0.83533 0.79693 0.0
C82 C 0.54772 0.81337 0.7839 0.0
C83 C 0.57552 0.80623 0.80046 0.0
C84 C 0.5476 0.84986 0.82609 0.0
H85 H 0.60976 0.8153 0.84246 0.0
C86 C 0.64984 0.83823 0.89663 0.0
O87 O 0.60256 0.78982 0.97762 0.0
O88 O 0.58328 0.76841 0.93406 0.0
N89 N 0.54762 0.88142 0.87024 0.0
C90 C 0.53591 0.90273 0.88618 0.0
C91 C 0.50789 0.91205 0.8729 0.0
C92 C 0.49222 0.8996 0.84328 0.0
C93 C 0.50494 0.87817 0.82704 0.0
C94 C 0.53334 0.87017 0.84118 0.0
H95 H 0.5477 0.91267 0.90889 0.0
O96 O 0.54084 0.81431 0.93737 0.0
O97 O 0.56594 0.83202 0.90065 0.0
O98 O 0.59964 0.8677 0.96044 0.0
O99 O 0.59826 0.89669 0.91975 0.0
C100 C 0.49044 0.86435 0.79742 0.0
C101 C 0.5044 0.84278 0.78248 0.0
H102 H 0.53737 0.8014 0.76149 0.0
H103 H 0.58651 0.78882 0.79089 0.0
H104 H 0.49828 0.92869 0.88557 0.0
H105 H 0.47035 0.90655 0.8333 0.0
H106 H 0.46831 0.86987 0.78609 0.0
H107 H 0.49271 0.83189 0.75996 0.0
Mn108 Mn 0.58977 0.32382 0.17867 0.0
Mn109 Mn 0.5271 0.31361 0.12106 0.0
C110 C 0.57161 0.27094 0.14924 0.0
C111 C 0.64879 0.33237 0.2039 0.0
C112 C 0.51487 0.32135 0.19141 0.0
O113 O 0.59115 0.37066 0.16149 0.0
O114 O 0.54879 0.35998 0.12336 0.0
C115 C 0.56146 0.32712 0.06618 0.0
N116 N 0.54122 0.30741 0.08138 0.0
C117 C 0.53556 0.26805 0.04031 0.0
C118 C 0.55607 0.28805 0.02414 0.0
C119 C 0.56909 0.31769 0.03716 0.0
C120 C 0.52854 0.27881 0.06903 0.0
H121 H 0.57193 0.34983 0.07615 0.0
C122 C 0.57298 0.38002 0.13813 0.0
O123 O 0.62497 0.33652 0.21816 0.0
O124 O 0.6389 0.32556 0.17421 0.0
N125 N 0.50495 0.27198 0.11462 0.0
C126 C 0.48759 0.25469 0.1342 0.0
C127 C 0.47404 0.22407 0.12516 0.0
C128 C 0.4786 0.21144 0.09621 0.0
C129 C 0.49668 0.22957 0.07651 0.0
C130 C 0.50942 0.26004 0.08665 0.0
H131 H 0.48439 0.26401 0.15673 0.0
O132 O 0.58511 0.27597 0.1782 0.0
O133 O 0.5666 0.29757 0.13925 0.0
O134 O 0.54556 0.32333 0.20123 0.0
O135 O 0.50637 0.31855 0.16142 0.0
C136 C 0.50315 0.2184 0.04755 0.0
C137 C 0.52251 0.23764 0.02942 0.0
H138 H 0.56229 0.28077 1.0019 0.0
H139 H 0.58517 0.33318 0.02494 0.0
H140 H 0.46038 0.21015 0.14063 0.0
H141 H 0.4684 0.18772 0.08948 0.0
H142 H 0.49372 0.19492 0.03918 0.0
H143 H 0.52766 0.22867 1.00738 0.0
Mn144 Mn 0.16686 0.90025 0.17072 0.0
Mn145 Mn 0.10221 0.85936 0.12317 0.0
C146 C 0.15347 0.84805 0.17168 0.0
C147 C 0.22134 0.9198 0.18681 0.0
C148 C 0.09721 0.89229 0.1837 0.0
O149 O 0.15916 0.93037 0.1385 0.0
O150 O 0.11345 0.90198 0.11142 0.0
C151 C 0.13422 0.85928 0.06617 0.0
N152 N 0.11781 0.84378 0.08748 0.0
C153 C 0.11799 0.79585 0.06063 0.0
C154 C 0.13508 0.81134 0.03852 0.0
C155 C 0.14329 0.84321 0.04136 0.0
C156 C 0.11017 0.8131 0.08519 0.0
H157 H 0.14019 0.88369 0.06801 0.0
C158 C 0.13487 0.92653 0.11707 0.0
O159 O 0.19919 0.93062 0.19879 0.0
O160 O 0.21137 0.90083 0.16233 0.0
N161 N 0.08797 0.81774 0.13117 0.0
C162 C 0.06912 0.80638 0.15288 0.0
C163 C 0.05733 0.77496 0.15234 0.0
C164 C 0.06422 0.7556 0.12895 0.0
C165 C 0.08287 0.76782 0.10634 0.0
C166 C 0.09382 0.79935 0.10797 0.0
H167 H 0.06297 0.8212 0.17044 0.0
O168 O 0.17 0.86456 0.1958 0.0
O169 O 0.1449 0.86237 0.14749 0.0
O170 O 0.12654 0.9061 0.18843 0.0
O171 O 0.08508 0.87346 0.16025 0.0
C172 C 0.09037 0.75 0.08181 0.0
C173 C 0.10818 0.76398 0.05911 0.0
H174 H 0.14185 0.79903 1.01919 0.0
H175 H 0.15638 0.85536 0.02434 0.0
H176 H 0.04259 0.76574 0.16964 0.0
H177 H 0.05441 0.73147 0.12813 0.0
H178 H 0.08248 0.72555 0.08019 0.0
H179 H 0.11384 0.75003 0.04038 0.0
Mn180 Mn 0.51589 0.74461 0.42461 0.0
Mn181 Mn 0.51923 0.76805 0.35246 0.0
C182 C 0.46721 0.74072 0.39212 0.0
C183 C 0.53176 0.71064 0.45807 0.0
C184 C 0.52874 0.80975 0.41181 0.0
O185 O 0.56246 0.75492 0.41999 0.0
O186 O 0.55856 0.75286 0.36797 0.0
C187 C 0.5169 0.70897 0.31857 0.0
N188 N 0.50549 0.73502 0.32139 0.0
C189 C 0.46982 0.72214 0.27281 0.0
C190 C 0.48122 0.69518 0.26928 0.0
C191 C 0.50468 0.68845 0.29242 0.0
C192 C 0.48217 0.74121 0.29987 0.0
H193 H 0.53526 0.704 0.33611 0.0
C194 C 0.57446 0.75315 0.39512 0.0
O195 O 0.53025 0.73766 0.46839 0.0
O196 O 0.52008 0.70196 0.42894 0.0
N197 N 0.48373 0.78392 0.33287 0.0
C198 C 0.47703 0.81187 0.3387 0.0
C199 C 0.45594 0.82319 0.31671 0.0
C200 C 0.44218 0.80592 0.2887 0.0
C201 C 0.44985 0.77753 0.28284 0.0
C202 C 0.4714 0.76759 0.30545 0.0
H203 H 0.48827 0.82584 0.35962 0.0
O204 O 0.46756 0.73446 0.42128 0.0
O205 O 0.49505 0.74405 0.3819 0.0
O206 O 0.51753 0.78951 0.42925 0.0
O207 O 0.53266 0.80358 0.38345 0.0
C208 C 0.43749 0.75899 0.25513 0.0
C209 C 0.44707 0.73107 0.25036 0.0
H210 H 0.47225 0.67956 0.24887 0.0
H211 H 0.5136 0.66769 0.28989 0.0
H212 H 0.45059 0.84536 0.32121 0.0
H213 H 0.42595 0.81477 0.27177 0.0
H214 H 0.42052 0.76596 0.2374 0.0
H215 H 0.43721 0.71689 0.22909 0.0
Mn216 Mn 0.66924 0.38968 0.67198 0.0
Mn217 Mn 0.60292 0.34627 0.62891 0.0
C218 C 0.65737 0.33787 0.67533 0.0
C219 C 0.72426 0.4097 0.68447 0.0
C220 C 0.60155 0.38001 0.69033 0.0
O221 O 0.65828 0.41833 0.63901 0.0
O222 O 0.61201 0.38827 0.61502 0.0
C223 C 0.63052 0.34468 0.56939 0.0
N224 N 0.6161 0.32981 0.59224 0.0
C225 C 0.61446 0.28132 0.5657 0.0
C226 C 0.6295 0.29617 0.542 0.0
C227 C 0.63765 0.32802 0.54392 0.0
C228 C 0.60859 0.29916 0.59084 0.0
H229 H 0.63635 0.36902 0.57053 0.0
C230 C 0.63303 0.41315 0.61854 0.0
O231 O 0.703 0.42098 0.69753 0.0
O232 O 0.71285 0.3903 0.66058 0.0
N233 N 0.5904 0.30496 0.63884 0.0
C234 C 0.57373 0.29417 0.6623 0.0
C235 C 0.56197 0.26284 0.66277 0.0
C236 C 0.56668 0.24298 0.63867 0.0
C237 C 0.5834 0.25457 0.61451 0.0
C238 C 0.59435 0.28604 0.61515 0.0
H239 H 0.56909 0.30935 0.68041 0.0
O240 O 0.6752 0.35539 0.69808 0.0
O241 O 0.64687 0.35091 0.65089 0.0
O242 O 0.6303 0.39523 0.69275 0.0
O243 O 0.58847 0.36101 0.66724 0.0
C244 C 0.58895 0.23618 0.58944 0.0
C245 C 0.60481 0.24953 0.5652 0.0
H246 H 0.6347 0.28337 0.52215 0.0
H247 H 0.64915 0.33971 0.52567 0.0
H248 H 0.54881 0.25407 0.68135 0.0
H249 H 0.55673 0.21893 0.63855 0.0
H250 H 0.58115 0.21176 0.58868 0.0
H251 H 0.60922 0.23523 0.54612 0.0
Mn252 Mn 1.03143 0.25422 0.93036 0.0
Mn253 Mn 1.02913 0.26652 0.85386 0.0
C254 C 0.98052 0.24525 0.89968 0.0
C255 C 0.04769 0.22556 0.9711 0.0
C256 C 0.04027 0.31619 0.90615 0.0
O257 O 0.07782 0.26366 0.922 0.0
O258 O 0.06942 0.2537 0.87027 0.0
C259 C 1.02618 0.20375 0.82857 0.0
N260 N 1.01476 0.22994 0.82767 0.0
C261 C 0.97902 0.21189 0.78005 0.0
C262 C 0.99041 0.18469 0.78034 0.0
C263 C 1.01389 0.1805 0.80489 0.0
C264 C 0.99148 0.23381 0.8048 0.0
H265 H 0.0446 0.20076 0.84717 0.0
C266 C 0.08801 0.25908 0.89631 0.0
O267 O 0.04784 0.25416 0.97555 0.0
O268 O 1.03619 0.21281 0.9432 0.0
N269 N 0.99241 0.27947 0.83274 0.0
C270 C 0.98494 0.30749 0.83529 0.0
C271 C 0.96386 0.31638 0.81139 0.0
C272 C 0.95047 0.2964 0.78507 0.0
C273 C 0.95855 0.26778 0.78276 0.0
C274 C 0.98042 0.26049 0.80692 0.0
H275 H 0.99577 0.32345 0.85487 0.0
O276 O 0.98363 0.24389 0.92984 0.0
O277 O 1.0075 0.24711 0.88788 0.0
O278 O 1.03121 0.29906 0.92749 0.0
O279 O 0.04361 0.30609 0.87886 0.0
C280 C 0.94621 0.24638 0.75717 0.0
C281 C 0.95601 0.21823 0.75609 0.0
H282 H 0.98135 0.1669 0.76185 0.0
H283 H 1.02278 0.15957 0.8053 0.0
H284 H 0.95819 0.33873 0.81313 0.0
H285 H 0.93408 0.30331 0.76675 0.0
H286 H 0.92898 0.25127 0.73833 0.0
H287 H 0.94606 0.2018 0.73652 0.0
Mn288 Mn 0.54675 0.16633 0.34545 0.0
Mn289 Mn 0.48924 0.15435 0.39336 0.0
C290 C 0.51971 0.11543 0.35335 0.0
C291 C 0.59169 0.1568 0.32081 0.0
C292 C 0.56209 0.17524 0.4155 0.0
O293 O 0.53377 0.20674 0.35355 0.0
O294 O 0.48682 0.19158 0.37141 0.0
C295 C 0.4279 0.14594 0.34974 0.0
N296 N 0.44735 0.1352 0.37233 0.0
C297 C 0.40655 0.09036 0.37451 0.0
C298 C 0.38614 0.10096 0.35133 0.0
C299 C 0.39693 0.12879 0.33879 0.0
C300 C 0.43724 0.10835 0.38439 0.0
H301 H 0.43588 0.16741 0.34008 0.0
C302 C 0.50538 0.20989 0.35668 0.0
O303 O 0.57132 0.1351 0.33051 0.0
O304 O 0.58736 0.18366 0.32707 0.0
N305 N 0.48814 0.11758 0.41418 0.0
C306 C 0.51097 0.11008 0.43571 0.0
C307 C 0.50394 0.08294 0.45041 0.0
C308 C 0.47385 0.06322 0.44238 0.0
C309 C 0.45072 0.07123 0.41996 0.0
C310 C 0.45883 0.099 0.40652 0.0
H311 H 0.53418 0.12494 0.44225 0.0
O312 O 0.5466 0.12042 0.34162 0.0
O313 O 0.50938 0.13969 0.3593 0.0
O314 O 0.57156 0.16956 0.38946 0.0
O315 O 0.53208 0.17357 0.41807 0.0
C316 C 0.41986 0.05291 0.41062 0.0
C317 C 0.39779 0.06245 0.38789 0.0
H318 H 0.36224 0.08779 0.34281 0.0
H319 H 0.38136 0.137 0.32077 0.0
H320 H 0.52159 0.07781 0.4684 0.0
H321 H 0.46868 0.04217 0.45376 0.0
H322 H 0.41286 0.0314 0.42072 0.0
H323 H 0.37424 0.04804 0.38069 0.0
Mn324 Mn 0.35633 0.20796 0.5622 0.0
Mn325 Mn 0.33916 0.14953 0.50532 0.0
C326 C 0.29954 0.17755 0.54811 0.0
C327 C 0.36351 0.23385 0.61893 0.0
C328 C 0.35525 0.21689 0.48622 0.0
O329 O 0.4028 0.19088 0.56272 0.0
O330 O 0.387 0.15385 0.5237 0.0
C331 C 0.34713 0.09865 0.54515 0.0
N332 N 0.32828 0.11179 0.52419 0.0
C333 C 0.28267 0.07084 0.52499 0.0
C334 C 0.3017 0.05682 0.54636 0.0
C335 C 0.33405 0.07081 0.5565 0.0
C336 C 0.29707 0.09851 0.51432 0.0
H337 H 0.37191 0.10935 0.55337 0.0
C338 C 0.40928 0.16825 0.54542 0.0
O339 O 0.37206 0.24722 0.59442 0.0
O340 O 0.35418 0.20486 0.61145 0.0
N341 N 0.29482 0.14135 0.48639 0.0
C342 C 0.27909 0.15853 0.46702 0.0
C343 C 0.24631 0.14794 0.45532 0.0
C344 C 0.22997 0.11988 0.46368 0.0
C345 C 0.24662 0.10255 0.48355 0.0
C346 C 0.27942 0.11406 0.49417 0.0
H347 H 0.29131 0.18028 0.4607 0.0
O348 O 0.3063 0.20573 0.55885 0.0
O349 O 0.32632 0.16891 0.54322 0.0
O350 O 0.35936 0.22766 0.51556 0.0
O351 O 0.34858 0.18777 0.48095 0.0
C352 C 0.23177 0.07459 0.49371 0.0
C353 C 0.24978 0.05875 0.51442 0.0
H354 H 0.29163 0.03546 0.55538 0.0
H355 H 0.34883 0.06023 0.57317 0.0
H356 H 0.23358 0.16154 0.44013 0.0
H357 H 0.20456 0.112 0.45496 0.0
H358 H 0.2064 0.06525 0.48605 0.0
H359 H 0.23798 0.03747 0.5224 0.0
Mn360 Mn 0.24285 0.11596 0.86804 0.0
Mn361 Mn 0.30078 0.14859 0.92397 0.0
C362 C 0.26063 0.16772 0.86815 0.0
C363 C 0.224 0.08591 0.82183 0.0
C364 C 0.23442 0.11506 0.93307 0.0
O365 O 0.26538 0.08272 0.88591 0.0
O366 O 0.31331 0.11153 0.90801 0.0
C367 C 0.36084 0.16731 0.89598 0.0
N368 N 0.33659 0.17489 0.91033 0.0
C369 C 0.3598 0.22814 0.91057 0.0
C370 C 0.38435 0.2209 0.89479 0.0
C371 C 0.38497 0.19032 0.88764 0.0
C372 C 0.33622 0.20421 0.91801 0.0
H373 H 0.36191 0.14388 0.89119 0.0
C374 C 0.29578 0.08639 0.89537 0.0
O375 O 0.20738 0.08578 0.84483 0.0
O376 O 0.25201 0.1044 0.8254 0.0
N377 N 0.28931 0.18523 0.9391 0.0
C378 C 0.26419 0.18867 0.9546 0.0
C379 C 0.26067 0.21789 0.96414 0.0
C380 C 0.28319 0.24336 0.95799 0.0
C381 C 0.30911 0.23936 0.94248 0.0
C382 C 0.31136 0.20967 0.93345 0.0
H383 H 0.24694 0.16942 0.95993 0.0
O384 O 0.23241 0.15499 0.85307 0.0
O385 O 0.27687 0.14941 0.88212 0.0
O386 O 0.22241 0.1216 0.90667 0.0
O387 O 0.26491 0.12143 0.94133 0.0
C388 C 0.33262 0.26373 0.93533 0.0
C389 C 0.35785 0.25817 0.91923 0.0
H390 H 0.40303 0.2386 0.88837 0.0
H391 H 0.40412 0.1845 0.87592 0.0
H392 H 0.24067 0.22076 0.97627 0.0
H393 H 0.28033 0.26589 0.96528 0.0
H394 H 0.33124 0.28684 0.94188 0.0
H395 H 0.37564 0.27715 0.91366 0.0
Mn396 Mn 0.36589 0.91528 0.06899 0.0
Mn397 Mn 0.36163 0.97522 0.02414 0.0
C398 C 0.41353 0.9487 0.05945 0.0
C399 C 0.3661 0.89419 0.12002 0.0
C400 C 0.348 0.90959 0.9959 0.0
O401 O 0.31923 0.9216 0.06949 0.0
O402 O 0.32265 0.96524 0.04509 0.0
C403 C 0.36391 1.0226 0.07464 0.0
N404 N 0.37604 1.01251 0.0494 0.0
C405 C 0.41518 0.05919 0.05116 0.0
C406 C 0.40305 0.07011 0.07709 0.0
C407 C 0.37743 0.05165 0.08899 0.0
C408 C 0.40111 0.02984 0.03816 0.0
H409 H 0.3441 1.00859 0.0838 0.0
C410 C 0.30849 0.94535 0.06174 0.0
O411 O 0.35832 0.87757 0.0938 0.0
O412 O 0.37405 0.92304 0.11655 0.0
N413 N 0.39848 0.98823 1.0033 0.0
C414 C 0.40777 0.97421 0.97842 0.0
C415 C 0.433 0.98974 0.96366 0.0
C416 C 0.44809 1.01967 0.97425 0.0
C417 C 0.43795 0.03375 0.99968 0.0
C418 C 0.41268 1.01716 1.01348 0.0
H419 H 0.39593 0.95142 0.96971 0.0
O420 O 0.4145 0.92164 0.06836 0.0
O421 O 0.38503 0.95495 0.05603 0.0
O422 O 0.35537 0.89747 1.02174 0.0
O423 O 0.3473 0.93787 0.99522 0.0
C424 C 0.45185 0.06364 1.01182 0.0
C425 C 0.44075 0.07623 0.03776 0.0
H426 H 0.41329 0.09259 0.0881 0.0
H427 H 0.36799 0.05987 0.10906 0.0
H428 H 0.44065 0.97872 0.94401 0.0
H429 H 0.46753 0.03157 0.96279 0.0
H430 H 0.47122 0.07712 1.00151 0.0
H431 H 0.45201 0.09906 0.04719 0.0
Mn432 Mn 0.32887 0.44788 0.06675 0.0
Mn433 Mn 0.33549 0.50489 1.0155 0.0
C434 C 0.38334 0.47822 0.05922 0.0
C435 C 0.32484 0.42231 0.12055 0.0
C436 C 0.32451 0.43723 0.99029 0.0
O437 O 0.28125 0.46273 0.06269 0.0
O438 O 0.28989 0.49871 0.02843 0.0
C439 C 0.33066 0.55566 0.05964 0.0
N440 N 0.34682 0.5436 0.03863 0.0
C441 C 0.38747 0.58954 0.04284 0.0
C442 C 0.37102 0.60252 0.06419 0.0
C443 C 0.34263 0.58541 0.07279 0.0
C444 C 0.37458 0.55965 0.03075 0.0
H445 H 0.30881 0.54275 0.0664 0.0
C446 C 0.27139 0.48466 0.047 0.0
O447 O 0.31609 0.40888 0.09279 0.0
O448 O 0.33431 0.45123 0.11733 0.0
N449 N 0.37671 0.51585 1.00111 0.0
C450 C 0.3905 0.49982 0.98104 0.0
C451 C 0.41975 0.5134 0.97116 0.0
C452 C 0.43425 0.54353 0.98143 0.0
C453 C 0.41931 0.55984 1.00143 0.0
C454 C 0.39028 0.54505 1.01073 0.0
H455 H 0.37952 0.47675 0.9727 0.0
O456 O 0.37893 0.45134 0.06981 0.0
O457 O 0.35556 0.48678 0.05304 0.0
O458 O 0.32348 0.42711 1.01826 0.0
O459 O 0.32579 0.46577 0.98733 0.0
C460 C 0.43222 0.59018 1.01264 0.0
C461 C 0.41632 0.60501 0.03335 0.0
H462 H 0.38012 0.6255 0.07432 0.0
H463 H 0.32992 0.59519 0.08944 0.0
H464 H 0.43105 0.50067 0.9556 0.0
H465 H 0.45685 0.55391 0.97379 0.0
H466 H 0.45462 0.60218 1.00584 0.0
H467 H 0.42676 0.62818 0.04221 0.0
Mn468 Mn 0.80965 0.24501 0.04787 0.0
Mn469 Mn 0.78522 0.18654 0.99166 0.0
C470 C 0.75504 0.21744 0.03862 0.0
C471 C 0.82956 0.26333 0.10227 0.0
C472 C 0.80291 0.25328 0.97628 0.0
O473 O 0.85247 0.23233 0.03907 0.0
O474 O 0.83067 0.18915 1.00867 0.0
C475 C 0.79003 0.13497 0.03117 0.0
N476 N 0.77234 0.14903 1.01011 0.0
C477 C 0.72668 0.1074 1.00602 0.0
C478 C 0.74433 0.09253 0.0278 0.0
C479 C 0.77609 0.10645 0.04054 0.0
C480 C 0.74158 0.13611 0.99818 0.0
H481 H 0.81454 0.14552 0.04082 0.0
C482 C 0.85478 0.20754 0.02414 0.0
O483 O 0.83236 0.28076 0.07917 0.0
O484 O 0.81691 0.23513 0.09371 0.0
N485 N 0.74103 0.18078 0.97302 0.0
C486 C 0.72732 0.19813 0.95226 0.0
C487 C 0.6962 0.1868 0.93611 0.0
C488 C 0.67968 0.15758 0.94106 0.0
C489 C 0.69417 0.14016 0.96261 0.0
C490 C 0.72532 0.15256 0.97786 0.0
H491 H 0.74023 0.22022 0.94757 0.0
O492 O 0.76228 0.24444 0.05273 0.0
O493 O 0.77941 0.20827 0.02973 0.0
O494 O 0.80627 0.26516 1.00451 0.0
O495 O 0.79735 0.2245 0.96995 0.0
C496 C 0.67887 0.11103 0.96966 0.0
C497 C 0.69496 0.09485 0.99169 0.0
H498 H 0.73376 0.0704 0.03485 0.0
H499 H 0.78986 0.09512 0.05738 0.0
H500 H 0.68513 0.20043 0.9196 0.0
H501 H 0.65568 0.14893 0.92855 0.0
H502 H 0.65461 0.10101 0.95854 0.0
H503 H 0.68282 0.07267 0.99727 0.0
Mn504 Mn 0.11314 0.49855 0.24469 0.0
Mn505 Mn 0.16475 0.53116 0.30793 0.0
C506 C 0.12488 0.55149 0.25436 0.0
C507 C 0.09905 0.47861 0.19297 0.0
C508 C 0.09955 0.49 0.30997 0.0
O509 O 0.14013 0.46662 0.25727 0.0
O510 O 0.17996 0.49644 0.29154 0.0
C511 C 0.22559 0.55381 0.28265 0.0
N512 N 0.20128 0.55926 0.29824 0.0
C513 C 0.22886 0.61079 0.31285 0.0
C514 C 0.25428 0.60575 0.29701 0.0
C515 C 0.25244 0.57725 0.2815 0.0
C516 C 0.20231 0.58687 0.31234 0.0
H517 H 0.22461 0.53166 0.27147 0.0
C518 C 0.168 0.47219 0.27416 0.0
O519 O 0.08168 0.46979 0.21448 0.0
O520 O 0.1259 0.4981 0.20185 0.0
N521 N 0.15182 0.56585 0.32551 0.0
C522 C 0.12539 0.56698 0.33989 0.0
C523 C 0.12297 0.59427 0.35553 0.0
C524 C 0.14804 0.61986 0.35688 0.0
C525 C 0.17538 0.61794 0.34265 0.0
C526 C 0.17618 0.59034 0.32686 0.0
H527 H 0.10638 0.54723 0.33966 0.0
O528 O 0.0983 0.53814 0.23683 0.0
O529 O 0.14265 0.53347 0.2659 0.0
O530 O 0.08887 0.49165 0.28158 0.0
O531 O 0.12834 0.50269 0.32166 0.0
C532 C 0.20208 0.6422 0.34395 0.0
C533 C 0.22894 0.6385 0.32937 0.0
H534 H 0.2753 0.62361 0.29654 0.0
H535 H 0.27192 0.57321 0.26918 0.0
H536 H 0.10203 0.59552 0.36684 0.0
H537 H 0.14613 0.64082 0.36903 0.0
H538 H 0.20229 0.66372 0.35627 0.0
H539 H 0.24946 0.65724 0.33081 0.0
Mn540 Mn 0.82822 0.94791 0.56722 0.0
Mn541 Mn 0.83748 1.00284 0.514 0.0
C542 C 0.88411 0.97677 0.55913 0.0
C543 C 0.82356 0.9241 0.62215 0.0
C544 C 0.82232 0.93446 0.49073 0.0
O545 O 0.78088 0.96467 0.56169 0.0
O546 O 0.79226 0.99964 0.52734 0.0
C547 C 0.84061 0.05323 0.56156 0.0
N548 N 0.85216 0.04157 0.53676 0.0
C549 C 0.89528 0.08542 0.53953 0.0
C550 C 0.88213 0.09897 0.56326 0.0
C551 C 0.85504 0.08253 0.57477 0.0
C552 C 0.8797 0.0562 0.52722 0.0
H553 H 0.82073 0.04008 0.57138 0.0
C554 C 0.77231 0.98694 0.54535 0.0
O555 O 0.81357 0.91007 0.59479 0.0
O556 O 0.83447 0.95261 0.61805 0.0
N557 N 0.87834 1.01094 0.49851 0.0
C558 C 0.89042 0.99325 0.47851 0.0
C559 C 0.9196 1.00496 0.46743 0.0
C560 C 0.93589 0.03486 0.47658 0.0
C561 C 0.92274 0.05287 0.4966 0.0
C562 C 0.89348 0.04003 0.5068 0.0
H563 H 0.87812 0.97029 0.47112 0.0
O564 O 0.87879 0.95033 0.57064 0.0
O565 O 0.85649 0.98525 0.55209 0.0
O566 O 0.82186 0.9255 0.51925 0.0
O567 O 0.82458 0.96296 0.48666 0.0
C568 C 0.93781 0.08291 0.50724 0.0
C569 C 0.9241 0.09918 0.52872 0.0
H570 H 0.89343 0.12143 0.57372 0.0
H571 H 0.84559 0.09223 0.59405 0.0
H572 H 0.92955 0.99092 0.4519 0.0
H573 H 0.95855 0.04369 0.46825 0.0
H574 H 0.96042 0.09343 0.4997 0.0
H575 H 0.93653 0.12186 0.53761 0.0
Mn576 Mn 0.93697 1.02115 0.21466 0.0
Mn577 Mn 0.86685 1.01657 0.24432 0.0
C578 C 0.90582 0.97361 0.2203 0.0
C579 C 0.96797 0.03115 0.17464 0.0
C580 C 0.9324 0.03307 0.28342 0.0
O581 O 0.92816 0.06392 0.21324 0.0
O582 O 0.87763 0.05591 0.22573 0.0
C583 C 0.82306 1.01636 0.18431 0.0
N584 N 0.83098 1.00152 0.21013 0.0
C585 C 0.78535 0.95925 0.19303 0.0
C586 C 0.77747 0.97477 0.16652 0.0
C587 C 0.79635 1.00317 0.16208 0.0
C588 C 0.8131 0.97371 0.21358 0.0
H589 H 0.83703 0.03821 0.18058 0.0
C590 C 0.9024 0.0729 0.2174 0.0
O591 O 0.98008 0.03632 0.20384 0.0
O592 O 0.93743 1.01849 0.16822 0.0
N593 N 0.85496 0.98045 0.26504 0.0
C594 C 0.86946 0.96988 0.30331 0.0
C595 C 0.84631 0.93087 0.31863 0.0
C596 C 0.80727 0.9069 0.29039 0.0
C597 C 0.79575 0.9235 0.2486 0.0
C598 C 0.82236 0.96071 0.23887 0.0
H599 H 0.88952 0.98439 0.31803 0.0
O600 O 0.9359 0.97619 0.21628 0.0
O601 O 0.89482 0.99858 0.21942 0.0
O602 O 0.9483 0.02782 0.2616 0.0
O603 O 0.90184 0.03116 0.27967 0.0
C604 C 0.76986 0.91332 0.22535 0.0
C605 C 0.76553 0.93059 0.19863 0.0
H606 H 0.75667 0.96519 0.14937 0.0
H607 H 0.79013 1.01504 0.14162 0.0
H608 H 0.85388 0.92366 0.34149 0.0
H609 H 0.7927 0.88663 0.29752 0.0
H610 H 0.75286 0.89255 0.22763 0.0
H611 H 0.74473 0.92133 0.18136 0.0
Mn612 Mn 0.30827 0.74445 0.55424 0.0
Mn613 Mn 0.28915 0.68685 0.49611 0.0
C614 C 0.25446 0.71606 0.54024 0.0
C615 C 0.32315 0.76281 0.60935 0.0
C616 C 0.30822 0.7537 0.48254 0.0
O617 O 0.35156 0.73038 0.55193 0.0
O618 O 0.33349 0.68945 0.51708 0.0
C619 C 0.29115 0.63279 0.53264 0.0
N620 N 0.27461 0.64837 0.5122 0.0
C621 C 0.22904 0.60648 0.50324 0.0
C622 C 0.24533 0.5903 0.52477 0.0
C623 C 0.27653 0.60355 0.53957 0.0
C624 C 0.24456 0.63582 0.49786 0.0
H625 H 0.31528 0.64257 0.54353 0.0
C626 C 0.35515 0.70599 0.53726 0.0
O627 O 0.32852 0.78015 0.58657 0.0
O628 O 0.3102 0.73481 0.60036 0.0
N629 N 0.24608 0.68163 0.47449 0.0
C630 C 0.23349 0.70021 0.45437 0.0
C631 C 0.20297 0.68979 0.43667 0.0
C632 C 0.18588 0.66026 0.43948 0.0
C633 C 0.19924 0.64155 0.46034 0.0
C634 C 0.22972 0.6532 0.47743 0.0
H635 H 0.24676 0.72269 0.45148 0.0
O636 O 0.25988 0.74324 0.55388 0.0
O637 O 0.28003 0.70762 0.53357 0.0
O638 O 0.31001 0.76508 0.51083 0.0
O639 O 0.30276 0.72507 0.47597 0.0
C640 C 0.18335 0.61191 0.46504 0.0
C641 C 0.19812 0.59453 0.48674 0.0
H642 H 0.23422 0.56762 0.52992 0.0
H643 H 0.28943 0.59115 0.55601 0.0
H644 H 0.19276 0.70439 0.42066 0.0
H645 H 0.16229 0.65233 0.4259 0.0
H646 H 0.15963 0.60238 0.45235 0.0
H647 H 0.18562 0.57193 0.49044 0.0
Mn648 Mn 0.45046 0.54996 0.71771 0.0
Mn649 Mn 0.40213 0.53774 0.77429 0.0
C650 C 0.43181 0.50066 0.73169 0.0
C651 C 0.46497 0.5585 0.66873 0.0
C652 C 0.47382 0.56234 0.78756 0.0
O653 O 0.43361 0.58904 0.7197 0.0
O654 O 0.40172 0.57787 0.75725 0.0
C655 C 0.33961 0.53469 0.73413 0.0
N656 N 0.35871 0.52196 0.75519 0.0
C657 C 0.31601 0.47855 0.75661 0.0
C658 C 0.29588 0.49121 0.73495 0.0
C659 C 0.30778 0.51939 0.7236 0.0
C660 C 0.3476 0.49476 0.76605 0.0
H661 H 0.34859 0.55634 0.72548 0.0
C662 C 0.4137 0.59535 0.73728 0.0
O663 O 0.48408 0.56874 0.69406 0.0
O664 O 0.43611 0.54327 0.67126 0.0
N665 N 0.3995 0.49975 0.79302 0.0
C666 C 0.42195 0.49074 0.81396 0.0
C667 C 0.41368 0.46329 0.82809 0.0
C668 C 0.38231 0.44567 0.82093 0.0
C669 C 0.35951 0.45558 0.79957 0.0
C670 C 0.36904 0.48326 0.78652 0.0
H671 H 0.44599 0.50439 0.81989 0.0
O672 O 0.45793 0.50731 0.71868 0.0
O673 O 0.41725 0.52297 0.73617 0.0
O674 O 0.47764 0.5623 0.75915 0.0
O675 O 0.44648 0.55339 0.79678 0.0
C676 C 0.32783 0.4389 0.7904 0.0
C677 C 0.3061 0.45032 0.76894 0.0
H678 H 0.2713 0.47946 0.72681 0.0
H679 H 0.29244 0.52934 0.70684 0.0
H680 H 0.43141 0.45579 0.84454 0.0
H681 H 0.37602 0.42455 0.83192 0.0
H682 H 0.32013 0.41694 0.79915 0.0
H683 H 0.28191 0.4371 0.7619 0.0
Mn684 Mn 0.63462 1.01026 0.71821 0.0
Mn685 Mn 0.69472 0.06762 0.7478 0.0
C686 C 0.65246 0.05625 0.69875 0.0
C687 C 0.60709 0.97314 0.68029 0.0
C688 C 0.63241 0.05133 0.77507 0.0
O689 O 0.66277 0.98743 0.74698 0.0
O690 O 0.70091 0.02919 0.76892 0.0
C691 C 0.75529 0.05389 0.69842 0.0
N692 N 0.74881 0.07178 0.72161 0.0
C693 C 0.80622 0.10256 0.72939 0.0
C694 C 0.8111 0.08307 0.70487 0.0
C695 C 0.78633 0.05954 0.68974 0.0
C696 C 0.7758 0.09857 0.73859 0.0
H697 H 0.73671 0.03551 0.68679 0.0
C698 C 0.68848 1.00045 0.7659 0.0
O699 O 0.59612 0.97757 0.70639 0.0
O700 O 0.63682 0.98651 0.679 0.0
N701 N 0.73922 0.12116 0.78306 0.0
C702 C 0.73742 0.14074 0.80692 0.0
C703 C 0.76491 0.16302 0.81814 0.0
C704 C 0.79422 0.16482 0.80562 0.0
C705 C 0.79765 0.14461 0.78099 0.0
C706 C 0.77097 0.12283 0.76816 0.0
H707 H 0.71531 0.1392 0.81708 0.0
O708 O 0.62199 0.04401 0.69126 0.0
O709 O 0.6692 0.04158 0.71608 0.0
O710 O 0.62021 0.02843 0.75638 0.0
O711 O 0.65966 0.06819 0.77366 0.0
C712 C 0.82716 0.14588 0.76921 0.0
C713 C 0.83126 0.12578 0.74466 0.0
H714 H 0.83466 0.086 0.69717 0.0
H715 H 0.79151 0.04525 0.67105 0.0
H716 H 0.76376 0.17904 0.83715 0.0
H717 H 0.8147 0.18233 0.81563 0.0
H718 H 0.84795 0.16303 0.77928 0.0
H719 H 0.85497 0.12871 0.7373 0.0
Mn720 Mn 0.8567 0.70713 0.06352 0.0
Mn721 Mn 0.84139 0.65123 1.00442 0.0
C722 C 0.80008 0.67662 0.04817 0.0
C723 C 0.86362 0.73049 0.12106 0.0
C724 C 0.85617 0.71961 0.98843 0.0
O725 O 0.90391 0.69108 0.06342 0.0
O726 O 0.889 0.65475 0.02382 0.0
C727 C 0.84805 0.59844 0.0418 0.0
N728 N 0.82973 0.6126 1.02138 0.0
C729 C 0.78351 0.57187 1.02031 0.0
C730 C 0.80199 0.55681 0.0411 0.0
C731 C 0.83438 0.57017 0.0519 0.0
C732 C 0.79848 0.59992 1.01087 0.0
H733 H 0.87285 0.60865 0.05057 0.0
C734 C 0.91102 0.66885 0.04599 0.0
O735 O 0.87174 0.74515 0.09716 0.0
O736 O 0.85484 0.70169 0.11239 0.0
N737 N 0.79741 0.64382 0.98444 0.0
C738 C 0.78243 0.66158 0.96514 0.0
C739 C 0.74983 0.65146 0.95251 0.0
C740 C 0.73287 0.62326 0.95989 0.0
C741 C 0.74877 0.6053 0.97964 0.0
C742 C 0.78145 0.61634 0.99116 0.0
H743 H 0.7951 0.68339 0.95948 0.0
O744 O 0.80661 0.70429 0.0604 0.0
O745 O 0.82715 0.66857 0.04285 0.0
O746 O 0.85869 0.72906 1.01801 0.0
O747 O 0.85177 0.69074 0.98176 0.0
C748 C 0.73329 0.57708 0.98873 0.0
C749 C 0.75064 0.5604 1.00909 0.0
H750 H 0.79147 0.53511 0.04916 0.0
H751 H 0.84874 0.55878 0.06814 0.0
H752 H 0.73771 0.66553 0.93736 0.0
H753 H 0.7076 0.61575 0.95046 0.0
H754 H 0.70797 0.56812 0.98042 0.0
H755 H 0.73839 0.53886 1.01614 0.0
Mn756 Mn 0.06567 0.64967 0.84435 0.0
Mn757 Mn 0.9993 0.62791 0.87922 0.0
C758 C 0.04585 0.59852 0.85098 0.0
C759 C 0.09493 0.65991 0.80345 0.0
C760 C 0.06498 0.65385 0.91479 0.0
O761 O 0.04414 0.68558 0.83819 0.0
O762 O 1.00408 0.66966 0.86627 0.0
C763 C 0.95229 0.6291 0.82242 0.0
N764 N 0.96338 0.61419 0.84702 0.0
C765 C 0.91909 0.57158 0.83372 0.0
C766 C 0.90706 0.58663 0.80846 0.0
C767 C 0.92393 0.61541 0.80262 0.0
C768 C 0.94809 0.58597 0.85202 0.0
H769 H 0.96494 0.65124 0.81786 0.0
C770 C 1.0191 0.68914 0.84982 0.0
O771 O 0.10578 0.67221 0.83132 0.0
O772 O 0.06587 0.64332 0.7987 0.0
N773 N 0.99 0.58768 0.89291 0.0
C774 C 1.00252 0.57786 0.92036 0.0
C775 C 0.98636 0.55112 0.9315 0.0
C776 C 0.95797 0.53426 0.91414 0.0
C777 C 0.94545 0.54464 0.88602 0.0
C778 C 0.96177 0.57221 0.87671 0.0
H779 H 1.02375 0.59113 0.93456 0.0
O780 O 0.07627 0.60829 0.84913 0.0
O781 O 1.02827 0.61891 0.8501 0.0
O782 O 0.07772 0.66165 0.89074 0.0
O783 O 1.03551 0.64053 0.9137 0.0
C784 C 0.91627 0.52968 0.86798 0.0
C785 C 0.90328 0.54298 0.84161 0.0
H786 H 0.8849 0.57631 0.79344 0.0
H787 H 0.91494 0.62717 0.78309 0.0
H788 H 0.995 0.54401 0.95399 0.0
H789 H 0.94549 0.51378 0.92309 0.0
H790 H 0.90338 0.50815 0.87447 0.0
H791 H 0.88082 0.53131 0.82792 0.0
Mn792 Mn 0.86769 0.40712 0.56189 0.0
Mn793 Mn 0.8617 0.46455 0.51445 0.0
C794 C 0.91465 0.44058 0.55129 0.0
C795 C 0.86889 0.38866 0.61403 0.0
C796 C 0.84968 0.39818 0.48934 0.0
O797 O 0.82046 0.41243 0.5613 0.0
O798 O 0.82342 0.45575 0.53635 0.0
C799 C 0.86551 0.51424 0.56293 0.0
N800 N 0.87675 0.50286 0.53777 0.0
C801 C 0.91618 0.54893 0.53684 0.0
C802 C 0.90502 0.56118 0.56271 0.0
C803 C 0.8797 0.54368 0.57592 0.0
C804 C 0.9016 0.51922 0.52538 0.0
H805 H 0.84594 0.50094 0.57305 0.0
C806 C 0.80933 0.43586 0.55298 0.0
O807 O 0.86169 0.37082 0.58863 0.0
O808 O 0.8752 0.41722 0.60892 0.0
N809 N 0.89766 0.47611 0.49221 0.0
C810 C 0.90528 0.46112 0.46701 0.0
C811 C 0.92879 0.47603 0.44999 0.0
C812 C 0.94394 0.50626 0.45882 0.0
C813 C 0.93617 0.52115 0.48504 0.0
C814 C 0.91217 0.50529 0.50082 0.0
H815 H 0.89308 0.4382 0.45938 0.0
O816 O 0.91634 0.41421 0.56166 0.0
O817 O 0.88586 0.44612 0.54722 0.0
O818 O 0.85819 0.38736 0.51559 0.0
O819 O 0.84694 0.42592 0.48764 0.0
C820 C 0.95072 0.55131 0.49569 0.0
C821 C 0.94111 0.56504 0.52191 0.0
H822 H 0.9157 0.58397 0.57261 0.0
H823 H 0.871 0.55293 0.59593 0.0
H824 H 0.93469 0.46448 0.4297 0.0
H825 H 0.96087 0.51798 0.44478 0.0
H826 H 0.96937 0.56412 0.48394 0.0
H827 H 0.95278 0.58811 0.53014 0.0
Mn828 Mn 0.75211 0.62656 0.37155 0.0
Mn829 Mn 0.79394 0.63081 0.4432 0.0
C830 C 0.77649 0.67358 0.39536 0.0
C831 C 0.74981 0.62596 0.31789 0.0
C832 C 0.72085 0.60962 0.4292 0.0
O833 O 0.76314 0.58495 0.37512 0.0
O834 O 0.79672 0.59196 0.42076 0.0
C835 C 0.8609 0.63523 0.42945 0.0
N836 N 0.83845 0.64793 0.44196 0.0
C837 C 0.87682 0.69476 0.45651 0.0
C838 C 0.9002 0.68237 0.44332 0.0
C839 C 0.89225 0.65241 0.42989 0.0
C840 C 0.84603 0.67652 0.45547 0.0
H841 H 0.85478 0.61233 0.4188 0.0
C842 C 0.78239 0.57556 0.39598 0.0
O843 O 0.72448 0.6151 0.33077 0.0
O844 O 0.77709 0.63457 0.33593 0.0
N845 N 0.79282 0.66809 0.46561 0.0
C846 C 0.76794 0.67609 0.47861 0.0
C847 C 0.77228 0.705 0.49403 0.0
C848 C 0.80211 0.72535 0.49589 0.0
C849 C 0.82753 0.71638 0.48282 0.0
C850 C 0.82192 0.68714 0.46814 0.0
H851 H 0.74487 0.66064 0.47699 0.0
O852 O 0.75076 0.67059 0.37485 0.0
O853 O 0.78424 0.64826 0.40347 0.0
O854 O 0.71824 0.61605 0.40073 0.0
O855 O 0.74798 0.6133 0.44694 0.0
C856 C 0.85825 0.73528 0.48383 0.0
C857 C 0.88286 0.72449 0.47064 0.0
H858 H 0.92437 0.69559 0.44349 0.0
H859 H 0.91019 0.64265 0.41976 0.0
H860 H 0.75258 0.71169 0.50419 0.0
H861 H 0.80526 0.74775 0.50751 0.0
H862 H 0.86323 0.75811 0.4948 0.0
H863 H 0.90639 0.7392 0.47164 0.0
Tb864 Tb 0.06757 0.0786 0.02984 0.0
Eu865 Eu 0.13366 0.09776 0.08104 0.0
C866 C 0.13548 0.08544 1.00904 0.0
C867 C 0.10172 0.02872 0.05803 0.0
C868 C 0.99234 0.09693 0.99992 0.0
C869 C 0.98255 0.14843 0.9965 0.0
C870 C 1.00091 0.12675 0.99062 0.0
C871 C 0.96504 0.08953 1.01543 0.0
C872 C 0.94681 0.11131 1.02147 0.0
C873 C 0.9554 0.14092 1.01203 0.0
C874 C 1.01388 0.07487 0.99727 0.0
O875 O 0.05603 0.09538 0.07407 0.0
O876 O 0.09246 0.07655 0.10522 0.0
O877 O 0.11459 0.14133 0.07638 0.0
O878 O 0.08845 0.12573 0.02668 0.0
C879 C 0.06445 0.08438 0.10072 0.0
O880 O 0.16005 0.09606 0.12778 0.0
O881 O 0.18633 0.11223 0.09026 0.0
O882 O 0.14473 0.10576 0.03267 0.0
O883 O 0.10647 0.06776 1.00546 0.0
O884 O 0.07391 0.03533 0.04713 0.0
O885 O 0.1284 0.0493 0.06377 0.0
C886 C 0.09921 0.14688 0.04935 0.0
O887 O 0.04117 0.08475 0.98674 0.0
O888 O 1.01798 0.05901 1.02155 0.0
C889 C 0.20504 0.07417 0.11884 0.0
C890 C 0.23297 1.02327 0.10739 0.0
C891 C 0.25063 0.05292 0.10606 0.0
C892 C 0.23683 0.07813 0.11181 0.0
C893 C 0.18803 0.0444 0.12164 0.0
C894 C 0.20195 1.01927 0.11613 0.0
C895 C 0.18777 0.09993 0.11707 0.0
H896 H 0.98904 0.17089 0.98828 0.0
H897 H 1.022 0.13354 0.97903 0.0
H898 H 0.95805 0.06696 1.02333 0.0
H899 H 0.92569 0.10495 0.03312 0.0
H900 H 0.27458 0.05649 0.09922 0.0
H901 H 0.2503 0.10065 0.10893 0.0
H902 H 0.16332 0.04032 0.12653 0.0
H903 H 0.18813 0.99665 0.11761 0.0
Tb904 Tb 0.35708 0.85873 0.32065 0.0
Eu905 Eu 0.30294 0.80299 0.28423 0.0
C906 C 0.29616 0.87172 0.28005 0.0
C907 C 0.31356 0.80884 0.35991 0.0
C908 C 0.4145 0.9319 0.35182 0.0
C909 C 0.43986 0.98084 0.37856 0.0
C910 C 0.42284 0.95113 0.37927 0.0
C911 C 0.42344 0.94268 0.32352 0.0
C912 C 0.44075 0.97241 0.32285 0.0
C913 C 0.44891 0.99168 0.35038 0.0
C914 C 0.39682 0.90073 0.35365 0.0
O915 O 0.38228 0.82178 0.3156 0.0
O916 O 0.34056 0.78052 0.30982 0.0
O917 O 0.33469 0.82107 0.24759 0.0
O918 O 0.36412 0.86604 0.27131 0.0
C919 C 0.37106 0.79303 0.31886 0.0
O920 O 0.28614 0.76439 0.24986 0.0
O921 O 0.25142 0.78474 0.27166 0.0
O922 O 0.28152 0.845 0.28699 0.0
O923 O 0.32692 0.8814 0.28949 0.0
O924 O 0.32888 0.83715 0.35736 0.0
O925 O 0.30149 0.79094 0.33458 0.0
C926 C 0.35496 0.84702 0.24601 0.0
O927 O 0.36552 0.89702 0.35238 0.0
O928 O 0.40518 0.87931 0.3372 0.0
C929 C 0.23535 0.73299 0.2547 0.0
C930 C 0.19541 0.67534 0.25518 0.0
C931 C 0.22854 0.68026 0.26672 0.0
C932 C 0.24836 0.70887 0.26666 0.0
C933 C 0.20224 0.72831 0.24358 0.0
C934 C 0.18247 0.69964 0.24364 0.0
C935 C 0.25571 0.76299 0.25275 0.0
H936 H 0.44609 0.99538 0.39998 0.0
H937 H 0.41622 0.94312 0.40132 0.0
H938 H 0.41713 0.92816 0.3021 0.0
H939 H 0.44768 0.98045 0.30093 0.0
H940 H 0.23942 0.66159 0.27418 0.0
H941 H 0.27389 0.71191 0.27525 0.0
H942 H 0.19183 0.74672 0.23419 0.0
H943 H 0.15717 0.69611 0.23419 0.0
Tb944 Tb 0.57302 0.05708 0.51925 0.0
Eu945 Eu 0.60248 0.0906 0.58295 0.0
C946 C 0.56679 1.02203 0.5797 0.0
C947 C 0.53118 0.10526 0.55259 0.0
C948 C 0.54546 0.99818 0.45535 0.0
C949 C 0.57311 0.9565 0.45123 0.0
C950 C 0.57373 0.98649 0.46062 0.0
C951 C 0.51697 0.98012 0.43949 0.0
C952 C 0.51642 0.95013 0.42974 0.0
C953 C 0.54429 0.93809 0.43643 0.0
C954 C 0.5446 0.02785 0.46939 0.0
O955 O 0.59911 0.09868 0.50418 0.0
O956 O 0.60655 0.12814 0.5496 0.0
O957 O 0.64226 0.06202 0.57228 0.0
O958 O 0.62103 0.03998 0.5239 0.0
C959 C 0.60549 0.1254 0.51917 0.0
O960 O 0.64522 0.11729 0.61123 0.0
O961 O 0.60264 0.10007 0.63293 0.0
O962 O 0.56944 0.04844 0.59456 0.0
O963 O 0.57372 1.02098 0.5512 0.0
O964 O 0.53364 0.08417 0.5302 0.0
O965 O 0.55592 0.11196 0.57573 0.0
C966 C 0.64533 0.0439 0.54785 0.0
O967 O 0.53211 0.02737 0.49547 0.0
O968 O 0.57114 0.04832 0.471 0.0
C969 C 0.63585 0.14727 0.65323 0.0
C970 C 0.64543 0.20841 0.67341 0.0
C971 C 0.67209 0.19506 0.67102 0.0
C972 C 0.66725 0.16471 0.66054 0.0
C973 C 0.60939 0.15983 0.65913 0.0
C974 C 0.61426 0.19033 0.66938 0.0
C975 C 0.63137 0.11751 0.63647 0.0
H976 H 0.5946 0.94721 0.45687 0.0
H977 H 0.59585 1.00007 0.47321 0.0
H978 H 0.49497 0.98889 0.43571 0.0
H979 H 0.49396 0.93589 0.41859 0.0
H980 H 0.69633 0.20878 0.67434 0.0
H981 H 0.68791 0.15562 0.65587 0.0
H982 H 0.58491 0.14672 0.65411 0.0
H983 H 0.59364 0.2002 0.67246 0.0
Tb984 Tb 0.31392 0.33967 0.79074 0.0
Eu985 Eu 0.38421 0.33445 0.82007 0.0
C986 C 0.37304 0.3842 0.77037 0.0
C987 C 0.35429 0.30354 0.7458 0.0
C988 C 0.23201 0.33492 0.79763 0.0
C989 C 0.17832 0.31167 0.80756 0.0
C990 C 0.19909 0.32446 0.78683 0.0
C991 C 0.24361 0.33299 0.82929 0.0
C992 C 0.22321 0.32016 0.84973 0.0
C993 C 0.19058 0.30912 0.83899 0.0
C994 C 0.25576 0.34226 0.77598 0.0
O995 O 0.30455 0.29947 0.81666 0.0
O996 O 0.35505 0.29315 0.83694 0.0
O997 O 0.36614 0.3545 0.86403 0.0
O998 O 0.32163 0.36747 0.83821 0.0
C999 C 0.32365 0.28447 0.83262 0.0
O1000 O 0.42407 0.31044 0.82656 0.0
O1001 O 0.42999 0.35587 0.84781 0.0
O1002 O 0.38979 0.37823 0.79614 0.0
O1003 O 0.34307 0.36993 0.76262 0.0
O1004 O 0.32661 0.31165 0.75061 0.0
O1005 O 0.37936 0.31116 0.76875 0.0
C1006 C 0.34128 0.3681 0.86526 0.0
O1007 O 0.27842 0.36631 0.78444 0.0
O1008 O 0.26778 0.31913 0.76792 0.0
C1009 C 0.47388 0.34393 0.82522 0.0
C1010 C 0.52102 0.36318 0.78679 0.0
C1011 C 0.50877 0.33214 0.7883 0.0
C1012 C 0.48538 0.32254 0.80748 0.0
C1013 C 0.48821 0.37492 0.82546 0.0
C1014 C 0.51157 0.38448 0.80623 0.0
C1015 C 0.44452 0.33435 0.83997 0.0
H1016 H 0.15304 0.30288 0.79896 0.0
H1017 H 0.18981 0.32498 0.76233 0.0
H1018 H 0.26885 0.33974 0.83808 0.0
H1019 H 0.23301 0.3181 0.8738 0.0
H1020 H 0.51627 0.31549 0.77359 0.0
H1021 H 0.47511 0.29851 0.80715 0.0
H1022 H 0.48017 0.39198 0.83915 0.0
H1023 H 0.52122 0.40852 0.80545 0.0
Tb1024 Tb 0.09347 0.06143 0.52797 0.0
Eu1025 Eu 0.09361 0.09413 0.58932 0.0
C1026 C 0.16203 0.10358 0.55702 0.0
C1027 C 0.09699 1.01841 0.58926 0.0
C1028 C 0.06761 0.04339 0.44625 0.0
C1029 C 0.04966 0.03907 0.39065 0.0
C1030 C 0.07249 0.03579 0.4158 0.0
C1031 C 0.04077 0.05584 0.45132 0.0
C1032 C 1.01772 0.05861 0.42633 0.0
C1033 C 1.02172 0.04963 0.39597 0.0
C1034 C 0.0903 0.03892 0.47305 0.0
O1035 O 0.03963 0.04914 0.53169 0.0
O1036 O 0.04038 0.06642 0.58173 0.0
O1037 O 0.08556 0.13422 0.5574 0.0
O1038 O 0.08906 0.10934 0.51181 0.0
C1039 C 1.02399 0.05003 0.55646 0.0
O1040 O 0.07126 0.11307 0.62653 0.0
O1041 O 0.12314 0.1167 0.63135 0.0
O1042 O 0.14433 0.11551 0.57525 0.0
O1043 O 0.14764 0.07747 0.54115 0.0
O1044 O 0.09705 1.02068 0.55832 0.0
O1045 O 0.09842 0.04476 0.60557 0.0
C1046 C 0.08745 0.1357 0.52689 0.0
O1047 O 0.11075 0.06331 0.48451 0.0
O1048 O 0.07726 1.0242 0.49493 0.0
C1049 C 0.09999 0.10688 0.67578 0.0
C1050 C 0.13321 0.08113 0.72397 0.0
C1051 C 0.13378 0.11245 0.72585 0.0
C1052 C 0.11738 0.12535 0.70165 0.0
C1053 C 0.09513 0.07515 0.67651 0.0
C1054 C 0.11235 0.06227 0.70019 0.0
C1055 C 0.09857 0.11982 0.64536 0.0
H1056 H 0.05284 0.03184 0.36721 0.0
H1057 H 0.09338 0.02667 0.41158 0.0
H1058 H 1.03715 0.06263 0.4747 0.0
H1059 H 0.99623 0.0666 0.43074 0.0
H1060 H 0.1497 0.12723 0.74427 0.0
H1061 H 0.12156 0.14986 0.70134 0.0
H1062 H 0.08135 0.06063 0.65686 0.0
H1063 H 0.11156 0.03804 0.69849 0.0
Tb1064 Tb 0.32527 0.79912 0.81343 0.0
Eu1065 Eu 0.35181 0.86599 0.79613 0.0
C1066 C 0.33136 0.85334 0.86626 0.0
C1067 C 0.2725 0.83571 0.77649 0.0
C1068 C 0.31274 0.71802 0.80245 0.0
C1069 C 0.34056 0.67609 0.80037 0.0
C1070 C 0.32563 0.69509 0.81724 0.0
C1071 C 0.31275 0.72011 0.77001 0.0
C1072 C 0.32832 0.70162 0.75331 0.0
C1073 C 0.34311 0.68009 0.76863 0.0
C1074 C 0.30691 0.74361 0.82161 0.0
O1075 O 0.33717 0.79144 0.76562 0.0
O1076 O 0.351 0.83952 0.7498 0.0
O1077 O 0.39932 0.85286 0.8199 0.0
O1078 O 0.37833 0.80561 0.83413 0.0
C1079 C 0.34346 0.80999 0.74334 0.0
O1080 O 0.34283 0.90702 0.77502 0.0
O1081 O 0.391 0.90564 0.79653 0.0
O1082 O 0.34284 0.87293 0.84667 0.0
O1083 O 0.32056 0.82434 0.85712 0.0
O1084 O 0.27868 0.81113 0.79039 0.0
O1085 O 0.29669 0.85952 0.77762 0.0
C1086 C 0.40371 0.82848 0.83485 0.0
O1087 O 0.33303 0.76055 0.83666 0.0
O1088 O 0.28802 0.76005 0.80807 0.0
C1089 C 0.37069 0.95025 0.80494 0.0
C1090 C 0.35395 0.99525 0.84265 0.0
C1091 C 0.34603 0.9939 0.80998 0.0
C1092 C 0.35458 0.97173 0.79126 0.0
C1093 C 0.37997 0.95239 0.8376 0.0
C1094 C 0.37201 0.9751 0.85635 0.0
C1095 C 0.37134 0.92278 0.78578 0.0
H1096 H 0.3519 0.65951 0.81249 0.0
H1097 H 0.32621 0.69331 0.84225 0.0
H1098 H 0.30271 0.73741 0.75793 0.0
H1099 H 0.33009 0.705 0.72884 0.0
H1100 H 0.3324 1.00955 0.79904 0.0
H1101 H 0.34685 0.97021 0.76622 0.0
H1102 H 0.39197 0.93573 0.84877 0.0
H1103 H 0.37867 0.97619 0.88151 0.0
Tb1104 Tb 0.60202 0.07428 0.07894 0.0
Eu1105 Eu 0.56472 0.0914 1.01977 0.0
C1106 C 0.5939 1.02372 1.01878 0.0
C1107 C 0.63873 0.12302 0.04116 0.0
C1108 C 0.6437 0.08188 0.16057 0.0
C1109 C 0.64819 0.08351 0.21711 0.0
C1110 C 0.64623 0.0672 0.18848 0.0
C1111 C 0.64739 0.1136 0.16172 0.0
C1112 C 0.64984 0.12999 0.19038 0.0
C1113 C 0.64768 0.11457 0.21785 0.0
C1114 C 0.62945 0.06362 0.1315 0.0
O1115 O 0.59185 0.12195 0.09467 0.0
O1116 O 0.55811 0.13225 0.05309 0.0
O1117 O 0.52441 0.06987 0.04523 0.0
O1118 O 0.55589 0.04104 0.07061 0.0
C1119 C 0.5741 0.14144 0.08168 0.0
O1120 O 0.56118 0.12232 0.98286 0.0
O1121 O 0.52689 0.07994 0.97921 0.0
O1122 O 0.58257 0.04569 1.00297 0.0
O1123 O 0.6027 0.0306 0.04961 0.0
O1124 O 0.64046 0.09724 0.05365 0.0
O1125 O 0.61021 0.12739 0.03047 0.0
C1126 C 0.52712 0.04576 0.06021 0.0
O1127 O 0.59843 0.06186 0.1246 0.0
O1128 O 0.64435 0.06855 0.1071 0.0
C1129 C 0.54617 0.09739 0.93271 0.0
C1130 C 0.56687 0.08165 0.87638 0.0
C1131 C 0.53981 0.0634 0.88609 0.0
C1132 C 0.52947 0.07125 0.91417 0.0
C1133 C 0.57196 0.11657 0.92162 0.0
C1134 C 0.58234 0.10861 0.89377 0.0
C1135 C 0.53888 0.10334 0.9646 0.0
H1136 H 0.64626 0.07129 0.2381 0.0
H1137 H 0.64321 0.0427 0.18793 0.0
H1138 H 0.64483 0.12527 0.14044 0.0
H1139 H 0.64903 0.15391 0.19059 0.0
H1140 H 0.52769 0.0425 0.87268 0.0
H1141 H 0.50932 0.05626 0.92197 0.0
H1142 H 0.5851 0.1371 0.93507 0.0
H1143 H 0.60322 0.12289 0.88637 0.0
Tb1144 Tb 0.35907 0.34744 0.32111 0.0
Eu1145 Eu 0.32216 0.29383 0.28597 0.0
C1146 C 0.35387 0.28956 0.36303 0.0
C1147 C 0.40249 0.31993 0.27637 0.0
C1148 C 0.34051 0.41578 0.33018 0.0
C1149 C 0.30874 0.45519 0.32851 0.0
C1150 C 0.33731 0.44517 0.33949 0.0
C1151 C 0.31522 0.3972 0.30986 0.0
C1152 C 0.28733 0.40685 0.29917 0.0
C1153 C 0.28365 0.43568 0.30844 0.0
C1154 C 0.36818 0.40182 0.34107 0.0
O1155 O 0.35193 0.36115 0.26975 0.0
O1156 O 0.30783 0.32753 0.24929 0.0
O1157 O 0.2768 0.30637 0.30536 0.0
O1158 O 0.31019 0.33847 0.34149 0.0
C1159 C 0.32853 0.35276 0.24543 0.0
O1160 O 0.30701 0.26406 0.24274 0.0
O1161 O 0.30443 0.24498 0.28719 0.0
O1162 O 0.33266 0.27778 0.33786 0.0
O1163 O 0.37202 0.31681 0.3596 0.0
O1164 O 0.40412 0.33661 0.30322 0.0
O1165 O 0.37312 0.30317 0.26609 0.0
C1166 C 0.27972 0.32374 0.3317 0.0
O1167 O 0.36144 0.3797 0.35899 0.0
O1168 O 0.38268 0.39313 0.31873 0.0
C1169 C 0.33517 0.22434 0.25418 0.0
C1170 C 0.39962 0.2214 0.27487 0.0
C1171 C 0.39235 0.23775 0.24892 0.0
C1172 C 0.3602 0.23866 0.23814 0.0
C1173 C 0.34228 0.20365 0.27626 0.0
C1174 C 0.37438 0.20254 0.28685 0.0
C1175 C 0.30816 0.23992 0.25813 0.0
H1176 H 0.30594 0.47767 0.33598 0.0
H1177 H 0.35632 0.45993 0.35528 0.0
H1178 H 0.31633 0.37446 0.30266 0.0
H1179 H 0.26824 0.39145 0.28397 0.0
H1180 H 0.41152 0.25211 0.23904 0.0
H1181 H 0.35562 0.25418 0.22039 0.0
H1182 H 0.32359 0.19196 0.28877 0.0
H1183 H 0.37959 0.18952 0.30671 0.0
Tb1184 Tb 0.59071 0.55928 0.02409 0.0
Eu1185 Eu 0.59392 0.5895 0.08748 0.0
C1186 C 0.66148 0.60169 0.05381 0.0
C1187 C 0.59122 0.5126 0.08295 0.0
C1188 C 0.5823 0.55376 0.94066 0.0
C1189 C 0.59129 0.5623 0.88737 0.0
C1190 C 0.59699 0.5476 0.91478 0.0
C1191 C 0.56331 0.5759 0.93947 0.0
C1192 C 0.55764 0.59058 0.91242 0.0
C1193 C 0.57083 0.58378 0.88528 0.0
C1194 C 0.58595 0.53724 0.96897 0.0
O1195 O 0.5383 0.54485 0.03123 0.0
O1196 O 0.53895 0.56771 0.07905 0.0
O1197 O 0.59126 0.63225 0.05656 0.0
O1198 O 0.58556 0.60745 1.00902 0.0
C1199 C 0.52265 0.54913 0.05524 0.0
O1200 O 0.60632 0.58855 0.13749 0.0
O1201 O 0.58766 0.62665 0.11919 0.0
O1202 O 0.64865 0.60252 0.08021 0.0
O1203 O 0.64251 0.58596 0.02925 0.0
O1204 O 0.59687 0.51785 0.05342 0.0
O1205 O 0.58848 0.53736 0.09988 0.0
C1206 C 0.58862 0.63423 0.02547 0.0
O1207 O 0.6135 0.54498 0.98712 0.0
O1208 O 0.56178 0.5351 0.9848 0.0
C1209 C 0.62801 0.63505 0.16373 0.0
C1210 C 0.68524 0.64735 0.20559 0.0
C1211 C 0.65535 0.64328 0.21683 0.0
C1212 C 0.62679 0.63704 0.19593 0.0
C1213 C 0.65784 0.64342 0.15253 0.0
C1214 C 0.68653 0.64941 0.17349 0.0
C1215 C 0.60097 0.61549 0.14375 0.0
H1216 H 0.6018 0.55509 0.86772 0.0
H1217 H 0.61194 0.53068 0.91538 0.0
H1218 H 0.55134 0.58097 0.95908 0.0
H1219 H 0.54087 0.60563 0.91286 0.0
H1220 H 0.65413 0.6418 0.24165 0.0
H1221 H 0.60402 0.63045 0.20491 0.0
H1222 H 0.65912 0.64208 0.12767 0.0
H1223 H 0.7095 0.65264 0.16457 0.0
Tb1224 Tb 0.83895 0.295 0.30518 0.0
Eu1225 Eu 0.86188 0.36404 0.29226 0.0
C1226 C 0.83986 0.3447 0.36034 0.0
C1227 C 0.78462 0.33244 0.27358 0.0
C1228 C 0.83194 0.21362 0.29098 0.0
C1229 C 0.85008 0.16598 0.28675 0.0
C1230 C 0.83754 0.18682 0.304 0.0
C1231 C 0.83821 0.21875 0.26034 0.0
C1232 C 0.85096 0.1983 0.24326 0.0
C1233 C 0.85731 0.17196 0.25647 0.0
C1234 C 0.82475 0.23829 0.31056 0.0
O1235 O 0.85729 0.29253 0.25966 0.0
O1236 O 0.85584 0.33971 0.24344 0.0
O1237 O 0.91079 0.34935 0.30823 0.0
O1238 O 0.88989 0.30651 0.33099 0.0
C1239 C 0.85519 0.31077 0.23672 0.0
O1240 O 0.85638 0.40431 0.26718 0.0
O1241 O 0.89523 0.40759 0.30501 0.0
O1242 O 0.85444 0.36536 0.34356 0.0
O1243 O 0.82782 0.31672 0.34824 0.0
O1244 O 0.79379 0.30613 0.27823 0.0
O1245 O 0.80591 0.35787 0.28295 0.0
C1246 C 0.91536 0.32769 0.3273 0.0
O1247 O 0.85015 0.25617 0.3257 0.0
O1248 O 0.80462 0.25381 0.29737 0.0
C1249 C 0.86418 0.44478 0.30482 0.0
C1250 C 0.83792 0.48543 0.33963 0.0
C1251 C 0.86264 0.49645 0.3219 0.0
C1252 C 0.87591 0.47611 0.30464 0.0
C1253 C 0.83954 0.43402 0.32265 0.0
C1254 C 0.8267 0.45413 0.34008 0.0
C1255 C 0.8774 0.42247 0.28753 0.0
H1256 H 0.85519 0.14575 0.29735 0.0
H1257 H 0.83345 0.18263 0.32782 0.0
H1258 H 0.83466 0.2392 0.24999 0.0
H1259 H 0.8567 0.20341 0.22008 0.0
H1260 H 0.87142 0.52065 0.32133 0.0
H1261 H 0.89503 0.48474 0.29114 0.0
H1262 H 0.83001 0.40995 0.32293 0.0
H1263 H 0.80754 0.44532 0.3535 0.0
Tb1264 Tb 0.10319 0.56769 0.57684 0.0
Eu1265 Eu 0.06985 0.58663 0.51639 0.0
C1266 C 0.09695 0.51773 0.51796 0.0
C1267 C 0.14116 0.6179 0.54134 0.0
C1268 C 0.14589 0.58056 0.65596 0.0
C1269 C 0.14354 0.59436 0.71004 0.0
C1270 C 0.14112 0.57209 0.68604 0.0
C1271 C 0.15693 0.6113 0.65102 0.0
C1272 C 0.1605 0.63356 0.67536 0.0
C1273 C 0.15122 0.6252 0.70416 0.0
C1274 C 0.13136 0.55891 0.62944 0.0
O1275 O 0.09294 0.61451 0.59348 0.0
O1276 O 0.06459 0.62804 0.54987 0.0
O1277 O 1.02701 0.55821 0.53301 0.0
O1278 O 0.0561 0.53564 0.56973 0.0
C1279 C 0.07751 0.63517 0.57984 0.0
O1280 O 0.07794 0.59873 0.46943 0.0
O1281 O 1.03047 0.59656 0.48356 0.0
O1282 O 0.08615 0.53961 0.50165 0.0
O1283 O 0.10451 0.52416 0.54876 0.0
O1284 O 0.14139 0.59071 0.55095 0.0
O1285 O 0.11303 0.62386 0.53216 0.0
C1286 C 1.02876 0.53694 0.55234 0.0
O1287 O 0.1002 0.55641 0.62298 0.0
O1288 O 0.14543 0.56121 0.60435 0.0
C1289 C 1.03401 0.57393 0.43447 0.0
C1290 C 1.03159 0.52476 0.39202 0.0
C1291 C 0.04046 0.55456 0.38316 0.0
C1292 C 0.04173 0.57916 0.40439 0.0
C1293 C 1.02161 0.54421 0.44184 0.0
C1294 C 1.01982 0.51967 0.42048 0.0
C1295 C 0.04717 0.59698 0.46016 0.0
H1296 H 0.13674 0.5876 0.73244 0.0
H1297 H 0.13231 0.54854 0.69019 0.0
H1298 H 0.15968 0.61843 0.62782 0.0
H1299 H 0.16689 0.65729 0.67079 0.0
H1300 H 0.04943 0.55868 0.36104 0.0
H1301 H 0.05183 0.60187 0.39847 0.0
H1302 H 1.01614 0.53975 0.46517 0.0
H1303 H 1.01301 0.49677 0.42761 0.0
Tb1304 Tb 0.80689 0.81737 0.29815 0.0
Eu1305 Eu 0.88102 0.83556 0.32053 0.0
C1306 C 0.84629 0.87199 0.26861 0.0
C1307 C 0.85253 0.79432 0.25014 0.0
C1308 C 0.72561 0.78904 0.30728 0.0
C1309 C 0.67276 0.77187 0.32144 0.0
C1310 C 0.69213 0.78338 0.29937 0.0
C1311 C 0.73968 0.78231 0.33667 0.0
C1312 C 0.72046 0.7702 0.35833 0.0
C1313 C 0.68706 0.76584 0.35107 0.0
C1314 C 0.74683 0.80186 0.28564 0.0
O1315 O 0.8165 0.77961 0.32488 0.0
O1316 O 0.86427 0.80127 0.35451 0.0
O1317 O 0.86351 0.85855 0.36263 0.0
O1318 O 0.80957 0.84628 0.34487 0.0
C1319 C 0.83799 0.78025 0.34946 0.0
O1320 O 0.92841 0.82344 0.32726 0.0
O1321 O 0.92351 0.86942 0.33922 0.0
O1322 O 0.86924 0.87372 0.29224 0.0
O1323 O 0.8212 0.84982 0.26469 0.0
O1324 O 0.8232 0.79649 0.25613 0.0
O1325 O 0.87756 0.80682 0.27193 0.0
C1326 C 0.83373 0.86003 0.36738 0.0
O1327 O 0.76172 0.82991 0.29323 0.0
O1328 O 0.76652 0.78455 0.27909 0.0
C1329 C 0.96881 0.86386 0.31568 0.0
C1330 C 1.01157 0.88591 0.27414 0.0
C1331 C 1.00579 0.85507 0.27991 0.0
C1332 C 0.98459 0.84409 0.30061 0.0
C1333 C 0.97577 0.89508 0.31076 0.0
C1334 C 0.99695 0.90604 0.28993 0.0
C1335 C 0.94336 0.85164 0.33436 0.0
H1336 H 0.64673 0.76852 0.31587 0.0
H1337 H 0.68114 0.78842 0.27666 0.0
H1338 H 0.76554 0.78709 0.34307 0.0
H1339 H 0.73143 0.76585 0.38123 0.0
H1340 H 1.01747 0.83947 0.26808 0.0
H1341 H 0.97998 0.82004 0.30421 0.0
H1342 H 0.96426 0.91094 0.32239 0.0
H1343 H 1.00174 0.93 0.28593 0.0
Tb1344 Tb 0.86648 0.3517 0.81619 0.0
Eu1345 Eu 0.81552 0.29421 0.77891 0.0
C1346 C 0.8029 0.36075 0.77427 0.0
C1347 C 0.81916 0.30333 0.85405 0.0
C1348 C 0.92917 0.42193 0.84451 0.0
C1349 C 0.96286 0.46912 0.86781 0.0
C1350 C 0.9405 0.44265 0.87043 0.0
C1351 C 0.941 0.42766 0.81595 0.0
C1352 C 0.96364 0.45427 0.81342 0.0
C1353 C 0.97412 0.47555 0.83926 0.0
C1354 C 0.90688 0.39364 0.84866 0.0
O1355 O 0.8927 0.31521 0.81175 0.0
O1356 O 0.85252 0.27347 0.80784 0.0
O1357 O 0.84278 0.31912 0.7425 0.0
O1358 O 0.87795 0.35999 0.76857 0.0
C1359 C 0.8825 0.2869 0.81741 0.0
O1360 O 0.80944 0.26139 0.73966 0.0
O1361 O 0.76813 0.26493 0.7636 0.0
O1362 O 0.78936 0.33307 0.77964 0.0
O1363 O 0.8333 0.37207 0.78509 0.0
O1364 O 0.83673 0.33086 0.85201 0.0
O1365 O 0.80876 0.2845 0.82902 0.0
C1366 C 0.86429 0.34435 0.74211 0.0
O1367 O 0.87598 0.39337 0.84329 0.0
O1368 O 0.91392 0.36902 0.83709 0.0
C1369 C 0.76772 0.21769 0.73572 0.0
C1370 C 0.74342 0.15559 0.71859 0.0
C1371 C 0.77515 0.16901 0.71483 0.0
C1372 C 0.78729 0.19967 0.72348 0.0
C1373 C 0.73581 0.20457 0.7388 0.0
C1374 C 0.72381 0.17389 0.73032 0.0
C1375 C 0.77902 0.25068 0.74151 0.0
H1376 H 0.97136 0.48471 0.88809 0.0
H1377 H 0.93222 0.43827 0.89282 0.0
H1378 H 0.93284 0.41158 0.79578 0.0
H1379 H 0.97237 0.45862 0.79125 0.0
H1380 H 0.79086 0.15576 0.70564 0.0
H1381 H 0.81188 0.20924 0.72012 0.0
H1382 H 0.71982 0.21818 0.74704 0.0
H1383 H 0.69888 0.165 0.73227 0.0
Tb1384 Tb 0.85555 0.85312 0.82559 0.0
Eu1385 Eu 0.82184 0.79778 0.79011 0.0
C1386 C 0.85199 0.7954 0.8679 0.0
C1387 C 0.90162 0.8275 0.781 0.0
C1388 C 0.84273 0.92414 0.8444 0.0
C1389 C 0.81619 0.96624 0.85346 0.0
C1390 C 0.84206 0.95135 0.86123 0.0
C1391 C 0.81729 0.91197 0.8206 0.0
C1392 C 0.79243 0.9268 0.81257 0.0
C1393 C 0.79136 0.95374 0.82893 0.0
C1394 C 0.86777 0.90611 0.85096 0.0
O1395 O 0.84648 0.86819 0.77481 0.0
O1396 O 0.8085 0.82932 0.75057 0.0
O1397 O 0.77422 0.80797 0.80673 0.0
O1398 O 0.80393 0.84553 0.84073 0.0
C1399 C 0.82635 0.85682 0.74858 0.0
O1400 O 0.81907 0.76454 0.75044 0.0
O1401 O 0.80053 0.74931 0.79185 0.0
O1402 O 0.83006 0.78376 0.84334 0.0
O1403 O 0.87007 0.8223 0.86355 0.0
O1404 O 0.90146 0.84351 0.80788 0.0
O1405 O 0.8727 0.81042 0.7698 0.0
C1406 C 0.77489 0.82738 0.8311 0.0
O1407 O 0.85888 0.88229 0.86603 0.0
O1408 O 0.88017 0.89875 0.8265 0.0
C1409 C 0.84427 0.73059 0.77826 0.0
C1410 C 0.90502 0.71657 0.79674 0.0
C1411 C 0.88078 0.69534 0.77748 0.0
C1412 C 0.85046 0.70267 0.76762 0.0
C1413 C 0.86836 0.75054 0.79845 0.0
C1414 C 0.89842 0.74418 0.80671 0.0
C1415 C 0.81478 0.74218 0.76857 0.0
H1416 H 0.81586 0.98753 0.86592 0.0
H1417 H 0.86124 0.96095 0.87999 0.0
H1418 H 0.81636 0.89069 0.80795 0.0
H1419 H 0.77411 0.91749 0.79294 0.0
H1420 H 0.88542 0.67354 0.77001 0.0
H1421 H 0.83221 0.68683 0.75208 0.0
H1422 H 0.86461 0.77204 0.80719 0.0
H1423 H 0.9166 0.76088 0.82147 0.0
Tb1424 Tb 0.55082 0.55487 0.52186 0.0
Eu1425 Eu 0.62607 0.58596 0.57401 0.0
C1426 C 0.61553 0.56491 0.49479 0.0
C1427 C 0.59232 0.51187 0.55592 0.0
C1428 C 0.46739 0.57134 0.51666 0.0
C1429 C 0.4325 0.60681 0.49992 0.0
C1430 C 0.44944 0.58391 0.49279 0.0
C1431 C 0.46483 0.58 0.54785 0.0
C1432 C 0.44855 0.6032 0.55502 0.0
C1433 C 0.43288 0.61764 0.53115 0.0
C1434 C 0.48998 0.5509 0.50919 0.0
O1435 O 0.56979 0.574 0.56624 0.0
O1436 O 0.59202 0.58972 0.611 0.0
O1437 O 0.60678 0.62642 0.55603 0.0
O1438 O 0.57052 0.6014 0.51275 0.0
C1439 C 0.56439 0.5788 0.59444 0.0
O1440 O 0.66042 0.58704 0.61647 0.0
O1441 O 0.67812 0.60195 0.57383 0.0
O1442 O 0.63067 0.57755 0.52243 0.0
O1443 O 0.58439 0.55165 0.48878 0.0
O1444 O 0.56716 0.51319 0.53461 0.0
O1445 O 0.61314 0.53539 0.57016 0.0
C1446 C 0.58702 0.6261 0.52957 0.0
O1447 O 0.51042 0.56 0.48966 0.0
O1448 O 0.50401 0.53887 0.53272 0.0
C1449 C 0.70281 0.5654 0.60027 0.0
C1450 C 0.73114 0.51441 0.59012 0.0
C1451 C 0.70287 0.51126 0.60412 0.0
C1452 C 0.68883 0.53642 0.60909 0.0
C1453 C 0.73156 0.56854 0.58693 0.0
C1454 C 0.74558 0.5433 0.58191 0.0
C1455 C 0.68496 0.59079 0.60076 0.0
H1456 H 0.42011 0.61691 0.48091 0.0
H1457 H 0.4499 0.57724 0.46848 0.0
H1458 H 0.47655 0.56975 0.56683 0.0
H1459 H 0.44883 0.6104 0.57929 0.0
H1460 H 0.69124 0.48919 0.61047 0.0
H1461 H 0.66637 0.53284 0.61891 0.0
H1462 H 0.74259 0.59032 0.57941 0.0
H1463 H 0.76737 0.54616 0.57098 0.0
Tb1464 Tb 0.07908 0.56043 0.02478 0.0
Eu1465 Eu 0.10788 0.5943 0.08923 0.0
C1466 C 0.07442 0.52455 0.0853 0.0
C1467 C 1.03542 0.60749 0.05646 0.0
C1468 C 0.05716 0.50487 0.9576 0.0
C1469 C 0.08432 0.46244 0.95462 0.0
C1470 C 0.08472 0.49235 0.96485 0.0
C1471 C 1.02975 0.48759 0.93921 0.0
C1472 C 1.0295 0.45795 0.92857 0.0
C1473 C 0.05651 0.44498 0.93676 0.0
C1474 C 0.05518 0.53424 0.97215 0.0
O1475 O 0.1144 0.59986 1.01684 0.0
O1476 O 0.10646 0.63071 0.05572 0.0
O1477 O 0.14916 0.5679 0.07636 0.0
O1478 O 0.12373 0.53918 0.03238 0.0
C1479 C 0.11402 0.62716 0.02789 0.0
O1480 O 0.1507 0.6226 0.11621 0.0
O1481 O 0.10879 0.60564 0.13898 0.0
O1482 O 0.07984 0.55038 0.10194 0.0
O1483 O 0.07546 0.52323 0.05524 0.0
O1484 O 0.03924 0.58743 0.03371 0.0
O1485 O 0.0593 0.61334 0.08073 0.0
C1486 C 0.14997 0.54631 0.05406 0.0
O1487 O 0.03993 0.53254 0.99652 0.0
O1488 O 0.08171 0.55492 0.97671 0.0
C1489 C 0.13818 0.65559 0.15369 0.0
C1490 C 0.14247 0.718 0.16592 0.0
C1491 C 0.17059 0.70598 0.16808 0.0
C1492 C 0.16844 0.67495 0.16196 0.0
C1493 C 0.10998 0.66744 0.15315 0.0
C1494 C 0.11217 0.69845 0.15931 0.0
C1495 C 0.13667 0.62447 0.14118 0.0
H1496 H 0.10521 0.45261 0.96148 0.0
H1497 H 0.10603 0.50519 0.97937 0.0
H1498 H 1.00815 0.49661 0.93404 0.0
H1499 H 1.00775 0.44462 0.91504 0.0
H1500 H 0.19419 0.72083 0.17305 0.0
H1501 H 0.19043 0.66634 0.16191 0.0
H1502 H 0.08631 0.65306 0.14653 0.0
H1503 H 0.09029 0.70731 0.15793 0.0
C1504 C 0.09462 0.20217 0.99136 0.0
C1505 C 0.06452 0.20979 0.99574 0.0
C1506 C 0.0672 0.18724 0.0467 0.0
C1507 C 0.09555 0.17752 0.04074 0.0
N1508 N 0.14201 0.184 1.01436 0.0
N1509 N 1.02615 0.21636 0.03075 0.0
C1510 C 0.11132 0.18828 1.01546 0.0
C1511 C 0.0523 0.20486 0.0247 0.0
N1512 N 0.1068 0.20731 0.96386 0.0
N1513 N 0.05371 0.17789 0.07252 0.0
H1514 H 1.01352 0.22772 1.01445 0.0
H1515 H 1.01768 0.21582 0.0523 0.0
H1516 H 0.06545 0.16632 0.08936 0.0
H1517 H 1.03119 0.18105 0.07709 0.0
H1518 H 0.12673 0.19936 0.95795 0.0
H1519 H 0.0959 0.21805 0.94586 0.0
H1520 H 0.1564 0.19302 0.99793 0.0
H1521 H 0.15402 0.17358 0.0321 0.0
C1522 C 0.25918 0.93261 0.23776 0.0
C1523 C 0.25239 0.91874 0.20685 0.0
C1524 C 0.27572 0.87621 0.22368 0.0
C1525 C 0.28029 0.88812 0.25538 0.0
N1526 N 0.28347 0.93105 0.29188 0.0
N1527 N 0.27203 0.88881 0.16957 0.0
C1528 C 0.27463 0.9177 0.2622 0.0
C1529 C 0.26716 0.89459 0.19962 0.0
N1530 N 0.25042 0.95969 0.24339 0.0
N1531 N 0.2778 0.84696 0.21629 0.0
H1532 H 0.26696 0.90317 0.15205 0.0
H1533 H 0.28422 0.87216 0.16323 0.0
H1534 H 0.28116 0.83157 0.23302 0.0
H1535 H 0.27218 0.83698 0.19351 0.0
H1536 H 0.25134 0.96999 0.26559 0.0
H1537 H 0.24235 0.97195 0.22504 0.0
H1538 H 0.28223 0.95333 0.29807 0.0
H1539 H 0.29335 0.92003 0.31036 0.0
C1540 C 0.52149 0.85421 0.44752 0.0
C1541 C 0.53756 0.84217 0.42424 0.0
C1542 C 0.5589 0.89345 0.41008 0.0
C1543 C 0.54226 0.90522 0.43234 0.0
N1544 N 0.51672 0.89846 0.47897 0.0
N1545 N 0.58366 0.85203 0.39611 0.0
C1546 C 0.52613 0.88611 0.45302 0.0
C1547 C 0.56005 0.86234 0.40939 0.0
N1548 N 0.50165 0.83592 0.46446 0.0
N1549 N 0.57307 0.91176 0.38918 0.0
H1550 H 0.58721 0.82986 0.39783 0.0
H1551 H 0.60218 0.86636 0.38721 0.0
H1552 H 0.57261 0.93484 0.38893 0.0
H1553 H 0.58274 0.90339 0.37046 0.0
H1554 H 0.4841 0.84356 0.47554 0.0
H1555 H 0.50307 0.81373 0.46888 0.0
H1556 H 0.5084 0.88571 0.49693 0.0
H1557 H 0.52008 0.92178 0.48426 0.0
C1558 C 0.59629 0.3807 0.74821 0.0
C1559 C 0.58268 0.38283 0.71649 0.0
C1560 C 0.5286 0.37498 0.73186 0.0
C1561 C 0.54226 0.37324 0.76328 0.0
N1562 N 0.58892 0.38272 0.80291 0.0
N1563 N 0.53775 0.39209 0.68081 0.0
C1564 C 0.57608 0.37914 0.77196 0.0
C1565 C 0.54937 0.38325 0.7092 0.0
N1566 N 0.62762 0.37767 0.75575 0.0
N1567 N 0.49585 0.3677 0.7234 0.0
H1568 H 0.5526 0.39923 0.66403 0.0
H1569 H 0.51425 0.39549 0.6753 0.0
H1570 H 0.47972 0.36183 0.73939 0.0
H1571 H 0.48482 0.36524 0.7002 0.0
H1572 H 0.63681 0.37174 0.77764 0.0
H1573 H 0.64417 0.3783 0.74006 0.0
H1574 H 0.61345 0.39069 0.81064 0.0
H1575 H 0.5748 0.38041 0.82101 0.0
C1576 C 0.06748 0.94655 0.64241 0.0
C1577 C 0.08823 0.92505 0.63886 0.0
C1578 C 0.11339 0.96314 0.60094 0.0
C1579 C 0.09409 0.98571 0.60619 0.0
N1580 N 0.05233 0.99614 0.63498 0.0
N1581 N 0.13466 0.91764 0.61602 0.0
C1582 C 0.07131 0.97637 0.62797 0.0
C1583 C 0.11187 0.93481 0.61814 0.0
N1584 N 0.04214 0.93764 0.65861 0.0
N1585 N 0.13392 0.96869 0.57916 0.0
H1586 H 0.13422 0.89752 0.62725 0.0
H1587 H 0.15516 0.92424 0.60527 0.0
H1588 H 0.13788 0.9891 0.56838 0.0
H1589 H 0.1456 0.95258 0.57044 0.0
H1590 H 1.02345 0.94924 0.65978 0.0
H1591 H 1.03808 0.91678 0.66859 0.0
H1592 H 0.03929 0.99444 0.65382 0.0
H1593 H 0.05059 1.01525 0.62261 0.0
C1594 C 0.48206 0.84442 0.90079 0.0
C1595 C 0.5031 0.82589 0.89037 0.0
C1596 C 0.45772 0.80652 0.8452 0.0
C1597 C 0.43813 0.82722 0.8541 0.0
N1598 N 0.43538 0.86865 0.88998 0.0
N1599 N 0.50905 0.78858 0.85134 0.0
C1600 C 0.45151 0.84676 0.88186 0.0
C1601 C 0.49012 0.80678 0.86217 0.0
N1602 N 0.49118 0.86006 0.92936 0.0
N1603 N 0.44515 0.78613 0.82024 0.0
H1604 H 0.53138 0.78697 0.86347 0.0
H1605 H 0.50381 0.77632 0.82973 0.0
H1606 H 0.42302 0.78623 0.80678 0.0
H1607 H 0.45548 0.76819 0.81361 0.0
H1608 H 0.47598 0.87088 0.94072 0.0
H1609 H 0.5135 0.86063 0.94275 0.0
H1610 H 0.44491 0.88615 0.90714 0.0
H1611 H 0.41317 0.87069 0.87792 0.0
C1612 C 0.55887 0.20889 0.14294 0.0
C1613 C 0.56964 0.23778 0.12989 0.0
C1614 C 0.58126 0.20364 0.08452 0.0
C1615 C 0.57279 0.17491 0.09873 0.0
N1616 N 0.55679 0.15385 0.14573 0.0
N1617 N 0.59799 0.25952 0.08909 0.0
C1618 C 0.56273 0.17898 0.12917 0.0
C1619 C 0.5824 0.23392 0.10076 0.0
N1620 N 0.54312 0.2096 0.16845 0.0
N1621 N 0.5888 0.20241 0.05481 0.0
H1622 H 0.59966 0.28112 0.09964 0.0
H1623 H 0.61146 0.25928 0.07066 0.0
H1624 H 0.59089 0.18229 0.04318 0.0
H1625 H 0.59093 0.22091 0.04099 0.0
H1626 H 0.53098 0.1903 0.17756 0.0
H1627 H 0.53926 0.22976 0.17863 0.0
H1628 H 0.55354 0.15468 0.16919 0.0
H1629 H 0.55746 0.13222 0.13655 0.0
C1630 C 0.21945 0.35439 0.38817 0.0
C1631 C 0.19125 0.33034 0.38616 0.0
C1632 C 0.22169 0.30134 0.35134 0.0
C1633 C 0.24916 0.32621 0.35112 0.0
N1634 N 0.27386 0.37574 0.37643 0.0
N1635 N 0.16586 0.28166 0.36079 0.0
C1636 C 0.24765 0.35239 0.37164 0.0
C1637 C 0.19287 0.30417 0.3664 0.0
N1638 N 0.21894 0.38029 0.40562 0.0
N1639 N 0.22397 0.27341 0.33938 0.0
H1640 H 0.1457 0.28178 0.37211 0.0
H1641 H 0.16247 0.26419 0.34334 0.0
H1642 H 0.24445 0.26919 0.33072 0.0
H1643 H 0.20743 0.25356 0.34163 0.0
H1644 H 0.23581 0.40048 0.40657 0.0
H1645 H 0.20047 0.38196 0.41887 0.0
H1646 H 0.27808 0.39263 0.3945 0.0
H1647 H 0.29251 0.37802 0.36304 0.0
C1648 C 1.02125 0.03571 0.15717 0.0
C1649 C 0.98947 0.04095 0.15095 0.0
C1650 C 1.00808 0.08054 0.1161 0.0
C1651 C 0.03989 0.07469 0.12229 0.0
N1652 N 0.07763 0.05865 0.16163 0.0
N1653 N 0.95111 0.06548 0.12114 0.0
C1654 C 0.04688 0.0556 0.14646 0.0
C1655 C 0.98232 0.06239 0.12923 0.0
N1656 N 1.02687 1.01148 0.1735 0.0
N1657 N 1.00331 0.10565 0.10088 0.0
H1658 H 0.93173 0.05332 0.13064 0.0
H1659 H 0.94378 0.07809 0.10292 0.0
H1660 H 1.02243 0.12224 0.09605 0.0
H1661 H 0.98134 0.11258 0.09705 0.0
H1662 H 0.04932 1.00533 0.17694 0.0
H1663 H 1.00822 0.99569 0.18058 0.0
H1664 H 0.08353 0.04646 0.18077 0.0
H1665 H 0.09605 0.07689 0.15877 0.0
C1666 C 0.33235 0.76415 0.43271 0.0
C1667 C 0.31331 0.77317 0.45459 0.0
C1668 C 0.2973 0.80931 0.4161 0.0
C1669 C 0.31197 0.79608 0.39243 0.0
N1670 N 0.33497 0.75286 0.37847 0.0
N1671 N 0.27395 0.80283 0.46477 0.0
C1672 C 0.32706 0.77126 0.4008 0.0
C1673 C 0.29499 0.79565 0.4458 0.0
N1674 N 0.3559 0.7486 0.44238 0.0
N1675 N 0.28468 0.83441 0.41008 0.0
H1676 H 0.27154 0.79351 0.48622 0.0
H1677 H 0.25727 0.8163 0.4582 0.0
H1678 H 0.28371 0.84356 0.38827 0.0
H1679 H 0.2769 0.84707 0.42723 0.0
H1680 H 0.37259 0.74395 0.42813 0.0
H1681 H 0.36108 0.74371 0.46566 0.0
H1682 H 0.34379 0.73333 0.38357 0.0
H1683 H 0.32854 0.75423 0.35475 0.0
C1684 C 0.55448 0.97568 0.64917 0.0
C1685 C 0.58418 0.9658 0.65054 0.0
C1686 C 0.58256 0.9728 0.59467 0.0
C1687 C 0.56284 0.99436 0.598 0.0
N1688 N 0.52209 1.00957 0.62516 0.0
N1689 N 0.62171 0.94694 0.6219 0.0
C1690 C 0.54578 0.99329 0.62411 0.0
C1691 C 0.5963 0.96113 0.62214 0.0
N1692 N 0.53516 0.9684 0.67166 0.0
N1693 N 0.58688 0.96263 0.56572 0.0
H1694 H 0.63075 0.93703 0.64169 0.0
H1695 H 0.63395 0.94591 0.6026 0.0
H1696 H 0.57418 0.96857 0.54541 0.0
H1697 H 0.5992 0.9452 0.56223 0.0
H1698 H 0.51245 0.97385 0.67108 0.0
H1699 H 0.54052 0.95368 0.68871 0.0
H1700 H 0.51125 1.01239 0.64507 0.0
H1701 H 0.51391 1.02069 0.60591 0.0
C1702 C 0.31124 0.42243 0.92855 0.0
C1703 C 0.32603 0.41649 0.95903 0.0
C1704 C 0.34611 0.37551 0.92859 0.0
C1705 C 0.33558 0.38474 0.89784 0.0
N1706 N 0.31351 0.42444 0.87254 0.0
N1707 N 0.36384 0.38881 0.98462 0.0
C1708 C 0.31953 0.41016 0.89919 0.0
C1709 C 0.34514 0.39338 0.95787 0.0
N1710 N 0.28772 0.43918 0.92715 0.0
N1711 N 0.35574 0.34841 0.93056 0.0
H1712 H 0.36421 0.40057 1.00597 0.0
H1713 H 0.38129 0.37548 0.9849 0.0
H1714 H 0.35435 0.33345 0.91116 0.0
H1715 H 0.36107 0.33903 0.95177 0.0
H1716 H 0.2736 0.44192 0.9063 0.0
H1717 H 0.27949 0.44692 0.9471 0.0
H1718 H 0.30518 0.44472 0.87225 0.0
H1719 H 0.32084 0.41835 0.85164 0.0
C1720 C 0.96168 1.01229 0.32825 0.0
C1721 C 0.95028 0.03725 0.31531 0.0
C1722 C 0.98419 0.07148 0.35734 0.0
C1723 C 0.99446 0.04603 0.37049 0.0
N1724 N 0.98395 0.9918 0.37482 0.0
N1725 N 0.94468 0.08935 0.32095 0.0
C1726 C 0.9801 1.01627 0.35807 0.0
C1727 C 0.95935 0.06649 0.33116 0.0
N1728 N 0.95645 0.98509 0.31139 0.0
N1729 N 0.99918 0.10021 0.36877 0.0
H1730 H 0.92659 0.08618 0.30168 0.0
H1731 H 0.94843 0.11052 0.33305 0.0
H1732 H 1.01754 0.10458 0.38782 0.0
H1733 H 0.99499 0.11964 0.35807 0.0
H1734 H 0.96757 0.96734 0.31837 0.0
H1735 H 0.94349 0.98148 0.28906 0.0
H1736 H 0.97148 0.96976 0.36773 0.0
H1737 H 0.99678 0.99395 0.39736 0.0
C1738 C 0.30239 0.77276 0.66121 0.0
C1739 C 0.32889 0.77476 0.64382 0.0
C1740 C 0.36518 0.80097 0.69122 0.0
C1741 C 0.33897 0.79715 0.70918 0.0
N1742 N 0.28257 0.77676 0.71125 0.0
N1743 N 0.38633 0.78752 0.64372 0.0
C1744 C 0.30768 0.78207 0.69413 0.0
C1745 C 0.36048 0.7882 0.65925 0.0
N1746 N 0.27164 0.76363 0.64577 0.0
N1747 N 0.39477 0.81689 0.70477 0.0
H1748 H 0.38386 0.77844 0.6207 0.0
H1749 H 0.41028 0.79376 0.65415 0.0
H1750 H 0.39965 0.82461 0.72835 0.0
H1751 H 0.41403 0.82387 0.69245 0.0
H1752 H 0.25097 0.76511 0.65571 0.0
H1753 H 0.26655 0.75703 0.62192 0.0
H1754 H 0.26056 0.76221 0.70337 0.0
H1755 H 0.28414 0.78547 0.73423 0.0
C1756 C 0.58782 0.07231 0.79415 0.0
C1757 C 0.61457 0.05802 0.80055 0.0
C1758 C 0.60606 0.05466 0.85533 0.0
C1759 C 0.58126 0.07146 0.8496 0.0
N1760 N 0.54962 0.09849 0.81505 0.0
N1761 N 0.65154 0.0379 0.83704 0.0
C1762 C 0.57227 0.08077 0.81935 0.0
C1763 C 0.62434 0.04977 0.83109 0.0
N1764 N 0.57728 0.07763 0.76399 0.0
N1765 N 0.61175 0.04306 0.88385 0.0
H1766 H 0.66504 0.03308 0.81969 0.0
H1767 H 0.66209 0.03461 0.85941 0.0
H1768 H 0.59936 0.04679 0.90248 0.0
H1769 H 0.62693 0.0278 0.88849 0.0
H1770 H 0.55591 0.08499 0.75723 0.0
H1771 H 0.58897 0.07291 0.74512 0.0
H1772 H 0.54457 0.10904 0.79454 0.0
H1773 H 0.53693 0.10412 0.8328 0.0
C1774 C 0.34452 0.41764 0.18252 0.0
C1775 C 0.32505 0.40512 0.15319 0.0
C1776 C 0.31152 0.35717 0.18309 0.0
C1777 C 0.32701 0.37107 0.21348 0.0
N1778 N 0.35198 0.42018 0.23968 0.0
N1779 N 0.28232 0.36285 0.13188 0.0
C1780 C 0.34164 0.40286 0.21225 0.0
C1781 C 0.30645 0.37491 0.15553 0.0
N1782 N 0.3675 0.4434 0.18245 0.0
N1783 N 0.30281 0.3263 0.17931 0.0
H1784 H 0.27568 0.3749 0.11292 0.0
H1785 H 0.26609 0.34254 0.1333 0.0
H1786 H 0.30806 0.31218 0.19688 0.0
H1787 H 0.29443 0.31468 0.1575 0.0
H1788 H 0.38465 0.45181 0.20186 0.0
H1789 H 0.3721 0.45425 0.16226 0.0
H1790 H 0.35932 0.44372 0.24063 0.0
H1791 H 0.34947 0.41179 0.26143 0.0
C1792 C 0.25692 0.9638 0.05426 0.0
C1793 C 0.28055 0.95389 0.07522 0.0
C1794 C 0.26409 0.9817 0.11881 0.0
C1795 C 0.24599 0.99658 0.09686 0.0
N1796 N 0.22402 1.00145 0.04345 0.0
N1797 N 0.30558 0.95203 0.12841 0.0
C1798 C 0.24163 0.98715 0.06452 0.0
C1799 C 0.28323 0.96178 0.10792 0.0
N1800 N 0.24958 0.95087 0.02437 0.0
N1801 N 0.26308 0.98675 0.15007 0.0
H1802 H 0.31795 0.93551 0.12215 0.0
H1803 H 0.31229 0.96064 0.1516 0.0
H1804 H 0.24985 1.00166 0.15868 0.0
H1805 H 0.27301 0.97439 0.16722 0.0
H1806 H 0.23082 0.95506 1.00829 0.0
H1807 H 0.26048 0.93353 1.01683 0.0
H1808 H 0.22306 0.99823 1.01931 0.0
H1809 H 0.21145 1.01778 0.05017 0.0
C1810 C 0.73619 0.66297 0.03108 0.0
C1811 C 0.76484 0.65543 0.04762 0.0
C1812 C 0.72591 0.61353 0.06972 0.0
C1813 C 0.69753 0.61976 0.05131 0.0
N1814 N 0.67851 0.64934 1.01049 0.0
N1815 N 0.78506 0.62103 0.08234 0.0
C1816 C 0.70378 0.6441 0.03088 0.0
C1817 C 0.75888 0.62988 0.06668 0.0
N1818 N 0.73965 0.68903 1.01568 0.0
N1819 N 0.72141 0.5919 0.09084 0.0
H1820 H 0.80862 0.63296 0.08243 0.0
H1821 H 0.78389 0.60095 0.09358 0.0
H1822 H 0.69878 0.57863 0.09244 0.0
H1823 H 0.73947 0.58808 0.1079 0.0
H1824 H 0.72034 0.69864 1.00678 0.0
H1825 H 0.76214 0.7022 1.01342 0.0
H1826 H 0.68125 0.66347 0.99214 0.0
H1827 H 0.65481 0.63783 1.01044 0.0
C1828 C 0.77437 0.52736 0.36197 0.0
C1829 C 0.79168 0.54588 0.38841 0.0
C1830 C 0.83706 0.52004 0.3866 0.0
C1831 C 0.82218 0.50625 0.35673 0.0
N1832 N 0.77713 0.49749 0.31499 0.0
N1833 N 0.8303 0.54651 0.43462 0.0
C1834 C 0.79075 0.50977 0.3443 0.0
C1835 C 0.82055 0.5385 0.40349 0.0
N1836 N 0.74177 0.52514 0.35516 0.0
N1837 N 0.86706 0.51581 0.39853 0.0
H1838 H 0.8157 0.55522 0.44873 0.0
H1839 H 0.85011 0.54038 0.44754 0.0
H1840 H 0.87914 0.5013 0.38748 0.0
H1841 H 0.88085 0.52795 0.41838 0.0
H1842 H 0.72722 0.5101 0.33766 0.0
H1843 H 0.7288 0.53538 0.36992 0.0
H1844 H 0.75587 0.50231 0.30346 0.0
H1845 H 0.78842 0.48458 0.30103 0.0
C1846 C 0.95108 0.4896 0.57522 0.0
C1847 C 0.94423 0.46497 0.55185 0.0
C1848 C 0.99244 0.48774 0.52891 0.0
C1849 C 0.99967 0.51215 0.55245 0.0
N1850 N 0.98372 0.53904 0.59506 0.0
N1851 N 0.96168 0.43747 0.51051 0.0
C1852 C 0.97845 0.51371 0.57494 0.0
C1853 C 0.96597 0.46311 0.52998 0.0
N1854 N 0.93226 0.48911 0.59865 0.0
N1855 N 1.00982 0.48893 0.50439 0.0
H1856 H 0.94186 0.41959 0.50964 0.0
H1857 H 0.97875 0.43294 0.49674 0.0
H1858 H 1.0296 0.50619 0.50293 0.0
H1859 H 1.00338 0.47412 0.4844 0.0
H1860 H 0.93745 0.50446 0.61819 0.0
H1861 H 0.91226 0.47192 0.59989 0.0
H1862 H 0.96739 0.54376 0.60957 0.0
H1863 H 1.00376 0.55671 0.5958 0.0
C1864 C 0.46424 0.24159 0.34511 0.0
C1865 C 0.48895 0.22851 0.3348 0.0
C1866 C 0.45872 0.21829 0.28206 0.0
C1867 C 0.43245 0.22815 0.29329 0.0
N1868 N 0.41528 0.2605 0.33084 0.0
N1869 N 0.51638 0.22012 0.29069 0.0
C1870 C 0.43693 0.24365 0.32337 0.0
C1871 C 0.48853 0.22224 0.30223 0.0
N1872 N 0.46626 0.25033 0.37607 0.0
N1873 N 0.45484 0.20385 0.25296 0.0
H1874 H 0.53889 0.22563 0.30454 0.0
H1875 H 0.51767 0.21724 0.26684 0.0
H1876 H 0.43332 0.20065 0.23756 0.0
H1877 H 0.47225 0.19327 0.24502 0.0
H1878 H 0.44725 0.2564 0.38608 0.0
H1879 H 0.48705 0.25033 0.39181 0.0
H1880 H 0.41863 0.27426 0.35148 0.0
H1881 H 0.39558 0.26311 0.31489 0.0
C1882 C 0.45521 0.14174 0.57675 0.0
C1883 C 0.44327 0.15584 0.54933 0.0
C1884 C 0.48881 0.13742 0.52461 0.0
C1885 C 0.50019 0.12235 0.55149 0.0
N1886 N 0.49386 0.11457 0.60523 0.0
N1887 N 0.44927 0.16266 0.49536 0.0
C1888 C 0.48316 0.12608 0.57802 0.0
C1889 C 0.46047 0.15221 0.52303 0.0
N1890 N 0.43821 0.14141 0.60148 0.0
N1891 N 0.50691 0.13992 0.50072 0.0
H1892 H 0.43181 0.17604 0.49358 0.0
H1893 H 0.45601 0.15685 0.47393 0.0
H1894 H 0.52705 0.13007 0.50067 0.0
H1895 H 0.50417 0.15423 0.48269 0.0
H1896 H 0.44163 0.12893 0.62089 0.0
H1897 H 0.41895 0.15252 0.60174 0.0
H1898 H 0.48688 0.11933 0.62678 0.0
H1899 H 0.51109 0.10097 0.60655 0.0
C1900 C 0.82838 0.70225 0.37888 0.0
C1901 C 0.80114 0.70213 0.39525 0.0
C1902 C 0.80814 0.75736 0.3919 0.0
C1903 C 0.83154 0.75619 0.37163 0.0
N1904 N 0.87253 0.73179 0.35578 0.0
N1905 N 0.76742 0.72968 0.42049 0.0
C1906 C 0.84461 0.73002 0.36864 0.0
C1907 C 0.79238 0.72999 0.40346 0.0
N1908 N 0.83689 0.67573 0.37009 0.0
N1909 N 0.80105 0.78478 0.39967 0.0
H1910 H 0.75497 0.70977 0.42835 0.0
H1911 H 0.75861 0.74865 0.42685 0.0
H1912 H 0.81234 0.80477 0.39111 0.0
H1913 H 0.78563 0.7883 0.41561 0.0
H1914 H 0.8526 0.6741 0.35384 0.0
H1915 H 0.8275 0.6547 0.37759 0.0
H1916 H 0.88566 0.71456 0.35607 0.0
H1917 H 0.88441 0.75185 0.34766 0.0
C1918 C 0.04171 0.54359 0.86307 0.0
C1919 C 1.03068 0.56586 0.84478 0.0
C1920 C 0.98495 0.52758 0.8185 0.0
C1921 C 0.99587 0.50532 0.83697 0.0
N1922 N 0.04055 0.48989 0.86735 0.0
N1923 N 0.99966 0.5762 0.79689 0.0
C1924 C 1.02623 0.51264 0.85629 0.0
C1925 C 1.0048 0.55695 0.8198 0.0
N1926 N 0.06587 0.55198 0.8877 0.0
N1927 N 0.95511 0.52133 0.80087 0.0
H1928 H 1.01462 0.59735 0.79609 0.0
H1929 H 0.98294 0.56983 0.77676 0.0
H1930 H 0.93906 0.50058 0.80008 0.0
H1931 H 0.94505 0.53763 0.78898 0.0
H1932 H 0.07294 0.53677 0.90336 0.0
H1933 H 0.0772 0.57453 0.89393 0.0
H1934 H 0.06405 0.4937 0.87915 0.0
H1935 H 1.03 0.46701 0.86182 0.0
C1936 C 0.13903 0.96071 0.07274 0.0
C1937 C 0.12725 0.95301 0.10118 0.0
C1938 C 0.09017 0.98799 0.09411 0.0
C1939 C 0.10404 0.99808 0.06739 0.0
N1940 N 0.13916 0.99326 0.02901 0.0
N1941 N 0.09723 0.9636 0.14248 0.0
C1942 C 0.12765 0.98395 0.05589 0.0
C1943 C 0.10425 0.96771 0.11275 0.0
N1944 N 0.16173 0.94642 0.06266 0.0
N1945 N 0.06349 0.9976 0.10177 0.0
H1946 H 0.10808 0.94981 0.15739 0.0
H1947 H 0.08341 0.97626 0.15357 0.0
H1948 H 0.05216 1.01251 0.08893 0.0
H1949 H 0.05031 0.98808 0.11887 0.0
H1950 H 0.16999 0.94898 0.04113 0.0
H1951 H 0.17275 0.93179 0.07639 0.0
H1952 H 0.1574 0.98532 1.01953 0.0
H1953 H 0.12976 1.00908 1.0156 0.0
C1954 C 0.93462 0.23312 0.854 0.0
C1955 C 0.94965 0.25052 0.882 0.0
C1956 C 0.91602 0.28787 0.87022 0.0
C1957 C 0.90356 0.2725 0.84027 0.0
N1958 N 0.89727 0.22592 0.80708 0.0
N1959 N 0.93835 0.2833 0.92343 0.0
C1960 C 0.91095 0.24358 0.83357 0.0
C1961 C 0.93556 0.27452 0.89231 0.0
N1962 N 0.94198 0.20595 0.84625 0.0
N1963 N 0.90875 0.31509 0.87831 0.0
H1964 H 0.94924 0.27268 0.94144 0.0
H1965 H 0.92612 0.29907 0.93203 0.0
H1966 H 0.89072 0.32383 0.86576 0.0
H1967 H 0.92157 0.32948 0.89722 0.0
H1968 H 0.95857 0.19626 0.8603 0.0
H1969 H 0.95857 0.19626 0.8603 0.0
H1970 H 0.8804 0.23191 0.79002 0.0
H1971 H 0.8804 0.23191 0.79002 0.0
C1972 C 0.66626 0.28941 0.6513 0.0
C1973 C 0.65502 0.30489 0.67553 0.0
C1974 C 0.64256 0.25745 0.70138 0.0
C1975 C 0.64963 0.2417 0.67493 0.0
N1976 N 0.66507 0.24246 0.6227 0.0
N1977 N 0.62892 0.30333 0.72203 0.0
C1978 C 0.66052 0.25759 0.64938 0.0
C1979 C 0.64253 0.2889 0.70042 0.0
N1980 N 0.68264 0.30424 0.62951 0.0
N1981 N 0.63672 0.24253 0.72761 0.0
H1982 H 0.62714 0.32601 0.72118 0.0
H1983 H 0.61637 0.29215 0.73873 0.0
H1984 H 0.63681 0.21947 0.72908 0.0
H1985 H 0.63468 0.25347 0.74877 0.0
H1986 H 0.6895 0.32779 0.62948 0.0
H1987 H 0.6895 0.32779 0.62948 0.0
H1988 H 0.67318 0.25376 0.60371 0.0
H1989 H 0.65869 0.21894 0.61855 0.0
C1990 C 0.63214 0.77695 0.40845 0.0
C1991 C 0.60827 0.75091 0.39761 0.0
C1992 C 0.64688 0.72868 0.3727 0.0
C1993 C 0.66662 0.75797 0.37525 0.0
N1994 N 0.68144 0.80945 0.39841 0.0
N1995 N 0.59392 0.69879 0.37744 0.0
C1996 C 0.66095 0.7817 0.39501 0.0
C1997 C 0.61625 0.72536 0.38282 0.0
N1998 N 0.62686 0.79732 0.43056 0.0
N1999 N 0.65718 0.70488 0.35946 0.0
H2000 H 0.57198 0.69593 0.3864 0.0
H2001 H 0.59688 0.67989 0.3643 0.0
H2002 H 0.67992 0.70758 0.35213 0.0
H2003 H 0.64457 0.68249 0.35781 0.0
H2004 H 0.64459 0.81552 0.44101 0.0
H2005 H 0.60576 0.79443 0.44082 0.0
H2006 H 0.67614 0.82879 0.4089 0.0
H2007 H 0.70334 0.81356 0.3895 0.0
C2008 C 0.11517 0.22488 0.50649 0.0
C2009 C 0.0945 0.22913 0.47815 0.0
C2010 C 0.06977 0.17189 0.48092 0.0
C2011 C 0.08947 0.16808 0.50986 0.0
N2012 N 0.13502 0.19297 0.54673 0.0
N2013 N 0.04715 0.20425 0.44309 0.0
C2014 C 0.11278 0.19549 0.52169 0.0
C2015 C 0.07087 0.20167 0.46667 0.0
N2016 N 0.13788 0.24944 0.51949 0.0
N2017 N 0.04951 0.14652 0.46628 0.0
H2018 H 0.04586 0.22451 0.43278 0.0
H2019 H 1.02685 0.18728 0.43576 0.0
H2020 H 0.04583 0.12575 0.47643 0.0
H2021 H 1.03804 0.14542 0.44334 0.0
H2022 H 0.14978 0.25124 0.54227 0.0
H2023 H 0.14463 0.26874 0.50756 0.0
H2024 H 0.15537 0.2095 0.55504 0.0
H2025 H 0.13478 0.17302 0.5581 0.0
C2026 C 0.69721 0.35163 0.25012 0.0
C2027 C 0.68439 0.33355 0.22121 0.0
C2028 C 0.73942 0.31998 0.22446 0.0
C2029 C 0.74999 0.33342 0.25562 0.0
N2030 N 0.73472 0.3596 0.29909 0.0
N2031 N 0.6947 0.29437 0.18588 0.0
C2032 C 0.72755 0.34852 0.26859 0.0
C2033 C 0.70598 0.31608 0.20987 0.0
N2034 N 0.68156 0.37342 0.25945 0.0
N2035 N 0.76191 0.31271 0.20743 0.0
H2036 H 0.67061 0.28872 0.17581 0.0
H2037 H 0.70858 0.2794 0.17869 0.0
H2038 H 0.78647 0.31806 0.21603 0.0
H2039 H 0.75663 0.30549 0.18373 0.0
H2040 H 0.69098 0.38913 0.27839 0.0
H2041 H 0.66141 0.37845 0.24604 0.0
H2042 H 0.71831 0.36787 0.31126 0.0
H2043 H 0.75606 0.35777 0.31293 0.0
C2044 C 0.61602 0.95737 0.96046 0.0
C2045 C 0.60124 0.92778 0.97042 0.0
C2046 C 0.58195 0.96106 1.01221 0.0
C2047 C 0.5965 0.9904 1.00195 0.0
N2048 N 0.63099 1.01361 0.96649 0.0
N2049 N 0.57211 0.90489 1.01031 0.0
C2050 C 0.61405 0.98731 0.97583 0.0
C2051 C 0.58495 0.931 0.99763 0.0
N2052 N 0.63329 0.95718 0.93598 0.0
N2053 N 0.56331 0.96169 0.03557 0.0
H2054 H 0.57158 0.88346 1.00005 0.0
H2055 H 0.56377 0.90411 0.0319 0.0
H2056 H 0.56131 0.98185 0.04716 0.0
H2057 H 0.54799 0.94282 0.04216 0.0
H2058 H 0.63943 0.97564 0.92272 0.0
H2059 H 0.64178 0.93818 0.92885 0.0
H2060 H 0.64744 1.01476 0.95058 0.0
H2061 H 0.63018 0.03492 0.97639 0.0
C2062 C 0.98253 0.85984 0.73955 0.0
C2063 C 0.99327 0.83382 0.72671 0.0
C2064 C 0.94155 0.80379 0.74502 0.0
C2065 C 0.93357 0.82942 0.76216 0.0
N2066 N 0.95251 0.88318 0.77522 0.0
N2067 N 0.9816 0.77944 0.72292 0.0
C2068 C 0.95618 0.85751 0.75936 0.0
C2069 C 0.9721 0.80554 0.73105 0.0
N2070 N 0.99592 0.88774 0.73071 0.0
N2071 N 0.9196 0.77705 0.74107 0.0
H2072 H 1.00272 0.77933 0.71324 0.0
H2073 H 0.97008 0.7581 0.72818 0.0
H2074 H 0.89811 0.77381 0.75043 0.0
H2075 H 0.92117 0.759 0.72586 0.0
H2076 H 0.98747 0.90737 0.73558 0.0
H2077 H 1.01251 0.89066 0.7148 0.0
H2078 H 0.97026 0.90299 0.7786 0.0
H2079 H 0.93262 0.88436 0.78647 0.0
C2080 C 0.18066 0.08287 0.93877 0.0
C2081 C 0.21152 0.0992 0.95346 0.0
C2082 C 0.19292 0.08749 1.00333 0.0
C2083 C 0.16035 0.08226 0.98873 0.0
N2084 N 0.1233 0.07495 0.94022 0.0
N2085 N 0.24601 0.11737 1.00305 0.0
C2086 C 0.15401 0.07949 0.9557 0.0
C2087 C 0.21779 0.10126 0.98673 0.0
N2088 N 0.17715 0.06943 0.9093 0.0
N2089 N 0.20005 0.07907 0.03294 0.0
H2090 H 0.26523 0.12905 0.99307 0.0
H2091 H 0.24915 0.12132 0.02734 0.0
H2092 H 0.18229 0.06725 0.04484 0.0
H2093 H 0.22371 0.0803 0.04358 0.0
H2094 H 0.15543 0.05597 0.89845 0.0
H2095 H 0.19709 0.06805 0.89806 0.0
H2096 H 0.11853 0.07579 0.91599 0.0
H2097 H 0.10287 0.07248 0.95144 0.0
C2098 C 0.8555 0.34676 0.65259 0.0
C2099 C 0.86987 0.37719 0.64714 0.0
C2100 C 0.87934 0.38769 0.70484 0.0
C2101 C 0.86996 0.35617 0.71002 0.0
N2102 N 0.86151 0.3054 0.68519 0.0
N2103 N 0.90702 0.42259 0.67158 0.0
C2104 C 0.86203 0.33561 0.68278 0.0
C2105 C 0.88535 0.39648 0.67425 0.0
N2106 N 0.83407 0.32855 0.63008 0.0
N2107 N 0.8811 0.4098 0.72798 0.0
H2108 H 0.91582 0.42827 0.65077 0.0
H2109 H 0.91999 0.43604 0.69111 0.0
H2110 H 0.87412 0.4057 0.74981 0.0
H2111 H 0.88551 0.4328 0.72381 0.0
H2112 H 0.82196 0.30697 0.63439 0.0
H2113 H 0.82455 0.33632 0.60929 0.0
H2114 H 0.85752 0.2901 0.66557 0.0
H2115 H 0.86964 0.29663 0.70602 0.0
C2116 C 0.61415 0.16652 0.4462 0.0
C2117 C 0.58553 0.1782 0.44529 0.0
C2118 C 0.58654 0.1727 0.50165 0.0
C2119 C 0.60784 0.15218 0.4996 0.0
N2120 N 0.64837 0.13568 0.47325 0.0
N2121 N 0.55728 0.20784 0.47478 0.0
C2122 C 0.62423 0.15164 0.47305 0.0
C2123 C 0.57585 0.18639 0.47408 0.0
N2124 N 0.63221 0.1709 0.42227 0.0
N2125 N 0.57497 0.17748 0.52906 0.0
H2126 H 0.55135 0.21918 0.45492 0.0
H2127 H 0.5505 0.2165 0.49505 0.0
H2128 H 0.58476 0.17078 0.5503 0.0
H2129 H 0.55604 0.18861 0.53106 0.0
H2130 H 0.65417 0.16413 0.42212 0.0
H2131 H 0.6273 0.18505 0.40454 0.0
H2132 H 0.65873 0.13098 0.45353 0.0
H2133 H 0.65742 0.12648 0.49352 0.0
C2134 C 0.88481 0.77275 0.16928 0.0
C2135 C 0.86184 0.74617 0.15511 0.0
C2136 C 0.83607 0.74887 0.20523 0.0
C2137 C 0.85676 0.77728 0.21769 0.0
N2138 N 0.89779 0.81828 0.20559 0.0
N2139 N 0.81053 0.71404 0.15998 0.0
C2140 C 0.88031 0.78952 0.19796 0.0
C2141 C 0.83627 0.73572 0.17344 0.0
N2142 N 0.91226 0.78167 0.15612 0.0
N2143 N 0.81661 0.73319 0.22435 0.0
H2144 H 0.80847 0.70469 0.13718 0.0
H2145 H 0.78951 0.70783 0.17012 0.0
H2146 H 0.81626 0.74087 0.24739 0.0
H2147 H 0.80364 0.71109 0.21861 0.0
H2148 H 0.93164 0.79839 0.16659 0.0
H2149 H 0.9172 0.77009 0.1365 0.0
H2150 H 0.91248 0.83023 0.19088 0.0
H2151 H 0.89506 0.83138 0.22517 0.0
C2152 C 0.21675 0.08009 0.76317 0.0
C2153 C 0.20822 0.06922 0.79171 0.0
C2154 C 0.15197 0.05234 0.76893 0.0
C2155 C 0.15895 0.0698 0.74329 0.0
N2156 N 0.19769 0.09085 0.70996 0.0
N2157 N 0.1742 0.02997 0.81486 0.0
C2158 C 0.19151 0.08023 0.73821 0.0
C2159 C 0.17792 0.04977 0.79193 0.0
N2160 N 0.24852 0.09027 0.76045 0.0
N2161 N 0.12076 0.04045 0.77256 0.0
H2162 H 0.19373 0.02805 0.83144 0.0
H2163 H 0.15319 1.0138 0.81544 0.0
H2164 H 0.10119 0.04194 0.75594 0.0
H2165 H 0.11422 0.03037 0.79268 0.0
H2166 H 0.25684 0.10027 0.74099 0.0
H2167 H 0.26688 0.08684 0.77755 0.0
H2168 H 0.22063 0.09936 0.70448 0.0
H2169 H 0.17936 0.08998 0.6912 0.0
C2170 C 0.81725 0.38102 0.43538 0.0
C2171 C 0.84399 0.37898 0.45823 0.0
C2172 C 0.86246 0.34731 0.41842 0.0
C2173 C 0.83878 0.35362 0.39457 0.0
N2174 N 0.79568 0.37994 0.3803 0.0
N2175 N 0.89536 0.36347 0.46868 0.0
C2176 C 0.81675 0.37144 0.40312 0.0
C2177 C 0.86729 0.36265 0.44911 0.0
N2178 N 0.79165 0.39132 0.44471 0.0
N2179 N 0.88068 0.3267 0.41179 0.0
H2180 H 0.90054 0.37458 0.4909 0.0
H2181 H 0.91488 0.35544 0.46175 0.0
H2182 H 0.87822 0.31546 0.38975 0.0
H2183 H 0.89606 0.31877 0.4288 0.0
H2184 H 0.7702 0.39089 0.42992 0.0
H2185 H 0.79047 0.39709 0.46812 0.0
H2186 H 0.7816 0.39579 0.38439 0.0
H2187 H 0.79412 0.37279 0.35679 0.0
C2188 C 0.58866 0.14186 0.26474 0.0
C2189 C 0.60809 0.15026 0.29421 0.0
C2190 C 0.65494 0.1387 0.27233 0.0
C2191 C 0.63467 0.12799 0.24399 0.0
N2192 N 0.58131 0.11703 0.21347 0.0
N2193 N 0.65909 0.15625 0.32736 0.0
C2194 C 0.6014 0.12902 0.24027 0.0
C2195 C 0.64131 0.14885 0.29843 0.0
N2196 N 0.55735 0.1453 0.2593 0.0
N2197 N 0.68704 0.13905 0.27308 0.0
H2198 H 0.64954 0.16449 0.34628 0.0
H2199 H 0.68263 0.15322 0.33318 0.0
H2200 H 0.70475 0.14767 0.29198 0.0
H2201 H 0.70475 0.14767 0.29198 0.0
H2202 H 0.54556 0.15516 0.27548 0.0
H2203 H 0.54556 0.15516 0.27548 0.0
H2204 H 0.55663 0.11709 0.21038 0.0
H2205 H 0.58873 0.10596 0.19489 0.0
C2206 C 0.88204 0.74523 0.93917 0.0
C2207 C 0.85724 0.74212 0.95952 0.0
C2208 C 0.83174 0.77684 0.92226 0.0
C2209 C 0.85495 0.77799 0.90049 0.0
N2210 N 0.90615 0.76658 0.89357 0.0
N2211 N 0.80575 0.75382 0.96568 0.0
C2212 C 0.88111 0.76295 0.91072 0.0
C2213 C 0.83163 0.75792 0.94961 0.0
N2214 N 0.9069 0.7307 0.94704 0.0
N2215 N 0.8106 0.79594 0.91818 0.0
H2216 H 0.80492 0.7414 0.98552 0.0
H2217 H 0.78425 0.76066 0.95806 0.0
H2218 H 0.81066 0.81046 0.89996 0.0
H2219 H 0.79547 0.79974 0.93437 0.0
H2220 H 0.92521 0.72947 0.93369 0.0
H2221 H 0.90905 0.7192 0.96743 0.0
H2222 H 0.92788 0.75989 0.90005 0.0
H2223 H 0.90594 0.77841 0.87332 0.0
C2224 C 0.89198 0.18847 0.99148 0.0
C2225 C 0.88643 0.19845 1.02177 0.0
C2226 C 0.93203 0.17668 0.04508 0.0
C2227 C 0.93378 0.16292 1.01528 0.0
N2228 N 0.91288 0.15292 0.96041 0.0
N2229 N 0.90023 0.20025 0.07791 0.0
C2230 C 0.9135 0.16851 0.98849 0.0
C2231 C 0.90663 0.1926 0.04876 0.0
N2232 N 0.87586 0.19744 0.96524 0.0
N2233 N 0.9547 0.17447 0.06984 0.0
H2234 H 0.88229 0.21217 0.08165 0.0
H2235 H 0.91141 0.19324 0.09841 0.0
H2236 H 0.97302 0.16246 0.06791 0.0
H2237 H 0.95694 0.18647 0.09142 0.0
H2238 H 0.88227 0.19487 0.94295 0.0
H2239 H 0.85739 0.20931 0.96594 0.0
H2240 H 0.89556 0.15293 0.94105 0.0
H2241 H 0.92785 0.13771 0.95693 0.0
C2242 C 0.43081 0.52691 0.07301 0.0
C2243 C 0.41853 0.49741 0.05715 0.0
C2244 C 0.47525 0.50024 0.04395 0.0
C2245 C 0.48636 0.53144 0.05586 0.0
N2246 N 0.47023 0.57499 0.07852 0.0
N2247 N 0.43054 0.45841 0.02357 0.0
C2248 C 0.4628 0.5447 0.06964 0.0
C2249 C 0.44136 0.48495 0.04166 0.0
N2250 N 0.41226 0.53787 0.09244 0.0
N2251 N 0.49749 0.48391 0.03676 0.0
H2252 H 0.40657 0.4468 1.02092 0.0
H2253 H 0.44436 0.44976 1.00856 0.0
H2254 H 0.52223 0.49274 0.03998 0.0
H2255 H 0.4919 0.46054 0.03143 0.0
H2256 H 0.42056 0.55724 0.10757 0.0
H2257 H 0.38932 0.52611 0.09538 0.0
H2258 H 0.4539 0.58684 0.08657 0.0
H2259 H 0.49159 0.58912 0.07461 0.0
C2260 C 0.41651 0.64859 0.75646 0.0
C2261 C 0.40222 0.62395 0.7346 0.0
C2262 C 0.35092 0.64068 0.72871 0.0
C2263 C 0.36425 0.66385 0.75276 0.0
N2264 N 0.41178 0.69659 0.78124 0.0
N2265 N 0.36169 0.60347 0.69122 0.0
C2266 C 0.39791 0.67015 0.76379 0.0
C2267 C 0.37139 0.62261 0.71754 0.0
N2268 N 0.44719 0.6503 0.77126 0.0
N2269 N 0.31852 0.63445 0.71824 0.0
H2270 H 0.37677 0.5901 0.68306 0.0
H2271 H 0.34037 0.60298 0.67622 0.0
H2272 H 0.30259 0.6469 0.72619 0.0
H2273 H 0.30708 0.61564 0.70324 0.0
H2274 H 0.45779 0.66555 0.79026 0.0
H2275 H 0.46162 0.63544 0.76491 0.0
H2276 H 0.43657 0.70352 0.78805 0.0
H2277 H 0.39864 0.71298 0.78645 0.0
C2278 C 0.22723 0.66814 0.56219 0.0
C2279 C 0.22473 0.69274 0.543 0.0
C2280 C 0.1699 0.66668 0.52069 0.0
C2281 C 0.17131 0.6424 0.54105 0.0
N2282 N 0.20128 0.62432 0.58588 0.0
N2283 N 0.19106 0.71891 0.51 0.0
C2284 C 0.19994 0.64426 0.56301 0.0
C2285 C 0.195 0.6933 0.52463 0.0
N2286 N 0.25608 0.66719 0.57974 0.0
N2287 N 0.14607 0.66332 0.4956 0.0
H2288 H 0.20947 0.73816 0.51132 0.0
H2289 H 0.16886 0.72205 0.49898 0.0
H2290 H 0.13129 0.64244 0.48766 0.0
H2291 H 0.14421 0.67968 0.47951 0.0
H2292 H 0.26123 0.64777 0.58983 0.0
H2293 H 0.27579 0.68521 0.5829 0.0
H2294 H 0.21875 0.62821 0.60564 0.0
H2295 H 0.18433 0.60478 0.58703 0.0
C2296 C 0.70798 0.97178 0.81047 0.0
C2297 C 0.71076 0.98231 0.78034 0.0
C2298 C 0.76836 0.98214 0.78756 0.0
C2299 C 0.76541 0.96919 0.81657 0.0
N2300 N 0.73188 0.9475 0.85414 0.0
N2301 N 0.74095 0.99001 0.73695 0.0
C2302 C 0.73501 0.96283 0.82772 0.0
C2303 C 0.74018 0.98491 0.76785 0.0
N2304 N 0.67988 0.97097 0.82269 0.0
N2305 N 0.79825 0.99176 0.77894 0.0
H2306 H 0.76112 0.98964 0.72577 0.0
H2307 H 0.72023 0.99149 0.72178 0.0
H2308 H 0.81951 0.99022 0.7932 0.0
H2309 H 0.80206 1.00392 0.75929 0.0
H2310 H 0.67741 0.96673 0.84587 0.0
H2311 H 0.65933 0.97581 0.80963 0.0
H2312 H 0.70968 0.93916 0.86148 0.0
H2313 H 0.75154 0.94176 0.86784 0.0
C2314 C 0.70648 0.98293 0.54493 0.0
C2315 C 0.73899 1.00092 0.54674 0.0
C2316 C 0.70999 0.04613 0.5528 0.0
C2317 C 0.67747 0.02856 0.54733 0.0
N2318 N 0.64766 0.9781 0.53092 0.0
N2319 N 0.76431 0.05332 0.53954 0.0
C2320 C 0.67685 0.99639 0.54136 0.0
C2321 C 0.73847 0.03344 0.54723 0.0
N2322 N 0.70323 0.95229 0.54589 0.0
N2323 N 0.71445 0.07613 0.56227 0.0
H2324 H 0.78309 0.04677 0.53004 0.0
H2325 H 0.76445 0.07627 0.53709 0.0
H2326 H 0.69548 0.08737 0.56372 0.0
H2327 H 0.73716 0.08922 0.5709 0.0
H2328 H 0.68152 0.93791 0.54843 0.0
H2329 H 0.72285 0.9416 0.54644 0.0
H2330 H 0.64493 0.9555 0.52277 0.0
H2331 H 0.62652 0.98653 0.52741 0.0
C2332 C 0.43619 0.45045 0.75409 0.0
C2333 C 0.41748 0.46849 0.73669 0.0
C2334 C 0.37048 0.4258 0.73091 0.0
C2335 C 0.3884 0.4095 0.75182 0.0
N2336 N 0.44176 0.39966 0.76553 0.0
N2337 N 0.36844 0.4691 0.70117 0.0
C2338 C 0.42237 0.41977 0.75796 0.0
C2339 C 0.38542 0.45497 0.72279 0.0
N2340 N 0.46655 0.46288 0.76871 0.0
N2341 N 0.33962 0.41352 0.71749 0.0
H2342 H 0.37756 0.48994 0.69267 0.0
H2343 H 0.37756 0.48994 0.69267 0.0
H2344 H 0.32909 0.39068 0.71757 0.0
H2345 H 0.32549 0.4258 0.70366 0.0
H2346 H 0.47962 0.45145 0.78457 0.0
H2347 H 0.47726 0.48553 0.76755 0.0
H2348 H 0.46677 0.40553 0.76678 0.0
H2349 H 0.43269 0.37639 0.76567 0.0
C2350 C 0.12903 0.60744 0.26682 0.0
C2351 C 0.13964 0.58375 0.25131 0.0
C2352 C 0.18272 0.62094 0.23371 0.0
C2353 C 0.17497 0.64422 0.25274 0.0
N2354 N 0.13987 0.65847 0.28864 0.0
N2355 N 0.17581 0.56828 0.21767 0.0
C2356 C 0.1478 0.63735 0.26921 0.0
C2357 C 0.16621 0.59064 0.2342 0.0
N2358 N 0.10161 0.60137 0.28057 0.0
N2359 N 0.20553 0.62686 0.21417 0.0
H2360 H 0.16428 0.54562 0.21626 0.0
H2361 H 0.19556 0.57249 0.20534 0.0
H2362 H 0.21814 0.6485 0.21071 0.0
H2363 H 0.21814 0.6485 0.21071 0.0
H2364 H 0.08712 0.57969 0.27945 0.0
H2365 H 0.09318 0.61825 0.29244 0.0
H2366 H 0.15311 0.68061 0.29357 0.0
H2367 H 0.15311 0.68061 0.29357 0.0
C2368 C 0.52896 0.66503 0.48814 0.0
C2369 C 0.54784 0.69119 0.47861 0.0
C2370 C 0.59637 0.67781 0.50731 0.0
C2371 C 0.57616 0.65365 0.51937 0.0
N2372 N 0.5232 0.63189 0.53009 0.0
N2373 N 0.59988 0.72569 0.48301 0.0
C2374 C 0.54242 0.65022 0.51291 0.0
C2375 C 0.58172 0.69888 0.48967 0.0
N2376 N 0.49881 0.65324 0.4728 0.0
N2377 N 0.62898 0.67972 0.51124 0.0
H2378 H 0.59025 0.74134 0.46972 0.0
H2379 H 0.62398 0.73331 0.49265 0.0
H2380 H 0.64001 0.66478 0.52452 0.0
H2381 H 0.64464 0.69487 0.49989 0.0
H2382 H 0.48708 0.63138 0.47605 0.0
H2383 H 0.48682 0.66387 0.45535 0.0
H2384 H 0.4985 0.63008 0.52696 0.0
H2385 H 0.53235 0.62112 0.54915 0.0
C2386 C 0.76402 0.42192 0.73428 0.0
C2387 C 0.75604 0.40839 0.70325 0.0
C2388 C 0.78069 0.36598 0.71823 0.0
C2389 C 0.78619 0.37738 0.75023 0.0
N2390 N 0.78948 0.41949 0.78783 0.0
N2391 N 0.77454 0.37922 0.66432 0.0
C2392 C 0.78028 0.40671 0.75795 0.0
C2393 C 0.77078 0.38451 0.69482 0.0
N2394 N 0.75565 0.44902 0.74076 0.0
N2395 N 0.78307 0.33701 0.7099 0.0
H2396 H 0.76799 0.39342 0.64718 0.0
H2397 H 0.78743 0.36336 0.65712 0.0
H2398 H 0.78712 0.32121 0.72596 0.0
H2399 H 0.77693 0.32748 0.68696 0.0
H2400 H 0.75752 0.45924 0.76315 0.0
H2401 H 0.74709 0.46154 0.72288 0.0
H2402 H 0.78803 0.44152 0.79474 0.0
H2403 H 0.79961 0.40816 0.8059 0.0
C2404 C 1.02214 0.3611 0.92823 0.0
C2405 C 0.04503 0.34952 0.91281 0.0
C2406 C 0.0743 0.40163 0.90965 0.0
C2407 C 0.05402 0.41217 0.92936 0.0
N2408 N 1.01407 0.40009 0.96438 0.0
N2409 N 0.0968 0.35903 0.89371 0.0
C2410 C 1.02971 0.39131 0.94095 0.0
C2411 C 0.07229 0.36983 0.90477 0.0
N2412 N 0.99216 0.34395 0.92877 0.0
N2413 N 0.09464 0.42178 0.89486 0.0
H2414 H 0.09711 0.33599 0.8912 0.0
H2415 H 0.11829 0.37308 0.89 0.0
H2416 H 0.09629 0.44519 0.89744 0.0
H2417 H 0.10752 0.41507 0.8778 0.0
H2418 H 0.97376 0.35227 0.93775 0.0
H2419 H 0.98466 0.32316 0.91597 0.0
H2420 H 0.99789 0.38471 0.97502 0.0
H2421 H 1.0199 0.42189 0.97546 0.0
C2422 C 0.08803 0.89591 0.24011 0.0
C2423 C 0.07663 0.8972 0.20769 0.0
C2424 C 1.02245 0.89806 0.22016 0.0
C2425 C 1.03412 0.89663 0.25213 0.0
N2426 N 0.07888 0.90485 0.29357 0.0
N2427 N 1.03594 0.90928 0.16859 0.0
C2428 C 0.06734 0.89949 0.26239 0.0
C2429 C 0.04472 0.90145 0.19822 0.0
N2430 N 0.1173 0.88869 0.24978 0.0
N2431 N 0.99005 0.89488 0.21066 0.0
H2432 H 0.05192 0.91272 0.15212 0.0
H2433 H 1.01393 0.91538 0.1614 0.0
H2434 H 0.97324 0.89348 0.22636 0.0
H2435 H 0.97976 0.892 0.18722 0.0
H2436 H 0.12445 0.88395 0.27272 0.0
H2437 H 0.13341 0.88431 0.23494 0.0
H2438 H 0.10345 0.91011 0.30218 0.0
H2439 H 0.06391 0.90723 0.31045 0.0
C2440 C 0.55501 0.43404 0.12493 0.0
C2441 C 0.5792 0.41523 0.12622 0.0
C2442 C 0.61126 0.45966 0.09885 0.0
C2443 C 0.58703 0.47844 0.09749 0.0
N2444 N 0.53582 0.48144 0.11351 0.0
N2445 N 0.62929 0.41134 0.10845 0.0
C2446 C 0.55909 0.4647 0.11184 0.0
C2447 C 0.60701 0.42885 0.11169 0.0
N2448 N 0.52686 0.42204 0.13579 0.0
N2449 N 0.63986 0.47208 0.08911 0.0
H2450 H 0.62767 0.39008 0.11757 0.0
H2451 H 0.64795 0.41662 0.09503 0.0
H2452 H 0.64377 0.49327 0.07978 0.0
H2453 H 0.66044 0.46279 0.09237 0.0
H2454 H 0.50602 0.43091 0.13247 0.0
H2455 H 0.52379 0.40192 0.14717 0.0
H2456 H 0.51683 0.47626 0.12651 0.0
H2457 H 0.53627 0.50179 0.10279 0.0
C2458 C 0.99081 0.34373 0.39533 0.0
C2459 C 1.01312 0.3267 0.38476 0.0
C2460 C 0.97154 0.31036 0.33628 0.0
C2461 C 0.94959 0.32774 0.34675 0.0
N2462 N 0.9419 0.36491 0.38499 0.0
N2463 N 1.02082 0.28964 0.34629 0.0
C2464 C 0.96034 0.34531 0.37605 0.0
C2465 C 1.00229 0.30909 0.35537 0.0
N2466 N 0.99854 0.35834 0.42448 0.0
N2467 N 0.96347 0.29576 0.30712 0.0
H2468 H 0.0429 0.28816 0.35902 0.0
H2469 H 1.01374 0.27363 0.32736 0.0
H2470 H 0.94156 0.29575 0.29318 0.0
H2471 H 0.97905 0.28557 0.29568 0.0
H2472 H 0.98254 0.3679 0.43598 0.0
H2473 H 1.02086 0.3596 0.43805 0.0
H2474 H 0.94919 0.38118 0.40369 0.0
H2475 H 0.9199 0.36647 0.37213 0.0
C2476 C 0.04788 0.71267 0.60768 0.0
C2477 C 0.07409 0.73012 0.62992 0.0
C2478 C 0.10332 0.68671 0.61764 0.0
C2479 C 0.07607 0.66786 0.5978 0.0
N2480 N 1.01956 0.66397 0.57987 0.0
N2481 N 0.12603 0.72789 0.65828 0.0
C2482 C 0.04781 0.68153 0.59446 0.0
C2483 C 0.10123 0.71505 0.63555 0.0
N2484 N 1.02217 0.72578 0.59885 0.0
N2485 N 0.1327 0.67894 0.61779 0.0
H2486 H 0.12723 0.74881 0.6701 0.0
H2487 H 0.14416 0.71669 0.66696 0.0
H2488 H 0.13595 0.66018 0.60456 0.0
H2489 H 0.15432 0.6929 0.62805 0.0
H2490 H 1.00434 0.71717 0.58007 0.0
H2491 H 1.01979 0.74646 0.60907 0.0
H2492 H 0.99722 0.67014 0.57935 0.0
H2493 H 1.01788 0.6417 0.57113 0.0
C2494 C 0.69139 0.85054 0.8519 0.0
C2495 C 0.68274 0.83531 0.88019 0.0
C2496 C 0.7319 0.81098 0.87238 0.0
C2497 C 0.74277 0.8296 0.84782 0.0
N2498 N 0.73162 0.87059 0.81795 0.0
N2499 N 0.7043 0.80432 0.91881 0.0
C2500 C 0.72222 0.85049 0.83935 0.0
C2501 C 0.70585 0.81653 0.89057 0.0
N2502 N 0.66945 0.86361 0.83427 0.0
N2503 N 0.74567 0.78651 0.87794 0.0
H2504 H 0.68786 0.80819 0.93351 0.0
H2505 H 0.72186 0.79332 0.92926 0.0
H2506 H 0.76344 0.78141 0.86529 0.0
H2507 H 0.73721 0.76985 0.8926 0.0
H2508 H 0.67265 0.87108 0.81217 0.0
H2509 H 0.64619 0.86376 0.83832 0.0
H2510 H 0.72169 0.8897 0.81391 0.0
H2511 H 0.75095 0.86908 0.80586 0.0
C2512 C 0.49241 0.59243 0.63313 0.0
C2513 C 0.47866 0.56239 0.63922 0.0
C2514 C 0.51456 0.54293 0.60746 0.0
C2515 C 0.53254 0.57307 0.60643 0.0
N2516 N 0.5376 0.62701 0.61688 0.0
N2517 N 0.47545 0.50863 0.63204 0.0
C2518 C 0.52097 0.59804 0.61863 0.0
C2519 C 0.48883 0.53749 0.62565 0.0
N2520 N 0.47804 0.61545 0.64184 0.0
N2521 N 0.52168 0.51946 0.59076 0.0
H2522 H 0.45515 0.50371 0.64347 0.0
H2523 H 0.48515 0.48972 0.62725 0.0
H2524 H 0.53965 0.52293 0.5767 0.0
H2525 H 0.50771 0.49755 0.58791 0.0
H2526 H 0.48497 0.63784 0.63629 0.0
H2527 H 0.45691 0.61127 0.65222 0.0
H2528 H 0.5325 0.64602 0.62817 0.0
H2529 H 0.55757 0.63209 0.60497 0.0
C2530 C 0.83507 0.26879 0.933 0.0
C2531 C 0.80912 0.27271 0.94883 0.0
C2532 C 0.7911 0.30149 0.9042 0.0
C2533 C 0.8139 0.29211 0.88634 0.0
N2534 N 0.8486 0.25598 0.88268 0.0
N2535 N 0.7601 0.29166 0.94797 0.0
C2536 C 0.83343 0.27275 0.90045 0.0
C2537 C 0.78646 0.28898 0.93407 0.0
N2538 N 0.86174 0.26154 0.94923 0.0
N2539 N 0.77356 0.32179 0.89251 0.0
H2540 H 0.75678 0.28342 0.9698 0.0
H2541 H 0.74097 0.30047 0.93714 0.0
H2542 H 0.77558 0.33018 0.87053 0.0
H2543 H 0.75866 0.33156 0.90536 0.0
H2544 H 0.88179 0.25887 0.9388 0.0
H2545 H 0.86458 0.26109 0.97359 0.0
H2546 H 0.86135 0.24009 0.89199 0.0
H2547 H 0.84415 0.25458 0.85844 0.0
C2548 C 0.05379 0.47488 0.14924 0.0
C2549 C 0.08602 0.47211 0.15929 0.0
C2550 C 0.09913 0.48307 0.10714 0.0
C2551 C 0.07183 0.49678 0.10248 0.0
N2552 N 1.01991 0.50134 0.11568 0.0
N2553 N 0.13684 0.46492 0.14539 0.0
C2554 C 0.04771 0.49067 0.12216 0.0
C2555 C 0.10776 0.47286 0.13712 0.0
N2556 N 1.02944 0.46261 0.16532 0.0
N2557 N 0.11675 0.48049 0.08333 0.0
H2558 H 0.14232 0.45576 0.16677 0.0
H2559 H 0.15528 0.46766 0.13151 0.0
H2560 H 0.10954 0.48646 0.06087 0.0
H2561 H 0.13615 0.46948 0.08485 0.0
H2562 H 1.00527 0.46301 0.15802 0.0
H2563 H 1.03291 0.44835 0.1833 0.0
H2564 H 1.00296 0.50072 0.13112 0.0
H2565 H 1.01468 0.51181 0.09504 0.0
C2566 C 0.80215 0.91328 0.43081 0.0
C2567 C 0.82223 0.91207 0.46018 0.0
C2568 C 0.8456 0.87332 0.42983 0.0
C2569 C 0.82815 0.87711 0.39965 0.0
N2570 N 0.79146 0.90536 0.37351 0.0
N2571 N 0.86689 0.89183 0.48421 0.0
C2572 C 0.80676 0.89824 0.40106 0.0
C2573 C 0.84474 0.89212 0.4585 0.0
N2574 N 0.7771 0.92802 0.43135 0.0
N2575 N 0.86224 0.85031 0.43188 0.0
H2576 H 0.86665 0.9036 0.50542 0.0
H2577 H 0.88693 0.88187 0.48386 0.0
H2578 H 0.8633 0.83586 0.41275 0.0
H2579 H 0.87205 0.84338 0.45305 0.0
H2580 H 0.75908 0.9273 0.41245 0.0
H2581 H 0.77237 0.93829 0.45187 0.0
H2582 H 0.77924 0.92323 0.37161 0.0
H2583 H 0.79329 0.89497 0.35206 0.0
C2584 C 0.50416 0.5996 0.83167 0.0
C2585 C 0.5032 0.57447 0.8101 0.0
C2586 C 0.5609 0.57805 0.82667 0.0
C2587 C 0.55806 0.5942 0.85424 0.0
N2588 N 0.53862 0.63824 0.86909 0.0
N2589 N 0.53315 0.54094 0.78589 0.0
C2590 C 0.53314 0.61085 0.85251 0.0
C2591 C 0.53246 0.56437 0.80674 0.0
N2592 N 0.47778 0.61247 0.83244 0.0
N2593 N 0.5907 0.57809 0.81849 0.0
H2594 H 0.51296 0.5292 0.77113 0.0
H2595 H 0.5536 0.53157 0.78526 0.0
H2596 H 0.61148 0.59053 0.83224 0.0
H2597 H 0.59416 0.56875 0.79698 0.0
H2598 H 0.47627 0.62865 0.84985 0.0
H2599 H 0.4569 0.60633 0.81622 0.0
H2600 H 0.52272 0.65314 0.86714 0.0
H2601 H 0.56083 0.64675 0.88294 0.0
C2602 C 0.81345 0.26761 0.15727 0.0
C2603 C 0.83703 0.27537 0.13681 0.0
C2604 C 0.87234 0.30784 0.18134 0.0
C2605 C 0.84983 0.29788 0.2024 0.0
N2606 N 0.8004 0.26387 0.21003 0.0
N2607 N 0.89143 0.29953 0.13135 0.0
C2608 C 0.82113 0.27619 0.19024 0.0
C2609 C 0.8671 0.29475 0.14941 0.0
N2610 N 0.78253 0.25395 0.14497 0.0
N2611 N 0.89902 0.3298 0.19184 0.0
H2612 H 0.88884 0.28995 0.10852 0.0
H2613 H 0.91498 0.31063 0.13975 0.0
H2614 H 0.90484 0.33824 0.21518 0.0
H2615 H 0.91438 0.34087 0.17717 0.0
H2616 H 0.76328 0.25095 0.15791 0.0
H2617 H 0.77505 0.24869 0.1211 0.0
H2618 H 0.78203 0.24482 0.20365 0.0
H2619 H 0.80251 0.27155 0.23339 0.0
C2620 C 0.0883 0.47954 0.36363 0.0
C2621 C 0.07631 0.47864 0.33174 0.0
C2622 C 1.02553 0.48926 0.34468 0.0
C2623 C 0.04202 0.50029 0.37481 0.0
N2624 N 0.08871 0.50366 0.41432 0.0
N2625 N 1.0282 0.46342 0.29461 0.0
C2626 C 0.07271 0.49353 0.38525 0.0
C2627 C 0.04287 0.47705 0.32299 0.0
N2628 N 0.11501 0.46794 0.37268 0.0
N2629 N 0.99436 0.49232 0.33661 0.0
H2630 H 0.04071 0.45236 0.28006 0.0
H2631 H 1.00351 0.46024 0.28708 0.0
H2632 H 0.98134 0.50034 0.35289 0.0
H2633 H 0.9817 0.48733 0.31414 0.0
H2634 H 0.12368 0.46599 0.39605 0.0
H2635 H 0.12603 0.45733 0.35633 0.0
H2636 H 0.11321 0.50398 0.4202 0.0
H2637 H 0.07845 0.51364 0.4316 0.0
C2638 C 0.85274 0.91004 0.67773 0.0
C2639 C 0.82389 0.90786 0.65538 0.0
C2640 C 0.79592 0.87507 0.69546 0.0
C2641 C 0.8253 0.87483 0.71633 0.0
N2642 N 0.88327 0.88889 0.72054 0.0
N2643 N 0.76785 0.88342 0.64405 0.0
C2644 C 0.85393 0.89179 0.70553 0.0
C2645 C 0.79571 0.88873 0.66472 0.0
N2646 N 0.87996 0.92965 0.67247 0.0
N2647 N 0.7673 0.8637 0.70572 0.0
H2648 H 0.76565 0.89422 0.62323 0.0
H2649 H 0.74767 0.86691 0.64657 0.0
H2650 H 0.76604 0.8549 0.72757 0.0
H2651 H 0.74494 0.86592 0.69424 0.0
H2652 H 0.90047 0.93589 0.68913 0.0
H2653 H 0.88122 0.94148 0.65231 0.0
H2654 H 0.90507 0.89714 0.71243 0.0
H2655 H 0.88571 0.87515 0.73912 0.0
C2656 C 0.78392 0.45455 0.59718 0.0
C2657 C 0.7806 0.44385 0.56528 0.0
C2658 C 0.73702 0.47198 0.55267 0.0
C2659 C 0.74514 0.48732 0.58292 0.0
N2660 N 0.77478 0.49255 0.63489 0.0
N2661 N 0.75143 0.43855 0.51338 0.0
C2662 C 0.76774 0.47799 0.60565 0.0
C2663 C 0.75579 0.451 0.54342 0.0
N2664 N 0.80284 0.44254 0.61921 0.0
N2665 N 0.71154 0.47777 0.53285 0.0
H2666 H 0.76358 0.42174 0.50697 0.0
H2667 H 0.73659 0.44498 0.4949 0.0
H2668 H 0.69744 0.49295 0.53912 0.0
H2669 H 0.70276 0.46616 0.51117 0.0
H2670 H 0.80475 0.44768 0.64319 0.0
H2671 H 0.81393 0.42473 0.61377 0.0
H2672 H 0.79359 0.48952 0.65157 0.0
H2673 H 0.76266 0.50906 0.64209 0.0
C2674 C 0.23552 0.16492 0.53322 0.0
C2675 C 0.26443 0.1566 0.54824 0.0
C2676 C 0.22649 0.1124 0.56794 0.0
C2677 C 0.19773 0.12107 0.55323 0.0
N2678 N 0.17707 0.15261 0.51563 0.0
N2679 N 0.2851 0.12397 0.58493 0.0
C2680 C 0.20313 0.1467 0.53442 0.0
C2681 C 0.25904 0.13049 0.56663 0.0
N2682 N 0.23881 0.19103 0.51789 0.0
N2683 N 0.22279 0.08597 0.58269 0.0
H2684 H 0.30854 0.13619 0.58506 0.0
H2685 H 0.28349 0.10799 0.60166 0.0
H2686 H 0.20011 0.07307 0.58485 0.0
H2687 H 0.24178 0.07554 0.59054 0.0
H2688 H 0.21966 0.20135 0.51029 0.0
H2689 H 0.26118 0.20342 0.51411 0.0
H2690 H 0.17863 0.16811 0.49841 0.0
H2691 H 0.15381 0.13986 0.51528 0.0
C2692 C 0.33568 0.07045 0.86432 0.0
C2693 C 0.31262 0.06285 0.88514 0.0
C2694 C 0.31801 1.0098 0.88041 0.0
C2695 C 0.34309 1.01831 0.86177 0.0
N2696 N 0.382 0.05796 0.84407 0.0
N2697 N 0.28588 0.02661 0.9176 0.0
C2698 C 0.35413 0.04914 0.85669 0.0
C2699 C 0.3051 0.03289 0.89476 0.0
N2700 N 0.3381 0.09693 0.84962 0.0
N2701 N 0.30532 0.97983 0.88298 0.0
H2702 H 0.27598 0.04311 0.92835 0.0
H2703 H 0.28206 1.00581 0.92768 0.0
H2704 H 0.31387 0.96222 0.87266 0.0
H2705 H 0.28473 0.97241 0.89341 0.0
H2706 H 0.35245 0.102 0.83198 0.0
H2707 H 0.32306 0.1122 0.8524 0.0
H2708 H 0.3924 0.08069 0.8423 0.0
H2709 H 0.39637 0.04273 0.83855 0.0
C2710 C 0.45002 0.99768 0.08365 0.0
C2711 C 0.44357 0.97279 0.06059 0.0
C2712 C 0.49163 0.99593 0.03755 0.0
C2713 C 0.49807 1.02089 0.06039 0.0
N2714 N 0.48192 0.04762 0.10297 0.0
N2715 N 0.46194 0.94501 1.02006 0.0
C2716 C 0.47689 1.02225 0.08295 0.0
C2717 C 0.46568 0.97087 0.03907 0.0
N2718 N 0.43131 0.99699 0.10719 0.0
N2719 N 0.50873 0.99735 1.0128 0.0
H2720 H 0.44239 0.92689 1.01934 0.0
H2721 H 0.47926 0.94056 1.00657 0.0
H2722 H 0.52645 1.01608 1.00988 0.0
H2723 H 0.50334 0.98159 0.99356 0.0
H2724 H 0.43595 1.01277 0.12632 0.0
H2725 H 0.41205 0.9792 0.10898 0.0
H2726 H 0.46571 0.0521 0.11771 0.0
H2727 H 0.5017 0.06553 0.10347 0.0
C2728 C 0.99429 0.71368 0.8053 0.0
C2729 C 1.00028 0.71172 0.83804 0.0
C2730 C 0.94432 0.71197 0.84279 0.0
C2731 C 0.93697 0.71078 0.8097 0.0
N2732 N 0.95446 0.70933 0.75883 0.0
N2733 N 0.98589 0.72393 0.88793 0.0
C2734 C 0.96191 0.71165 0.79065 0.0
C2735 C 0.97686 0.71689 0.85661 0.0
N2736 N 1.01981 0.71879 0.78881 0.0
N2737 N 0.91999 0.7063 0.86079 0.0
H2738 H 1.01003 0.72666 0.89796 0.0
H2739 H 0.97027 0.72946 0.90287 0.0
H2740 H 0.89562 0.70126 0.85125 0.0
H2741 H 0.9241 0.70327 0.88463 0.0
H2742 H 1.01779 0.72234 0.76504 0.0
H2743 H 0.04358 0.72295 0.80009 0.0
H2744 H 0.97079 0.70616 0.74367 0.0
H2745 H 0.93121 0.70865 0.74745 0.0
C2746 C 0.95923 0.64555 0.0788 0.0
C2747 C 0.94547 0.65669 0.05022 0.0
C2748 C 0.99015 0.63574 0.02574 0.0
C2749 C 1.00384 0.62429 0.05431 0.0
N2750 N 1.0001 0.62249 0.1094 0.0
N2751 N 0.94944 0.65932 0.99542 0.0
C2752 C 0.98789 0.63073 0.081 0.0
C2753 C 0.96164 0.65065 0.02367 0.0
N2754 N 0.94319 0.64698 0.10405 0.0
N2755 N 1.0059 0.63433 1.00027 0.0
H2756 H 0.93274 0.67346 0.99329 0.0
H2757 H 0.95474 0.65186 0.97396 0.0
H2758 H 1.02654 0.62525 1.00051 0.0
H2759 H 1.00053 0.64427 0.97948 0.0
H2760 H 0.94778 0.6362 0.12448 0.0
H2761 H 0.9234 0.65742 0.10375 0.0
H2762 H 0.99457 0.63026 0.13065 0.0
H2763 H 1.01694 0.60855 0.11193 0.0
C2764 C 0.26707 0.22454 0.86961 0.0
C2765 C 0.27702 0.19785 0.85973 0.0
C2766 C 0.31625 0.228 0.83046 0.0
C2767 C 0.30882 0.25487 0.84327 0.0
N2768 N 0.28065 0.27941 0.87833 0.0
N2769 N 0.31164 0.17377 0.83111 0.0
C2770 C 0.28502 0.25335 0.86362 0.0
C2771 C 0.30197 0.19952 0.8405 0.0
N2772 N 0.24043 0.22236 0.88457 0.0
N2773 N 0.33504 0.22944 0.80691 0.0
H2774 H 0.29913 0.152 0.83381 0.0
H2775 H 0.33299 0.174 0.82172 0.0
H2776 H 0.3454 0.24969 0.79808 0.0
H2777 H 0.33807 0.21046 0.7939 0.0
H2778 H 0.22986 0.24073 0.8893 0.0
H2779 H 0.22752 0.2017 0.89045 0.0
H2780 H 0.26617 0.27965 0.89596 0.0
H2781 H 0.294 0.30082 0.8751 0.0
C2782 C 0.47067 0.07515 0.33389 0.0
C2783 C 0.50089 0.08414 0.35337 0.0
C2784 C 0.49954 0.03124 0.36529 0.0
C2785 C 0.46725 1.02327 0.35004 0.0
N2786 N 0.42042 0.03814 0.32251 0.0
N2787 N 0.54342 0.07127 0.38961 0.0
C2788 C 0.45232 0.04536 0.33502 0.0
C2789 C 0.51519 0.06229 0.3696 0.0
N2790 N 0.4601 0.09453 0.31331 0.0
N2791 N 0.51577 1.00899 0.37424 0.0
H2792 H 0.55566 0.09385 0.3934 0.0
H2793 H 0.55313 0.05681 0.40458 0.0
H2794 H 0.50531 0.98593 0.37058 0.0
H2795 H 0.5404 1.01319 0.38248 0.0
H2796 H 0.4399 0.08806 0.29633 0.0
H2797 H 0.47303 0.11636 0.31121 0.0
H2798 H 0.40751 0.05406 0.31371 0.0
H2799 H 0.40598 1.01671 0.3233 0.0
C2800 C 0.62816 0.44299 0.57086 0.0
C2801 C 0.62333 0.43879 0.60237 0.0
C2802 C 0.59565 0.48118 0.60251 0.0
C2803 C 0.59687 0.48326 0.56972 0.0
N2804 N 0.61073 0.46344 0.52181 0.0
N2805 N 0.59718 0.45018 0.64651 0.0
C2806 C 0.61168 0.46298 0.5535 0.0
C2807 C 0.60521 0.45656 0.61752 0.0
N2808 N 0.64983 0.42921 0.55822 0.0
N2809 N 0.58782 0.50385 0.62023 0.0
H2810 H 0.60576 0.43386 0.65963 0.0
H2811 H 0.58015 0.45972 0.65656 0.0
H2812 H 0.58184 0.52337 0.6114 0.0
H2813 H 0.59067 0.50495 0.64462 0.0
H2814 H 0.65588 0.43256 0.53587 0.0
H2815 H 0.6644 0.41701 0.5716 0.0
H2816 H 0.61909 0.44775 0.5083 0.0
H2817 H 0.59885 0.47794 0.50874 0.0
C2818 C 0.43046 0.77774 0.38681 0.0
C2819 C 0.43878 0.75075 0.37536 0.0
C2820 C 0.39849 0.74813 0.32842 0.0
C2821 C 0.39237 0.77661 0.33879 0.0
N2822 N 0.39593 0.81388 0.38195 0.0
N2823 N 0.42645 0.70645 0.33953 0.0
C2824 C 0.40648 0.79002 0.3691 0.0
C2825 C 0.42118 0.73459 0.34753 0.0
N2826 N 0.44659 0.79289 0.41411 0.0
N2827 N 0.38398 0.73498 0.29968 0.0
H2828 H 0.44307 0.69643 0.35311 0.0
H2829 H 0.41343 0.69225 0.32067 0.0
H2830 H 0.36813 0.74473 0.28489 0.0
H2831 H 0.38881 0.71536 0.28945 0.0
H2832 H 0.44727 0.81576 0.41974 0.0
H2833 H 0.4598 0.78305 0.43116 0.0
H2834 H 0.40066 0.82087 0.40569 0.0
H2835 H 0.38028 0.8255 0.36976 0.0
C2836 C 0.16407 0.80026 0.1472 0.0
C2837 C 0.15054 0.81482 0.17047 0.0
C2838 C 0.13409 0.76593 0.19287 0.0
C2839 C 0.14486 0.75129 0.16767 0.0
N2840 N 0.16692 0.75431 0.11864 0.0
N2841 N 0.11962 0.81145 0.21367 0.0
C2842 C 0.15881 0.76839 0.14426 0.0
C2843 C 0.13507 0.79768 0.19312 0.0
N2844 N 0.18247 0.81608 0.12741 0.0
N2845 N 0.12364 0.74963 0.21689 0.0
H2846 H 0.11875 0.83439 0.2137 0.0
H2847 H 0.10488 0.79976 0.22847 0.0
H2848 H 0.12132 0.72619 0.21698 0.0
H2849 H 0.11941 0.75949 0.23779 0.0
H2850 H 0.18908 0.83969 0.12828 0.0
H2851 H 0.18908 0.83969 0.12828 0.0
H2852 H 0.17718 0.76637 0.10105 0.0
H2853 H 0.16164 0.73081 0.11395 0.0
C2854 C 0.13382 0.24708 0.87198 0.0
C2855 C 0.12303 0.26463 0.89474 0.0
C2856 C 0.1623 0.30937 0.88641 0.0
C2857 C 0.16993 0.29311 0.86045 0.0
N2858 N 0.17274 0.24462 0.83607 0.0
N2859 N 0.13877 0.30566 0.93468 0.0
C2860 C 0.15898 0.26117 0.85574 0.0
C2861 C 0.14149 0.2935 0.90591 0.0
N2862 N 0.11858 0.2175 0.86507 0.0
N2863 N 0.17343 0.34002 0.89146 0.0
H2864 H 0.12533 0.29327 0.95009 0.0
H2865 H 0.15307 0.32608 0.94477 0.0
H2866 H 0.18787 0.35275 0.87702 0.0
H2867 H 0.16648 0.35324 0.90868 0.0
H2868 H 0.12234 0.20404 0.84625 0.0
H2869 H 0.10139 0.20681 0.87837 0.0
H2870 H 0.16744 0.22101 0.83345 0.0
H2871 H 0.19162 0.25447 0.82427 0.0
C2872 C 0.56803 0.7017 0.96754 0.0
C2873 C 0.59166 0.72947 0.97847 0.0
C2874 C 0.61341 0.6948 1.0196 0.0
C2875 C 0.58972 0.66721 1.00884 0.0
N2876 N 0.54109 0.64862 0.97337 0.0
N2877 N 0.64186 0.74678 1.01245 0.0
C2878 C 0.56663 0.6721 0.98267 0.0
C2879 C 0.61524 0.72417 1.00413 0.0
N2880 N 0.54637 0.70314 0.94175 0.0
N2881 N 0.63498 0.69333 0.04547 0.0
H2882 H 0.64532 0.76721 1.00172 0.0
H2883 H 0.66224 0.74432 0.02737 0.0
H2884 H 0.63737 0.673 0.05523 0.0
H2885 H 0.64929 0.71233 0.0584 0.0
H2886 H 0.53215 0.68421 0.92868 0.0
H2887 H 0.5437 0.72345 0.93217 0.0
H2888 H 0.52095 0.65012 0.95762 0.0
H2889 H 0.53859 0.62792 0.98365 0.0
C2890 C 0.20235 0.85161 0.71133 0.0
C2891 C 0.17249 0.83808 0.72186 0.0
C2892 C 0.20777 0.82484 0.76944 0.0
C2893 C 0.23763 0.83642 0.75777 0.0
N2894 N 0.26027 0.85421 0.71196 0.0
N2895 N 0.14933 0.80508 0.75901 0.0
C2896 C 0.23386 0.84816 0.72726 0.0
C2897 C 0.17613 0.82291 0.75043 0.0
N2898 N 0.20092 0.8687 0.68601 0.0
N2899 N 0.20927 0.81654 0.79954 0.0
H2900 H 0.12643 0.80269 0.7462 0.0
H2901 H 0.15022 0.79063 0.77717 0.0
H2902 H 0.23104 0.81847 0.8143 0.0
H2903 H 0.18902 0.81078 0.81087 0.0
H2904 H 0.22119 0.88232 0.67915 0.0
H2905 H 0.17915 0.87175 0.67381 0.0
H2906 H 0.25901 0.85937 0.68861 0.0
H2907 H 0.28288 0.85057 0.72128 0.0
C2908 C 0.12915 0.45223 0.46851 0.0
C2909 C 0.10722 0.42361 0.47111 0.0
C2910 C 0.0815 0.45601 0.50754 0.0
C2911 C 0.10066 0.48504 0.50171 0.0
N2912 N 0.14462 0.50832 0.47594 0.0
N2913 N 0.05902 0.40201 0.49227 0.0
C2914 C 0.12484 0.48208 0.48184 0.0
C2915 C 0.08272 0.42684 0.49063 0.0
N2916 N 0.15574 0.45079 0.45439 0.0
N2917 N 0.0623 0.45578 0.5305 0.0
H2918 H 0.05932 0.38076 0.48197 0.0
H2919 H 1.03796 0.40297 0.50175 0.0
H2920 H 0.06056 0.47553 0.54307 0.0
H2921 H 0.05046 0.43597 0.53901 0.0
H2922 H 0.17457 0.4691 0.45333 0.0
H2923 H 0.1606 0.4303 0.44616 0.0
H2924 H 0.16115 0.50975 0.46007 0.0
H2925 H 0.14287 0.52943 0.48563 0.0
C2926 C 0.48783 0.31048 0.24565 0.0
C2927 C 0.48717 0.32217 0.21475 0.0
C2928 C 0.4305 0.33011 0.22367 0.0
C2929 C 0.43247 0.32128 0.25561 0.0
N2930 N 0.46937 0.3087 0.29749 0.0
N2931 N 0.45781 0.35157 0.18068 0.0
C2932 C 0.46316 0.31338 0.26653 0.0
C2933 C 0.45826 0.33403 0.2057 0.0
N2934 N 0.51127 0.29478 0.25504 0.0
N2935 N 0.40169 0.3354 0.2098 0.0
H2936 H 0.47759 0.35762 0.16877 0.0
H2937 H 0.43968 0.3636 0.17447 0.0
H2938 H 0.38195 0.33511 0.22173 0.0
H2939 H 0.39672 0.33784 0.18588 0.0
H2940 H 0.51163 0.28286 0.27519 0.0
H2941 H 0.52838 0.29092 0.24103 0.0
H2942 H 0.49181 0.30595 0.30831 0.0
H2943 H 0.45281 0.31047 0.3129 0.0
C2944 C 0.66487 0.61091 0.4419 0.0
C2945 C 0.69089 0.59543 0.44176 0.0
C2946 C 0.66179 0.55427 0.4692 0.0
C2947 C 0.63587 0.56973 0.46931 0.0
N2948 N 0.60869 0.60815 0.4487 0.0
N2949 N 0.71001 0.54858 0.44724 0.0
C2950 C 0.63603 0.59642 0.453 0.0
C2951 C 0.68807 0.56587 0.45291 0.0
N2952 N 0.66843 0.64015 0.43331 0.0
N2953 N 0.66185 0.52913 0.48582 0.0
H2954 H 0.7292 0.55604 0.43487 0.0
H2955 H 0.7075 0.52586 0.45215 0.0
H2956 H 0.64221 0.51934 0.49666 0.0
H2957 H 0.68179 0.51898 0.49007 0.0
H2958 H 0.65172 0.65376 0.43611 0.0
H2959 H 0.68944 0.65186 0.42586 0.0
H2960 H 0.60625 0.62628 0.43502 0.0
H2961 H 0.58722 0.59756 0.45616 0.0
C2962 C 0.34401 0.85367 0.15669 0.0
C2963 C 0.36593 0.88096 0.15227 0.0
C2964 C 0.38594 0.88401 0.20958 0.0
C2965 C 0.3638 0.85652 0.21358 0.0
N2966 N 0.3373 0.80862 0.18541 0.0
N2967 N 0.41534 0.91564 0.17411 0.0
C2968 C 0.34746 0.83932 0.18554 0.0
C2969 C 0.38889 0.8945 0.17869 0.0
N2970 N 0.31882 0.84156 0.13399 0.0
N2971 N 0.40581 0.89942 0.23488 0.0
H2972 H 0.42043 0.92176 0.15203 0.0
H2973 H 0.43444 0.92442 0.19168 0.0
H2974 H 0.41149 0.88924 0.2555 0.0
H2975 H 0.41753 0.92202 0.23485 0.0
H2976 H 0.301 0.82301 0.13745 0.0
H2977 H 0.31291 0.85237 0.11385 0.0
H2978 H 0.32693 0.79508 0.16507 0.0
H2979 H 0.34457 0.79618 0.20385 0.0
C2980 C 0.11563 0.64789 0.94958 0.0
C2981 C 0.08608 0.65869 0.94537 0.0
C2982 C 0.09006 0.66797 1.00224 0.0
C2983 C 0.11505 0.65127 1.00551 0.0
N2984 N 0.16065 0.63872 0.98497 0.0
N2985 N 0.05257 0.68942 0.96662 0.0
C2986 C 0.13148 0.64717 0.98003 0.0
C2987 C 0.0757 0.67231 0.97149 0.0
N2988 N 0.12822 0.63562 0.92582 0.0
N2989 N 0.07958 0.67845 0.02834 0.0
H2990 H 0.04274 0.6936 0.94419 0.0
H2991 H 0.0446 0.70107 0.98437 0.0
H2992 H 0.09249 0.6786 0.05058 0.0
H2993 H 0.05906 0.68774 0.02807 0.0
H2994 H 0.11796 0.63272 0.90241 0.0
H2995 H 0.11796 0.63272 0.90241 0.0
H2996 H 0.17334 0.63432 0.96673 0.0
H2997 H 0.1723 0.63759 1.00761 0.0
C2998 C 0.33467 0.24372 0.66943 0.0
C2999 C 0.36183 0.25113 0.65228 0.0
C3000 C 0.38294 0.29434 0.69504 0.0
C3001 C 0.35719 0.28524 0.7135 0.0
N3002 N 0.31172 0.24562 0.71861 0.0
N3003 N 0.41495 0.2822 0.6546 0.0
C3004 C 0.33406 0.2584 0.70052 0.0
C3005 C 0.38662 0.27619 0.66687 0.0
N3006 N 0.30797 0.2235 0.65534 0.0
N3007 N 0.40359 0.32152 0.7035 0.0
H3008 H 0.41899 0.2697 0.63516 0.0
H3009 H 0.43549 0.29733 0.66546 0.0
H3010 H 0.4017 0.3354 0.72283 0.0
H3011 H 0.42048 0.3317 0.68977 0.0
H3012 H 0.28605 0.21956 0.66421 0.0
H3013 H 0.30654 0.21299 0.63311 0.0
H3014 H 0.29667 0.22439 0.71295 0.0
H3015 H 0.31052 0.25478 0.74091 0.0
C3016 C 0.74781 0.66246 0.27619 0.0
C3017 C 0.74615 0.6321 0.28459 0.0
C3018 C 0.71648 0.61282 0.23324 0.0
C3019 C 0.71352 0.64301 0.22717 0.0
N3020 N 0.73233 0.69697 0.23947 0.0
N3021 N 0.73838 0.57914 0.2691 0.0
C3022 C 0.73162 0.66783 0.24706 0.0
C3023 C 0.73378 0.60746 0.26217 0.0
N3024 N 0.76329 0.68646 0.29655 0.0
N3025 N 0.70088 0.58937 0.21221 0.0
H3026 H 0.75146 0.5753 0.29021 0.0
H3027 H 0.73152 0.56001 0.25353 0.0
H3028 H 0.68907 0.59286 0.19037 0.0
H3029 H 0.69912 0.56654 0.21623 0.0
H3030 H 0.76404 0.70898 0.29121 0.0
H3031 H 0.77598 0.68397 0.31824 0.0
H3032 H 0.72111 0.70271 0.21824 0.0
H3033 H 0.72111 0.70271 0.21824 0.0
C3034 C 0.3144 0.89439 0.94174 0.0
C3035 C 0.34106 0.89108 0.96418 0.0
C3036 C 0.35649 0.85748 0.92397 0.0
C3037 C 0.33273 0.8644 0.90048 0.0
N3038 N 0.29065 0.89213 0.88698 0.0
N3039 N 0.39115 0.87327 0.97343 0.0
C3040 C 0.31223 0.88372 0.90943 0.0
C3041 C 0.36288 0.87334 0.95451 0.0
N3042 N 0.29023 0.9067 0.95158 0.0
N3043 N 0.37334 0.83574 0.91719 0.0
H3044 H 0.39751 0.88496 0.99536 0.0
H3045 H 0.40978 0.86406 0.96611 0.0
H3046 H 0.37039 0.82437 0.89516 0.0
H3047 H 0.38833 0.82726 0.9341 0.0
H3048 H 0.26875 0.90733 0.93732 0.0
H3049 H 0.2901 0.91332 0.975 0.0
H3050 H 0.27772 0.90894 0.89103 0.0
H3051 H 0.28716 0.88359 0.86367 0.0
C3052 C 0.1022 0.6681 0.74822 0.0
C3053 C 0.11565 0.66232 0.77849 0.0
C3054 C 0.16248 0.65067 0.75704 0.0
C3055 C 0.14446 0.64757 0.72698 0.0
N3056 N 0.0973 0.65495 0.6928 0.0
N3057 N 0.15951 0.6473 0.81208 0.0
C3058 C 0.11478 0.65767 0.72199 0.0
C3059 C 0.14661 0.65438 0.78334 0.0
N3060 N 0.07718 0.68309 0.74471 0.0
N3061 N 0.19414 0.64827 0.76019 0.0
H3062 H 0.14863 0.64815 0.8322 0.0
H3063 H 0.18013 0.63802 0.81556 0.0
H3064 H 0.20563 0.64502 0.74073 0.0
H3065 H 0.20947 0.65266 0.78143 0.0
H3066 H 0.06811 0.69022 0.72334 0.0
H3067 H 0.06792 0.69118 0.76388 0.0
H3068 H 0.07371 0.65841 0.68866 0.0
H3069 H 0.10562 0.64775 0.67275 0.0
C3070 C 0.36714 0.22713 0.42701 0.0
C3071 C 0.35742 0.23769 0.45583 0.0
C3072 C 0.35022 0.28453 0.42518 0.0
C3073 C 0.35596 0.27196 0.39547 0.0
N3074 N 0.36281 0.22557 0.3698 0.0
N3075 N 0.33378 0.27698 0.47733 0.0
C3076 C 0.36209 0.24158 0.39712 0.0
C3077 C 0.34767 0.26672 0.45337 0.0
N3078 N 0.38354 0.20394 0.42814 0.0
N3079 N 0.3465 0.31394 0.42674 0.0
H3080 H 0.33044 0.26514 0.49722 0.0
H3081 H 0.32259 0.29557 0.47614 0.0
H3082 H 0.34594 0.32679 0.40723 0.0
H3083 H 0.34634 0.32618 0.44771 0.0
H3084 H 0.39415 0.19698 0.40939 0.0
H3085 H 0.39053 0.19458 0.44894 0.0
H3086 H 0.3636 0.20257 0.36857 0.0
H3087 H 0.35934 0.23445 0.34805 0.0
C3088 C 0.37952 0.66743 0.56511 0.0
C3089 C 0.38369 0.6922 0.54589 0.0
C3090 C 0.4275 0.67293 0.52597 0.0
C3091 C 0.41761 0.64436 0.53871 0.0
N3092 N 0.38073 0.6142 0.56894 0.0
N3093 N 0.41231 0.71919 0.50804 0.0
C3094 C 0.39305 0.64168 0.55846 0.0
C3095 C 0.4081 0.69525 0.52647 0.0
N3096 N 0.3614 0.66812 0.58887 0.0
N3097 N 0.4564 0.67952 0.51512 0.0
H3098 H 0.39992 0.73689 0.50988 0.0
H3099 H 0.42698 0.72073 0.4904 0.0
H3100 H 0.47266 0.66532 0.51861 0.0
H3101 H 0.46596 0.70056 0.50739 0.0
H3102 H 0.35932 0.65178 0.6053 0.0
H3103 H 0.35103 0.68671 0.59359 0.0
H3104 H 0.36069 0.61057 0.58084 0.0
H3105 H 0.38828 0.59431 0.56304 0.0
C3106 C 0.93189 0.02545 0.57406 0.0
C3107 C 0.91977 0.99614 0.55764 0.0
C3108 C 0.97669 1.00065 0.54342 0.0
C3109 C 0.98757 0.03158 0.55636 0.0
N3110 N 0.97109 0.07382 0.58112 0.0
N3111 N 0.93258 0.95767 0.52405 0.0
C3112 C 0.96383 0.04382 0.571 0.0
C3113 C 0.94296 0.98444 0.54178 0.0
N3114 N 0.9133 0.0356 0.59398 0.0
N3115 N 0.99915 0.98548 0.53441 0.0
H3116 H 0.90902 0.94528 0.52245 0.0
H3117 H 0.94614 0.94936 0.50857 0.0
H3118 H 1.02363 0.99526 0.53638 0.0
H3119 H 0.99428 0.96226 0.52828 0.0
H3120 H 0.9214 0.05466 0.60955 0.0
H3121 H 0.89058 1.02334 0.59693 0.0
H3122 H 0.95463 0.08524 0.5896 0.0
H3123 H 0.99253 0.08825 0.5779 0.0
C3124 C 0.87286 0.11184 0.19933 0.0
C3125 C 0.901 0.10532 0.21618 0.0
C3126 C 0.90648 0.15094 0.25075 0.0
C3127 C 0.8739 0.15181 0.23955 0.0
N3128 N 0.82607 0.13431 0.20171 0.0
N3129 N 0.94869 0.12159 0.25411 0.0
C3130 C 0.85728 0.13316 0.21282 0.0
C3131 C 0.9196 0.12628 0.24021 0.0
N3132 N 0.86086 0.0967 0.17095 0.0
N3133 N 0.92463 0.17366 0.27131 0.0
H3134 H 0.95999 0.10512 0.24547 0.0
H3135 H 0.9615 0.13365 0.27444 0.0
H3136 H 0.91555 0.1921 0.27917 0.0
H3137 H 0.94927 0.17576 0.27847 0.0
H3138 H 0.84149 0.10162 0.15618 0.0
H3139 H 0.87276 0.08119 0.16117 0.0
H3140 H 0.81182 0.11898 0.1843 0.0
H3141 H 0.8136 0.14935 0.2113 0.0
C3142 C 0.72482 0.17164 0.06193 0.0
C3143 C 0.72428 0.19551 0.04146 0.0
C3144 C 0.66804 0.17228 1.02033 0.0
C3145 C 0.66812 0.14853 0.04153 0.0
N3146 N 0.69336 0.13572 0.09138 0.0
N3147 N 0.69253 0.22334 1.00829 0.0
C3148 C 0.69564 0.15091 0.06479 0.0
C3149 C 0.69474 0.19763 0.02341 0.0
N3150 N 0.75308 0.16892 0.0794 0.0
N3151 N 0.64387 0.16983 0.99567 0.0
H3152 H 0.71207 0.2415 1.00898 0.0
H3153 H 0.67079 0.22775 0.99747 0.0
H3154 H 0.6277 0.14963 0.98812 0.0
H3155 H 0.64283 0.18615 0.97941 0.0
H3156 H 0.75554 0.14972 0.09142 0.0
H3157 H 0.77457 0.18478 0.08031 0.0
H3158 H 0.71193 0.13868 0.11016 0.0
H3159 H 0.67156 0.12411 0.09705 0.0
C3160 C 0.2149 0.45766 0.2553 0.0
C3161 C 0.18992 0.45099 0.27408 0.0
C3162 C 0.22655 0.43553 0.31544 0.0
C3163 C 0.25221 0.44352 0.29749 0.0
N3164 N 0.27001 0.45597 0.24786 0.0
N3165 N 0.16849 0.42509 0.31624 0.0
C3166 C 0.24608 0.45247 0.26647 0.0
C3167 C 0.19468 0.43658 0.30208 0.0
N3168 N 0.20907 0.47096 0.22786 0.0
N3169 N 0.23287 0.42816 0.34564 0.0
H3170 H 0.14509 0.42629 0.30636 0.0
H3171 H 0.16954 0.41218 0.33566 0.0
H3172 H 0.25611 0.42779 0.35642 0.0
H3173 H 0.21561 0.42512 0.36082 0.0
H3174 H 0.22694 0.48008 0.21467 0.0
H3175 H 0.1859 0.47361 0.2189 0.0
H3176 H 0.26617 0.4593 0.22408 0.0
H3177 H 0.29363 0.45403 0.25591 0.0
C3178 C 0.22899 0.50768 0.07896 0.0
C3179 C 0.23799 0.49696 0.04994 0.0
C3180 C 0.19187 0.52109 0.02407 0.0
C3181 C 0.18086 0.52944 0.05299 0.0
N3182 N 0.18892 0.52396 0.10856 0.0
N3183 N 0.22056 0.48974 0.99451 0.0
C3184 C 0.19968 0.52083 0.08043 0.0
C3185 C 0.21713 0.5028 1.02265 0.0
N3186 N 0.24939 0.50665 0.10577 0.0
N3187 N 0.17967 0.53234 0.99728 0.0
H3188 H 0.23744 0.47612 0.99229 0.0
H3189 H 0.2044 0.4895 0.97418 0.0
H3190 H 0.16325 0.54672 0.99693 0.0
H3191 H 0.18865 0.53049 0.97613 0.0
H3192 H 0.2475 0.51725 0.12715 0.0
H3193 H 0.26993 0.49728 0.10601 0.0
H3194 H 0.1986 0.5155 0.12892 0.0
H3195 H 0.16812 0.5322 0.11094 0.0
C3196 C 0.8668 0.92258 0.20535 0.0
C3197 C 0.88647 0.94447 0.2277 0.0
C3198 C 0.85027 0.92971 0.26658 0.0
C3199 C 0.84504 0.89879 0.24999 0.0
N3200 N 0.83805 0.86989 0.19963 0.0
N3201 N 0.90825 0.93042 0.27724 0.0
C3202 C 0.84875 0.89652 0.21738 0.0
C3203 C 0.88361 0.93899 0.25897 0.0
N3204 N 0.86626 0.92592 0.17415 0.0
N3205 N 0.819 0.95491 0.28735 0.0
H3206 H 0.93061 0.93061 0.26968 0.0
H3207 H 0.93061 0.93061 0.26968 0.0
H3208 H 0.79535 0.95426 0.29335 0.0
H3209 H 0.8171 0.9765 0.2973 0.0
H3210 H 0.85064 0.91087 0.15732 0.0
H3211 H 0.88038 0.94467 0.16572 0.0
H3212 H 0.84334 0.8669 0.17694 0.0
H3213 H 0.82449 0.85091 0.20813 0.0
C3214 C 0.68284 0.10403 0.72524 0.0
C3215 C 0.66868 0.08798 0.69597 0.0
C3216 C 0.71895 0.11253 0.67898 0.0
C3217 C 0.73076 0.12243 0.71108 0.0
N3218 N 0.73346 0.07791 0.76513 0.0
N3219 N 0.68037 0.07541 0.64424 0.0
C3220 C 0.71712 0.10356 0.73535 0.0
C3221 C 0.68899 0.0918 0.67232 0.0
N3222 N 0.66456 0.11595 0.74388 0.0
N3223 N 0.73516 0.12227 0.65504 0.0
H3224 H 0.65818 0.06025 0.63884 0.0
H3225 H 0.69554 0.0773 0.62696 0.0
H3226 H 0.75765 0.13696 0.6583 0.0
H3227 H 0.75765 0.13696 0.6583 0.0
H3228 H 0.67468 0.12685 0.76573 0.0
H3229 H 0.64005 0.11507 0.73647 0.0
H3230 H 0.75297 0.06927 0.7767 0.0
H3231 H 0.75297 0.06927 0.7767 0.0
loop_
_geom_bond_atom_site_label_1
_geom_bond_atom_site_label_2
_geom_bond_distance
_geom_bond_site_symmetry_2
_ccdc_geom_bond_type
Mn0 O5 2.095 . S
Mn0 O15 2.162 . S
Mn0 O16 2.297 . S
Mn0 O24 2.388 . S
Mn0 O25 2.209 . S
Mn0 O26 2.094 . S
Mn1 O6 2.121 . S
Mn1 N8 2.257 . S
Mn1 N17 2.282 . S
Mn1 O25 2.215 . S
Mn1 O27 2.117 . S
C2 O24 1.234 . S
C2 O25 1.283 . S
C3 O15 1.281 . S
C3 O16 1.236 . S
C4 O26 1.240 . S
C4 O27 1.264 . S
O5 Mn0 2.095 . S
O5 C14 1.250 . S
O6 Mn1 2.121 . S
O6 C14 1.258 . S
C7 N8 1.326 . S
C7 C11 1.460 . S
C7 H13 0.929 . S
N8 Mn1 2.257 . S
N8 C7 1.326 . S
N8 C12 1.362 . S
C9 C10 1.258 1_655 S
C9 C12 1.431 1_655 S
C9 C29 1.449 . S
C10 C9 1.258 1_455 S
C10 C11 1.477 . S
C10 H30 0.931 1_455 S
C11 C7 1.460 . S
C11 C10 1.477 . S
C11 H31 0.930 . S
C12 N8 1.362 . S
C12 C9 1.431 1_455 S
C12 C22 1.476 1_455 S
H13 C7 0.929 . S
C14 O5 1.250 . S
C14 O6 1.258 . S
O15 Mn0 2.162 . S
O15 C3 1.281 . S
O16 Mn0 2.297 . S
O16 C3 1.236 . S
N17 Mn1 2.282 . S
N17 C18 1.328 1_455 S
N17 C22 1.318 1_455 S
C18 N17 1.328 1_655 S
C18 C19 1.457 . S
C18 H23 0.929 1_655 S
C19 C18 1.457 . S
C19 C20 1.291 . S
C19 H32 0.931 . S
C20 C19 1.291 . S
C20 C21 1.373 . S
C20 H33 0.929 . S
C21 C20 1.373 . S
C21 C22 1.396 . S
C21 C28 1.403 . S
C22 C12 1.476 1_655 S
C22 N17 1.318 1_655 S
C22 C21 1.396 . S
H23 C18 0.929 1_455 S
O24 Mn0 2.388 . S
O24 C2 1.234 . S
O25 Mn0 2.209 . S
O25 Mn1 2.215 . S
O25 C2 1.283 . S
O26 Mn0 2.094 . S
O26 C4 1.240 . S
O27 Mn1 2.117 . S
O27 C4 1.264 . S
C28 C21 1.403 . S
C28 C29 1.399 . S
C28 H34 0.929 . S
C29 C9 1.449 . S
C29 C28 1.399 . S
C29 H35 0.930 . S
H30 C10 0.931 1_655 S
H31 C11 0.930 . S
H32 C19 0.931 . S
H33 C20 0.929 . S
H34 C28 0.929 . S
H35 C29 0.930 . S
Mn36 O41 2.095 . S
Mn36 O51 2.162 . S
Mn36 O52 2.297 . S
Mn36 O60 2.385 . S
Mn36 O61 2.209 . S
Mn36 O62 2.094 . S
Mn37 O42 2.121 . S
Mn37 N44 2.257 . S
Mn37 N53 2.282 . S
Mn37 O61 2.215 . S
Mn37 O63 2.117 . S
C38 O60 1.234 . S
C38 O61 1.283 . S
C39 O51 1.281 . S
C39 O52 1.236 . S
C40 O62 1.240 . S
C40 O63 1.264 . S
O41 Mn36 2.095 . S
O41 C50 1.250 . S
O42 Mn37 2.121 . S
O42 C50 1.258 . S
C43 N44 1.326 . S
C43 C47 1.460 . S
C43 H49 0.929 . S
N44 Mn37 2.257 . S
N44 C43 1.326 . S
N44 C48 1.362 . S
C45 C46 1.258 . S
C45 C48 1.431 . S
C45 C65 1.449 . S
C46 C45 1.258 . S
C46 C47 1.477 . S
C46 H66 0.931 . S
C47 C43 1.460 . S
C47 C46 1.477 . S
C47 H67 0.930 . S
C48 N44 1.362 . S
C48 C45 1.431 . S
C48 C58 1.476 . S
H49 C43 0.929 . S
C50 O41 1.250 . S
C50 O42 1.258 . S
O51 Mn36 2.162 . S
O51 C39 1.281 . S
O52 Mn36 2.297 . S
O52 C39 1.236 . S
N53 Mn37 2.282 . S
N53 C54 1.328 . S
N53 C58 1.318 . S
C54 N53 1.328 . S
C54 C55 1.457 . S
C54 H59 0.929 . S
C55 C54 1.457 . S
C55 C56 1.291 . S
C55 H68 0.931 . S
C56 C55 1.291 . S
C56 C57 1.373 . S
C56 H69 0.929 . S
C57 C56 1.373 . S
C57 C58 1.396 . S
C57 C64 1.403 . S
C58 C48 1.476 . S
C58 N53 1.318 . S
C58 C57 1.396 . S
H59 C54 0.929 . S
O60 Mn36 2.385 . S
O60 C38 1.234 . S
O61 Mn36 2.209 . S
O61 Mn37 2.215 . S
O61 C38 1.283 . S
O62 Mn36 2.094 . S
O62 C40 1.240 . S
O63 Mn37 2.117 . S
O63 C40 1.264 . S
C64 C57 1.403 . S
C64 C65 1.399 . S
C64 H70 0.929 . S
C65 C45 1.449 . S
C65 C64 1.399 . S
C65 H71 0.930 . S
H66 C46 0.931 . S
H67 C47 0.930 . S
H68 C55 0.931 . S
H69 C56 0.929 . S
H70 C64 0.929 . S
H71 C65 0.930 . S
Mn72 O77 2.095 . S
Mn72 O87 2.162 . S
Mn72 O88 2.297 . S
Mn72 O96 2.385 . S
Mn72 O97 2.209 . S
Mn72 O98 2.094 . S
Mn73 O78 2.121 . S
Mn73 N80 2.257 . S
Mn73 N89 2.282 . S
Mn73 O97 2.215 . S
Mn73 O99 2.117 . S
C74 O96 1.234 . S
C74 O97 1.283 . S
C75 O87 1.281 . S
C75 O88 1.236 . S
C76 O98 1.240 . S
C76 O99 1.264 . S
O77 Mn72 2.095 . S
O77 C86 1.250 . S
O78 Mn73 2.121 . S
O78 C86 1.258 . S
C79 N80 1.326 . S
C79 C83 1.460 . S
C79 H85 0.929 . S
N80 Mn73 2.257 . S
N80 C79 1.326 . S
N80 C84 1.362 . S
C81 C82 1.258 . S
C81 C84 1.431 . S
C81 C101 1.449 . S
C82 C81 1.258 . S
C82 C83 1.477 . S
C82 H102 0.931 . S
C83 C79 1.460 . S
C83 C82 1.477 . S
C83 H103 0.930 . S
C84 N80 1.362 . S
C84 C81 1.431 . S
C84 C94 1.476 . S
H85 C79 0.929 . S
C86 O77 1.250 . S
C86 O78 1.258 . S
O87 Mn72 2.162 . S
O87 C75 1.281 . S
O88 Mn72 2.297 . S
O88 C75 1.236 . S
N89 Mn73 2.282 . S
N89 C90 1.328 . S
N89 C94 1.318 . S
C90 N89 1.328 . S
C90 C91 1.457 . S
C90 H95 0.929 . S
C91 C90 1.457 . S
C91 C92 1.291 . S
C91 H104 0.931 . S
C92 C91 1.291 . S
C92 C93 1.373 . S
C92 H105 0.929 . S
C93 C92 1.373 . S
C93 C94 1.396 . S
C93 C100 1.403 . S
C94 C84 1.476 . S
C94 N89 1.318 . S
C94 C93 1.396 . S
H95 C90 0.929 . S
O96 Mn72 2.385 . S
O96 C74 1.234 . S
O97 Mn72 2.209 . S
O97 Mn73 2.215 . S
O97 C74 1.283 . S
O98 Mn72 2.094 . S
O98 C76 1.240 . S
O99 Mn73 2.117 . S
O99 C76 1.264 . S
C100 C93 1.403 . S
C100 C101 1.399 . S
C100 H106 0.929 . S
C101 C81 1.449 . S
C101 C100 1.399 . S
C101 H107 0.930 . S
H102 C82 0.931 . S
H103 C83 0.930 . S
H104 C91 0.931 . S
H105 C92 0.929 . S
H106 C100 0.929 . S
H107 C101 0.930 . S
Mn108 O113 2.095 . S
Mn108 O123 2.162 . S
Mn108 O124 2.297 . S
Mn108 O132 2.385 . S
Mn108 O133 2.209 . S
Mn108 O134 2.094 . S
Mn109 O114 2.121 . S
Mn109 N116 2.257 . S
Mn109 N125 2.282 . S
Mn109 O133 2.215 . S
Mn109 O135 2.117 . S
C110 O132 1.234 . S
C110 O133 1.283 . S
C111 O123 1.281 . S
C111 O124 1.236 . S
C112 O134 1.240 . S
C112 O135 1.264 . S
O113 Mn108 2.095 . S
O113 C122 1.250 . S
O114 Mn109 2.121 . S
O114 C122 1.258 . S
C115 N116 1.326 . S
C115 C119 1.460 . S
C115 H121 0.929 . S
N116 Mn109 2.257 . S
N116 C115 1.326 . S
N116 C120 1.362 . S
C117 C118 1.258 . S
C117 C120 1.431 . S
C117 C137 1.449 . S
C118 C117 1.258 . S
C118 C119 1.477 . S
C118 H138 0.931 1_554 S
C119 C115 1.460 . S
C119 C118 1.477 . S
C119 H139 0.930 1_554 S
C120 N116 1.362 . S
C120 C117 1.431 . S
C120 C130 1.476 . S
H121 C115 0.929 . S
C122 O113 1.250 . S
C122 O114 1.258 . S
O123 Mn108 2.162 . S
O123 C111 1.281 . S
O124 Mn108 2.297 . S
O124 C111 1.236 . S
N125 Mn109 2.282 . S
N125 C126 1.328 . S
N125 C130 1.318 . S
C126 N125 1.328 . S
C126 C127 1.457 . S
C126 H131 0.929 . S
C127 C126 1.457 . S
C127 C128 1.291 . S
C127 H140 0.931 . S
C128 C127 1.291 . S
C128 C129 1.373 . S
C128 H141 0.929 . S
C129 C128 1.373 . S
C129 C130 1.396 . S
C129 C136 1.403 . S
C130 C120 1.476 . S
C130 N125 1.318 . S
C130 C129 1.396 . S
H131 C126 0.929 . S
O132 Mn108 2.385 . S
O132 C110 1.234 . S
O133 Mn108 2.209 . S
O133 Mn109 2.215 . S
O133 C110 1.283 . S
O134 Mn108 2.094 . S
O134 C112 1.240 . S
O135 Mn109 2.117 . S
O135 C112 1.264 . S
C136 C129 1.403 . S
C136 C137 1.399 . S
C136 H142 0.929 . S
C137 C117 1.449 . S
C137 C136 1.399 . S
C137 H143 0.930 1_554 S
H138 C118 0.931 1_556 S
H139 C119 0.930 1_556 S
H140 C127 0.931 . S
H141 C128 0.929 . S
H142 C136 0.929 . S
H143 C137 0.930 1_556 S
Mn144 O149 2.095 . S
Mn144 O159 2.162 . S
Mn144 O160 2.297 . S
Mn144 O168 2.385 . S
Mn144 O169 2.209 . S
Mn144 O170 2.094 . S
Mn145 O150 2.121 . S
Mn145 N152 2.257 . S
Mn145 N161 2.282 . S
Mn145 O169 2.215 . S
Mn145 O171 2.117 . S
C146 O168 1.234 . S
C146 O169 1.283 . S
C147 O159 1.281 . S
C147 O160 1.236 . S
C148 O170 1.240 . S
C148 O171 1.264 . S
O149 Mn144 2.095 . S
O149 C158 1.250 . S
O150 Mn145 2.121 . S
O150 C158 1.258 . S
C151 N152 1.326 . S
C151 C155 1.460 . S
C151 H157 0.929 . S
N152 Mn145 2.257 . S
N152 C151 1.326 . S
N152 C156 1.362 . S
C153 C154 1.258 . S
C153 C156 1.431 . S
C153 C173 1.449 . S
C154 C153 1.258 . S
C154 C155 1.477 . S
C154 H174 0.931 1_554 S
C155 C151 1.460 . S
C155 C154 1.477 . S
C155 H175 0.930 . S
C156 N152 1.362 . S
C156 C153 1.431 . S
C156 C166 1.476 . S
H157 C151 0.929 . S
C158 O149 1.250 . S
C158 O150 1.258 . S
O159 Mn144 2.162 . S
O159 C147 1.281 . S
O160 Mn144 2.297 . S
O160 C147 1.236 . S
N161 Mn145 2.282 . S
N161 C162 1.328 . S
N161 C166 1.318 . S
C162 N161 1.328 . S
C162 C163 1.457 . S
C162 H167 0.929 . S
C163 C162 1.457 . S
C163 C164 1.291 . S
C163 H176 0.931 . S
C164 C163 1.291 . S
C164 C165 1.373 . S
C164 H177 0.929 . S
C165 C164 1.373 . S
C165 C166 1.396 . S
C165 C172 1.403 . S
C166 C156 1.476 . S
C166 N161 1.318 . S
C166 C165 1.396 . S
H167 C162 0.929 . S
O168 Mn144 2.385 . S
O168 C146 1.234 . S
O169 Mn144 2.209 . S
O169 Mn145 2.215 . S
O169 C146 1.283 . S
O170 Mn144 2.094 . S
O170 C148 1.240 . S
O171 Mn145 2.117 . S
O171 C148 1.264 . S
C172 C165 1.403 . S
C172 C173 1.399 . S
C172 H178 0.929 . S
C173 C153 1.449 . S
C173 C172 1.399 . S
C173 H179 0.930 . S
H174 C154 0.931 1_556 S
H175 C155 0.930 . S
H176 C163 0.931 . S
H177 C164 0.929 . S
H178 C172 0.929 . S
H179 C173 0.930 . S
Mn180 O185 2.095 . S
Mn180 O195 2.162 . S
Mn180 O196 2.297 . S
Mn180 O204 2.385 . S
Mn180 O205 2.209 . S
Mn180 O206 2.094 . S
Mn181 O186 2.121 . S
Mn181 N188 2.257 . S
Mn181 N197 2.282 . S
Mn181 O205 2.215 . S
Mn181 O207 2.117 . S
C182 O204 1.234 . S
C182 O205 1.283 . S
C183 O195 1.281 . S
C183 O196 1.236 . S
C184 O206 1.240 . S
C184 O207 1.264 . S
O185 Mn180 2.095 . S
O185 C194 1.250 . S
O186 Mn181 2.121 . S
O186 C194 1.258 . S
C187 N188 1.326 . S
C187 C191 1.460 . S
C187 H193 0.929 . S
N188 Mn181 2.257 . S
N188 C187 1.326 . S
N188 C192 1.362 . S
C189 C190 1.258 . S
C189 C192 1.431 . S
C189 C209 1.449 . S
C190 C189 1.258 . S
C190 C191 1.477 . S
C190 H210 0.931 . S
C191 C187 1.460 . S
C191 C190 1.477 . S
C191 H211 0.930 . S
C192 N188 1.362 . S
C192 C189 1.431 . S
C192 C202 1.476 . S
H193 C187 0.929 . S
C194 O185 1.250 . S
C194 O186 1.258 . S
O195 Mn180 2.162 . S
O195 C183 1.281 . S
O196 Mn180 2.297 . S
O196 C183 1.236 . S
N197 Mn181 2.282 . S
N197 C198 1.328 . S
N197 C202 1.318 . S
C198 N197 1.328 . S
C198 C199 1.457 . S
C198 H203 0.929 . S
C199 C198 1.457 . S
C199 C200 1.291 . S
C199 H212 0.931 . S
C200 C199 1.291 . S
C200 C201 1.373 . S
C200 H213 0.929 . S
C201 C200 1.373 . S
C201 C202 1.396 . S
C201 C208 1.403 . S
C202 C192 1.476 . S
C202 N197 1.318 . S
C202 C201 1.396 . S
H203 C198 0.929 . S
O204 Mn180 2.385 . S
O204 C182 1.234 . S
O205 Mn180 2.209 . S
O205 Mn181 2.215 . S
O205 C182 1.283 . S
O206 Mn180 2.094 . S
O206 C184 1.240 . S
O207 Mn181 2.117 . S
O207 C184 1.264 . S
C208 C201 1.403 . S
C208 C209 1.399 . S
C208 H214 0.929 . S
C209 C189 1.449 . S
C209 C208 1.399 . S
C209 H215 0.930 . S
H210 C190 0.931 . S
H211 C191 0.930 . S
H212 C199 0.931 . S
H213 C200 0.929 . S
H214 C208 0.929 . S
H215 C209 0.930 . S
Mn216 O221 2.095 . S
Mn216 O231 2.162 . S
Mn216 O232 2.297 . S
Mn216 O240 2.385 . S
Mn216 O241 2.209 . S
Mn216 O242 2.094 . S
Mn217 O222 2.121 . S
Mn217 N224 2.257 . S
Mn217 N233 2.282 . S
Mn217 O241 2.215 . S
Mn217 O243 2.117 . S
C218 O240 1.234 . S
C218 O241 1.283 . S
C219 O231 1.281 . S
C219 O232 1.236 . S
C220 O242 1.240 . S
C220 O243 1.264 . S
O221 Mn216 2.095 . S
O221 C230 1.250 . S
O222 Mn217 2.121 . S
O222 C230 1.258 . S
C223 N224 1.326 . S
C223 C227 1.460 . S
C223 H229 0.929 . S
N224 Mn217 2.257 . S
N224 C223 1.326 . S
N224 C228 1.362 . S
C225 C226 1.258 . S
C225 C228 1.431 . S
C225 C245 1.449 . S
C226 C225 1.258 . S
C226 C227 1.477 . S
C226 H246 0.931 . S
C227 C223 1.460 . S
C227 C226 1.477 . S
C227 H247 0.930 . S
C228 N224 1.362 . S
C228 C225 1.431 . S
C228 C238 1.476 . S
H229 C223 0.929 . S
C230 O221 1.250 . S
C230 O222 1.258 . S
O231 Mn216 2.162 . S
O231 C219 1.281 . S
O232 Mn216 2.297 . S
O232 C219 1.236 . S
N233 Mn217 2.282 . S
N233 C234 1.328 . S
N233 C238 1.318 . S
C234 N233 1.328 . S
C234 C235 1.457 . S
C234 H239 0.929 . S
C235 C234 1.457 . S
C235 C236 1.291 . S
C235 H248 0.931 . S
C236 C235 1.291 . S
C236 C237 1.373 . S
C236 H249 0.929 . S
C237 C236 1.373 . S
C237 C238 1.396 . S
C237 C244 1.403 . S
C238 C228 1.476 . S
C238 N233 1.318 . S
C238 C237 1.396 . S
H239 C234 0.929 . S
O240 Mn216 2.385 . S
O240 C218 1.234 . S
O241 Mn216 2.209 . S
O241 Mn217 2.215 . S
O241 C218 1.283 . S
O242 Mn216 2.094 . S
O242 C220 1.240 . S
O243 Mn217 2.117 . S
O243 C220 1.264 . S
C244 C237 1.403 . S
C244 C245 1.399 . S
C244 H250 0.929 . S
C245 C225 1.449 . S
C245 C244 1.399 . S
C245 H251 0.930 . S
H246 C226 0.931 . S
H247 C227 0.930 . S
H248 C235 0.931 . S
H249 C236 0.929 . S
H250 C244 0.929 . S
H251 C245 0.930 . S
Mn252 O257 2.067 1_655 S
Mn252 O267 2.159 1_655 S
Mn252 O268 2.293 . S
Mn252 O276 2.415 . S
Mn252 O277 2.221 . S
Mn252 O278 2.099 1_655 S
Mn253 O258 2.121 1_655 S
Mn253 N260 2.257 . S
Mn253 N269 2.282 . S
Mn253 O277 2.215 . S
Mn253 O279 2.117 1_655 S
C254 O276 1.234 . S
C254 O277 1.283 . S
C255 O267 1.281 1_655 S
C255 O268 1.236 . S
C256 O278 1.240 . S
C256 O279 1.264 . S
O257 Mn252 2.067 1_455 S
O257 C266 1.250 . S
O258 Mn253 2.121 1_455 S
O258 C266 1.258 . S
C259 N260 1.326 . S
C259 C263 1.460 . S
C259 H265 0.929 1_655 S
N260 Mn253 2.257 . S
N260 C259 1.326 . S
N260 C264 1.362 . S
C261 C262 1.258 . S
C261 C264 1.431 . S
C261 C281 1.449 . S
C262 C261 1.258 . S
C262 C263 1.477 . S
C262 H282 0.931 . S
C263 C259 1.460 . S
C263 C262 1.477 . S
C263 H283 0.930 . S
C264 N260 1.362 . S
C264 C261 1.431 . S
C264 C274 1.476 . S
H265 C259 0.929 1_455 S
C266 O257 1.250 . S
C266 O258 1.258 . S
O267 Mn252 2.159 1_455 S
O267 C255 1.281 1_455 S
O268 Mn252 2.293 . S
O268 C255 1.236 . S
N269 Mn253 2.282 . S
N269 C270 1.328 . S
N269 C274 1.318 . S
C270 N269 1.328 . S
C270 C271 1.457 . S
C270 H275 0.929 . S
C271 C270 1.457 . S
C271 C272 1.291 . S
C271 H284 0.931 . S
C272 C271 1.291 . S
C272 C273 1.373 . S
C272 H285 0.929 . S
C273 C272 1.373 . S
C273 C274 1.396 . S
C273 C280 1.403 . S
C274 C264 1.476 . S
C274 N269 1.318 . S
C274 C273 1.396 . S
H275 C270 0.929 . S
O276 Mn252 2.415 . S
O276 C254 1.234 . S
O277 Mn252 2.221 . S
O277 Mn253 2.215 . S
O277 C254 1.283 . S
O278 Mn252 2.099 1_455 S
O278 C256 1.240 . S
O279 Mn253 2.117 1_455 S
O279 C256 1.264 . S
C280 C273 1.403 . S
C280 C281 1.399 . S
C280 H286 0.929 . S
C281 C261 1.449 . S
C281 C280 1.399 . S
C281 H287 0.930 . S
H282 C262 0.931 . S
H283 C263 0.930 . S
H284 C271 0.931 . S
H285 C272 0.929 . S
H286 C280 0.929 . S
H287 C281 0.930 . S
Mn288 O293 2.095 . S
Mn288 O303 2.162 . S
Mn288 O304 2.297 . S
Mn288 O312 2.385 . S
Mn288 O313 2.209 . S
Mn288 O314 2.094 . S
Mn289 O294 2.121 . S
Mn289 N296 2.257 . S
Mn289 N305 2.282 . S
Mn289 O313 2.215 . S
Mn289 O315 2.117 . S
C290 O312 1.234 . S
C290 O313 1.283 . S
C291 O303 1.281 . S
C291 O304 1.236 . S
C292 O314 1.240 . S
C292 O315 1.264 . S
O293 Mn288 2.095 . S
O293 C302 1.250 . S
O294 Mn289 2.121 . S
O294 C302 1.258 . S
C295 N296 1.326 . S
C295 C299 1.460 . S
C295 H301 0.929 . S
N296 Mn289 2.257 . S
N296 C295 1.326 . S
N296 C300 1.362 . S
C297 C298 1.258 . S
C297 C300 1.431 . S
C297 C317 1.449 1_545 S
C298 C297 1.258 . S
C298 C299 1.477 . S
C298 H318 0.931 . S
C299 C295 1.460 . S
C299 C298 1.477 . S
C299 H319 0.930 . S
C300 N296 1.362 . S
C300 C297 1.431 . S
C300 C310 1.476 . S
H301 C295 0.929 . S
C302 O293 1.250 . S
C302 O294 1.258 . S
O303 Mn288 2.162 . S
O303 C291 1.281 . S
O304 Mn288 2.297 . S
O304 C291 1.236 . S
N305 Mn289 2.282 . S
N305 C306 1.328 . S
N305 C310 1.318 . S
C306 N305 1.328 . S
C306 C307 1.457 1_545 S
C306 H311 0.929 . S
C307 C306 1.457 1_565 S
C307 C308 1.291 . S
C307 H320 0.931 . S
C308 C307 1.291 . S
C308 C309 1.373 . S
C308 H321 0.929 . S
C309 C308 1.373 . S
C309 C310 1.396 1_565 S
C309 C316 1.403 . S
C310 C300 1.476 . S
C310 N305 1.318 . S
C310 C309 1.396 1_545 S
H311 C306 0.929 . S
O312 Mn288 2.385 . S
O312 C290 1.234 . S
O313 Mn288 2.209 . S
O313 Mn289 2.215 . S
O313 C290 1.283 . S
O314 Mn288 2.094 . S
O314 C292 1.240 . S
O315 Mn289 2.117 . S
O315 C292 1.264 . S
C316 C309 1.403 . S
C316 C317 1.399 . S
C316 H322 0.929 . S
C317 C297 1.449 1_565 S
C317 C316 1.399 . S
C317 H323 0.930 . S
H318 C298 0.931 . S
H319 C299 0.930 . S
H320 C307 0.931 . S
H321 C308 0.929 . S
H322 C316 0.929 . S
H323 C317 0.930 . S
Mn324 O329 2.095 . S
Mn324 O339 2.162 . S
Mn324 O340 2.297 . S
Mn324 O348 2.385 . S
Mn324 O349 2.209 . S
Mn324 O350 2.094 . S
Mn325 O330 2.121 . S
Mn325 N332 2.257 . S
Mn325 N341 2.282 . S
Mn325 O349 2.215 . S
Mn325 O351 2.117 . S
C326 O348 1.234 . S
C326 O349 1.283 . S
C327 O339 1.281 . S
C327 O340 1.236 . S
C328 O350 1.240 . S
C328 O351 1.264 . S
O329 Mn324 2.095 . S
O329 C338 1.250 . S
O330 Mn325 2.121 . S
O330 C338 1.258 . S
C331 N332 1.326 . S
C331 C335 1.460 . S
C331 H337 0.929 . S
N332 Mn325 2.257 . S
N332 C331 1.326 . S
N332 C336 1.362 . S
C333 C334 1.258 . S
C333 C336 1.431 . S
C333 C353 1.449 . S
C334 C333 1.258 . S
C334 C335 1.477 . S
C334 H354 0.931 . S
C335 C331 1.460 . S
C335 C334 1.477 . S
C335 H355 0.930 . S
C336 N332 1.362 . S
C336 C333 1.431 . S
C336 C346 1.476 . S
H337 C331 0.929 . S
C338 O329 1.250 . S
C338 O330 1.258 . S
O339 Mn324 2.162 . S
O339 C327 1.281 . S
O340 Mn324 2.297 . S
O340 C327 1.236 . S
N341 Mn325 2.282 . S
N341 C342 1.328 . S
N341 C346 1.318 . S
C342 N341 1.328 . S
C342 C343 1.457 . S
C342 H347 0.929 . S
C343 C342 1.457 . S
C343 C344 1.291 . S
C343 H356 0.931 . S
C344 C343 1.291 . S
C344 C345 1.373 . S
C344 H357 0.929 . S
C345 C344 1.373 . S
C345 C346 1.396 . S
C345 C352 1.403 . S
C346 C336 1.476 . S
C346 N341 1.318 . S
C346 C345 1.396 . S
H347 C342 0.929 . S
O348 Mn324 2.385 . S
O348 C326 1.234 . S
O349 Mn324 2.209 . S
O349 Mn325 2.215 . S
O349 C326 1.283 . S
O350 Mn324 2.094 . S
O350 C328 1.240 . S
O351 Mn325 2.117 . S
O351 C328 1.264 . S
C352 C345 1.403 . S
C352 C353 1.399 . S
C352 H358 0.929 . S
C353 C333 1.449 . S
C353 C352 1.399 . S
C353 H359 0.930 . S
H354 C334 0.931 . S
H355 C335 0.930 . S
H356 C343 0.931 . S
H357 C344 0.929 . S
H358 C352 0.929 . S
H359 C353 0.930 . S
Mn360 O365 2.095 . S
Mn360 O375 2.162 . S
Mn360 O376 2.297 . S
Mn360 O384 2.385 . S
Mn360 O385 2.209 . S
Mn360 O386 2.094 . S
Mn361 O366 2.121 . S
Mn361 N368 2.257 . S
Mn361 N377 2.282 . S
Mn361 O385 2.215 . S
Mn361 O387 2.117 . S
C362 O384 1.234 . S
C362 O385 1.283 . S
C363 O375 1.281 . S
C363 O376 1.236 . S
C364 O386 1.240 . S
C364 O387 1.264 . S
O365 Mn360 2.095 . S
O365 C374 1.250 . S
O366 Mn361 2.121 . S
O366 C374 1.258 . S
C367 N368 1.326 . S
C367 C371 1.460 . S
C367 H373 0.929 . S
N368 Mn361 2.257 . S
N368 C367 1.326 . S
N368 C372 1.362 . S
C369 C370 1.258 . S
C369 C372 1.431 . S
C369 C389 1.449 . S
C370 C369 1.258 . S
C370 C371 1.477 . S
C370 H390 0.931 . S
C371 C367 1.460 . S
C371 C370 1.477 . S
C371 H391 0.930 . S
C372 N368 1.362 . S
C372 C369 1.431 . S
C372 C382 1.476 . S
H373 C367 0.929 . S
C374 O365 1.250 . S
C374 O366 1.258 . S
O375 Mn360 2.162 . S
O375 C363 1.281 . S
O376 Mn360 2.297 . S
O376 C363 1.236 . S
N377 Mn361 2.282 . S
N377 C378 1.328 . S
N377 C382 1.318 . S
C378 N377 1.328 . S
C378 C379 1.457 . S
C378 H383 0.929 . S
C379 C378 1.457 . S
C379 C380 1.291 . S
C379 H392 0.931 . S
C380 C379 1.291 . S
C380 C381 1.373 . S
C380 H393 0.929 . S
C381 C380 1.373 . S
C381 C382 1.396 . S
C381 C388 1.403 . S
C382 C372 1.476 . S
C382 N377 1.318 . S
C382 C381 1.396 . S
H383 C378 0.929 . S
O384 Mn360 2.385 . S
O384 C362 1.234 . S
O385 Mn360 2.209 . S
O385 Mn361 2.215 . S
O385 C362 1.283 . S
O386 Mn360 2.094 . S
O386 C364 1.240 . S
O387 Mn361 2.117 . S
O387 C364 1.264 . S
C388 C381 1.403 . S
C388 C389 1.399 . S
C388 H394 0.929 . S
C389 C369 1.449 . S
C389 C388 1.399 . S
C389 H395 0.930 . S
H390 C370 0.931 . S
H391 C371 0.930 . S
H392 C379 0.931 . S
H393 C380 0.929 . S
H394 C388 0.929 . S
H395 C389 0.930 . S
Mn396 O401 2.095 . S
Mn396 O411 2.162 . S
Mn396 O412 2.297 . S
Mn396 O420 2.385 . S
Mn396 O421 2.209 . S
Mn396 O422 2.094 . S
Mn397 O402 2.121 . S
Mn397 N404 2.257 . S
Mn397 N413 2.282 1_554 S
Mn397 O421 2.215 . S
Mn397 O423 2.117 1_554 S
C398 O420 1.234 . S
C398 O421 1.283 . S
C399 O411 1.281 . S
C399 O412 1.236 . S
C400 O422 1.240 1_556 S
C400 O423 1.264 . S
O401 Mn396 2.095 . S
O401 C410 1.250 . S
O402 Mn397 2.121 . S
O402 C410 1.258 . S
C403 N404 1.326 1_545 S
C403 C407 1.460 . S
C403 H409 0.929 1_545 S
N404 Mn397 2.257 . S
N404 C403 1.326 1_565 S
N404 C408 1.362 . S
C405 C406 1.258 . S
C405 C408 1.431 1_545 S
C405 C425 1.449 . S
C406 C405 1.258 . S
C406 C407 1.477 . S
C406 H426 0.931 . S
C407 C403 1.460 . S
C407 C406 1.477 . S
C407 H427 0.930 . S
C408 N404 1.362 . S
C408 C405 1.431 1_565 S
C408 C418 1.476 1_554 S
H409 C403 0.929 1_565 S
C410 O401 1.250 . S
C410 O402 1.258 . S
O411 Mn396 2.162 . S
O411 C399 1.281 . S
O412 Mn396 2.297 . S
O412 C399 1.236 . S
N413 Mn397 2.282 1_556 S
N413 C414 1.328 . S
N413 C418 1.318 . S
C414 N413 1.328 . S
C414 C415 1.457 . S
C414 H419 0.929 . S
C415 C414 1.457 . S
C415 C416 1.291 . S
C415 H428 0.931 . S
C416 C415 1.291 . S
C416 C417 1.373 . S
C416 H429 0.929 . S
C417 C416 1.373 . S
C417 C418 1.396 . S
C417 C424 1.403 1_565 S
C418 C408 1.476 1_556 S
C418 N413 1.318 . S
C418 C417 1.396 . S
H419 C414 0.929 . S
O420 Mn396 2.385 . S
O420 C398 1.234 . S
O421 Mn396 2.209 . S
O421 Mn397 2.215 . S
O421 C398 1.283 . S
O422 Mn396 2.094 . S
O422 C400 1.240 1_554 S
O423 Mn397 2.117 1_556 S
O423 C400 1.264 . S
C424 C417 1.403 1_545 S
C424 C425 1.399 1_556 S
C424 H430 0.929 . S
C425 C405 1.449 . S
C425 C424 1.399 1_554 S
C425 H431 0.930 . S
H426 C406 0.931 . S
H427 C407 0.930 . S
H428 C415 0.931 . S
H429 C416 0.929 . S
H430 C424 0.929 . S
H431 C425 0.930 . S
Mn432 O437 2.095 . S
Mn432 O447 2.162 . S
Mn432 O448 2.297 . S
Mn432 O456 2.385 . S
Mn432 O457 2.209 . S
Mn432 O458 2.094 1_554 S
Mn433 O438 2.121 1_556 S
Mn433 N440 2.257 1_556 S
Mn433 N449 2.282 . S
Mn433 O457 2.215 1_556 S
Mn433 O459 2.117 . S
C434 O456 1.234 . S
C434 O457 1.283 . S
C435 O447 1.281 . S
C435 O448 1.236 . S
C436 O458 1.240 . S
C436 O459 1.264 . S
O437 Mn432 2.095 . S
O437 C446 1.250 . S
O438 Mn433 2.121 1_554 S
O438 C446 1.258 . S
C439 N440 1.326 . S
C439 C443 1.460 . S
C439 H445 0.929 . S
N440 Mn433 2.257 1_554 S
N440 C439 1.326 . S
N440 C444 1.362 1_554 S
C441 C442 1.258 1_556 S
C441 C444 1.431 . S
C441 C461 1.449 . S
C442 C441 1.258 1_554 S
C442 C443 1.477 . S
C442 H462 0.931 . S
C443 C439 1.460 . S
C443 C442 1.477 . S
C443 H463 0.930 . S
C444 N440 1.362 1_556 S
C444 C441 1.431 . S
C444 C454 1.476 . S
H445 C439 0.929 . S
C446 O437 1.250 . S
C446 O438 1.258 . S
O447 Mn432 2.162 . S
O447 C435 1.281 . S
O448 Mn432 2.297 . S
O448 C435 1.236 . S
N449 Mn433 2.282 . S
N449 C450 1.328 . S
N449 C454 1.318 . S
C450 N449 1.328 . S
C450 C451 1.457 . S
C450 H455 0.929 . S
C451 C450 1.457 . S
C451 C452 1.291 . S
C451 H464 0.931 . S
C452 C451 1.291 . S
C452 C453 1.373 . S
C452 H465 0.929 . S
C453 C452 1.373 . S
C453 C454 1.396 . S
C453 C460 1.403 . S
C454 C444 1.476 . S
C454 N449 1.318 . S
C454 C453 1.396 . S
H455 C450 0.929 . S
O456 Mn432 2.385 . S
O456 C434 1.234 . S
O457 Mn432 2.209 . S
O457 Mn433 2.215 1_554 S
O457 C434 1.283 . S
O458 Mn432 2.094 1_556 S
O458 C436 1.240 . S
O459 Mn433 2.117 . S
O459 C436 1.264 . S
C460 C453 1.403 . S
C460 C461 1.399 . S
C460 H466 0.929 . S
C461 C441 1.449 . S
C461 C460 1.399 . S
C461 H467 0.930 . S
H462 C442 0.931 . S
H463 C443 0.930 . S
H464 C451 0.931 . S
H465 C452 0.929 . S
H466 C460 0.929 . S
H467 C461 0.930 . S
Mn468 O473 2.095 1_554 S
Mn468 O483 2.162 . S
Mn468 O484 2.297 . S
Mn468 O492 2.384 . S
Mn468 O493 2.209 1_554 S
Mn468 O494 2.094 1_554 S
Mn469 O474 2.121 . S
Mn469 N476 2.257 . S
Mn469 N485 2.282 . S
Mn469 O493 2.215 . S
Mn469 O495 2.117 . S
C470 O492 1.232 1_556 S
C470 O493 1.283 . S
C471 O483 1.281 . S
C471 O484 1.236 . S
C472 O494 1.240 . S
C472 O495 1.264 . S
O473 Mn468 2.095 1_556 S
O473 C482 1.250 . S
O474 Mn469 2.121 . S
O474 C482 1.258 . S
C475 N476 1.326 . S
C475 C479 1.460 . S
C475 H481 0.929 . S
N476 Mn469 2.257 . S
N476 C475 1.326 . S
N476 C480 1.362 . S
C477 C478 1.258 . S
C477 C480 1.431 . S
C477 C497 1.449 . S
C478 C477 1.258 . S
C478 C479 1.477 . S
C478 H498 0.931 . S
C479 C475 1.460 . S
C479 C478 1.477 . S
C479 H499 0.930 . S
C480 N476 1.362 . S
C480 C477 1.431 . S
C480 C490 1.476 . S
H481 C475 0.929 . S
C482 O473 1.250 . S
C482 O474 1.258 . S
O483 Mn468 2.162 . S
O483 C471 1.281 . S
O484 Mn468 2.297 . S
O484 C471 1.236 . S
N485 Mn469 2.282 . S
N485 C486 1.328 . S
N485 C490 1.318 . S
C486 N485 1.328 . S
C486 C487 1.457 . S
C486 H491 0.929 . S
C487 C486 1.457 . S
C487 C488 1.291 . S
C487 H500 0.931 . S
C488 C487 1.291 . S
C488 C489 1.373 . S
C488 H501 0.929 . S
C489 C488 1.373 . S
C489 C490 1.396 . S
C489 C496 1.403 . S
C490 C480 1.476 . S
C490 N485 1.318 . S
C490 C489 1.396 . S
H491 C486 0.929 . S
O492 Mn468 2.384 . S
O492 C470 1.232 1_554 S
O493 Mn468 2.209 1_556 S
O493 Mn469 2.215 . S
O493 C470 1.283 . S
O494 Mn468 2.094 1_556 S
O494 C472 1.240 . S
O495 Mn469 2.117 . S
O495 C472 1.264 . S
C496 C489 1.403 . S
C496 C497 1.399 . S
C496 H502 0.929 . S
C497 C477 1.449 . S
C497 C496 1.399 . S
C497 H503 0.930 . S
H498 C478 0.931 . S
H499 C479 0.930 . S
H500 C487 0.931 . S
H501 C488 0.929 . S
H502 C496 0.929 . S
H503 C497 0.930 . S
Mn504 O509 2.095 . S
Mn504 O519 2.162 . S
Mn504 O520 2.297 . S
Mn504 O528 2.385 . S
Mn504 O529 2.209 . S
Mn504 O530 2.094 . S
Mn505 O510 2.121 . S
Mn505 N512 2.257 . S
Mn505 N521 2.282 . S
Mn505 O529 2.215 . S
Mn505 O531 2.117 . S
C506 O528 1.234 . S
C506 O529 1.283 . S
C507 O519 1.281 . S
C507 O520 1.236 . S
C508 O530 1.240 . S
C508 O531 1.264 . S
O509 Mn504 2.095 . S
O509 C518 1.250 . S
O510 Mn505 2.121 . S
O510 C518 1.258 . S
C511 N512 1.326 . S
C511 C515 1.460 . S
C511 H517 0.929 . S
N512 Mn505 2.257 . S
N512 C511 1.326 . S
N512 C516 1.362 . S
C513 C514 1.258 . S
C513 C516 1.431 . S
C513 C533 1.449 . S
C514 C513 1.258 . S
C514 C515 1.477 . S
C514 H534 0.931 . S
C515 C511 1.460 . S
C515 C514 1.477 . S
C515 H535 0.930 . S
C516 N512 1.362 . S
C516 C513 1.431 . S
C516 C526 1.476 . S
H517 C511 0.929 . S
C518 O509 1.250 . S
C518 O510 1.258 . S
O519 Mn504 2.162 . S
O519 C507 1.281 . S
O520 Mn504 2.297 . S
O520 C507 1.236 . S
N521 Mn505 2.282 . S
N521 C522 1.328 . S
N521 C526 1.318 . S
C522 N521 1.328 . S
C522 C523 1.457 . S
C522 H527 0.929 . S
C523 C522 1.457 . S
C523 C524 1.291 . S
C523 H536 0.931 . S
C524 C523 1.291 . S
C524 C525 1.373 . S
C524 H537 0.929 . S
C525 C524 1.373 . S
C525 C526 1.396 . S
C525 C532 1.403 . S
C526 C516 1.476 . S
C526 N521 1.318 . S
C526 C525 1.396 . S
H527 C522 0.929 . S
O528 Mn504 2.385 . S
O528 C506 1.234 . S
O529 Mn504 2.209 . S
O529 Mn505 2.215 . S
O529 C506 1.283 . S
O530 Mn504 2.094 . S
O530 C508 1.240 . S
O531 Mn505 2.117 . S
O531 C508 1.264 . S
C532 C525 1.403 . S
C532 C533 1.399 . S
C532 H538 0.929 . S
C533 C513 1.449 . S
C533 C532 1.399 . S
C533 H539 0.930 . S
H534 C514 0.931 . S
H535 C515 0.930 . S
H536 C523 0.931 . S
H537 C524 0.929 . S
H538 C532 0.929 . S
H539 C533 0.930 . S
Mn540 O545 2.095 . S
Mn540 O555 2.162 . S
Mn540 O556 2.297 . S
Mn540 O564 2.385 . S
Mn540 O565 2.209 . S
Mn540 O566 2.094 . S
Mn541 O546 2.121 . S
Mn541 N548 2.257 1_565 S
Mn541 N557 2.282 . S
Mn541 O565 2.215 . S
Mn541 O567 2.117 . S
C542 O564 1.234 . S
C542 O565 1.283 . S
C543 O555 1.281 . S
C543 O556 1.236 . S
C544 O566 1.240 . S
C544 O567 1.264 . S
O545 Mn540 2.095 . S
O545 C554 1.250 . S
O546 Mn541 2.121 . S
O546 C554 1.258 . S
C547 N548 1.326 . S
C547 C551 1.460 . S
C547 H553 0.929 . S
N548 Mn541 2.257 1_545 S
N548 C547 1.326 . S
N548 C552 1.362 . S
C549 C550 1.258 . S
C549 C552 1.431 . S
C549 C569 1.449 . S
C550 C549 1.258 . S
C550 C551 1.477 . S
C550 H570 0.931 . S
C551 C547 1.460 . S
C551 C550 1.477 . S
C551 H571 0.930 . S
C552 N548 1.362 . S
C552 C549 1.431 . S
C552 C562 1.476 . S
H553 C547 0.929 . S
C554 O545 1.250 . S
C554 O546 1.258 . S
O555 Mn540 2.162 . S
O555 C543 1.281 . S
O556 Mn540 2.297 . S
O556 C543 1.236 . S
N557 Mn541 2.282 . S
N557 C558 1.328 . S
N557 C562 1.318 1_565 S
C558 N557 1.328 . S
C558 C559 1.457 . S
C558 H563 0.929 . S
C559 C558 1.457 . S
C559 C560 1.291 . S
C559 H572 0.931 . S
C560 C559 1.291 . S
C560 C561 1.373 1_565 S
C560 H573 0.931 . S
C561 C560 1.373 1_545 S
C561 C562 1.396 . S
C561 C568 1.403 . S
C562 C552 1.476 . S
C562 N557 1.318 1_545 S
C562 C561 1.396 . S
H563 C558 0.929 . S
O564 Mn540 2.385 . S
O564 C542 1.234 . S
O565 Mn540 2.209 . S
O565 Mn541 2.215 . S
O565 C542 1.283 . S
O566 Mn540 2.094 . S
O566 C544 1.240 . S
O567 Mn541 2.117 . S
O567 C544 1.264 . S
C568 C561 1.403 . S
C568 C569 1.399 . S
C568 H574 0.929 . S
C569 C549 1.449 . S
C569 C568 1.399 . S
C569 H575 0.930 . S
H570 C550 0.931 . S
H571 C551 0.930 . S
H572 C559 0.931 . S
H573 C560 0.931 . S
H574 C568 0.929 . S
H575 C569 0.930 . S
Mn576 O581 2.099 1_565 S
Mn576 O591 2.162 1_565 S
Mn576 O592 2.297 . S
Mn576 O600 2.381 . S
Mn576 O601 2.207 . S
Mn576 O602 2.094 1_565 S
Mn577 O582 2.121 1_565 S
Mn577 N584 2.257 . S
Mn577 N593 2.282 . S
Mn577 O601 2.215 . S
Mn577 O603 2.117 1_565 S
C578 O600 1.234 . S
C578 O601 1.283 . S
C579 O591 1.281 . S
C579 O592 1.237 1_545 S
C580 O602 1.240 . S
C580 O603 1.264 . S
O581 Mn576 2.099 1_545 S
O581 C590 1.250 . S
O582 Mn577 2.121 1_545 S
O582 C590 1.258 . S
C583 N584 1.326 . S
C583 C587 1.460 . S
C583 H589 0.929 1_565 S
N584 Mn577 2.257 . S
N584 C583 1.326 . S
N584 C588 1.362 . S
C585 C586 1.258 . S
C585 C588 1.431 . S
C585 C605 1.449 . S
C586 C585 1.258 . S
C586 C587 1.477 . S
C586 H606 0.931 . S
C587 C583 1.460 . S
C587 C586 1.477 . S
C587 H607 0.930 . S
C588 N584 1.362 . S
C588 C585 1.431 . S
C588 C598 1.476 . S
H589 C583 0.929 1_545 S
C590 O581 1.250 . S
C590 O582 1.258 . S
O591 Mn576 2.162 1_545 S
O591 C579 1.281 . S
O592 Mn576 2.297 . S
O592 C579 1.237 1_565 S
N593 Mn577 2.282 . S
N593 C594 1.328 . S
N593 C598 1.318 . S
C594 N593 1.328 . S
C594 C595 1.457 . S
C594 H599 0.929 . S
C595 C594 1.457 . S
C595 C596 1.291 . S
C595 H608 0.931 . S
C596 C595 1.291 . S
C596 C597 1.373 . S
C596 H609 0.929 . S
C597 C596 1.373 . S
C597 C598 1.396 . S
C597 C604 1.403 . S
C598 C588 1.476 . S
C598 N593 1.318 . S
C598 C597 1.396 . S
H599 C594 0.929 . S
O600 Mn576 2.381 . S
O600 C578 1.234 . S
O601 Mn576 2.207 . S
O601 Mn577 2.215 . S
O601 C578 1.283 . S
O602 Mn576 2.094 1_545 S
O602 C580 1.240 . S
O603 Mn577 2.117 1_545 S
O603 C580 1.264 . S
C604 C597 1.403 . S
C604 C605 1.399 . S
C604 H610 0.929 . S
C605 C585 1.449 . S
C605 C604 1.399 . S
C605 H611 0.930 . S
H606 C586 0.931 . S
H607 C587 0.930 . S
H608 C595 0.931 . S
H609 C596 0.929 . S
H610 C604 0.929 . S
H611 C605 0.930 . S
Mn612 O617 2.095 . S
Mn612 O627 2.162 . S
Mn612 O628 2.297 . S
Mn612 O636 2.385 . S
Mn612 O637 2.209 . S
Mn612 O638 2.094 . S
Mn613 O618 2.121 . S
Mn613 N620 2.257 . S
Mn613 N629 2.282 . S
Mn613 O637 2.215 . S
Mn613 O639 2.117 . S
C614 O636 1.234 . S
C614 O637 1.283 . S
C615 O627 1.281 . S
C615 O628 1.236 . S
C616 O638 1.240 . S
C616 O639 1.264 . S
O617 Mn612 2.095 . S
O617 C626 1.250 . S
O618 Mn613 2.121 . S
O618 C626 1.258 . S
C619 N620 1.326 . S
C619 C623 1.460 . S
C619 H625 0.929 . S
N620 Mn613 2.257 . S
N620 C619 1.326 . S
N620 C624 1.362 . S
C621 C622 1.258 . S
C621 C624 1.431 . S
C621 C641 1.449 . S
C622 C621 1.258 . S
C622 C623 1.477 . S
C622 H642 0.931 . S
C623 C619 1.460 . S
C623 C622 1.477 . S
C623 H643 0.930 . S
C624 N620 1.362 . S
C624 C621 1.431 . S
C624 C634 1.476 . S
H625 C619 0.929 . S
C626 O617 1.250 . S
C626 O618 1.258 . S
O627 Mn612 2.162 . S
O627 C615 1.281 . S
O628 Mn612 2.297 . S
O628 C615 1.236 . S
N629 Mn613 2.282 . S
N629 C630 1.328 . S
N629 C634 1.318 . S
C630 N629 1.328 . S
C630 C631 1.457 . S
C630 H635 0.929 . S
C631 C630 1.457 . S
C631 C632 1.291 . S
C631 H644 0.931 . S
C632 C631 1.291 . S
C632 C633 1.373 . S
C632 H645 0.929 . S
C633 C632 1.373 . S
C633 C634 1.396 . S
C633 C640 1.403 . S
C634 C624 1.476 . S
C634 N629 1.318 . S
C634 C633 1.396 . S
H635 C630 0.929 . S
O636 Mn612 2.385 . S
O636 C614 1.234 . S
O637 Mn612 2.209 . S
O637 Mn613 2.215 . S
O637 C614 1.283 . S
O638 Mn612 2.094 . S
O638 C616 1.240 . S
O639 Mn613 2.117 . S
O639 C616 1.264 . S
C640 C633 1.403 . S
C640 C641 1.399 . S
C640 H646 0.929 . S
C641 C621 1.449 . S
C641 C640 1.399 . S
C641 H647 0.930 . S
H642 C622 0.931 . S
H643 C623 0.930 . S
H644 C631 0.931 . S
H645 C632 0.929 . S
H646 C640 0.929 . S
H647 C641 0.930 . S
Mn648 O653 2.095 . S
Mn648 O663 2.162 . S
Mn648 O664 2.297 . S
Mn648 O672 2.385 . S
Mn648 O673 2.209 . S
Mn648 O674 2.094 . S
Mn649 O654 2.121 . S
Mn649 N656 2.257 . S
Mn649 N665 2.282 . S
Mn649 O673 2.215 . S
Mn649 O675 2.117 . S
C650 O672 1.234 . S
C650 O673 1.283 . S
C651 O663 1.281 . S
C651 O664 1.236 . S
C652 O674 1.240 . S
C652 O675 1.264 . S
O653 Mn648 2.095 . S
O653 C662 1.250 . S
O654 Mn649 2.121 . S
O654 C662 1.258 . S
C655 N656 1.326 . S
C655 C659 1.460 . S
C655 H661 0.929 . S
N656 Mn649 2.257 . S
N656 C655 1.326 . S
N656 C660 1.362 . S
C657 C658 1.258 . S
C657 C660 1.431 . S
C657 C677 1.449 . S
C658 C657 1.258 . S
C658 C659 1.477 . S
C658 H678 0.931 . S
C659 C655 1.460 . S
C659 C658 1.477 . S
C659 H679 0.930 . S
C660 N656 1.362 . S
C660 C657 1.431 . S
C660 C670 1.476 . S
H661 C655 0.929 . S
C662 O653 1.250 . S
C662 O654 1.258 . S
O663 Mn648 2.162 . S
O663 C651 1.281 . S
O664 Mn648 2.297 . S
O664 C651 1.236 . S
N665 Mn649 2.282 . S
N665 C666 1.328 . S
N665 C670 1.318 . S
C666 N665 1.328 . S
C666 C667 1.457 . S
C666 H671 0.929 . S
C667 C666 1.457 . S
C667 C668 1.291 . S
C667 H680 0.931 . S
C668 C667 1.291 . S
C668 C669 1.373 . S
C668 H681 0.929 . S
C669 C668 1.373 . S
C669 C670 1.396 . S
C669 C676 1.403 . S
C670 C660 1.476 . S
C670 N665 1.318 . S
C670 C669 1.396 . S
H671 C666 0.929 . S
O672 Mn648 2.385 . S
O672 C650 1.234 . S
O673 Mn648 2.209 . S
O673 Mn649 2.215 . S
O673 C650 1.283 . S
O674 Mn648 2.094 . S
O674 C652 1.240 . S
O675 Mn649 2.117 . S
O675 C652 1.264 . S
C676 C669 1.403 . S
C676 C677 1.399 . S
C676 H682 0.929 . S
C677 C657 1.449 . S
C677 C676 1.399 . S
C677 H683 0.930 . S
H678 C658 0.931 . S
H679 C659 0.930 . S
H680 C667 0.931 . S
H681 C668 0.929 . S
H682 C676 0.929 . S
H683 C677 0.930 . S
Mn684 O689 2.095 1_545 S
Mn684 O699 2.162 . S
Mn684 O700 2.297 . S
Mn684 O708 2.385 . S
Mn684 O709 2.209 . S
Mn684 O710 2.094 . S
Mn685 O690 2.121 1_545 S
Mn685 N692 2.257 . S
Mn685 N701 2.282 . S
Mn685 O709 2.215 . S
Mn685 O711 2.117 . S
C686 O708 1.234 . S
C686 O709 1.283 . S
C687 O699 1.281 . S
C687 O700 1.236 . S
C688 O710 1.240 . S
C688 O711 1.264 . S
O689 Mn684 2.095 1_565 S
O689 C698 1.250 . S
O690 Mn685 2.121 1_565 S
O690 C698 1.258 . S
C691 N692 1.326 . S
C691 C695 1.460 . S
C691 H697 0.929 . S
N692 Mn685 2.257 . S
N692 C691 1.326 . S
N692 C696 1.362 . S
C693 C694 1.258 . S
C693 C696 1.431 . S
C693 C713 1.449 . S
C694 C693 1.258 . S
C694 C695 1.477 . S
C694 H714 0.931 . S
C695 C691 1.460 . S
C695 C694 1.477 . S
C695 H715 0.930 . S
C696 N692 1.362 . S
C696 C693 1.431 . S
C696 C706 1.476 . S
H697 C691 0.929 . S
C698 O689 1.250 . S
C698 O690 1.258 . S
O699 Mn684 2.162 . S
O699 C687 1.281 . S
O700 Mn684 2.297 . S
O700 C687 1.236 . S
N701 Mn685 2.282 . S
N701 C702 1.328 . S
N701 C706 1.318 . S
C702 N701 1.328 . S
C702 C703 1.457 . S
C702 H707 0.929 . S
C703 C702 1.457 . S
C703 C704 1.291 . S
C703 H716 0.931 . S
C704 C703 1.291 . S
C704 C705 1.373 . S
C704 H717 0.929 . S
C705 C704 1.373 . S
C705 C706 1.396 . S
C705 C712 1.403 . S
C706 C696 1.476 . S
C706 N701 1.318 . S
C706 C705 1.396 . S
H707 C702 0.929 . S
O708 Mn684 2.385 . S
O708 C686 1.234 . S
O709 Mn684 2.209 . S
O709 Mn685 2.215 . S
O709 C686 1.283 . S
O710 Mn684 2.094 . S
O710 C688 1.240 . S
O711 Mn685 2.117 . S
O711 C688 1.264 . S
C712 C705 1.403 . S
C712 C713 1.399 . S
C712 H718 0.929 . S
C713 C693 1.449 . S
C713 C712 1.399 . S
C713 H719 0.930 . S
H714 C694 0.931 . S
H715 C695 0.930 . S
H716 C703 0.931 . S
H717 C704 0.929 . S
H718 C712 0.929 . S
H719 C713 0.930 . S
Mn720 O725 2.095 . S
Mn720 O735 2.162 . S
Mn720 O736 2.297 . S
Mn720 O744 2.385 . S
Mn720 O745 2.209 . S
Mn720 O746 2.094 1_554 S
Mn721 O726 2.129 . S
Mn721 N728 2.257 . S
Mn721 N737 2.282 . S
Mn721 O745 2.215 1_556 S
Mn721 O747 2.117 . S
C722 O744 1.234 . S
C722 O745 1.283 . S
C723 O735 1.281 . S
C723 O736 1.236 . S
C724 O746 1.240 . S
C724 O747 1.264 . S
O725 Mn720 2.095 . S
O725 C734 1.250 . S
O726 Mn721 2.129 . S
O726 C734 1.251 1_556 S
C727 N728 1.326 . S
C727 C731 1.460 . S
C727 H733 0.931 . S
N728 Mn721 2.257 . S
N728 C727 1.326 . S
N728 C732 1.362 . S
C729 C730 1.258 . S
C729 C732 1.431 . S
C729 C749 1.449 . S
C730 C729 1.258 . S
C730 C731 1.477 . S
C730 H750 0.931 . S
C731 C727 1.460 . S
C731 C730 1.477 . S
C731 H751 0.930 . S
C732 N728 1.362 . S
C732 C729 1.431 . S
C732 C742 1.476 . S
H733 C727 0.931 . S
C734 O725 1.250 . S
C734 O726 1.251 1_554 S
O735 Mn720 2.162 . S
O735 C723 1.281 . S
O736 Mn720 2.297 . S
O736 C723 1.236 . S
N737 Mn721 2.282 . S
N737 C738 1.328 . S
N737 C742 1.318 . S
C738 N737 1.328 . S
C738 C739 1.457 . S
C738 H743 0.929 . S
C739 C738 1.457 . S
C739 C740 1.291 . S
C739 H752 0.931 . S
C740 C739 1.291 . S
C740 C741 1.373 . S
C740 H753 0.929 . S
C741 C740 1.373 . S
C741 C742 1.396 . S
C741 C748 1.403 . S
C742 C732 1.476 . S
C742 N737 1.318 . S
C742 C741 1.396 . S
H743 C738 0.929 . S
O744 Mn720 2.385 . S
O744 C722 1.234 . S
O745 Mn720 2.209 . S
O745 Mn721 2.215 1_554 S
O745 C722 1.283 . S
O746 Mn720 2.094 1_556 S
O746 C724 1.240 . S
O747 Mn721 2.117 . S
O747 C724 1.264 . S
C748 C741 1.403 . S
C748 C749 1.399 . S
C748 H754 0.929 . S
C749 C729 1.449 . S
C749 C748 1.399 . S
C749 H755 0.930 . S
H750 C730 0.931 . S
H751 C731 0.930 . S
H752 C739 0.931 . S
H753 C740 0.929 . S
H754 C748 0.929 . S
H755 C749 0.930 . S
Mn756 O761 2.095 1_455 S
Mn756 O771 2.162 . S
Mn756 O772 2.297 1_455 S
Mn756 O780 2.385 . S
Mn756 O781 2.209 1_455 S
Mn756 O782 2.094 . S
Mn757 O762 2.121 . S
Mn757 N764 2.257 . S
Mn757 N773 2.282 . S
Mn757 O781 2.215 . S
Mn757 O783 2.116 . S
C758 O780 1.234 1_655 S
C758 O781 1.283 . S
C759 O771 1.281 . S
C759 O772 1.236 1_455 S
C760 O782 1.240 . S
C760 O783 1.266 1_455 S
O761 Mn756 2.095 1_655 S
O761 C770 1.250 . S
O762 Mn757 2.121 . S
O762 C770 1.258 . S
C763 N764 1.326 . S
C763 C767 1.460 . S
C763 H769 0.929 . S
N764 Mn757 2.257 . S
N764 C763 1.326 . S
N764 C768 1.362 . S
C765 C766 1.258 . S
C765 C768 1.431 . S
C765 C785 1.449 . S
C766 C765 1.258 . S
C766 C767 1.477 . S
C766 H786 0.931 . S
C767 C763 1.460 . S
C767 C766 1.477 . S
C767 H787 0.930 . S
C768 N764 1.362 . S
C768 C765 1.431 . S
C768 C778 1.476 . S
H769 C763 0.929 . S
C770 O761 1.250 . S
C770 O762 1.258 . S
O771 Mn756 2.162 . S
O771 C759 1.281 . S
O772 Mn756 2.297 1_655 S
O772 C759 1.236 1_655 S
N773 Mn757 2.282 . S
N773 C774 1.328 . S
N773 C778 1.318 . S
C774 N773 1.328 . S
C774 C775 1.457 . S
C774 H779 0.929 . S
C775 C774 1.457 . S
C775 C776 1.291 . S
C775 H788 0.931 . S
C776 C775 1.291 . S
C776 C777 1.373 . S
C776 H789 0.929 . S
C777 C776 1.373 . S
C777 C778 1.396 . S
C777 C784 1.403 . S
C778 C768 1.476 . S
C778 N773 1.318 . S
C778 C777 1.396 . S
H779 C774 0.929 . S
O780 Mn756 2.385 . S
O780 C758 1.234 1_455 S
O781 Mn756 2.209 1_655 S
O781 Mn757 2.215 . S
O781 C758 1.283 . S
O782 Mn756 2.094 . S
O782 C760 1.240 . S
O783 Mn757 2.116 . S
O783 C760 1.266 1_655 S
C784 C777 1.403 . S
C784 C785 1.399 . S
C784 H790 0.929 . S
C785 C765 1.449 . S
C785 C784 1.399 . S
C785 H791 0.930 . S
H786 C766 0.931 . S
H787 C767 0.930 . S
H788 C775 0.931 . S
H789 C776 0.929 . S
H790 C784 0.929 . S
H791 C785 0.930 . S
Mn792 O797 2.095 . S
Mn792 O807 2.162 . S
Mn792 O808 2.297 . S
Mn792 O816 2.385 . S
Mn792 O817 2.209 . S
Mn792 O818 2.094 . S
Mn793 O798 2.121 . S
Mn793 N800 2.257 . S
Mn793 N809 2.282 . S
Mn793 O817 2.215 . S
Mn793 O819 2.117 . S
C794 O816 1.234 . S
C794 O817 1.283 . S
C795 O807 1.281 . S
C795 O808 1.236 . S
C796 O818 1.240 . S
C796 O819 1.264 . S
O797 Mn792 2.095 . S
O797 C806 1.250 . S
O798 Mn793 2.121 . S
O798 C806 1.258 . S
C799 N800 1.326 . S
C799 C803 1.460 . S
C799 H805 0.929 . S
N800 Mn793 2.257 . S
N800 C799 1.326 . S
N800 C804 1.362 . S
C801 C802 1.258 . S
C801 C804 1.431 . S
C801 C821 1.449 . S
C802 C801 1.258 . S
C802 C803 1.477 . S
C802 H822 0.931 . S
C803 C799 1.460 . S
C803 C802 1.477 . S
C803 H823 0.930 . S
C804 N800 1.362 . S
C804 C801 1.431 . S
C804 C814 1.476 . S
H805 C799 0.929 . S
C806 O797 1.250 . S
C806 O798 1.258 . S
O807 Mn792 2.162 . S
O807 C795 1.281 . S
O808 Mn792 2.297 . S
O808 C795 1.236 . S
N809 Mn793 2.282 . S
N809 C810 1.328 . S
N809 C814 1.318 . S
C810 N809 1.328 . S
C810 C811 1.457 . S
C810 H815 0.929 . S
C811 C810 1.457 . S
C811 C812 1.291 . S
C811 H824 0.931 . S
C812 C811 1.291 . S
C812 C813 1.373 . S
C812 H825 0.929 . S
C813 C812 1.373 . S
C813 C814 1.396 . S
C813 C820 1.403 . S
C814 C804 1.476 . S
C814 N809 1.318 . S
C814 C813 1.396 . S
H815 C810 0.929 . S
O816 Mn792 2.385 . S
O816 C794 1.234 . S
O817 Mn792 2.209 . S
O817 Mn793 2.215 . S
O817 C794 1.283 . S
O818 Mn792 2.094 . S
O818 C796 1.240 . S
O819 Mn793 2.117 . S
O819 C796 1.264 . S
C820 C813 1.403 . S
C820 C821 1.399 . S
C820 H826 0.929 . S
C821 C801 1.449 . S
C821 C820 1.399 . S
C821 H827 0.930 . S
H822 C802 0.931 . S
H823 C803 0.930 . S
H824 C811 0.931 . S
H825 C812 0.929 . S
H826 C820 0.929 . S
H827 C821 0.930 . S
Mn828 O833 2.095 . S
Mn828 O843 2.162 . S
Mn828 O844 2.297 . S
Mn828 O852 2.385 . S
Mn828 O853 2.209 . S
Mn828 O854 2.094 . S
Mn829 O834 2.121 . S
Mn829 N836 2.257 . S
Mn829 N845 2.282 . S
Mn829 O853 2.215 . S
Mn829 O855 2.117 . S
C830 O852 1.234 . S
C830 O853 1.283 . S
C831 O843 1.281 . S
C831 O844 1.236 . S
C832 O854 1.240 . S
C832 O855 1.264 . S
O833 Mn828 2.095 . S
O833 C842 1.250 . S
O834 Mn829 2.121 . S
O834 C842 1.258 . S
C835 N836 1.326 . S
C835 C839 1.460 . S
C835 H841 0.929 . S
N836 Mn829 2.257 . S
N836 C835 1.326 . S
N836 C840 1.362 . S
C837 C838 1.258 . S
C837 C840 1.431 . S
C837 C857 1.449 . S
C838 C837 1.258 . S
C838 C839 1.477 . S
C838 H858 0.931 . S
C839 C835 1.460 . S
C839 C838 1.477 . S
C839 H859 0.930 . S
C840 N836 1.362 . S
C840 C837 1.431 . S
C840 C850 1.476 . S
H841 C835 0.929 . S
C842 O833 1.250 . S
C842 O834 1.258 . S
O843 Mn828 2.162 . S
O843 C831 1.281 . S
O844 Mn828 2.297 . S
O844 C831 1.236 . S
N845 Mn829 2.282 . S
N845 C846 1.328 . S
N845 C850 1.318 . S
C846 N845 1.328 . S
C846 C847 1.457 . S
C846 H851 0.929 . S
C847 C846 1.457 . S
C847 C848 1.291 . S
C847 H860 0.931 . S
C848 C847 1.291 . S
C848 C849 1.373 . S
C848 H861 0.929 . S
C849 C848 1.373 . S
C849 C850 1.396 . S
C849 C856 1.403 . S
C850 C840 1.476 . S
C850 N845 1.318 . S
C850 C849 1.396 . S
H851 C846 0.929 . S
O852 Mn828 2.385 . S
O852 C830 1.234 . S
O853 Mn828 2.209 . S
O853 Mn829 2.215 . S
O853 C830 1.283 . S
O854 Mn828 2.094 . S
O854 C832 1.240 . S
O855 Mn829 2.117 . S
O855 C832 1.264 . S
C856 C849 1.403 . S
C856 C857 1.399 . S
C856 H862 0.929 . S
C857 C837 1.449 . S
C857 C856 1.399 . S
C857 H863 0.930 . S
H858 C838 0.931 . S
H859 C839 0.930 . S
H860 C847 0.931 . S
H861 C848 0.929 . S
H862 C856 0.929 . S
H863 C857 0.930 . S
Tb864 C874 2.825 1_455 S
Tb864 O875 2.347 1_556 S
Tb864 O878 2.366 . S
Tb864 O883 2.418 . S
Tb864 O884 2.384 1_546 S
Tb864 O887 2.479 1_455 S
Tb864 O888 2.471 1_456 S
Eu865 O876 2.418 . S
Eu865 O877 2.384 . S
Eu865 O880 2.479 . S
Eu865 O881 2.471 . S
Eu865 O882 2.347 . S
Eu865 O885 2.366 . S
Eu865 C895 2.825 . S
C866 O882 1.259 1_556 S
C866 O883 1.265 . S
C867 O884 1.255 . S
C867 O885 1.265 1_565 S
C868 C870 1.380 . S
C868 C871 1.374 . S
C868 C874 1.507 . S
C869 C870 1.384 . S
C869 C873 1.387 . S
C869 H896 0.930 . S
C870 C868 1.380 . S
C870 C869 1.384 . S
C870 H897 0.931 . S
C871 C868 1.374 . S
C871 C872 1.390 . S
C871 H898 0.930 1_556 S
C872 C871 1.390 . S
C872 C873 1.391 . S
C872 H899 0.930 . S
C873 C869 1.387 . S
C873 C872 1.391 . S
C874 Tb864 2.825 1_655 S
C874 C868 1.507 . S
C874 O887 1.238 . S
C874 O888 1.247 1_556 S
O875 Tb864 2.347 1_554 S
O875 C879 1.259 . S
O876 Eu865 2.418 . S
O876 C879 1.265 . S
O877 Eu865 2.384 . S
O877 C886 1.255 . S
O878 Tb864 2.366 . S
O878 C886 1.265 1_556 S
C879 O875 1.259 . S
C879 O876 1.265 . S
O880 Eu865 2.479 . S
O880 C895 1.238 . S
O881 Eu865 2.471 . S
O881 C895 1.247 . S
O882 Eu865 2.347 . S
O882 C866 1.259 1_554 S
O883 Tb864 2.418 . S
O883 C866 1.265 . S
O884 Tb864 2.384 1_564 S
O884 C867 1.255 . S
O885 Eu865 2.366 . S
O885 C867 1.265 1_545 S
C886 O877 1.255 . S
C886 O878 1.265 1_554 S
O887 Tb864 2.479 1_655 S
O887 C874 1.238 . S
O888 Tb864 2.471 1_654 S
O888 C874 1.247 1_554 S
C889 C892 1.380 . S
C889 C893 1.374 . S
C889 C895 1.507 . S
C890 C891 1.387 . S
C890 C894 1.391 . S
C891 C890 1.387 . S
C891 C892 1.384 . S
C891 H900 0.930 . S
C892 C889 1.380 . S
C892 C891 1.384 . S
C892 H901 0.931 . S
C893 C889 1.374 . S
C893 C894 1.390 . S
C893 H902 0.930 . S
C894 C890 1.391 . S
C894 C893 1.390 . S
C894 H903 0.930 1_545 S
C895 Eu865 2.825 . S
C895 O880 1.238 . S
C895 O881 1.247 . S
C895 C889 1.507 . S
H896 C869 0.930 . S
H897 C870 0.931 . S
H898 C871 0.930 1_554 S
H899 C872 0.930 . S
H900 C891 0.930 . S
H901 C892 0.931 . S
H902 C893 0.930 . S
H903 C894 0.930 1_565 S
Tb904 C914 2.825 . S
Tb904 O915 2.347 . S
Tb904 O918 2.366 . S
Tb904 O923 2.418 . S
Tb904 O924 2.384 . S
Tb904 O927 2.479 . S
Tb904 O928 2.471 . S
Eu905 O916 2.418 . S
Eu905 O917 2.384 . S
Eu905 O920 2.479 . S
Eu905 O921 2.471 . S
Eu905 O922 2.347 . S
Eu905 O925 2.366 . S
Eu905 C935 2.825 . S
C906 O922 1.259 . S
C906 O923 1.265 . S
C907 O924 1.255 . S
C907 O925 1.265 . S
C908 C910 1.380 . S
C908 C911 1.374 . S
C908 C914 1.507 . S
C909 C910 1.384 . S
C909 C913 1.387 . S
C909 H936 0.930 . S
C910 C908 1.380 . S
C910 C909 1.384 . S
C910 H937 0.931 . S
C911 C908 1.374 . S
C911 C912 1.390 . S
C911 H938 0.930 . S
C912 C911 1.390 . S
C912 C913 1.391 . S
C912 H939 0.930 . S
C913 C909 1.387 . S
C913 C912 1.391 . S
C914 Tb904 2.825 . S
C914 C908 1.507 . S
C914 O927 1.238 . S
C914 O928 1.247 . S
O915 Tb904 2.347 . S
O915 C919 1.259 . S
O916 Eu905 2.418 . S
O916 C919 1.265 . S
O917 Eu905 2.384 . S
O917 C926 1.255 . S
O918 Tb904 2.366 . S
O918 C926 1.265 . S
C919 O915 1.259 . S
C919 O916 1.265 . S
O920 Eu905 2.479 . S
O920 C935 1.238 . S
O921 Eu905 2.471 . S
O921 C935 1.247 . S
O922 Eu905 2.347 . S
O922 C906 1.259 . S
O923 Tb904 2.418 . S
O923 C906 1.265 . S
O924 Tb904 2.384 . S
O924 C907 1.255 . S
O925 Eu905 2.366 . S
O925 C907 1.265 . S
C926 O917 1.255 . S
C926 O918 1.265 . S
O927 Tb904 2.479 . S
O927 C914 1.238 . S
O928 Tb904 2.471 . S
O928 C914 1.247 . S
C929 C932 1.380 . S
C929 C933 1.374 . S
C929 C935 1.507 . S
C930 C931 1.387 . S
C930 C934 1.391 . S
C931 C930 1.387 . S
C931 C932 1.384 . S
C931 H940 0.930 . S
C932 C929 1.380 . S
C932 C931 1.384 . S
C932 H941 0.931 . S
C933 C929 1.374 . S
C933 C934 1.390 . S
C933 H942 0.930 . S
C934 C930 1.391 . S
C934 C933 1.390 . S
C934 H943 0.930 . S
C935 Eu905 2.825 . S
C935 O920 1.238 . S
C935 O921 1.247 . S
C935 C929 1.507 . S
H936 C909 0.930 . S
H937 C910 0.931 . S
H938 C911 0.930 . S
H939 C912 0.930 . S
H940 C931 0.930 . S
H941 C932 0.931 . S
H942 C933 0.930 . S
H943 C934 0.930 . S
Tb944 C954 2.825 1_545 S
Tb944 O955 2.347 . S
Tb944 O958 2.366 . S
Tb944 O963 2.418 . S
Tb944 O964 2.384 . S
Tb944 O967 2.479 1_545 S
Tb944 O968 2.471 1_545 S
Eu945 O956 2.418 . S
Eu945 O957 2.384 . S
Eu945 O960 2.479 . S
Eu945 O961 2.471 . S
Eu945 O962 2.347 . S
Eu945 O965 2.366 . S
Eu945 C975 2.825 . S
C946 O962 1.259 . S
C946 O963 1.265 . S
C947 O964 1.255 . S
C947 O965 1.265 . S
C948 C950 1.380 . S
C948 C951 1.374 . S
C948 C954 1.507 . S
C949 C950 1.384 . S
C949 C953 1.387 . S
C949 H976 0.930 . S
C950 C948 1.380 . S
C950 C949 1.384 . S
C950 H977 0.931 . S
C951 C948 1.374 . S
C951 C952 1.390 . S
C951 H978 0.930 . S
C952 C951 1.390 . S
C952 C953 1.391 . S
C952 H979 0.930 . S
C953 C949 1.387 . S
C953 C952 1.391 . S
C954 Tb944 2.825 1_565 S
C954 C948 1.507 . S
C954 O967 1.238 . S
C954 O968 1.247 . S
O955 Tb944 2.347 . S
O955 C959 1.259 . S
O956 Eu945 2.418 . S
O956 C959 1.265 . S
O957 Eu945 2.384 . S
O957 C966 1.255 . S
O958 Tb944 2.366 . S
O958 C966 1.265 . S
C959 O955 1.259 . S
C959 O956 1.265 . S
O960 Eu945 2.479 . S
O960 C975 1.238 . S
O961 Eu945 2.471 . S
O961 C975 1.247 . S
O962 Eu945 2.347 . S
O962 C946 1.259 . S
O963 Tb944 2.418 . S
O963 C946 1.265 . S
O964 Tb944 2.384 . S
O964 C947 1.255 . S
O965 Eu945 2.366 . S
O965 C947 1.265 . S
C966 O957 1.255 . S
C966 O958 1.265 . S
O967 Tb944 2.479 1_565 S
O967 C954 1.238 . S
O968 Tb944 2.471 1_565 S
O968 C954 1.247 . S
C969 C972 1.380 . S
C969 C973 1.374 . S
C969 C975 1.507 . S
C970 C971 1.387 . S
C970 C974 1.391 . S
C971 C970 1.387 . S
C971 C972 1.384 . S
C971 H980 0.930 . S
C972 C969 1.380 . S
C972 C971 1.384 . S
C972 H981 0.931 . S
C973 C969 1.374 . S
C973 C974 1.390 . S
C973 H982 0.930 . S
C974 C970 1.391 . S
C974 C973 1.390 . S
C974 H983 0.930 . S
C975 Eu945 2.825 . S
C975 O960 1.238 . S
C975 O961 1.247 . S
C975 C969 1.507 . S
H976 C949 0.930 . S
H977 C950 0.931 . S
H978 C951 0.930 . S
H979 C952 0.930 . S
H980 C971 0.930 . S
H981 C972 0.931 . S
H982 C973 0.930 . S
H983 C974 0.930 . S
Tb984 C994 2.825 . S
Tb984 O995 2.347 . S
Tb984 O998 2.366 . S
Tb984 O1003 2.418 . S
Tb984 O1004 2.384 . S
Tb984 O1007 2.479 . S
Tb984 O1008 2.471 . S
Eu985 O996 2.418 . S
Eu985 O997 2.384 . S
Eu985 O1000 2.479 . S
Eu985 O1001 2.471 . S
Eu985 O1002 2.347 . S
Eu985 O1005 2.366 . S
Eu985 C1015 2.825 . S
C986 O1002 1.259 . S
C986 O1003 1.265 . S
C987 O1004 1.255 . S
C987 O1005 1.265 . S
C988 C990 1.380 . S
C988 C991 1.374 . S
C988 C994 1.507 . S
C989 C990 1.384 . S
C989 C993 1.387 . S
C989 H1016 0.930 . S
C990 C988 1.380 . S
C990 C989 1.384 . S
C990 H1017 0.931 . S
C991 C988 1.374 . S
C991 C992 1.390 . S
C991 H1018 0.930 . S
C992 C991 1.390 . S
C992 C993 1.391 . S
C992 H1019 0.930 . S
C993 C989 1.387 . S
C993 C992 1.391 . S
C994 Tb984 2.825 . S
C994 C988 1.507 . S
C994 O1007 1.238 . S
C994 O1008 1.247 . S
O995 Tb984 2.347 . S
O995 C999 1.259 . S
O996 Eu985 2.418 . S
O996 C999 1.265 . S
O997 Eu985 2.384 . S
O997 C1006 1.255 . S
O998 Tb984 2.366 . S
O998 C1006 1.265 . S
C999 O995 1.259 . S
C999 O996 1.265 . S
O1000 Eu985 2.479 . S
O1000 C1015 1.238 . S
O1001 Eu985 2.471 . S
O1001 C1015 1.247 . S
O1002 Eu985 2.347 . S
O1002 C986 1.259 . S
O1003 Tb984 2.418 . S
O1003 C986 1.265 . S
O1004 Tb984 2.384 . S
O1004 C987 1.255 . S
O1005 Eu985 2.366 . S
O1005 C987 1.265 . S
C1006 O997 1.255 . S
C1006 O998 1.265 . S
O1007 Tb984 2.479 . S
O1007 C994 1.238 . S
O1008 Tb984 2.471 . S
O1008 C994 1.247 . S
C1009 C1012 1.380 . S
C1009 C1013 1.374 . S
C1009 C1015 1.507 . S
C1010 C1011 1.387 . S
C1010 C1014 1.391 . S
C1011 C1010 1.387 . S
C1011 C1012 1.384 . S
C1011 H1020 0.930 . S
C1012 C1009 1.380 . S
C1012 C1011 1.384 . S
C1012 H1021 0.931 . S
C1013 C1009 1.374 . S
C1013 C1014 1.390 . S
C1013 H1022 0.930 . S
C1014 C1010 1.391 . S
C1014 C1013 1.390 . S
C1014 H1023 0.930 . S
C1015 Eu985 2.825 . S
C1015 O1000 1.238 . S
C1015 O1001 1.247 . S
C1015 C1009 1.507 . S
H1016 C989 0.930 . S
H1017 C990 0.931 . S
H1018 C991 0.930 . S
H1019 C992 0.930 . S
H1020 C1011 0.930 . S
H1021 C1012 0.931 . S
H1022 C1013 0.930 . S
H1023 C1014 0.930 . S
Tb1024 C1034 2.825 . S
Tb1024 O1035 2.347 . S
Tb1024 O1038 2.366 . S
Tb1024 O1043 2.418 . S
Tb1024 O1044 2.384 . S
Tb1024 O1047 2.479 . S
Tb1024 O1048 2.471 . S
Eu1025 O1036 2.439 . S
Eu1025 O1037 2.384 . S
Eu1025 O1040 2.479 . S
Eu1025 O1041 2.471 . S
Eu1025 O1042 2.347 . S
Eu1025 O1045 2.366 . S
Eu1025 C1055 2.825 . S
C1026 O1042 1.259 . S
C1026 O1043 1.265 . S
C1027 O1044 1.255 . S
C1027 O1045 1.265 . S
C1028 C1030 1.380 . S
C1028 C1031 1.374 1_455 S
C1028 C1034 1.507 . S
C1029 C1030 1.384 . S
C1029 C1033 1.387 1_455 S
C1029 H1056 0.930 . S
C1030 C1028 1.380 . S
C1030 C1029 1.384 . S
C1030 H1057 0.931 . S
C1031 C1028 1.374 1_655 S
C1031 C1032 1.390 . S
C1031 H1058 0.930 . S
C1032 C1031 1.390 . S
C1032 C1033 1.391 . S
C1032 H1059 0.930 . S
C1033 C1029 1.387 1_655 S
C1033 C1032 1.391 . S
C1034 Tb1024 2.825 . S
C1034 C1028 1.507 . S
C1034 O1047 1.238 . S
C1034 O1048 1.247 . S
O1035 Tb1024 2.347 . S
O1035 C1039 1.259 1_455 S
O1036 Eu1025 2.439 . S
O1036 C1039 1.266 1_455 S
O1037 Eu1025 2.384 . S
O1037 C1046 1.255 . S
O1038 Tb1024 2.366 . S
O1038 C1046 1.265 . S
C1039 O1035 1.259 1_655 S
C1039 O1036 1.266 1_655 S
O1040 Eu1025 2.479 . S
O1040 C1055 1.238 . S
O1041 Eu1025 2.471 . S
O1041 C1055 1.247 . S
O1042 Eu1025 2.347 . S
O1042 C1026 1.259 . S
O1043 Tb1024 2.418 . S
O1043 C1026 1.265 . S
O1044 Tb1024 2.384 . S
O1044 C1027 1.255 . S
O1045 Eu1025 2.366 . S
O1045 C1027 1.265 . S
C1046 O1037 1.255 . S
C1046 O1038 1.265 . S
O1047 Tb1024 2.479 . S
O1047 C1034 1.238 . S
O1048 Tb1024 2.471 . S
O1048 C1034 1.247 . S
C1049 C1052 1.380 . S
C1049 C1053 1.374 . S
C1049 C1055 1.507 . S
C1050 C1051 1.387 . S
C1050 C1054 1.391 . S
C1051 C1050 1.387 . S
C1051 C1052 1.384 . S
C1051 H1060 0.930 . S
C1052 C1049 1.380 . S
C1052 C1051 1.384 . S
C1052 H1061 0.931 . S
C1053 C1049 1.374 . S
C1053 C1054 1.390 . S
C1053 H1062 0.930 . S
C1054 C1050 1.391 . S
C1054 C1053 1.390 . S
C1054 H1063 0.930 . S
C1055 Eu1025 2.825 . S
C1055 O1040 1.238 . S
C1055 O1041 1.247 . S
C1055 C1049 1.507 . S
H1056 C1029 0.930 . S
H1057 C1030 0.931 . S
H1058 C1031 0.930 . S
H1059 C1032 0.930 . S
H1060 C1051 0.930 . S
H1061 C1052 0.931 . S
H1062 C1053 0.930 . S
H1063 C1054 0.930 . S
Tb1064 C1074 2.825 . S
Tb1064 O1075 2.347 . S
Tb1064 O1078 2.366 . S
Tb1064 O1083 2.418 . S
Tb1064 O1084 2.384 . S
Tb1064 O1087 2.479 . S
Tb1064 O1088 2.471 . S
Eu1065 O1076 2.418 . S
Eu1065 O1077 2.384 . S
Eu1065 O1080 2.479 . S
Eu1065 O1081 2.471 . S
Eu1065 O1082 2.347 . S
Eu1065 O1085 2.366 . S
Eu1065 C1095 2.825 . S
C1066 O1082 1.259 . S
C1066 O1083 1.265 . S
C1067 O1084 1.255 . S
C1067 O1085 1.265 . S
C1068 C1070 1.380 . S
C1068 C1071 1.374 . S
C1068 C1074 1.507 . S
C1069 C1070 1.384 . S
C1069 C1073 1.387 . S
C1069 H1096 0.930 . S
C1070 C1068 1.380 . S
C1070 C1069 1.384 . S
C1070 H1097 0.931 . S
C1071 C1068 1.374 . S
C1071 C1072 1.390 . S
C1071 H1098 0.930 . S
C1072 C1071 1.390 . S
C1072 C1073 1.391 . S
C1072 H1099 0.930 . S
C1073 C1069 1.387 . S
C1073 C1072 1.391 . S
C1074 Tb1064 2.825 . S
C1074 C1068 1.507 . S
C1074 O1087 1.238 . S
C1074 O1088 1.247 . S
O1075 Tb1064 2.347 . S
O1075 C1079 1.259 . S
O1076 Eu1065 2.418 . S
O1076 C1079 1.265 . S
O1077 Eu1065 2.384 . S
O1077 C1086 1.255 . S
O1078 Tb1064 2.366 . S
O1078 C1086 1.265 . S
C1079 O1075 1.259 . S
C1079 O1076 1.265 . S
O1080 Eu1065 2.479 . S
O1080 C1095 1.238 . S
O1081 Eu1065 2.471 . S
O1081 C1095 1.247 . S
O1082 Eu1065 2.347 . S
O1082 C1066 1.259 . S
O1083 Tb1064 2.418 . S
O1083 C1066 1.265 . S
O1084 Tb1064 2.384 . S
O1084 C1067 1.255 . S
O1085 Eu1065 2.366 . S
O1085 C1067 1.265 . S
C1086 O1077 1.255 . S
C1086 O1078 1.265 . S
O1087 Tb1064 2.479 . S
O1087 C1074 1.238 . S
O1088 Tb1064 2.471 . S
O1088 C1074 1.247 . S
C1089 C1092 1.380 . S
C1089 C1093 1.374 . S
C1089 C1095 1.507 . S
C1090 C1091 1.387 . S
C1090 C1094 1.391 . S
C1091 C1090 1.387 . S
C1091 C1092 1.384 . S
C1091 H1100 0.930 . S
C1092 C1089 1.380 . S
C1092 C1091 1.384 . S
C1092 H1101 0.931 . S
C1093 C1089 1.374 . S
C1093 C1094 1.390 . S
C1093 H1102 0.930 . S
C1094 C1090 1.391 . S
C1094 C1093 1.390 . S
C1094 H1103 0.930 . S
C1095 Eu1065 2.825 . S
C1095 O1080 1.238 . S
C1095 O1081 1.247 . S
C1095 C1089 1.507 . S
H1096 C1069 0.930 . S
H1097 C1070 0.931 . S
H1098 C1071 0.930 . S
H1099 C1072 0.930 . S
H1100 C1091 0.930 . S
H1101 C1092 0.931 . S
H1102 C1093 0.930 . S
H1103 C1094 0.930 . S
Tb1104 C1114 2.825 . S
Tb1104 O1115 2.347 . S
Tb1104 O1118 2.366 . S
Tb1104 O1123 2.418 . S
Tb1104 O1124 2.384 . S
Tb1104 O1127 2.479 . S
Tb1104 O1128 2.471 . S
Eu1105 O1116 2.418 1_556 S
Eu1105 O1117 2.384 1_556 S
Eu1105 O1120 2.479 . S
Eu1105 O1121 2.471 . S
Eu1105 O1122 2.347 1_556 S
Eu1105 O1125 2.366 . S
Eu1105 C1135 2.825 . S
C1106 O1122 1.259 . S
C1106 O1123 1.265 . S
C1107 O1124 1.255 . S
C1107 O1125 1.265 1_554 S
C1108 C1110 1.380 . S
C1108 C1111 1.374 . S
C1108 C1114 1.507 . S
C1109 C1110 1.384 . S
C1109 C1113 1.387 . S
C1109 H1136 0.930 1_545 S
C1110 C1108 1.380 . S
C1110 C1109 1.384 . S
C1110 H1137 0.931 . S
C1111 C1108 1.374 . S
C1111 C1112 1.390 . S
C1111 H1138 0.930 . S
C1112 C1111 1.390 . S
C1112 C1113 1.391 . S
C1112 H1139 0.930 . S
C1113 C1109 1.387 . S
C1113 C1112 1.391 . S
C1114 Tb1104 2.825 . S
C1114 C1108 1.507 . S
C1114 O1127 1.238 . S
C1114 O1128 1.247 . S
O1115 Tb1104 2.347 . S
O1115 C1119 1.259 . S
O1116 Eu1105 2.418 1_554 S
O1116 C1119 1.265 . S
O1117 Eu1105 2.384 1_554 S
O1117 C1126 1.255 . S
O1118 Tb1104 2.366 . S
O1118 C1126 1.265 . S
C1119 O1115 1.259 . S
C1119 O1116 1.265 . S
O1120 Eu1105 2.479 . S
O1120 C1135 1.238 . S
O1121 Eu1105 2.471 . S
O1121 C1135 1.247 . S
O1122 Eu1105 2.347 1_554 S
O1122 C1106 1.259 . S
O1123 Tb1104 2.418 . S
O1123 C1106 1.265 . S
O1124 Tb1104 2.384 . S
O1124 C1107 1.255 . S
O1125 Eu1105 2.366 . S
O1125 C1107 1.265 1_556 S
C1126 O1117 1.255 . S
C1126 O1118 1.265 . S
O1127 Tb1104 2.479 . S
O1127 C1114 1.238 . S
O1128 Tb1104 2.471 . S
O1128 C1114 1.247 . S
C1129 C1132 1.380 . S
C1129 C1133 1.374 . S
C1129 C1135 1.507 . S
C1130 C1131 1.387 . S
C1130 C1134 1.391 . S
C1131 C1130 1.387 . S
C1131 C1132 1.384 . S
C1131 H1140 0.930 . S
C1132 C1129 1.380 . S
C1132 C1131 1.384 . S
C1132 H1141 0.931 . S
C1133 C1129 1.374 . S
C1133 C1134 1.390 . S
C1133 H1142 0.930 . S
C1134 C1130 1.391 . S
C1134 C1133 1.390 . S
C1134 H1143 0.930 . S
C1135 Eu1105 2.825 . S
C1135 O1120 1.238 . S
C1135 O1121 1.247 . S
C1135 C1129 1.507 . S
H1136 C1109 0.930 1_565 S
H1137 C1110 0.931 . S
H1138 C1111 0.930 . S
H1139 C1112 0.930 . S
H1140 C1131 0.930 . S
H1141 C1132 0.931 . S
H1142 C1133 0.930 . S
H1143 C1134 0.930 . S
Tb1144 C1154 2.825 . S
Tb1144 O1155 2.347 . S
Tb1144 O1158 2.366 . S
Tb1144 O1163 2.418 . S
Tb1144 O1164 2.384 . S
Tb1144 O1167 2.479 . S
Tb1144 O1168 2.471 . S
Eu1145 O1156 2.418 . S
Eu1145 O1157 2.384 . S
Eu1145 O1160 2.479 . S
Eu1145 O1161 2.471 . S
Eu1145 O1162 2.347 . S
Eu1145 O1165 2.366 . S
Eu1145 C1175 2.825 . S
C1146 O1162 1.259 . S
C1146 O1163 1.265 . S
C1147 O1164 1.255 . S
C1147 O1165 1.265 . S
C1148 C1150 1.380 . S
C1148 C1151 1.374 . S
C1148 C1154 1.507 . S
C1149 C1150 1.384 . S
C1149 C1153 1.387 . S
C1149 H1176 0.930 . S
C1150 C1148 1.380 . S
C1150 C1149 1.384 . S
C1150 H1177 0.931 . S
C1151 C1148 1.374 . S
C1151 C1152 1.390 . S
C1151 H1178 0.930 . S
C1152 C1151 1.390 . S
C1152 C1153 1.391 . S
C1152 H1179 0.930 . S
C1153 C1149 1.387 . S
C1153 C1152 1.391 . S
C1154 Tb1144 2.825 . S
C1154 C1148 1.507 . S
C1154 O1167 1.238 . S
C1154 O1168 1.247 . S
O1155 Tb1144 2.347 . S
O1155 C1159 1.259 . S
O1156 Eu1145 2.418 . S
O1156 C1159 1.265 . S
O1157 Eu1145 2.384 . S
O1157 C1166 1.255 . S
O1158 Tb1144 2.366 . S
O1158 C1166 1.265 . S
C1159 O1155 1.259 . S
C1159 O1156 1.265 . S
O1160 Eu1145 2.479 . S
O1160 C1175 1.238 . S
O1161 Eu1145 2.471 . S
O1161 C1175 1.247 . S
O1162 Eu1145 2.347 . S
O1162 C1146 1.259 . S
O1163 Tb1144 2.418 . S
O1163 C1146 1.265 . S
O1164 Tb1144 2.384 . S
O1164 C1147 1.255 . S
O1165 Eu1145 2.366 . S
O1165 C1147 1.265 . S
C1166 O1157 1.255 . S
C1166 O1158 1.265 . S
O1167 Tb1144 2.479 . S
O1167 C1154 1.238 . S
O1168 Tb1144 2.471 . S
O1168 C1154 1.247 . S
C1169 C1172 1.380 . S
C1169 C1173 1.374 . S
C1169 C1175 1.507 . S
C1170 C1171 1.387 . S
C1170 C1174 1.391 . S
C1171 C1170 1.387 . S
C1171 C1172 1.384 . S
C1171 H1180 0.930 . S
C1172 C1169 1.380 . S
C1172 C1171 1.384 . S
C1172 H1181 0.931 . S
C1173 C1169 1.374 . S
C1173 C1174 1.390 . S
C1173 H1182 0.930 . S
C1174 C1170 1.391 . S
C1174 C1173 1.390 . S
C1174 H1183 0.930 . S
C1175 Eu1145 2.825 . S
C1175 O1160 1.238 . S
C1175 O1161 1.247 . S
C1175 C1169 1.507 . S
H1176 C1149 0.930 . S
H1177 C1150 0.931 . S
H1178 C1151 0.930 . S
H1179 C1152 0.930 . S
H1180 C1171 0.930 . S
H1181 C1172 0.931 . S
H1182 C1173 0.930 . S
H1183 C1174 0.930 . S
Tb1184 C1194 2.825 . S
Tb1184 O1195 2.347 1_556 S
Tb1184 O1198 2.366 . S
Tb1184 O1203 2.418 . S
Tb1184 O1204 2.384 1_556 S
Tb1184 O1207 2.479 . S
Tb1184 O1208 2.471 . S
Eu1185 O1196 2.418 . S
Eu1185 O1197 2.384 . S
Eu1185 O1200 2.479 . S
Eu1185 O1201 2.471 . S
Eu1185 O1202 2.347 . S
Eu1185 O1205 2.366 . S
Eu1185 C1215 2.825 . S
C1186 O1202 1.259 . S
C1186 O1203 1.265 1_554 S
C1187 O1204 1.255 . S
C1187 O1205 1.265 . S
C1188 C1190 1.380 . S
C1188 C1191 1.374 . S
C1188 C1194 1.507 . S
C1189 C1190 1.384 . S
C1189 C1193 1.387 . S
C1189 H1216 0.930 . S
C1190 C1188 1.380 . S
C1190 C1189 1.384 . S
C1190 H1217 0.931 . S
C1191 C1188 1.374 . S
C1191 C1192 1.390 . S
C1191 H1218 0.930 . S
C1192 C1191 1.390 . S
C1192 C1193 1.391 . S
C1192 H1219 0.930 . S
C1193 C1189 1.387 . S
C1193 C1192 1.391 . S
C1194 Tb1184 2.825 . S
C1194 C1188 1.507 . S
C1194 O1207 1.238 . S
C1194 O1208 1.247 . S
O1195 Tb1184 2.347 1_554 S
O1195 C1199 1.259 . S
O1196 Eu1185 2.418 . S
O1196 C1199 1.265 . S
O1197 Eu1185 2.384 . S
O1197 C1206 1.255 1_554 S
O1198 Tb1184 2.366 . S
O1198 C1206 1.265 . S
C1199 O1195 1.259 . S
C1199 O1196 1.265 . S
O1200 Eu1185 2.479 . S
O1200 C1215 1.238 . S
O1201 Eu1185 2.471 . S
O1201 C1215 1.247 . S
O1202 Eu1185 2.347 . S
O1202 C1186 1.259 . S
O1203 Tb1184 2.418 . S
O1203 C1186 1.265 1_556 S
O1204 Tb1184 2.384 1_554 S
O1204 C1187 1.255 . S
O1205 Eu1185 2.366 . S
O1205 C1187 1.265 . S
C1206 O1197 1.255 1_556 S
C1206 O1198 1.265 . S
O1207 Tb1184 2.479 . S
O1207 C1194 1.238 . S
O1208 Tb1184 2.471 . S
O1208 C1194 1.247 . S
C1209 C1212 1.380 . S
C1209 C1213 1.374 . S
C1209 C1215 1.507 . S
C1210 C1211 1.387 . S
C1210 C1214 1.391 . S
C1211 C1210 1.387 . S
C1211 C1212 1.384 . S
C1211 H1220 0.930 . S
C1212 C1209 1.380 . S
C1212 C1211 1.384 . S
C1212 H1221 0.931 . S
C1213 C1209 1.374 . S
C1213 C1214 1.390 . S
C1213 H1222 0.930 . S
C1214 C1210 1.391 . S
C1214 C1213 1.390 . S
C1214 H1223 0.930 . S
C1215 Eu1185 2.825 . S
C1215 O1200 1.238 . S
C1215 O1201 1.247 . S
C1215 C1209 1.507 . S
H1216 C1189 0.930 . S
H1217 C1190 0.931 . S
H1218 C1191 0.930 . S
H1219 C1192 0.930 . S
H1220 C1211 0.930 . S
H1221 C1212 0.931 . S
H1222 C1213 0.930 . S
H1223 C1214 0.930 . S
Tb1224 C1234 2.825 . S
Tb1224 O1235 2.347 . S
Tb1224 O1238 2.366 . S
Tb1224 O1243 2.418 . S
Tb1224 O1244 2.384 . S
Tb1224 O1247 2.479 . S
Tb1224 O1248 2.471 . S
Eu1225 O1236 2.418 . S
Eu1225 O1237 2.384 . S
Eu1225 O1240 2.479 . S
Eu1225 O1241 2.471 . S
Eu1225 O1242 2.347 . S
Eu1225 O1245 2.366 . S
Eu1225 C1255 2.825 . S
C1226 O1242 1.259 . S
C1226 O1243 1.265 . S
C1227 O1244 1.255 . S
C1227 O1245 1.265 . S
C1228 C1230 1.380 . S
C1228 C1231 1.374 . S
C1228 C1234 1.507 . S
C1229 C1230 1.384 . S
C1229 C1233 1.387 . S
C1229 H1256 0.930 . S
C1230 C1228 1.380 . S
C1230 C1229 1.384 . S
C1230 H1257 0.931 . S
C1231 C1228 1.374 . S
C1231 C1232 1.390 . S
C1231 H1258 0.930 . S
C1232 C1231 1.390 . S
C1232 C1233 1.391 . S
C1232 H1259 0.930 . S
C1233 C1229 1.387 . S
C1233 C1232 1.391 . S
C1234 Tb1224 2.825 . S
C1234 C1228 1.507 . S
C1234 O1247 1.238 . S
C1234 O1248 1.247 . S
O1235 Tb1224 2.347 . S
O1235 C1239 1.259 . S
O1236 Eu1225 2.418 . S
O1236 C1239 1.265 . S
O1237 Eu1225 2.384 . S
O1237 C1246 1.255 . S
O1238 Tb1224 2.366 . S
O1238 C1246 1.265 . S
C1239 O1235 1.259 . S
C1239 O1236 1.265 . S
O1240 Eu1225 2.479 . S
O1240 C1255 1.238 . S
O1241 Eu1225 2.471 . S
O1241 C1255 1.247 . S
O1242 Eu1225 2.347 . S
O1242 C1226 1.259 . S
O1243 Tb1224 2.418 . S
O1243 C1226 1.265 . S
O1244 Tb1224 2.384 . S
O1244 C1227 1.255 . S
O1245 Eu1225 2.366 . S
O1245 C1227 1.265 . S
C1246 O1237 1.255 . S
C1246 O1238 1.265 . S
O1247 Tb1224 2.479 . S
O1247 C1234 1.238 . S
O1248 Tb1224 2.471 . S
O1248 C1234 1.247 . S
C1249 C1252 1.380 . S
C1249 C1253 1.374 . S
C1249 C1255 1.507 . S
C1250 C1251 1.387 . S
C1250 C1254 1.391 . S
C1251 C1250 1.387 . S
C1251 C1252 1.384 . S
C1251 H1260 0.930 . S
C1252 C1249 1.380 . S
C1252 C1251 1.384 . S
C1252 H1261 0.931 . S
C1253 C1249 1.374 . S
C1253 C1254 1.390 . S
C1253 H1262 0.930 . S
C1254 C1250 1.391 . S
C1254 C1253 1.390 . S
C1254 H1263 0.930 . S
C1255 Eu1225 2.825 . S
C1255 O1240 1.238 . S
C1255 O1241 1.247 . S
C1255 C1249 1.507 . S
H1256 C1229 0.930 . S
H1257 C1230 0.931 . S
H1258 C1231 0.930 . S
H1259 C1232 0.930 . S
H1260 C1251 0.930 . S
H1261 C1252 0.931 . S
H1262 C1253 0.930 . S
H1263 C1254 0.930 . S
Tb1264 C1274 2.825 . S
Tb1264 O1275 2.347 . S
Tb1264 O1278 2.366 . S
Tb1264 O1283 2.418 . S
Tb1264 O1284 2.384 . S
Tb1264 O1287 2.479 . S
Tb1264 O1288 2.471 . S
Eu1265 O1276 2.418 . S
Eu1265 O1277 2.384 1_455 S
Eu1265 O1280 2.479 . S
Eu1265 O1281 2.471 . S
Eu1265 O1282 2.347 . S
Eu1265 O1285 2.366 . S
Eu1265 C1295 2.825 . S
C1266 O1282 1.259 . S
C1266 O1283 1.265 . S
C1267 O1284 1.255 . S
C1267 O1285 1.265 . S
C1268 C1270 1.380 . S
C1268 C1271 1.374 . S
C1268 C1274 1.507 . S
C1269 C1270 1.384 . S
C1269 C1273 1.387 . S
C1269 H1296 0.930 . S
C1270 C1268 1.380 . S
C1270 C1269 1.384 . S
C1270 H1297 0.931 . S
C1271 C1268 1.374 . S
C1271 C1272 1.390 . S
C1271 H1298 0.930 . S
C1272 C1271 1.390 . S
C1272 C1273 1.391 . S
C1272 H1299 0.930 . S
C1273 C1269 1.387 . S
C1273 C1272 1.391 . S
C1274 Tb1264 2.825 . S
C1274 C1268 1.507 . S
C1274 O1287 1.238 . S
C1274 O1288 1.247 . S
O1275 Tb1264 2.347 . S
O1275 C1279 1.259 . S
O1276 Eu1265 2.418 . S
O1276 C1279 1.265 . S
O1277 Eu1265 2.384 1_655 S
O1277 C1286 1.256 . S
O1278 Tb1264 2.366 . S
O1278 C1286 1.253 1_455 S
C1279 O1275 1.259 . S
C1279 O1276 1.265 . S
O1280 Eu1265 2.479 . S
O1280 C1295 1.238 . S
O1281 Eu1265 2.471 . S
O1281 C1295 1.247 . S
O1282 Eu1265 2.347 . S
O1282 C1266 1.259 . S
O1283 Tb1264 2.418 . S
O1283 C1266 1.265 . S
O1284 Tb1264 2.384 . S
O1284 C1267 1.255 . S
O1285 Eu1265 2.366 . S
O1285 C1267 1.265 . S
C1286 O1277 1.256 . S
C1286 O1278 1.253 1_655 S
O1287 Tb1264 2.479 . S
O1287 C1274 1.238 . S
O1288 Tb1264 2.471 . S
O1288 C1274 1.247 . S
C1289 C1292 1.380 . S
C1289 C1293 1.374 . S
C1289 C1295 1.507 . S
C1290 C1291 1.387 . S
C1290 C1294 1.391 . S
C1291 C1290 1.387 . S
C1291 C1292 1.384 . S
C1291 H1300 0.930 . S
C1292 C1289 1.380 . S
C1292 C1291 1.384 . S
C1292 H1301 0.931 . S
C1293 C1289 1.374 . S
C1293 C1294 1.390 . S
C1293 H1302 0.930 . S
C1294 C1290 1.391 . S
C1294 C1293 1.390 . S
C1294 H1303 0.930 . S
C1295 Eu1265 2.825 . S
C1295 O1280 1.238 . S
C1295 O1281 1.247 . S
C1295 C1289 1.507 . S
H1296 C1269 0.930 . S
H1297 C1270 0.931 . S
H1298 C1271 0.930 . S
H1299 C1272 0.930 . S
H1300 C1291 0.930 . S
H1301 C1292 0.931 . S
H1302 C1293 0.930 . S
H1303 C1294 0.930 . S
Tb1304 C1314 2.825 . S
Tb1304 O1315 2.347 . S
Tb1304 O1318 2.366 . S
Tb1304 O1323 2.418 . S
Tb1304 O1324 2.384 . S
Tb1304 O1327 2.479 . S
Tb1304 O1328 2.471 . S
Eu1305 O1316 2.418 . S
Eu1305 O1317 2.384 . S
Eu1305 O1320 2.479 . S
Eu1305 O1321 2.471 . S
Eu1305 O1322 2.347 . S
Eu1305 O1325 2.366 . S
Eu1305 C1335 2.825 . S
C1306 O1322 1.259 . S
C1306 O1323 1.265 . S
C1307 O1324 1.255 . S
C1307 O1325 1.265 . S
C1308 C1310 1.380 . S
C1308 C1311 1.374 . S
C1308 C1314 1.507 . S
C1309 C1310 1.384 . S
C1309 C1313 1.387 . S
C1309 H1336 0.930 . S
C1310 C1308 1.380 . S
C1310 C1309 1.384 . S
C1310 H1337 0.931 . S
C1311 C1308 1.374 . S
C1311 C1312 1.390 . S
C1311 H1338 0.930 . S
C1312 C1311 1.390 . S
C1312 C1313 1.391 . S
C1312 H1339 0.930 . S
C1313 C1309 1.387 . S
C1313 C1312 1.391 . S
C1314 Tb1304 2.825 . S
C1314 C1308 1.507 . S
C1314 O1327 1.238 . S
C1314 O1328 1.247 . S
O1315 Tb1304 2.347 . S
O1315 C1319 1.259 . S
O1316 Eu1305 2.418 . S
O1316 C1319 1.265 . S
O1317 Eu1305 2.384 . S
O1317 C1326 1.255 . S
O1318 Tb1304 2.366 . S
O1318 C1326 1.265 . S
C1319 O1315 1.259 . S
C1319 O1316 1.265 . S
O1320 Eu1305 2.479 . S
O1320 C1335 1.238 . S
O1321 Eu1305 2.471 . S
O1321 C1335 1.247 . S
O1322 Eu1305 2.347 . S
O1322 C1306 1.259 . S
O1323 Tb1304 2.418 . S
O1323 C1306 1.265 . S
O1324 Tb1304 2.384 . S
O1324 C1307 1.255 . S
O1325 Eu1305 2.366 . S
O1325 C1307 1.265 . S
C1326 O1317 1.255 . S
C1326 O1318 1.265 . S
O1327 Tb1304 2.479 . S
O1327 C1314 1.238 . S
O1328 Tb1304 2.471 . S
O1328 C1314 1.247 . S
C1329 C1332 1.380 . S
C1329 C1333 1.374 . S
C1329 C1335 1.507 . S
C1330 C1331 1.387 . S
C1330 C1334 1.391 . S
C1331 C1330 1.387 . S
C1331 C1332 1.384 . S
C1331 H1340 0.930 . S
C1332 C1329 1.380 . S
C1332 C1331 1.384 . S
C1332 H1341 0.931 . S
C1333 C1329 1.374 . S
C1333 C1334 1.390 . S
C1333 H1342 0.930 . S
C1334 C1330 1.391 . S
C1334 C1333 1.390 . S
C1334 H1343 0.930 . S
C1335 Eu1305 2.825 . S
C1335 O1320 1.238 . S
C1335 O1321 1.247 . S
C1335 C1329 1.507 . S
H1336 C1309 0.930 . S
H1337 C1310 0.931 . S
H1338 C1311 0.930 . S
H1339 C1312 0.930 . S
H1340 C1331 0.930 . S
H1341 C1332 0.931 . S
H1342 C1333 0.930 . S
H1343 C1334 0.930 . S
Tb1344 C1354 2.825 . S
Tb1344 O1355 2.347 . S
Tb1344 O1358 2.366 . S
Tb1344 O1363 2.418 . S
Tb1344 O1364 2.384 . S
Tb1344 O1367 2.479 . S
Tb1344 O1368 2.471 . S
Eu1345 O1356 2.418 . S
Eu1345 O1357 2.384 . S
Eu1345 O1360 2.479 . S
Eu1345 O1361 2.471 . S
Eu1345 O1362 2.347 . S
Eu1345 O1365 2.366 . S
Eu1345 C1375 2.825 . S
C1346 O1362 1.259 . S
C1346 O1363 1.265 . S
C1347 O1364 1.255 . S
C1347 O1365 1.265 . S
C1348 C1350 1.380 . S
C1348 C1351 1.374 . S
C1348 C1354 1.507 . S
C1349 C1350 1.384 . S
C1349 C1353 1.387 . S
C1349 H1376 0.930 . S
C1350 C1348 1.380 . S
C1350 C1349 1.384 . S
C1350 H1377 0.931 . S
C1351 C1348 1.374 . S
C1351 C1352 1.390 . S
C1351 H1378 0.930 . S
C1352 C1351 1.390 . S
C1352 C1353 1.391 . S
C1352 H1379 0.930 . S
C1353 C1349 1.387 . S
C1353 C1352 1.391 . S
C1354 Tb1344 2.825 . S
C1354 C1348 1.507 . S
C1354 O1367 1.238 . S
C1354 O1368 1.247 . S
O1355 Tb1344 2.347 . S
O1355 C1359 1.259 . S
O1356 Eu1345 2.418 . S
O1356 C1359 1.265 . S
O1357 Eu1345 2.384 . S
O1357 C1366 1.255 . S
O1358 Tb1344 2.366 . S
O1358 C1366 1.265 . S
C1359 O1355 1.259 . S
C1359 O1356 1.265 . S
O1360 Eu1345 2.479 . S
O1360 C1375 1.238 . S
O1361 Eu1345 2.471 . S
O1361 C1375 1.247 . S
O1362 Eu1345 2.347 . S
O1362 C1346 1.259 . S
O1363 Tb1344 2.418 . S
O1363 C1346 1.265 . S
O1364 Tb1344 2.384 . S
O1364 C1347 1.255 . S
O1365 Eu1345 2.366 . S
O1365 C1347 1.265 . S
C1366 O1357 1.255 . S
C1366 O1358 1.265 . S
O1367 Tb1344 2.479 . S
O1367 C1354 1.238 . S
O1368 Tb1344 2.471 . S
O1368 C1354 1.247 . S
C1369 C1372 1.380 . S
C1369 C1373 1.374 . S
C1369 C1375 1.507 . S
C1370 C1371 1.387 . S
C1370 C1374 1.391 . S
C1371 C1370 1.387 . S
C1371 C1372 1.384 . S
C1371 H1380 0.930 . S
C1372 C1369 1.380 . S
C1372 C1371 1.384 . S
C1372 H1381 0.931 . S
C1373 C1369 1.374 . S
C1373 C1374 1.390 . S
C1373 H1382 0.930 . S
C1374 C1370 1.391 . S
C1374 C1373 1.390 . S
C1374 H1383 0.930 . S
C1375 Eu1345 2.825 . S
C1375 O1360 1.238 . S
C1375 O1361 1.247 . S
C1375 C1369 1.507 . S
H1376 C1349 0.930 . S
H1377 C1350 0.931 . S
H1378 C1351 0.930 . S
H1379 C1352 0.930 . S
H1380 C1371 0.930 . S
H1381 C1372 0.931 . S
H1382 C1373 0.930 . S
H1383 C1374 0.930 . S
Tb1384 C1394 2.825 . S
Tb1384 O1395 2.347 . S
Tb1384 O1398 2.366 . S
Tb1384 O1403 2.418 . S
Tb1384 O1404 2.384 . S
Tb1384 O1407 2.479 . S
Tb1384 O1408 2.471 . S
Eu1385 O1396 2.418 . S
Eu1385 O1397 2.384 . S
Eu1385 O1400 2.479 . S
Eu1385 O1401 2.471 . S
Eu1385 O1402 2.347 . S
Eu1385 O1405 2.366 . S
Eu1385 C1415 2.825 . S
C1386 O1402 1.259 . S
C1386 O1403 1.265 . S
C1387 O1404 1.255 . S
C1387 O1405 1.265 . S
C1388 C1390 1.380 . S
C1388 C1391 1.374 . S
C1388 C1394 1.507 . S
C1389 C1390 1.384 . S
C1389 C1393 1.387 . S
C1389 H1416 0.930 . S
C1390 C1388 1.380 . S
C1390 C1389 1.384 . S
C1390 H1417 0.931 . S
C1391 C1388 1.374 . S
C1391 C1392 1.390 . S
C1391 H1418 0.930 . S
C1392 C1391 1.390 . S
C1392 C1393 1.391 . S
C1392 H1419 0.930 . S
C1393 C1389 1.387 . S
C1393 C1392 1.391 . S
C1394 Tb1384 2.825 . S
C1394 C1388 1.507 . S
C1394 O1407 1.238 . S
C1394 O1408 1.247 . S
O1395 Tb1384 2.347 . S
O1395 C1399 1.259 . S
O1396 Eu1385 2.418 . S
O1396 C1399 1.265 . S
O1397 Eu1385 2.384 . S
O1397 C1406 1.255 . S
O1398 Tb1384 2.366 . S
O1398 C1406 1.265 . S
C1399 O1395 1.259 . S
C1399 O1396 1.265 . S
O1400 Eu1385 2.479 . S
O1400 C1415 1.238 . S
O1401 Eu1385 2.471 . S
O1401 C1415 1.247 . S
O1402 Eu1385 2.347 . S
O1402 C1386 1.259 . S
O1403 Tb1384 2.418 . S
O1403 C1386 1.265 . S
O1404 Tb1384 2.384 . S
O1404 C1387 1.255 . S
O1405 Eu1385 2.366 . S
O1405 C1387 1.265 . S
C1406 O1397 1.255 . S
C1406 O1398 1.265 . S
O1407 Tb1384 2.479 . S
O1407 C1394 1.238 . S
O1408 Tb1384 2.471 . S
O1408 C1394 1.247 . S
C1409 C1412 1.380 . S
C1409 C1413 1.374 . S
C1409 C1415 1.507 . S
C1410 C1411 1.387 . S
C1410 C1414 1.391 . S
C1411 C1410 1.387 . S
C1411 C1412 1.384 . S
C1411 H1420 0.930 . S
C1412 C1409 1.380 . S
C1412 C1411 1.384 . S
C1412 H1421 0.931 . S
C1413 C1409 1.374 . S
C1413 C1414 1.390 . S
C1413 H1422 0.930 . S
C1414 C1410 1.391 . S
C1414 C1413 1.390 . S
C1414 H1423 0.930 . S
C1415 Eu1385 2.825 . S
C1415 O1400 1.238 . S
C1415 O1401 1.247 . S
C1415 C1409 1.507 . S
H1416 C1389 0.930 . S
H1417 C1390 0.931 . S
H1418 C1391 0.930 . S
H1419 C1392 0.930 . S
H1420 C1411 0.930 . S
H1421 C1412 0.931 . S
H1422 C1413 0.930 . S
H1423 C1414 0.930 . S
Tb1424 C1434 2.825 . S
Tb1424 O1435 2.347 . S
Tb1424 O1438 2.366 . S
Tb1424 O1443 2.418 . S
Tb1424 O1444 2.384 . S
Tb1424 O1447 2.479 . S
Tb1424 O1448 2.471 . S
Eu1425 O1436 2.418 . S
Eu1425 O1437 2.384 . S
Eu1425 O1440 2.479 . S
Eu1425 O1441 2.471 . S
Eu1425 O1442 2.347 . S
Eu1425 O1445 2.366 . S
Eu1425 C1455 2.825 . S
C1426 O1442 1.259 . S
C1426 O1443 1.265 . S
C1427 O1444 1.255 . S
C1427 O1445 1.265 . S
C1428 C1430 1.380 . S
C1428 C1431 1.374 . S
C1428 C1434 1.507 . S
C1429 C1430 1.384 . S
C1429 C1433 1.387 . S
C1429 H1456 0.930 . S
C1430 C1428 1.380 . S
C1430 C1429 1.384 . S
C1430 H1457 0.931 . S
C1431 C1428 1.374 . S
C1431 C1432 1.390 . S
C1431 H1458 0.930 . S
C1432 C1431 1.390 . S
C1432 C1433 1.391 . S
C1432 H1459 0.930 . S
C1433 C1429 1.387 . S
C1433 C1432 1.391 . S
C1434 Tb1424 2.825 . S
C1434 C1428 1.507 . S
C1434 O1447 1.238 . S
C1434 O1448 1.247 . S
O1435 Tb1424 2.347 . S
O1435 C1439 1.259 . S
O1436 Eu1425 2.418 . S
O1436 C1439 1.265 . S
O1437 Eu1425 2.384 . S
O1437 C1446 1.255 . S
O1438 Tb1424 2.366 . S
O1438 C1446 1.265 . S
C1439 O1435 1.259 . S
C1439 O1436 1.265 . S
O1440 Eu1425 2.479 . S
O1440 C1455 1.238 . S
O1441 Eu1425 2.471 . S
O1441 C1455 1.247 . S
O1442 Eu1425 2.347 . S
O1442 C1426 1.259 . S
O1443 Tb1424 2.418 . S
O1443 C1426 1.265 . S
O1444 Tb1424 2.384 . S
O1444 C1427 1.255 . S
O1445 Eu1425 2.366 . S
O1445 C1427 1.265 . S
C1446 O1437 1.255 . S
C1446 O1438 1.265 . S
O1447 Tb1424 2.479 . S
O1447 C1434 1.238 . S
O1448 Tb1424 2.471 . S
O1448 C1434 1.247 . S
C1449 C1452 1.380 . S
C1449 C1453 1.374 . S
C1449 C1455 1.507 . S
C1450 C1451 1.387 . S
C1450 C1454 1.391 . S
C1451 C1450 1.387 . S
C1451 C1452 1.384 . S
C1451 H1460 0.930 . S
C1452 C1449 1.380 . S
C1452 C1451 1.384 . S
C1452 H1461 0.931 . S
C1453 C1449 1.374 . S
C1453 C1454 1.390 . S
C1453 H1462 0.930 . S
C1454 C1450 1.391 . S
C1454 C1453 1.390 . S
C1454 H1463 0.930 . S
C1455 Eu1425 2.825 . S
C1455 O1440 1.238 . S
C1455 O1441 1.247 . S
C1455 C1449 1.507 . S
H1456 C1429 0.930 . S
H1457 C1430 0.931 . S
H1458 C1431 0.930 . S
H1459 C1432 0.930 . S
H1460 C1451 0.930 . S
H1461 C1452 0.931 . S
H1462 C1453 0.930 . S
H1463 C1454 0.930 . S
Tb1464 C1474 2.825 1_554 S
Tb1464 O1475 2.347 1_554 S
Tb1464 O1478 2.366 . S
Tb1464 O1483 2.418 . S
Tb1464 O1484 2.384 . S
Tb1464 O1487 2.479 . S
Tb1464 O1488 2.471 1_554 S
Eu1465 O1476 2.418 1_554 S
Eu1465 O1477 2.384 . S
Eu1465 O1480 2.479 . S
Eu1465 O1481 2.471 . S
Eu1465 O1482 2.347 . S
Eu1465 O1485 2.366 . S
Eu1465 C1495 2.825 . S
C1466 O1482 1.259 . S
C1466 O1483 1.265 . S
C1467 O1484 1.255 . S
C1467 O1485 1.265 . S
C1468 C1470 1.380 . S
C1468 C1471 1.374 . S
C1468 C1474 1.507 . S
C1469 C1470 1.384 . S
C1469 C1473 1.387 . S
C1469 H1496 0.930 . S
C1470 C1468 1.380 . S
C1470 C1469 1.384 . S
C1470 H1497 0.931 1_556 S
C1471 C1468 1.374 . S
C1471 C1472 1.390 . S
C1471 H1498 0.930 . S
C1472 C1471 1.390 . S
C1472 C1473 1.391 . S
C1472 H1499 0.930 . S
C1473 C1469 1.387 . S
C1473 C1472 1.391 . S
C1474 Tb1464 2.825 1_556 S
C1474 C1468 1.507 . S
C1474 O1487 1.238 1_556 S
C1474 O1488 1.247 . S
O1475 Tb1464 2.347 1_556 S
O1475 C1479 1.259 . S
O1476 Eu1465 2.418 1_556 S
O1476 C1479 1.265 . S
O1477 Eu1465 2.384 . S
O1477 C1486 1.255 . S
O1478 Tb1464 2.366 . S
O1478 C1486 1.265 . S
C1479 O1475 1.259 . S
C1479 O1476 1.265 . S
O1480 Eu1465 2.479 . S
O1480 C1495 1.238 . S
O1481 Eu1465 2.471 . S
O1481 C1495 1.247 . S
O1482 Eu1465 2.347 . S
O1482 C1466 1.259 . S
O1483 Tb1464 2.418 . S
O1483 C1466 1.265 . S
O1484 Tb1464 2.384 . S
O1484 C1467 1.255 . S
O1485 Eu1465 2.366 . S
O1485 C1467 1.265 . S
C1486 O1477 1.255 . S
C1486 O1478 1.265 . S
O1487 Tb1464 2.479 . S
O1487 C1474 1.238 1_554 S
O1488 Tb1464 2.471 1_556 S
O1488 C1474 1.247 . S
C1489 C1492 1.380 . S
C1489 C1493 1.374 . S
C1489 C1495 1.507 . S
C1490 C1491 1.387 . S
C1490 C1494 1.391 . S
C1491 C1490 1.387 . S
C1491 C1492 1.384 . S
C1491 H1500 0.930 . S
C1492 C1489 1.380 . S
C1492 C1491 1.384 . S
C1492 H1501 0.931 . S
C1493 C1489 1.374 . S
C1493 C1494 1.390 . S
C1493 H1502 0.930 . S
C1494 C1490 1.391 . S
C1494 C1493 1.390 . S
C1494 H1503 0.930 . S
C1495 Eu1465 2.825 . S
C1495 O1480 1.238 . S
C1495 O1481 1.247 . S
C1495 C1489 1.507 . S
H1496 C1469 0.930 . S
H1497 C1470 0.931 1_554 S
H1498 C1471 0.930 . S
H1499 C1472 0.930 . S
H1500 C1491 0.930 . S
H1501 C1492 0.931 . S
H1502 C1493 0.930 . S
H1503 C1494 0.930 . S
C1504 C1505 1.363 . S
C1504 C1510 1.379 . S
C1504 N1512 1.356 . S
C1505 C1504 1.363 . S
C1505 C1511 1.363 1_455 S
C1506 C1507 1.363 . S
C1506 C1511 1.379 1_455 S
C1506 N1513 1.356 . S
C1507 C1506 1.363 . S
C1507 C1510 1.363 . S
N1508 C1510 1.356 1_554 S
N1508 H1520 0.984 . S
N1508 H1521 0.985 . S
N1509 C1511 1.356 . S
N1509 H1514 0.984 . S
N1509 H1515 0.985 . S
C1510 C1504 1.379 . S
C1510 C1507 1.363 . S
C1510 N1508 1.356 1_556 S
C1511 C1505 1.363 1_655 S
C1511 C1506 1.379 1_655 S
C1511 N1509 1.356 . S
N1512 C1504 1.356 . S
N1512 H1518 0.984 . S
N1512 H1519 0.984 . S
N1513 C1506 1.356 . S
N1513 H1516 0.984 . S
N1513 H1517 0.985 1_455 S
H1514 N1509 0.984 . S
H1515 N1509 0.985 . S
H1516 N1513 0.984 . S
H1517 N1513 0.985 1_655 S
H1518 N1512 0.984 . S
H1519 N1512 0.984 . S
H1520 N1508 0.984 . S
H1521 N1508 0.985 . S
C1522 C1523 1.363 . S
C1522 C1528 1.379 . S
C1522 N1530 1.356 . S
C1523 C1522 1.363 . S
C1523 C1529 1.363 . S
C1524 C1525 1.363 . S
C1524 C1529 1.379 . S
C1524 N1531 1.356 . S
C1525 C1524 1.363 . S
C1525 C1528 1.363 . S
N1526 C1528 1.356 . S
N1526 H1538 0.984 . S
N1526 H1539 0.985 . S
N1527 C1529 1.356 . S
N1527 H1532 0.984 . S
N1527 H1533 0.985 . S
C1528 C1522 1.379 . S
C1528 C1525 1.363 . S
C1528 N1526 1.356 . S
C1529 C1523 1.363 . S
C1529 C1524 1.379 . S
C1529 N1527 1.356 . S
N1530 C1522 1.356 . S
N1530 H1536 0.984 . S
N1530 H1537 0.984 . S
N1531 C1524 1.356 . S
N1531 H1534 0.984 . S
N1531 H1535 0.985 . S
H1532 N1527 0.984 . S
H1533 N1527 0.985 . S
H1534 N1531 0.984 . S
H1535 N1531 0.985 . S
H1536 N1530 0.984 . S
H1537 N1530 0.984 . S
H1538 N1526 0.984 . S
H1539 N1526 0.985 . S
C1540 C1541 1.363 . S
C1540 C1546 1.379 . S
C1540 N1548 1.356 . S
C1541 C1540 1.363 . S
C1541 C1547 1.363 . S
C1542 C1543 1.363 . S
C1542 C1547 1.379 . S
C1542 N1549 1.356 . S
C1543 C1542 1.363 . S
C1543 C1546 1.363 . S
N1544 C1546 1.356 . S
N1544 H1556 0.984 . S
N1544 H1557 0.985 . S
N1545 C1547 1.356 . S
N1545 H1550 0.984 . S
N1545 H1551 0.985 . S
C1546 C1540 1.379 . S
C1546 C1543 1.363 . S
C1546 N1544 1.356 . S
C1547 C1541 1.363 . S
C1547 C1542 1.379 . S
C1547 N1545 1.356 . S
N1548 C1540 1.356 . S
N1548 H1554 0.984 . S
N1548 H1555 0.984 . S
N1549 C1542 1.356 . S
N1549 H1552 0.984 . S
N1549 H1553 0.985 . S
H1550 N1545 0.984 . S
H1551 N1545 0.985 . S
H1552 N1549 0.984 . S
H1553 N1549 0.985 . S
H1554 N1548 0.984 . S
H1555 N1548 0.984 . S
H1556 N1544 0.984 . S
H1557 N1544 0.985 . S
C1558 C1559 1.363 . S
C1558 C1564 1.379 . S
C1558 N1566 1.356 . S
C1559 C1558 1.363 . S
C1559 C1565 1.363 . S
C1560 C1561 1.363 . S
C1560 C1565 1.379 . S
C1560 N1567 1.356 . S
C1561 C1560 1.363 . S
C1561 C1564 1.363 . S
N1562 C1564 1.356 . S
N1562 H1574 0.984 . S
N1562 H1575 0.985 . S
N1563 C1565 1.356 . S
N1563 H1568 0.984 . S
N1563 H1569 0.985 . S
C1564 C1558 1.379 . S
C1564 C1561 1.363 . S
C1564 N1562 1.356 . S
C1565 C1559 1.363 . S
C1565 C1560 1.379 . S
C1565 N1563 1.356 . S
N1566 C1558 1.356 . S
N1566 H1572 0.984 . S
N1566 H1573 0.984 . S
N1567 C1560 1.356 . S
N1567 H1570 0.984 . S
N1567 H1571 0.985 . S
H1568 N1563 0.984 . S
H1569 N1563 0.985 . S
H1570 N1567 0.984 . S
H1571 N1567 0.985 . S
H1572 N1566 0.984 . S
H1573 N1566 0.984 . S
H1574 N1562 0.984 . S
H1575 N1562 0.985 . S
C1576 C1577 1.363 . S
C1576 C1582 1.379 . S
C1576 N1584 1.356 . S
C1577 C1576 1.363 . S
C1577 C1583 1.363 . S
C1578 C1579 1.363 . S
C1578 C1583 1.379 . S
C1578 N1585 1.356 . S
C1579 C1578 1.363 . S
C1579 C1582 1.363 . S
N1580 C1582 1.356 . S
N1580 H1592 0.984 . S
N1580 H1593 0.985 . S
N1581 C1583 1.356 . S
N1581 H1586 0.984 . S
N1581 H1587 0.985 . S
C1582 C1576 1.379 . S
C1582 C1579 1.363 . S
C1582 N1580 1.356 . S
C1583 C1577 1.363 . S
C1583 C1578 1.379 . S
C1583 N1581 1.356 . S
N1584 C1576 1.356 . S
N1584 H1590 0.984 . S
N1584 H1591 0.984 . S
N1585 C1578 1.356 . S
N1585 H1588 0.984 . S
N1585 H1589 0.985 . S
H1586 N1581 0.984 . S
H1587 N1581 0.985 . S
H1588 N1585 0.984 . S
H1589 N1585 0.985 . S
H1590 N1584 0.984 . S
H1591 N1584 0.984 . S
H1592 N1580 0.984 . S
H1593 N1580 0.985 . S
C1594 C1595 1.363 . S
C1594 C1600 1.379 . S
C1594 N1602 1.356 . S
C1595 C1594 1.363 . S
C1595 C1601 1.363 . S
C1596 C1597 1.363 . S
C1596 C1601 1.379 . S
C1596 N1603 1.356 . S
C1597 C1596 1.363 . S
C1597 C1600 1.363 . S
N1598 C1600 1.356 . S
N1598 H1610 0.984 . S
N1598 H1611 0.985 . S
N1599 C1601 1.356 . S
N1599 H1604 0.984 . S
N1599 H1605 0.985 . S
C1600 C1594 1.379 . S
C1600 C1597 1.363 . S
C1600 N1598 1.356 . S
C1601 C1595 1.363 . S
C1601 C1596 1.379 . S
C1601 N1599 1.356 . S
N1602 C1594 1.356 . S
N1602 H1608 0.984 . S
N1602 H1609 0.984 . S
N1603 C1596 1.356 . S
N1603 H1606 0.984 . S
N1603 H1607 0.985 . S
H1604 N1599 0.984 . S
H1605 N1599 0.985 . S
H1606 N1603 0.984 . S
H1607 N1603 0.985 . S
H1608 N1602 0.984 . S
H1609 N1602 0.984 . S
H1610 N1598 0.984 . S
H1611 N1598 0.985 . S
C1612 C1613 1.363 . S
C1612 C1618 1.379 . S
C1612 N1620 1.356 . S
C1613 C1612 1.363 . S
C1613 C1619 1.363 . S
C1614 C1615 1.363 . S
C1614 C1619 1.379 . S
C1614 N1621 1.356 . S
C1615 C1614 1.363 . S
C1615 C1618 1.363 . S
N1616 C1618 1.356 . S
N1616 H1628 0.984 . S
N1616 H1629 0.985 . S
N1617 C1619 1.356 . S
N1617 H1622 0.984 . S
N1617 H1623 0.985 . S
C1618 C1612 1.379 . S
C1618 C1615 1.363 . S
C1618 N1616 1.356 . S
C1619 C1613 1.363 . S
C1619 C1614 1.379 . S
C1619 N1617 1.356 . S
N1620 C1612 1.356 . S
N1620 H1626 0.984 . S
N1620 H1627 0.984 . S
N1621 C1614 1.356 . S
N1621 H1624 0.984 . S
N1621 H1625 0.985 . S
H1622 N1617 0.984 . S
H1623 N1617 0.985 . S
H1624 N1621 0.984 . S
H1625 N1621 0.985 . S
H1626 N1620 0.984 . S
H1627 N1620 0.984 . S
H1628 N1616 0.984 . S
H1629 N1616 0.985 . S
C1630 C1631 1.363 . S
C1630 C1636 1.379 . S
C1630 N1638 1.356 . S
C1631 C1630 1.363 . S
C1631 C1637 1.363 . S
C1632 C1633 1.363 . S
C1632 C1637 1.379 . S
C1632 N1639 1.356 . S
C1633 C1632 1.363 . S
C1633 C1636 1.363 . S
N1634 C1636 1.356 . S
N1634 H1646 0.984 . S
N1634 H1647 0.985 . S
N1635 C1637 1.356 . S
N1635 H1640 0.984 . S
N1635 H1641 0.985 . S
C1636 C1630 1.379 . S
C1636 C1633 1.363 . S
C1636 N1634 1.356 . S
C1637 C1631 1.363 . S
C1637 C1632 1.379 . S
C1637 N1635 1.356 . S
N1638 C1630 1.356 . S
N1638 H1644 0.984 . S
N1638 H1645 0.984 . S
N1639 C1632 1.356 . S
N1639 H1642 0.984 . S
N1639 H1643 0.985 . S
H1640 N1635 0.984 . S
H1641 N1635 0.985 . S
H1642 N1639 0.984 . S
H1643 N1639 0.985 . S
H1644 N1638 0.984 . S
H1645 N1638 0.984 . S
H1646 N1634 0.984 . S
H1647 N1634 0.985 . S
C1648 C1649 1.370 . S
C1648 C1654 1.383 1_655 S
C1648 N1656 1.346 1_545 S
C1649 C1648 1.370 . S
C1649 C1655 1.363 . S
C1650 C1651 1.363 1_655 S
C1650 C1655 1.379 . S
C1650 N1657 1.356 . S
C1651 C1650 1.363 1_455 S
C1651 C1654 1.363 . S
N1652 C1654 1.356 . S
N1652 H1664 0.984 1_545 S
N1652 H1665 0.985 . S
N1653 C1655 1.356 . S
N1653 H1658 0.984 . S
N1653 H1659 0.985 . S
C1654 C1648 1.383 1_455 S
C1654 C1651 1.363 . S
C1654 N1652 1.356 . S
C1655 C1649 1.363 . S
C1655 C1650 1.379 . S
C1655 N1653 1.356 . S
N1656 C1648 1.346 1_565 S
N1656 H1662 0.984 . S
N1656 H1663 0.984 . S
N1657 C1650 1.356 . S
N1657 H1660 0.984 1_655 S
N1657 H1661 0.985 . S
H1658 N1653 0.984 . S
H1659 N1653 0.985 . S
H1660 N1657 0.984 1_455 S
H1661 N1657 0.985 . S
H1662 N1656 0.984 . S
H1663 N1656 0.984 . S
H1664 N1652 0.984 1_565 S
H1665 N1652 0.985 . S
C1666 C1667 1.363 . S
C1666 C1672 1.379 . S
C1666 N1674 1.356 . S
C1667 C1666 1.363 . S
C1667 C1673 1.363 . S
C1668 C1669 1.363 . S
C1668 C1673 1.379 . S
C1668 N1675 1.356 . S
C1669 C1668 1.363 . S
C1669 C1672 1.363 . S
N1670 C1672 1.356 . S
N1670 H1682 0.984 . S
N1670 H1683 0.985 . S
N1671 C1673 1.356 . S
N1671 H1676 0.984 . S
N1671 H1677 0.985 . S
C1672 C1666 1.379 . S
C1672 C1669 1.363 . S
C1672 N1670 1.356 . S
C1673 C1667 1.363 . S
C1673 C1668 1.379 . S
C1673 N1671 1.356 . S
N1674 C1666 1.356 . S
N1674 H1680 0.984 . S
N1674 H1681 0.984 . S
N1675 C1668 1.356 . S
N1675 H1678 0.984 . S
N1675 H1679 0.985 . S
H1676 N1671 0.984 . S
H1677 N1671 0.985 . S
H1678 N1675 0.984 . S
H1679 N1675 0.985 . S
H1680 N1674 0.984 . S
H1681 N1674 0.984 . S
H1682 N1670 0.984 . S
H1683 N1670 0.985 . S
C1684 C1685 1.363 . S
C1684 C1690 1.379 . S
C1684 N1692 1.356 . S
C1685 C1684 1.363 . S
C1685 C1691 1.363 . S
C1686 C1687 1.363 . S
C1686 C1691 1.379 . S
C1686 N1693 1.356 . S
C1687 C1686 1.363 . S
C1687 C1690 1.363 . S
N1688 C1690 1.356 . S
N1688 H1700 0.984 . S
N1688 H1701 0.985 . S
N1689 C1691 1.356 1_565 S
N1689 H1694 0.984 . S
N1689 H1695 0.985 . S
C1690 C1684 1.379 . S
C1690 C1687 1.363 . S
C1690 N1688 1.356 . S
C1691 C1685 1.363 . S
C1691 C1686 1.379 . S
C1691 N1689 1.356 1_545 S
N1692 C1684 1.356 . S
N1692 H1698 0.984 . S
N1692 H1699 0.984 . S
N1693 C1686 1.356 . S
N1693 H1696 0.984 . S
N1693 H1697 0.985 . S
H1694 N1689 0.984 . S
H1695 N1689 0.985 . S
H1696 N1693 0.984 . S
H1697 N1693 0.985 . S
H1698 N1692 0.984 . S
H1699 N1692 0.984 . S
H1700 N1688 0.984 . S
H1701 N1688 0.985 . S
C1702 C1703 1.363 . S
C1702 C1708 1.379 . S
C1702 N1710 1.356 . S
C1703 C1702 1.363 . S
C1703 C1709 1.363 . S
C1704 C1705 1.363 . S
C1704 C1709 1.379 . S
C1704 N1711 1.356 . S
C1705 C1704 1.363 . S
C1705 C1708 1.363 . S
N1706 C1708 1.356 . S
N1706 H1718 0.984 . S
N1706 H1719 0.985 . S
N1707 C1709 1.356 . S
N1707 H1712 0.984 . S
N1707 H1713 0.985 . S
C1708 C1702 1.379 . S
C1708 C1705 1.363 . S
C1708 N1706 1.356 . S
C1709 C1703 1.363 . S
C1709 C1704 1.379 . S
C1709 N1707 1.356 . S
N1710 C1702 1.356 . S
N1710 H1716 0.984 . S
N1710 H1717 0.984 . S
N1711 C1704 1.356 . S
N1711 H1714 0.984 . S
N1711 H1715 0.985 . S
H1712 N1707 0.984 . S
H1713 N1707 0.985 . S
H1714 N1711 0.984 . S
H1715 N1711 0.985 . S
H1716 N1710 0.984 . S
H1717 N1710 0.984 . S
H1718 N1706 0.984 . S
H1719 N1706 0.985 . S
C1720 C1721 1.363 1_565 S
C1720 C1726 1.379 1_565 S
C1720 N1728 1.356 . S
C1721 C1720 1.363 1_545 S
C1721 C1727 1.363 . S
C1722 C1723 1.363 . S
C1722 C1727 1.379 . S
C1722 N1729 1.356 . S
C1723 C1722 1.363 . S
C1723 C1726 1.363 . S
N1724 C1726 1.356 . S
N1724 H1736 0.984 1_545 S
N1724 H1737 0.985 . S
N1725 C1727 1.356 . S
N1725 H1730 0.984 . S
N1725 H1731 0.985 . S
C1726 C1720 1.379 1_545 S
C1726 C1723 1.363 . S
C1726 N1724 1.356 . S
C1727 C1721 1.363 . S
C1727 C1722 1.379 . S
C1727 N1725 1.356 . S
N1728 C1720 1.356 . S
N1728 H1734 0.984 . S
N1728 H1735 0.984 . S
N1729 C1722 1.356 . S
N1729 H1732 0.984 . S
N1729 H1733 0.985 . S
H1730 N1725 0.984 . S
H1731 N1725 0.985 . S
H1732 N1729 0.984 . S
H1733 N1729 0.985 . S
H1734 N1728 0.984 . S
H1735 N1728 0.984 . S
H1736 N1724 0.984 1_565 S
H1737 N1724 0.985 . S
C1738 C1739 1.363 . S
C1738 C1744 1.379 . S
C1738 N1746 1.356 . S
C1739 C1738 1.363 . S
C1739 C1745 1.363 . S
C1740 C1741 1.363 . S
C1740 C1745 1.379 . S
C1740 N1747 1.356 . S
C1741 C1740 1.363 . S
C1741 C1744 1.363 . S
N1742 C1744 1.356 . S
N1742 H1754 0.984 . S
N1742 H1755 0.985 . S
N1743 C1745 1.356 . S
N1743 H1748 0.984 . S
N1743 H1749 0.985 . S
C1744 C1738 1.379 . S
C1744 C1741 1.363 . S
C1744 N1742 1.356 . S
C1745 C1739 1.363 . S
C1745 C1740 1.379 . S
C1745 N1743 1.356 . S
N1746 C1738 1.356 . S
N1746 H1752 0.984 . S
N1746 H1753 0.984 . S
N1747 C1740 1.356 . S
N1747 H1750 0.984 . S
N1747 H1751 0.985 . S
H1748 N1743 0.984 . S
H1749 N1743 0.985 . S
H1750 N1747 0.984 . S
H1751 N1747 0.985 . S
H1752 N1746 0.984 . S
H1753 N1746 0.984 . S
H1754 N1742 0.984 . S
H1755 N1742 0.985 . S
C1756 C1757 1.363 . S
C1756 C1762 1.379 . S
C1756 N1764 1.356 . S
C1757 C1756 1.363 . S
C1757 C1763 1.363 . S
C1758 C1759 1.363 . S
C1758 C1763 1.379 . S
C1758 N1765 1.356 . S
C1759 C1758 1.363 . S
C1759 C1762 1.363 . S
N1760 C1762 1.356 . S
N1760 H1772 0.984 . S
N1760 H1773 0.985 . S
N1761 C1763 1.356 . S
N1761 H1766 0.984 1_545 S
N1761 H1767 0.985 . S
C1762 C1756 1.379 . S
C1762 C1759 1.363 . S
C1762 N1760 1.356 . S
C1763 C1757 1.363 . S
C1763 C1758 1.379 . S
C1763 N1761 1.356 . S
N1764 C1756 1.356 . S
N1764 H1770 0.984 . S
N1764 H1771 0.984 . S
N1765 C1758 1.356 . S
N1765 H1768 0.984 . S
N1765 H1769 0.985 . S
H1766 N1761 0.984 1_565 S
H1767 N1761 0.985 . S
H1768 N1765 0.984 . S
H1769 N1765 0.985 . S
H1770 N1764 0.984 . S
H1771 N1764 0.984 . S
H1772 N1760 0.984 . S
H1773 N1760 0.985 . S
C1774 C1775 1.363 . S
C1774 C1780 1.379 . S
C1774 N1782 1.356 . S
C1775 C1774 1.363 . S
C1775 C1781 1.363 . S
C1776 C1777 1.363 . S
C1776 C1781 1.379 . S
C1776 N1783 1.356 . S
C1777 C1776 1.363 . S
C1777 C1780 1.363 . S
N1778 C1780 1.356 . S
N1778 H1790 0.984 . S
N1778 H1791 0.985 . S
N1779 C1781 1.356 . S
N1779 H1784 0.984 . S
N1779 H1785 0.985 . S
C1780 C1774 1.379 . S
C1780 C1777 1.363 . S
C1780 N1778 1.356 . S
C1781 C1775 1.363 . S
C1781 C1776 1.379 . S
C1781 N1779 1.356 . S
N1782 C1774 1.356 . S
N1782 H1788 0.984 . S
N1782 H1789 0.984 . S
N1783 C1776 1.356 . S
N1783 H1786 0.984 . S
N1783 H1787 0.985 . S
H1784 N1779 0.984 . S
H1785 N1779 0.985 . S
H1786 N1783 0.984 . S
H1787 N1783 0.985 . S
H1788 N1782 0.984 . S
H1789 N1782 0.984 . S
H1790 N1778 0.984 . S
H1791 N1778 0.985 . S
C1792 C1793 1.363 . S
C1792 C1798 1.379 . S
C1792 N1800 1.356 . S
C1793 C1792 1.363 . S
C1793 C1799 1.363 . S
C1794 C1795 1.363 . S
C1794 C1799 1.379 . S
C1794 N1801 1.356 . S
C1795 C1794 1.363 . S
C1795 C1798 1.363 . S
N1796 C1798 1.356 1_545 S
N1796 H1808 0.984 . S
N1796 H1809 0.985 . S
N1797 C1799 1.356 . S
N1797 H1802 0.984 . S
N1797 H1803 0.985 . S
C1798 C1792 1.379 . S
C1798 C1795 1.363 . S
C1798 N1796 1.356 1_565 S
C1799 C1793 1.363 . S
C1799 C1794 1.379 . S
C1799 N1797 1.356 . S
N1800 C1792 1.356 . S
N1800 H1806 0.984 . S
N1800 H1807 0.984 . S
N1801 C1794 1.356 . S
N1801 H1804 0.984 . S
N1801 H1805 0.985 . S
H1802 N1797 0.984 . S
H1803 N1797 0.985 . S
H1804 N1801 0.984 . S
H1805 N1801 0.985 . S
H1806 N1800 0.984 . S
H1807 N1800 0.984 . S
H1808 N1796 0.984 . S
H1809 N1796 0.985 . S
C1810 C1811 1.363 1_556 S
C1810 C1816 1.378 . S
C1810 N1818 1.356 . S
C1811 C1810 1.363 1_554 S
C1811 C1817 1.363 . S
C1812 C1813 1.363 . S
C1812 C1817 1.379 . S
C1812 N1819 1.356 . S
C1813 C1812 1.363 . S
C1813 C1816 1.365 1_554 S
N1814 C1816 1.355 . S
N1814 H1826 0.984 . S
N1814 H1827 0.985 . S
N1815 C1817 1.356 . S
N1815 H1820 0.984 . S
N1815 H1821 0.985 . S
C1816 C1810 1.378 . S
C1816 C1813 1.365 1_556 S
C1816 N1814 1.355 . S
C1817 C1811 1.363 . S
C1817 C1812 1.379 . S
C1817 N1815 1.356 . S
N1818 C1810 1.356 . S
N1818 H1824 0.984 . S
N1818 H1825 0.984 . S
N1819 C1812 1.356 . S
N1819 H1822 0.984 . S
N1819 H1823 0.985 . S
H1820 N1815 0.984 . S
H1821 N1815 0.985 . S
H1822 N1819 0.984 . S
H1823 N1819 0.985 . S
H1824 N1818 0.984 . S
H1825 N1818 0.984 . S
H1826 N1814 0.984 . S
H1827 N1814 0.985 . S
C1828 C1829 1.363 . S
C1828 C1834 1.379 . S
C1828 N1836 1.356 . S
C1829 C1828 1.363 . S
C1829 C1835 1.363 . S
C1830 C1831 1.363 . S
C1830 C1835 1.379 . S
C1830 N1837 1.356 . S
C1831 C1830 1.363 . S
C1831 C1834 1.363 . S
N1832 C1834 1.356 . S
N1832 H1844 0.984 . S
N1832 H1845 0.985 . S
N1833 C1835 1.356 . S
N1833 H1838 0.984 . S
N1833 H1839 0.985 . S
C1834 C1828 1.379 . S
C1834 C1831 1.363 . S
C1834 N1832 1.356 . S
C1835 C1829 1.363 . S
C1835 C1830 1.379 . S
C1835 N1833 1.356 . S
N1836 C1828 1.356 . S
N1836 H1842 0.984 . S
N1836 H1843 0.984 . S
N1837 C1830 1.356 . S
N1837 H1840 0.984 . S
N1837 H1841 0.985 . S
H1838 N1833 0.984 . S
H1839 N1833 0.985 . S
H1840 N1837 0.984 . S
H1841 N1837 0.985 . S
H1842 N1836 0.984 . S
H1843 N1836 0.984 . S
H1844 N1832 0.984 . S
H1845 N1832 0.985 . S
C1846 C1847 1.363 . S
C1846 C1852 1.379 . S
C1846 N1854 1.356 . S
C1847 C1846 1.363 . S
C1847 C1853 1.363 . S
C1848 C1849 1.363 . S
C1848 C1853 1.379 . S
C1848 N1855 1.356 . S
C1849 C1848 1.363 . S
C1849 C1852 1.363 . S
N1850 C1852 1.356 . S
N1850 H1862 0.984 . S
N1850 H1863 0.985 . S
N1851 C1853 1.356 . S
N1851 H1856 0.984 . S
N1851 H1857 0.985 . S
C1852 C1846 1.379 . S
C1852 C1849 1.363 . S
C1852 N1850 1.356 . S
C1853 C1847 1.363 . S
C1853 C1848 1.379 . S
C1853 N1851 1.356 . S
N1854 C1846 1.356 . S
N1854 H1860 0.984 . S
N1854 H1861 0.984 . S
N1855 C1848 1.356 . S
N1855 H1858 0.984 1_655 S
N1855 H1859 0.985 . S
H1856 N1851 0.984 . S
H1857 N1851 0.985 . S
H1858 N1855 0.984 1_455 S
H1859 N1855 0.985 . S
H1860 N1854 0.984 . S
H1861 N1854 0.984 . S
H1862 N1850 0.984 . S
H1863 N1850 0.985 . S
C1864 C1865 1.363 . S
C1864 C1870 1.379 . S
C1864 N1872 1.356 . S
C1865 C1864 1.363 . S
C1865 C1871 1.363 . S
C1866 C1867 1.363 . S
C1866 C1871 1.379 . S
C1866 N1873 1.356 . S
C1867 C1866 1.363 . S
C1867 C1870 1.363 . S
N1868 C1870 1.356 . S
N1868 H1880 0.984 . S
N1868 H1881 0.985 . S
N1869 C1871 1.356 . S
N1869 H1874 0.984 . S
N1869 H1875 0.985 . S
C1870 C1864 1.379 . S
C1870 C1867 1.363 . S
C1870 N1868 1.356 . S
C1871 C1865 1.363 . S
C1871 C1866 1.379 . S
C1871 N1869 1.356 . S
N1872 C1864 1.356 . S
N1872 H1878 0.984 . S
N1872 H1879 0.984 . S
N1873 C1866 1.356 . S
N1873 H1876 0.984 . S
N1873 H1877 0.985 . S
H1874 N1869 0.984 . S
H1875 N1869 0.985 . S
H1876 N1873 0.984 . S
H1877 N1873 0.985 . S
H1878 N1872 0.984 . S
H1879 N1872 0.984 . S
H1880 N1868 0.984 . S
H1881 N1868 0.985 . S
C1882 C1883 1.363 . S
C1882 C1888 1.379 . S
C1882 N1890 1.356 . S
C1883 C1882 1.363 . S
C1883 C1889 1.363 . S
C1884 C1885 1.363 . S
C1884 C1889 1.379 . S
C1884 N1891 1.356 . S
C1885 C1884 1.363 . S
C1885 C1888 1.363 . S
N1886 C1888 1.356 . S
N1886 H1898 0.984 . S
N1886 H1899 0.985 . S
N1887 C1889 1.356 . S
N1887 H1892 0.984 . S
N1887 H1893 0.985 . S
C1888 C1882 1.379 . S
C1888 C1885 1.363 . S
C1888 N1886 1.356 . S
C1889 C1883 1.363 . S
C1889 C1884 1.379 . S
C1889 N1887 1.356 . S
N1890 C1882 1.356 . S
N1890 H1896 0.984 . S
N1890 H1897 0.984 . S
N1891 C1884 1.356 . S
N1891 H1894 0.984 . S
N1891 H1895 0.985 . S
H1892 N1887 0.984 . S
H1893 N1887 0.985 . S
H1894 N1891 0.984 . S
H1895 N1891 0.985 . S
H1896 N1890 0.984 . S
H1897 N1890 0.984 . S
H1898 N1886 0.984 . S
H1899 N1886 0.985 . S
C1900 C1901 1.363 . S
C1900 C1906 1.379 . S
C1900 N1908 1.356 . S
C1901 C1900 1.363 . S
C1901 C1907 1.363 . S
C1902 C1903 1.363 . S
C1902 C1907 1.379 . S
C1902 N1909 1.356 . S
C1903 C1902 1.363 . S
C1903 C1906 1.363 . S
N1904 C1906 1.356 . S
N1904 H1916 0.984 . S
N1904 H1917 0.985 . S
N1905 C1907 1.356 . S
N1905 H1910 0.984 . S
N1905 H1911 0.985 . S
C1906 C1900 1.379 . S
C1906 C1903 1.363 . S
C1906 N1904 1.356 . S
C1907 C1901 1.363 . S
C1907 C1902 1.379 . S
C1907 N1905 1.356 . S
N1908 C1900 1.356 . S
N1908 H1914 0.984 . S
N1908 H1915 0.984 . S
N1909 C1902 1.356 . S
N1909 H1912 0.984 . S
N1909 H1913 0.985 . S
H1910 N1905 0.984 . S
H1911 N1905 0.985 . S
H1912 N1909 0.984 . S
H1913 N1909 0.985 . S
H1914 N1908 0.984 . S
H1915 N1908 0.984 . S
H1916 N1904 0.984 . S
H1917 N1904 0.985 . S
C1918 C1919 1.363 . S
C1918 C1924 1.379 . S
C1918 N1926 1.339 1_655 S
C1919 C1918 1.363 . S
C1919 C1925 1.363 . S
C1920 C1921 1.363 . S
C1920 C1925 1.379 . S
C1920 N1927 1.356 . S
C1921 C1920 1.363 . S
C1921 C1924 1.363 . S
N1922 C1924 1.356 . S
N1922 H1934 0.984 . S
N1922 H1935 0.985 . S
N1923 C1925 1.356 . S
N1923 H1928 0.984 . S
N1923 H1929 0.985 . S
C1924 C1918 1.379 . S
C1924 C1921 1.363 . S
C1924 N1922 1.356 . S
C1925 C1919 1.363 . S
C1925 C1920 1.379 . S
C1925 N1923 1.356 . S
N1926 C1918 1.339 1_455 S
N1926 H1932 1.010 . S
N1926 H1933 0.978 . S
N1927 C1920 1.356 . S
N1927 H1930 0.984 . S
N1927 H1931 0.985 . S
H1928 N1923 0.984 . S
H1929 N1923 0.985 . S
H1930 N1927 0.984 . S
H1931 N1927 0.985 . S
H1932 N1926 1.010 . S
H1933 N1926 0.978 . S
H1934 N1922 0.984 . S
H1935 N1922 0.985 . S
C1936 C1937 1.363 . S
C1936 C1942 1.379 . S
C1936 N1944 1.356 . S
C1937 C1936 1.363 . S
C1937 C1943 1.363 . S
C1938 C1939 1.363 . S
C1938 C1943 1.379 . S
C1938 N1945 1.356 1_565 S
C1939 C1938 1.363 . S
C1939 C1942 1.363 . S
N1940 C1942 1.356 . S
N1940 H1952 0.984 . S
N1940 H1953 0.985 . S
N1941 C1943 1.356 . S
N1941 H1946 0.984 . S
N1941 H1947 0.985 . S
C1942 C1936 1.379 . S
C1942 C1939 1.363 . S
C1942 N1940 1.356 . S
C1943 C1937 1.363 . S
C1943 C1938 1.379 . S
C1943 N1941 1.356 . S
N1944 C1936 1.356 . S
N1944 H1950 0.984 . S
N1944 H1951 0.984 . S
N1945 C1938 1.356 1_545 S
N1945 H1948 0.984 . S
N1945 H1949 0.985 . S
H1946 N1941 0.984 . S
H1947 N1941 0.985 . S
H1948 N1945 0.984 . S
H1949 N1945 0.985 . S
H1950 N1944 0.984 . S
H1951 N1944 0.984 . S
H1952 N1940 0.984 . S
H1953 N1940 0.985 . S
C1954 C1955 1.363 . S
C1954 C1960 1.379 . S
C1954 N1962 1.356 . S
C1955 C1954 1.363 . S
C1955 C1961 1.363 . S
C1956 C1957 1.363 . S
C1956 C1961 1.379 . S
C1956 N1963 1.356 . S
C1957 C1956 1.363 . S
C1957 C1960 1.363 . S
N1958 C1960 1.356 . S
N1958 H1970 0.984 . S
N1958 H1971 0.985 . S
N1959 C1961 1.356 . S
N1959 H1964 0.984 . S
N1959 H1965 0.985 . S
C1960 C1954 1.379 . S
C1960 C1957 1.363 . S
C1960 N1958 1.356 . S
C1961 C1955 1.363 . S
C1961 C1956 1.379 . S
C1961 N1959 1.356 . S
N1962 C1954 1.356 . S
N1962 H1968 0.984 . S
N1962 H1969 0.984 . S
N1963 C1956 1.356 . S
N1963 H1966 0.984 . S
N1963 H1967 0.985 . S
H1964 N1959 0.984 . S
H1965 N1959 0.985 . S
H1966 N1963 0.984 . S
H1967 N1963 0.985 . S
H1968 N1962 0.984 . S
H1969 N1962 0.984 . S
H1970 N1958 0.984 . S
H1971 N1958 0.985 . S
C1972 C1973 1.363 . S
C1972 C1978 1.379 . S
C1972 N1980 1.356 . S
C1973 C1972 1.363 . S
C1973 C1979 1.363 . S
C1974 C1975 1.363 . S
C1974 C1979 1.379 . S
C1974 N1981 1.356 . S
C1975 C1974 1.363 . S
C1975 C1978 1.363 . S
N1976 C1978 1.356 . S
N1976 H1988 0.984 . S
N1976 H1989 0.985 . S
N1977 C1979 1.356 . S
N1977 H1982 0.984 . S
N1977 H1983 0.985 . S
C1978 C1972 1.379 . S
C1978 C1975 1.363 . S
C1978 N1976 1.356 . S
C1979 C1973 1.363 . S
C1979 C1974 1.379 . S
C1979 N1977 1.356 . S
N1980 C1972 1.356 . S
N1980 H1986 0.984 . S
N1980 H1987 0.984 . S
N1981 C1974 1.356 . S
N1981 H1984 0.984 . S
N1981 H1985 0.985 . S
H1982 N1977 0.984 . S
H1983 N1977 0.985 . S
H1984 N1981 0.984 . S
H1985 N1981 0.985 . S
H1986 N1980 0.984 . S
H1987 N1980 0.984 . S
H1988 N1976 0.984 . S
H1989 N1976 0.985 . S
C1990 C1991 1.363 . S
C1990 C1996 1.379 . S
C1990 N1998 1.356 . S
C1991 C1990 1.363 . S
C1991 C1997 1.363 . S
C1992 C1993 1.363 . S
C1992 C1997 1.379 . S
C1992 N1999 1.356 . S
C1993 C1992 1.363 . S
C1993 C1996 1.363 . S
N1994 C1996 1.356 . S
N1994 H2006 0.984 . S
N1994 H2007 0.985 . S
N1995 C1997 1.356 . S
N1995 H2000 0.984 . S
N1995 H2001 0.985 . S
C1996 C1990 1.379 . S
C1996 C1993 1.363 . S
C1996 N1994 1.356 . S
C1997 C1991 1.363 . S
C1997 C1992 1.379 . S
C1997 N1995 1.356 . S
N1998 C1990 1.356 . S
N1998 H2004 0.984 . S
N1998 H2005 0.984 . S
N1999 C1992 1.356 . S
N1999 H2002 0.984 . S
N1999 H2003 0.985 . S
H2000 N1995 0.984 . S
H2001 N1995 0.985 . S
H2002 N1999 0.984 . S
H2003 N1999 0.985 . S
H2004 N1998 0.984 . S
H2005 N1998 0.984 . S
H2006 N1994 0.984 . S
H2007 N1994 0.985 . S
C2008 C2009 1.363 . S
C2008 C2014 1.379 . S
C2008 N2016 1.356 . S
C2009 C2008 1.363 . S
C2009 C2015 1.363 . S
C2010 C2011 1.363 . S
C2010 C2015 1.379 . S
C2010 N2017 1.356 1_455 S
C2011 C2010 1.363 . S
C2011 C2014 1.363 . S
N2012 C2014 1.356 . S
N2012 H2024 0.984 . S
N2012 H2025 0.985 . S
N2013 C2015 1.356 . S
N2013 H2018 0.984 . S
N2013 H2019 0.985 1_455 S
C2014 C2008 1.379 . S
C2014 C2011 1.363 . S
C2014 N2012 1.356 . S
C2015 C2009 1.363 . S
C2015 C2010 1.379 . S
C2015 N2013 1.356 . S
N2016 C2008 1.356 . S
N2016 H2022 0.984 . S
N2016 H2023 0.984 . S
N2017 C2010 1.356 1_655 S
N2017 H2020 0.984 . S
N2017 H2021 0.985 . S
H2018 N2013 0.984 . S
H2019 N2013 0.985 1_655 S
H2020 N2017 0.984 . S
H2021 N2017 0.985 . S
H2022 N2016 0.984 . S
H2023 N2016 0.984 . S
H2024 N2012 0.984 . S
H2025 N2012 0.985 . S
C2026 C2027 1.363 . S
C2026 C2032 1.379 . S
C2026 N2034 1.356 . S
C2027 C2026 1.363 . S
C2027 C2033 1.363 . S
C2028 C2029 1.363 . S
C2028 C2033 1.379 . S
C2028 N2035 1.356 . S
C2029 C2028 1.363 . S
C2029 C2032 1.363 . S
N2030 C2032 1.356 . S
N2030 H2042 0.984 . S
N2030 H2043 0.985 . S
N2031 C2033 1.356 . S
N2031 H2036 0.984 . S
N2031 H2037 0.985 . S
C2032 C2026 1.379 . S
C2032 C2029 1.363 . S
C2032 N2030 1.356 . S
C2033 C2027 1.363 . S
C2033 C2028 1.379 . S
C2033 N2031 1.356 . S
N2034 C2026 1.356 . S
N2034 H2040 0.984 . S
N2034 H2041 0.984 . S
N2035 C2028 1.356 . S
N2035 H2038 0.984 . S
N2035 H2039 0.985 . S
H2036 N2031 0.984 . S
H2037 N2031 0.985 . S
H2038 N2035 0.984 . S
H2039 N2035 0.985 . S
H2040 N2034 0.984 . S
H2041 N2034 0.984 . S
H2042 N2030 0.984 . S
H2043 N2030 0.985 . S
C2044 C2045 1.363 . S
C2044 C2050 1.379 . S
C2044 N2052 1.356 . S
C2045 C2044 1.363 . S
C2045 C2051 1.363 . S
C2046 C2047 1.382 . S
C2046 C2051 1.397 . S
C2046 N2053 1.321 1_556 S
C2047 C2046 1.382 . S
C2047 C2050 1.363 . S
N2048 C2050 1.356 . S
N2048 H2060 0.984 . S
N2048 H2061 0.985 . S
N2049 C2051 1.356 . S
N2049 H2054 0.984 . S
N2049 H2055 0.985 1_556 S
C2050 C2044 1.379 . S
C2050 C2047 1.363 . S
C2050 N2048 1.356 . S
C2051 C2045 1.363 . S
C2051 C2046 1.397 . S
C2051 N2049 1.356 . S
N2052 C2044 1.356 . S
N2052 H2058 0.984 . S
N2052 H2059 0.984 . S
N2053 C2046 1.321 1_554 S
N2053 H2056 0.984 . S
N2053 H2057 0.985 . S
H2054 N2049 0.984 . S
H2055 N2049 0.985 1_554 S
H2056 N2053 0.984 . S
H2057 N2053 0.985 . S
H2058 N2052 0.984 . S
H2059 N2052 0.984 . S
H2060 N2048 0.984 . S
H2061 N2048 0.985 . S
C2062 C2063 1.363 . S
C2062 C2068 1.379 . S
C2062 N2070 1.356 . S
C2063 C2062 1.363 . S
C2063 C2069 1.363 . S
C2064 C2065 1.363 . S
C2064 C2069 1.379 . S
C2064 N2071 1.356 . S
C2065 C2064 1.363 . S
C2065 C2068 1.363 . S
N2066 C2068 1.356 . S
N2066 H2078 0.984 . S
N2066 H2079 0.985 . S
N2067 C2069 1.356 . S
N2067 H2072 0.984 . S
N2067 H2073 0.985 . S
C2068 C2062 1.379 . S
C2068 C2065 1.363 . S
C2068 N2066 1.356 . S
C2069 C2063 1.363 . S
C2069 C2064 1.379 . S
C2069 N2067 1.356 . S
N2070 C2062 1.356 . S
N2070 H2076 0.984 . S
N2070 H2077 0.984 . S
N2071 C2064 1.356 . S
N2071 H2074 0.984 . S
N2071 H2075 0.985 . S
H2072 N2067 0.984 . S
H2073 N2067 0.985 . S
H2074 N2071 0.984 . S
H2075 N2071 0.985 . S
H2076 N2070 0.984 . S
H2077 N2070 0.984 . S
H2078 N2066 0.984 . S
H2079 N2066 0.985 . S
C2080 C2081 1.363 . S
C2080 C2086 1.379 . S
C2080 N2088 1.356 . S
C2081 C2080 1.363 . S
C2081 C2087 1.363 . S
C2082 C2083 1.363 . S
C2082 C2087 1.379 . S
C2082 N2089 1.356 1_556 S
C2083 C2082 1.363 . S
C2083 C2086 1.363 . S
N2084 C2086 1.356 . S
N2084 H2096 0.984 . S
N2084 H2097 0.985 . S
N2085 C2087 1.356 . S
N2085 H2090 0.984 . S
N2085 H2091 0.985 . S
C2086 C2080 1.379 . S
C2086 C2083 1.363 . S
C2086 N2084 1.356 . S
C2087 C2081 1.363 . S
C2087 C2082 1.379 . S
C2087 N2085 1.356 . S
N2088 C2080 1.356 . S
N2088 H2094 0.984 . S
N2088 H2095 0.984 . S
N2089 C2082 1.356 1_554 S
N2089 H2092 0.984 . S
N2089 H2093 0.985 . S
H2090 N2085 0.984 . S
H2091 N2085 0.985 . S
H2092 N2089 0.984 . S
H2093 N2089 0.985 . S
H2094 N2088 0.984 . S
H2095 N2088 0.984 . S
H2096 N2084 0.984 . S
H2097 N2084 0.985 . S
C2098 C2099 1.363 . S
C2098 C2104 1.379 . S
C2098 N2106 1.356 . S
C2099 C2098 1.363 . S
C2099 C2105 1.363 . S
C2100 C2101 1.363 . S
C2100 C2105 1.379 . S
C2100 N2107 1.356 . S
C2101 C2100 1.363 . S
C2101 C2104 1.363 . S
N2102 C2104 1.356 . S
N2102 H2114 0.984 . S
N2102 H2115 0.985 . S
N2103 C2105 1.356 . S
N2103 H2108 0.984 . S
N2103 H2109 0.985 . S
C2104 C2098 1.379 . S
C2104 C2101 1.363 . S
C2104 N2102 1.356 . S
C2105 C2099 1.363 . S
C2105 C2100 1.379 . S
C2105 N2103 1.356 . S
N2106 C2098 1.356 . S
N2106 H2112 0.984 . S
N2106 H2113 0.984 . S
N2107 C2100 1.356 . S
N2107 H2110 0.984 . S
N2107 H2111 0.985 . S
H2108 N2103 0.984 . S
H2109 N2103 0.985 . S
H2110 N2107 0.984 . S
H2111 N2107 0.985 . S
H2112 N2106 0.984 . S
H2113 N2106 0.984 . S
H2114 N2102 0.984 . S
H2115 N2102 0.985 . S
C2116 C2117 1.363 . S
C2116 C2122 1.379 . S
C2116 N2124 1.356 . S
C2117 C2116 1.363 . S
C2117 C2123 1.363 . S
C2118 C2119 1.363 . S
C2118 C2123 1.379 . S
C2118 N2125 1.356 . S
C2119 C2118 1.363 . S
C2119 C2122 1.363 . S
N2120 C2122 1.356 . S
N2120 H2132 0.984 . S
N2120 H2133 0.985 . S
N2121 C2123 1.356 . S
N2121 H2126 0.984 . S
N2121 H2127 0.985 . S
C2122 C2116 1.379 . S
C2122 C2119 1.363 . S
C2122 N2120 1.356 . S
C2123 C2117 1.363 . S
C2123 C2118 1.379 . S
C2123 N2121 1.356 . S
N2124 C2116 1.356 . S
N2124 H2130 0.984 . S
N2124 H2131 0.984 . S
N2125 C2118 1.356 . S
N2125 H2128 0.984 . S
N2125 H2129 0.985 . S
H2126 N2121 0.984 . S
H2127 N2121 0.985 . S
H2128 N2125 0.984 . S
H2129 N2125 0.985 . S
H2130 N2124 0.984 . S
H2131 N2124 0.984 . S
H2132 N2120 0.984 . S
H2133 N2120 0.985 . S
C2134 C2135 1.363 . S
C2134 C2140 1.379 . S
C2134 N2142 1.356 . S
C2135 C2134 1.363 . S
C2135 C2141 1.363 . S
C2136 C2137 1.363 . S
C2136 C2141 1.379 . S
C2136 N2143 1.356 . S
C2137 C2136 1.363 . S
C2137 C2140 1.363 . S
N2138 C2140 1.356 . S
N2138 H2150 0.984 . S
N2138 H2151 0.985 . S
N2139 C2141 1.356 . S
N2139 H2144 0.984 . S
N2139 H2145 0.985 . S
C2140 C2134 1.379 . S
C2140 C2137 1.363 . S
C2140 N2138 1.356 . S
C2141 C2135 1.363 . S
C2141 C2136 1.379 . S
C2141 N2139 1.356 . S
N2142 C2134 1.356 . S
N2142 H2148 0.984 . S
N2142 H2149 0.984 . S
N2143 C2136 1.356 . S
N2143 H2146 0.984 . S
N2143 H2147 0.985 . S
H2144 N2139 0.984 . S
H2145 N2139 0.985 . S
H2146 N2143 0.984 . S
H2147 N2143 0.985 . S
H2148 N2142 0.984 . S
H2149 N2142 0.984 . S
H2150 N2138 0.984 . S
H2151 N2138 0.985 . S
C2152 C2153 1.363 . S
C2152 C2158 1.379 . S
C2152 N2160 1.356 . S
C2153 C2152 1.363 . S
C2153 C2159 1.363 . S
C2154 C2155 1.363 . S
C2154 C2159 1.379 . S
C2154 N2161 1.356 . S
C2155 C2154 1.363 . S
C2155 C2158 1.363 . S
N2156 C2158 1.356 . S
N2156 H2168 0.984 . S
N2156 H2169 0.985 . S
N2157 C2159 1.356 . S
N2157 H2162 0.984 . S
N2157 H2163 0.985 . S
C2158 C2152 1.379 . S
C2158 C2155 1.363 . S
C2158 N2156 1.356 . S
C2159 C2153 1.363 . S
C2159 C2154 1.379 . S
C2159 N2157 1.356 . S
N2160 C2152 1.356 . S
N2160 H2166 0.984 . S
N2160 H2167 0.984 . S
N2161 C2154 1.356 . S
N2161 H2164 0.984 . S
N2161 H2165 0.985 . S
H2162 N2157 0.984 . S
H2163 N2157 0.985 . S
H2164 N2161 0.984 . S
H2165 N2161 0.985 . S
H2166 N2160 0.984 . S
H2167 N2160 0.984 . S
H2168 N2156 0.984 . S
H2169 N2156 0.985 . S
C2170 C2171 1.363 . S
C2170 C2176 1.379 . S
C2170 N2178 1.356 . S
C2171 C2170 1.363 . S
C2171 C2177 1.363 . S
C2172 C2173 1.363 . S
C2172 C2177 1.379 . S
C2172 N2179 1.356 . S
C2173 C2172 1.363 . S
C2173 C2176 1.363 . S
N2174 C2176 1.356 . S
N2174 H2186 0.984 . S
N2174 H2187 0.985 . S
N2175 C2177 1.356 . S
N2175 H2180 0.984 . S
N2175 H2181 0.985 . S
C2176 C2170 1.379 . S
C2176 C2173 1.363 . S
C2176 N2174 1.356 . S
C2177 C2171 1.363 . S
C2177 C2172 1.379 . S
C2177 N2175 1.356 . S
N2178 C2170 1.356 . S
N2178 H2184 0.984 . S
N2178 H2185 0.984 . S
N2179 C2172 1.356 . S
N2179 H2182 0.984 . S
N2179 H2183 0.985 . S
H2180 N2175 0.984 . S
H2181 N2175 0.985 . S
H2182 N2179 0.984 . S
H2183 N2179 0.985 . S
H2184 N2178 0.984 . S
H2185 N2178 0.984 . S
H2186 N2174 0.984 . S
H2187 N2174 0.985 . S
C2188 C2189 1.363 . S
C2188 C2194 1.379 . S
C2188 N2196 1.356 . S
C2189 C2188 1.363 . S
C2189 C2195 1.363 . S
C2190 C2191 1.363 . S
C2190 C2195 1.379 . S
C2190 N2197 1.356 . S
C2191 C2190 1.363 . S
C2191 C2194 1.363 . S
N2192 C2194 1.356 . S
N2192 H2204 0.984 . S
N2192 H2205 0.985 1_545 S
N2193 C2195 1.356 . S
N2193 H2198 0.984 . S
N2193 H2199 0.985 . S
C2194 C2188 1.379 . S
C2194 C2191 1.363 . S
C2194 N2192 1.356 . S
C2195 C2189 1.363 . S
C2195 C2190 1.379 . S
C2195 N2193 1.356 . S
N2196 C2188 1.356 . S
N2196 H2202 0.984 . S
N2196 H2203 0.984 . S
N2197 C2190 1.356 . S
N2197 H2200 0.984 . S
N2197 H2201 0.985 . S
H2198 N2193 0.984 . S
H2199 N2193 0.985 . S
H2200 N2197 0.984 . S
H2201 N2197 0.985 . S
H2202 N2196 0.984 . S
H2203 N2196 0.984 . S
H2204 N2192 0.984 . S
H2205 N2192 0.985 1_565 S
C2206 C2207 1.363 . S
C2206 C2212 1.379 . S
C2206 N2214 1.356 . S
C2207 C2206 1.363 . S
C2207 C2213 1.363 . S
C2208 C2209 1.363 . S
C2208 C2213 1.379 . S
C2208 N2215 1.356 . S
C2209 C2208 1.363 . S
C2209 C2212 1.363 . S
N2210 C2212 1.356 . S
N2210 H2222 0.984 . S
N2210 H2223 0.985 . S
N2211 C2213 1.356 . S
N2211 H2216 0.984 . S
N2211 H2217 0.985 . S
C2212 C2206 1.379 . S
C2212 C2209 1.363 . S
C2212 N2210 1.356 . S
C2213 C2207 1.363 . S
C2213 C2208 1.379 . S
C2213 N2211 1.356 . S
N2214 C2206 1.356 . S
N2214 H2220 0.984 . S
N2214 H2221 0.984 . S
N2215 C2208 1.356 . S
N2215 H2218 0.984 . S
N2215 H2219 0.985 . S
H2216 N2211 0.984 . S
H2217 N2211 0.985 . S
H2218 N2215 0.984 . S
H2219 N2215 0.985 . S
H2220 N2214 0.984 . S
H2221 N2214 0.984 . S
H2222 N2210 0.984 . S
H2223 N2210 0.985 . S
C2224 C2225 1.363 . S
C2224 C2230 1.379 . S
C2224 N2232 1.356 . S
C2225 C2224 1.363 . S
C2225 C2231 1.362 1_556 S
C2226 C2227 1.363 . S
C2226 C2231 1.377 1_556 S
C2226 N2233 1.356 . S
C2227 C2226 1.363 . S
C2227 C2230 1.363 . S
N2228 C2230 1.356 . S
N2228 H2240 0.984 . S
N2228 H2241 0.985 . S
N2229 C2231 1.359 . S
N2229 H2234 0.984 . S
N2229 H2235 0.985 . S
C2230 C2224 1.379 . S
C2230 C2227 1.363 . S
C2230 N2228 1.356 . S
C2231 C2225 1.362 1_554 S
C2231 C2226 1.377 1_554 S
C2231 N2229 1.359 . S
N2232 C2224 1.356 . S
N2232 H2238 0.984 . S
N2232 H2239 0.984 . S
N2233 C2226 1.356 . S
N2233 H2236 0.984 . S
N2233 H2237 0.985 1_556 S
H2234 N2229 0.984 . S
H2235 N2229 0.985 . S
H2236 N2233 0.984 . S
H2237 N2233 0.985 1_554 S
H2238 N2232 0.984 . S
H2239 N2232 0.984 . S
H2240 N2228 0.984 . S
H2241 N2228 0.985 . S
C2242 C2243 1.363 . S
C2242 C2248 1.379 . S
C2242 N2250 1.356 . S
C2243 C2242 1.363 . S
C2243 C2249 1.363 . S
C2244 C2245 1.363 . S
C2244 C2249 1.379 . S
C2244 N2251 1.356 . S
C2245 C2244 1.363 . S
C2245 C2248 1.363 . S
N2246 C2248 1.356 . S
N2246 H2258 0.984 . S
N2246 H2259 0.985 . S
N2247 C2249 1.356 . S
N2247 H2252 0.984 . S
N2247 H2253 0.985 . S
C2248 C2242 1.379 . S
C2248 C2245 1.363 . S
C2248 N2246 1.356 . S
C2249 C2243 1.363 . S
C2249 C2244 1.379 . S
C2249 N2247 1.356 . S
N2250 C2242 1.356 . S
N2250 H2256 0.984 . S
N2250 H2257 0.984 . S
N2251 C2244 1.356 . S
N2251 H2254 0.984 . S
N2251 H2255 0.985 . S
H2252 N2247 0.984 . S
H2253 N2247 0.985 . S
H2254 N2251 0.984 . S
H2255 N2251 0.985 . S
H2256 N2250 0.984 . S
H2257 N2250 0.984 . S
H2258 N2246 0.984 . S
H2259 N2246 0.985 . S
C2260 C2261 1.363 . S
C2260 C2266 1.379 . S
C2260 N2268 1.356 . S
C2261 C2260 1.363 . S
C2261 C2267 1.363 . S
C2262 C2263 1.363 . S
C2262 C2267 1.379 . S
C2262 N2269 1.356 . S
C2263 C2262 1.363 . S
C2263 C2266 1.363 . S
N2264 C2266 1.356 . S
N2264 H2276 0.984 . S
N2264 H2277 0.985 . S
N2265 C2267 1.356 . S
N2265 H2270 0.984 . S
N2265 H2271 0.985 . S
C2266 C2260 1.379 . S
C2266 C2263 1.363 . S
C2266 N2264 1.356 . S
C2267 C2261 1.363 . S
C2267 C2262 1.379 . S
C2267 N2265 1.356 . S
N2268 C2260 1.356 . S
N2268 H2274 0.984 . S
N2268 H2275 0.984 . S
N2269 C2262 1.356 . S
N2269 H2272 0.984 . S
N2269 H2273 0.985 . S
H2270 N2265 0.984 . S
H2271 N2265 0.985 . S
H2272 N2269 0.984 . S
H2273 N2269 0.985 . S
H2274 N2268 0.984 . S
H2275 N2268 0.984 . S
H2276 N2264 0.984 . S
H2277 N2264 0.985 . S
C2278 C2279 1.363 . S
C2278 C2284 1.379 . S
C2278 N2286 1.356 . S
C2279 C2278 1.363 . S
C2279 C2285 1.363 . S
C2280 C2281 1.363 . S
C2280 C2285 1.379 . S
C2280 N2287 1.356 . S
C2281 C2280 1.363 . S
C2281 C2284 1.363 . S
N2282 C2284 1.356 . S
N2282 H2294 0.984 . S
N2282 H2295 0.985 . S
N2283 C2285 1.356 . S
N2283 H2288 0.984 . S
N2283 H2289 0.985 . S
C2284 C2278 1.379 . S
C2284 C2281 1.363 . S
C2284 N2282 1.356 . S
C2285 C2279 1.363 . S
C2285 C2280 1.379 . S
C2285 N2283 1.356 . S
N2286 C2278 1.356 . S
N2286 H2292 0.984 . S
N2286 H2293 0.984 . S
N2287 C2280 1.356 . S
N2287 H2290 0.984 . S
N2287 H2291 0.985 . S
H2288 N2283 0.984 . S
H2289 N2283 0.985 . S
H2290 N2287 0.984 . S
H2291 N2287 0.985 . S
H2292 N2286 0.984 . S
H2293 N2286 0.984 . S
H2294 N2282 0.984 . S
H2295 N2282 0.985 . S
C2296 C2297 1.363 . S
C2296 C2302 1.379 . S
C2296 N2304 1.356 . S
C2297 C2296 1.363 . S
C2297 C2303 1.363 . S
C2298 C2299 1.363 . S
C2298 C2303 1.379 . S
C2298 N2305 1.362 . S
C2299 C2298 1.363 . S
C2299 C2302 1.363 . S
N2300 C2302 1.356 . S
N2300 H2312 0.984 . S
N2300 H2313 0.985 . S
N2301 C2303 1.356 1_545 S
N2301 H2306 0.984 1_545 S
N2301 H2307 0.985 . S
C2302 C2296 1.379 . S
C2302 C2299 1.363 . S
C2302 N2300 1.356 . S
C2303 C2297 1.363 . S
C2303 C2298 1.379 . S
C2303 N2301 1.356 1_565 S
N2304 C2296 1.356 . S
N2304 H2310 0.984 . S
N2304 H2311 0.984 . S
N2305 C2298 1.362 . S
N2305 H2308 0.992 . S
N2305 H2309 0.971 1_565 S
H2306 N2301 0.984 1_565 S
H2307 N2301 0.985 . S
H2308 N2305 0.992 . S
H2309 N2305 0.971 1_545 S
H2310 N2304 0.984 . S
H2311 N2304 0.984 . S
H2312 N2300 0.984 . S
H2313 N2300 0.985 . S
C2314 C2315 1.363 . S
C2314 C2320 1.379 . S
C2314 N2322 1.356 . S
C2315 C2314 1.363 . S
C2315 C2321 1.363 . S
C2316 C2317 1.363 . S
C2316 C2321 1.379 1_545 S
C2316 N2323 1.356 . S
C2317 C2316 1.363 . S
C2317 C2320 1.363 1_545 S
N2318 C2320 1.356 . S
N2318 H2330 0.984 . S
N2318 H2331 0.985 . S
N2319 C2321 1.356 . S
N2319 H2324 0.984 . S
N2319 H2325 0.985 1_565 S
C2320 C2314 1.379 . S
C2320 C2317 1.363 1_565 S
C2320 N2318 1.356 . S
C2321 C2315 1.363 . S
C2321 C2316 1.379 1_565 S
C2321 N2319 1.356 . S
N2322 C2314 1.356 . S
N2322 H2328 0.984 . S
N2322 H2329 0.984 . S
N2323 C2316 1.356 . S
N2323 H2326 0.984 . S
N2323 H2327 0.985 . S
H2324 N2319 0.984 . S
H2325 N2319 0.985 1_545 S
H2326 N2323 0.984 . S
H2327 N2323 0.985 . S
H2328 N2322 0.984 . S
H2329 N2322 0.984 . S
H2330 N2318 0.984 . S
H2331 N2318 0.985 . S
C2332 C2333 1.363 . S
C2332 C2338 1.379 . S
C2332 N2340 1.356 . S
C2333 C2332 1.363 . S
C2333 C2339 1.363 . S
C2334 C2335 1.363 . S
C2334 C2339 1.379 . S
C2334 N2341 1.356 . S
C2335 C2334 1.363 . S
C2335 C2338 1.363 . S
N2336 C2338 1.356 . S
N2336 H2348 0.984 . S
N2336 H2349 0.985 . S
N2337 C2339 1.356 . S
N2337 H2342 0.984 . S
N2337 H2343 0.985 . S
C2338 C2332 1.379 . S
C2338 C2335 1.363 . S
C2338 N2336 1.356 . S
C2339 C2333 1.363 . S
C2339 C2334 1.379 . S
C2339 N2337 1.356 . S
N2340 C2332 1.356 . S
N2340 H2346 0.984 . S
N2340 H2347 0.984 . S
N2341 C2334 1.356 . S
N2341 H2344 0.984 . S
N2341 H2345 0.985 . S
H2342 N2337 0.984 . S
H2343 N2337 0.985 . S
H2344 N2341 0.984 . S
H2345 N2341 0.985 . S
H2346 N2340 0.984 . S
H2347 N2340 0.984 . S
H2348 N2336 0.984 . S
H2349 N2336 0.985 . S
C2350 C2351 1.363 . S
C2350 C2356 1.379 . S
C2350 N2358 1.356 . S
C2351 C2350 1.363 . S
C2351 C2357 1.363 . S
C2352 C2353 1.363 . S
C2352 C2357 1.379 . S
C2352 N2359 1.356 . S
C2353 C2352 1.363 . S
C2353 C2356 1.363 . S
N2354 C2356 1.356 . S
N2354 H2366 0.984 . S
N2354 H2367 0.985 . S
N2355 C2357 1.356 . S
N2355 H2360 0.984 . S
N2355 H2361 0.985 . S
C2356 C2350 1.379 . S
C2356 C2353 1.363 . S
C2356 N2354 1.356 . S
C2357 C2351 1.363 . S
C2357 C2352 1.379 . S
C2357 N2355 1.356 . S
N2358 C2350 1.356 . S
N2358 H2364 0.984 . S
N2358 H2365 0.984 . S
N2359 C2352 1.356 . S
N2359 H2362 0.984 . S
N2359 H2363 0.985 . S
H2360 N2355 0.984 . S
H2361 N2355 0.985 . S
H2362 N2359 0.984 . S
H2363 N2359 0.985 . S
H2364 N2358 0.984 . S
H2365 N2358 0.984 . S
H2366 N2354 0.984 . S
H2367 N2354 0.985 . S
C2368 C2369 1.363 . S
C2368 C2374 1.379 . S
C2368 N2376 1.356 . S
C2369 C2368 1.363 . S
C2369 C2375 1.363 . S
C2370 C2371 1.363 . S
C2370 C2375 1.379 . S
C2370 N2377 1.356 . S
C2371 C2370 1.363 . S
C2371 C2374 1.363 . S
N2372 C2374 1.356 . S
N2372 H2384 0.984 . S
N2372 H2385 0.985 . S
N2373 C2375 1.356 . S
N2373 H2378 0.984 . S
N2373 H2379 0.985 . S
C2374 C2368 1.379 . S
C2374 C2371 1.363 . S
C2374 N2372 1.356 . S
C2375 C2369 1.363 . S
C2375 C2370 1.379 . S
C2375 N2373 1.356 . S
N2376 C2368 1.356 . S
N2376 H2382 0.984 . S
N2376 H2383 0.984 . S
N2377 C2370 1.356 . S
N2377 H2380 0.984 . S
N2377 H2381 0.985 . S
H2378 N2373 0.984 . S
H2379 N2373 0.985 . S
H2380 N2377 0.984 . S
H2381 N2377 0.985 . S
H2382 N2376 0.984 . S
H2383 N2376 0.984 . S
H2384 N2372 0.984 . S
H2385 N2372 0.985 . S
C2386 C2387 1.363 . S
C2386 C2392 1.379 . S
C2386 N2394 1.356 . S
C2387 C2386 1.363 . S
C2387 C2393 1.363 . S
C2388 C2389 1.363 . S
C2388 C2393 1.379 . S
C2388 N2395 1.356 . S
C2389 C2388 1.363 . S
C2389 C2392 1.363 . S
N2390 C2392 1.356 . S
N2390 H2402 0.984 . S
N2390 H2403 0.985 . S
N2391 C2393 1.356 . S
N2391 H2396 0.984 . S
N2391 H2397 0.985 . S
C2392 C2386 1.379 . S
C2392 C2389 1.363 . S
C2392 N2390 1.356 . S
C2393 C2387 1.363 . S
C2393 C2388 1.379 . S
C2393 N2391 1.356 . S
N2394 C2386 1.356 . S
N2394 H2400 0.984 . S
N2394 H2401 0.984 . S
N2395 C2388 1.356 . S
N2395 H2398 0.984 . S
N2395 H2399 0.985 . S
H2396 N2391 0.984 . S
H2397 N2391 0.985 . S
H2398 N2395 0.984 . S
H2399 N2395 0.985 . S
H2400 N2394 0.984 . S
H2401 N2394 0.984 . S
H2402 N2390 0.984 . S
H2403 N2390 0.985 . S
C2404 C2405 1.363 1_655 S
C2404 C2410 1.379 1_655 S
C2404 N2412 1.356 . S
C2405 C2404 1.363 1_455 S
C2405 C2411 1.363 . S
C2406 C2407 1.363 . S
C2406 C2411 1.379 . S
C2406 N2413 1.356 . S
C2407 C2406 1.363 . S
C2407 C2410 1.363 . S
N2408 C2410 1.356 1_655 S
N2408 H2420 0.984 . S
N2408 H2421 0.985 1_655 S
N2409 C2411 1.356 . S
N2409 H2414 0.984 . S
N2409 H2415 0.985 . S
C2410 C2404 1.379 1_455 S
C2410 C2407 1.363 . S
C2410 N2408 1.356 1_455 S
C2411 C2405 1.363 . S
C2411 C2406 1.379 . S
C2411 N2409 1.356 . S
N2412 C2404 1.356 . S
N2412 H2418 0.984 . S
N2412 H2419 0.984 . S
N2413 C2406 1.356 . S
N2413 H2416 0.984 . S
N2413 H2417 0.985 . S
H2414 N2409 0.984 . S
H2415 N2409 0.985 . S
H2416 N2413 0.984 . S
H2417 N2413 0.985 . S
H2418 N2412 0.984 . S
H2419 N2412 0.984 . S
H2420 N2408 0.984 . S
H2421 N2408 0.985 1_455 S
C2422 C2423 1.363 . S
C2422 C2428 1.379 . S
C2422 N2430 1.356 . S
C2423 C2422 1.363 . S
C2423 C2429 1.363 . S
C2424 C2425 1.357 1_455 S
C2424 C2429 1.379 . S
C2424 N2431 1.356 1_455 S
C2425 C2424 1.357 1_655 S
C2425 C2428 1.346 1_655 S
N2426 C2428 1.356 . S
N2426 H2438 0.984 . S
N2426 H2439 0.985 1_455 S
N2427 C2429 1.356 . S
N2427 H2432 0.984 . S
N2427 H2433 0.985 . S
C2428 C2422 1.379 . S
C2428 C2425 1.346 1_455 S
C2428 N2426 1.356 . S
C2429 C2423 1.363 . S
C2429 C2424 1.379 . S
C2429 N2427 1.356 . S
N2430 C2422 1.356 . S
N2430 H2436 0.984 . S
N2430 H2437 0.984 . S
N2431 C2424 1.356 1_655 S
N2431 H2434 0.984 . S
N2431 H2435 0.985 . S
H2432 N2427 0.984 . S
H2433 N2427 0.985 . S
H2434 N2431 0.984 . S
H2435 N2431 0.985 . S
H2436 N2430 0.984 . S
H2437 N2430 0.984 . S
H2438 N2426 0.984 . S
H2439 N2426 0.985 1_655 S
C2440 C2441 1.363 . S
C2440 C2446 1.379 . S
C2440 N2448 1.356 . S
C2441 C2440 1.363 . S
C2441 C2447 1.363 . S
C2442 C2443 1.363 . S
C2442 C2447 1.379 . S
C2442 N2449 1.356 . S
C2443 C2442 1.363 . S
C2443 C2446 1.363 . S
N2444 C2446 1.356 . S
N2444 H2456 0.984 . S
N2444 H2457 0.985 . S
N2445 C2447 1.356 . S
N2445 H2450 0.984 . S
N2445 H2451 0.985 . S
C2446 C2440 1.379 . S
C2446 C2443 1.363 . S
C2446 N2444 1.356 . S
C2447 C2441 1.363 . S
C2447 C2442 1.379 . S
C2447 N2445 1.356 . S
N2448 C2440 1.356 . S
N2448 H2454 0.984 . S
N2448 H2455 0.984 . S
N2449 C2442 1.356 . S
N2449 H2452 0.984 . S
N2449 H2453 0.985 . S
H2450 N2445 0.984 . S
H2451 N2445 0.985 . S
H2452 N2449 0.984 . S
H2453 N2449 0.985 . S
H2454 N2448 0.984 . S
H2455 N2448 0.984 . S
H2456 N2444 0.984 . S
H2457 N2444 0.985 . S
C2458 C2459 1.363 . S
C2458 C2464 1.379 . S
C2458 N2466 1.356 . S
C2459 C2458 1.363 . S
C2459 C2465 1.363 . S
C2460 C2461 1.363 . S
C2460 C2465 1.379 . S
C2460 N2467 1.356 . S
C2461 C2460 1.363 . S
C2461 C2464 1.363 . S
N2462 C2464 1.356 . S
N2462 H2474 0.984 . S
N2462 H2475 0.985 . S
N2463 C2465 1.356 . S
N2463 H2468 1.003 . S
N2463 H2469 0.985 . S
C2464 C2458 1.379 . S
C2464 C2461 1.363 . S
C2464 N2462 1.356 . S
C2465 C2459 1.363 . S
C2465 C2460 1.379 . S
C2465 N2463 1.356 . S
N2466 C2458 1.356 . S
N2466 H2472 0.984 . S
N2466 H2473 0.984 . S
N2467 C2460 1.356 . S
N2467 H2470 0.984 . S
N2467 H2471 0.985 . S
H2468 N2463 1.003 . S
H2469 N2463 0.985 . S
H2470 N2467 0.984 . S
H2471 N2467 0.985 . S
H2472 N2466 0.984 . S
H2473 N2466 0.984 . S
H2474 N2462 0.984 . S
H2475 N2462 0.985 . S
C2476 C2477 1.363 . S
C2476 C2482 1.379 . S
C2476 N2484 1.350 1_455 S
C2477 C2476 1.363 . S
C2477 C2483 1.363 . S
C2478 C2479 1.363 . S
C2478 C2483 1.379 . S
C2478 N2485 1.356 . S
C2479 C2478 1.363 . S
C2479 C2482 1.363 . S
N2480 C2482 1.367 . S
N2480 H2492 0.958 1_455 S
N2480 H2493 1.001 . S
N2481 C2483 1.356 . S
N2481 H2486 0.984 . S
N2481 H2487 0.985 . S
C2482 C2476 1.379 . S
C2482 C2479 1.363 . S
C2482 N2480 1.367 . S
C2483 C2477 1.363 . S
C2483 C2478 1.379 . S
C2483 N2481 1.356 . S
N2484 C2476 1.350 1_655 S
N2484 H2490 0.991 . S
N2484 H2491 0.985 1_655 S
N2485 C2478 1.356 . S
N2485 H2488 0.984 . S
N2485 H2489 0.985 . S
H2486 N2481 0.984 . S
H2487 N2481 0.985 . S
H2488 N2485 0.984 . S
H2489 N2485 0.985 . S
H2490 N2484 0.991 . S
H2491 N2484 0.985 1_455 S
H2492 N2480 0.958 1_655 S
H2493 N2480 1.001 . S
C2494 C2495 1.363 . S
C2494 C2500 1.379 . S
C2494 N2502 1.356 . S
C2495 C2494 1.363 . S
C2495 C2501 1.363 . S
C2496 C2497 1.363 . S
C2496 C2501 1.379 . S
C2496 N2503 1.356 . S
C2497 C2496 1.363 . S
C2497 C2500 1.363 . S
N2498 C2500 1.356 . S
N2498 H2510 0.984 . S
N2498 H2511 0.985 . S
N2499 C2501 1.356 . S
N2499 H2504 0.984 . S
N2499 H2505 0.985 . S
C2500 C2494 1.379 . S
C2500 C2497 1.363 . S
C2500 N2498 1.356 . S
C2501 C2495 1.363 . S
C2501 C2496 1.379 . S
C2501 N2499 1.356 . S
N2502 C2494 1.356 . S
N2502 H2508 0.984 . S
N2502 H2509 0.984 . S
N2503 C2496 1.356 . S
N2503 H2506 0.984 . S
N2503 H2507 0.985 . S
H2504 N2499 0.984 . S
H2505 N2499 0.985 . S
H2506 N2503 0.984 . S
H2507 N2503 0.985 . S
H2508 N2502 0.984 . S
H2509 N2502 0.984 . S
H2510 N2498 0.984 . S
H2511 N2498 0.985 . S
C2512 C2513 1.363 . S
C2512 C2518 1.379 . S
C2512 N2520 1.356 . S
C2513 C2512 1.363 . S
C2513 C2519 1.363 . S
C2514 C2515 1.363 . S
C2514 C2519 1.379 . S
C2514 N2521 1.356 . S
C2515 C2514 1.363 . S
C2515 C2518 1.363 . S
N2516 C2518 1.356 . S
N2516 H2528 0.984 . S
N2516 H2529 0.985 . S
N2517 C2519 1.356 . S
N2517 H2522 0.984 . S
N2517 H2523 0.985 . S
C2518 C2512 1.379 . S
C2518 C2515 1.363 . S
C2518 N2516 1.356 . S
C2519 C2513 1.363 . S
C2519 C2514 1.379 . S
C2519 N2517 1.356 . S
N2520 C2512 1.356 . S
N2520 H2526 0.984 . S
N2520 H2527 0.984 . S
N2521 C2514 1.356 . S
N2521 H2524 0.984 . S
N2521 H2525 0.985 . S
H2522 N2517 0.984 . S
H2523 N2517 0.985 . S
H2524 N2521 0.984 . S
H2525 N2521 0.985 . S
H2526 N2520 0.984 . S
H2527 N2520 0.984 . S
H2528 N2516 0.984 . S
H2529 N2516 0.985 . S
C2530 C2531 1.363 . S
C2530 C2536 1.379 . S
C2530 N2538 1.356 . S
C2531 C2530 1.363 . S
C2531 C2537 1.363 . S
C2532 C2533 1.363 . S
C2532 C2537 1.379 . S
C2532 N2539 1.356 . S
C2533 C2532 1.363 . S
C2533 C2536 1.363 . S
N2534 C2536 1.356 . S
N2534 H2546 0.984 . S
N2534 H2547 0.985 . S
N2535 C2537 1.356 . S
N2535 H2540 0.984 . S
N2535 H2541 0.985 . S
C2536 C2530 1.379 . S
C2536 C2533 1.363 . S
C2536 N2534 1.356 . S
C2537 C2531 1.363 . S
C2537 C2532 1.379 . S
C2537 N2535 1.356 . S
N2538 C2530 1.356 . S
N2538 H2544 0.984 . S
N2538 H2545 0.984 . S
N2539 C2532 1.356 . S
N2539 H2542 0.984 . S
N2539 H2543 0.985 . S
H2540 N2535 0.984 . S
H2541 N2535 0.985 . S
H2542 N2539 0.984 . S
H2543 N2539 0.985 . S
H2544 N2538 0.984 . S
H2545 N2538 0.984 . S
H2546 N2534 0.984 . S
H2547 N2534 0.985 . S
C2548 C2549 1.363 . S
C2548 C2554 1.379 . S
C2548 N2556 1.356 . S
C2549 C2548 1.363 . S
C2549 C2555 1.363 . S
C2550 C2551 1.363 . S
C2550 C2555 1.379 . S
C2550 N2557 1.356 . S
C2551 C2550 1.363 . S
C2551 C2554 1.363 . S
N2552 C2554 1.356 . S
N2552 H2564 0.984 . S
N2552 H2565 0.985 . S
N2553 C2555 1.356 . S
N2553 H2558 0.984 . S
N2553 H2559 0.985 . S
C2554 C2548 1.379 . S
C2554 C2551 1.363 . S
C2554 N2552 1.356 . S
C2555 C2549 1.363 . S
C2555 C2550 1.379 . S
C2555 N2553 1.356 . S
N2556 C2548 1.356 . S
N2556 H2562 0.984 . S
N2556 H2563 0.984 . S
N2557 C2550 1.356 . S
N2557 H2560 0.984 . S
N2557 H2561 0.985 . S
H2558 N2553 0.984 . S
H2559 N2553 0.985 . S
H2560 N2557 0.984 . S
H2561 N2557 0.985 . S
H2562 N2556 0.984 . S
H2563 N2556 0.984 . S
H2564 N2552 0.984 . S
H2565 N2552 0.985 . S
C2566 C2567 1.363 . S
C2566 C2572 1.379 . S
C2566 N2574 1.356 . S
C2567 C2566 1.363 . S
C2567 C2573 1.363 . S
C2568 C2569 1.363 . S
C2568 C2573 1.379 . S
C2568 N2575 1.356 . S
C2569 C2568 1.363 . S
C2569 C2572 1.363 . S
N2570 C2572 1.356 . S
N2570 H2582 0.984 . S
N2570 H2583 0.985 . S
N2571 C2573 1.356 . S
N2571 H2576 0.984 . S
N2571 H2577 0.985 . S
C2572 C2566 1.379 . S
C2572 C2569 1.363 . S
C2572 N2570 1.356 . S
C2573 C2567 1.363 . S
C2573 C2568 1.379 . S
C2573 N2571 1.356 . S
N2574 C2566 1.356 . S
N2574 H2580 0.984 . S
N2574 H2581 0.984 . S
N2575 C2568 1.356 . S
N2575 H2578 0.984 . S
N2575 H2579 0.985 . S
H2576 N2571 0.984 . S
H2577 N2571 0.985 . S
H2578 N2575 0.984 . S
H2579 N2575 0.985 . S
H2580 N2574 0.984 . S
H2581 N2574 0.984 . S
H2582 N2570 0.984 . S
H2583 N2570 0.985 . S
C2584 C2585 1.363 . S
C2584 C2590 1.379 . S
C2584 N2592 1.356 . S
C2585 C2584 1.363 . S
C2585 C2591 1.363 . S
C2586 C2587 1.363 . S
C2586 C2591 1.379 . S
C2586 N2593 1.356 . S
C2587 C2586 1.363 . S
C2587 C2590 1.363 . S
N2588 C2590 1.356 . S
N2588 H2600 0.984 . S
N2588 H2601 0.985 . S
N2589 C2591 1.356 . S
N2589 H2594 0.984 . S
N2589 H2595 0.985 . S
C2590 C2584 1.379 . S
C2590 C2587 1.363 . S
C2590 N2588 1.356 . S
C2591 C2585 1.363 . S
C2591 C2586 1.379 . S
C2591 N2589 1.356 . S
N2592 C2584 1.356 . S
N2592 H2598 0.984 . S
N2592 H2599 0.984 . S
N2593 C2586 1.356 . S
N2593 H2596 0.984 . S
N2593 H2597 0.985 . S
H2594 N2589 0.984 . S
H2595 N2589 0.985 . S
H2596 N2593 0.984 . S
H2597 N2593 0.985 . S
H2598 N2592 0.984 . S
H2599 N2592 0.984 . S
H2600 N2588 0.984 . S
H2601 N2588 0.985 . S
C2602 C2603 1.363 . S
C2602 C2608 1.379 . S
C2602 N2610 1.356 . S
C2603 C2602 1.363 . S
C2603 C2609 1.363 . S
C2604 C2605 1.363 . S
C2604 C2609 1.379 . S
C2604 N2611 1.356 . S
C2605 C2604 1.363 . S
C2605 C2608 1.363 . S
N2606 C2608 1.356 . S
N2606 H2618 0.984 . S
N2606 H2619 0.985 . S
N2607 C2609 1.356 . S
N2607 H2612 0.984 . S
N2607 H2613 0.985 . S
C2608 C2602 1.379 . S
C2608 C2605 1.363 . S
C2608 N2606 1.356 . S
C2609 C2603 1.363 . S
C2609 C2604 1.379 . S
C2609 N2607 1.356 . S
N2610 C2602 1.356 . S
N2610 H2616 0.984 . S
N2610 H2617 0.984 . S
N2611 C2604 1.356 . S
N2611 H2614 0.984 . S
N2611 H2615 0.985 . S
H2612 N2607 0.984 . S
H2613 N2607 0.985 . S
H2614 N2611 0.984 . S
H2615 N2611 0.985 . S
H2616 N2610 0.984 . S
H2617 N2610 0.984 . S
H2618 N2606 0.984 . S
H2619 N2606 0.985 . S
C2620 C2621 1.363 . S
C2620 C2626 1.379 . S
C2620 N2628 1.356 . S
C2621 C2620 1.363 . S
C2621 C2627 1.363 . S
C2622 C2623 1.363 . S
C2622 C2627 1.379 . S
C2622 N2629 1.356 . S
C2623 C2622 1.363 . S
C2623 C2626 1.363 . S
N2624 C2626 1.356 . S
N2624 H2636 0.984 . S
N2624 H2637 0.985 . S
N2625 C2627 1.356 . S
N2625 H2630 0.984 . S
N2625 H2631 0.985 1_455 S
C2626 C2620 1.379 . S
C2626 C2623 1.363 . S
C2626 N2624 1.356 . S
C2627 C2621 1.363 . S
C2627 C2622 1.379 . S
C2627 N2625 1.356 . S
N2628 C2620 1.356 . S
N2628 H2634 0.984 . S
N2628 H2635 0.984 . S
N2629 C2622 1.356 . S
N2629 H2632 0.984 . S
N2629 H2633 0.985 . S
H2630 N2625 0.984 . S
H2631 N2625 0.985 1_655 S
H2632 N2629 0.984 . S
H2633 N2629 0.985 . S
H2634 N2628 0.984 . S
H2635 N2628 0.984 . S
H2636 N2624 0.984 . S
H2637 N2624 0.985 . S
C2638 C2639 1.363 . S
C2638 C2644 1.379 . S
C2638 N2646 1.356 . S
C2639 C2638 1.363 . S
C2639 C2645 1.363 . S
C2640 C2641 1.363 . S
C2640 C2645 1.379 . S
C2640 N2647 1.356 . S
C2641 C2640 1.363 . S
C2641 C2644 1.363 . S
N2642 C2644 1.356 . S
N2642 H2654 0.984 . S
N2642 H2655 0.985 . S
N2643 C2645 1.356 . S
N2643 H2648 0.984 . S
N2643 H2649 0.985 . S
C2644 C2638 1.379 . S
C2644 C2641 1.363 . S
C2644 N2642 1.356 . S
C2645 C2639 1.363 . S
C2645 C2640 1.379 . S
C2645 N2643 1.356 . S
N2646 C2638 1.356 . S
N2646 H2652 0.984 . S
N2646 H2653 0.984 . S
N2647 C2640 1.356 . S
N2647 H2650 0.984 . S
N2647 H2651 0.985 . S
H2648 N2643 0.984 . S
H2649 N2643 0.985 . S
H2650 N2647 0.984 . S
H2651 N2647 0.985 . S
H2652 N2646 0.984 . S
H2653 N2646 0.984 . S
H2654 N2642 0.984 . S
H2655 N2642 0.985 . S
C2656 C2657 1.363 . S
C2656 C2662 1.379 . S
C2656 N2664 1.356 . S
C2657 C2656 1.363 . S
C2657 C2663 1.363 . S
C2658 C2659 1.363 . S
C2658 C2663 1.379 . S
C2658 N2665 1.356 . S
C2659 C2658 1.363 . S
C2659 C2662 1.363 . S
N2660 C2662 1.356 . S
N2660 H2672 0.984 . S
N2660 H2673 0.985 . S
N2661 C2663 1.356 . S
N2661 H2666 0.984 . S
N2661 H2667 0.985 . S
C2662 C2656 1.379 . S
C2662 C2659 1.363 . S
C2662 N2660 1.356 . S
C2663 C2657 1.363 . S
C2663 C2658 1.379 . S
C2663 N2661 1.356 . S
N2664 C2656 1.356 . S
N2664 H2670 0.984 . S
N2664 H2671 0.984 . S
N2665 C2658 1.356 . S
N2665 H2668 0.984 . S
N2665 H2669 0.985 . S
H2666 N2661 0.984 . S
H2667 N2661 0.985 . S
H2668 N2665 0.984 . S
H2669 N2665 0.985 . S
H2670 N2664 0.984 . S
H2671 N2664 0.984 . S
H2672 N2660 0.984 . S
H2673 N2660 0.985 . S
C2674 C2675 1.363 . S
C2674 C2680 1.379 . S
C2674 N2682 1.356 . S
C2675 C2674 1.363 . S
C2675 C2681 1.363 . S
C2676 C2677 1.363 . S
C2676 C2681 1.379 . S
C2676 N2683 1.356 . S
C2677 C2676 1.363 . S
C2677 C2680 1.363 . S
N2678 C2680 1.356 . S
N2678 H2690 0.984 . S
N2678 H2691 0.985 . S
N2679 C2681 1.356 . S
N2679 H2684 0.984 . S
N2679 H2685 0.985 . S
C2680 C2674 1.379 . S
C2680 C2677 1.363 . S
C2680 N2678 1.356 . S
C2681 C2675 1.363 . S
C2681 C2676 1.379 . S
C2681 N2679 1.356 . S
N2682 C2674 1.356 . S
N2682 H2688 0.984 . S
N2682 H2689 0.984 . S
N2683 C2676 1.356 . S
N2683 H2686 0.984 . S
N2683 H2687 0.985 . S
H2684 N2679 0.984 . S
H2685 N2679 0.985 . S
H2686 N2683 0.984 . S
H2687 N2683 0.985 . S
H2688 N2682 0.984 . S
H2689 N2682 0.984 . S
H2690 N2678 0.984 . S
H2691 N2678 0.985 . S
C2692 C2693 1.363 . S
C2692 C2698 1.379 . S
C2692 N2700 1.356 . S
C2693 C2692 1.363 . S
C2693 C2699 1.363 . S
C2694 C2695 1.363 . S
C2694 C2699 1.379 1_565 S
C2694 N2701 1.356 . S
C2695 C2694 1.363 . S
C2695 C2698 1.363 1_565 S
N2696 C2698 1.356 . S
N2696 H2708 0.984 . S
N2696 H2709 0.985 . S
N2697 C2699 1.356 . S
N2697 H2702 0.984 . S
N2697 H2703 0.985 1_545 S
C2698 C2692 1.379 . S
C2698 C2695 1.363 1_545 S
C2698 N2696 1.356 . S
C2699 C2693 1.363 . S
C2699 C2694 1.379 1_545 S
C2699 N2697 1.356 . S
N2700 C2692 1.356 . S
N2700 H2706 0.984 . S
N2700 H2707 0.984 . S
N2701 C2694 1.356 . S
N2701 H2704 0.984 . S
N2701 H2705 0.985 . S
H2702 N2697 0.984 . S
H2703 N2697 0.985 1_565 S
H2704 N2701 0.984 . S
H2705 N2701 0.985 . S
H2706 N2700 0.984 . S
H2707 N2700 0.984 . S
H2708 N2696 0.984 . S
H2709 N2696 0.985 . S
C2710 C2711 1.363 . S
C2710 C2716 1.363 1_565 S
C2710 N2718 1.356 . S
C2711 C2710 1.363 . S
C2711 C2717 1.363 . S
C2712 C2713 1.363 1_565 S
C2712 C2717 1.379 . S
C2712 N2719 1.356 . S
C2713 C2712 1.363 1_545 S
C2713 C2716 1.364 . S
N2714 C2716 1.375 . S
N2714 H2726 0.984 . S
N2714 H2727 0.985 . S
N2715 C2717 1.356 . S
N2715 H2720 0.984 . S
N2715 H2721 0.985 . S
C2716 C2710 1.363 1_545 S
C2716 C2713 1.364 . S
C2716 N2714 1.375 . S
C2717 C2711 1.363 . S
C2717 C2712 1.379 . S
C2717 N2715 1.356 . S
N2718 C2710 1.356 . S
N2718 H2724 0.984 . S
N2718 H2725 0.984 . S
N2719 C2712 1.356 . S
N2719 H2722 0.984 1_565 S
N2719 H2723 0.985 1_554 S
H2720 N2715 0.984 . S
H2721 N2715 0.985 . S
H2722 N2719 0.984 1_545 S
H2723 N2719 0.985 1_556 S
H2724 N2718 0.984 . S
H2725 N2718 0.984 . S
H2726 N2714 0.984 . S
H2727 N2714 0.985 . S
C2728 C2729 1.363 . S
C2728 C2734 1.379 . S
C2728 N2736 1.356 . S
C2729 C2728 1.363 . S
C2729 C2735 1.363 . S
C2730 C2731 1.363 . S
C2730 C2735 1.379 . S
C2730 N2737 1.356 . S
C2731 C2730 1.363 . S
C2731 C2734 1.363 . S
N2732 C2734 1.356 . S
N2732 H2744 0.984 . S
N2732 H2745 0.985 . S
N2733 C2735 1.356 . S
N2733 H2738 0.984 . S
N2733 H2739 0.985 . S
C2734 C2728 1.379 . S
C2734 C2731 1.363 . S
C2734 N2732 1.356 . S
C2735 C2729 1.363 . S
C2735 C2730 1.379 . S
C2735 N2733 1.356 . S
N2736 C2728 1.356 . S
N2736 H2742 0.984 . S
N2736 H2743 0.984 . S
N2737 C2730 1.356 . S
N2737 H2740 0.984 . S
N2737 H2741 0.985 . S
H2738 N2733 0.984 . S
H2739 N2733 0.985 . S
H2740 N2737 0.984 . S
H2741 N2737 0.985 . S
H2742 N2736 0.984 . S
H2743 N2736 0.984 . S
H2744 N2732 0.984 . S
H2745 N2732 0.985 . S
C2746 C2747 1.363 . S
C2746 C2752 1.379 . S
C2746 N2754 1.356 . S
C2747 C2746 1.363 . S
C2747 C2753 1.363 . S
C2748 C2749 1.363 . S
C2748 C2753 1.379 . S
C2748 N2755 1.356 1_554 S
C2749 C2748 1.363 . S
C2749 C2752 1.363 . S
N2750 C2752 1.356 . S
N2750 H2762 0.984 . S
N2750 H2763 0.985 1_655 S
N2751 C2753 1.356 1_556 S
N2751 H2756 0.984 . S
N2751 H2757 0.985 . S
C2752 C2746 1.379 . S
C2752 C2749 1.363 . S
C2752 N2750 1.356 . S
C2753 C2747 1.363 . S
C2753 C2748 1.379 . S
C2753 N2751 1.356 1_554 S
N2754 C2746 1.356 . S
N2754 H2760 0.984 . S
N2754 H2761 0.984 . S
N2755 C2748 1.356 1_556 S
N2755 H2758 0.988 . S
N2755 H2759 0.985 . S
H2756 N2751 0.984 . S
H2757 N2751 0.985 . S
H2758 N2755 0.988 . S
H2759 N2755 0.985 . S
H2760 N2754 0.984 . S
H2761 N2754 0.984 . S
H2762 N2750 0.984 . S
H2763 N2750 0.985 1_455 S
C2764 C2765 1.363 . S
C2764 C2770 1.379 . S
C2764 N2772 1.356 . S
C2765 C2764 1.363 . S
C2765 C2771 1.363 . S
C2766 C2767 1.363 . S
C2766 C2771 1.379 . S
C2766 N2773 1.356 . S
C2767 C2766 1.363 . S
C2767 C2770 1.363 . S
N2768 C2770 1.356 . S
N2768 H2780 0.984 . S
N2768 H2781 0.985 . S
N2769 C2771 1.356 . S
N2769 H2774 0.984 . S
N2769 H2775 0.985 . S
C2770 C2764 1.379 . S
C2770 C2767 1.363 . S
C2770 N2768 1.356 . S
C2771 C2765 1.363 . S
C2771 C2766 1.379 . S
C2771 N2769 1.356 . S
N2772 C2764 1.356 . S
N2772 H2778 0.984 . S
N2772 H2779 0.984 . S
N2773 C2766 1.356 . S
N2773 H2776 0.984 . S
N2773 H2777 0.985 . S
H2774 N2769 0.984 . S
H2775 N2769 0.985 . S
H2776 N2773 0.984 . S
H2777 N2773 0.985 . S
H2778 N2772 0.984 . S
H2779 N2772 0.984 . S
H2780 N2768 0.984 . S
H2781 N2768 0.985 . S
C2782 C2783 1.363 . S
C2782 C2788 1.379 . S
C2782 N2790 1.356 . S
C2783 C2782 1.363 . S
C2783 C2789 1.363 . S
C2784 C2785 1.363 . S
C2784 C2789 1.379 1_565 S
C2784 N2791 1.356 . S
C2785 C2784 1.363 . S
C2785 C2788 1.363 1_565 S
N2786 C2788 1.356 . S
N2786 H2798 0.984 . S
N2786 H2799 0.985 1_545 S
N2787 C2789 1.356 . S
N2787 H2792 0.984 . S
N2787 H2793 0.985 1_545 S
C2788 C2782 1.379 . S
C2788 C2785 1.363 1_545 S
C2788 N2786 1.356 . S
C2789 C2783 1.363 . S
C2789 C2784 1.379 1_545 S
C2789 N2787 1.356 . S
N2790 C2782 1.356 . S
N2790 H2796 0.984 . S
N2790 H2797 0.984 . S
N2791 C2784 1.356 . S
N2791 H2794 0.984 . S
N2791 H2795 0.985 . S
H2792 N2787 0.984 . S
H2793 N2787 0.985 1_565 S
H2794 N2791 0.984 . S
H2795 N2791 0.985 . S
H2796 N2790 0.984 . S
H2797 N2790 0.984 . S
H2798 N2786 0.984 . S
H2799 N2786 0.985 1_565 S
C2800 C2801 1.363 . S
C2800 C2806 1.379 . S
C2800 N2808 1.356 . S
C2801 C2800 1.363 . S
C2801 C2807 1.363 . S
C2802 C2803 1.363 . S
C2802 C2807 1.379 . S
C2802 N2809 1.356 . S
C2803 C2802 1.363 . S
C2803 C2806 1.363 . S
N2804 C2806 1.356 . S
N2804 H2816 0.984 . S
N2804 H2817 0.985 . S
N2805 C2807 1.356 . S
N2805 H2810 0.984 . S
N2805 H2811 0.985 . S
C2806 C2800 1.379 . S
C2806 C2803 1.363 . S
C2806 N2804 1.356 . S
C2807 C2801 1.363 . S
C2807 C2802 1.379 . S
C2807 N2805 1.356 . S
N2808 C2800 1.356 . S
N2808 H2814 0.984 . S
N2808 H2815 0.984 . S
N2809 C2802 1.356 . S
N2809 H2812 0.984 . S
N2809 H2813 0.985 . S
H2810 N2805 0.984 . S
H2811 N2805 0.985 . S
H2812 N2809 0.984 . S
H2813 N2809 0.985 . S
H2814 N2808 0.984 . S
H2815 N2808 0.984 . S
H2816 N2804 0.984 . S
H2817 N2804 0.985 . S
C2818 C2819 1.363 . S
C2818 C2824 1.379 . S
C2818 N2826 1.356 . S
C2819 C2818 1.363 . S
C2819 C2825 1.363 . S
C2820 C2821 1.363 . S
C2820 C2825 1.379 . S
C2820 N2827 1.356 . S
C2821 C2820 1.363 . S
C2821 C2824 1.363 . S
N2822 C2824 1.356 . S
N2822 H2834 0.984 . S
N2822 H2835 0.985 . S
N2823 C2825 1.356 . S
N2823 H2828 0.984 . S
N2823 H2829 0.985 . S
C2824 C2818 1.379 . S
C2824 C2821 1.363 . S
C2824 N2822 1.356 . S
C2825 C2819 1.363 . S
C2825 C2820 1.379 . S
C2825 N2823 1.356 . S
N2826 C2818 1.356 . S
N2826 H2832 0.984 . S
N2826 H2833 0.984 . S
N2827 C2820 1.356 . S
N2827 H2830 0.984 . S
N2827 H2831 0.985 . S
H2828 N2823 0.984 . S
H2829 N2823 0.985 . S
H2830 N2827 0.984 . S
H2831 N2827 0.985 . S
H2832 N2826 0.984 . S
H2833 N2826 0.984 . S
H2834 N2822 0.984 . S
H2835 N2822 0.985 . S
C2836 C2837 1.363 . S
C2836 C2842 1.379 . S
C2836 N2844 1.356 . S
C2837 C2836 1.363 . S
C2837 C2843 1.363 . S
C2838 C2839 1.363 . S
C2838 C2843 1.379 . S
C2838 N2845 1.356 . S
C2839 C2838 1.363 . S
C2839 C2842 1.363 . S
N2840 C2842 1.356 . S
N2840 H2852 0.984 . S
N2840 H2853 0.985 . S
N2841 C2843 1.356 . S
N2841 H2846 0.984 . S
N2841 H2847 0.985 . S
C2842 C2836 1.379 . S
C2842 C2839 1.363 . S
C2842 N2840 1.356 . S
C2843 C2837 1.363 . S
C2843 C2838 1.379 . S
C2843 N2841 1.356 . S
N2844 C2836 1.356 . S
N2844 H2850 0.984 . S
N2844 H2851 0.984 . S
N2845 C2838 1.356 . S
N2845 H2848 0.984 . S
N2845 H2849 0.985 . S
H2846 N2841 0.984 . S
H2847 N2841 0.985 . S
H2848 N2845 0.984 . S
H2849 N2845 0.985 . S
H2850 N2844 0.984 . S
H2851 N2844 0.984 . S
H2852 N2840 0.984 . S
H2853 N2840 0.985 . S
C2854 C2855 1.363 . S
C2854 C2860 1.379 . S
C2854 N2862 1.356 . S
C2855 C2854 1.363 . S
C2855 C2861 1.363 . S
C2856 C2857 1.363 . S
C2856 C2861 1.379 . S
C2856 N2863 1.356 . S
C2857 C2856 1.363 . S
C2857 C2860 1.363 . S
N2858 C2860 1.356 . S
N2858 H2870 0.984 . S
N2858 H2871 0.985 . S
N2859 C2861 1.356 . S
N2859 H2864 0.984 . S
N2859 H2865 0.985 . S
C2860 C2854 1.379 . S
C2860 C2857 1.363 . S
C2860 N2858 1.356 . S
C2861 C2855 1.363 . S
C2861 C2856 1.379 . S
C2861 N2859 1.356 . S
N2862 C2854 1.356 . S
N2862 H2868 0.984 . S
N2862 H2869 0.984 . S
N2863 C2856 1.356 . S
N2863 H2866 0.984 . S
N2863 H2867 0.985 . S
H2864 N2859 0.984 . S
H2865 N2859 0.985 . S
H2866 N2863 0.984 . S
H2867 N2863 0.985 . S
H2868 N2862 0.984 . S
H2869 N2862 0.984 . S
H2870 N2858 0.984 . S
H2871 N2858 0.985 . S
C2872 C2873 1.363 . S
C2872 C2878 1.379 . S
C2872 N2880 1.356 . S
C2873 C2872 1.363 . S
C2873 C2879 1.363 . S
C2874 C2875 1.363 . S
C2874 C2879 1.379 . S
C2874 N2881 1.356 1_556 S
C2875 C2874 1.363 . S
C2875 C2878 1.363 . S
N2876 C2878 1.356 . S
N2876 H2888 0.984 . S
N2876 H2889 0.985 . S
N2877 C2879 1.356 . S
N2877 H2882 0.984 . S
N2877 H2883 0.989 . S
C2878 C2872 1.379 . S
C2878 C2875 1.363 . S
C2878 N2876 1.356 . S
C2879 C2873 1.363 . S
C2879 C2874 1.379 . S
C2879 N2877 1.356 . S
N2880 C2872 1.356 . S
N2880 H2886 0.984 . S
N2880 H2887 0.984 . S
N2881 C2874 1.356 1_554 S
N2881 H2884 0.984 . S
N2881 H2885 0.985 . S
H2882 N2877 0.984 . S
H2883 N2877 0.989 . S
H2884 N2881 0.984 . S
H2885 N2881 0.985 . S
H2886 N2880 0.984 . S
H2887 N2880 0.984 . S
H2888 N2876 0.984 . S
H2889 N2876 0.985 . S
C2890 C2891 1.363 . S
C2890 C2896 1.379 . S
C2890 N2898 1.356 . S
C2891 C2890 1.363 . S
C2891 C2897 1.363 . S
C2892 C2893 1.363 . S
C2892 C2897 1.379 . S
C2892 N2899 1.356 . S
C2893 C2892 1.363 . S
C2893 C2896 1.363 . S
N2894 C2896 1.356 . S
N2894 H2906 0.984 . S
N2894 H2907 0.985 . S
N2895 C2897 1.356 . S
N2895 H2900 0.984 . S
N2895 H2901 0.985 . S
C2896 C2890 1.379 . S
C2896 C2893 1.363 . S
C2896 N2894 1.356 . S
C2897 C2891 1.363 . S
C2897 C2892 1.379 . S
C2897 N2895 1.356 . S
N2898 C2890 1.356 . S
N2898 H2904 0.984 . S
N2898 H2905 0.984 . S
N2899 C2892 1.356 . S
N2899 H2902 0.984 . S
N2899 H2903 0.985 . S
H2900 N2895 0.984 . S
H2901 N2895 0.985 . S
H2902 N2899 0.984 . S
H2903 N2899 0.985 . S
H2904 N2898 0.984 . S
H2905 N2898 0.984 . S
H2906 N2894 0.984 . S
H2907 N2894 0.985 . S
C2908 C2909 1.363 . S
C2908 C2914 1.379 . S
C2908 N2916 1.356 . S
C2909 C2908 1.363 . S
C2909 C2915 1.363 . S
C2910 C2911 1.363 . S
C2910 C2915 1.379 . S
C2910 N2917 1.356 . S
C2911 C2910 1.363 . S
C2911 C2914 1.363 . S
N2912 C2914 1.356 . S
N2912 H2924 0.984 . S
N2912 H2925 0.985 . S
N2913 C2915 1.356 . S
N2913 H2918 0.984 . S
N2913 H2919 0.985 . S
C2914 C2908 1.379 . S
C2914 C2911 1.363 . S
C2914 N2912 1.356 . S
C2915 C2909 1.363 . S
C2915 C2910 1.379 . S
C2915 N2913 1.356 . S
N2916 C2908 1.356 . S
N2916 H2922 0.984 . S
N2916 H2923 0.984 . S
N2917 C2910 1.356 . S
N2917 H2920 0.984 . S
N2917 H2921 0.985 . S
H2918 N2913 0.984 . S
H2919 N2913 0.985 . S
H2920 N2917 0.984 . S
H2921 N2917 0.985 . S
H2922 N2916 0.984 . S
H2923 N2916 0.984 . S
H2924 N2912 0.984 . S
H2925 N2912 0.985 . S
C2926 C2927 1.363 . S
C2926 C2932 1.379 . S
C2926 N2934 1.356 . S
C2927 C2926 1.363 . S
C2927 C2933 1.363 . S
C2928 C2929 1.363 . S
C2928 C2933 1.379 . S
C2928 N2935 1.356 . S
C2929 C2928 1.363 . S
C2929 C2932 1.363 . S
N2930 C2932 1.356 . S
N2930 H2942 0.984 . S
N2930 H2943 0.985 . S
N2931 C2933 1.356 . S
N2931 H2936 0.984 . S
N2931 H2937 0.985 . S
C2932 C2926 1.379 . S
C2932 C2929 1.363 . S
C2932 N2930 1.356 . S
C2933 C2927 1.363 . S
C2933 C2928 1.379 . S
C2933 N2931 1.356 . S
N2934 C2926 1.356 . S
N2934 H2940 0.984 . S
N2934 H2941 0.984 . S
N2935 C2928 1.356 . S
N2935 H2938 0.984 . S
N2935 H2939 0.985 . S
H2936 N2931 0.984 . S
H2937 N2931 0.985 . S
H2938 N2935 0.984 . S
H2939 N2935 0.985 . S
H2940 N2934 0.984 . S
H2941 N2934 0.984 . S
H2942 N2930 0.984 . S
H2943 N2930 0.985 . S
C2944 C2945 1.363 . S
C2944 C2950 1.379 . S
C2944 N2952 1.356 . S
C2945 C2944 1.363 . S
C2945 C2951 1.363 . S
C2946 C2947 1.363 . S
C2946 C2951 1.379 . S
C2946 N2953 1.356 . S
C2947 C2946 1.363 . S
C2947 C2950 1.363 . S
N2948 C2950 1.356 . S
N2948 H2960 0.984 . S
N2948 H2961 0.985 . S
N2949 C2951 1.356 . S
N2949 H2954 0.984 . S
N2949 H2955 0.985 . S
C2950 C2944 1.379 . S
C2950 C2947 1.363 . S
C2950 N2948 1.356 . S
C2951 C2945 1.363 . S
C2951 C2946 1.379 . S
C2951 N2949 1.356 . S
N2952 C2944 1.356 . S
N2952 H2958 0.984 . S
N2952 H2959 0.984 . S
N2953 C2946 1.356 . S
N2953 H2956 0.984 . S
N2953 H2957 0.985 . S
H2954 N2949 0.984 . S
H2955 N2949 0.985 . S
H2956 N2953 0.984 . S
H2957 N2953 0.985 . S
H2958 N2952 0.984 . S
H2959 N2952 0.984 . S
H2960 N2948 0.984 . S
H2961 N2948 0.985 . S
C2962 C2963 1.363 . S
C2962 C2968 1.379 . S
C2962 N2970 1.356 . S
C2963 C2962 1.363 . S
C2963 C2969 1.363 . S
C2964 C2965 1.363 . S
C2964 C2969 1.379 . S
C2964 N2971 1.356 . S
C2965 C2964 1.363 . S
C2965 C2968 1.363 . S
N2966 C2968 1.356 . S
N2966 H2978 0.984 . S
N2966 H2979 0.985 . S
N2967 C2969 1.356 . S
N2967 H2972 0.984 . S
N2967 H2973 0.985 . S
C2968 C2962 1.379 . S
C2968 C2965 1.363 . S
C2968 N2966 1.356 . S
C2969 C2963 1.363 . S
C2969 C2964 1.379 . S
C2969 N2967 1.356 . S
N2970 C2962 1.356 . S
N2970 H2976 0.984 . S
N2970 H2977 0.984 . S
N2971 C2964 1.356 . S
N2971 H2974 0.984 . S
N2971 H2975 0.985 . S
H2972 N2967 0.984 . S
H2973 N2967 0.985 . S
H2974 N2971 0.984 . S
H2975 N2971 0.985 . S
H2976 N2970 0.984 . S
H2977 N2970 0.984 . S
H2978 N2966 0.984 . S
H2979 N2966 0.985 . S
C2980 C2981 1.363 . S
C2980 C2986 1.379 . S
C2980 N2988 1.356 1_455 S
C2981 C2980 1.363 . S
C2981 C2987 1.363 . S
C2982 C2983 1.363 . S
C2982 C2987 1.379 . S
C2982 N2989 1.356 . S
C2983 C2982 1.363 . S
C2983 C2986 1.363 . S
N2984 C2986 1.356 . S
N2984 H2996 0.984 1_455 S
N2984 H2997 0.985 . S
N2985 C2987 1.356 . S
N2985 H2990 0.984 . S
N2985 H2991 0.985 . S
C2986 C2980 1.379 . S
C2986 C2983 1.363 . S
C2986 N2984 1.356 . S
C2987 C2981 1.363 . S
C2987 C2982 1.379 . S
C2987 N2985 1.356 . S
N2988 C2980 1.356 1_655 S
N2988 H2994 0.984 . S
N2988 H2995 0.984 . S
N2989 C2982 1.356 . S
N2989 H2992 0.984 . S
N2989 H2993 0.985 . S
H2990 N2985 0.984 . S
H2991 N2985 0.985 . S
H2992 N2989 0.984 . S
H2993 N2989 0.985 . S
H2994 N2988 0.984 . S
H2995 N2988 0.984 . S
H2996 N2984 0.984 1_655 S
H2997 N2984 0.985 . S
C2998 C2999 1.363 . S
C2998 C3004 1.379 . S
C2998 N3006 1.356 . S
C2999 C2998 1.363 . S
C2999 C3005 1.363 . S
C3000 C3001 1.363 . S
C3000 C3005 1.379 . S
C3000 N3007 1.356 . S
C3001 C3000 1.363 . S
C3001 C3004 1.363 . S
N3002 C3004 1.356 . S
N3002 H3014 0.984 . S
N3002 H3015 0.985 . S
N3003 C3005 1.356 . S
N3003 H3008 0.984 . S
N3003 H3009 0.985 . S
C3004 C2998 1.379 . S
C3004 C3001 1.363 . S
C3004 N3002 1.356 . S
C3005 C2999 1.363 . S
C3005 C3000 1.379 . S
C3005 N3003 1.356 . S
N3006 C2998 1.356 . S
N3006 H3012 0.984 . S
N3006 H3013 0.984 . S
N3007 C3000 1.356 . S
N3007 H3010 0.984 . S
N3007 H3011 0.985 . S
H3008 N3003 0.984 . S
H3009 N3003 0.985 . S
H3010 N3007 0.984 . S
H3011 N3007 0.985 . S
H3012 N3006 0.984 . S
H3013 N3006 0.984 . S
H3014 N3002 0.984 . S
H3015 N3002 0.985 . S
C3016 C3017 1.363 . S
C3016 C3022 1.379 . S
C3016 N3024 1.356 . S
C3017 C3016 1.363 . S
C3017 C3023 1.363 . S
C3018 C3019 1.363 . S
C3018 C3023 1.379 . S
C3018 N3025 1.356 . S
C3019 C3018 1.363 . S
C3019 C3022 1.363 . S
N3020 C3022 1.356 . S
N3020 H3032 0.984 . S
N3020 H3033 0.985 . S
N3021 C3023 1.356 . S
N3021 H3026 0.984 . S
N3021 H3027 0.985 . S
C3022 C3016 1.379 . S
C3022 C3019 1.363 . S
C3022 N3020 1.356 . S
C3023 C3017 1.363 . S
C3023 C3018 1.379 . S
C3023 N3021 1.356 . S
N3024 C3016 1.356 . S
N3024 H3030 0.984 . S
N3024 H3031 0.984 . S
N3025 C3018 1.356 . S
N3025 H3028 0.984 . S
N3025 H3029 0.985 . S
H3026 N3021 0.984 . S
H3027 N3021 0.985 . S
H3028 N3025 0.984 . S
H3029 N3025 0.985 . S
H3030 N3024 0.984 . S
H3031 N3024 0.984 . S
H3032 N3020 0.984 . S
H3033 N3020 0.985 . S
C3034 C3035 1.363 . S
C3034 C3040 1.379 . S
C3034 N3042 1.356 . S
C3035 C3034 1.363 . S
C3035 C3041 1.363 . S
C3036 C3037 1.363 . S
C3036 C3041 1.379 . S
C3036 N3043 1.356 . S
C3037 C3036 1.363 . S
C3037 C3040 1.363 . S
N3038 C3040 1.356 . S
N3038 H3050 0.984 . S
N3038 H3051 0.985 . S
N3039 C3041 1.356 . S
N3039 H3044 0.984 . S
N3039 H3045 0.985 . S
C3040 C3034 1.379 . S
C3040 C3037 1.363 . S
C3040 N3038 1.356 . S
C3041 C3035 1.363 . S
C3041 C3036 1.379 . S
C3041 N3039 1.356 . S
N3042 C3034 1.356 . S
N3042 H3048 0.984 . S
N3042 H3049 0.984 . S
N3043 C3036 1.356 . S
N3043 H3046 0.984 . S
N3043 H3047 0.985 . S
H3044 N3039 0.984 . S
H3045 N3039 0.985 . S
H3046 N3043 0.984 . S
H3047 N3043 0.985 . S
H3048 N3042 0.984 . S
H3049 N3042 0.984 . S
H3050 N3038 0.984 . S
H3051 N3038 0.985 . S
C3052 C3053 1.363 . S
C3052 C3058 1.379 . S
C3052 N3060 1.356 1_455 S
C3053 C3052 1.363 . S
C3053 C3059 1.363 . S
C3054 C3055 1.363 . S
C3054 C3059 1.379 . S
C3054 N3061 1.356 . S
C3055 C3054 1.363 . S
C3055 C3058 1.363 . S
N3056 C3058 1.356 1_655 S
N3056 H3068 0.984 . S
N3056 H3069 0.985 . S
N3057 C3059 1.356 . S
N3057 H3062 0.984 . S
N3057 H3063 0.985 . S
C3058 C3052 1.379 . S
C3058 C3055 1.363 . S
C3058 N3056 1.356 1_455 S
C3059 C3053 1.363 . S
C3059 C3054 1.379 . S
C3059 N3057 1.356 . S
N3060 C3052 1.356 1_655 S
N3060 H3066 0.984 . S
N3060 H3067 0.984 1_655 S
N3061 C3054 1.356 . S
N3061 H3064 0.984 . S
N3061 H3065 0.985 . S
H3062 N3057 0.984 . S
H3063 N3057 0.985 . S
H3064 N3061 0.984 . S
H3065 N3061 0.985 . S
H3066 N3060 0.984 . S
H3067 N3060 0.984 1_455 S
H3068 N3056 0.984 . S
H3069 N3056 0.985 . S
C3070 C3071 1.363 . S
C3070 C3076 1.379 . S
C3070 N3078 1.356 . S
C3071 C3070 1.363 . S
C3071 C3077 1.363 . S
C3072 C3073 1.363 . S
C3072 C3077 1.379 . S
C3072 N3079 1.356 . S
C3073 C3072 1.363 . S
C3073 C3076 1.363 . S
N3074 C3076 1.356 . S
N3074 H3086 0.984 . S
N3074 H3087 0.985 . S
N3075 C3077 1.356 . S
N3075 H3080 0.984 . S
N3075 H3081 0.985 . S
C3076 C3070 1.379 . S
C3076 C3073 1.363 . S
C3076 N3074 1.356 . S
C3077 C3071 1.363 . S
C3077 C3072 1.379 . S
C3077 N3075 1.356 . S
N3078 C3070 1.356 . S
N3078 H3084 0.984 . S
N3078 H3085 0.984 . S
N3079 C3072 1.356 . S
N3079 H3082 0.984 . S
N3079 H3083 0.985 . S
H3080 N3075 0.984 . S
H3081 N3075 0.985 . S
H3082 N3079 0.984 . S
H3083 N3079 0.985 . S
H3084 N3078 0.984 . S
H3085 N3078 0.984 . S
H3086 N3074 0.984 . S
H3087 N3074 0.985 . S
C3088 C3089 1.363 . S
C3088 C3094 1.379 . S
C3088 N3096 1.356 . S
C3089 C3088 1.363 . S
C3089 C3095 1.363 . S
C3090 C3091 1.363 . S
C3090 C3095 1.379 . S
C3090 N3097 1.356 . S
C3091 C3090 1.363 . S
C3091 C3094 1.363 . S
N3092 C3094 1.356 . S
N3092 H3104 0.984 . S
N3092 H3105 0.985 . S
N3093 C3095 1.356 . S
N3093 H3098 0.984 . S
N3093 H3099 0.985 . S
C3094 C3088 1.379 . S
C3094 C3091 1.363 . S
C3094 N3092 1.356 . S
C3095 C3089 1.363 . S
C3095 C3090 1.379 . S
C3095 N3093 1.356 . S
N3096 C3088 1.356 . S
N3096 H3102 0.984 . S
N3096 H3103 0.984 . S
N3097 C3090 1.356 . S
N3097 H3100 0.984 . S
N3097 H3101 0.985 . S
H3098 N3093 0.984 . S
H3099 N3093 0.985 . S
H3100 N3097 0.984 . S
H3101 N3097 0.985 . S
H3102 N3096 0.984 . S
H3103 N3096 0.984 . S
H3104 N3092 0.984 . S
H3105 N3092 0.985 . S
C3106 C3107 1.363 1_545 S
C3106 C3112 1.379 . S
C3106 N3114 1.356 . S
C3107 C3106 1.363 1_565 S
C3107 C3113 1.363 . S
C3108 C3109 1.363 1_565 S
C3108 C3113 1.379 . S
C3108 N3115 1.356 . S
C3109 C3108 1.363 1_545 S
C3109 C3112 1.363 . S
N3110 C3112 1.356 . S
N3110 H3122 0.984 . S
N3110 H3123 0.985 . S
N3111 C3113 1.356 . S
N3111 H3116 0.984 . S
N3111 H3117 0.985 . S
C3112 C3106 1.379 . S
C3112 C3109 1.363 . S
C3112 N3110 1.356 . S
C3113 C3107 1.363 . S
C3113 C3108 1.379 . S
C3113 N3111 1.356 . S
N3114 C3106 1.356 . S
N3114 H3120 0.984 . S
N3114 H3121 0.984 1_545 S
N3115 C3108 1.356 . S
N3115 H3118 0.984 . S
N3115 H3119 0.985 . S
H3116 N3111 0.984 . S
H3117 N3111 0.985 . S
H3118 N3115 0.984 . S
H3119 N3115 0.985 . S
H3120 N3114 0.984 . S
H3121 N3114 0.984 1_565 S
H3122 N3110 0.984 . S
H3123 N3110 0.985 . S
C3124 C3125 1.363 . S
C3124 C3130 1.379 . S
C3124 N3132 1.356 . S
C3125 C3124 1.363 . S
C3125 C3131 1.363 . S
C3126 C3127 1.363 . S
C3126 C3131 1.379 . S
C3126 N3133 1.356 . S
C3127 C3126 1.363 . S
C3127 C3130 1.363 . S
N3128 C3130 1.356 . S
N3128 H3140 0.984 . S
N3128 H3141 0.985 . S
N3129 C3131 1.356 . S
N3129 H3134 0.984 . S
N3129 H3135 0.985 . S
C3130 C3124 1.379 . S
C3130 C3127 1.363 . S
C3130 N3128 1.356 . S
C3131 C3125 1.363 . S
C3131 C3126 1.379 . S
C3131 N3129 1.356 . S
N3132 C3124 1.356 . S
N3132 H3138 0.984 . S
N3132 H3139 0.984 . S
N3133 C3126 1.356 . S
N3133 H3136 0.984 . S
N3133 H3137 0.985 . S
H3134 N3129 0.984 . S
H3135 N3129 0.985 . S
H3136 N3133 0.984 . S
H3137 N3133 0.985 . S
H3138 N3132 0.984 . S
H3139 N3132 0.984 . S
H3140 N3128 0.984 . S
H3141 N3128 0.985 . S
C3142 C3143 1.363 1_554 S
C3142 C3148 1.379 . S
C3142 N3150 1.356 . S
C3143 C3142 1.363 1_556 S
C3143 C3149 1.363 . S
C3144 C3145 1.363 1_556 S
C3144 C3149 1.379 . S
C3144 N3151 1.356 . S
C3145 C3144 1.363 1_554 S
C3145 C3148 1.363 . S
N3146 C3148 1.356 . S
N3146 H3158 0.984 . S
N3146 H3159 0.985 . S
N3147 C3149 1.356 . S
N3147 H3152 0.984 . S
N3147 H3153 0.985 . S
C3148 C3142 1.379 . S
C3148 C3145 1.363 . S
C3148 N3146 1.356 . S
C3149 C3143 1.363 . S
C3149 C3144 1.379 . S
C3149 N3147 1.356 . S
N3150 C3142 1.356 . S
N3150 H3156 0.984 . S
N3150 H3157 0.984 . S
N3151 C3144 1.356 . S
N3151 H3154 0.984 . S
N3151 H3155 0.985 . S
H3152 N3147 0.984 . S
H3153 N3147 0.985 . S
H3154 N3151 0.984 . S
H3155 N3151 0.985 . S
H3156 N3150 0.984 . S
H3157 N3150 0.984 . S
H3158 N3146 0.984 . S
H3159 N3146 0.985 . S
C3160 C3161 1.363 . S
C3160 C3166 1.379 . S
C3160 N3168 1.356 . S
C3161 C3160 1.363 . S
C3161 C3167 1.363 . S
C3162 C3163 1.363 . S
C3162 C3167 1.379 . S
C3162 N3169 1.356 . S
C3163 C3162 1.363 . S
C3163 C3166 1.363 . S
N3164 C3166 1.356 . S
N3164 H3176 0.984 . S
N3164 H3177 0.985 . S
N3165 C3167 1.356 . S
N3165 H3170 0.984 . S
N3165 H3171 0.985 . S
C3166 C3160 1.379 . S
C3166 C3163 1.363 . S
C3166 N3164 1.356 . S
C3167 C3161 1.363 . S
C3167 C3162 1.379 . S
C3167 N3165 1.356 . S
N3168 C3160 1.356 . S
N3168 H3174 0.984 . S
N3168 H3175 0.984 . S
N3169 C3162 1.356 . S
N3169 H3172 0.984 . S
N3169 H3173 0.985 . S
H3170 N3165 0.984 . S
H3171 N3165 0.985 . S
H3172 N3169 0.984 . S
H3173 N3169 0.985 . S
H3174 N3168 0.984 . S
H3175 N3168 0.984 . S
H3176 N3164 0.984 . S
H3177 N3164 0.985 . S
C3178 C3179 1.363 . S
C3178 C3184 1.379 . S
C3178 N3186 1.356 . S
C3179 C3178 1.363 . S
C3179 C3185 1.363 . S
C3180 C3181 1.363 . S
C3180 C3185 1.379 . S
C3180 N3187 1.356 1_554 S
C3181 C3180 1.363 . S
C3181 C3184 1.363 . S
N3182 C3184 1.356 . S
N3182 H3194 0.984 . S
N3182 H3195 0.985 . S
N3183 C3185 1.356 1_556 S
N3183 H3188 0.989 . S
N3183 H3189 0.985 . S
C3184 C3178 1.379 . S
C3184 C3181 1.363 . S
C3184 N3182 1.356 . S
C3185 C3179 1.363 . S
C3185 C3180 1.379 . S
C3185 N3183 1.356 1_554 S
N3186 C3178 1.356 . S
N3186 H3192 0.984 . S
N3186 H3193 0.984 . S
N3187 C3180 1.356 1_556 S
N3187 H3190 0.984 . S
N3187 H3191 0.985 . S
H3188 N3183 0.989 . S
H3189 N3183 0.985 . S
H3190 N3187 0.984 . S
H3191 N3187 0.985 . S
H3192 N3186 0.984 . S
H3193 N3186 0.984 . S
H3194 N3182 0.984 . S
H3195 N3182 0.985 . S
C3196 C3197 1.363 . S
C3196 C3202 1.379 . S
C3196 N3204 1.356 . S
C3197 C3196 1.363 . S
C3197 C3203 1.363 . S
C3198 C3199 1.363 . S
C3198 C3203 1.379 . S
C3198 N3205 1.356 . S
C3199 C3198 1.363 . S
C3199 C3202 1.363 . S
N3200 C3202 1.356 . S
N3200 H3212 0.984 . S
N3200 H3213 0.985 . S
N3201 C3203 1.356 . S
N3201 H3206 0.984 . S
N3201 H3207 0.985 . S
C3202 C3196 1.379 . S
C3202 C3199 1.363 . S
C3202 N3200 1.356 . S
C3203 C3197 1.363 . S
C3203 C3198 1.379 . S
C3203 N3201 1.356 . S
N3204 C3196 1.356 . S
N3204 H3210 0.984 . S
N3204 H3211 0.984 . S
N3205 C3198 1.356 . S
N3205 H3208 0.984 . S
N3205 H3209 0.985 . S
H3206 N3201 0.984 . S
H3207 N3201 0.985 . S
H3208 N3205 0.984 . S
H3209 N3205 0.985 . S
H3210 N3204 0.984 . S
H3211 N3204 0.984 . S
H3212 N3200 0.984 . S
H3213 N3200 0.985 . S
C3214 C3215 1.363 . S
C3214 C3220 1.379 . S
C3214 N3222 1.356 . S
C3215 C3214 1.363 . S
C3215 C3221 1.363 . S
C3216 C3217 1.363 . S
C3216 C3221 1.379 . S
C3216 N3223 1.356 . S
C3217 C3216 1.363 . S
C3217 C3220 1.363 . S
N3218 C3220 1.356 . S
N3218 H3230 0.984 . S
N3218 H3231 0.985 . S
N3219 C3221 1.356 . S
N3219 H3224 0.984 . S
N3219 H3225 0.985 . S
C3220 C3214 1.379 . S
C3220 C3217 1.363 . S
C3220 N3218 1.356 . S
C3221 C3215 1.363 . S
C3221 C3216 1.379 . S
C3221 N3219 1.356 . S
N3222 C3214 1.356 . S
N3222 H3228 0.984 . S
N3222 H3229 0.984 . S
N3223 C3216 1.356 . S
N3223 H3226 0.984 . S
N3223 H3227 0.985 . S
H3224 N3219 0.984 . S
H3225 N3219 0.985 . S
H3226 N3223 0.984 . S
H3227 N3223 0.985 . S
H3228 N3222 0.984 . S
H3229 N3222 0.984 . S
H3230 N3218 0.984 . S
H3231 N3218 0.985 . S
C1505 C255 1.788 1_455 S
C1507 C886 1.798 1_556 S
C1523 C147 1.446 . S
C1525 C906 1.438 . S
C1541 C184 0.846 . S
C1543 C953 0.844 . S
C1561 C1010 1.233 . S
C1559 C220 1.237 . S
C1577 C40 2.555 . S
C1579 C1027 2.538 1_565 S
C1597 C1086 1.941 . S
C1595 C74 1.947 . S
C1615 C1119 2.752 . S
C1613 C110 2.740 . S
C1631 C14 2.473 . S
C1633 C1166 2.473 . S
C1651 C879 1.850 . S
C1649 C579 1.758 . S
C1667 C616 1.706 . S
C1669 C907 1.709 . S
C1687 C946 0.718 . S
C1685 C687 0.715 . S
C1705 C1006 2.301 . S
C1703 C436 2.264 . S
C1721 C580 0.677 . S
C1723 C1033 0.691 . S
C1741 C1079 2.285 . S
C1739 C615 2.295 . S
C1759 C1130 0.981 . S
C1757 C688 0.972 . S
C1777 C1159 2.397 . S
C1775 C435 2.386 . S
C1795 C890 1.972 1_565 S
C1793 C410 2.073 . S
C1811 C722 2.234 . S
C1813 C1186 2.210 . S
C1831 C1250 1.622 . S
C1829 C842 1.751 . S
C1849 C1286 1.595 . S
C1847 C794 1.614 . S
C1865 C302 1.929 . S
C1867 C1170 1.880 . S
C1883 C338 2.564 . S
C1885 C947 2.619 . S
C1901 C830 1.600 . S
C1903 C1319 1.672 . S
C1921 C1353 0.676 . S
C1919 C758 0.640 . S
C1939 C867 1.947 . S
C1937 C158 1.756 . S
C1957 C1359 1.583 . S
C1955 C254 1.591 . S
C1973 C218 0.851 . S
C1975 C970 0.851 . S
C1991 C194 1.151 . S
C1993 C1313 1.277 . S
C2011 C1046 2.489 . S
C2009 C3 2.508 . S
C2027 C111 1.901 . S
C2029 C1227 1.883 . S
C2047 C1106 2.623 1_566 S
C2045 C76 2.613 . S
C2065 C1387 2.587 . S
C2063 C50 2.524 1_655 S
C2083 C866 1.863 . S
C2081 C364 1.840 . S
C2101 C1366 1.593 . S
C2099 C795 1.612 . S
C2117 C292 0.714 . S
C2119 C959 0.690 . S
C2135 C723 2.208 . S
C2137 C1307 2.218 . S
C2153 C363 0.684 . S
C2155 C1050 0.688 . S
C2173 C1226 2.270 . S
C2171 C796 2.266 . S
C2189 C291 1.015 . S
C2191 C1113 0.955 . S
C2207 C724 2.359 . S
C2209 C1386 2.357 . S
C2225 C482 1.970 . S
C2227 C873 2.094 . S
C2243 C434 2.200 . S
C2245 C1199 2.180 . S
C2261 C662 1.408 . S
C2263 C1073 1.603 . S
C2279 C614 1.665 . S
C2281 C1267 1.640 . S
C2299 C1393 1.810 . S
C2297 C698 1.511 . S
C2315 C554 2.541 . S
C2317 C966 2.612 . S
C2335 C986 1.584 . S
C2333 C650 1.506 . S
C2353 C930 0.707 . S
C2351 C506 0.700 . S
C2369 C183 1.930 . S
C2371 C1446 1.961 . S
C2389 C1346 1.445 . S
C2387 C219 1.464 . S
C2405 C256 0.762 . S
C2407 C1473 0.763 . S
C2423 C148 1.290 . S
C2425 C1330 1.318 . S
C2441 C122 2.584 . S
C2443 C1187 2.608 . S
C2461 C1246 1.927 . S
C2459 C2 1.934 1_655 S
C2479 C1279 2.628 . S
C2477 C39 2.625 . S
C2497 C1406 2.451 . S
C2495 C86 2.455 . S
C2515 C1439 1.816 . S
C2513 C651 1.726 . S
C2531 C472 1.675 . S
C2533 C1347 1.681 . S
C2551 C1466 0.732 . S
C2549 C507 0.729 . S
C2569 C1326 2.294 . S
C2567 C544 2.261 . S
C2587 C1193 0.676 . S
C2585 C652 0.659 . S
C2603 C471 2.325 . S
C2605 C1239 2.311 . S
C2623 C1290 0.950 . S
C2621 C508 0.940 . S
C2639 C543 2.367 . S
C2641 C1399 2.378 . S
C2659 C1450 2.015 . S
C2657 C806 2.114 . S
C2675 C326 2.257 . S
C2677 C1026 2.230 . S
C2695 C1090 1.569 . S
C2693 C374 1.697 . S
C2713 C1126 1.608 . S
C2711 C398 1.638 . S
C2731 C1410 1.584 . S
C2729 C770 1.671 . S
C2747 C734 2.584 . S
C2749 C1467 2.635 1_655 S
C2767 C999 1.703 . S
C2765 C362 1.633 . S
C2785 C913 0.718 . S
C2783 C290 0.711 . S
C2801 C230 1.788 . S
C2803 C1427 1.990 . S
C2821 C919 1.362 . S
C2819 C182 1.362 . S
C2837 C146 0.868 . S
C2839 C1490 0.865 . S
C2855 C266 1.032 . S
C2857 C993 1.149 . S
C2873 C75 2.544 . S
C2875 C1206 2.525 . S
C2893 C1067 2.036 . S
C2891 C38 2.037 . S
C2909 C4 2.605 . S
C2911 C1266 2.616 . S
C2927 C112 2.512 . S
C2929 C1147 2.448 . S
C2947 C1426 1.897 . S
C2945 C832 1.873 . S
C2963 C399 1.602 . S
C2965 C926 1.586 . S
C2983 C1479 0.583 . S
C2981 C760 0.597 . S
C2999 C327 2.224 . S
C3001 C987 2.233 . S
C3017 C831 0.672 . S
C3019 C1210 0.678 . S
C3037 C1066 2.301 . S
C3035 C400 2.298 . S
C3053 C759 0.984 . S
C3055 C1273 0.925 . S
C3073 C1146 2.350 . S
C3071 C328 2.357 . S
C3091 C1433 2.175 . S
C3089 C626 2.048 . S
C3109 C1039 2.233 . S
C3107 C542 2.254 . S
C3125 C590 1.372 . S
C3127 C1233 1.551 . S
C3145 C1107 1.574 . S
C3143 C470 1.597 . S
C3161 C518 1.485 . S
C3163 C1153 1.771 . S
C3179 C446 2.561 . S
C3181 C1486 2.634 . S
C3199 C1306 1.610 . S
C3197 C578 1.537 . S
C3217 C1370 0.746 . S
C3215 C686 0.745 . S
