# Generated by pormake.
# Topology tsx, (6,3)-cn, num edge types: 1
# Building blocks:
#     Node 0, Type 0, BuildingBlock: VOLQOD_clean_sbu_1, # of connection points: 6
#     Node 1, Type 0, BuildingBlock: VOLQOD_clean_sbu_1, # of connection points: 6
#     Node 2, Type 1, BuildingBlock: WUSLED_clean_sbu_0, # of connection points: 3
#     Node 3, Type 1, BuildingBlock: WUSLED_clean_sbu_0, # of connection points: 3
#     Node 4, Type 1, BuildingBlock: WUSLED_clean_sbu_0, # of connection points: 3
#     Node 5, Type 1, BuildingBlock: WUSLED_clean_sbu_0, # of connection points: 3
#     Edge 6, Type (0, 1), BuildingBlock: ZUJKAS_clean_linker_0, # of connection points: 2
#     Edge 7, Type (0, 1), BuildingBlock: ZUJKAS_clean_linker_0, # of connection points: 2
#     Edge 8, Type (0, 1), BuildingBlock: ZUJKAS_clean_linker_0, # of connection points: 2
#     Edge 9, Type (0, 1), BuildingBlock: ZUJKAS_clean_linker_0, # of connection points: 2
#     Edge 10, Type (0, 1), BuildingBlock: ZUJKAS_clean_linker_0, # of connection points: 2
#     Edge 11, Type (0, 1), BuildingBlock: ZUJKAS_clean_linker_0, # of connection points: 2
#     Edge 12, Type (0, 1), BuildingBlock: ZUJKAS_clean_linker_0, # of connection points: 2
#     Edge 13, Type (0, 1), BuildingBlock: ZUJKAS_clean_linker_0, # of connection points: 2
#     Edge 14, Type (0, 1), BuildingBlock: ZUJKAS_clean_linker_0, # of connection points: 2
#     Edge 15, Type (0, 1), BuildingBlock: ZUJKAS_clean_linker_0, # of connection points: 2
#     Edge 16, Type (0, 1), BuildingBlock: ZUJKAS_clean_linker_0, # of connection points: 2
#     Edge 17, Type (0, 1), BuildingBlock: ZUJKAS_clean_linker_0, # of connection points: 2
# Relax obj value: 0.070
# Max RMSD: 0.104
# Mean RMSD: 0.078
data_MOF--net-tsx--node1-VOLQOD_clean_sbu_1--node2-WUSLED_clean_sbu_0--edge1-ZUJKAS_clean_linker_0
_symmetry_space_group_name_H-M    P1
_symmetry_Int_Tables_number       1
_symmetry_cell_setting            triclinic
loop_
_symmetry_equiv_pos_as_xyz
'x, y, z'
_cell_length_a     32.323034
_cell_length_b     33.421066
_cell_length_c     63.244648
_cell_angle_alpha  90.743772
_cell_angle_beta   90.002916
_cell_angle_gamma 90.006626
loop_
_atom_site_label
_atom_site_type_symbol
_atom_site_fract_x
_atom_site_fract_y
_atom_site_fract_z
_atom_type_partial_charge
O0 O 0.04711 1.00025 0.06325 0.0
Zn1 Zn 0.0637 1.00215 0.03244 0.0
O2 O 0.01503 0.00856 0.01433 0.0
Zn3 Zn 0.00804 0.96093 0.99634 0.0
Zn4 Zn 0.96573 0.01584 0.03193 0.0
Zn5 Zn 0.02258 0.05539 0.99653 0.0
O6 O 0.00569 0.97577 0.96545 0.0
O7 O 0.02553 0.03943 0.96562 0.0
O8 O 0.0963 0.95238 0.0243 0.0
O9 O 0.05725 0.92448 0.99926 0.0
O10 O 0.95687 0.92934 1.00437 0.0
O11 O 0.92811 0.96807 0.02905 0.0
O12 O 0.93306 0.06503 0.02348 0.0
O13 O 0.10176 0.04973 0.02991 0.0
O14 O 0.97364 0.0923 0.99928 0.0
O15 O 0.07364 0.08692 1.00489 0.0
C16 C 0.0139 0.00975 0.07298 0.0
C17 C 0.01571 0.00742 0.95563 0.0
C18 C 0.92823 0.93618 0.01781 0.0
C19 C 0.0897 0.92458 0.0107 0.0
C20 C 0.94054 0.09252 0.01021 0.0
C21 C 0.10193 0.08092 0.01854 0.0
O22 O 0.98113 0.01895 0.06291 0.0
O23 O 0.54834 0.49949 0.56359 0.0
Zn24 Zn 0.56533 0.50144 0.53283 0.0
O25 O 0.51658 0.50709 0.51466 0.0
Zn26 Zn 0.51081 0.45914 0.49677 0.0
Zn27 Zn 0.46675 0.51359 0.53202 0.0
Zn28 Zn 0.52333 0.5542 0.49693 0.0
O29 O 0.50826 0.47399 0.46592 0.0
O30 O 0.52604 0.53825 0.46602 0.0
O31 O 0.59878 0.4519 0.52498 0.0
O32 O 0.56072 0.42356 0.4997 0.0
O33 O 0.46017 0.42656 0.50478 0.0
O34 O 0.42951 0.46546 0.52878 0.0
O35 O 0.43363 0.56276 0.5238 0.0
O36 O 0.60287 0.54949 0.53021 0.0
O37 O 0.47376 0.59043 0.49957 0.0
O38 O 0.57403 0.58655 0.50533 0.0
C39 C 0.5147 0.50798 0.57319 0.0
C40 C 0.51713 0.50594 0.45608 0.0
C41 C 0.43075 0.43326 0.51778 0.0
C42 C 0.59294 0.42407 0.51131 0.0
C43 C 0.44068 0.59032 0.51051 0.0
C44 C 0.60254 0.58078 0.5189 0.0
O45 O 0.48181 0.51632 0.56301 0.0
C46 C 0.95647 0.06648 0.44567 0.0
C47 C 0.9281 0.08261 0.43132 0.0
C48 C 0.90019 0.12647 0.45896 0.0
C49 C 0.90016 0.11222 0.4379 0.0
C50 C 0.92901 0.11032 0.47322 0.0
C51 C 0.95684 0.08058 0.46662 0.0
U52 U 0.00992 0.008 0.40175 0.0
O53 O 0.07404 0.98701 0.39828 0.0
O54 O 0.02302 0.94355 0.39818 0.0
C55 C 0.06329 0.94904 0.39815 0.0
C56 C 0.98571 0.03507 0.43888 0.0
C57 C 0.08778 0.92184 0.41149 0.0
C58 C 0.13718 0.90956 0.43976 0.0
C59 C 0.11151 0.93583 0.42869 0.0
C60 C 0.11471 0.85487 0.41705 0.0
C61 C 0.1396 0.86885 0.43384 0.0
C62 C 0.08923 0.8811 0.40599 0.0
C63 C 0.98393 0.03498 0.3446 0.0
C64 C 0.01428 1.00083 0.31419 0.0
C65 C 0.96504 0.0545 0.30905 0.0
C66 C 0.96132 0.05933 0.33095 0.0
C67 C 0.99149 0.02514 0.30037 0.0
C68 C 0.01049 0.00569 0.33613 0.0
C69 C 0.97936 0.04062 0.36756 0.0
O70 O 0.96892 1.00386 0.42936 0.0
O71 O 0.01925 0.04787 0.42936 0.0
O72 O 0.01213 0.05455 0.3775 0.0
O73 O 0.96121 0.01117 0.37754 0.0
H74 H 0.92741 0.07213 0.41503 0.0
H75 H 0.87811 0.12347 0.42654 0.0
H76 H 0.9304 0.12095 0.48945 0.0
H77 H 0.9787 0.06863 0.47789 0.0
H78 H 0.1561 0.92141 0.45251 0.0
H79 H 0.11093 0.96715 0.43329 0.0
H80 H 0.11512 0.82362 0.41231 0.0
H81 H 0.07114 0.86962 0.39282 0.0
H82 H 0.0346 0.97769 0.30805 0.0
H83 H 0.94755 0.07415 0.29891 0.0
H84 H 0.9408 0.08219 0.33724 0.0
H85 H 0.02815 0.98658 0.3465 0.0
C86 C 0.95826 0.94762 0.58336 0.0
C87 C 0.9282 0.93413 0.59762 0.0
C88 C 0.90064 0.88828 0.57083 0.0
C89 C 0.89956 0.90488 0.59139 0.0
C90 C 0.93115 0.90162 0.55668 0.0
C91 C 0.95963 0.9311 0.56289 0.0
U92 U 0.01378 0.00515 0.62684 0.0
O93 O 0.07842 0.02495 0.63001 0.0
O94 O 0.02823 0.06923 0.6306 0.0
C95 C 0.06838 0.06307 0.63074 0.0
C96 C 0.9884 0.97852 0.58984 0.0
C97 C 0.09334 0.09014 0.61772 0.0
C98 C 0.12562 0.10872 0.5845 0.0
C99 C 0.10086 0.08251 0.59618 0.0
C100 C 0.1351 0.15039 0.61575 0.0
C101 C 0.14304 0.14303 0.59417 0.0
C102 C 0.11052 0.12425 0.62735 0.0
C103 C 0.98781 0.97864 0.68404 0.0
C104 C 0.01803 0.01333 0.71431 0.0
C105 C 0.96959 0.95905 0.71966 0.0
C106 C 0.9657 0.95406 0.69778 0.0
C107 C 0.9957 0.98882 0.72823 0.0
C108 C 0.01409 0.00829 0.69239 0.0
C109 C 0.98292 0.97299 0.66109 0.0
O110 O 0.9726 0.01023 0.59935 0.0
O111 O 0.02188 0.96513 0.59918 0.0
O112 O 0.01534 0.95851 0.65107 0.0
O113 O 0.96521 1.00271 0.65115 0.0
H114 H 0.9269 0.94622 0.61359 0.0
H115 H 0.87689 0.89488 0.60277 0.0
H116 H 0.93262 0.88967 0.54069 0.0
H117 H 0.98268 0.94106 0.55169 0.0
H118 H 0.13083 0.10233 0.56788 0.0
H119 H 0.08773 0.05632 0.58845 0.0
H120 H 0.14852 0.17604 0.62383 0.0
H121 H 0.10519 0.13053 0.64399 0.0
H122 H 0.03809 0.03678 0.72036 0.0
H123 H 0.95247 0.93925 0.72988 0.0
H124 H 0.9454 0.93092 0.69158 0.0
H125 H 0.03136 0.02758 0.68195 0.0
C126 C 0.45312 0.56695 0.94525 0.0
C127 C 0.42956 0.58677 0.92999 0.0
C128 C 0.39506 0.62585 0.9576 0.0
C129 C 0.40078 0.61592 0.9361 0.0
C130 C 0.41902 0.60601 0.97282 0.0
C131 C 0.44777 0.57676 0.96668 0.0
U132 U 0.5078 0.50866 0.90188 0.0
O133 O 0.57248 0.48952 0.89832 0.0
O134 O 0.52296 0.44455 0.89892 0.0
C135 C 0.56305 0.45126 0.89896 0.0
C136 C 0.48306 0.53599 0.93886 0.0
C137 C 0.58825 0.42588 0.91303 0.0
C138 C 0.64572 0.41701 0.93746 0.0
C139 C 0.61973 0.4421 0.9259 0.0
C140 C 0.60853 0.35915 0.92406 0.0
C141 C 0.64076 0.37521 0.93645 0.0
C142 C 0.58272 0.3842 0.91241 0.0
C143 C 0.48109 0.53399 0.8446 0.0
C144 C 0.51124 0.49924 0.81434 0.0
C145 C 0.46388 0.5544 0.80899 0.0
C146 C 0.45966 0.55912 0.83087 0.0
C147 C 0.48966 0.52437 0.80043 0.0
C148 C 0.50697 0.50402 0.83626 0.0
C149 C 0.47625 0.53974 0.86753 0.0
O150 O 0.46692 0.50424 0.92955 0.0
O151 O 0.51629 0.54924 0.92922 0.0
O152 O 0.50853 0.55484 0.87742 0.0
O153 O 0.45908 0.50987 0.87761 0.0
H154 H 0.43345 0.57965 0.91334 0.0
H155 H 0.3833 0.63099 0.92395 0.0
H156 H 0.41509 0.61263 0.98951 0.0
H157 H 0.46568 0.56168 0.97867 0.0
H158 H 0.67001 0.43032 0.94703 0.0
H159 H 0.6249 0.4741 0.92675 0.0
H160 H 0.60419 0.32708 0.92272 0.0
H161 H 0.55901 0.37087 0.90247 0.0
H162 H 0.53101 0.47558 0.80828 0.0
H163 H 0.44736 0.57469 0.79879 0.0
H164 H 0.43972 0.58254 0.83707 0.0
H165 H 0.52376 0.48434 0.8467 0.0
C166 C 0.45826 0.44557 0.08357 0.0
C167 C 0.43867 0.42202 0.0988 0.0
C168 C 0.40154 0.38553 0.0711 0.0
C169 C 0.4106 0.39224 0.09263 0.0
C170 C 0.42127 0.40937 0.05591 0.0
C171 C 0.4494 0.43911 0.06212 0.0
U172 U 0.51304 0.50464 0.1268 0.0
O173 O 0.57757 0.52496 0.12969 0.0
O174 O 0.52707 0.56888 0.12975 0.0
C175 C 0.56731 0.56305 0.12927 0.0
C176 C 0.48772 0.47696 0.08998 0.0
C177 C 0.5915 0.58928 0.11511 0.0
C178 C 0.65332 0.60254 0.09425 0.0
C179 C 0.62871 0.57614 0.10578 0.0
C180 C 0.60377 0.65554 0.10078 0.0
C181 C 0.64146 0.64273 0.09186 0.0
C182 C 0.57924 0.62921 0.11233 0.0
C183 C 0.48797 0.48044 0.18446 0.0
C184 C 0.53048 0.49619 0.2152 0.0
C185 C 0.45765 0.4813 0.21961 0.0
C186 C 0.45367 0.4758 0.19776 0.0
C187 C 0.49613 0.49136 0.22859 0.0
C188 C 0.52639 0.49099 0.1933 0.0
C189 C 0.48287 0.47392 0.16153 0.0
O190 O 0.4712 0.50834 0.09945 0.0
O191 O 0.52138 0.46418 0.09941 0.0
O192 O 0.51489 0.45881 0.15138 0.0
O193 O 0.46472 0.50309 0.15133 0.0
H194 H 0.44504 0.42677 0.11547 0.0
H195 H 0.39557 0.37484 0.10474 0.0
H196 H 0.41537 0.40469 0.03921 0.0
H197 H 0.46431 0.45701 0.05016 0.0
H198 H 0.68239 0.59177 0.08784 0.0
H199 H 0.63944 0.54574 0.10782 0.0
H200 H 0.59336 0.68611 0.09902 0.0
H201 H 0.551 0.64041 0.11948 0.0
H202 H 0.5604 0.50434 0.22164 0.0
H203 H 0.43073 0.47695 0.22952 0.0
H204 H 0.42378 0.46767 0.19124 0.0
H205 H 0.55324 0.4951 0.18331 0.0
H206 H 0.16678 0.07859 0.04638 0.0
H207 H 0.21798 0.13076 0.05363 0.0
H208 H 0.16293 0.20472 0.0059 0.0
H209 H 0.11116 0.15292 0.99865 0.0
H210 H 0.27597 0.16671 0.02679 0.0
H211 H 0.16344 0.27784 0.05856 0.0
H212 H 0.15062 0.22567 0.05481 0.0
H213 H 0.15159 0.25865 0.0326 0.0
C214 C 0.16552 0.10588 0.03735 0.0
C215 C 0.13458 0.1116 0.02201 0.0
C216 C 0.19488 0.13567 0.04153 0.0
C217 C 0.19385 0.17187 0.03056 0.0
C218 C 0.16377 0.17732 0.01485 0.0
H219 H 0.34158 0.38942 0.04052 0.0
H220 H 0.2925 0.33718 0.02979 0.0
C221 C 0.13435 0.14754 0.01064 0.0
C222 C 0.22425 0.20385 0.03567 0.0
H223 H 0.23263 0.29961 0.05475 0.0
C224 C 0.26653 0.19577 0.03292 0.0
C225 C 0.21182 0.24173 0.04367 0.0
C226 C 0.16694 0.25154 0.04779 0.0
C227 C 0.29675 0.22469 0.03775 0.0
C228 C 0.28434 0.26246 0.04589 0.0
C229 C 0.24204 0.27066 0.04848 0.0
C230 C 0.31478 0.2937 0.05213 0.0
C231 C 0.34165 0.21479 0.0338 0.0
C232 C 0.34333 0.28673 0.06839 0.0
C233 C 0.37153 0.31643 0.07449 0.0
C234 C 0.37164 0.35383 0.06452 0.0
C235 C 0.34277 0.36078 0.04831 0.0
C236 C 0.31453 0.33106 0.04225 0.0
H237 H 0.34517 0.18933 0.02247 0.0
H238 H 0.35852 0.24104 0.02753 0.0
H239 H 0.35638 0.20621 0.04893 0.0
H240 H 0.34358 0.25838 0.0765 0.0
H241 H 0.3935 0.30996 0.08692 0.0
H242 H 0.08541 0.86057 0.98339 0.0
H243 H 0.13825 0.81003 0.9763 0.0
H244 H 0.21826 0.86566 0.02262 0.0
H245 H 0.16532 0.91632 0.03006 0.0
H246 H 0.21845 0.82421 0.96157 0.0
H247 H 0.22106 0.74707 0.03888 0.0
H248 H 0.17932 0.7797 0.03118 0.0
H249 H 0.22749 0.80045 0.0403 0.0
C250 C 0.11404 0.86196 0.99227 0.0
C251 C 0.12101 0.89258 0.00735 0.0
C252 C 0.14426 0.83301 0.98815 0.0
C253 C 0.18201 0.83383 0.99907 0.0
C254 C 0.18904 0.86403 0.01428 0.0
H255 H 0.40298 0.68477 0.98795 0.0
H256 H 0.35212 0.73586 0.9981 0.0
C257 C 0.15878 0.89308 0.01844 0.0
C258 C 0.21459 0.80409 0.99371 0.0
H259 H 0.27165 0.72735 0.01376 0.0
C260 C 0.23004 0.80298 0.97297 0.0
C261 C 0.22982 0.7766 0.00865 0.0
C262 C 0.21341 0.77562 0.03097 0.0
C263 C 0.26044 0.77524 0.96676 0.0
C264 C 0.27523 0.74731 0.98159 0.0
C265 C 0.2602 0.74874 1.00242 0.0
C266 C 0.30577 0.71595 0.97565 0.0
C267 C 0.27689 0.7765 0.94444 0.0
C268 C 0.2963 0.68739 0.95992 0.0
C269 C 0.32521 0.65816 0.95412 0.0
C270 C 0.36412 0.65666 0.96405 0.0
C271 C 0.37321 0.68488 0.9801 0.0
C272 C 0.34426 0.71419 0.98587 0.0
H273 H 0.27115 0.80598 0.93706 0.0
H274 H 0.31063 0.7703 0.94403 0.0
H275 H 0.26101 0.7533 0.9347 0.0
H276 H 0.2664 0.68758 0.95219 0.0
H277 H 0.31687 0.6364 0.94201 0.0
H278 H 0.91876 0.86279 0.9982 0.0
H279 H 0.86714 0.81133 0.00601 0.0
H280 H 0.8133 0.88852 0.05373 0.0
H281 H 0.86399 0.94015 0.04586 0.0
H282 H 0.85531 0.77334 0.04379 0.0
H283 H 0.71182 0.85223 0.0212 0.0
H284 H 0.76247 0.8692 0.01329 0.0
H285 H 0.74286 0.88117 0.03925 0.0
C286 C 0.89558 0.86904 0.01015 0.0
C287 C 0.89552 0.90574 0.02134 0.0
C288 C 0.86614 0.83956 0.01462 0.0
C289 C 0.83593 0.8463 0.03022 0.0
C290 C 0.83562 0.88298 0.04126 0.0
H291 H 0.65823 0.72021 0.10348 0.0
H292 H 0.70476 0.76733 0.08636 0.0
C293 C 0.8649 0.91243 0.03681 0.0
C294 C 0.80633 0.81427 0.03604 0.0
H295 H 0.70358 0.79563 0.04385 0.0
C296 C 0.8221 0.77792 0.04349 0.0
C297 C 0.76299 0.82027 0.03562 0.0
C298 C 0.744 0.85769 0.0267 0.0
C299 C 0.79581 0.74821 0.05147 0.0
C300 C 0.7526 0.75489 0.05177 0.0
C301 C 0.73674 0.79068 0.0437 0.0
C302 C 0.72351 0.72615 0.0615 0.0
C303 C 0.81457 0.71068 0.06039 0.0
C304 C 0.71816 0.68747 0.05303 0.0
C305 C 0.69128 0.66043 0.06272 0.0
C306 C 0.66911 0.67166 0.08102 0.0
C307 C 0.67424 0.71068 0.08925 0.0
C308 C 0.70102 0.73764 0.07955 0.0
H309 H 0.84854 0.7135 0.06266 0.0
H310 H 0.80014 0.70337 0.0758 0.0
H311 H 0.80877 0.68527 0.04932 0.0
H312 H 0.7347 0.67824 0.03889 0.0
H313 H 0.68764 0.63084 0.05579 0.0
H314 H 0.95087 0.16147 0.98812 0.0
H315 H 0.89852 0.21097 0.97913 0.0
H316 H 0.80694 0.14455 0.01372 0.0
H317 H 0.85948 0.0952 0.02325 0.0
H318 H 0.83001 0.19709 0.95585 0.0
H319 H 0.78465 0.25749 0.03466 0.0
H320 H 0.83065 0.22772 0.03067 0.0
H321 H 0.78081 0.20403 0.03227 0.0
C322 C 0.91974 0.15759 0.99409 0.0
C323 C 0.90941 0.12428 0.00641 0.0
C324 C 0.88981 0.18596 0.98891 0.0
C325 C 0.84885 0.18175 0.99589 0.0
C326 C 0.83851 0.14896 0.00853 0.0
H327 H 0.62378 0.30758 0.95904 0.0
H328 H 0.67354 0.26064 0.97435 0.0
C329 C 0.86858 0.12063 0.01387 0.0
C330 C 0.81669 0.2102 0.98859 0.0
H331 H 0.74362 0.27745 1.00539 0.0
C332 C 0.81128 0.21475 0.96671 0.0
C333 C 0.79205 0.2331 1.00276 0.0
C334 C 0.79749 0.2307 0.0264 0.0
C335 C 0.78199 0.24147 0.95862 0.0
C336 C 0.75762 0.26451 0.97276 0.0
C337 C 0.76246 0.25968 0.99463 0.0
C338 C 0.7275 0.29424 0.96493 0.0
C339 C 0.77705 0.2447 0.93498 0.0
C340 C 0.74146 0.32896 0.95495 0.0
C341 C 0.71322 0.35577 0.94623 0.0
C342 C 0.67044 0.34829 0.94726 0.0
C343 C 0.65654 0.31395 0.95778 0.0
C344 C 0.68486 0.28725 0.96664 0.0
H345 H 0.7922 0.21948 0.92638 0.0
H346 H 0.74379 0.24539 0.93059 0.0
H347 H 0.79135 0.27303 0.92965 0.0
H348 H 0.77429 0.33493 0.95359 0.0
H349 H 0.72498 0.38169 0.93806 0.0
H350 H 0.6722 0.5757 0.54339 0.0
H351 H 0.72311 0.62798 0.55086 0.0
H352 H 0.65697 0.70878 0.51041 0.0
H353 H 0.60625 0.65633 0.50244 0.0
H354 H 0.74055 0.71354 0.5046 0.0
H355 H 0.70377 0.72283 0.59012 0.0
H356 H 0.71823 0.67343 0.58149 0.0
H357 H 0.6717 0.69584 0.57145 0.0
C358 C 0.66845 0.60453 0.536 0.0
C359 C 0.63485 0.61183 0.52242 0.0
C360 C 0.69751 0.63451 0.54041 0.0
C361 C 0.69339 0.67262 0.53159 0.0
C362 C 0.66063 0.67969 0.51753 0.0
H363 H 0.81735 0.88711 0.57863 0.0
H364 H 0.7672 0.83567 0.56824 0.0
C365 C 0.63165 0.64963 0.51299 0.0
C366 C 0.7231 0.70513 0.5371 0.0
H367 H 0.76346 0.75814 0.5788 0.0
C368 C 0.74548 0.7234 0.52082 0.0
C369 C 0.72904 0.71848 0.55822 0.0
C370 C 0.70413 0.70194 0.57631 0.0
C371 C 0.77414 0.75412 0.52512 0.0
C372 C 0.78127 0.76634 0.54633 0.0
C373 C 0.75836 0.74851 0.56256 0.0
C374 C 0.81187 0.79793 0.5521 0.0
C375 C 0.79585 0.77369 0.50684 0.0
C376 C 0.85381 0.79377 0.54666 0.0
C377 C 0.88254 0.82324 0.55253 0.0
C378 C 0.87004 0.85723 0.56423 0.0
C379 C 0.82808 0.86114 0.5698 0.0
C380 C 0.79935 0.83182 0.5638 0.0
H381 H 0.77855 0.76932 0.4918 0.0
H382 H 0.79991 0.80629 0.50976 0.0
H383 H 0.8269 0.76003 0.50479 0.0
H384 H 0.86448 0.76742 0.53814 0.0
H385 H 0.91472 0.819 0.5483 0.0
H386 H 0.59291 0.36332 0.4819 0.0
H387 H 0.64609 0.31285 0.47565 0.0
H388 H 0.7182 0.36179 0.52718 0.0
H389 H 0.66533 0.41315 0.53335 0.0
H390 H 0.76507 0.34763 0.49192 0.0
H391 H 0.67098 0.21367 0.50944 0.0
H392 H 0.64754 0.24479 0.48989 0.0
H393 H 0.6544 0.26368 0.51644 0.0
C394 C 0.61987 0.36329 0.49207 0.0
C395 C 0.62465 0.39231 0.50822 0.0
C396 C 0.65019 0.33416 0.48853 0.0
C397 C 0.68582 0.33303 0.50118 0.0
C398 C 0.69082 0.36192 0.51731 0.0
H399 H 0.85841 0.13178 0.49671 0.0
H400 H 0.80897 0.18303 0.50811 0.0
C401 C 0.66051 0.39123 0.52084 0.0
C402 C 0.7185 0.30266 0.49695 0.0
H403 H 0.73482 0.2021 0.49126 0.0
C404 C 0.75856 0.31579 0.49196 0.0
C405 C 0.7102 0.26108 0.49728 0.0
C406 C 0.66856 0.24491 0.50377 0.0
C407 C 0.79016 0.28856 0.48668 0.0
C408 C 0.78126 0.24708 0.48594 0.0
C409 C 0.74155 0.2339 0.49157 0.0
C410 C 0.81251 0.21683 0.47922 0.0
C411 C 0.83286 0.30453 0.48212 0.0
C412 C 0.83081 0.21855 0.45912 0.0
C413 C 0.85947 0.18953 0.45263 0.0
C414 C 0.87017 0.15782 0.46602 0.0
C415 C 0.85152 0.15607 0.48611 0.0
C416 C 0.82297 0.18521 0.4926 0.0
H417 H 0.83764 0.33456 0.48946 0.0
H418 H 0.85719 0.28402 0.48799 0.0
H419 H 0.83673 0.30751 0.46478 0.0
H420 H 0.82259 0.24213 0.44831 0.0
H421 H 0.87341 0.19211 0.43714 0.0
H422 H 0.42901 0.3557 0.50278 0.0
H423 H 0.37806 0.30373 0.51085 0.0
H424 H 0.30908 0.38844 0.54882 0.0
H425 H 0.35948 0.44046 0.54085 0.0
H426 H 0.35799 0.27694 0.55202 0.0
H427 H 0.21961 0.33623 0.51123 0.0
H428 H 0.27148 0.35275 0.50524 0.0
H429 H 0.24491 0.37223 0.52813 0.0
C430 C 0.40269 0.36345 0.51261 0.0
C431 C 0.3984 0.40235 0.52114 0.0
C432 C 0.37366 0.33367 0.51723 0.0
C433 C 0.3395 0.34233 0.53022 0.0
C434 C 0.33475 0.38125 0.53844 0.0
H435 H 0.14413 0.22491 0.59624 0.0
H436 H 0.19213 0.27046 0.57894 0.0
C437 C 0.36381 0.41093 0.53395 0.0
C438 C 0.31022 0.31029 0.53642 0.0
H439 H 0.20774 0.28523 0.53666 0.0
C440 C 0.32521 0.27836 0.54842 0.0
C441 C 0.26748 0.31233 0.53175 0.0
C442 C 0.24987 0.34502 0.51821 0.0
C443 C 0.29837 0.24939 0.55668 0.0
C444 C 0.25543 0.25195 0.55243 0.0
C445 C 0.24062 0.28329 0.53993 0.0
C446 C 0.22514 0.22388 0.5619 0.0
C447 C 0.31599 0.2174 0.5707 0.0
C448 C 0.22706 0.18253 0.55772 0.0
C449 C 0.19981 0.15627 0.56777 0.0
C450 C 0.16998 0.17091 0.58213 0.0
C451 C 0.16722 0.21251 0.58562 0.0
C452 C 0.19445 0.23865 0.57561 0.0
H453 H 0.34767 0.22497 0.57627 0.0
H454 H 0.29593 0.21272 0.5847 0.0
H455 H 0.31771 0.18876 0.56166 0.0
H456 H 0.24996 0.1705 0.54689 0.0
H457 H 0.20291 0.12445 0.56476 0.0
H458 H 0.36356 0.59827 0.52854 0.0
H459 H 0.31001 0.64732 0.51988 0.0
H460 H 0.3922 0.70186 0.47496 0.0
H461 H 0.44594 0.6536 0.48366 0.0
H462 H 0.34865 0.75768 0.49959 0.0
H463 H 0.24397 0.64265 0.46446 0.0
H464 H 0.2595 0.63425 0.49132 0.0
H465 H 0.29743 0.63241 0.47057 0.0
C466 C 0.37038 0.62089 0.51694 0.0
C467 C 0.40904 0.6217 0.50669 0.0
C468 C 0.33963 0.64877 0.51193 0.0
C469 C 0.34688 0.67785 0.49652 0.0
C470 C 0.38586 0.67961 0.48684 0.0
H471 H 0.18782 0.81077 0.41552 0.0
H472 H 0.23603 0.76535 0.43266 0.0
C473 C 0.41656 0.65185 0.49182 0.0
C474 C 0.31375 0.7058 0.48984 0.0
H475 H 0.22055 0.70934 0.46443 0.0
C476 C 0.32044 0.74716 0.49207 0.0
C477 C 0.2772 0.69197 0.47981 0.0
C478 C 0.26904 0.64794 0.47619 0.0
C479 C 0.29188 0.77508 0.48428 0.0
C480 C 0.25541 0.76122 0.47421 0.0
C481 C 0.24841 0.71987 0.47228 0.0
C482 C 0.22554 0.78896 0.46421 0.0
C483 C 0.30171 0.81912 0.48614 0.0
C484 C 0.2033 0.81721 0.47628 0.0
C485 C 0.17538 0.84321 0.4665 0.0
C486 C 0.16903 0.84126 0.44449 0.0
C487 C 0.19133 0.81273 0.43253 0.0
C488 C 0.21912 0.78683 0.44229 0.0
H489 H 0.3346 0.82449 0.49044 0.0
H490 H 0.29506 0.83447 0.47105 0.0
H491 H 0.282 0.83288 0.49862 0.0
H492 H 0.20726 0.81892 0.49327 0.0
H493 H 0.15837 0.86443 0.47623 0.0
H494 H 0.94773 0.02322 0.09922 0.0
H495 H 0.94688 0.02348 0.13788 0.0
H496 H 0.07727 0.9965 0.13872 0.0
H497 H 0.07863 0.99638 0.10005 0.0
H498 H 0.97027 0.9599 0.16547 0.0
H499 H 0.06626 0.09632 0.1778 0.0
H500 H 0.04204 0.08431 0.15278 0.0
H501 H 0.08812 0.0585 0.1607 0.0
C502 C 0.97632 0.01748 0.10758 0.0
C503 C 0.01331 0.00996 0.09647 0.0
C504 C 0.97572 0.01756 0.12969 0.0
C505 C 0.01209 0.01048 0.14115 0.0
C506 C 0.04899 1.00268 0.13017 0.0
H507 H 0.06173 0.01159 0.27696 0.0
H508 H 0.06755 0.00491 0.23845 0.0
C509 C 0.04963 1.00244 0.10805 0.0
C510 C 0.01113 0.01071 0.16459 0.0
H511 H 0.04688 0.06087 0.2083 0.0
C512 C 0.98699 0.98196 0.17486 0.0
C513 C 0.03319 0.03938 0.17677 0.0
C514 C 0.05865 0.07163 0.16653 0.0
C515 C 0.98442 0.98101 0.19702 0.0
C516 C 0.00586 0.01015 0.2092 0.0
C517 C 0.03047 0.03856 0.19893 0.0
C518 C 1.0021 0.01255 0.23259 0.0
C519 C 0.95922 0.94847 0.20717 0.0
C520 C 0.96343 0.01927 0.24206 0.0
C521 C 0.95996 0.02283 0.26403 0.0
C522 C 0.99517 0.02009 0.27702 0.0
C523 C 0.03392 0.01332 0.26746 0.0
C524 C 0.03735 0.00975 0.24545 0.0
H525 H 0.95514 0.9223 0.19635 0.0
H526 H 0.97394 0.93817 0.222 0.0
H527 H 0.92805 0.96032 0.2111 0.0
H528 H 0.93592 0.0223 0.23244 0.0
H529 H 0.9296 0.02766 0.27085 0.0
H530 H 0.99306 0.94614 0.92882 0.0
H531 H 0.99286 0.94581 0.8902 0.0
H532 H 0.0388 0.06694 0.89045 0.0
H533 H 0.03848 0.06788 0.92912 0.0
H534 H 0.97432 0.05601 0.8628 0.0
H535 H 0.092 0.93731 0.85078 0.0
H536 H 0.0499 0.92212 0.86735 0.0
H537 H 0.08377 0.96176 0.87605 0.0
C538 C 0.0033 0.97271 0.92071 0.0
C539 C 0.01594 0.007 0.93214 0.0
C540 C 0.00341 0.97236 0.89859 0.0
C541 C 0.01651 0.0061 0.88743 0.0
C542 C 0.02881 0.04048 0.89875 0.0
H543 H 0.0659 1.00365 0.75147 0.0
H544 H 0.0719 0.01106 0.78993 0.0
C545 C 0.02862 0.04093 0.92087 0.0
C546 C 0.01614 0.00592 0.86394 0.0
H547 H 0.05286 0.95579 0.82043 0.0
C548 C 0.99171 0.03427 0.85353 0.0
C549 C 0.03935 0.97796 0.85184 0.0
C550 C 0.06807 0.94832 0.86204 0.0
C551 C 0.9889 0.03466 0.83137 0.0
C552 C 0.01053 0.00547 0.81932 0.0
C553 C 0.03594 0.97789 0.8297 0.0
C554 C 0.00662 1.0025 0.79596 0.0
C555 C 0.96304 0.06655 0.82106 0.0
C556 C 0.96799 0.99503 0.78658 0.0
C557 C 0.96442 0.99105 0.76463 0.0
C558 C 0.99949 0.99415 0.75157 0.0
C559 C 0.03819 1.00164 0.76102 0.0
C560 C 0.04172 0.00561 0.78301 0.0
H561 H 0.95864 0.0929 0.83172 0.0
H562 H 0.97743 0.07672 0.80612 0.0
H563 H 0.93203 0.05411 0.81729 0.0
H564 H 0.9406 0.99177 0.79627 0.0
H565 H 0.93409 0.98567 0.75789 0.0
H566 H 0.57911 0.49519 0.60055 0.0
H567 H 0.5769 0.49457 0.63922 0.0
H568 H 0.44625 0.52027 0.63772 0.0
H569 H 0.44794 0.52068 0.59911 0.0
H570 H 0.55171 0.55693 0.66715 0.0
H571 H 0.45397 0.42162 0.67585 0.0
H572 H 0.47981 0.43365 0.65143 0.0
H573 H 0.43261 0.45872 0.6587 0.0
C574 C 0.54983 0.50057 0.60841 0.0
C575 C 0.51366 0.50783 0.59666 0.0
C576 C 0.54867 0.50022 0.63052 0.0
C577 C 0.51131 0.50677 0.64131 0.0
C578 C 0.47525 0.51437 0.62968 0.0
H579 H 0.42891 0.52905 0.7704 0.0
H580 H 0.43644 0.52423 0.732 0.0
C581 C 0.47637 0.51483 0.60759 0.0
C582 C 0.51014 0.50677 0.66475 0.0
H583 H 0.46519 0.46105 0.70691 0.0
C584 C 0.5331 0.53578 0.67589 0.0
C585 C 0.48582 0.47912 0.67605 0.0
C586 C 0.46192 0.44626 0.66495 0.0
C587 C 0.53135 0.53872 0.69805 0.0
C588 C 0.50657 0.51139 0.70935 0.0
C589 C 0.48411 0.482 0.69821 0.0
C590 C 0.50244 0.5136 0.73271 0.0
C591 C 0.55491 0.57189 0.70911 0.0
C592 C 0.53696 0.5086 0.74588 0.0
C593 C 0.53283 0.51167 0.76787 0.0
C594 C 0.49402 0.5196 0.7771 0.0
C595 C 0.45937 0.52366 0.76382 0.0
C596 C 0.46355 0.52062 0.74187 0.0
H597 H 0.56414 0.59579 0.69801 0.0
H598 H 0.53615 0.58551 0.72203 0.0
H599 H 0.58347 0.55941 0.71618 0.0
H600 H 0.56714 0.50242 0.73915 0.0
H601 H 0.56018 0.50859 0.7776 0.0
H602 H 0.52508 0.56977 0.42959 0.0
H603 H 0.52192 0.56932 0.39096 0.0
H604 H 0.50573 0.44123 0.39071 0.0
H605 H 0.50795 0.44142 0.42932 0.0
H606 H 0.57048 0.53229 0.36137 0.0
H607 H 0.40917 0.47727 0.3548 0.0
H608 H 0.43106 0.49472 0.37949 0.0
H609 H 0.44186 0.44491 0.36986 0.0
C610 C 0.52078 0.54147 0.42135 0.0
C611 C 0.51644 0.50566 0.43261 0.0
C612 C 0.51901 0.54128 0.39925 0.0
C613 C 0.51284 0.50535 0.38796 0.0
C614 C 0.50948 0.46945 0.39911 0.0
H615 H 0.55712 0.46192 0.25403 0.0
H616 H 0.56217 0.46722 0.29257 0.0
C617 C 0.51099 0.46961 0.4212 0.0
C618 C 0.51029 0.50539 0.36451 0.0
H619 H 0.44838 0.47839 0.32298 0.0
C620 C 0.54372 0.52068 0.35296 0.0
C621 C 0.47507 0.49084 0.35356 0.0
C622 C 0.43707 0.47638 0.36505 0.0
C623 C 0.54323 0.52108 0.33075 0.0
C624 C 0.50873 0.50496 0.31979 0.0
C625 C 0.47499 0.49038 0.33137 0.0
C626 C 0.50674 0.50299 0.29633 0.0
C627 C 0.57935 0.53942 0.31928 0.0
C628 C 0.47348 0.5206 0.28562 0.0
C629 C 0.47031 0.51725 0.26363 0.0
C630 C 0.50037 0.49621 0.25188 0.0
C631 C 0.53384 0.47885 0.26261 0.0
C632 C 0.53682 0.48196 0.28464 0.0
H633 H 0.59674 0.56062 0.32964 0.0
H634 H 0.60098 0.51536 0.31423 0.0
H635 H 0.56897 0.55557 0.30499 0.0
H636 H 0.44986 0.5369 0.29431 0.0
H637 H 0.44436 0.53124 0.2558 0.0
loop_
_geom_bond_atom_site_label_1
_geom_bond_atom_site_label_2
_geom_bond_distance
_geom_bond_site_symmetry_2
_ccdc_geom_bond_type
O0 Zn1 1.953 . S
O0 C16 1.225 1_565 S
Zn1 O0 1.953 . S
Zn1 O2 1.949 1_565 S
Zn1 O8 1.919 . S
Zn1 O13 1.924 1_565 S
O2 Zn1 1.949 1_545 S
O2 Zn3 1.923 1_444 S
O2 Zn4 1.950 1_455 S
O2 Zn5 1.945 1_554 S
Zn3 O2 1.923 1_666 S
Zn3 O6 1.934 . S
Zn3 O9 1.941 1_655 S
Zn3 O10 1.965 . S
Zn4 O2 1.950 1_655 S
Zn4 O11 1.938 1_545 S
Zn4 O12 1.906 . S
Zn4 O22 1.953 . S
Zn5 O2 1.945 1_556 S
Zn5 O7 1.932 . S
Zn5 O14 1.977 1_455 S
Zn5 O15 1.899 1_556 S
O6 Zn3 1.934 . S
O6 C17 1.226 1_665 S
O7 Zn5 1.932 . S
O7 C17 1.307 . S
O8 Zn1 1.919 . S
O8 C19 1.253 . S
O9 Zn3 1.941 1_455 S
O9 C19 1.283 1_556 S
O10 Zn3 1.965 . S
O10 C18 1.303 1_556 S
O11 Zn4 1.938 1_565 S
O11 C18 1.247 . S
O12 Zn4 1.906 . S
O12 C20 1.304 . S
O13 Zn1 1.924 1_545 S
O13 C21 1.311 . S
O14 Zn5 1.977 1_655 S
O14 C20 1.272 1_556 S
O15 Zn5 1.899 1_554 S
O15 C21 1.260 . S
C16 O0 1.225 1_545 S
C16 O22 1.298 1_455 S
C17 O6 1.226 1_445 S
C17 O7 1.307 . S
C18 O10 1.303 1_554 S
C18 O11 1.247 . S
C19 O8 1.253 . S
C19 O9 1.283 1_554 S
C20 O12 1.304 . S
C20 O14 1.272 1_554 S
C21 O13 1.311 . S
C21 O15 1.260 . S
O22 Zn4 1.953 . S
O22 C16 1.298 1_655 S
O23 Zn24 1.953 . S
O23 C39 1.225 . S
Zn24 O23 1.953 . S
Zn24 O25 1.949 . S
Zn24 O31 1.919 . S
Zn24 O36 1.924 . S
O25 Zn24 1.949 . S
O25 Zn26 1.923 . S
O25 Zn27 1.950 . S
O25 Zn28 1.945 . S
Zn26 O25 1.923 . S
Zn26 O29 1.933 . S
Zn26 O32 1.941 . S
Zn26 O33 1.965 . S
Zn27 O25 1.950 . S
Zn27 O34 1.938 . S
Zn27 O35 1.906 . S
Zn27 O45 1.953 . S
Zn28 O25 1.945 . S
Zn28 O30 1.932 . S
Zn28 O37 1.977 . S
Zn28 O38 1.910 . S
O29 Zn26 1.933 . S
O29 C40 1.226 . S
O30 Zn28 1.932 . S
O30 C40 1.307 . S
O31 Zn24 1.919 . S
O31 C42 1.253 . S
O32 Zn26 1.941 . S
O32 C42 1.283 . S
O33 Zn26 1.965 . S
O33 C41 1.303 . S
O34 Zn27 1.938 . S
O34 C41 1.247 . S
O35 Zn27 1.906 . S
O35 C43 1.304 . S
O36 Zn24 1.924 . S
O36 C44 1.311 . S
O37 Zn28 1.977 . S
O37 C43 1.272 . S
O38 Zn28 1.910 . S
O38 C44 1.231 . S
C39 O23 1.225 . S
C39 O45 1.298 . S
C40 O29 1.226 . S
C40 O30 1.307 . S
C41 O33 1.303 . S
C41 O34 1.247 . S
C42 O31 1.253 . S
C42 O32 1.283 . S
C43 O35 1.304 . S
C43 O37 1.272 . S
C44 O36 1.311 . S
C44 O38 1.231 . S
O45 Zn27 1.953 . S
O45 C39 1.298 . S
C46 C47 1.264 . S
C46 C51 1.479 . S
C46 C56 1.465 . S
C47 C46 1.264 . S
C47 C49 1.339 . S
C47 H74 0.931 . S
C48 C49 1.395 . S
C48 C50 1.320 . S
C49 C47 1.339 . S
C49 C48 1.395 . S
C49 H75 0.929 . S
C50 C48 1.320 . S
C50 C51 1.405 . S
C50 H76 0.930 . S
C51 C46 1.479 . S
C51 C50 1.405 . S
C51 H77 0.931 . S
U52 O53 2.454 1_545 S
U52 O54 2.458 1_545 S
U52 C55 2.984 1_545 S
U52 C56 2.847 1_455 S
U52 C69 2.882 . S
U52 O70 2.441 1_455 S
U52 O71 2.420 1_455 S
U52 O72 2.455 1_545 S
U52 O73 2.449 . S
O53 U52 2.454 1_565 S
O53 C55 1.353 . S
O54 U52 2.458 1_565 S
O54 C55 1.286 . S
C55 U52 2.984 1_565 S
C55 O53 1.353 . S
C55 O54 1.286 . S
C55 C57 1.363 . S
C56 C46 1.465 . S
C56 U52 2.847 1_655 S
C56 O70 1.249 . S
C56 O71 1.202 . S
C57 C55 1.363 . S
C57 C59 1.408 . S
C57 C62 1.342 . S
C58 C59 1.310 . S
C58 C61 1.461 . S
C58 H78 0.932 . S
C59 C57 1.408 . S
C59 C58 1.310 . S
C59 H79 0.930 . S
C60 C61 1.474 . S
C60 C62 1.285 . S
C60 H80 0.929 . S
C61 C58 1.461 . S
C61 C60 1.474 . S
C62 C57 1.342 . S
C62 C60 1.285 . S
C62 H81 0.930 . S
C63 C66 1.424 1_455 S
C63 C68 1.245 1_545 S
C63 C69 1.428 . S
C64 C67 1.260 1_565 S
C64 C68 1.477 . S
C64 H82 0.932 . S
C65 C66 1.384 . S
C65 C67 1.479 1_655 S
C65 H83 0.929 . S
C66 C63 1.424 1_655 S
C66 C65 1.384 . S
C66 H84 0.928 . S
C67 C64 1.260 1_545 S
C67 C65 1.479 1_455 S
C68 C63 1.245 1_565 S
C68 C64 1.477 . S
C68 H85 0.932 . S
C69 U52 2.882 . S
C69 C63 1.428 . S
C69 O72 1.301 1_545 S
C69 O73 1.282 . S
O70 U52 2.441 1_655 S
O70 C56 1.249 . S
O71 U52 2.420 1_655 S
O71 C56 1.202 . S
O72 U52 2.455 1_565 S
O72 C69 1.301 1_565 S
O73 U52 2.449 . S
O73 C69 1.282 . S
H74 C47 0.931 . S
H75 C49 0.929 . S
H76 C50 0.930 . S
H77 C51 0.931 . S
H78 C58 0.932 . S
H79 C59 0.930 . S
H80 C60 0.929 . S
H81 C62 0.930 . S
H82 C64 0.932 . S
H83 C65 0.929 . S
H84 C66 0.928 . S
H85 C68 0.932 . S
C86 C87 1.264 . S
C86 C91 1.479 . S
C86 C96 1.465 . S
C87 C86 1.264 . S
C87 C89 1.339 . S
C87 H114 0.931 . S
C88 C89 1.395 . S
C88 C90 1.320 . S
C89 C87 1.339 . S
C89 C88 1.395 . S
C89 H115 0.929 . S
C90 C88 1.320 . S
C90 C91 1.405 . S
C90 H116 0.930 . S
C91 C86 1.479 . S
C91 C90 1.405 . S
C91 H117 0.931 . S
U92 O93 2.454 1_565 S
U92 O94 2.458 1_565 S
U92 C95 2.984 1_565 S
U92 C96 2.847 1_455 S
U92 C109 2.882 . S
U92 O110 2.441 . S
U92 O111 2.420 1_455 S
U92 O112 2.455 1_565 S
U92 O113 2.449 . S
O93 U92 2.454 1_545 S
O93 C95 1.353 . S
O94 U92 2.458 1_545 S
O94 C95 1.286 . S
C95 U92 2.984 1_545 S
C95 O93 1.353 . S
C95 O94 1.286 . S
C95 C97 1.363 . S
C96 C86 1.465 . S
C96 U92 2.847 1_655 S
C96 O110 1.249 1_655 S
C96 O111 1.202 . S
C97 C95 1.363 . S
C97 C99 1.408 . S
C97 C102 1.342 . S
C98 C99 1.310 . S
C98 C101 1.461 . S
C98 H118 0.932 . S
C99 C97 1.408 . S
C99 C98 1.310 . S
C99 H119 0.930 . S
C100 C101 1.474 . S
C100 C102 1.285 . S
C100 H120 0.929 . S
C101 C98 1.461 . S
C101 C100 1.474 . S
C102 C97 1.342 . S
C102 C100 1.285 . S
C102 H121 0.930 . S
C103 C106 1.421 1_455 S
C103 C108 1.245 1_565 S
C103 C109 1.428 . S
C104 C107 1.260 1_545 S
C104 C108 1.477 . S
C104 H122 0.932 . S
C105 C106 1.384 . S
C105 C107 1.479 1_655 S
C105 H123 0.929 . S
C106 C103 1.421 1_655 S
C106 C105 1.384 . S
C106 H124 0.930 . S
C107 C104 1.260 1_565 S
C107 C105 1.479 1_455 S
C108 C103 1.245 1_545 S
C108 C104 1.477 . S
C108 H125 0.932 . S
C109 U92 2.882 . S
C109 C103 1.428 . S
C109 O112 1.301 1_565 S
C109 O113 1.282 . S
O110 U92 2.441 . S
O110 C96 1.249 1_455 S
O111 U92 2.420 1_655 S
O111 C96 1.202 . S
O112 U92 2.455 1_545 S
O112 C109 1.301 1_545 S
O113 U92 2.449 . S
O113 C109 1.282 . S
H114 C87 0.931 . S
H115 C89 0.929 . S
H116 C90 0.930 . S
H117 C91 0.931 . S
H118 C98 0.932 . S
H119 C99 0.930 . S
H120 C100 0.929 . S
H121 C102 0.930 . S
H122 C104 0.932 . S
H123 C105 0.929 . S
H124 C106 0.930 . S
H125 C108 0.932 . S
C126 C127 1.264 . S
C126 C131 1.479 . S
C126 C136 1.465 . S
C127 C126 1.264 . S
C127 C129 1.339 . S
C127 H154 0.931 . S
C128 C129 1.395 . S
C128 C130 1.320 . S
C129 C127 1.339 . S
C129 C128 1.395 . S
C129 H155 0.929 . S
C130 C128 1.320 . S
C130 C131 1.405 . S
C130 H156 0.930 . S
C131 C126 1.479 . S
C131 C130 1.405 . S
C131 H157 0.931 . S
U132 O133 2.454 . S
U132 O134 2.458 . S
U132 C135 2.984 . S
U132 C136 2.847 . S
U132 C149 2.882 . S
U132 O150 2.441 . S
U132 O151 2.420 . S
U132 O152 2.455 . S
U132 O153 2.449 . S
O133 U132 2.454 . S
O133 C135 1.353 . S
O134 U132 2.458 . S
O134 C135 1.286 . S
C135 U132 2.984 . S
C135 O133 1.353 . S
C135 O134 1.286 . S
C135 C137 1.363 . S
C136 C126 1.465 . S
C136 U132 2.847 . S
C136 O150 1.249 . S
C136 O151 1.202 . S
C137 C135 1.363 . S
C137 C139 1.408 . S
C137 C142 1.342 . S
C138 C139 1.310 . S
C138 C141 1.461 . S
C138 H158 0.932 . S
C139 C137 1.408 . S
C139 C138 1.310 . S
C139 H159 0.930 . S
C140 C141 1.474 . S
C140 C142 1.285 . S
C140 H160 0.929 . S
C141 C138 1.461 . S
C141 C140 1.474 . S
C142 C137 1.342 . S
C142 C140 1.285 . S
C142 H161 0.930 . S
C143 C146 1.424 . S
C143 C148 1.245 . S
C143 C149 1.428 . S
C144 C147 1.260 . S
C144 C148 1.477 . S
C144 H162 0.932 . S
C145 C146 1.384 . S
C145 C147 1.479 . S
C145 H163 0.929 . S
C146 C143 1.424 . S
C146 C145 1.384 . S
C146 H164 0.928 . S
C147 C144 1.260 . S
C147 C145 1.479 . S
C148 C143 1.245 . S
C148 C144 1.477 . S
C148 H165 0.932 . S
C149 U132 2.882 . S
C149 C143 1.428 . S
C149 O152 1.301 . S
C149 O153 1.282 . S
O150 U132 2.441 . S
O150 C136 1.249 . S
O151 U132 2.420 . S
O151 C136 1.202 . S
O152 U132 2.455 . S
O152 C149 1.301 . S
O153 U132 2.449 . S
O153 C149 1.282 . S
H154 C127 0.931 . S
H155 C129 0.929 . S
H156 C130 0.930 . S
H157 C131 0.931 . S
H158 C138 0.932 . S
H159 C139 0.930 . S
H160 C140 0.929 . S
H161 C142 0.930 . S
H162 C144 0.932 . S
H163 C145 0.929 . S
H164 C146 0.928 . S
H165 C148 0.932 . S
C166 C167 1.264 . S
C166 C171 1.479 . S
C166 C176 1.465 . S
C167 C166 1.264 . S
C167 C169 1.339 . S
C167 H194 0.931 . S
C168 C169 1.395 . S
C168 C170 1.320 . S
C169 C167 1.339 . S
C169 C168 1.395 . S
C169 H195 0.929 . S
C170 C168 1.320 . S
C170 C171 1.405 . S
C170 H196 0.930 . S
C171 C166 1.479 . S
C171 C170 1.405 . S
C171 H197 0.931 . S
U172 O173 2.454 . S
U172 O174 2.458 . S
U172 C175 2.984 . S
U172 C176 2.847 . S
U172 C189 2.882 . S
U172 O190 2.441 . S
U172 O191 2.420 . S
U172 O192 2.455 . S
U172 O193 2.449 . S
O173 U172 2.454 . S
O173 C175 1.353 . S
O174 U172 2.458 . S
O174 C175 1.286 . S
C175 U172 2.984 . S
C175 O173 1.353 . S
C175 O174 1.286 . S
C175 C177 1.363 . S
C176 C166 1.465 . S
C176 U172 2.847 . S
C176 O190 1.249 . S
C176 O191 1.202 . S
C177 C175 1.363 . S
C177 C179 1.408 . S
C177 C182 1.342 . S
C178 C179 1.310 . S
C178 C181 1.461 . S
C178 H198 0.932 . S
C179 C177 1.408 . S
C179 C178 1.310 . S
C179 H199 0.930 . S
C180 C181 1.474 . S
C180 C182 1.285 . S
C180 H200 0.929 . S
C181 C178 1.461 . S
C181 C180 1.474 . S
C182 C177 1.342 . S
C182 C180 1.285 . S
C182 H201 0.930 . S
C183 C186 1.424 . S
C183 C188 1.245 . S
C183 C189 1.428 . S
C184 C187 1.260 . S
C184 C188 1.477 . S
C184 H202 0.932 . S
C185 C186 1.384 . S
C185 C187 1.479 . S
C185 H203 0.929 . S
C186 C183 1.424 . S
C186 C185 1.384 . S
C186 H204 0.928 . S
C187 C184 1.260 . S
C187 C185 1.479 . S
C188 C183 1.245 . S
C188 C184 1.477 . S
C188 H205 0.932 . S
C189 U172 2.882 . S
C189 C183 1.428 . S
C189 O192 1.301 . S
C189 O193 1.282 . S
O190 U172 2.441 . S
O190 C176 1.249 . S
O191 U172 2.420 . S
O191 C176 1.202 . S
O192 U172 2.455 . S
O192 C189 1.301 . S
O193 U172 2.449 . S
O193 C189 1.282 . S
H194 C167 0.931 . S
H195 C169 0.929 . S
H196 C170 0.930 . S
H197 C171 0.931 . S
H198 C178 0.932 . S
H199 C179 0.930 . S
H200 C180 0.929 . S
H201 C182 0.930 . S
H202 C184 0.932 . S
H203 C185 0.929 . S
H204 C186 0.928 . S
H205 C188 0.932 . S
H206 C214 0.929 . S
H207 C216 0.930 . S
H208 C218 0.930 . S
H209 C221 0.929 . S
H210 C224 0.930 . S
H211 C226 0.960 . S
H212 C226 0.960 . S
H213 C226 0.960 . S
C214 H206 0.929 . S
C214 C215 1.377 . S
C214 C216 1.384 . S
C215 C214 1.377 . S
C215 C221 1.390 . S
C216 H207 0.930 . S
C216 C214 1.384 . S
C216 C217 1.372 . S
C217 C216 1.372 . S
C217 C218 1.400 . S
C217 C222 1.490 . S
C218 H208 0.930 . S
C218 C217 1.400 . S
C218 C221 1.386 . S
H219 C235 0.930 . S
H220 C236 0.931 . S
C221 H209 0.929 . S
C221 C215 1.390 . S
C221 C218 1.386 . S
C222 C217 1.490 . S
C222 C224 1.395 . S
C222 C225 1.403 . S
H223 C229 0.930 . S
C224 H210 0.930 . S
C224 C222 1.395 . S
C224 C227 1.403 . S
C225 C222 1.403 . S
C225 C226 1.524 . S
C225 C229 1.400 . S
C226 H211 0.960 . S
C226 H212 0.960 . S
C226 H213 0.960 . S
C226 C225 1.524 . S
C227 C224 1.403 . S
C227 C228 1.392 . S
C227 C231 1.495 . S
C228 C227 1.392 . S
C228 C229 1.385 . S
C228 C230 1.478 . S
C229 H223 0.930 . S
C229 C225 1.400 . S
C229 C228 1.385 . S
C230 C228 1.478 . S
C230 C232 1.381 . S
C230 C236 1.383 . S
C231 C227 1.495 . S
C231 H237 0.959 . S
C231 H238 0.961 . S
C231 H239 0.960 . S
C232 C230 1.381 . S
C232 C233 1.394 . S
C232 H240 0.930 . S
C233 C232 1.394 . S
C233 C234 1.383 . S
C233 H241 0.929 . S
C234 C233 1.383 . S
C234 C235 1.377 . S
C235 H219 0.930 . S
C235 C234 1.377 . S
C235 C236 1.379 . S
C236 H220 0.931 . S
C236 C230 1.383 . S
C236 C235 1.379 . S
H237 C231 0.959 . S
H238 C231 0.961 . S
H239 C231 0.960 . S
H240 C232 0.930 . S
H241 C233 0.929 . S
H242 C250 0.929 . S
H243 C252 0.930 . S
H244 C254 0.930 . S
H245 C257 0.914 1_554 S
H246 C260 0.930 . S
H247 C262 0.960 . S
H248 C262 0.960 . S
H249 C262 0.960 . S
C250 H242 0.929 . S
C250 C251 1.377 . S
C250 C252 1.384 . S
C251 C250 1.377 . S
C251 C257 1.398 . S
C252 H243 0.930 . S
C252 C250 1.384 . S
C252 C253 1.372 . S
C253 C252 1.372 . S
C253 C254 1.400 . S
C253 C258 1.490 . S
C254 H244 0.930 . S
C254 C253 1.400 . S
C254 C257 1.395 . S
H255 C271 0.930 . S
H256 C272 0.931 . S
C257 H245 0.914 1_556 S
C257 C251 1.398 . S
C257 C254 1.395 . S
C258 C253 1.490 . S
C258 C260 1.395 . S
C258 C261 1.403 . S
H259 C265 0.930 . S
C260 H246 0.930 . S
C260 C258 1.395 . S
C260 C263 1.403 . S
C261 C258 1.403 . S
C261 C262 1.524 1_556 S
C261 C265 1.400 . S
C262 H247 0.960 . S
C262 H248 0.960 . S
C262 H249 0.960 . S
C262 C261 1.524 1_554 S
C263 C260 1.403 . S
C263 C264 1.392 . S
C263 C267 1.495 . S
C264 C263 1.392 . S
C264 C265 1.385 . S
C264 C266 1.478 . S
C265 H259 0.930 . S
C265 C261 1.400 . S
C265 C264 1.385 . S
C266 C264 1.478 . S
C266 C268 1.381 . S
C266 C272 1.383 . S
C267 C263 1.495 . S
C267 H273 0.959 . S
C267 H274 0.961 . S
C267 H275 0.960 . S
C268 C266 1.381 . S
C268 C269 1.394 . S
C268 H276 0.930 . S
C269 C268 1.394 . S
C269 C270 1.383 . S
C269 H277 0.929 . S
C270 C269 1.383 . S
C270 C271 1.377 . S
C271 H255 0.930 . S
C271 C270 1.377 . S
C271 C272 1.379 . S
C272 H256 0.931 . S
C272 C266 1.383 . S
C272 C271 1.379 . S
H273 C267 0.959 . S
H274 C267 0.961 . S
H275 C267 0.960 . S
H276 C268 0.930 . S
H277 C269 0.929 . S
H278 C286 0.929 1_556 S
H279 C288 0.929 1_556 S
H280 C290 0.930 . S
H281 C293 0.929 . S
H282 C296 0.930 . S
H283 C298 0.960 . S
H284 C298 0.960 . S
H285 C298 0.960 . S
C286 H278 0.929 1_554 S
C286 C287 1.377 . S
C286 C288 1.384 . S
C287 C286 1.377 . S
C287 C293 1.390 . S
C288 H279 0.929 1_554 S
C288 C286 1.384 . S
C288 C289 1.372 . S
C289 C288 1.372 . S
C289 C290 1.400 . S
C289 C294 1.490 . S
C290 H280 0.930 . S
C290 C289 1.400 . S
C290 C293 1.386 . S
H291 C307 0.930 . S
H292 C308 0.931 . S
C293 H281 0.929 . S
C293 C287 1.390 . S
C293 C290 1.386 . S
C294 C289 1.490 . S
C294 C296 1.395 . S
C294 C297 1.403 . S
H295 C301 0.930 . S
C296 H282 0.930 . S
C296 C294 1.395 . S
C296 C299 1.403 . S
C297 C294 1.403 . S
C297 C298 1.524 . S
C297 C301 1.400 . S
C298 H283 0.960 . S
C298 H284 0.960 . S
C298 H285 0.960 . S
C298 C297 1.524 . S
C299 C296 1.403 . S
C299 C300 1.392 . S
C299 C303 1.495 . S
C300 C299 1.392 . S
C300 C301 1.385 . S
C300 C302 1.478 . S
C301 H295 0.930 . S
C301 C297 1.400 . S
C301 C300 1.385 . S
C302 C300 1.478 . S
C302 C304 1.381 . S
C302 C308 1.383 . S
C303 C299 1.495 . S
C303 H309 0.959 . S
C303 H310 0.961 . S
C303 H311 0.960 . S
C304 C302 1.381 . S
C304 C305 1.394 . S
C304 H312 0.930 . S
C305 C304 1.394 . S
C305 C306 1.383 . S
C305 H313 0.929 . S
C306 C305 1.383 . S
C306 C307 1.377 . S
C307 H291 0.930 . S
C307 C306 1.377 . S
C307 C308 1.379 . S
C308 H292 0.931 . S
C308 C302 1.383 . S
C308 C307 1.379 . S
H309 C303 0.959 . S
H310 C303 0.961 . S
H311 C303 0.960 . S
H312 C304 0.930 . S
H313 C305 0.929 . S
H314 C322 0.929 . S
H315 C324 0.930 . S
H316 C326 0.930 . S
H317 C329 0.929 . S
H318 C332 0.930 . S
H319 C334 0.960 . S
H320 C334 0.960 . S
H321 C334 0.960 . S
C322 H314 0.929 . S
C322 C323 1.377 . S
C322 C324 1.384 . S
C323 C322 1.377 . S
C323 C329 1.390 . S
C324 H315 0.930 . S
C324 C322 1.384 . S
C324 C325 1.372 . S
C325 C324 1.372 . S
C325 C326 1.400 . S
C325 C330 1.490 . S
C326 H316 0.930 . S
C326 C325 1.400 . S
C326 C329 1.386 . S
H327 C343 0.930 . S
H328 C344 0.931 . S
C329 H317 0.929 . S
C329 C323 1.390 . S
C329 C326 1.386 . S
C330 C325 1.490 . S
C330 C332 1.395 . S
C330 C333 1.403 . S
H331 C337 0.930 . S
C332 H318 0.930 . S
C332 C330 1.395 . S
C332 C335 1.403 . S
C333 C330 1.403 . S
C333 C334 1.524 1_556 S
C333 C337 1.400 . S
C334 H319 0.960 . S
C334 H320 0.960 . S
C334 H321 0.960 . S
C334 C333 1.524 1_554 S
C335 C332 1.403 . S
C335 C336 1.392 . S
C335 C339 1.495 . S
C336 C335 1.392 . S
C336 C337 1.385 . S
C336 C338 1.478 . S
C337 H331 0.930 . S
C337 C333 1.400 . S
C337 C336 1.385 . S
C338 C336 1.478 . S
C338 C340 1.381 . S
C338 C344 1.383 . S
C339 C335 1.495 . S
C339 H345 0.959 . S
C339 H346 0.961 . S
C339 H347 0.960 . S
C340 C338 1.381 . S
C340 C341 1.394 . S
C340 H348 0.930 . S
C341 C340 1.394 . S
C341 C342 1.383 . S
C341 H349 0.929 . S
C342 C341 1.383 . S
C342 C343 1.377 . S
C343 H327 0.930 . S
C343 C342 1.377 . S
C343 C344 1.379 . S
C344 H328 0.931 . S
C344 C338 1.383 . S
C344 C343 1.379 . S
H345 C339 0.959 . S
H346 C339 0.961 . S
H347 C339 0.960 . S
H348 C340 0.930 . S
H349 C341 0.929 . S
H350 C358 0.929 . S
H351 C360 0.930 . S
H352 C362 0.930 . S
H353 C365 0.929 . S
H354 C368 0.930 . S
H355 C370 0.960 . S
H356 C370 0.960 . S
H357 C370 0.960 . S
C358 H350 0.929 . S
C358 C359 1.377 . S
C358 C360 1.384 . S
C359 C358 1.377 . S
C359 C365 1.390 . S
C360 H351 0.930 . S
C360 C358 1.384 . S
C360 C361 1.372 . S
C361 C360 1.372 . S
C361 C362 1.400 . S
C361 C366 1.490 . S
C362 H352 0.930 . S
C362 C361 1.400 . S
C362 C365 1.386 . S
H363 C379 0.930 . S
H364 C380 0.931 . S
C365 H353 0.929 . S
C365 C359 1.390 . S
C365 C362 1.386 . S
C366 C361 1.490 . S
C366 C368 1.395 . S
C366 C369 1.403 . S
H367 C373 0.930 . S
C368 H354 0.930 . S
C368 C366 1.395 . S
C368 C371 1.403 . S
C369 C366 1.403 . S
C369 C370 1.524 . S
C369 C373 1.400 . S
C370 H355 0.960 . S
C370 H356 0.960 . S
C370 H357 0.960 . S
C370 C369 1.524 . S
C371 C368 1.403 . S
C371 C372 1.392 . S
C371 C375 1.495 . S
C372 C371 1.392 . S
C372 C373 1.385 . S
C372 C374 1.478 . S
C373 H367 0.930 . S
C373 C369 1.400 . S
C373 C372 1.385 . S
C374 C372 1.478 . S
C374 C376 1.381 . S
C374 C380 1.383 . S
C375 C371 1.495 . S
C375 H381 0.959 . S
C375 H382 0.961 . S
C375 H383 0.960 . S
C376 C374 1.381 . S
C376 C377 1.394 . S
C376 H384 0.930 . S
C377 C376 1.394 . S
C377 C378 1.383 . S
C377 H385 0.929 . S
C378 C377 1.383 . S
C378 C379 1.377 . S
C379 H363 0.930 . S
C379 C378 1.377 . S
C379 C380 1.379 . S
C380 H364 0.931 . S
C380 C374 1.383 . S
C380 C379 1.379 . S
H381 C375 0.959 . S
H382 C375 0.961 . S
H383 C375 0.960 . S
H384 C376 0.930 . S
H385 C377 0.929 . S
H386 C394 0.929 . S
H387 C396 0.930 . S
H388 C398 0.930 . S
H389 C401 0.929 . S
H390 C404 0.930 . S
H391 C406 0.960 . S
H392 C406 0.960 . S
H393 C406 0.960 . S
C394 H386 0.929 . S
C394 C395 1.377 . S
C394 C396 1.384 . S
C395 C394 1.377 . S
C395 C401 1.390 . S
C396 H387 0.930 . S
C396 C394 1.384 . S
C396 C397 1.372 . S
C397 C396 1.372 . S
C397 C398 1.400 . S
C397 C402 1.490 . S
C398 H388 0.930 . S
C398 C397 1.400 . S
C398 C401 1.386 . S
H399 C415 0.930 . S
H400 C416 0.931 . S
C401 H389 0.929 . S
C401 C395 1.390 . S
C401 C398 1.386 . S
C402 C397 1.490 . S
C402 C404 1.395 . S
C402 C405 1.403 . S
H403 C409 0.930 . S
C404 H390 0.930 . S
C404 C402 1.395 . S
C404 C407 1.403 . S
C405 C402 1.403 . S
C405 C406 1.524 . S
C405 C409 1.400 . S
C406 H391 0.960 . S
C406 H392 0.960 . S
C406 H393 0.960 . S
C406 C405 1.524 . S
C407 C404 1.403 . S
C407 C408 1.392 . S
C407 C411 1.495 . S
C408 C407 1.392 . S
C408 C409 1.385 . S
C408 C410 1.478 . S
C409 H403 0.930 . S
C409 C405 1.400 . S
C409 C408 1.385 . S
C410 C408 1.478 . S
C410 C412 1.381 . S
C410 C416 1.383 . S
C411 C407 1.495 . S
C411 H417 0.959 . S
C411 H418 0.961 . S
C411 H419 0.960 . S
C412 C410 1.381 . S
C412 C413 1.394 . S
C412 H420 0.930 . S
C413 C412 1.394 . S
C413 C414 1.383 . S
C413 H421 0.929 . S
C414 C413 1.383 . S
C414 C415 1.377 . S
C415 H399 0.930 . S
C415 C414 1.377 . S
C415 C416 1.379 . S
C416 H400 0.931 . S
C416 C410 1.383 . S
C416 C415 1.379 . S
H417 C411 0.959 . S
H418 C411 0.961 . S
H419 C411 0.960 . S
H420 C412 0.930 . S
H421 C413 0.929 . S
H422 C430 0.929 . S
H423 C432 0.930 . S
H424 C434 0.930 . S
H425 C437 0.929 . S
H426 C440 0.930 . S
H427 C442 0.960 . S
H428 C442 0.960 . S
H429 C442 0.960 . S
C430 H422 0.929 . S
C430 C431 1.377 . S
C430 C432 1.384 . S
C431 C430 1.377 . S
C431 C437 1.390 . S
C432 H423 0.930 . S
C432 C430 1.384 . S
C432 C433 1.372 . S
C433 C432 1.372 . S
C433 C434 1.400 . S
C433 C438 1.490 . S
C434 H424 0.930 . S
C434 C433 1.400 . S
C434 C437 1.386 . S
H435 C451 0.930 . S
H436 C452 0.931 . S
C437 H425 0.929 . S
C437 C431 1.390 . S
C437 C434 1.386 . S
C438 C433 1.490 . S
C438 C440 1.395 . S
C438 C441 1.403 . S
H439 C445 0.930 . S
C440 H426 0.930 . S
C440 C438 1.395 . S
C440 C443 1.403 . S
C441 C438 1.403 . S
C441 C442 1.524 . S
C441 C445 1.400 . S
C442 H427 0.960 . S
C442 H428 0.960 . S
C442 H429 0.960 . S
C442 C441 1.524 . S
C443 C440 1.403 . S
C443 C444 1.392 . S
C443 C447 1.495 . S
C444 C443 1.392 . S
C444 C445 1.385 . S
C444 C446 1.478 . S
C445 H439 0.930 . S
C445 C441 1.400 . S
C445 C444 1.385 . S
C446 C444 1.478 . S
C446 C448 1.381 . S
C446 C452 1.383 . S
C447 C443 1.495 . S
C447 H453 0.959 . S
C447 H454 0.961 . S
C447 H455 0.960 . S
C448 C446 1.381 . S
C448 C449 1.394 . S
C448 H456 0.930 . S
C449 C448 1.394 . S
C449 C450 1.383 . S
C449 H457 0.929 . S
C450 C449 1.383 . S
C450 C451 1.377 . S
C451 H435 0.930 . S
C451 C450 1.377 . S
C451 C452 1.379 . S
C452 H436 0.931 . S
C452 C446 1.383 . S
C452 C451 1.379 . S
H453 C447 0.959 . S
H454 C447 0.961 . S
H455 C447 0.960 . S
H456 C448 0.930 . S
H457 C449 0.929 . S
H458 C466 0.929 . S
H459 C468 0.930 . S
H460 C470 0.930 . S
H461 C473 0.929 . S
H462 C476 0.930 . S
H463 C478 0.960 . S
H464 C478 0.960 . S
H465 C478 0.960 . S
C466 H458 0.929 . S
C466 C467 1.377 . S
C466 C468 1.384 . S
C467 C466 1.377 . S
C467 C473 1.390 . S
C468 H459 0.930 . S
C468 C466 1.384 . S
C468 C469 1.372 . S
C469 C468 1.372 . S
C469 C470 1.400 . S
C469 C474 1.490 . S
C470 H460 0.930 . S
C470 C469 1.400 . S
C470 C473 1.386 . S
H471 C487 0.930 . S
H472 C488 0.931 . S
C473 H461 0.929 . S
C473 C467 1.390 . S
C473 C470 1.386 . S
C474 C469 1.490 . S
C474 C476 1.395 . S
C474 C477 1.403 . S
H475 C481 0.930 . S
C476 H462 0.930 . S
C476 C474 1.395 . S
C476 C479 1.403 . S
C477 C474 1.403 . S
C477 C478 1.524 . S
C477 C481 1.400 . S
C478 H463 0.960 . S
C478 H464 0.960 . S
C478 H465 0.960 . S
C478 C477 1.524 . S
C479 C476 1.403 . S
C479 C480 1.392 . S
C479 C483 1.495 . S
C480 C479 1.392 . S
C480 C481 1.385 . S
C480 C482 1.478 . S
C481 H475 0.930 . S
C481 C477 1.400 . S
C481 C480 1.385 . S
C482 C480 1.478 . S
C482 C484 1.381 . S
C482 C488 1.383 . S
C483 C479 1.495 . S
C483 H489 0.959 . S
C483 H490 0.961 . S
C483 H491 0.960 . S
C484 C482 1.381 . S
C484 C485 1.394 . S
C484 H492 0.930 . S
C485 C484 1.394 . S
C485 C486 1.383 . S
C485 H493 0.929 . S
C486 C485 1.383 . S
C486 C487 1.377 . S
C487 H471 0.930 . S
C487 C486 1.377 . S
C487 C488 1.379 . S
C488 H472 0.931 . S
C488 C482 1.383 . S
C488 C487 1.379 . S
H489 C483 0.959 . S
H490 C483 0.961 . S
H491 C483 0.960 . S
H492 C484 0.930 . S
H493 C485 0.929 . S
H494 C502 0.929 . S
H495 C504 0.930 . S
H496 C506 0.930 . S
H497 C509 0.929 . S
H498 C512 0.930 . S
H499 C514 0.960 . S
H500 C514 0.960 1_655 S
H501 C514 0.960 . S
C502 H494 0.929 . S
C502 C503 1.377 1_665 S
C502 C504 1.384 . S
C503 C502 1.377 1_445 S
C503 C509 1.390 . S
C504 H495 0.930 . S
C504 C502 1.384 . S
C504 C505 1.372 1_665 S
C505 C504 1.372 1_445 S
C505 C506 1.400 . S
C505 C510 1.490 . S
C506 H496 0.930 . S
C506 C505 1.400 . S
C506 C509 1.386 . S
H507 C523 0.930 . S
H508 C524 0.931 . S
C509 H497 0.929 . S
C509 C503 1.390 . S
C509 C506 1.386 . S
C510 C505 1.490 . S
C510 C512 1.395 1_445 S
C510 C513 1.403 . S
H511 C517 0.930 . S
C512 H498 0.930 . S
C512 C510 1.395 1_665 S
C512 C515 1.403 . S
C513 C510 1.403 . S
C513 C514 1.524 . S
C513 C517 1.400 . S
C514 H499 0.960 . S
C514 H500 0.960 1_455 S
C514 H501 0.960 . S
C514 C513 1.524 . S
C515 C512 1.403 . S
C515 C516 1.392 1_655 S
C515 C519 1.495 . S
C516 C515 1.392 1_455 S
C516 C517 1.386 1_565 S
C516 C518 1.478 . S
C517 H511 0.930 . S
C517 C513 1.400 . S
C517 C516 1.386 1_545 S
C518 C516 1.478 . S
C518 C520 1.375 1_455 S
C518 C524 1.388 1_565 S
C519 C515 1.495 . S
C519 H525 0.959 . S
C519 H526 0.961 1_655 S
C519 H527 0.960 . S
C520 C518 1.375 1_655 S
C520 C521 1.394 . S
C520 H528 0.930 . S
C521 C520 1.394 . S
C521 C522 1.392 . S
C521 H529 0.929 . S
C522 C521 1.392 . S
C522 C523 1.368 1_665 S
C523 H507 0.930 . S
C523 C522 1.368 1_445 S
C523 C524 1.379 . S
C524 H508 0.931 . S
C524 C518 1.388 1_545 S
C524 C523 1.379 . S
H525 C519 0.959 . S
H526 C519 0.961 1_455 S
H527 C519 0.960 . S
H528 C520 0.930 . S
H529 C521 0.929 . S
H530 C538 0.929 . S
H531 C540 0.930 . S
H532 C542 0.930 . S
H533 C545 0.929 . S
H534 C548 0.930 . S
H535 C550 0.960 . S
H536 C550 0.960 . S
H537 C550 0.960 . S
C538 H530 0.929 . S
C538 C539 1.377 1_655 S
C538 C540 1.384 . S
C539 C538 1.377 1_455 S
C539 C545 1.390 . S
C540 H531 0.930 . S
C540 C538 1.384 . S
C540 C541 1.372 1_655 S
C541 C540 1.372 1_455 S
C541 C542 1.400 . S
C541 C546 1.490 . S
C542 H532 0.930 . S
C542 C541 1.400 . S
C542 C545 1.386 . S
H543 C559 0.930 . S
H544 C560 0.931 . S
C545 H533 0.929 . S
C545 C539 1.390 . S
C545 C542 1.386 . S
C546 C541 1.490 . S
C546 C548 1.395 1_455 S
C546 C549 1.403 1_545 S
H547 C553 0.930 . S
C548 H534 0.930 . S
C548 C546 1.395 1_655 S
C548 C551 1.403 . S
C549 C546 1.403 1_565 S
C549 C550 1.524 . S
C549 C553 1.400 . S
C550 H535 0.960 . S
C550 H536 0.960 . S
C550 H537 0.960 . S
C550 C549 1.524 . S
C551 C548 1.403 . S
C551 C552 1.392 1_655 S
C551 C555 1.495 . S
C552 C551 1.392 1_455 S
C552 C553 1.385 1_545 S
C552 C554 1.478 . S
C553 H547 0.930 . S
C553 C549 1.400 . S
C553 C552 1.385 1_565 S
C554 C552 1.478 . S
C554 C556 1.381 1_455 S
C554 C560 1.383 . S
C555 C551 1.495 . S
C555 H561 0.959 . S
C555 H562 0.961 . S
C555 H563 0.960 . S
C556 C554 1.381 1_655 S
C556 C557 1.394 . S
C556 H564 0.930 . S
C557 C556 1.394 . S
C557 C558 1.383 1_655 S
C557 H565 0.929 1_545 S
C558 C557 1.383 1_455 S
C558 C559 1.377 . S
C559 H543 0.930 . S
C559 C558 1.377 . S
C559 C560 1.379 . S
C560 H544 0.931 . S
C560 C554 1.383 . S
C560 C559 1.379 . S
H561 C555 0.959 . S
H562 C555 0.961 . S
H563 C555 0.960 . S
H564 C556 0.930 . S
H565 C557 0.929 1_565 S
H566 C574 0.929 . S
H567 C576 0.930 . S
H568 C578 0.930 . S
H569 C581 0.929 . S
H570 C584 0.930 . S
H571 C586 0.960 . S
H572 C586 0.960 . S
H573 C586 0.960 . S
C574 H566 0.929 . S
C574 C575 1.377 . S
C574 C576 1.384 . S
C575 C574 1.377 . S
C575 C581 1.390 . S
C576 H567 0.930 . S
C576 C574 1.384 . S
C576 C577 1.372 . S
C577 C576 1.372 . S
C577 C578 1.400 . S
C577 C582 1.490 . S
C578 H568 0.930 . S
C578 C577 1.400 . S
C578 C581 1.386 . S
H579 C595 0.930 . S
H580 C596 0.931 . S
C581 H569 0.929 . S
C581 C575 1.390 . S
C581 C578 1.386 . S
C582 C577 1.490 . S
C582 C584 1.395 . S
C582 C585 1.403 . S
H583 C589 0.930 . S
C584 H570 0.930 . S
C584 C582 1.395 . S
C584 C587 1.403 . S
C585 C582 1.403 . S
C585 C586 1.524 . S
C585 C589 1.400 . S
C586 H571 0.960 . S
C586 H572 0.960 . S
C586 H573 0.960 . S
C586 C585 1.524 . S
C587 C584 1.403 . S
C587 C588 1.392 . S
C587 C591 1.495 . S
C588 C587 1.392 . S
C588 C589 1.385 . S
C588 C590 1.478 . S
C589 H583 0.930 . S
C589 C585 1.400 . S
C589 C588 1.385 . S
C590 C588 1.478 . S
C590 C592 1.381 . S
C590 C596 1.383 . S
C591 C587 1.495 . S
C591 H597 0.959 . S
C591 H598 0.961 . S
C591 H599 0.960 . S
C592 C590 1.381 . S
C592 C593 1.394 . S
C592 H600 0.930 . S
C593 C592 1.394 . S
C593 C594 1.383 . S
C593 H601 0.929 . S
C594 C593 1.383 . S
C594 C595 1.377 . S
C595 H579 0.930 . S
C595 C594 1.377 . S
C595 C596 1.379 . S
C596 H580 0.931 . S
C596 C590 1.383 . S
C596 C595 1.379 . S
H597 C591 0.959 . S
H598 C591 0.961 . S
H599 C591 0.960 . S
H600 C592 0.930 . S
H601 C593 0.929 . S
H602 C610 0.929 . S
H603 C612 0.930 . S
H604 C614 0.930 . S
H605 C617 0.929 . S
H606 C620 0.930 . S
H607 C622 0.960 . S
H608 C622 0.960 . S
H609 C622 0.960 . S
C610 H602 0.929 . S
C610 C611 1.377 . S
C610 C612 1.384 . S
C611 C610 1.377 . S
C611 C617 1.390 . S
C612 H603 0.930 . S
C612 C610 1.384 . S
C612 C613 1.372 . S
C613 C612 1.372 . S
C613 C614 1.400 . S
C613 C618 1.490 . S
C614 H604 0.930 . S
C614 C613 1.400 . S
C614 C617 1.386 . S
H615 C631 0.930 . S
H616 C632 0.931 . S
C617 H605 0.929 . S
C617 C611 1.390 . S
C617 C614 1.386 . S
C618 C613 1.490 . S
C618 C620 1.395 . S
C618 C621 1.403 . S
H619 C625 0.930 . S
C620 H606 0.930 . S
C620 C618 1.395 . S
C620 C623 1.403 . S
C621 C618 1.403 . S
C621 C622 1.524 . S
C621 C625 1.400 . S
C622 H607 0.960 . S
C622 H608 0.960 . S
C622 H609 0.960 . S
C622 C621 1.524 . S
C623 C620 1.403 . S
C623 C624 1.392 . S
C623 C627 1.495 . S
C624 C623 1.392 . S
C624 C625 1.385 . S
C624 C626 1.478 . S
C625 H619 0.930 . S
C625 C621 1.400 . S
C625 C624 1.385 . S
C626 C624 1.478 . S
C626 C628 1.381 . S
C626 C632 1.383 . S
C627 C623 1.495 . S
C627 H633 0.959 . S
C627 H634 0.961 . S
C627 H635 0.960 . S
C628 C626 1.381 . S
C628 C629 1.394 . S
C628 H636 0.930 . S
C629 C628 1.394 . S
C629 C630 1.383 . S
C629 H637 0.929 . S
C630 C629 1.383 . S
C630 C631 1.377 . S
C631 H615 0.930 . S
C631 C630 1.377 . S
C631 C632 1.379 . S
C632 H616 0.931 . S
C632 C626 1.383 . S
C632 C631 1.379 . S
H633 C627 0.959 . S
H634 C627 0.961 . S
H635 C627 0.960 . S
H636 C628 0.930 . S
H637 C629 0.929 . S
C234 C168 1.425 . S
C215 C21 1.433 . S
C251 C19 1.415 1_556 S
C270 C128 1.409 . S
C287 C18 1.378 . S
C306 C181 1.391 . S
C323 C20 1.405 1_556 S
C342 C141 1.385 . S
C359 C44 1.431 . S
C378 C88 1.433 . S
C395 C42 1.420 . S
C414 C48 1.404 . S
C450 C101 1.373 . S
C431 C41 1.381 . S
C486 C61 1.404 . S
C467 C43 1.408 . S
C503 C16 1.491 . S
C522 C67 1.484 1_665 S
C539 C17 1.447 . S
C558 C107 1.447 1_545 S
C594 C147 1.461 . S
C575 C39 1.490 . S
C611 C40 1.447 . S
C630 C187 1.442 . S
