# Generated by pormake.
# Topology anh, (6,3)-cn, num edge types: 1
# Building blocks:
#     Node 0, Type 0, BuildingBlock: INOVEN_clean_sbu_0, # of connection points: 6
#     Node 1, Type 0, BuildingBlock: INOVEN_clean_sbu_0, # of connection points: 6
#     Node 2, Type 0, BuildingBlock: INOVEN_clean_sbu_0, # of connection points: 6
#     Node 3, Type 1, BuildingBlock: WUSLED_clean_sbu_0, # of connection points: 3
#     Node 4, Type 1, BuildingBlock: WUSLED_clean_sbu_0, # of connection points: 3
#     Node 5, Type 1, BuildingBlock: WUSLED_clean_sbu_0, # of connection points: 3
#     Node 6, Type 1, BuildingBlock: WUSLED_clean_sbu_0, # of connection points: 3
#     Node 7, Type 1, BuildingBlock: WUSLED_clean_sbu_0, # of connection points: 3
#     Node 8, Type 1, BuildingBlock: WUSLED_clean_sbu_0, # of connection points: 3
#     Edge 9, Type (0, 1), None
#     Edge 10, Type (0, 1), None
#     Edge 11, Type (0, 1), None
#     Edge 12, Type (0, 1), None
#     Edge 13, Type (0, 1), None
#     Edge 14, Type (0, 1), None
#     Edge 15, Type (0, 1), None
#     Edge 16, Type (0, 1), None
#     Edge 17, Type (0, 1), None
#     Edge 18, Type (0, 1), None
#     Edge 19, Type (0, 1), None
#     Edge 20, Type (0, 1), None
#     Edge 21, Type (0, 1), None
#     Edge 22, Type (0, 1), None
#     Edge 23, Type (0, 1), None
#     Edge 24, Type (0, 1), None
#     Edge 25, Type (0, 1), None
#     Edge 26, Type (0, 1), None
# Relax obj value: 0.244
# Max RMSD: 0.246
# Mean RMSD: 0.172
data_MOF--net-anh--node1-INOVEN_clean_sbu_0--node2-WUSLED_clean_sbu_0--edge1-none
_symmetry_space_group_name_H-M    P1
_symmetry_Int_Tables_number       1
_symmetry_cell_setting            triclinic
loop_
_symmetry_equiv_pos_as_xyz
'x, y, z'
_cell_length_a     22.742119
_cell_length_b     29.693981
_cell_length_c     39.964562
_cell_angle_alpha  92.012253
_cell_angle_beta   89.11442
_cell_angle_gamma 133.46326
loop_
_atom_site_label
_atom_site_type_symbol
_atom_site_fract_x
_atom_site_fract_y
_atom_site_fract_z
_atom_type_partial_charge
Gd0 Gd 0.20655 0.56074 0.19473 0.0
Gd1 Gd 1.09878 0.57628 0.18805 0.0
C2 C 0.28305 0.70135 0.19768 0.0
C3 C 0.32125 0.56294 0.1995 0.0
C4 C 0.40695 0.60403 0.19215 0.0
C5 C 0.44787 0.58726 0.20233 0.0
C6 C 0.44542 0.65489 0.17168 0.0
C7 C 0.55286 0.65703 0.16217 0.0
C8 C 0.51939 0.68231 0.15721 0.0
C9 C 0.52113 0.61411 0.18771 0.0
C10 C 1.12449 0.53583 0.25182 0.0
C11 C 1.02406 0.43891 0.18385 0.0
C12 C 0.98874 0.57833 0.19546 0.0
C13 C 0.90049 0.5248 0.19097 0.0
C14 C 0.86299 0.5131 0.16011 0.0
C15 C 0.85441 0.48152 0.21643 0.0
C16 C 0.73491 0.41706 0.18046 0.0
C17 C 0.77246 0.42828 0.21123 0.0
C18 C 0.78132 0.45983 0.15488 0.0
C19 C 1.13512 0.55665 0.12672 0.0
O20 O 0.29758 0.66536 0.19668 0.0
O21 O 0.2088 0.67777 0.19447 0.0
O22 O 0.30294 0.58204 0.22358 0.0
O23 O 0.27207 0.5384 0.17356 0.0
O24 O 1.13246 0.50033 0.23821 0.0
O25 O 0.15735 0.58191 0.23386 0.0
O26 O 1.01288 0.47415 0.19604 0.0
O27 O 1.09727 0.4646 0.17486 0.0
O28 O 1.03296 0.59851 0.16844 0.0
O29 O 1.02148 0.5752 0.22072 0.0
O30 O 1.06335 0.5304 0.13642 0.0
O31 O 0.18572 0.59179 0.15032 0.0
H32 H 0.41945 0.54911 0.21896 0.0
H33 H 0.41503 0.66947 0.1645 0.0
H34 H 0.54423 0.71716 0.13871 0.0
H35 H 0.5455 0.59408 0.193 0.0
H36 H 0.89668 0.5452 0.13996 0.0
H37 H 0.88149 0.48868 0.2405 0.0
H38 H 0.73791 0.39667 0.2315 0.0
H39 H 0.75363 0.45372 0.13121 0.0
Gd40 Gd 0.71043 1.02753 0.48802 0.0
Gd41 Gd 0.59208 0.05023 0.48895 0.0
C42 C 0.51285 0.91057 0.47839 0.0
C43 C 0.77874 0.98613 0.49665 0.0
C44 C 0.75811 0.92871 0.50575 0.0
C45 C 0.79299 0.91089 0.48761 0.0
C46 C 0.70497 0.89153 0.53191 0.0
C47 C 0.72258 0.81973 0.52154 0.0
C48 C 0.68771 0.83773 0.53982 0.0
C49 C 0.77544 0.85713 0.49534 0.0
C50 C 0.69811 0.06469 0.43016 0.0
C51 C 0.78939 0.16708 0.49641 0.0
C52 C 0.52739 0.09319 0.47673 0.0
C53 C 0.53856 0.14409 0.49346 0.0
C54 C 0.56659 0.16254 0.52675 0.0
C55 C 0.52716 0.17763 0.47569 0.0
C56 C 0.57347 0.2482 0.52415 0.0
C57 C 0.54409 0.229 0.4909 0.0
C58 C 0.58346 0.21365 0.54192 0.0
C59 C 0.62453 0.03842 0.55245 0.0
O60 O 0.5841 0.9312 0.48733 0.0
O61 O 0.50166 0.94838 0.474 0.0
O62 O 0.75136 0.98454 0.46761 0.0
O63 O 0.77569 1.01649 0.52011 0.0
O64 O 0.76375 0.08046 0.4412 0.0
O65 O 0.63936 1.02695 0.44959 0.0
O66 O 0.71775 0.14569 0.48798 0.0
O67 O 0.80057 0.12977 0.50273 0.0
O68 O 0.49094 0.04331 0.49408 0.0
O69 O 0.59096 0.11086 0.46088 0.0
O70 O 0.57791 0.04771 0.54635 0.0
O71 O 0.64956 0.03705 0.52476 0.0
H72 H 0.83427 0.93883 0.4674 0.0
H73 H 0.67659 0.9038 0.54615 0.0
H74 H 0.64612 0.80974 0.55993 0.0
H75 H 0.80434 0.84535 0.48101 0.0
H76 H 0.57668 0.13796 0.54098 0.0
H77 H 0.50653 0.16476 0.44985 0.0
H78 H 0.53621 0.25465 0.47634 0.0
H79 H 0.60455 0.22615 0.5677 0.0
Gd80 Gd 0.75469 0.61765 0.86482 0.0
Gd81 Gd 0.64237 0.47762 0.85383 0.0
C82 C 0.56117 0.53805 0.86954 0.0
C83 C 0.84358 0.73412 0.8539 0.0
C84 C 0.82455 0.77158 0.84482 0.0
C85 C 0.78879 0.78345 0.8679 0.0
C86 C 0.84123 0.79539 0.81257 0.0
C87 C 0.78772 0.84242 0.82685 0.0
C88 C 0.8229 0.83008 0.80368 0.0
C89 C 0.77073 0.81825 0.85906 0.0
C90 C 0.69685 0.55013 0.91997 0.0
C91 C 0.8374 0.55685 0.8662 0.0
C92 C 0.5507 0.35848 0.85093 0.0
C93 C 0.56666 0.31954 0.83921 0.0
C94 C 0.60834 0.33219 0.80926 0.0
C95 C 0.54239 0.27039 0.85833 0.0
C96 C 0.6009 0.24715 0.81767 0.0
C97 C 0.5591 0.23451 0.84768 0.0
C98 C 0.62491 0.29644 0.79861 0.0
C99 C 0.70365 0.54405 0.79749 0.0
O100 O 0.63486 0.59289 0.86421 0.0
O101 O 0.55014 0.48717 0.86951 0.0
O102 O 0.82454 0.71188 0.88407 0.0
O103 O 0.82844 0.69448 0.83092 0.0
O104 O 0.70749 0.59904 0.91816 0.0
O105 O 0.72069 0.54279 0.89403 0.0
O106 O 0.76136 0.50156 0.86347 0.0
O107 O 0.85066 0.60869 0.86528 0.0
O108 O 0.55002 0.3886 0.82802 0.0
O109 O 0.58838 0.39224 0.8784 0.0
O110 O 0.69701 0.49794 0.80272 0.0
O111 O 0.67743 0.55272 0.82245 0.0
H112 H 0.7743 0.76567 0.8929 0.0
H113 H 0.86875 0.78727 0.79414 0.0
H114 H 0.83775 0.84822 0.77877 0.0
H115 H 0.74246 0.8256 0.87752 0.0
H116 H 0.62843 0.36991 0.79395 0.0
H117 H 0.51078 0.25989 0.88165 0.0
H118 H 0.54018 0.19738 0.8632 0.0
H119 H 0.65583 0.30712 0.77509 0.0
C120 C 0.82348 0.24045 0.18514 0.0
C121 C 0.81596 0.28064 0.19852 0.0
C122 C 0.95525 0.37062 0.1835 0.0
C123 C 0.88096 0.34488 0.19765 0.0
C124 C 0.96289 0.33053 0.17007 0.0
C125 C 0.89744 0.26605 0.17074 0.0
U126 U 0.66616 0.08242 0.22744 0.0
O127 O 0.62513 0.99326 0.21 0.0
O128 O 0.53894 1.00442 0.21231 0.0
C129 C 0.55029 0.96742 0.2047 0.0
C130 C 0.75415 0.1722 0.18458 0.0
C131 C 0.48261 0.89992 0.20957 0.0
C132 C 0.33751 0.80878 0.20514 0.0
C133 C 0.40217 0.87318 0.20839 0.0
C134 C 0.43173 0.796 0.20524 0.0
C135 C 0.35148 0.76948 0.20277 0.0
C136 C 0.49649 0.86051 0.20844 0.0
C137 C 0.69548 0.09953 0.32694 0.0
C138 C 0.62044 0.04 0.37662 0.0
C139 C 0.76555 0.12806 0.38009 0.0
C140 C 0.76669 0.1385 0.34632 0.0
C141 C 0.69298 0.07825 0.39558 0.0
C142 C 0.62167 0.05056 0.34233 0.0
C143 C 0.70339 0.11404 0.29125 0.0
O144 O 0.77023 0.13943 0.19349 0.0
O145 O 0.68508 0.15114 0.19646 0.0
O146 O 0.64658 0.10746 0.27632 0.0
O147 O 0.73788 0.10163 0.27157 0.0
H148 H 0.75981 0.26268 0.20959 0.0
H149 H 0.87285 0.37432 0.20831 0.0
H150 H 1.01921 0.34888 0.15899 0.0
H151 H 0.90456 0.23611 0.15989 0.0
H152 H 0.2763 0.78992 0.2036 0.0
H153 H 0.38928 0.90213 0.20844 0.0
H154 H 0.44478 0.76728 0.20374 0.0
H155 H 0.55767 0.87948 0.20854 0.0
H156 H 0.56371 1.00102 0.38794 0.0
H157 H 0.82233 0.15856 0.39401 0.0
H158 H 0.82408 0.17705 0.33515 0.0
H159 H 0.56577 1.0202 0.32787 0.0
C160 C 0.67727 0.65652 0.54384 0.0
C161 C 0.68802 0.69462 0.56996 0.0
C162 C 0.70441 0.76237 0.52948 0.0
C163 C 0.7012 0.74696 0.56285 0.0
C164 C 0.69239 0.72333 0.50351 0.0
C165 C 0.67898 0.67106 0.51064 0.0
U166 U 0.66872 0.5533 0.60336 0.0
O167 O 0.58706 0.45152 0.60326 0.0
O168 O 0.7181 0.51041 0.59783 0.0
C169 C 0.64623 0.45355 0.59857 0.0
C170 C 0.66587 0.6023 0.55053 0.0
C171 C 0.63147 0.40603 0.57565 0.0
C172 C 0.54642 0.31716 0.53615 0.0
C173 C 0.56414 0.36729 0.55373 0.0
C174 C 0.66395 0.34474 0.5614 0.0
C175 C 0.59513 0.30437 0.54037 0.0
C176 C 0.68165 0.39465 0.57879 0.0
C177 C 0.70388 0.59296 0.69741 0.0
C178 C 0.71857 0.53932 0.73567 0.0
C179 C 0.69966 0.60564 0.75769 0.0
C180 C 0.69696 0.61969 0.72495 0.0
C181 C 0.70942 0.56462 0.76335 0.0
C182 C 0.71547 0.55313 0.70301 0.0
C183 C 0.69687 0.60558 0.66306 0.0
O184 O 0.73084 0.61509 0.56068 0.0
O185 O 0.60067 0.55775 0.56727 0.0
O186 O 0.62424 0.56431 0.64933 0.0
O187 O 0.75451 0.62292 0.64249 0.0
H188 H 0.68709 0.68425 0.59579 0.0
H189 H 0.71088 0.7762 0.58345 0.0
H190 H 0.6932 0.7331 0.47757 0.0
H191 H 0.67052 0.64215 0.49013 0.0
H192 H 0.49282 0.28704 0.52028 0.0
H193 H 0.52388 0.37452 0.55092 0.0
H194 H 0.70391 0.33735 0.56481 0.0
H195 H 0.73361 0.42343 0.59563 0.0
H196 H 0.72603 0.50748 0.7392 0.0
H197 H 0.69233 0.62575 0.77851 0.0
H198 H 0.68809 0.65063 0.72111 0.0
H199 H 0.72084 0.53195 0.6821 0.0
C200 C 1.03218 0.55617 0.88706 0.0
C201 C 0.94882 0.50133 0.88353 0.0
C202 C 0.90614 0.55824 0.87325 0.0
C203 C 0.88808 0.50233 0.87698 0.0
C204 C 0.9895 0.6134 0.87705 0.0
C205 C 1.05064 0.61235 0.8835 0.0
U206 U 0.20119 0.55046 0.91936 0.0
O207 O 0.22339 0.49376 0.89528 0.0
O208 O 0.31715 0.59401 0.89348 0.0
C209 C 0.29801 0.54165 0.88612 0.0
C210 C 1.09855 0.55373 0.88881 0.0
C211 C 0.36482 0.53954 0.88626 0.0
C212 C 0.50907 0.59271 0.87812 0.0
C213 C 0.44793 0.59411 0.883 0.0
C214 C 0.40875 0.48177 0.87964 0.0
C215 C 0.49182 0.53664 0.87595 0.0
C216 C 0.34711 0.48319 0.8844 0.0
C217 C 0.19036 0.55998 0.02089 0.0
C218 C 0.23554 0.59833 0.07924 0.0
C219 C 1.09255 0.51941 0.06615 0.0
C220 C 1.10983 0.52005 0.03198 0.0
C221 C 0.15508 0.55812 0.0904 0.0
C222 C 0.25279 0.59924 0.04505 0.0
C223 C 0.21182 0.55617 0.98577 0.0
O224 O 0.17436 0.60322 0.89691 0.0
O225 O 1.07987 0.50259 0.89696 0.0
O226 O 0.25676 0.60559 0.96735 0.0
O227 O 0.15988 0.50415 0.9679 0.0
H228 H 0.93006 0.45664 0.88506 0.0
H229 H 0.82589 0.45821 0.87451 0.0
H230 H 1.00809 0.65787 0.8746 0.0
H231 H 1.11326 0.65612 0.88503 0.0
H232 H 0.57095 0.63668 0.87557 0.0
H233 H 0.46618 0.63876 0.88335 0.0
H234 H 0.39071 0.4372 0.87822 0.0
H235 H 0.28469 0.43945 0.88588 0.0
H236 H 0.28533 0.62886 0.09697 0.0
H237 H 1.02975 0.4878 0.07366 0.0
H238 H 1.06011 0.48846 0.01438 0.0
H239 H 0.31553 0.62977 0.03756 0.0
C240 C 0.98846 0.36692 0.49549 0.0
C241 C 0.91318 0.33729 0.48089 0.0
C242 C 0.85905 0.23577 0.49634 0.0
C243 C 0.8494 0.27277 0.48144 0.0
C244 C 0.9349 0.26531 0.51044 0.0
C245 C 0.9988 0.3303 0.51018 0.0
U246 U 1.12866 0.52743 0.45499 0.0
O247 O 0.25889 0.60643 0.46503 0.0
O248 O 0.17305 0.6163 0.47579 0.0
C249 C 0.24913 0.64312 0.47619 0.0
C250 C 1.05547 0.43568 0.49664 0.0
C251 C 0.31441 0.71065 0.46988 0.0
C252 C 0.45908 0.80333 0.47253 0.0
C253 C 0.39535 0.73874 0.47082 0.0
C254 C 0.36318 0.81425 0.47087 0.0
C255 C 0.44401 0.84208 0.47342 0.0
C256 C 0.29899 0.7492 0.46939 0.0
C257 C 1.08463 0.51238 0.35711 0.0
C258 C 0.15768 0.58184 0.31051 0.0
C259 C 1.03969 0.4726 0.29984 0.0
C260 C 1.02928 0.46334 0.3342 0.0
C261 C 1.10489 0.53144 0.28762 0.0
C262 C 0.14804 0.57224 0.34521 0.0
C263 C 1.07824 0.49636 0.39232 0.0
O264 O 1.12141 0.45885 0.48043 0.0
O265 O 1.03534 0.46745 0.49276 0.0
O266 O 1.04984 0.51093 0.4145 0.0
O267 O 1.1356 0.50071 0.40419 0.0
H268 H 0.90317 0.36393 0.46919 0.0
H269 H 0.79233 0.25195 0.46993 0.0
H270 H 0.9446 0.23841 0.52203 0.0
H271 H 1.05629 0.35208 0.52168 0.0
H272 H 0.52037 0.82275 0.47413 0.0
H273 H 0.40961 0.71071 0.47191 0.0
H274 H 0.34925 0.84257 0.47141 0.0
H275 H 0.23737 0.72924 0.4693 0.0
H276 H 0.20933 0.62746 0.30159 0.0
H277 H 0.99874 0.43302 0.2827 0.0
H278 H 0.98018 0.41678 0.34285 0.0
H279 H 0.19178 0.61059 0.36253 0.0
C280 C 0.73457 0.95327 0.80201 0.0
C281 C 0.72286 0.91191 0.77797 0.0
C282 C 0.76996 0.881 0.81787 0.0
C283 C 0.7405 0.87628 0.78579 0.0
C284 C 0.78212 0.92307 0.84161 0.0
C285 C 0.76469 0.95857 0.83377 0.0
U286 U 0.68295 1.02708 0.74514 0.0
O287 O 0.59726 0.03808 0.75416 0.0
O288 O 0.72708 0.12052 0.74919 0.0
C289 C 0.65439 0.09909 0.75421 0.0
C290 C 0.71482 0.99066 0.79529 0.0
C291 C 0.64638 0.13609 0.7764 0.0
C292 C 0.56116 0.14399 0.8086 0.0
C293 C 0.57461 0.10797 0.79397 0.0
C294 C 0.69188 0.23709 0.78948 0.0
C295 C 0.61865 0.209 0.80571 0.0
C296 C 0.70535 0.20121 0.77498 0.0
C297 C 0.66657 1.00582 0.64968 0.0
C298 C 0.62317 0.04469 0.61512 0.0
C299 C 0.67021 0.99983 0.58886 0.0
C300 C 0.68332 0.98887 0.62048 0.0
C301 C 0.64032 1.02801 0.58582 0.0
C302 C 0.63654 0.03397 0.64679 0.0
C303 C 0.68061 0.99386 0.68284 0.0
O304 O 0.77049 0.04334 0.78026 0.0
O305 O 0.6411 0.96028 0.78435 0.0
O306 O 0.61747 0.95979 0.70255 0.0
O307 O 0.74712 0.04222 0.69863 0.0
H308 H 0.69957 0.90684 0.75327 0.0
H309 H 0.72962 0.84419 0.76686 0.0
H310 H 0.80598 0.92915 0.86633 0.0
H311 H 0.77456 0.99025 0.85273 0.0
H312 H 0.50383 0.12049 0.82068 0.0
H313 H 0.52711 0.05791 0.79512 0.0
H314 H 0.73838 0.28699 0.78723 0.0
H315 H 0.76074 0.22448 0.76124 0.0
H316 H 0.59967 0.06624 0.61356 0.0
H317 H 0.68162 0.98496 0.56681 0.0
H318 H 0.70606 0.96677 0.62212 0.0
H319 H 0.62326 0.04748 0.66901 0.0
C320 C 0.51356 0.34791 0.15429 0.0
C321 C 0.543 0.32734 0.13424 0.0
C322 C 0.64561 0.36918 0.17671 0.0
C323 C 0.61062 0.33917 0.14532 0.0
C324 C 0.59988 0.37085 0.19982 0.0
C325 C 0.53261 0.35928 0.18856 0.0
U326 U 0.53691 0.43015 0.07805 0.0
O327 O 0.50664 0.48406 0.06598 0.0
O328 O 0.63383 0.52987 0.07036 0.0
C329 C 0.58335 0.53693 0.0668 0.0
C330 C 0.5107 0.3904 0.13892 0.0
C331 C 0.6016 0.58695 0.08746 0.0
C332 C 0.64279 0.64235 0.14105 0.0
C333 C 0.64418 0.60678 0.11799 0.0
C334 C 0.56525 0.64468 0.10157 0.0
C335 C 0.59544 0.6555 0.13438 0.0
C336 C 0.56799 0.61022 0.07833 0.0
C337 C 0.56718 0.41187 0.99386 0.0
C338 C 0.59441 0.49534 0.96486 0.0
C339 C 0.6649 0.46336 0.94932 0.0
C340 C 0.62312 0.4183 0.97362 0.0
C341 C 0.65227 0.50318 0.94551 0.0
C342 C 0.55167 0.44966 0.98864 0.0
C343 C 0.54192 0.37995 0.02558 0.0
O344 O 0.58207 0.43945 0.12785 0.0
O345 O 0.45109 0.36745 0.11791 0.0
O346 O 0.47265 0.35936 0.03702 0.0
O347 O 0.60044 0.41123 0.04823 0.0
H348 H 0.52678 0.31604 0.10789 0.0
H349 H 0.6431 0.33501 0.12745 0.0
H350 H 0.62378 0.39182 0.22463 0.0
H351 H 0.5081 0.37284 0.20484 0.0
H352 H 0.66945 0.65218 0.16564 0.0
H353 H 0.67271 0.59072 0.12522 0.0
H354 H 0.52949 0.65486 0.095 0.0
H355 H 0.53689 0.59669 0.05445 0.0
H356 H 0.58268 0.5247 0.96181 0.0
H357 H 0.70914 0.4685 0.93426 0.0
H358 H 0.63757 0.39094 0.97779 0.0
H359 H 0.50963 0.44638 1.00426 0.0
loop_
_geom_bond_atom_site_label_1
_geom_bond_atom_site_label_2
_geom_bond_distance
_geom_bond_site_symmetry_2
_ccdc_geom_bond_type
Gd0 C3 2.818 . S
Gd0 O20 2.377 . S
Gd0 O22 2.448 . S
Gd0 O23 2.506 . S
Gd0 O24 2.435 . S
Gd0 O25 2.717 . S
Gd0 O27 2.395 1_455 S
Gd0 O31 2.327 . S
Gd1 C12 2.818 . S
Gd1 O21 2.395 1_655 S
Gd1 O25 2.327 1_655 S
Gd1 O26 2.377 . S
Gd1 O28 2.448 . S
Gd1 O29 2.506 . S
Gd1 O30 2.435 . S
Gd1 O31 2.717 1_655 S
C2 O20 1.240 . S
C2 O21 1.240 . S
C3 Gd0 2.818 . S
C3 C4 1.510 . S
C3 O22 1.249 . S
C3 O23 1.252 . S
C4 C3 1.510 . S
C4 C5 1.404 . S
C4 C6 1.352 . S
C5 C4 1.404 . S
C5 C9 1.389 . S
C5 H32 0.930 . S
C6 C4 1.352 . S
C6 C8 1.374 . S
C6 H33 0.931 . S
C7 C8 1.359 . S
C7 C9 1.364 . S
C8 C6 1.374 . S
C8 C7 1.359 . S
C8 H34 0.931 . S
C9 C5 1.389 . S
C9 C7 1.364 . S
C9 H35 0.931 . S
C10 O24 1.256 . S
C10 O25 1.257 . S
C11 O26 1.240 . S
C11 O27 1.240 . S
C12 Gd1 2.818 . S
C12 C13 1.510 . S
C12 O28 1.249 . S
C12 O29 1.252 . S
C13 C12 1.510 . S
C13 C14 1.404 . S
C13 C15 1.352 . S
C14 C13 1.404 . S
C14 C18 1.389 . S
C14 H36 0.930 . S
C15 C13 1.352 . S
C15 C17 1.374 . S
C15 H37 0.931 . S
C16 C17 1.359 . S
C16 C18 1.364 . S
C17 C15 1.374 . S
C17 C16 1.359 . S
C17 H38 0.931 . S
C18 C14 1.389 . S
C18 C16 1.364 . S
C18 H39 0.931 . S
C19 O30 1.256 1_455 S
C19 O31 1.257 . S
O20 Gd0 2.377 . S
O20 C2 1.240 . S
O21 Gd1 2.395 1_455 S
O21 C2 1.240 . S
O22 Gd0 2.448 . S
O22 C3 1.249 . S
O23 Gd0 2.506 . S
O23 C3 1.252 . S
O24 Gd0 2.435 . S
O24 C10 1.256 . S
O25 Gd0 2.717 . S
O25 Gd1 2.327 1_455 S
O25 C10 1.257 . S
O26 Gd1 2.377 . S
O26 C11 1.240 . S
O27 Gd0 2.395 1_655 S
O27 C11 1.240 . S
O28 Gd1 2.448 . S
O28 C12 1.249 . S
O29 Gd1 2.506 . S
O29 C12 1.252 . S
O30 Gd1 2.435 . S
O30 C19 1.256 1_655 S
O31 Gd0 2.327 . S
O31 Gd1 2.717 1_455 S
O31 C19 1.257 . S
H32 C5 0.930 . S
H33 C6 0.931 . S
H34 C8 0.931 . S
H35 C9 0.931 . S
H36 C14 0.930 . S
H37 C15 0.931 . S
H38 C17 0.931 . S
H39 C18 0.931 . S
Gd40 C43 2.818 . S
Gd40 O60 2.377 . S
Gd40 O62 2.448 . S
Gd40 O63 2.506 . S
Gd40 O64 2.435 . S
Gd40 O65 2.717 1_565 S
Gd40 O67 2.395 1_565 S
Gd40 O71 2.314 1_565 S
Gd41 C52 2.818 . S
Gd41 O61 2.395 1_545 S
Gd41 O65 2.327 . S
Gd41 O66 2.377 . S
Gd41 O68 2.448 . S
Gd41 O69 2.506 . S
Gd41 O70 2.435 . S
Gd41 O71 2.739 . S
C42 O60 1.240 . S
C42 O61 1.240 . S
C43 Gd40 2.818 . S
C43 C44 1.510 . S
C43 O62 1.249 . S
C43 O63 1.252 . S
C44 C43 1.510 . S
C44 C45 1.404 . S
C44 C46 1.352 . S
C45 C44 1.404 . S
C45 C49 1.389 . S
C45 H72 0.930 . S
C46 C44 1.352 . S
C46 C48 1.374 . S
C46 H73 0.931 . S
C47 C48 1.359 . S
C47 C49 1.364 . S
C48 C46 1.374 . S
C48 C47 1.359 . S
C48 H74 0.931 . S
C49 C45 1.389 . S
C49 C47 1.364 . S
C49 H75 0.931 . S
C50 O64 1.256 1_545 S
C50 O65 1.257 . S
C51 O66 1.240 . S
C51 O67 1.240 . S
C52 Gd41 2.818 . S
C52 C53 1.510 . S
C52 O68 1.249 . S
C52 O69 1.252 . S
C53 C52 1.510 . S
C53 C54 1.404 . S
C53 C55 1.352 . S
C54 C53 1.404 . S
C54 C58 1.389 . S
C54 H76 0.930 . S
C55 C53 1.352 . S
C55 C57 1.374 . S
C55 H77 0.931 . S
C56 C57 1.359 . S
C56 C58 1.364 . S
C57 C55 1.374 . S
C57 C56 1.359 . S
C57 H78 0.931 . S
C58 C54 1.389 . S
C58 C56 1.364 . S
C58 H79 0.931 . S
C59 O70 1.256 . S
C59 O71 1.270 . S
O60 Gd40 2.377 . S
O60 C42 1.240 . S
O61 Gd41 2.395 1_565 S
O61 C42 1.240 . S
O62 Gd40 2.448 . S
O62 C43 1.249 . S
O63 Gd40 2.506 . S
O63 C43 1.252 . S
O64 Gd40 2.435 . S
O64 C50 1.256 1_565 S
O65 Gd40 2.717 1_545 S
O65 Gd41 2.327 . S
O65 C50 1.257 . S
O66 Gd41 2.377 . S
O66 C51 1.240 . S
O67 Gd40 2.395 1_545 S
O67 C51 1.240 . S
O68 Gd41 2.448 . S
O68 C52 1.249 . S
O69 Gd41 2.506 . S
O69 C52 1.252 . S
O70 Gd41 2.435 . S
O70 C59 1.256 . S
O71 Gd40 2.314 1_545 S
O71 Gd41 2.739 . S
O71 C59 1.270 . S
H72 C45 0.930 . S
H73 C46 0.931 . S
H74 C48 0.931 . S
H75 C49 0.931 . S
H76 C54 0.930 . S
H77 C55 0.931 . S
H78 C57 0.931 . S
H79 C58 0.931 . S
Gd80 C83 2.818 . S
Gd80 O100 2.377 . S
Gd80 O102 2.448 . S
Gd80 O103 2.506 . S
Gd80 O104 2.435 . S
Gd80 O105 2.717 . S
Gd80 O107 2.395 . S
Gd80 O111 2.327 . S
Gd81 C92 2.818 . S
Gd81 O101 2.395 . S
Gd81 O105 2.327 . S
Gd81 O106 2.377 . S
Gd81 O108 2.448 . S
Gd81 O109 2.506 . S
Gd81 O110 2.435 . S
Gd81 O111 2.717 . S
C82 O100 1.240 . S
C82 O101 1.240 . S
C83 Gd80 2.818 . S
C83 C84 1.510 . S
C83 O102 1.249 . S
C83 O103 1.252 . S
C84 C83 1.510 . S
C84 C85 1.404 . S
C84 C86 1.352 . S
C85 C84 1.404 . S
C85 C89 1.389 . S
C85 H112 0.930 . S
C86 C84 1.352 . S
C86 C88 1.374 . S
C86 H113 0.931 . S
C87 C88 1.359 . S
C87 C89 1.364 . S
C88 C86 1.374 . S
C88 C87 1.359 . S
C88 H114 0.931 . S
C89 C85 1.389 . S
C89 C87 1.364 . S
C89 H115 0.931 . S
C90 O104 1.256 . S
C90 O105 1.257 . S
C91 O106 1.240 . S
C91 O107 1.240 . S
C92 Gd81 2.818 . S
C92 C93 1.510 . S
C92 O108 1.249 . S
C92 O109 1.252 . S
C93 C92 1.510 . S
C93 C94 1.404 . S
C93 C95 1.352 . S
C94 C93 1.404 . S
C94 C98 1.389 . S
C94 H116 0.930 . S
C95 C93 1.352 . S
C95 C97 1.374 . S
C95 H117 0.931 . S
C96 C97 1.359 . S
C96 C98 1.364 . S
C97 C95 1.374 . S
C97 C96 1.359 . S
C97 H118 0.931 . S
C98 C94 1.389 . S
C98 C96 1.364 . S
C98 H119 0.931 . S
C99 O110 1.256 . S
C99 O111 1.257 . S
O100 Gd80 2.377 . S
O100 C82 1.240 . S
O101 Gd81 2.395 . S
O101 C82 1.240 . S
O102 Gd80 2.448 . S
O102 C83 1.249 . S
O103 Gd80 2.506 . S
O103 C83 1.252 . S
O104 Gd80 2.435 . S
O104 C90 1.256 . S
O105 Gd80 2.717 . S
O105 Gd81 2.327 . S
O105 C90 1.257 . S
O106 Gd81 2.377 . S
O106 C91 1.240 . S
O107 Gd80 2.395 . S
O107 C91 1.240 . S
O108 Gd81 2.448 . S
O108 C92 1.249 . S
O109 Gd81 2.506 . S
O109 C92 1.252 . S
O110 Gd81 2.435 . S
O110 C99 1.256 . S
O111 Gd80 2.327 . S
O111 Gd81 2.717 . S
O111 C99 1.257 . S
H112 C85 0.930 . S
H113 C86 0.931 . S
H114 C88 0.931 . S
H115 C89 0.931 . S
H116 C94 0.930 . S
H117 C95 0.931 . S
H118 C97 0.931 . S
H119 C98 0.931 . S
C120 C121 1.264 . S
C120 C125 1.479 . S
C120 C130 1.465 . S
C121 C120 1.264 . S
C121 C123 1.339 . S
C121 H148 0.931 . S
C122 C123 1.395 . S
C122 C124 1.320 . S
C123 C121 1.339 . S
C123 C122 1.395 . S
C123 H149 0.929 . S
C124 C122 1.320 . S
C124 C125 1.405 . S
C124 H150 0.930 . S
C125 C120 1.479 . S
C125 C124 1.405 . S
C125 H151 0.931 . S
U126 O127 2.454 1_545 S
U126 O128 2.458 1_545 S
U126 C129 2.984 1_545 S
U126 C130 2.847 . S
U126 C143 2.882 . S
U126 O144 2.441 . S
U126 O145 2.420 . S
U126 O146 2.455 1_545 S
U126 O147 2.449 . S
O127 U126 2.454 1_565 S
O127 C129 1.353 . S
O128 U126 2.458 1_565 S
O128 C129 1.286 . S
C129 U126 2.984 1_565 S
C129 O127 1.353 . S
C129 O128 1.286 . S
C129 C131 1.363 . S
C130 C120 1.465 . S
C130 U126 2.847 . S
C130 O144 1.249 . S
C130 O145 1.202 . S
C131 C129 1.363 . S
C131 C133 1.408 . S
C131 C136 1.342 . S
C132 C133 1.310 . S
C132 C135 1.461 . S
C132 H152 0.932 . S
C133 C131 1.408 . S
C133 C132 1.310 . S
C133 H153 0.930 . S
C134 C135 1.474 . S
C134 C136 1.285 . S
C134 H154 0.929 . S
C135 C132 1.461 . S
C135 C134 1.474 . S
C136 C131 1.342 . S
C136 C134 1.285 . S
C136 H155 0.930 . S
C137 C140 1.424 . S
C137 C142 1.245 1_545 S
C137 C143 1.428 . S
C138 C141 1.260 1_565 S
C138 C142 1.477 . S
C138 H156 0.932 . S
C139 C140 1.384 . S
C139 C141 1.479 . S
C139 H157 0.929 . S
C140 C137 1.424 . S
C140 C139 1.384 . S
C140 H158 0.928 . S
C141 C138 1.260 1_545 S
C141 C139 1.479 . S
C142 C137 1.245 1_565 S
C142 C138 1.477 . S
C142 H159 0.932 . S
C143 U126 2.882 . S
C143 C137 1.428 . S
C143 O146 1.301 1_545 S
C143 O147 1.282 . S
O144 U126 2.441 . S
O144 C130 1.249 . S
O145 U126 2.420 . S
O145 C130 1.202 . S
O146 U126 2.455 1_565 S
O146 C143 1.301 1_565 S
O147 U126 2.449 . S
O147 C143 1.282 . S
H148 C121 0.931 . S
H149 C123 0.929 . S
H150 C124 0.930 . S
H151 C125 0.931 . S
H152 C132 0.932 . S
H153 C133 0.930 . S
H154 C134 0.929 . S
H155 C136 0.930 . S
H156 C138 0.932 . S
H157 C139 0.929 . S
H158 C140 0.928 . S
H159 C142 0.932 . S
C160 C161 1.264 . S
C160 C165 1.479 . S
C160 C170 1.465 . S
C161 C160 1.264 . S
C161 C163 1.339 . S
C161 H188 0.931 . S
C162 C163 1.395 . S
C162 C164 1.320 . S
C163 C161 1.339 . S
C163 C162 1.395 . S
C163 H189 0.929 . S
C164 C162 1.320 . S
C164 C165 1.405 . S
C164 H190 0.930 . S
C165 C160 1.479 . S
C165 C164 1.405 . S
C165 H191 0.931 . S
U166 O167 2.454 . S
U166 O168 2.458 . S
U166 C169 2.984 . S
U166 C170 2.847 . S
U166 C183 2.882 . S
U166 O184 2.441 . S
U166 O185 2.420 . S
U166 O186 2.455 . S
U166 O187 2.449 . S
O167 U166 2.454 . S
O167 C169 1.353 . S
O168 U166 2.458 . S
O168 C169 1.286 . S
C169 U166 2.984 . S
C169 O167 1.353 . S
C169 O168 1.286 . S
C169 C171 1.363 . S
C170 C160 1.465 . S
C170 U166 2.847 . S
C170 O184 1.249 . S
C170 O185 1.202 . S
C171 C169 1.363 . S
C171 C173 1.408 . S
C171 C176 1.342 . S
C172 C173 1.310 . S
C172 C175 1.461 . S
C172 H192 0.932 . S
C173 C171 1.408 . S
C173 C172 1.310 . S
C173 H193 0.930 . S
C174 C175 1.474 . S
C174 C176 1.285 . S
C174 H194 0.929 . S
C175 C172 1.461 . S
C175 C174 1.474 . S
C176 C171 1.342 . S
C176 C174 1.285 . S
C176 H195 0.930 . S
C177 C180 1.424 . S
C177 C182 1.245 . S
C177 C183 1.428 . S
C178 C181 1.260 . S
C178 C182 1.477 . S
C178 H196 0.932 . S
C179 C180 1.384 . S
C179 C181 1.479 . S
C179 H197 0.929 . S
C180 C177 1.424 . S
C180 C179 1.384 . S
C180 H198 0.928 . S
C181 C178 1.260 . S
C181 C179 1.479 . S
C182 C177 1.245 . S
C182 C178 1.477 . S
C182 H199 0.932 . S
C183 U166 2.882 . S
C183 C177 1.428 . S
C183 O186 1.301 . S
C183 O187 1.282 . S
O184 U166 2.441 . S
O184 C170 1.249 . S
O185 U166 2.420 . S
O185 C170 1.202 . S
O186 U166 2.455 . S
O186 C183 1.301 . S
O187 U166 2.449 . S
O187 C183 1.282 . S
H188 C161 0.931 . S
H189 C163 0.929 . S
H190 C164 0.930 . S
H191 C165 0.931 . S
H192 C172 0.932 . S
H193 C173 0.930 . S
H194 C174 0.929 . S
H195 C176 0.930 . S
H196 C178 0.932 . S
H197 C179 0.929 . S
H198 C180 0.928 . S
H199 C182 0.932 . S
C200 C201 1.264 . S
C200 C205 1.479 . S
C200 C210 1.465 . S
C201 C200 1.264 . S
C201 C203 1.339 . S
C201 H228 0.931 . S
C202 C203 1.395 . S
C202 C204 1.320 . S
C203 C201 1.339 . S
C203 C202 1.395 . S
C203 H229 0.929 . S
C204 C202 1.320 . S
C204 C205 1.405 . S
C204 H230 0.930 . S
C205 C200 1.479 . S
C205 C204 1.405 . S
C205 H231 0.931 . S
U206 O207 2.454 . S
U206 O208 2.458 . S
U206 C209 2.984 . S
U206 C210 2.847 1_455 S
U206 C223 2.882 . S
U206 O224 2.441 . S
U206 O225 2.420 1_455 S
U206 O226 2.455 . S
U206 O227 2.449 1_455 S
O207 U206 2.454 . S
O207 C209 1.353 . S
O208 U206 2.458 . S
O208 C209 1.286 . S
C209 U206 2.984 . S
C209 O207 1.353 . S
C209 O208 1.286 . S
C209 C211 1.363 . S
C210 C200 1.465 . S
C210 U206 2.847 1_655 S
C210 O224 1.249 1_655 S
C210 O225 1.202 . S
C211 C209 1.363 . S
C211 C213 1.408 . S
C211 C216 1.342 . S
C212 C213 1.310 . S
C212 C215 1.461 . S
C212 H232 0.932 . S
C213 C211 1.408 . S
C213 C212 1.310 . S
C213 H233 0.930 . S
C214 C215 1.474 . S
C214 C216 1.285 . S
C214 H234 0.929 . S
C215 C212 1.461 . S
C215 C214 1.474 . S
C216 C211 1.342 . S
C216 C214 1.285 . S
C216 H235 0.930 . S
C217 C220 1.416 1_455 S
C217 C222 1.255 . S
C217 C223 1.409 1_554 S
C218 C221 1.260 . S
C218 C222 1.477 . S
C218 H236 0.932 . S
C219 C220 1.386 . S
C219 C221 1.479 1_655 S
C219 H237 0.929 . S
C220 C217 1.416 1_655 S
C220 C219 1.386 . S
C220 H238 0.943 . S
C221 C218 1.260 . S
C221 C219 1.479 1_455 S
C222 C217 1.255 . S
C222 C218 1.477 . S
C222 H239 0.932 . S
C223 U206 2.882 . S
C223 C217 1.409 1_556 S
C223 O226 1.301 . S
C223 O227 1.282 1_455 S
O224 U206 2.441 . S
O224 C210 1.249 1_455 S
O225 U206 2.420 1_655 S
O225 C210 1.202 . S
O226 U206 2.455 . S
O226 C223 1.301 . S
O227 U206 2.449 1_655 S
O227 C223 1.282 1_655 S
H228 C201 0.931 . S
H229 C203 0.929 . S
H230 C204 0.930 . S
H231 C205 0.931 . S
H232 C212 0.932 . S
H233 C213 0.930 . S
H234 C214 0.929 . S
H235 C216 0.930 . S
H236 C218 0.932 . S
H237 C219 0.929 . S
H238 C220 0.943 . S
H239 C222 0.932 . S
C240 C241 1.264 . S
C240 C245 1.479 . S
C240 C250 1.465 . S
C241 C240 1.264 . S
C241 C243 1.339 . S
C241 H268 0.931 . S
C242 C243 1.395 . S
C242 C244 1.320 . S
C243 C241 1.339 . S
C243 C242 1.395 . S
C243 H269 0.929 . S
C244 C242 1.320 . S
C244 C245 1.405 . S
C244 H270 0.930 . S
C245 C240 1.479 . S
C245 C244 1.405 . S
C245 H271 0.931 . S
U246 O247 2.454 1_655 S
U246 O248 2.458 1_655 S
U246 C249 2.984 1_655 S
U246 C250 2.847 . S
U246 C263 2.882 . S
U246 O264 2.441 . S
U246 O265 2.420 . S
U246 O266 2.455 1_655 S
U246 O267 2.449 . S
O247 U246 2.454 1_455 S
O247 C249 1.353 . S
O248 U246 2.458 1_455 S
O248 C249 1.286 . S
C249 U246 2.984 1_455 S
C249 O247 1.353 . S
C249 O248 1.286 . S
C249 C251 1.363 . S
C250 C240 1.465 . S
C250 U246 2.847 . S
C250 O264 1.249 . S
C250 O265 1.202 . S
C251 C249 1.363 . S
C251 C253 1.408 . S
C251 C256 1.342 . S
C252 C253 1.310 . S
C252 C255 1.461 . S
C252 H272 0.932 . S
C253 C251 1.408 . S
C253 C252 1.310 . S
C253 H273 0.930 . S
C254 C255 1.474 . S
C254 C256 1.285 . S
C254 H274 0.929 . S
C255 C252 1.461 . S
C255 C254 1.474 . S
C256 C251 1.342 . S
C256 C254 1.285 . S
C256 H275 0.930 . S
C257 C260 1.424 . S
C257 C262 1.245 1_655 S
C257 C263 1.428 . S
C258 C261 1.260 1_455 S
C258 C262 1.477 . S
C258 H276 0.932 . S
C259 C260 1.384 . S
C259 C261 1.479 . S
C259 H277 0.929 . S
C260 C257 1.424 . S
C260 C259 1.384 . S
C260 H278 0.928 . S
C261 C258 1.260 1_655 S
C261 C259 1.479 . S
C262 C257 1.245 1_455 S
C262 C258 1.477 . S
C262 H279 0.932 . S
C263 U246 2.882 . S
C263 C257 1.428 . S
C263 O266 1.301 1_655 S
C263 O267 1.282 . S
O264 U246 2.441 . S
O264 C250 1.249 . S
O265 U246 2.420 . S
O265 C250 1.202 . S
O266 U246 2.455 1_455 S
O266 C263 1.301 1_455 S
O267 U246 2.449 . S
O267 C263 1.282 . S
H268 C241 0.931 . S
H269 C243 0.929 . S
H270 C244 0.930 . S
H271 C245 0.931 . S
H272 C252 0.932 . S
H273 C253 0.930 . S
H274 C254 0.929 . S
H275 C256 0.930 . S
H276 C258 0.932 . S
H277 C259 0.929 . S
H278 C260 0.928 . S
H279 C262 0.932 . S
C280 C281 1.264 . S
C280 C285 1.479 . S
C280 C290 1.465 . S
C281 C280 1.264 . S
C281 C283 1.339 . S
C281 H308 0.931 . S
C282 C283 1.395 . S
C282 C284 1.320 . S
C283 C281 1.339 . S
C283 C282 1.395 . S
C283 H309 0.929 . S
C284 C282 1.320 . S
C284 C285 1.405 . S
C284 H310 0.930 . S
C285 C280 1.479 . S
C285 C284 1.405 . S
C285 H311 0.931 . S
U286 O287 2.454 1_565 S
U286 O288 2.458 1_565 S
U286 C289 2.984 1_565 S
U286 C290 2.847 . S
U286 C303 2.882 . S
U286 O304 2.441 . S
U286 O305 2.420 . S
U286 O306 2.455 1_565 S
U286 O307 2.449 . S
O287 U286 2.454 1_545 S
O287 C289 1.353 . S
O288 U286 2.458 1_545 S
O288 C289 1.286 . S
C289 U286 2.984 1_545 S
C289 O287 1.353 . S
C289 O288 1.286 . S
C289 C291 1.363 . S
C290 C280 1.465 . S
C290 U286 2.847 . S
C290 O304 1.249 . S
C290 O305 1.202 . S
C291 C289 1.363 . S
C291 C293 1.408 . S
C291 C296 1.342 . S
C292 C293 1.310 . S
C292 C295 1.461 . S
C292 H312 0.932 . S
C293 C291 1.408 . S
C293 C292 1.310 . S
C293 H313 0.930 . S
C294 C295 1.474 . S
C294 C296 1.285 . S
C294 H314 0.929 . S
C295 C292 1.461 . S
C295 C294 1.474 . S
C296 C291 1.342 . S
C296 C294 1.285 . S
C296 H315 0.930 . S
C297 C300 1.424 . S
C297 C302 1.245 1_565 S
C297 C303 1.428 . S
C298 C301 1.243 1_545 S
C298 C302 1.479 . S
C298 H316 0.949 . S
C299 C300 1.384 . S
C299 C301 1.479 . S
C299 H317 0.929 . S
C300 C297 1.424 . S
C300 C299 1.384 . S
C300 H318 0.928 . S
C301 C298 1.243 1_565 S
C301 C299 1.479 . S
C302 C297 1.245 1_545 S
C302 C298 1.479 . S
C302 H319 0.932 . S
C303 U286 2.882 . S
C303 C297 1.428 . S
C303 O306 1.301 1_565 S
C303 O307 1.282 . S
O304 U286 2.441 . S
O304 C290 1.249 . S
O305 U286 2.420 . S
O305 C290 1.202 . S
O306 U286 2.455 1_545 S
O306 C303 1.301 1_545 S
O307 U286 2.449 . S
O307 C303 1.282 . S
H308 C281 0.931 . S
H309 C283 0.929 . S
H310 C284 0.930 . S
H311 C285 0.931 . S
H312 C292 0.932 . S
H313 C293 0.930 . S
H314 C294 0.929 . S
H315 C296 0.930 . S
H316 C298 0.949 . S
H317 C299 0.929 . S
H318 C300 0.928 . S
H319 C302 0.932 . S
C320 C321 1.264 . S
C320 C325 1.479 . S
C320 C330 1.465 . S
C321 C320 1.264 . S
C321 C323 1.339 . S
C321 H348 0.931 . S
C322 C323 1.395 . S
C322 C324 1.320 . S
C323 C321 1.339 . S
C323 C322 1.395 . S
C323 H349 0.929 . S
C324 C322 1.320 . S
C324 C325 1.405 . S
C324 H350 0.930 . S
C325 C320 1.479 . S
C325 C324 1.405 . S
C325 H351 0.931 . S
U326 O327 2.454 . S
U326 O328 2.458 . S
U326 C329 2.984 . S
U326 C330 2.847 . S
U326 C343 2.882 . S
U326 O344 2.441 . S
U326 O345 2.420 . S
U326 O346 2.455 . S
U326 O347 2.449 . S
O327 U326 2.454 . S
O327 C329 1.353 . S
O328 U326 2.458 . S
O328 C329 1.286 . S
C329 U326 2.984 . S
C329 O327 1.353 . S
C329 O328 1.286 . S
C329 C331 1.363 . S
C330 C320 1.465 . S
C330 U326 2.847 . S
C330 O344 1.249 . S
C330 O345 1.202 . S
C331 C329 1.363 . S
C331 C333 1.408 . S
C331 C336 1.342 . S
C332 C333 1.310 . S
C332 C335 1.461 . S
C332 H352 0.932 . S
C333 C331 1.408 . S
C333 C332 1.310 . S
C333 H353 0.930 . S
C334 C335 1.474 . S
C334 C336 1.285 . S
C334 H354 0.929 . S
C335 C332 1.461 . S
C335 C334 1.474 . S
C336 C331 1.342 . S
C336 C334 1.285 . S
C336 H355 0.930 . S
C337 C340 1.424 . S
C337 C342 1.245 . S
C337 C343 1.428 1_556 S
C338 C341 1.260 . S
C338 C342 1.477 . S
C338 H356 0.932 . S
C339 C340 1.384 . S
C339 C341 1.479 . S
C339 H357 0.929 . S
C340 C337 1.424 . S
C340 C339 1.384 . S
C340 H358 0.928 . S
C341 C338 1.260 . S
C341 C339 1.479 . S
C342 C337 1.245 . S
C342 C338 1.477 . S
C342 H359 0.932 . S
C343 U326 2.882 . S
C343 C337 1.428 1_554 S
C343 O346 1.301 . S
C343 O347 1.282 . S
O344 U326 2.441 . S
O344 C330 1.249 . S
O345 U326 2.420 . S
O345 C330 1.202 . S
O346 U326 2.455 . S
O346 C343 1.301 . S
O347 U326 2.449 . S
O347 C343 1.282 . S
H348 C321 0.931 . S
H349 C323 0.929 . S
H350 C324 0.930 . S
H351 C325 0.931 . S
H352 C332 0.932 . S
H353 C333 0.930 . S
H354 C334 0.929 . S
H355 C336 0.930 . S
H356 C338 0.932 . S
H357 C339 0.929 . S
H358 C340 0.928 . S
H359 C342 0.932 . S
C7 C335 3.055 . S
C51 C242 3.113 . S
C87 C282 2.140 . S
C16 C322 1.304 . S
C255 C42 3.612 . S
C295 C96 1.429 . S
C47 C162 1.235 . S
C91 C202 5.257 . S
C2 C135 3.758 . S
C175 C56 1.514 . S
C215 C82 5.065 . S
C11 C122 3.102 . S
C221 C19 2.003 . S
C50 C141 1.375 . S
C99 C181 1.477 . S
C301 C59 1.631 1_565 S
C341 C90 1.895 . S
C10 C261 1.368 1_455 S
