# Generated by pormake.
# Topology eea, (3,6)-cn, num edge types: 1
# Building blocks:
#     Node 0, Type 0, BuildingBlock: WUSLED_clean_sbu_0, # of connection points: 3
#     Node 1, Type 0, BuildingBlock: WUSLED_clean_sbu_0, # of connection points: 3
#     Node 2, Type 0, BuildingBlock: WUSLED_clean_sbu_0, # of connection points: 3
#     Node 3, Type 0, BuildingBlock: WUSLED_clean_sbu_0, # of connection points: 3
#     Node 4, Type 0, BuildingBlock: WUSLED_clean_sbu_0, # of connection points: 3
#     Node 5, Type 0, BuildingBlock: WUSLED_clean_sbu_0, # of connection points: 3
#     Node 6, Type 0, BuildingBlock: WUSLED_clean_sbu_0, # of connection points: 3
#     Node 7, Type 0, BuildingBlock: WUSLED_clean_sbu_0, # of connection points: 3
#     Node 8, Type 0, BuildingBlock: WUSLED_clean_sbu_0, # of connection points: 3
#     Node 9, Type 0, BuildingBlock: WUSLED_clean_sbu_0, # of connection points: 3
#     Node 10, Type 0, BuildingBlock: WUSLED_clean_sbu_0, # of connection points: 3
#     Node 11, Type 0, BuildingBlock: WUSLED_clean_sbu_0, # of connection points: 3
#     Node 12, Type 0, BuildingBlock: WUSLED_clean_sbu_0, # of connection points: 3
#     Node 13, Type 0, BuildingBlock: WUSLED_clean_sbu_0, # of connection points: 3
#     Node 14, Type 0, BuildingBlock: WUSLED_clean_sbu_0, # of connection points: 3
#     Node 15, Type 0, BuildingBlock: WUSLED_clean_sbu_0, # of connection points: 3
#     Node 16, Type 0, BuildingBlock: WUSLED_clean_sbu_0, # of connection points: 3
#     Node 17, Type 0, BuildingBlock: WUSLED_clean_sbu_0, # of connection points: 3
#     Node 18, Type 1, BuildingBlock: NUHQIS_clean_sbu_0, # of connection points: 6
#     Node 19, Type 1, BuildingBlock: NUHQIS_clean_sbu_0, # of connection points: 6
#     Node 20, Type 1, BuildingBlock: NUHQIS_clean_sbu_0, # of connection points: 6
#     Node 21, Type 1, BuildingBlock: NUHQIS_clean_sbu_0, # of connection points: 6
#     Node 22, Type 1, BuildingBlock: NUHQIS_clean_sbu_0, # of connection points: 6
#     Node 23, Type 1, BuildingBlock: NUHQIS_clean_sbu_0, # of connection points: 6
#     Node 24, Type 1, BuildingBlock: NUHQIS_clean_sbu_0, # of connection points: 6
#     Node 25, Type 1, BuildingBlock: NUHQIS_clean_sbu_0, # of connection points: 6
#     Node 26, Type 1, BuildingBlock: NUHQIS_clean_sbu_0, # of connection points: 6
#     Edge 27, Type (0, 1), None
#     Edge 28, Type (0, 1), None
#     Edge 29, Type (0, 1), None
#     Edge 30, Type (0, 1), None
#     Edge 31, Type (0, 1), None
#     Edge 32, Type (0, 1), None
#     Edge 33, Type (0, 1), None
#     Edge 34, Type (0, 1), None
#     Edge 35, Type (0, 1), None
#     Edge 36, Type (0, 1), None
#     Edge 37, Type (0, 1), None
#     Edge 38, Type (0, 1), None
#     Edge 39, Type (0, 1), None
#     Edge 40, Type (0, 1), None
#     Edge 41, Type (0, 1), None
#     Edge 42, Type (0, 1), None
#     Edge 43, Type (0, 1), None
#     Edge 44, Type (0, 1), None
#     Edge 45, Type (0, 1), None
#     Edge 46, Type (0, 1), None
#     Edge 47, Type (0, 1), None
#     Edge 48, Type (0, 1), None
#     Edge 49, Type (0, 1), None
#     Edge 50, Type (0, 1), None
#     Edge 51, Type (0, 1), None
#     Edge 52, Type (0, 1), None
#     Edge 53, Type (0, 1), None
#     Edge 54, Type (0, 1), None
#     Edge 55, Type (0, 1), None
#     Edge 56, Type (0, 1), None
#     Edge 57, Type (0, 1), None
#     Edge 58, Type (0, 1), None
#     Edge 59, Type (0, 1), None
#     Edge 60, Type (0, 1), None
#     Edge 61, Type (0, 1), None
#     Edge 62, Type (0, 1), None
#     Edge 63, Type (0, 1), None
#     Edge 64, Type (0, 1), None
#     Edge 65, Type (0, 1), None
#     Edge 66, Type (0, 1), None
#     Edge 67, Type (0, 1), None
#     Edge 68, Type (0, 1), None
#     Edge 69, Type (0, 1), None
#     Edge 70, Type (0, 1), None
#     Edge 71, Type (0, 1), None
#     Edge 72, Type (0, 1), None
#     Edge 73, Type (0, 1), None
#     Edge 74, Type (0, 1), None
#     Edge 75, Type (0, 1), None
#     Edge 76, Type (0, 1), None
#     Edge 77, Type (0, 1), None
#     Edge 78, Type (0, 1), None
#     Edge 79, Type (0, 1), None
#     Edge 80, Type (0, 1), None
# Relax obj value: 0.035
# Max RMSD: 0.125
# Mean RMSD: 0.104
data_MOF--net-eea--node1-WUSLED_clean_sbu_0--node2-NUHQIS_clean_sbu_0--edge1-none
_symmetry_space_group_name_H-M    P1
_symmetry_Int_Tables_number       1
_symmetry_cell_setting            triclinic
loop_
_symmetry_equiv_pos_as_xyz
'x, y, z'
_cell_length_a     37.913857
_cell_length_b     38.160787
_cell_length_c     58.585797
_cell_angle_alpha  92.782199
_cell_angle_beta   92.235803
_cell_angle_gamma 120.16106
loop_
_atom_site_label
_atom_site_type_symbol
_atom_site_fract_x
_atom_site_fract_y
_atom_site_fract_z
_atom_type_partial_charge
C0 C 0.22734 0.19381 0.39781 0.0
C1 C 0.24423 0.23015 0.41189 0.0
C2 C 0.2149 0.25772 0.3853 0.0
C3 C 0.23814 0.26184 0.40568 0.0
C4 C 0.19821 0.2212 0.37124 0.0
C5 C 0.20442 0.18962 0.37745 0.0
U6 U 0.26169 0.14231 0.44074 0.0
O7 O 0.2328 0.07819 0.44833 0.0
O8 O 0.29398 0.10836 0.4354 0.0
C9 C 0.26329 0.07425 0.44142 0.0
C10 C 0.23298 0.15991 0.40417 0.0
C11 C 0.25212 0.03723 0.42671 0.0
C12 C 0.21419 0.98903 0.39393 0.0
C13 C 0.22585 0.02571 0.40676 0.0
C14 C 0.25561 0.97562 0.42063 0.0
C15 C 0.22863 0.96332 0.40086 0.0
C16 C 0.26718 1.01215 0.43337 0.0
C17 C 0.30745 0.19483 0.50072 0.0
C18 C 0.31415 0.16178 0.53379 0.0
C19 C 0.35194 0.23523 0.53422 0.0
C20 C 0.33494 0.23272 0.51215 0.0
C21 C 0.34168 0.19982 0.54536 0.0
C22 C 0.29733 0.15929 0.51162 0.0
C23 C 0.28957 0.19323 0.47759 0.0
O24 O 0.27109 0.16842 0.4073 0.0
O25 O 0.20976 0.13793 0.41993 0.0
O26 O 0.25076 0.1656 0.47315 0.0
O27 O 0.31221 0.19584 0.46061 0.0
H28 H 0.26194 0.23391 0.42773 0.0
H29 H 0.25133 0.28939 0.417 0.0
H30 H 0.18014 0.21684 0.35546 0.0
H31 H 0.19112 0.16177 0.36637 0.0
H32 H 0.19335 0.98055 0.37882 0.0
H33 H 0.21392 0.04474 0.40134 0.0
H34 H 0.26739 0.95676 0.42653 0.0
H35 H 0.28749 0.02054 0.44872 0.0
H36 H 0.30592 0.13393 0.54179 0.0
H37 H 0.37258 0.26502 0.54271 0.0
H38 H 0.3431 0.26048 0.50405 0.0
H39 H 0.27636 0.12966 0.50304 0.0
C40 C 0.99484 0.20268 0.40167 0.0
C41 C 0.02714 0.22678 0.41815 0.0
C42 C 0.07206 0.26235 0.38807 0.0
C43 C 0.0653 0.25619 0.41143 0.0
C44 C 0.03926 0.23884 0.37165 0.0
C45 C 1.00111 0.20925 0.37841 0.0
U46 U 0.90748 0.1487 0.44242 0.0
O47 O 0.8414 0.10929 0.43322 0.0
O48 O 0.87582 0.08452 0.45027 0.0
C49 C 0.8406 0.07687 0.44054 0.0
C50 C 0.9554 0.16895 0.40814 0.0
C51 C 0.81726 0.03815 0.42606 0.0
C52 C 0.78356 0.99854 0.38979 0.0
C53 C 0.80833 0.0363 0.40233 0.0
C54 C 0.7771 0.9644 0.42447 0.0
C55 C 0.76727 0.96213 0.40081 0.0
C56 C 0.80168 1.00184 0.43687 0.0
C57 C 0.90877 0.19813 0.50188 0.0
C58 C 0.87822 0.1653 0.53636 0.0
C59 C 0.89606 0.23504 0.53256 0.0
C60 C 0.91029 0.23361 0.511 0.0
C61 C 0.88006 0.20101 0.54566 0.0
C62 C 0.89227 0.16383 0.51471 0.0
C63 C 0.92596 0.19831 0.47949 0.0
O64 O 0.95746 0.14818 0.4249 0.0
O65 O 0.92496 0.17605 0.40932 0.0
O66 O 0.90513 0.19903 0.46122 0.0
O67 O 0.94051 0.17373 0.47631 0.0
H68 H 1.02312 0.22241 0.4362 0.0
H69 H 0.08964 0.27386 0.42464 0.0
H70 H 0.04322 0.24272 0.35356 0.0
H71 H 0.97662 0.1909 0.36538 0.0
H72 H 0.77669 0.99793 0.37161 0.0
H73 H 0.81999 0.06393 0.39356 0.0
H74 H 0.76542 0.93718 0.43363 0.0
H75 H 0.808 1.00245 0.45513 0.0
H76 H 0.86562 0.13833 0.54576 0.0
H77 H 0.89848 0.26321 0.53919 0.0
H78 H 0.92303 0.26052 0.50152 0.0
H79 H 0.8905 0.13594 0.50809 0.0
C80 C 0.84314 0.80963 0.40261 0.0
C81 C 0.80622 0.79144 0.41335 0.0
C82 C 0.77964 0.82404 0.38869 0.0
C83 C 0.77463 0.79855 0.40641 0.0
C84 C 0.81688 0.84217 0.37817 0.0
C85 C 0.84818 0.835 0.38505 0.0
U86 U 0.90409 0.77664 0.44225 0.0
O87 O 0.93978 0.74827 0.43142 0.0
O88 O 0.97061 0.80855 0.45017 0.0
C89 C 0.97491 0.78077 0.43853 0.0
C90 C 0.87711 0.80298 0.40904 0.0
C91 C 1.00841 0.79638 0.42269 0.0
C92 C 0.03781 0.79197 0.38688 0.0
C93 C 1.00388 0.7786 0.40027 0.0
C94 C 0.08048 0.84181 0.41776 0.0
C95 C 0.07673 0.82305 0.3958 0.0
C96 C 0.04694 0.82861 0.43098 0.0
C97 C 0.86477 0.7359 0.50168 0.0
C98 C 0.861 0.68368 0.52563 0.0
C99 C 0.86053 0.74221 0.54302 0.0
C100 C 0.86344 0.75744 0.52146 0.0
C101 C 0.85862 0.70479 0.5454 0.0
C102 C 0.86399 0.69901 0.50403 0.0
C103 C 0.86285 0.75073 0.47889 0.0
O104 O 0.90241 0.82684 0.42627 0.0
O105 O 0.86836 0.76503 0.4094 0.0
O106 O 0.85721 0.7268 0.46047 0.0
O107 O 0.8888 0.78925 0.47645 0.0
H108 H 0.80187 0.77181 0.42702 0.0
H109 H 0.74642 0.7842 0.41494 0.0
H110 H 0.822 0.86194 0.36448 0.0
H111 H 0.87648 0.84932 0.37658 0.0
H112 H 0.03403 0.77665 0.37014 0.0
H113 H 0.97454 0.75363 0.39334 0.0
H114 H 0.10992 0.86599 0.42518 0.0
H115 H 0.05153 0.84289 0.44813 0.0
H116 H 0.86017 0.65505 0.5268 0.0
H117 H 0.85819 0.75911 0.55769 0.0
H118 H 0.86342 0.78566 0.52017 0.0
H119 H 0.86481 0.68151 0.48916 0.0
C120 C 0.04424 0.21912 0.66772 0.0
C121 C 1.02307 0.235 0.65599 0.0
C122 C 0.96833 0.20556 0.6821 0.0
C123 C 0.9854 0.22832 0.66315 0.0
C124 C 0.98996 0.18993 0.69372 0.0
C125 C 0.02746 0.19669 0.6866 0.0
U126 U 0.13375 0.25272 0.62783 0.0
O127 O 0.19918 0.27958 0.63851 0.0
O128 O 0.166 0.22009 0.61885 0.0
C129 C 0.20018 0.24738 0.63037 0.0
C130 C 0.08364 0.22496 0.66078 0.0
C131 C 0.22045 0.23123 0.64515 0.0
C132 C 0.2539 0.22989 0.68139 0.0
C133 C 0.23108 0.24317 0.66872 0.0
C134 C 0.25426 0.19167 0.64728 0.0
C135 C 0.26655 0.20473 0.6706 0.0
C136 C 0.23166 0.2048 0.63477 0.0
C137 C 0.13662 0.30031 0.57063 0.0
C138 C 0.16439 0.29529 0.5345 0.0
C139 C 0.15512 0.3525 0.54367 0.0
C140 C 0.13989 0.33689 0.56453 0.0
C141 C 0.1673 0.33179 0.52826 0.0
C142 C 0.14936 0.27978 0.55547 0.0
C143 C 0.11796 0.2834 0.59222 0.0
O144 O 0.08193 0.20209 0.64279 0.0
O145 O 0.11406 0.26267 0.6612 0.0
O146 O 0.1375 0.30528 0.61139 0.0
O147 O 0.10316 0.24423 0.59366 0.0
H148 H 0.03557 0.25236 0.64132 0.0
H149 H 0.96954 0.24067 0.65372 0.0
H150 H 0.97794 0.17232 0.70836 0.0
H151 H 0.04338 0.18419 0.69586 0.0
H152 H 0.26299 0.2406 0.69927 0.0
H153 H 0.22273 0.26352 0.67722 0.0
H154 H 0.26309 0.17203 0.63837 0.0
H155 H 0.22389 0.19512 0.61668 0.0
H156 H 0.1739 0.27875 0.52321 0.0
H157 H 0.15636 0.38036 0.53937 0.0
H158 H 0.13003 0.35316 0.57581 0.0
H159 H 0.14734 0.25154 0.55969 0.0
C160 C 0.80986 0.83127 0.67138 0.0
C161 C 0.81493 0.80686 0.65467 0.0
C162 C 0.82594 0.76996 0.68439 0.0
C163 C 0.82303 0.77661 0.66111 0.0
C164 C 0.81991 0.79392 0.70102 0.0
C165 C 0.81207 0.82436 0.69455 0.0
U166 U 0.77385 0.88293 0.62917 0.0
O167 O 0.80443 0.94674 0.62079 0.0
O168 O 0.74513 0.91988 0.636 0.0
C169 C 0.77628 0.95296 0.62927 0.0
C170 C 0.80373 0.86489 0.66505 0.0
C171 C 0.79151 0.99133 0.64371 0.0
C172 C 0.79877 0.0301 0.67975 0.0
C173 C 0.78544 0.99264 0.66723 0.0
C174 C 0.82482 0.06491 0.64549 0.0
C175 C 0.81828 0.06667 0.66892 0.0
C176 C 0.81156 0.02779 0.63311 0.0
C177 C 0.72565 0.83076 0.56911 0.0
C178 C 0.72273 0.86394 0.53517 0.0
C179 C 0.6805 0.7909 0.53561 0.0
C180 C 0.6964 0.79319 0.55797 0.0
C181 C 0.69366 0.8262 0.52383 0.0
C182 C 0.73846 0.86622 0.55761 0.0
C183 C 0.74327 0.83196 0.5923 0.0
O184 O 0.82618 0.88669 0.64899 0.0
O185 O 0.76559 0.85651 0.66259 0.0
O186 O 0.72139 0.83072 0.60944 0.0
O187 O 0.78251 0.85824 0.59656 0.0
H188 H 0.81314 0.81152 0.63666 0.0
H189 H 0.82723 0.75859 0.6478 0.0
H190 H 0.82189 0.78966 0.71907 0.0
H191 H 0.80822 0.8429 0.7077 0.0
H192 H 0.79331 0.03036 0.69775 0.0
H193 H 0.77008 0.96484 0.67583 0.0
H194 H 0.83985 0.09227 0.63647 0.0
H195 H 0.81655 0.02756 0.61502 0.0
H196 H 0.73316 0.89178 0.52674 0.0
H197 H 0.65854 0.7613 0.52736 0.0
H198 H 0.6862 0.76544 0.56648 0.0
H199 H 0.76086 0.89564 0.56589 0.0
C200 C 0.04613 0.83185 0.66749 0.0
C201 C 1.02154 0.79549 0.6538 0.0
C202 C 0.97127 0.77062 0.68276 0.0
C203 C 0.98446 0.76514 0.66137 0.0
C204 C 0.9963 0.80712 0.69637 0.0
C205 C 0.03324 0.83729 0.68881 0.0
U206 U 0.13054 0.88289 0.62474 0.0
O207 O 0.16479 0.94722 0.61735 0.0
O208 O 0.19742 0.91893 0.63228 0.0
C209 C 0.20002 0.95245 0.62554 0.0
C210 C 0.08512 0.86476 0.66008 0.0
C211 C 0.22643 0.99013 0.64024 0.0
C212 C 0.23825 0.03816 0.67262 0.0
C213 C 0.21266 1.00107 0.65974 0.0
C214 C 0.29164 0.05331 0.64682 0.0
C215 C 0.278 0.06492 0.6662 0.0
C216 C 0.26613 0.01636 0.63403 0.0
C217 C 0.1251 0.83184 0.56547 0.0
C218 C 0.16099 0.86542 0.53236 0.0
C219 C 0.1343 0.79328 0.53428 0.0
C220 C 0.11942 0.795 0.55556 0.0
C221 C 0.15519 0.82842 0.52232 0.0
C222 C 0.14626 0.86716 0.55375 0.0
C223 C 0.10834 0.83245 0.58781 0.0
O224 O 0.11472 0.8566 0.65809 0.0
O225 O 0.08227 0.8852 0.64338 0.0
O226 O 0.09596 0.85877 0.59118 0.0
O227 O 0.12871 0.83044 0.60589 0.0
H228 H 0.0309 0.79069 0.63726 0.0
H229 H 0.96597 0.73758 0.65034 0.0
H230 H 0.98732 0.8126 0.71288 0.0
H231 H 0.05177 0.86512 0.69965 0.0
H232 H 0.22666 0.04605 0.68742 0.0
H233 H 0.18207 0.9812 0.66481 0.0
H234 H 0.32192 0.07297 0.64129 0.0
H235 H 0.2773 1.00848 0.61902 0.0
H236 H 0.17728 0.89315 0.52378 0.0
H237 H 0.12874 0.76416 0.52699 0.0
H238 H 0.10315 0.76737 0.56424 0.0
H239 H 0.15133 0.89607 0.56108 0.0
C240 C 0.89401 0.52714 0.73114 0.0
C241 C 0.9109 0.56348 0.74522 0.0
C242 C 0.88156 0.59105 0.71863 0.0
C243 C 0.90481 0.59517 0.73901 0.0
C244 C 0.86488 0.55453 0.70458 0.0
C245 C 0.87109 0.52295 0.71078 0.0
U246 U 0.92836 0.47565 0.77407 0.0
O247 O 0.89946 0.41152 0.78166 0.0
O248 O 0.96065 0.4417 0.76874 0.0
C249 C 0.92996 0.40758 0.77475 0.0
C250 C 0.89965 0.49325 0.7375 0.0
C251 C 0.91879 0.37056 0.76004 0.0
C252 C 0.88086 0.32236 0.72726 0.0
C253 C 0.89251 0.35905 0.7401 0.0
C254 C 0.92228 0.30896 0.75396 0.0
C255 C 0.8953 0.29665 0.73419 0.0
C256 C 0.93385 0.34549 0.76671 0.0
C257 C 0.97411 0.52816 0.83405 0.0
C258 C 0.98082 0.49512 0.86713 0.0
C259 C 1.0186 0.56857 0.86755 0.0
C260 C 1.0016 0.56605 0.84549 0.0
C261 C 1.00835 0.53316 0.8787 0.0
C262 C 0.964 0.49263 0.84495 0.0
C263 C 0.95623 0.52656 0.81092 0.0
O264 O 0.93775 0.50176 0.74063 0.0
O265 O 0.87643 0.47126 0.75326 0.0
O266 O 0.91743 0.49894 0.80648 0.0
O267 O 0.97887 0.52918 0.79394 0.0
H268 H 0.92861 0.56724 0.76106 0.0
H269 H 0.91799 0.62272 0.75033 0.0
H270 H 0.84681 0.55017 0.6888 0.0
H271 H 0.85778 0.4951 0.6997 0.0
H272 H 0.86002 0.31388 0.71216 0.0
H273 H 0.88059 0.37807 0.73467 0.0
H274 H 0.93406 0.29009 0.75987 0.0
H275 H 0.95416 0.35388 0.78206 0.0
H276 H 0.9726 0.46727 0.87512 0.0
H277 H 0.03923 0.59835 0.87605 0.0
H278 H 1.00976 0.59381 0.83738 0.0
H279 H 0.94304 0.463 0.83637 0.0
C280 C 0.6615 0.53602 0.735 0.0
C281 C 0.69381 0.56012 0.75149 0.0
C282 C 0.73872 0.59568 0.7214 0.0
C283 C 0.73197 0.58952 0.74477 0.0
C284 C 0.70592 0.57217 0.70499 0.0
C285 C 0.66777 0.54258 0.71174 0.0
U286 U 0.57415 0.48203 0.77575 0.0
O287 O 0.50807 0.44262 0.76655 0.0
O288 O 0.54249 0.41785 0.7836 0.0
C289 C 0.50727 0.4102 0.77387 0.0
C290 C 0.62206 0.50228 0.74148 0.0
C291 C 0.48393 0.37148 0.75939 0.0
C292 C 0.45023 0.33187 0.72313 0.0
C293 C 0.475 0.36964 0.73566 0.0
C294 C 0.44377 0.29773 0.7578 0.0
C295 C 0.43394 0.29546 0.73415 0.0
C296 C 0.46834 0.33517 0.7702 0.0
C297 C 0.57544 0.53146 0.83521 0.0
C298 C 0.54489 0.49864 0.8697 0.0
C299 C 0.56273 0.56837 0.8659 0.0
C300 C 0.57696 0.56694 0.84433 0.0
C301 C 0.54673 0.53434 0.87899 0.0
C302 C 0.55894 0.49716 0.84804 0.0
C303 C 0.59263 0.53164 0.81282 0.0
O304 O 0.62413 0.48151 0.75823 0.0
O305 O 0.59162 0.50938 0.74265 0.0
O306 O 0.57179 0.53237 0.79455 0.0
O307 O 0.60717 0.50706 0.80964 0.0
H308 H 0.68979 0.55574 0.76954 0.0
H309 H 0.75631 0.60719 0.75797 0.0
H310 H 0.70989 0.57606 0.6869 0.0
H311 H 0.64329 0.52423 0.69872 0.0
H312 H 0.44335 0.33126 0.70495 0.0
H313 H 0.48666 0.39726 0.72689 0.0
H314 H 0.43209 0.27051 0.76696 0.0
H315 H 0.47466 0.33578 0.78846 0.0
H316 H 0.5323 0.47166 0.8791 0.0
H317 H 0.56513 0.59654 0.87252 0.0
H318 H 0.58969 0.59385 0.83485 0.0
H319 H 0.55717 0.46927 0.84142 0.0
C320 C 0.50981 0.14296 0.73594 0.0
C321 C 0.47289 0.12477 0.74668 0.0
C322 C 0.44631 0.15737 0.72202 0.0
C323 C 0.44129 0.13189 0.73975 0.0
C324 C 0.48355 0.1755 0.7115 0.0
C325 C 0.51485 0.16834 0.71839 0.0
U326 U 0.57075 0.10998 0.77559 0.0
O327 O 0.60645 0.0816 0.76475 0.0
O328 O 0.63728 0.14189 0.7835 0.0
C329 C 0.64157 0.1141 0.77186 0.0
C330 C 0.54378 0.13632 0.74238 0.0
C331 C 0.67507 0.12971 0.75602 0.0
C332 C 0.70448 0.12531 0.72021 0.0
C333 C 0.67055 0.11194 0.7336 0.0
C334 C 0.74714 0.17515 0.75109 0.0
C335 C 0.7434 0.15638 0.72913 0.0
C336 C 0.71361 0.16194 0.76432 0.0
C337 C 0.53144 0.06924 0.83501 0.0
C338 C 0.52767 0.01702 0.85897 0.0
C339 C 0.52719 0.07554 0.87635 0.0
C340 C 0.5301 0.09077 0.8548 0.0
C341 C 0.52529 0.03812 0.87874 0.0
C342 C 0.53065 0.03234 0.83736 0.0
C343 C 0.52952 0.08406 0.81223 0.0
O344 O 0.56908 0.16018 0.7596 0.0
O345 O 0.53502 0.09836 0.74274 0.0
O346 O 0.52388 0.06014 0.79381 0.0
O347 O 0.55547 0.12258 0.80978 0.0
H348 H 0.46853 0.10514 0.76035 0.0
H349 H 0.41309 0.11753 0.74827 0.0
H350 H 0.48867 0.19527 0.69782 0.0
H351 H 0.54315 0.18266 0.70991 0.0
H352 H 0.7007 0.10999 0.70348 0.0
H353 H 0.64121 0.08696 0.72668 0.0
H354 H 0.77659 0.19932 0.75852 0.0
H355 H 0.71819 0.17622 0.78147 0.0
H356 H 0.52684 0.98838 0.86013 0.0
H357 H 0.52486 0.09245 0.89102 0.0
H358 H 0.53008 0.119 0.85351 0.0
H359 H 0.53148 0.01484 0.82249 0.0
C360 C 0.7109 0.55245 1.00105 0.0
C361 C 0.68974 0.56833 0.98933 0.0
C362 C 0.635 0.53889 1.01543 0.0
C363 C 0.65206 0.56165 0.99648 0.0
C364 C 0.65662 0.52326 1.02706 0.0
C365 C 0.69413 0.53002 1.01994 0.0
U366 U 0.80041 0.58605 0.96116 0.0
O367 O 0.86584 0.61291 0.97184 0.0
O368 O 0.83266 0.55342 0.95218 0.0
C369 C 0.86685 0.58071 0.96371 0.0
C370 C 0.75031 0.5583 0.99412 0.0
C371 C 0.88712 0.56457 0.97848 0.0
C372 C 0.92056 0.56322 1.01472 0.0
C373 C 0.89774 0.57651 1.00206 0.0
C374 C 0.92093 0.525 0.98061 0.0
C375 C 0.93322 0.53806 1.00393 0.0
C376 C 0.89833 0.53814 0.9681 0.0
C377 C 0.80328 0.63364 0.90396 0.0
C378 C 0.83106 0.62862 0.86784 0.0
C379 C 0.82179 0.68584 0.87701 0.0
C380 C 0.80656 0.67022 0.89787 0.0
C381 C 0.83397 0.66512 0.8616 0.0
C382 C 0.81602 0.61311 0.88881 0.0
C383 C 0.78463 0.61673 0.92555 0.0
O384 O 0.7486 0.53542 0.97612 0.0
O385 O 0.78073 0.59601 0.99453 0.0
O386 O 0.80417 0.63861 0.94473 0.0
O387 O 0.76983 0.57756 0.92699 0.0
H388 H 0.70224 0.58569 0.97466 0.0
H389 H 0.6362 0.574 0.98706 0.0
H390 H 0.6446 0.50566 0.04169 0.0
H391 H 0.71005 0.51753 1.0292 0.0
H392 H 0.92966 0.57393 1.03261 0.0
H393 H 0.88939 0.59686 1.01055 0.0
H394 H 0.92976 0.50536 0.9717 0.0
H395 H 0.89056 0.52845 0.95001 0.0
H396 H 0.84057 0.61208 0.85654 0.0
H397 H 0.82303 0.7137 0.8727 0.0
H398 H 0.7967 0.6865 0.90914 0.0
H399 H 0.814 0.58487 0.89302 0.0
C400 C 0.47653 0.16461 1.00471 0.0
C401 C 0.4816 0.14019 0.988 0.0
C402 C 0.49261 0.10329 1.01772 0.0
C403 C 0.4897 0.10994 0.99444 0.0
C404 C 0.48658 0.12726 0.03435 0.0
C405 C 0.47873 0.1577 1.02788 0.0
U406 U 0.44051 0.21626 0.9625 0.0
O407 O 0.4711 0.28007 0.95412 0.0
O408 O 0.4118 0.25321 0.96934 0.0
C409 C 0.44295 0.28629 0.9626 0.0
C410 C 0.47039 0.19823 0.99838 0.0
C411 C 0.45818 0.32466 0.97704 0.0
C412 C 0.46544 0.36343 1.01308 0.0
C413 C 0.45211 0.32597 1.00056 0.0
C414 C 0.49149 0.39824 0.97882 0.0
C415 C 0.48495 0.40001 1.00225 0.0
C416 C 0.47823 0.36113 0.96644 0.0
C417 C 0.39232 0.16409 0.90244 0.0
C418 C 0.38939 0.19728 0.8685 0.0
C419 C 0.34717 0.12423 0.86894 0.0
C420 C 0.36307 0.12652 0.8913 0.0
C421 C 0.36033 0.15953 0.85716 0.0
C422 C 0.40512 0.19956 0.89094 0.0
C423 C 0.40994 0.1653 0.92564 0.0
O424 O 0.49285 0.22002 0.98232 0.0
O425 O 0.43226 0.18985 0.99593 0.0
O426 O 0.38805 0.16405 0.94277 0.0
O427 O 0.44917 0.19157 0.92989 0.0
H428 H 0.47981 0.14485 0.96999 0.0
H429 H 0.49389 0.09192 0.98113 0.0
H430 H 0.48856 0.12299 0.0524 0.0
H431 H 0.47489 0.17623 0.04103 0.0
H432 H 0.45997 0.3637 1.03108 0.0
H433 H 0.43674 0.29817 1.00916 0.0
H434 H 0.50652 0.4256 0.9698 0.0
H435 H 0.48322 0.3609 0.94835 0.0
H436 H 0.39982 0.22512 0.86007 0.0
H437 H 0.32522 0.09463 0.86069 0.0
H438 H 0.35287 0.09877 0.89981 0.0
H439 H 0.42752 0.22897 0.89923 0.0
C440 C 0.71279 0.16519 1.00082 0.0
C441 C 0.6882 0.12882 0.98713 0.0
C442 C 0.63793 0.10395 1.01609 0.0
C443 C 0.65112 0.09847 0.9947 0.0
C444 C 0.66296 0.14045 1.0297 0.0
C445 C 0.69991 0.17062 1.02214 0.0
U446 U 0.79721 0.21622 0.95807 0.0
O447 O 0.83145 0.28055 0.95068 0.0
O448 O 0.86408 0.25227 0.96561 0.0
C449 C 0.86669 0.28578 0.95887 0.0
C450 C 0.75179 0.1981 0.99342 0.0
C451 C 0.8931 0.32346 0.97358 0.0
C452 C 0.90491 0.37149 1.00595 0.0
C453 C 0.87933 0.3344 0.99307 0.0
C454 C 0.95831 0.38665 0.98015 0.0
C455 C 0.94467 0.39825 0.99953 0.0
C456 C 0.9328 0.3497 0.96736 0.0
C457 C 0.79177 0.16517 0.8988 0.0
C458 C 0.82766 0.19876 0.86569 0.0
C459 C 0.80097 0.12661 0.86761 0.0
C460 C 0.78608 0.12833 0.88889 0.0
C461 C 0.82186 0.16175 0.85566 0.0
C462 C 0.81293 0.20049 0.88708 0.0
C463 C 0.775 0.16578 0.92115 0.0
O464 O 0.78139 0.18994 0.99142 0.0
O465 O 0.74894 0.21854 0.97671 0.0
O466 O 0.76263 0.1921 0.92451 0.0
O467 O 0.79538 0.16378 0.93922 0.0
H468 H 0.69757 0.12402 0.97059 0.0
H469 H 0.63264 0.07091 0.98367 0.0
H470 H 0.65398 0.14593 0.04621 0.0
H471 H 0.71843 0.19846 1.03298 0.0
H472 H 0.89333 0.37938 1.02075 0.0
H473 H 0.84874 0.31454 0.99815 0.0
H474 H 0.98859 0.40631 0.97462 0.0
H475 H 0.94397 0.34182 0.95235 0.0
H476 H 0.84395 0.22649 0.85712 0.0
H477 H 0.79541 0.09749 0.86033 0.0
H478 H 0.76982 0.1007 0.89757 0.0
H479 H 0.818 0.22941 0.89442 0.0
C480 C 0.56068 0.86047 0.06447 0.0
C481 C 0.57756 0.89681 0.07855 0.0
C482 C 0.54823 0.92439 0.05197 0.0
C483 C 0.57147 0.92851 0.07235 0.0
C484 C 0.53154 0.88787 0.03791 0.0
C485 C 0.53775 0.85628 0.04411 0.0
U486 U 0.59502 0.80898 0.1074 0.0
O487 O 0.56613 0.74485 0.11499 0.0
O488 O 0.62731 0.77503 0.10207 0.0
C489 C 0.59663 0.74092 0.10809 0.0
C490 C 0.56631 0.82658 0.07083 0.0
C491 C 0.58546 0.70389 0.09337 0.0
C492 C 0.54752 0.6557 0.06059 0.0
C493 C 0.55918 0.69238 0.07343 0.0
C494 C 0.58894 0.64229 0.08729 0.0
C495 C 0.56196 0.62998 0.06752 0.0
C496 C 0.60051 0.67882 0.10004 0.0
C497 C 0.64078 0.86149 0.16738 0.0
C498 C 0.64749 0.82845 0.20046 0.0
C499 C 0.68527 0.9019 0.20088 0.0
C500 C 0.66827 0.89939 0.17882 0.0
C501 C 0.67501 0.86649 0.21203 0.0
C502 C 0.63067 0.82596 0.17829 0.0
C503 C 0.6229 0.85989 0.14426 0.0
O504 O 0.60442 0.83509 0.07397 0.0
O505 O 0.54309 0.80459 0.08659 0.0
O506 O 0.58409 0.83227 0.13981 0.0
O507 O 0.64554 0.86251 0.12727 0.0
H508 H 0.59528 0.90058 0.09439 0.0
H509 H 0.58466 0.95606 0.08366 0.0
H510 H 0.51347 0.88351 1.02213 0.0
H511 H 0.52445 0.82843 1.03303 0.0
H512 H 0.52669 0.64721 0.04549 0.0
H513 H 0.54725 0.71141 0.06801 0.0
H514 H 0.60073 0.62343 0.0932 0.0
H515 H 0.62083 0.68721 0.11539 0.0
H516 H 0.63926 0.8006 0.20846 0.0
H517 H 0.7059 0.93168 0.20938 0.0
H518 H 0.67643 0.92715 0.17072 0.0
H519 H 0.6097 0.79633 0.1697 0.0
C520 C 0.32817 0.86935 0.06834 0.0
C521 C 0.36048 0.89345 0.08482 0.0
C522 C 0.40539 0.92902 0.05473 0.0
C523 C 0.39864 0.92286 0.0781 0.0
C524 C 0.37259 0.90551 0.03832 0.0
C525 C 0.33444 0.87591 0.04508 0.0
U526 U 0.24082 0.81536 0.10908 0.0
O527 O 0.17473 0.77596 0.09989 0.0
O528 O 0.20916 0.75119 0.11693 0.0
C529 C 0.17394 0.74353 0.1072 0.0
C530 C 0.28873 0.83561 0.07481 0.0
C531 C 0.15059 0.70481 0.09273 0.0
C532 C 0.11689 0.66521 0.05646 0.0
C533 C 0.14167 0.70297 0.069 0.0
C534 C 0.11044 0.63106 0.09114 0.0
C535 C 0.10061 0.62879 0.06748 0.0
C536 C 0.13501 0.66851 0.10353 0.0
C537 C 0.2421 0.8648 0.16854 0.0
C538 C 0.21155 0.83197 0.20303 0.0
C539 C 0.2294 0.90171 0.19923 0.0
C540 C 0.24363 0.90027 0.17766 0.0
C541 C 0.2134 0.86768 0.21233 0.0
C542 C 0.22561 0.83049 0.18137 0.0
C543 C 0.2593 0.86497 0.14615 0.0
O544 O 0.2908 0.81485 0.09156 0.0
O545 O 0.25829 0.84271 0.07598 0.0
O546 O 0.23846 0.8657 0.12789 0.0
O547 O 0.27384 0.8404 0.14297 0.0
H548 H 0.35646 0.88908 0.10287 0.0
H549 H 0.42297 0.94053 0.09131 0.0
H550 H 0.37655 0.90939 1.02023 0.0
H551 H 0.30995 0.85756 1.03205 0.0
H552 H 0.11002 0.66459 0.03828 0.0
H553 H 0.15333 0.73059 0.06022 0.0
H554 H 0.09876 0.60385 0.1003 0.0
H555 H 0.14133 0.66911 0.1218 0.0
H556 H 0.19896 0.80499 0.21243 0.0
H557 H 0.23181 0.92988 0.20586 0.0
H558 H 0.25637 0.92719 0.16819 0.0
H559 H 0.22383 0.80261 0.17475 0.0
C560 C 0.17648 0.4763 0.06927 0.0
C561 C 0.13956 0.45811 0.08002 0.0
C562 C 0.11297 0.4907 0.05536 0.0
C563 C 0.10796 0.46522 0.07308 0.0
C564 C 0.15022 0.50884 0.04483 0.0
C565 C 0.18152 0.50167 0.05172 0.0
U566 U 0.23742 0.44331 0.10892 0.0
O567 O 0.27311 0.41494 0.09808 0.0
O568 O 0.30395 0.47522 0.11683 0.0
C569 C 0.30824 0.44744 0.10519 0.0
C570 C 0.21045 0.46965 0.07571 0.0
C571 C 0.34174 0.46305 0.08936 0.0
C572 C 0.37115 0.45864 0.05355 0.0
C573 C 0.33721 0.44527 0.06694 0.0
C574 C 0.41381 0.50848 0.08442 0.0
C575 C 0.41006 0.48972 0.06246 0.0
C576 C 0.38027 0.49528 0.09765 0.0
C577 C 0.1981 0.40257 0.16835 0.0
C578 C 0.19433 0.35035 0.1923 0.0
C579 C 0.19386 0.40888 0.20968 0.0
C580 C 0.19677 0.42411 0.18813 0.0
C581 C 0.19196 0.37145 0.21207 0.0
C582 C 0.19732 0.36567 0.1707 0.0
C583 C 0.19618 0.41739 0.14556 0.0
O584 O 0.23574 0.49351 0.09293 0.0
O585 O 0.20169 0.4317 0.07607 0.0
O586 O 0.19054 0.39347 0.12714 0.0
O587 O 0.22213 0.45591 0.14311 0.0
H588 H 0.1352 0.43848 0.09368 0.0
H589 H 0.07975 0.45087 0.0816 0.0
H590 H 0.15534 0.52861 1.03115 0.0
H591 H 0.20982 0.51599 0.04325 0.0
H592 H 0.36736 0.44332 0.03681 0.0
H593 H 0.30787 0.42029 0.06001 0.0
H594 H 0.44325 0.53265 0.09185 0.0
H595 H 0.38486 0.50956 0.1148 0.0
H596 H 0.1935 0.32172 0.19346 0.0
H597 H 0.19152 0.42578 0.22436 0.0
H598 H 0.19675 0.45233 0.18684 0.0
H599 H 0.19815 0.34817 0.15583 0.0
C600 C 0.37757 0.88579 0.33439 0.0
C601 C 0.3564 0.90167 0.32266 0.0
C602 C 0.30166 0.87222 0.34876 0.0
C603 C 0.31873 0.89498 0.32982 0.0
C604 C 0.32329 0.8566 0.36039 0.0
C605 C 0.36079 0.86335 0.35327 0.0
U606 U 0.46708 0.91938 0.2945 0.0
O607 O 0.53251 0.94625 0.30517 0.0
O608 O 0.49933 0.88675 0.28552 0.0
C609 C 0.53351 0.91404 0.29704 0.0
C610 C 0.41697 0.89163 0.32745 0.0
C611 C 0.55379 0.8979 0.31182 0.0
C612 C 0.58723 0.89656 0.34805 0.0
C613 C 0.56441 0.90984 0.33539 0.0
C614 C 0.58759 0.85833 0.31395 0.0
C615 C 0.59988 0.8714 0.33727 0.0
C616 C 0.56499 0.87147 0.30144 0.0
C617 C 0.46995 0.96697 0.2373 0.0
C618 C 0.49771 0.96194 0.20117 0.0
C619 C 0.48847 0.01918 0.21034 0.0
C620 C 0.47324 1.00356 0.2312 0.0
C621 C 0.50064 0.99845 0.19493 0.0
C622 C 0.48267 0.94644 0.22214 0.0
C623 C 0.4513 0.95006 0.25888 0.0
O624 O 0.41526 0.86875 0.30946 0.0
O625 O 0.44739 0.92934 0.32786 0.0
O626 O 0.47083 0.97194 0.27806 0.0
O627 O 0.4365 0.91089 0.26033 0.0
H628 H 0.3689 0.91902 0.30799 0.0
H629 H 0.30287 0.90733 0.32039 0.0
H630 H 0.31127 0.83899 0.37502 0.0
H631 H 0.37671 0.85086 0.36253 0.0
H632 H 0.59633 0.90726 0.36594 0.0
H633 H 0.55606 0.93019 0.34388 0.0
H634 H 0.59643 0.83869 0.30504 0.0
H635 H 0.55722 0.86178 0.28334 0.0
H636 H 0.50721 0.9454 0.18987 0.0
H637 H 0.48972 0.04704 0.20604 0.0
H638 H 0.46339 0.01984 0.24248 0.0
H639 H 0.48065 0.91819 0.22635 0.0
C640 C 0.14319 0.49794 0.33804 0.0
C641 C 0.14826 0.47352 0.32134 0.0
C642 C 0.15927 0.43662 0.35105 0.0
C643 C 0.15637 0.44327 0.32778 0.0
C644 C 0.15324 0.46059 0.36769 0.0
C645 C 0.1454 0.49103 0.36122 0.0
U646 U 0.10718 0.5496 0.29583 0.0
O647 O 0.13776 0.61341 0.28745 0.0
O648 O 0.07846 0.58655 0.30267 0.0
C649 C 0.10962 0.61963 0.29593 0.0
C650 C 0.13706 0.53156 0.33171 0.0
C651 C 0.12484 0.65799 0.31037 0.0
C652 C 0.13211 0.69677 0.34642 0.0
C653 C 0.11877 0.6593 0.33389 0.0
C654 C 0.15815 0.73157 0.31215 0.0
C655 C 0.15161 0.73334 0.33558 0.0
C656 C 0.14489 0.69446 0.29977 0.0
C657 C 0.05898 0.49743 0.23577 0.0
C658 C 0.05606 0.53061 0.20183 0.0
C659 C 1.01383 0.45756 0.20228 0.0
C660 C 0.02973 0.45985 0.22463 0.0
C661 C 0.02699 0.49287 0.19049 0.0
C662 C 0.07179 0.53289 0.22427 0.0
C663 C 0.0766 0.49863 0.25897 0.0
O664 O 0.15951 0.55335 0.31566 0.0
O665 O 0.09892 0.52318 0.32926 0.0
O666 O 0.05472 0.49738 0.2761 0.0
O667 O 0.11584 0.5249 0.26322 0.0
H668 H 0.14648 0.47818 0.30333 0.0
H669 H 0.16056 0.42525 0.31447 0.0
H670 H 0.15522 0.45632 0.38573 0.0
H671 H 0.14155 0.50956 0.37436 0.0
H672 H 0.12664 0.69703 0.36441 0.0
H673 H 0.10341 0.6315 0.3425 0.0
H674 H 0.17318 0.75893 0.30313 0.0
H675 H 0.14988 0.69423 0.28169 0.0
H676 H 0.0665 0.55845 0.1934 0.0
H677 H 0.99187 0.42797 0.19403 0.0
H678 H 1.01952 0.43211 0.23315 0.0
H679 H 0.09419 0.5623 0.23256 0.0
C680 C 0.37946 0.49852 0.33416 0.0
C681 C 0.35487 0.46216 0.32047 0.0
C682 C 0.3046 0.43728 0.34943 0.0
C683 C 0.31779 0.43181 0.32804 0.0
C684 C 0.32963 0.47379 0.36304 0.0
C685 C 0.36658 0.50396 0.35548 0.0
U686 U 0.46388 0.54956 0.29141 0.0
O687 O 0.49812 0.61389 0.28402 0.0
O688 O 0.53075 0.5856 0.29895 0.0
C689 C 0.53336 0.61911 0.29221 0.0
C690 C 0.41845 0.53143 0.32675 0.0
C691 C 0.55976 0.6568 0.30691 0.0
C692 C 0.57158 0.70483 0.33929 0.0
C693 C 0.54599 0.66773 0.3264 0.0
C694 C 0.62497 0.71998 0.31349 0.0
C695 C 0.61134 0.73159 0.33287 0.0
C696 C 0.59946 0.68303 0.3007 0.0
C697 C 0.45843 0.49851 0.23213 0.0
C698 C 0.49431 0.53209 0.19902 0.0
C699 C 0.46765 0.45995 0.20095 0.0
C700 C 0.45276 0.46167 0.22223 0.0
C701 C 0.48853 0.49509 0.18899 0.0
C702 C 0.47959 0.53383 0.22041 0.0
C703 C 0.44167 0.49911 0.25448 0.0
O704 O 0.44805 0.52327 0.32475 0.0
O705 O 0.4156 0.55187 0.31005 0.0
O706 O 0.42929 0.52544 0.25785 0.0
O707 O 0.46205 0.49711 0.27256 0.0
H708 H 0.36424 0.45736 0.30393 0.0
H709 H 0.29931 0.40424 0.317 0.0
H710 H 0.32065 0.47927 0.37955 0.0
H711 H 0.3851 0.53179 0.36631 0.0
H712 H 0.55999 0.71272 0.35408 0.0
H713 H 0.5154 0.64787 0.33148 0.0
H714 H 0.65526 0.73964 0.30796 0.0
H715 H 0.61064 0.67515 0.28569 0.0
H716 H 0.5106 0.55982 0.19044 0.0
H717 H 0.46209 0.43083 0.19366 0.0
H718 H 0.4365 0.43404 0.23091 0.0
H719 H 0.48465 0.56274 0.22775 0.0
Tb720 Tb 0.50964 0.99598 1.00895 0.0
Eu721 Eu 0.5349 0.03582 0.06341 0.0
C722 C 0.54045 0.9574 0.04574 0.0
C723 C 0.44668 0.95932 0.04787 0.0
C724 C 0.50237 0.98712 0.94474 0.0
C725 C 0.49214 0.97848 0.9031 0.0
C726 C 0.48405 0.96209 0.92446 0.0
C727 C 0.52946 0.02884 0.94337 0.0
C728 C 0.53758 0.04531 0.92199 0.0
C729 C 0.51877 0.0204 0.90153 0.0
C730 C 0.49189 0.96944 0.9671 0.0
O731 O 0.51387 0.05481 1.00872 0.0
O732 O 0.50126 0.06326 0.04594 0.0
O733 O 0.58524 0.08056 0.04304 0.0
O734 O 0.57587 0.03799 1.01122 0.0
C735 C 0.50261 0.07205 1.02446 0.0
O736 O 0.51973 0.05956 0.09373 0.0
O737 O 0.57482 0.05585 0.09511 0.0
O738 O 0.55747 0.99152 0.05895 0.0
O739 O 0.51537 0.95095 1.02778 0.0
O740 O 0.45223 0.96839 1.02633 0.0
O741 O 0.47685 0.9762 0.06383 0.0
C742 C 0.59789 0.07256 1.02392 0.0
O743 O 0.52141 0.97022 0.97973 0.0
O744 O 0.47006 0.97984 0.97926 0.0
C745 C 0.53993 0.04598 0.1292 0.0
C746 C 0.51545 0.01459 0.17231 0.0
C747 C 0.54106 0.05662 0.17058 0.0
C748 C 0.55313 0.07209 0.14926 0.0
C749 C 0.51505 1.00394 0.13078 0.0
C750 C 0.50302 0.98838 0.15213 0.0
C751 C 0.55026 0.06323 0.10674 0.0
H752 H 0.47656 0.95839 0.88785 0.0
H753 H 0.46292 0.92985 0.92515 0.0
H754 H 0.54399 0.04871 0.95884 0.0
H755 H 0.5586 0.07759 0.9215 0.0
H756 H 0.55171 0.07766 0.18573 0.0
H757 H 0.57229 0.10462 0.1484 0.0
H758 H 0.50427 0.98326 0.11546 0.0
H759 H 0.48296 0.95594 0.15274 0.0
Tb760 Tb 0.04406 0.52977 1.00969 0.0
Eu761 Eu 0.99669 0.4996 0.05727 0.0
C762 C 0.07272 0.5884 0.05504 0.0
C763 C 0.0801 0.49882 0.04769 0.0
C764 C 0.0586 0.54556 0.94796 0.0
C765 C 0.06739 0.5646 0.90872 0.0
C766 C 0.0835 0.56922 0.93128 0.0
C767 C 1.01747 0.51658 0.94172 0.0
C768 C 1.00133 0.51183 0.91912 0.0
C769 C 0.02598 0.5362 0.9024 0.0
C770 C 0.07507 0.55339 0.97201 0.0
O771 O 1.00759 0.46325 1.00503 0.0
O772 O 0.95777 0.44923 1.03015 0.0
O773 O 0.96877 0.53155 0.03802 0.0
O774 O 0.98229 0.51668 1.00241 0.0
C775 C 0.97136 0.43857 1.01236 0.0
O776 O 0.96787 0.45474 0.08242 0.0
O777 O 0.97342 0.51391 0.08766 0.0
O778 O 0.05614 0.55662 0.06702 0.0
O779 O 0.06431 0.58478 1.03273 0.0
O780 O 0.088 0.52496 1.0321 0.0
O781 O 0.04451 0.4805 0.05677 0.0
C782 C 0.96232 0.52817 1.01556 0.0
O783 O 0.06293 0.57301 0.98531 0.0
O784 O 0.07404 0.52293 0.98179 0.0
C785 C 0.98038 0.48375 0.12055 0.0
C786 C 1.01083 0.49014 0.16641 0.0
C787 C 0.96912 0.46378 0.15962 0.0
C788 C 0.95408 0.46069 0.13693 0.0
C789 C 1.02202 0.51008 0.12717 0.0
C790 C 0.03707 0.51335 0.14988 0.0
C791 C 0.96425 0.47996 0.09665 0.0
H792 H 0.08734 0.58346 0.89623 0.0
H793 H 0.11527 0.59182 0.93581 0.0
H794 H 0.99766 0.49827 0.95444 0.0
H795 H 0.96924 0.49 0.91491 0.0
H796 H 0.94796 0.44578 0.1719 0.0
H797 H 0.92186 0.44023 0.13216 0.0
H798 H 0.04294 0.52797 0.11475 0.0
H799 H 0.06942 0.53352 0.1544 0.0
Tb800 Tb 0.52928 0.49929 0.05966 0.0
Eu801 Eu 0.5084 0.5273 1.01048 0.0
C802 C 0.49775 0.44011 1.01451 0.0
C803 C 0.59462 0.53058 1.02288 0.0
C804 C 0.52808 0.48462 0.12196 0.0
C805 C 0.52108 0.46833 0.16177 0.0
C806 C 0.53313 0.46429 0.13996 0.0
C807 C 0.51149 0.50977 0.12618 0.0
C808 C 0.49944 0.51389 0.14802 0.0
C809 C 0.50359 0.49279 0.16605 0.0
C810 C 0.53738 0.47705 0.09861 0.0
O811 O 0.56001 0.56575 0.06321 0.0
O812 O 0.52202 0.57838 0.03674 0.0
O813 O 0.44921 0.49491 1.02884 0.0
O814 O 0.48107 0.51249 0.06478 0.0
C815 C 0.54775 0.58978 0.05499 0.0
O816 O 0.5223 0.57134 0.98478 0.0
O817 O 0.46995 0.5106 0.97852 0.0
O818 O 0.5123 0.47174 1.00245 0.0
O819 O 0.49375 0.44369 0.0366 0.0
O820 O 0.5782 0.50551 0.03905 0.0
O821 O 0.57588 0.54742 1.01267 0.0
C822 C 0.44807 0.49942 0.0512 0.0
O823 O 0.50562 0.45624 0.0841 0.0
O824 O 0.56668 0.5079 0.08945 0.0
C825 C 0.50696 0.54161 0.94663 0.0
C826 C 0.53254 0.53636 0.9023 0.0
C827 C 0.51099 0.55693 0.90659 0.0
C828 C 0.49834 0.55947 0.9285 0.0
C829 C 0.52838 0.52101 0.9425 0.0
C830 C 0.54093 0.51832 0.92058 0.0
C831 C 0.49385 0.54485 0.96974 0.0
H832 H 0.5253 0.45212 0.17529 0.0
H833 H 0.54577 0.44467 0.13705 0.0
H834 H 0.50704 0.52552 0.11247 0.0
H835 H 0.48572 0.53262 0.15058 0.0
H836 H 0.50352 0.57078 0.89295 0.0
H837 H 0.4818 0.57544 0.93128 0.0
H838 H 0.53558 0.50718 0.95628 0.0
H839 H 0.55789 0.50273 0.91807 0.0
Tb840 Tb 0.1763 0.32931 0.34228 0.0
Eu841 Eu 0.20157 0.36915 0.39674 0.0
C842 C 0.20712 0.29074 0.37908 0.0
C843 C 0.11335 0.29265 0.3812 0.0
C844 C 0.16904 0.32045 0.27808 0.0
C845 C 0.15881 0.31181 0.23644 0.0
C846 C 0.15072 0.29543 0.2578 0.0
C847 C 0.19612 0.36217 0.2767 0.0
C848 C 0.20425 0.37864 0.25532 0.0
C849 C 0.18544 0.35373 0.23486 0.0
C850 C 0.15856 0.30278 0.30044 0.0
O851 O 0.18054 0.38814 0.34205 0.0
O852 O 0.16793 0.3966 0.37927 0.0
O853 O 0.25191 0.4139 0.37637 0.0
O854 O 0.24253 0.37132 0.34456 0.0
C855 C 0.16927 0.40538 0.35779 0.0
O856 O 0.1864 0.3929 0.42706 0.0
O857 O 0.24148 0.38919 0.42845 0.0
O858 O 0.22414 0.32485 0.39228 0.0
O859 O 0.18204 0.28428 0.36111 0.0
O860 O 0.1189 0.30173 0.35966 0.0
O861 O 0.14352 0.30953 0.39716 0.0
C862 C 0.26455 0.40589 0.35725 0.0
O863 O 0.18808 0.30356 0.31306 0.0
O864 O 0.13673 0.31317 0.3126 0.0
C865 C 0.2066 0.37931 0.46253 0.0
C866 C 0.18212 0.34792 0.50565 0.0
C867 C 0.20771 0.38996 0.50391 0.0
C868 C 0.21978 0.40543 0.48259 0.0
C869 C 0.18173 0.33728 0.46412 0.0
C870 C 0.1697 0.32172 0.48547 0.0
C871 C 0.21693 0.39657 0.44007 0.0
H872 H 0.14323 0.29173 0.22118 0.0
H873 H 0.12958 0.26319 0.25849 0.0
H874 H 0.21066 0.38204 0.29217 0.0
H875 H 0.22526 0.41093 0.25484 0.0
H876 H 0.21835 0.411 0.51906 0.0
H877 H 0.23893 0.43796 0.48174 0.0
H878 H 0.17096 0.3166 0.44879 0.0
H879 H 0.14965 0.28927 0.48608 0.0
Tb880 Tb 0.71073 0.8631 0.34303 0.0
Eu881 Eu 0.66336 0.83293 0.39061 0.0
C882 C 0.73938 0.92173 0.38837 0.0
C883 C 0.74677 0.83216 0.38102 0.0
C884 C 0.72527 0.87889 0.28129 0.0
C885 C 0.73405 0.89793 0.24206 0.0
C886 C 0.75016 0.90255 0.26462 0.0
C887 C 0.68413 0.84991 0.27506 0.0
C888 C 0.66799 0.84517 0.25245 0.0
C889 C 0.69264 0.86953 0.23573 0.0
C890 C 0.74173 0.88672 0.30535 0.0
O891 O 0.67426 0.79659 0.33837 0.0
O892 O 0.62443 0.78256 0.36348 0.0
O893 O 0.63544 0.86488 0.37135 0.0
O894 O 0.64896 0.85001 0.33574 0.0
C895 C 0.63802 0.77191 0.34569 0.0
O896 O 0.63454 0.78807 0.41576 0.0
O897 O 0.64009 0.84725 0.421 0.0
O898 O 0.7228 0.88995 0.40036 0.0
O899 O 0.73097 0.91812 0.36606 0.0
O900 O 0.75466 0.85829 0.36543 0.0
O901 O 0.71118 0.81383 0.3901 0.0
C902 C 0.62898 0.8615 0.34889 0.0
O903 O 0.7296 0.90634 0.31864 0.0
O904 O 0.74071 0.85626 0.31513 0.0
C905 C 0.64705 0.81709 0.45388 0.0
C906 C 0.6775 0.82348 0.49974 0.0
C907 C 0.63579 0.79711 0.49295 0.0
C908 C 0.62075 0.79402 0.47026 0.0
C909 C 0.68869 0.84341 0.46051 0.0
C910 C 0.70374 0.84669 0.48322 0.0
C911 C 0.63092 0.81329 0.42998 0.0
H912 H 0.75401 0.91679 0.22956 0.0
H913 H 0.78194 0.92515 0.26914 0.0
H914 H 0.66433 0.83161 0.28778 0.0
H915 H 0.63591 0.82334 0.24824 0.0
H916 H 0.61463 0.77911 0.50524 0.0
H917 H 0.58852 0.77356 0.4655 0.0
H918 H 0.7096 0.86131 0.44808 0.0
H919 H 0.73609 0.86685 0.48773 0.0
Tb920 Tb 0.19595 0.83262 0.393 0.0
Eu921 Eu 0.17506 0.86063 0.34381 0.0
C922 C 0.16441 0.77344 0.34784 0.0
C923 C 0.26129 0.86391 0.35621 0.0
C924 C 0.19474 0.81795 0.4553 0.0
C925 C 0.18773 0.80166 0.49511 0.0
C926 C 0.19979 0.79762 0.47329 0.0
C927 C 0.17816 0.84311 0.45952 0.0
C928 C 0.16612 0.84723 0.48136 0.0
C929 C 0.17025 0.82612 0.49939 0.0
C930 C 0.20404 0.81038 0.43194 0.0
O931 O 0.22667 0.89908 0.39654 0.0
O932 O 0.18868 0.91171 0.37007 0.0
O933 O 0.11587 0.82824 0.36217 0.0
O934 O 0.14773 0.84582 0.39811 0.0
C935 C 0.21441 0.92311 0.38832 0.0
O936 O 0.18896 0.90467 0.31811 0.0
O937 O 0.13661 0.84394 0.31185 0.0
O938 O 0.17897 0.80507 0.33578 0.0
O939 O 0.16042 0.77702 0.36993 0.0
O940 O 0.24487 0.83885 0.37238 0.0
O941 O 0.24254 0.88075 0.346 0.0
C942 C 0.11474 0.83275 0.38454 0.0
O943 O 0.17229 0.78958 0.41743 0.0
O944 O 0.23335 0.84123 0.42278 0.0
C945 C 0.17363 0.87495 0.27996 0.0
C946 C 0.1992 0.8697 0.23563 0.0
C947 C 0.17766 0.89027 0.23993 0.0
C948 C 0.16501 0.8928 0.26183 0.0
C949 C 0.19504 0.85434 0.27583 0.0
C950 C 0.20759 0.85165 0.25391 0.0
C951 C 0.16052 0.87819 0.30307 0.0
H952 H 0.19195 0.78543 0.50862 0.0
H953 H 0.21242 0.77799 0.47038 0.0
H954 H 0.17372 0.85886 0.4458 0.0
H955 H 0.1524 0.86596 0.48391 0.0
H956 H 0.17019 0.90412 0.22628 0.0
H957 H 0.14847 0.90878 0.26461 0.0
H958 H 0.20224 0.8405 0.28961 0.0
H959 H 0.22455 0.83605 0.2514 0.0
Tb960 Tb 0.84297 0.66265 0.67562 0.0
Eu961 Eu 0.86823 0.70248 0.73007 0.0
C962 C 0.87378 0.62407 0.71241 0.0
C963 C 0.78002 0.62599 0.71453 0.0
C964 C 0.83571 0.65378 0.61141 0.0
C965 C 0.82548 0.64514 0.56977 0.0
C966 C 0.81739 0.62876 0.59113 0.0
C967 C 0.86279 0.6955 0.61004 0.0
C968 C 0.87091 0.71197 0.58866 0.0
C969 C 0.8521 0.68706 0.5682 0.0
C970 C 0.82523 0.63611 0.63377 0.0
O971 O 0.84721 0.72147 0.67539 0.0
O972 O 0.83459 0.72993 0.71261 0.0
O973 O 0.91857 0.74723 0.70971 0.0
O974 O 0.9092 0.70466 0.67789 0.0
C975 C 0.83594 0.73871 0.69112 0.0
O976 O 0.85307 0.72623 0.7604 0.0
O977 O 0.90815 0.72252 0.76178 0.0
O978 O 0.89081 0.65818 0.72562 0.0
O979 O 0.84871 0.61762 0.69445 0.0
O980 O 0.78557 0.63506 0.693 0.0
O981 O 0.81019 0.64286 0.7305 0.0
C982 C 0.93122 0.73922 0.69059 0.0
O983 O 0.85475 0.63689 0.64639 0.0
O984 O 0.8034 0.64651 0.64593 0.0
C985 C 0.87327 0.71265 0.79586 0.0
C986 C 0.84878 0.68126 0.83898 0.0
C987 C 0.87438 0.72329 0.83725 0.0
C988 C 0.88645 0.73876 0.81593 0.0
C989 C 0.8484 0.67061 0.79745 0.0
C990 C 0.83636 0.65505 0.8188 0.0
C991 C 0.8836 0.7299 0.7734 0.0
H992 H 0.8099 0.62506 0.55452 0.0
H993 H 0.79625 0.59652 0.59182 0.0
H994 H 0.87733 0.71538 0.62551 0.0
H995 H 0.89193 0.74426 0.58817 0.0
H996 H 0.88502 0.74434 0.8524 0.0
H997 H 0.9056 0.7713 0.81507 0.0
H998 H 0.83762 0.64993 0.78213 0.0
H999 H 0.81631 0.6226 0.81941 0.0
Tb1000 Tb 0.3774 0.19643 0.67636 0.0
Eu1001 Eu 0.33003 0.16626 0.72394 0.0
C1002 C 0.40605 0.25506 0.7217 0.0
C1003 C 0.41343 0.16549 0.71435 0.0
C1004 C 0.39194 0.21222 0.61463 0.0
C1005 C 0.40072 0.23126 0.57539 0.0
C1006 C 0.41683 0.23588 0.59795 0.0
C1007 C 0.3508 0.18325 0.60839 0.0
C1008 C 0.33466 0.1785 0.58578 0.0
C1009 C 0.35931 0.20286 0.56907 0.0
C1010 C 0.4084 0.22006 0.63868 0.0
O1011 O 0.34092 0.12992 0.6717 0.0
O1012 O 0.2911 0.11589 0.69682 0.0
O1013 O 0.3021 0.19821 0.70468 0.0
O1014 O 0.31562 0.18334 0.66907 0.0
C1015 C 0.30469 0.10524 0.67903 0.0
O1016 O 0.30121 0.1214 0.74909 0.0
O1017 O 0.30675 0.18058 0.75433 0.0
O1018 O 0.38947 0.22328 0.73369 0.0
O1019 O 0.39764 0.25145 0.6994 0.0
O1020 O 0.42133 0.19163 0.69876 0.0
O1021 O 0.37784 0.14716 0.72344 0.0
C1022 C 0.29565 0.19483 0.68223 0.0
O1023 O 0.39626 0.23968 0.65198 0.0
O1024 O 0.40737 0.1896 0.64846 0.0
C1025 C 0.31372 0.15042 0.78722 0.0
C1026 C 0.34416 0.15681 0.83307 0.0
C1027 C 0.30245 0.13044 0.82628 0.0
C1028 C 0.28742 0.12735 0.80359 0.0
C1029 C 0.35536 0.17675 0.79384 0.0
C1030 C 0.3704 0.18002 0.81655 0.0
C1031 C 0.29758 0.14663 0.76331 0.0
H1032 H 0.42068 0.25012 0.5629 0.0
H1033 H 0.4486 0.25848 0.60247 0.0
H1034 H 0.33099 0.16494 0.62111 0.0
H1035 H 0.30257 0.15667 0.58157 0.0
H1036 H 0.2813 0.11244 0.83857 0.0
H1037 H 0.25519 0.10688 0.79883 0.0
H1038 H 0.37627 0.19465 0.78142 0.0
H1039 H 0.40275 0.20019 0.82107 0.0
Tb1040 Tb 0.86262 0.16596 0.72633 0.0
Eu1041 Eu 0.84173 0.19396 0.67715 0.0
C1042 C 0.83108 0.10678 0.68118 0.0
C1043 C 0.92795 0.19725 0.68955 0.0
C1044 C 0.86141 0.15129 0.78863 0.0
C1045 C 0.8544 0.13499 0.82844 0.0
C1046 C 0.86646 0.13095 0.80663 0.0
C1047 C 0.84483 0.17645 0.79285 0.0
C1048 C 0.83279 0.18057 0.81469 0.0
C1049 C 0.83692 0.15945 0.83272 0.0
C1050 C 0.87071 0.14371 0.76527 0.0
O1051 O 0.89334 0.23241 0.72988 0.0
O1052 O 0.85535 0.24504 0.70341 0.0
O1053 O 0.78254 0.16158 0.69551 0.0
O1054 O 0.8144 0.17916 0.73145 0.0
C1055 C 0.88108 0.25644 0.72165 0.0
O1056 O 0.85563 0.23801 0.65144 0.0
O1057 O 0.80328 0.17727 0.64519 0.0
O1058 O 0.84563 0.13841 0.66911 0.0
O1059 O 0.82709 0.11036 0.70326 0.0
O1060 O 0.91153 0.17218 0.70571 0.0
O1061 O 0.90921 0.21409 0.67933 0.0
C1062 C 0.78141 0.16608 0.71787 0.0
O1063 O 0.83896 0.12291 0.75076 0.0
O1064 O 0.90002 0.17457 0.75612 0.0
C1065 C 0.8403 0.20828 0.61329 0.0
C1066 C 0.86587 0.20303 0.56897 0.0
C1067 C 0.84433 0.2236 0.57326 0.0
C1068 C 0.83167 0.22614 0.59517 0.0
C1069 C 0.86171 0.18767 0.60917 0.0
C1070 C 0.87426 0.18498 0.58725 0.0
C1071 C 0.82719 0.21152 0.63641 0.0
H1072 H 0.85862 0.11877 0.84195 0.0
H1073 H 0.87909 0.11132 0.80371 0.0
H1074 H 0.84039 0.1922 0.77914 0.0
H1075 H 0.81907 0.1993 0.81725 0.0
H1076 H 0.83686 0.23745 0.55962 0.0
H1077 H 0.81514 0.24211 0.59795 0.0
H1078 H 0.86891 0.17384 0.62295 0.0
H1079 H 0.89122 0.16939 0.58473 0.0
loop_
_geom_bond_atom_site_label_1
_geom_bond_atom_site_label_2
_geom_bond_distance
_geom_bond_site_symmetry_2
_ccdc_geom_bond_type
C0 C1 1.264 . S
C0 C5 1.479 . S
C0 C10 1.465 . S
C1 C0 1.264 . S
C1 C3 1.339 . S
C1 H28 0.931 . S
C2 C3 1.395 . S
C2 C4 1.320 . S
C3 C1 1.339 . S
C3 C2 1.395 . S
C3 H29 0.929 . S
C4 C2 1.320 . S
C4 C5 1.405 . S
C4 H30 0.930 . S
C5 C0 1.479 . S
C5 C4 1.405 . S
C5 H31 0.931 . S
U6 O7 2.454 . S
U6 O8 2.458 . S
U6 C9 2.984 . S
U6 C10 2.847 . S
U6 C23 2.882 . S
U6 O24 2.441 . S
U6 O25 2.420 . S
U6 O26 2.455 . S
U6 O27 2.449 . S
O7 U6 2.454 . S
O7 C9 1.353 . S
O8 U6 2.458 . S
O8 C9 1.286 . S
C9 U6 2.984 . S
C9 O7 1.353 . S
C9 O8 1.286 . S
C9 C11 1.363 . S
C10 C0 1.465 . S
C10 U6 2.847 . S
C10 O24 1.249 . S
C10 O25 1.202 . S
C11 C9 1.363 . S
C11 C13 1.408 . S
C11 C16 1.342 . S
C12 C13 1.310 . S
C12 C15 1.461 1_545 S
C12 H32 0.932 . S
C13 C11 1.408 . S
C13 C12 1.310 . S
C13 H33 0.930 . S
C14 C15 1.474 . S
C14 C16 1.285 1_565 S
C14 H34 0.929 . S
C15 C12 1.461 1_565 S
C15 C14 1.474 . S
C16 C11 1.342 . S
C16 C14 1.285 1_545 S
C16 H35 0.930 . S
C17 C20 1.424 . S
C17 C22 1.245 . S
C17 C23 1.428 . S
C18 C21 1.260 . S
C18 C22 1.477 . S
C18 H36 0.932 . S
C19 C20 1.384 . S
C19 C21 1.479 . S
C19 H37 0.929 . S
C20 C17 1.424 . S
C20 C19 1.384 . S
C20 H38 0.928 . S
C21 C18 1.260 . S
C21 C19 1.479 . S
C22 C17 1.245 . S
C22 C18 1.477 . S
C22 H39 0.932 . S
C23 U6 2.882 . S
C23 C17 1.428 . S
C23 O26 1.301 . S
C23 O27 1.282 . S
O24 U6 2.441 . S
O24 C10 1.249 . S
O25 U6 2.420 . S
O25 C10 1.202 . S
O26 U6 2.455 . S
O26 C23 1.301 . S
O27 U6 2.449 . S
O27 C23 1.282 . S
H28 C1 0.931 . S
H29 C3 0.929 . S
H30 C4 0.930 . S
H31 C5 0.931 . S
H32 C12 0.932 . S
H33 C13 0.930 . S
H34 C14 0.929 . S
H35 C16 0.930 . S
H36 C18 0.932 . S
H37 C19 0.929 . S
H38 C20 0.928 . S
H39 C22 0.932 . S
C40 C41 1.264 . S
C40 C45 1.479 . S
C40 C50 1.465 . S
C41 C40 1.264 . S
C41 C43 1.339 1_655 S
C41 H68 0.931 . S
C42 C43 1.395 . S
C42 C44 1.320 . S
C43 C41 1.339 1_455 S
C43 C42 1.395 . S
C43 H69 0.929 . S
C44 C42 1.320 . S
C44 C45 1.405 1_455 S
C44 H70 0.930 . S
C45 C40 1.479 . S
C45 C44 1.405 1_655 S
C45 H71 0.931 . S
U46 O47 2.454 . S
U46 O48 2.458 . S
U46 C49 2.984 . S
U46 C50 2.847 . S
U46 C63 2.882 . S
U46 O64 2.441 . S
U46 O65 2.420 . S
U46 O66 2.455 . S
U46 O67 2.449 . S
O47 U46 2.454 . S
O47 C49 1.353 . S
O48 U46 2.458 . S
O48 C49 1.286 . S
C49 U46 2.984 . S
C49 O47 1.353 . S
C49 O48 1.286 . S
C49 C51 1.363 . S
C50 C40 1.465 . S
C50 U46 2.847 . S
C50 O64 1.249 . S
C50 O65 1.202 . S
C51 C49 1.363 . S
C51 C53 1.408 . S
C51 C56 1.342 . S
C52 C53 1.312 . S
C52 C55 1.460 1_545 S
C52 H72 0.931 1_545 S
C53 C51 1.408 . S
C53 C52 1.312 . S
C53 H73 0.930 . S
C54 C55 1.474 . S
C54 C56 1.285 1_565 S
C54 H74 0.929 . S
C55 C52 1.460 1_565 S
C55 C54 1.474 . S
C56 C51 1.342 . S
C56 C54 1.285 1_545 S
C56 H75 0.930 . S
C57 C60 1.424 . S
C57 C62 1.245 . S
C57 C63 1.428 . S
C58 C61 1.260 . S
C58 C62 1.477 . S
C58 H76 0.932 . S
C59 C60 1.384 . S
C59 C61 1.479 . S
C59 H77 0.929 . S
C60 C57 1.424 . S
C60 C59 1.384 . S
C60 H78 0.928 . S
C61 C58 1.260 . S
C61 C59 1.479 . S
C62 C57 1.245 . S
C62 C58 1.477 . S
C62 H79 0.932 . S
C63 U46 2.882 . S
C63 C57 1.428 . S
C63 O66 1.301 . S
C63 O67 1.282 . S
O64 U46 2.441 . S
O64 C50 1.249 . S
O65 U46 2.420 . S
O65 C50 1.202 . S
O66 U46 2.455 . S
O66 C63 1.301 . S
O67 U46 2.449 . S
O67 C63 1.282 . S
H68 C41 0.931 . S
H69 C43 0.929 . S
H70 C44 0.930 . S
H71 C45 0.931 . S
H72 C52 0.931 1_565 S
H73 C53 0.930 . S
H74 C54 0.929 . S
H75 C56 0.930 . S
H76 C58 0.932 . S
H77 C59 0.929 . S
H78 C60 0.928 . S
H79 C62 0.932 . S
C80 C81 1.264 . S
C80 C85 1.479 . S
C80 C90 1.465 . S
C81 C80 1.264 . S
C81 C83 1.339 . S
C81 H108 0.931 . S
C82 C83 1.395 . S
C82 C84 1.320 . S
C83 C81 1.339 . S
C83 C82 1.395 . S
C83 H109 0.929 . S
C84 C82 1.320 . S
C84 C85 1.405 . S
C84 H110 0.930 . S
C85 C80 1.479 . S
C85 C84 1.405 . S
C85 H111 0.931 . S
U86 O87 2.454 . S
U86 O88 2.458 . S
U86 C89 2.984 . S
U86 C90 2.847 . S
U86 C103 2.882 . S
U86 O104 2.441 . S
U86 O105 2.420 . S
U86 O106 2.455 . S
U86 O107 2.449 . S
O87 U86 2.454 . S
O87 C89 1.353 . S
O88 U86 2.458 . S
O88 C89 1.286 . S
C89 U86 2.984 . S
C89 O87 1.353 . S
C89 O88 1.286 . S
C89 C91 1.363 . S
C90 C80 1.465 . S
C90 U86 2.847 . S
C90 O104 1.249 . S
C90 O105 1.202 . S
C91 C89 1.363 . S
C91 C93 1.408 . S
C91 C96 1.342 1_655 S
C92 C93 1.310 1_455 S
C92 C95 1.461 . S
C92 H112 0.932 . S
C93 C91 1.408 . S
C93 C92 1.310 1_655 S
C93 H113 0.930 . S
C94 C95 1.474 . S
C94 C96 1.285 . S
C94 H114 0.929 . S
C95 C92 1.461 . S
C95 C94 1.474 . S
C96 C91 1.342 1_455 S
C96 C94 1.285 . S
C96 H115 0.930 . S
C97 C100 1.424 . S
C97 C102 1.245 . S
C97 C103 1.428 . S
C98 C101 1.260 . S
C98 C102 1.477 . S
C98 H116 0.932 . S
C99 C100 1.384 . S
C99 C101 1.479 . S
C99 H117 0.929 . S
C100 C97 1.424 . S
C100 C99 1.384 . S
C100 H118 0.928 . S
C101 C98 1.260 . S
C101 C99 1.479 . S
C102 C97 1.245 . S
C102 C98 1.477 . S
C102 H119 0.932 . S
C103 U86 2.882 . S
C103 C97 1.428 . S
C103 O106 1.301 . S
C103 O107 1.282 . S
O104 U86 2.441 . S
O104 C90 1.249 . S
O105 U86 2.420 . S
O105 C90 1.202 . S
O106 U86 2.455 . S
O106 C103 1.301 . S
O107 U86 2.449 . S
O107 C103 1.282 . S
H108 C81 0.931 . S
H109 C83 0.929 . S
H110 C84 0.930 . S
H111 C85 0.931 . S
H112 C92 0.932 . S
H113 C93 0.930 . S
H114 C94 0.929 . S
H115 C96 0.930 . S
H116 C98 0.932 . S
H117 C99 0.929 . S
H118 C100 0.928 . S
H119 C102 0.932 . S
C120 C121 1.264 1_455 S
C120 C125 1.479 . S
C120 C130 1.465 . S
C121 C120 1.264 1_655 S
C121 C123 1.339 . S
C121 H148 0.931 1_655 S
C122 C123 1.395 . S
C122 C124 1.320 . S
C123 C121 1.339 . S
C123 C122 1.395 . S
C123 H149 0.929 . S
C124 C122 1.320 . S
C124 C125 1.405 1_655 S
C124 H150 0.930 . S
C125 C120 1.479 . S
C125 C124 1.405 1_455 S
C125 H151 0.931 . S
U126 O127 2.454 . S
U126 O128 2.458 . S
U126 C129 2.984 . S
U126 C130 2.847 . S
U126 C143 2.882 . S
U126 O144 2.441 . S
U126 O145 2.420 . S
U126 O146 2.455 . S
U126 O147 2.449 . S
O127 U126 2.454 . S
O127 C129 1.353 . S
O128 U126 2.458 . S
O128 C129 1.286 . S
C129 U126 2.984 . S
C129 O127 1.353 . S
C129 O128 1.286 . S
C129 C131 1.363 . S
C130 C120 1.465 . S
C130 U126 2.847 . S
C130 O144 1.249 . S
C130 O145 1.202 . S
C131 C129 1.363 . S
C131 C133 1.408 . S
C131 C136 1.342 . S
C132 C133 1.310 . S
C132 C135 1.461 . S
C132 H152 0.932 . S
C133 C131 1.408 . S
C133 C132 1.310 . S
C133 H153 0.930 . S
C134 C135 1.474 . S
C134 C136 1.285 . S
C134 H154 0.929 . S
C135 C132 1.461 . S
C135 C134 1.474 . S
C136 C131 1.342 . S
C136 C134 1.285 . S
C136 H155 0.930 . S
C137 C140 1.424 . S
C137 C142 1.245 . S
C137 C143 1.428 . S
C138 C141 1.260 . S
C138 C142 1.477 . S
C138 H156 0.932 . S
C139 C140 1.384 . S
C139 C141 1.479 . S
C139 H157 0.929 . S
C140 C137 1.424 . S
C140 C139 1.384 . S
C140 H158 0.928 . S
C141 C138 1.260 . S
C141 C139 1.479 . S
C142 C137 1.245 . S
C142 C138 1.477 . S
C142 H159 0.932 . S
C143 U126 2.882 . S
C143 C137 1.428 . S
C143 O146 1.301 . S
C143 O147 1.282 . S
O144 U126 2.441 . S
O144 C130 1.249 . S
O145 U126 2.420 . S
O145 C130 1.202 . S
O146 U126 2.455 . S
O146 C143 1.301 . S
O147 U126 2.449 . S
O147 C143 1.282 . S
H148 C121 0.931 1_455 S
H149 C123 0.929 . S
H150 C124 0.930 . S
H151 C125 0.931 . S
H152 C132 0.932 . S
H153 C133 0.930 . S
H154 C134 0.929 . S
H155 C136 0.930 . S
H156 C138 0.932 . S
H157 C139 0.929 . S
H158 C140 0.928 . S
H159 C142 0.932 . S
C160 C161 1.264 . S
C160 C165 1.479 . S
C160 C170 1.465 . S
C161 C160 1.264 . S
C161 C163 1.339 . S
C161 H188 0.931 . S
C162 C163 1.395 . S
C162 C164 1.320 . S
C163 C161 1.339 . S
C163 C162 1.395 . S
C163 H189 0.929 . S
C164 C162 1.320 . S
C164 C165 1.405 . S
C164 H190 0.930 . S
C165 C160 1.479 . S
C165 C164 1.405 . S
C165 H191 0.931 . S
U166 O167 2.454 . S
U166 O168 2.458 . S
U166 C169 2.984 . S
U166 C170 2.847 . S
U166 C183 2.882 . S
U166 O184 2.441 . S
U166 O185 2.420 . S
U166 O186 2.455 . S
U166 O187 2.449 . S
O167 U166 2.454 . S
O167 C169 1.353 . S
O168 U166 2.458 . S
O168 C169 1.286 . S
C169 U166 2.984 . S
C169 O167 1.353 . S
C169 O168 1.286 . S
C169 C171 1.363 . S
C170 C160 1.465 . S
C170 U166 2.847 . S
C170 O184 1.249 . S
C170 O185 1.202 . S
C171 C169 1.363 . S
C171 C173 1.408 . S
C171 C176 1.342 . S
C172 C173 1.310 . S
C172 C175 1.461 1_565 S
C172 H192 0.932 . S
C173 C171 1.408 . S
C173 C172 1.310 . S
C173 H193 0.930 . S
C174 C175 1.474 . S
C174 C176 1.285 1_545 S
C174 H194 0.929 . S
C175 C172 1.461 1_545 S
C175 C174 1.474 . S
C176 C171 1.342 . S
C176 C174 1.285 1_565 S
C176 H195 0.930 . S
C177 C180 1.424 . S
C177 C182 1.245 . S
C177 C183 1.428 . S
C178 C181 1.260 . S
C178 C182 1.477 . S
C178 H196 0.932 . S
C179 C180 1.384 . S
C179 C181 1.479 . S
C179 H197 0.929 . S
C180 C177 1.424 . S
C180 C179 1.384 . S
C180 H198 0.928 . S
C181 C178 1.260 . S
C181 C179 1.479 . S
C182 C177 1.245 . S
C182 C178 1.477 . S
C182 H199 0.932 . S
C183 U166 2.882 . S
C183 C177 1.428 . S
C183 O186 1.301 . S
C183 O187 1.282 . S
O184 U166 2.441 . S
O184 C170 1.249 . S
O185 U166 2.420 . S
O185 C170 1.202 . S
O186 U166 2.455 . S
O186 C183 1.301 . S
O187 U166 2.449 . S
O187 C183 1.282 . S
H188 C161 0.931 . S
H189 C163 0.929 . S
H190 C164 0.930 . S
H191 C165 0.931 . S
H192 C172 0.932 . S
H193 C173 0.930 . S
H194 C174 0.929 . S
H195 C176 0.930 . S
H196 C178 0.932 . S
H197 C179 0.929 . S
H198 C180 0.928 . S
H199 C182 0.932 . S
C200 C201 1.264 1_455 S
C200 C205 1.479 . S
C200 C210 1.465 . S
C201 C200 1.264 1_655 S
C201 C203 1.339 . S
C201 H228 0.931 . S
C202 C203 1.395 . S
C202 C204 1.320 . S
C203 C201 1.339 . S
C203 C202 1.395 . S
C203 H229 0.929 . S
C204 C202 1.320 . S
C204 C205 1.405 1_655 S
C204 H230 0.930 . S
C205 C200 1.479 . S
C205 C204 1.405 1_455 S
C205 H231 0.931 . S
U206 O207 2.454 . S
U206 O208 2.458 . S
U206 C209 2.984 . S
U206 C210 2.847 . S
U206 C223 2.882 . S
U206 O224 2.441 . S
U206 O225 2.420 . S
U206 O226 2.455 . S
U206 O227 2.449 . S
O207 U206 2.454 . S
O207 C209 1.353 . S
O208 U206 2.458 . S
O208 C209 1.286 . S
C209 U206 2.984 . S
C209 O207 1.353 . S
C209 O208 1.286 . S
C209 C211 1.363 . S
C210 C200 1.465 . S
C210 U206 2.847 . S
C210 O224 1.249 . S
C210 O225 1.202 . S
C211 C209 1.363 . S
C211 C213 1.408 . S
C211 C216 1.342 . S
C212 C213 1.310 1_545 S
C212 C215 1.461 . S
C212 H232 0.932 . S
C213 C211 1.408 . S
C213 C212 1.310 1_565 S
C213 H233 0.930 . S
C214 C215 1.474 . S
C214 C216 1.285 1_545 S
C214 H234 0.929 . S
C215 C212 1.461 . S
C215 C214 1.474 . S
C216 C211 1.342 . S
C216 C214 1.285 1_565 S
C216 H235 0.930 . S
C217 C220 1.424 . S
C217 C222 1.245 . S
C217 C223 1.428 . S
C218 C221 1.260 . S
C218 C222 1.477 . S
C218 H236 0.932 . S
C219 C220 1.384 . S
C219 C221 1.479 . S
C219 H237 0.929 . S
C220 C217 1.424 . S
C220 C219 1.384 . S
C220 H238 0.928 . S
C221 C218 1.260 . S
C221 C219 1.479 . S
C222 C217 1.245 . S
C222 C218 1.477 . S
C222 H239 0.932 . S
C223 U206 2.882 . S
C223 C217 1.428 . S
C223 O226 1.301 . S
C223 O227 1.282 . S
O224 U206 2.441 . S
O224 C210 1.249 . S
O225 U206 2.420 . S
O225 C210 1.202 . S
O226 U206 2.455 . S
O226 C223 1.301 . S
O227 U206 2.449 . S
O227 C223 1.282 . S
H228 C201 0.931 . S
H229 C203 0.929 . S
H230 C204 0.930 . S
H231 C205 0.931 . S
H232 C212 0.932 . S
H233 C213 0.930 . S
H234 C214 0.929 . S
H235 C216 0.930 . S
H236 C218 0.932 . S
H237 C219 0.929 . S
H238 C220 0.928 . S
H239 C222 0.932 . S
C240 C241 1.264 . S
C240 C245 1.479 . S
C240 C250 1.465 . S
C241 C240 1.264 . S
C241 C243 1.339 . S
C241 H268 0.931 . S
C242 C243 1.395 . S
C242 C244 1.320 . S
C243 C241 1.339 . S
C243 C242 1.395 . S
C243 H269 0.929 . S
C244 C242 1.320 . S
C244 C245 1.405 . S
C244 H270 0.930 . S
C245 C240 1.479 . S
C245 C244 1.405 . S
C245 H271 0.931 . S
U246 O247 2.454 . S
U246 O248 2.458 . S
U246 C249 2.984 . S
U246 C250 2.847 . S
U246 C263 2.882 . S
U246 O264 2.441 . S
U246 O265 2.420 . S
U246 O266 2.455 . S
U246 O267 2.449 . S
O247 U246 2.454 . S
O247 C249 1.353 . S
O248 U246 2.458 . S
O248 C249 1.286 . S
C249 U246 2.984 . S
C249 O247 1.353 . S
C249 O248 1.286 . S
C249 C251 1.363 . S
C250 C240 1.465 . S
C250 U246 2.847 . S
C250 O264 1.249 . S
C250 O265 1.202 . S
C251 C249 1.363 . S
C251 C253 1.408 . S
C251 C256 1.342 . S
C252 C253 1.310 . S
C252 C255 1.461 . S
C252 H272 0.932 . S
C253 C251 1.408 . S
C253 C252 1.310 . S
C253 H273 0.930 . S
C254 C255 1.474 . S
C254 C256 1.285 . S
C254 H274 0.929 . S
C255 C252 1.461 . S
C255 C254 1.474 . S
C256 C251 1.342 . S
C256 C254 1.285 . S
C256 H275 0.930 . S
C257 C260 1.424 . S
C257 C262 1.245 . S
C257 C263 1.428 . S
C258 C261 1.260 1_655 S
C258 C262 1.477 . S
C258 H276 0.932 . S
C259 C260 1.384 . S
C259 C261 1.479 1_655 S
C259 H277 0.929 . S
C260 C257 1.424 . S
C260 C259 1.384 . S
C260 H278 0.928 . S
C261 C258 1.260 1_455 S
C261 C259 1.479 1_455 S
C262 C257 1.245 . S
C262 C258 1.477 . S
C262 H279 0.932 . S
C263 U246 2.882 . S
C263 C257 1.428 . S
C263 O266 1.301 . S
C263 O267 1.282 . S
O264 U246 2.441 . S
O264 C250 1.249 . S
O265 U246 2.420 . S
O265 C250 1.202 . S
O266 U246 2.455 . S
O266 C263 1.301 . S
O267 U246 2.449 . S
O267 C263 1.282 . S
H268 C241 0.931 . S
H269 C243 0.929 . S
H270 C244 0.930 . S
H271 C245 0.931 . S
H272 C252 0.932 . S
H273 C253 0.930 . S
H274 C254 0.929 . S
H275 C256 0.930 . S
H276 C258 0.932 . S
H277 C259 0.929 . S
H278 C260 0.928 . S
H279 C262 0.932 . S
C280 C281 1.264 . S
C280 C285 1.479 . S
C280 C290 1.465 . S
C281 C280 1.264 . S
C281 C283 1.339 . S
C281 H308 0.931 . S
C282 C283 1.395 . S
C282 C284 1.320 . S
C283 C281 1.339 . S
C283 C282 1.395 . S
C283 H309 0.929 . S
C284 C282 1.320 . S
C284 C285 1.405 . S
C284 H310 0.930 . S
C285 C280 1.479 . S
C285 C284 1.405 . S
C285 H311 0.931 . S
U286 O287 2.454 . S
U286 O288 2.458 . S
U286 C289 2.984 . S
U286 C290 2.847 . S
U286 C303 2.882 . S
U286 O304 2.441 . S
U286 O305 2.420 . S
U286 O306 2.455 . S
U286 O307 2.449 . S
O287 U286 2.454 . S
O287 C289 1.353 . S
O288 U286 2.458 . S
O288 C289 1.286 . S
C289 U286 2.984 . S
C289 O287 1.353 . S
C289 O288 1.286 . S
C289 C291 1.363 . S
C290 C280 1.465 . S
C290 U286 2.847 . S
C290 O304 1.249 . S
C290 O305 1.202 . S
C291 C289 1.363 . S
C291 C293 1.408 . S
C291 C296 1.342 . S
C292 C293 1.310 . S
C292 C295 1.461 . S
C292 H312 0.932 . S
C293 C291 1.408 . S
C293 C292 1.310 . S
C293 H313 0.930 . S
C294 C295 1.474 . S
C294 C296 1.285 . S
C294 H314 0.929 . S
C295 C292 1.461 . S
C295 C294 1.474 . S
C296 C291 1.342 . S
C296 C294 1.285 . S
C296 H315 0.930 . S
C297 C300 1.424 . S
C297 C302 1.245 . S
C297 C303 1.428 . S
C298 C301 1.260 . S
C298 C302 1.477 . S
C298 H316 0.932 . S
C299 C300 1.384 . S
C299 C301 1.479 . S
C299 H317 0.929 . S
C300 C297 1.424 . S
C300 C299 1.384 . S
C300 H318 0.928 . S
C301 C298 1.260 . S
C301 C299 1.479 . S
C302 C297 1.245 . S
C302 C298 1.477 . S
C302 H319 0.932 . S
C303 U286 2.882 . S
C303 C297 1.428 . S
C303 O306 1.301 . S
C303 O307 1.282 . S
O304 U286 2.441 . S
O304 C290 1.249 . S
O305 U286 2.420 . S
O305 C290 1.202 . S
O306 U286 2.455 . S
O306 C303 1.301 . S
O307 U286 2.449 . S
O307 C303 1.282 . S
H308 C281 0.931 . S
H309 C283 0.929 . S
H310 C284 0.930 . S
H311 C285 0.931 . S
H312 C292 0.932 . S
H313 C293 0.930 . S
H314 C294 0.929 . S
H315 C296 0.930 . S
H316 C298 0.932 . S
H317 C299 0.929 . S
H318 C300 0.928 . S
H319 C302 0.932 . S
C320 C321 1.264 . S
C320 C325 1.479 . S
C320 C330 1.465 . S
C321 C320 1.264 . S
C321 C323 1.339 . S
C321 H348 0.931 . S
C322 C323 1.395 . S
C322 C324 1.320 . S
C323 C321 1.339 . S
C323 C322 1.395 . S
C323 H349 0.929 . S
C324 C322 1.320 . S
C324 C325 1.405 . S
C324 H350 0.930 . S
C325 C320 1.479 . S
C325 C324 1.405 . S
C325 H351 0.931 . S
U326 O327 2.454 . S
U326 O328 2.458 . S
U326 C329 2.984 . S
U326 C330 2.847 . S
U326 C343 2.882 . S
U326 O344 2.441 . S
U326 O345 2.420 . S
U326 O346 2.455 . S
U326 O347 2.449 . S
O327 U326 2.454 . S
O327 C329 1.353 . S
O328 U326 2.458 . S
O328 C329 1.286 . S
C329 U326 2.984 . S
C329 O327 1.353 . S
C329 O328 1.286 . S
C329 C331 1.363 . S
C330 C320 1.465 . S
C330 U326 2.847 . S
C330 O344 1.249 . S
C330 O345 1.202 . S
C331 C329 1.363 . S
C331 C333 1.408 . S
C331 C336 1.342 . S
C332 C333 1.310 . S
C332 C335 1.461 . S
C332 H352 0.932 . S
C333 C331 1.408 . S
C333 C332 1.310 . S
C333 H353 0.930 . S
C334 C335 1.474 . S
C334 C336 1.285 . S
C334 H354 0.929 . S
C335 C332 1.461 . S
C335 C334 1.474 . S
C336 C331 1.342 . S
C336 C334 1.285 . S
C336 H355 0.930 . S
C337 C340 1.424 . S
C337 C342 1.245 . S
C337 C343 1.428 . S
C338 C341 1.260 . S
C338 C342 1.477 . S
C338 H356 0.932 . S
C339 C340 1.384 . S
C339 C341 1.479 . S
C339 H357 0.929 . S
C340 C337 1.424 . S
C340 C339 1.384 . S
C340 H358 0.928 . S
C341 C338 1.260 . S
C341 C339 1.479 . S
C342 C337 1.245 . S
C342 C338 1.477 . S
C342 H359 0.932 . S
C343 U326 2.882 . S
C343 C337 1.428 . S
C343 O346 1.301 . S
C343 O347 1.282 . S
O344 U326 2.441 . S
O344 C330 1.249 . S
O345 U326 2.420 . S
O345 C330 1.202 . S
O346 U326 2.455 . S
O346 C343 1.301 . S
O347 U326 2.449 . S
O347 C343 1.282 . S
H348 C321 0.931 . S
H349 C323 0.929 . S
H350 C324 0.930 . S
H351 C325 0.931 . S
H352 C332 0.932 . S
H353 C333 0.930 . S
H354 C334 0.929 . S
H355 C336 0.930 . S
H356 C338 0.932 . S
H357 C339 0.929 . S
H358 C340 0.928 . S
H359 C342 0.932 . S
C360 C361 1.264 . S
C360 C365 1.479 . S
C360 C370 1.465 . S
C361 C360 1.264 . S
C361 C363 1.339 . S
C361 H388 0.931 . S
C362 C363 1.395 . S
C362 C364 1.320 . S
C363 C361 1.339 . S
C363 C362 1.395 . S
C363 H389 0.929 . S
C364 C362 1.320 . S
C364 C365 1.405 . S
C364 H390 0.929 1_556 S
C365 C360 1.479 . S
C365 C364 1.405 . S
C365 H391 0.931 . S
U366 O367 2.454 . S
U366 O368 2.458 . S
U366 C369 2.984 . S
U366 C370 2.847 . S
U366 C383 2.882 . S
U366 O384 2.441 . S
U366 O385 2.420 . S
U366 O386 2.455 . S
U366 O387 2.449 . S
O367 U366 2.454 . S
O367 C369 1.353 . S
O368 U366 2.458 . S
O368 C369 1.286 . S
C369 U366 2.984 . S
C369 O367 1.353 . S
C369 O368 1.286 . S
C369 C371 1.363 . S
C370 C360 1.465 . S
C370 U366 2.847 . S
C370 O384 1.249 . S
C370 O385 1.202 . S
C371 C369 1.363 . S
C371 C373 1.408 . S
C371 C376 1.342 . S
C372 C373 1.310 . S
C372 C375 1.461 . S
C372 H392 0.932 1_556 S
C373 C371 1.408 . S
C373 C372 1.310 . S
C373 H393 0.930 . S
C374 C375 1.474 . S
C374 C376 1.285 . S
C374 H394 0.929 . S
C375 C372 1.461 . S
C375 C374 1.474 . S
C376 C371 1.342 . S
C376 C374 1.285 . S
C376 H395 0.930 . S
C377 C380 1.424 . S
C377 C382 1.245 . S
C377 C383 1.428 . S
C378 C381 1.260 . S
C378 C382 1.477 . S
C378 H396 0.932 . S
C379 C380 1.384 . S
C379 C381 1.479 . S
C379 H397 0.929 . S
C380 C377 1.424 . S
C380 C379 1.384 . S
C380 H398 0.928 . S
C381 C378 1.260 . S
C381 C379 1.479 . S
C382 C377 1.245 . S
C382 C378 1.477 . S
C382 H399 0.932 . S
C383 U366 2.882 . S
C383 C377 1.428 . S
C383 O386 1.301 . S
C383 O387 1.282 . S
O384 U366 2.441 . S
O384 C370 1.249 . S
O385 U366 2.420 . S
O385 C370 1.202 . S
O386 U366 2.455 . S
O386 C383 1.301 . S
O387 U366 2.449 . S
O387 C383 1.282 . S
H388 C361 0.931 . S
H389 C363 0.929 . S
H390 C364 0.929 1_554 S
H391 C365 0.931 . S
H392 C372 0.932 1_554 S
H393 C373 0.930 . S
H394 C374 0.929 . S
H395 C376 0.930 . S
H396 C378 0.932 . S
H397 C379 0.929 . S
H398 C380 0.928 . S
H399 C382 0.932 . S
C400 C401 1.264 . S
C400 C405 1.479 1_556 S
C400 C410 1.465 . S
C401 C400 1.264 . S
C401 C403 1.339 . S
C401 H428 0.931 . S
C402 C403 1.395 . S
C402 C404 1.320 1_556 S
C403 C401 1.339 . S
C403 C402 1.395 . S
C403 H429 0.929 1_545 S
C404 C402 1.320 1_554 S
C404 C405 1.405 . S
C404 H430 0.930 . S
C405 C400 1.479 1_554 S
C405 C404 1.405 . S
C405 H431 0.931 . S
U406 O407 2.454 . S
U406 O408 2.458 . S
U406 C409 2.984 . S
U406 C410 2.847 . S
U406 C423 2.882 . S
U406 O424 2.441 . S
U406 O425 2.420 . S
U406 O426 2.455 . S
U406 O427 2.449 . S
O407 U406 2.454 . S
O407 C409 1.353 . S
O408 U406 2.458 . S
O408 C409 1.286 . S
C409 U406 2.984 . S
C409 O407 1.353 . S
C409 O408 1.286 . S
C409 C411 1.363 . S
C410 C400 1.465 . S
C410 U406 2.847 . S
C410 O424 1.249 . S
C410 O425 1.202 . S
C411 C409 1.363 . S
C411 C413 1.408 1_556 S
C411 C416 1.342 . S
C412 C413 1.310 . S
C412 C415 1.461 . S
C412 H432 0.932 . S
C413 C411 1.408 1_554 S
C413 C412 1.310 . S
C413 H433 0.930 . S
C414 C415 1.474 1_556 S
C414 C416 1.285 . S
C414 H434 0.929 . S
C415 C412 1.461 . S
C415 C414 1.474 1_554 S
C416 C411 1.342 . S
C416 C414 1.285 . S
C416 H435 0.930 . S
C417 C420 1.424 . S
C417 C422 1.245 . S
C417 C423 1.428 . S
C418 C421 1.260 . S
C418 C422 1.477 . S
C418 H436 0.932 . S
C419 C420 1.384 . S
C419 C421 1.479 . S
C419 H437 0.929 . S
C420 C417 1.424 . S
C420 C419 1.384 . S
C420 H438 0.928 . S
C421 C418 1.260 . S
C421 C419 1.479 . S
C422 C417 1.245 . S
C422 C418 1.477 . S
C422 H439 0.932 . S
C423 U406 2.882 . S
C423 C417 1.428 . S
C423 O426 1.301 . S
C423 O427 1.282 . S
O424 U406 2.441 . S
O424 C410 1.249 . S
O425 U406 2.420 . S
O425 C410 1.202 . S
O426 U406 2.455 . S
O426 C423 1.301 . S
O427 U406 2.449 . S
O427 C423 1.282 . S
H428 C401 0.931 . S
H429 C403 0.929 1_565 S
H430 C404 0.930 . S
H431 C405 0.931 . S
H432 C412 0.932 . S
H433 C413 0.930 . S
H434 C414 0.929 . S
H435 C416 0.930 . S
H436 C418 0.932 . S
H437 C419 0.929 . S
H438 C420 0.928 . S
H439 C422 0.932 . S
C440 C441 1.264 . S
C440 C445 1.479 . S
C440 C450 1.465 . S
C441 C440 1.264 . S
C441 C443 1.339 . S
C441 H468 0.931 . S
C442 C443 1.395 . S
C442 C444 1.320 . S
C443 C441 1.339 . S
C443 C442 1.395 . S
C443 H469 0.929 . S
C444 C442 1.320 . S
C444 C445 1.405 . S
C444 H470 0.930 1_556 S
C445 C440 1.479 . S
C445 C444 1.405 . S
C445 H471 0.931 . S
U446 O447 2.454 . S
U446 O448 2.458 . S
U446 C449 2.984 . S
U446 C450 2.847 . S
U446 C463 2.882 . S
U446 O464 2.441 . S
U446 O465 2.420 . S
U446 O466 2.455 . S
U446 O467 2.449 . S
O447 U446 2.454 . S
O447 C449 1.353 . S
O448 U446 2.458 . S
O448 C449 1.286 . S
C449 U446 2.984 . S
C449 O447 1.353 . S
C449 O448 1.286 . S
C449 C451 1.363 . S
C450 C440 1.465 . S
C450 U446 2.847 . S
C450 O464 1.249 . S
C450 O465 1.202 . S
C451 C449 1.363 . S
C451 C453 1.408 . S
C451 C456 1.342 . S
C452 C453 1.310 1_554 S
C452 C455 1.461 1_554 S
C452 H472 0.932 . S
C453 C451 1.408 . S
C453 C452 1.310 1_556 S
C453 H473 0.930 1_556 S
C454 C455 1.474 . S
C454 C456 1.285 . S
C454 H474 0.929 . S
C455 C452 1.461 1_556 S
C455 C454 1.474 . S
C456 C451 1.342 . S
C456 C454 1.285 . S
C456 H475 0.930 . S
C457 C460 1.424 . S
C457 C462 1.245 . S
C457 C463 1.428 . S
C458 C461 1.260 . S
C458 C462 1.477 . S
C458 H476 0.932 . S
C459 C460 1.384 . S
C459 C461 1.479 . S
C459 H477 0.929 . S
C460 C457 1.424 . S
C460 C459 1.384 . S
C460 H478 0.928 . S
C461 C458 1.260 . S
C461 C459 1.479 . S
C462 C457 1.245 . S
C462 C458 1.477 . S
C462 H479 0.932 . S
C463 U446 2.882 . S
C463 C457 1.428 . S
C463 O466 1.301 . S
C463 O467 1.282 . S
O464 U446 2.441 . S
O464 C450 1.249 . S
O465 U446 2.420 . S
O465 C450 1.202 . S
O466 U446 2.455 . S
O466 C463 1.301 . S
O467 U446 2.449 . S
O467 C463 1.282 . S
H468 C441 0.931 . S
H469 C443 0.929 . S
H470 C444 0.930 1_554 S
H471 C445 0.931 . S
H472 C452 0.932 . S
H473 C453 0.930 1_554 S
H474 C454 0.929 . S
H475 C456 0.930 . S
H476 C458 0.932 . S
H477 C459 0.929 . S
H478 C460 0.928 . S
H479 C462 0.932 . S
C480 C481 1.264 . S
C480 C485 1.479 . S
C480 C490 1.465 . S
C481 C480 1.264 . S
C481 C483 1.339 . S
C481 H508 0.931 . S
C482 C483 1.395 . S
C482 C484 1.320 1_554 S
C483 C481 1.339 . S
C483 C482 1.395 . S
C483 H509 0.929 . S
C484 C482 1.320 1_556 S
C484 C485 1.405 1_556 S
C484 H510 0.930 . S
C485 C480 1.479 . S
C485 C484 1.405 1_554 S
C485 H511 0.931 1_554 S
U486 O487 2.454 . S
U486 O488 2.458 . S
U486 C489 2.984 . S
U486 C490 2.847 . S
U486 C503 2.882 . S
U486 O504 2.441 . S
U486 O505 2.420 . S
U486 O506 2.455 . S
U486 O507 2.449 . S
O487 U486 2.454 . S
O487 C489 1.353 . S
O488 U486 2.458 . S
O488 C489 1.286 . S
C489 U486 2.984 . S
C489 O487 1.353 . S
C489 O488 1.286 . S
C489 C491 1.363 . S
C490 C480 1.465 . S
C490 U486 2.847 . S
C490 O504 1.249 . S
C490 O505 1.202 . S
C491 C489 1.363 . S
C491 C493 1.408 1_554 S
C491 C496 1.342 . S
C492 C493 1.310 . S
C492 C495 1.483 . S
C492 H512 0.932 . S
C493 C491 1.408 1_556 S
C493 C492 1.310 . S
C493 H513 0.930 . S
C494 C495 1.432 1_554 S
C494 C496 1.285 . S
C494 H514 0.929 . S
C495 C492 1.483 . S
C495 C494 1.432 1_556 S
C496 C491 1.342 . S
C496 C494 1.285 . S
C496 H515 0.930 . S
C497 C500 1.424 . S
C497 C502 1.245 . S
C497 C503 1.428 . S
C498 C501 1.260 . S
C498 C502 1.477 . S
C498 H516 0.932 . S
C499 C500 1.384 . S
C499 C501 1.479 . S
C499 H517 0.929 . S
C500 C497 1.424 . S
C500 C499 1.384 . S
C500 H518 0.928 . S
C501 C498 1.260 . S
C501 C499 1.479 . S
C502 C497 1.245 . S
C502 C498 1.477 . S
C502 H519 0.932 . S
C503 U486 2.882 . S
C503 C497 1.428 . S
C503 O506 1.301 . S
C503 O507 1.282 . S
O504 U486 2.441 . S
O504 C490 1.249 . S
O505 U486 2.420 . S
O505 C490 1.202 . S
O506 U486 2.455 . S
O506 C503 1.301 . S
O507 U486 2.449 . S
O507 C503 1.282 . S
H508 C481 0.931 . S
H509 C483 0.929 . S
H510 C484 0.930 . S
H511 C485 0.931 1_556 S
H512 C492 0.932 . S
H513 C493 0.930 . S
H514 C494 0.929 . S
H515 C496 0.930 . S
H516 C498 0.932 . S
H517 C499 0.929 . S
H518 C500 0.928 . S
H519 C502 0.932 . S
C520 C521 1.264 . S
C520 C525 1.479 . S
C520 C530 1.465 . S
C521 C520 1.264 . S
C521 C523 1.339 . S
C521 H548 0.931 . S
C522 C523 1.395 . S
C522 C524 1.320 . S
C523 C521 1.339 . S
C523 C522 1.395 . S
C523 H549 0.929 . S
C524 C522 1.320 . S
C524 C525 1.405 . S
C524 H550 0.930 1_554 S
C525 C520 1.479 . S
C525 C524 1.405 . S
C525 H551 0.931 . S
U526 O527 2.454 . S
U526 O528 2.458 . S
U526 C529 2.984 . S
U526 C530 2.847 . S
U526 C543 2.882 . S
U526 O544 2.441 . S
U526 O545 2.420 . S
U526 O546 2.455 . S
U526 O547 2.449 . S
O527 U526 2.454 . S
O527 C529 1.353 . S
O528 U526 2.458 . S
O528 C529 1.286 . S
C529 U526 2.984 . S
C529 O527 1.353 . S
C529 O528 1.286 . S
C529 C531 1.363 . S
C530 C520 1.465 . S
C530 U526 2.847 . S
C530 O544 1.249 . S
C530 O545 1.202 . S
C531 C529 1.363 . S
C531 C533 1.408 . S
C531 C536 1.342 . S
C532 C533 1.310 1_556 S
C532 C535 1.461 1_556 S
C532 H552 0.932 . S
C533 C531 1.408 . S
C533 C532 1.310 1_554 S
C533 H553 0.930 1_554 S
C534 C535 1.474 . S
C534 C536 1.285 . S
C534 H554 0.929 . S
C535 C532 1.461 1_554 S
C535 C534 1.474 . S
C536 C531 1.342 . S
C536 C534 1.285 . S
C536 H555 0.930 . S
C537 C540 1.424 . S
C537 C542 1.245 . S
C537 C543 1.428 . S
C538 C541 1.260 . S
C538 C542 1.477 . S
C538 H556 0.932 . S
C539 C540 1.384 . S
C539 C541 1.479 . S
C539 H557 0.929 . S
C540 C537 1.424 . S
C540 C539 1.384 . S
C540 H558 0.928 . S
C541 C538 1.260 . S
C541 C539 1.479 . S
C542 C537 1.245 . S
C542 C538 1.477 . S
C542 H559 0.932 . S
C543 U526 2.882 . S
C543 C537 1.428 . S
C543 O546 1.301 . S
C543 O547 1.282 . S
O544 U526 2.441 . S
O544 C530 1.249 . S
O545 U526 2.420 . S
O545 C530 1.202 . S
O546 U526 2.455 . S
O546 C543 1.301 . S
O547 U526 2.449 . S
O547 C543 1.282 . S
H548 C521 0.931 . S
H549 C523 0.929 . S
H550 C524 0.930 1_556 S
H551 C525 0.931 . S
H552 C532 0.932 . S
H553 C533 0.930 1_556 S
H554 C534 0.929 . S
H555 C536 0.930 . S
H556 C538 0.932 . S
H557 C539 0.929 . S
H558 C540 0.928 . S
H559 C542 0.932 . S
C560 C561 1.264 . S
C560 C565 1.479 . S
C560 C570 1.465 . S
C561 C560 1.264 . S
C561 C563 1.339 . S
C561 H588 0.931 . S
C562 C563 1.395 . S
C562 C564 1.320 . S
C563 C561 1.339 . S
C563 C562 1.395 . S
C563 H589 0.929 . S
C564 C562 1.320 . S
C564 C565 1.405 . S
C564 H590 0.930 1_554 S
C565 C560 1.479 . S
C565 C564 1.405 . S
C565 H591 0.931 . S
U566 O567 2.454 . S
U566 O568 2.458 . S
U566 C569 2.984 . S
U566 C570 2.847 . S
U566 C583 2.882 . S
U566 O584 2.441 . S
U566 O585 2.420 . S
U566 O586 2.455 . S
U566 O587 2.449 . S
O567 U566 2.454 . S
O567 C569 1.353 . S
O568 U566 2.458 . S
O568 C569 1.286 . S
C569 U566 2.984 . S
C569 O567 1.353 . S
C569 O568 1.286 . S
C569 C571 1.363 . S
C570 C560 1.465 . S
C570 U566 2.847 . S
C570 O584 1.249 . S
C570 O585 1.202 . S
C571 C569 1.363 . S
C571 C573 1.408 . S
C571 C576 1.342 . S
C572 C573 1.310 . S
C572 C575 1.461 . S
C572 H592 0.932 . S
C573 C571 1.408 . S
C573 C572 1.310 . S
C573 H593 0.930 . S
C574 C575 1.474 . S
C574 C576 1.285 . S
C574 H594 0.929 . S
C575 C572 1.461 . S
C575 C574 1.474 . S
C576 C571 1.342 . S
C576 C574 1.285 . S
C576 H595 0.930 . S
C577 C580 1.424 . S
C577 C582 1.245 . S
C577 C583 1.428 . S
C578 C581 1.260 . S
C578 C582 1.477 . S
C578 H596 0.932 . S
C579 C580 1.384 . S
C579 C581 1.479 . S
C579 H597 0.929 . S
C580 C577 1.424 . S
C580 C579 1.384 . S
C580 H598 0.928 . S
C581 C578 1.260 . S
C581 C579 1.479 . S
C582 C577 1.245 . S
C582 C578 1.477 . S
C582 H599 0.932 . S
C583 U566 2.882 . S
C583 C577 1.428 . S
C583 O586 1.301 . S
C583 O587 1.282 . S
O584 U566 2.441 . S
O584 C570 1.249 . S
O585 U566 2.420 . S
O585 C570 1.202 . S
O586 U566 2.455 . S
O586 C583 1.301 . S
O587 U566 2.449 . S
O587 C583 1.282 . S
H588 C561 0.931 . S
H589 C563 0.929 . S
H590 C564 0.930 1_556 S
H591 C565 0.931 . S
H592 C572 0.932 . S
H593 C573 0.930 . S
H594 C574 0.929 . S
H595 C576 0.930 . S
H596 C578 0.932 . S
H597 C579 0.929 . S
H598 C580 0.928 . S
H599 C582 0.932 . S
C600 C601 1.264 . S
C600 C605 1.479 . S
C600 C610 1.465 . S
C601 C600 1.264 . S
C601 C603 1.339 . S
C601 H628 0.931 . S
C602 C603 1.395 . S
C602 C604 1.320 . S
C603 C601 1.339 . S
C603 C602 1.395 . S
C603 H629 0.929 . S
C604 C602 1.320 . S
C604 C605 1.405 . S
C604 H630 0.930 . S
C605 C600 1.479 . S
C605 C604 1.405 . S
C605 H631 0.931 . S
U606 O607 2.454 . S
U606 O608 2.458 . S
U606 C609 2.984 . S
U606 C610 2.847 . S
U606 C623 2.882 . S
U606 O624 2.441 . S
U606 O625 2.420 . S
U606 O626 2.455 . S
U606 O627 2.449 . S
O607 U606 2.454 . S
O607 C609 1.353 . S
O608 U606 2.458 . S
O608 C609 1.286 . S
C609 U606 2.984 . S
C609 O607 1.353 . S
C609 O608 1.286 . S
C609 C611 1.363 . S
C610 C600 1.465 . S
C610 U606 2.847 . S
C610 O624 1.249 . S
C610 O625 1.202 . S
C611 C609 1.363 . S
C611 C613 1.408 . S
C611 C616 1.342 . S
C612 C613 1.310 . S
C612 C615 1.461 . S
C612 H632 0.932 . S
C613 C611 1.408 . S
C613 C612 1.310 . S
C613 H633 0.930 . S
C614 C615 1.474 . S
C614 C616 1.285 . S
C614 H634 0.929 . S
C615 C612 1.461 . S
C615 C614 1.474 . S
C616 C611 1.342 . S
C616 C614 1.285 . S
C616 H635 0.930 . S
C617 C620 1.424 . S
C617 C622 1.245 . S
C617 C623 1.428 . S
C618 C621 1.260 . S
C618 C622 1.477 . S
C618 H636 0.932 . S
C619 C620 1.384 . S
C619 C621 1.479 . S
C619 H637 0.929 . S
C620 C617 1.424 . S
C620 C619 1.384 . S
C620 H638 0.928 . S
C621 C618 1.260 . S
C621 C619 1.479 . S
C622 C617 1.245 . S
C622 C618 1.477 . S
C622 H639 0.932 . S
C623 U606 2.882 . S
C623 C617 1.428 . S
C623 O626 1.301 . S
C623 O627 1.282 . S
O624 U606 2.441 . S
O624 C610 1.249 . S
O625 U606 2.420 . S
O625 C610 1.202 . S
O626 U606 2.455 . S
O626 C623 1.301 . S
O627 U606 2.449 . S
O627 C623 1.282 . S
H628 C601 0.931 . S
H629 C603 0.929 . S
H630 C604 0.930 . S
H631 C605 0.931 . S
H632 C612 0.932 . S
H633 C613 0.930 . S
H634 C614 0.929 . S
H635 C616 0.930 . S
H636 C618 0.932 . S
H637 C619 0.929 . S
H638 C620 0.928 . S
H639 C622 0.932 . S
C640 C641 1.264 . S
C640 C645 1.479 . S
C640 C650 1.465 . S
C641 C640 1.264 . S
C641 C643 1.339 . S
C641 H668 0.931 . S
C642 C643 1.395 . S
C642 C644 1.320 . S
C643 C641 1.339 . S
C643 C642 1.395 . S
C643 H669 0.929 . S
C644 C642 1.320 . S
C644 C645 1.405 . S
C644 H670 0.930 . S
C645 C640 1.479 . S
C645 C644 1.405 . S
C645 H671 0.931 . S
U646 O647 2.454 . S
U646 O648 2.458 . S
U646 C649 2.984 . S
U646 C650 2.847 . S
U646 C663 2.882 1_455 S
U646 O664 2.441 . S
U646 O665 2.420 . S
U646 O666 2.455 . S
U646 O667 2.449 1_455 S
O647 U646 2.454 . S
O647 C649 1.353 . S
O648 U646 2.458 . S
O648 C649 1.286 . S
C649 U646 2.984 . S
C649 O647 1.353 . S
C649 O648 1.286 . S
C649 C651 1.363 . S
C650 C640 1.465 . S
C650 U646 2.847 . S
C650 O664 1.249 . S
C650 O665 1.202 . S
C651 C649 1.363 . S
C651 C653 1.408 . S
C651 C656 1.342 . S
C652 C653 1.310 . S
C652 C655 1.461 . S
C652 H672 0.932 . S
C653 C651 1.408 . S
C653 C652 1.310 . S
C653 H673 0.930 . S
C654 C655 1.474 . S
C654 C656 1.285 . S
C654 H674 0.929 . S
C655 C652 1.461 . S
C655 C654 1.474 . S
C656 C651 1.342 . S
C656 C654 1.285 . S
C656 H675 0.930 . S
C657 C660 1.424 . S
C657 C662 1.245 . S
C657 C663 1.428 . S
C658 C661 1.260 . S
C658 C662 1.477 . S
C658 H676 0.932 . S
C659 C660 1.384 . S
C659 C661 1.479 . S
C659 H677 0.929 . S
C660 C657 1.424 . S
C660 C659 1.384 . S
C660 H678 0.928 . S
C661 C658 1.260 . S
C661 C659 1.479 . S
C662 C657 1.245 . S
C662 C658 1.477 . S
C662 H679 0.932 . S
C663 U646 2.882 1_655 S
C663 C657 1.428 . S
C663 O666 1.301 1_655 S
C663 O667 1.282 . S
O664 U646 2.441 . S
O664 C650 1.249 . S
O665 U646 2.420 . S
O665 C650 1.202 . S
O666 U646 2.455 . S
O666 C663 1.301 1_455 S
O667 U646 2.449 1_655 S
O667 C663 1.282 . S
H668 C641 0.931 . S
H669 C643 0.929 . S
H670 C644 0.930 . S
H671 C645 0.931 . S
H672 C652 0.932 . S
H673 C653 0.930 . S
H674 C654 0.929 . S
H675 C656 0.930 . S
H676 C658 0.932 . S
H677 C659 0.929 . S
H678 C660 0.928 . S
H679 C662 0.932 . S
C680 C681 1.264 . S
C680 C685 1.479 . S
C680 C690 1.465 . S
C681 C680 1.264 . S
C681 C683 1.339 . S
C681 H708 0.931 . S
C682 C683 1.395 . S
C682 C684 1.320 . S
C683 C681 1.339 . S
C683 C682 1.395 . S
C683 H709 0.929 . S
C684 C682 1.320 . S
C684 C685 1.405 . S
C684 H710 0.930 . S
C685 C680 1.479 . S
C685 C684 1.405 . S
C685 H711 0.931 . S
U686 O687 2.454 . S
U686 O688 2.458 . S
U686 C689 2.984 . S
U686 C690 2.847 . S
U686 C703 2.882 . S
U686 O704 2.441 . S
U686 O705 2.420 . S
U686 O706 2.455 . S
U686 O707 2.449 . S
O687 U686 2.454 . S
O687 C689 1.353 . S
O688 U686 2.458 . S
O688 C689 1.286 . S
C689 U686 2.984 . S
C689 O687 1.353 . S
C689 O688 1.286 . S
C689 C691 1.363 . S
C690 C680 1.465 . S
C690 U686 2.847 . S
C690 O704 1.249 . S
C690 O705 1.202 . S
C691 C689 1.363 . S
C691 C693 1.408 . S
C691 C696 1.342 . S
C692 C693 1.310 . S
C692 C695 1.461 . S
C692 H712 0.932 . S
C693 C691 1.408 . S
C693 C692 1.310 . S
C693 H713 0.930 . S
C694 C695 1.474 . S
C694 C696 1.285 . S
C694 H714 0.929 . S
C695 C692 1.461 . S
C695 C694 1.474 . S
C696 C691 1.342 . S
C696 C694 1.285 . S
C696 H715 0.930 . S
C697 C700 1.424 . S
C697 C702 1.245 . S
C697 C703 1.428 . S
C698 C701 1.260 . S
C698 C702 1.477 . S
C698 H716 0.932 . S
C699 C700 1.384 . S
C699 C701 1.479 . S
C699 H717 0.929 . S
C700 C697 1.424 . S
C700 C699 1.384 . S
C700 H718 0.928 . S
C701 C698 1.260 . S
C701 C699 1.479 . S
C702 C697 1.245 . S
C702 C698 1.477 . S
C702 H719 0.932 . S
C703 U686 2.882 . S
C703 C697 1.428 . S
C703 O706 1.301 . S
C703 O707 1.282 . S
O704 U686 2.441 . S
O704 C690 1.249 . S
O705 U686 2.420 . S
O705 C690 1.202 . S
O706 U686 2.455 . S
O706 C703 1.301 . S
O707 U686 2.449 . S
O707 C703 1.282 . S
H708 C681 0.931 . S
H709 C683 0.929 . S
H710 C684 0.930 . S
H711 C685 0.931 . S
H712 C692 0.932 . S
H713 C693 0.930 . S
H714 C694 0.929 . S
H715 C696 0.930 . S
H716 C698 0.932 . S
H717 C699 0.929 . S
H718 C700 0.928 . S
H719 C702 0.932 . S
Tb720 C730 2.825 . S
Tb720 O731 2.347 1_565 S
Tb720 O734 2.366 1_565 S
Tb720 O739 2.418 . S
Tb720 O740 2.384 . S
Tb720 O743 2.479 . S
Tb720 O744 2.455 1_565 S
Eu721 O732 2.418 . S
Eu721 O733 2.384 . S
Eu721 O736 2.479 . S
Eu721 O737 2.470 1_545 S
Eu721 O738 2.347 1_545 S
Eu721 O741 2.366 1_545 S
Eu721 C751 2.825 . S
C722 O738 1.259 . S
C722 O739 1.265 1_554 S
C723 O740 1.255 1_554 S
C723 O741 1.265 . S
C724 C726 1.380 . S
C724 C727 1.374 1_565 S
C724 C730 1.507 . S
C725 C726 1.384 . S
C725 C729 1.387 1_565 S
C725 H752 0.930 . S
C726 C724 1.380 . S
C726 C725 1.384 . S
C726 H753 0.931 . S
C727 C724 1.374 1_545 S
C727 C728 1.390 . S
C727 H754 0.930 . S
C728 C727 1.390 . S
C728 C729 1.391 . S
C728 H755 0.930 . S
C729 C725 1.387 1_545 S
C729 C728 1.391 . S
C730 Tb720 2.825 . S
C730 C724 1.507 . S
C730 O743 1.238 . S
C730 O744 1.222 1_565 S
O731 Tb720 2.347 1_545 S
O731 C735 1.259 . S
O732 Eu721 2.418 . S
O732 C735 1.265 1_554 S
O733 Eu721 2.384 . S
O733 C742 1.255 1_554 S
O734 Tb720 2.366 1_545 S
O734 C742 1.265 . S
C735 O731 1.259 . S
C735 O732 1.265 1_556 S
O736 Eu721 2.479 . S
O736 C751 1.238 . S
O737 Eu721 2.470 1_565 S
O737 C751 1.245 1_565 S
O738 Eu721 2.347 1_565 S
O738 C722 1.259 . S
O739 Tb720 2.418 . S
O739 C722 1.265 1_556 S
O740 Tb720 2.384 . S
O740 C723 1.255 1_556 S
O741 Eu721 2.366 1_565 S
O741 C723 1.265 . S
C742 O733 1.255 1_556 S
C742 O734 1.265 . S
O743 Tb720 2.479 . S
O743 C730 1.238 . S
O744 Tb720 2.455 1_545 S
O744 C730 1.222 1_545 S
C745 C748 1.380 . S
C745 C749 1.374 1_545 S
C745 C751 1.507 . S
C746 C747 1.387 1_565 S
C746 C750 1.391 . S
C747 C746 1.387 1_545 S
C747 C748 1.384 . S
C747 H756 0.930 . S
C748 C745 1.380 . S
C748 C747 1.384 . S
C748 H757 0.931 . S
C749 C745 1.374 1_565 S
C749 C750 1.390 . S
C749 H758 0.930 . S
C750 C746 1.391 . S
C750 C749 1.390 . S
C750 H759 0.930 . S
C751 Eu721 2.825 . S
C751 O736 1.238 . S
C751 O737 1.245 1_545 S
C751 C745 1.507 . S
H752 C725 0.930 . S
H753 C726 0.931 . S
H754 C727 0.930 . S
H755 C728 0.930 . S
H756 C747 0.930 . S
H757 C748 0.931 . S
H758 C749 0.930 . S
H759 C750 0.930 . S
Tb760 C770 2.825 . S
Tb760 O771 2.347 1_455 S
Tb760 O774 2.366 1_455 S
Tb760 O779 2.418 . S
Tb760 O780 2.384 1_556 S
Tb760 O783 2.479 . S
Tb760 O784 2.471 1_455 S
Eu761 O772 2.418 . S
Eu761 O773 2.348 1_554 S
Eu761 O776 2.479 . S
Eu761 O777 2.471 1_655 S
Eu761 O778 2.347 1_655 S
Eu761 O781 2.366 1_655 S
Eu761 C791 2.825 . S
C762 O778 1.259 . S
C762 O779 1.265 1_554 S
C763 O780 1.255 . S
C763 O781 1.265 . S
C764 C766 1.380 . S
C764 C767 1.374 1_455 S
C764 C770 1.507 . S
C765 C766 1.384 . S
C765 C769 1.387 1_455 S
C765 H792 0.930 . S
C766 C764 1.380 . S
C766 C765 1.384 . S
C766 H793 0.931 . S
C767 C764 1.374 1_655 S
C767 C768 1.390 . S
C767 H794 0.930 . S
C768 C767 1.390 . S
C768 C769 1.391 . S
C768 H795 0.930 . S
C769 C765 1.387 1_655 S
C769 C768 1.391 . S
C770 Tb760 2.825 . S
C770 C764 1.507 . S
C770 O783 1.238 . S
C770 O784 1.247 1_455 S
O771 Tb760 2.347 1_655 S
O771 C775 1.259 . S
O772 Eu761 2.418 . S
O772 C775 1.265 1_554 S
O773 Eu761 2.348 1_556 S
O773 C782 1.300 . S
O774 Tb760 2.366 1_655 S
O774 C782 1.265 . S
C775 O771 1.259 . S
C775 O772 1.265 1_556 S
O776 Eu761 2.479 . S
O776 C791 1.238 . S
O777 Eu761 2.471 1_455 S
O777 C791 1.247 1_455 S
O778 Eu761 2.347 1_455 S
O778 C762 1.259 . S
O779 Tb760 2.418 . S
O779 C762 1.265 1_556 S
O780 Tb760 2.384 1_554 S
O780 C763 1.255 . S
O781 Eu761 2.366 1_455 S
O781 C763 1.265 . S
C782 O773 1.300 . S
C782 O774 1.265 . S
O783 Tb760 2.479 . S
O783 C770 1.238 . S
O784 Tb760 2.471 1_655 S
O784 C770 1.247 1_655 S
C785 C788 1.380 . S
C785 C789 1.374 1_655 S
C785 C791 1.507 . S
C786 C787 1.387 1_455 S
C786 C790 1.391 . S
C787 C786 1.387 1_655 S
C787 C788 1.384 . S
C787 H796 0.930 . S
C788 C785 1.380 . S
C788 C787 1.384 . S
C788 H797 0.931 . S
C789 C785 1.374 1_455 S
C789 C790 1.390 . S
C789 H798 0.930 . S
C790 C786 1.391 . S
C790 C789 1.390 . S
C790 H799 0.930 . S
C791 Eu761 2.825 . S
C791 O776 1.238 . S
C791 O777 1.247 1_655 S
C791 C785 1.507 . S
H792 C765 0.930 . S
H793 C766 0.931 . S
H794 C767 0.930 . S
H795 C768 0.930 . S
H796 C787 0.930 . S
H797 C788 0.931 . S
H798 C789 0.930 . S
H799 C790 0.930 . S
Tb800 C810 2.825 . S
Tb800 O811 2.347 . S
Tb800 O814 2.366 . S
Tb800 O819 2.418 . S
Tb800 O820 2.384 . S
Tb800 O823 2.479 . S
Tb800 O824 2.471 . S
Eu801 O812 2.418 . S
Eu801 O813 2.384 1_556 S
Eu801 O816 2.479 . S
Eu801 O817 2.471 . S
Eu801 O818 2.347 . S
Eu801 O821 2.366 . S
Eu801 C831 2.825 . S
C802 O818 1.259 . S
C802 O819 1.265 1_556 S
C803 O820 1.255 1_556 S
C803 O821 1.265 . S
C804 C806 1.380 . S
C804 C807 1.374 . S
C804 C810 1.507 . S
C805 C806 1.384 . S
C805 C809 1.387 . S
C805 H832 0.930 . S
C806 C804 1.380 . S
C806 C805 1.384 . S
C806 H833 0.931 . S
C807 C804 1.374 . S
C807 C808 1.390 . S
C807 H834 0.930 . S
C808 C807 1.390 . S
C808 C809 1.391 . S
C808 H835 0.930 . S
C809 C805 1.387 . S
C809 C808 1.391 . S
C810 Tb800 2.825 . S
C810 C804 1.507 . S
C810 O823 1.238 . S
C810 O824 1.247 . S
O811 Tb800 2.347 . S
O811 C815 1.259 . S
O812 Eu801 2.418 . S
O812 C815 1.265 1_556 S
O813 Eu801 2.384 1_554 S
O813 C822 1.255 . S
O814 Tb800 2.366 . S
O814 C822 1.265 . S
C815 O811 1.259 . S
C815 O812 1.265 1_554 S
O816 Eu801 2.479 . S
O816 C831 1.238 . S
O817 Eu801 2.471 . S
O817 C831 1.247 . S
O818 Eu801 2.347 . S
O818 C802 1.259 . S
O819 Tb800 2.418 . S
O819 C802 1.265 1_554 S
O820 Tb800 2.384 . S
O820 C803 1.255 1_554 S
O821 Eu801 2.366 . S
O821 C803 1.265 . S
C822 O813 1.255 . S
C822 O814 1.265 . S
O823 Tb800 2.479 . S
O823 C810 1.238 . S
O824 Tb800 2.471 . S
O824 C810 1.247 . S
C825 C828 1.380 . S
C825 C829 1.374 . S
C825 C831 1.507 . S
C826 C827 1.387 . S
C826 C830 1.391 . S
C827 C826 1.387 . S
C827 C828 1.384 . S
C827 H836 0.930 . S
C828 C825 1.380 . S
C828 C827 1.384 . S
C828 H837 0.931 . S
C829 C825 1.374 . S
C829 C830 1.390 . S
C829 H838 0.930 . S
C830 C826 1.391 . S
C830 C829 1.390 . S
C830 H839 0.930 . S
C831 Eu801 2.825 . S
C831 O816 1.238 . S
C831 O817 1.247 . S
C831 C825 1.507 . S
H832 C805 0.930 . S
H833 C806 0.931 . S
H834 C807 0.930 . S
H835 C808 0.930 . S
H836 C827 0.930 . S
H837 C828 0.931 . S
H838 C829 0.930 . S
H839 C830 0.930 . S
Tb840 C850 2.825 . S
Tb840 O851 2.347 . S
Tb840 O854 2.366 . S
Tb840 O859 2.418 . S
Tb840 O860 2.384 . S
Tb840 O863 2.479 . S
Tb840 O864 2.471 . S
Eu841 O852 2.418 . S
Eu841 O853 2.384 . S
Eu841 O856 2.479 . S
Eu841 O857 2.471 . S
Eu841 O858 2.347 . S
Eu841 O861 2.366 . S
Eu841 C871 2.825 . S
C842 O858 1.259 . S
C842 O859 1.265 . S
C843 O860 1.255 . S
C843 O861 1.265 . S
C844 C846 1.380 . S
C844 C847 1.374 . S
C844 C850 1.507 . S
C845 C846 1.384 . S
C845 C849 1.387 . S
C845 H872 0.930 . S
C846 C844 1.380 . S
C846 C845 1.384 . S
C846 H873 0.931 . S
C847 C844 1.374 . S
C847 C848 1.390 . S
C847 H874 0.930 . S
C848 C847 1.390 . S
C848 C849 1.391 . S
C848 H875 0.930 . S
C849 C845 1.387 . S
C849 C848 1.391 . S
C850 Tb840 2.825 . S
C850 C844 1.507 . S
C850 O863 1.238 . S
C850 O864 1.247 . S
O851 Tb840 2.347 . S
O851 C855 1.259 . S
O852 Eu841 2.418 . S
O852 C855 1.265 . S
O853 Eu841 2.384 . S
O853 C862 1.255 . S
O854 Tb840 2.366 . S
O854 C862 1.265 . S
C855 O851 1.259 . S
C855 O852 1.265 . S
O856 Eu841 2.479 . S
O856 C871 1.238 . S
O857 Eu841 2.471 . S
O857 C871 1.247 . S
O858 Eu841 2.347 . S
O858 C842 1.259 . S
O859 Tb840 2.418 . S
O859 C842 1.265 . S
O860 Tb840 2.384 . S
O860 C843 1.255 . S
O861 Eu841 2.366 . S
O861 C843 1.265 . S
C862 O853 1.255 . S
C862 O854 1.265 . S
O863 Tb840 2.479 . S
O863 C850 1.238 . S
O864 Tb840 2.471 . S
O864 C850 1.247 . S
C865 C868 1.380 . S
C865 C869 1.374 . S
C865 C871 1.507 . S
C866 C867 1.387 . S
C866 C870 1.391 . S
C867 C866 1.387 . S
C867 C868 1.384 . S
C867 H876 0.930 . S
C868 C865 1.380 . S
C868 C867 1.384 . S
C868 H877 0.931 . S
C869 C865 1.374 . S
C869 C870 1.390 . S
C869 H878 0.930 . S
C870 C866 1.391 . S
C870 C869 1.390 . S
C870 H879 0.930 . S
C871 Eu841 2.825 . S
C871 O856 1.238 . S
C871 O857 1.247 . S
C871 C865 1.507 . S
H872 C845 0.930 . S
H873 C846 0.931 . S
H874 C847 0.930 . S
H875 C848 0.930 . S
H876 C867 0.930 . S
H877 C868 0.931 . S
H878 C869 0.930 . S
H879 C870 0.930 . S
Tb880 C890 2.825 . S
Tb880 O891 2.347 . S
Tb880 O894 2.366 . S
Tb880 O899 2.418 . S
Tb880 O900 2.384 . S
Tb880 O903 2.479 . S
Tb880 O904 2.471 . S
Eu881 O892 2.418 . S
Eu881 O893 2.384 . S
Eu881 O896 2.479 . S
Eu881 O897 2.471 . S
Eu881 O898 2.347 . S
Eu881 O901 2.366 . S
Eu881 C911 2.825 . S
C882 O898 1.259 . S
C882 O899 1.265 . S
C883 O900 1.255 . S
C883 O901 1.265 . S
C884 C886 1.380 . S
C884 C887 1.374 . S
C884 C890 1.507 . S
C885 C886 1.384 . S
C885 C889 1.387 . S
C885 H912 0.930 . S
C886 C884 1.380 . S
C886 C885 1.384 . S
C886 H913 0.931 . S
C887 C884 1.374 . S
C887 C888 1.390 . S
C887 H914 0.930 . S
C888 C887 1.390 . S
C888 C889 1.391 . S
C888 H915 0.930 . S
C889 C885 1.387 . S
C889 C888 1.391 . S
C890 Tb880 2.825 . S
C890 C884 1.507 . S
C890 O903 1.238 . S
C890 O904 1.247 . S
O891 Tb880 2.347 . S
O891 C895 1.259 . S
O892 Eu881 2.418 . S
O892 C895 1.265 . S
O893 Eu881 2.384 . S
O893 C902 1.255 . S
O894 Tb880 2.366 . S
O894 C902 1.265 . S
C895 O891 1.259 . S
C895 O892 1.265 . S
O896 Eu881 2.479 . S
O896 C911 1.238 . S
O897 Eu881 2.471 . S
O897 C911 1.247 . S
O898 Eu881 2.347 . S
O898 C882 1.259 . S
O899 Tb880 2.418 . S
O899 C882 1.265 . S
O900 Tb880 2.384 . S
O900 C883 1.255 . S
O901 Eu881 2.366 . S
O901 C883 1.265 . S
C902 O893 1.255 . S
C902 O894 1.265 . S
O903 Tb880 2.479 . S
O903 C890 1.238 . S
O904 Tb880 2.471 . S
O904 C890 1.247 . S
C905 C908 1.380 . S
C905 C909 1.374 . S
C905 C911 1.507 . S
C906 C907 1.387 . S
C906 C910 1.391 . S
C907 C906 1.387 . S
C907 C908 1.384 . S
C907 H916 0.930 . S
C908 C905 1.380 . S
C908 C907 1.384 . S
C908 H917 0.931 . S
C909 C905 1.374 . S
C909 C910 1.390 . S
C909 H918 0.930 . S
C910 C906 1.391 . S
C910 C909 1.390 . S
C910 H919 0.930 . S
C911 Eu881 2.825 . S
C911 O896 1.238 . S
C911 O897 1.247 . S
C911 C905 1.507 . S
H912 C885 0.930 . S
H913 C886 0.931 . S
H914 C887 0.930 . S
H915 C888 0.930 . S
H916 C907 0.930 . S
H917 C908 0.931 . S
H918 C909 0.930 . S
H919 C910 0.930 . S
Tb920 C930 2.825 . S
Tb920 O931 2.347 . S
Tb920 O934 2.366 . S
Tb920 O939 2.418 . S
Tb920 O940 2.384 . S
Tb920 O943 2.479 . S
Tb920 O944 2.471 . S
Eu921 O932 2.418 . S
Eu921 O933 2.384 . S
Eu921 O936 2.479 . S
Eu921 O937 2.471 . S
Eu921 O938 2.347 . S
Eu921 O941 2.366 . S
Eu921 C951 2.825 . S
C922 O938 1.259 . S
C922 O939 1.265 . S
C923 O940 1.255 . S
C923 O941 1.265 . S
C924 C926 1.380 . S
C924 C927 1.374 . S
C924 C930 1.507 . S
C925 C926 1.384 . S
C925 C929 1.387 . S
C925 H952 0.930 . S
C926 C924 1.380 . S
C926 C925 1.384 . S
C926 H953 0.931 . S
C927 C924 1.374 . S
C927 C928 1.390 . S
C927 H954 0.930 . S
C928 C927 1.390 . S
C928 C929 1.391 . S
C928 H955 0.930 . S
C929 C925 1.387 . S
C929 C928 1.391 . S
C930 Tb920 2.825 . S
C930 C924 1.507 . S
C930 O943 1.238 . S
C930 O944 1.247 . S
O931 Tb920 2.347 . S
O931 C935 1.259 . S
O932 Eu921 2.418 . S
O932 C935 1.265 . S
O933 Eu921 2.384 . S
O933 C942 1.255 . S
O934 Tb920 2.366 . S
O934 C942 1.265 . S
C935 O931 1.259 . S
C935 O932 1.265 . S
O936 Eu921 2.479 . S
O936 C951 1.238 . S
O937 Eu921 2.471 . S
O937 C951 1.247 . S
O938 Eu921 2.347 . S
O938 C922 1.259 . S
O939 Tb920 2.418 . S
O939 C922 1.265 . S
O940 Tb920 2.384 . S
O940 C923 1.255 . S
O941 Eu921 2.366 . S
O941 C923 1.265 . S
C942 O933 1.255 . S
C942 O934 1.265 . S
O943 Tb920 2.479 . S
O943 C930 1.238 . S
O944 Tb920 2.471 . S
O944 C930 1.247 . S
C945 C948 1.380 . S
C945 C949 1.374 . S
C945 C951 1.507 . S
C946 C947 1.387 . S
C946 C950 1.391 . S
C947 C946 1.387 . S
C947 C948 1.384 . S
C947 H956 0.930 . S
C948 C945 1.380 . S
C948 C947 1.384 . S
C948 H957 0.931 . S
C949 C945 1.374 . S
C949 C950 1.390 . S
C949 H958 0.930 . S
C950 C946 1.391 . S
C950 C949 1.390 . S
C950 H959 0.930 . S
C951 Eu921 2.825 . S
C951 O936 1.238 . S
C951 O937 1.247 . S
C951 C945 1.507 . S
H952 C925 0.930 . S
H953 C926 0.931 . S
H954 C927 0.930 . S
H955 C928 0.930 . S
H956 C947 0.930 . S
H957 C948 0.931 . S
H958 C949 0.930 . S
H959 C950 0.930 . S
Tb960 C970 2.825 . S
Tb960 O971 2.347 . S
Tb960 O974 2.366 . S
Tb960 O979 2.418 . S
Tb960 O980 2.384 . S
Tb960 O983 2.479 . S
Tb960 O984 2.471 . S
Eu961 O972 2.418 . S
Eu961 O973 2.384 . S
Eu961 O976 2.479 . S
Eu961 O977 2.471 . S
Eu961 O978 2.347 . S
Eu961 O981 2.366 . S
Eu961 C991 2.825 . S
C962 O978 1.259 . S
C962 O979 1.265 . S
C963 O980 1.255 . S
C963 O981 1.265 . S
C964 C966 1.380 . S
C964 C967 1.374 . S
C964 C970 1.507 . S
C965 C966 1.384 . S
C965 C969 1.387 . S
C965 H992 0.930 . S
C966 C964 1.380 . S
C966 C965 1.384 . S
C966 H993 0.931 . S
C967 C964 1.374 . S
C967 C968 1.390 . S
C967 H994 0.930 . S
C968 C967 1.390 . S
C968 C969 1.391 . S
C968 H995 0.930 . S
C969 C965 1.387 . S
C969 C968 1.391 . S
C970 Tb960 2.825 . S
C970 C964 1.507 . S
C970 O983 1.238 . S
C970 O984 1.247 . S
O971 Tb960 2.347 . S
O971 C975 1.259 . S
O972 Eu961 2.418 . S
O972 C975 1.265 . S
O973 Eu961 2.384 . S
O973 C982 1.255 . S
O974 Tb960 2.366 . S
O974 C982 1.265 . S
C975 O971 1.259 . S
C975 O972 1.265 . S
O976 Eu961 2.479 . S
O976 C991 1.238 . S
O977 Eu961 2.471 . S
O977 C991 1.247 . S
O978 Eu961 2.347 . S
O978 C962 1.259 . S
O979 Tb960 2.418 . S
O979 C962 1.265 . S
O980 Tb960 2.384 . S
O980 C963 1.255 . S
O981 Eu961 2.366 . S
O981 C963 1.265 . S
C982 O973 1.255 . S
C982 O974 1.265 . S
O983 Tb960 2.479 . S
O983 C970 1.238 . S
O984 Tb960 2.471 . S
O984 C970 1.247 . S
C985 C988 1.380 . S
C985 C989 1.374 . S
C985 C991 1.507 . S
C986 C987 1.387 . S
C986 C990 1.391 . S
C987 C986 1.387 . S
C987 C988 1.384 . S
C987 H996 0.930 . S
C988 C985 1.380 . S
C988 C987 1.384 . S
C988 H997 0.931 . S
C989 C985 1.374 . S
C989 C990 1.390 . S
C989 H998 0.930 . S
C990 C986 1.391 . S
C990 C989 1.390 . S
C990 H999 0.930 . S
C991 Eu961 2.825 . S
C991 O976 1.238 . S
C991 O977 1.247 . S
C991 C985 1.507 . S
H992 C965 0.930 . S
H993 C966 0.931 . S
H994 C967 0.930 . S
H995 C968 0.930 . S
H996 C987 0.930 . S
H997 C988 0.931 . S
H998 C989 0.930 . S
H999 C990 0.930 . S
Tb1000 C1010 2.825 . S
Tb1000 O1011 2.347 . S
Tb1000 O1014 2.366 . S
Tb1000 O1019 2.418 . S
Tb1000 O1020 2.384 . S
Tb1000 O1023 2.479 . S
Tb1000 O1024 2.471 . S
Eu1001 O1012 2.418 . S
Eu1001 O1013 2.384 . S
Eu1001 O1016 2.479 . S
Eu1001 O1017 2.471 . S
Eu1001 O1018 2.347 . S
Eu1001 O1021 2.366 . S
Eu1001 C1031 2.825 . S
C1002 O1018 1.259 . S
C1002 O1019 1.265 . S
C1003 O1020 1.255 . S
C1003 O1021 1.265 . S
C1004 C1006 1.380 . S
C1004 C1007 1.374 . S
C1004 C1010 1.507 . S
C1005 C1006 1.384 . S
C1005 C1009 1.387 . S
C1005 H1032 0.930 . S
C1006 C1004 1.380 . S
C1006 C1005 1.384 . S
C1006 H1033 0.931 . S
C1007 C1004 1.374 . S
C1007 C1008 1.390 . S
C1007 H1034 0.930 . S
C1008 C1007 1.390 . S
C1008 C1009 1.391 . S
C1008 H1035 0.930 . S
C1009 C1005 1.387 . S
C1009 C1008 1.391 . S
C1010 Tb1000 2.825 . S
C1010 C1004 1.507 . S
C1010 O1023 1.238 . S
C1010 O1024 1.247 . S
O1011 Tb1000 2.347 . S
O1011 C1015 1.259 . S
O1012 Eu1001 2.418 . S
O1012 C1015 1.265 . S
O1013 Eu1001 2.384 . S
O1013 C1022 1.255 . S
O1014 Tb1000 2.366 . S
O1014 C1022 1.265 . S
C1015 O1011 1.259 . S
C1015 O1012 1.265 . S
O1016 Eu1001 2.479 . S
O1016 C1031 1.238 . S
O1017 Eu1001 2.471 . S
O1017 C1031 1.247 . S
O1018 Eu1001 2.347 . S
O1018 C1002 1.259 . S
O1019 Tb1000 2.418 . S
O1019 C1002 1.265 . S
O1020 Tb1000 2.384 . S
O1020 C1003 1.255 . S
O1021 Eu1001 2.366 . S
O1021 C1003 1.265 . S
C1022 O1013 1.255 . S
C1022 O1014 1.265 . S
O1023 Tb1000 2.479 . S
O1023 C1010 1.238 . S
O1024 Tb1000 2.471 . S
O1024 C1010 1.247 . S
C1025 C1028 1.380 . S
C1025 C1029 1.374 . S
C1025 C1031 1.507 . S
C1026 C1027 1.387 . S
C1026 C1030 1.391 . S
C1027 C1026 1.387 . S
C1027 C1028 1.384 . S
C1027 H1036 0.930 . S
C1028 C1025 1.380 . S
C1028 C1027 1.384 . S
C1028 H1037 0.931 . S
C1029 C1025 1.374 . S
C1029 C1030 1.390 . S
C1029 H1038 0.930 . S
C1030 C1026 1.391 . S
C1030 C1029 1.390 . S
C1030 H1039 0.930 . S
C1031 Eu1001 2.825 . S
C1031 O1016 1.238 . S
C1031 O1017 1.247 . S
C1031 C1025 1.507 . S
H1032 C1005 0.930 . S
H1033 C1006 0.931 . S
H1034 C1007 0.930 . S
H1035 C1008 0.930 . S
H1036 C1027 0.930 . S
H1037 C1028 0.931 . S
H1038 C1029 0.930 . S
H1039 C1030 0.930 . S
Tb1040 C1050 2.825 . S
Tb1040 O1051 2.347 . S
Tb1040 O1054 2.366 . S
Tb1040 O1059 2.418 . S
Tb1040 O1060 2.384 . S
Tb1040 O1063 2.479 . S
Tb1040 O1064 2.471 . S
Eu1041 O1052 2.418 . S
Eu1041 O1053 2.384 . S
Eu1041 O1056 2.479 . S
Eu1041 O1057 2.471 . S
Eu1041 O1058 2.347 . S
Eu1041 O1061 2.366 . S
Eu1041 C1071 2.825 . S
C1042 O1058 1.259 . S
C1042 O1059 1.265 . S
C1043 O1060 1.255 . S
C1043 O1061 1.265 . S
C1044 C1046 1.380 . S
C1044 C1047 1.374 . S
C1044 C1050 1.507 . S
C1045 C1046 1.384 . S
C1045 C1049 1.387 . S
C1045 H1072 0.930 . S
C1046 C1044 1.380 . S
C1046 C1045 1.384 . S
C1046 H1073 0.931 . S
C1047 C1044 1.374 . S
C1047 C1048 1.390 . S
C1047 H1074 0.930 . S
C1048 C1047 1.390 . S
C1048 C1049 1.391 . S
C1048 H1075 0.930 . S
C1049 C1045 1.387 . S
C1049 C1048 1.391 . S
C1050 Tb1040 2.825 . S
C1050 C1044 1.507 . S
C1050 O1063 1.238 . S
C1050 O1064 1.247 . S
O1051 Tb1040 2.347 . S
O1051 C1055 1.259 . S
O1052 Eu1041 2.418 . S
O1052 C1055 1.265 . S
O1053 Eu1041 2.384 . S
O1053 C1062 1.255 . S
O1054 Tb1040 2.366 . S
O1054 C1062 1.265 . S
C1055 O1051 1.259 . S
C1055 O1052 1.265 . S
O1056 Eu1041 2.479 . S
O1056 C1071 1.238 . S
O1057 Eu1041 2.471 . S
O1057 C1071 1.247 . S
O1058 Eu1041 2.347 . S
O1058 C1042 1.259 . S
O1059 Tb1040 2.418 . S
O1059 C1042 1.265 . S
O1060 Tb1040 2.384 . S
O1060 C1043 1.255 . S
O1061 Eu1041 2.366 . S
O1061 C1043 1.265 . S
C1062 O1053 1.255 . S
C1062 O1054 1.265 . S
O1063 Tb1040 2.479 . S
O1063 C1050 1.238 . S
O1064 Tb1040 2.471 . S
O1064 C1050 1.247 . S
C1065 C1068 1.380 . S
C1065 C1069 1.374 . S
C1065 C1071 1.507 . S
C1066 C1067 1.387 . S
C1066 C1070 1.391 . S
C1067 C1066 1.387 . S
C1067 C1068 1.384 . S
C1067 H1076 0.930 . S
C1068 C1065 1.380 . S
C1068 C1067 1.384 . S
C1068 H1077 0.931 . S
C1069 C1065 1.374 . S
C1069 C1070 1.390 . S
C1069 H1078 0.930 . S
C1070 C1066 1.391 . S
C1070 C1069 1.390 . S
C1070 H1079 0.930 . S
C1071 Eu1041 2.825 . S
C1071 O1056 1.238 . S
C1071 O1057 1.247 . S
C1071 C1065 1.507 . S
H1072 C1045 0.930 . S
H1073 C1046 0.931 . S
H1074 C1047 0.930 . S
H1075 C1048 0.930 . S
H1076 C1067 0.930 . S
H1077 C1068 0.931 . S
H1078 C1069 0.930 . S
H1079 C1070 0.930 . S
C522 C723 2.760 . S
C562 C763 2.386 . S
C495 C815 2.865 1_556 S
C455 C775 2.387 . S
C803 C362 2.086 . S
C402 C735 2.742 . S
C742 C442 2.506 . S
C782 C375 2.263 . S
C415 C802 2.917 1_554 S
C535 C762 2.422 . S
C575 C822 1.979 . S
C722 C482 2.455 . S
C843 C42 2.760 . S
C82 C883 2.386 . S
C15 C935 2.878 . S
C695 C895 2.386 . S
C602 C923 2.085 . S
C642 C855 2.742 . S
C682 C862 2.505 . S
C615 C902 2.262 . S
C922 C655 2.917 . S
C55 C882 2.422 . S
C942 C95 1.978 . S
C2 C842 2.455 . S
C963 C282 2.760 . S
C322 C1003 2.386 . S
C1055 C255 2.879 . S
C1015 C215 2.387 . S
C1043 C122 2.085 . S
C162 C975 2.742 . S
C202 C982 2.506 . S
C135 C1022 2.262 . S
C1042 C175 2.917 . S
C295 C1002 2.422 . S
C335 C1062 1.978 . S
C242 C962 2.456 . S
C621 C746 1.360 . S
C786 C661 2.453 1_455 S
C701 C809 1.672 . S
C261 C769 2.225 1_455 S
C301 C826 1.804 . S
C729 C341 1.400 . S
C141 C866 1.361 . S
C181 C906 2.452 . S
C221 C929 1.673 . S
C501 C889 2.225 . S
C946 C541 1.804 . S
C581 C849 1.400 . S
C381 C986 1.360 . S
C421 C1026 2.453 . S
C1049 C461 1.672 . S
C21 C1009 2.225 . S
C61 C1066 1.804 . S
C101 C969 1.400 . S
