# Generated by pormake.
# Topology gar, (4,6)-cn, num edge types: 1
# Building blocks:
#     Node 0, Type 0, BuildingBlock: CEKHIL_clean_sbu_0, # of connection points: 4
#     Node 1, Type 0, BuildingBlock: CEKHIL_clean_sbu_0, # of connection points: 4
#     Node 2, Type 0, BuildingBlock: CEKHIL_clean_sbu_0, # of connection points: 4
#     Node 3, Type 0, BuildingBlock: CEKHIL_clean_sbu_0, # of connection points: 4
#     Node 4, Type 0, BuildingBlock: CEKHIL_clean_sbu_0, # of connection points: 4
#     Node 5, Type 0, BuildingBlock: CEKHIL_clean_sbu_0, # of connection points: 4
#     Node 6, Type 0, BuildingBlock: CEKHIL_clean_sbu_0, # of connection points: 4
#     Node 7, Type 0, BuildingBlock: CEKHIL_clean_sbu_0, # of connection points: 4
#     Node 8, Type 0, BuildingBlock: CEKHIL_clean_sbu_0, # of connection points: 4
#     Node 9, Type 0, BuildingBlock: CEKHIL_clean_sbu_0, # of connection points: 4
#     Node 10, Type 0, BuildingBlock: CEKHIL_clean_sbu_0, # of connection points: 4
#     Node 11, Type 0, BuildingBlock: CEKHIL_clean_sbu_0, # of connection points: 4
#     Node 12, Type 0, BuildingBlock: CEKHIL_clean_sbu_0, # of connection points: 4
#     Node 13, Type 0, BuildingBlock: CEKHIL_clean_sbu_0, # of connection points: 4
#     Node 14, Type 0, BuildingBlock: CEKHIL_clean_sbu_0, # of connection points: 4
#     Node 15, Type 0, BuildingBlock: CEKHIL_clean_sbu_0, # of connection points: 4
#     Node 16, Type 0, BuildingBlock: CEKHIL_clean_sbu_0, # of connection points: 4
#     Node 17, Type 0, BuildingBlock: CEKHIL_clean_sbu_0, # of connection points: 4
#     Node 18, Type 0, BuildingBlock: CEKHIL_clean_sbu_0, # of connection points: 4
#     Node 19, Type 0, BuildingBlock: CEKHIL_clean_sbu_0, # of connection points: 4
#     Node 20, Type 0, BuildingBlock: CEKHIL_clean_sbu_0, # of connection points: 4
#     Node 21, Type 0, BuildingBlock: CEKHIL_clean_sbu_0, # of connection points: 4
#     Node 22, Type 0, BuildingBlock: CEKHIL_clean_sbu_0, # of connection points: 4
#     Node 23, Type 0, BuildingBlock: CEKHIL_clean_sbu_0, # of connection points: 4
#     Node 24, Type 1, BuildingBlock: BETDIP_clean_sbu_0, # of connection points: 6
#     Node 25, Type 1, BuildingBlock: BETDIP_clean_sbu_0, # of connection points: 6
#     Node 26, Type 1, BuildingBlock: BETDIP_clean_sbu_0, # of connection points: 6
#     Node 27, Type 1, BuildingBlock: BETDIP_clean_sbu_0, # of connection points: 6
#     Node 28, Type 1, BuildingBlock: BETDIP_clean_sbu_0, # of connection points: 6
#     Node 29, Type 1, BuildingBlock: BETDIP_clean_sbu_0, # of connection points: 6
#     Node 30, Type 1, BuildingBlock: BETDIP_clean_sbu_0, # of connection points: 6
#     Node 31, Type 1, BuildingBlock: BETDIP_clean_sbu_0, # of connection points: 6
#     Node 32, Type 1, BuildingBlock: BETDIP_clean_sbu_0, # of connection points: 6
#     Node 33, Type 1, BuildingBlock: BETDIP_clean_sbu_0, # of connection points: 6
#     Node 34, Type 1, BuildingBlock: BETDIP_clean_sbu_0, # of connection points: 6
#     Node 35, Type 1, BuildingBlock: BETDIP_clean_sbu_0, # of connection points: 6
#     Node 36, Type 1, BuildingBlock: BETDIP_clean_sbu_0, # of connection points: 6
#     Node 37, Type 1, BuildingBlock: BETDIP_clean_sbu_0, # of connection points: 6
#     Node 38, Type 1, BuildingBlock: BETDIP_clean_sbu_0, # of connection points: 6
#     Node 39, Type 1, BuildingBlock: BETDIP_clean_sbu_0, # of connection points: 6
#     Edge 40, Type (0, 1), BuildingBlock: AJUNOK_clean_linker_0, # of connection points: 2
#     Edge 41, Type (0, 1), BuildingBlock: AJUNOK_clean_linker_0, # of connection points: 2
#     Edge 42, Type (0, 1), BuildingBlock: AJUNOK_clean_linker_0, # of connection points: 2
#     Edge 43, Type (0, 1), BuildingBlock: AJUNOK_clean_linker_0, # of connection points: 2
#     Edge 44, Type (0, 1), BuildingBlock: AJUNOK_clean_linker_0, # of connection points: 2
#     Edge 45, Type (0, 1), BuildingBlock: AJUNOK_clean_linker_0, # of connection points: 2
#     Edge 46, Type (0, 1), BuildingBlock: AJUNOK_clean_linker_0, # of connection points: 2
#     Edge 47, Type (0, 1), BuildingBlock: AJUNOK_clean_linker_0, # of connection points: 2
#     Edge 48, Type (0, 1), BuildingBlock: AJUNOK_clean_linker_0, # of connection points: 2
#     Edge 49, Type (0, 1), BuildingBlock: AJUNOK_clean_linker_0, # of connection points: 2
#     Edge 50, Type (0, 1), BuildingBlock: AJUNOK_clean_linker_0, # of connection points: 2
#     Edge 51, Type (0, 1), BuildingBlock: AJUNOK_clean_linker_0, # of connection points: 2
#     Edge 52, Type (0, 1), BuildingBlock: AJUNOK_clean_linker_0, # of connection points: 2
#     Edge 53, Type (0, 1), BuildingBlock: AJUNOK_clean_linker_0, # of connection points: 2
#     Edge 54, Type (0, 1), BuildingBlock: AJUNOK_clean_linker_0, # of connection points: 2
#     Edge 55, Type (0, 1), BuildingBlock: AJUNOK_clean_linker_0, # of connection points: 2
#     Edge 56, Type (0, 1), BuildingBlock: AJUNOK_clean_linker_0, # of connection points: 2
#     Edge 57, Type (0, 1), BuildingBlock: AJUNOK_clean_linker_0, # of connection points: 2
#     Edge 58, Type (0, 1), BuildingBlock: AJUNOK_clean_linker_0, # of connection points: 2
#     Edge 59, Type (0, 1), BuildingBlock: AJUNOK_clean_linker_0, # of connection points: 2
#     Edge 60, Type (0, 1), BuildingBlock: AJUNOK_clean_linker_0, # of connection points: 2
#     Edge 61, Type (0, 1), BuildingBlock: AJUNOK_clean_linker_0, # of connection points: 2
#     Edge 62, Type (0, 1), BuildingBlock: AJUNOK_clean_linker_0, # of connection points: 2
#     Edge 63, Type (0, 1), BuildingBlock: AJUNOK_clean_linker_0, # of connection points: 2
#     Edge 64, Type (0, 1), BuildingBlock: AJUNOK_clean_linker_0, # of connection points: 2
#     Edge 65, Type (0, 1), BuildingBlock: AJUNOK_clean_linker_0, # of connection points: 2
#     Edge 66, Type (0, 1), BuildingBlock: AJUNOK_clean_linker_0, # of connection points: 2
#     Edge 67, Type (0, 1), BuildingBlock: AJUNOK_clean_linker_0, # of connection points: 2
#     Edge 68, Type (0, 1), BuildingBlock: AJUNOK_clean_linker_0, # of connection points: 2
#     Edge 69, Type (0, 1), BuildingBlock: AJUNOK_clean_linker_0, # of connection points: 2
#     Edge 70, Type (0, 1), BuildingBlock: AJUNOK_clean_linker_0, # of connection points: 2
#     Edge 71, Type (0, 1), BuildingBlock: AJUNOK_clean_linker_0, # of connection points: 2
#     Edge 72, Type (0, 1), BuildingBlock: AJUNOK_clean_linker_0, # of connection points: 2
#     Edge 73, Type (0, 1), BuildingBlock: AJUNOK_clean_linker_0, # of connection points: 2
#     Edge 74, Type (0, 1), BuildingBlock: AJUNOK_clean_linker_0, # of connection points: 2
#     Edge 75, Type (0, 1), BuildingBlock: AJUNOK_clean_linker_0, # of connection points: 2
#     Edge 76, Type (0, 1), BuildingBlock: AJUNOK_clean_linker_0, # of connection points: 2
#     Edge 77, Type (0, 1), BuildingBlock: AJUNOK_clean_linker_0, # of connection points: 2
#     Edge 78, Type (0, 1), BuildingBlock: AJUNOK_clean_linker_0, # of connection points: 2
#     Edge 79, Type (0, 1), BuildingBlock: AJUNOK_clean_linker_0, # of connection points: 2
#     Edge 80, Type (0, 1), BuildingBlock: AJUNOK_clean_linker_0, # of connection points: 2
#     Edge 81, Type (0, 1), BuildingBlock: AJUNOK_clean_linker_0, # of connection points: 2
#     Edge 82, Type (0, 1), BuildingBlock: AJUNOK_clean_linker_0, # of connection points: 2
#     Edge 83, Type (0, 1), BuildingBlock: AJUNOK_clean_linker_0, # of connection points: 2
#     Edge 84, Type (0, 1), BuildingBlock: AJUNOK_clean_linker_0, # of connection points: 2
#     Edge 85, Type (0, 1), BuildingBlock: AJUNOK_clean_linker_0, # of connection points: 2
#     Edge 86, Type (0, 1), BuildingBlock: AJUNOK_clean_linker_0, # of connection points: 2
#     Edge 87, Type (0, 1), BuildingBlock: AJUNOK_clean_linker_0, # of connection points: 2
#     Edge 88, Type (0, 1), BuildingBlock: AJUNOK_clean_linker_0, # of connection points: 2
#     Edge 89, Type (0, 1), BuildingBlock: AJUNOK_clean_linker_0, # of connection points: 2
#     Edge 90, Type (0, 1), BuildingBlock: AJUNOK_clean_linker_0, # of connection points: 2
#     Edge 91, Type (0, 1), BuildingBlock: AJUNOK_clean_linker_0, # of connection points: 2
#     Edge 92, Type (0, 1), BuildingBlock: AJUNOK_clean_linker_0, # of connection points: 2
#     Edge 93, Type (0, 1), BuildingBlock: AJUNOK_clean_linker_0, # of connection points: 2
#     Edge 94, Type (0, 1), BuildingBlock: AJUNOK_clean_linker_0, # of connection points: 2
#     Edge 95, Type (0, 1), BuildingBlock: AJUNOK_clean_linker_0, # of connection points: 2
#     Edge 96, Type (0, 1), BuildingBlock: AJUNOK_clean_linker_0, # of connection points: 2
#     Edge 97, Type (0, 1), BuildingBlock: AJUNOK_clean_linker_0, # of connection points: 2
#     Edge 98, Type (0, 1), BuildingBlock: AJUNOK_clean_linker_0, # of connection points: 2
#     Edge 99, Type (0, 1), BuildingBlock: AJUNOK_clean_linker_0, # of connection points: 2
#     Edge 100, Type (0, 1), BuildingBlock: AJUNOK_clean_linker_0, # of connection points: 2
#     Edge 101, Type (0, 1), BuildingBlock: AJUNOK_clean_linker_0, # of connection points: 2
#     Edge 102, Type (0, 1), BuildingBlock: AJUNOK_clean_linker_0, # of connection points: 2
#     Edge 103, Type (0, 1), BuildingBlock: AJUNOK_clean_linker_0, # of connection points: 2
#     Edge 104, Type (0, 1), BuildingBlock: AJUNOK_clean_linker_0, # of connection points: 2
#     Edge 105, Type (0, 1), BuildingBlock: AJUNOK_clean_linker_0, # of connection points: 2
#     Edge 106, Type (0, 1), BuildingBlock: AJUNOK_clean_linker_0, # of connection points: 2
#     Edge 107, Type (0, 1), BuildingBlock: AJUNOK_clean_linker_0, # of connection points: 2
#     Edge 108, Type (0, 1), BuildingBlock: AJUNOK_clean_linker_0, # of connection points: 2
#     Edge 109, Type (0, 1), BuildingBlock: AJUNOK_clean_linker_0, # of connection points: 2
#     Edge 110, Type (0, 1), BuildingBlock: AJUNOK_clean_linker_0, # of connection points: 2
#     Edge 111, Type (0, 1), BuildingBlock: AJUNOK_clean_linker_0, # of connection points: 2
#     Edge 112, Type (0, 1), BuildingBlock: AJUNOK_clean_linker_0, # of connection points: 2
#     Edge 113, Type (0, 1), BuildingBlock: AJUNOK_clean_linker_0, # of connection points: 2
#     Edge 114, Type (0, 1), BuildingBlock: AJUNOK_clean_linker_0, # of connection points: 2
#     Edge 115, Type (0, 1), BuildingBlock: AJUNOK_clean_linker_0, # of connection points: 2
#     Edge 116, Type (0, 1), BuildingBlock: AJUNOK_clean_linker_0, # of connection points: 2
#     Edge 117, Type (0, 1), BuildingBlock: AJUNOK_clean_linker_0, # of connection points: 2
#     Edge 118, Type (0, 1), BuildingBlock: AJUNOK_clean_linker_0, # of connection points: 2
#     Edge 119, Type (0, 1), BuildingBlock: AJUNOK_clean_linker_0, # of connection points: 2
#     Edge 120, Type (0, 1), BuildingBlock: AJUNOK_clean_linker_0, # of connection points: 2
#     Edge 121, Type (0, 1), BuildingBlock: AJUNOK_clean_linker_0, # of connection points: 2
#     Edge 122, Type (0, 1), BuildingBlock: AJUNOK_clean_linker_0, # of connection points: 2
#     Edge 123, Type (0, 1), BuildingBlock: AJUNOK_clean_linker_0, # of connection points: 2
#     Edge 124, Type (0, 1), BuildingBlock: AJUNOK_clean_linker_0, # of connection points: 2
#     Edge 125, Type (0, 1), BuildingBlock: AJUNOK_clean_linker_0, # of connection points: 2
#     Edge 126, Type (0, 1), BuildingBlock: AJUNOK_clean_linker_0, # of connection points: 2
#     Edge 127, Type (0, 1), BuildingBlock: AJUNOK_clean_linker_0, # of connection points: 2
#     Edge 128, Type (0, 1), BuildingBlock: AJUNOK_clean_linker_0, # of connection points: 2
#     Edge 129, Type (0, 1), BuildingBlock: AJUNOK_clean_linker_0, # of connection points: 2
#     Edge 130, Type (0, 1), BuildingBlock: AJUNOK_clean_linker_0, # of connection points: 2
#     Edge 131, Type (0, 1), BuildingBlock: AJUNOK_clean_linker_0, # of connection points: 2
#     Edge 132, Type (0, 1), BuildingBlock: AJUNOK_clean_linker_0, # of connection points: 2
#     Edge 133, Type (0, 1), BuildingBlock: AJUNOK_clean_linker_0, # of connection points: 2
#     Edge 134, Type (0, 1), BuildingBlock: AJUNOK_clean_linker_0, # of connection points: 2
#     Edge 135, Type (0, 1), BuildingBlock: AJUNOK_clean_linker_0, # of connection points: 2
# Relax obj value: 0.239
# Max RMSD: 0.363
# Mean RMSD: 0.169
data_MOF--net-gar--node1-CEKHIL_clean_sbu_0--node2-BETDIP_clean_sbu_0--edge1-AJUNOK_clean_linker_0
_symmetry_space_group_name_H-M    P1
_symmetry_Int_Tables_number       1
_symmetry_cell_setting            triclinic
loop_
_symmetry_equiv_pos_as_xyz
'x, y, z'
_cell_length_a     49.05631
_cell_length_b     41.735829
_cell_length_c     38.645385
_cell_angle_alpha  97.335704
_cell_angle_beta   99.45044
_cell_angle_gamma 101.70225
loop_
_atom_site_label
_atom_site_type_symbol
_atom_site_fract_x
_atom_site_fract_y
_atom_site_fract_z
_atom_type_partial_charge
Co0 Co 0.07183 0.36467 0.4357 0.0
O1 O 0.10776 0.35206 0.44094 0.0
O2 O 0.08274 0.35753 0.38986 0.0
C3 C 0.084 0.40646 0.48256 0.0
O4 O 1.034 0.3768 0.41952 0.0
Co5 Co 1.03457 0.36166 0.49347 0.0
O6 O 1.01519 0.39074 0.46678 0.0
C7 C 1.03386 0.30068 0.44375 0.0
C8 C 0.10497 0.3495 0.40661 0.0
C9 C 1.01531 0.38855 0.4337 0.0
O10 O 0.05166 0.31701 0.42796 0.0
O11 O 1.0254 0.31364 0.47076 0.0
O12 O 0.09064 0.41112 0.45202 0.0
O13 O 0.07241 0.37636 0.48467 0.0
Co14 Co 0.1114 0.8063 0.77332 0.0
O15 O 0.07263 0.80925 0.7644 0.0
O16 O 0.08996 0.78086 0.80352 0.0
C17 C 0.1291 0.86113 0.77964 0.0
O18 O 0.15179 0.80036 0.78836 0.0
Co19 Co 0.14469 0.83014 0.715 0.0
O20 O 0.17667 0.82405 0.74997 0.0
C21 C 0.10673 0.7642 0.70043 0.0
C22 C 0.06848 0.79202 0.78924 0.0
C23 C 0.17503 0.80976 0.77705 0.0
O24 O 0.10318 0.76729 0.73301 0.0
O25 O 0.11973 0.78791 0.68708 0.0
O26 O 0.12144 0.84848 0.80638 0.0
O27 O 0.12267 0.84107 0.74975 0.0
Co28 Co 0.57979 0.87602 0.95804 0.0
O29 O 0.61395 0.85944 0.9641 0.0
O30 O 0.59229 0.8693 0.91315 0.0
C31 C 0.59364 0.91517 1.00772 0.0
O32 O 0.54401 0.89194 0.9406 0.0
Co33 Co 0.53957 0.87539 1.01233 0.0
O34 O 0.52439 0.90772 0.98622 0.0
C35 C 0.53609 0.81458 0.9606 0.0
C36 C 0.61271 0.85829 0.93011 0.0
C37 C 0.52525 0.90476 0.95336 0.0
O38 O 0.55625 0.82957 0.94708 0.0
O39 O 0.52728 0.82813 0.987 0.0
O40 O 0.60179 0.92113 0.97828 0.0
O41 O 0.57864 0.88578 1.00663 0.0
Co42 Co 0.60602 0.30152 0.24864 0.0
O43 O 0.56963 0.31299 0.2437 0.0
O44 O 0.58438 0.28258 0.2823 0.0
C45 C 0.63227 0.35267 0.25054 0.0
O46 O 0.64336 0.28736 0.26206 0.0
Co47 Co 0.63942 0.31168 0.18672 0.0
O48 O 0.67017 0.30377 0.22236 0.0
C49 C 0.59101 0.25538 0.17623 0.0
C50 C 0.56508 0.29788 0.27017 0.0
C51 C 0.66695 0.2921 0.25071 0.0
O52 O 0.59025 0.26087 0.2098 0.0
O53 O 0.60666 0.27543 0.16129 0.0
O54 O 0.62394 0.34444 0.27901 0.0
O55 O 0.62134 0.33163 0.22171 0.0
Co56 Co 0.12489 0.85317 0.21644 0.0
O57 O 0.08365 0.84867 0.20703 0.0
O58 O 0.10832 0.84221 0.25728 0.0
C59 C 0.13335 0.90274 0.19282 0.0
O60 O 0.16709 0.85642 0.2405 0.0
Co61 Co 0.16198 0.85256 0.16353 0.0
O62 O 0.1952 0.85325 0.20092 0.0
C63 C 0.12745 0.78812 0.17024 0.0
C64 C 0.08367 0.84247 0.23912 0.0
C65 C 0.19158 0.85472 0.23281 0.0
O66 O 0.1194 0.80333 0.19678 0.0
O67 O 0.14304 0.80405 0.15173 0.0
O68 O 0.13048 0.90214 0.22558 0.0
O69 O 0.13147 0.87355 0.17492 0.0
Co70 Co 0.54655 0.80774 0.5063 0.0
O71 O 0.58783 0.81696 0.51683 0.0
O72 O 0.56196 0.79332 0.46461 0.0
C73 C 0.54438 0.86021 0.53149 0.0
O74 O 0.50334 0.797 0.48312 0.0
Co75 Co 0.51166 0.80772 0.5628 0.0
O76 O 0.48078 0.81351 0.52547 0.0
C77 C 0.53865 0.75129 0.55176 0.0
C78 C 0.58724 0.80514 0.48399 0.0
C79 C 0.48113 0.80499 0.49278 0.0
O80 O 0.54492 0.76201 0.52324 0.0
O81 O 0.5266 0.76747 0.57268 0.0
O82 O 0.54816 0.85377 0.49916 0.0
O83 O 0.54383 0.83551 0.5489 0.0
Co84 Co 0.62606 0.3519 0.71795 0.0
O85 O 0.58483 0.34745 0.71015 0.0
O86 O 0.61107 0.3415 0.75973 0.0
C87 C 0.63449 0.40162 0.695 0.0
O88 O 0.66832 0.35509 0.74062 0.0
Co89 Co 0.66139 0.35033 0.66356 0.0
O90 O 0.69556 0.35224 0.70003 0.0
C91 C 0.62725 0.28626 0.67138 0.0
C92 C 0.58611 0.34187 0.74264 0.0
C93 C 0.69255 0.35381 0.73215 0.0
O94 O 0.61994 0.30206 0.69817 0.0
O95 O 0.64285 0.30159 0.65247 0.0
O96 O 0.63206 0.4006 0.72781 0.0
O97 O 0.63178 0.37255 0.67618 0.0
Co98 Co 0.04533 0.30969 1.00705 0.0
O99 O 0.08674 0.31943 1.01528 0.0
O100 O 0.05887 0.29492 0.96439 0.0
C101 C 0.04304 0.3617 0.03283 0.0
O102 O 1.00206 0.29791 0.98502 0.0
Co103 Co 1.01044 0.308 0.06284 0.0
O104 O 0.97943 0.31533 0.02665 0.0
C105 C 1.03635 0.2511 0.04986 0.0
C106 C 0.08462 0.30683 0.98218 0.0
C107 C 0.97979 0.30607 0.99414 0.0
O108 O 0.04511 0.26442 0.02394 0.0
O109 O 1.02235 0.26522 0.06986 0.0
O110 O 0.04596 0.35541 1.00008 0.0
O111 O 0.04293 0.33697 0.05022 0.0
Co112 Co 0.45363 0.10109 0.35241 0.0
O113 O 0.45684 0.15234 0.35767 0.0
O114 O 0.41766 0.11857 0.33666 0.0
C115 C 0.48129 0.0987 0.41069 0.0
O116 O 0.43272 0.04943 0.34658 0.0
Co117 Co 0.49494 0.05486 0.35612 0.0
O118 O 0.46349 1.01816 0.3615 0.0
C119 C 0.48907 0.08401 0.29007 0.0
C120 C 0.4297 0.14979 0.3464 0.0
C121 C 0.43798 1.02105 0.35371 0.0
O122 O 0.46801 0.09654 0.30075 0.0
O123 O 0.50301 0.06836 0.31016 0.0
O124 O 0.45578 0.10418 0.4066 0.0
O125 O 0.4894 0.09633 0.38065 0.0
Co126 Co 0.29722 0.20694 0.57323 0.0
O127 O 0.3387 0.21583 0.5813 0.0
O128 O 0.31108 0.16767 0.5827 0.0
C129 C 0.29419 0.23311 0.52413 0.0
O130 O 0.2541 0.18547 0.56657 0.0
Co131 Co 0.26046 0.25737 0.5722 0.0
O132 O 0.22583 0.22111 0.56264 0.0
C133 C 0.29059 0.24637 0.64127 0.0
C134 C 0.33671 0.18509 0.58546 0.0
C135 C 0.22907 0.19177 0.56354 0.0
O136 O 0.29901 0.22209 0.62557 0.0
O137 O 0.2768 0.26446 0.62446 0.0
O138 O 0.29581 0.20219 0.52172 0.0
O139 O 0.29368 0.2472 0.55574 0.0
Co140 Co 0.18828 0.10976 0.89274 0.0
O141 O 0.17233 0.06235 0.88642 0.0
O142 O 0.21449 0.08644 0.87666 0.0
C143 C 0.17568 0.11909 0.94677 0.0
O144 O 0.21488 0.15483 0.89672 0.0
Co145 Co 0.16 0.16503 0.89813 0.0
O146 O 0.1965 0.19868 0.90551 0.0
C147 C 0.15255 0.12495 0.8276 0.0
C148 C 0.19614 0.05953 0.8771 0.0
C149 C 0.21755 0.18631 0.9013 0.0
O150 O 0.171 0.11032 0.84187 0.0
O151 O 0.14365 0.14689 0.8461 0.0
O152 O 0.19921 0.11051 0.94331 0.0
O153 O 0.16041 0.12351 0.91756 0.0
Co154 Co 0.26223 0.93864 1.01584 0.0
O155 O 0.23063 0.95645 0.02661 0.0
O156 O 0.2763 0.98017 0.0464 0.0
C157 C 0.25006 0.92156 0.95685 0.0
O158 O 0.30062 0.93087 1.01143 0.0
Co159 Co 0.25863 0.86497 0.989 0.0
O160 O 0.30045 0.87813 0.99104 0.0
C161 C 0.25506 0.88537 0.06244 0.0
C162 C 0.25007 0.98085 0.04659 0.0
C163 C 0.31333 0.90836 1.00186 0.0
O164 O 0.26235 0.91576 0.05841 0.0
O165 O 0.24863 0.86124 0.03645 0.0
O166 O 0.25946 0.95298 0.96975 0.0
O167 O 0.24288 0.90312 0.97984 0.0
Co168 Co 0.36736 0.45051 0.13288 0.0
O169 O 0.32617 0.44019 0.12407 0.0
O170 O 0.35297 0.48871 0.15044 0.0
C171 C 0.37007 0.42856 0.07711 0.0
O172 O 0.41078 0.47188 0.14344 0.0
Co173 Co 0.40146 0.3965 0.12808 0.0
O174 O 0.43199 0.43305 0.12178 0.0
C175 C 0.37284 0.40512 0.18897 0.0
C176 C 0.32748 0.47058 0.13781 0.0
C177 C 0.43233 0.46329 0.13249 0.0
O178 O 0.36775 0.43251 0.17992 0.0
O179 O 0.38479 0.38645 0.17056 0.0
O180 O 0.36632 0.45844 0.08411 0.0
O181 O 0.37029 0.41221 0.10337 0.0
Co182 Co 0.91251 0.19981 0.18866 0.0
O183 O 0.9455 0.18231 0.18652 0.0
O184 O 0.90507 0.15509 0.19794 0.0
C185 C 0.91004 0.22113 0.13789 0.0
O186 O 0.87418 0.20956 0.19114 0.0
Co187 Co 0.91551 0.27895 0.1909 0.0
O188 O 0.87332 0.26272 0.18486 0.0
C189 C 0.93561 0.25006 0.24716 0.0
C190 C 0.93015 0.15459 0.19142 0.0
C191 C 0.86118 0.23316 0.18756 0.0
O192 O 0.92568 0.21881 0.24038 0.0
O193 O 0.9451 0.26299 0.2223 0.0
O194 O 0.90134 0.18949 0.13715 0.0
O195 O 0.92358 0.238 0.16839 0.0
Co196 Co 0.21292 0.54217 0.37581 0.0
O197 O 0.20987 0.49092 0.37417 0.0
O198 O 0.24735 0.52211 0.36763 0.0
C199 C 0.19032 0.55339 0.42853 0.0
O200 O 0.23338 0.59363 0.37741 0.0
Co201 Co 0.17219 0.58961 0.37479 0.0
O202 O 0.20496 0.62868 0.38466 0.0
C203 C 0.1728 0.5511 0.30471 0.0
C204 C 0.23594 0.49179 0.3699 0.0
C205 C 0.2293 0.62399 0.38143 0.0
O206 O 0.1937 0.53836 0.32001 0.0
O207 O 0.16116 0.57014 0.32305 0.0
O208 O 0.21595 0.5483 0.43085 0.0
O209 O 0.17936 0.55123 0.3955 0.0
Co210 Co 0.86978 0.94851 0.63651 0.0
O211 O 0.8284 0.93852 0.62785 0.0
O212 O 0.85567 0.98767 0.65096 0.0
C213 C 0.87198 0.92208 0.58248 0.0
O214 O 0.91299 0.97081 0.6463 0.0
Co215 Co 0.90634 0.89729 0.63675 0.0
O216 O 0.93725 0.93331 0.63001 0.0
C217 C 0.87581 0.90715 0.69582 0.0
C218 C 0.83007 0.96957 0.63953 0.0
C219 C 0.9359 0.96338 0.63829 0.0
O220 O 0.87029 0.93381 0.68521 0.0
O221 O 0.88869 0.88848 0.6789 0.0
O222 O 0.86854 0.95232 0.58646 0.0
O223 O 0.87303 0.90839 0.61066 0.0
Co224 Co 0.97855 0.0439 0.32732 0.0
O225 O 0.99063 0.09169 0.33373 0.0
O226 O 0.94793 0.06187 0.30695 0.0
C227 C 0.997 0.04043 0.38391 0.0
O228 O 0.95605 0.99559 0.31779 0.0
Co229 Co 1.0173 0.99625 0.33343 0.0
O230 O 0.98389 0.96584 0.34364 0.0
C231 C 1.01326 1.03013 0.2711 0.0
C232 C 0.96491 0.09088 0.31794 0.0
C233 C 0.9593 0.96992 0.33175 0.0
O234 O 0.99226 0.04053 0.28068 0.0
O235 O 1.02718 1.01308 0.28939 0.0
O236 O 0.97232 0.04734 0.37578 0.0
O237 O 1.01051 0.03703 0.35796 0.0
Co238 Co 0.41884 0.70238 0.6843 0.0
O239 O 0.45646 0.69526 0.68654 0.0
O240 O 0.4199 0.66017 0.69794 0.0
C241 C 0.4143 0.72032 0.63181 0.0
O242 O 0.37726 0.69939 0.68258 0.0
Co243 Co 0.40338 0.77258 0.68011 0.0
O244 O 0.3633 0.7463 0.67374 0.0
C245 C 0.43496 0.75725 0.7406 0.0
C246 C 0.44588 0.6659 0.69303 0.0
C247 C 0.35788 0.7156 0.67683 0.0
O248 O 0.42745 0.72558 0.73468 0.0
O249 O 0.43898 0.77192 0.7144 0.0
O250 O 0.41051 0.6887 0.63272 0.0
O251 O 0.42319 0.73977 0.66202 0.0
Co252 Co 0.47974 0.54388 0.83083 0.0
O253 O 0.49542 0.59132 0.83919 0.0
O254 O 0.4511 0.56631 0.8138 0.0
C255 C 0.49856 0.53728 0.88644 0.0
O256 O 0.45323 0.49766 0.82072 0.0
Co257 Co 0.51191 0.49066 0.83053 0.0
O258 O 0.47706 0.46022 0.83724 0.0
C259 C 0.51035 0.52729 0.77046 0.0
C260 C 0.47004 0.59381 0.82554 0.0
C261 C 0.45381 0.46899 0.82927 0.0
O262 O 0.49146 0.54028 0.78264 0.0
O263 O 0.52254 0.50758 0.78675 0.0
O264 O 0.47487 0.54664 0.8795 0.0
O265 O 0.51107 0.53261 0.85961 0.0
Co266 Co 0.7137 0.04276 0.87961 0.0
O267 O 0.71095 0.99173 0.8782 0.0
O268 O 0.74834 1.02318 0.87151 0.0
C269 C 0.69062 0.05281 0.93214 0.0
O270 O 0.73353 0.09448 0.88091 0.0
Co271 Co 0.67246 0.08906 0.87852 0.0
O272 O 0.70465 0.12881 0.88856 0.0
C273 C 0.67343 0.05101 0.80838 0.0
C274 C 0.73703 0.99284 0.87388 0.0
C275 C 0.72908 0.1247 0.88499 0.0
O276 O 0.69446 0.03853 0.82377 0.0
O277 O 0.66161 0.06984 0.82669 0.0
O278 O 0.71665 0.04899 0.93475 0.0
O279 O 0.67979 0.0506 0.89905 0.0
Co280 Co 0.79665 0.71107 0.07886 0.0
O281 O 0.83799 0.71797 0.08499 0.0
O282 O 0.80946 0.67168 0.09002 0.0
C283 C 0.79331 0.73534 0.02845 0.0
O284 O 0.75343 0.69136 0.0745 0.0
Co285 Co 0.76135 0.76332 0.07597 0.0
O286 O 0.72624 0.72799 0.06844 0.0
C287 C 0.79294 0.75486 0.1455 0.0
C288 C 0.83526 0.68759 0.0908 0.0
C289 C 0.72878 0.69868 0.07119 0.0
O290 O 0.8 0.72897 0.13097 0.0
O291 O 0.77965 0.77276 0.12769 0.0
O292 O 0.79401 0.70417 0.02692 0.0
O293 O 0.79368 0.75054 0.05981 0.0
Co294 Co 0.95263 0.60118 0.84914 0.0
O295 O 0.95536 0.65244 0.85463 0.0
O296 O 0.91646 0.61824 0.83368 0.0
C297 C 0.98043 0.59919 0.90757 0.0
O298 O 0.93178 0.54934 0.84373 0.0
Co299 Co 0.99381 0.555 0.85328 0.0
O300 O 0.96252 0.51748 0.8564 0.0
C301 C 0.98827 0.58403 0.78678 0.0
C302 C 0.92814 0.64953 0.84368 0.0
C303 C 0.93704 0.52057 0.84954 0.0
O304 O 0.96721 0.59687 0.79716 0.0
O305 O 1.00133 0.56775 0.80706 0.0
O306 O 0.9549 0.60456 0.90341 0.0
O307 O 0.98845 0.59663 0.87749 0.0
Co308 Co 0.76545 0.44475 0.52051 0.0
O309 O 0.73261 0.46201 0.52646 0.0
O310 O 0.77727 0.48559 0.55265 0.0
C311 C 0.7573 0.42977 0.46129 0.0
O312 O 0.8045 0.43716 0.52214 0.0
Co313 Co 0.76502 0.37223 0.49052 0.0
O314 O 0.80707 0.38745 0.4952 0.0
C315 C 0.75666 0.38909 0.56373 0.0
C316 C 0.75065 0.48611 0.54875 0.0
C317 C 0.81876 0.41642 0.51241 0.0
O318 O 0.76143 0.42004 0.56124 0.0
O319 O 0.75431 0.36608 0.53741 0.0
O320 O 0.76718 0.46086 0.47554 0.0
O321 O 0.74881 0.41024 0.48265 0.0
Co322 Co 0.68885 0.61244 0.39323 0.0
O323 O 0.67208 0.56517 0.38047 0.0
O324 O 0.71428 0.59085 0.37224 0.0
C325 C 0.67735 0.61682 0.44838 0.0
O326 O 0.71591 0.65806 0.40313 0.0
Co327 Co 0.65893 0.66631 0.40595 0.0
O328 O 0.69529 0.70009 0.41383 0.0
C329 C 0.65202 0.63375 0.33251 0.0
C330 C 0.69526 0.56357 0.36878 0.0
C331 C 0.71723 0.68925 0.41024 0.0
O332 O 0.6713 0.61896 0.34421 0.0
O333 O 0.6422 0.6527 0.3535 0.0
O334 O 0.69998 0.60723 0.44239 0.0
O335 O 0.66164 0.62335 0.42075 0.0
Tb336 Tb 0.06978 0.05349 0.083 0.0
Tb337 Tb 0.11547 0.09927 0.13571 0.0
C338 C 1.02035 1.02251 0.054 0.0
C339 C 0.99546 1.02224 0.071 0.0
C340 C 0.99639 1.01387 0.10532 0.0
C341 C 0.98019 1.02638 0.12787 0.0
C342 C 0.96231 0.04658 0.11607 0.0
C343 C 0.95838 0.05111 0.08038 0.0
C344 C 0.97488 0.03897 0.0579 0.0
C345 C 0.11637 0.07276 0.05686 0.0
C346 C 0.07176 0.13214 0.09444 0.0
C347 C 0.16358 0.13009 0.16999 0.0
C348 C 0.18935 0.1171 0.17593 0.0
C349 C 0.21153 0.12991 0.15923 0.0
C350 C 0.22762 0.10906 0.14593 0.0
C351 C 0.22203 0.07558 0.15011 0.0
C352 C 0.20362 0.06474 0.17258 0.0
C353 C 0.18751 0.08558 0.1858 0.0
C354 C 0.06798 0.08052 0.15983 0.0
C355 C 0.1122 1.02022 0.12849 0.0
O356 O 1.03948 1.00812 0.06867 0.0
O357 O 1.03201 0.05141 0.04712 0.0
O358 O 0.10618 0.08961 0.07865 0.0
O359 O 0.0983 0.04445 0.04646 0.0
O360 O 0.05549 0.10143 0.08644 0.0
O361 O 0.09814 0.13733 0.11192 0.0
O362 O 0.15447 0.13092 0.13644 0.0
O363 O 0.14287 0.11776 0.18536 0.0
O364 O 0.07899 0.06328 0.13948 0.0
O365 O 0.08439 0.11016 0.16792 0.0
O366 O 0.1282 0.05091 0.13898 0.0
O367 O 0.08696 1.01539 0.10771 0.0
H368 H 1.01175 1.00066 0.11615 0.0
H369 H 0.98353 1.02281 0.15541 0.0
H370 H 0.94483 0.06701 0.07102 0.0
H371 H 0.97378 0.04581 0.03167 0.0
H372 H 0.21349 0.15428 0.15165 0.0
H373 H 0.24179 0.11806 0.12876 0.0
H374 H 0.19948 0.03915 0.17675 0.0
H375 H 0.17103 0.0753 0.19945 0.0
Tb376 Tb 0.33894 0.80904 0.33336 0.0
Tb377 Tb 0.32561 0.83648 0.39701 0.0
C378 C 0.34191 0.79782 0.26894 0.0
C379 C 0.33071 0.81452 0.2408 0.0
C380 C 0.31884 0.84158 0.24987 0.0
C381 C 0.30395 0.85473 0.22361 0.0
C382 C 0.30089 0.84113 0.18781 0.0
C383 C 0.31335 0.8145 0.17862 0.0
C384 C 0.32815 0.80115 0.20507 0.0
C385 C 0.37623 0.80238 0.38947 0.0
C386 C 0.36153 0.88919 0.36076 0.0
C387 C 0.32166 0.8438 0.46125 0.0
C388 C 0.33101 0.82216 0.48553 0.0
C389 C 0.34548 0.79867 0.47305 0.0
C390 C 0.35657 0.77904 0.49538 0.0
C391 C 0.35356 0.78271 0.5308 0.0
C392 C 0.33858 0.80559 0.54355 0.0
C393 C 0.32716 0.82526 0.52082 0.0
C394 C 0.2899 0.84582 0.3411 0.0
C395 C 0.30379 0.75604 0.37007 0.0
O396 O 0.32222 0.78102 0.2827 0.0
O397 O 0.3628 0.8161 0.29335 0.0
O398 O 0.36491 0.82676 0.38573 0.0
O399 O 0.3678 0.78159 0.35992 0.0
O400 O 0.3549 0.86385 0.33376 0.0
O401 O 0.35345 0.88373 0.39102 0.0
O402 O 0.34219 0.86125 0.4493 0.0
O403 O 0.30023 0.82931 0.43557 0.0
O404 O 0.29978 0.82014 0.34406 0.0
O405 O 0.29865 0.86585 0.37119 0.0
O406 O 0.30944 0.78179 0.39629 0.0
O407 O 0.31237 0.76117 0.3401 0.0
H408 H 0.31978 0.85154 0.27734 0.0
H409 H 0.29407 0.8748 0.23135 0.0
H410 H 0.31139 0.80384 0.151 0.0
H411 H 0.33683 0.77994 0.19774 0.0
H412 H 0.34934 0.79641 0.44632 0.0
H413 H 0.36862 0.76205 0.48542 0.0
H414 H 0.33657 0.80894 0.5712 0.0
H415 H 0.31619 0.84336 0.53095 0.0
Tb416 Tb 0.60697 0.07258 0.59278 0.0
Tb417 Tb 0.55224 0.06898 0.6248 0.0
C418 C 0.65726 0.07022 0.58711 0.0
C419 C 0.68026 0.05278 0.59856 0.0
C420 C 0.6968 0.06047 0.63327 0.0
C421 C 0.72031 0.04647 0.64225 0.0
C422 C 0.72808 1.02453 0.61676 0.0
C423 C 0.71106 1.01622 0.58238 0.0
C424 C 0.68765 1.03024 0.57339 0.0
C425 C 0.56348 0.08203 0.54199 0.0
C426 C 0.56478 1.00233 0.58898 0.0
C427 C 0.50287 0.07205 0.63444 0.0
C428 C 0.47973 0.08962 0.62546 0.0
C429 C 0.48416 0.11978 0.61232 0.0
C430 C 0.46176 0.13598 0.60514 0.0
C431 C 0.43451 0.12281 0.61168 0.0
C432 C 0.43044 0.09263 0.62498 0.0
C433 C 0.45264 0.0763 0.63161 0.0
C434 C 0.59592 0.05734 0.67385 0.0
C435 C 0.59425 0.13977 0.62831 0.0
O436 O 0.65091 0.09121 0.61109 0.0
O437 O 0.63463 0.05293 0.56434 0.0
O438 O 0.56347 0.07708 0.57419 0.0
O439 O 0.58951 0.08221 0.5389 0.0
O440 O 0.59123 1.01893 0.59078 0.0
O441 O 0.54485 1.01749 0.59738 0.0
O442 O 0.50784 0.0514 0.60897 0.0
O443 O 0.52637 0.08942 0.65538 0.0
O444 O 0.5953 0.06422 0.64244 0.0
O445 O 0.5698 0.05573 0.67732 0.0
O446 O 0.56843 0.12287 0.62923 0.0
O447 O 0.61344 0.1248 0.61714 0.0
H448 H 0.69195 0.07779 0.65343 0.0
H449 H 0.73248 0.05298 0.66919 0.0
H450 H 0.71637 0.99959 0.56197 0.0
H451 H 0.6757 1.02403 0.54632 0.0
H452 H 0.50485 0.13066 0.60731 0.0
H453 H 0.46577 0.15858 0.59398 0.0
H454 H 0.41008 0.0817 0.63083 0.0
H455 H 0.44868 0.05326 0.64206 0.0
Tb456 Tb 0.30882 0.33602 0.86334 0.0
Tb457 Tb 0.36554 0.31388 0.86569 0.0
C458 C 0.25644 0.33338 0.86077 0.0
C459 C 0.23376 0.32786 0.88249 0.0
C460 C 0.21444 0.29683 0.87684 0.0
C461 C 0.19118 0.29205 0.89403 0.0
C462 C 0.1861 0.31834 0.91692 0.0
C463 C 0.20581 0.34917 0.92331 0.0
C464 C 0.22923 0.35391 0.90625 0.0
C465 C 0.35065 0.37895 0.84703 0.0
C466 C 0.35378 0.35772 0.93405 0.0
C467 C 0.41731 0.31227 0.86906 0.0
C468 C 0.44011 0.31362 0.84777 0.0
C469 C 0.43695 0.3215 0.81324 0.0
C470 C 0.46009 0.32572 0.7956 0.0
C471 C 0.48683 0.32158 0.81185 0.0
C472 C 0.48921 0.31167 0.84556 0.0
C473 C 0.46633 0.30819 0.86337 0.0
C474 C 0.32297 0.27205 0.88271 0.0
C475 C 0.32145 0.29448 0.79376 0.0
O476 O 0.26676 0.30792 0.85066 0.0
O477 O 0.27612 0.36106 0.86911 0.0
O478 O 0.34569 0.3478 0.84018 0.0
O479 O 0.32941 0.3871 0.85921 0.0
O480 O 0.32646 0.35136 0.91962 0.0
O481 O 0.37271 0.34681 0.91755 0.0
O482 O 0.40837 0.33945 0.87606 0.0
O483 O 0.39649 0.28576 0.86199 0.0
O484 O 0.32897 0.30309 0.88955 0.0
O485 O 0.34312 0.26301 0.86878 0.0
O486 O 0.3487 0.30044 0.80871 0.0
O487 O 0.30261 0.30436 0.81119 0.0
H488 H 0.21701 0.27622 0.85855 0.0
H489 H 0.17702 0.2677 0.8891 0.0
H490 H 0.20264 0.37003 0.94068 0.0
H491 H 0.24336 0.37828 0.91102 0.0
H492 H 0.41675 0.32473 0.79999 0.0
H493 H 0.45718 0.33293 0.76955 0.0
H494 H 0.50886 0.30667 0.85843 0.0
H495 H 0.46927 0.30152 0.8897 0.0
Tb496 Tb 0.07373 0.11283 0.60624 0.0
Tb497 Tb 0.09129 0.04368 0.59848 0.0
C498 C 0.0704 0.16965 0.59616 0.0
C499 C 0.06093 0.17943 0.56203 0.0
C500 C 0.06685 0.16388 0.53051 0.0
C501 C 0.05462 0.17005 0.49753 0.0
C502 C 1.03637 0.19192 0.49564 0.0
C503 C 1.03029 0.20705 0.52735 0.0
C504 C 1.04235 0.2007 0.56019 0.0
C505 C 1.03456 0.06576 0.6236 0.0
C506 C 0.05507 0.06172 0.53193 0.0
C507 C 0.09449 0.98585 0.60477 0.0
C508 C 0.09855 0.97179 0.63726 0.0
C509 C 0.09179 0.98704 0.66828 0.0
C510 C 0.10221 0.97944 0.70127 0.0
C511 C 0.11944 0.95647 0.70352 0.0
C512 C 0.12474 0.93997 0.67204 0.0
C513 C 0.11463 0.94787 0.63921 0.0
C514 C 0.13042 0.09069 0.58095 0.0
C515 C 0.10764 0.09409 0.67369 0.0
O516 O 0.0945 0.16027 0.60025 0.0
O517 O 0.05045 0.14959 0.60662 0.0
O518 O 0.05757 0.0634 0.61359 0.0
O519 O 1.03401 0.09679 0.62528 0.0
O520 O 0.05695 0.09159 0.55009 0.0
O521 O 0.06582 0.03844 0.54572 0.0
O522 O 0.07026 0.99413 0.59569 0.0
O523 O 0.11631 1.00906 0.60309 0.0
O524 O 0.10733 0.09299 0.59073 0.0
O525 O 0.13098 0.05974 0.57949 0.0
O526 O 0.10451 0.06361 0.6559 0.0
O527 O 0.09933 0.11827 0.65876 0.0
H528 H 0.08086 0.1469 0.53129 0.0
H529 H 0.06005 0.15855 0.47363 0.0
H530 H 1.01719 0.22505 0.52702 0.0
H531 H 1.03714 0.21237 0.58417 0.0
H532 H 0.07942 1.00575 0.66719 0.0
H533 H 0.09723 0.99188 0.725 0.0
H534 H 0.13662 0.92076 0.67266 0.0
H535 H 0.12022 0.93616 0.61552 0.0
Tb536 Tb 0.35061 0.81551 0.86633 0.0
Tb537 Tb 0.35165 0.8835 0.84357 0.0
C538 C 0.36091 0.76066 0.87628 0.0
C539 C 0.38409 0.74374 0.8739 0.0
C540 C 0.40675 0.75637 0.85777 0.0
C541 C 0.42592 0.73701 0.85026 0.0
C542 C 0.42273 0.70524 0.85948 0.0
C543 C 0.40135 0.69378 0.87793 0.0
C544 C 0.38209 0.71291 0.88502 0.0
C545 C 0.32571 0.85353 0.90406 0.0
C546 C 0.40726 0.87393 0.88627 0.0
C547 C 0.34022 0.93737 0.83241 0.0
C548 C 0.31544 0.95111 0.83685 0.0
C549 C 0.2876 0.93264 0.82261 0.0
C550 C 0.26435 0.94464 0.83054 0.0
C551 C 0.26864 0.97526 0.85278 0.0
C552 C 0.29648 0.99409 0.8661 0.0
C553 C 0.31965 0.98201 0.85838 0.0
C554 C 0.37432 0.84296 0.80546 0.0
C555 C 0.29401 0.82704 0.82677 0.0
O556 O 0.34763 0.76588 0.84592 0.0
O557 O 0.3659 0.78623 0.9018 0.0
O558 O 0.34715 0.86311 0.89058 0.0
O559 O 0.321 0.82158 0.90134 0.0
O560 O 0.39554 0.84164 0.87922 0.0
O561 O 0.39248 0.89626 0.8793 0.0
O562 O 0.35564 0.93387 0.86215 0.0
O563 O 0.33617 0.91176 0.8071 0.0
O564 O 0.35282 0.83537 0.81893 0.0
O565 O 0.38244 0.875 0.81022 0.0
O566 O 0.30678 0.85888 0.83189 0.0
O567 O 0.30801 0.80383 0.83364 0.0
H568 H 0.40882 0.78046 0.84964 0.0
H569 H 0.44226 0.74609 0.83586 0.0
H570 H 0.39862 0.66921 0.88509 0.0
H571 H 0.36483 0.70294 0.89769 0.0
H572 H 0.28374 0.9087 0.80585 0.0
H573 H 0.24309 0.92985 0.81973 0.0
H574 H 0.30036 1.01829 0.8824 0.0
H575 H 0.34091 0.9966 0.86968 0.0
Tb576 Tb 0.56017 0.05801 0.08026 0.0
Tb577 Tb 0.61368 0.08934 0.1365 0.0
C578 C 0.52113 1.01151 0.04522 0.0
C579 C 0.49149 0.99473 0.04208 0.0
C580 C 0.483 0.9609 0.02761 0.0
C581 C 0.45437 0.94477 1.02034 0.0
C582 C 0.43398 0.96231 0.02805 0.0
C583 C 0.4429 0.9956 0.04528 0.0
C584 C 0.47148 1.01185 0.05191 0.0
C585 C 0.56944 0.12239 0.09966 0.0
C586 C 0.55342 0.07321 0.16576 0.0
C587 C 0.65386 0.13574 0.16917 0.0
C588 C 0.68352 0.15058 0.16828 0.0
C589 C 0.69144 0.18477 0.16783 0.0
C590 C 0.71976 0.20014 0.16923 0.0
C591 C 0.74061 0.18152 0.17141 0.0
C592 C 0.73248 0.14708 0.17063 0.0
C593 C 0.70414 0.13168 0.16899 0.0
C594 C 0.6038 1.02472 0.1173 0.0
C595 C 0.62057 0.07384 0.05121 0.0
O596 O 0.53859 1.00847 0.07353 0.0
O597 O 0.52638 0.04143 0.03678 0.0
O598 O 0.57482 0.10091 0.11784 0.0
O599 O 0.55541 0.10731 0.06813 0.0
O600 O 0.54122 0.05945 0.13149 0.0
O601 O 0.58168 0.08626 0.17319 0.0
O602 O 0.63497 0.13894 0.14229 0.0
O603 O 0.64822 0.10641 0.17903 0.0
O604 O 0.59866 0.04637 0.09927 0.0
O605 O 0.61928 0.04014 0.148 0.0
O606 O 0.63269 0.08744 0.08546 0.0
O607 O 0.59236 0.06075 0.04379 0.0
H608 H 0.49843 0.94731 1.02062 0.0
H609 H 0.44812 0.91909 1.00734 0.0
H610 H 0.42768 1.00929 0.05289 0.0
H611 H 0.47786 0.0378 0.06398 0.0
H612 H 0.6758 0.19977 0.16735 0.0
H613 H 0.7255 0.22676 0.17031 0.0
H614 H 0.74815 0.13212 0.17181 0.0
H615 H 0.69852 0.1052 0.1689 0.0
Tb616 Tb 0.30509 0.297 0.33842 0.0
Tb617 Tb 0.35903 0.34275 0.37448 0.0
C618 C 0.25795 0.25663 0.3254 0.0
C619 C 0.22915 0.26276 0.32094 0.0
C620 C 0.2089 0.24344 0.33607 0.0
C621 C 0.1854 0.25507 0.34374 0.0
C622 C 0.18169 0.2862 0.33629 0.0
C623 C 0.20049 0.30398 0.31792 0.0
C624 C 0.22419 0.29249 0.31058 0.0
C625 C 0.32801 0.33796 0.29862 0.0
C626 C 0.30253 0.37509 0.3653 0.0
C627 C 0.41061 0.37136 0.38417 0.0
C628 C 0.43332 0.35904 0.36915 0.0
C629 C 0.42618 0.336 0.33738 0.0
C630 C 0.44702 0.32367 0.32284 0.0
C631 C 0.47571 0.33379 0.33982 0.0
C632 C 0.48292 0.35651 0.37201 0.0
C633 C 0.4619 0.369 0.38654 0.0
C634 C 0.32789 0.31446 0.41754 0.0
C635 C 0.3618 0.26432 0.3484 0.0
O636 O 0.27271 0.26843 0.35756 0.0
O637 O 0.27275 0.2632 0.30064 0.0
O638 O 0.34084 0.32307 0.32017 0.0
O639 O 0.30102 0.32813 0.29702 0.0
O640 O 0.28877 0.34276 0.35821 0.0
O641 O 0.3312 0.38118 0.37009 0.0
O642 O 0.39079 0.37814 0.36098 0.0
O643 O 0.39982 0.3546 0.40704 0.0
O644 O 0.33189 0.30219 0.388 0.0
O645 O 0.3431 0.34487 0.42526 0.0
O646 O 0.37502 0.29517 0.36513 0.0
O647 O 0.33381 0.25945 0.33405 0.0
H648 H 0.21253 0.22072 0.34479 0.0
H649 H 0.17111 0.24071 0.35762 0.0
H650 H 0.19831 0.32809 0.31195 0.0
H651 H 0.23979 0.30819 0.29952 0.0
H652 H 0.40431 0.32725 0.32383 0.0
H653 H 0.44064 0.306 0.29827 0.0
H654 H 0.50487 0.36522 0.38552 0.0
H655 H 0.46798 0.38653 0.41121 0.0
Tb656 Tb 0.56822 0.61375 0.10951 0.0
Tb657 Tb 0.59062 0.55175 0.10608 0.0
C658 C 0.5514 0.66431 0.09579 0.0
C659 C 0.54055 0.67413 0.06215 0.0
C660 C 0.54819 0.66215 0.03034 0.0
C661 C 0.53779 0.67199 0.99857 0.0
C662 C 0.52044 0.69496 0.99838 0.0
C663 C 0.51176 0.7055 0.03015 0.0
C664 C 0.52155 0.6949 0.06163 0.0
C665 C 0.5358 0.56254 0.12827 0.0
C666 C 0.55787 0.56388 0.03486 0.0
C667 C 0.59502 0.4965 0.12067 0.0
C668 C 0.61371 0.48737 0.14977 0.0
C669 C 0.60183 0.47549 0.17753 0.0
C670 C 0.61858 0.46638 0.20544 0.0
C671 C 0.64762 0.46836 0.20603 0.0
C672 C 0.65993 0.48185 0.17918 0.0
C673 C 0.64309 0.49148 0.15128 0.0
C674 C 0.6317 0.60029 0.09597 0.0
C675 C 0.60525 0.60453 0.1789 0.0
O676 O 0.57822 0.66325 0.10185 0.0
O677 O 0.53509 0.63847 0.10346 0.0
O678 O 0.54933 0.56203 0.10304 0.0
O679 O 0.54076 0.59293 0.14439 0.0
O680 O 0.5573 0.59306 0.05253 0.0
O681 O 0.5688 0.54186 0.05075 0.0
O682 O 0.57641 0.5121 0.13114 0.0
O683 O 0.6067 0.50932 0.0958 0.0
O684 O 0.60719 0.6023 0.10138 0.0
O685 O 0.63351 0.56986 0.0966 0.0
O686 O 0.60336 0.57392 0.1628 0.0
O687 O 0.59541 0.62649 0.16174 0.0
H688 H 0.56302 0.64625 0.03012 0.0
H689 H 0.54492 0.66347 0.97468 0.0
H690 H 0.49918 0.72396 0.03158 0.0
H691 H 0.5152 0.70404 0.0859 0.0
H692 H 0.5793 0.47233 0.17718 0.0
H693 H 0.60812 0.45514 0.22498 0.0
H694 H 0.68213 0.48309 0.17872 0.0
H695 H 0.65293 0.50115 0.13048 0.0
Tb696 Tb 0.84102 0.30893 0.35536 0.0
Tb697 Tb 0.8409 0.37522 0.32893 0.0
C698 C 0.85053 0.2546 0.36868 0.0
C699 C 0.87126 0.23487 0.36244 0.0
C700 C 0.89865 0.24947 0.35806 0.0
C701 C 0.91664 0.22945 0.34787 0.0
C702 C 0.90715 0.19476 0.34158 0.0
C703 C 0.88017 0.18044 0.34748 0.0
C704 C 0.86235 0.20034 0.35765 0.0
C705 C 0.81918 0.35084 0.39302 0.0
C706 C 0.898 0.36573 0.3687 0.0
C707 C 0.8292 0.42904 0.31695 0.0
C708 C 0.8042 0.44281 0.31922 0.0
C709 C 0.78109 0.42512 0.33117 0.0
C710 C 0.75747 0.43834 0.33413 0.0
C711 C 0.75708 0.47025 0.32644 0.0
C712 C 0.78037 0.48787 0.31426 0.0
C713 C 0.80362 0.47413 0.31044 0.0
C714 C 0.86304 0.33365 0.29109 0.0
C715 C 0.78409 0.31737 0.31479 0.0
O716 O 0.83381 0.2577 0.33983 0.0
O717 O 0.85958 0.28236 0.39152 0.0
O718 O 0.83985 0.35791 0.37792 0.0
O719 O 0.81227 0.31897 0.39095 0.0
O720 O 0.88599 0.3336 0.36358 0.0
O721 O 0.88332 0.38823 0.3616 0.0
O722 O 0.8433 0.42524 0.34743 0.0
O723 O 0.82543 0.40318 0.29208 0.0
O724 O 0.84235 0.32634 0.30631 0.0
O725 O 0.86965 0.36565 0.2933 0.0
O726 O 0.79606 0.34943 0.31922 0.0
O727 O 0.79893 0.29521 0.32218 0.0
H728 H 0.90577 0.27616 0.36145 0.0
H729 H 0.93748 0.24097 0.34382 0.0
H730 H 0.87273 0.15373 0.34389 0.0
H731 H 0.84129 0.18872 0.36097 0.0
H732 H 0.78164 0.4014 0.33899 0.0
H733 H 0.73982 0.42376 0.34293 0.0
H734 H 0.78108 0.51277 0.30869 0.0
H735 H 0.82141 0.48828 0.30144 0.0
Tb736 Tb 0.06088 0.57715 0.57444 0.0
Tb737 Tb 0.11063 0.57705 0.6311 0.0
C738 C 1.01458 0.55083 0.5328 0.0
C739 C 0.98522 0.53651 0.53523 0.0
C740 C 0.9797 0.5214 0.56462 0.0
C741 C 0.95359 0.49997 0.56301 0.0
C742 C 0.93229 0.49393 0.53236 0.0
C743 C 0.93722 0.5107 0.50387 0.0
C744 C 0.96363 0.53168 0.5052 0.0
C745 C 0.08605 0.6357 0.61008 0.0
C746 C 0.05066 0.57436 0.6586 0.0
C747 C 0.15601 0.60305 0.67461 0.0
C748 C 0.1866 0.61332 0.67673 0.0
C749 C 0.2022 0.63896 0.70408 0.0
C750 C 0.23006 0.65424 0.70323 0.0
C751 C 0.24266 0.64423 0.67487 0.0
C752 C 0.22723 0.61776 0.64801 0.0
C753 C 0.19935 0.60232 0.64904 0.0
C754 C 0.08645 0.51857 0.5911 0.0
C755 C 0.12208 0.5806 0.54816 0.0
O756 O 1.03262 0.53457 0.54649 0.0
O757 O 1.02425 0.58315 0.54072 0.0
O758 O 0.08218 0.60855 0.62177 0.0
O759 O 0.07388 0.63059 0.57646 0.0
O760 O 1.03957 0.57359 0.62386 0.0
O761 O 0.07843 0.57474 0.66689 0.0
O762 O 0.1414 0.61946 0.65493 0.0
O763 O 0.14412 0.57118 0.66977 0.0
O764 O 0.08977 0.54704 0.58307 0.0
O765 O 0.09914 0.52204 0.62436 0.0
O766 O 0.13253 0.58058 0.58285 0.0
O767 O 0.09434 0.58108 0.53916 0.0
H768 H 0.99619 0.52433 0.58791 0.0
H769 H 0.95055 0.48711 0.58519 0.0
H770 H 0.92093 0.50682 0.48016 0.0
H771 H 0.96763 0.54273 0.4821 0.0
H772 H 0.19245 0.64807 0.72539 0.0
H773 H 0.24165 0.67426 0.72445 0.0
H774 H 0.23638 0.6098 0.62566 0.0
H775 H 0.18735 0.58275 0.62769 0.0
Tb776 Tb 0.81234 0.84008 0.36772 0.0
Tb777 Tb 0.86611 0.81126 0.37114 0.0
C778 C 0.76496 0.85291 0.37536 0.0
C779 C 0.73949 0.84117 0.39088 0.0
C780 C 0.74121 0.8278 0.4226 0.0
C781 C 0.71692 0.81905 0.43753 0.0
C782 C 0.69035 0.82381 0.42139 0.0
C783 C 0.6887 0.83633 0.38913 0.0
C784 C 0.71289 0.84488 0.37417 0.0
C785 C 0.85752 0.8785 0.35142 0.0
C786 C 0.85412 0.84626 0.44118 0.0
C787 C 0.91332 0.79867 0.36244 0.0
C788 C 0.9354 0.80469 0.34009 0.0
C789 C 0.94149 0.83394 0.32544 0.0
C790 C 0.9644 0.84017 0.30754 0.0
C791 C 0.98182 0.81733 0.30386 0.0
C792 C 0.97525 0.7879 0.31809 0.0
C793 C 0.9524 0.78169 0.33585 0.0
C794 C 0.82162 0.77389 0.38952 0.0
C795 C 0.82345 0.8039 0.29805 0.0
O796 O 0.76855 0.83398 0.34761 0.0
O797 O 0.78906 0.86646 0.39725 0.0
O798 O 0.857 0.85918 0.37365 0.0
O799 O 0.83147 0.87982 0.33982 0.0
O800 O 0.82735 0.84118 0.42466 0.0
O801 O 0.8744 0.83996 0.42443 0.0
O802 O 0.91063 0.8242 0.38385 0.0
O803 O 0.88867 0.77885 0.34789 0.0
O804 O 0.82144 0.79231 0.36628 0.0
O805 O 0.84783 0.77276 0.40075 0.0
O806 O 0.85041 0.8094 0.31411 0.0
O807 O 0.80357 0.80916 0.31594 0.0
H808 H 0.76135 0.82438 0.43601 0.0
H809 H 0.71903 0.80865 0.46183 0.0
H810 H 0.6688 0.84049 0.37589 0.0
H811 H 0.71089 0.85513 0.34974 0.0
H812 H 0.92893 0.85229 0.32846 0.0
H813 H 0.96897 0.86337 0.29755 0.0
H814 H 0.98796 0.76963 0.31568 0.0
H815 H 0.94838 0.75906 0.34701 0.0
Tb816 Tb 0.83875 0.30859 0.83326 0.0
Tb817 Tb 0.82602 0.33731 0.8974 0.0
C818 C 0.83995 0.29649 0.76834 0.0
C819 C 0.82758 0.31272 0.74038 0.0
C820 C 0.81635 0.34021 0.74997 0.0
C821 C 0.801 0.35344 0.72414 0.0
C822 C 0.79702 0.33972 0.68817 0.0
C823 C 0.80852 0.31235 0.67851 0.0
C824 C 0.82362 0.29881 0.70455 0.0
C825 C 0.87563 0.30165 0.88924 0.0
C826 C 0.86082 0.38929 0.85887 0.0
C827 C 0.82522 0.34867 0.96252 0.0
C828 C 0.83407 0.32871 0.98892 0.0
C829 C 0.84512 0.30152 0.97776 0.0
C830 C 0.85588 0.2834 1.00219 0.0
C831 C 0.85608 0.29235 0.03836 0.0
C832 C 0.84514 0.31962 0.04984 0.0
C833 C 0.83401 0.33772 0.02508 0.0
C834 C 0.78994 0.34511 0.84101 0.0
C835 C 0.80351 0.25659 0.87159 0.0
O836 O 0.82115 0.27958 0.78324 0.0
O837 O 0.86126 0.31518 0.79187 0.0
O838 O 0.86479 0.32642 0.88551 0.0
O839 O 0.86729 0.28105 0.85955 0.0
O840 O 0.85617 0.36307 0.83319 0.0
O841 O 0.85139 0.38493 0.88856 0.0
O842 O 0.84592 0.36282 0.94838 0.0
O843 O 0.80265 0.3341 0.93839 0.0
O844 O 0.8001 0.31986 0.84494 0.0
O845 O 0.79831 0.36576 0.87076 0.0
O846 O 0.80805 0.28286 0.89716 0.0
O847 O 0.81301 0.26104 0.84197 0.0
H848 H 0.81839 0.35063 0.77758 0.0
H849 H 0.7918 0.37398 0.73235 0.0
H850 H 0.80589 0.30153 0.65082 0.0
H851 H 0.83174 0.27724 0.69681 0.0
H852 H 0.84641 0.29493 0.95024 0.0
H853 H 0.86485 0.26297 0.99294 0.0
H854 H 0.84536 0.32693 0.07783 0.0
H855 H 0.82597 0.35897 0.03416 0.0
Tb856 Tb 0.80408 0.79752 0.8417 0.0
Tb857 Tb 0.85874 0.84246 0.87774 0.0
C858 C 0.75653 0.75812 0.83104 0.0
C859 C 0.72817 0.76509 0.83054 0.0
C860 C 0.70978 0.74662 0.84876 0.0
C861 C 0.68784 0.7592 0.86023 0.0
C862 C 0.68388 0.79046 0.85363 0.0
C863 C 0.70028 0.80717 0.83197 0.0
C864 C 0.72253 0.79482 0.82092 0.0
C865 C 0.82754 0.83829 0.80209 0.0
C866 C 0.80295 0.8759 0.86905 0.0
C867 C 0.91065 0.8697 0.88751 0.0
C868 C 0.93316 0.85565 0.87407 0.0
C869 C 0.92565 0.8297 0.84486 0.0
C870 C 0.94603 0.81449 0.833 0.0
C871 C 0.97494 0.82594 0.84869 0.0
C872 C 0.98258 0.852 0.87809 0.0
C873 C 0.96184 0.86651 0.89084 0.0
C874 C 0.82735 0.8147 0.92065 0.0
C875 C 0.85999 0.76367 0.85005 0.0
O876 O 0.7731 0.76827 0.86236 0.0
O877 O 0.76968 0.76554 0.80504 0.0
O878 O 0.84005 0.82313 0.82363 0.0
O879 O 0.80046 0.82865 0.80016 0.0
O880 O 0.78879 0.84375 0.8622 0.0
O881 O 0.83158 0.88154 0.8734 0.0
O882 O 0.89135 0.87583 0.86309 0.0
O883 O 0.89919 0.85462 0.91106 0.0
O884 O 0.83113 0.80227 0.89105 0.0
O885 O 0.84281 0.84499 0.92843 0.0
O886 O 0.87344 0.79388 0.8684 0.0
O887 O 0.83219 0.75969 0.83519 0.0
H888 H 0.71391 0.72387 0.85687 0.0
H889 H 0.67513 0.74548 0.87628 0.0
H890 H 0.69748 0.83112 0.82611 0.0
H891 H 0.73667 0.80983 0.80738 0.0
H892 H 0.90385 0.82088 0.83109 0.0
H893 H 0.93898 0.79371 0.81131 0.0
H894 H 1.00464 0.86161 0.89081 0.0
H895 H 0.96821 0.88636 0.91355 0.0
Tb896 Tb 0.57293 0.55156 0.58334 0.0
Tb897 Tb 0.61437 0.59855 0.63896 0.0
C898 C 0.52515 0.51883 0.55108 0.0
C899 C 0.49928 0.5237 0.56397 0.0
C900 C 0.49407 0.51232 0.59567 0.0
C901 C 0.48254 0.53084 0.6197 0.0
C902 C 0.47531 0.56015 0.61162 0.0
C903 C 0.47543 0.5678 0.5773 0.0
C904 C 0.48699 0.54936 0.55334 0.0
C905 C 0.62127 0.57285 0.56198 0.0
C906 C 0.57091 0.6298 0.5946 0.0
C907 C 0.66124 0.63155 0.6749 0.0
C908 C 0.68843 0.62125 0.67855 0.0
C909 C 0.70806 0.63447 0.65843 0.0
C910 C 0.72414 0.61449 0.6435 0.0
C911 C 0.72103 0.58161 0.64938 0.0
C912 C 0.706 0.57101 0.67529 0.0
C913 C 0.69004 0.59105 0.69029 0.0
C914 C 0.56519 0.57777 0.65876 0.0
C915 C 0.61424 0.51994 0.63198 0.0
O916 O 0.54226 0.50661 0.57245 0.0
O917 O 0.53914 0.54422 0.53965 0.0
O918 O 0.60919 0.58925 0.58193 0.0
O919 O 0.6049 0.54338 0.55193 0.0
O920 O 0.55735 0.5985 0.58109 0.0
O921 O 0.59504 0.63623 0.61777 0.0
O922 O 0.65127 0.63496 0.6424 0.0
O923 O 0.64144 0.61511 0.6891 0.0
O924 O 0.57787 0.56124 0.63985 0.0
O925 O 0.58108 0.60763 0.6681 0.0
O926 O 0.62828 0.55118 0.64484 0.0
O927 O 0.59089 0.51389 0.60744 0.0
H928 H 0.50251 0.49196 0.60428 0.0
H929 H 0.48209 0.52415 0.64582 0.0
H930 H 0.469 0.58984 0.57022 0.0
H931 H 0.48995 0.55819 0.52874 0.0
H932 H 0.70771 0.65808 0.6497 0.0
H933 H 0.73614 0.6233 0.62407 0.0
H934 H 0.70413 0.54598 0.68098 0.0
H935 H 0.67606 0.58089 0.70707 0.0
Tb936 Tb 0.10648 0.57407 0.08969 0.0
Tb937 Tb 0.05203 0.57152 0.12215 0.0
C938 C 0.1568 0.57305 0.08305 0.0
C939 C 0.1809 0.55822 0.09599 0.0
C940 C 0.17742 0.5301 0.11278 0.0
C941 C 0.20058 0.5158 0.12284 0.0
C942 C 0.22771 0.52924 0.11621 0.0
C943 C 0.23107 0.55788 0.10019 0.0
C944 C 0.208 0.5721 0.09021 0.0
C945 C 0.06285 0.58341 0.03898 0.0
C946 C 0.06495 0.5042 0.08847 0.0
C947 C 1.0023 0.57455 0.13013 0.0
C948 C 0.97938 0.59264 0.12096 0.0
C949 C 0.98315 0.62695 0.1326 0.0
C950 C 0.96021 0.64251 0.12705 0.0
C951 C 0.93283 0.62422 0.10989 0.0
C952 C 0.92945 0.59018 0.09713 0.0
C953 C 0.95228 0.57463 0.10285 0.0
C954 C 0.09557 0.55941 0.17097 0.0
C955 C 0.09483 0.64167 0.1262 0.0
O956 O 0.15033 0.59501 0.1058 0.0
O957 O 0.13416 0.55307 0.06269 0.0
O958 O 0.06319 0.57913 0.07141 0.0
O959 O 0.0886 0.58259 0.03544 0.0
O960 O 0.09126 0.52078 0.08952 0.0
O961 O 0.04492 0.51949 0.09624 0.0
O962 O 1.00771 0.5544 0.10453 0.0
O963 O 1.02547 0.59072 0.15261 0.0
O964 O 0.09496 0.56619 0.13953 0.0
O965 O 0.06956 0.55836 0.17474 0.0
O966 O 0.06881 0.62549 0.1273 0.0
O967 O 0.11353 0.62592 0.11503 0.0
H968 H 0.15678 0.51902 0.11779 0.0
H969 H 0.19722 0.49422 0.13581 0.0
H970 H 0.25146 0.56888 0.09445 0.0
H971 H 0.21127 0.59377 0.07732 0.0
H972 H 1.00366 0.64171 0.14674 0.0
H973 H 0.96376 0.66873 0.1372 0.0
H974 H 0.90903 0.57537 0.08278 0.0
H975 H 0.94859 0.54822 0.09353 0.0
C976 C 0.0715 0.21412 0.05825 0.0
C977 C 0.04396 0.21916 0.05859 0.0
C978 C 0.0801 0.18627 0.0701 0.0
C979 C 0.06138 0.16124 0.08173 0.0
H980 H 0.08695 0.23249 0.04992 0.0
H981 H 0.10176 0.18428 0.06998 0.0
S982 S 0.98653 0.16145 0.08684 0.0
N983 N 0.99788 0.19613 0.07183 0.0
N984 N 1.01357 0.14332 0.09195 0.0
C985 C 1.03353 0.1654 0.08122 0.0
C986 C 1.02501 0.19436 0.07029 0.0
C987 C 0.23369 0.83041 0.25423 0.0
C988 C 0.2161 0.85254 0.26121 0.0
C989 C 0.25679 0.82761 0.28019 0.0
C990 C 0.26434 0.84781 0.31402 0.0
H991 H 0.2293 0.81464 0.2285 0.0
H992 H 0.26909 0.80975 0.27345 0.0
S993 S 0.22547 0.9101 0.34593 0.0
N994 N 0.20775 0.89445 0.30511 0.0
N995 N 0.25166 0.89084 0.35282 0.0
C996 C 0.24697 0.8702 0.32121 0.0
C997 C 0.22287 0.87217 0.2952 0.0
C998 C 0.57136 0.91156 0.57515 0.0
C999 C 0.54731 0.8953 0.54892 0.0
C1000 C 0.5766 0.94593 0.58832 0.0
C1001 C 0.5576 0.96539 0.57665 0.0
H1002 H 0.58687 0.8979 0.58453 0.0
H1003 H 0.59586 0.95743 0.60764 0.0
S1004 S 0.49119 0.93461 0.50879 0.0
N1005 N 0.50446 0.90145 0.51165 0.0
N1006 N 0.51339 0.96522 0.5376 0.0
C1007 C 0.53302 0.94912 0.55126 0.0
C1008 C 0.52817 0.91438 0.53707 0.0
C1009 C 0.53339 0.32218 0.74057 0.0
C1010 C 0.56084 0.33744 0.76011 0.0
C1011 C 0.50963 0.31724 0.75725 0.0
C1012 C 0.51222 0.32778 0.79413 0.0
H1013 H 0.5303 0.31334 0.7123 0.0
H1014 H 0.48914 0.30452 0.74115 0.0
S1015 S 0.57903 0.37338 0.85618 0.0
N1016 N 0.58888 0.36524 0.81778 0.0
N1017 N 0.54453 0.35748 0.84864 0.0
C1018 C 0.53952 0.34428 0.81355 0.0
C1019 C 0.56367 0.34871 0.79672 0.0
C1020 C 0.11133 0.91125 0.77891 0.0
C1021 C 0.1347 0.89662 0.77949 0.0
C1022 C 0.10823 0.93557 0.75785 0.0
C1023 C 0.12876 0.9459 0.73765 0.0
H1024 H 0.09334 0.9002 0.7898 0.0
H1025 H 0.08798 0.94251 0.75351 0.0
S1026 S 0.19893 0.92475 0.74326 0.0
N1027 N 0.18206 0.90049 0.76734 0.0
N1028 N 0.1772 0.94801 0.72938 0.0
C1029 C 0.15489 0.93671 0.74474 0.0
C1030 C 0.15765 0.91137 0.76537 0.0
C1031 C 0.48408 0.86914 0.91121 0.0
C1032 C 0.49774 0.90117 0.9295 0.0
C1033 C 0.455 0.86095 0.89702 0.0
C1034 C 0.43836 0.88458 0.89995 0.0
H1035 H 0.49554 0.84951 0.91 0.0
H1036 H 0.44548 0.83557 0.88426 0.0
S1037 S 0.46509 0.97349 0.94042 0.0
N1038 N 0.49338 0.95755 0.94688 0.0
N1039 N 0.43854 0.94259 0.91914 0.0
C1040 C 0.45217 0.91741 0.91602 0.0
C1041 C 0.48188 0.92558 0.93111 0.0
C1042 C 0.57471 0.1944 0.17249 0.0
C1043 C 0.57809 0.22192 0.15497 0.0
C1044 C 0.57071 0.16233 0.15382 0.0
C1045 C 0.56952 0.15623 0.1168 0.0
H1046 H 0.57723 0.19766 0.2012 0.0
H1047 H 0.56954 0.14233 0.16901 0.0
S1048 S 0.57177 0.21901 0.05728 0.0
N1049 N 0.57603 0.24063 0.09748 0.0
N1050 N 0.56823 0.17982 0.06259 0.0
C1051 C 0.57021 0.18305 0.09838 0.0
C1052 C 0.57454 0.21599 0.11742 0.0
C1053 C 0.14388 0.31916 0.40638 0.0
C1054 C 0.12475 0.33485 0.38765 0.0
C1055 C 0.16162 0.30306 0.38926 0.0
C1056 C 0.16125 0.30212 0.35266 0.0
H1057 H 0.145 0.31887 0.43456 0.0
H1058 H 0.17615 0.2917 0.40506 0.0
S1059 S 0.1156 0.33981 0.2913 0.0
N1060 N 0.10674 0.34869 0.33025 0.0
N1061 N 0.14041 0.31857 0.29816 0.0
C1062 C 0.14254 0.31802 0.33356 0.0
C1063 C 0.1242 0.33427 0.35099 0.0
C1064 C 1.02496 0.07375 0.23335 0.0
C1065 C 1.02356 0.0409 0.23939 0.0
C1066 C 1.03879 0.08619 0.20704 0.0
C1067 C 0.05084 0.06596 0.18488 0.0
H1068 H 1.01661 0.09051 0.25031 0.0
H1069 H 1.04053 0.11204 0.20449 0.0
S1070 S 0.05083 0.97725 0.1881 0.0
N1071 N 1.0343 0.98801 0.22011 0.0
N1072 N 0.05915 1.0107 0.16993 0.0
C1073 C 0.04834 1.03257 0.18962 0.0
C1074 C 1.03495 1.02022 0.21698 0.0
C1075 C 0.37329 0.71754 0.58332 0.0
C1076 C 0.40099 0.73329 0.60152 0.0
C1077 C 0.35771 0.73369 0.56031 0.0
C1078 C 0.36954 0.76584 0.55508 0.0
H1079 H 0.3631 0.69348 0.58834 0.0
H1080 H 0.33621 0.72134 0.54711 0.0
S1081 S 0.44214 0.81585 0.59315 0.0
N1082 N 0.44022 0.78153 0.61064 0.0
N1083 N 0.411 0.81155 0.56692 0.0
C1084 C 0.39759 0.78103 0.57164 0.0
C1085 C 0.41333 0.76479 0.59505 0.0
C1086 C 0.66656 0.06752 0.74517 0.0
C1087 C 0.65931 0.04427 0.76819 0.0
C1088 C 0.64755 0.07004 0.71327 0.0
C1089 C 0.61937 0.05025 0.70265 0.0
H1090 H 0.6866 0.08565 0.75311 0.0
H1091 H 0.65438 0.08939 0.69831 0.0
S1092 S 0.58883 0.98534 0.7523 0.0
N1093 N 0.62117 1.00066 0.77602 0.0
N1094 N 0.58612 1.00568 0.7184 0.0
C1095 C 0.61224 1.02645 0.72486 0.0
C1096 C 0.63171 1.02348 0.75665 0.0
C1097 C 0.37429 0.38004 0.03431 0.0
C1098 C 0.37021 0.41264 0.04049 0.0
C1099 C 0.37073 0.36278 0.99956 0.0
C1100 C 0.36279 0.37752 0.96997 0.0
H1101 H 0.37931 0.36731 0.05642 0.0
H1102 H 0.37281 0.33727 0.99584 0.0
S1103 S 0.35227 0.46296 0.97101 0.0
N1104 N 0.36015 0.4597 1.01345 0.0
N1105 N 0.35292 0.42683 0.94848 0.0
C1106 C 0.35996 0.41041 0.9756 0.0
C1107 C 0.36388 0.42815 1.01081 0.0
C1108 C 1.00382 0.06485 0.44798 0.0
C1109 C 1.01105 0.04345 0.42157 0.0
C1110 C 1.01817 0.07051 0.48347 0.0
C1111 C 1.03991 0.05437 0.49423 0.0
H1112 H 0.98746 0.07818 0.44105 0.0
H1113 H 1.01211 0.08768 0.50264 0.0
S1114 S 0.06622 0.99491 0.43557 0.0
N1115 N 1.0411 1.00565 0.40859 0.0
N1116 N 0.06759 1.01544 0.47554 0.0
C1117 C 0.0469 1.03223 0.46823 0.0
C1118 C 1.03263 1.02702 0.43186 0.0
C1119 C 0.39358 0.76431 0.76757 0.0
C1120 C 0.42253 0.77532 0.76679 0.0
C1121 C 0.37821 0.78624 0.78105 0.0
C1122 C 0.39135 0.81973 0.79426 0.0
H1123 H 0.38219 0.73938 0.75518 0.0
H1124 H 0.35564 0.77732 0.77949 0.0
S1125 S 0.46759 0.85922 0.80322 0.0
N1126 N 0.46434 0.82062 0.7839 0.0
N1127 N 0.4356 0.86185 0.80962 0.0
C1128 C 0.42068 0.83035 0.79604 0.0
C1129 C 0.43627 0.80805 0.78238 0.0
C1130 C 0.68581 0.07143 0.99984 0.0
C1131 C 0.67341 0.05877 0.96321 0.0
C1132 C 0.66935 0.07708 0.02729 0.0
C1133 C 0.63892 0.06984 1.02093 0.0
H1134 H 0.70871 0.07743 1.0076 0.0
H1135 H 0.68085 0.08673 0.05422 0.0
S1136 S 0.59488 1.03564 0.93032 0.0
N1137 N 0.62761 0.03948 0.92335 0.0
N1138 N 0.59782 0.04864 0.97322 0.0
C1139 C 0.62644 0.05703 0.98446 0.0
C1140 C 0.64311 0.05194 0.95656 0.0
C1141 C 0.37685 0.37017 0.23722 0.0
C1142 C 0.36329 0.39269 0.22076 0.0
C1143 C 0.36595 0.35356 0.26322 0.0
C1144 C 0.34085 0.35842 0.27385 0.0
H1145 H 0.39569 0.36445 0.22914 0.0
H1146 H 0.37652 0.33551 0.27367 0.0
S1147 S 0.29782 0.41601 0.24114 0.0
N1148 N 0.32391 0.42007 0.21873 0.0
N1149 N 0.30342 0.38871 0.26736 0.0
C1150 C 0.32754 0.38166 0.25866 0.0
C1151 C 0.3388 0.3989 0.23236 0.0
C1152 C 0.21538 1.00282 0.0778 0.0
C1153 C 0.24322 1.00627 0.07183 0.0
C1154 C 0.20901 1.02482 0.10408 0.0
C1155 C 0.23024 0.05105 0.12529 0.0
H1156 H 0.19842 0.98278 0.06241 0.0
H1157 H 0.18714 1.02163 0.10735 0.0
S1158 S 0.30636 0.07126 0.12027 0.0
N1159 N 0.29223 0.03842 0.08916 0.0
N1160 N 0.27997 0.07944 0.13875 0.0
C1161 C 0.25807 0.05498 0.11953 0.0
C1162 C 0.26463 1.03266 0.09275 0.0
C1163 C 0.70624 0.64349 0.08678 0.0
C1164 C 0.70301 0.67328 0.07482 0.0
C1165 C 0.68309 0.62071 0.09367 0.0
C1166 C 0.6554 0.6264 0.0892 0.0
H1167 H 0.72699 0.63783 0.09156 0.0
H1168 H 0.68709 0.59838 0.10298 0.0
S1169 S 0.63428 0.69877 0.05536 0.0
N1170 N 0.66888 0.7061 0.05689 0.0
N1171 N 0.62579 0.66308 0.06958 0.0
C1172 C 0.65157 0.65558 0.07651 0.0
C1173 C 0.67517 0.67894 0.06938 0.0
C1174 C 0.70914 0.53027 0.32027 0.0
C1175 C 0.70133 0.53246 0.35365 0.0
C1176 C 0.72469 0.50734 0.31002 0.0
C1177 C 0.73385 0.4867 0.3334 0.0
H1178 H 0.70487 0.54793 0.30299 0.0
H1179 H 0.73134 0.5075 0.28464 0.0
S1180 S 0.71497 0.48031 0.42199 0.0
N1181 N 0.70008 0.50961 0.408 0.0
N1182 N 0.73072 0.46744 0.38998 0.0
C1183 C 0.72378 0.48666 0.36559 0.0
C1184 C 0.70724 0.5095 0.37549 0.0
C1185 C 0.86617 0.42534 0.49499 0.0
C1186 C 0.84974 0.42882 0.52109 0.0
C1187 C 0.89337 0.44586 0.49927 0.0
C1188 C 0.90498 0.47006 0.52996 0.0
H1189 H 0.85735 0.40832 0.47027 0.0
H1190 H 0.90502 0.4435 0.47797 0.0
S1191 S 0.87173 0.48497 0.60828 0.0
N1192 N 0.84814 0.45496 0.58046 0.0
N1193 N 0.89887 0.49388 0.58821 0.0
C1194 C 0.88954 0.47174 0.55741 0.0
C1195 C 0.86204 0.4509 0.55308 0.0
C1196 C 0.38306 0.17464 0.33183 0.0
C1197 C 0.41289 0.17958 0.34612 0.0
C1198 C 0.3672 0.20087 0.33216 0.0
C1199 C 0.37932 0.23512 0.34708 0.0
H1200 H 0.37138 0.14969 0.32003 0.0
H1201 H 0.34477 0.19384 0.32059 0.0
S1202 S 0.45643 0.26366 0.38939 0.0
N1203 N 0.45322 0.2236 0.37627 0.0
N1204 N 0.42465 0.27095 0.3775 0.0
C1205 C 0.40913 0.24033 0.36163 0.0
C1206 C 0.42527 0.21366 0.36102 0.0
C1207 C 0.35899 0.13563 0.58426 0.0
C1208 C 0.36214 0.17024 0.59215 0.0
C1209 C 0.38238 0.12083 0.59005 0.0
C1210 C 0.41017 0.1398 0.60454 0.0
H1211 H 0.33822 0.11971 0.57308 0.0
H1212 H 0.37857 0.09415 0.58283 0.0
S1213 S 0.42974 0.23149 0.6321 0.0
N1214 N 0.39527 0.22314 0.61603 0.0
N1215 N 0.43892 0.19545 0.62816 0.0
C1216 C 0.41356 0.17452 0.61287 0.0
C1217 C 0.38971 0.18964 0.60646 0.0
C1218 C 0.74409 0.74137 0.39424 0.0
C1219 C 0.74443 0.71276 0.40986 0.0
C1220 C 0.7692 0.76102 0.38819 0.0
C1221 C 0.79579 0.75357 0.39839 0.0
H1222 H 0.72413 0.74777 0.38499 0.0
H1223 H 0.76766 0.78191 0.3748 0.0
S1224 S 0.80863 0.68287 0.44292 0.0
N1225 N 0.77387 0.67868 0.43679 0.0
N1226 N 0.82105 0.71646 0.42675 0.0
C1227 C 0.79662 0.72591 0.41552 0.0
C1228 C 0.77097 0.70535 0.4209 0.0
C1229 C 0.91464 0.45816 0.82819 0.0
C1230 C 0.9138 0.48885 0.84826 0.0
C1231 C 0.897 0.42702 0.83072 0.0
C1232 C 0.87786 0.42387 0.85458 0.0
H1233 H 0.92966 0.45807 0.81056 0.0
H1234 H 0.89926 0.40487 0.81458 0.0
S1235 S 0.86706 0.49595 0.91414 0.0
N1236 N 0.8913 0.51329 0.89293 0.0
N1237 N 0.85936 0.45571 0.89868 0.0
C1238 C 0.87667 0.45441 0.87475 0.0
C1239 C 0.89417 0.48631 0.87143 0.0
C1240 C 0.13812 0.96547 0.19503 0.0
C1241 C 0.13074 0.93298 0.17507 0.0
C1242 C 0.13365 0.99364 0.17954 0.0
C1243 C 0.12081 0.99084 0.14339 0.0
H1244 H 0.14714 0.96919 0.22316 0.0
H1245 H 0.13915 1.01765 0.19652 0.0
S1246 S 0.09785 0.91199 0.07878 0.0
N1247 N 0.11072 0.90051 0.11627 0.0
N1248 N 0.10141 0.95254 0.08801 0.0
C1249 C 0.11366 0.95863 0.12308 0.0
C1250 C 0.11886 0.93012 0.13858 0.0
C1251 C 0.93482 0.32524 0.97319 0.0
C1252 C 0.95346 0.30432 0.96672 0.0
C1253 C 0.91005 0.3245 0.94817 0.0
C1254 C 0.90215 0.30217 0.91572 0.0
H1255 H 0.93961 0.34283 0.99774 0.0
H1256 H 0.89687 0.34147 0.95446 0.0
S1257 S 0.94289 0.24126 0.88586 0.0
N1258 N 0.96187 0.26047 0.92503 0.0
N1259 N 0.91521 0.25812 0.87889 0.0
C1260 C 0.92039 0.28078 0.90911 0.0
C1261 C 0.94597 0.28211 0.93424 0.0
C1262 C 0.63428 0.23133 0.64242 0.0
C1263 C 0.61826 0.24883 0.66183 0.0
C1264 C 0.6265 0.19651 0.63207 0.0
C1265 C 0.60196 0.17708 0.64001 0.0
H1266 H 0.65331 0.24466 0.63521 0.0
H1267 H 0.63985 0.1848 0.61734 0.0
S1268 S 0.55214 0.21026 0.69005 0.0
N1269 N 0.57648 0.24357 0.68865 0.0
N1270 N 0.56155 0.17856 0.66887 0.0
C1271 C 0.58562 0.19422 0.65938 0.0
C1272 C 0.59383 0.22978 0.67039 0.0
C1273 C 0.6129 0.79638 0.43277 0.0
C1274 C 0.614 0.80765 0.46909 0.0
C1275 C 0.63756 0.80101 0.41781 0.0
C1276 C 0.6646 0.81702 0.43841 0.0
H1277 H 0.59272 0.78437 0.41551 0.0
H1278 H 0.63537 0.79208 0.38969 0.0
S1279 S 0.67936 0.85159 0.53482 0.0
N1280 N 0.64485 0.8355 0.52533 0.0
N1281 N 0.69064 0.84449 0.49724 0.0
C1282 C 0.66604 0.82797 0.47486 0.0
C1283 C 0.64098 0.82325 0.49011 0.0
C1284 C 0.05092 0.24953 0.43417 0.0
C1285 C 1.02779 0.26437 0.43587 0.0
C1286 C 0.0515 0.22011 0.44758 0.0
C1287 C 1.0289 0.20521 0.46263 0.0
H1288 H 0.07039 0.26321 0.42823 0.0
H1289 H 0.07151 0.21258 0.45167 0.0
S1290 S 0.95831 0.22532 0.45473 0.0
N1291 N 0.97811 0.25586 0.44037 0.0
N1292 N 0.97889 0.1996 0.46456 0.0
C1293 C 1.00314 0.21514 0.45538 0.0
C1294 C 1.00271 0.24538 0.44239 0.0
C1295 C 0.70756 0.32401 0.29523 0.0
C1296 C 0.69344 0.29306 0.27504 0.0
C1297 C 0.73664 0.33098 0.30887 0.0
C1298 C 0.75278 0.30718 0.30332 0.0
H1299 H 0.69648 0.3439 0.2982 0.0
H1300 H 0.74652 0.35562 0.32315 0.0
S1301 S 0.72439 0.22017 0.25766 0.0
N1302 N 0.69655 0.23704 0.25317 0.0
N1303 N 0.75146 0.24967 0.28042 0.0
C1304 C 0.73836 0.27505 0.28586 0.0
C1305 C 0.70861 0.26814 0.27122 0.0
C1306 C 0.57907 0.94023 0.06219 0.0
C1307 C 0.59911 0.94081 0.03985 0.0
C1308 C 0.58239 0.96598 0.09081 0.0
C1309 C 0.60616 0.99273 0.09856 0.0
H1310 H 0.55988 0.92076 0.05642 0.0
H1311 H 0.56536 0.96606 0.10544 0.0
S1312 S 0.66749 1.00229 0.05305 0.0
N1313 N 0.64538 0.96795 0.03058 0.0
N1314 N 0.6519 1.01599 0.08487 0.0
C1315 C 0.62753 0.99202 0.07849 0.0
C1316 C 0.62392 0.96619 0.04894 0.0
C1317 C 0.04298 0.79591 0.84055 0.0
C1318 C 1.04212 0.79153 0.80364 0.0
C1319 C 1.02082 0.80596 0.85498 0.0
C1320 C 0.99701 0.81202 0.83304 0.0
H1321 H 0.06169 0.79376 0.85855 0.0
H1322 H 1.02276 0.80998 0.88361 0.0
S1323 S 0.98397 0.80165 0.73425 0.0
N1324 N 1.01453 0.79126 0.74534 0.0
N1325 N 0.97387 0.81148 0.7721 0.0
C1326 C 0.99542 0.80603 0.79594 0.0
C1327 C 1.01767 0.7954 0.78139 0.0
C1328 C 0.17145 0.08801 0.99822 0.0
C1329 C 0.16246 0.11118 0.97789 0.0
C1330 C 0.1569 0.07631 0.02434 0.0
C1331 C 0.13323 0.08791 0.03191 0.0
H1332 H 0.18915 0.07761 0.99291 0.0
H1333 H 0.16396 0.05762 0.03829 0.0
S1334 S 0.10186 0.14982 0.98817 0.0
N1335 N 0.12868 0.14595 0.96834 0.0
N1336 N 0.10196 0.12472 1.01795 0.0
C1337 C 0.12466 0.11199 1.01291 0.0
C1338 C 0.13911 0.12343 0.98582 0.0
C1339 C 0.75041 0.34622 0.60269 0.0
C1340 C 0.76 0.37965 0.59945 0.0
C1341 C 0.76116 0.33385 0.6327 0.0
C1342 C 0.7818 0.35448 0.66046 0.0
H1343 H 0.73603 0.32894 0.58082 0.0
H1344 H 0.75439 0.30759 0.63336 0.0
S1345 S 0.81075 0.44487 0.66751 0.0
N1346 N 0.78856 0.43411 0.62877 0.0
N1347 N 0.80912 0.41057 0.68487 0.0
C1348 C 0.78954 0.38855 0.65917 0.0
C1349 C 0.77843 0.40126 0.62873 0.0
C1350 C 0.52963 0.09501 0.44678 0.0
C1351 C 0.50052 0.09456 0.44589 0.0
C1352 C 0.54862 0.09122 0.47754 0.0
C1353 C 0.54044 0.08629 0.5105 0.0
H1354 H 0.53822 0.09853 0.4231 0.0
H1355 H 0.57043 0.09211 0.47515 0.0
S1356 S 0.46622 0.08117 0.52377 0.0
N1357 N 0.46441 0.08778 0.48225 0.0
N1358 N 0.49955 0.08027 0.53906 0.0
C1359 C 0.51122 0.08541 0.51023 0.0
C1360 C 0.49168 0.0896 0.47859 0.0
C1361 C 0.82607 0.76348 0.20464 0.0
C1362 C 0.79983 0.76497 0.18467 0.0
C1363 C 0.83369 0.77633 0.24126 0.0
C1364 C 0.81514 0.79062 0.25929 0.0
H1365 H 0.84114 0.75324 0.19171 0.0
H1366 H 0.85428 0.77501 0.25549 0.0
S1367 S 0.74301 0.79829 0.21907 0.0
N1368 N 0.75474 0.78039 0.18573 0.0
N1369 N 0.7688 0.80423 0.25413 0.0
C1370 C 0.78849 0.79135 0.23961 0.0
C1371 C 0.78092 0.7786 0.20245 0.0
C1372 C 0.12466 0.13548 0.77105 0.0
C1373 C 0.1415 0.11635 0.78827 0.0
C1374 C 0.11417 0.12823 0.73417 0.0
C1375 C 0.11977 0.10133 0.71268 0.0
H1376 H 0.11956 0.15644 0.78611 0.0
H1377 H 0.10122 0.14376 0.72253 0.0
S1378 S 0.16322 0.04361 0.74405 0.0
N1379 N 0.16353 0.06923 0.78045 0.0
N1380 N 0.14385 0.05582 0.71136 0.0
C1381 C 0.1366 0.08196 0.72941 0.0
C1382 C 0.14745 0.08942 0.76703 0.0
C1383 C 0.79589 0.42812 0.42713 0.0
C1384 C 0.76807 0.41479 0.43122 0.0
C1385 C 0.81204 0.40755 0.41274 0.0
C1386 C 0.80084 0.37323 0.40236 0.0
H1387 H 0.80633 0.45359 0.43863 0.0
H1388 H 0.83402 0.4181 0.41234 0.0
S1389 S 0.72673 0.32843 0.39916 0.0
N1390 N 0.72814 0.3671 0.41654 0.0
N1391 N 0.75873 0.32813 0.39123 0.0
C1392 C 0.77205 0.36058 0.40244 0.0
C1393 C 0.75548 0.38163 0.41603 0.0
C1394 C 0.49044 0.06449 0.22208 0.0
C1395 C 0.50121 0.08738 0.25474 0.0
C1396 C 0.5064 0.06053 0.19372 0.0
C1397 C 0.53513 0.07803 0.19595 0.0
H1398 H 0.46965 0.04823 0.21878 0.0
H1399 H 0.49623 0.04243 0.17015 0.0
S1400 S 0.57467 0.14072 0.2754 0.0
N1401 N 0.54358 0.12768 0.28618 0.0
N1402 N 0.5728 0.12011 0.23536 0.0
C1403 C 0.54598 0.101 0.2284 0.0
C1404 C 0.52958 0.10543 0.25671 0.0
C1405 C 0.80376 0.78962 1.00518 0.0
C1406 C 0.79884 0.75458 0.99897 0.0
C1407 C 0.81247 0.8089 0.97974 0.0
C1408 C 0.81644 0.79404 0.94674 0.0
H1409 H 0.80164 0.80251 0.03041 0.0
H1410 H 0.81648 0.83567 0.98622 0.0
S1411 S 0.80552 0.70323 0.91632 0.0
N1412 N 0.79788 0.70599 0.95648 0.0
N1413 N 0.8141 0.74175 0.90899 0.0
C1414 C 0.81084 0.75897 0.93976 0.0
C1415 C 0.80208 0.7394 0.9657 0.0
C1416 C 0.96696 0.12405 0.17977 0.0
C1417 C 0.9384 0.12313 0.18134 0.0
C1418 C 0.97457 0.09779 0.16037 0.0
C1419 C 0.95398 0.06964 0.1422 0.0
H1420 H 0.9833 0.1462 0.19139 0.0
H1421 H 0.99642 0.10059 0.15726 0.0
S1422 S 0.87684 0.05323 0.14056 0.0
N1423 N 0.88966 0.09028 0.16526 0.0
N1424 N 0.90443 0.04087 0.12883 0.0
C1425 C 0.9257 0.06722 0.14544 0.0
C1426 C 0.91782 0.09393 0.16531 0.0
C1427 C 0.46683 0.51959 0.15435 0.0
C1428 C 0.45879 0.48865 0.13159 0.0
C1429 C 0.49205 0.5429 0.15376 0.0
C1430 C 0.51018 0.53654 0.13009 0.0
H1431 H 0.45371 0.52575 0.17301 0.0
H1432 H 0.49719 0.56631 0.17181 0.0
S1433 S 0.4983 0.4602 0.06355 0.0
N1434 N 0.47104 0.45361 0.08377 0.0
N1435 N 0.51769 0.49723 0.08267 0.0
C1436 C 0.50226 0.50589 0.10703 0.0
C1437 C 0.47683 0.4821 0.10776 0.0
C1438 C 0.47631 0.65216 0.8559 0.0
C1439 C 0.46162 0.62593 0.82825 0.0
C1440 C 0.46469 0.67955 0.86459 0.0
C1441 C 0.43836 0.68158 0.8455 0.0
H1442 H 0.49581 0.65041 0.87259 0.0
H1443 H 0.47548 0.69816 0.88752 0.0
S1444 S 0.39347 0.62228 0.76795 0.0
N1445 N 0.42074 0.60574 0.77971 0.0
N1446 N 0.3994 0.65749 0.79583 0.0
C1447 C 0.42469 0.65705 0.81614 0.0
C1448 C 0.43623 0.62912 0.80751 0.0
C1449 C 0.30666 0.71414 0.67835 0.0
C1450 C 0.32817 0.69713 0.67402 0.0
C1451 C 0.27895 0.69682 0.67816 0.0
C1452 C 0.27171 0.6619 0.67334 0.0
H1453 H 0.31136 0.74102 0.68274 0.0
H1454 H 0.26307 0.71088 0.682 0.0
S1455 S 0.31963 0.60537 0.65928 0.0
N1456 N 0.33977 0.64295 0.66312 0.0
N1457 N 0.28791 0.61088 0.66355 0.0
C1458 C 0.29274 0.64455 0.66814 0.0
C1459 C 0.3209 0.66204 0.66831 0.0
C1460 C 0.78173 0.9655 0.86573 0.0
C1461 C 0.75345 0.96252 0.87269 0.0
C1462 C 0.79713 0.9388 0.86507 0.0
C1463 C 0.78605 0.90579 0.87109 0.0
H1464 H 0.7925 0.98921 0.86058 0.0
H1465 H 0.81825 0.94429 0.85922 0.0
S1466 S 0.71412 0.88338 0.89402 0.0
N1467 N 0.71633 0.92219 0.88796 0.0
N1468 N 0.74393 0.87381 0.88649 0.0
C1469 C 0.75792 0.9026 0.87851 0.0
C1470 C 0.74232 0.92989 0.87939 0.0
C1471 C 0.77725 0.9637 0.62036 0.0
C1472 C 0.80414 0.98384 0.63693 0.0
C1473 C 0.75289 0.97685 0.61458 0.0
C1474 C 0.75409 1.01078 0.62535 0.0
H1475 H 0.77501 0.93753 0.611 0.0
H1476 H 0.7329 0.96024 0.60133 0.0
S1477 S 0.81907 0.07442 0.67031 0.0
N1478 N 0.8302 0.03969 0.66454 0.0
N1479 N 0.78467 0.06425 0.65363 0.0
C1480 C 0.78071 1.03111 0.64262 0.0
C1481 C 0.80558 1.01773 0.64838 0.0
C1482 C 0.42195 0.41184 0.82169 0.0
C1483 C 0.42667 0.44644 0.83179 0.0
C1484 C 0.3969 0.39039 0.82568 0.0
C1485 C 0.3761 0.40243 0.8411 0.0
H1486 H 0.43762 0.40127 0.81041 0.0
H1487 H 0.39381 0.36409 0.81689 0.0
S1488 S 0.37859 0.49091 0.87293 0.0
N1489 N 0.40825 0.49177 0.85774 0.0
N1490 N 0.36201 0.45141 0.86651 0.0
C1491 C 0.38055 0.43697 0.85124 0.0
C1492 C 0.40564 0.45891 0.84636 0.0
C1493 C 0.26539 0.66065 0.35146 0.0
C1494 C 0.2523 0.65555 0.38111 0.0
C1495 C 0.28208 0.69238 0.34825 0.0
C1496 C 0.28706 0.72126 0.37455 0.0
H1497 H 0.2617 0.64027 0.32963 0.0
H1498 H 0.29075 0.69434 0.32439 0.0
S1499 S 0.25895 0.72161 0.45852 0.0
N1500 N 0.24651 0.68298 0.43772 0.0
N1501 N 0.27772 0.7409 0.43242 0.0
C1502 C 0.27474 0.71604 0.40475 0.0
C1503 C 0.25753 0.68401 0.40773 0.0
C1504 C 0.54631 0.69202 0.53686 0.0
C1505 C 0.54604 0.71958 0.56221 0.0
C1506 C 0.55263 0.6623 0.54719 0.0
C1507 C 0.55981 0.65902 0.58336 0.0
H1508 H 0.54139 0.69328 0.50878 0.0
H1509 H 0.55286 0.64218 0.52665 0.0
S1510 S 0.56217 0.72311 0.66043 0.0
N1511 N 0.55311 0.74049 0.62554 0.0
N1512 N 0.5658 0.68597 0.64431 0.0
C1513 C 0.55954 0.68624 0.60877 0.0
C1514 C 0.55249 0.716 0.59842 0.0
C1515 C 0.72701 0.37461 0.79151 0.0
C1516 C 0.71717 0.3513 0.75989 0.0
C1517 C 0.75059 0.37254 0.81712 0.0
C1518 C 0.7649 0.34646 0.81298 0.0
H1519 H 0.71678 0.395 0.79619 0.0
H1520 H 0.75753 0.39156 0.84058 0.0
S1521 S 0.74595 0.27749 0.73613 0.0
N1522 N 0.7233 0.30089 0.72629 0.0
N1523 N 0.76577 0.29566 0.77521 0.0
C1524 C 0.75456 0.32244 0.78195 0.0
C1525 C 0.73127 0.32522 0.75531 0.0
C1526 C 1.02777 0.41617 0.03958 0.0
C1527 C 0.04699 0.39683 0.05068 0.0
C1528 C 1.03291 0.45045 0.05325 0.0
C1529 C 0.05803 0.46711 0.07759 0.0
H1530 H 1.00877 0.4048 1.01976 0.0
H1531 H 1.01768 0.4643 0.04345 0.0
S1532 S 0.1152 0.42784 0.11514 0.0
N1533 N 0.09178 0.3969 0.08825 0.0
N1534 N 0.10203 0.46109 0.11262 0.0
C1535 C 0.07726 0.4479 0.08906 0.0
C1536 C 0.07161 0.41291 0.07596 0.0
C1537 C 0.05792 0.82504 0.28763 0.0
C1538 C 0.05722 0.83628 0.25466 0.0
C1539 C 1.03363 0.81905 0.30309 0.0
C1540 C 1.0074 0.82433 0.2866 0.0
H1541 H 0.07744 0.82065 0.30174 0.0
H1542 H 1.03555 0.81052 0.3285 0.0
S1543 S 0.99378 0.85347 0.19986 0.0
N1544 N 1.02767 0.85234 0.20594 0.0
N1545 N 0.98229 0.8412 0.23493 0.0
C1546 C 1.00638 0.83571 0.25368 0.0
C1547 C 1.03111 0.84157 0.23775 0.0
C1548 C 0.66258 0.38921 0.21961 0.0
C1549 C 0.6503 0.38517 0.24959 0.0
C1550 C 0.66861 0.42024 0.20914 0.0
C1551 C 0.66161 0.44755 0.22794 0.0
H1552 H 0.66432 0.36783 0.20176 0.0
H1553 H 0.67388 0.42124 0.18308 0.0
S1554 S 0.64192 0.45243 0.31656 0.0
N1555 N 0.64117 0.41277 0.30449 0.0
N1556 N 0.65202 0.47129 0.28417 0.0
C1557 C 0.65598 0.44526 0.26216 0.0
C1558 C 0.65001 0.41366 0.27303 0.0
C1559 C 0.97468 0.35957 0.38619 0.0
C1560 C 0.98822 0.38849 0.4107 0.0
C1561 C 0.94565 0.35308 0.37205 0.0
C1562 C 0.92918 0.37573 0.38085 0.0
H1563 H 0.986 0.34045 0.38016 0.0
H1564 H 0.9359 0.32952 0.35498 0.0
S1565 S 0.95568 0.45729 0.43993 0.0
N1566 N 0.98386 0.4412 0.44115 0.0
N1567 N 0.92928 0.42992 0.41275 0.0
C1568 C 0.94296 0.40604 0.40302 0.0
C1569 C 0.9725 0.41218 0.41839 0.0
C1570 C 0.09253 0.72761 0.64081 0.0
C1571 C 0.09893 0.7309 0.67817 0.0
C1572 C 0.08873 0.69684 0.61899 0.0
C1573 C 0.09145 0.66824 0.63367 0.0
H1574 H 0.09075 0.74908 0.62829 0.0
H1575 H 0.08371 0.69552 0.5904 0.0
S1576 S 0.10981 0.66426 0.73003 0.0
N1577 N 0.10894 0.70337 0.72884 0.0
N1578 N 0.10156 0.64559 0.68819 0.0
C1579 C 0.09789 0.67129 0.67105 0.0
C1580 C 0.10161 0.70257 0.6932 0.0
C1581 C 0.62831 0.83857 0.87376 0.0
C1582 C 0.63193 0.84235 0.91116 0.0
C1583 C 0.64497 0.82165 0.85514 0.0
C1584 C 0.66561 0.80745 0.87316 0.0
H1585 H 0.6123 0.84849 0.85863 0.0
H1586 H 0.64149 0.81935 0.82643 0.0
S1587 S 0.68538 0.81266 0.97096 0.0
N1588 N 0.65915 0.83198 0.9655 0.0
N1589 N 0.69015 0.80026 0.93057 0.0
C1590 C 0.66982 0.81158 0.91051 0.0
C1591 C 0.65311 0.82902 0.92947 0.0
C1592 C 0.52073 0.57021 0.731 0.0
C1593 C 0.52023 0.53775 0.73805 0.0
C1594 C 0.53422 0.58252 0.70428 0.0
C1595 C 0.5471 0.56266 0.68279 0.0
H1596 H 0.512 0.5869 0.74752 0.0
H1597 H 0.53537 0.60816 0.70121 0.0
S1598 S 0.54832 0.47448 0.68709 0.0
N1599 N 0.5318 0.48517 0.71916 0.0
N1600 N 0.55599 0.5077 0.66834 0.0
C1601 C 0.54497 0.52944 0.68792 0.0
C1602 C 0.53187 0.51718 0.71566 0.0
C1603 C 0.90689 0.27255 0.1127 0.0
C1604 C 0.89733 0.238 0.11024 0.0
C1605 C 0.89292 0.29019 0.08996 0.0
C1606 C 0.86909 0.27382 0.06383 0.0
H1607 H 0.92511 0.2862 0.13266 0.0
H1608 H 0.90104 0.31671 0.09247 0.0
S1609 S 0.83519 0.18406 0.04621 0.0
N1610 N 0.86223 0.18823 0.0794 0.0
N1611 N 0.83624 0.22163 0.03651 0.0
C1612 C 0.85941 0.23939 0.06071 0.0
C1613 C 0.87352 0.22138 0.08389 0.0
C1614 C 0.16606 0.56847 0.242 0.0
C1615 C 0.15878 0.54474 0.26452 0.0
C1616 C 0.1471 0.57147 0.21031 0.0
C1617 C 0.11894 0.55172 0.19941 0.0
H1618 H 0.18607 0.5866 0.25026 0.0
H1619 H 0.15395 0.59117 0.19578 0.0
S1620 S 0.08836 0.48552 0.2475 0.0
N1621 N 0.12065 0.50064 0.27146 0.0
N1622 N 0.08568 0.50655 0.21416 0.0
C1623 C 0.11177 0.52741 0.22103 0.0
C1624 C 0.13121 0.52395 0.25263 0.0
C1625 C 0.85832 0.86822 0.54033 0.0
C1626 C 0.87043 0.90262 0.5471 0.0
C1627 C 0.85372 0.84965 0.50606 0.0
C1628 C 0.86192 0.86468 0.47779 0.0
H1629 H 0.85123 0.8558 0.5613 0.0
H1630 H 0.84327 0.82356 0.50151 0.0
S1631 S 0.89587 0.95322 0.48168 0.0
N1632 N 0.89128 0.95055 0.52273 0.0
N1633 N 0.88335 0.91542 0.45864 0.0
C1634 C 0.87493 0.89867 0.4844 0.0
C1635 C 0.87905 0.91772 0.51902 0.0
C1636 C 0.5062 0.56336 0.95007 0.0
C1637 C 0.51367 0.54172 0.92406 0.0
C1638 C 0.52077 0.57022 0.98544 0.0
C1639 C 0.5432 0.55533 0.99683 0.0
H1640 H 0.48928 0.57585 0.94298 0.0
H1641 H 0.51414 0.58731 1.00411 0.0
S1642 S 0.57062 0.4958 0.93975 0.0
N1643 N 0.54487 0.50499 0.91224 0.0
N1644 N 0.57184 0.51716 0.97929 0.0
C1645 C 0.55059 0.53301 0.97139 0.0
C1646 C 0.536 0.52647 0.93492 0.0
C1647 C 0.89199 0.25681 0.27127 0.0
C1648 C 0.91974 0.27036 0.26688 0.0
C1649 C 0.87372 0.27739 0.2794 0.0
C1650 C 0.88266 0.31211 0.28376 0.0
H1651 H 0.88366 0.2302 0.26623 0.0
H1652 H 0.85214 0.266 0.2808 0.0
S1653 S 0.95478 0.35982 0.28127 0.0
N1654 N 0.95635 0.32058 0.27238 0.0
N1655 N 0.92208 0.35914 0.287 0.0
C1656 C 0.91091 0.3259 0.28185 0.0
C1657 C 0.9295 0.30505 0.27401 0.0
C1658 C 0.14617 0.56759 0.45367 0.0
C1659 C 0.17413 0.56156 0.46009 0.0
C1660 C 0.1303 0.5742 0.48131 0.0
C1661 C 0.14071 0.57545 0.51835 0.0
H1662 H 0.13601 0.56701 0.42645 0.0
H1663 H 0.1092 0.5781 0.4732 0.0
S1664 S 0.21258 0.56119 0.55161 0.0
N1665 N 0.21104 0.55749 0.50822 0.0
N1666 N 0.18216 0.56928 0.55866 0.0
C1667 C 0.16872 0.56952 0.52516 0.0
C1668 C 0.18491 0.56285 0.49693 0.0
C1669 C 0.87958 0.87446 0.74607 0.0
C1670 C 0.86533 0.89511 0.72727 0.0
C1671 C 0.86781 0.85731 0.77119 0.0
C1672 C 0.84103 0.85957 0.77836 0.0
H1673 H 0.89971 0.87057 0.74047 0.0
H1674 H 0.87924 0.84097 0.78382 0.0
S1675 S 0.79575 0.9122 0.73897 0.0
N1676 N 0.82361 0.91843 0.71969 0.0
N1677 N 0.80141 0.886 0.76653 0.0
C1678 C 0.82705 0.88121 0.76102 0.0
C1679 C 0.83923 0.89907 0.7357 0.0
C1680 C 0.76277 0.5385 0.59237 0.0
C1681 C 0.74187 0.51144 0.57186 0.0
C1682 C 0.75604 0.56109 0.6177 0.0
C1683 C 0.72827 0.55709 0.6237 0.0
H1684 H 0.78467 0.54211 0.58921 0.0
H1685 H 0.77267 0.58157 0.63296 0.0
S1686 S 0.66533 0.49222 0.57547 0.0
N1687 N 0.69193 0.48314 0.55804 0.0
N1688 N 0.67926 0.52572 0.60579 0.0
C1689 C 0.70698 0.53077 0.60281 0.0
C1690 C 0.71377 0.50793 0.57678 0.0
C1691 C 0.17632 0.17214 0.5641 0.0
C1692 C 0.2035 0.16501 0.56504 0.0
C1693 C 0.15265 0.14849 0.56896 0.0
C1694 C 0.15496 0.11662 0.57534 0.0
H1695 H 0.17325 0.19642 0.55991 0.0
H1696 H 0.13245 0.15522 0.56722 0.0
S1697 S 0.2207 0.08435 0.57901 0.0
N1698 N 0.23051 0.12266 0.57162 0.0
N1699 N 0.18679 0.07892 0.58105 0.0
C1700 C 0.18183 0.10894 0.57552 0.0
C1701 C 0.20579 0.13284 0.5704 0.0
C1702 C 0.2041 1.01179 0.8387 0.0
C1703 C 0.20514 1.02833 0.87302 0.0
C1704 C 0.22326 0.99189 0.83269 0.0
C1705 C 0.24433 0.98879 0.86074 0.0
H1706 H 0.19029 1.01669 0.81606 0.0
H1707 H 0.2233 0.98154 0.80555 0.0
S1708 S 0.25347 1.02485 0.95589 0.0
N1709 N 0.22641 0.0378 0.93566 0.0
N1710 N 0.26308 1.00139 0.92445 0.0
C1711 C 0.24387 1.00311 0.89552 0.0
C1712 C 0.22401 1.02263 0.90164 0.0
C1713 C 0.36303 0.90108 1.01693 0.0
C1714 C 0.34395 0.9193 1.00307 0.0
C1715 C 0.39241 0.91465 0.02409 0.0
C1716 C 0.40339 0.94654 1.01701 0.0
H1717 H 0.35521 0.87715 0.02417 0.0
H1718 H 0.4065 0.90072 0.03659 0.0
S1719 S 0.36224 1.00113 0.97408 0.0
N1720 N 0.33811 0.9692 0.97915 0.0
N1721 N 0.39311 0.99336 0.98998 0.0
C1722 C 0.38452 0.9636 1.00035 0.0
C1723 C 0.35482 0.95031 0.99405 0.0
C1724 C 0.92296 0.71303 0.85928 0.0
C1725 C 0.91079 0.67886 0.84415 0.0
C1726 C 0.90698 0.73908 0.8609 0.0
C1727 C 0.87704 0.73415 0.84729 0.0
H1728 H 0.94544 0.72002 0.87062 0.0
H1729 H 0.91864 0.76383 0.87343 0.0
S1730 S 0.8332 0.64998 0.80471 0.0
N1731 N 0.86519 0.64282 0.81529 0.0
N1732 N 0.83648 0.69006 0.81786 0.0
C1733 C 0.86464 0.70015 0.83198 0.0
C1734 C 0.88084 0.67354 0.83057 0.0
C1735 C 0.88683 0.68693 0.09072 0.0
C1736 C 0.86007 0.67154 0.09689 0.0
C1737 C 0.91014 0.67171 0.0951 0.0
C1738 C 0.90784 0.64036 0.10587 0.0
H1739 H 0.88977 0.7108 0.08193 0.0
H1740 H 0.93003 0.68443 0.08939 0.0
S1741 S 0.84325 0.59075 0.12862 0.0
N1742 N 0.83327 0.62368 0.11618 0.0
N1743 N 0.87684 0.59565 0.125 0.0
C1744 C 0.88137 0.62509 0.11293 0.0
C1745 C 0.85764 0.64049 0.10832 0.0
C1746 C 0.25225 0.24215 0.91113 0.0
C1747 C 0.24522 0.20779 0.89822 0.0
C1748 C 0.27763 0.26267 0.90664 0.0
C1749 C 0.29689 0.24977 0.8887 0.0
H1750 H 0.23802 0.25333 0.92477 0.0
H1751 H 0.28203 0.28895 0.91702 0.0
S1752 S 0.28895 0.1616 0.84993 0.0
N1753 N 0.26026 0.16188 0.86695 0.0
N1754 N 0.30739 0.20041 0.85849 0.0
C1755 C 0.29038 0.21549 0.87613 0.0
C1756 C 0.26473 0.19456 0.88086 0.0
C1757 C 0.4041 0.98269 0.3839 0.0
C1758 C 0.41453 0.98973 0.35288 0.0
C1759 C 0.38676 0.95109 0.38591 0.0
C1760 C 0.37879 0.92396 0.35718 0.0
H1761 H 0.41019 1.00155 0.4075 0.0
H1762 H 0.3801 0.94773 0.41082 0.0
S1763 S 0.40046 0.92848 0.26952 0.0
N1764 N 0.41534 0.96584 0.29265 0.0
N1765 N 0.38321 0.90771 0.29601 0.0
C1766 C 0.38885 0.93091 0.32583 0.0
C1767 C 0.40652 0.96308 0.32388 0.0
C1768 C 0.6211 0.43046 0.64203 0.0
C1769 C 0.6325 0.43262 0.67855 0.0
C1770 C 0.61599 0.45866 0.62717 0.0
C1771 C 0.62277 0.49087 0.64765 0.0
H1772 H 0.615 0.4065 0.6249 0.0
H1773 H 0.60629 0.45505 0.59927 0.0
S1774 S 0.65345 0.51072 0.74447 0.0
N1775 N 0.65059 0.47033 0.73468 0.0
N1776 N 0.6416 0.52268 0.70685 0.0
C1777 C 0.63487 0.49349 0.68395 0.0
C1778 C 0.63956 0.46471 0.69926 0.0
C1779 C 0.44583 0.78173 0.4339 0.0
C1780 C 0.45483 0.80477 0.46587 0.0
C1781 C 0.42039 0.78083 0.40976 0.0
C1782 C 0.40309 0.80353 0.41583 0.0
H1783 H 0.45819 0.76374 0.42781 0.0
H1784 H 0.41434 0.76223 0.38594 0.0
S1785 S 0.41783 0.87013 0.49443 0.0
N1786 N 0.44413 0.85117 0.50178 0.0
N1787 N 0.39803 0.85072 0.45581 0.0
C1788 C 0.41235 0.82719 0.44719 0.0
C1789 C 0.43764 0.82747 0.47224 0.0
C1790 C 0.094 0.73139 0.16621 0.0
C1791 C 0.11955 0.75067 0.16055 0.0
C1792 C 0.08607 0.69647 0.15494 0.0
C1793 C 0.10349 0.679 0.13794 0.0
H1794 H 0.07969 0.74343 0.17876 0.0
H1795 H 0.06606 0.68309 0.1597 0.0
S1796 S 0.1736 0.71754 0.11885 0.0
N1797 N 0.16279 0.74905 0.13798 0.0
N1798 N 0.14823 0.68443 0.11734 0.0
C1799 C 0.12938 0.69805 0.1329 0.0
C1800 C 0.13727 0.73344 0.14402 0.0
C1801 C 0.13762 0.32331 0.98516 0.0
C1802 C 0.11024 0.30785 0.9653 0.0
C1803 C 0.16188 0.32638 0.96953 0.0
C1804 C 0.16001 0.31396 0.93331 0.0
H1805 H 0.1404 0.33356 1.01303 0.0
H1806 H 0.18234 0.33856 0.98606 0.0
S1807 S 0.0934 0.27183 0.86915 0.0
N1808 N 0.08291 0.28006 0.90711 0.0
N1809 N 0.12816 0.28609 0.87787 0.0
C1810 C 0.13279 0.29825 0.91319 0.0
C1811 C 0.10808 0.29516 0.92909 0.0
C1812 C 0.54732 0.75996 0.94865 0.0
C1813 C 0.52654 0.77845 0.95049 0.0
C1814 C 0.54309 0.72836 0.958 0.0
C1815 C 0.51795 0.7147 0.9692 0.0
H1816 H 0.5684 0.77163 0.94544 0.0
H1817 H 0.56131 0.71734 0.9618 0.0
S1818 S 0.45248 0.74672 0.95986 0.0
N1819 N 0.47683 0.77664 0.95119 0.0
N1820 N 0.46843 0.71629 0.96742 0.0
C1821 C 0.49484 0.72967 0.96237 0.0
C1822 C 0.49932 0.7621 0.95352 0.0
C1823 C 0.21904 0.83924 0.81717 0.0
C1824 C 0.20246 0.8089 0.79805 0.0
C1825 C 0.24843 0.8443 0.82647 0.0
C1826 C 0.26255 0.819 0.81784 0.0
H1827 H 0.20945 0.86011 0.82263 0.0
H1828 H 0.26017 0.86868 0.84008 0.0
S1829 S 0.22815 0.73416 0.76944 0.0
N1830 N 0.20159 0.75277 0.77125 0.0
N1831 N 0.25721 0.76165 0.79067 0.0
C1832 C 0.24598 0.78776 0.80055 0.0
C1833 C 0.21584 0.78287 0.79021 0.0
C1834 C 0.0881 0.43172 0.54658 0.0
C1835 C 0.08394 0.43442 0.51017 0.0
C1836 C 0.08813 0.4586 0.57279 0.0
C1837 C 0.0834 0.48881 0.56339 0.0
H1838 H 0.09195 0.40894 0.55489 0.0
H1839 H 0.09232 0.45587 0.60053 0.0
S1840 S 0.06774 0.50616 0.4706 0.0
N1841 N 0.07275 0.46817 0.4658 0.0
N1842 N 0.07225 0.51797 0.51386 0.0
C1843 C 0.07803 0.49084 0.52665 0.0
C1844 C 0.07845 0.46386 0.50035 0.0
C1845 C 0.51858 0.31393 0.26939 0.0
C1846 C 0.54085 0.30226 0.28777 0.0
C1847 C 0.49752 0.32335 0.2863 0.0
C1848 C 0.49786 0.32193 0.32256 0.0
H1849 H 0.51772 0.31664 0.24175 0.0
H1850 H 0.48129 0.33286 0.27102 0.0
S1851 S 0.55034 0.29118 0.38247 0.0
N1852 N 0.56108 0.28822 0.34408 0.0
N1853 N 0.52155 0.30614 0.37591 0.0
C1854 C 0.51951 0.30942 0.34112 0.0
C1855 C 0.54088 0.29943 0.32372 0.0
C1856 C 0.67226 0.58304 0.49751 0.0
C1857 C 0.66558 0.60931 0.48059 0.0
C1858 C 0.65866 0.57229 0.52477 0.0
C1859 C 0.63844 0.58794 0.53713 0.0
H1860 H 0.68714 0.56952 0.48847 0.0
H1861 H 0.66353 0.55101 0.53566 0.0
S1862 S 0.61496 0.65958 0.50396 0.0
N1863 N 0.63816 0.65159 0.47947 0.0
N1864 N 0.61351 0.63236 0.5315 0.0
C1865 C 0.63261 0.61531 0.52174 0.0
C1866 C 0.64592 0.62571 0.49331 0.0
C1867 C 0.25174 0.84384 0.10314 0.0
C1868 C 0.26014 0.87713 0.09863 0.0
C1869 C 0.26395 0.83271 0.13319 0.0
C1870 C 0.2847 0.85452 0.15985 0.0
H1871 H 0.23718 0.82568 0.08219 0.0
H1872 H 0.25811 0.80654 0.13478 0.0
S1873 S 0.3099 0.9452 0.16451 0.0
N1874 N 0.28715 0.93285 0.1263 0.0
N1875 N 0.31034 0.91154 0.18264 0.0
C1876 C 0.29107 0.88844 0.15764 0.0
C1877 C 0.27858 0.89989 0.12707 0.0
C1878 C 1.02658 0.5878 0.94174 0.0
C1879 C 0.99951 0.59466 0.94271 0.0
C1880 C 0.0456 0.58407 0.97249 0.0
C1881 C 1.03948 0.58661 1.00735 0.0
H1882 H 1.03355 0.58541 0.91655 0.0
H1883 H 0.06582 0.57913 0.96861 0.0
S1884 S 0.97178 0.60497 0.02676 0.0
N1885 N 0.96793 0.6042 0.98332 0.0
N1886 N 1.00319 0.59713 0.04027 0.0
C1887 C 1.01237 0.59334 1.00909 0.0
C1888 C 0.99279 0.59733 0.97739 0.0
C1889 C 0.32398 0.25484 0.70003 0.0
C1890 C 0.29708 0.25466 0.68059 0.0
C1891 C 0.33149 0.26712 0.73675 0.0
C1892 C 0.31225 0.27924 0.75547 0.0
H1893 H 0.33972 0.24678 0.68653 0.0
H1894 H 0.35277 0.26768 0.75036 0.0
S1895 S 0.23779 0.28 0.71697 0.0
N1896 N 0.25037 0.2649 0.68292 0.0
N1897 N 0.26409 0.28739 0.75167 0.0
C1898 C 0.28474 0.27744 0.73643 0.0
C1899 C 0.27728 0.26533 0.6991 0.0
C1900 C 0.64423 0.59978 0.27154 0.0
C1901 C 0.64056 0.6278 0.29328 0.0
C1902 C 0.63303 0.59276 0.23479 0.0
C1903 C 0.61791 0.61364 0.21782 0.0
H1904 H 0.65546 0.58264 0.28305 0.0
H1905 H 0.63625 0.57062 0.21963 0.0
S1906 S 0.60322 0.691 0.26221 0.0
N1907 N 0.62118 0.67705 0.29472 0.0
N1908 N 0.60042 0.66413 0.22583 0.0
C1909 C 0.61451 0.64211 0.23909 0.0
C1910 C 0.62569 0.64907 0.27667 0.0
C1911 C 0.2881 0.92351 0.92118 0.0
C1912 C 0.26221 0.90637 0.928 0.0
C1913 C 0.30854 0.90634 0.9123 0.0
C1914 C 0.30317 0.87162 0.90878 0.0
H1915 H 0.29402 0.95032 0.92686 0.0
H1916 H 0.32928 0.92046 0.91102 0.0
S1917 S 0.23412 0.81536 0.90998 0.0
N1918 N 0.22909 0.85307 0.92006 0.0
N1919 N 0.26719 0.82056 0.90406 0.0
C1920 C 0.27557 0.85424 0.90989 0.0
C1921 C 0.25486 0.87174 0.9184 0.0
C1922 C 0.98816 0.5794 0.71562 0.0
C1923 C 1.00221 0.58757 0.75228 0.0
C1924 C 1.00308 0.57563 0.68589 0.0
C1925 C 1.03325 0.57851 0.69007 0.0
H1926 H 0.96523 0.5747 0.7096 0.0
H1927 H 0.99049 0.56946 0.65918 0.0
S1928 S 0.08092 0.59949 0.77966 0.0
N1929 N 0.04936 0.59949 0.78908 0.0
N1930 N 0.07566 0.5902 0.73597 0.0
C1931 C 0.04716 0.58665 0.72649 0.0
C1932 C 1.03234 0.59157 0.75623 0.0
C1933 C 0.30545 0.2883 0.50247 0.0
C1934 C 0.29978 0.25322 0.49531 0.0
C1935 C 0.31402 0.308 0.47725 0.0
C1936 C 0.31712 0.29356 0.44357 0.0
H1937 H 0.30403 0.30081 0.52822 0.0
H1938 H 0.31865 0.33476 0.48441 0.0
S1939 S 0.30391 0.20286 0.4107 0.0
N1940 N 0.2971 0.20511 0.45125 0.0
N1941 N 0.3131 0.2416 0.40429 0.0
C1942 C 0.31079 0.25849 0.43575 0.0
C1943 C 0.30216 0.23852 0.46141 0.0
C1944 C 0.48237 0.64357 0.66679 0.0
C1945 C 0.45902 0.63792 0.6838 0.0
C1946 C 0.48838 0.61768 0.64488 0.0
C1947 C 0.47158 0.58525 0.6398 0.0
H1948 H 0.49452 0.66852 0.66762 0.0
H1949 H 0.50539 0.62337 0.63035 0.0
S1950 S 0.41308 0.55584 0.68565 0.0
N1951 N 0.4226 0.59632 0.6995 0.0
N1952 N 0.43438 0.54758 0.65848 0.0
C1953 C 0.45071 0.57843 0.66023 0.0
C1954 C 0.44439 0.60485 0.6824 0.0
C1955 C 0.98677 0.98167 0.62964 0.0
C1956 C 0.96169 0.99015 0.63765 0.0
C1957 C 1.01052 1.00579 0.62605 0.0
C1958 C 1.01046 0.03973 0.63007 0.0
H1959 H 0.98809 0.95582 0.62549 0.0
H1960 H 1.02872 0.99764 0.61975 0.0
S1961 S 0.95108 0.07603 0.65333 0.0
N1962 N 0.93922 0.03575 0.65111 0.0
N1963 N 0.98328 0.08071 0.64442 0.0
C1964 C 0.98586 0.0487 0.63916 0.0
C1965 C 0.96172 1.02418 0.6429 0.0
C1966 C 0.96645 0.14942 0.34337 0.0
C1967 C 0.9539 0.12119 0.31725 0.0
C1968 C 0.95217 0.17489 0.34943 0.0
C1969 C 0.92504 0.17283 0.32942 0.0
H1970 H 0.98633 0.15067 0.3611 0.0
H1971 H 0.96144 0.19496 0.37154 0.0
S1972 S 0.88579 0.1076 0.25334 0.0
N1973 N 0.91489 0.09528 0.26779 0.0
N1974 N 0.8883 0.14332 0.27893 0.0
C1975 C 0.91373 0.14653 0.30087 0.0
C1976 C 0.92812 0.12062 0.29482 0.0
C1977 C 0.81955 0.20327 0.20822 0.0
C1978 C 0.8304 0.22464 0.18596 0.0
C1979 C 0.7904 0.19034 0.20389 0.0
C1980 C 0.77106 0.19797 0.17684 0.0
H1981 H 0.83377 0.19588 0.22866 0.0
H1982 H 0.78299 0.17374 0.22148 0.0
S1983 S 0.78888 0.2531 0.11174 0.0
N1984 N 0.81984 0.25365 0.13656 0.0
N1985 N 0.76477 0.22882 0.12788 0.0
C1986 C 0.78156 0.22021 0.1551 0.0
C1987 C 0.81135 0.23368 0.15978 0.0
C1988 C 0.28141 0.46508 0.36447 0.0
C1989 C 0.25236 0.46137 0.36869 0.0
C1990 C 0.29692 0.43846 0.36385 0.0
C1991 C 0.28524 0.40473 0.36711 0.0
H1992 H 0.29277 0.48938 0.36159 0.0
H1993 H 0.3187 0.44467 0.36033 0.0
S1994 S 0.21054 0.37957 0.38086 0.0
N1995 N 0.21348 0.41915 0.3776 0.0
N1996 N 0.24127 0.37094 0.37609 0.0
C1997 C 0.25622 0.40069 0.37152 0.0
C1998 C 0.2405 0.42791 0.37243 0.0
C1999 C 0.30356 0.51862 0.14613 0.0
C2000 C 0.30136 0.48442 0.13571 0.0
C2001 C 0.27967 0.53268 0.14066 0.0
C2002 C 0.25236 0.51322 0.12468 0.0
H2003 H 0.32407 0.53492 0.15778 0.0
H2004 H 0.2827 0.55919 0.14868 0.0
S2005 S 0.23467 0.42223 0.09312 0.0
N2006 N 0.26912 0.43127 0.10939 0.0
N2007 N 0.22468 0.45768 0.09883 0.0
C2008 C 0.24972 0.47886 0.115 0.0
C2009 C 0.27402 0.46453 0.12054 0.0
C2010 C 0.9074 0.94081 0.3125 0.0
C2011 C 0.93378 0.94529 0.33568 0.0
C2012 C 0.88284 0.91903 0.3175 0.0
C2013 C 0.88363 0.90123 0.34611 0.0
H2014 H 0.9057 0.95422 0.29032 0.0
H2015 H 0.86309 0.91619 0.29888 0.0
S2016 S 0.9467 0.90686 0.41654 0.0
N2017 N 0.95868 0.93125 0.38934 0.0
N2018 N 0.91273 0.89171 0.39936 0.0
C2019 C 0.90975 0.9061 0.36981 0.0
C2020 C 0.93475 0.92772 0.36443 0.0
C2021 C 0.75184 0.18736 0.905 0.0
C2022 C 0.75152 0.15668 0.88387 0.0
C2023 C 0.769 0.21854 0.90166 0.0
C2024 C 0.78666 0.22187 0.87609 0.0
H2025 H 0.73819 0.18744 0.92435 0.0
H2026 H 0.76766 0.24056 0.91883 0.0
S2027 S 0.79438 0.15001 0.81338 0.0
N2028 N 0.77158 0.13253 0.83636 0.0
N2029 N 0.80266 0.19018 0.82929 0.0
C2030 C 0.7868 0.19138 0.85488 0.0
C2031 C 0.76973 0.15939 0.85891 0.0
loop_
_geom_bond_atom_site_label_1
_geom_bond_atom_site_label_2
_geom_bond_distance
_geom_bond_site_symmetry_2
_ccdc_geom_bond_type
Co0 O1 2.216 . S
Co0 O2 2.091 . S
Co0 O4 2.004 1_455 S
Co0 O10 2.021 . S
Co0 O12 2.137 . S
Co0 O13 2.244 . S
O1 Co0 2.216 . S
O1 C8 1.247 . S
O2 Co0 2.091 . S
O2 C8 1.261 . S
C3 O12 1.247 . S
C3 O13 1.272 . S
O4 Co0 2.004 1_655 S
O4 C9 1.259 . S
Co5 O6 2.061 . S
Co5 O11 2.052 . S
Co5 O13 2.135 1_655 S
O6 Co5 2.061 . S
O6 C9 1.235 . S
C7 O10 1.241 . S
C7 O11 1.235 1_455 S
C8 O1 1.247 . S
C8 O2 1.261 . S
C9 O4 1.259 . S
C9 O6 1.235 . S
O10 Co0 2.021 . S
O10 C7 1.241 . S
O11 Co5 2.052 . S
O11 C7 1.235 1_655 S
O12 Co0 2.137 . S
O12 C3 1.247 . S
O13 Co0 2.244 . S
O13 C3 1.272 . S
O13 Co5 2.135 1_455 S
Co14 O15 2.216 . S
Co14 O16 2.091 . S
Co14 O18 2.004 . S
Co14 O24 2.021 . S
Co14 O26 2.137 . S
Co14 O27 2.244 . S
O15 Co14 2.216 . S
O15 C22 1.247 . S
O16 Co14 2.091 . S
O16 C22 1.261 . S
C17 O26 1.247 . S
C17 O27 1.272 . S
O18 Co14 2.004 . S
O18 C23 1.259 . S
Co19 O20 2.061 . S
Co19 O25 2.052 . S
Co19 O27 2.135 . S
O20 Co19 2.061 . S
O20 C23 1.235 . S
C21 O24 1.238 . S
C21 O25 1.241 . S
C22 O15 1.247 . S
C22 O16 1.261 . S
C23 O18 1.259 . S
C23 O20 1.235 . S
O24 Co14 2.021 . S
O24 C21 1.238 . S
O25 Co19 2.052 . S
O25 C21 1.241 . S
O26 Co14 2.137 . S
O26 C17 1.247 . S
O27 Co14 2.244 . S
O27 C17 1.272 . S
O27 Co19 2.135 . S
Co28 O29 2.216 . S
Co28 O30 2.091 . S
Co28 O32 2.004 . S
Co28 O38 2.021 . S
Co28 O40 2.137 . S
Co28 O41 2.244 . S
O29 Co28 2.216 . S
O29 C36 1.247 . S
O30 Co28 2.091 . S
O30 C36 1.261 . S
C31 O40 1.247 . S
C31 O41 1.272 . S
O32 Co28 2.004 . S
O32 C37 1.259 . S
Co33 O34 2.061 . S
Co33 O39 2.052 . S
Co33 O41 2.135 . S
O34 Co33 2.061 . S
O34 C37 1.235 . S
C35 O38 1.238 . S
C35 O39 1.241 . S
C36 O29 1.247 . S
C36 O30 1.261 . S
C37 O32 1.259 . S
C37 O34 1.235 . S
O38 Co28 2.021 . S
O38 C35 1.238 . S
O39 Co33 2.052 . S
O39 C35 1.241 . S
O40 Co28 2.137 . S
O40 C31 1.247 . S
O41 Co28 2.244 . S
O41 C31 1.272 . S
O41 Co33 2.135 . S
Co42 O43 2.216 . S
Co42 O44 2.091 . S
Co42 O46 2.004 . S
Co42 O52 2.021 . S
Co42 O54 2.137 . S
Co42 O55 2.244 . S
O43 Co42 2.216 . S
O43 C50 1.247 . S
O44 Co42 2.091 . S
O44 C50 1.261 . S
C45 O54 1.247 . S
C45 O55 1.272 . S
O46 Co42 2.004 . S
O46 C51 1.259 . S
Co47 O48 2.061 . S
Co47 O53 2.052 . S
Co47 O55 2.135 . S
O48 Co47 2.061 . S
O48 C51 1.235 . S
C49 O52 1.238 . S
C49 O53 1.241 . S
C50 O43 1.247 . S
C50 O44 1.261 . S
C51 O46 1.259 . S
C51 O48 1.235 . S
O52 Co42 2.021 . S
O52 C49 1.238 . S
O53 Co47 2.052 . S
O53 C49 1.241 . S
O54 Co42 2.137 . S
O54 C45 1.247 . S
O55 Co42 2.244 . S
O55 C45 1.272 . S
O55 Co47 2.135 . S
Co56 O57 2.216 . S
Co56 O58 2.091 . S
Co56 O60 2.004 . S
Co56 O66 2.021 . S
Co56 O68 2.137 . S
Co56 O69 2.244 . S
O57 Co56 2.216 . S
O57 C64 1.247 . S
O58 Co56 2.091 . S
O58 C64 1.261 . S
C59 O68 1.247 . S
C59 O69 1.272 . S
O60 Co56 2.004 . S
O60 C65 1.259 . S
Co61 O62 2.061 . S
Co61 O67 2.052 . S
Co61 O69 2.135 . S
O62 Co61 2.061 . S
O62 C65 1.235 . S
C63 O66 1.238 . S
C63 O67 1.241 . S
C64 O57 1.247 . S
C64 O58 1.261 . S
C65 O60 1.259 . S
C65 O62 1.235 . S
O66 Co56 2.021 . S
O66 C63 1.238 . S
O67 Co61 2.052 . S
O67 C63 1.241 . S
O68 Co56 2.137 . S
O68 C59 1.247 . S
O69 Co56 2.244 . S
O69 C59 1.272 . S
O69 Co61 2.135 . S
Co70 O71 2.216 . S
Co70 O72 2.091 . S
Co70 O74 2.004 . S
Co70 O80 2.021 . S
Co70 O82 2.137 . S
Co70 O83 2.244 . S
O71 Co70 2.216 . S
O71 C78 1.247 . S
O72 Co70 2.091 . S
O72 C78 1.261 . S
C73 O82 1.247 . S
C73 O83 1.272 . S
O74 Co70 2.004 . S
O74 C79 1.259 . S
Co75 O76 2.061 . S
Co75 O81 2.052 . S
Co75 O83 2.135 . S
O76 Co75 2.061 . S
O76 C79 1.235 . S
C77 O80 1.238 . S
C77 O81 1.241 . S
C78 O71 1.247 . S
C78 O72 1.261 . S
C79 O74 1.259 . S
C79 O76 1.235 . S
O80 Co70 2.021 . S
O80 C77 1.238 . S
O81 Co75 2.052 . S
O81 C77 1.241 . S
O82 Co70 2.137 . S
O82 C73 1.247 . S
O83 Co70 2.244 . S
O83 C73 1.272 . S
O83 Co75 2.135 . S
Co84 O85 2.216 . S
Co84 O86 2.091 . S
Co84 O88 2.004 . S
Co84 O94 2.021 . S
Co84 O96 2.137 . S
Co84 O97 2.244 . S
O85 Co84 2.216 . S
O85 C92 1.247 . S
O86 Co84 2.091 . S
O86 C92 1.261 . S
C87 O96 1.247 . S
C87 O97 1.272 . S
O88 Co84 2.004 . S
O88 C93 1.259 . S
Co89 O90 2.061 . S
Co89 O95 2.052 . S
Co89 O97 2.135 . S
O90 Co89 2.061 . S
O90 C93 1.235 . S
C91 O94 1.238 . S
C91 O95 1.241 . S
C92 O85 1.247 . S
C92 O86 1.261 . S
C93 O88 1.259 . S
C93 O90 1.235 . S
O94 Co84 2.021 . S
O94 C91 1.238 . S
O95 Co89 2.052 . S
O95 C91 1.241 . S
O96 Co84 2.137 . S
O96 C87 1.247 . S
O97 Co84 2.244 . S
O97 C87 1.272 . S
O97 Co89 2.135 . S
Co98 O99 2.216 . S
Co98 O100 2.091 . S
Co98 O102 2.004 1_455 S
Co98 O108 2.021 . S
Co98 O110 2.137 . S
Co98 O111 2.244 1_556 S
O99 Co98 2.216 . S
O99 C106 1.247 . S
O100 Co98 2.091 . S
O100 C106 1.261 . S
C101 O110 1.247 1_554 S
C101 O111 1.272 . S
O102 Co98 2.004 1_655 S
O102 C107 1.259 . S
Co103 O104 2.061 1_554 S
Co103 O109 2.028 1_655 S
Co103 O111 2.135 1_655 S
O104 Co103 2.061 1_556 S
O104 C107 1.235 . S
C105 O108 1.238 1_554 S
C105 O109 1.262 . S
C106 O99 1.247 . S
C106 O100 1.261 . S
C107 O102 1.259 . S
C107 O104 1.235 . S
O108 Co98 2.021 . S
O108 C105 1.238 1_556 S
O109 Co103 2.028 1_455 S
O109 C105 1.262 . S
O110 Co98 2.137 . S
O110 C101 1.247 1_556 S
O111 Co98 2.244 1_554 S
O111 C101 1.272 . S
O111 Co103 2.135 1_455 S
Co112 O113 2.216 . S
Co112 O114 2.091 . S
Co112 O116 2.004 . S
Co112 O122 2.021 . S
Co112 O124 2.137 . S
Co112 O125 2.244 . S
O113 Co112 2.216 . S
O113 C120 1.247 . S
O114 Co112 2.091 . S
O114 C120 1.261 . S
C115 O124 1.247 . S
C115 O125 1.272 . S
O116 Co112 2.004 . S
O116 C121 1.259 1_545 S
Co117 O118 2.061 1_545 S
Co117 O123 2.052 . S
Co117 O125 2.135 . S
O118 Co117 2.061 1_565 S
O118 C121 1.235 . S
C119 O122 1.238 . S
C119 O123 1.241 . S
C120 O113 1.247 . S
C120 O114 1.261 . S
C121 O116 1.259 1_565 S
C121 O118 1.235 . S
O122 Co112 2.021 . S
O122 C119 1.238 . S
O123 Co117 2.052 . S
O123 C119 1.241 . S
O124 Co112 2.137 . S
O124 C115 1.247 . S
O125 Co112 2.244 . S
O125 C115 1.272 . S
O125 Co117 2.135 . S
Co126 O127 2.216 . S
Co126 O128 2.091 . S
Co126 O130 2.004 . S
Co126 O136 2.021 . S
Co126 O138 2.137 . S
Co126 O139 2.244 . S
O127 Co126 2.216 . S
O127 C134 1.247 . S
O128 Co126 2.091 . S
O128 C134 1.261 . S
C129 O138 1.247 . S
C129 O139 1.272 . S
O130 Co126 2.004 . S
O130 C135 1.259 . S
Co131 O132 2.061 . S
Co131 O137 2.052 . S
Co131 O139 2.135 . S
O132 Co131 2.061 . S
O132 C135 1.235 . S
C133 O136 1.238 . S
C133 O137 1.241 . S
C134 O127 1.247 . S
C134 O128 1.261 . S
C135 O130 1.259 . S
C135 O132 1.235 . S
O136 Co126 2.021 . S
O136 C133 1.238 . S
O137 Co131 2.052 . S
O137 C133 1.241 . S
O138 Co126 2.137 . S
O138 C129 1.247 . S
O139 Co126 2.244 . S
O139 C129 1.272 . S
O139 Co131 2.135 . S
Co140 O141 2.216 . S
Co140 O142 2.091 . S
Co140 O144 2.004 . S
Co140 O150 2.021 . S
Co140 O152 2.137 . S
Co140 O153 2.244 . S
O141 Co140 2.216 . S
O141 C148 1.247 . S
O142 Co140 2.091 . S
O142 C148 1.261 . S
C143 O152 1.247 . S
C143 O153 1.272 . S
O144 Co140 2.004 . S
O144 C149 1.259 . S
Co145 O146 2.061 . S
Co145 O151 2.052 . S
Co145 O153 2.135 . S
O146 Co145 2.061 . S
O146 C149 1.235 . S
C147 O150 1.238 . S
C147 O151 1.241 . S
C148 O141 1.247 . S
C148 O142 1.261 . S
C149 O144 1.259 . S
C149 O146 1.235 . S
O150 Co140 2.021 . S
O150 C147 1.238 . S
O151 Co145 2.052 . S
O151 C147 1.241 . S
O152 Co140 2.137 . S
O152 C143 1.247 . S
O153 Co140 2.244 . S
O153 C143 1.272 . S
O153 Co145 2.135 . S
Co154 O155 2.216 . S
Co154 O156 2.091 1_556 S
Co154 O158 2.004 1_556 S
Co154 O164 2.021 1_556 S
Co154 O166 2.137 . S
Co154 O167 2.244 . S
O155 Co154 2.216 . S
O155 C162 1.247 . S
O156 Co154 2.091 1_554 S
O156 C162 1.261 1_554 S
C157 O166 1.247 . S
C157 O167 1.272 . S
O158 Co154 2.004 1_554 S
O158 C163 1.259 . S
Co159 O160 2.061 1_556 S
Co159 O165 2.052 1_556 S
Co159 O167 2.135 . S
O160 Co159 2.061 1_554 S
O160 C163 1.235 . S
C161 O164 1.238 . S
C161 O165 1.241 . S
C162 O155 1.247 . S
C162 O156 1.261 1_556 S
C163 O158 1.259 . S
C163 O160 1.235 . S
O164 Co154 2.021 1_554 S
O164 C161 1.238 . S
O165 Co159 2.052 1_554 S
O165 C161 1.241 . S
O166 Co154 2.137 . S
O166 C157 1.247 . S
O167 Co154 2.244 . S
O167 C157 1.272 . S
O167 Co159 2.135 . S
Co168 O169 2.216 . S
Co168 O170 2.091 . S
Co168 O172 2.004 . S
Co168 O178 2.021 . S
Co168 O180 2.137 . S
Co168 O181 2.244 . S
O169 Co168 2.216 . S
O169 C176 1.247 . S
O170 Co168 2.091 . S
O170 C176 1.261 . S
C171 O180 1.247 . S
C171 O181 1.272 . S
O172 Co168 2.004 . S
O172 C177 1.259 . S
Co173 O174 2.061 . S
Co173 O179 2.052 . S
Co173 O181 2.135 . S
O174 Co173 2.061 . S
O174 C177 1.235 . S
C175 O178 1.238 . S
C175 O179 1.241 . S
C176 O169 1.247 . S
C176 O170 1.261 . S
C177 O172 1.259 . S
C177 O174 1.235 . S
O178 Co168 2.021 . S
O178 C175 1.238 . S
O179 Co173 2.052 . S
O179 C175 1.241 . S
O180 Co168 2.137 . S
O180 C171 1.247 . S
O181 Co168 2.244 . S
O181 C171 1.272 . S
O181 Co173 2.135 . S
Co182 O183 2.216 . S
Co182 O184 2.091 . S
Co182 O186 2.004 . S
Co182 O192 2.021 . S
Co182 O194 2.137 . S
Co182 O195 2.244 . S
O183 Co182 2.216 . S
O183 C190 1.247 . S
O184 Co182 2.091 . S
O184 C190 1.261 . S
C185 O194 1.247 . S
C185 O195 1.272 . S
O186 Co182 2.004 . S
O186 C191 1.259 . S
Co187 O188 2.061 . S
Co187 O193 2.052 . S
Co187 O195 2.135 . S
O188 Co187 2.061 . S
O188 C191 1.235 . S
C189 O192 1.238 . S
C189 O193 1.241 . S
C190 O183 1.247 . S
C190 O184 1.261 . S
C191 O186 1.259 . S
C191 O188 1.235 . S
O192 Co182 2.021 . S
O192 C189 1.238 . S
O193 Co187 2.052 . S
O193 C189 1.241 . S
O194 Co182 2.137 . S
O194 C185 1.247 . S
O195 Co182 2.244 . S
O195 C185 1.272 . S
O195 Co187 2.135 . S
Co196 O197 2.216 . S
Co196 O198 2.091 . S
Co196 O200 2.004 . S
Co196 O206 2.021 . S
Co196 O208 2.137 . S
Co196 O209 2.244 . S
O197 Co196 2.216 . S
O197 C204 1.247 . S
O198 Co196 2.091 . S
O198 C204 1.261 . S
C199 O208 1.247 . S
C199 O209 1.272 . S
O200 Co196 2.004 . S
O200 C205 1.259 . S
Co201 O202 2.061 . S
Co201 O207 2.052 . S
Co201 O209 2.135 . S
O202 Co201 2.061 . S
O202 C205 1.235 . S
C203 O206 1.238 . S
C203 O207 1.241 . S
C204 O197 1.247 . S
C204 O198 1.261 . S
C205 O200 1.259 . S
C205 O202 1.235 . S
O206 Co196 2.021 . S
O206 C203 1.238 . S
O207 Co201 2.052 . S
O207 C203 1.241 . S
O208 Co196 2.137 . S
O208 C199 1.247 . S
O209 Co196 2.244 . S
O209 C199 1.272 . S
O209 Co201 2.135 . S
Co210 O211 2.216 . S
Co210 O212 2.091 . S
Co210 O214 2.004 . S
Co210 O220 2.021 . S
Co210 O222 2.137 . S
Co210 O223 2.244 . S
O211 Co210 2.216 . S
O211 C218 1.247 . S
O212 Co210 2.091 . S
O212 C218 1.261 . S
C213 O222 1.247 . S
C213 O223 1.272 . S
O214 Co210 2.004 . S
O214 C219 1.259 . S
Co215 O216 2.061 . S
Co215 O221 2.052 . S
Co215 O223 2.135 . S
O216 Co215 2.061 . S
O216 C219 1.235 . S
C217 O220 1.238 . S
C217 O221 1.241 . S
C218 O211 1.247 . S
C218 O212 1.261 . S
C219 O214 1.259 . S
C219 O216 1.235 . S
O220 Co210 2.021 . S
O220 C217 1.238 . S
O221 Co215 2.052 . S
O221 C217 1.241 . S
O222 Co210 2.137 . S
O222 C213 1.247 . S
O223 Co210 2.244 . S
O223 C213 1.272 . S
O223 Co215 2.135 . S
Co224 O225 2.216 . S
Co224 O226 2.091 . S
Co224 O228 2.004 1_545 S
Co224 O234 2.021 . S
Co224 O236 2.137 . S
Co224 O237 2.244 . S
O225 Co224 2.216 . S
O225 C232 1.247 . S
O226 Co224 2.091 . S
O226 C232 1.261 . S
C227 O236 1.247 . S
C227 O237 1.272 . S
O228 Co224 2.004 1_565 S
O228 C233 1.259 . S
Co229 O230 2.061 . S
Co229 O235 2.052 . S
Co229 O237 2.135 1_565 S
O230 Co229 2.061 . S
O230 C233 1.235 . S
C231 O234 1.227 1_565 S
C231 O235 1.241 . S
C232 O225 1.247 . S
C232 O226 1.261 . S
C233 O228 1.259 . S
C233 O230 1.235 . S
O234 Co224 2.021 . S
O234 C231 1.227 1_545 S
O235 Co229 2.052 . S
O235 C231 1.241 . S
O236 Co224 2.137 . S
O236 C227 1.247 . S
O237 Co224 2.244 . S
O237 C227 1.272 . S
O237 Co229 2.135 1_545 S
Co238 O239 2.216 . S
Co238 O240 2.091 . S
Co238 O242 2.004 . S
Co238 O248 2.021 . S
Co238 O250 2.137 . S
Co238 O251 2.244 . S
O239 Co238 2.216 . S
O239 C246 1.247 . S
O240 Co238 2.091 . S
O240 C246 1.261 . S
C241 O250 1.247 . S
C241 O251 1.272 . S
O242 Co238 2.004 . S
O242 C247 1.259 . S
Co243 O244 2.061 . S
Co243 O249 2.052 . S
Co243 O251 2.135 . S
O244 Co243 2.061 . S
O244 C247 1.235 . S
C245 O248 1.238 . S
C245 O249 1.241 . S
C246 O239 1.247 . S
C246 O240 1.261 . S
C247 O242 1.259 . S
C247 O244 1.235 . S
O248 Co238 2.021 . S
O248 C245 1.238 . S
O249 Co243 2.052 . S
O249 C245 1.241 . S
O250 Co238 2.137 . S
O250 C241 1.247 . S
O251 Co238 2.244 . S
O251 C241 1.272 . S
O251 Co243 2.135 . S
Co252 O253 2.216 . S
Co252 O254 2.091 . S
Co252 O256 2.004 . S
Co252 O262 2.021 . S
Co252 O264 2.137 . S
Co252 O265 2.244 . S
O253 Co252 2.216 . S
O253 C260 1.247 . S
O254 Co252 2.091 . S
O254 C260 1.261 . S
C255 O264 1.247 . S
C255 O265 1.272 . S
O256 Co252 2.004 . S
O256 C261 1.259 . S
Co257 O258 2.061 . S
Co257 O263 2.052 . S
Co257 O265 2.135 . S
O258 Co257 2.061 . S
O258 C261 1.235 . S
C259 O262 1.238 . S
C259 O263 1.241 . S
C260 O253 1.247 . S
C260 O254 1.261 . S
C261 O256 1.259 . S
C261 O258 1.235 . S
O262 Co252 2.021 . S
O262 C259 1.238 . S
O263 Co257 2.052 . S
O263 C259 1.241 . S
O264 Co252 2.137 . S
O264 C255 1.247 . S
O265 Co252 2.244 . S
O265 C255 1.272 . S
O265 Co257 2.135 . S
Co266 O267 2.216 1_545 S
Co266 O268 2.091 . S
Co266 O270 2.004 . S
Co266 O276 2.021 . S
Co266 O278 2.137 . S
Co266 O279 2.244 . S
O267 Co266 2.216 1_565 S
O267 C274 1.247 . S
O268 Co266 2.091 . S
O268 C274 1.261 1_545 S
C269 O278 1.247 . S
C269 O279 1.272 . S
O270 Co266 2.004 . S
O270 C275 1.259 . S
Co271 O272 2.061 . S
Co271 O277 2.052 . S
Co271 O279 2.135 . S
O272 Co271 2.061 . S
O272 C275 1.235 . S
C273 O276 1.238 . S
C273 O277 1.241 . S
C274 O267 1.247 . S
C274 O268 1.261 1_565 S
C275 O270 1.259 . S
C275 O272 1.235 . S
O276 Co266 2.021 . S
O276 C273 1.238 . S
O277 Co271 2.052 . S
O277 C273 1.241 . S
O278 Co266 2.137 . S
O278 C269 1.247 . S
O279 Co266 2.244 . S
O279 C269 1.272 . S
O279 Co271 2.135 . S
Co280 O281 2.216 . S
Co280 O282 2.091 . S
Co280 O284 2.004 . S
Co280 O290 2.021 . S
Co280 O292 2.137 . S
Co280 O293 2.244 . S
O281 Co280 2.216 . S
O281 C288 1.247 . S
O282 Co280 2.091 . S
O282 C288 1.261 . S
C283 O292 1.247 . S
C283 O293 1.272 . S
O284 Co280 2.004 . S
O284 C289 1.259 . S
Co285 O286 2.061 . S
Co285 O291 2.052 . S
Co285 O293 2.135 . S
O286 Co285 2.061 . S
O286 C289 1.235 . S
C287 O290 1.238 . S
C287 O291 1.241 . S
C288 O281 1.247 . S
C288 O282 1.261 . S
C289 O284 1.259 . S
C289 O286 1.235 . S
O290 Co280 2.021 . S
O290 C287 1.238 . S
O291 Co285 2.052 . S
O291 C287 1.241 . S
O292 Co280 2.137 . S
O292 C283 1.247 . S
O293 Co280 2.244 . S
O293 C283 1.272 . S
O293 Co285 2.135 . S
Co294 O295 2.216 . S
Co294 O296 2.091 . S
Co294 O298 2.004 . S
Co294 O304 2.021 . S
Co294 O306 2.137 . S
Co294 O307 2.244 . S
O295 Co294 2.216 . S
O295 C302 1.247 . S
O296 Co294 2.091 . S
O296 C302 1.261 . S
C297 O306 1.247 . S
C297 O307 1.272 . S
O298 Co294 2.004 . S
O298 C303 1.259 . S
Co299 O300 2.061 . S
Co299 O305 2.052 . S
Co299 O307 2.135 . S
O300 Co299 2.061 . S
O300 C303 1.235 . S
C301 O304 1.238 . S
C301 O305 1.241 . S
C302 O295 1.247 . S
C302 O296 1.261 . S
C303 O298 1.259 . S
C303 O300 1.235 . S
O304 Co294 2.021 . S
O304 C301 1.238 . S
O305 Co299 2.052 . S
O305 C301 1.241 . S
O306 Co294 2.137 . S
O306 C297 1.247 . S
O307 Co294 2.244 . S
O307 C297 1.272 . S
O307 Co299 2.135 . S
Co308 O309 2.216 . S
Co308 O310 2.091 . S
Co308 O312 2.004 . S
Co308 O318 2.021 . S
Co308 O320 2.137 . S
Co308 O321 2.244 . S
O309 Co308 2.216 . S
O309 C316 1.247 . S
O310 Co308 2.091 . S
O310 C316 1.261 . S
C311 O320 1.247 . S
C311 O321 1.272 . S
O312 Co308 2.004 . S
O312 C317 1.259 . S
Co313 O314 2.061 . S
Co313 O319 2.052 . S
Co313 O321 2.135 . S
O314 Co313 2.061 . S
O314 C317 1.235 . S
C315 O318 1.238 . S
C315 O319 1.241 . S
C316 O309 1.247 . S
C316 O310 1.261 . S
C317 O312 1.259 . S
C317 O314 1.235 . S
O318 Co308 2.021 . S
O318 C315 1.238 . S
O319 Co313 2.052 . S
O319 C315 1.241 . S
O320 Co308 2.137 . S
O320 C311 1.247 . S
O321 Co308 2.244 . S
O321 C311 1.272 . S
O321 Co313 2.135 . S
Co322 O323 2.216 . S
Co322 O324 2.091 . S
Co322 O326 2.004 . S
Co322 O332 2.021 . S
Co322 O334 2.137 . S
Co322 O335 2.244 . S
O323 Co322 2.216 . S
O323 C330 1.247 . S
O324 Co322 2.091 . S
O324 C330 1.261 . S
C325 O334 1.247 . S
C325 O335 1.272 . S
O326 Co322 2.004 . S
O326 C331 1.259 . S
Co327 O328 2.061 . S
Co327 O333 2.052 . S
Co327 O335 2.135 . S
O328 Co327 2.061 . S
O328 C331 1.235 . S
C329 O332 1.238 . S
C329 O333 1.241 . S
C330 O323 1.247 . S
C330 O324 1.261 . S
C331 O326 1.259 . S
C331 O328 1.235 . S
O332 Co322 2.021 . S
O332 C329 1.238 . S
O333 Co327 2.052 . S
O333 C329 1.241 . S
O334 Co322 2.137 . S
O334 C325 1.247 . S
O335 Co322 2.244 . S
O335 C325 1.272 . S
O335 Co327 2.135 . S
Tb336 C338 2.809 1_455 S
Tb336 O356 2.484 1_455 S
Tb336 O357 2.440 1_455 S
Tb336 O358 2.658 . S
Tb336 O359 2.409 . S
Tb336 O360 2.378 . S
Tb336 O364 2.325 . S
Tb336 O367 2.341 1_545 S
Tb337 C347 2.809 . S
Tb337 O358 2.325 . S
Tb337 O361 2.341 . S
Tb337 O362 2.484 . S
Tb337 O363 2.440 . S
Tb337 O364 2.658 . S
Tb337 O365 2.409 . S
Tb337 O366 2.382 . S
C338 Tb336 2.809 1_655 S
C338 C339 1.514 . S
C338 O356 1.248 . S
C338 O357 1.266 . S
C339 C338 1.514 . S
C339 C340 1.359 . S
C339 C344 1.348 . S
C340 C339 1.359 . S
C340 C341 1.380 . S
C340 H368 0.929 . S
C341 C340 1.380 . S
C341 C342 1.347 . S
C341 H369 0.931 . S
C342 C341 1.347 . S
C342 C343 1.369 . S
C343 C342 1.369 . S
C343 C344 1.408 . S
C343 H370 0.930 . S
C344 C339 1.348 . S
C344 C343 1.408 . S
C344 H371 0.930 . S
C345 O358 1.281 . S
C345 O359 1.254 . S
C346 O360 1.236 . S
C346 O361 1.266 . S
C347 Tb337 2.809 . S
C347 C348 1.510 1_545 S
C347 O362 1.248 . S
C347 O363 1.266 . S
C348 C347 1.510 1_565 S
C348 C349 1.361 . S
C348 C353 1.350 . S
C349 C348 1.361 . S
C349 C350 1.380 . S
C349 H372 0.929 . S
C350 C349 1.380 . S
C350 C351 1.347 . S
C350 H373 0.931 . S
C351 C350 1.347 . S
C351 C352 1.369 . S
C352 C351 1.369 . S
C352 C353 1.408 . S
C352 H374 0.930 . S
C353 C348 1.350 . S
C353 C352 1.408 . S
C353 H375 0.930 1_565 S
C354 O364 1.281 . S
C354 O365 1.254 . S
C355 O366 1.235 1_565 S
C355 O367 1.266 . S
O356 Tb336 2.484 1_655 S
O356 C338 1.248 . S
O357 Tb336 2.440 1_655 S
O357 C338 1.266 . S
O358 Tb336 2.658 . S
O358 Tb337 2.325 . S
O358 C345 1.281 . S
O359 Tb336 2.409 . S
O359 C345 1.254 . S
O360 Tb336 2.378 . S
O360 C346 1.236 . S
O361 Tb337 2.341 . S
O361 C346 1.266 . S
O362 Tb337 2.484 . S
O362 C347 1.248 . S
O363 Tb337 2.440 . S
O363 C347 1.266 . S
O364 Tb336 2.325 . S
O364 Tb337 2.658 . S
O364 C354 1.281 . S
O365 Tb337 2.409 . S
O365 C354 1.254 . S
O366 Tb337 2.382 . S
O366 C355 1.235 1_545 S
O367 Tb336 2.341 1_565 S
O367 C355 1.266 . S
H368 C340 0.929 . S
H369 C341 0.931 . S
H370 C343 0.930 . S
H371 C344 0.930 . S
H372 C349 0.929 . S
H373 C350 0.931 . S
H374 C352 0.930 . S
H375 C353 0.930 1_545 S
Tb376 C378 2.809 . S
Tb376 O396 2.484 . S
Tb376 O397 2.440 . S
Tb376 O398 2.658 . S
Tb376 O399 2.409 . S
Tb376 O400 2.378 . S
Tb376 O404 2.325 . S
Tb376 O407 2.341 . S
Tb377 C387 2.809 . S
Tb377 O398 2.325 . S
Tb377 O401 2.341 . S
Tb377 O402 2.484 . S
Tb377 O403 2.440 . S
Tb377 O404 2.658 . S
Tb377 O405 2.409 . S
Tb377 O406 2.378 . S
C378 Tb376 2.809 . S
C378 C379 1.514 . S
C378 O396 1.248 . S
C378 O397 1.266 . S
C379 C378 1.514 . S
C379 C380 1.359 . S
C379 C384 1.348 . S
C380 C379 1.359 . S
C380 C381 1.380 . S
C380 H408 0.929 . S
C381 C380 1.380 . S
C381 C382 1.347 . S
C381 H409 0.931 . S
C382 C381 1.347 . S
C382 C383 1.369 . S
C383 C382 1.369 . S
C383 C384 1.408 . S
C383 H410 0.930 . S
C384 C379 1.348 . S
C384 C383 1.408 . S
C384 H411 0.930 . S
C385 O398 1.281 . S
C385 O399 1.254 . S
C386 O400 1.236 . S
C386 O401 1.266 . S
C387 Tb377 2.809 . S
C387 C388 1.514 . S
C387 O402 1.248 . S
C387 O403 1.266 . S
C388 C387 1.514 . S
C388 C389 1.359 . S
C388 C393 1.348 . S
C389 C388 1.359 . S
C389 C390 1.380 . S
C389 H412 0.929 . S
C390 C389 1.380 . S
C390 C391 1.347 . S
C390 H413 0.931 . S
C391 C390 1.347 . S
C391 C392 1.369 . S
C392 C391 1.369 . S
C392 C393 1.408 . S
C392 H414 0.930 . S
C393 C388 1.348 . S
C393 C392 1.408 . S
C393 H415 0.930 . S
C394 O404 1.281 . S
C394 O405 1.254 . S
C395 O406 1.236 . S
C395 O407 1.266 . S
O396 Tb376 2.484 . S
O396 C378 1.248 . S
O397 Tb376 2.440 . S
O397 C378 1.266 . S
O398 Tb376 2.658 . S
O398 Tb377 2.325 . S
O398 C385 1.281 . S
O399 Tb376 2.409 . S
O399 C385 1.254 . S
O400 Tb376 2.378 . S
O400 C386 1.236 . S
O401 Tb377 2.341 . S
O401 C386 1.266 . S
O402 Tb377 2.484 . S
O402 C387 1.248 . S
O403 Tb377 2.440 . S
O403 C387 1.266 . S
O404 Tb376 2.325 . S
O404 Tb377 2.658 . S
O404 C394 1.281 . S
O405 Tb377 2.409 . S
O405 C394 1.254 . S
O406 Tb377 2.378 . S
O406 C395 1.236 . S
O407 Tb376 2.341 . S
O407 C395 1.266 . S
H408 C380 0.929 . S
H409 C381 0.931 . S
H410 C383 0.930 . S
H411 C384 0.930 . S
H412 C389 0.929 . S
H413 C390 0.931 . S
H414 C392 0.930 . S
H415 C393 0.930 . S
Tb416 C418 2.809 . S
Tb416 O436 2.484 . S
Tb416 O437 2.440 . S
Tb416 O438 2.658 . S
Tb416 O439 2.409 . S
Tb416 O440 2.378 1_545 S
Tb416 O444 2.325 . S
Tb416 O447 2.341 . S
Tb417 C427 2.809 . S
Tb417 O438 2.325 . S
Tb417 O441 2.341 1_545 S
Tb417 O442 2.484 . S
Tb417 O443 2.440 . S
Tb417 O444 2.658 . S
Tb417 O445 2.409 . S
Tb417 O446 2.378 . S
C418 Tb416 2.809 . S
C418 C419 1.514 1_545 S
C418 O436 1.248 . S
C418 O437 1.266 . S
C419 C418 1.514 1_565 S
C419 C420 1.359 . S
C419 C424 1.348 . S
C420 C419 1.359 . S
C420 C421 1.380 . S
C420 H448 0.929 . S
C421 C420 1.380 . S
C421 C422 1.347 . S
C421 H449 0.931 . S
C422 C421 1.347 . S
C422 C423 1.369 . S
C423 C422 1.369 . S
C423 C424 1.408 . S
C423 H450 0.930 . S
C424 C419 1.348 . S
C424 C423 1.408 . S
C424 H451 0.930 . S
C425 O438 1.281 . S
C425 O439 1.254 . S
C426 O440 1.236 . S
C426 O441 1.266 . S
C427 Tb417 2.809 . S
C427 C428 1.514 . S
C427 O442 1.248 . S
C427 O443 1.266 . S
C428 C427 1.514 . S
C428 C429 1.359 . S
C428 C433 1.348 . S
C429 C428 1.359 . S
C429 C430 1.380 . S
C429 H452 0.929 . S
C430 C429 1.380 . S
C430 C431 1.347 . S
C430 H453 0.931 . S
C431 C430 1.347 . S
C431 C432 1.369 . S
C432 C431 1.369 . S
C432 C433 1.408 . S
C432 H454 0.930 . S
C433 C428 1.348 . S
C433 C432 1.408 . S
C433 H455 0.930 . S
C434 O444 1.281 . S
C434 O445 1.254 . S
C435 O446 1.236 . S
C435 O447 1.266 . S
O436 Tb416 2.484 . S
O436 C418 1.248 . S
O437 Tb416 2.440 . S
O437 C418 1.266 . S
O438 Tb416 2.658 . S
O438 Tb417 2.325 . S
O438 C425 1.281 . S
O439 Tb416 2.409 . S
O439 C425 1.254 . S
O440 Tb416 2.378 1_565 S
O440 C426 1.236 . S
O441 Tb417 2.341 1_565 S
O441 C426 1.266 . S
O442 Tb417 2.484 . S
O442 C427 1.248 . S
O443 Tb417 2.440 . S
O443 C427 1.266 . S
O444 Tb416 2.325 . S
O444 Tb417 2.658 . S
O444 C434 1.281 . S
O445 Tb417 2.409 . S
O445 C434 1.254 . S
O446 Tb417 2.378 . S
O446 C435 1.236 . S
O447 Tb416 2.341 . S
O447 C435 1.266 . S
H448 C420 0.929 . S
H449 C421 0.931 . S
H450 C423 0.930 . S
H451 C424 0.930 . S
H452 C429 0.929 . S
H453 C430 0.931 . S
H454 C432 0.930 . S
H455 C433 0.930 . S
Tb456 C458 2.809 . S
Tb456 O476 2.484 . S
Tb456 O477 2.440 . S
Tb456 O478 2.658 . S
Tb456 O479 2.409 . S
Tb456 O480 2.378 . S
Tb456 O484 2.325 . S
Tb456 O487 2.341 . S
Tb457 C467 2.809 . S
Tb457 O478 2.325 . S
Tb457 O481 2.341 . S
Tb457 O482 2.484 . S
Tb457 O483 2.440 . S
Tb457 O484 2.658 . S
Tb457 O485 2.409 . S
Tb457 O486 2.378 . S
C458 Tb456 2.809 . S
C458 C459 1.514 . S
C458 O476 1.248 . S
C458 O477 1.266 . S
C459 C458 1.514 . S
C459 C460 1.359 . S
C459 C464 1.348 . S
C460 C459 1.359 . S
C460 C461 1.380 . S
C460 H488 0.929 . S
C461 C460 1.380 . S
C461 C462 1.347 . S
C461 H489 0.931 . S
C462 C461 1.347 . S
C462 C463 1.369 . S
C463 C462 1.369 . S
C463 C464 1.408 . S
C463 H490 0.930 . S
C464 C459 1.348 . S
C464 C463 1.408 . S
C464 H491 0.930 . S
C465 O478 1.281 . S
C465 O479 1.254 . S
C466 O480 1.236 . S
C466 O481 1.266 . S
C467 Tb457 2.809 . S
C467 C468 1.514 . S
C467 O482 1.248 . S
C467 O483 1.266 . S
C468 C467 1.514 . S
C468 C469 1.359 . S
C468 C473 1.348 . S
C469 C468 1.359 . S
C469 C470 1.380 . S
C469 H492 0.929 . S
C470 C469 1.380 . S
C470 C471 1.347 . S
C470 H493 0.931 . S
C471 C470 1.347 . S
C471 C472 1.369 . S
C472 C471 1.369 . S
C472 C473 1.408 . S
C472 H494 0.930 . S
C473 C468 1.348 . S
C473 C472 1.408 . S
C473 H495 0.930 . S
C474 O484 1.281 . S
C474 O485 1.254 . S
C475 O486 1.236 . S
C475 O487 1.266 . S
O476 Tb456 2.484 . S
O476 C458 1.248 . S
O477 Tb456 2.440 . S
O477 C458 1.266 . S
O478 Tb456 2.658 . S
O478 Tb457 2.325 . S
O478 C465 1.281 . S
O479 Tb456 2.409 . S
O479 C465 1.254 . S
O480 Tb456 2.378 . S
O480 C466 1.236 . S
O481 Tb457 2.341 . S
O481 C466 1.266 . S
O482 Tb457 2.484 . S
O482 C467 1.248 . S
O483 Tb457 2.440 . S
O483 C467 1.266 . S
O484 Tb456 2.325 . S
O484 Tb457 2.658 . S
O484 C474 1.281 . S
O485 Tb457 2.409 . S
O485 C474 1.254 . S
O486 Tb457 2.378 . S
O486 C475 1.236 . S
O487 Tb456 2.341 . S
O487 C475 1.266 . S
H488 C460 0.929 . S
H489 C461 0.931 . S
H490 C463 0.930 . S
H491 C464 0.930 . S
H492 C469 0.929 . S
H493 C470 0.931 . S
H494 C472 0.930 . S
H495 C473 0.930 . S
Tb496 C498 2.809 . S
Tb496 O516 2.484 . S
Tb496 O517 2.440 . S
Tb496 O518 2.658 . S
Tb496 O519 2.409 1_455 S
Tb496 O520 2.378 . S
Tb496 O524 2.325 . S
Tb496 O527 2.341 . S
Tb497 C507 2.809 . S
Tb497 O518 2.325 1_565 S
Tb497 O521 2.341 1_565 S
Tb497 O522 2.484 . S
Tb497 O523 2.440 . S
Tb497 O524 2.658 1_565 S
Tb497 O525 2.409 1_565 S
Tb497 O526 2.378 1_565 S
C498 Tb496 2.809 . S
C498 C499 1.514 . S
C498 O516 1.248 . S
C498 O517 1.266 . S
C499 C498 1.514 . S
C499 C500 1.359 . S
C499 C504 1.348 1_455 S
C500 C499 1.359 . S
C500 C501 1.380 . S
C500 H528 0.929 . S
C501 C500 1.380 . S
C501 C502 1.347 . S
C501 H529 0.931 . S
C502 C501 1.347 . S
C502 C503 1.369 1_455 S
C503 C502 1.369 1_655 S
C503 C504 1.408 . S
C503 H530 0.930 . S
C504 C499 1.348 1_655 S
C504 C503 1.408 . S
C504 H531 0.930 . S
C505 O518 1.281 1_655 S
C505 O519 1.254 . S
C506 O520 1.236 . S
C506 O521 1.266 . S
C507 Tb497 2.809 . S
C507 C508 1.514 . S
C507 O522 1.248 . S
C507 O523 1.266 . S
C508 C507 1.514 . S
C508 C509 1.359 . S
C508 C513 1.348 . S
C509 C508 1.359 . S
C509 C510 1.380 . S
C509 H532 0.929 . S
C510 C509 1.380 . S
C510 C511 1.347 . S
C510 H533 0.931 . S
C511 C510 1.347 . S
C511 C512 1.369 . S
C512 C511 1.369 . S
C512 C513 1.408 . S
C512 H534 0.930 . S
C513 C508 1.348 . S
C513 C512 1.408 . S
C513 H535 0.930 . S
C514 O524 1.281 . S
C514 O525 1.254 . S
C515 O526 1.236 . S
C515 O527 1.266 . S
O516 Tb496 2.484 . S
O516 C498 1.248 . S
O517 Tb496 2.440 . S
O517 C498 1.266 . S
O518 Tb496 2.658 . S
O518 Tb497 2.325 1_545 S
O518 C505 1.281 1_455 S
O519 Tb496 2.409 1_655 S
O519 C505 1.254 . S
O520 Tb496 2.378 . S
O520 C506 1.236 . S
O521 Tb497 2.341 1_545 S
O521 C506 1.266 . S
O522 Tb497 2.484 . S
O522 C507 1.248 . S
O523 Tb497 2.440 . S
O523 C507 1.266 . S
O524 Tb496 2.325 . S
O524 Tb497 2.658 1_545 S
O524 C514 1.281 . S
O525 Tb497 2.409 1_545 S
O525 C514 1.254 . S
O526 Tb497 2.378 1_545 S
O526 C515 1.236 . S
O527 Tb496 2.341 . S
O527 C515 1.266 . S
H528 C500 0.929 . S
H529 C501 0.931 . S
H530 C503 0.930 . S
H531 C504 0.930 . S
H532 C509 0.929 . S
H533 C510 0.931 . S
H534 C512 0.930 . S
H535 C513 0.930 . S
Tb536 C538 2.809 . S
Tb536 O556 2.484 . S
Tb536 O557 2.440 . S
Tb536 O558 2.658 . S
Tb536 O559 2.409 . S
Tb536 O560 2.378 . S
Tb536 O564 2.325 . S
Tb536 O567 2.341 . S
Tb537 C547 2.809 . S
Tb537 O558 2.325 . S
Tb537 O561 2.341 . S
Tb537 O562 2.484 . S
Tb537 O563 2.440 . S
Tb537 O564 2.658 . S
Tb537 O565 2.409 . S
Tb537 O566 2.378 . S
C538 Tb536 2.809 . S
C538 C539 1.514 . S
C538 O556 1.248 . S
C538 O557 1.266 . S
C539 C538 1.514 . S
C539 C540 1.359 . S
C539 C544 1.348 . S
C540 C539 1.359 . S
C540 C541 1.380 . S
C540 H568 0.929 . S
C541 C540 1.380 . S
C541 C542 1.347 . S
C541 H569 0.931 . S
C542 C541 1.347 . S
C542 C543 1.369 . S
C543 C542 1.369 . S
C543 C544 1.408 . S
C543 H570 0.930 . S
C544 C539 1.348 . S
C544 C543 1.408 . S
C544 H571 0.930 . S
C545 O558 1.281 . S
C545 O559 1.254 . S
C546 O560 1.236 . S
C546 O561 1.266 . S
C547 Tb537 2.809 . S
C547 C548 1.514 . S
C547 O562 1.248 . S
C547 O563 1.266 . S
C548 C547 1.514 . S
C548 C549 1.359 . S
C548 C553 1.348 . S
C549 C548 1.359 . S
C549 C550 1.380 . S
C549 H572 0.929 . S
C550 C549 1.380 . S
C550 C551 1.347 . S
C550 H573 0.931 . S
C551 C550 1.347 . S
C551 C552 1.369 . S
C552 C551 1.369 . S
C552 C553 1.408 . S
C552 H574 0.930 . S
C553 C548 1.348 . S
C553 C552 1.408 . S
C553 H575 0.930 . S
C554 O564 1.281 . S
C554 O565 1.254 . S
C555 O566 1.236 . S
C555 O567 1.266 . S
O556 Tb536 2.484 . S
O556 C538 1.248 . S
O557 Tb536 2.440 . S
O557 C538 1.266 . S
O558 Tb536 2.658 . S
O558 Tb537 2.325 . S
O558 C545 1.281 . S
O559 Tb536 2.409 . S
O559 C545 1.254 . S
O560 Tb536 2.378 . S
O560 C546 1.236 . S
O561 Tb537 2.341 . S
O561 C546 1.266 . S
O562 Tb537 2.484 . S
O562 C547 1.248 . S
O563 Tb537 2.440 . S
O563 C547 1.266 . S
O564 Tb536 2.325 . S
O564 Tb537 2.658 . S
O564 C554 1.281 . S
O565 Tb537 2.409 . S
O565 C554 1.254 . S
O566 Tb537 2.378 . S
O566 C555 1.236 . S
O567 Tb536 2.341 . S
O567 C555 1.266 . S
H568 C540 0.929 . S
H569 C541 0.931 . S
H570 C543 0.930 . S
H571 C544 0.930 . S
H572 C549 0.929 . S
H573 C550 0.931 . S
H574 C552 0.930 . S
H575 C553 0.930 . S
Tb576 C578 2.809 . S
Tb576 O596 2.484 1_545 S
Tb576 O597 2.440 . S
Tb576 O598 2.658 . S
Tb576 O599 2.409 . S
Tb576 O600 2.378 . S
Tb576 O604 2.325 . S
Tb576 O607 2.341 . S
Tb577 C587 2.809 . S
Tb577 O598 2.325 . S
Tb577 O601 2.341 . S
Tb577 O602 2.484 . S
Tb577 O603 2.440 . S
Tb577 O604 2.658 . S
Tb577 O605 2.409 1_545 S
Tb577 O606 2.378 . S
C578 Tb576 2.809 . S
C578 C579 1.514 . S
C578 O596 1.248 1_545 S
C578 O597 1.266 . S
C579 C578 1.514 . S
C579 C580 1.359 1_545 S
C579 C584 1.348 . S
C580 C579 1.359 1_565 S
C580 C581 1.380 . S
C580 H608 0.929 . S
C581 C580 1.380 . S
C581 C582 1.347 . S
C581 H609 0.931 . S
C582 C581 1.347 . S
C582 C583 1.369 1_565 S
C583 C582 1.369 1_545 S
C583 C584 1.408 . S
C583 H610 0.930 . S
C584 C579 1.348 . S
C584 C583 1.408 . S
C584 H611 0.930 . S
C585 O598 1.281 . S
C585 O599 1.254 . S
C586 O600 1.236 . S
C586 O601 1.266 . S
C587 Tb577 2.809 . S
C587 C588 1.514 . S
C587 O602 1.248 . S
C587 O603 1.266 . S
C588 C587 1.514 . S
C588 C589 1.359 . S
C588 C593 1.348 . S
C589 C588 1.359 . S
C589 C590 1.380 . S
C589 H612 0.929 . S
C590 C589 1.380 . S
C590 C591 1.347 . S
C590 H613 0.931 . S
C591 C590 1.347 . S
C591 C592 1.369 . S
C592 C591 1.369 . S
C592 C593 1.408 . S
C592 H614 0.930 . S
C593 C588 1.348 . S
C593 C592 1.408 . S
C593 H615 0.930 . S
C594 O604 1.281 1_565 S
C594 O605 1.254 . S
C595 O606 1.236 . S
C595 O607 1.266 . S
O596 Tb576 2.484 1_565 S
O596 C578 1.248 1_565 S
O597 Tb576 2.440 . S
O597 C578 1.266 . S
O598 Tb576 2.658 . S
O598 Tb577 2.325 . S
O598 C585 1.281 . S
O599 Tb576 2.409 . S
O599 C585 1.254 . S
O600 Tb576 2.378 . S
O600 C586 1.236 . S
O601 Tb577 2.341 . S
O601 C586 1.266 . S
O602 Tb577 2.484 . S
O602 C587 1.248 . S
O603 Tb577 2.440 . S
O603 C587 1.266 . S
O604 Tb576 2.325 . S
O604 Tb577 2.658 . S
O604 C594 1.281 1_545 S
O605 Tb577 2.409 1_565 S
O605 C594 1.254 . S
O606 Tb577 2.378 . S
O606 C595 1.236 . S
O607 Tb576 2.341 . S
O607 C595 1.266 . S
H608 C580 0.929 . S
H609 C581 0.931 . S
H610 C583 0.930 . S
H611 C584 0.930 . S
H612 C589 0.929 . S
H613 C590 0.931 . S
H614 C592 0.930 . S
H615 C593 0.930 . S
Tb616 C618 2.809 . S
Tb616 O636 2.484 . S
Tb616 O637 2.440 . S
Tb616 O638 2.658 . S
Tb616 O639 2.409 . S
Tb616 O640 2.378 . S
Tb616 O644 2.325 . S
Tb616 O647 2.341 . S
Tb617 C627 2.809 . S
Tb617 O638 2.325 . S
Tb617 O641 2.341 . S
Tb617 O642 2.484 . S
Tb617 O643 2.440 . S
Tb617 O644 2.658 . S
Tb617 O645 2.409 . S
Tb617 O646 2.378 . S
C618 Tb616 2.809 . S
C618 C619 1.514 . S
C618 O636 1.248 . S
C618 O637 1.266 . S
C619 C618 1.514 . S
C619 C620 1.359 . S
C619 C624 1.348 . S
C620 C619 1.359 . S
C620 C621 1.380 . S
C620 H648 0.929 . S
C621 C620 1.380 . S
C621 C622 1.347 . S
C621 H649 0.931 . S
C622 C621 1.347 . S
C622 C623 1.369 . S
C623 C622 1.369 . S
C623 C624 1.408 . S
C623 H650 0.930 . S
C624 C619 1.348 . S
C624 C623 1.408 . S
C624 H651 0.930 . S
C625 O638 1.281 . S
C625 O639 1.254 . S
C626 O640 1.236 . S
C626 O641 1.266 . S
C627 Tb617 2.809 . S
C627 C628 1.514 . S
C627 O642 1.248 . S
C627 O643 1.266 . S
C628 C627 1.514 . S
C628 C629 1.359 . S
C628 C633 1.348 . S
C629 C628 1.359 . S
C629 C630 1.380 . S
C629 H652 0.929 . S
C630 C629 1.380 . S
C630 C631 1.347 . S
C630 H653 0.931 . S
C631 C630 1.347 . S
C631 C632 1.369 . S
C632 C631 1.369 . S
C632 C633 1.408 . S
C632 H654 0.930 . S
C633 C628 1.348 . S
C633 C632 1.408 . S
C633 H655 0.930 . S
C634 O644 1.281 . S
C634 O645 1.254 . S
C635 O646 1.236 . S
C635 O647 1.266 . S
O636 Tb616 2.484 . S
O636 C618 1.248 . S
O637 Tb616 2.440 . S
O637 C618 1.266 . S
O638 Tb616 2.658 . S
O638 Tb617 2.325 . S
O638 C625 1.281 . S
O639 Tb616 2.409 . S
O639 C625 1.254 . S
O640 Tb616 2.378 . S
O640 C626 1.236 . S
O641 Tb617 2.341 . S
O641 C626 1.266 . S
O642 Tb617 2.484 . S
O642 C627 1.248 . S
O643 Tb617 2.440 . S
O643 C627 1.266 . S
O644 Tb616 2.325 . S
O644 Tb617 2.658 . S
O644 C634 1.281 . S
O645 Tb617 2.409 . S
O645 C634 1.254 . S
O646 Tb617 2.378 . S
O646 C635 1.236 . S
O647 Tb616 2.341 . S
O647 C635 1.266 . S
H648 C620 0.929 . S
H649 C621 0.931 . S
H650 C623 0.930 . S
H651 C624 0.930 . S
H652 C629 0.929 . S
H653 C630 0.931 . S
H654 C632 0.930 . S
H655 C633 0.930 . S
Tb656 C658 2.809 . S
Tb656 O676 2.484 . S
Tb656 O677 2.440 . S
Tb656 O678 2.658 . S
Tb656 O679 2.409 . S
Tb656 O680 2.378 . S
Tb656 O684 2.325 . S
Tb656 O687 2.341 . S
Tb657 C667 2.809 . S
Tb657 O678 2.325 . S
Tb657 O681 2.341 . S
Tb657 O682 2.484 . S
Tb657 O683 2.440 . S
Tb657 O684 2.658 . S
Tb657 O685 2.409 . S
Tb657 O686 2.378 . S
C658 Tb656 2.809 . S
C658 C659 1.514 . S
C658 O676 1.248 . S
C658 O677 1.266 . S
C659 C658 1.514 . S
C659 C660 1.359 . S
C659 C664 1.348 . S
C660 C659 1.359 . S
C660 C661 1.380 1_554 S
C660 H688 0.929 . S
C661 C660 1.380 1_556 S
C661 C662 1.347 . S
C661 H689 0.931 . S
C662 C661 1.347 . S
C662 C663 1.369 1_556 S
C663 C662 1.369 1_554 S
C663 C664 1.408 . S
C663 H690 0.930 . S
C664 C659 1.348 . S
C664 C663 1.408 . S
C664 H691 0.930 . S
C665 O678 1.281 . S
C665 O679 1.254 . S
C666 O680 1.236 . S
C666 O681 1.266 . S
C667 Tb657 2.809 . S
C667 C668 1.514 . S
C667 O682 1.248 . S
C667 O683 1.266 . S
C668 C667 1.514 . S
C668 C669 1.359 . S
C668 C673 1.348 . S
C669 C668 1.359 . S
C669 C670 1.380 . S
C669 H692 0.929 . S
C670 C669 1.380 . S
C670 C671 1.347 . S
C670 H693 0.931 . S
C671 C670 1.347 . S
C671 C672 1.369 . S
C672 C671 1.369 . S
C672 C673 1.408 . S
C672 H694 0.930 . S
C673 C668 1.348 . S
C673 C672 1.408 . S
C673 H695 0.930 . S
C674 O684 1.281 . S
C674 O685 1.254 . S
C675 O686 1.236 . S
C675 O687 1.266 . S
O676 Tb656 2.484 . S
O676 C658 1.248 . S
O677 Tb656 2.440 . S
O677 C658 1.266 . S
O678 Tb656 2.658 . S
O678 Tb657 2.325 . S
O678 C665 1.281 . S
O679 Tb656 2.409 . S
O679 C665 1.254 . S
O680 Tb656 2.378 . S
O680 C666 1.236 . S
O681 Tb657 2.341 . S
O681 C666 1.266 . S
O682 Tb657 2.484 . S
O682 C667 1.248 . S
O683 Tb657 2.440 . S
O683 C667 1.266 . S
O684 Tb656 2.325 . S
O684 Tb657 2.658 . S
O684 C674 1.281 . S
O685 Tb657 2.409 . S
O685 C674 1.254 . S
O686 Tb657 2.378 . S
O686 C675 1.236 . S
O687 Tb656 2.341 . S
O687 C675 1.266 . S
H688 C660 0.929 . S
H689 C661 0.931 . S
H690 C663 0.930 . S
H691 C664 0.930 . S
H692 C669 0.929 . S
H693 C670 0.931 . S
H694 C672 0.930 . S
H695 C673 0.930 . S
Tb696 C698 2.809 . S
Tb696 O716 2.484 . S
Tb696 O717 2.440 . S
Tb696 O718 2.658 . S
Tb696 O719 2.409 . S
Tb696 O720 2.378 . S
Tb696 O724 2.325 . S
Tb696 O727 2.341 . S
Tb697 C707 2.809 . S
Tb697 O718 2.325 . S
Tb697 O721 2.341 . S
Tb697 O722 2.484 . S
Tb697 O723 2.440 . S
Tb697 O724 2.658 . S
Tb697 O725 2.409 . S
Tb697 O726 2.378 . S
C698 Tb696 2.809 . S
C698 C699 1.514 . S
C698 O716 1.248 . S
C698 O717 1.266 . S
C699 C698 1.514 . S
C699 C700 1.359 . S
C699 C704 1.348 . S
C700 C699 1.359 . S
C700 C701 1.380 . S
C700 H728 0.929 . S
C701 C700 1.380 . S
C701 C702 1.347 . S
C701 H729 0.931 . S
C702 C701 1.347 . S
C702 C703 1.369 . S
C703 C702 1.369 . S
C703 C704 1.408 . S
C703 H730 0.930 . S
C704 C699 1.348 . S
C704 C703 1.408 . S
C704 H731 0.930 . S
C705 O718 1.281 . S
C705 O719 1.254 . S
C706 O720 1.236 . S
C706 O721 1.266 . S
C707 Tb697 2.809 . S
C707 C708 1.514 . S
C707 O722 1.248 . S
C707 O723 1.266 . S
C708 C707 1.514 . S
C708 C709 1.359 . S
C708 C713 1.348 . S
C709 C708 1.359 . S
C709 C710 1.380 . S
C709 H732 0.929 . S
C710 C709 1.380 . S
C710 C711 1.347 . S
C710 H733 0.931 . S
C711 C710 1.347 . S
C711 C712 1.369 . S
C712 C711 1.369 . S
C712 C713 1.408 . S
C712 H734 0.930 . S
C713 C708 1.348 . S
C713 C712 1.408 . S
C713 H735 0.930 . S
C714 O724 1.281 . S
C714 O725 1.254 . S
C715 O726 1.236 . S
C715 O727 1.266 . S
O716 Tb696 2.484 . S
O716 C698 1.248 . S
O717 Tb696 2.440 . S
O717 C698 1.266 . S
O718 Tb696 2.658 . S
O718 Tb697 2.325 . S
O718 C705 1.281 . S
O719 Tb696 2.409 . S
O719 C705 1.254 . S
O720 Tb696 2.378 . S
O720 C706 1.236 . S
O721 Tb697 2.341 . S
O721 C706 1.266 . S
O722 Tb697 2.484 . S
O722 C707 1.248 . S
O723 Tb697 2.440 . S
O723 C707 1.266 . S
O724 Tb696 2.325 . S
O724 Tb697 2.658 . S
O724 C714 1.281 . S
O725 Tb697 2.409 . S
O725 C714 1.254 . S
O726 Tb697 2.378 . S
O726 C715 1.236 . S
O727 Tb696 2.341 . S
O727 C715 1.266 . S
H728 C700 0.929 . S
H729 C701 0.931 . S
H730 C703 0.930 . S
H731 C704 0.930 . S
H732 C709 0.929 . S
H733 C710 0.931 . S
H734 C712 0.930 . S
H735 C713 0.930 . S
Tb736 C738 2.809 1_455 S
Tb736 O756 2.484 1_455 S
Tb736 O757 2.440 1_455 S
Tb736 O758 2.658 . S
Tb736 O759 2.409 . S
Tb736 O760 2.378 . S
Tb736 O764 2.325 . S
Tb736 O767 2.341 . S
Tb737 C747 2.809 . S
Tb737 O758 2.325 . S
Tb737 O761 2.341 . S
Tb737 O762 2.484 . S
Tb737 O763 2.440 . S
Tb737 O764 2.658 . S
Tb737 O765 2.409 . S
Tb737 O766 2.378 . S
C738 Tb736 2.809 1_655 S
C738 C739 1.514 . S
C738 O756 1.248 . S
C738 O757 1.266 . S
C739 C738 1.514 . S
C739 C740 1.359 . S
C739 C744 1.348 . S
C740 C739 1.359 . S
C740 C741 1.380 . S
C740 H768 0.929 . S
C741 C740 1.380 . S
C741 C742 1.347 . S
C741 H769 0.931 . S
C742 C741 1.347 . S
C742 C743 1.369 . S
C743 C742 1.369 . S
C743 C744 1.408 . S
C743 H770 0.930 . S
C744 C739 1.348 . S
C744 C743 1.408 . S
C744 H771 0.930 . S
C745 O758 1.281 . S
C745 O759 1.254 . S
C746 O760 1.236 . S
C746 O761 1.266 . S
C747 Tb737 2.809 . S
C747 C748 1.514 . S
C747 O762 1.248 . S
C747 O763 1.266 . S
C748 C747 1.514 . S
C748 C749 1.359 . S
C748 C753 1.348 . S
C749 C748 1.359 . S
C749 C750 1.380 . S
C749 H772 0.929 . S
C750 C749 1.380 . S
C750 C751 1.347 . S
C750 H773 0.931 . S
C751 C750 1.347 . S
C751 C752 1.369 . S
C752 C751 1.369 . S
C752 C753 1.408 . S
C752 H774 0.930 . S
C753 C748 1.348 . S
C753 C752 1.408 . S
C753 H775 0.930 . S
C754 O764 1.281 . S
C754 O765 1.254 . S
C755 O766 1.236 . S
C755 O767 1.266 . S
O756 Tb736 2.484 1_655 S
O756 C738 1.248 . S
O757 Tb736 2.440 1_655 S
O757 C738 1.266 . S
O758 Tb736 2.658 . S
O758 Tb737 2.325 . S
O758 C745 1.281 . S
O759 Tb736 2.409 . S
O759 C745 1.254 . S
O760 Tb736 2.378 . S
O760 C746 1.236 . S
O761 Tb737 2.341 . S
O761 C746 1.266 . S
O762 Tb737 2.484 . S
O762 C747 1.248 . S
O763 Tb737 2.440 . S
O763 C747 1.266 . S
O764 Tb736 2.325 . S
O764 Tb737 2.658 . S
O764 C754 1.281 . S
O765 Tb737 2.409 . S
O765 C754 1.254 . S
O766 Tb737 2.378 . S
O766 C755 1.236 . S
O767 Tb736 2.341 . S
O767 C755 1.266 . S
H768 C740 0.929 . S
H769 C741 0.931 . S
H770 C743 0.930 . S
H771 C744 0.930 . S
H772 C749 0.929 . S
H773 C750 0.931 . S
H774 C752 0.930 . S
H775 C753 0.930 . S
Tb776 C778 2.809 . S
Tb776 O796 2.484 . S
Tb776 O797 2.440 . S
Tb776 O798 2.658 . S
Tb776 O799 2.409 . S
Tb776 O800 2.378 . S
Tb776 O804 2.325 . S
Tb776 O807 2.341 . S
Tb777 C787 2.809 . S
Tb777 O798 2.325 . S
Tb777 O801 2.341 . S
Tb777 O802 2.484 . S
Tb777 O803 2.440 . S
Tb777 O804 2.658 . S
Tb777 O805 2.409 . S
Tb777 O806 2.378 . S
C778 Tb776 2.809 . S
C778 C779 1.514 . S
C778 O796 1.248 . S
C778 O797 1.266 . S
C779 C778 1.514 . S
C779 C780 1.359 . S
C779 C784 1.348 . S
C780 C779 1.359 . S
C780 C781 1.380 . S
C780 H808 0.929 . S
C781 C780 1.380 . S
C781 C782 1.347 . S
C781 H809 0.931 . S
C782 C781 1.347 . S
C782 C783 1.369 . S
C783 C782 1.369 . S
C783 C784 1.408 . S
C783 H810 0.930 . S
C784 C779 1.348 . S
C784 C783 1.408 . S
C784 H811 0.930 . S
C785 O798 1.281 . S
C785 O799 1.254 . S
C786 O800 1.236 . S
C786 O801 1.266 . S
C787 Tb777 2.809 . S
C787 C788 1.514 . S
C787 O802 1.248 . S
C787 O803 1.266 . S
C788 C787 1.514 . S
C788 C789 1.359 . S
C788 C793 1.348 . S
C789 C788 1.359 . S
C789 C790 1.380 . S
C789 H812 0.929 . S
C790 C789 1.380 . S
C790 C791 1.347 . S
C790 H813 0.931 . S
C791 C790 1.347 . S
C791 C792 1.369 . S
C792 C791 1.369 . S
C792 C793 1.408 . S
C792 H814 0.930 . S
C793 C788 1.348 . S
C793 C792 1.408 . S
C793 H815 0.930 . S
C794 O804 1.281 . S
C794 O805 1.254 . S
C795 O806 1.236 . S
C795 O807 1.266 . S
O796 Tb776 2.484 . S
O796 C778 1.248 . S
O797 Tb776 2.440 . S
O797 C778 1.266 . S
O798 Tb776 2.658 . S
O798 Tb777 2.325 . S
O798 C785 1.281 . S
O799 Tb776 2.409 . S
O799 C785 1.254 . S
O800 Tb776 2.378 . S
O800 C786 1.236 . S
O801 Tb777 2.341 . S
O801 C786 1.266 . S
O802 Tb777 2.484 . S
O802 C787 1.248 . S
O803 Tb777 2.440 . S
O803 C787 1.266 . S
O804 Tb776 2.325 . S
O804 Tb777 2.658 . S
O804 C794 1.281 . S
O805 Tb777 2.409 . S
O805 C794 1.254 . S
O806 Tb777 2.378 . S
O806 C795 1.236 . S
O807 Tb776 2.341 . S
O807 C795 1.266 . S
H808 C780 0.929 . S
H809 C781 0.931 . S
H810 C783 0.930 . S
H811 C784 0.930 . S
H812 C789 0.929 . S
H813 C790 0.931 . S
H814 C792 0.930 . S
H815 C793 0.930 . S
Tb816 C818 2.809 . S
Tb816 O836 2.484 . S
Tb816 O837 2.440 . S
Tb816 O838 2.658 . S
Tb816 O839 2.409 . S
Tb816 O840 2.378 . S
Tb816 O844 2.325 . S
Tb816 O847 2.341 . S
Tb817 C827 2.809 . S
Tb817 O838 2.325 . S
Tb817 O841 2.341 . S
Tb817 O842 2.484 . S
Tb817 O843 2.440 . S
Tb817 O844 2.658 . S
Tb817 O845 2.409 . S
Tb817 O846 2.378 . S
C818 Tb816 2.809 . S
C818 C819 1.514 . S
C818 O836 1.248 . S
C818 O837 1.266 . S
C819 C818 1.514 . S
C819 C820 1.359 . S
C819 C824 1.348 . S
C820 C819 1.359 . S
C820 C821 1.380 . S
C820 H848 0.929 . S
C821 C820 1.380 . S
C821 C822 1.347 . S
C821 H849 0.931 . S
C822 C821 1.347 . S
C822 C823 1.369 . S
C823 C822 1.369 . S
C823 C824 1.408 . S
C823 H850 0.930 . S
C824 C819 1.348 . S
C824 C823 1.408 . S
C824 H851 0.930 . S
C825 O838 1.281 . S
C825 O839 1.254 . S
C826 O840 1.236 . S
C826 O841 1.266 . S
C827 Tb817 2.809 . S
C827 C828 1.514 . S
C827 O842 1.248 . S
C827 O843 1.266 . S
C828 C827 1.514 . S
C828 C829 1.359 . S
C828 C833 1.348 . S
C829 C828 1.359 . S
C829 C830 1.380 1_556 S
C829 H852 0.929 . S
C830 C829 1.380 1_554 S
C830 C831 1.347 . S
C830 H853 0.931 . S
C831 C830 1.347 . S
C831 C832 1.369 . S
C832 C831 1.369 . S
C832 C833 1.408 1_554 S
C832 H854 0.930 . S
C833 C828 1.348 . S
C833 C832 1.408 1_556 S
C833 H855 0.930 . S
C834 O844 1.281 . S
C834 O845 1.254 . S
C835 O846 1.236 . S
C835 O847 1.266 . S
O836 Tb816 2.484 . S
O836 C818 1.248 . S
O837 Tb816 2.440 . S
O837 C818 1.266 . S
O838 Tb816 2.658 . S
O838 Tb817 2.325 . S
O838 C825 1.281 . S
O839 Tb816 2.409 . S
O839 C825 1.254 . S
O840 Tb816 2.378 . S
O840 C826 1.236 . S
O841 Tb817 2.341 . S
O841 C826 1.266 . S
O842 Tb817 2.484 . S
O842 C827 1.248 . S
O843 Tb817 2.440 . S
O843 C827 1.266 . S
O844 Tb816 2.325 . S
O844 Tb817 2.658 . S
O844 C834 1.281 . S
O845 Tb817 2.409 . S
O845 C834 1.254 . S
O846 Tb817 2.378 . S
O846 C835 1.236 . S
O847 Tb816 2.341 . S
O847 C835 1.266 . S
H848 C820 0.929 . S
H849 C821 0.931 . S
H850 C823 0.930 . S
H851 C824 0.930 . S
H852 C829 0.929 . S
H853 C830 0.931 . S
H854 C832 0.930 . S
H855 C833 0.930 . S
Tb856 C858 2.809 . S
Tb856 O876 2.484 . S
Tb856 O877 2.440 . S
Tb856 O878 2.658 . S
Tb856 O879 2.409 . S
Tb856 O880 2.378 . S
Tb856 O884 2.325 . S
Tb856 O887 2.341 . S
Tb857 C867 2.809 . S
Tb857 O878 2.325 . S
Tb857 O881 2.341 . S
Tb857 O882 2.484 . S
Tb857 O883 2.440 . S
Tb857 O884 2.658 . S
Tb857 O885 2.409 . S
Tb857 O886 2.378 . S
C858 Tb856 2.809 . S
C858 C859 1.514 . S
C858 O876 1.248 . S
C858 O877 1.266 . S
C859 C858 1.514 . S
C859 C860 1.359 . S
C859 C864 1.348 . S
C860 C859 1.359 . S
C860 C861 1.380 . S
C860 H888 0.929 . S
C861 C860 1.380 . S
C861 C862 1.347 . S
C861 H889 0.931 . S
C862 C861 1.347 . S
C862 C863 1.369 . S
C863 C862 1.369 . S
C863 C864 1.408 . S
C863 H890 0.930 . S
C864 C859 1.348 . S
C864 C863 1.408 . S
C864 H891 0.930 . S
C865 O878 1.281 . S
C865 O879 1.254 . S
C866 O880 1.236 . S
C866 O881 1.266 . S
C867 Tb857 2.809 . S
C867 C868 1.514 . S
C867 O882 1.248 . S
C867 O883 1.266 . S
C868 C867 1.514 . S
C868 C869 1.359 . S
C868 C873 1.348 . S
C869 C868 1.359 . S
C869 C870 1.380 . S
C869 H892 0.929 . S
C870 C869 1.380 . S
C870 C871 1.347 . S
C870 H893 0.931 . S
C871 C870 1.347 . S
C871 C872 1.369 . S
C872 C871 1.369 . S
C872 C873 1.408 . S
C872 H894 0.930 . S
C873 C868 1.348 . S
C873 C872 1.408 . S
C873 H895 0.930 . S
C874 O884 1.281 . S
C874 O885 1.254 . S
C875 O886 1.236 . S
C875 O887 1.266 . S
O876 Tb856 2.484 . S
O876 C858 1.248 . S
O877 Tb856 2.440 . S
O877 C858 1.266 . S
O878 Tb856 2.658 . S
O878 Tb857 2.325 . S
O878 C865 1.281 . S
O879 Tb856 2.409 . S
O879 C865 1.254 . S
O880 Tb856 2.378 . S
O880 C866 1.236 . S
O881 Tb857 2.341 . S
O881 C866 1.266 . S
O882 Tb857 2.484 . S
O882 C867 1.248 . S
O883 Tb857 2.440 . S
O883 C867 1.266 . S
O884 Tb856 2.325 . S
O884 Tb857 2.658 . S
O884 C874 1.281 . S
O885 Tb857 2.409 . S
O885 C874 1.254 . S
O886 Tb857 2.378 . S
O886 C875 1.236 . S
O887 Tb856 2.341 . S
O887 C875 1.266 . S
H888 C860 0.929 . S
H889 C861 0.931 . S
H890 C863 0.930 . S
H891 C864 0.930 . S
H892 C869 0.929 . S
H893 C870 0.931 . S
H894 C872 0.930 . S
H895 C873 0.930 . S
Tb896 C898 2.809 . S
Tb896 O916 2.484 . S
Tb896 O917 2.440 . S
Tb896 O918 2.658 . S
Tb896 O919 2.409 . S
Tb896 O920 2.378 . S
Tb896 O924 2.325 . S
Tb896 O927 2.341 . S
Tb897 C907 2.809 . S
Tb897 O918 2.325 . S
Tb897 O921 2.341 . S
Tb897 O922 2.484 . S
Tb897 O923 2.440 . S
Tb897 O924 2.658 . S
Tb897 O925 2.409 . S
Tb897 O926 2.378 . S
C898 Tb896 2.809 . S
C898 C899 1.514 . S
C898 O916 1.248 . S
C898 O917 1.266 . S
C899 C898 1.514 . S
C899 C900 1.359 . S
C899 C904 1.348 . S
C900 C899 1.359 . S
C900 C901 1.380 . S
C900 H928 0.929 . S
C901 C900 1.380 . S
C901 C902 1.347 . S
C901 H929 0.931 . S
C902 C901 1.347 . S
C902 C903 1.369 . S
C903 C902 1.369 . S
C903 C904 1.408 . S
C903 H930 0.930 . S
C904 C899 1.348 . S
C904 C903 1.408 . S
C904 H931 0.930 . S
C905 O918 1.281 . S
C905 O919 1.254 . S
C906 O920 1.236 . S
C906 O921 1.266 . S
C907 Tb897 2.809 . S
C907 C908 1.514 . S
C907 O922 1.248 . S
C907 O923 1.266 . S
C908 C907 1.514 . S
C908 C909 1.359 . S
C908 C913 1.348 . S
C909 C908 1.359 . S
C909 C910 1.380 . S
C909 H932 0.929 . S
C910 C909 1.380 . S
C910 C911 1.347 . S
C910 H933 0.931 . S
C911 C910 1.347 . S
C911 C912 1.369 . S
C912 C911 1.369 . S
C912 C913 1.408 . S
C912 H934 0.930 . S
C913 C908 1.348 . S
C913 C912 1.408 . S
C913 H935 0.930 . S
C914 O924 1.281 . S
C914 O925 1.254 . S
C915 O926 1.236 . S
C915 O927 1.266 . S
O916 Tb896 2.484 . S
O916 C898 1.248 . S
O917 Tb896 2.440 . S
O917 C898 1.266 . S
O918 Tb896 2.658 . S
O918 Tb897 2.325 . S
O918 C905 1.281 . S
O919 Tb896 2.409 . S
O919 C905 1.254 . S
O920 Tb896 2.378 . S
O920 C906 1.236 . S
O921 Tb897 2.341 . S
O921 C906 1.266 . S
O922 Tb897 2.484 . S
O922 C907 1.248 . S
O923 Tb897 2.440 . S
O923 C907 1.266 . S
O924 Tb896 2.325 . S
O924 Tb897 2.658 . S
O924 C914 1.281 . S
O925 Tb897 2.409 . S
O925 C914 1.254 . S
O926 Tb897 2.378 . S
O926 C915 1.236 . S
O927 Tb896 2.341 . S
O927 C915 1.266 . S
H928 C900 0.929 . S
H929 C901 0.931 . S
H930 C903 0.930 . S
H931 C904 0.930 . S
H932 C909 0.929 . S
H933 C910 0.931 . S
H934 C912 0.930 . S
H935 C913 0.930 . S
Tb936 C938 2.809 . S
Tb936 O956 2.484 . S
Tb936 O957 2.440 . S
Tb936 O958 2.658 . S
Tb936 O959 2.409 . S
Tb936 O960 2.378 . S
Tb936 O964 2.325 . S
Tb936 O967 2.341 . S
Tb937 C947 2.809 1_455 S
Tb937 O958 2.325 . S
Tb937 O961 2.341 . S
Tb937 O962 2.484 1_455 S
Tb937 O963 2.440 1_455 S
Tb937 O964 2.658 . S
Tb937 O965 2.409 . S
Tb937 O966 2.378 . S
C938 Tb936 2.809 . S
C938 C939 1.514 . S
C938 O956 1.248 . S
C938 O957 1.266 . S
C939 C938 1.514 . S
C939 C940 1.359 . S
C939 C944 1.348 . S
C940 C939 1.359 . S
C940 C941 1.380 . S
C940 H968 0.929 . S
C941 C940 1.380 . S
C941 C942 1.347 . S
C941 H969 0.931 . S
C942 C941 1.347 . S
C942 C943 1.369 . S
C943 C942 1.369 . S
C943 C944 1.408 . S
C943 H970 0.948 . S
C944 C939 1.348 . S
C944 C943 1.408 . S
C944 H971 0.930 . S
C945 O958 1.281 . S
C945 O959 1.254 . S
C946 O960 1.236 . S
C946 O961 1.266 . S
C947 Tb937 2.809 1_655 S
C947 C948 1.514 . S
C947 O962 1.248 . S
C947 O963 1.266 . S
C948 C947 1.514 . S
C948 C949 1.359 . S
C948 C953 1.348 . S
C949 C948 1.359 . S
C949 C950 1.380 . S
C949 H972 0.929 . S
C950 C949 1.380 . S
C950 C951 1.347 . S
C950 H973 0.931 . S
C951 C950 1.347 . S
C951 C952 1.369 . S
C952 C951 1.369 . S
C952 C953 1.408 . S
C952 H974 0.930 . S
C953 C948 1.348 . S
C953 C952 1.408 . S
C953 H975 0.930 . S
C954 O964 1.281 . S
C954 O965 1.254 . S
C955 O966 1.236 . S
C955 O967 1.266 . S
O956 Tb936 2.484 . S
O956 C938 1.248 . S
O957 Tb936 2.440 . S
O957 C938 1.266 . S
O958 Tb936 2.658 . S
O958 Tb937 2.325 . S
O958 C945 1.281 . S
O959 Tb936 2.409 . S
O959 C945 1.254 . S
O960 Tb936 2.378 . S
O960 C946 1.236 . S
O961 Tb937 2.341 . S
O961 C946 1.266 . S
O962 Tb937 2.484 1_655 S
O962 C947 1.248 . S
O963 Tb937 2.440 1_655 S
O963 C947 1.266 . S
O964 Tb936 2.325 . S
O964 Tb937 2.658 . S
O964 C954 1.281 . S
O965 Tb937 2.409 . S
O965 C954 1.254 . S
O966 Tb937 2.378 . S
O966 C955 1.236 . S
O967 Tb936 2.341 . S
O967 C955 1.266 . S
H968 C940 0.929 . S
H969 C941 0.931 . S
H970 C943 0.948 . S
H971 C944 0.930 . S
H972 C949 0.929 . S
H973 C950 0.931 . S
H974 C952 0.930 . S
H975 C953 0.930 . S
C976 C977 1.369 . S
C976 C978 1.419 . S
C976 H980 0.930 . S
C977 C976 1.369 . S
C977 C986 1.429 . S
C978 C976 1.419 . S
C978 C979 1.363 . S
C978 H981 0.929 . S
C979 C978 1.363 . S
C979 C985 1.428 . S
H980 C976 0.930 . S
H981 C978 0.929 . S
S982 N983 1.613 . S
S982 N984 1.610 . S
N983 S982 1.613 . S
N983 C986 1.350 1_655 S
N984 S982 1.610 . S
N984 C985 1.351 1_655 S
C985 C979 1.428 . S
C985 N984 1.351 1_455 S
C985 C986 1.434 . S
C986 C977 1.429 . S
C986 N983 1.350 1_455 S
C986 C985 1.434 . S
C987 C988 1.369 . S
C987 C989 1.419 . S
C987 H991 0.930 . S
C988 C987 1.369 . S
C988 C997 1.429 . S
C989 C987 1.419 . S
C989 C990 1.363 . S
C989 H992 0.929 . S
C990 C989 1.363 . S
C990 C996 1.428 . S
H991 C987 0.930 . S
H992 C989 0.929 . S
S993 N994 1.613 . S
S993 N995 1.610 . S
N994 S993 1.613 . S
N994 C997 1.350 . S
N995 S993 1.610 . S
N995 C996 1.351 . S
C996 C990 1.428 . S
C996 N995 1.351 . S
C996 C997 1.434 . S
C997 C988 1.429 . S
C997 N994 1.350 . S
C997 C996 1.434 . S
C998 C999 1.369 . S
C998 C1000 1.419 . S
C998 H1002 0.930 . S
C999 C998 1.369 . S
C999 C1008 1.429 . S
C1000 C998 1.419 . S
C1000 C1001 1.363 . S
C1000 H1003 0.929 . S
C1001 C1000 1.363 . S
C1001 C1007 1.428 . S
H1002 C998 0.930 . S
H1003 C1000 0.929 . S
S1004 N1005 1.613 . S
S1004 N1006 1.610 . S
N1005 S1004 1.613 . S
N1005 C1008 1.350 . S
N1006 S1004 1.610 . S
N1006 C1007 1.351 . S
C1007 C1001 1.428 . S
C1007 N1006 1.351 . S
C1007 C1008 1.434 . S
C1008 C999 1.429 . S
C1008 N1005 1.350 . S
C1008 C1007 1.434 . S
C1009 C1010 1.369 . S
C1009 C1011 1.419 . S
C1009 H1013 0.930 . S
C1010 C1009 1.369 . S
C1010 C1019 1.429 . S
C1011 C1009 1.419 . S
C1011 C1012 1.363 . S
C1011 H1014 0.929 . S
C1012 C1011 1.363 . S
C1012 C1018 1.428 . S
H1013 C1009 0.930 . S
H1014 C1011 0.929 . S
S1015 N1016 1.613 . S
S1015 N1017 1.610 . S
N1016 S1015 1.613 . S
N1016 C1019 1.350 . S
N1017 S1015 1.610 . S
N1017 C1018 1.351 . S
C1018 C1012 1.428 . S
C1018 N1017 1.351 . S
C1018 C1019 1.434 . S
C1019 C1010 1.429 . S
C1019 N1016 1.350 . S
C1019 C1018 1.434 . S
C1020 C1021 1.369 . S
C1020 C1022 1.419 . S
C1020 H1024 0.930 . S
C1021 C1020 1.369 . S
C1021 C1030 1.429 . S
C1022 C1020 1.419 . S
C1022 C1023 1.363 . S
C1022 H1025 0.929 . S
C1023 C1022 1.363 . S
C1023 C1029 1.428 . S
H1024 C1020 0.930 . S
H1025 C1022 0.929 . S
S1026 N1027 1.613 . S
S1026 N1028 1.610 . S
N1027 S1026 1.613 . S
N1027 C1030 1.350 . S
N1028 S1026 1.610 . S
N1028 C1029 1.351 . S
C1029 C1023 1.428 . S
C1029 N1028 1.351 . S
C1029 C1030 1.434 . S
C1030 C1021 1.429 . S
C1030 N1027 1.350 . S
C1030 C1029 1.434 . S
C1031 C1032 1.369 . S
C1031 C1033 1.419 . S
C1031 H1035 0.930 . S
C1032 C1031 1.369 . S
C1032 C1041 1.429 . S
C1033 C1031 1.419 . S
C1033 C1034 1.363 . S
C1033 H1036 0.929 . S
C1034 C1033 1.363 . S
C1034 C1040 1.428 . S
H1035 C1031 0.930 . S
H1036 C1033 0.929 . S
S1037 N1038 1.613 . S
S1037 N1039 1.610 . S
N1038 S1037 1.613 . S
N1038 C1041 1.350 . S
N1039 S1037 1.610 . S
N1039 C1040 1.351 . S
C1040 C1034 1.428 . S
C1040 N1039 1.351 . S
C1040 C1041 1.434 . S
C1041 C1032 1.429 . S
C1041 N1038 1.350 . S
C1041 C1040 1.434 . S
C1042 C1043 1.369 . S
C1042 C1044 1.419 . S
C1042 H1046 0.930 . S
C1043 C1042 1.369 . S
C1043 C1052 1.429 . S
C1044 C1042 1.419 . S
C1044 C1045 1.363 . S
C1044 H1047 0.929 . S
C1045 C1044 1.363 . S
C1045 C1051 1.428 . S
H1046 C1042 0.930 . S
H1047 C1044 0.929 . S
S1048 N1049 1.613 . S
S1048 N1050 1.610 . S
N1049 S1048 1.613 . S
N1049 C1052 1.350 . S
N1050 S1048 1.610 . S
N1050 C1051 1.351 . S
C1051 C1045 1.428 . S
C1051 N1050 1.351 . S
C1051 C1052 1.434 . S
C1052 C1043 1.429 . S
C1052 N1049 1.350 . S
C1052 C1051 1.434 . S
C1053 C1054 1.369 . S
C1053 C1055 1.419 . S
C1053 H1057 0.930 . S
C1054 C1053 1.369 . S
C1054 C1063 1.429 . S
C1055 C1053 1.419 . S
C1055 C1056 1.363 . S
C1055 H1058 0.929 . S
C1056 C1055 1.363 . S
C1056 C1062 1.428 . S
H1057 C1053 0.930 . S
H1058 C1055 0.929 . S
S1059 N1060 1.613 . S
S1059 N1061 1.610 . S
N1060 S1059 1.613 . S
N1060 C1063 1.350 . S
N1061 S1059 1.610 . S
N1061 C1062 1.351 . S
C1062 C1056 1.428 . S
C1062 N1061 1.351 . S
C1062 C1063 1.434 . S
C1063 C1054 1.429 . S
C1063 N1060 1.350 . S
C1063 C1062 1.434 . S
C1064 C1065 1.369 . S
C1064 C1066 1.419 . S
C1064 H1068 0.930 . S
C1065 C1064 1.369 . S
C1065 C1074 1.429 1_655 S
C1066 C1064 1.419 . S
C1066 C1067 1.363 1_655 S
C1066 H1069 0.929 . S
C1067 C1066 1.363 1_455 S
C1067 C1073 1.428 . S
H1068 C1064 0.930 . S
H1069 C1066 0.929 . S
S1070 N1071 1.613 1_545 S
S1070 N1072 1.610 . S
N1071 S1070 1.613 1_565 S
N1071 C1074 1.350 1_565 S
N1072 S1070 1.610 . S
N1072 C1073 1.351 . S
C1073 C1067 1.428 . S
C1073 N1072 1.351 . S
C1073 C1074 1.434 . S
C1074 C1065 1.429 1_455 S
C1074 N1071 1.350 1_545 S
C1074 C1073 1.434 . S
C1075 C1076 1.369 . S
C1075 C1077 1.419 . S
C1075 H1079 0.930 . S
C1076 C1075 1.369 . S
C1076 C1085 1.429 . S
C1077 C1075 1.419 . S
C1077 C1078 1.363 . S
C1077 H1080 0.929 . S
C1078 C1077 1.363 . S
C1078 C1084 1.428 . S
H1079 C1075 0.930 . S
H1080 C1077 0.929 . S
S1081 N1082 1.613 . S
S1081 N1083 1.610 . S
N1082 S1081 1.613 . S
N1082 C1085 1.350 . S
N1083 S1081 1.610 . S
N1083 C1084 1.351 . S
C1084 C1078 1.428 . S
C1084 N1083 1.351 . S
C1084 C1085 1.434 . S
C1085 C1076 1.429 . S
C1085 N1082 1.350 . S
C1085 C1084 1.434 . S
C1086 C1087 1.369 . S
C1086 C1088 1.419 . S
C1086 H1090 0.930 . S
C1087 C1086 1.369 . S
C1087 C1096 1.429 . S
C1088 C1086 1.419 . S
C1088 C1089 1.363 . S
C1088 H1091 0.929 . S
C1089 C1088 1.363 . S
C1089 C1095 1.428 . S
H1090 C1086 0.930 . S
H1091 C1088 0.929 . S
S1092 N1093 1.613 . S
S1092 N1094 1.610 . S
N1093 S1092 1.613 . S
N1093 C1096 1.350 . S
N1094 S1092 1.610 . S
N1094 C1095 1.351 . S
C1095 C1089 1.428 . S
C1095 N1094 1.351 . S
C1095 C1096 1.434 . S
C1096 C1087 1.429 . S
C1096 N1093 1.350 . S
C1096 C1095 1.434 . S
C1097 C1098 1.369 1_556 S
C1097 C1099 1.419 . S
C1097 H1101 0.930 1_556 S
C1098 C1097 1.369 1_554 S
C1098 C1107 1.429 1_554 S
C1099 C1097 1.419 . S
C1099 C1100 1.363 . S
C1099 H1102 0.929 . S
C1100 C1099 1.363 . S
C1100 C1106 1.428 . S
H1101 C1097 0.930 1_554 S
H1102 C1099 0.929 . S
S1103 N1104 1.613 . S
S1103 N1105 1.610 . S
N1104 S1103 1.613 . S
N1104 C1107 1.350 . S
N1105 S1103 1.610 . S
N1105 C1106 1.351 . S
C1106 C1100 1.428 . S
C1106 N1105 1.351 . S
C1106 C1107 1.434 . S
C1107 C1098 1.429 1_556 S
C1107 N1104 1.350 . S
C1107 C1106 1.434 . S
C1108 C1109 1.369 . S
C1108 C1110 1.419 1_655 S
C1108 H1112 0.930 . S
C1109 C1108 1.369 . S
C1109 C1118 1.429 1_545 S
C1110 C1108 1.419 1_455 S
C1110 C1111 1.363 . S
C1110 H1113 0.929 . S
C1111 C1110 1.363 . S
C1111 C1117 1.428 1_445 S
H1112 C1108 0.930 . S
H1113 C1110 0.929 . S
S1114 N1115 1.613 . S
S1114 N1116 1.610 . S
N1115 S1114 1.613 . S
N1115 C1118 1.350 . S
N1116 S1114 1.610 . S
N1116 C1117 1.351 . S
C1117 C1111 1.428 1_665 S
C1117 N1116 1.351 . S
C1117 C1118 1.434 . S
C1118 C1109 1.429 1_565 S
C1118 N1115 1.350 . S
C1118 C1117 1.434 . S
C1119 C1120 1.369 . S
C1119 C1121 1.419 . S
C1119 H1123 0.930 . S
C1120 C1119 1.369 . S
C1120 C1129 1.429 . S
C1121 C1119 1.419 . S
C1121 C1122 1.363 . S
C1121 H1124 0.929 . S
C1122 C1121 1.363 . S
C1122 C1128 1.428 . S
H1123 C1119 0.930 . S
H1124 C1121 0.929 . S
S1125 N1126 1.613 . S
S1125 N1127 1.610 . S
N1126 S1125 1.613 . S
N1126 C1129 1.350 . S
N1127 S1125 1.610 . S
N1127 C1128 1.351 . S
C1128 C1122 1.428 . S
C1128 N1127 1.351 . S
C1128 C1129 1.434 . S
C1129 C1120 1.429 . S
C1129 N1126 1.350 . S
C1129 C1128 1.434 . S
C1130 C1131 1.369 . S
C1130 C1132 1.399 1_556 S
C1130 H1134 0.930 . S
C1131 C1130 1.369 . S
C1131 C1140 1.429 . S
C1132 C1130 1.399 1_554 S
C1132 C1133 1.375 . S
C1132 H1135 0.938 . S
C1133 C1132 1.375 . S
C1133 C1139 1.428 1_554 S
H1134 C1130 0.930 . S
H1135 C1132 0.938 . S
S1136 N1137 1.613 . S
S1136 N1138 1.610 1_565 S
N1137 S1136 1.613 . S
N1137 C1140 1.350 1_565 S
N1138 S1136 1.610 1_545 S
N1138 C1139 1.351 . S
C1139 C1133 1.428 1_556 S
C1139 N1138 1.351 . S
C1139 C1140 1.434 . S
C1140 C1131 1.429 . S
C1140 N1137 1.350 1_545 S
C1140 C1139 1.434 . S
C1141 C1142 1.369 . S
C1141 C1143 1.419 . S
C1141 H1145 0.930 . S
C1142 C1141 1.369 . S
C1142 C1151 1.429 . S
C1143 C1141 1.419 . S
C1143 C1144 1.363 . S
C1143 H1146 0.929 . S
C1144 C1143 1.363 . S
C1144 C1150 1.428 . S
H1145 C1141 0.930 . S
H1146 C1143 0.929 . S
S1147 N1148 1.613 . S
S1147 N1149 1.610 . S
N1148 S1147 1.613 . S
N1148 C1151 1.350 . S
N1149 S1147 1.610 . S
N1149 C1150 1.351 . S
C1150 C1144 1.428 . S
C1150 N1149 1.351 . S
C1150 C1151 1.434 . S
C1151 C1142 1.429 . S
C1151 N1148 1.350 . S
C1151 C1150 1.434 . S
C1152 C1153 1.369 . S
C1152 C1154 1.419 . S
C1152 H1156 0.930 . S
C1153 C1152 1.369 . S
C1153 C1162 1.429 . S
C1154 C1152 1.419 . S
C1154 C1155 1.363 . S
C1154 H1157 0.929 . S
C1155 C1154 1.363 . S
C1155 C1161 1.428 . S
H1156 C1152 0.930 . S
H1157 C1154 0.929 . S
S1158 N1159 1.613 . S
S1158 N1160 1.610 . S
N1159 S1158 1.613 . S
N1159 C1162 1.350 . S
N1160 S1158 1.610 . S
N1160 C1161 1.351 . S
C1161 C1155 1.428 . S
C1161 N1160 1.351 . S
C1161 C1162 1.434 . S
C1162 C1153 1.429 . S
C1162 N1159 1.350 . S
C1162 C1161 1.434 . S
C1163 C1164 1.369 . S
C1163 C1165 1.419 . S
C1163 H1167 0.930 . S
C1164 C1163 1.369 . S
C1164 C1173 1.429 . S
C1165 C1163 1.419 . S
C1165 C1166 1.363 . S
C1165 H1168 0.929 . S
C1166 C1165 1.363 . S
C1166 C1172 1.428 . S
H1167 C1163 0.930 . S
H1168 C1165 0.929 . S
S1169 N1170 1.613 . S
S1169 N1171 1.610 . S
N1170 S1169 1.613 . S
N1170 C1173 1.350 . S
N1171 S1169 1.610 . S
N1171 C1172 1.351 . S
C1172 C1166 1.428 . S
C1172 N1171 1.351 . S
C1172 C1173 1.434 . S
C1173 C1164 1.429 . S
C1173 N1170 1.350 . S
C1173 C1172 1.434 . S
C1174 C1175 1.369 . S
C1174 C1176 1.419 . S
C1174 H1178 0.930 . S
C1175 C1174 1.369 . S
C1175 C1184 1.429 . S
C1176 C1174 1.419 . S
C1176 C1177 1.363 . S
C1176 H1179 0.929 . S
C1177 C1176 1.363 . S
C1177 C1183 1.428 . S
H1178 C1174 0.930 . S
H1179 C1176 0.929 . S
S1180 N1181 1.613 . S
S1180 N1182 1.610 . S
N1181 S1180 1.613 . S
N1181 C1184 1.350 . S
N1182 S1180 1.610 . S
N1182 C1183 1.351 . S
C1183 C1177 1.428 . S
C1183 N1182 1.351 . S
C1183 C1184 1.434 . S
C1184 C1175 1.429 . S
C1184 N1181 1.350 . S
C1184 C1183 1.434 . S
C1185 C1186 1.369 . S
C1185 C1187 1.419 . S
C1185 H1189 0.930 . S
C1186 C1185 1.369 . S
C1186 C1195 1.429 . S
C1187 C1185 1.419 . S
C1187 C1188 1.363 . S
C1187 H1190 0.929 . S
C1188 C1187 1.363 . S
C1188 C1194 1.428 . S
H1189 C1185 0.930 . S
H1190 C1187 0.929 . S
S1191 N1192 1.613 . S
S1191 N1193 1.610 . S
N1192 S1191 1.613 . S
N1192 C1195 1.350 . S
N1193 S1191 1.610 . S
N1193 C1194 1.351 . S
C1194 C1188 1.428 . S
C1194 N1193 1.351 . S
C1194 C1195 1.434 . S
C1195 C1186 1.429 . S
C1195 N1192 1.350 . S
C1195 C1194 1.434 . S
C1196 C1197 1.369 . S
C1196 C1198 1.419 . S
C1196 H1200 0.930 . S
C1197 C1196 1.369 . S
C1197 C1206 1.429 . S
C1198 C1196 1.419 . S
C1198 C1199 1.363 . S
C1198 H1201 0.929 . S
C1199 C1198 1.363 . S
C1199 C1205 1.428 . S
H1200 C1196 0.930 . S
H1201 C1198 0.929 . S
S1202 N1203 1.613 . S
S1202 N1204 1.610 . S
N1203 S1202 1.613 . S
N1203 C1206 1.350 . S
N1204 S1202 1.610 . S
N1204 C1205 1.351 . S
C1205 C1199 1.428 . S
C1205 N1204 1.351 . S
C1205 C1206 1.434 . S
C1206 C1197 1.429 . S
C1206 N1203 1.350 . S
C1206 C1205 1.434 . S
C1207 C1208 1.369 . S
C1207 C1209 1.419 . S
C1207 H1211 0.930 . S
C1208 C1207 1.369 . S
C1208 C1217 1.429 . S
C1209 C1207 1.419 . S
C1209 C1210 1.363 . S
C1209 H1212 0.929 . S
C1210 C1209 1.363 . S
C1210 C1216 1.428 . S
H1211 C1207 0.930 . S
H1212 C1209 0.929 . S
S1213 N1214 1.613 . S
S1213 N1215 1.610 . S
N1214 S1213 1.613 . S
N1214 C1217 1.350 . S
N1215 S1213 1.610 . S
N1215 C1216 1.351 . S
C1216 C1210 1.428 . S
C1216 N1215 1.351 . S
C1216 C1217 1.434 . S
C1217 C1208 1.429 . S
C1217 N1214 1.350 . S
C1217 C1216 1.434 . S
C1218 C1219 1.369 . S
C1218 C1220 1.419 . S
C1218 H1222 0.930 . S
C1219 C1218 1.369 . S
C1219 C1228 1.429 . S
C1220 C1218 1.419 . S
C1220 C1221 1.363 . S
C1220 H1223 0.929 . S
C1221 C1220 1.363 . S
C1221 C1227 1.428 . S
H1222 C1218 0.930 . S
H1223 C1220 0.929 . S
S1224 N1225 1.613 . S
S1224 N1226 1.610 . S
N1225 S1224 1.613 . S
N1225 C1228 1.350 . S
N1226 S1224 1.610 . S
N1226 C1227 1.351 . S
C1227 C1221 1.428 . S
C1227 N1226 1.351 . S
C1227 C1228 1.434 . S
C1228 C1219 1.429 . S
C1228 N1225 1.350 . S
C1228 C1227 1.434 . S
C1229 C1230 1.369 . S
C1229 C1231 1.419 . S
C1229 H1233 0.930 . S
C1230 C1229 1.369 . S
C1230 C1239 1.429 . S
C1231 C1229 1.419 . S
C1231 C1232 1.363 . S
C1231 H1234 0.929 . S
C1232 C1231 1.363 . S
C1232 C1238 1.428 . S
H1233 C1229 0.930 . S
H1234 C1231 0.929 . S
S1235 N1236 1.613 . S
S1235 N1237 1.610 . S
N1236 S1235 1.613 . S
N1236 C1239 1.350 . S
N1237 S1235 1.610 . S
N1237 C1238 1.351 . S
C1238 C1232 1.428 . S
C1238 N1237 1.351 . S
C1238 C1239 1.434 . S
C1239 C1230 1.429 . S
C1239 N1236 1.350 . S
C1239 C1238 1.434 . S
C1240 C1241 1.369 . S
C1240 C1242 1.419 . S
C1240 H1244 0.930 . S
C1241 C1240 1.369 . S
C1241 C1250 1.429 . S
C1242 C1240 1.419 . S
C1242 C1243 1.363 . S
C1242 H1245 0.929 . S
C1243 C1242 1.363 . S
C1243 C1249 1.428 . S
H1244 C1240 0.930 . S
H1245 C1242 0.929 . S
S1246 N1247 1.613 . S
S1246 N1248 1.610 . S
N1247 S1246 1.613 . S
N1247 C1250 1.350 . S
N1248 S1246 1.610 . S
N1248 C1249 1.351 . S
C1249 C1243 1.428 . S
C1249 N1248 1.351 . S
C1249 C1250 1.434 . S
C1250 C1241 1.429 . S
C1250 N1247 1.350 . S
C1250 C1249 1.434 . S
C1251 C1252 1.369 . S
C1251 C1253 1.419 . S
C1251 H1255 0.930 . S
C1252 C1251 1.369 . S
C1252 C1261 1.429 . S
C1253 C1251 1.419 . S
C1253 C1254 1.363 . S
C1253 H1256 0.929 . S
C1254 C1253 1.363 . S
C1254 C1260 1.428 . S
H1255 C1251 0.930 . S
H1256 C1253 0.929 . S
S1257 N1258 1.613 . S
S1257 N1259 1.610 . S
N1258 S1257 1.613 . S
N1258 C1261 1.350 . S
N1259 S1257 1.610 . S
N1259 C1260 1.351 . S
C1260 C1254 1.428 . S
C1260 N1259 1.351 . S
C1260 C1261 1.434 . S
C1261 C1252 1.429 . S
C1261 N1258 1.350 . S
C1261 C1260 1.434 . S
C1262 C1263 1.369 . S
C1262 C1264 1.419 . S
C1262 H1266 0.930 . S
C1263 C1262 1.369 . S
C1263 C1272 1.429 . S
C1264 C1262 1.419 . S
C1264 C1265 1.363 . S
C1264 H1267 0.929 . S
C1265 C1264 1.363 . S
C1265 C1271 1.428 . S
H1266 C1262 0.930 . S
H1267 C1264 0.929 . S
S1268 N1269 1.613 . S
S1268 N1270 1.610 . S
N1269 S1268 1.613 . S
N1269 C1272 1.350 . S
N1270 S1268 1.610 . S
N1270 C1271 1.351 . S
C1271 C1265 1.428 . S
C1271 N1270 1.351 . S
C1271 C1272 1.434 . S
C1272 C1263 1.429 . S
C1272 N1269 1.350 . S
C1272 C1271 1.434 . S
C1273 C1274 1.369 . S
C1273 C1275 1.419 . S
C1273 H1277 0.930 . S
C1274 C1273 1.369 . S
C1274 C1283 1.429 . S
C1275 C1273 1.419 . S
C1275 C1276 1.363 . S
C1275 H1278 0.929 . S
C1276 C1275 1.363 . S
C1276 C1282 1.428 . S
H1277 C1273 0.930 . S
H1278 C1275 0.929 . S
S1279 N1280 1.613 . S
S1279 N1281 1.610 . S
N1280 S1279 1.613 . S
N1280 C1283 1.350 . S
N1281 S1279 1.610 . S
N1281 C1282 1.351 . S
C1282 C1276 1.428 . S
C1282 N1281 1.351 . S
C1282 C1283 1.434 . S
C1283 C1274 1.429 . S
C1283 N1280 1.350 . S
C1283 C1282 1.434 . S
C1284 C1285 1.369 . S
C1284 C1286 1.419 . S
C1284 H1288 0.930 . S
C1285 C1284 1.369 . S
C1285 C1294 1.429 1_455 S
C1286 C1284 1.419 . S
C1286 C1287 1.361 1_455 S
C1286 H1289 0.929 . S
C1287 C1286 1.361 1_655 S
C1287 C1293 1.430 . S
H1288 C1284 0.930 . S
H1289 C1286 0.929 . S
S1290 N1291 1.613 . S
S1290 N1292 1.610 . S
N1291 S1290 1.613 . S
N1291 C1294 1.350 . S
N1292 S1290 1.610 . S
N1292 C1293 1.351 . S
C1293 C1287 1.430 . S
C1293 N1292 1.351 . S
C1293 C1294 1.434 . S
C1294 C1285 1.429 1_655 S
C1294 N1291 1.350 . S
C1294 C1293 1.434 . S
C1295 C1296 1.369 . S
C1295 C1297 1.419 . S
C1295 H1299 0.930 . S
C1296 C1295 1.369 . S
C1296 C1305 1.429 . S
C1297 C1295 1.419 . S
C1297 C1298 1.363 . S
C1297 H1300 0.929 . S
C1298 C1297 1.363 . S
C1298 C1304 1.428 . S
H1299 C1295 0.930 . S
H1300 C1297 0.929 . S
S1301 N1302 1.613 . S
S1301 N1303 1.610 . S
N1302 S1301 1.613 . S
N1302 C1305 1.350 . S
N1303 S1301 1.610 . S
N1303 C1304 1.351 . S
C1304 C1298 1.428 . S
C1304 N1303 1.351 . S
C1304 C1305 1.434 . S
C1305 C1296 1.429 . S
C1305 N1302 1.350 . S
C1305 C1304 1.434 . S
C1306 C1307 1.369 . S
C1306 C1308 1.419 1_556 S
C1306 H1310 0.930 . S
C1307 C1306 1.369 . S
C1307 C1316 1.429 . S
C1308 C1306 1.419 1_554 S
C1308 C1309 1.363 . S
C1308 H1311 0.929 . S
C1309 C1308 1.363 . S
C1309 C1315 1.428 . S
H1310 C1306 0.930 . S
H1311 C1308 0.929 . S
S1312 N1313 1.613 1_554 S
S1312 N1314 1.610 . S
N1313 S1312 1.613 1_556 S
N1313 C1316 1.350 . S
N1314 S1312 1.610 . S
N1314 C1315 1.351 . S
C1315 C1309 1.428 . S
C1315 N1314 1.351 . S
C1315 C1316 1.434 1_554 S
C1316 C1307 1.429 . S
C1316 N1313 1.350 . S
C1316 C1315 1.434 1_556 S
C1317 C1318 1.369 . S
C1317 C1319 1.419 1_455 S
C1317 H1321 0.930 . S
C1318 C1317 1.369 . S
C1318 C1327 1.452 . S
C1319 C1317 1.419 1_655 S
C1319 C1320 1.363 . S
C1319 H1322 0.929 . S
C1320 C1319 1.363 . S
C1320 C1326 1.428 . S
H1321 C1317 0.930 . S
H1322 C1319 0.929 . S
S1323 N1324 1.613 1_655 S
S1323 N1325 1.610 . S
N1324 S1323 1.613 1_455 S
N1324 C1327 1.362 . S
N1325 S1323 1.610 . S
N1325 C1326 1.351 . S
C1326 C1320 1.428 . S
C1326 N1325 1.351 . S
C1326 C1327 1.397 1_655 S
C1327 C1318 1.452 . S
C1327 N1324 1.362 . S
C1327 C1326 1.397 1_455 S
C1328 C1329 1.369 . S
C1328 C1330 1.419 . S
C1328 H1332 0.930 . S
C1329 C1328 1.369 . S
C1329 C1338 1.429 . S
C1330 C1328 1.419 . S
C1330 C1331 1.363 . S
C1330 H1333 0.929 . S
C1331 C1330 1.363 . S
C1331 C1337 1.428 . S
H1332 C1328 0.930 . S
H1333 C1330 0.929 . S
S1334 N1335 1.613 . S
S1334 N1336 1.610 1_556 S
N1335 S1334 1.613 . S
N1335 C1338 1.350 . S
N1336 S1334 1.610 1_554 S
N1336 C1337 1.351 1_554 S
C1337 C1331 1.428 . S
C1337 N1336 1.351 1_556 S
C1337 C1338 1.434 . S
C1338 C1329 1.429 . S
C1338 N1335 1.350 . S
C1338 C1337 1.434 . S
C1339 C1340 1.369 . S
C1339 C1341 1.419 . S
C1339 H1343 0.930 . S
C1340 C1339 1.369 . S
C1340 C1349 1.429 . S
C1341 C1339 1.419 . S
C1341 C1342 1.363 . S
C1341 H1344 0.929 . S
C1342 C1341 1.363 . S
C1342 C1348 1.428 . S
H1343 C1339 0.930 . S
H1344 C1341 0.929 . S
S1345 N1346 1.613 . S
S1345 N1347 1.610 . S
N1346 S1345 1.613 . S
N1346 C1349 1.350 . S
N1347 S1345 1.610 . S
N1347 C1348 1.351 . S
C1348 C1342 1.428 . S
C1348 N1347 1.351 . S
C1348 C1349 1.434 . S
C1349 C1340 1.429 . S
C1349 N1346 1.350 . S
C1349 C1348 1.434 . S
C1350 C1351 1.369 . S
C1350 C1352 1.419 . S
C1350 H1354 0.930 . S
C1351 C1350 1.369 . S
C1351 C1360 1.429 . S
C1352 C1350 1.419 . S
C1352 C1353 1.363 . S
C1352 H1355 0.929 . S
C1353 C1352 1.363 . S
C1353 C1359 1.428 . S
H1354 C1350 0.930 . S
H1355 C1352 0.929 . S
S1356 N1357 1.613 . S
S1356 N1358 1.610 . S
N1357 S1356 1.613 . S
N1357 C1360 1.350 . S
N1358 S1356 1.610 . S
N1358 C1359 1.351 . S
C1359 C1353 1.428 . S
C1359 N1358 1.351 . S
C1359 C1360 1.434 . S
C1360 C1351 1.429 . S
C1360 N1357 1.350 . S
C1360 C1359 1.434 . S
C1361 C1362 1.369 . S
C1361 C1363 1.419 . S
C1361 H1365 0.930 . S
C1362 C1361 1.369 . S
C1362 C1371 1.429 . S
C1363 C1361 1.419 . S
C1363 C1364 1.363 . S
C1363 H1366 0.929 . S
C1364 C1363 1.363 . S
C1364 C1370 1.428 . S
H1365 C1361 0.930 . S
H1366 C1363 0.929 . S
S1367 N1368 1.613 . S
S1367 N1369 1.610 . S
N1368 S1367 1.613 . S
N1368 C1371 1.350 . S
N1369 S1367 1.610 . S
N1369 C1370 1.351 . S
C1370 C1364 1.428 . S
C1370 N1369 1.351 . S
C1370 C1371 1.434 . S
C1371 C1362 1.429 . S
C1371 N1368 1.350 . S
C1371 C1370 1.434 . S
C1372 C1373 1.369 . S
C1372 C1374 1.419 . S
C1372 H1376 0.930 . S
C1373 C1372 1.369 . S
C1373 C1382 1.429 . S
C1374 C1372 1.419 . S
C1374 C1375 1.363 . S
C1374 H1377 0.929 . S
C1375 C1374 1.363 . S
C1375 C1381 1.428 . S
H1376 C1372 0.930 . S
H1377 C1374 0.929 . S
S1378 N1379 1.613 . S
S1378 N1380 1.610 . S
N1379 S1378 1.613 . S
N1379 C1382 1.350 . S
N1380 S1378 1.610 . S
N1380 C1381 1.351 . S
C1381 C1375 1.428 . S
C1381 N1380 1.351 . S
C1381 C1382 1.434 . S
C1382 C1373 1.429 . S
C1382 N1379 1.350 . S
C1382 C1381 1.434 . S
C1383 C1384 1.369 . S
C1383 C1385 1.419 . S
C1383 H1387 0.930 . S
C1384 C1383 1.369 . S
C1384 C1393 1.429 . S
C1385 C1383 1.419 . S
C1385 C1386 1.363 . S
C1385 H1388 0.929 . S
C1386 C1385 1.363 . S
C1386 C1392 1.428 . S
H1387 C1383 0.930 . S
H1388 C1385 0.929 . S
S1389 N1390 1.613 . S
S1389 N1391 1.610 . S
N1390 S1389 1.613 . S
N1390 C1393 1.350 . S
N1391 S1389 1.610 . S
N1391 C1392 1.351 . S
C1392 C1386 1.428 . S
C1392 N1391 1.351 . S
C1392 C1393 1.434 . S
C1393 C1384 1.429 . S
C1393 N1390 1.350 . S
C1393 C1392 1.434 . S
C1394 C1395 1.369 . S
C1394 C1396 1.419 . S
C1394 H1398 0.930 . S
C1395 C1394 1.369 . S
C1395 C1404 1.429 . S
C1396 C1394 1.419 . S
C1396 C1397 1.363 . S
C1396 H1399 0.929 1_545 S
C1397 C1396 1.363 . S
C1397 C1403 1.428 . S
H1398 C1394 0.930 . S
H1399 C1396 0.929 1_565 S
S1400 N1401 1.613 . S
S1400 N1402 1.610 . S
N1401 S1400 1.613 . S
N1401 C1404 1.350 . S
N1402 S1400 1.610 . S
N1402 C1403 1.351 . S
C1403 C1397 1.428 . S
C1403 N1402 1.351 . S
C1403 C1404 1.434 . S
C1404 C1395 1.429 . S
C1404 N1401 1.350 . S
C1404 C1403 1.434 . S
C1405 C1406 1.369 . S
C1405 C1407 1.419 . S
C1405 H1409 0.930 . S
C1406 C1405 1.369 . S
C1406 C1415 1.429 . S
C1407 C1405 1.419 . S
C1407 C1408 1.363 . S
C1407 H1410 0.929 . S
C1408 C1407 1.363 . S
C1408 C1414 1.428 . S
H1409 C1405 0.930 . S
H1410 C1407 0.929 . S
S1411 N1412 1.613 . S
S1411 N1413 1.610 . S
N1412 S1411 1.613 . S
N1412 C1415 1.350 . S
N1413 S1411 1.610 . S
N1413 C1414 1.351 . S
C1414 C1408 1.428 . S
C1414 N1413 1.351 . S
C1414 C1415 1.434 . S
C1415 C1406 1.429 . S
C1415 N1412 1.350 . S
C1415 C1414 1.434 . S
C1416 C1417 1.369 . S
C1416 C1418 1.419 . S
C1416 H1420 0.930 . S
C1417 C1416 1.369 . S
C1417 C1426 1.429 . S
C1418 C1416 1.419 . S
C1418 C1419 1.363 . S
C1418 H1421 0.929 . S
C1419 C1418 1.363 . S
C1419 C1425 1.428 . S
H1420 C1416 0.930 . S
H1421 C1418 0.929 . S
S1422 N1423 1.613 . S
S1422 N1424 1.610 . S
N1423 S1422 1.613 . S
N1423 C1426 1.350 . S
N1424 S1422 1.610 . S
N1424 C1425 1.351 . S
C1425 C1419 1.428 . S
C1425 N1424 1.351 . S
C1425 C1426 1.434 . S
C1426 C1417 1.429 . S
C1426 N1423 1.350 . S
C1426 C1425 1.434 . S
C1427 C1428 1.369 . S
C1427 C1429 1.419 . S
C1427 H1431 0.930 . S
C1428 C1427 1.369 . S
C1428 C1437 1.429 . S
C1429 C1427 1.419 . S
C1429 C1430 1.363 . S
C1429 H1432 0.929 . S
C1430 C1429 1.363 . S
C1430 C1436 1.428 . S
H1431 C1427 0.930 . S
H1432 C1429 0.929 . S
S1433 N1434 1.613 . S
S1433 N1435 1.610 . S
N1434 S1433 1.613 . S
N1434 C1437 1.350 . S
N1435 S1433 1.610 . S
N1435 C1436 1.351 . S
C1436 C1430 1.428 . S
C1436 N1435 1.351 . S
C1436 C1437 1.434 . S
C1437 C1428 1.429 . S
C1437 N1434 1.350 . S
C1437 C1436 1.434 . S
C1438 C1439 1.369 . S
C1438 C1440 1.419 . S
C1438 H1442 0.930 . S
C1439 C1438 1.369 . S
C1439 C1448 1.429 . S
C1440 C1438 1.419 . S
C1440 C1441 1.363 . S
C1440 H1443 0.929 . S
C1441 C1440 1.363 . S
C1441 C1447 1.428 . S
H1442 C1438 0.930 . S
H1443 C1440 0.929 . S
S1444 N1445 1.613 . S
S1444 N1446 1.610 . S
N1445 S1444 1.613 . S
N1445 C1448 1.350 . S
N1446 S1444 1.610 . S
N1446 C1447 1.351 . S
C1447 C1441 1.428 . S
C1447 N1446 1.351 . S
C1447 C1448 1.434 . S
C1448 C1439 1.429 . S
C1448 N1445 1.350 . S
C1448 C1447 1.434 . S
C1449 C1450 1.369 . S
C1449 C1451 1.419 . S
C1449 H1453 0.930 . S
C1450 C1449 1.369 . S
C1450 C1459 1.429 . S
C1451 C1449 1.419 . S
C1451 C1452 1.363 . S
C1451 H1454 0.929 . S
C1452 C1451 1.363 . S
C1452 C1458 1.428 . S
H1453 C1449 0.930 . S
H1454 C1451 0.929 . S
S1455 N1456 1.613 . S
S1455 N1457 1.610 . S
N1456 S1455 1.613 . S
N1456 C1459 1.350 . S
N1457 S1455 1.610 . S
N1457 C1458 1.351 . S
C1458 C1452 1.428 . S
C1458 N1457 1.351 . S
C1458 C1459 1.434 . S
C1459 C1450 1.429 . S
C1459 N1456 1.350 . S
C1459 C1458 1.434 . S
C1460 C1461 1.369 . S
C1460 C1462 1.419 . S
C1460 H1464 0.930 . S
C1461 C1460 1.369 . S
C1461 C1470 1.429 . S
C1462 C1460 1.419 . S
C1462 C1463 1.363 . S
C1462 H1465 0.929 . S
C1463 C1462 1.363 . S
C1463 C1469 1.428 . S
H1464 C1460 0.930 . S
H1465 C1462 0.929 . S
S1466 N1467 1.613 . S
S1466 N1468 1.610 . S
N1467 S1466 1.613 . S
N1467 C1470 1.350 . S
N1468 S1466 1.610 . S
N1468 C1469 1.351 . S
C1469 C1463 1.428 . S
C1469 N1468 1.351 . S
C1469 C1470 1.434 . S
C1470 C1461 1.429 . S
C1470 N1467 1.350 . S
C1470 C1469 1.434 . S
C1471 C1472 1.369 . S
C1471 C1473 1.419 . S
C1471 H1475 0.930 . S
C1472 C1471 1.369 . S
C1472 C1481 1.429 . S
C1473 C1471 1.419 . S
C1473 C1474 1.363 . S
C1473 H1476 0.929 . S
C1474 C1473 1.363 . S
C1474 C1480 1.428 . S
H1475 C1471 0.930 . S
H1476 C1473 0.929 . S
S1477 N1478 1.613 1_545 S
S1477 N1479 1.610 1_545 S
N1478 S1477 1.613 1_565 S
N1478 C1481 1.350 . S
N1479 S1477 1.610 1_565 S
N1479 C1480 1.351 . S
C1480 C1474 1.428 . S
C1480 N1479 1.351 . S
C1480 C1481 1.434 . S
C1481 C1472 1.429 . S
C1481 N1478 1.350 . S
C1481 C1480 1.434 . S
C1482 C1483 1.369 . S
C1482 C1484 1.419 . S
C1482 H1486 0.930 . S
C1483 C1482 1.369 . S
C1483 C1492 1.429 . S
C1484 C1482 1.419 . S
C1484 C1485 1.363 . S
C1484 H1487 0.929 . S
C1485 C1484 1.363 . S
C1485 C1491 1.428 . S
H1486 C1482 0.930 . S
H1487 C1484 0.929 . S
S1488 N1489 1.613 . S
S1488 N1490 1.610 . S
N1489 S1488 1.613 . S
N1489 C1492 1.350 . S
N1490 S1488 1.610 . S
N1490 C1491 1.351 . S
C1491 C1485 1.428 . S
C1491 N1490 1.351 . S
C1491 C1492 1.434 . S
C1492 C1483 1.429 . S
C1492 N1489 1.350 . S
C1492 C1491 1.434 . S
C1493 C1494 1.369 . S
C1493 C1495 1.419 . S
C1493 H1497 0.930 . S
C1494 C1493 1.369 . S
C1494 C1503 1.429 . S
C1495 C1493 1.419 . S
C1495 C1496 1.363 . S
C1495 H1498 0.929 . S
C1496 C1495 1.363 . S
C1496 C1502 1.428 . S
H1497 C1493 0.930 . S
H1498 C1495 0.929 . S
S1499 N1500 1.613 . S
S1499 N1501 1.610 . S
N1500 S1499 1.613 . S
N1500 C1503 1.350 . S
N1501 S1499 1.610 . S
N1501 C1502 1.351 . S
C1502 C1496 1.428 . S
C1502 N1501 1.351 . S
C1502 C1503 1.434 . S
C1503 C1494 1.429 . S
C1503 N1500 1.350 . S
C1503 C1502 1.434 . S
C1504 C1505 1.369 . S
C1504 C1506 1.419 . S
C1504 H1508 0.930 . S
C1505 C1504 1.369 . S
C1505 C1514 1.429 . S
C1506 C1504 1.419 . S
C1506 C1507 1.363 . S
C1506 H1509 0.929 . S
C1507 C1506 1.363 . S
C1507 C1513 1.428 . S
H1508 C1504 0.930 . S
H1509 C1506 0.929 . S
S1510 N1511 1.613 . S
S1510 N1512 1.610 . S
N1511 S1510 1.613 . S
N1511 C1514 1.350 . S
N1512 S1510 1.610 . S
N1512 C1513 1.351 . S
C1513 C1507 1.428 . S
C1513 N1512 1.351 . S
C1513 C1514 1.434 . S
C1514 C1505 1.429 . S
C1514 N1511 1.350 . S
C1514 C1513 1.434 . S
C1515 C1516 1.369 . S
C1515 C1517 1.419 . S
C1515 H1519 0.930 . S
C1516 C1515 1.369 . S
C1516 C1525 1.429 . S
C1517 C1515 1.419 . S
C1517 C1518 1.363 . S
C1517 H1520 0.929 . S
C1518 C1517 1.363 . S
C1518 C1524 1.428 . S
H1519 C1515 0.930 . S
H1520 C1517 0.929 . S
S1521 N1522 1.613 . S
S1521 N1523 1.610 . S
N1522 S1521 1.613 . S
N1522 C1525 1.350 . S
N1523 S1521 1.610 . S
N1523 C1524 1.351 . S
C1524 C1518 1.428 . S
C1524 N1523 1.351 . S
C1524 C1525 1.434 . S
C1525 C1516 1.429 . S
C1525 N1522 1.350 . S
C1525 C1524 1.434 . S
C1526 C1527 1.369 . S
C1526 C1528 1.419 . S
C1526 H1530 0.930 1_455 S
C1527 C1526 1.369 . S
C1527 C1536 1.429 . S
C1528 C1526 1.419 . S
C1528 C1529 1.363 . S
C1528 H1531 0.929 1_455 S
C1529 C1528 1.363 . S
C1529 C1535 1.428 . S
H1530 C1526 0.930 1_655 S
H1531 C1528 0.929 1_655 S
S1532 N1533 1.613 . S
S1532 N1534 1.610 . S
N1533 S1532 1.613 . S
N1533 C1536 1.350 . S
N1534 S1532 1.610 . S
N1534 C1535 1.351 . S
C1535 C1529 1.428 . S
C1535 N1534 1.351 . S
C1535 C1536 1.434 . S
C1536 C1527 1.429 . S
C1536 N1533 1.350 . S
C1536 C1535 1.434 . S
C1537 C1538 1.369 . S
C1537 C1539 1.419 . S
C1537 H1541 0.930 1_655 S
C1538 C1537 1.369 . S
C1538 C1547 1.429 . S
C1539 C1537 1.419 . S
C1539 C1540 1.363 . S
C1539 H1542 0.929 . S
C1540 C1539 1.363 . S
C1540 C1546 1.428 . S
H1541 C1537 0.930 1_455 S
H1542 C1539 0.929 . S
S1543 N1544 1.613 . S
S1543 N1545 1.610 . S
N1544 S1543 1.613 . S
N1544 C1547 1.350 . S
N1545 S1543 1.610 . S
N1545 C1546 1.351 . S
C1546 C1540 1.428 . S
C1546 N1545 1.351 . S
C1546 C1547 1.434 . S
C1547 C1538 1.429 . S
C1547 N1544 1.350 . S
C1547 C1546 1.434 . S
C1548 C1549 1.369 . S
C1548 C1550 1.419 . S
C1548 H1552 0.930 . S
C1549 C1548 1.369 . S
C1549 C1558 1.429 . S
C1550 C1548 1.419 . S
C1550 C1551 1.363 . S
C1550 H1553 0.929 . S
C1551 C1550 1.363 . S
C1551 C1557 1.428 . S
H1552 C1548 0.930 . S
H1553 C1550 0.929 . S
S1554 N1555 1.613 . S
S1554 N1556 1.610 . S
N1555 S1554 1.613 . S
N1555 C1558 1.350 . S
N1556 S1554 1.610 . S
N1556 C1557 1.351 . S
C1557 C1551 1.428 . S
C1557 N1556 1.351 . S
C1557 C1558 1.434 . S
C1558 C1549 1.429 . S
C1558 N1555 1.350 . S
C1558 C1557 1.434 . S
C1559 C1560 1.369 . S
C1559 C1561 1.419 . S
C1559 H1563 0.930 . S
C1560 C1559 1.369 . S
C1560 C1569 1.429 . S
C1561 C1559 1.419 . S
C1561 C1562 1.363 . S
C1561 H1564 0.929 . S
C1562 C1561 1.363 . S
C1562 C1568 1.428 . S
H1563 C1559 0.930 . S
H1564 C1561 0.929 . S
S1565 N1566 1.613 . S
S1565 N1567 1.610 . S
N1566 S1565 1.613 . S
N1566 C1569 1.350 . S
N1567 S1565 1.610 . S
N1567 C1568 1.351 . S
C1568 C1562 1.428 . S
C1568 N1567 1.351 . S
C1568 C1569 1.434 . S
C1569 C1560 1.429 . S
C1569 N1566 1.350 . S
C1569 C1568 1.434 . S
C1570 C1571 1.369 . S
C1570 C1572 1.419 . S
C1570 H1574 0.930 . S
C1571 C1570 1.369 . S
C1571 C1580 1.429 . S
C1572 C1570 1.419 . S
C1572 C1573 1.363 . S
C1572 H1575 0.929 . S
C1573 C1572 1.363 . S
C1573 C1579 1.428 . S
H1574 C1570 0.930 . S
H1575 C1572 0.929 . S
S1576 N1577 1.613 1_655 S
S1576 N1578 1.610 1_655 S
N1577 S1576 1.613 1_455 S
N1577 C1580 1.350 . S
N1578 S1576 1.610 1_455 S
N1578 C1579 1.351 . S
C1579 C1573 1.428 . S
C1579 N1578 1.351 . S
C1579 C1580 1.434 . S
C1580 C1571 1.429 . S
C1580 N1577 1.350 . S
C1580 C1579 1.434 . S
C1581 C1582 1.369 . S
C1581 C1583 1.419 . S
C1581 H1585 0.930 . S
C1582 C1581 1.369 . S
C1582 C1591 1.429 . S
C1583 C1581 1.419 . S
C1583 C1584 1.363 . S
C1583 H1586 0.929 . S
C1584 C1583 1.363 . S
C1584 C1590 1.428 . S
H1585 C1581 0.930 . S
H1586 C1583 0.929 . S
S1587 N1588 1.613 . S
S1587 N1589 1.610 . S
N1588 S1587 1.613 . S
N1588 C1591 1.350 . S
N1589 S1587 1.610 . S
N1589 C1590 1.351 . S
C1590 C1584 1.428 . S
C1590 N1589 1.351 . S
C1590 C1591 1.434 . S
C1591 C1582 1.429 . S
C1591 N1588 1.350 . S
C1591 C1590 1.434 . S
C1592 C1593 1.369 . S
C1592 C1594 1.419 . S
C1592 H1596 0.930 . S
C1593 C1592 1.369 . S
C1593 C1602 1.429 . S
C1594 C1592 1.419 . S
C1594 C1595 1.363 . S
C1594 H1597 0.929 . S
C1595 C1594 1.363 . S
C1595 C1601 1.428 . S
H1596 C1592 0.930 . S
H1597 C1594 0.929 . S
S1598 N1599 1.613 . S
S1598 N1600 1.610 . S
N1599 S1598 1.613 . S
N1599 C1602 1.350 . S
N1600 S1598 1.610 . S
N1600 C1601 1.351 . S
C1601 C1595 1.428 . S
C1601 N1600 1.351 . S
C1601 C1602 1.434 . S
C1602 C1593 1.429 . S
C1602 N1599 1.350 . S
C1602 C1601 1.434 . S
C1603 C1604 1.369 . S
C1603 C1605 1.419 . S
C1603 H1607 0.930 . S
C1604 C1603 1.369 . S
C1604 C1613 1.429 . S
C1605 C1603 1.419 . S
C1605 C1606 1.363 . S
C1605 H1608 0.929 . S
C1606 C1605 1.363 . S
C1606 C1612 1.428 . S
H1607 C1603 0.930 . S
H1608 C1605 0.929 . S
S1609 N1610 1.613 . S
S1609 N1611 1.610 . S
N1610 S1609 1.613 . S
N1610 C1613 1.350 . S
N1611 S1609 1.610 . S
N1611 C1612 1.351 . S
C1612 C1606 1.428 . S
C1612 N1611 1.351 . S
C1612 C1613 1.434 . S
C1613 C1604 1.429 . S
C1613 N1610 1.350 . S
C1613 C1612 1.434 . S
C1614 C1615 1.369 . S
C1614 C1616 1.419 . S
C1614 H1618 0.930 . S
C1615 C1614 1.369 . S
C1615 C1624 1.429 . S
C1616 C1614 1.419 . S
C1616 C1617 1.363 . S
C1616 H1619 0.929 . S
C1617 C1616 1.363 . S
C1617 C1623 1.428 . S
H1618 C1614 0.930 . S
H1619 C1616 0.929 . S
S1620 N1621 1.613 . S
S1620 N1622 1.610 . S
N1621 S1620 1.613 . S
N1621 C1624 1.350 . S
N1622 S1620 1.610 . S
N1622 C1623 1.351 . S
C1623 C1617 1.428 . S
C1623 N1622 1.351 . S
C1623 C1624 1.434 . S
C1624 C1615 1.429 . S
C1624 N1621 1.350 . S
C1624 C1623 1.434 . S
C1625 C1626 1.369 . S
C1625 C1627 1.419 . S
C1625 H1629 0.930 . S
C1626 C1625 1.369 . S
C1626 C1635 1.429 . S
C1627 C1625 1.419 . S
C1627 C1628 1.363 . S
C1627 H1630 0.929 . S
C1628 C1627 1.363 . S
C1628 C1634 1.428 . S
H1629 C1625 0.930 . S
H1630 C1627 0.929 . S
S1631 N1632 1.613 . S
S1631 N1633 1.610 . S
N1632 S1631 1.613 . S
N1632 C1635 1.350 . S
N1633 S1631 1.610 . S
N1633 C1634 1.351 . S
C1634 C1628 1.428 . S
C1634 N1633 1.351 . S
C1634 C1635 1.434 . S
C1635 C1626 1.429 . S
C1635 N1632 1.350 . S
C1635 C1634 1.434 . S
C1636 C1637 1.369 . S
C1636 C1638 1.419 . S
C1636 H1640 0.930 . S
C1637 C1636 1.369 . S
C1637 C1646 1.429 . S
C1638 C1636 1.419 . S
C1638 C1639 1.363 . S
C1638 H1641 0.929 . S
C1639 C1638 1.363 . S
C1639 C1645 1.428 . S
H1640 C1636 0.930 . S
H1641 C1638 0.929 . S
S1642 N1643 1.613 . S
S1642 N1644 1.610 . S
N1643 S1642 1.613 . S
N1643 C1646 1.350 . S
N1644 S1642 1.610 . S
N1644 C1645 1.351 . S
C1645 C1639 1.428 . S
C1645 N1644 1.351 . S
C1645 C1646 1.434 . S
C1646 C1637 1.429 . S
C1646 N1643 1.350 . S
C1646 C1645 1.434 . S
C1647 C1648 1.369 . S
C1647 C1649 1.419 . S
C1647 H1651 0.930 . S
C1648 C1647 1.369 . S
C1648 C1657 1.429 . S
C1649 C1647 1.419 . S
C1649 C1650 1.363 . S
C1649 H1652 0.929 . S
C1650 C1649 1.363 . S
C1650 C1656 1.428 . S
H1651 C1647 0.930 . S
H1652 C1649 0.929 . S
S1653 N1654 1.613 . S
S1653 N1655 1.610 . S
N1654 S1653 1.613 . S
N1654 C1657 1.350 . S
N1655 S1653 1.610 . S
N1655 C1656 1.351 . S
C1656 C1650 1.428 . S
C1656 N1655 1.351 . S
C1656 C1657 1.434 . S
C1657 C1648 1.429 . S
C1657 N1654 1.350 . S
C1657 C1656 1.434 . S
C1658 C1659 1.369 . S
C1658 C1660 1.419 . S
C1658 H1662 0.930 . S
C1659 C1658 1.369 . S
C1659 C1668 1.429 . S
C1660 C1658 1.419 . S
C1660 C1661 1.363 . S
C1660 H1663 0.929 . S
C1661 C1660 1.363 . S
C1661 C1667 1.428 . S
H1662 C1658 0.930 . S
H1663 C1660 0.929 . S
S1664 N1665 1.613 . S
S1664 N1666 1.610 . S
N1665 S1664 1.613 . S
N1665 C1668 1.350 . S
N1666 S1664 1.610 . S
N1666 C1667 1.351 . S
C1667 C1661 1.428 . S
C1667 N1666 1.351 . S
C1667 C1668 1.434 . S
C1668 C1659 1.429 . S
C1668 N1665 1.350 . S
C1668 C1667 1.434 . S
C1669 C1670 1.369 . S
C1669 C1671 1.419 . S
C1669 H1673 0.930 . S
C1670 C1669 1.369 . S
C1670 C1679 1.429 . S
C1671 C1669 1.419 . S
C1671 C1672 1.363 . S
C1671 H1674 0.929 . S
C1672 C1671 1.363 . S
C1672 C1678 1.428 . S
H1673 C1669 0.930 . S
H1674 C1671 0.929 . S
S1675 N1676 1.613 . S
S1675 N1677 1.610 . S
N1676 S1675 1.613 . S
N1676 C1679 1.350 . S
N1677 S1675 1.610 . S
N1677 C1678 1.351 . S
C1678 C1672 1.428 . S
C1678 N1677 1.351 . S
C1678 C1679 1.434 . S
C1679 C1670 1.429 . S
C1679 N1676 1.350 . S
C1679 C1678 1.434 . S
C1680 C1681 1.369 . S
C1680 C1682 1.419 . S
C1680 H1684 0.930 . S
C1681 C1680 1.369 . S
C1681 C1690 1.429 . S
C1682 C1680 1.419 . S
C1682 C1683 1.363 . S
C1682 H1685 0.929 . S
C1683 C1682 1.363 . S
C1683 C1689 1.428 . S
H1684 C1680 0.930 . S
H1685 C1682 0.929 . S
S1686 N1687 1.613 . S
S1686 N1688 1.610 . S
N1687 S1686 1.613 . S
N1687 C1690 1.350 . S
N1688 S1686 1.610 . S
N1688 C1689 1.351 . S
C1689 C1683 1.428 . S
C1689 N1688 1.351 . S
C1689 C1690 1.434 . S
C1690 C1681 1.429 . S
C1690 N1687 1.350 . S
C1690 C1689 1.434 . S
C1691 C1692 1.369 . S
C1691 C1693 1.419 . S
C1691 H1695 0.930 . S
C1692 C1691 1.369 . S
C1692 C1701 1.429 . S
C1693 C1691 1.419 . S
C1693 C1694 1.363 . S
C1693 H1696 0.929 . S
C1694 C1693 1.363 . S
C1694 C1700 1.428 . S
H1695 C1691 0.930 . S
H1696 C1693 0.929 . S
S1697 N1698 1.613 . S
S1697 N1699 1.610 . S
N1698 S1697 1.613 . S
N1698 C1701 1.350 . S
N1699 S1697 1.610 . S
N1699 C1700 1.351 . S
C1700 C1694 1.428 . S
C1700 N1699 1.351 . S
C1700 C1701 1.434 . S
C1701 C1692 1.429 . S
C1701 N1698 1.350 . S
C1701 C1700 1.434 . S
C1702 C1703 1.369 . S
C1702 C1704 1.419 . S
C1702 H1706 0.930 . S
C1703 C1702 1.369 . S
C1703 C1712 1.429 1_565 S
C1704 C1702 1.419 . S
C1704 C1705 1.363 . S
C1704 H1707 0.929 . S
C1705 C1704 1.363 . S
C1705 C1711 1.428 . S
H1706 C1702 0.930 . S
H1707 C1704 0.929 . S
S1708 N1709 1.613 . S
S1708 N1710 1.610 1_545 S
N1709 S1708 1.613 . S
N1709 C1712 1.350 . S
N1710 S1708 1.610 1_565 S
N1710 C1711 1.351 . S
C1711 C1705 1.428 . S
C1711 N1710 1.351 . S
C1711 C1712 1.434 1_565 S
C1712 C1703 1.429 1_545 S
C1712 N1709 1.350 . S
C1712 C1711 1.434 1_545 S
C1713 C1714 1.369 . S
C1713 C1715 1.419 . S
C1713 H1717 0.930 . S
C1714 C1713 1.369 . S
C1714 C1723 1.429 1_554 S
C1715 C1713 1.419 . S
C1715 C1716 1.363 . S
C1715 H1718 0.929 . S
C1716 C1715 1.363 . S
C1716 C1722 1.442 . S
H1717 C1713 0.930 . S
H1718 C1715 0.929 . S
S1719 N1720 1.613 . S
S1719 N1721 1.610 . S
N1720 S1719 1.613 . S
N1720 C1723 1.350 . S
N1721 S1719 1.610 . S
N1721 C1722 1.337 1_556 S
C1722 C1716 1.442 . S
C1722 N1721 1.337 1_554 S
C1722 C1723 1.434 1_554 S
C1723 C1714 1.429 1_556 S
C1723 N1720 1.350 . S
C1723 C1722 1.434 1_556 S
C1724 C1725 1.369 . S
C1724 C1726 1.419 . S
C1724 H1728 0.930 . S
C1725 C1724 1.369 . S
C1725 C1734 1.429 . S
C1726 C1724 1.419 . S
C1726 C1727 1.363 . S
C1726 H1729 0.929 . S
C1727 C1726 1.363 . S
C1727 C1733 1.428 . S
H1728 C1724 0.930 . S
H1729 C1726 0.929 . S
S1730 N1731 1.613 . S
S1730 N1732 1.610 . S
N1731 S1730 1.613 . S
N1731 C1734 1.350 . S
N1732 S1730 1.610 . S
N1732 C1733 1.351 . S
C1733 C1727 1.428 . S
C1733 N1732 1.351 . S
C1733 C1734 1.434 . S
C1734 C1725 1.429 . S
C1734 N1731 1.350 . S
C1734 C1733 1.434 . S
C1735 C1736 1.369 . S
C1735 C1737 1.419 . S
C1735 H1739 0.930 . S
C1736 C1735 1.369 . S
C1736 C1745 1.429 . S
C1737 C1735 1.419 . S
C1737 C1738 1.363 . S
C1737 H1740 0.929 . S
C1738 C1737 1.363 . S
C1738 C1744 1.428 . S
H1739 C1735 0.930 . S
H1740 C1737 0.929 . S
S1741 N1742 1.613 . S
S1741 N1743 1.610 . S
N1742 S1741 1.613 . S
N1742 C1745 1.350 . S
N1743 S1741 1.610 . S
N1743 C1744 1.351 . S
C1744 C1738 1.428 . S
C1744 N1743 1.351 . S
C1744 C1745 1.434 . S
C1745 C1736 1.429 . S
C1745 N1742 1.350 . S
C1745 C1744 1.434 . S
C1746 C1747 1.369 . S
C1746 C1748 1.419 . S
C1746 H1750 0.930 . S
C1747 C1746 1.369 . S
C1747 C1756 1.429 . S
C1748 C1746 1.419 . S
C1748 C1749 1.363 . S
C1748 H1751 0.929 . S
C1749 C1748 1.363 . S
C1749 C1755 1.428 . S
H1750 C1746 0.930 . S
H1751 C1748 0.929 . S
S1752 N1753 1.613 . S
S1752 N1754 1.610 . S
N1753 S1752 1.613 . S
N1753 C1756 1.350 . S
N1754 S1752 1.610 . S
N1754 C1755 1.351 . S
C1755 C1749 1.428 . S
C1755 N1754 1.351 . S
C1755 C1756 1.434 . S
C1756 C1747 1.429 . S
C1756 N1753 1.350 . S
C1756 C1755 1.434 . S
C1757 C1758 1.369 . S
C1757 C1759 1.419 . S
C1757 H1761 0.930 . S
C1758 C1757 1.369 . S
C1758 C1767 1.429 . S
C1759 C1757 1.419 . S
C1759 C1760 1.363 . S
C1759 H1762 0.929 . S
C1760 C1759 1.363 . S
C1760 C1766 1.428 . S
H1761 C1757 0.930 . S
H1762 C1759 0.929 . S
S1763 N1764 1.613 . S
S1763 N1765 1.610 . S
N1764 S1763 1.613 . S
N1764 C1767 1.350 . S
N1765 S1763 1.610 . S
N1765 C1766 1.351 . S
C1766 C1760 1.428 . S
C1766 N1765 1.351 . S
C1766 C1767 1.434 . S
C1767 C1758 1.429 . S
C1767 N1764 1.350 . S
C1767 C1766 1.434 . S
C1768 C1769 1.369 . S
C1768 C1770 1.419 . S
C1768 H1772 0.930 . S
C1769 C1768 1.369 . S
C1769 C1778 1.429 . S
C1770 C1768 1.419 . S
C1770 C1771 1.363 . S
C1770 H1773 0.929 . S
C1771 C1770 1.363 . S
C1771 C1777 1.428 . S
H1772 C1768 0.930 . S
H1773 C1770 0.929 . S
S1774 N1775 1.613 . S
S1774 N1776 1.610 . S
N1775 S1774 1.613 . S
N1775 C1778 1.350 . S
N1776 S1774 1.610 . S
N1776 C1777 1.351 . S
C1777 C1771 1.428 . S
C1777 N1776 1.351 . S
C1777 C1778 1.434 . S
C1778 C1769 1.429 . S
C1778 N1775 1.350 . S
C1778 C1777 1.434 . S
C1779 C1780 1.369 . S
C1779 C1781 1.419 . S
C1779 H1783 0.930 . S
C1780 C1779 1.369 . S
C1780 C1789 1.429 . S
C1781 C1779 1.419 . S
C1781 C1782 1.363 . S
C1781 H1784 0.929 . S
C1782 C1781 1.363 . S
C1782 C1788 1.428 . S
H1783 C1779 0.930 . S
H1784 C1781 0.929 . S
S1785 N1786 1.613 . S
S1785 N1787 1.610 . S
N1786 S1785 1.613 . S
N1786 C1789 1.350 . S
N1787 S1785 1.610 . S
N1787 C1788 1.351 . S
C1788 C1782 1.428 . S
C1788 N1787 1.351 . S
C1788 C1789 1.434 . S
C1789 C1780 1.429 . S
C1789 N1786 1.350 . S
C1789 C1788 1.434 . S
C1790 C1791 1.369 . S
C1790 C1792 1.419 . S
C1790 H1794 0.930 . S
C1791 C1790 1.369 . S
C1791 C1800 1.429 . S
C1792 C1790 1.419 . S
C1792 C1793 1.363 . S
C1792 H1795 0.929 . S
C1793 C1792 1.363 . S
C1793 C1799 1.428 . S
H1794 C1790 0.930 . S
H1795 C1792 0.929 . S
S1796 N1797 1.613 . S
S1796 N1798 1.610 . S
N1797 S1796 1.613 . S
N1797 C1800 1.350 . S
N1798 S1796 1.610 . S
N1798 C1799 1.351 . S
C1799 C1793 1.428 . S
C1799 N1798 1.351 . S
C1799 C1800 1.434 . S
C1800 C1791 1.429 . S
C1800 N1797 1.350 . S
C1800 C1799 1.434 . S
C1801 C1802 1.369 . S
C1801 C1803 1.419 . S
C1801 H1805 0.930 . S
C1802 C1801 1.369 . S
C1802 C1811 1.429 . S
C1803 C1801 1.419 . S
C1803 C1804 1.363 . S
C1803 H1806 0.929 . S
C1804 C1803 1.363 . S
C1804 C1810 1.428 . S
H1805 C1801 0.930 . S
H1806 C1803 0.929 . S
S1807 N1808 1.613 . S
S1807 N1809 1.610 . S
N1808 S1807 1.613 . S
N1808 C1811 1.350 . S
N1809 S1807 1.610 . S
N1809 C1810 1.351 . S
C1810 C1804 1.428 . S
C1810 N1809 1.351 . S
C1810 C1811 1.434 . S
C1811 C1802 1.429 . S
C1811 N1808 1.350 . S
C1811 C1810 1.434 . S
C1812 C1813 1.369 . S
C1812 C1814 1.404 1_556 S
C1812 H1816 0.930 1_556 S
C1813 C1812 1.369 . S
C1813 C1822 1.429 . S
C1814 C1812 1.404 1_554 S
C1814 C1815 1.353 1_554 S
C1814 H1817 0.955 . S
C1815 C1814 1.353 1_556 S
C1815 C1821 1.428 . S
H1816 C1812 0.930 1_554 S
H1817 C1814 0.955 . S
S1818 N1819 1.613 . S
S1818 N1820 1.610 . S
N1819 S1818 1.613 . S
N1819 C1822 1.350 . S
N1820 S1818 1.610 . S
N1820 C1821 1.351 . S
C1821 C1815 1.428 . S
C1821 N1820 1.351 . S
C1821 C1822 1.434 . S
C1822 C1813 1.429 . S
C1822 N1819 1.350 . S
C1822 C1821 1.434 . S
C1823 C1824 1.369 . S
C1823 C1825 1.419 . S
C1823 H1827 0.930 . S
C1824 C1823 1.369 . S
C1824 C1833 1.429 . S
C1825 C1823 1.419 . S
C1825 C1826 1.363 . S
C1825 H1828 0.929 . S
C1826 C1825 1.363 . S
C1826 C1832 1.428 . S
H1827 C1823 0.930 . S
H1828 C1825 0.929 . S
S1829 N1830 1.613 . S
S1829 N1831 1.610 . S
N1830 S1829 1.613 . S
N1830 C1833 1.350 . S
N1831 S1829 1.610 . S
N1831 C1832 1.351 . S
C1832 C1826 1.428 . S
C1832 N1831 1.351 . S
C1832 C1833 1.434 . S
C1833 C1824 1.429 . S
C1833 N1830 1.350 . S
C1833 C1832 1.434 . S
C1834 C1835 1.369 . S
C1834 C1836 1.419 . S
C1834 H1838 0.930 . S
C1835 C1834 1.369 . S
C1835 C1844 1.429 . S
C1836 C1834 1.419 . S
C1836 C1837 1.363 . S
C1836 H1839 0.929 . S
C1837 C1836 1.363 . S
C1837 C1843 1.428 . S
H1838 C1834 0.930 . S
H1839 C1836 0.929 . S
S1840 N1841 1.613 . S
S1840 N1842 1.610 . S
N1841 S1840 1.613 . S
N1841 C1844 1.350 1_655 S
N1842 S1840 1.610 . S
N1842 C1843 1.351 1_655 S
C1843 C1837 1.428 . S
C1843 N1842 1.351 1_455 S
C1843 C1844 1.434 . S
C1844 C1835 1.429 . S
C1844 N1841 1.350 1_455 S
C1844 C1843 1.434 . S
C1845 C1846 1.369 . S
C1845 C1847 1.419 . S
C1845 H1849 0.930 . S
C1846 C1845 1.369 . S
C1846 C1855 1.429 . S
C1847 C1845 1.419 . S
C1847 C1848 1.363 . S
C1847 H1850 0.929 . S
C1848 C1847 1.363 . S
C1848 C1854 1.428 . S
H1849 C1845 0.930 . S
H1850 C1847 0.929 . S
S1851 N1852 1.613 . S
S1851 N1853 1.610 . S
N1852 S1851 1.613 . S
N1852 C1855 1.350 . S
N1853 S1851 1.610 . S
N1853 C1854 1.351 . S
C1854 C1848 1.428 . S
C1854 N1853 1.351 . S
C1854 C1855 1.434 . S
C1855 C1846 1.429 . S
C1855 N1852 1.350 . S
C1855 C1854 1.434 . S
C1856 C1857 1.369 . S
C1856 C1858 1.419 . S
C1856 H1860 0.930 . S
C1857 C1856 1.369 . S
C1857 C1866 1.429 . S
C1858 C1856 1.419 . S
C1858 C1859 1.363 . S
C1858 H1861 0.929 . S
C1859 C1858 1.363 . S
C1859 C1865 1.428 . S
H1860 C1856 0.930 . S
H1861 C1858 0.929 . S
S1862 N1863 1.613 . S
S1862 N1864 1.610 . S
N1863 S1862 1.613 . S
N1863 C1866 1.350 . S
N1864 S1862 1.610 . S
N1864 C1865 1.351 . S
C1865 C1859 1.428 . S
C1865 N1864 1.351 . S
C1865 C1866 1.434 . S
C1866 C1857 1.429 . S
C1866 N1863 1.350 . S
C1866 C1865 1.434 . S
C1867 C1868 1.369 . S
C1867 C1869 1.419 . S
C1867 H1871 0.930 . S
C1868 C1867 1.369 . S
C1868 C1877 1.429 . S
C1869 C1867 1.419 . S
C1869 C1870 1.363 . S
C1869 H1872 0.929 . S
C1870 C1869 1.363 . S
C1870 C1876 1.428 . S
H1871 C1867 0.930 . S
H1872 C1869 0.929 . S
S1873 N1874 1.613 . S
S1873 N1875 1.610 . S
N1874 S1873 1.613 . S
N1874 C1877 1.350 . S
N1875 S1873 1.610 . S
N1875 C1876 1.351 . S
C1876 C1870 1.428 . S
C1876 N1875 1.351 . S
C1876 C1877 1.434 . S
C1877 C1868 1.429 . S
C1877 N1874 1.350 . S
C1877 C1876 1.434 . S
C1878 C1879 1.369 . S
C1878 C1880 1.419 1_655 S
C1878 H1882 0.930 . S
C1879 C1878 1.369 . S
C1879 C1888 1.429 . S
C1880 C1878 1.419 1_455 S
C1880 C1881 1.363 1_455 S
C1880 H1883 0.929 . S
C1881 C1880 1.363 1_655 S
C1881 C1887 1.428 . S
H1882 C1878 0.930 . S
H1883 C1880 0.929 . S
S1884 N1885 1.613 . S
S1884 N1886 1.610 . S
N1885 S1884 1.613 . S
N1885 C1888 1.350 . S
N1886 S1884 1.610 . S
N1886 C1887 1.351 . S
C1887 C1881 1.428 . S
C1887 N1886 1.351 . S
C1887 C1888 1.434 . S
C1888 C1879 1.429 . S
C1888 N1885 1.350 . S
C1888 C1887 1.434 . S
C1889 C1890 1.369 . S
C1889 C1891 1.419 . S
C1889 H1893 0.930 . S
C1890 C1889 1.369 . S
C1890 C1899 1.429 . S
C1891 C1889 1.419 . S
C1891 C1892 1.363 . S
C1891 H1894 0.929 . S
C1892 C1891 1.363 . S
C1892 C1898 1.428 . S
H1893 C1889 0.930 . S
H1894 C1891 0.929 . S
S1895 N1896 1.613 . S
S1895 N1897 1.610 . S
N1896 S1895 1.613 . S
N1896 C1899 1.350 . S
N1897 S1895 1.610 . S
N1897 C1898 1.351 . S
C1898 C1892 1.428 . S
C1898 N1897 1.351 . S
C1898 C1899 1.434 . S
C1899 C1890 1.429 . S
C1899 N1896 1.350 . S
C1899 C1898 1.434 . S
C1900 C1901 1.369 . S
C1900 C1902 1.419 . S
C1900 H1904 0.930 . S
C1901 C1900 1.369 . S
C1901 C1910 1.429 . S
C1902 C1900 1.419 . S
C1902 C1903 1.363 . S
C1902 H1905 0.929 . S
C1903 C1902 1.363 . S
C1903 C1909 1.428 . S
H1904 C1900 0.930 . S
H1905 C1902 0.929 . S
S1906 N1907 1.613 . S
S1906 N1908 1.610 . S
N1907 S1906 1.613 . S
N1907 C1910 1.350 . S
N1908 S1906 1.610 . S
N1908 C1909 1.351 . S
C1909 C1903 1.428 . S
C1909 N1908 1.351 . S
C1909 C1910 1.434 . S
C1910 C1901 1.429 . S
C1910 N1907 1.350 . S
C1910 C1909 1.434 . S
C1911 C1912 1.369 . S
C1911 C1913 1.419 . S
C1911 H1915 0.930 . S
C1912 C1911 1.369 . S
C1912 C1921 1.429 . S
C1913 C1911 1.419 . S
C1913 C1914 1.363 . S
C1913 H1916 0.929 . S
C1914 C1913 1.363 . S
C1914 C1920 1.428 . S
H1915 C1911 0.930 . S
H1916 C1913 0.929 . S
S1917 N1918 1.613 . S
S1917 N1919 1.610 . S
N1918 S1917 1.613 . S
N1918 C1921 1.350 . S
N1919 S1917 1.610 . S
N1919 C1920 1.351 . S
C1920 C1914 1.428 . S
C1920 N1919 1.351 . S
C1920 C1921 1.434 . S
C1921 C1912 1.429 . S
C1921 N1918 1.350 . S
C1921 C1920 1.434 . S
C1922 C1923 1.369 . S
C1922 C1924 1.419 . S
C1922 H1926 0.930 . S
C1923 C1922 1.369 . S
C1923 C1932 1.429 . S
C1924 C1922 1.419 . S
C1924 C1925 1.363 . S
C1924 H1927 0.929 . S
C1925 C1924 1.363 . S
C1925 C1931 1.428 . S
H1926 C1922 0.930 . S
H1927 C1924 0.929 . S
S1928 N1929 1.613 1_455 S
S1928 N1930 1.610 . S
N1929 S1928 1.613 1_655 S
N1929 C1932 1.350 . S
N1930 S1928 1.610 . S
N1930 C1931 1.351 1_455 S
C1931 C1925 1.428 . S
C1931 N1930 1.351 1_655 S
C1931 C1932 1.434 . S
C1932 C1923 1.429 . S
C1932 N1929 1.350 . S
C1932 C1931 1.434 . S
C1933 C1934 1.369 . S
C1933 C1935 1.419 . S
C1933 H1937 0.930 . S
C1934 C1933 1.369 . S
C1934 C1943 1.429 . S
C1935 C1933 1.419 . S
C1935 C1936 1.363 . S
C1935 H1938 0.929 . S
C1936 C1935 1.363 . S
C1936 C1942 1.428 . S
H1937 C1933 0.930 . S
H1938 C1935 0.929 . S
S1939 N1940 1.613 . S
S1939 N1941 1.610 . S
N1940 S1939 1.613 . S
N1940 C1943 1.350 . S
N1941 S1939 1.610 . S
N1941 C1942 1.351 . S
C1942 C1936 1.428 . S
C1942 N1941 1.351 . S
C1942 C1943 1.434 . S
C1943 C1934 1.429 . S
C1943 N1940 1.350 . S
C1943 C1942 1.434 . S
C1944 C1945 1.369 . S
C1944 C1946 1.419 . S
C1944 H1948 0.930 . S
C1945 C1944 1.369 . S
C1945 C1954 1.429 . S
C1946 C1944 1.419 . S
C1946 C1947 1.363 . S
C1946 H1949 0.929 . S
C1947 C1946 1.363 . S
C1947 C1953 1.428 . S
H1948 C1944 0.930 . S
H1949 C1946 0.929 . S
S1950 N1951 1.613 . S
S1950 N1952 1.610 . S
N1951 S1950 1.613 . S
N1951 C1954 1.350 . S
N1952 S1950 1.610 . S
N1952 C1953 1.351 . S
C1953 C1947 1.428 . S
C1953 N1952 1.351 . S
C1953 C1954 1.434 . S
C1954 C1945 1.429 . S
C1954 N1951 1.350 . S
C1954 C1953 1.434 . S
C1955 C1956 1.369 . S
C1955 C1957 1.419 . S
C1955 H1959 0.930 . S
C1956 C1955 1.369 . S
C1956 C1965 1.429 . S
C1957 C1955 1.419 . S
C1957 C1958 1.363 . S
C1957 H1960 0.929 . S
C1958 C1957 1.363 . S
C1958 C1964 1.428 . S
H1959 C1955 0.930 . S
H1960 C1957 0.929 . S
S1961 N1962 1.613 1_545 S
S1961 N1963 1.610 . S
N1962 S1961 1.613 1_565 S
N1962 C1965 1.350 . S
N1963 S1961 1.610 . S
N1963 C1964 1.351 1_545 S
C1964 C1958 1.428 . S
C1964 N1963 1.351 1_565 S
C1964 C1965 1.434 . S
C1965 C1956 1.429 . S
C1965 N1962 1.350 . S
C1965 C1964 1.434 . S
C1966 C1967 1.369 . S
C1966 C1968 1.419 . S
C1966 H1970 0.930 . S
C1967 C1966 1.369 . S
C1967 C1976 1.429 . S
C1968 C1966 1.419 . S
C1968 C1969 1.363 . S
C1968 H1971 0.929 . S
C1969 C1968 1.363 . S
C1969 C1975 1.428 . S
H1970 C1966 0.930 . S
H1971 C1968 0.929 . S
S1972 N1973 1.613 . S
S1972 N1974 1.610 . S
N1973 S1972 1.613 . S
N1973 C1976 1.350 . S
N1974 S1972 1.610 . S
N1974 C1975 1.351 . S
C1975 C1969 1.428 . S
C1975 N1974 1.351 . S
C1975 C1976 1.434 . S
C1976 C1967 1.429 . S
C1976 N1973 1.350 . S
C1976 C1975 1.434 . S
C1977 C1978 1.369 . S
C1977 C1979 1.419 . S
C1977 H1981 0.930 . S
C1978 C1977 1.369 . S
C1978 C1987 1.429 . S
C1979 C1977 1.419 . S
C1979 C1980 1.363 . S
C1979 H1982 0.929 . S
C1980 C1979 1.363 . S
C1980 C1986 1.428 . S
H1981 C1977 0.930 . S
H1982 C1979 0.929 . S
S1983 N1984 1.613 . S
S1983 N1985 1.610 . S
N1984 S1983 1.613 . S
N1984 C1987 1.350 . S
N1985 S1983 1.610 . S
N1985 C1986 1.351 . S
C1986 C1980 1.428 . S
C1986 N1985 1.351 . S
C1986 C1987 1.434 . S
C1987 C1978 1.429 . S
C1987 N1984 1.350 . S
C1987 C1986 1.434 . S
C1988 C1989 1.369 . S
C1988 C1990 1.419 . S
C1988 H1992 0.930 . S
C1989 C1988 1.369 . S
C1989 C1998 1.429 . S
C1990 C1988 1.419 . S
C1990 C1991 1.363 . S
C1990 H1993 0.929 . S
C1991 C1990 1.363 . S
C1991 C1997 1.428 . S
H1992 C1988 0.930 . S
H1993 C1990 0.929 . S
S1994 N1995 1.613 . S
S1994 N1996 1.610 . S
N1995 S1994 1.613 . S
N1995 C1998 1.350 . S
N1996 S1994 1.610 . S
N1996 C1997 1.351 . S
C1997 C1991 1.428 . S
C1997 N1996 1.351 . S
C1997 C1998 1.434 . S
C1998 C1989 1.429 . S
C1998 N1995 1.350 . S
C1998 C1997 1.434 . S
C1999 C2000 1.369 . S
C1999 C2001 1.419 . S
C1999 H2003 0.930 . S
C2000 C1999 1.369 . S
C2000 C2009 1.429 . S
C2001 C1999 1.419 . S
C2001 C2002 1.363 . S
C2001 H2004 0.929 . S
C2002 C2001 1.363 . S
C2002 C2008 1.428 . S
H2003 C1999 0.930 . S
H2004 C2001 0.929 . S
S2005 N2006 1.613 . S
S2005 N2007 1.610 . S
N2006 S2005 1.613 . S
N2006 C2009 1.350 . S
N2007 S2005 1.610 . S
N2007 C2008 1.351 . S
C2008 C2002 1.428 . S
C2008 N2007 1.351 . S
C2008 C2009 1.434 . S
C2009 C2000 1.429 . S
C2009 N2006 1.350 . S
C2009 C2008 1.434 . S
C2010 C2011 1.369 . S
C2010 C2012 1.419 . S
C2010 H2014 0.930 . S
C2011 C2010 1.369 . S
C2011 C2020 1.429 . S
C2012 C2010 1.419 . S
C2012 C2013 1.363 . S
C2012 H2015 0.929 . S
C2013 C2012 1.363 . S
C2013 C2019 1.428 . S
H2014 C2010 0.930 . S
H2015 C2012 0.929 . S
S2016 N2017 1.613 . S
S2016 N2018 1.610 . S
N2017 S2016 1.613 . S
N2017 C2020 1.350 . S
N2018 S2016 1.610 . S
N2018 C2019 1.351 . S
C2019 C2013 1.428 . S
C2019 N2018 1.351 . S
C2019 C2020 1.434 . S
C2020 C2011 1.429 . S
C2020 N2017 1.350 . S
C2020 C2019 1.434 . S
C2021 C2022 1.369 . S
C2021 C2023 1.419 . S
C2021 H2025 0.930 . S
C2022 C2021 1.369 . S
C2022 C2031 1.429 . S
C2023 C2021 1.419 . S
C2023 C2024 1.363 . S
C2023 H2026 0.929 . S
C2024 C2023 1.363 . S
C2024 C2030 1.428 . S
H2025 C2021 0.930 . S
H2026 C2023 0.929 . S
S2027 N2028 1.613 . S
S2027 N2029 1.610 . S
N2028 S2027 1.613 . S
N2028 C2031 1.350 . S
N2029 S2027 1.610 . S
N2029 C2030 1.351 . S
C2030 C2024 1.428 . S
C2030 N2029 1.351 . S
C2030 C2031 1.434 . S
C2031 C2022 1.429 . S
C2031 N2028 1.350 . S
C2031 C2030 1.434 . S
C977 C105 2.450 . S
C979 C346 2.341 . S
C988 C65 2.080 . S
C990 C394 2.071 . S
C999 C73 1.511 . S
C1001 C426 1.509 . S
C1012 C471 1.696 . S
C1010 C92 1.798 . S
C1021 C17 0.991 . S
C1023 C511 0.987 . S
C1034 C546 1.211 . S
C1032 C37 1.163 . S
C1045 C585 1.368 . S
C1043 C49 1.266 . S
C1054 C8 1.355 . S
C1056 C622 1.340 . S
C1067 C354 2.218 . S
C1065 C231 2.165 1_545 S
C1076 C241 0.858 . S
C1078 C391 0.823 . S
C1089 C434 2.354 . S
C1087 C273 2.250 . S
C1100 C466 1.193 . S
C1098 C171 1.207 . S
C1109 C227 1.448 . S
C1111 C506 1.419 . S
C1122 C554 0.683 . S
C1120 C245 0.819 . S
C1133 C595 2.179 . S
C1131 C269 2.289 . S
C1144 C625 2.093 . S
C1142 C175 2.079 . S
C1155 C351 2.032 . S
C1153 C162 2.082 1_554 S
C1164 C289 2.167 . S
C1166 C674 2.155 . S
C1177 C711 1.323 . S
C1175 C330 1.333 . S
C1188 C742 1.147 . S
C1186 C317 1.249 . S
C1197 C120 2.719 . S
C1199 C635 2.688 . S
C1208 C134 1.526 . S
C1210 C431 1.467 . S
C1219 C331 1.802 . S
C1221 C794 1.830 . S
C1232 C826 1.912 . S
C1230 C303 1.903 . S
C1243 C355 2.333 . S
C1241 C59 2.428 . S
C1254 C825 2.116 . S
C1252 C107 2.110 . S
C1263 C91 1.550 . S
C1265 C435 1.554 . S
C1274 C78 1.783 . S
C1276 C782 1.705 . S
C1287 C502 1.014 1_655 S
C1285 C7 1.007 . S
C1296 C51 1.222 . S
C1298 C715 1.277 . S
C1309 C594 1.341 . S
C1307 C31 1.333 . S
C1320 C871 1.349 . S
C1318 C22 1.342 . S
C1331 C345 2.223 1_556 S
C1329 C143 2.201 . S
C1342 C822 0.855 . S
C1340 C315 0.814 . S
C1351 C115 2.389 . S
C1353 C425 2.375 . S
C1362 C287 1.225 . S
C1364 C795 1.241 . S
C1373 C147 1.474 . S
C1375 C515 1.461 . S
C1386 C705 0.670 . S
C1384 C311 0.719 . S
C1395 C119 2.192 . S
C1397 C586 2.211 . S
C1406 C283 2.081 1_556 S
C1408 C874 2.088 . S
C1417 C190 1.963 . S
C1419 C342 1.987 . S
C1428 C177 2.193 . S
C1430 C665 2.190 . S
C1439 C260 1.308 . S
C1441 C542 1.306 . S
C1450 C247 1.201 . S
C1452 C751 1.114 . S
C1463 C866 2.705 . S
C1461 C274 2.741 . S
C1472 C218 1.525 . S
C1474 C422 1.487 . S
C1485 C465 1.846 . S
C1483 C261 1.802 . S
C1496 C395 1.939 . S
C1494 C205 1.939 . S
C1505 C77 2.449 . S
C1507 C906 2.343 . S
C1518 C834 2.073 . S
C1516 C93 2.077 . S
C1527 C101 1.515 . S
C1529 C946 1.513 . S
C1538 C64 1.804 1_655 S
C1540 C791 1.689 . S
C1549 C45 0.990 . S
C1551 C671 0.985 . S
C1562 C706 1.212 . S
C1560 C9 1.159 . S
C1573 C745 1.364 . S
C1571 C21 1.280 . S
C1584 C862 1.334 . S
C1582 C36 1.363 . S
C1595 C914 2.217 . S
C1593 C259 2.168 . S
C1604 C185 0.839 . S
C1606 C831 0.835 . S
C1617 C954 2.354 . S
C1615 C203 2.251 . S
C1628 C786 1.190 . S
C1626 C213 1.206 . S
C1639 C666 1.422 1_556 S
C1637 C255 1.450 . S
C1648 C189 0.828 . S
C1650 C714 0.671 . S
C1661 C755 2.179 . S
C1659 C199 2.291 . S
C1670 C217 2.079 . S
C1672 C865 2.093 . S
C1683 C911 2.037 . S
C1681 C316 2.082 . S
C1692 C135 2.167 . S
C1694 C514 2.154 . S
C1705 C551 1.320 . S
C1703 C148 1.335 1_565 S
C1716 C582 1.138 . S
C1714 C163 1.257 . S
C1727 C875 2.689 . S
C1725 C302 2.719 . S
C1736 C288 1.521 . S
C1738 C951 1.475 . S
C1749 C474 1.832 . S
C1747 C149 1.798 . S
C1760 C386 1.911 . S
C1758 C121 1.907 . S
C1769 C87 2.427 . S
C1771 C915 2.328 . S
C1782 C385 2.117 . S
C1780 C79 2.109 . S
C1791 C63 1.546 . S
C1793 C955 1.553 . S
C1802 C106 1.778 . S
C1804 C462 1.709 . S
C1813 C35 1.008 . S
C1815 C662 1.015 . S
C1826 C555 1.277 . S
C1824 C23 1.222 . S
C1835 C3 1.338 . S
C1837 C754 1.343 . S
C1846 C50 1.351 . S
C1848 C631 1.345 . S
C1859 C905 2.225 . S
C1857 C325 2.197 . S
C1868 C161 0.814 . S
C1870 C382 0.851 . S
C1881 C945 2.376 1_656 S
C1879 C297 2.389 . S
C1890 C133 1.224 . S
C1892 C475 1.240 . S
C1901 C329 1.471 . S
C1903 C675 1.463 . S
C1914 C545 0.683 . S
C1912 C157 0.704 . S
C1923 C301 2.192 . S
C1925 C746 2.211 1_655 S
C1936 C634 2.089 . S
C1934 C129 2.082 . S
C1947 C902 1.984 . S
C1945 C246 1.968 . S
C1958 C505 2.189 1_565 S
C1956 C219 2.194 . S
C1967 C232 1.304 . S
C1969 C702 1.307 . S
C1980 C591 1.100 . S
C1978 C191 1.212 . S
C1989 C204 2.740 . S
C1991 C626 2.707 . S
C2000 C176 1.521 . S
C2002 C942 1.493 . S
C2013 C785 1.845 . S
C2011 C233 1.807 . S
C2024 C835 1.941 . S
C2022 C275 1.940 . S
