# Generated by pormake.
# Topology nia, (6,6)-cn, num edge types: 1
# Building blocks:
#     Node 0, Type 0, BuildingBlock: CUKXOW_clean_sbu_0, # of connection points: 6
#     Node 1, Type 0, BuildingBlock: CUKXOW_clean_sbu_0, # of connection points: 6
#     Node 2, Type 1, BuildingBlock: MIDCAF_clean_sbu_0, # of connection points: 6
#     Node 3, Type 1, BuildingBlock: MIDCAF_clean_sbu_0, # of connection points: 6
#     Edge 4, Type (0, 1), BuildingBlock: FUNLAD_clean_linker_0, # of connection points: 2
#     Edge 5, Type (0, 1), BuildingBlock: FUNLAD_clean_linker_0, # of connection points: 2
#     Edge 6, Type (0, 1), BuildingBlock: FUNLAD_clean_linker_0, # of connection points: 2
#     Edge 7, Type (0, 1), BuildingBlock: FUNLAD_clean_linker_0, # of connection points: 2
#     Edge 8, Type (0, 1), BuildingBlock: FUNLAD_clean_linker_0, # of connection points: 2
#     Edge 9, Type (0, 1), BuildingBlock: FUNLAD_clean_linker_0, # of connection points: 2
#     Edge 10, Type (0, 1), BuildingBlock: FUNLAD_clean_linker_0, # of connection points: 2
#     Edge 11, Type (0, 1), BuildingBlock: FUNLAD_clean_linker_0, # of connection points: 2
#     Edge 12, Type (0, 1), BuildingBlock: FUNLAD_clean_linker_0, # of connection points: 2
#     Edge 13, Type (0, 1), BuildingBlock: FUNLAD_clean_linker_0, # of connection points: 2
#     Edge 14, Type (0, 1), BuildingBlock: FUNLAD_clean_linker_0, # of connection points: 2
#     Edge 15, Type (0, 1), BuildingBlock: FUNLAD_clean_linker_0, # of connection points: 2
# Relax obj value: 0.193
# Max RMSD: 0.252
# Mean RMSD: 0.208
data_MOF--net-nia--node1-CUKXOW_clean_sbu_0--node2-MIDCAF_clean_sbu_0--edge1-FUNLAD_clean_linker_0
_symmetry_space_group_name_H-M    P1
_symmetry_Int_Tables_number       1
_symmetry_cell_setting            triclinic
loop_
_symmetry_equiv_pos_as_xyz
'x, y, z'
_cell_length_a     28.756845
_cell_length_b     28.717548
_cell_length_c     33.470952
_cell_angle_alpha  87.111786
_cell_angle_beta   88.460966
_cell_angle_gamma 125.86379
loop_
_atom_site_label
_atom_site_type_symbol
_atom_site_fract_x
_atom_site_fract_y
_atom_site_fract_z
_atom_type_partial_charge
Tb0 Tb 0.0129 0.06027 0.05435 0.0
C1 C 0.07867 0.03887 0.98853 0.0
Tb2 Tb 0.95121 0.94627 1.01953 0.0
O3 O 0.00898 0.02067 0.11304 0.0
O4 O 0.01509 -0.01238 0.061 0.0
O5 O 0.07497 0.07801 1.00492 0.0
C6 C 0.89627 0.83779 1.00057 0.0
O7 O 0.03737 0.98293 0.99499 0.0
C8 C 0.95721 0.02749 0.9746 0.0
C9 C 0.88546 0.96586 0.0863 0.0
O10 O 0.88478 0.8733 0.98839 0.0
O11 O 0.93809 0.86296 1.02416 0.0
O12 O 0.95774 -0.01351 0.96073 0.0
O13 O 0.94944 0.0193 1.01231 0.0
O14 O 0.88885 0.92779 0.06816 0.0
O15 O 0.92699 0.02196 0.08142 0.0
C16 C 0.06666 0.16863 0.0738 0.0
O17 O 0.08383 0.13632 0.08059 0.0
O18 O 0.01993 0.14048 0.05493 0.0
C19 C 0.0087 0.97947 0.09866 0.0
Tb20 Tb 0.94155 -0.00671 0.51566 0.0
C21 C 0.92647 0.90408 0.58071 0.0
Tb22 Tb 0.04377 0.02914 0.56115 0.0
O23 O 0.94307 0.92626 0.48978 0.0
O24 O 0.01987 0.00301 0.50267 0.0
O25 O 0.89853 0.92047 0.56064 0.0
C26 C 0.12686 0.03617 0.60033 0.0
O27 O -0.01657 0.93724 0.5805 0.0
C28 C -0.01268 0.06901 0.58599 0.0
C29 C 0.05828 0.11904 0.49694 0.0
O30 O 0.08479 0.03508 0.61641 0.0
O31 O 0.12284 0.03404 0.56181 0.0
O32 O 0.04242 0.09613 0.58732 0.0
O33 O 0.96561 0.01963 0.57409 0.0
O34 O 0.08659 0.10338 0.51735 0.0
O35 O 0.00139 0.08522 0.49637 0.0
C36 C 0.85826 -0.01597 0.47525 0.0
O37 O 0.90225 -0.01199 0.45977 0.0
O38 O 0.86063 -0.01508 0.51394 0.0
C39 C -0.00176 0.9537 0.49065 0.0
Zn40 Zn 0.30878 0.72924 0.20808 0.0
Zn41 Zn 0.27739 0.71183 0.36462 0.0
Zn42 Zn 0.29382 0.71615 0.28618 0.0
C43 C 0.39511 0.79181 0.34396 0.0
C44 C 0.24125 0.6014 0.34677 0.0
O45 O 0.24278 0.74496 0.26036 0.0
O46 O 0.24984 0.74109 0.1948 0.0
C47 C 0.41677 0.8019 0.23324 0.0
O48 O 0.37906 0.77343 0.30912 0.0
O49 O 0.35876 0.77345 0.37346 0.0
O50 O 0.24747 0.63023 0.37604 0.0
O51 O 0.25479 0.62552 0.31063 0.0
O52 O 0.39133 0.79493 0.20156 0.0
O53 O 0.38761 0.77479 0.2668 0.0
O54 O 0.25973 0.62996 0.26778 0.0
O55 O 0.28871 0.65105 0.20316 0.0
C56 C 0.2648 0.61482 0.2333 0.0
O57 O 0.24109 0.7476 0.30196 0.0
O58 O 0.2239 0.73304 0.36804 0.0
C59 C 0.22874 0.74928 0.22478 0.0
C60 C 0.21773 0.75005 0.33451 0.0
Zn61 Zn 0.66973 0.28228 0.85961 0.0
Zn62 Zn 0.69645 0.30925 0.70639 0.0
Zn63 Zn 0.67781 0.29642 0.78164 0.0
C64 C 0.72195 0.41243 0.72449 0.0
C65 C 0.58062 0.21545 0.72487 0.0
O66 O 0.72766 0.26459 0.80526 0.0
O67 O 0.71033 0.24786 0.87118 0.0
C68 C 0.72523 0.39996 0.83693 0.0
O69 O 0.71674 0.38827 0.75955 0.0
O70 O 0.70972 0.3841 0.69408 0.0
O71 O 0.62016 0.23865 0.69709 0.0
O72 O 0.59194 0.23457 0.75993 0.0
O73 O 0.71307 0.36546 0.867 0.0
O74 O 0.71355 0.38211 0.80158 0.0
O75 O 0.58435 0.24264 0.80117 0.0
O76 O 0.58527 0.23572 0.86732 0.0
C77 C 0.55769 0.22581 0.83637 0.0
O78 O 0.7321 0.26831 0.76301 0.0
O79 O 0.76247 0.30497 0.70018 0.0
C80 C 0.73502 0.24791 0.83952 0.0
C81 C 0.76328 0.27815 0.73083 0.0
C82 C 0.03517 0.91073 0.10272 0.0
C83 C 0.02183 0.94408 0.12214 0.0
C84 C 0.0539 0.88234 0.1243 0.0
C85 C 0.05931 0.88642 0.16595 0.0
C86 C 0.04461 0.91874 0.18542 0.0
C87 C 0.02571 0.94702 0.1638 0.0
C88 C 0.08503 0.86199 0.18901 0.0
C89 C 0.08372 0.81692 0.17759 0.0
C90 C 0.1167 0.79675 0.19526 0.0
C91 C 0.10985 0.74859 0.17994 0.0
C92 C 0.14492 0.73204 0.19096 0.0
C93 C 0.18731 0.76279 0.21802 0.0
H94 H 0.16562 0.86414 0.23606 0.0
C95 C 0.19303 0.80948 0.23481 0.0
C96 C 0.15805 0.82645 0.22362 0.0
H97 H 0.22668 0.83485 0.25476 0.0
H98 H 0.03325 0.9083 0.07055 0.0
H99 H 0.06652 0.85955 0.10779 0.0
H100 H 0.0488 0.92305 0.21734 0.0
H101 H 0.01582 0.9726 0.17953 0.0
H102 H 0.10613 0.88269 0.21562 0.0
H103 H 0.05844 0.79429 0.15268 0.0
H104 H 0.0786 0.7248 0.1581 0.0
H105 H 0.13986 0.6959 0.1775 0.0
C106 C 0.2167 0.04198 0.60271 0.0
C107 C 0.17219 0.04018 0.6227 0.0
C108 C 0.26129 0.04897 0.62392 0.0
C109 C 0.26185 0.05389 0.66566 0.0
C110 C 0.21649 0.05084 0.68558 0.0
C111 C 0.17192 0.04378 0.66436 0.0
C112 C 0.31204 0.06919 0.68834 0.0
C113 C 0.35106 0.06064 0.67567 0.0
C114 C 0.40888 0.09207 0.6912 0.0
C115 C 0.4561 0.11431 0.6637 0.0
C116 C 0.5118 0.1527 0.67524 0.0
C117 C 0.5216 0.16894 0.71486 0.0
H118 H 0.38266 0.08635 0.75375 0.0
C119 C 0.47447 0.1422 0.74326 0.0
C120 C 0.41838 0.10463 0.73151 0.0
H121 H 0.48074 0.15103 0.77422 0.0
H122 H 0.21783 0.03947 0.57055 0.0
H123 H 0.29625 0.05304 0.60704 0.0
H124 H 0.21615 0.05519 0.71754 0.0
H125 H 0.1379 0.0424 0.68047 0.0
H126 H 0.31944 0.09284 0.71462 0.0
H127 H 0.34414 0.03713 0.64944 0.0
H128 H 0.44987 0.10468 0.63257 0.0
H129 H 0.54704 0.17116 0.65256 0.0
C130 C 0.13879 0.24738 0.11388 0.0
C131 C 0.08978 0.22314 0.09201 0.0
C132 C 0.157 0.29493 0.13556 0.0
C133 C 0.12615 0.31907 0.13602 0.0
C134 C 0.07813 0.29567 0.11293 0.0
C135 C 0.06009 0.24817 0.09112 0.0
C136 C 0.14262 0.3689 0.15935 0.0
C137 C 0.18508 0.39293 0.18472 0.0
C138 C 0.20427 0.44692 0.20274 0.0
C139 C 0.26343 0.49044 0.20253 0.0
C140 C 0.28313 0.54472 0.2142 0.0
C141 C 0.24396 0.55551 0.2277 0.0
H142 H 0.11914 0.42351 0.21919 0.0
C143 C 0.18489 0.51097 0.23075 0.0
C144 C 0.16502 0.45693 0.21799 0.0
H145 H 0.15418 0.51883 0.241 0.0
H146 H 0.16247 0.22882 0.11495 0.0
H147 H 0.19497 0.31175 0.15187 0.0
H148 H 0.05381 0.31356 0.11226 0.0
H149 H 0.02194 0.23004 0.07458 0.0
H150 H 0.1197 0.38799 0.15436 0.0
H151 H 0.21057 0.37687 0.1896 0.0
H152 H 0.29435 0.48344 0.19119 0.0
H153 H 0.32891 0.57883 0.21166 0.0
C154 C -0.01472 0.14349 0.61863 0.0
C155 C 0.95516 0.08756 0.60602 0.0
C156 C 0.95651 0.16129 0.63969 0.0
C157 C 0.89672 0.12317 0.64911 0.0
C158 C 0.86642 0.06755 0.63553 0.0
C159 C 0.89535 0.04982 0.61419 0.0
C160 C 0.86432 0.14091 0.67097 0.0
C161 C 0.88934 0.18728 0.69264 0.0
C162 C 0.85795 0.20976 0.7081 0.0
C163 C 0.88582 0.26958 0.70494 0.0
C164 C 0.85554 0.29224 0.71423 0.0
C165 C 0.7975 0.2555 0.72821 0.0
H166 H 0.77829 0.12684 0.7274 0.0
C167 C 0.7705 0.19596 0.73403 0.0
C168 C 0.80043 0.17309 0.72383 0.0
H169 H 0.72547 0.16694 0.74438 0.0
H170 H 0.03137 0.17372 0.61221 0.0
H171 H -0.01843 0.20529 0.64778 0.0
H172 H 0.82026 0.03757 0.64171 0.0
H173 H 0.87112 0.00646 0.60465 0.0
H174 H 0.81827 0.1159 0.66777 0.0
H175 H 0.93522 0.21315 0.69613 0.0
H176 H 0.93024 0.29865 0.69316 0.0
H177 H 0.87693 0.3383 0.70934 0.0
C178 C 0.82763 -0.01599 0.13186 0.0
C179 C 0.83304 0.94508 0.11219 0.0
C180 C 0.77737 0.96452 0.15522 0.0
C181 C 0.73111 0.90554 0.15923 0.0
C182 C 0.73731 0.86661 0.14047 0.0
C183 C 0.78748 0.88606 0.11716 0.0
C184 C 0.67552 0.88258 0.18208 0.0
C185 C 0.65668 0.91466 0.19041 0.0
C186 C 0.59714 0.88888 0.20728 0.0
C187 C 0.57094 0.91598 0.19664 0.0
C188 C 0.5127 0.88928 0.20731 0.0
C189 C 0.47994 0.83564 0.2297 0.0
H190 H 0.58393 0.81504 0.24136 0.0
C191 C 0.5067 0.80995 0.2423 0.0
C192 C 0.56493 0.83653 0.23159 0.0
H193 H 0.48176 0.76758 0.2583 0.0
H194 H 0.86213 0.02973 0.12912 0.0
H195 H 0.77532 -0.00411 0.17011 0.0
H196 H 0.7027 0.8209 0.14323 0.0
H197 H 0.79016 0.85472 0.10272 0.0
H198 H 0.64682 0.83621 0.18901 0.0
H199 H 0.68291 0.96021 0.18049 0.0
H200 H 0.59475 0.95647 0.17819 0.0
H201 H 0.49266 0.90944 0.19673 0.0
C202 C 0.92343 0.82726 0.62239 0.0
C203 C 0.89393 0.84652 0.60326 0.0
C204 C 0.89346 0.77221 0.64231 0.0
C205 C 0.83295 0.73504 0.64397 0.0
C206 C 0.80349 0.75464 0.62526 0.0
C207 C 0.83354 0.80973 0.6052 0.0
C208 C 0.79937 0.67423 0.66179 0.0
C209 C 0.8206 0.65323 0.68647 0.0
C210 C 0.79005 0.59069 0.69899 0.0
C211 C 0.81049 0.57424 0.73041 0.0
C212 C 0.78714 0.51605 0.73998 0.0
C213 C 0.7426 0.47318 0.71847 0.0
H214 H 0.72849 0.55733 0.65276 0.0
C215 C 0.72135 0.48937 0.68768 0.0
C216 C 0.74472 0.54725 0.67795 0.0
H217 H 0.68744 0.45715 0.67026 0.0
H218 H 0.96998 0.85425 0.62137 0.0
H219 H 0.91832 0.75875 0.6551 0.0
H220 H 0.75696 0.7269 0.62566 0.0
H221 H 0.80939 0.8231 0.59082 0.0
H222 H 0.75534 0.64573 0.65356 0.0
H223 H 0.8627 0.68259 0.69763 0.0
H224 H 0.84583 0.60661 0.74684 0.0
H225 H 0.8056 0.50489 0.76294 0.0
C226 C 0.00082 0.88353 0.45187 0.0
C227 C 0.03067 0.93664 0.46895 0.0
C228 C 0.03045 0.86787 0.4293 0.0
C229 C 0.09077 0.90523 0.42319 0.0
C230 C 0.12066 0.95779 0.44114 0.0
C231 C 0.0909 0.97355 0.46366 0.0
C232 C 0.12396 0.88914 0.40058 0.0
C233 C 0.10172 0.85022 0.37278 0.0
C234 C 0.13273 0.82823 0.35531 0.0
C235 C 0.10088 0.77058 0.34566 0.0
C236 C 0.12877 0.74555 0.33568 0.0
C237 C 0.18887 0.77833 0.33433 0.0
H238 H 0.21914 0.90712 0.35653 0.0
C239 C 0.22094 0.83702 0.34075 0.0
C240 C 0.19317 0.862 0.35086 0.0
H241 H 0.26747 0.86282 0.33996 0.0
H242 H 0.95435 0.85396 0.45583 0.0
H243 H 0.00582 0.826 0.41748 0.0
H244 H 0.16718 -0.01302 0.43748 0.0
H245 H 0.11493 0.01474 0.47658 0.0
H246 H 0.16793 0.90905 0.40836 0.0
H247 H 0.05774 0.83002 0.36498 0.0
H248 H 0.05429 0.74385 0.34838 0.0
H249 H 0.10344 0.69999 0.3312 0.0
C250 C 0.17669 0.11514 0.95427 0.0
C251 C 0.13081 0.05676 0.96337 0.0
C252 C 0.22666 0.13052 0.93216 0.0
C253 C 0.23155 0.08766 0.91884 0.0
C254 C 0.18526 0.02963 0.92736 0.0
C255 C 0.13552 0.01435 0.94906 0.0
C256 C 0.28568 0.10085 0.8996 0.0
C257 C 0.32696 0.15131 0.87923 0.0
C258 C 0.38331 0.16448 0.86487 0.0
C259 C 0.41504 0.20436 0.83159 0.0
C260 C 0.47067 0.22161 0.82026 0.0
C261 C 0.49569 0.19971 0.84241 0.0
H262 H 0.38585 0.11181 0.91256 0.0
C263 C 0.46343 0.1588 0.87497 0.0
C264 C 0.40796 0.14128 0.88606 0.0
H265 H 0.48205 0.14192 0.89292 0.0
H266 H 0.17452 0.14888 0.96486 0.0
H267 H 0.26198 0.17574 0.92693 0.0
H268 H 0.1879 -0.00429 0.91775 0.0
H269 H 0.10121 0.9689 0.95529 0.0
H270 H 0.29139 0.06664 0.90226 0.0
H271 H 0.31963 0.1839 0.87291 0.0
H272 H 0.39731 0.22326 0.81495 0.0
H273 H 0.49511 0.25403 0.79547 0.0
C274 C 0.06618 0.18782 0.4435 0.0
C275 C 0.09004 0.17722 0.47571 0.0
C276 C 0.09293 0.24372 0.42574 0.0
C277 C 0.14374 0.29037 0.44026 0.0
C278 C 0.1682 0.27961 0.47191 0.0
C279 C 0.14206 0.22346 0.48914 0.0
C280 C 0.16824 0.35087 0.42606 0.0
C281 C 0.16494 0.36734 0.38844 0.0
C282 C 0.18362 0.42686 0.3771 0.0
C283 C 0.21343 0.45515 0.33988 0.0
C284 C 0.23209 0.51185 0.32959 0.0
C285 C 0.21919 0.54031 0.3556 0.0
H286 H 0.14646 0.43403 0.43158 0.0
C287 C 0.18794 0.5111 0.39237 0.0
C288 C 0.17059 0.45523 0.40307 0.0
H289 H 0.1772 0.53165 0.41322 0.0
H290 H 0.02609 0.15298 0.4325 0.0
H291 H 0.07222 0.25058 0.402 0.0
H292 H 0.20703 0.31492 0.48389 0.0
H293 H 0.16119 0.21667 0.51411 0.0
H294 H 0.18954 0.38312 0.44767 0.0
H295 H 0.14903 0.33706 0.36541 0.0
H296 H 0.22397 0.43412 0.31935 0.0
H297 H 0.2585 0.53408 0.3022 0.0
C298 C 0.93049 0.09605 0.96768 0.0
C299 C 0.94455 0.06225 0.94985 0.0
C300 C 0.91181 0.12329 0.9445 0.0
C301 C 0.90702 0.1173 0.90295 0.0
C302 C 0.92267 0.08478 0.88511 0.0
C303 C 0.94169 0.0579 0.90823 0.0
C304 C 0.88083 0.13973 0.87835 0.0
C305 C 0.88246 0.18576 0.88737 0.0
C306 C 0.84908 0.20383 0.86759 0.0
C307 C 0.86335 0.25858 0.874 0.0
C308 C 0.82777 0.27414 0.86212 0.0
C309 C 0.77735 0.23536 0.84342 0.0
H310 H 0.78632 0.12288 0.84212 0.0
C311 C 0.76405 0.18168 0.83507 0.0
C312 C 0.79972 0.16593 0.84696 0.0
H313 H 0.72447 0.15074 0.82154 0.0
H314 H 0.93184 0.09968 0.99975 0.0
H315 H 0.89864 0.14663 0.95962 0.0
H316 H 0.91907 0.07916 0.85329 0.0
H317 H 0.95228 0.03206 0.89369 0.0
H318 H 0.85945 0.11722 0.85227 0.0
H319 H 0.90857 0.21104 0.91123 0.0
H320 H 0.90078 0.28852 0.88992 0.0
H321 H 0.83822 0.31553 0.86928 0.0
C322 C 0.76239 0.96591 0.47151 0.0
C323 C 0.81161 0.97588 0.45216 0.0
C324 C 0.71623 0.9532 0.44944 0.0
C325 C 0.7189 0.95075 0.40752 0.0
C326 C 0.76898 0.96237 0.38827 0.0
C327 C 0.81498 0.97501 0.41033 0.0
C328 C 0.66845 0.93024 0.38363 0.0
C329 C 0.62407 0.93123 0.39562 0.0
C330 C 0.56871 0.90038 0.37621 0.0
C331 C 0.53028 0.91416 0.38494 0.0
C332 C 0.47439 0.88041 0.3725 0.0
C333 C 0.45612 0.83251 0.35089 0.0
H334 H 0.57777 0.83942 0.34732 0.0
C335 C 0.49465 0.81947 0.34108 0.0
C336 C 0.55056 0.8531 0.35348 0.0
H337 H 0.48025 0.78088 0.3264 0.0
H338 H 0.75879 0.96607 0.5038 0.0
H339 H 0.67784 0.94286 0.46566 0.0
H340 H 0.77203 0.96033 0.35615 0.0
H341 H 0.85262 0.98265 0.39469 0.0
H342 H 0.66767 0.91254 0.35554 0.0
H343 H 0.62735 0.95399 0.42156 0.0
H344 H 0.54281 0.94983 0.40273 0.0
H345 H 0.44479 0.89056 0.3809 0.0
C346 C 0.83436 0.76366 0.95396 0.0
C347 C 0.87255 0.7819 0.98455 0.0
C348 C 0.81697 0.714 0.93524 0.0
C349 C 0.83765 0.68186 0.9469 0.0
C350 C 0.8738 0.69887 0.97874 0.0
C351 C 0.89144 0.74871 0.99727 0.0
C352 C 0.8221 0.63003 0.92713 0.0
C353 C 0.80694 0.62073 0.889 0.0
C354 C 0.79196 0.56801 0.87081 0.0
C355 C 0.74899 0.54284 0.84337 0.0
C356 C 0.729 0.48902 0.8301 0.0
C357 C 0.75252 0.46049 0.84375 0.0
H358 H 0.8533 0.56055 0.90148 0.0
C359 C 0.79817 0.48749 0.86883 0.0
C360 C 0.81822 0.54108 0.88188 0.0
H361 H 0.81717 0.46623 0.87934 0.0
H362 H 0.81897 0.7885 0.94381 0.0
H363 H 0.7874 0.70109 0.91183 0.0
H364 H 0.8897 0.67437 0.98861 0.0
H365 H 0.92089 0.76196 1.02086 0.0
H366 H 0.82461 0.59885 0.94477 0.0
H367 H 0.80327 0.65089 0.87113 0.0
H368 H 0.72883 0.56333 0.83389 0.0
H369 H 0.69348 0.46853 0.81085 0.0
loop_
_geom_bond_atom_site_label_1
_geom_bond_atom_site_label_2
_geom_bond_distance
_geom_bond_site_symmetry_2
_ccdc_geom_bond_type
Tb0 O3 2.453 1_545 S
Tb0 O4 2.596 1_545 S
Tb0 O5 2.374 1_554 S
Tb0 O13 2.343 1_454 S
Tb0 O15 2.353 1_455 S
Tb0 O17 2.427 . S
Tb0 O18 2.513 . S
C1 O5 1.251 . S
C1 O7 1.263 . S
Tb2 O4 2.343 1_656 S
Tb2 O7 2.353 1_665 S
Tb2 O10 2.427 . S
Tb2 O11 2.513 . S
Tb2 O12 2.453 1_565 S
Tb2 O13 2.596 1_565 S
Tb2 O14 2.374 1_556 S
O3 Tb0 2.453 1_565 S
O3 C19 1.245 . S
O4 Tb0 2.596 1_565 S
O4 Tb2 2.343 1_454 S
O4 C19 1.259 . S
O5 Tb0 2.374 1_556 S
O5 C1 1.251 . S
C6 O10 1.275 . S
C6 O11 1.246 . S
O7 C1 1.263 . S
O7 Tb2 2.353 1_445 S
C8 O12 1.245 . S
C8 O13 1.259 . S
C9 O14 1.250 . S
C9 O15 1.263 1_565 S
O10 Tb2 2.427 . S
O10 C6 1.275 . S
O11 Tb2 2.513 . S
O11 C6 1.246 . S
O12 Tb2 2.453 1_545 S
O12 C8 1.245 . S
O13 Tb0 2.343 1_656 S
O13 Tb2 2.596 1_545 S
O13 C8 1.259 . S
O14 Tb2 2.374 1_554 S
O14 C9 1.250 . S
O15 Tb0 2.353 1_655 S
O15 C9 1.263 1_545 S
C16 O17 1.275 . S
C16 O18 1.246 . S
O17 Tb0 2.427 . S
O17 C16 1.275 . S
O18 Tb0 2.513 . S
O18 C16 1.246 . S
C19 O3 1.245 . S
C19 O4 1.259 . S
Tb20 O23 2.453 1_655 S
Tb20 O24 2.596 1_665 S
Tb20 O25 2.374 . S
Tb20 O33 2.343 1_565 S
Tb20 O35 2.353 1_665 S
Tb20 O37 2.413 1_565 S
Tb20 O38 2.513 . S
C21 O25 1.251 . S
C21 O27 1.263 . S
Tb22 O24 2.343 . S
Tb22 O27 2.353 1_445 S
Tb22 O30 2.427 . S
Tb22 O31 2.513 . S
Tb22 O32 2.453 1_455 S
Tb22 O33 2.596 1_455 S
Tb22 O34 2.374 . S
O23 Tb20 2.453 1_455 S
O23 C39 1.245 . S
O24 Tb20 2.596 1_445 S
O24 Tb22 2.343 . S
O24 C39 1.259 1_545 S
O25 Tb20 2.374 . S
O25 C21 1.251 . S
C26 O30 1.275 . S
C26 O31 1.246 . S
O27 C21 1.263 . S
O27 Tb22 2.353 1_665 S
C28 O32 1.245 . S
C28 O33 1.259 . S
C29 O34 1.250 . S
C29 O35 1.263 . S
O30 Tb22 2.427 . S
O30 C26 1.275 . S
O31 Tb22 2.513 . S
O31 C26 1.246 . S
O32 Tb22 2.453 1_655 S
O32 C28 1.245 . S
O33 Tb20 2.343 1_545 S
O33 Tb22 2.596 1_655 S
O33 C28 1.259 . S
O34 Tb22 2.374 . S
O34 C29 1.250 . S
O35 Tb20 2.353 1_445 S
O35 C29 1.263 . S
C36 O37 1.269 1_565 S
C36 O38 1.246 . S
O37 Tb20 2.413 1_545 S
O37 C36 1.269 1_545 S
O38 Tb20 2.513 . S
O38 C36 1.246 . S
C39 O23 1.245 . S
C39 O24 1.259 1_565 S
Zn40 O46 1.920 . S
Zn40 O52 1.898 . S
Zn40 O55 1.905 . S
Zn41 O49 1.905 . S
Zn41 O50 1.898 . S
Zn41 O58 1.920 . S
Zn42 O45 2.080 . S
Zn42 O48 2.114 . S
Zn42 O51 2.120 . S
Zn42 O53 2.120 . S
Zn42 O54 2.114 . S
Zn42 O57 2.080 . S
C43 O48 1.166 . S
C43 O49 1.182 . S
C44 O50 1.167 . S
C44 O51 1.299 . S
O45 Zn42 2.080 . S
O45 C59 1.305 . S
O46 Zn40 1.920 . S
O46 C59 1.234 . S
C47 O52 1.167 . S
C47 O53 1.299 . S
O48 Zn42 2.114 . S
O48 C43 1.166 . S
O49 Zn41 1.905 . S
O49 C43 1.182 . S
O50 Zn41 1.898 . S
O50 C44 1.167 . S
O51 Zn42 2.120 . S
O51 C44 1.299 . S
O52 Zn40 1.898 . S
O52 C47 1.167 . S
O53 Zn42 2.120 . S
O53 C47 1.299 . S
O54 Zn42 2.114 . S
O54 C56 1.166 . S
O55 Zn40 1.905 . S
O55 C56 1.182 . S
C56 O54 1.166 . S
C56 O55 1.182 . S
O57 Zn42 2.080 . S
O57 C60 1.305 . S
O58 Zn41 1.920 . S
O58 C60 1.234 . S
C59 O45 1.305 . S
C59 O46 1.234 . S
C60 O57 1.305 . S
C60 O58 1.234 . S
Zn61 O67 1.920 . S
Zn61 O73 1.898 . S
Zn61 O76 1.905 . S
Zn62 O70 1.905 . S
Zn62 O71 1.898 . S
Zn62 O79 1.920 . S
Zn63 O66 2.080 . S
Zn63 O69 2.114 . S
Zn63 O72 2.120 . S
Zn63 O74 2.120 . S
Zn63 O75 2.114 . S
Zn63 O78 2.080 . S
C64 O69 1.166 . S
C64 O70 1.182 . S
C65 O71 1.167 . S
C65 O72 1.299 . S
O66 Zn63 2.080 . S
O66 C80 1.305 . S
O67 Zn61 1.920 . S
O67 C80 1.234 . S
C68 O73 1.167 . S
C68 O74 1.299 . S
O69 Zn63 2.114 . S
O69 C64 1.166 . S
O70 Zn62 1.905 . S
O70 C64 1.182 . S
O71 Zn62 1.898 . S
O71 C65 1.167 . S
O72 Zn63 2.120 . S
O72 C65 1.299 . S
O73 Zn61 1.898 . S
O73 C68 1.167 . S
O74 Zn63 2.120 . S
O74 C68 1.299 . S
O75 Zn63 2.114 . S
O75 C77 1.166 . S
O76 Zn61 1.905 . S
O76 C77 1.182 . S
C77 O75 1.166 . S
C77 O76 1.182 . S
O78 Zn63 2.080 . S
O78 C81 1.305 . S
O79 Zn62 1.920 . S
O79 C81 1.234 . S
C80 O66 1.305 . S
C80 O67 1.234 . S
C81 O78 1.305 . S
C81 O79 1.234 . S
C82 C83 1.386 . S
C82 C84 1.383 . S
C82 H98 0.951 . S
C83 C82 1.386 . S
C83 C87 1.383 . S
C84 C82 1.383 . S
C84 C85 1.402 . S
C84 H99 0.951 . S
C85 C84 1.402 . S
C85 C86 1.375 . S
C85 C88 1.481 . S
C86 C85 1.375 . S
C86 C87 1.367 . S
C86 H100 0.951 . S
C87 C83 1.383 . S
C87 C86 1.367 . S
C87 H101 0.950 1_565 S
C88 C85 1.481 . S
C88 C89 1.297 . S
C88 H102 0.950 . S
C89 C88 1.297 . S
C89 C90 1.479 . S
C89 H103 0.950 . S
C90 C89 1.479 . S
C90 C91 1.375 . S
C90 C96 1.404 . S
C91 C90 1.375 . S
C91 C92 1.369 . S
C91 H104 0.950 . S
C92 C91 1.369 . S
C92 C93 1.392 . S
C92 H105 0.951 . S
C93 C92 1.392 . S
C93 C95 1.384 . S
H94 C96 0.949 . S
C95 C93 1.384 . S
C95 C96 1.385 . S
C95 H97 0.950 . S
C96 C90 1.404 . S
C96 H94 0.949 . S
C96 C95 1.385 . S
H97 C95 0.950 . S
H98 C82 0.951 . S
H99 C84 0.951 . S
H100 C86 0.951 . S
H101 C87 0.950 1_545 S
H102 C88 0.950 . S
H103 C89 0.950 . S
H104 C91 0.950 . S
H105 C92 0.951 . S
C106 C107 1.386 . S
C106 C108 1.383 . S
C106 H122 0.951 . S
C107 C106 1.386 . S
C107 C111 1.383 . S
C108 C106 1.383 . S
C108 C109 1.402 . S
C108 H123 0.951 . S
C109 C108 1.402 . S
C109 C110 1.375 . S
C109 C112 1.481 . S
C110 C109 1.375 . S
C110 C111 1.367 . S
C110 H124 0.951 . S
C111 C107 1.383 . S
C111 C110 1.367 . S
C111 H125 0.950 . S
C112 C109 1.481 . S
C112 C113 1.297 . S
C112 H126 0.950 . S
C113 C112 1.297 . S
C113 C114 1.479 . S
C113 H127 0.950 . S
C114 C113 1.479 . S
C114 C115 1.375 . S
C114 C120 1.404 . S
C115 C114 1.375 . S
C115 C116 1.369 . S
C115 H128 0.950 . S
C116 C115 1.369 . S
C116 C117 1.392 . S
C116 H129 0.951 . S
C117 C116 1.392 . S
C117 C119 1.384 . S
H118 C120 0.949 . S
C119 C117 1.384 . S
C119 C120 1.385 . S
C119 H121 0.950 . S
C120 C114 1.404 . S
C120 H118 0.949 . S
C120 C119 1.385 . S
H121 C119 0.950 . S
H122 C106 0.951 . S
H123 C108 0.951 . S
H124 C110 0.951 . S
H125 C111 0.950 . S
H126 C112 0.950 . S
H127 C113 0.950 . S
H128 C115 0.950 . S
H129 C116 0.951 . S
C130 C131 1.386 . S
C130 C132 1.383 . S
C130 H146 0.951 . S
C131 C130 1.386 . S
C131 C135 1.383 . S
C132 C130 1.383 . S
C132 C133 1.402 . S
C132 H147 0.951 . S
C133 C132 1.402 . S
C133 C134 1.375 . S
C133 C136 1.481 . S
C134 C133 1.375 . S
C134 C135 1.367 . S
C134 H148 0.951 . S
C135 C131 1.383 . S
C135 C134 1.367 . S
C135 H149 0.950 . S
C136 C133 1.481 . S
C136 C137 1.297 . S
C136 H150 0.950 . S
C137 C136 1.297 . S
C137 C138 1.479 . S
C137 H151 0.950 . S
C138 C137 1.479 . S
C138 C139 1.375 . S
C138 C144 1.404 . S
C139 C138 1.375 . S
C139 C140 1.369 . S
C139 H152 0.950 . S
C140 C139 1.369 . S
C140 C141 1.392 . S
C140 H153 0.951 . S
C141 C140 1.392 . S
C141 C143 1.384 . S
H142 C144 0.949 . S
C143 C141 1.384 . S
C143 C144 1.385 . S
C143 H145 0.950 . S
C144 C138 1.404 . S
C144 H142 0.949 . S
C144 C143 1.385 . S
H145 C143 0.950 . S
H146 C130 0.951 . S
H147 C132 0.951 . S
H148 C134 0.951 . S
H149 C135 0.950 . S
H150 C136 0.950 . S
H151 C137 0.950 . S
H152 C139 0.950 . S
H153 C140 0.951 . S
C154 C155 1.386 . S
C154 C156 1.383 . S
C154 H170 0.951 . S
C155 C154 1.386 . S
C155 C159 1.383 . S
C156 C154 1.383 . S
C156 C157 1.402 . S
C156 H171 0.951 . S
C157 C156 1.402 . S
C157 C158 1.375 . S
C157 C160 1.481 . S
C158 C157 1.375 . S
C158 C159 1.367 . S
C158 H172 0.951 . S
C159 C155 1.383 . S
C159 C158 1.367 . S
C159 H173 0.949 . S
C160 C157 1.481 . S
C160 C161 1.297 . S
C160 H174 0.950 . S
C161 C160 1.297 . S
C161 C162 1.479 . S
C161 H175 0.950 . S
C162 C161 1.479 . S
C162 C163 1.375 . S
C162 C168 1.404 . S
C163 C162 1.375 . S
C163 C164 1.369 . S
C163 H176 0.950 . S
C164 C163 1.369 . S
C164 C165 1.392 . S
C164 H177 0.951 . S
C165 C164 1.392 . S
C165 C167 1.384 . S
H166 C168 0.949 . S
C167 C165 1.384 . S
C167 C168 1.385 . S
C167 H169 0.950 . S
C168 C162 1.404 . S
C168 H166 0.949 . S
C168 C167 1.385 . S
H169 C167 0.950 . S
H170 C154 0.951 . S
H171 C156 0.951 . S
H172 C158 0.951 . S
H173 C159 0.949 . S
H174 C160 0.950 . S
H175 C161 0.950 . S
H176 C163 0.950 . S
H177 C164 0.951 . S
C178 C179 1.386 . S
C178 C180 1.383 . S
C178 H194 0.951 1_565 S
C179 C178 1.386 . S
C179 C183 1.383 . S
C180 C178 1.383 . S
C180 C181 1.402 . S
C180 H195 0.951 . S
C181 C180 1.402 . S
C181 C182 1.375 . S
C181 C184 1.481 . S
C182 C181 1.375 . S
C182 C183 1.367 . S
C182 H196 0.951 . S
C183 C179 1.383 . S
C183 C182 1.367 . S
C183 H197 0.950 . S
C184 C181 1.481 . S
C184 C185 1.297 . S
C184 H198 0.950 . S
C185 C184 1.297 . S
C185 C186 1.479 . S
C185 H199 0.950 . S
C186 C185 1.479 . S
C186 C187 1.375 . S
C186 C192 1.404 . S
C187 C186 1.375 . S
C187 C188 1.369 . S
C187 H200 0.950 . S
C188 C187 1.369 . S
C188 C189 1.392 . S
C188 H201 0.951 . S
C189 C188 1.392 . S
C189 C191 1.384 . S
H190 C192 0.949 . S
C191 C189 1.384 . S
C191 C192 1.385 . S
C191 H193 0.950 . S
C192 C186 1.404 . S
C192 H190 0.949 . S
C192 C191 1.385 . S
H193 C191 0.950 . S
H194 C178 0.951 1_545 S
H195 C180 0.951 . S
H196 C182 0.951 . S
H197 C183 0.950 . S
H198 C184 0.950 . S
H199 C185 0.950 . S
H200 C187 0.950 . S
H201 C188 0.951 . S
C202 C203 1.386 . S
C202 C204 1.383 . S
C202 H218 0.951 . S
C203 C202 1.386 . S
C203 C207 1.383 . S
C204 C202 1.383 . S
C204 C205 1.402 . S
C204 H219 0.951 . S
C205 C204 1.402 . S
C205 C206 1.375 . S
C205 C208 1.481 . S
C206 C205 1.375 . S
C206 C207 1.367 . S
C206 H220 0.951 . S
C207 C203 1.383 . S
C207 C206 1.367 . S
C207 H221 0.950 . S
C208 C205 1.481 . S
C208 C209 1.297 . S
C208 H222 0.950 . S
C209 C208 1.297 . S
C209 C210 1.479 . S
C209 H223 0.950 . S
C210 C209 1.479 . S
C210 C211 1.375 . S
C210 C216 1.404 . S
C211 C210 1.375 . S
C211 C212 1.369 . S
C211 H224 0.950 . S
C212 C211 1.369 . S
C212 C213 1.392 . S
C212 H225 0.951 . S
C213 C212 1.392 . S
C213 C215 1.384 . S
H214 C216 0.949 . S
C215 C213 1.384 . S
C215 C216 1.385 . S
C215 H217 0.950 . S
C216 C210 1.404 . S
C216 H214 0.949 . S
C216 C215 1.385 . S
H217 C215 0.950 . S
H218 C202 0.951 . S
H219 C204 0.951 . S
H220 C206 0.951 . S
H221 C207 0.950 . S
H222 C208 0.950 . S
H223 C209 0.950 . S
H224 C211 0.950 . S
H225 C212 0.951 . S
C226 C227 1.386 . S
C226 C228 1.383 . S
C226 H242 0.951 . S
C227 C226 1.386 . S
C227 C231 1.383 . S
C228 C226 1.383 . S
C228 C229 1.402 . S
C228 H243 0.951 . S
C229 C228 1.402 . S
C229 C230 1.375 . S
C229 C232 1.481 . S
C230 C229 1.375 . S
C230 C231 1.367 . S
C230 H244 0.951 . S
C231 C227 1.383 . S
C231 C230 1.367 . S
C231 H245 0.950 . S
C232 C229 1.481 . S
C232 C233 1.297 . S
C232 H246 0.950 . S
C233 C232 1.297 . S
C233 C234 1.479 . S
C233 H247 0.950 . S
C234 C233 1.479 . S
C234 C235 1.375 . S
C234 C240 1.404 . S
C235 C234 1.375 . S
C235 C236 1.369 . S
C235 H248 0.950 . S
C236 C235 1.369 . S
C236 C237 1.392 . S
C236 H249 0.951 . S
C237 C236 1.392 . S
C237 C239 1.384 . S
H238 C240 0.949 . S
C239 C237 1.384 . S
C239 C240 1.385 . S
C239 H241 0.950 . S
C240 C234 1.404 . S
C240 H238 0.949 . S
C240 C239 1.385 . S
H241 C239 0.950 . S
H242 C226 0.951 . S
H243 C228 0.951 . S
H244 C230 0.951 . S
H245 C231 0.950 . S
H246 C232 0.950 . S
H247 C233 0.950 . S
H248 C235 0.950 . S
H249 C236 0.951 . S
C250 C251 1.386 . S
C250 C252 1.383 . S
C250 H266 0.951 . S
C251 C250 1.386 . S
C251 C255 1.383 . S
C252 C250 1.383 . S
C252 C253 1.402 . S
C252 H267 0.951 . S
C253 C252 1.402 . S
C253 C254 1.375 . S
C253 C256 1.481 . S
C254 C253 1.375 . S
C254 C255 1.367 . S
C254 H268 0.951 . S
C255 C251 1.383 . S
C255 C254 1.367 . S
C255 H269 0.950 . S
C256 C253 1.481 . S
C256 C257 1.297 . S
C256 H270 0.950 . S
C257 C256 1.297 . S
C257 C258 1.479 . S
C257 H271 0.950 . S
C258 C257 1.479 . S
C258 C259 1.375 . S
C258 C264 1.404 . S
C259 C258 1.375 . S
C259 C260 1.369 . S
C259 H272 0.950 . S
C260 C259 1.369 . S
C260 C261 1.392 . S
C260 H273 0.951 . S
C261 C260 1.392 . S
C261 C263 1.384 . S
H262 C264 0.949 . S
C263 C261 1.384 . S
C263 C264 1.385 . S
C263 H265 0.950 . S
C264 C258 1.404 . S
C264 H262 0.949 . S
C264 C263 1.385 . S
H265 C263 0.950 . S
H266 C250 0.951 . S
H267 C252 0.951 . S
H268 C254 0.951 . S
H269 C255 0.950 . S
H270 C256 0.950 . S
H271 C257 0.950 . S
H272 C259 0.950 . S
H273 C260 0.951 . S
C274 C275 1.386 . S
C274 C276 1.383 . S
C274 H290 0.951 . S
C275 C274 1.386 . S
C275 C279 1.383 . S
C276 C274 1.383 . S
C276 C277 1.402 . S
C276 H291 0.951 . S
C277 C276 1.402 . S
C277 C278 1.375 . S
C277 C280 1.481 . S
C278 C277 1.375 . S
C278 C279 1.367 . S
C278 H292 0.951 . S
C279 C275 1.383 . S
C279 C278 1.367 . S
C279 H293 0.950 . S
C280 C277 1.481 . S
C280 C281 1.297 . S
C280 H294 0.950 . S
C281 C280 1.297 . S
C281 C282 1.479 . S
C281 H295 0.950 . S
C282 C281 1.479 . S
C282 C283 1.375 . S
C282 C288 1.404 . S
C283 C282 1.375 . S
C283 C284 1.369 . S
C283 H296 0.950 . S
C284 C283 1.369 . S
C284 C285 1.392 . S
C284 H297 0.951 . S
C285 C284 1.392 . S
C285 C287 1.384 . S
H286 C288 0.949 . S
C287 C285 1.384 . S
C287 C288 1.385 . S
C287 H289 0.950 . S
C288 C282 1.404 . S
C288 H286 0.949 . S
C288 C287 1.385 . S
H289 C287 0.950 . S
H290 C274 0.951 . S
H291 C276 0.951 . S
H292 C278 0.951 . S
H293 C279 0.950 . S
H294 C280 0.950 . S
H295 C281 0.950 . S
H296 C283 0.950 . S
H297 C284 0.951 . S
C298 C299 1.386 . S
C298 C300 1.383 . S
C298 H314 0.951 . S
C299 C298 1.386 . S
C299 C303 1.383 . S
C300 C298 1.383 . S
C300 C301 1.402 . S
C300 H315 0.951 . S
C301 C300 1.402 . S
C301 C302 1.375 . S
C301 C304 1.481 . S
C302 C301 1.375 . S
C302 C303 1.367 . S
C302 H316 0.951 . S
C303 C299 1.383 . S
C303 C302 1.367 . S
C303 H317 0.950 . S
C304 C301 1.481 . S
C304 C305 1.297 . S
C304 H318 0.950 . S
C305 C304 1.297 . S
C305 C306 1.479 . S
C305 H319 0.950 . S
C306 C305 1.479 . S
C306 C307 1.375 . S
C306 C312 1.404 . S
C307 C306 1.375 . S
C307 C308 1.369 . S
C307 H320 0.950 . S
C308 C307 1.369 . S
C308 C309 1.392 . S
C308 H321 0.951 . S
C309 C308 1.392 . S
C309 C311 1.384 . S
H310 C312 0.949 . S
C311 C309 1.384 . S
C311 C312 1.385 . S
C311 H313 0.950 . S
C312 C306 1.404 . S
C312 H310 0.949 . S
C312 C311 1.385 . S
H313 C311 0.950 . S
H314 C298 0.951 . S
H315 C300 0.951 . S
H316 C302 0.951 . S
H317 C303 0.950 . S
H318 C304 0.950 . S
H319 C305 0.950 . S
H320 C307 0.950 . S
H321 C308 0.951 . S
C322 C323 1.386 . S
C322 C324 1.383 . S
C322 H338 0.951 . S
C323 C322 1.386 . S
C323 C327 1.383 . S
C324 C322 1.383 . S
C324 C325 1.402 . S
C324 H339 0.951 . S
C325 C324 1.402 . S
C325 C326 1.375 . S
C325 C328 1.481 . S
C326 C325 1.375 . S
C326 C327 1.367 . S
C326 H340 0.951 . S
C327 C323 1.383 . S
C327 C326 1.367 . S
C327 H341 0.950 . S
C328 C325 1.481 . S
C328 C329 1.297 . S
C328 H342 0.950 . S
C329 C328 1.297 . S
C329 C330 1.479 . S
C329 H343 0.950 . S
C330 C329 1.479 . S
C330 C331 1.375 . S
C330 C336 1.404 . S
C331 C330 1.375 . S
C331 C332 1.369 . S
C331 H344 0.950 . S
C332 C331 1.369 . S
C332 C333 1.392 . S
C332 H345 0.951 . S
C333 C332 1.392 . S
C333 C335 1.384 . S
H334 C336 0.949 . S
C335 C333 1.384 . S
C335 C336 1.385 . S
C335 H337 0.950 . S
C336 C330 1.404 . S
C336 H334 0.949 . S
C336 C335 1.385 . S
H337 C335 0.950 . S
H338 C322 0.951 . S
H339 C324 0.951 . S
H340 C326 0.951 . S
H341 C327 0.950 . S
H342 C328 0.950 . S
H343 C329 0.950 . S
H344 C331 0.950 . S
H345 C332 0.951 . S
C346 C347 1.386 . S
C346 C348 1.383 . S
C346 H362 0.951 . S
C347 C346 1.386 . S
C347 C351 1.383 . S
C348 C346 1.383 . S
C348 C349 1.402 . S
C348 H363 0.951 . S
C349 C348 1.402 . S
C349 C350 1.375 . S
C349 C352 1.481 . S
C350 C349 1.375 . S
C350 C351 1.367 . S
C350 H364 0.951 . S
C351 C347 1.383 . S
C351 C350 1.367 . S
C351 H365 0.950 1_655 S
C352 C349 1.481 . S
C352 C353 1.297 . S
C352 H366 0.950 . S
C353 C352 1.297 . S
C353 C354 1.479 . S
C353 H367 0.950 . S
C354 C353 1.479 . S
C354 C355 1.375 . S
C354 C360 1.404 . S
C355 C354 1.375 . S
C355 C356 1.369 . S
C355 H368 0.950 . S
C356 C355 1.369 . S
C356 C357 1.392 . S
C356 H369 0.951 . S
C357 C356 1.392 . S
C357 C359 1.384 . S
H358 C360 0.949 . S
C359 C357 1.384 . S
C359 C360 1.385 . S
C359 H361 0.950 . S
C360 C354 1.404 . S
C360 H358 0.949 . S
C360 C359 1.385 . S
H361 C359 0.950 . S
H362 C346 0.951 . S
H363 C348 0.951 . S
H364 C350 0.951 . S
H365 C351 0.950 1_455 S
H366 C352 0.950 . S
H367 C353 0.950 . S
H368 C355 0.950 . S
H369 C356 0.951 . S
C83 C19 1.461 . S
C93 C59 1.368 . S
C107 C26 1.189 . S
C117 C65 1.100 . S
C131 C16 1.189 . S
C141 C56 1.096 . S
C155 C28 1.543 . S
C165 C81 1.417 . S
C179 C9 1.820 . S
C189 C47 1.638 . S
C213 C64 1.598 . S
C203 C21 1.665 . S
C227 C39 1.501 . S
C237 C60 1.501 . S
C261 C77 1.556 . S
C251 C1 1.674 . S
C285 C44 1.706 . S
C275 C29 1.826 . S
C309 C80 1.492 . S
C299 C8 1.489 . S
C333 C43 1.153 . S
C323 C36 1.134 . S
C357 C68 1.237 . S
C347 C6 1.238 . S
