# Generated by pormake.
# Topology ocu, (6,8)-cn, num edge types: 1
# Building blocks:
#     Node 0, Type 0, BuildingBlock: PAMTOO_clean_sbu_0, # of connection points: 6
#     Node 1, Type 0, BuildingBlock: PAMTOO_clean_sbu_0, # of connection points: 6
#     Node 2, Type 0, BuildingBlock: PAMTOO_clean_sbu_0, # of connection points: 6
#     Node 3, Type 0, BuildingBlock: PAMTOO_clean_sbu_0, # of connection points: 6
#     Node 4, Type 0, BuildingBlock: PAMTOO_clean_sbu_0, # of connection points: 6
#     Node 5, Type 0, BuildingBlock: PAMTOO_clean_sbu_0, # of connection points: 6
#     Node 6, Type 0, BuildingBlock: PAMTOO_clean_sbu_0, # of connection points: 6
#     Node 7, Type 0, BuildingBlock: PAMTOO_clean_sbu_0, # of connection points: 6
#     Node 8, Type 1, BuildingBlock: VETTIZ_charged_sbu_0, # of connection points: 8
#     Node 9, Type 1, BuildingBlock: VETTIZ_charged_sbu_0, # of connection points: 8
#     Node 10, Type 1, BuildingBlock: VETTIZ_charged_sbu_0, # of connection points: 8
#     Node 11, Type 1, BuildingBlock: VETTIZ_charged_sbu_0, # of connection points: 8
#     Node 12, Type 1, BuildingBlock: VETTIZ_charged_sbu_0, # of connection points: 8
#     Node 13, Type 1, BuildingBlock: VETTIZ_charged_sbu_0, # of connection points: 8
#     Edge 14, Type (0, 1), BuildingBlock: MIFKUJ_clean_linker_0, # of connection points: 2
#     Edge 15, Type (0, 1), BuildingBlock: MIFKUJ_clean_linker_0, # of connection points: 2
#     Edge 16, Type (0, 1), BuildingBlock: MIFKUJ_clean_linker_0, # of connection points: 2
#     Edge 17, Type (0, 1), BuildingBlock: MIFKUJ_clean_linker_0, # of connection points: 2
#     Edge 18, Type (0, 1), BuildingBlock: MIFKUJ_clean_linker_0, # of connection points: 2
#     Edge 19, Type (0, 1), BuildingBlock: MIFKUJ_clean_linker_0, # of connection points: 2
#     Edge 20, Type (0, 1), BuildingBlock: MIFKUJ_clean_linker_0, # of connection points: 2
#     Edge 21, Type (0, 1), BuildingBlock: MIFKUJ_clean_linker_0, # of connection points: 2
#     Edge 22, Type (0, 1), BuildingBlock: MIFKUJ_clean_linker_0, # of connection points: 2
#     Edge 23, Type (0, 1), BuildingBlock: MIFKUJ_clean_linker_0, # of connection points: 2
#     Edge 24, Type (0, 1), BuildingBlock: MIFKUJ_clean_linker_0, # of connection points: 2
#     Edge 25, Type (0, 1), BuildingBlock: MIFKUJ_clean_linker_0, # of connection points: 2
#     Edge 26, Type (0, 1), BuildingBlock: MIFKUJ_clean_linker_0, # of connection points: 2
#     Edge 27, Type (0, 1), BuildingBlock: MIFKUJ_clean_linker_0, # of connection points: 2
#     Edge 28, Type (0, 1), BuildingBlock: MIFKUJ_clean_linker_0, # of connection points: 2
#     Edge 29, Type (0, 1), BuildingBlock: MIFKUJ_clean_linker_0, # of connection points: 2
#     Edge 30, Type (0, 1), BuildingBlock: MIFKUJ_clean_linker_0, # of connection points: 2
#     Edge 31, Type (0, 1), BuildingBlock: MIFKUJ_clean_linker_0, # of connection points: 2
#     Edge 32, Type (0, 1), BuildingBlock: MIFKUJ_clean_linker_0, # of connection points: 2
#     Edge 33, Type (0, 1), BuildingBlock: MIFKUJ_clean_linker_0, # of connection points: 2
#     Edge 34, Type (0, 1), BuildingBlock: MIFKUJ_clean_linker_0, # of connection points: 2
#     Edge 35, Type (0, 1), BuildingBlock: MIFKUJ_clean_linker_0, # of connection points: 2
#     Edge 36, Type (0, 1), BuildingBlock: MIFKUJ_clean_linker_0, # of connection points: 2
#     Edge 37, Type (0, 1), BuildingBlock: MIFKUJ_clean_linker_0, # of connection points: 2
#     Edge 38, Type (0, 1), BuildingBlock: MIFKUJ_clean_linker_0, # of connection points: 2
#     Edge 39, Type (0, 1), BuildingBlock: MIFKUJ_clean_linker_0, # of connection points: 2
#     Edge 40, Type (0, 1), BuildingBlock: MIFKUJ_clean_linker_0, # of connection points: 2
#     Edge 41, Type (0, 1), BuildingBlock: MIFKUJ_clean_linker_0, # of connection points: 2
#     Edge 42, Type (0, 1), BuildingBlock: MIFKUJ_clean_linker_0, # of connection points: 2
#     Edge 43, Type (0, 1), BuildingBlock: MIFKUJ_clean_linker_0, # of connection points: 2
#     Edge 44, Type (0, 1), BuildingBlock: MIFKUJ_clean_linker_0, # of connection points: 2
#     Edge 45, Type (0, 1), BuildingBlock: MIFKUJ_clean_linker_0, # of connection points: 2
#     Edge 46, Type (0, 1), BuildingBlock: MIFKUJ_clean_linker_0, # of connection points: 2
#     Edge 47, Type (0, 1), BuildingBlock: MIFKUJ_clean_linker_0, # of connection points: 2
#     Edge 48, Type (0, 1), BuildingBlock: MIFKUJ_clean_linker_0, # of connection points: 2
#     Edge 49, Type (0, 1), BuildingBlock: MIFKUJ_clean_linker_0, # of connection points: 2
#     Edge 50, Type (0, 1), BuildingBlock: MIFKUJ_clean_linker_0, # of connection points: 2
#     Edge 51, Type (0, 1), BuildingBlock: MIFKUJ_clean_linker_0, # of connection points: 2
#     Edge 52, Type (0, 1), BuildingBlock: MIFKUJ_clean_linker_0, # of connection points: 2
#     Edge 53, Type (0, 1), BuildingBlock: MIFKUJ_clean_linker_0, # of connection points: 2
#     Edge 54, Type (0, 1), BuildingBlock: MIFKUJ_clean_linker_0, # of connection points: 2
#     Edge 55, Type (0, 1), BuildingBlock: MIFKUJ_clean_linker_0, # of connection points: 2
#     Edge 56, Type (0, 1), BuildingBlock: MIFKUJ_clean_linker_0, # of connection points: 2
#     Edge 57, Type (0, 1), BuildingBlock: MIFKUJ_clean_linker_0, # of connection points: 2
#     Edge 58, Type (0, 1), BuildingBlock: MIFKUJ_clean_linker_0, # of connection points: 2
#     Edge 59, Type (0, 1), BuildingBlock: MIFKUJ_clean_linker_0, # of connection points: 2
#     Edge 60, Type (0, 1), BuildingBlock: MIFKUJ_clean_linker_0, # of connection points: 2
#     Edge 61, Type (0, 1), BuildingBlock: MIFKUJ_clean_linker_0, # of connection points: 2
# Relax obj value: 0.159
# Max RMSD: 0.250
# Mean RMSD: 0.141
data_MOF--net-ocu--node1-PAMTOO_clean_sbu_0--node2-VETTIZ_charged_sbu_0--edge1-MIFKUJ_clean_linker_0
_symmetry_space_group_name_H-M    P1
_symmetry_Int_Tables_number       1
_symmetry_cell_setting            triclinic
loop_
_symmetry_equiv_pos_as_xyz
'x, y, z'
_cell_length_a     48.52683
_cell_length_b     51.369145
_cell_length_c     49.909306
_cell_angle_alpha  91.635152
_cell_angle_beta   92.535059
_cell_angle_gamma 95.892022
loop_
_atom_site_label
_atom_site_type_symbol
_atom_site_fract_x
_atom_site_fract_y
_atom_site_fract_z
_atom_type_partial_charge
Dy0 Dy 0.31149 0.30838 0.30779 0.0
Dy1 Dy 0.26038 0.29734 0.26589 0.0
C2 C 0.3181 0.27136 0.25401 0.0
O3 O 0.32396 0.33679 0.27555 0.0
O4 O 0.28355 0.33387 0.24965 0.0
O5 O 0.35506 0.30891 0.31915 0.0
O6 O 0.32686 0.32203 0.34757 0.0
O7 O 0.24198 0.31736 0.30196 0.0
O8 O 0.28208 0.33859 0.32025 0.0
O9 O 0.2525 0.26341 0.29348 0.0
O10 O 0.28429 0.27664 0.32764 0.0
O11 O 0.22275 0.30878 0.24752 0.0
O12 O 0.23792 0.27238 0.23485 0.0
C13 C 0.30936 0.34422 0.25475 0.0
O14 O 0.32491 0.27564 0.27995 0.0
O15 O 0.2958 0.28107 0.24401 0.0
C16 C 0.36265 0.29881 0.36487 0.0
C17 C 0.38109 0.26618 0.40503 0.0
C18 C 0.38398 0.25999 0.37771 0.0
C19 C 0.37478 0.27605 0.35786 0.0
C20 C 0.36014 0.30529 0.39212 0.0
C21 C 0.36919 0.2891 0.41202 0.0
C22 C 0.35162 0.31537 0.34411 0.0
C23 C 0.2546 0.33512 0.31936 0.0
C24 C 0.26269 0.26093 0.31809 0.0
C25 C 0.21916 0.29823 0.20193 0.0
C26 C 0.21298 0.32967 0.15764 0.0
C27 C 0.23942 0.32796 0.16958 0.0
C28 C 0.24252 0.31215 0.19155 0.0
C29 C 0.19336 0.29751 0.18814 0.0
C30 C 0.19032 0.31299 0.16587 0.0
C31 C 0.22067 0.28962 0.22959 0.0
H32 H 0.39366 0.24283 0.3716 0.0
H33 H 0.3771 0.2705 0.33704 0.0
H34 H 0.35083 0.32274 0.39803 0.0
H35 H 0.36653 0.29437 0.43284 0.0
H36 H 0.25711 0.34075 0.16363 0.0
H37 H 0.26266 0.31275 0.20193 0.0
H38 H 0.17514 0.28692 0.19597 0.0
H39 H 0.16966 0.31421 0.15715 0.0
Dy40 Dy 0.80963 0.30526 0.2623 0.0
Dy41 Dy 0.76443 0.30805 0.30588 0.0
C42 C 0.82397 0.34195 0.31449 0.0
O43 O 0.8237 0.27453 0.29155 0.0
O44 O 0.79491 0.28149 0.32569 0.0
O45 O 0.84261 0.32564 0.24107 0.0
O46 O 0.82772 0.28551 0.22951 0.0
O47 O 0.74296 0.27602 0.27832 0.0
O48 O 0.77382 0.278 0.24481 0.0
O49 O 0.74425 0.32781 0.27036 0.0
O50 O 0.78388 0.33871 0.24875 0.0
O51 O 0.73689 0.29163 0.33524 0.0
O52 O 0.74229 0.33356 0.33024 0.0
C53 C 0.81593 0.26975 0.31636 0.0
O54 O 0.83393 0.32598 0.29736 0.0
O55 O 0.79704 0.34188 0.31597 0.0
C56 C 0.83468 0.31626 0.19533 0.0
C57 C 0.81634 0.34773 0.15409 0.0
C58 C 0.79834 0.32723 0.16369 0.0
C59 C 0.80736 0.31179 0.18429 0.0
C60 C 0.85348 0.33456 0.18368 0.0
C61 C 0.84444 0.35018 0.1633 0.0
C62 C 0.84142 0.30724 0.22236 0.0
C63 C 0.75023 0.26853 0.25444 0.0
C64 C 0.75714 0.34119 0.25149 0.0
C65 C 0.74107 0.31834 0.37402 0.0
C66 C 0.75822 0.31136 0.4276 0.0
C67 C 0.72975 0.30953 0.41976 0.0
C68 C 0.72128 0.31292 0.39311 0.0
C69 C 0.76921 0.32326 0.38228 0.0
C70 C 0.77771 0.32006 0.40895 0.0
C71 C 0.73317 0.31462 0.34541 0.0
H72 H 0.77676 0.32435 0.15674 0.0
H73 H 0.7923 0.29786 0.19301 0.0
H74 H 0.87453 0.33854 0.19207 0.0
H75 H 0.85902 0.36583 0.15679 0.0
H76 H 0.71402 0.30263 0.43334 0.0
H77 H 0.69949 0.30908 0.38703 0.0
H78 H 0.78482 0.3276 0.36774 0.0
H79 H 0.7997 0.32215 0.41438 0.0
Dy80 Dy 0.78833 0.7825 0.29426 0.0
Dy81 Dy 0.79293 0.82599 0.24718 0.0
C82 C 0.82952 0.83354 0.30155 0.0
O83 O 0.76726 0.81606 0.30954 0.0
O84 O 0.75559 0.83388 0.26952 0.0
O85 O 0.79707 0.76972 0.33431 0.0
O86 O 0.76852 0.74569 0.30697 0.0
O87 O 0.76907 0.79026 0.22877 0.0
O88 O 0.74986 0.77711 0.26756 0.0
O89 O 0.82587 0.80019 0.23837 0.0
O90 O 0.81195 0.76404 0.26277 0.0
O91 O 0.77604 0.84412 0.21265 0.0
O92 O 0.81659 0.85886 0.23008 0.0
C93 C 0.75291 0.83163 0.29544 0.0
O94 O 0.82827 0.80795 0.30291 0.0
O95 O 0.81255 0.84431 0.28518 0.0
C96 C 0.79342 0.72373 0.33894 0.0
C97 C 0.81474 0.67804 0.35686 0.0
C98 C 0.83248 0.69872 0.34711 0.0
C99 C 0.82188 0.72134 0.3381 0.0
C100 C 0.7756 0.70301 0.34808 0.0
C101 C 0.78613 0.68032 0.35692 0.0
C102 C 0.78169 0.74747 0.33032 0.0
C103 C 0.74987 0.77631 0.24129 0.0
C104 C 0.82647 0.77536 0.24388 0.0
C105 C 0.78606 0.88922 0.21701 0.0
C106 C 0.75646 0.93326 0.22058 0.0
C107 C 0.76922 0.92711 0.19672 0.0
C108 C 0.78379 0.90509 0.1949 0.0
C109 C 0.77515 0.89635 0.24142 0.0
C110 C 0.7603 0.9181 0.24315 0.0
C111 C 0.79586 0.86337 0.2139 0.0
H112 H 0.85467 0.69779 0.34715 0.0
H113 H 0.83594 0.73707 0.33086 0.0
H114 H 0.7535 0.70447 0.34857 0.0
H115 H 0.77189 0.66463 0.36394 0.0
H116 H 0.76624 0.93816 0.17884 0.0
H117 H 0.7919 0.89967 0.17588 0.0
H118 H 0.77669 0.88419 0.2587 0.0
H119 H 0.75063 0.92221 0.2617 0.0
Dy120 Dy 0.27236 0.82573 0.293 0.0
Dy121 Dy 0.31733 0.78345 0.29445 0.0
C122 C 0.3301 0.84033 0.32588 0.0
O123 O 0.30328 0.83988 0.26175 0.0
O124 O 0.33507 0.8098 0.26214 0.0
O125 O 0.2486 0.85594 0.30751 0.0
O126 O 0.24423 0.84273 0.26561 0.0
O127 O 0.28638 0.76787 0.26181 0.0
O128 O 0.2502 0.78754 0.27777 0.0
O129 O 0.28594 0.76864 0.3254 0.0
O130 O 0.25535 0.80003 0.32615 0.0
O131 O 0.33542 0.74997 0.27879 0.0
O132 O 0.35059 0.76779 0.31721 0.0
C133 C 0.32621 0.83145 0.25287 0.0
O134 O 0.30392 0.84464 0.32346 0.0
O135 O 0.3393 0.81993 0.31418 0.0
C136 C 0.20446 0.85378 0.28624 0.0
C137 C 0.14844 0.85135 0.29835 0.0
C138 C 0.16277 0.82902 0.30058 0.0
C139 C 0.19069 0.83025 0.29459 0.0
C140 C 0.18963 0.87525 0.28155 0.0
C141 C 0.16173 0.87402 0.28743 0.0
C142 C 0.23459 0.85669 0.28462 0.0
C143 C 0.2597 0.76926 0.26313 0.0
C144 C 0.26342 0.77775 0.33477 0.0
C145 C 0.38367 0.75454 0.28795 0.0
C146 C 0.43723 0.75651 0.26773 0.0
C147 C 0.41541 0.7665 0.25308 0.0
C148 C 0.38906 0.76567 0.26314 0.0
C149 C 0.40558 0.74606 0.30349 0.0
C150 C 0.4322 0.74719 0.29356 0.0
C151 C 0.35527 0.75192 0.29746 0.0
H152 H 0.15297 0.81127 0.30877 0.0
H153 H 0.20192 0.81337 0.29798 0.0
H154 H 0.20002 0.89345 0.27489 0.0
H155 H 0.15135 0.89162 0.28568 0.0
H156 H 0.41797 0.77344 0.23299 0.0
H157 H 0.37263 0.77284 0.25092 0.0
H158 H 0.40195 0.73797 0.32299 0.0
H159 H 0.44855 0.73985 0.30571 0.0
Dy160 Dy 0.31216 0.80404 0.75872 0.0
Dy161 Dy 0.26823 0.80991 0.80388 0.0
C162 C 0.32197 0.84965 0.80173 0.0
O163 O 0.32523 0.77488 0.79026 0.0
O164 O 0.30014 0.7866 0.82572 0.0
O165 O 0.34553 0.8196 0.73501 0.0
O166 O 0.32902 0.77875 0.7296 0.0
O167 O 0.25919 0.76958 0.78578 0.0
O168 O 0.27237 0.7819 0.74482 0.0
O169 O 0.24858 0.82994 0.76809 0.0
O170 O 0.28594 0.83549 0.74146 0.0
O171 O 0.22643 0.80429 0.81742 0.0
O172 O 0.25954 0.82464 0.84309 0.0
C173 C 0.31939 0.77281 0.81598 0.0
O174 O 0.33388 0.83101 0.79005 0.0
O175 O 0.29505 0.84772 0.80339 0.0
C176 C 0.34408 0.80081 0.6909 0.0
C177 C 0.34817 0.80658 0.63504 0.0
C178 C 0.34562 0.82837 0.65221 0.0
C179 C 0.34347 0.82551 0.67971 0.0
C180 C 0.34526 0.7788 0.6738 0.0
C181 C 0.34712 0.78162 0.6461 0.0
C182 C 0.34502 0.79809 0.7203 0.0
C183 C 0.25869 0.76528 0.75984 0.0
C184 C 0.26028 0.84048 0.7468 0.0
C185 C 0.22593 0.79704 0.86349 0.0
C186 C 0.20963 0.7629 0.90419 0.0
C187 C 0.23439 0.76046 0.89121 0.0
C188 C 0.24237 0.7773 0.87094 0.0
C189 C 0.20153 0.79998 0.87668 0.0
C190 C 0.19339 0.783 0.89693 0.0
C191 C 0.23392 0.81392 0.84144 0.0
H192 H 0.34703 0.84804 0.6448 0.0
H193 H 0.34246 0.84291 0.69226 0.0
H194 H 0.3456 0.75951 0.68194 0.0
H195 H 0.34877 0.76438 0.63353 0.0
H196 H 0.24752 0.74541 0.89658 0.0
H197 H 0.26125 0.77473 0.86087 0.0
H198 H 0.18858 0.81508 0.87102 0.0
H199 H 0.17402 0.78513 0.90633 0.0
Dy200 Dy 0.29731 0.30165 0.76967 0.0
Dy201 Dy 0.25082 0.29674 0.81448 0.0
C202 C 0.24461 0.26073 0.76191 0.0
O203 O 0.26348 0.32422 0.75209 0.0
O204 O 0.23694 0.32934 0.78856 0.0
O205 O 0.30774 0.29731 0.72827 0.0
O206 O 0.33925 0.31245 0.7585 0.0
O207 O 0.28741 0.3218 0.8326 0.0
O208 O 0.30309 0.33914 0.79402 0.0
O209 O 0.27908 0.26553 0.82579 0.0
O210 O 0.31736 0.27915 0.80246 0.0
O211 O 0.23269 0.31266 0.84892 0.0
O212 O 0.217 0.27391 0.83291 0.0
C213 C 0.24307 0.33475 0.76357 0.0
O214 O 0.27177 0.26308 0.76192 0.0
O215 O 0.23194 0.27637 0.77715 0.0
C216 C 0.35309 0.28675 0.72242 0.0
C217 C 0.38836 0.25276 0.69972 0.0
C218 C 0.38484 0.25349 0.72757 0.0
C219 C 0.36724 0.27023 0.73881 0.0
C220 C 0.35661 0.28619 0.69472 0.0
C221 C 0.374 0.2693 0.68343 0.0
C222 C 0.33405 0.30417 0.73365 0.0
C223 C 0.30185 0.34027 0.82019 0.0
C224 C 0.30563 0.26466 0.82113 0.0
C225 C 0.18521 0.29925 0.85407 0.0
C226 C 0.13473 0.31417 0.87223 0.0
C227 C 0.15277 0.33189 0.85859 0.0
C228 C 0.17767 0.32447 0.84947 0.0
C229 C 0.16636 0.28089 0.8657 0.0
C230 C 0.14123 0.28821 0.87452 0.0
C231 C 0.21368 0.29287 0.85006 0.0
H232 H 0.39584 0.24127 0.74076 0.0
H233 H 0.36467 0.27021 0.76026 0.0
H234 H 0.34565 0.29866 0.68176 0.0
H235 H 0.37583 0.26892 0.66188 0.0
H236 H 0.14874 0.35211 0.85662 0.0
H237 H 0.19173 0.33898 0.84029 0.0
H238 H 0.17168 0.26126 0.86922 0.0
H239 H 0.12757 0.27389 0.88439 0.0
Dy240 Dy 0.77102 0.31502 0.77876 0.0
Dy241 Dy 0.81861 0.27854 0.79787 0.0
C242 C 0.81092 0.33111 0.83031 0.0
O243 O 0.80241 0.32141 0.74739 0.0
O244 O 0.83982 0.30889 0.77161 0.0
O245 O 0.75494 0.35268 0.77695 0.0
O246 O 0.73101 0.31838 0.75907 0.0
O247 O 0.80213 0.26095 0.75785 0.0
O248 O 0.75928 0.27535 0.75959 0.0
O249 O 0.78017 0.26015 0.81666 0.0
O250 O 0.75461 0.29525 0.81518 0.0
O251 O 0.83598 0.24169 0.80178 0.0
O252 O 0.85818 0.27747 0.81894 0.0
C253 C 0.82935 0.32083 0.75105 0.0
O254 O 0.79943 0.33964 0.80842 0.0
O255 O 0.81398 0.3062 0.83237 0.0
C256 C 0.70785 0.34606 0.78562 0.0
C257 C 0.66398 0.34862 0.82024 0.0
C258 C 0.68939 0.34069 0.82965 0.0
C259 C 0.7112 0.34004 0.81269 0.0
C260 C 0.68237 0.35323 0.77571 0.0
C261 C 0.6606 0.35482 0.79302 0.0
C262 C 0.73051 0.34236 0.76795 0.0
C263 C 0.77585 0.25928 0.74972 0.0
C264 C 0.75855 0.27189 0.82368 0.0
C265 C 0.88471 0.24617 0.80164 0.0
C266 C 0.9342 0.23405 0.77926 0.0
C267 C 0.91283 0.24296 0.76305 0.0
C268 C 0.88837 0.24909 0.77418 0.0
C269 C 0.90606 0.23788 0.81805 0.0
C270 C 0.93067 0.23186 0.80696 0.0
C271 C 0.85909 0.25266 0.81337 0.0
H272 H 0.69265 0.33526 0.85027 0.0
H273 H 0.73078 0.33478 0.82085 0.0
H274 H 0.67939 0.35771 0.75476 0.0
H275 H 0.64145 0.36145 0.78522 0.0
H276 H 0.91456 0.24439 0.74157 0.0
H277 H 0.87214 0.25579 0.7613 0.0
H278 H 0.90362 0.23595 0.83941 0.0
H279 H 0.9468 0.22528 0.82001 0.0
Dy280 Dy 0.80836 0.81013 0.80729 0.0
Dy281 Dy 0.75918 0.79597 0.7645 0.0
C282 C 0.81865 0.76847 0.7557 0.0
O283 O 0.81714 0.84254 0.77817 0.0
O284 O 0.78535 0.82847 0.74436 0.0
O285 O 0.85235 0.81905 0.81636 0.0
O286 O 0.82388 0.81701 0.8484 0.0
O287 O 0.73849 0.82221 0.79559 0.0
O288 O 0.77625 0.83758 0.82258 0.0
O289 O 0.74683 0.76788 0.79704 0.0
O290 O 0.78487 0.77519 0.8259 0.0
O291 O 0.72555 0.80743 0.73941 0.0
O292 O 0.73447 0.76693 0.73896 0.0
C293 C 0.80683 0.84456 0.75357 0.0
O294 O 0.82721 0.77954 0.77954 0.0
O295 O 0.79345 0.7728 0.74623 0.0
C296 C 0.86464 0.79571 0.85408 0.0
C297 C 0.88932 0.75053 0.86874 0.0
C298 C 0.8633 0.75513 0.87805 0.0
C299 C 0.8511 0.77746 0.87084 0.0
C300 C 0.89119 0.79168 0.84568 0.0
C301 C 0.90338 0.76922 0.85285 0.0
C302 C 0.84955 0.81636 0.84199 0.0
C303 C 0.74916 0.83756 0.8164 0.0
C304 C 0.76026 0.76276 0.81944 0.0
C305 C 0.72126 0.78443 0.69802 0.0
C306 C 0.71928 0.79044 0.64209 0.0
C307 C 0.74239 0.80144 0.65816 0.0
C308 C 0.74342 0.7983 0.6858 0.0
C309 C 0.69912 0.7718 0.68209 0.0
C310 C 0.69822 0.7746 0.65427 0.0
C311 C 0.72079 0.7844 0.72736 0.0
H312 H 0.85187 0.74099 0.89017 0.0
H313 H 0.83054 0.77977 0.87754 0.0
H314 H 0.90203 0.80538 0.83267 0.0
H315 H 0.92367 0.76635 0.84577 0.0
H316 H 0.75888 0.81406 0.64984 0.0
H317 H 0.76092 0.80786 0.69778 0.0
H318 H 0.68207 0.76062 0.69124 0.0
H319 H 0.68041 0.76538 0.64249 0.0
Fe320 Fe 0.04165 0.10794 0.51273 0.0
O321 O 0.03369 0.06932 0.51372 0.0
Fe322 Fe 0.0667 0.04865 0.53254 0.0
Fe323 Fe 1.00013 0.05227 0.53145 0.0
O324 O 0.03774 0.06924 0.51448 0.0
O325 O 0.03314 0.03152 0.54982 0.0
O326 O 0.02929 0.03162 0.54905 0.0
Fe327 Fe 0.02616 0.99321 0.55193 0.0
C328 C 1.01131 0.10287 0.56327 0.0
O329 O 1.00739 0.10436 0.4854 0.0
O330 O 0.97471 0.07924 0.50838 0.0
O331 O 0.05502 0.98595 0.52442 0.0
O332 O 0.06083 1.02194 0.50078 0.0
O333 O 0.09754 0.07162 0.50984 0.0
O334 O 0.07231 0.10063 0.48675 0.0
O335 O 0.9926 0.02543 0.50004 0.0
O336 O 0.99583 0.98776 0.52116 0.0
C337 C 0.09471 0.08924 0.49133 0.0
O338 O 0.05991 0.99804 0.57978 0.0
O339 O 0.09238 1.02265 0.55619 0.0
O340 O 1.01398 0.11507 0.54161 0.0
O341 O 1.00746 0.07812 0.56327 0.0
C342 C 0.98161 0.09658 0.4897 0.0
C343 C 0.98876 1.00055 0.50081 0.0
C344 C 0.97257 1.01196 0.57345 0.0
O345 O 0.9694 0.02961 0.55497 0.0
O346 O 0.99495 1.00042 0.5773 0.0
C347 C 0.05967 0.99724 0.50254 0.0
O348 O 0.07323 0.07521 0.56414 0.0
O349 O 0.07298 0.11272 0.54262 0.0
C350 C 0.08566 1.00583 0.5753 0.0
C351 C 0.07893 0.09987 0.5632 0.0
Fe352 Fe 0.52252 0.03141 0.02246 0.0
O353 O 0.5434 0.06301 1.00693 0.0
Fe354 Fe 0.46014 0.05938 0.03848 0.0
Fe355 Fe 0.58437 0.06814 1.00864 0.0
O356 O 0.50121 0.05989 0.0389 0.0
O357 O 0.50081 0.06365 0.03921 0.0
O358 O 0.54291 0.0673 1.00706 0.0
Fe359 Fe 0.52275 0.09553 0.02576 0.0
C360 C 0.57429 0.03578 0.05761 0.0
O361 O 0.55076 1.00604 1.00016 0.0
O362 O 0.5811 0.03627 0.98047 0.0
O363 O 0.49529 0.09823 0.99219 0.0
O364 O 0.45527 0.08931 1.01165 0.0
O365 O 0.4548 0.03273 1.00619 0.0
O366 O 0.49624 0.02804 0.98939 0.0
O367 O 0.57973 0.09886 0.98362 0.0
O368 O 0.5508 0.12402 1.00695 0.0
C369 C 0.46989 0.02622 0.98725 0.0
O370 O 0.49699 0.11984 0.0499 0.0
O371 O 0.46559 0.08939 0.06842 0.0
O372 O 0.5481 0.03462 0.05613 0.0
O373 O 0.5887 0.04056 0.03733 0.0
C374 C 0.5713 1.01195 0.98345 0.0
C375 C 0.5698 0.12089 0.98933 0.0
C376 C 0.57624 0.10238 0.05933 0.0
O377 O 0.58973 0.09688 0.03895 0.0
O378 O 0.54999 0.09669 0.05948 0.0
C379 C 0.46917 0.10007 0.99304 0.0
O380 O 0.46392 0.0276 0.06296 0.0
O381 O 0.49547 1.00258 0.0439 0.0
C382 C 0.47738 0.11326 0.067 0.0
C383 C 0.47538 1.00586 0.06053 0.0
Fe384 Fe 1.02001 0.59392 0.0631 0.0
O385 O 0.99102 0.57389 0.08624 0.0
Fe386 Fe 0.0466 0.53528 0.09004 0.0
Fe387 Fe 0.95617 0.55157 0.0721 0.0
O388 O 0.02634 0.55532 0.06146 0.0
O389 O 1.00151 0.52747 0.09407 0.0
O390 O 0.98642 0.52755 0.08194 0.0
Fe391 Fe 0.97673 0.49109 0.09747 0.0
C392 C 0.97577 0.61389 0.0753 0.0
O393 O 1.00036 0.58534 0.02681 0.0
O394 O 0.96683 0.55297 0.03238 0.0
O395 O 1.00605 0.47403 0.07585 0.0
O396 O 0.04233 0.50265 0.06464 0.0
O397 O 0.0838 0.54881 0.07327 0.0
O398 O 0.04686 0.56465 0.05911 0.0
O399 O 0.9269 0.52091 0.05903 0.0
O400 O 0.95298 0.48774 0.06213 0.0
C401 C 0.07411 0.5668 0.06032 0.0
O402 O 0.99957 0.48844 0.13356 0.0
O403 O 1.0183 0.52054 0.1148 0.0
O404 O 0.99794 0.62555 0.06697 0.0
O405 O 0.97898 0.58948 0.08206 0.0
C406 C 0.98195 0.5677 1.01762 0.0
C407 C 0.93221 0.4979 0.05206 0.0
C408 C 0.93671 0.52878 0.12357 0.0
O409 O 0.94263 0.54931 0.11027 0.0
O410 O 0.9464 0.50693 0.11873 0.0
C411 C 0.02754 0.48045 0.06247 0.0
O412 O 0.05291 0.56747 0.11737 0.0
O413 O 0.04192 0.60437 0.0982 0.0
C414 C 1.02125 0.50355 0.13238 0.0
C415 C 0.05278 0.59242 0.11733 0.0
Fe416 Fe 0.5328 0.56969 0.97413 0.0
O417 O 0.53631 0.56835 1.01387 0.0
Fe418 Fe 0.49895 0.55439 0.03279 0.0
Fe419 Fe 0.56572 0.55004 0.0343 0.0
O420 O 0.53239 0.56846 1.01332 0.0
O421 O 0.52804 0.53495 0.05254 0.0
O422 O 0.53222 0.53476 0.05307 0.0
Fe423 Fe 0.532 0.53365 0.09238 0.0
C424 C 0.5592 0.51876 0.98227 0.0
O425 O 0.56961 0.59348 0.98029 0.0
O426 O 0.59637 0.57097 1.00947 0.0
O427 O 0.50885 0.56481 0.09799 0.0
O428 O 0.50668 0.58551 0.05931 0.0
O429 O 0.47353 0.57908 1.0069 0.0
O430 O 0.50565 0.59817 0.97891 0.0
O431 O 0.57203 0.58139 0.06102 0.0
O432 O 0.56722 0.55952 0.09852 0.0
C433 C 0.48082 0.59593 0.98793 0.0
O434 O 0.49461 0.51037 0.0866 0.0
O435 O 0.46846 0.53462 0.0585 0.0
O436 O 0.55637 0.53902 0.96871 0.0
O437 O 0.56016 0.51893 1.00772 0.0
C438 C 0.59328 0.58915 0.99156 0.0
C439 C 0.57581 0.5799 0.08623 0.0
C440 C 0.58449 0.50844 0.07879 0.0
O441 O 0.59159 0.52626 0.06067 0.0
O442 O 0.55943 0.50516 0.0874 0.0
C443 C 0.50779 0.58559 0.08477 0.0
O444 O 0.4902 0.52313 1.00605 0.0
O445 O 0.4978 0.54332 0.96775 0.0
C446 C 0.47107 0.51612 0.07617 0.0
C447 C 0.48688 0.5242 0.9807 0.0
Fe448 Fe 0.04968 0.5119 0.5477 0.0
O449 O 0.03141 0.5397 0.5687 0.0
Fe450 Fe 0.07095 0.54684 0.4923 0.0
Fe451 Fe 0.02695 0.53979 0.60791 0.0
O452 O 0.0689 0.54414 0.53173 0.0
O453 O 0.06824 0.54844 0.53218 0.0
O454 O 0.03098 0.5435 0.56916 0.0
Fe455 Fe 0.04786 0.57596 0.55174 0.0
C456 C 1.00469 0.48531 0.58527 0.0
O457 O 0.08132 0.51036 0.57769 0.0
O458 O 0.05627 0.51299 0.61399 0.0
O459 O 0.07137 0.60567 0.52736 0.0
O460 O 0.09717 0.58073 0.50061 0.0
O461 O 0.09908 0.51893 0.49714 0.0
O462 O 0.07359 0.48786 0.52092 0.0
O463 O 0.05751 0.56959 0.61766 0.0
O464 O 0.07954 0.5814 0.58061 0.0
C465 C 0.09336 0.49476 0.50401 0.0
O466 O 1.01596 0.57035 0.52349 0.0
O467 O 0.03994 0.57112 0.48657 0.0
O468 O 0.02481 0.48289 0.56879 0.0
O469 O 0.99954 0.50711 0.59714 0.0
C470 C 0.07732 0.50555 0.60244 0.0
C471 C 0.07836 0.58042 0.60604 0.0
C472 C 1.00282 0.59355 0.59569 0.0
O473 O 0.99947 0.56962 0.60421 0.0
O474 O 0.02138 0.60011 0.57726 0.0
C475 C 0.09141 0.60321 0.51028 0.0
O476 O 0.04209 0.5149 0.48285 0.0
O477 O 1.01708 0.50967 0.51867 0.0
C478 C 1.01705 0.57028 0.49814 0.0
C479 C 1.01994 0.50606 0.49361 0.0
Fe480 Fe 0.5794 1.01113 0.50808 0.0
O481 O 0.57172 0.03063 0.54166 0.0
Fe482 Fe 0.59311 0.05997 0.46263 0.0
Fe483 Fe 0.57829 1.01825 0.57809 0.0
O484 O 0.59923 0.0449 0.49775 0.0
O485 O 0.60022 0.04697 0.49883 0.0
O486 O 0.5726 0.03262 0.54269 0.0
Fe487 Fe 0.5919 0.06653 0.53215 0.0
C488 C 0.54215 0.97564 0.54385 0.0
O489 O 0.61572 1.00096 0.52467 0.0
O490 O 0.60413 0.99068 0.56616 0.0
O491 O 0.61388 0.09969 0.51728 0.0
O492 O 0.6268 0.08612 0.47559 0.0
O493 O 0.61443 0.02928 0.45064 0.0
O494 O 0.5907 0.99481 0.47164 0.0
O495 O 0.61271 0.04432 0.58905 0.0
O496 O 0.62872 0.05877 0.55066 0.0
C497 C 0.60761 1.00449 0.45403 0.0
O498 O 0.55524 0.07572 0.51514 0.0
O499 O 0.56865 0.0883 0.47513 0.0
O500 O 0.55705 0.97804 0.52283 0.0
O501 O 0.54553 0.99098 0.56523 0.0
C502 C 0.61954 0.98902 0.54619 0.0
C503 C 0.63156 0.0567 0.57595 0.0
C504 C 0.56173 0.0737 0.5845 0.0
O505 O 0.55583 0.04891 0.58909 0.0
O506 O 0.57969 0.08296 0.56769 0.0
C507 C 0.63016 0.10111 0.49723 0.0
O508 O 0.5575 0.03465 0.45187 0.0
O509 O 0.54279 1.02022 0.49074 0.0
C510 C 0.55227 0.0889 0.49434 0.0
C511 C 0.53896 1.02254 0.46565 0.0
H512 H 0.27195 0.25478 0.37263 0.0
H513 H 0.24703 0.2245 0.40231 0.0
H514 H 0.19616 0.19042 0.33472 0.0
H515 H 0.22038 0.22142 0.30514 0.0
H516 H 0.16393 0.19407 0.37305 0.0
H517 H 0.25345 0.15947 0.37224 0.0
H518 H 0.30444 0.16245 0.37845 0.0
H519 H 0.29929 0.18774 0.46066 0.0
H520 H 0.24832 0.18486 0.45495 0.0
H521 H 0.09693 0.08655 0.43683 0.0
H522 H 0.12828 0.11265 0.40856 0.0
H523 H 0.17554 0.14482 0.47915 0.0
H524 H 0.14455 0.11767 0.50745 0.0
H525 H 0.2105 0.14282 0.44094 0.0
H526 H 0.12345 0.17767 0.4438 0.0
H527 H 0.07257 0.17719 0.4398 0.0
H528 H 0.07305 0.15547 0.35612 0.0
H529 H 0.12394 0.15545 0.3597 0.0
C530 C 0.25565 0.2407 0.3639 0.0
C531 C 0.24857 0.24075 0.33612 0.0
C532 C 0.24135 0.22306 0.38106 0.0
C533 C 0.21965 0.20433 0.37115 0.0
C534 C 0.21267 0.20433 0.34336 0.0
C535 C 0.22677 0.22216 0.32623 0.0
C536 C 0.20359 0.1855 0.38956 0.0
C537 C 0.17434 0.18258 0.38748 0.0
C538 C 0.21649 0.17092 0.40957 0.0
C539 C 0.2471 0.17212 0.41311 0.0
C540 C 0.26322 0.16569 0.39163 0.0
C541 C 0.29212 0.16732 0.39508 0.0
C542 C 0.30512 0.17526 0.41995 0.0
C543 C 0.28923 0.18149 0.44144 0.0
C544 C 0.26033 0.1798 0.43813 0.0
C545 C 0.11461 0.09843 0.44634 0.0
C546 C 0.11843 0.09929 0.47454 0.0
C547 C 0.13238 0.11391 0.43008 0.0
C548 C 0.15423 0.13169 0.44135 0.0
C549 C 0.159 0.13158 0.46953 0.0
C550 C 0.14135 0.11572 0.48584 0.0
C551 C 0.1709 0.15099 0.4239 0.0
C552 C 0.20016 0.15414 0.42631 0.0
C553 C 0.15804 0.16612 0.4044 0.0
C554 C 0.12748 0.16631 0.40209 0.0
C555 C 0.11269 0.17264 0.42458 0.0
C556 C 0.08385 0.17246 0.42239 0.0
C557 C 0.06958 0.16624 0.39774 0.0
C558 C 0.08413 0.16024 0.37521 0.0
C559 C 0.11298 0.16034 0.3773 0.0
H560 H 0.04725 0.1661 0.39608 0.0
H561 H 0.3275 0.17658 0.42257 0.0
H562 H 0.80671 0.25444 0.36933 0.0
H563 H 0.83085 0.22514 0.39793 0.0
H564 H 0.88634 0.21279 0.33495 0.0
H565 H 0.86151 0.24146 0.30602 0.0
H566 H 0.88255 0.1696 0.35638 0.0
H567 H 0.89954 0.25268 0.40188 0.0
H568 H 0.88927 0.2935 0.42476 0.0
H569 H 0.84748 0.24906 0.48527 0.0
H570 H 0.85645 0.20793 0.46214 0.0
H571 H 0.98708 0.11487 0.4384 0.0
H572 H 0.95876 0.14178 0.41147 0.0
H573 H 0.89895 0.13963 0.4726 0.0
H574 H 0.92774 0.11227 0.50003 0.0
H575 H 0.90356 0.18916 0.45329 0.0
H576 H 0.8875 0.10594 0.40654 0.0
H577 H 0.90032 0.06595 0.38385 0.0
H578 H 0.94435 0.11257 0.3263 0.0
H579 H 0.93208 0.15288 0.34885 0.0
C580 C 0.82401 0.24557 0.36127 0.0
C581 C 0.83153 0.25102 0.33462 0.0
C582 C 0.83837 0.22863 0.37813 0.0
C583 C 0.86161 0.21617 0.36974 0.0
C584 C 0.86891 0.22147 0.34296 0.0
C585 C 0.85445 0.23832 0.32606 0.0
C586 C 0.87788 0.19775 0.3882 0.0
C587 C 0.88724 0.17446 0.37747 0.0
C588 C 0.88439 0.20249 0.41641 0.0
C589 C 0.87833 0.22717 0.43002 0.0
C590 C 0.88779 0.25158 0.41984 0.0
C591 C 0.88216 0.27479 0.43284 0.0
C592 C 0.86754 0.27386 0.45634 0.0
C593 C 0.8586 0.24974 0.46693 0.0
C594 C 0.86382 0.22646 0.45381 0.0
C595 C 0.96768 0.11951 0.4463 0.0
C596 C 0.9602 0.11025 0.47189 0.0
C597 C 0.9511 0.13529 0.43046 0.0
C598 C 0.92573 0.14335 0.43899 0.0
C599 C 0.91803 0.1342 0.46464 0.0
C600 C 0.9346 0.11797 0.4805 0.0
C601 C 0.90813 0.16126 0.42136 0.0
C602 C 0.89865 0.1844 0.43221 0.0
C603 C 0.90175 0.1566 0.3932 0.0
C604 C 0.90907 0.13244 0.37953 0.0
C605 C 0.90007 0.10767 0.38915 0.0
C606 C 0.90721 0.08495 0.3763 0.0
C607 C 0.92319 0.08672 0.35368 0.0
C608 C 0.932 0.11123 0.34383 0.0
C609 C 0.92493 0.13402 0.35663 0.0
H610 H 0.9287 0.0691 0.34376 0.0
H611 H 0.86326 0.29184 0.46642 0.0
H612 H 0.82661 0.88524 0.31289 0.0
H613 H 0.85572 0.91405 0.34439 0.0
H614 H 0.90433 0.85072 0.3637 0.0
H615 H 0.87431 0.82124 0.33269 0.0
H616 H 0.89431 0.8751 0.40733 0.0
H617 H 0.92839 0.90399 0.32385 0.0
H618 H 0.92559 0.91947 0.2776 0.0
H619 H 0.89034 0.98808 0.30537 0.0
H620 H 0.89258 0.97284 0.35177 0.0
H621 H 0.99775 0.95167 0.48381 0.0
H622 H 0.97289 0.92492 0.44752 0.0
H623 H 0.924 0.9878 0.42862 0.0
H624 H 0.9494 1.01528 0.46462 0.0
H625 H 0.93515 0.96366 0.38407 0.0
H626 H 0.90395 0.93279 0.46954 0.0
H627 H 0.91383 0.91779 0.515 0.0
H628 H 0.94734 0.8503 0.48196 0.0
H629 H 0.93905 0.86568 0.43627 0.0
C630 C 0.84362 0.87738 0.32364 0.0
C631 C 0.84824 0.85091 0.32016 0.0
C632 C 0.8604 0.89401 0.34158 0.0
C633 C 0.88265 0.88481 0.35608 0.0
C634 C 0.88737 0.85836 0.35264 0.0
C635 C 0.87025 0.84152 0.33491 0.0
C636 C 0.90002 0.90252 0.37573 0.0
C637 C 0.90355 0.8943 0.40209 0.0
C638 C 0.91169 0.92786 0.36914 0.0
C639 C 0.91042 0.93714 0.34126 0.0
C640 C 0.91985 0.92229 0.32008 0.0
C641 C 0.9184 0.93103 0.29383 0.0
C642 C 0.90773 0.95471 0.28854 0.0
C643 C 0.89857 0.96973 0.3095 0.0
C644 C 0.89995 0.96106 0.33578 0.0
C645 C 0.98181 0.95991 0.47185 0.0
C646 C 0.97514 0.98541 0.47736 0.0
C647 C 0.96777 0.94461 0.45104 0.0
C648 C 0.94624 0.95398 0.4357 0.0
C649 C 0.94038 0.97995 0.44031 0.0
C650 C 0.95484 0.99561 0.46091 0.0
C651 C 0.92938 0.93622 0.41565 0.0
C652 C 0.92585 0.94446 0.38926 0.0
C653 C 0.91801 0.9107 0.42209 0.0
C654 C 0.92098 0.90048 0.44947 0.0
C655 C 0.9134 0.91474 0.47196 0.0
C656 C 0.91889 0.90623 0.49779 0.0
C657 C 0.93111 0.88301 0.50139 0.0
C658 C 0.93782 0.86824 0.47914 0.0
C659 C 0.93289 0.87693 0.45327 0.0
H660 H 0.93543 0.87644 0.52139 0.0
H661 H 0.90662 0.96144 0.26821 0.0
H662 H 0.10146 0.87354 0.28226 0.0
H663 H 0.07017 0.89222 0.31297 0.0
H664 H 0.10838 0.85442 0.37899 0.0
H665 H 0.1388 0.83533 0.34862 0.0
H666 H 0.05873 0.86309 0.39132 0.0
H667 H 0.13818 0.91431 0.35572 0.0
H668 H 0.16544 0.93386 0.31938 0.0
H669 H 0.09666 0.97484 0.29356 0.0
H670 H 0.06896 0.95538 0.32972 0.0
H671 H 0.08481 0.95253 0.50081 0.0
H672 H 0.08793 0.92308 0.46205 0.0
H673 H 0.04396 0.97418 0.41234 0.0
H674 H 0.04213 1.00445 0.45098 0.0
H675 H 0.08515 0.95876 0.38723 0.0
H676 H 1.01509 0.91529 0.43826 0.0
H677 H 0.99437 0.89606 0.47861 0.0
H678 H 0.0529 0.83887 0.47925 0.0
H679 H 0.07437 0.85835 0.43964 0.0
C680 C 0.10222 0.86829 0.30313 0.0
C681 C 0.12302 0.85356 0.31318 0.0
C682 C 0.08443 0.87903 0.32066 0.0
C683 C 0.08778 0.87556 0.34839 0.0
C684 C 0.10562 0.85764 0.35772 0.0
C685 C 0.12306 0.84663 0.34021 0.0
C686 C 0.07766 0.89406 0.36805 0.0
C687 C 0.06433 0.88404 0.39048 0.0
C688 C 0.08486 0.92141 0.36679 0.0
C689 C 0.10144 0.93318 0.34514 0.0
C690 C 0.12887 0.92741 0.3422 0.0
C691 C 0.14439 0.93848 0.32168 0.0
C692 C 0.13275 0.95549 0.30411 0.0
C693 C 0.10561 0.96159 0.30713 0.0
C694 C 0.09 0.95057 0.32764 0.0
C695 C 0.07604 0.95754 0.48152 0.0
C696 C 0.06339 0.98075 0.47871 0.0
C697 C 0.07753 0.94058 0.45948 0.0
C698 C 0.06551 0.94605 0.43443 0.0
C699 C 0.05322 0.96948 0.43152 0.0
C700 C 0.05233 0.98682 0.45348 0.0
C701 C 0.06687 0.92781 0.41107 0.0
C702 C 0.07868 0.93794 0.38793 0.0
C703 C 0.05918 0.90045 0.41225 0.0
C704 C 0.04622 0.88839 0.436 0.0
C705 C 0.02344 0.89868 0.44716 0.0
C706 C 1.01164 0.88776 0.46987 0.0
C707 C 0.0222 0.86617 0.48138 0.0
C708 C 0.04468 0.85557 0.47028 0.0
C709 C 0.05669 0.8666 0.44772 0.0
H710 H 1.01299 0.8577 0.49891 0.0
H711 H 0.14478 0.96402 0.2882 0.0
H712 H 0.27625 0.86776 0.70068 0.0
H713 H 0.25009 0.89553 0.6719 0.0
H714 H 0.1801 0.88255 0.72162 0.0
H715 H 0.20609 0.8545 0.75012 0.0
H716 H 0.15822 0.88359 0.67447 0.0
H717 H 0.22868 0.94528 0.71703 0.0
H718 H 0.27642 0.96382 0.73028 0.0
H719 H 0.2957 0.96948 0.64736 0.0
H720 H 0.24816 0.95068 0.63363 0.0
H721 H 0.07842 0.98184 0.62376 0.0
H722 H 0.10837 0.95648 0.65041 0.0
H723 H 0.17304 0.97162 0.59499 0.0
H724 H 0.14273 0.99793 0.56802 0.0
H725 H 0.19888 0.96906 0.6429 0.0
H726 H 0.12843 0.90823 0.60028 0.0
H727 H 0.08085 0.88946 0.58681 0.0
H728 H 0.06187 0.88153 0.66959 0.0
H729 H 0.10925 0.90057 0.68357 0.0
C730 C 0.25532 0.87075 0.70575 0.0
C731 C 0.24392 0.85834 0.72844 0.0
C732 C 0.2401 0.88713 0.68907 0.0
C733 C 0.21248 0.89232 0.69402 0.0
C734 C 0.20104 0.87962 0.71654 0.0
C735 C 0.21626 0.86332 0.73323 0.0
C736 C 0.19548 0.91024 0.67599 0.0
C737 C 0.16735 0.90241 0.66808 0.0
C738 C 0.20644 0.93496 0.66615 0.0
C739 C 0.23496 0.94632 0.67431 0.0
C740 C 0.24316 0.95032 0.70163 0.0
C741 C 0.27017 0.9609 0.70922 0.0
C742 C 0.2891 0.96775 0.68967 0.0
C743 C 0.28103 0.96412 0.66248 0.0
C744 C 0.25405 0.95352 0.65478 0.0
C745 C 0.09903 0.98015 0.61689 0.0
C746 C 0.10735 0.99258 0.593 0.0
C747 C 0.11645 0.96502 0.63241 0.0
C748 C 0.14351 0.96068 0.6251 0.0
C749 C 0.1525 0.97384 0.60173 0.0
C750 C 0.13491 0.98928 0.58607 0.0
C751 C 0.16156 0.94248 0.64168 0.0
C752 C 0.1898 0.95023 0.64931 0.0
C753 C 0.15076 0.9176 0.65126 0.0
C754 C 0.12231 0.90605 0.64296 0.0
C755 C 0.11405 0.90263 0.61561 0.0
C756 C 0.08713 0.89193 0.60788 0.0
C757 C 0.06833 0.88437 0.62733 0.0
C758 C 0.07644 0.88743 0.65455 0.0
C759 C 0.10334 0.89815 0.66238 0.0
H760 H 0.04748 0.87609 0.62131 0.0
H761 H 0.31 0.97593 0.69559 0.0
H762 H 0.18868 0.25661 0.75148 0.0
H763 H 0.16085 0.22648 0.72011 0.0
H764 H 0.23404 0.19062 0.69951 0.0
H765 H 0.26235 0.22147 0.73047 0.0
H766 H 0.20514 0.19684 0.65591 0.0
H767 H 0.1839 0.16055 0.73928 0.0
H768 H 0.17005 0.15867 0.78614 0.0
H769 H 0.0896 0.17997 0.7623 0.0
H770 H 0.10314 0.18279 0.71528 0.0
H771 H 0.11375 0.08091 0.60083 0.0
H772 H 0.14136 0.10582 0.63721 0.0
H773 H 0.10506 0.1757 0.61501 0.0
H774 H 0.07798 0.15121 0.57818 0.0
H775 H 0.1168 0.14803 0.68087 0.0
H776 H 0.15126 0.19639 0.59808 0.0
H777 H 0.16647 0.19196 0.55174 0.0
H778 H 0.22402 0.13856 0.57761 0.0
H779 H 0.20879 0.14245 0.62402 0.0
C780 C 0.19893 0.24222 0.74046 0.0
C781 C 0.22779 0.24141 0.74361 0.0
C782 C 0.18289 0.22487 0.72256 0.0
C783 C 0.19519 0.20593 0.70768 0.0
C784 C 0.22403 0.20501 0.7108 0.0
C785 C 0.24019 0.2226 0.72857 0.0
C786 C 0.17798 0.18781 0.68827 0.0
C787 C 0.18599 0.18608 0.66161 0.0
C788 C 0.15296 0.17343 0.69547 0.0
C789 C 0.14469 0.17216 0.72375 0.0
C790 C 0.16336 0.16518 0.74403 0.0
C791 C 0.15555 0.16396 0.77062 0.0
C792 C 0.129 0.16938 0.77718 0.0
C793 C 0.11019 0.176 0.75715 0.0
C794 C 0.11793 0.17742 0.73052 0.0
C795 C 0.11152 0.10154 0.60382 0.0
C796 C 0.09401 0.11421 0.58643 0.0
C797 C 0.12725 0.11569 0.62459 0.0
C798 C 0.12536 0.14257 0.62852 0.0
C799 C 0.10697 0.15501 0.61202 0.0
C800 C 0.09162 0.14102 0.59098 0.0
C801 C 0.14372 0.15803 0.64887 0.0
C802 C 0.13598 0.15899 0.67554 0.0
C803 C 0.16917 0.17131 0.64194 0.0
C804 C 0.1788 0.16957 0.61433 0.0
C805 C 0.16707 0.18364 0.5938 0.0
C806 C 0.17568 0.18122 0.56755 0.0
C807 C 0.19616 0.16494 0.56172 0.0
C808 C 0.20813 0.15112 0.58214 0.0
C809 C 0.19952 0.15342 0.6084 0.0
H810 H 0.20277 0.16307 0.54138 0.0
H811 H 0.12295 0.16834 0.79777 0.0
H812 H 0.9603 0.19089 0.79154 0.0
H813 H 0.99235 0.16987 0.76396 0.0
H814 H 0.99406 0.23399 0.70983 0.0
H815 H 0.96325 0.25582 0.73814 0.0
H816 H 0.9729 0.15313 0.71753 0.0
H817 H 0.04866 0.23342 0.66734 0.0
H818 H 0.08168 0.27148 0.68146 0.0
H819 H 0.08562 0.24385 0.76177 0.0
H820 H 0.05281 0.20552 0.74816 0.0
H821 H 1.00773 0.15514 0.5733 0.0
H822 H 1.01141 0.17813 0.61725 0.0
H823 H 0.02841 0.10677 0.65531 0.0
H824 H 0.02413 0.08358 0.61181 0.0
H825 H 0.05055 0.18596 0.66203 0.0
H826 H 0.98805 0.10063 0.70826 0.0
H827 H 0.95715 0.06087 0.69434 0.0
H828 H 0.92822 0.09938 0.62486 0.0
H829 H 0.95868 0.13942 0.63856 0.0
C830 C 0.96847 0.20113 0.77447 0.0
C831 C 0.95867 0.22473 0.76664 0.0
C832 C 0.98675 0.18901 0.75865 0.0
C833 C 0.99536 0.20016 0.73465 0.0
C834 C 0.9879 0.22502 0.72832 0.0
C835 C 0.96987 0.2373 0.7443 0.0
C836 C 1.00638 0.18372 0.71361 0.0
C837 C 0.99046 0.16007 0.70599 0.0
C838 C 0.02898 0.19289 0.69816 0.0
C839 C 0.04816 0.21645 0.70667 0.0
C840 C 0.05662 0.23534 0.688 0.0
C841 C 0.07529 0.25703 0.69594 0.0
C842 C 0.08574 0.26009 0.72249 0.0
C843 C 0.07746 0.24151 0.7412 0.0
C844 C 0.05874 0.21982 0.7334 0.0
C845 C 1.01235 0.14442 0.59105 0.0
C846 C 1.01466 0.11741 0.58927 0.0
C847 C 1.01484 0.15763 0.61604 0.0
C848 C 1.01987 0.14401 0.63944 0.0
C849 C 0.02419 0.1175 0.63746 0.0
C850 C 0.02134 0.10424 0.61263 0.0
C851 C 1.01637 0.15643 0.66591 0.0
C852 C 0.03357 0.17908 0.67429 0.0
C853 C 0.99499 0.14647 0.68228 0.0
C854 C 0.97585 0.12286 0.67429 0.0
C855 C 0.97498 0.10062 0.69009 0.0
C856 C 0.95757 0.07804 0.68223 0.0
C857 C 0.94082 0.07756 0.65867 0.0
C858 C 0.94128 0.09973 0.64304 0.0
C859 C 0.95861 0.12237 0.65085 0.0
H860 H 0.92744 0.06003 0.65257 0.0
H861 H 0.10025 0.27685 0.72857 0.0
H862 H 0.85603 0.87674 0.76251 0.0
H863 H 0.87963 0.90748 0.73246 0.0
H864 H 0.81283 0.89016 0.67279 0.0
H865 H 0.78967 0.85854 0.7025 0.0
H866 H 0.85583 0.89429 0.64696 0.0
H867 H 0.82798 0.9523 0.71406 0.0
H868 H 0.82308 0.97056 0.75963 0.0
H869 H 0.91165 0.98447 0.77101 0.0
H870 H 0.9171 0.96597 0.72562 0.0
H871 H 0.91651 0.99443 0.56148 0.0
H872 H 0.88437 0.96943 0.59062 0.0
H873 H 0.94613 0.98 0.65586 0.0
H874 H 0.97748 1.00525 0.62724 0.0
H875 H 0.90116 0.98136 0.67789 0.0
H876 H 0.92715 0.91875 0.61053 0.0
H877 H 0.92941 0.89612 0.56657 0.0
H878 H 0.8407 0.8911 0.55567 0.0
H879 H 0.83796 0.91387 0.59949 0.0
C880 C 0.8461 0.87954 0.7431 0.0
C881 C 0.82056 0.86493 0.73537 0.0
C882 C 0.85969 0.8975 0.72576 0.0
C883 C 0.84817 0.90209 0.70002 0.0
C884 C 0.82259 0.88749 0.6923 0.0
C885 C 0.80912 0.86929 0.70955 0.0
C886 C 0.86312 0.92115 0.68094 0.0
C887 C 0.86525 0.91352 0.65382 0.0
C888 C 0.8761 0.94642 0.68922 0.0
C889 C 0.87294 0.95751 0.71653 0.0
C890 C 0.84642 0.95907 0.72635 0.0
C891 C 0.84354 0.96949 0.75214 0.0
C892 C 0.86704 0.97861 0.76823 0.0
C893 C 0.89347 0.97737 0.75854 0.0
C894 C 0.89647 0.96694 0.73277 0.0
C895 C 0.92287 0.99217 0.58228 0.0
C896 C 0.94972 1.00249 0.59187 0.0
C897 C 0.90459 0.97722 0.59898 0.0
C898 C 0.91256 0.97185 0.62582 0.0
C899 C 0.93888 0.98335 0.63554 0.0
C900 C 0.95698 0.99811 0.61899 0.0
C901 C 0.89435 0.95428 0.64393 0.0
C902 C 0.89157 0.96221 0.67096 0.0
C903 C 0.88043 0.92942 0.63548 0.0
C904 C 0.8824 0.91824 0.6081 0.0
C905 C 0.90819 0.91322 0.59854 0.0
C906 C 0.90952 0.90021 0.57371 0.0
C907 C 0.88517 0.89207 0.5584 0.0
C908 C 0.85951 0.89736 0.56759 0.0
C909 C 0.85807 0.91033 0.59238 0.0
H910 H 0.88609 0.88151 0.53946 0.0
H911 H 0.86477 0.98667 0.78819 0.0
H912 H 0.36112 0.2399 0.26623 0.0
H913 H 0.38808 0.21501 0.23608 0.0
H914 H 0.34373 0.24284 0.1678 0.0
H915 H 0.31587 0.26651 0.19802 0.0
H916 H 0.35242 0.19962 0.15112 0.0
H917 H 0.42071 0.26223 0.19347 0.0
H918 H 0.44787 0.28682 0.23064 0.0
H919 H 0.47579 0.21546 0.25909 0.0
H920 H 0.4485 0.19037 0.22227 0.0
H921 H 0.45207 0.15901 0.05567 0.0
H922 H 0.42665 0.18599 0.08584 0.0
H923 H 0.44924 0.13996 0.15244 0.0
H924 H 0.47371 0.11258 0.12223 0.0
H925 H 0.4526 0.19311 0.16903 0.0
H926 H 0.38489 0.13233 0.1208 0.0
H927 H 0.3589 0.11149 0.08094 0.0
H928 H 0.33089 0.18527 0.06028 0.0
H929 H 0.35757 0.20678 0.09941 0.0
C930 C 0.35697 0.24086 0.24481 0.0
C931 C 0.33577 0.25575 0.23521 0.0
C932 C 0.37292 0.22657 0.22713 0.0
C933 C 0.36922 0.22679 0.19866 0.0
C934 C 0.34786 0.24162 0.1892 0.0
C935 C 0.33166 0.25554 0.20685 0.0
C936 C 0.38685 0.21162 0.17897 0.0
C937 C 0.37443 0.19881 0.15517 0.0
C938 C 0.41593 0.20944 0.18314 0.0
C939 C 0.43232 0.22439 0.2053 0.0
C940 C 0.4325 0.25176 0.20776 0.0
C941 C 0.44793 0.26579 0.22875 0.0
C942 C 0.46348 0.2527 0.24725 0.0
C943 C 0.46369 0.22556 0.24477 0.0
C944 C 0.44826 0.21142 0.22384 0.0
C945 C 0.45228 0.1549 0.07684 0.0
C946 C 0.46605 0.13356 0.08613 0.0
C947 C 0.43723 0.17035 0.09432 0.0
C948 C 0.43539 0.16558 0.12217 0.0
C949 C 0.44987 0.14477 0.13148 0.0
C950 C 0.46425 0.12897 0.11394 0.0
C951 C 0.41811 0.1814 0.14134 0.0
C952 C 0.43061 0.19418 0.16504 0.0
C953 C 0.38929 0.18417 0.13666 0.0
C954 C 0.3736 0.17126 0.11287 0.0
C955 C 0.37356 0.14422 0.10753 0.0
C956 C 0.35869 0.13227 0.08504 0.0
C957 C 0.3434 0.14707 0.06797 0.0
C958 C 0.34288 0.17384 0.0734 0.0
C959 C 0.35796 0.18594 0.09568 0.0
H960 H 0.33185 0.13779 0.0506 0.0
H961 H 0.47542 0.2636 0.26349 0.0
H962 H 0.76606 0.36754 0.1591 0.0
H963 H 0.75691 0.41213 0.1492 0.0
H964 H 0.83292 0.42313 0.10778 0.0
H965 H 0.84126 0.37808 0.11553 0.0
H966 H 0.79705 0.44252 0.17853 0.0
H967 H 0.83458 0.4803 0.07255 0.0
H968 H 0.81893 0.47379 0.02521 0.0
H969 H 0.74025 0.43729 0.04802 0.0
H970 H 0.75465 0.44505 0.09571 0.0
H971 H 0.92441 0.49489 0.16323 0.0
H972 H 0.87782 0.48025 0.17501 0.0
H973 H 0.84735 0.54599 0.13535 0.0
H974 H 0.89433 0.56029 0.12263 0.0
H975 H 0.82702 0.50572 0.11002 0.0
H976 H 0.82541 0.52617 0.20011 0.0
H977 H 0.83968 0.53431 0.24784 0.0
H978 H 0.84878 0.45271 0.25642 0.0
H979 H 0.83527 0.44403 0.20875 0.0
C980 C 0.78017 0.37882 0.1466 0.0
C981 C 0.80526 0.36956 0.13927 0.0
C982 C 0.77492 0.40446 0.14124 0.0
C983 C 0.79488 0.42127 0.12912 0.0
C984 C 0.81731 0.41065 0.11758 0.0
C985 C 0.82235 0.3849 0.12245 0.0
C986 C 0.798 0.44965 0.13628 0.0
C987 C 0.80346 0.45653 0.16361 0.0
C988 C 0.80428 0.46853 0.11689 0.0
C989 C 0.79576 0.46335 0.08802 0.0
C990 C 0.81375 0.47125 0.06767 0.0
C991 C 0.80507 0.46735 0.04066 0.0
C992 C 0.77868 0.45498 0.03358 0.0
C993 C 0.76076 0.44677 0.05353 0.0
C994 C 0.76913 0.45104 0.0806 0.0
C995 C 0.90804 0.50698 0.1581 0.0
C996 C 0.91284 0.52805 0.14104 0.0
C997 C 0.88118 0.49873 0.16516 0.0
C998 C 0.8587 0.51163 0.15554 0.0
C999 C 0.86425 0.53545 0.14265 0.0
C1000 C 0.89123 0.54366 0.13543 0.0
C1001 C 0.83111 0.49613 0.15167 0.0
C1002 C 0.8203 0.49199 0.12507 0.0
C1003 C 0.82051 0.47943 0.17167 0.0
C1004 C 0.829 0.48442 0.20062 0.0
C1005 C 0.83061 0.50993 0.21207 0.0
C1006 C 0.83857 0.51465 0.23919 0.0
C1007 C 0.84507 0.49402 0.25514 0.0
C1008 C 0.84361 0.46865 0.24404 0.0
C1009 C 0.83568 0.46381 0.21695 0.0
H1010 H 0.85134 0.49768 0.27608 0.0
H1011 H 0.77211 0.45179 1.01264 0.0
H1012 H 0.76094 0.98189 0.19919 0.0
H1013 H 0.72268 1.00754 0.18793 0.0
H1014 H 0.66706 0.95393 0.23019 0.0
H1015 H 0.705 0.92775 0.24071 0.0
H1016 H 0.65123 0.9542 0.1801 0.0
H1017 H 0.67437 1.0192 0.24657 0.0
H1018 H 0.7019 0.0521 0.27629 0.0
H1019 H 0.7224 0.0988 0.2086 0.0
H1020 H 0.69564 0.06587 0.17829 0.0
H1021 H 0.5512 1.0138 0.10179 0.0
H1022 H 0.57522 1.00422 0.14397 0.0
H1023 H 0.65274 0.03779 0.11438 0.0
H1024 H 0.629 0.04749 0.07226 0.0
H1025 H 0.64659 0.04941 0.16989 0.0
H1026 H 0.63463 0.97516 0.10491 0.0
H1027 H 0.60599 0.94225 0.07592 0.0
H1028 H 0.56358 0.91317 0.14441 0.0
H1029 H 0.59172 0.94625 0.17376 0.0
C1030 C 0.74071 0.97602 0.20671 0.0
C1031 C 0.73585 0.9526 0.22037 0.0
C1032 C 0.7189 0.99088 0.20058 0.0
C1033 C 0.69193 0.98258 0.20812 0.0
C1034 C 0.68768 0.96065 0.22413 0.0
C1035 C 0.70945 0.94574 0.23017 0.0
C1036 C 0.668 0.99298 0.19423 0.0
C1037 C 0.64969 0.97505 0.17865 0.0
C1038 C 0.66612 1.02016 0.19205 0.0
C1039 C 0.683 0.03987 0.21005 0.0
C1040 C 0.68501 0.0363 0.23791 0.0
C1041 C 0.70047 0.055 0.25489 0.0
C1042 C 0.71393 0.0775 0.24433 0.0
C1043 C 0.71199 0.08133 0.21675 0.0
C1044 C 0.69665 0.06264 0.19964 0.0
C1045 C 0.57333 1.01936 0.10437 0.0
C1046 C 0.58836 0.03087 0.0835 0.0
C1047 C 0.58693 1.01404 0.12852 0.0
C1048 C 0.6157 1.02027 0.13217 0.0
C1049 C 0.63049 0.03296 0.11194 0.0
C1050 C 0.61697 0.03812 0.08774 0.0
C1051 C 0.63117 1.01062 0.15531 0.0
C1052 C 0.64775 0.02864 0.17235 0.0
C1053 C 0.63152 0.9835 0.15905 0.0
C1054 C 0.61487 0.96347 0.14143 0.0
C1055 C 0.61899 0.96193 0.11374 0.0
C1056 C 0.60288 0.94323 0.09726 0.0
C1057 C 0.58284 0.92575 0.1083 0.0
C1058 C 0.57897 0.92684 0.13587 0.0
C1059 C 0.59498 0.94557 0.15243 0.0
H1060 H 0.57039 0.91128 0.09552 0.0
H1061 H 0.72583 0.09198 0.25754 0.0
H1062 H 0.26027 0.74641 0.21277 0.0
H1063 H 0.22411 0.71507 0.19059 0.0
H1064 H 0.17893 0.71282 0.26326 0.0
H1065 H 0.21381 0.74546 0.2845 0.0
H1066 H 0.20304 0.66856 0.19454 0.0
H1067 H 0.11105 0.70263 0.25232 0.0
H1068 H 0.0985 0.7428 0.27496 0.0
H1069 H 0.15162 0.78985 0.22463 0.0
H1070 H 0.16416 0.74999 0.20142 0.0
H1071 H 0.08805 0.5771 0.15749 0.0
H1072 H 0.1218 0.60544 0.1859 0.0
H1073 H 0.09064 0.67363 0.15204 0.0
H1074 H 0.05636 0.6457 0.12458 0.0
H1075 H 0.10454 0.68507 0.20094 0.0
H1076 H 0.14952 0.64716 0.12859 0.0
H1077 H 0.16306 0.61135 0.09967 0.0
H1078 H 0.20472 0.57998 0.16725 0.0
H1079 H 0.19119 0.61552 0.19666 0.0
C1080 C 0.24254 0.73919 0.22386 0.0
C1081 C 0.23953 0.74868 0.25011 0.0
C1082 C 0.22191 0.7212 0.21126 0.0
C1083 C 0.19821 0.71195 0.22491 0.0
C1084 C 0.19629 0.72028 0.2518 0.0
C1085 C 0.21636 0.73884 0.26402 0.0
C1086 C 0.17518 0.69428 0.21095 0.0
C1087 C 0.18153 0.67221 0.19605 0.0
C1088 C 0.14696 0.69915 0.21218 0.0
C1089 C 0.13873 0.72329 0.22532 0.0
C1090 C 0.11989 0.72155 0.24596 0.0
C1091 C 0.11282 0.74427 0.25892 0.0
C1092 C 0.12433 0.76886 0.2513 0.0
C1093 C 0.14278 0.77079 0.23057 0.0
C1094 C 0.14987 0.74814 0.2175 0.0
C1095 C 0.0879 0.59812 0.15657 0.0
C1096 C 0.06954 0.60898 0.13845 0.0
C1097 C 0.10747 0.61436 0.17264 0.0
C1098 C 0.10936 0.64178 0.17069 0.0
C1099 C 0.08986 0.65261 0.15391 0.0
C1100 C 0.0702 0.63648 0.13809 0.0
C1101 C 0.13241 0.65925 0.18479 0.0
C1102 C 0.12605 0.68133 0.19965 0.0
C1103 C 0.16066 0.65505 0.1825 0.0
C1104 C 0.16911 0.63383 0.16487 0.0
C1105 C 0.16144 0.63254 0.13731 0.0
C1106 C 0.16911 0.6123 0.12083 0.0
C1107 C 0.18464 0.59334 0.13163 0.0
C1108 C 0.19264 0.59466 0.15893 0.0
C1109 C 0.18501 0.61486 0.17551 0.0
H1110 H 0.19054 0.57767 0.11884 0.0
H1111 H 0.11893 0.78641 0.26144 0.0
H1112 H 0.30548 0.8873 0.83516 0.0
H1113 H 0.33437 0.92357 0.85785 0.0
H1114 H 0.40578 0.90106 0.81783 0.0
H1115 H 0.37705 0.8641 0.79558 0.0
H1116 H 0.41783 0.90822 0.86866 0.0
H1117 H 0.37721 0.95854 0.80294 0.0
H1118 H 0.34009 0.97409 0.77417 0.0
H1119 H 0.30236 1.00288 0.84378 0.0
H1120 H 0.33898 0.98713 0.87303 0.0
H1121 H 0.49471 1.01296 0.94141 0.0
H1122 H 0.47278 0.99014 0.90127 0.0
H1123 H 0.3927 0.99047 0.93542 0.0
H1124 H 0.41433 1.01363 0.97562 0.0
H1125 H 0.39149 0.99861 0.87985 0.0
H1126 H 0.42809 0.93906 0.94414 0.0
H1127 H 0.46617 0.92438 0.97238 0.0
H1128 H 0.51305 0.91416 0.90261 0.0
H1129 H 0.47538 0.92918 0.87393 0.0
C1130 C 0.32726 0.89023 0.83091 0.0
C1131 C 0.33904 0.87278 0.81372 0.0
C1132 C 0.34373 0.91113 0.84373 0.0
C1133 C 0.37217 0.91526 0.83923 0.0
C1134 C 0.38386 0.89826 0.82151 0.0
C1135 C 0.36743 0.87716 0.80886 0.0
C1136 C 0.38996 0.93578 0.8551 0.0
C1137 C 0.41248 0.92817 0.87051 0.0
C1138 C 0.38287 0.96177 0.85771 0.0
C1139 C 0.36082 0.97151 0.84021 0.0
C1140 C 0.36091 0.96803 0.81215 0.0
C1141 C 0.33996 0.97691 0.79574 0.0
C1142 C 0.31887 0.98944 0.80714 0.0
C1143 C 0.31872 0.99317 0.83497 0.0
C1144 C 0.3396 0.98431 0.85148 0.0
C1145 C 0.47238 1.00847 0.94034 0.0
C1146 C 0.4563 1.01466 0.96198 0.0
C1147 C 0.45992 0.99554 0.91731 0.0
C1148 C 0.43124 0.9884 0.91562 0.0
C1149 C 0.41491 0.99587 0.93643 0.0
C1150 C 0.42733 1.00891 0.95947 0.0
C1151 C 0.41857 0.97067 0.8937 0.0
C1152 C 0.39712 0.97882 0.87729 0.0
C1153 C 0.42678 0.94525 0.8899 0.0
C1154 C 0.44906 0.93547 0.90696 0.0
C1155 C 0.44658 0.93378 0.93484 0.0
C1156 C 0.46809 0.92542 0.9509 0.0
C1157 C 0.49207 0.91845 0.93928 0.0
C1158 C 0.49451 0.91967 0.91154 0.0
C1159 C 0.47308 0.92808 0.89538 0.0
H1160 H 0.50873 0.91204 0.95175 0.0
H1161 H 0.30266 0.99628 0.7944 0.0
H1162 H 0.10014 0.35134 0.85789 0.0
H1163 H 0.07366 0.37592 0.88853 0.0
H1164 H 0.09076 0.32348 0.95165 0.0
H1165 H 0.11837 0.29976 0.9219 0.0
H1166 H 0.03089 0.37013 0.92472 0.0
H1167 H 0.11858 0.36082 1.00487 0.0
H1168 H 0.16739 0.35113 1.00738 0.0
H1169 H 0.17848 0.38017 0.92832 0.0
H1170 H 0.12994 0.39048 0.92557 0.0
H1171 H 0.99848 0.43358 0.04629 0.0
H1172 H 1.01061 0.40224 1.01238 0.0
H1173 H 0.08383 0.45346 0.99642 0.0
H1174 H 0.07292 0.48407 0.03156 0.0
H1175 H 0.09686 0.40721 0.99824 0.0
H1176 H 0.02182 0.4461 0.95441 0.0
H1177 H 0.97449 0.45946 0.94967 0.0
H1178 H 0.94032 0.3791 0.95139 0.0
H1179 H 0.98745 0.36525 0.95652 0.0
C1180 C 0.09785 0.34473 0.87815 0.0
C1181 C 0.11207 0.32398 0.88757 0.0
C1182 C 0.0824 0.35862 0.89553 0.0
C1183 C 0.08083 0.35182 0.92247 0.0
C1184 C 0.09206 0.3292 0.93097 0.0
C1185 C 0.10774 0.31551 0.91377 0.0
C1186 C 0.07215 0.37067 0.94259 0.0
C1187 C 0.04516 0.37821 0.9409 0.0
C1188 C 0.09111 0.3817 0.96322 0.0
C1189 C 0.12053 0.37609 0.96491 0.0
C1190 C 0.13148 0.36522 0.98808 0.0
C1191 C 0.1591 0.35964 0.98954 0.0
C1192 C 0.176 0.36494 0.96798 0.0
C1193 C 0.16536 0.37598 0.94497 0.0
C1194 C 0.13779 0.3817 0.94345 0.0
C1195 C 1.01743 0.43804 0.03589 0.0
C1196 C 0.03495 0.46123 0.04202 0.0
C1197 C 0.02409 0.42024 1.01617 0.0
C1198 C 0.04791 0.42564 1.00153 0.0
C1199 C 0.06532 0.44884 1.00746 0.0
C1200 C 0.05901 0.46638 0.02756 0.0
C1201 C 0.05541 0.4068 0.98069 0.0
C1202 C 0.08234 0.39917 0.98222 0.0
C1203 C 0.03656 0.39639 0.95958 0.0
C1204 C 1.0082 0.40465 0.95607 0.0
C1205 C 1.00422 0.43127 0.95393 0.0
C1206 C 0.97742 0.43893 0.95116 0.0
C1207 C 0.95442 0.42014 0.95026 0.0
C1208 C 0.95817 0.39363 0.95209 0.0
C1209 C 0.98492 0.38586 0.9549 0.0
H1210 H 0.9337 0.4261 0.9481 0.0
H1211 H 0.19735 0.36055 0.96913 0.0
H1212 H 0.70459 0.28167 0.82931 0.0
H1213 H 0.67001 0.25961 0.85725 0.0
H1214 H 0.73064 0.21047 0.88725 0.0
H1215 H 0.76491 0.23166 0.8581 0.0
H1216 H 0.68624 0.18156 0.88036 0.0
H1217 H 0.70503 0.26656 0.92408 0.0
H1218 H 0.70919 0.31481 0.92758 0.0
H1219 H 0.62305 0.31417 0.90355 0.0
H1220 H 0.61846 0.26591 0.89958 0.0
H1221 H 0.62436 0.13583 0.99578 0.0
H1222 H 0.65298 0.16524 0.96823 0.0
H1223 H 0.57951 0.18641 0.92615 0.0
H1224 H 0.55048 0.15647 0.95393 0.0
H1225 H 0.62634 0.23009 0.93753 0.0
H1226 H 0.60854 0.14366 0.89644 0.0
H1227 H 0.6057 0.09546 0.89639 0.0
H1228 H 0.69258 0.09956 0.91856 0.0
H1229 H 0.69584 0.14783 0.91919 0.0
C1230 C 0.71067 0.26625 0.84195 0.0
C1231 C 0.73773 0.25861 0.84148 0.0
C1232 C 0.69079 0.25368 0.85819 0.0
C1233 C 0.69752 0.23353 0.87511 0.0
C1234 C 0.72461 0.22588 0.87457 0.0
C1235 C 0.74434 0.2381 0.85788 0.0
C1236 C 0.67634 0.21993 0.89273 0.0
C1237 C 0.67349 0.19239 0.89301 0.0
C1238 C 0.65877 0.23362 0.90897 0.0
C1239 C 0.66147 0.26263 0.91131 0.0
C1240 C 0.68702 0.27672 0.91936 0.0
C1241 C 0.68945 0.30406 0.92145 0.0
C1242 C 0.66641 0.31754 0.91577 0.0
C1243 C 0.64088 0.30371 0.90794 0.0
C1244 C 0.63835 0.27635 0.90579 0.0
C1245 C 0.61417 0.14733 0.9812 0.0
C1246 C 0.58511 0.14395 0.9772 0.0
C1247 C 0.63062 0.16407 0.96533 0.0
C1248 C 0.61856 0.17791 0.94483 0.0
C1249 C 0.58936 0.176 0.94186 0.0
C1250 C 0.57273 0.15902 0.95785 0.0
C1251 C 0.63686 0.19205 0.92525 0.0
C1252 C 0.63911 0.21951 0.92465 0.0
C1253 C 0.65416 0.1784 0.90892 0.0
C1254 C 0.65237 0.14937 0.90808 0.0
C1255 C 0.627 0.13429 0.90149 0.0
C1256 C 0.62531 0.10695 0.90134 0.0
C1257 C 0.64893 0.09445 0.90752 0.0
C1258 C 0.6743 0.10927 0.9138 0.0
C1259 C 0.67608 0.13662 0.91403 0.0
H1260 H 0.64758 0.07329 0.90741 0.0
H1261 H 0.66834 0.3387 0.91754 0.0
H1262 H 0.91533 0.71789 0.83586 0.0
H1263 H 0.93528 0.67751 0.84825 0.0
H1264 H 0.90964 0.68782 0.92921 0.0
H1265 H 0.89064 0.7282 0.91736 0.0
H1266 H 0.96378 0.67947 0.92692 0.0
H1267 H 0.87414 0.64487 0.88638 0.0
H1268 H 0.83892 0.63639 0.84918 0.0
H1269 H 0.89564 0.5958 0.80412 0.0
H1270 H 0.93142 0.6045 0.84089 0.0
H1271 H 0.93064 0.56107 0.99258 0.0
H1272 H 0.919 0.58117 0.95039 0.0
H1273 H 1.00586 0.5953 0.93495 0.0
H1274 H 1.01769 0.57612 0.97758 0.0
H1275 H 0.92891 0.58931 0.89449 0.0
H1276 H 1.02081 0.65549 0.93853 0.0
H1277 H 0.0484 0.66456 0.98128 0.0
H1278 H 0.97549 0.64462 0.02524 0.0
H1279 H 0.94799 0.6346 0.98297 0.0
C1280 C 0.9142 0.71157 0.85634 0.0
C1281 C 0.90152 0.72621 0.87572 0.0
C1282 C 0.92528 0.68841 0.86325 0.0
C1283 C 0.92377 0.67971 0.88956 0.0
C1284 C 0.91098 0.69424 0.90877 0.0
C1285 C 0.90001 0.71724 0.90195 0.0
C1286 C 0.93655 0.65626 0.89817 0.0
C1287 C 0.95666 0.6598 0.91928 0.0
C1288 C 0.92703 0.63061 0.88838 0.0
C1289 C 0.9056 0.62568 0.86622 0.0
C1290 C 0.87924 0.63443 0.86841 0.0
C1291 C 0.85914 0.6295 0.84743 0.0
C1292 C 0.86505 0.61558 0.82429 0.0
C1293 C 0.89108 0.60656 0.82207 0.0
C1294 C 0.91129 0.61153 0.84295 0.0
C1295 C 0.94719 0.56714 0.9795 0.0
C1296 C 0.97506 0.56783 0.9886 0.0
C1297 C 0.94049 0.57854 0.95528 0.0
C1298 C 0.96165 0.59037 0.93999 0.0
C1299 C 0.9893 0.58658 0.94669 0.0
C1300 C 0.99603 0.57569 0.97111 0.0
C1301 C 0.95566 0.61274 0.92346 0.0
C1302 C 0.93696 0.60904 0.90107 0.0
C1303 C 0.96576 0.63849 0.9324 0.0
C1304 C 0.98257 0.64392 0.95774 0.0
C1305 C 1.01089 0.65274 0.9574 0.0
C1306 C 0.02653 0.6579 0.98154 0.0
C1307 C 1.01388 0.65474 1.00603 0.0
C1308 C 0.98553 0.64653 1.00641 0.0
C1309 C 0.96993 0.64098 0.98238 0.0
H1310 H 0.02597 0.65889 0.02469 0.0
H1311 H 0.84946 0.61179 0.80808 0.0
H1312 H 0.18586 0.33288 0.10861 0.0
H1313 H 0.16321 0.37078 0.0937 0.0
H1314 H 0.20119 0.41604 0.16248 0.0
H1315 H 0.22543 0.37936 0.17562 0.0
H1316 H 0.12556 0.38478 0.11823 0.0
H1317 H 0.19406 0.47777 0.16525 0.0
H1318 H 0.24266 0.49709 0.16464 0.0
H1319 H 0.25274 0.45465 0.09099 0.0
H1320 H 0.20408 0.43536 0.09086 0.0
H1321 H 0.03148 0.46299 0.16433 0.0
H1322 H 0.07306 0.43999 0.16529 0.0
H1323 H 0.11288 0.49821 0.11503 0.0
H1324 H 0.07369 0.52327 0.11828 0.0
H1325 H 0.1504 0.47967 0.13736 0.0
H1326 H 0.06885 0.43685 0.0914 0.0
H1327 H 1.02002 0.41767 0.08705 0.0
H1328 H 0.03685 0.3601 0.14439 0.0
H1329 H 0.08546 0.37946 0.15005 0.0
C1330 C 0.19049 0.35147 0.11949 0.0
C1331 C 0.20727 0.3533 0.14321 0.0
C1332 C 0.1774 0.37307 0.11118 0.0
C1333 C 0.1801 0.39639 0.12707 0.0
C1334 C 0.19906 0.39877 0.14933 0.0
C1335 C 0.21289 0.37758 0.15701 0.0
C1336 C 0.15922 0.41555 0.1243 0.0
C1337 C 0.13115 0.4056 0.12184 0.0
C1338 C 0.16619 0.44287 0.12851 0.0
C1339 C 0.19535 0.455 0.12812 0.0
C1340 C 0.20652 0.47273 0.14877 0.0
C1341 C 0.23412 0.48362 0.1486 0.0
C1342 C 0.25077 0.47704 0.12783 0.0
C1343 C 0.23983 0.45966 0.10711 0.0
C1344 C 0.21224 0.44871 0.10717 0.0
C1345 C 0.04946 0.4713 0.15422 0.0
C1346 C 0.04838 0.49404 0.13938 0.0
C1347 C 0.07309 0.45791 0.15437 0.0
C1348 C 0.09533 0.46619 0.13842 0.0
C1349 C 0.09565 0.49066 0.12661 0.0
C1350 C 0.07269 0.5048 0.12785 0.0
C1351 C 0.11695 0.44861 0.13231 0.0
C1352 C 0.14498 0.45894 0.13303 0.0
C1353 C 0.10996 0.42174 0.12517 0.0
C1354 C 0.08082 0.40971 0.12124 0.0
C1355 C 0.06214 0.42014 0.10314 0.0
C1356 C 0.0345 0.40927 0.10046 0.0
C1357 C 0.02541 0.38764 0.11526 0.0
C1358 C 0.04393 0.37685 0.1329 0.0
C1359 C 0.0715 0.3878 0.13593 0.0
H1360 H 1.004 0.37928 0.1131 0.0
H1361 H 0.27214 0.48538 0.12781 0.0
H1362 H 0.18574 0.77205 0.95185 0.0
H1363 H 0.16724 0.73944 0.98302 0.0
H1364 H 0.1941 0.67787 0.93299 0.0
H1365 H 0.21162 0.7101 0.90135 0.0
H1366 H 0.14181 0.66716 0.94471 0.0
H1367 H 0.22733 0.69542 0.99312 0.0
H1368 H 0.26343 0.72723 1.01506 0.0
H1369 H 0.20483 0.751 0.07046 0.0
H1370 H 0.16825 0.71959 0.0486 0.0
H1371 H 0.13065 0.57663 0.06284 0.0
H1372 H 0.15813 0.61235 0.0414 0.0
H1373 H 0.08292 0.64467 1.01622 0.0
H1374 H 0.05551 0.60903 0.03687 0.0
H1375 H 0.16316 0.66783 0.04295 0.0
H1376 H 0.0879 0.65643 0.9487 0.0
H1377 H 0.05353 0.6229 0.92677 0.0
H1378 H 0.09609 0.56209 0.96189 0.0
H1379 H 0.13123 0.59514 0.98331 0.0
C1380 C 0.18769 0.75155 0.94754 0.0
C1381 C 0.2001 0.74362 0.92415 0.0
C1382 C 0.17741 0.73301 0.96549 0.0
C1383 C 0.17953 0.7063 0.96037 0.0
C1384 C 0.19238 0.69841 0.93732 0.0
C1385 C 0.20256 0.71688 0.91937 0.0
C1386 C 0.16657 0.68634 0.9779 0.0
C1387 C 0.14656 0.66729 0.96617 0.0
C1388 C 0.17303 0.68641 1.00583 0.0
C1389 C 0.19498 0.70531 0.01905 0.0
C1390 C 0.22207 0.70759 1.00983 0.0
C1391 C 0.24264 0.72552 0.02229 0.0
C1392 C 0.23641 0.74118 0.0441 0.0
C1393 C 0.20962 0.73888 0.05354 0.0
C1394 C 0.18897 0.721 0.04114 0.0
C1395 C 0.12008 0.59162 0.05309 0.0
C1396 C 0.091 0.58992 0.05115 0.0
C1397 C 0.13576 0.61204 0.04105 0.0
C1398 C 0.12242 0.6308 0.02697 0.0
C1399 C 0.09349 0.63015 0.02678 0.0
C1400 C 0.07787 0.60976 0.0386 0.0
C1401 C 0.1382 0.64912 1.00972 0.0
C1402 C 0.15859 0.66778 0.02147 0.0
C1403 C 0.13245 0.64849 0.98165 0.0
C1404 C 0.11198 0.62834 0.96799 0.0
C1405 C 0.09003 0.6359 0.95164 0.0
C1406 C 0.07039 0.61698 0.9393 0.0
C1407 C 0.07247 0.59042 0.94315 0.0
C1408 C 0.09439 0.58269 0.95907 0.0
C1409 C 0.1142 0.60151 0.97128 0.0
H1410 H 0.05716 0.57582 0.93369 0.0
H1411 H 0.25236 0.75504 0.05372 0.0
H1412 H 0.36156 0.25812 0.81836 0.0
H1413 H 0.38999 0.23134 0.84571 0.0
H1414 H 0.31848 0.20432 0.88931 0.0
H1415 H 0.29004 0.2316 0.86232 0.0
H1416 H 0.36011 0.21215 0.92414 0.0
H1417 H 0.35062 0.16558 0.83858 0.0
H1418 H 0.35384 0.16086 0.78953 0.0
H1419 H 0.44167 0.18291 0.79742 0.0
H1420 H 0.43891 0.18808 0.84652 0.0
H1421 H 0.41332 0.10563 0.98861 0.0
H1422 H 0.38807 0.13266 0.95897 0.0
H1423 H 0.46388 0.1591 0.92181 0.0
H1424 H 0.48956 0.13151 0.95159 0.0
H1425 H 0.42229 0.15279 0.88353 0.0
H1426 H 0.43285 0.19835 0.96823 0.0
H1427 H 0.43081 0.20343 1.01735 0.0
H1428 H 0.34243 0.18462 1.01112 0.0
H1429 H 0.344 0.17897 0.962 0.0
C1430 C 0.35167 0.24643 0.83365 0.0
C1431 C 0.3231 0.24725 0.83769 0.0
C1432 C 0.36812 0.23081 0.84938 0.0
C1433 C 0.35676 0.21502 0.86975 0.0
C1434 C 0.32824 0.21599 0.87393 0.0
C1435 C 0.31178 0.23167 0.85823 0.0
C1436 C 0.37441 0.19792 0.88679 0.0
C1437 C 0.37332 0.19895 0.91503 0.0
C1438 C 0.39275 0.18096 0.87564 0.0
C1439 C 0.39451 0.17746 0.84619 0.0
C1440 C 0.3706 0.16956 0.82984 0.0
C1441 C 0.37234 0.16679 0.80203 0.0
C1442 C 0.39793 0.17166 0.79036 0.0
C1443 C 0.42185 0.17919 0.80649 0.0
C1444 C 0.42022 0.18201 0.83431 0.0
C1445 C 0.42491 0.11703 0.97415 0.0
C1446 C 0.45388 0.11609 0.97297 0.0
C1447 C 0.41023 0.13281 0.95709 0.0
C1448 C 0.42372 0.14872 0.93805 0.0
C1449 C 0.45257 0.14733 0.93618 0.0
C1450 C 0.4674 0.13143 0.95338 0.0
C1451 C 0.40764 0.16683 0.92077 0.0
C1452 C 0.40905 0.16601 0.89258 0.0
C1453 C 0.38972 0.18414 0.93194 0.0
C1454 C 0.38857 0.18803 0.96143 0.0
C1455 C 0.41299 0.19516 0.97735 0.0
C1456 C 0.41193 0.19814 1.0052 0.0
C1457 C 0.38652 0.19431 1.01737 0.0
C1458 C 0.36211 0.18756 1.0017 0.0
C1459 C 0.36307 0.18448 0.97383 0.0
H1460 H 0.3858 0.19667 0.03893 0.0
H1461 H 0.39923 0.16956 0.76882 0.0
H1462 H 0.80087 0.38256 0.83801 0.0
H1463 H 0.81756 0.41267 0.87556 0.0
H1464 H 0.86116 0.35214 0.91106 0.0
H1465 H 0.84385 0.32186 0.87418 0.0
H1466 H 0.83786 0.37516 0.94847 0.0
H1467 H 0.89416 0.40653 0.87716 0.0
H1468 H 0.90375 0.42323 0.83231 0.0
H1469 H 0.85988 0.48985 0.84918 0.0
H1470 H 0.84972 0.47335 0.89402 0.0
H1471 H 0.9359 0.44708 0.03664 0.0
H1472 H 0.91133 0.42149 0.99984 0.0
H1473 H 0.86512 0.48638 0.98069 0.0
H1474 H 0.89027 0.51277 1.01779 0.0
H1475 H 0.88532 0.4638 0.93557 0.0
H1476 H 0.83228 0.43182 1.00904 0.0
H1477 H 0.82485 0.41412 0.054 0.0
H1478 H 0.8664 0.34723 0.03251 0.0
H1479 H 0.87422 0.36471 0.98761 0.0
C1480 C 0.81403 0.37567 0.85381 0.0
C1481 C 0.82097 0.34972 0.85299 0.0
C1482 C 0.82373 0.393 0.87526 0.0
C1483 C 0.84101 0.38493 0.89619 0.0
C1484 C 0.84786 0.35899 0.89534 0.0
C1485 C 0.83794 0.34162 0.87412 0.0
C1486 C 0.85162 0.40311 0.91926 0.0
C1487 C 0.84846 0.39443 0.94551 0.0
C1488 C 0.8649 0.42864 0.91576 0.0
C1489 C 0.87088 0.43854 0.8888 0.0
C1490 C 0.88635 0.42462 0.87121 0.0
C1491 C 0.89193 0.43407 0.84581 0.0
C1492 C 0.88235 0.45754 0.83786 0.0
C1493 C 0.86723 0.47164 0.85533 0.0
C1494 C 0.86157 0.46226 0.88075 0.0
C1495 C 0.92038 0.4561 0.02488 0.0
C1496 C 0.91511 0.48217 0.03044 0.0
C1497 C 0.90618 0.44122 1.00379 0.0
C1498 C 0.88604 0.45176 0.98758 0.0
C1499 C 0.88049 0.47774 0.99298 0.0
C1500 C 0.89478 0.49277 1.0143 0.0
C1501 C 0.87181 0.43563 0.96459 0.0
C1502 C 0.87438 0.44465 0.93841 0.0
C1503 C 0.85837 0.41021 0.96809 0.0
C1504 C 0.85398 0.39972 0.99512 0.0
C1505 C 0.84001 0.41349 1.01409 0.0
C1506 C 0.83569 0.40348 0.03949 0.0
C1507 C 0.84522 0.37961 0.04611 0.0
C1508 C 0.85905 0.36572 0.02735 0.0
C1509 C 0.86337 0.37566 1.00191 0.0
H1510 H 0.8418 0.37181 0.06573 0.0
H1511 H 0.8867 0.46483 0.81819 0.0
H1512 H 0.76339 0.8815 0.85244 0.0
H1513 H 0.73474 0.90867 0.87806 0.0
H1514 H 0.66136 0.86103 0.84768 0.0
H1515 H 0.69023 0.83502 0.82038 0.0
H1516 H 0.63926 0.89969 0.85775 0.0
H1517 H 0.70174 0.87092 0.92466 0.0
H1518 H 0.74658 0.86388 0.9471 0.0
H1519 H 0.77074 0.94675 0.94984 0.0
H1520 H 0.72613 0.95425 0.92719 0.0
H1521 H 0.55483 0.95898 0.96072 0.0
H1522 H 0.58173 0.93002 0.93388 0.0
H1523 H 0.65265 0.98748 0.94184 0.0
H1524 H 0.62602 1.01627 0.96778 0.0
H1525 H 0.67436 0.94261 0.9443 0.0
H1526 H 0.60742 0.96939 0.87957 0.0
H1527 H 0.56047 0.97368 0.86034 0.0
H1528 H 0.54218 0.89005 0.85755 0.0
H1529 H 0.5889 0.88527 0.87718 0.0
C1530 C 0.74116 0.87645 0.85097 0.0
C1531 C 0.73021 0.85504 0.83347 0.0
C1532 C 0.72411 0.89225 0.86653 0.0
C1533 C 0.69446 0.88761 0.86694 0.0
C1534 C 0.68355 0.86628 0.84914 0.0
C1535 C 0.70059 0.85083 0.83306 0.0
C1536 C 0.67534 0.90462 0.88496 0.0
C1537 C 0.64741 0.90851 0.87682 0.0
C1538 C 0.68393 0.91747 0.91054 0.0
C1539 C 0.71077 0.9131 0.92396 0.0
C1540 C 0.71669 0.88761 0.92992 0.0
C1541 C 0.74205 0.88355 0.94269 0.0
C1542 C 0.76153 0.90485 0.94981 0.0
C1543 C 0.75566 0.93027 0.94425 0.0
C1544 C 0.73034 0.93444 0.93147 0.0
C1545 C 0.57616 0.9657 0.95704 0.0
C1546 C 0.58731 0.99102 0.96744 0.0
C1547 C 0.59198 0.94879 0.94106 0.0
C1548 C 0.62036 0.95555 0.93458 0.0
C1549 C 0.63139 0.98052 0.94556 0.0
C1550 C 0.61557 0.99749 0.96085 0.0
C1551 C 0.6386 0.93756 0.91703 0.0
C1552 C 0.66635 0.93363 0.92524 0.0
C1553 C 0.62957 0.92418 0.89194 0.0
C1554 C 0.60156 0.92699 0.88009 0.0
C1555 C 0.59332 0.95192 0.87504 0.0
C1556 C 0.56676 0.95444 0.86404 0.0
C1557 C 0.54835 0.93216 0.85775 0.0
C1558 C 0.55648 0.9073 0.86242 0.0
C1559 C 0.58298 0.90467 0.8735 0.0
H1560 H 0.52778 0.93414 0.84927 0.0
H1561 H 0.78115 0.90166 0.95969 0.0
H1562 H 0.83502 0.78219 0.19113 0.0
H1563 H 0.8551 0.75298 0.15994 0.0
H1564 H 0.87257 0.70246 0.22494 0.0
H1565 H 0.8506 0.73092 0.25592 0.0
H1566 H 0.90114 0.74037 0.15295 0.0
H1567 H 0.87569 0.64012 0.20394 0.0
H1568 H 0.83853 0.61805 0.22989 0.0
H1569 H 0.78062 0.66767 0.19671 0.0
H1570 H 0.8173 0.68977 0.17026 0.0
H1571 H 0.99125 0.65599 0.10776 0.0
H1572 H 0.96224 0.68125 0.1345 0.0
H1573 H 0.8894 0.63239 0.10354 0.0
H1574 H 0.91916 0.60559 0.07791 0.0
H1575 H 0.88233 0.6436 0.1526 0.0
H1576 H 0.90814 0.69666 0.08042 0.0
H1577 H 0.93909 0.71862 0.04823 0.0
H1578 H 0.9839 0.764 0.11273 0.0
H1579 H 0.95349 0.74204 0.14537 0.0
C1580 C 0.84329 0.76492 0.19881 0.0
C1581 C 0.8414 0.75888 0.22597 0.0
C1582 C 0.85472 0.74814 0.18092 0.0
C1583 C 0.86509 0.72518 0.18985 0.0
C1584 C 0.86402 0.71957 0.21726 0.0
C1585 C 0.85181 0.73602 0.23506 0.0
C1586 C 0.87778 0.70773 0.17056 0.0
C1587 C 0.89681 0.71923 0.15286 0.0
C1588 C 0.8716 0.6801 0.16958 0.0
C1589 C 0.84935 0.66678 0.18532 0.0
C1590 C 0.85501 0.64625 0.2021 0.0
C1591 C 0.83402 0.63375 0.21691 0.0
C1592 C 0.80726 0.64151 0.21502 0.0
C1593 C 0.80139 0.66174 0.19824 0.0
C1594 C 0.82228 0.67429 0.18335 0.0
C1595 C 0.96901 0.65075 0.10643 0.0
C1596 C 0.95726 0.62932 0.09025 0.0
C1597 C 0.95239 0.66527 0.12169 0.0
C1598 C 0.92346 0.65942 0.12037 0.0
C1599 C 0.91164 0.63754 0.10465 0.0
C1600 C 0.92852 0.62238 0.08988 0.0
C1601 C 0.90606 0.67633 0.13564 0.0
C1602 C 0.88626 0.66477 0.15255 0.0
C1603 C 0.9104 0.70401 0.13495 0.0
C1604 C 0.92859 0.71759 0.11537 0.0
C1605 C 0.92467 0.71124 0.08776 0.0
C1606 C 0.94212 0.72369 0.06943 0.0
C1607 C 0.96347 0.74268 0.07843 0.0
C1608 C 0.96735 0.7493 0.10578 0.0
C1609 C 0.94998 0.73688 0.12421 0.0
H1610 H 0.97697 0.75228 0.06421 0.0
H1611 H 0.79106 0.63182 0.22652 0.0
H1612 H 0.31467 0.87736 0.22836 0.0
H1613 H 0.34117 0.90338 0.19611 0.0
H1614 H 0.40269 0.84867 0.19726 0.0
H1615 H 0.37632 0.82268 0.23002 0.0
H1616 H 0.4298 0.89575 0.19405 0.0
H1617 H 0.35177 0.85341 0.14218 0.0
H1618 H 0.30231 0.84013 0.13053 0.0
H1619 H 0.28722 0.92083 0.12584 0.0
H1620 H 0.33654 0.9346 0.13779 0.0
H1621 H 0.49548 0.95864 0.07892 0.0
H1622 H 0.47313 0.9267 0.10959 0.0
H1623 H 0.40344 0.97201 0.1136 0.0
H1624 H 0.42479 1.00285 0.08319 0.0
H1625 H 0.38215 0.9257 0.11252 0.0
H1626 H 0.45947 0.96838 0.16614 0.0
H1627 H 0.50878 0.98205 0.17818 0.0
H1628 H 0.52525 0.90156 0.1798 0.0
H1629 H 0.47612 0.8874 0.16727 0.0
C1630 C 0.33375 0.8706 0.2218 0.0
C1631 C 0.34279 0.84737 0.23214 0.0
C1632 C 0.34908 0.88565 0.20296 0.0
C1633 C 0.37424 0.87828 0.19323 0.0
C1634 C 0.38355 0.85528 0.20387 0.0
C1635 C 0.36817 0.84015 0.22274 0.0
C1636 C 0.39042 0.89438 0.17215 0.0
C1637 C 0.41926 0.9019 0.17607 0.0
C1638 C 0.37743 0.90324 0.1484 0.0
C1639 C 0.3478 0.89503 0.14111 0.0
C1640 C 0.33787 0.86832 0.13883 0.0
C1641 C 0.30986 0.86071 0.13215 0.0
C1642 C 0.29162 0.87962 0.12751 0.0
C1643 C 0.30137 0.9062 0.12947 0.0
C1644 C 0.32935 0.91392 0.13617 0.0
C1645 C 0.4753 0.96171 0.08612 0.0
C1646 C 0.46246 0.98397 0.0781 0.0
C1647 C 0.46245 0.94339 0.10411 0.0
C1648 C 0.4362 0.94652 0.11481 0.0
C1649 C 0.42341 0.96842 0.10621 0.0
C1650 C 0.43607 0.98649 0.08855 0.0
C1651 C 0.42148 0.92766 0.13461 0.0
C1652 C 0.3928 0.91955 0.13044 0.0
C1653 C 0.43465 0.9184 0.1581 0.0
C1654 C 0.46419 0.92684 0.16545 0.0
C1655 C 0.47366 0.9536 0.16881 0.0
C1656 C 0.50157 0.96144 0.17574 0.0
C1657 C 0.52014 0.94269 0.17967 0.0
C1658 C 0.51085 0.91606 0.17667 0.0
C1659 C 0.48298 0.90812 0.16964 0.0
H1660 H 0.54169 0.94881 0.18516 0.0
H1661 H 0.26994 0.87368 0.12235 0.0
H1662 H 0.69782 0.24492 0.26456 0.0
H1663 H 0.66638 0.21571 0.23448 0.0
H1664 H 0.72781 0.2198 0.17451 0.0
H1665 H 0.75894 0.24908 0.20409 0.0
H1666 H 0.6808 0.22504 0.15076 0.0
H1667 H 0.7114 0.16361 0.21236 0.0
H1668 H 0.72023 0.14371 0.25586 0.0
H1669 H 0.6331 0.13672 0.26963 0.0
H1670 H 0.62379 0.15694 0.22633 0.0
H1671 H 0.63181 0.11847 0.06378 0.0
H1672 H 0.65798 0.14512 0.09915 0.0
H1673 H 0.58396 0.14758 0.14331 0.0
H1674 H 0.55714 0.12067 0.10751 0.0
H1675 H 0.63348 0.13974 0.17625 0.0
H1676 H 0.6049 0.19928 0.10997 0.0
H1677 H 0.59952 0.21459 0.06383 0.0
H1678 H 0.68785 0.22138 0.05708 0.0
H1679 H 0.69374 0.20573 0.10305 0.0
C1680 C 0.70473 0.23948 0.24504 0.0
C1681 C 0.73111 0.24954 0.23696 0.0
C1682 C 0.6867 0.2226 0.2278 0.0
C1683 C 0.69454 0.21521 0.20202 0.0
C1684 C 0.72096 0.2251 0.19411 0.0
C1685 C 0.73891 0.24189 0.21124 0.0
C1686 C 0.6752 0.19802 0.1828 0.0
C1687 C 0.6707 0.20632 0.15646 0.0
C1688 C 0.66138 0.17361 0.18991 0.0
C1689 C 0.66694 0.16215 0.21628 0.0
C1690 C 0.69416 0.15814 0.22481 0.0
C1691 C 0.69924 0.14673 0.2494 0.0
C1692 C 0.67725 0.13902 0.26554 0.0
C1693 C 0.65012 0.14274 0.25713 0.0
C1694 C 0.64493 0.15419 0.23257 0.0
C1695 C 0.62085 0.12446 0.08097 0.0
C1696 C 0.59207 0.1174 0.08244 0.0
C1697 C 0.63601 0.13984 0.10129 0.0
C1698 C 0.62305 0.14875 0.1239 0.0
C1699 C 0.59452 0.14106 0.12607 0.0
C1700 C 0.57916 0.12569 0.10551 0.0
C1701 C 0.6394 0.16682 0.14444 0.0
C1702 C 0.64336 0.15865 0.17086 0.0
C1703 C 0.65321 0.19114 0.13732 0.0
C1704 C 0.64974 0.20117 0.10991 0.0
C1705 C 0.62317 0.20392 0.0986 0.0
C1706 C 0.62003 0.21266 0.07248 0.0
C1707 C 0.64332 0.21891 0.05751 0.0
C1708 C 0.66982 0.21653 0.06869 0.0
C1709 C 0.67308 0.20775 0.09479 0.0
H1710 H 0.64084 0.22563 0.03728 0.0
H1711 H 0.68122 0.13009 0.28451 0.0
H1712 H 0.77715 0.75173 0.87144 0.0
H1713 H 0.75396 0.72166 0.90273 0.0
H1714 H 0.68891 0.69907 0.84254 0.0
H1715 H 0.71192 0.72911 0.81125 0.0
H1716 H 0.70568 0.71909 0.92616 0.0
H1717 H 0.66086 0.63578 0.85086 0.0
H1718 H 0.67301 0.61518 0.80831 0.0
H1719 H 0.7592 0.63999 0.82635 0.0
H1720 H 0.74762 0.66044 0.86914 0.0
H1721 H 0.59497 0.64113 0.98274 0.0
H1722 H 0.62671 0.66834 0.95635 0.0
H1723 H 0.67794 0.60508 0.94856 0.0
H1724 H 0.64511 0.5771 0.97463 0.0
H1725 H 0.67412 0.62627 0.90154 0.0
H1726 H 0.6964 0.66482 0.98884 0.0
H1727 H 0.68661 0.68411 0.03275 0.0
H1728 H 0.6519 0.74749 0.99382 0.0
H1729 H 0.66071 0.72824 0.94959 0.0
C1730 C 0.75801 0.74027 0.86466 0.0
C1731 C 0.74673 0.74309 0.83842 0.0
C1732 C 0.74456 0.72302 0.8828 0.0
C1733 C 0.71948 0.70754 0.87536 0.0
C1734 C 0.70831 0.71022 0.84909 0.0
C1735 C 0.72159 0.72764 0.83105 0.0
C1736 C 0.70482 0.68915 0.89505 0.0
C1737 C 0.69881 0.69882 0.92063 0.0
C1738 C 0.69613 0.66229 0.88866 0.0
C1739 C 0.70331 0.64986 0.86308 0.0
C1740 C 0.68241 0.63676 0.84579 0.0
C1741 C 0.6892 0.62512 0.82162 0.0
C1742 C 0.71685 0.62635 0.81459 0.0
C1743 C 0.73778 0.63914 0.83176 0.0
C1744 C 0.73111 0.65079 0.85596 0.0
C1745 C 0.61336 0.63302 0.97609 0.0
C1746 C 0.61743 0.60679 0.98152 0.0
C1747 C 0.63172 0.64882 0.96078 0.0
C1748 C 0.65539 0.63935 0.95029 0.0
C1749 C 0.66008 0.61329 0.95626 0.0
C1750 C 0.64146 0.59729 0.97168 0.0
C1751 C 0.67413 0.65643 0.93238 0.0
C1752 C 0.68096 0.64653 0.90713 0.0
C1753 C 0.68387 0.68304 0.93921 0.0
C1754 C 0.67907 0.69496 0.96584 0.0
C1755 C 0.68655 0.6828 0.98961 0.0
C1756 C 0.68117 0.69373 1.01457 0.0
C1757 C 0.6687 0.71702 1.01609 0.0
C1758 C 0.66157 0.72945 0.99262 0.0
C1759 C 0.66673 0.71852 0.96758 0.0
H1760 H 0.66456 0.72542 0.03545 0.0
H1761 H 0.72205 0.61734 0.79587 0.0
H1762 H 0.36701 0.74728 0.80739 0.0
H1763 H 0.39161 0.71896 0.83658 0.0
H1764 H 0.33167 0.72619 0.89669 0.0
H1765 H 0.30792 0.75576 0.86794 0.0
H1766 H 0.37376 0.7209 0.92494 0.0
H1767 H 0.34143 0.66549 0.8493 0.0
H1768 H 0.33467 0.65123 0.80164 0.0
H1769 H 0.42283 0.65369 0.79509 0.0
H1770 H 0.43012 0.66825 0.84266 0.0
H1771 H 0.42697 0.61216 0.99998 0.0
H1772 H 0.39823 0.64053 0.97369 0.0
H1773 H 0.45977 0.64771 0.91419 0.0
H1774 H 0.48788 0.62004 0.93969 0.0
H1775 H 0.41387 0.64398 0.88687 0.0
H1776 H 0.44463 0.69938 0.96444 0.0
H1777 H 0.44915 0.71148 1.01274 0.0
H1778 H 0.36048 0.70581 1.01626 0.0
H1779 H 0.35544 0.69335 0.96803 0.0
C1780 C 0.35879 0.74293 0.82677 0.0
C1781 C 0.33481 0.75435 0.83453 0.0
C1782 C 0.37299 0.72609 0.84377 0.0
C1783 C 0.36382 0.71884 0.86951 0.0
C1784 C 0.33998 0.73058 0.87738 0.0
C1785 C 0.32602 0.74777 0.86052 0.0
C1786 C 0.37886 0.69964 0.88794 0.0
C1787 C 0.38205 0.70394 0.91625 0.0
C1788 C 0.39058 0.67694 0.87801 0.0
C1789 C 0.38632 0.66822 0.84945 0.0
C1790 C 0.35937 0.66314 0.83764 0.0
C1791 C 0.35545 0.65498 0.81066 0.0
C1792 C 0.37831 0.65163 0.79533 0.0
C1793 C 0.40515 0.65634 0.80698 0.0
C1794 C 0.40919 0.66453 0.83395 0.0
C1795 C 0.43453 0.61971 0.98134 0.0
C1796 C 0.46061 0.6132 0.97282 0.0
C1797 C 0.41791 0.63639 0.96606 0.0
C1798 C 0.42624 0.64728 0.94124 0.0
C1799 C 0.45194 0.64027 0.93278 0.0
C1800 C 0.46847 0.6241 0.94797 0.0
C1801 C 0.40903 0.66543 0.92368 0.0
C1802 C 0.4055 0.66092 0.89549 0.0
C1803 C 0.39667 0.68762 0.93381 0.0
C1804 C 0.39966 0.69515 0.96271 0.0
C1805 C 0.4261 0.70053 0.97556 0.0
C1806 C 0.42876 0.70748 1.00291 0.0
C1807 C 0.40512 0.70933 1.01757 0.0
C1808 C 0.37877 0.70431 1.00489 0.0
C1809 C 0.37601 0.69732 0.97755 0.0
H1810 H 0.40722 0.71472 0.03875 0.0
H1811 H 0.37523 0.64531 0.77444 0.0
H1812 H 0.29833 0.35256 0.87345 0.0
H1813 H 0.32796 0.38529 0.90087 0.0
H1814 H 0.37211 0.40902 0.83102 0.0
H1815 H 0.34253 0.37627 0.80335 0.0
H1816 H 0.40652 0.3975 0.87314 0.0
H1817 H 0.33068 0.4492 0.8592 0.0
H1818 H 0.28191 0.45871 0.85914 0.0
H1819 H 0.28164 0.44942 0.94436 0.0
H1820 H 0.33032 0.43947 0.94488 0.0
H1821 H 0.48225 0.5152 0.92642 0.0
H1822 H 0.45081 0.48254 0.90096 0.0
H1823 H 0.41729 0.45404 0.97441 0.0
H1824 H 0.44957 0.48625 1.0004 0.0
H1825 H 0.37683 0.46785 0.93202 0.0
H1826 H 0.44313 0.402 0.94282 0.0
H1827 H 0.48747 0.38249 0.94217 0.0
H1828 H 0.50384 0.41627 0.86603 0.0
H1829 H 0.45892 0.435 0.86576 0.0
C1830 C 0.31414 0.36492 0.86382 0.0
C1831 C 0.31819 0.36169 0.83622 0.0
C1832 C 0.33094 0.38375 0.87952 0.0
C1833 C 0.35214 0.39968 0.86797 0.0
C1834 C 0.3558 0.39695 0.84031 0.0
C1835 C 0.33886 0.37826 0.82452 0.0
C1836 C 0.37196 0.41754 0.88512 0.0
C1837 C 0.40001 0.41321 0.8856 0.0
C1838 C 0.36335 0.4373 0.90227 0.0
C1839 C 0.33409 0.44333 0.90203 0.0
C1840 C 0.32016 0.44894 0.87789 0.0
C1841 C 0.29254 0.45447 0.87779 0.0
C1842 C 0.27866 0.4546 0.90172 0.0
C1843 C 0.29241 0.44928 0.92583 0.0
C1844 C 0.32002 0.44372 0.92604 0.0
C1845 C 0.46855 0.50177 0.93732 0.0
C1846 C 0.46858 0.50333 0.96553 0.0
C1847 C 0.4506 0.48307 0.92268 0.0
C1848 C 0.43183 0.46585 0.93581 0.0
C1849 C 0.43176 0.46713 0.96394 0.0
C1850 C 0.45022 0.48552 0.97873 0.0
C1851 C 0.41127 0.44781 0.91974 0.0
C1852 C 0.38317 0.45219 0.91942 0.0
C1853 C 0.41961 0.42789 0.90286 0.0
C1854 C 0.44803 0.42012 0.90446 0.0
C1855 C 0.45647 0.40562 0.92619 0.0
C1856 C 0.48153 0.39448 0.92584 0.0
C1857 C 0.4985 0.39818 0.90409 0.0
C1858 C 0.49063 0.41335 0.88281 0.0
C1859 C 0.46532 0.4241 0.88282 0.0
H1860 H 0.51752 0.38899 0.90355 0.0
H1861 H 0.25728 0.45888 0.9016 0.0
H1862 H 0.60714 0.33974 0.81224 0.0
H1863 H 0.57241 0.35401 0.84217 0.0
H1864 H 0.63731 0.38019 0.90156 0.0
H1865 H 0.6718 0.36739 0.87189 0.0
H1866 H 0.58517 0.36092 0.9238 0.0
H1867 H 0.62564 0.42459 0.85632 0.0
H1868 H 0.63385 0.43364 0.80882 0.0
H1869 H 0.5473 0.41321 0.78821 0.0
H1870 H 0.53877 0.40374 0.83555 0.0
H1871 H 0.59382 0.48158 0.99303 0.0
H1872 H 0.59693 0.44098 0.96708 0.0
H1873 H 0.52839 0.45852 0.91462 0.0
H1874 H 0.5275 0.5003 0.9389 0.0
H1875 H 0.56396 0.44519 0.88586 0.0
H1876 H 0.52719 0.40885 0.9633 0.0
H1877 H 0.52102 0.39938 1.01077 0.0
H1878 H 0.59839 0.36568 1.01482 0.0
H1879 H 0.60538 0.37536 0.96747 0.0
C1880 C 0.61391 0.34818 0.83184 0.0
C1881 C 0.64231 0.35271 0.83948 0.0
C1882 C 0.59403 0.35587 0.84904 0.0
C1883 C 0.60241 0.36802 0.87403 0.0
C1884 C 0.63043 0.37045 0.88252 0.0
C1885 C 0.6502 0.36315 0.86536 0.0
C1886 C 0.5841 0.38395 0.88862 0.0
C1887 C 0.5799 0.37925 0.91573 0.0
C1888 C 0.57666 0.40733 0.87755 0.0
C1889 C 0.58157 0.41358 0.84932 0.0
C1890 C 0.6084 0.42213 0.84161 0.0
C1891 C 0.61312 0.42724 0.81474 0.0
C1892 C 0.5911 0.42404 0.79551 0.0
C1893 C 0.56432 0.41572 0.80312 0.0
C1894 C 0.55952 0.4105 0.82996 0.0
C1895 C 0.57951 0.47661 0.97594 0.0
C1896 C 0.56057 0.49391 0.96766 0.0
C1897 C 0.58094 0.45326 0.96136 0.0
C1898 C 0.56252 0.44635 0.93913 0.0
C1899 C 0.54286 0.46335 0.93162 0.0
C1900 C 0.5423 0.48717 0.94546 0.0
C1901 C 0.56587 0.42301 0.92198 0.0
C1902 C 0.56756 0.42653 0.89427 0.0
C1903 C 0.57065 0.39849 0.93274 0.0
C1904 C 0.56667 0.39268 0.9615 0.0
C1905 C 0.54291 0.39938 0.97419 0.0
C1906 C 0.53932 0.39407 1.00118 0.0
C1907 C 0.55929 0.38193 1.01581 0.0
C1908 C 0.58292 0.37509 1.00347 0.0
C1909 C 0.58667 0.38046 0.97649 0.0
H1910 H 0.55644 0.37785 0.03671 0.0
H1911 H 0.59479 0.42798 0.77472 0.0
H1912 H 0.77687 0.38492 0.22218 0.0
H1913 H 0.75142 0.41372 0.19421 0.0
H1914 H 0.67478 0.36764 0.20897 0.0
H1915 H 0.70019 0.33968 0.23817 0.0
H1916 H 0.66829 0.37833 0.16046 0.0
H1917 H 0.70357 0.43738 0.23321 0.0
H1918 H 0.73827 0.46336 0.26335 0.0
H1919 H 0.77242 0.50303 0.19588 0.0
H1920 H 0.73923 0.47617 0.16521 0.0
H1921 H 0.57284 0.46347 0.10735 0.0
H1922 H 0.60247 0.4378 0.13396 0.0
H1923 H 0.67442 0.48661 0.11114 0.0
H1924 H 0.64418 0.51322 0.08443 0.0
H1925 H 0.68568 0.475 0.1611 0.0
H1926 H 0.65387 0.41658 0.08851 0.0
H1927 H 0.62081 0.39112 0.05643 0.0
H1928 H 0.58141 0.35158 0.12145 0.0
H1929 H 0.61398 0.37714 0.154 0.0
C1930 C 0.75456 0.38077 0.21968 0.0
C1931 C 0.74115 0.35936 0.23313 0.0
C1932 C 0.73962 0.39756 0.2032 0.0
C1933 C 0.71032 0.39361 0.19824 0.0
C1934 C 0.69706 0.37193 0.2115 0.0
C1935 C 0.71188 0.35565 0.22864 0.0
C1936 C 0.69355 0.41117 0.17936 0.0
C1937 C 0.67213 0.3995 0.16124 0.0
C1938 C 0.69821 0.43921 0.17841 0.0
C1939 C 0.71909 0.45445 0.19684 0.0
C1940 C 0.71887 0.45124 0.22474 0.0
C1941 C 0.73839 0.46607 0.24193 0.0
C1942 C 0.75782 0.48461 0.23153 0.0
C1943 C 0.75775 0.48834 0.20392 0.0
C1944 C 0.73869 0.47321 0.1866 0.0
C1945 C 0.59498 0.46897 0.10741 0.0
C1946 C 0.60531 0.49098 0.09271 0.0
C1947 C 0.61236 0.45374 0.12295 0.0
C1948 C 0.64162 0.45911 0.12506 0.0
C1949 C 0.65224 0.48115 0.11044 0.0
C1950 C 0.63467 0.49653 0.09463 0.0
C1951 C 0.66027 0.44209 0.14266 0.0
C1952 C 0.68194 0.45382 0.16044 0.0
C1953 C 0.65614 0.41407 0.14313 0.0
C1954 C 0.63621 0.39897 0.12371 0.0
C1955 C 0.63799 0.40263 0.09599 0.0
C1956 C 0.61936 0.38814 0.07771 0.0
C1957 C 0.599 0.36974 0.08689 0.0
C1958 C 0.59718 0.36585 0.11437 0.0
C1959 C 0.61573 0.38033 0.13275 0.0
H1960 H 0.58471 0.35841 0.07272 0.0
H1961 H 0.77277 0.49621 0.24488 0.0
H1962 H 0.73717 0.77626 0.18748 0.0
H1963 H 0.70426 0.74533 0.16126 0.0
H1964 H 0.68275 0.70507 0.23337 0.0
H1965 H 0.71495 0.73644 0.25981 0.0
H1966 H 0.7057 0.69578 0.15307 0.0
H1967 H 0.61617 0.67381 0.22636 0.0
H1968 H 0.5911 0.69675 0.26019 0.0
H1969 H 0.61593 0.77035 0.22516 0.0
H1970 H 0.64077 0.74786 0.19089 0.0
H1971 H 0.58767 0.58294 0.1402 0.0
H1972 H 0.61495 0.61806 0.16622 0.0
H1973 H 0.62714 0.66176 0.09442 0.0
H1974 H 0.59977 0.62649 0.06794 0.0
H1975 H 0.60818 0.66928 0.17441 0.0
H1976 H 0.69643 0.6924 0.10048 0.0
H1977 H 0.72064 0.6699 0.06563 0.0
H1978 H 0.69665 0.59579 0.09996 0.0
H1979 H 0.6733 0.61787 0.13564 0.0
C1980 C 0.72518 0.76101 0.19779 0.0
C1981 C 0.72863 0.75878 0.2257 0.0
C1982 C 0.70641 0.74332 0.18278 0.0
C1983 C 0.69089 0.72296 0.19534 0.0
C1984 C 0.69406 0.7209 0.22328 0.0
C1985 C 0.71258 0.73879 0.23836 0.0
C1986 C 0.67272 0.70298 0.17898 0.0
C1987 C 0.68417 0.69045 0.15738 0.0
C1988 C 0.64495 0.69529 0.18525 0.0
C1989 C 0.63073 0.70914 0.20628 0.0
C1990 C 0.61633 0.6949 0.2259 0.0
C1991 C 0.60211 0.70782 0.24513 0.0
C1992 C 0.60203 0.735 0.2449 0.0
C1993 C 0.61615 0.74932 0.22542 0.0
C1994 C 0.63039 0.73649 0.20614 0.0
C1995 C 0.5961 0.59998 0.12982 0.0
C1996 C 0.59177 0.60175 0.10189 0.0
C1997 C 0.61157 0.6201 0.14481 0.0
C1998 C 0.62329 0.6423 0.1322 0.0
C1999 C 0.61855 0.64454 0.10443 0.0
C2000 C 0.6029 0.62441 0.08936 0.0
C2001 C 0.64098 0.66277 0.14818 0.0
C2002 C 0.62962 0.67495 0.17 0.0
C2003 C 0.66873 0.67035 0.14196 0.0
C2004 C 0.68264 0.6568 0.12048 0.0
C2005 C 0.69634 0.67131 0.10062 0.0
C2006 C 0.70997 0.65863 0.08075 0.0
C2007 C 0.70991 0.63142 0.0804 0.0
C2008 C 0.69649 0.61685 0.10012 0.0
C2009 C 0.68309 0.62945 0.12021 0.0
H2010 H 0.7204 0.62165 0.06494 0.0
H2011 H 0.59095 0.74497 0.25977 0.0
H2012 H 0.46449 0.78603 0.22949 0.0
H2013 H 0.49058 0.76736 0.19428 0.0
H2014 H 0.4963 0.69819 0.2401 0.0
H2015 H 0.46856 0.71537 0.27411 0.0
H2016 H 0.53735 0.7342 0.18117 0.0
H2017 H 0.45331 0.65461 0.20847 0.0
H2018 H 0.40941 0.65093 0.23198 0.0
H2019 H 0.39351 0.72742 0.20678 0.0
H2020 H 0.4372 0.73146 0.18303 0.0
H2021 H 0.53526 0.60008 0.13218 0.0
H2022 H 0.53567 0.64178 0.15729 0.0
H2023 H 0.48041 0.66892 0.09662 0.0
H2024 H 0.48127 0.62777 0.07052 0.0
H2025 H 0.46317 0.66315 0.15417 0.0
H2026 H 0.52822 0.70066 0.09839 0.0
H2027 H 0.56984 0.70825 0.07233 0.0
H2028 H 0.62004 0.72433 0.14483 0.0
H2029 H 0.57904 0.71447 0.17176 0.0
C2030 C 0.47192 0.76711 0.23247 0.0
C2031 C 0.46292 0.75159 0.25393 0.0
C2032 C 0.48734 0.75673 0.2125 0.0
C2033 C 0.49449 0.7311 0.21431 0.0
C2034 C 0.49056 0.71792 0.23828 0.0
C2035 C 0.47455 0.72791 0.25785 0.0
C2036 C 0.4972 0.71534 0.18956 0.0
C2037 C 0.5214 0.71854 0.17512 0.0
C2038 C 0.47541 0.69613 0.1809 0.0
C2039 C 0.44854 0.69338 0.19415 0.0
C2040 C 0.44032 0.67055 0.20782 0.0
C2041 C 0.41554 0.66844 0.22126 0.0
C2042 C 0.39875 0.68898 0.22098 0.0
C2043 C 0.4066 0.71159 0.2071 0.0
C2044 C 0.43137 0.71381 0.19368 0.0
C2045 C 0.52361 0.61514 0.124 0.0
C2046 C 0.50804 0.61074 0.09961 0.0
C2047 C 0.52415 0.639 0.13815 0.0
C2048 C 0.50849 0.65847 0.12847 0.0
C2049 C 0.49309 0.65425 0.10401 0.0
C2050 C 0.49335 0.63072 0.08934 0.0
C2051 C 0.50416 0.68073 0.14646 0.0
C2052 C 0.47933 0.67882 0.15978 0.0
C2053 C 0.52511 0.7015 0.15318 0.0
C2054 C 0.55037 0.70607 0.13727 0.0
C2055 C 0.54818 0.70478 0.109 0.0
C2056 C 0.57174 0.70949 0.09403 0.0
C2057 C 0.59765 0.71631 0.10699 0.0
C2058 C 0.6 0.71848 0.13494 0.0
C2059 C 0.57661 0.71311 0.15008 0.0
H2060 H 0.61585 0.7202 0.09538 0.0
H2061 H 0.37963 0.68736 0.23146 0.0
H2062 H 0.28783 0.36326 0.20736 0.0
H2063 H 0.31132 0.39243 0.17542 0.0
H2064 H 0.38553 0.39957 0.22688 0.0
H2065 H 0.36241 0.37012 0.25846 0.0
H2066 H 0.33349 0.44079 0.17297 0.0
H2067 H 0.44377 0.40863 0.19209 0.0
H2068 H 0.46547 0.36929 0.20551 0.0
H2069 H 0.39274 0.32035 0.17614 0.0
H2070 H 0.37077 0.35934 0.16219 0.0
H2071 H 0.4337 0.53222 0.11171 0.0
H2072 H 0.40365 0.50441 0.13999 0.0
H2073 H 0.42442 0.43584 0.09667 0.0
H2074 H 0.45521 0.46369 0.0693 0.0
H2075 H 0.42658 0.42371 0.14414 0.0
H2076 H 0.35478 0.46178 0.09542 0.0
H2077 H 0.33014 0.4974 0.07684 0.0
H2078 H 0.32098 0.52827 0.15644 0.0
H2079 H 0.34577 0.49294 0.17549 0.0
C2080 C 0.30913 0.37107 0.21203 0.0
C2081 C 0.323 0.36391 0.23581 0.0
C2082 C 0.32267 0.38796 0.19359 0.0
C2083 C 0.35069 0.3983 0.19804 0.0
C2084 C 0.36424 0.39173 0.22219 0.0
C2085 C 0.35078 0.37484 0.24055 0.0
C2086 C 0.36587 0.41536 0.17748 0.0
C2087 C 0.35389 0.43699 0.16682 0.0
C2088 C 0.39233 0.41054 0.16837 0.0
C2089 C 0.40553 0.38695 0.17636 0.0
C2090 C 0.43246 0.38947 0.1884 0.0
C2091 C 0.44479 0.36723 0.19611 0.0
C2092 C 0.43045 0.34235 0.19175 0.0
C2093 C 0.40378 0.33964 0.17958 0.0
C2094 C 0.39138 0.3618 0.17179 0.0
C2095 C 0.43096 0.5113 0.10745 0.0
C2096 C 0.44627 0.50047 0.08731 0.0
C2097 C 0.41377 0.49516 0.12393 0.0
C2098 C 0.41106 0.46749 0.12083 0.0
C2099 C 0.42573 0.45686 0.10003 0.0
C2100 C 0.44311 0.47295 0.08385 0.0
C2101 C 0.39454 0.44961 0.13993 0.0
C2102 C 0.40625 0.4277 0.15032 0.0
C2103 C 0.36754 0.45379 0.14818 0.0
C2104 C 0.3524 0.47489 0.13685 0.0
C2105 C 0.34766 0.47626 0.10895 0.0
C2106 C 0.33365 0.49639 0.09834 0.0
C2107 C 0.32417 0.51519 0.11544 0.0
C2108 C 0.32847 0.51377 0.14321 0.0
C2109 C 0.34243 0.49367 0.15393 0.0
H2110 H 0.31332 0.53074 0.10719 0.0
H2111 H 0.44003 0.32517 0.19774 0.0
H2112 H 0.81068 0.74362 0.70346 0.0
H2113 H 0.84042 0.71701 0.67772 0.0
H2114 H 0.90217 0.72625 0.74262 0.0
H2115 H 0.87229 0.75242 0.76839 0.0
H2116 H 0.88512 0.71672 0.65216 0.0
H2117 H 0.95225 0.68342 0.73923 0.0
H2118 H 0.9493 0.6753 0.78761 0.0
H2119 H 0.86115 0.65652 0.777 0.0
H2120 H 0.86361 0.66429 0.72855 0.0
H2121 H 0.99445 0.64866 0.58775 0.0
H2122 H 0.96596 0.6776 0.6124 0.0
H2123 H 0.93894 0.61416 0.66244 0.0
H2124 H 0.96723 0.5857 0.63832 0.0
H2125 H 0.93796 0.65061 0.69534 0.0
H2126 H 0.89244 0.65255 0.60613 0.0
H2127 H 0.88939 0.66047 0.55758 0.0
H2128 H 0.93001 0.73816 0.57188 0.0
H2129 H 0.93244 0.731 0.62063 0.0
C2130 C 0.83048 0.74003 0.71269 0.0
C2131 C 0.8379 0.75092 0.73904 0.0
C2132 C 0.84808 0.72444 0.69746 0.0
C2133 C 0.87462 0.718 0.70726 0.0
C2134 C 0.88214 0.72921 0.73353 0.0
C2135 C 0.86459 0.74487 0.7487 0.0
C2136 C 0.89381 0.70021 0.69039 0.0
C2137 C 0.89662 0.70249 0.66215 0.0
C2138 C 0.90966 0.68051 0.70153 0.0
C2139 C 0.90811 0.67469 0.73034 0.0
C2140 C 0.93228 0.67738 0.7472 0.0
C2141 C 0.93068 0.6729 0.77463 0.0
C2142 C 0.90504 0.66554 0.78537 0.0
C2143 C 0.88098 0.66233 0.76867 0.0
C2144 C 0.88246 0.66677 0.74123 0.0
C2145 C 0.98244 0.64048 0.60384 0.0
C2146 C 0.98417 0.61364 0.60996 0.0
C2147 C 0.96539 0.65748 0.61833 0.0
C2148 C 0.94866 0.64923 0.64029 0.0
C2149 C 0.95074 0.62252 0.6463 0.0
C2150 C 0.96743 0.60564 0.63183 0.0
C2151 C 0.92975 0.66744 0.65709 0.0
C2152 C 0.92676 0.66505 0.68536 0.0
C2153 C 0.9137 0.687 0.646 0.0
C2154 C 0.91292 0.69113 0.61686 0.0
C2155 C 0.90085 0.67125 0.59885 0.0
C2156 C 0.89916 0.67562 0.57134 0.0
C2157 C 0.90983 0.69965 0.56161 0.0
C2158 C 0.92187 0.71951 0.57942 0.0
C2159 C 0.92323 0.71538 0.607 0.0
H2160 H 0.90861 0.70292 0.54028 0.0
H2161 H 0.90382 0.66234 0.80663 0.0
H2162 H 0.38423 0.78018 0.60622 0.0
H2163 H 0.41201 0.79894 0.57097 0.0
H2164 H 0.36127 0.86295 0.56641 0.0
H2165 H 0.33167 0.84304 0.59992 0.0
H2166 H 0.39109 0.86197 0.52304 0.0
H2167 H 0.40822 0.86253 0.61927 0.0
H2168 H 0.41303 0.84146 0.6628 0.0
H2169 H 0.48008 0.80165 0.63398 0.0
H2170 H 0.4753 0.82222 0.59008 0.0
H2171 H 0.50548 0.9646 0.58277 0.0
H2172 H 0.46821 0.92943 0.58289 0.0
H2173 H 0.48829 0.90277 0.50411 0.0
H2174 H 0.52604 0.93843 0.50354 0.0
H2175 H 0.47708 0.87874 0.58112 0.0
H2176 H 0.41453 0.87021 0.47763 0.0
H2177 H 0.4006 0.89773 0.44081 0.0
H2178 H 0.41747 0.9664 0.49228 0.0
H2179 H 0.43024 0.93925 0.52977 0.0
C2180 C 0.37772 0.79731 0.59664 0.0
C2181 C 0.35664 0.81097 0.60706 0.0
C2182 C 0.39382 0.80812 0.57641 0.0
C2183 C 0.38963 0.83307 0.56725 0.0
C2184 C 0.36539 0.84402 0.57376 0.0
C2185 C 0.34873 0.83281 0.59335 0.0
C2186 C 0.4134 0.8506 0.55827 0.0
C2187 C 0.41025 0.86533 0.53526 0.0
C2188 C 0.43788 0.85566 0.57493 0.0
C2189 C 0.44118 0.8436 0.60136 0.0
C2190 C 0.42391 0.8492 0.62222 0.0
C2191 C 0.42661 0.83735 0.64692 0.0
C2192 C 0.4468 0.82017 0.65112 0.0
C2193 C 0.46439 0.81489 0.63065 0.0
C2194 C 0.46168 0.82661 0.60585 0.0
C2195 C 0.50216 0.95141 0.56534 0.0
C2196 C 0.51919 0.95419 0.54334 0.0
C2197 C 0.48068 0.93132 0.56542 0.0
C2198 C 0.47561 0.91345 0.54357 0.0
C2199 C 0.49188 0.91644 0.52112 0.0
C2200 C 0.51357 0.9367 0.52099 0.0
C2201 C 0.45479 0.89062 0.54601 0.0
C2202 C 0.45857 0.87479 0.56801 0.0
C2203 C 0.43043 0.88575 0.52912 0.0
C2204 C 0.42415 0.90264 0.50641 0.0
C2205 C 0.41539 0.8912 0.48111 0.0
C2206 C 0.40752 0.90674 0.46013 0.0
C2207 C 0.40842 0.93383 0.46411 0.0
C2208 C 0.417 0.94542 0.48916 0.0
C2209 C 0.42463 0.92994 0.51029 0.0
H2210 H 0.4023 0.94582 0.44785 0.0
H2211 H 0.44886 0.81099 0.67026 0.0
H2212 H 0.25126 0.35196 0.71225 0.0
H2213 H 0.22447 0.38033 0.68533 0.0
H2214 H 0.16974 0.38776 0.75011 0.0
H2215 H 0.19645 0.35896 0.77719 0.0
H2216 H 0.13933 0.38259 0.70445 0.0
H2217 H 0.22133 0.43863 0.73228 0.0
H2218 H 0.27161 0.4518 0.73796 0.0
H2219 H 0.27872 0.44759 0.65253 0.0
H2220 H 0.22851 0.43405 0.64635 0.0
H2221 H 0.07266 0.4899 0.65456 0.0
H2222 H 0.10059 0.4619 0.68048 0.0
H2223 H 0.1531 0.45484 0.61387 0.0
H2224 H 0.12503 0.48328 0.58756 0.0
H2225 H 0.18482 0.45923 0.65944 0.0
H2226 H 0.10197 0.40638 0.63139 0.0
H2227 H 0.05182 0.39279 0.62565 0.0
H2228 H 0.04614 0.38899 0.71105 0.0
H2229 H 0.09597 0.40386 0.71743 0.0
C2230 C 0.23361 0.35962 0.72101 0.0
C2231 C 0.22643 0.35295 0.74729 0.0
C2232 C 0.21821 0.37615 0.70544 0.0
C2233 C 0.19493 0.38692 0.71542 0.0
C2234 C 0.18749 0.38006 0.74157 0.0
C2235 C 0.20298 0.36352 0.75724 0.0
C2236 C 0.17839 0.40494 0.69858 0.0
C2237 C 0.14934 0.39958 0.69503 0.0
C2238 C 0.19105 0.42689 0.68523 0.0
C2239 C 0.22121 0.43507 0.68887 0.0
C2240 C 0.23365 0.44032 0.71471 0.0
C2241 C 0.26213 0.44789 0.71802 0.0
C2242 C 0.27836 0.45046 0.69562 0.0
C2243 C 0.26613 0.44554 0.66986 0.0
C2244 C 0.23766 0.43795 0.66644 0.0
C2245 C 0.09019 0.48262 0.64519 0.0
C2246 C 0.09625 0.48921 0.61858 0.0
C2247 C 0.10622 0.46625 0.66021 0.0
C2248 C 0.12906 0.45551 0.64937 0.0
C2249 C 0.13568 0.46254 0.62303 0.0
C2250 C 0.11949 0.47893 0.60785 0.0
C2251 C 0.14567 0.43706 0.66552 0.0
C2252 C 0.17474 0.44229 0.6689 0.0
C2253 C 0.13298 0.41496 0.67869 0.0
C2254 C 0.10277 0.40661 0.67491 0.0
C2255 C 0.08998 0.40313 0.649 0.0
C2256 C 0.06156 0.39522 0.64562 0.0
C2257 C 0.04576 0.39021 0.66798 0.0
C2258 C 0.05834 0.39315 0.69376 0.0
C2259 C 0.08666 0.40142 0.69727 0.0
H2260 H 0.02382 0.38388 0.66535 0.0
H2261 H 0.30041 0.45632 0.69823 0.0
H2262 H 0.72119 0.24251 0.73914 0.0
H2263 H 0.70086 0.20752 0.70825 0.0
H2264 H 0.78247 0.194 0.68365 0.0
H2265 H 0.80312 0.22847 0.71564 0.0
H2266 H 0.69678 0.19911 0.658 0.0
H2267 H 0.78429 0.13092 0.66361 0.0
H2268 H 0.82166 0.12008 0.69523 0.0
H2269 H 0.77564 0.14359 0.76173 0.0
H2270 H 0.73789 0.15427 0.73052 0.0
H2271 H 0.66379 0.09943 0.55851 0.0
H2272 H 0.69221 0.13282 0.5863 0.0
H2273 H 0.67722 0.08706 0.65628 0.0
H2274 H 0.64856 0.0537 0.62868 0.0
H2275 H 0.72993 0.11089 0.65865 0.0
H2276 H 0.63828 0.13548 0.64581 0.0
H2277 H 0.59619 0.14247 0.61864 0.0
H2278 H 0.64278 0.20156 0.57511 0.0
H2279 H 0.68509 0.19506 0.60224 0.0
C2280 C 0.73492 0.23213 0.7272 0.0
C2281 C 0.76388 0.23827 0.73007 0.0
C2282 C 0.72318 0.2121 0.70937 0.0
C2283 C 0.73998 0.19772 0.69365 0.0
C2284 C 0.76894 0.20429 0.69591 0.0
C2285 C 0.78078 0.22411 0.71415 0.0
C2286 C 0.72698 0.17567 0.67544 0.0
C2287 C 0.70427 0.17993 0.65813 0.0
C2288 C 0.73604 0.15026 0.67576 0.0
C2289 C 0.75844 0.14363 0.69472 0.0
C2290 C 0.78213 0.13368 0.68499 0.0
C2291 C 0.80337 0.12759 0.70283 0.0
C2292 C 0.80106 0.13123 0.73047 0.0
C2293 C 0.77745 0.14087 0.74032 0.0
C2294 C 0.75614 0.14697 0.72257 0.0
C2295 C 0.66708 0.09611 0.57968 0.0
C2296 C 0.65366 0.07391 0.59135 0.0
C2297 C 0.68326 0.11533 0.59561 0.0
C2298 C 0.68661 0.11265 0.6235 0.0
C2299 C 0.67492 0.08963 0.63486 0.0
C2300 C 0.6585 0.07055 0.61901 0.0
C2301 C 0.70029 0.13461 0.64113 0.0
C2302 C 0.72283 0.13023 0.65842 0.0
C2303 C 0.69052 0.15965 0.64147 0.0
C2304 C 0.66495 0.16455 0.62582 0.0
C2305 C 0.63955 0.14994 0.6304 0.0
C2306 C 0.61563 0.15383 0.61504 0.0
C2307 C 0.61681 0.17235 0.59504 0.0
C2308 C 0.64189 0.18719 0.59057 0.0
C2309 C 0.66585 0.18347 0.60601 0.0
H2310 H 0.59829 0.17524 0.58307 0.0
H2311 H 0.81755 0.12652 0.74425 0.0
H2312 H 0.81089 0.37583 0.35476 0.0
H2313 H 0.84239 0.40418 0.38528 0.0
H2314 H 0.91252 0.37787 0.34622 0.0
H2315 H 0.88112 0.34912 0.31598 0.0
H2316 H 0.92408 0.37953 0.39707 0.0
H2317 H 0.88926 0.43994 0.33766 0.0
H2318 H 0.85459 0.46259 0.31242 0.0
H2319 H 0.82437 0.4908 0.38623 0.0
H2320 H 0.85844 0.46776 0.41199 0.0
H2321 H 0.02671 0.48047 0.44604 0.0
H2322 H 0.99222 0.45395 0.41711 0.0
H2323 H 0.92882 0.46844 0.47179 0.0
H2324 H 0.96365 0.495 0.50136 0.0
H2325 H 0.91309 0.47337 0.41452 0.0
H2326 H 0.95155 0.41165 0.47287 0.0
H2327 H 0.98999 0.39119 0.49491 0.0
H2328 H 1.01757 0.36828 0.41801 0.0
H2329 H 0.97968 0.38915 0.39546 0.0
C2330 C 0.83301 0.37614 0.35249 0.0
C2331 C 0.84328 0.36012 0.33262 0.0
C2332 C 0.85112 0.39255 0.37 0.0
C2333 C 0.88011 0.39365 0.36812 0.0
C2334 C 0.89037 0.37759 0.34832 0.0
C2335 C 0.87228 0.36114 0.33085 0.0
C2336 C 0.89972 0.41099 0.38703 0.0
C2337 C 0.92168 0.4001 0.40055 0.0
C2338 C 0.89681 0.43794 0.39216 0.0
C2339 C 0.87613 0.45171 0.37679 0.0
C2340 C 0.875 0.45069 0.34855 0.0
C2341 C 0.85548 0.46364 0.33413 0.0
C2342 C 0.83715 0.47795 0.34772 0.0
C2343 C 0.83846 0.47954 0.37575 0.0
C2344 C 0.85786 0.46651 0.39027 0.0
C2345 C 1.00544 0.47817 0.45205 0.0
C2346 C 0.99812 0.48993 0.47625 0.0
C2347 C 0.98567 0.46286 0.43538 0.0
C2348 C 0.95779 0.45898 0.44215 0.0
C2349 C 0.95016 0.47107 0.46604 0.0
C2350 C 0.97014 0.48613 0.48305 0.0
C2351 C 0.93709 0.44177 0.42444 0.0
C2352 C 0.91513 0.45272 0.4111 0.0
C2353 C 0.9403 0.41504 0.41898 0.0
C2354 C 0.96288 0.40214 0.43248 0.0
C2355 C 0.96594 0.40243 0.46065 0.0
C2356 C 0.98765 0.39078 0.47322 0.0
C2357 C 1.00629 0.37855 0.45785 0.0
C2358 C 1.0032 0.37788 0.42987 0.0
C2359 C 0.9816 0.3896 0.41718 0.0
H2360 H 0.02308 0.36954 0.46762 0.0
H2361 H 0.82198 0.48787 0.33651 0.0
H2362 H 0.71755 0.86474 0.27373 0.0
H2363 H 0.68896 0.89324 0.29797 0.0
H2364 H 0.71952 0.86521 0.37324 0.0
H2365 H 0.74721 0.83624 0.34933 0.0
H2366 H 0.66794 0.86837 0.37635 0.0
H2367 H 0.74423 0.92434 0.34584 0.0
H2368 H 0.77594 0.94781 0.31532 0.0
H2369 H 0.70798 0.98348 0.27894 0.0
H2370 H 0.67564 0.95944 0.30853 0.0
H2371 H 0.66054 1.00813 0.43858 0.0
H2372 H 0.68164 0.97746 0.40959 0.0
H2373 H 0.60301 0.92974 0.39917 0.0
H2374 H 0.58237 0.95979 0.42972 0.0
H2375 H 0.67494 0.96368 0.36096 0.0
H2376 H 0.61404 0.86526 0.38713 0.0
H2377 H 0.58839 0.84623 0.42475 0.0
H2378 H 0.63656 0.90007 0.48012 0.0
H2379 H 0.6633 0.91864 0.44311 0.0
C2380 C 0.71795 0.86449 0.29544 0.0
C2381 C 0.73461 0.84816 0.30959 0.0
C2382 C 0.70172 0.8809 0.30927 0.0
C2383 C 0.70224 0.88152 0.33746 0.0
C2384 C 0.71861 0.86498 0.3515 0.0
C2385 C 0.73454 0.84844 0.33775 0.0
C2386 C 0.68618 0.89954 0.35266 0.0
C2387 C 0.6694 0.88921 0.37289 0.0
C2388 C 0.68829 0.9268 0.34838 0.0
C2389 C 0.7074 0.93971 0.32917 0.0
C2390 C 0.73592 0.93674 0.33097 0.0
C2391 C 0.75404 0.95025 0.31389 0.0
C2392 C 0.74396 0.96707 0.29516 0.0
C2393 C 0.71573 0.97031 0.29335 0.0
C2394 C 0.69747 0.95665 0.31018 0.0
C2395 C 0.64786 0.99101 0.43015 0.0
C2396 C 0.61997 0.98605 0.43638 0.0
C2397 C 0.65985 0.97357 0.4135 0.0
C2398 C 0.644 0.95115 0.40231 0.0
C2399 C 0.61583 0.94657 0.40801 0.0
C2400 C 0.60404 0.96367 0.42535 0.0
C2401 C 0.65733 0.93262 0.38501 0.0
C2402 C 0.6733 0.94279 0.36422 0.0
C2403 C 0.65548 0.90543 0.38954 0.0
C2404 C 0.64043 0.89357 0.41223 0.0
C2405 C 0.61937 0.87283 0.40738 0.0
C2406 C 0.60471 0.86206 0.42863 0.0
C2407 C 0.61094 0.87185 0.45484 0.0
C2408 C 0.63195 0.89232 0.45988 0.0
C2409 C 0.6469 0.90295 0.43876 0.0
H2410 H 0.59945 0.86361 0.47125 0.0
H2411 H 0.75803 0.97756 0.28201 0.0
H2412 H 0.27239 0.73061 0.35868 0.0
H2413 H 0.24357 0.70457 0.3893 0.0
H2414 H 0.1843 0.76144 0.38704 0.0
H2415 H 0.21344 0.78784 0.35679 0.0
H2416 H 0.18451 0.74521 0.43562 0.0
H2417 H 0.17469 0.697 0.35262 0.0
H2418 H 0.18966 0.67478 0.31214 0.0
H2419 H 0.22978 0.6212 0.36128 0.0
H2420 H 0.2154 0.64337 0.40209 0.0
H2421 H 0.07809 0.65365 0.49513 0.0
H2422 H 0.10533 0.68513 0.46743 0.0
H2423 H 0.17198 0.63592 0.46872 0.0
H2424 H 0.14536 0.60508 0.49616 0.0
H2425 H 0.1652 0.64939 0.41931 0.0
H2426 H 0.174 0.69973 0.50287 0.0
H2427 H 0.15693 0.72252 0.54201 0.0
H2428 H 0.11509 0.77222 0.48968 0.0
H2429 H 0.13164 0.74949 0.4502 0.0
C2430 C 0.25329 0.7378 0.36464 0.0
C2431 C 0.24575 0.76177 0.35475 0.0
C2432 C 0.23642 0.72256 0.38227 0.0
C2433 C 0.21085 0.73024 0.39078 0.0
C2434 C 0.20356 0.75445 0.38128 0.0
C2435 C 0.22047 0.76974 0.36368 0.0
C2436 C 0.19192 0.71311 0.40912 0.0
C2437 C 0.18014 0.72431 0.43164 0.0
C2438 C 0.18562 0.68551 0.40488 0.0
C2439 C 0.1942 0.67201 0.38043 0.0
C2440 C 0.18686 0.68058 0.3548 0.0
C2441 C 0.19523 0.66799 0.3318 0.0
C2442 C 0.21072 0.64663 0.33414 0.0
C2443 C 0.21781 0.63778 0.3595 0.0
C2444 C 0.20955 0.65034 0.38258 0.0
C2445 C 0.09887 0.64988 0.49029 0.0
C2446 C 0.10918 0.62644 0.49861 0.0
C2447 C 0.1146 0.66797 0.47401 0.0
C2448 C 0.14127 0.6634 0.46526 0.0
C2449 C 0.15169 0.64044 0.47443 0.0
C2450 C 0.13623 0.62266 0.49061 0.0
C2451 C 0.1582 0.68137 0.4461 0.0
C2452 C 0.16958 0.67029 0.42331 0.0
C2453 C 0.16375 0.70907 0.44992 0.0
C2454 C 0.15379 0.72271 0.47359 0.0
C2455 C 0.16097 0.71537 0.49971 0.0
C2456 C 0.15143 0.72831 0.52195 0.0
C2457 C 0.13487 0.74875 0.51833 0.0
C2458 C 0.12788 0.75635 0.49245 0.0
C2459 C 0.13734 0.74346 0.47014 0.0
H2460 H 0.12751 0.75875 0.53557 0.0
H2461 H 0.21717 0.6369 0.31631 0.0
H2462 H 0.37685 0.2127 0.404 0.0
H2463 H 0.40002 0.18492 0.43432 0.0
H2464 H 0.42991 0.25247 0.48485 0.0
H2465 H 0.40831 0.28072 0.45337 0.0
H2466 H 0.47047 0.22801 0.47592 0.0
H2467 H 0.38386 0.2004 0.50718 0.0
H2468 H 0.33385 0.18598 0.50701 0.0
H2469 H 0.34679 0.11496 0.46414 0.0
H2470 H 0.39688 0.12897 0.46389 0.0
H2471 H 0.51514 0.09761 0.53275 0.0
H2472 H 0.48135 0.12992 0.53234 0.0
H2473 H 0.50623 0.15326 0.45391 0.0
H2474 H 0.54004 0.12135 0.45413 0.0
H2475 H 0.43642 0.13689 0.49718 0.0
H2476 H 0.51369 0.21789 0.4528 0.0
H2477 H 0.56369 0.23263 0.45767 0.0
H2478 H 0.56779 0.19971 0.53569 0.0
H2479 H 0.51773 0.18518 0.53153 0.0
C2480 C 0.38828 0.22169 0.42161 0.0
C2481 C 0.39122 0.249 0.42594 0.0
C2482 C 0.40109 0.20567 0.4393 0.0
C2483 C 0.4166 0.2165 0.46211 0.0
C2484 C 0.41807 0.24363 0.46741 0.0
C2485 C 0.40555 0.25975 0.44947 0.0
C2486 C 0.43436 0.19995 0.47779 0.0
C2487 C 0.46284 0.20828 0.48102 0.0
C2488 C 0.42444 0.17449 0.48557 0.0
C2489 C 0.39426 0.16575 0.48565 0.0
C2490 C 0.37608 0.1817 0.4977 0.0
C2491 C 0.34769 0.17359 0.49768 0.0
C2492 C 0.33716 0.14953 0.48563 0.0
C2493 C 0.355 0.13354 0.47357 0.0
C2494 C 0.38343 0.14152 0.47361 0.0
C2495 C 0.51332 0.10952 0.51533 0.0
C2496 C 0.53044 0.107 0.49349 0.0
C2497 C 0.49397 0.12792 0.51517 0.0
C2498 C 0.49162 0.14414 0.49328 0.0
C2499 C 0.50809 0.14115 0.4712 0.0
C2500 C 0.52734 0.12282 0.4713 0.0
C2501 C 0.47224 0.16453 0.49297 0.0
C2502 C 0.44365 0.15693 0.49283 0.0
C2503 C 0.48189 0.19093 0.48888 0.0
C2504 C 0.51191 0.20037 0.49179 0.0
C2505 C 0.52517 0.21401 0.47111 0.0
C2506 C 0.55356 0.22228 0.47372 0.0
C2507 C 0.56891 0.21709 0.49696 0.0
C2508 C 0.55589 0.20369 0.51768 0.0
C2509 C 0.52751 0.19542 0.51519 0.0
H2510 H 0.59089 0.22345 0.49891 0.0
H2511 H 0.31516 0.14332 0.48557 0.0
H2512 H 0.67066 0.80059 0.61665 0.0
H2513 H 0.66605 0.82897 0.5794 0.0
H2514 H 0.75378 0.83151 0.5676 0.0
H2515 H 0.75852 0.80178 0.60451 0.0
H2516 H 0.73976 0.87806 0.58306 0.0
H2517 H 0.70956 0.81852 0.51375 0.0
H2518 H 0.68503 0.78022 0.48897 0.0
H2519 H 0.60704 0.81048 0.50061 0.0
H2520 H 0.6309 0.84863 0.526 0.0
H2521 H 0.64648 0.97072 0.50367 0.0
H2522 H 0.67728 0.93603 0.50355 0.0
H2523 H 0.67155 0.93038 0.58925 0.0
H2524 H 0.64068 0.96502 0.58962 0.0
H2525 H 0.66177 0.88682 0.51766 0.0
H2526 H 0.72992 0.91172 0.61682 0.0
H2527 H 0.75575 0.9505 0.63966 0.0
H2528 H 0.76058 0.98948 0.5648 0.0
H2529 H 0.73522 0.95076 0.54137 0.0
C2530 C 0.68884 0.80581 0.60536 0.0
C2531 C 0.71517 0.7995 0.61427 0.0
C2532 C 0.68612 0.82218 0.58384 0.0
C2533 C 0.70964 0.8327 0.57094 0.0
C2534 C 0.73538 0.82376 0.57745 0.0
C2535 C 0.73807 0.807 0.59877 0.0
C2536 C 0.70803 0.85736 0.5566 0.0
C2537 C 0.72311 0.87998 0.56826 0.0
C2538 C 0.68696 0.85985 0.53663 0.0
C2539 C 0.67216 0.83656 0.52188 0.0
C2540 C 0.68716 0.81693 0.51129 0.0
C2541 C 0.67334 0.79522 0.49709 0.0
C2542 C 0.6445 0.79292 0.49322 0.0
C2543 C 0.62939 0.81229 0.5036 0.0
C2544 C 0.64308 0.83401 0.51788 0.0
C2545 C 0.65221 0.96251 0.52263 0.0
C2546 C 0.64096 0.97052 0.54672 0.0
C2547 C 0.66983 0.94267 0.52245 0.0
C2548 C 0.67688 0.93082 0.54638 0.0
C2549 C 0.66673 0.9396 0.5706 0.0
C2550 C 0.64889 0.95925 0.57078 0.0
C2551 C 0.69172 0.90709 0.54599 0.0
C2552 C 0.67912 0.88485 0.53156 0.0
C2553 C 0.71514 0.90493 0.56328 0.0
C2554 C 0.73058 0.92827 0.57731 0.0
C2555 C 0.73667 0.92845 0.60515 0.0
C2556 C 0.7512 0.95046 0.61823 0.0
C2557 C 0.75978 0.97245 0.6037 0.0
C2558 C 0.75387 0.97246 0.57604 0.0
C2559 C 0.73939 0.95049 0.56286 0.0
H2560 H 0.77101 0.98947 0.61386 0.0
H2561 H 0.63386 0.77612 0.48217 0.0
H2562 H 0.80091 0.28067 0.43307 0.0
H2563 H 0.79951 0.24303 0.46108 0.0
H2564 H 0.73331 0.27139 0.50447 0.0
H2565 H 0.7351 0.31002 0.47709 0.0
H2566 H 0.76349 0.23044 0.5317 0.0
H2567 H 0.71077 0.2442 0.44221 0.0
H2568 H 0.71223 0.25648 0.39473 0.0
H2569 H 0.77709 0.20713 0.38252 0.0
H2570 H 0.77565 0.19425 0.42979 0.0
H2571 H 0.63972 0.14506 0.5304 0.0
H2572 H 0.68056 0.17734 0.53245 0.0
H2573 H 0.71892 0.13094 0.47405 0.0
H2574 H 0.67801 0.09919 0.47127 0.0
H2575 H 0.71624 0.17568 0.45639 0.0
H2576 H 0.74935 0.14509 0.53593 0.0
H2577 H 0.75691 0.13013 0.58182 0.0
H2578 H 0.74136 0.20526 0.61407 0.0
H2579 H 0.73271 0.22053 0.56842 0.0
C2580 C 0.78731 0.28012 0.44971 0.0
C2581 C 0.76704 0.29776 0.45194 0.0
C2582 C 0.78669 0.25841 0.46587 0.0
C2583 C 0.76571 0.25405 0.48409 0.0
C2584 C 0.74939 0.27424 0.49012 0.0
C2585 C 0.75021 0.29619 0.4742 0.0
C2586 C 0.75455 0.22692 0.48918 0.0
C2587 C 0.75307 0.21821 0.51548 0.0
C2588 C 0.7423 0.21062 0.46768 0.0
C2589 C 0.74323 0.21845 0.43942 0.0
C2590 C 0.72535 0.23606 0.42935 0.0
C2591 C 0.72623 0.24315 0.40253 0.0
C2592 C 0.74503 0.23292 0.38573 0.0
C2593 C 0.76273 0.21525 0.39561 0.0
C2594 C 0.7618 0.20793 0.42235 0.0
C2595 C 0.65694 0.1417 0.51811 0.0
C2596 C 0.65524 0.12009 0.49991 0.0
C2597 C 0.6805 0.15993 0.51966 0.0
C2598 C 0.70282 0.15662 0.50332 0.0
C2599 C 0.70188 0.13402 0.48669 0.0
C2600 C 0.67828 0.11607 0.48483 0.0
C2601 C 0.72408 0.17886 0.49938 0.0
C2602 C 0.72714 0.18702 0.47301 0.0
C2603 C 0.73848 0.19389 0.52088 0.0
C2604 C 0.74025 0.18397 0.54855 0.0
C2605 C 0.74686 0.1583 0.55275 0.0
C2606 C 0.75152 0.14979 0.57876 0.0
C2607 C 0.74982 0.16681 0.60079 0.0
C2608 C 0.74282 0.19216 0.59693 0.0
C2609 C 0.73793 0.20073 0.57098 0.0
H2610 H 0.75415 0.16041 0.62083 0.0
H2611 H 0.74576 0.23855 0.36502 0.0
H2612 H 0.85696 0.65195 0.33846 0.0
H2613 H 0.88111 0.61939 0.36188 0.0
H2614 H 0.82242 0.61862 0.42444 0.0
H2615 H 0.79906 0.65228 0.40185 0.0
H2616 H 0.87154 0.62757 0.4455 0.0
H2617 H 0.82884 0.56295 0.38503 0.0
H2618 H 0.81084 0.54272 0.34157 0.0
H2619 H 0.89375 0.54391 0.3147 0.0
H2620 H 0.91231 0.5647 0.35781 0.0
H2621 H 0.96491 0.55501 0.51345 0.0
H2622 H 0.92128 0.55728 0.48774 0.0
H2623 H 0.96643 0.58622 0.42033 0.0
H2624 H 1.0103 0.5835 0.44571 0.0
H2625 H 0.91466 0.55253 0.40631 0.0
H2626 H 0.94966 0.6328 0.46233 0.0
H2627 H 0.96797 0.65076 0.50679 0.0
H2628 H 0.89613 0.61392 0.54323 0.0
H2629 H 0.87732 0.59606 0.49891 0.0
C2630 C 0.84903 0.64468 0.35708 0.0
C2631 C 0.82637 0.65503 0.36849 0.0
C2632 C 0.86258 0.6257 0.37024 0.0
C2633 C 0.85348 0.61641 0.39488 0.0
C2634 C 0.82975 0.62546 0.40543 0.0
C2635 C 0.81633 0.64462 0.39238 0.0
C2636 C 0.87128 0.60068 0.41136 0.0
C2637 C 0.8802 0.61064 0.43713 0.0
C2638 C 0.88281 0.57862 0.40055 0.0
C2639 C 0.87196 0.56564 0.37466 0.0
C2640 C 0.84326 0.55912 0.3698 0.0
C2641 C 0.83295 0.54757 0.34521 0.0
C2642 C 0.85113 0.54222 0.32534 0.0
C2643 C 0.8797 0.54817 0.3301 0.0
C2644 C 0.89013 0.55982 0.35465 0.0
C2645 C 0.96558 0.56165 0.49306 0.0
C2646 C 0.99095 0.56991 0.48184 0.0
C2647 C 0.94066 0.56256 0.47831 0.0
C2648 C 0.94074 0.57213 0.4523 0.0
C2649 C 0.96604 0.57865 0.44036 0.0
C2650 C 0.99103 0.57744 0.455 0.0
C2651 C 0.91508 0.58012 0.4396 0.0
C2652 C 0.90499 0.56884 0.41472 0.0
C2653 C 0.90199 0.60067 0.45127 0.0
C2654 C 0.9121 0.61321 0.47743 0.0
C2655 C 0.93768 0.62882 0.47983 0.0
C2656 C 0.94815 0.63893 0.50498 0.0
C2657 C 0.93321 0.63351 0.52782 0.0
C2658 C 0.90762 0.61821 0.52551 0.0
C2659 C 0.89696 0.60822 0.50038 0.0
H2660 H 0.94147 0.64115 0.54731 0.0
H2661 H 0.84305 0.5334 0.30629 0.0
H2662 H 0.32037 0.87867 0.36309 0.0
H2663 H 0.35468 0.91007 0.38748 0.0
H2664 H 0.42033 0.87745 0.34648 0.0
H2665 H 0.38643 0.84549 0.3231 0.0
H2666 H 0.43768 0.88693 0.39462 0.0
H2667 H 0.39349 0.9379 0.32941 0.0
H2668 H 0.35412 0.95572 0.30591 0.0
H2669 H 0.33273 0.99195 0.37968 0.0
H2670 H 0.37178 0.97406 0.40369 0.0
H2671 H 0.51908 0.02502 0.41332 0.0
H2672 H 0.4828 0.99508 0.38956 0.0
H2673 H 0.46913 0.95327 0.46226 0.0
H2674 H 0.50448 0.98336 0.48623 0.0
H2675 H 0.42696 0.98196 0.39678 0.0
H2676 H 0.45921 0.88736 0.44504 0.0
H2677 H 0.50137 0.87033 0.46379 0.0
H2678 H 0.55155 0.92155 0.41479 0.0
H2679 H 0.50972 0.93925 0.3961 0.0
C2680 C 0.34212 0.87818 0.35934 0.0
C2681 C 0.35056 0.85952 0.34109 0.0
C2682 C 0.36178 0.89626 0.3732 0.0
C2683 C 0.39026 0.89655 0.36862 0.0
C2684 C 0.39861 0.87775 0.35055 0.0
C2685 C 0.3791 0.85944 0.33708 0.0
C2686 C 0.41145 0.91633 0.38242 0.0
C2687 C 0.4352 0.90767 0.39508 0.0
C2688 C 0.40877 0.94359 0.38277 0.0
C2689 C 0.38539 0.95446 0.36837 0.0
C2690 C 0.38028 0.94954 0.34064 0.0
C2691 C 0.35804 0.95967 0.32723 0.0
C2692 C 0.3409 0.97491 0.3413 0.0
C2693 C 0.346 0.98012 0.36881 0.0
C2694 C 0.3682 0.97001 0.38232 0.0
C2695 C 0.50799 1.00974 0.42436 0.0
C2696 C 0.51476 1.00671 0.45173 0.0
C2697 C 0.48727 0.99261 0.41074 0.0
C2698 C 0.47331 0.97178 0.42405 0.0
C2699 C 0.47956 0.96912 0.4515 0.0
C2700 C 0.49983 0.98647 0.46521 0.0
C2701 C 0.45274 0.9524 0.4092 0.0
C2702 C 0.42926 0.96117 0.39634 0.0
C2703 C 0.45595 0.9253 0.40815 0.0
C2704 C 0.48128 0.91498 0.41955 0.0
C2705 C 0.47923 0.89519 0.43846 0.0
C2706 C 0.5031 0.88544 0.4491 0.0
C2707 C 0.52918 0.89509 0.44072 0.0
C2708 C 0.5314 0.91443 0.4216 0.0
C2709 C 0.50761 0.92441 0.41107 0.0
H2710 H 0.54764 0.88744 0.44888 0.0
H2711 H 0.32369 0.98273 0.33088 0.0
H2712 H 0.27085 0.38103 0.3505 0.0
H2713 H 0.24422 0.40597 0.38071 0.0
H2714 H 0.17255 0.35016 0.36438 0.0
H2715 H 0.19886 0.32618 0.33277 0.0
H2716 H 0.15041 0.38987 0.3732 0.0
H2717 H 0.22184 0.36084 0.42992 0.0
H2718 H 0.26943 0.35442 0.44588 0.0
H2719 H 0.29037 0.4377 0.45247 0.0
H2720 H 0.24298 0.44462 0.43625 0.0
H2721 H 0.07839 0.4417 0.48635 0.0
H2722 H 0.10373 0.41377 0.45705 0.0
H2723 H 0.1715 0.47472 0.45683 0.0
H2724 H 0.14647 0.50233 0.48577 0.0
H2725 H 0.1943 0.43065 0.45772 0.0
H2726 H 0.11863 0.45728 0.40244 0.0
H2727 H 0.06926 0.46029 0.39029 0.0
H2728 H 0.0545 0.37643 0.38454 0.0
H2729 H 0.10359 0.37289 0.39743 0.0
C2730 C 0.2494 0.37389 0.35317 0.0
C2731 C 0.23761 0.35104 0.33858 0.0
C2732 C 0.23388 0.38825 0.37114 0.0
C2733 C 0.20573 0.38027 0.37648 0.0
C2734 C 0.1939 0.35753 0.36157 0.0
C2735 C 0.20927 0.34347 0.34317 0.0
C2736 C 0.18885 0.39539 0.39699 0.0
C2737 C 0.1603 0.39832 0.39178 0.0
C2738 C 0.20048 0.40726 0.42187 0.0
C2739 C 0.22897 0.40323 0.43159 0.0
C2740 C 0.23666 0.37778 0.43462 0.0
C2741 C 0.26358 0.37405 0.44373 0.0
C2742 C 0.28294 0.39564 0.45011 0.0
C2743 C 0.27537 0.421 0.44747 0.0
C2744 C 0.24848 0.42484 0.43833 0.0
C2745 C 0.0989 0.44909 0.48059 0.0
C2746 C 0.10999 0.47474 0.48931 0.0
C2747 C 0.11351 0.43302 0.46321 0.0
C2748 C 0.14008 0.44163 0.45365 0.0
C2749 C 0.15137 0.46685 0.4632 0.0
C2750 C 0.13674 0.48291 0.48015 0.0
C2751 C 0.15612 0.42517 0.4338 0.0
C2752 C 0.18451 0.42208 0.43913 0.0
C2753 C 0.14414 0.41267 0.40942 0.0
C2754 C 0.11474 0.41482 0.40122 0.0
C2755 C 0.10481 0.43948 0.39881 0.0
C2756 C 0.07685 0.44128 0.39184 0.0
C2757 C 0.0587 0.41856 0.38683 0.0
C2758 C 0.06852 0.39401 0.38863 0.0
C2759 C 0.0964 0.39209 0.3958 0.0
H2760 H 0.03706 0.41999 0.38147 0.0
H2761 H 0.30377 0.39271 0.45715 0.0
H2762 H 0.42335 0.26204 0.65861 0.0
H2763 H 0.45307 0.23194 0.63851 0.0
H2764 H 0.42544 0.17288 0.69384 0.0
H2765 H 0.395 0.20247 0.71354 0.0
H2766 H 0.48286 0.18004 0.69033 0.0
H2767 H 0.40083 0.16915 0.63147 0.0
H2768 H 0.36461 0.18256 0.60019 0.0
H2769 H 0.42651 0.20904 0.54545 0.0
H2770 H 0.46323 0.19644 0.57673 0.0
H2771 H 0.52989 0.06709 0.62841 0.0
H2772 H 0.50174 0.09889 0.6483 0.0
H2773 H 0.52939 0.15534 0.59029 0.0
H2774 H 0.55743 0.124 0.57036 0.0
H2775 H 0.47303 0.15054 0.59452 0.0
H2776 H 0.55474 0.16399 0.65119 0.0
H2777 H 0.59281 0.15118 0.68063 0.0
H2778 H 0.53415 0.12179 0.73727 0.0
H2779 H 0.49563 0.13399 0.70789 0.0
C2780 C 0.42328 0.24254 0.66629 0.0
C2781 C 0.40672 0.23467 0.68767 0.0
C2782 C 0.44036 0.22543 0.65484 0.0
C2783 C 0.44126 0.2002 0.66462 0.0
C2784 C 0.42502 0.19233 0.68608 0.0
C2785 C 0.40777 0.20933 0.6974 0.0
C2786 C 0.45951 0.18209 0.65282 0.0
C2787 C 0.4805 0.17332 0.66946 0.0
C2788 C 0.45695 0.17414 0.62534 0.0
C2789 C 0.43487 0.18227 0.60675 0.0
C2790 C 0.4068 0.17823 0.61299 0.0
C2791 C 0.38616 0.18563 0.59521 0.0
C2792 C 0.39326 0.1968 0.57094 0.0
C2793 C 0.42104 0.20053 0.56434 0.0
C2794 C 0.44179 0.1933 0.58212 0.0
C2795 C 0.53011 0.08632 0.62004 0.0
C2796 C 0.54599 0.09301 0.59792 0.0
C2797 C 0.5141 0.10445 0.63142 0.0
C2798 C 0.51364 0.12941 0.62074 0.0
C2799 C 0.52951 0.13616 0.59877 0.0
C2800 C 0.54566 0.11821 0.58755 0.0
C2801 C 0.49608 0.14835 0.6321 0.0
C2802 C 0.47535 0.15733 0.61537 0.0
C2803 C 0.49914 0.15685 0.65932 0.0
C2804 C 0.52225 0.14965 0.67719 0.0
C2805 C 0.54991 0.15458 0.66981 0.0
C2806 C 0.57159 0.14746 0.6865 0.0
C2807 C 0.5659 0.13562 0.71079 0.0
C2808 C 0.53852 0.13093 0.71844 0.0
C2809 C 0.51675 0.13795 0.70177 0.0
H2810 H 0.58271 0.13014 0.7237 0.0
H2811 H 0.37722 0.2025 0.55724 0.0
H2812 H 0.81595 0.35146 0.70905 0.0
H2813 H 0.84691 0.37492 0.67858 0.0
H2814 H 0.91721 0.34515 0.71849 0.0
H2815 H 0.88629 0.322 0.74953 0.0
H2816 H 0.93054 0.39457 0.70882 0.0
H2817 H 0.88989 0.32158 0.65441 0.0
H2818 H 0.85223 0.29092 0.63323 0.0
H2819 H 0.81975 0.35421 0.59199 0.0
H2820 H 0.857 0.38533 0.61322 0.0
H2821 H 0.02226 0.44166 0.6082 0.0
H2822 H 0.9941 0.4092 0.63361 0.0
H2823 H 0.92036 0.4443 0.60952 0.0
H2824 H 0.94845 0.47697 0.5847 0.0
H2825 H 0.91147 0.38896 0.61023 0.0
H2826 H 0.95131 0.46185 0.66633 0.0
H2827 H 0.98946 0.49228 0.68688 0.0
H2828 H 0.02372 0.42845 0.72543 0.0
H2829 H 0.98631 0.39738 0.70425 0.0
C2830 C 0.83797 0.34972 0.71136 0.0
C2831 C 0.84843 0.33463 0.73187 0.0
C2832 C 0.85576 0.36314 0.69372 0.0
C2833 C 0.8846 0.36166 0.69572 0.0
C2834 C 0.89514 0.34671 0.71629 0.0
C2835 C 0.87734 0.33335 0.73406 0.0
C2836 C 0.90363 0.37609 0.67674 0.0
C2837 C 0.92659 0.39287 0.68725 0.0
C2838 C 0.89853 0.37447 0.64846 0.0
C2839 C 0.87611 0.35582 0.6356 0.0
C2840 C 0.8746 0.32899 0.64098 0.0
C2841 C 0.85334 0.31153 0.62894 0.0
C2842 C 0.83358 0.32062 0.61132 0.0
C2843 C 0.83506 0.3472 0.60566 0.0
C2844 C 0.85626 0.36476 0.61768 0.0
C2845 C 0.99993 0.44182 0.60753 0.0
C2846 C 0.98752 0.46163 0.59403 0.0
C2847 C 0.98386 0.42345 0.62236 0.0
C2848 C 0.95502 0.42433 0.62376 0.0
C2849 C 0.94247 0.44306 0.60879 0.0
C2850 C 0.95854 0.46168 0.59445 0.0
C2851 C 0.93815 0.40738 0.64237 0.0
C2852 C 0.91557 0.39029 0.6318 0.0
C2853 C 0.94368 0.40862 0.67056 0.0
C2854 C 0.96624 0.42721 0.68331 0.0
C2855 C 0.96721 0.4542 0.67883 0.0
C2856 C 0.98871 0.47157 0.69059 0.0
C2857 C 1.00914 0.46225 0.70726 0.0
C2858 C 1.00803 0.43556 0.71228 0.0
C2859 C 0.98671 0.41805 0.70036 0.0
H2860 H 0.02573 0.47572 0.71641 0.0
H2861 H 0.81714 0.30706 0.60202 0.0
H2862 H 0.25198 0.75308 0.70652 0.0
H2863 H 0.22546 0.71498 0.6848 0.0
H2864 H 0.20392 0.68563 0.76213 0.0
H2865 H 0.23019 0.72427 0.78424 0.0
H2866 H 0.22905 0.66331 0.68624 0.0
H2867 H 0.13738 0.65533 0.75501 0.0
H2868 H 0.1143 0.68267 0.78679 0.0
H2869 H 0.14036 0.75122 0.74345 0.0
H2870 H 0.16328 0.72424 0.71126 0.0
H2871 H 0.08803 0.57405 0.65946 0.0
H2872 H 0.12353 0.59807 0.68921 0.0
H2873 H 0.15649 0.63994 0.62199 0.0
H2874 H 0.12111 0.61573 0.59186 0.0
H2875 H 0.12781 0.64953 0.6987 0.0
H2876 H 0.22515 0.65818 0.63416 0.0
H2877 H 0.24734 0.6313 0.60133 0.0
H2878 H 0.20881 0.56121 0.63453 0.0
H2879 H 0.18671 0.58763 0.6678 0.0
C2880 C 0.24167 0.73856 0.71901 0.0
C2881 C 0.24292 0.7418 0.74711 0.0
C2882 C 0.2267 0.71668 0.70653 0.0
C2883 C 0.21268 0.69759 0.72185 0.0
C2884 C 0.21442 0.70033 0.74997 0.0
C2885 C 0.22936 0.72239 0.76254 0.0
C2886 C 0.19503 0.67576 0.70794 0.0
C2887 C 0.2069 0.66024 0.68889 0.0
C2888 C 0.1663 0.67141 0.71199 0.0
C2889 C 0.15233 0.68781 0.73098 0.0
C2890 C 0.13812 0.67623 0.75226 0.0
C2891 C 0.12507 0.69166 0.77033 0.0
C2892 C 0.12596 0.71868 0.7672 0.0
C2893 C 0.13979 0.73031 0.74592 0.0
C2894 C 0.15283 0.71496 0.72777 0.0
C2895 C 0.10297 0.5882 0.65089 0.0
C2896 C 0.10154 0.59328 0.62333 0.0
C2897 C 0.12328 0.60181 0.66795 0.0
C2898 C 0.14261 0.62068 0.6578 0.0
C2899 C 0.14195 0.62515 0.63015 0.0
C2900 C 0.12165 0.61142 0.61298 0.0
C2901 C 0.16168 0.63747 0.67643 0.0
C2902 C 0.15005 0.65209 0.69638 0.0
C2903 C 0.19057 0.64102 0.67309 0.0
C2904 C 0.2041 0.62493 0.65337 0.0
C2905 C 0.22152 0.63703 0.63456 0.0
C2906 C 0.23406 0.62187 0.61585 0.0
C2907 C 0.22943 0.59457 0.6158 0.0
C2908 C 0.2123 0.58236 0.63452 0.0
C2909 C 0.19973 0.59743 0.65329 0.0
H2910 H 0.23914 0.58288 0.60128 0.0
H2911 H 0.11588 0.73059 0.78123 0.0
loop_
_geom_bond_atom_site_label_1
_geom_bond_atom_site_label_2
_geom_bond_distance
_geom_bond_site_symmetry_2
_ccdc_geom_bond_type
Dy0 O3 2.307 . S
Dy0 O5 2.395 . S
Dy0 O6 2.379 . S
Dy0 O8 2.339 . S
Dy0 O10 2.298 . S
Dy0 O14 2.275 . S
Dy0 C22 2.738 . S
Dy1 O4 2.298 . S
Dy1 O7 2.275 . S
Dy1 O9 2.307 . S
Dy1 O11 2.395 . S
Dy1 O12 2.379 . S
Dy1 O15 2.339 . S
Dy1 C31 2.738 . S
C2 O14 1.254 . S
C2 O15 1.257 . S
O3 Dy0 2.307 . S
O3 C13 1.266 . S
O4 Dy1 2.298 . S
O4 C13 1.236 . S
O5 Dy0 2.395 . S
O5 C22 1.255 . S
O6 Dy0 2.379 . S
O6 C22 1.249 . S
O7 Dy1 2.275 . S
O7 C23 1.254 . S
O8 Dy0 2.339 . S
O8 C23 1.257 . S
O9 Dy1 2.307 . S
O9 C24 1.266 . S
O10 Dy0 2.298 . S
O10 C24 1.236 . S
O11 Dy1 2.395 . S
O11 C31 1.255 . S
O12 Dy1 2.379 . S
O12 C31 1.249 . S
C13 O3 1.266 . S
C13 O4 1.236 . S
O14 Dy0 2.275 . S
O14 C2 1.254 . S
O15 Dy1 2.339 . S
O15 C2 1.257 . S
C16 C19 1.344 . S
C16 C20 1.328 . S
C16 C22 1.516 . S
C17 C18 1.304 . S
C17 C21 1.323 . S
C18 C17 1.304 . S
C18 C19 1.371 . S
C18 H32 0.930 . S
C19 C16 1.344 . S
C19 C18 1.371 . S
C19 H33 0.931 . S
C20 C16 1.328 . S
C20 C21 1.433 . S
C20 H34 0.931 . S
C21 C17 1.323 . S
C21 C20 1.433 . S
C21 H35 0.933 . S
C22 Dy0 2.738 . S
C22 O5 1.255 . S
C22 O6 1.249 . S
C22 C16 1.516 . S
C23 O7 1.254 . S
C23 O8 1.257 . S
C24 O9 1.266 . S
C24 O10 1.236 . S
C25 C28 1.344 . S
C25 C29 1.328 . S
C25 C31 1.516 . S
C26 C27 1.304 . S
C26 C30 1.323 . S
C27 C26 1.304 . S
C27 C28 1.371 . S
C27 H36 0.930 . S
C28 C25 1.344 . S
C28 C27 1.371 . S
C28 H37 0.931 . S
C29 C25 1.328 . S
C29 C30 1.433 . S
C29 H38 0.931 . S
C30 C26 1.323 . S
C30 C29 1.433 . S
C30 H39 0.933 . S
C31 Dy1 2.738 . S
C31 O11 1.255 . S
C31 O12 1.249 . S
C31 C25 1.516 . S
H32 C18 0.930 . S
H33 C19 0.931 . S
H34 C20 0.931 . S
H35 C21 0.933 . S
H36 C27 0.930 . S
H37 C28 0.931 . S
H38 C29 0.931 . S
H39 C30 0.933 . S
Dy40 O43 2.307 . S
Dy40 O45 2.395 . S
Dy40 O46 2.379 . S
Dy40 O48 2.339 . S
Dy40 O50 2.298 . S
Dy40 O54 2.275 . S
Dy40 C62 2.738 . S
Dy41 O44 2.298 . S
Dy41 O47 2.275 . S
Dy41 O49 2.307 . S
Dy41 O51 2.395 . S
Dy41 O52 2.379 . S
Dy41 O55 2.339 . S
Dy41 C71 2.738 . S
C42 O54 1.254 . S
C42 O55 1.257 . S
O43 Dy40 2.307 . S
O43 C53 1.266 . S
O44 Dy41 2.298 . S
O44 C53 1.236 . S
O45 Dy40 2.395 . S
O45 C62 1.255 . S
O46 Dy40 2.379 . S
O46 C62 1.249 . S
O47 Dy41 2.275 . S
O47 C63 1.254 . S
O48 Dy40 2.339 . S
O48 C63 1.257 . S
O49 Dy41 2.307 . S
O49 C64 1.266 . S
O50 Dy40 2.298 . S
O50 C64 1.236 . S
O51 Dy41 2.395 . S
O51 C71 1.255 . S
O52 Dy41 2.379 . S
O52 C71 1.249 . S
C53 O43 1.266 . S
C53 O44 1.236 . S
O54 Dy40 2.275 . S
O54 C42 1.254 . S
O55 Dy41 2.339 . S
O55 C42 1.257 . S
C56 C59 1.344 . S
C56 C60 1.328 . S
C56 C62 1.516 . S
C57 C58 1.304 . S
C57 C61 1.323 . S
C58 C57 1.304 . S
C58 C59 1.371 . S
C58 H72 0.930 . S
C59 C56 1.344 . S
C59 C58 1.371 . S
C59 H73 0.931 . S
C60 C56 1.328 . S
C60 C61 1.433 . S
C60 H74 0.931 . S
C61 C57 1.323 . S
C61 C60 1.433 . S
C61 H75 0.933 . S
C62 Dy40 2.738 . S
C62 O45 1.255 . S
C62 O46 1.249 . S
C62 C56 1.516 . S
C63 O47 1.254 . S
C63 O48 1.257 . S
C64 O49 1.266 . S
C64 O50 1.236 . S
C65 C68 1.344 . S
C65 C69 1.328 . S
C65 C71 1.516 . S
C66 C67 1.304 . S
C66 C70 1.323 . S
C67 C66 1.304 . S
C67 C68 1.371 . S
C67 H76 0.930 . S
C68 C65 1.344 . S
C68 C67 1.371 . S
C68 H77 0.931 . S
C69 C65 1.328 . S
C69 C70 1.433 . S
C69 H78 0.931 . S
C70 C66 1.323 . S
C70 C69 1.433 . S
C70 H79 0.933 . S
C71 Dy41 2.738 . S
C71 O51 1.255 . S
C71 O52 1.249 . S
C71 C65 1.516 . S
H72 C58 0.930 . S
H73 C59 0.931 . S
H74 C60 0.931 . S
H75 C61 0.933 . S
H76 C67 0.930 . S
H77 C68 0.931 . S
H78 C69 0.931 . S
H79 C70 0.933 . S
Dy80 O83 2.307 . S
Dy80 O85 2.395 . S
Dy80 O86 2.379 . S
Dy80 O88 2.339 . S
Dy80 O90 2.298 . S
Dy80 O94 2.275 . S
Dy80 C102 2.738 . S
Dy81 O84 2.298 . S
Dy81 O87 2.275 . S
Dy81 O89 2.307 . S
Dy81 O91 2.395 . S
Dy81 O92 2.379 . S
Dy81 O95 2.339 . S
Dy81 C111 2.738 . S
C82 O94 1.254 . S
C82 O95 1.257 . S
O83 Dy80 2.307 . S
O83 C93 1.266 . S
O84 Dy81 2.298 . S
O84 C93 1.236 . S
O85 Dy80 2.395 . S
O85 C102 1.255 . S
O86 Dy80 2.379 . S
O86 C102 1.249 . S
O87 Dy81 2.275 . S
O87 C103 1.254 . S
O88 Dy80 2.339 . S
O88 C103 1.257 . S
O89 Dy81 2.307 . S
O89 C104 1.266 . S
O90 Dy80 2.298 . S
O90 C104 1.236 . S
O91 Dy81 2.395 . S
O91 C111 1.255 . S
O92 Dy81 2.379 . S
O92 C111 1.249 . S
C93 O83 1.266 . S
C93 O84 1.236 . S
O94 Dy80 2.275 . S
O94 C82 1.254 . S
O95 Dy81 2.339 . S
O95 C82 1.257 . S
C96 C99 1.344 . S
C96 C100 1.328 . S
C96 C102 1.516 . S
C97 C98 1.304 . S
C97 C101 1.323 . S
C98 C97 1.304 . S
C98 C99 1.371 . S
C98 H112 0.930 . S
C99 C96 1.344 . S
C99 C98 1.371 . S
C99 H113 0.931 . S
C100 C96 1.328 . S
C100 C101 1.433 . S
C100 H114 0.931 . S
C101 C97 1.323 . S
C101 C100 1.433 . S
C101 H115 0.933 . S
C102 Dy80 2.738 . S
C102 O85 1.255 . S
C102 O86 1.249 . S
C102 C96 1.516 . S
C103 O87 1.254 . S
C103 O88 1.257 . S
C104 O89 1.266 . S
C104 O90 1.236 . S
C105 C108 1.344 . S
C105 C109 1.328 . S
C105 C111 1.516 . S
C106 C107 1.304 . S
C106 C110 1.323 . S
C107 C106 1.304 . S
C107 C108 1.371 . S
C107 H116 0.930 . S
C108 C105 1.344 . S
C108 C107 1.371 . S
C108 H117 0.931 . S
C109 C105 1.328 . S
C109 C110 1.433 . S
C109 H118 0.931 . S
C110 C106 1.323 . S
C110 C109 1.433 . S
C110 H119 0.933 . S
C111 Dy81 2.738 . S
C111 O91 1.255 . S
C111 O92 1.249 . S
C111 C105 1.516 . S
H112 C98 0.930 . S
H113 C99 0.931 . S
H114 C100 0.931 . S
H115 C101 0.933 . S
H116 C107 0.930 . S
H117 C108 0.931 . S
H118 C109 0.931 . S
H119 C110 0.933 . S
Dy120 O123 2.307 . S
Dy120 O125 2.395 . S
Dy120 O126 2.379 . S
Dy120 O128 2.339 . S
Dy120 O130 2.298 . S
Dy120 O134 2.275 . S
Dy120 C142 2.738 . S
Dy121 O124 2.298 . S
Dy121 O127 2.275 . S
Dy121 O129 2.307 . S
Dy121 O131 2.395 . S
Dy121 O132 2.379 . S
Dy121 O135 2.339 . S
Dy121 C151 2.738 . S
C122 O134 1.254 . S
C122 O135 1.257 . S
O123 Dy120 2.307 . S
O123 C133 1.266 . S
O124 Dy121 2.298 . S
O124 C133 1.236 . S
O125 Dy120 2.395 . S
O125 C142 1.255 . S
O126 Dy120 2.379 . S
O126 C142 1.249 . S
O127 Dy121 2.275 . S
O127 C143 1.254 . S
O128 Dy120 2.339 . S
O128 C143 1.257 . S
O129 Dy121 2.307 . S
O129 C144 1.266 . S
O130 Dy120 2.298 . S
O130 C144 1.236 . S
O131 Dy121 2.395 . S
O131 C151 1.255 . S
O132 Dy121 2.379 . S
O132 C151 1.249 . S
C133 O123 1.266 . S
C133 O124 1.236 . S
O134 Dy120 2.275 . S
O134 C122 1.254 . S
O135 Dy121 2.339 . S
O135 C122 1.257 . S
C136 C139 1.344 . S
C136 C140 1.328 . S
C136 C142 1.516 . S
C137 C138 1.304 . S
C137 C141 1.323 . S
C138 C137 1.304 . S
C138 C139 1.371 . S
C138 H152 0.930 . S
C139 C136 1.344 . S
C139 C138 1.371 . S
C139 H153 0.931 . S
C140 C136 1.328 . S
C140 C141 1.433 . S
C140 H154 0.931 . S
C141 C137 1.323 . S
C141 C140 1.433 . S
C141 H155 0.933 . S
C142 Dy120 2.738 . S
C142 O125 1.255 . S
C142 O126 1.249 . S
C142 C136 1.516 . S
C143 O127 1.254 . S
C143 O128 1.257 . S
C144 O129 1.266 . S
C144 O130 1.236 . S
C145 C148 1.344 . S
C145 C149 1.328 . S
C145 C151 1.516 . S
C146 C147 1.304 . S
C146 C150 1.323 . S
C147 C146 1.304 . S
C147 C148 1.371 . S
C147 H156 0.930 . S
C148 C145 1.344 . S
C148 C147 1.371 . S
C148 H157 0.931 . S
C149 C145 1.328 . S
C149 C150 1.433 . S
C149 H158 0.931 . S
C150 C146 1.323 . S
C150 C149 1.433 . S
C150 H159 0.933 . S
C151 Dy121 2.738 . S
C151 O131 1.255 . S
C151 O132 1.249 . S
C151 C145 1.516 . S
H152 C138 0.930 . S
H153 C139 0.931 . S
H154 C140 0.931 . S
H155 C141 0.933 . S
H156 C147 0.930 . S
H157 C148 0.931 . S
H158 C149 0.931 . S
H159 C150 0.933 . S
Dy160 O163 2.307 . S
Dy160 O165 2.395 . S
Dy160 O166 2.379 . S
Dy160 O168 2.339 . S
Dy160 O170 2.298 . S
Dy160 O174 2.275 . S
Dy160 C182 2.738 . S
Dy161 O164 2.298 . S
Dy161 O167 2.275 . S
Dy161 O169 2.307 . S
Dy161 O171 2.395 . S
Dy161 O172 2.379 . S
Dy161 O175 2.339 . S
Dy161 C191 2.738 . S
C162 O174 1.254 . S
C162 O175 1.257 . S
O163 Dy160 2.307 . S
O163 C173 1.266 . S
O164 Dy161 2.298 . S
O164 C173 1.236 . S
O165 Dy160 2.395 . S
O165 C182 1.255 . S
O166 Dy160 2.379 . S
O166 C182 1.249 . S
O167 Dy161 2.275 . S
O167 C183 1.254 . S
O168 Dy160 2.339 . S
O168 C183 1.257 . S
O169 Dy161 2.307 . S
O169 C184 1.266 . S
O170 Dy160 2.298 . S
O170 C184 1.236 . S
O171 Dy161 2.395 . S
O171 C191 1.255 . S
O172 Dy161 2.379 . S
O172 C191 1.249 . S
C173 O163 1.266 . S
C173 O164 1.236 . S
O174 Dy160 2.275 . S
O174 C162 1.254 . S
O175 Dy161 2.339 . S
O175 C162 1.257 . S
C176 C179 1.344 . S
C176 C180 1.328 . S
C176 C182 1.516 . S
C177 C178 1.304 . S
C177 C181 1.323 . S
C178 C177 1.304 . S
C178 C179 1.371 . S
C178 H192 0.930 . S
C179 C176 1.344 . S
C179 C178 1.371 . S
C179 H193 0.931 . S
C180 C176 1.328 . S
C180 C181 1.433 . S
C180 H194 0.931 . S
C181 C177 1.323 . S
C181 C180 1.433 . S
C181 H195 0.933 . S
C182 Dy160 2.738 . S
C182 O165 1.255 . S
C182 O166 1.249 . S
C182 C176 1.516 . S
C183 O167 1.254 . S
C183 O168 1.257 . S
C184 O169 1.266 . S
C184 O170 1.236 . S
C185 C188 1.344 . S
C185 C189 1.328 . S
C185 C191 1.516 . S
C186 C187 1.304 . S
C186 C190 1.323 . S
C187 C186 1.304 . S
C187 C188 1.371 . S
C187 H196 0.930 . S
C188 C185 1.344 . S
C188 C187 1.371 . S
C188 H197 0.931 . S
C189 C185 1.328 . S
C189 C190 1.433 . S
C189 H198 0.931 . S
C190 C186 1.323 . S
C190 C189 1.433 . S
C190 H199 0.933 . S
C191 Dy161 2.738 . S
C191 O171 1.255 . S
C191 O172 1.249 . S
C191 C185 1.516 . S
H192 C178 0.930 . S
H193 C179 0.931 . S
H194 C180 0.931 . S
H195 C181 0.933 . S
H196 C187 0.930 . S
H197 C188 0.931 . S
H198 C189 0.931 . S
H199 C190 0.933 . S
Dy200 O203 2.307 . S
Dy200 O205 2.395 . S
Dy200 O206 2.379 . S
Dy200 O208 2.339 . S
Dy200 O210 2.298 . S
Dy200 O214 2.275 . S
Dy200 C222 2.738 . S
Dy201 O204 2.298 . S
Dy201 O207 2.275 . S
Dy201 O209 2.307 . S
Dy201 O211 2.395 . S
Dy201 O212 2.379 . S
Dy201 O215 2.339 . S
Dy201 C231 2.738 . S
C202 O214 1.254 . S
C202 O215 1.257 . S
O203 Dy200 2.307 . S
O203 C213 1.266 . S
O204 Dy201 2.298 . S
O204 C213 1.236 . S
O205 Dy200 2.395 . S
O205 C222 1.255 . S
O206 Dy200 2.379 . S
O206 C222 1.249 . S
O207 Dy201 2.275 . S
O207 C223 1.254 . S
O208 Dy200 2.339 . S
O208 C223 1.257 . S
O209 Dy201 2.307 . S
O209 C224 1.266 . S
O210 Dy200 2.298 . S
O210 C224 1.236 . S
O211 Dy201 2.395 . S
O211 C231 1.255 . S
O212 Dy201 2.379 . S
O212 C231 1.249 . S
C213 O203 1.266 . S
C213 O204 1.236 . S
O214 Dy200 2.275 . S
O214 C202 1.254 . S
O215 Dy201 2.339 . S
O215 C202 1.257 . S
C216 C219 1.344 . S
C216 C220 1.328 . S
C216 C222 1.516 . S
C217 C218 1.304 . S
C217 C221 1.323 . S
C218 C217 1.304 . S
C218 C219 1.371 . S
C218 H232 0.930 . S
C219 C216 1.344 . S
C219 C218 1.371 . S
C219 H233 0.931 . S
C220 C216 1.328 . S
C220 C221 1.433 . S
C220 H234 0.931 . S
C221 C217 1.323 . S
C221 C220 1.433 . S
C221 H235 0.933 . S
C222 Dy200 2.738 . S
C222 O205 1.255 . S
C222 O206 1.249 . S
C222 C216 1.516 . S
C223 O207 1.254 . S
C223 O208 1.257 . S
C224 O209 1.266 . S
C224 O210 1.236 . S
C225 C228 1.344 . S
C225 C229 1.328 . S
C225 C231 1.516 . S
C226 C227 1.304 . S
C226 C230 1.323 . S
C227 C226 1.304 . S
C227 C228 1.371 . S
C227 H236 0.930 . S
C228 C225 1.344 . S
C228 C227 1.371 . S
C228 H237 0.931 . S
C229 C225 1.328 . S
C229 C230 1.433 . S
C229 H238 0.931 . S
C230 C226 1.323 . S
C230 C229 1.433 . S
C230 H239 0.933 . S
C231 Dy201 2.738 . S
C231 O211 1.255 . S
C231 O212 1.249 . S
C231 C225 1.516 . S
H232 C218 0.930 . S
H233 C219 0.931 . S
H234 C220 0.931 . S
H235 C221 0.933 . S
H236 C227 0.930 . S
H237 C228 0.931 . S
H238 C229 0.931 . S
H239 C230 0.933 . S
Dy240 O243 2.307 . S
Dy240 O245 2.395 . S
Dy240 O246 2.379 . S
Dy240 O248 2.339 . S
Dy240 O250 2.298 . S
Dy240 O254 2.275 . S
Dy240 C262 2.738 . S
Dy241 O244 2.298 . S
Dy241 O247 2.275 . S
Dy241 O249 2.307 . S
Dy241 O251 2.395 . S
Dy241 O252 2.379 . S
Dy241 O255 2.339 . S
Dy241 C271 2.738 . S
C242 O254 1.254 . S
C242 O255 1.257 . S
O243 Dy240 2.307 . S
O243 C253 1.266 . S
O244 Dy241 2.298 . S
O244 C253 1.236 . S
O245 Dy240 2.395 . S
O245 C262 1.255 . S
O246 Dy240 2.379 . S
O246 C262 1.249 . S
O247 Dy241 2.275 . S
O247 C263 1.254 . S
O248 Dy240 2.339 . S
O248 C263 1.257 . S
O249 Dy241 2.307 . S
O249 C264 1.266 . S
O250 Dy240 2.298 . S
O250 C264 1.236 . S
O251 Dy241 2.395 . S
O251 C271 1.255 . S
O252 Dy241 2.379 . S
O252 C271 1.249 . S
C253 O243 1.266 . S
C253 O244 1.236 . S
O254 Dy240 2.275 . S
O254 C242 1.254 . S
O255 Dy241 2.339 . S
O255 C242 1.257 . S
C256 C259 1.344 . S
C256 C260 1.328 . S
C256 C262 1.516 . S
C257 C258 1.304 . S
C257 C261 1.323 . S
C258 C257 1.304 . S
C258 C259 1.371 . S
C258 H272 0.930 . S
C259 C256 1.344 . S
C259 C258 1.371 . S
C259 H273 0.931 . S
C260 C256 1.328 . S
C260 C261 1.433 . S
C260 H274 0.931 . S
C261 C257 1.323 . S
C261 C260 1.433 . S
C261 H275 0.933 . S
C262 Dy240 2.738 . S
C262 O245 1.255 . S
C262 O246 1.249 . S
C262 C256 1.516 . S
C263 O247 1.254 . S
C263 O248 1.257 . S
C264 O249 1.266 . S
C264 O250 1.236 . S
C265 C268 1.344 . S
C265 C269 1.328 . S
C265 C271 1.516 . S
C266 C267 1.304 . S
C266 C270 1.323 . S
C267 C266 1.304 . S
C267 C268 1.371 . S
C267 H276 0.930 . S
C268 C265 1.344 . S
C268 C267 1.371 . S
C268 H277 0.931 . S
C269 C265 1.328 . S
C269 C270 1.433 . S
C269 H278 0.931 . S
C270 C266 1.323 . S
C270 C269 1.433 . S
C270 H279 0.933 . S
C271 Dy241 2.738 . S
C271 O251 1.255 . S
C271 O252 1.249 . S
C271 C265 1.516 . S
H272 C258 0.930 . S
H273 C259 0.931 . S
H274 C260 0.931 . S
H275 C261 0.933 . S
H276 C267 0.930 . S
H277 C268 0.931 . S
H278 C269 0.931 . S
H279 C270 0.933 . S
Dy280 O283 2.307 . S
Dy280 O285 2.395 . S
Dy280 O286 2.379 . S
Dy280 O288 2.339 . S
Dy280 O290 2.298 . S
Dy280 O294 2.275 . S
Dy280 C302 2.738 . S
Dy281 O284 2.298 . S
Dy281 O287 2.275 . S
Dy281 O289 2.307 . S
Dy281 O291 2.395 . S
Dy281 O292 2.379 . S
Dy281 O295 2.339 . S
Dy281 C311 2.738 . S
C282 O294 1.254 . S
C282 O295 1.257 . S
O283 Dy280 2.307 . S
O283 C293 1.266 . S
O284 Dy281 2.298 . S
O284 C293 1.236 . S
O285 Dy280 2.395 . S
O285 C302 1.255 . S
O286 Dy280 2.379 . S
O286 C302 1.249 . S
O287 Dy281 2.275 . S
O287 C303 1.254 . S
O288 Dy280 2.339 . S
O288 C303 1.257 . S
O289 Dy281 2.307 . S
O289 C304 1.266 . S
O290 Dy280 2.298 . S
O290 C304 1.236 . S
O291 Dy281 2.395 . S
O291 C311 1.255 . S
O292 Dy281 2.379 . S
O292 C311 1.249 . S
C293 O283 1.266 . S
C293 O284 1.236 . S
O294 Dy280 2.275 . S
O294 C282 1.254 . S
O295 Dy281 2.339 . S
O295 C282 1.257 . S
C296 C299 1.344 . S
C296 C300 1.328 . S
C296 C302 1.516 . S
C297 C298 1.304 . S
C297 C301 1.323 . S
C298 C297 1.304 . S
C298 C299 1.371 . S
C298 H312 0.930 . S
C299 C296 1.344 . S
C299 C298 1.371 . S
C299 H313 0.931 . S
C300 C296 1.328 . S
C300 C301 1.433 . S
C300 H314 0.931 . S
C301 C297 1.323 . S
C301 C300 1.433 . S
C301 H315 0.933 . S
C302 Dy280 2.738 . S
C302 O285 1.255 . S
C302 O286 1.249 . S
C302 C296 1.516 . S
C303 O287 1.254 . S
C303 O288 1.257 . S
C304 O289 1.266 . S
C304 O290 1.236 . S
C305 C308 1.344 . S
C305 C309 1.328 . S
C305 C311 1.516 . S
C306 C307 1.304 . S
C306 C310 1.323 . S
C307 C306 1.304 . S
C307 C308 1.371 . S
C307 H316 0.930 . S
C308 C305 1.344 . S
C308 C307 1.371 . S
C308 H317 0.931 . S
C309 C305 1.328 . S
C309 C310 1.433 . S
C309 H318 0.931 . S
C310 C306 1.323 . S
C310 C309 1.433 . S
C310 H319 0.933 . S
C311 Dy281 2.738 . S
C311 O291 1.255 . S
C311 O292 1.249 . S
C311 C305 1.516 . S
H312 C298 0.930 . S
H313 C299 0.931 . S
H314 C300 0.931 . S
H315 C301 0.933 . S
H316 C307 0.930 . S
H317 C308 0.931 . S
H318 C309 0.931 . S
H319 C310 0.933 . S
Fe320 O321 1.886 1_455 S
Fe320 O324 1.715 . S
Fe320 O329 2.077 1_455 S
Fe320 O334 1.935 . S
Fe320 O340 2.077 1_455 S
Fe320 O349 1.935 . S
O321 Fe320 1.886 1_655 S
O321 Fe323 1.715 . S
Fe322 O324 1.886 . S
Fe322 O325 1.716 1_545 S
Fe322 O332 1.935 . S
Fe322 O333 2.077 . S
Fe322 O339 1.935 . S
Fe322 O348 2.077 . S
Fe323 O321 1.715 . S
Fe323 O326 1.886 1_545 S
Fe323 O330 1.935 . S
Fe323 O335 2.077 1_545 S
Fe323 O341 1.935 . S
Fe323 O345 2.077 1_545 S
O324 Fe320 1.715 . S
O324 Fe322 1.886 . S
O325 Fe322 1.716 1_565 S
O325 Fe327 1.885 . S
O326 Fe323 1.886 1_565 S
O326 Fe327 1.715 1_655 S
Fe327 O325 1.885 . S
Fe327 O326 1.715 1_455 S
Fe327 O331 2.077 . S
Fe327 O336 1.935 1_455 S
Fe327 O338 2.077 . S
Fe327 O346 1.935 1_455 S
C328 O340 1.381 . S
C328 O341 1.421 . S
O329 Fe320 2.077 1_655 S
O329 C342 1.381 . S
O330 Fe323 1.935 . S
O330 C342 1.421 . S
O331 Fe327 2.077 . S
O331 C347 1.381 . S
O332 Fe322 1.935 . S
O332 C347 1.421 1_545 S
O333 Fe322 2.077 . S
O333 C337 1.381 . S
O334 Fe320 1.935 . S
O334 C337 1.421 . S
O335 Fe323 2.077 1_565 S
O335 C343 1.381 . S
O336 Fe327 1.935 1_655 S
O336 C343 1.421 . S
C337 O333 1.381 . S
C337 O334 1.421 . S
O338 Fe327 2.077 . S
O338 C350 1.381 . S
O339 Fe322 1.935 . S
O339 C350 1.421 1_545 S
O340 Fe320 2.077 1_655 S
O340 C328 1.381 . S
O341 Fe323 1.935 . S
O341 C328 1.421 . S
C342 O329 1.381 . S
C342 O330 1.421 . S
C343 O335 1.381 . S
C343 O336 1.421 . S
C344 O345 1.381 . S
C344 O346 1.421 . S
O345 Fe323 2.077 1_565 S
O345 C344 1.381 . S
O346 Fe327 1.935 1_655 S
O346 C344 1.421 . S
C347 O331 1.381 . S
C347 O332 1.421 1_565 S
O348 Fe322 2.077 . S
O348 C351 1.381 . S
O349 Fe320 1.935 . S
O349 C351 1.421 . S
C350 O338 1.381 . S
C350 O339 1.421 1_565 S
C351 O348 1.381 . S
C351 O349 1.421 . S
Fe352 O353 1.886 1_566 S
Fe352 O356 1.715 1_565 S
Fe352 O361 2.077 . S
Fe352 O366 1.935 . S
Fe352 O372 2.077 1_556 S
Fe352 O381 1.935 1_556 S
O353 Fe352 1.886 1_544 S
O353 Fe355 1.715 . S
Fe354 O356 1.886 . S
Fe354 O357 1.715 1_556 S
Fe354 O364 1.935 . S
Fe354 O365 2.077 . S
Fe354 O371 1.935 1_556 S
Fe354 O380 2.077 1_556 S
Fe355 O353 1.715 . S
Fe355 O358 1.886 . S
Fe355 O362 1.935 1_554 S
Fe355 O367 2.077 1_554 S
Fe355 O373 1.935 . S
Fe355 O377 2.077 . S
O356 Fe352 1.715 1_545 S
O356 Fe354 1.886 . S
O357 Fe354 1.715 1_554 S
O357 Fe359 1.886 . S
O358 Fe355 1.886 . S
O358 Fe359 1.715 . S
Fe359 O357 1.886 . S
Fe359 O358 1.715 . S
Fe359 O363 2.077 1_554 S
Fe359 O368 1.935 1_554 S
Fe359 O370 2.077 . S
Fe359 O378 1.935 . S
C360 O372 1.381 . S
C360 O373 1.421 1_565 S
O361 Fe352 2.077 . S
O361 C374 1.381 . S
O362 Fe355 1.935 1_556 S
O362 C374 1.421 1_545 S
O363 Fe359 2.077 1_556 S
O363 C379 1.381 . S
O364 Fe354 1.935 . S
O364 C379 1.421 . S
O365 Fe354 2.077 . S
O365 C369 1.381 1_545 S
O366 Fe352 1.935 . S
O366 C369 1.421 . S
O367 Fe355 2.077 1_556 S
O367 C375 1.381 . S
O368 Fe359 1.935 1_556 S
O368 C375 1.421 . S
C369 O365 1.381 1_565 S
C369 O366 1.421 . S
O370 Fe359 2.077 . S
O370 C382 1.381 . S
O371 Fe354 1.935 1_554 S
O371 C382 1.421 . S
O372 Fe352 2.077 1_554 S
O372 C360 1.381 . S
O373 Fe355 1.935 . S
O373 C360 1.421 1_545 S
C374 O361 1.381 . S
C374 O362 1.421 1_565 S
C375 O367 1.381 . S
C375 O368 1.421 . S
C376 O377 1.381 . S
C376 O378 1.421 . S
O377 Fe355 2.077 . S
O377 C376 1.381 . S
O378 Fe359 1.935 . S
O378 C376 1.421 . S
C379 O363 1.381 . S
C379 O364 1.421 . S
O380 Fe354 2.077 1_554 S
O380 C383 1.381 1_545 S
O381 Fe352 1.935 1_554 S
O381 C383 1.421 . S
C382 O370 1.381 . S
C382 O371 1.421 . S
C383 O380 1.381 1_565 S
C383 O381 1.421 . S
Fe384 O385 1.886 1_455 S
Fe384 O388 1.715 . S
Fe384 O393 2.077 1_455 S
Fe384 O398 1.935 . S
Fe384 O404 2.077 1_455 S
Fe384 O413 1.935 . S
O385 Fe384 1.886 1_655 S
O385 Fe387 1.715 . S
Fe386 O388 1.886 . S
Fe386 O389 1.715 . S
Fe386 O396 1.935 . S
Fe386 O397 2.077 . S
Fe386 O403 1.935 . S
Fe386 O412 2.077 . S
Fe387 O385 1.715 . S
Fe387 O390 1.886 . S
Fe387 O394 1.935 . S
Fe387 O399 2.077 . S
Fe387 O405 1.935 . S
Fe387 O409 2.077 . S
O388 Fe384 1.715 . S
O388 Fe386 1.886 . S
O389 Fe386 1.715 . S
O389 Fe391 1.898 . S
O390 Fe387 1.886 . S
O390 Fe391 1.701 1_655 S
Fe391 O389 1.898 . S
Fe391 O390 1.701 1_455 S
Fe391 O395 2.090 . S
Fe391 O400 1.926 1_455 S
Fe391 O402 2.089 . S
Fe391 O410 1.925 1_455 S
C392 O404 1.381 . S
C392 O405 1.421 . S
O393 Fe384 2.077 1_655 S
O393 C406 1.381 . S
O394 Fe387 1.935 . S
O394 C406 1.421 . S
O395 Fe391 2.090 . S
O395 C411 1.381 . S
O396 Fe386 1.935 . S
O396 C411 1.421 . S
O397 Fe386 2.077 . S
O397 C401 1.381 . S
O398 Fe384 1.935 . S
O398 C401 1.421 . S
O399 Fe387 2.077 . S
O399 C407 1.381 1_554 S
O400 Fe391 1.926 1_655 S
O400 C407 1.421 1_554 S
C401 O397 1.381 . S
C401 O398 1.421 . S
O402 Fe391 2.089 . S
O402 C414 1.381 . S
O403 Fe386 1.935 . S
O403 C414 1.421 . S
O404 Fe384 2.077 1_655 S
O404 C392 1.381 . S
O405 Fe387 1.935 . S
O405 C392 1.421 . S
C406 O393 1.381 . S
C406 O394 1.421 . S
C407 O399 1.381 1_556 S
C407 O400 1.421 1_556 S
C408 O409 1.381 . S
C408 O410 1.421 . S
O409 Fe387 2.077 . S
O409 C408 1.381 . S
O410 Fe391 1.925 1_655 S
O410 C408 1.421 . S
C411 O395 1.381 . S
C411 O396 1.421 . S
O412 Fe386 2.077 . S
O412 C415 1.381 . S
O413 Fe384 1.935 . S
O413 C415 1.421 . S
C414 O402 1.381 . S
C414 O403 1.421 . S
C415 O412 1.381 . S
C415 O413 1.421 . S
Fe416 O417 1.886 . S
Fe416 O420 1.715 . S
Fe416 O425 2.077 . S
Fe416 O430 1.935 . S
Fe416 O436 2.077 . S
Fe416 O445 1.935 . S
O417 Fe416 1.886 . S
O417 Fe419 1.715 1_556 S
Fe418 O420 1.886 1_554 S
Fe418 O421 1.715 . S
Fe418 O428 1.935 . S
Fe418 O429 2.077 1_554 S
Fe418 O435 1.935 . S
Fe418 O444 2.077 1_554 S
Fe419 O417 1.715 1_554 S
Fe419 O422 1.886 . S
Fe419 O426 1.935 . S
Fe419 O431 2.077 . S
Fe419 O437 1.927 1_554 S
Fe419 O441 2.077 . S
O420 Fe416 1.715 . S
O420 Fe418 1.886 1_556 S
O421 Fe418 1.715 . S
O421 Fe423 1.886 . S
O422 Fe419 1.886 . S
O422 Fe423 1.715 . S
Fe423 O421 1.886 . S
Fe423 O422 1.715 . S
Fe423 O427 2.077 . S
Fe423 O432 1.935 . S
Fe423 O434 2.077 . S
Fe423 O442 1.935 . S
C424 O436 1.381 . S
C424 O437 1.435 . S
O425 Fe416 2.077 . S
O425 C438 1.381 . S
O426 Fe419 1.935 . S
O426 C438 1.421 1_554 S
O427 Fe423 2.077 . S
O427 C443 1.381 . S
O428 Fe418 1.935 . S
O428 C443 1.421 . S
O429 Fe418 2.077 1_556 S
O429 C433 1.381 . S
O430 Fe416 1.935 . S
O430 C433 1.421 . S
O431 Fe419 2.077 . S
O431 C439 1.381 . S
O432 Fe423 1.935 . S
O432 C439 1.421 . S
C433 O429 1.381 . S
C433 O430 1.421 . S
O434 Fe423 2.077 . S
O434 C446 1.381 . S
O435 Fe418 1.935 . S
O435 C446 1.421 . S
O436 Fe416 2.077 . S
O436 C424 1.381 . S
O437 Fe419 1.927 1_556 S
O437 C424 1.435 . S
C438 O425 1.381 . S
C438 O426 1.421 1_556 S
C439 O431 1.381 . S
C439 O432 1.421 . S
C440 O441 1.381 . S
C440 O442 1.421 . S
O441 Fe419 2.077 . S
O441 C440 1.381 . S
O442 Fe423 1.935 . S
O442 C440 1.421 . S
C443 O427 1.381 . S
C443 O428 1.421 . S
O444 Fe418 2.077 1_556 S
O444 C447 1.381 . S
O445 Fe416 1.935 . S
O445 C447 1.421 . S
C446 O434 1.381 . S
C446 O435 1.421 . S
C447 O444 1.381 . S
C447 O445 1.421 . S
Fe448 O449 1.886 . S
Fe448 O452 1.715 . S
Fe448 O457 2.077 . S
Fe448 O462 1.935 . S
Fe448 O468 2.077 . S
Fe448 O477 1.935 1_455 S
O449 Fe448 1.886 . S
O449 Fe451 1.715 . S
Fe450 O452 1.886 . S
Fe450 O453 1.715 . S
Fe450 O460 1.935 . S
Fe450 O461 2.077 . S
Fe450 O467 1.935 . S
Fe450 O476 2.084 . S
Fe451 O449 1.715 . S
Fe451 O454 1.886 . S
Fe451 O458 1.935 . S
Fe451 O463 2.077 . S
Fe451 O469 1.935 . S
Fe451 O473 2.077 . S
O452 Fe448 1.715 . S
O452 Fe450 1.886 . S
O453 Fe450 1.715 . S
O453 Fe455 1.886 . S
O454 Fe451 1.886 . S
O454 Fe455 1.715 . S
Fe455 O453 1.886 . S
Fe455 O454 1.715 . S
Fe455 O459 2.077 . S
Fe455 O464 1.935 . S
Fe455 O466 2.077 . S
Fe455 O474 1.935 . S
C456 O468 1.381 1_655 S
C456 O469 1.421 1_655 S
O457 Fe448 2.077 . S
O457 C470 1.381 . S
O458 Fe451 1.935 . S
O458 C470 1.421 . S
O459 Fe455 2.077 . S
O459 C475 1.381 . S
O460 Fe450 1.935 . S
O460 C475 1.421 . S
O461 Fe450 2.077 . S
O461 C465 1.381 . S
O462 Fe448 1.935 . S
O462 C465 1.421 . S
O463 Fe451 2.077 . S
O463 C471 1.381 . S
O464 Fe455 1.935 . S
O464 C471 1.421 . S
C465 O461 1.381 . S
C465 O462 1.421 . S
O466 Fe455 2.077 . S
O466 C478 1.381 1_455 S
O467 Fe450 1.935 . S
O467 C478 1.421 1_455 S
O468 Fe448 2.077 . S
O468 C456 1.381 1_455 S
O469 Fe451 1.935 . S
O469 C456 1.421 1_455 S
C470 O457 1.381 . S
C470 O458 1.421 . S
C471 O463 1.381 . S
C471 O464 1.421 . S
C472 O473 1.381 . S
C472 O474 1.421 . S
O473 Fe451 2.077 . S
O473 C472 1.381 . S
O474 Fe455 1.935 . S
O474 C472 1.421 . S
C475 O459 1.381 . S
C475 O460 1.421 . S
O476 Fe450 2.084 . S
O476 C479 1.378 1_455 S
O477 Fe448 1.935 1_655 S
O477 C479 1.421 . S
C478 O466 1.381 1_655 S
C478 O467 1.421 1_655 S
C479 O476 1.378 1_655 S
C479 O477 1.421 . S
Fe480 O481 1.886 . S
Fe480 O484 1.715 . S
Fe480 O489 2.077 . S
Fe480 O494 1.935 . S
Fe480 O500 2.077 . S
Fe480 O509 1.935 . S
O481 Fe480 1.886 . S
O481 Fe483 1.715 1_565 S
Fe482 O484 1.886 1_545 S
Fe482 O485 1.715 . S
Fe482 O492 1.935 . S
Fe482 O493 2.077 1_545 S
Fe482 O499 1.935 . S
Fe482 O508 2.077 1_545 S
Fe483 O481 1.715 1_545 S
Fe483 O486 1.886 . S
Fe483 O490 1.935 1_545 S
Fe483 O495 2.077 . S
Fe483 O501 1.935 1_545 S
Fe483 O505 2.077 . S
O484 Fe480 1.715 . S
O484 Fe482 1.886 1_565 S
O485 Fe482 1.715 . S
O485 Fe487 1.886 . S
O486 Fe483 1.886 . S
O486 Fe487 1.715 . S
Fe487 O485 1.886 . S
Fe487 O486 1.715 . S
Fe487 O491 2.077 . S
Fe487 O496 1.935 . S
Fe487 O498 2.077 . S
Fe487 O506 1.935 . S
C488 O500 1.381 . S
C488 O501 1.421 . S
O489 Fe480 2.077 . S
O489 C502 1.381 . S
O490 Fe483 1.935 1_565 S
O490 C502 1.421 . S
O491 Fe487 2.077 . S
O491 C507 1.381 . S
O492 Fe482 1.935 . S
O492 C507 1.421 . S
O493 Fe482 2.077 1_565 S
O493 C497 1.381 . S
O494 Fe480 1.935 . S
O494 C497 1.421 . S
O495 Fe483 2.077 . S
O495 C503 1.381 . S
O496 Fe487 1.935 . S
O496 C503 1.421 . S
C497 O493 1.381 . S
C497 O494 1.421 . S
O498 Fe487 2.077 . S
O498 C510 1.381 . S
O499 Fe482 1.935 . S
O499 C510 1.421 . S
O500 Fe480 2.077 . S
O500 C488 1.381 . S
O501 Fe483 1.935 1_565 S
O501 C488 1.421 . S
C502 O489 1.381 . S
C502 O490 1.421 . S
C503 O495 1.381 . S
C503 O496 1.421 . S
C504 O505 1.381 . S
C504 O506 1.421 . S
O505 Fe483 2.077 . S
O505 C504 1.381 . S
O506 Fe487 1.935 . S
O506 C504 1.421 . S
C507 O491 1.381 . S
C507 O492 1.421 . S
O508 Fe482 2.077 1_565 S
O508 C511 1.381 . S
O509 Fe480 1.935 . S
O509 C511 1.421 . S
C510 O498 1.381 . S
C510 O499 1.421 . S
C511 O508 1.381 . S
C511 O509 1.421 . S
H512 C530 0.951 . S
H513 C532 0.951 . S
H514 C534 0.950 . S
H515 C535 0.950 . S
H516 C537 0.950 . S
H517 C540 0.950 . S
H518 C541 0.950 . S
H519 C543 0.950 . S
H520 C544 0.950 . S
H521 C545 0.951 . S
H522 C547 0.951 . S
H523 C549 0.950 . S
H524 C550 0.950 . S
H525 C552 0.950 . S
H526 C555 0.950 . S
H527 C556 0.950 . S
H528 C558 0.950 . S
H529 C559 0.950 . S
C530 H512 0.951 . S
C530 C531 1.366 . S
C530 C532 1.388 . S
C531 C530 1.366 . S
C531 C535 1.385 . S
C532 H513 0.951 . S
C532 C530 1.388 . S
C532 C533 1.366 . S
C533 C532 1.366 . S
C533 C534 1.414 . S
C533 C536 1.499 . S
C534 H514 0.950 . S
C534 C533 1.414 . S
C534 C535 1.374 . S
C535 H515 0.950 . S
C535 C531 1.385 . S
C535 C534 1.374 . S
C536 C533 1.499 . S
C536 C537 1.373 . S
C536 C538 1.389 . S
C537 H516 0.950 . S
C537 C536 1.373 . S
C537 C553 1.377 . S
C538 C536 1.389 . S
C538 C539 1.524 . S
C538 C552 1.377 . S
C539 C538 1.524 . S
C539 C540 1.397 . S
C539 C544 1.363 . S
C540 H517 0.950 . S
C540 C539 1.397 . S
C540 C541 1.334 . S
C541 H518 0.950 . S
C541 C540 1.334 . S
C541 C542 1.287 . S
C542 C541 1.287 . S
C542 C543 1.524 . S
C542 H561 0.913 . S
C543 H519 0.950 . S
C543 C542 1.524 . S
C543 C544 1.415 . S
C544 H520 0.950 . S
C544 C539 1.363 . S
C544 C543 1.415 . S
C545 H521 0.951 . S
C545 C546 1.366 . S
C545 C547 1.388 . S
C546 C545 1.366 . S
C546 C550 1.385 . S
C547 H522 0.951 . S
C547 C545 1.388 . S
C547 C548 1.366 . S
C548 C547 1.366 . S
C548 C549 1.414 . S
C548 C551 1.499 . S
C549 H523 0.950 . S
C549 C548 1.414 . S
C549 C550 1.374 . S
C550 H524 0.950 . S
C550 C546 1.385 . S
C550 C549 1.374 . S
C551 C548 1.499 . S
C551 C552 1.373 . S
C551 C553 1.389 . S
C552 H525 0.950 . S
C552 C538 1.377 . S
C552 C551 1.373 . S
C553 C537 1.377 . S
C553 C551 1.389 . S
C553 C554 1.524 . S
C554 C553 1.524 . S
C554 C555 1.397 . S
C554 C559 1.363 . S
C555 H526 0.950 . S
C555 C554 1.397 . S
C555 C556 1.334 . S
C556 H527 0.950 . S
C556 C555 1.334 . S
C556 C557 1.287 . S
C557 C556 1.287 . S
C557 C558 1.524 . S
C557 H560 0.999 . S
C558 H528 0.950 . S
C558 C557 1.524 . S
C558 C559 1.415 . S
C559 H529 0.950 . S
C559 C554 1.363 . S
C559 C558 1.415 . S
H560 C557 0.999 . S
H561 C542 0.913 . S
H562 C580 0.951 . S
H563 C582 0.951 . S
H564 C584 0.950 . S
H565 C585 0.950 . S
H566 C587 0.950 . S
H567 C590 0.950 . S
H568 C591 0.950 . S
H569 C593 0.950 . S
H570 C594 0.950 . S
H571 C595 0.951 . S
H572 C597 0.951 . S
H573 C599 0.950 . S
H574 C600 0.950 . S
H575 C602 0.950 . S
H576 C605 0.950 . S
H577 C606 0.950 . S
H578 C608 0.950 . S
H579 C609 0.950 . S
C580 H562 0.951 . S
C580 C581 1.366 . S
C580 C582 1.388 . S
C581 C580 1.366 . S
C581 C585 1.385 . S
C582 H563 0.951 . S
C582 C580 1.388 . S
C582 C583 1.366 . S
C583 C582 1.366 . S
C583 C584 1.414 . S
C583 C586 1.499 . S
C584 H564 0.950 . S
C584 C583 1.414 . S
C584 C585 1.374 . S
C585 H565 0.950 . S
C585 C581 1.385 . S
C585 C584 1.374 . S
C586 C583 1.499 . S
C586 C587 1.373 . S
C586 C588 1.389 . S
C587 H566 0.950 . S
C587 C586 1.373 . S
C587 C603 1.377 . S
C588 C586 1.389 . S
C588 C589 1.524 . S
C588 C602 1.377 . S
C589 C588 1.524 . S
C589 C590 1.397 . S
C589 C594 1.363 . S
C590 H567 0.950 . S
C590 C589 1.397 . S
C590 C591 1.334 . S
C591 H568 0.950 . S
C591 C590 1.334 . S
C591 C592 1.287 . S
C592 C591 1.287 . S
C592 C593 1.524 . S
C592 H611 0.913 . S
C593 H569 0.950 . S
C593 C592 1.524 . S
C593 C594 1.415 . S
C594 H570 0.950 . S
C594 C589 1.363 . S
C594 C593 1.415 . S
C595 H571 0.951 . S
C595 C596 1.366 . S
C595 C597 1.388 . S
C596 C595 1.366 . S
C596 C600 1.385 . S
C597 H572 0.951 . S
C597 C595 1.388 . S
C597 C598 1.366 . S
C598 C597 1.366 . S
C598 C599 1.414 . S
C598 C601 1.499 . S
C599 H573 0.950 . S
C599 C598 1.414 . S
C599 C600 1.374 . S
C600 H574 0.950 . S
C600 C596 1.385 . S
C600 C599 1.374 . S
C601 C598 1.499 . S
C601 C602 1.373 . S
C601 C603 1.389 . S
C602 H575 0.950 . S
C602 C588 1.377 . S
C602 C601 1.373 . S
C603 C587 1.377 . S
C603 C601 1.389 . S
C603 C604 1.524 . S
C604 C603 1.524 . S
C604 C605 1.397 . S
C604 C609 1.363 . S
C605 H576 0.950 . S
C605 C604 1.397 . S
C605 C606 1.334 . S
C606 H577 0.950 . S
C606 C605 1.334 . S
C606 C607 1.287 . S
C607 C606 1.287 . S
C607 C608 1.524 . S
C607 H610 0.999 . S
C608 H578 0.950 . S
C608 C607 1.524 . S
C608 C609 1.415 . S
C609 H579 0.950 . S
C609 C604 1.363 . S
C609 C608 1.415 . S
H610 C607 0.999 . S
H611 C592 0.913 . S
H612 C630 0.951 . S
H613 C632 0.951 . S
H614 C634 0.950 . S
H615 C635 0.950 . S
H616 C637 0.950 . S
H617 C640 0.950 . S
H618 C641 0.950 . S
H619 C643 0.950 . S
H620 C644 0.950 . S
H621 C645 0.951 . S
H622 C647 0.951 . S
H623 C649 0.950 . S
H624 C650 0.950 . S
H625 C652 0.950 . S
H626 C655 0.950 . S
H627 C656 0.950 . S
H628 C658 0.950 . S
H629 C659 0.950 . S
C630 H612 0.951 . S
C630 C631 1.366 . S
C630 C632 1.388 . S
C631 C630 1.366 . S
C631 C635 1.385 . S
C632 H613 0.951 . S
C632 C630 1.388 . S
C632 C633 1.366 . S
C633 C632 1.366 . S
C633 C634 1.414 . S
C633 C636 1.499 . S
C634 H614 0.950 . S
C634 C633 1.414 . S
C634 C635 1.374 . S
C635 H615 0.950 . S
C635 C631 1.385 . S
C635 C634 1.374 . S
C636 C633 1.499 . S
C636 C637 1.373 . S
C636 C638 1.389 . S
C637 H616 0.950 . S
C637 C636 1.373 . S
C637 C653 1.377 . S
C638 C636 1.389 . S
C638 C639 1.524 . S
C638 C652 1.377 . S
C639 C638 1.524 . S
C639 C640 1.397 . S
C639 C644 1.363 . S
C640 H617 0.950 . S
C640 C639 1.397 . S
C640 C641 1.334 . S
C641 H618 0.950 . S
C641 C640 1.334 . S
C641 C642 1.287 . S
C642 C641 1.287 . S
C642 C643 1.524 . S
C642 H661 0.913 . S
C643 H619 0.950 . S
C643 C642 1.524 . S
C643 C644 1.415 . S
C644 H620 0.950 . S
C644 C639 1.363 . S
C644 C643 1.415 . S
C645 H621 0.951 . S
C645 C646 1.366 . S
C645 C647 1.388 . S
C646 C645 1.366 . S
C646 C650 1.385 . S
C647 H622 0.951 . S
C647 C645 1.388 . S
C647 C648 1.366 . S
C648 C647 1.366 . S
C648 C649 1.414 . S
C648 C651 1.499 . S
C649 H623 0.950 . S
C649 C648 1.414 . S
C649 C650 1.374 . S
C650 H624 0.950 . S
C650 C646 1.385 . S
C650 C649 1.374 . S
C651 C648 1.499 . S
C651 C652 1.373 . S
C651 C653 1.389 . S
C652 H625 0.950 . S
C652 C638 1.377 . S
C652 C651 1.373 . S
C653 C637 1.377 . S
C653 C651 1.389 . S
C653 C654 1.524 . S
C654 C653 1.524 . S
C654 C655 1.397 . S
C654 C659 1.363 . S
C655 H626 0.950 . S
C655 C654 1.397 . S
C655 C656 1.334 . S
C656 H627 0.950 . S
C656 C655 1.334 . S
C656 C657 1.287 . S
C657 C656 1.287 . S
C657 C658 1.524 . S
C657 H660 0.999 . S
C658 H628 0.950 . S
C658 C657 1.524 . S
C658 C659 1.415 . S
C659 H629 0.950 . S
C659 C654 1.363 . S
C659 C658 1.415 . S
H660 C657 0.999 . S
H661 C642 0.913 . S
H662 C680 0.951 . S
H663 C682 0.951 . S
H664 C684 0.950 . S
H665 C685 0.950 . S
H666 C687 0.950 . S
H667 C690 0.950 . S
H668 C691 0.950 . S
H669 C693 0.950 . S
H670 C694 0.950 . S
H671 C695 0.951 . S
H672 C697 0.951 . S
H673 C699 0.950 . S
H674 C700 0.950 . S
H675 C702 0.950 . S
H676 C705 0.950 . S
H677 C706 0.950 . S
H678 C708 0.950 . S
H679 C709 0.950 . S
C680 H662 0.951 . S
C680 C681 1.366 . S
C680 C682 1.388 . S
C681 C680 1.366 . S
C681 C685 1.385 . S
C682 H663 0.951 . S
C682 C680 1.388 . S
C682 C683 1.366 . S
C683 C682 1.366 . S
C683 C684 1.414 . S
C683 C686 1.499 . S
C684 H664 0.950 . S
C684 C683 1.414 . S
C684 C685 1.374 . S
C685 H665 0.950 . S
C685 C681 1.385 . S
C685 C684 1.374 . S
C686 C683 1.499 . S
C686 C687 1.373 . S
C686 C688 1.389 . S
C687 H666 0.950 . S
C687 C686 1.373 . S
C687 C703 1.377 . S
C688 C686 1.389 . S
C688 C689 1.524 . S
C688 C702 1.377 . S
C689 C688 1.524 . S
C689 C690 1.397 . S
C689 C694 1.363 . S
C690 H667 0.950 . S
C690 C689 1.397 . S
C690 C691 1.334 . S
C691 H668 0.950 . S
C691 C690 1.334 . S
C691 C692 1.287 . S
C692 C691 1.287 . S
C692 C693 1.524 . S
C692 H711 0.913 . S
C693 H669 0.950 . S
C693 C692 1.524 . S
C693 C694 1.415 . S
C694 H670 0.950 . S
C694 C689 1.363 . S
C694 C693 1.415 . S
C695 H671 0.951 . S
C695 C696 1.366 . S
C695 C697 1.388 . S
C696 C695 1.366 . S
C696 C700 1.385 . S
C697 H672 0.951 . S
C697 C695 1.388 . S
C697 C698 1.366 . S
C698 C697 1.366 . S
C698 C699 1.414 . S
C698 C701 1.499 . S
C699 H673 0.950 . S
C699 C698 1.414 . S
C699 C700 1.374 . S
C700 H674 0.950 . S
C700 C696 1.385 . S
C700 C699 1.374 . S
C701 C698 1.499 . S
C701 C702 1.373 . S
C701 C703 1.389 . S
C702 H675 0.950 . S
C702 C688 1.377 . S
C702 C701 1.373 . S
C703 C687 1.377 . S
C703 C701 1.389 . S
C703 C704 1.524 . S
C704 C703 1.524 . S
C704 C705 1.397 . S
C704 C709 1.363 . S
C705 H676 0.950 . S
C705 C704 1.397 . S
C705 C706 1.334 . S
C706 H677 0.950 . S
C706 C705 1.334 . S
C706 C707 1.287 . S
C707 C706 1.287 . S
C707 C708 1.524 . S
C707 H710 0.999 . S
C708 H678 0.950 . S
C708 C707 1.524 . S
C708 C709 1.415 . S
C709 H679 0.950 . S
C709 C704 1.363 . S
C709 C708 1.415 . S
H710 C707 0.999 . S
H711 C692 0.913 . S
H712 C730 0.951 . S
H713 C732 0.951 . S
H714 C734 0.950 . S
H715 C735 0.950 . S
H716 C737 0.950 . S
H717 C740 0.950 . S
H718 C741 0.950 . S
H719 C743 0.950 . S
H720 C744 0.950 . S
H721 C745 0.951 . S
H722 C747 0.951 . S
H723 C749 0.950 . S
H724 C750 0.950 . S
H725 C752 0.950 . S
H726 C755 0.950 . S
H727 C756 0.950 . S
H728 C758 0.950 . S
H729 C759 0.950 . S
C730 H712 0.951 . S
C730 C731 1.366 . S
C730 C732 1.388 . S
C731 C730 1.366 . S
C731 C735 1.385 . S
C732 H713 0.951 . S
C732 C730 1.388 . S
C732 C733 1.366 . S
C733 C732 1.366 . S
C733 C734 1.414 . S
C733 C736 1.499 . S
C734 H714 0.950 . S
C734 C733 1.414 . S
C734 C735 1.374 . S
C735 H715 0.950 . S
C735 C731 1.385 . S
C735 C734 1.374 . S
C736 C733 1.499 . S
C736 C737 1.373 . S
C736 C738 1.389 . S
C737 H716 0.950 . S
C737 C736 1.373 . S
C737 C753 1.377 . S
C738 C736 1.389 . S
C738 C739 1.524 . S
C738 C752 1.377 . S
C739 C738 1.524 . S
C739 C740 1.397 . S
C739 C744 1.363 . S
C740 H717 0.950 . S
C740 C739 1.397 . S
C740 C741 1.334 . S
C741 H718 0.950 . S
C741 C740 1.334 . S
C741 C742 1.287 . S
C742 C741 1.287 . S
C742 C743 1.524 . S
C742 H761 0.913 . S
C743 H719 0.950 . S
C743 C742 1.524 . S
C743 C744 1.415 . S
C744 H720 0.950 . S
C744 C739 1.363 . S
C744 C743 1.415 . S
C745 H721 0.951 . S
C745 C746 1.366 . S
C745 C747 1.388 . S
C746 C745 1.366 . S
C746 C750 1.385 . S
C747 H722 0.951 . S
C747 C745 1.388 . S
C747 C748 1.366 . S
C748 C747 1.366 . S
C748 C749 1.414 . S
C748 C751 1.499 . S
C749 H723 0.950 . S
C749 C748 1.414 . S
C749 C750 1.374 . S
C750 H724 0.950 . S
C750 C746 1.385 . S
C750 C749 1.374 . S
C751 C748 1.499 . S
C751 C752 1.373 . S
C751 C753 1.389 . S
C752 H725 0.950 . S
C752 C738 1.377 . S
C752 C751 1.373 . S
C753 C737 1.377 . S
C753 C751 1.389 . S
C753 C754 1.524 . S
C754 C753 1.524 . S
C754 C755 1.397 . S
C754 C759 1.363 . S
C755 H726 0.950 . S
C755 C754 1.397 . S
C755 C756 1.334 . S
C756 H727 0.950 . S
C756 C755 1.334 . S
C756 C757 1.287 . S
C757 C756 1.287 . S
C757 C758 1.524 . S
C757 H760 0.999 . S
C758 H728 0.950 . S
C758 C757 1.524 . S
C758 C759 1.415 . S
C759 H729 0.950 . S
C759 C754 1.363 . S
C759 C758 1.415 . S
H760 C757 0.999 . S
H761 C742 0.913 . S
H762 C780 0.951 . S
H763 C782 0.951 . S
H764 C784 0.950 . S
H765 C785 0.950 . S
H766 C787 0.950 . S
H767 C790 0.950 . S
H768 C791 0.950 . S
H769 C793 0.950 . S
H770 C794 0.950 . S
H771 C795 0.951 . S
H772 C797 0.951 . S
H773 C799 0.950 . S
H774 C800 0.950 . S
H775 C802 0.950 . S
H776 C805 0.950 . S
H777 C806 0.950 . S
H778 C808 0.950 . S
H779 C809 0.950 . S
C780 H762 0.951 . S
C780 C781 1.366 . S
C780 C782 1.388 . S
C781 C780 1.366 . S
C781 C785 1.385 . S
C782 H763 0.951 . S
C782 C780 1.388 . S
C782 C783 1.366 . S
C783 C782 1.366 . S
C783 C784 1.414 . S
C783 C786 1.499 . S
C784 H764 0.950 . S
C784 C783 1.414 . S
C784 C785 1.374 . S
C785 H765 0.950 . S
C785 C781 1.385 . S
C785 C784 1.374 . S
C786 C783 1.499 . S
C786 C787 1.373 . S
C786 C788 1.389 . S
C787 H766 0.950 . S
C787 C786 1.373 . S
C787 C803 1.377 . S
C788 C786 1.389 . S
C788 C789 1.524 . S
C788 C802 1.377 . S
C789 C788 1.524 . S
C789 C790 1.397 . S
C789 C794 1.363 . S
C790 H767 0.950 . S
C790 C789 1.397 . S
C790 C791 1.334 . S
C791 H768 0.950 . S
C791 C790 1.334 . S
C791 C792 1.287 . S
C792 C791 1.287 . S
C792 C793 1.524 . S
C792 H811 0.913 . S
C793 H769 0.950 . S
C793 C792 1.524 . S
C793 C794 1.415 . S
C794 H770 0.950 . S
C794 C789 1.363 . S
C794 C793 1.415 . S
C795 H771 0.951 . S
C795 C796 1.366 . S
C795 C797 1.388 . S
C796 C795 1.366 . S
C796 C800 1.385 . S
C797 H772 0.951 . S
C797 C795 1.388 . S
C797 C798 1.366 . S
C798 C797 1.366 . S
C798 C799 1.414 . S
C798 C801 1.499 . S
C799 H773 0.950 . S
C799 C798 1.414 . S
C799 C800 1.374 . S
C800 H774 0.950 . S
C800 C796 1.385 . S
C800 C799 1.374 . S
C801 C798 1.499 . S
C801 C802 1.373 . S
C801 C803 1.389 . S
C802 H775 0.950 . S
C802 C788 1.377 . S
C802 C801 1.373 . S
C803 C787 1.377 . S
C803 C801 1.389 . S
C803 C804 1.524 . S
C804 C803 1.524 . S
C804 C805 1.397 . S
C804 C809 1.363 . S
C805 H776 0.950 . S
C805 C804 1.397 . S
C805 C806 1.334 . S
C806 H777 0.950 . S
C806 C805 1.334 . S
C806 C807 1.287 . S
C807 C806 1.287 . S
C807 C808 1.524 . S
C807 H810 0.999 . S
C808 H778 0.950 . S
C808 C807 1.524 . S
C808 C809 1.415 . S
C809 H779 0.950 . S
C809 C804 1.363 . S
C809 C808 1.415 . S
H810 C807 0.999 . S
H811 C792 0.913 . S
H812 C830 0.951 . S
H813 C832 0.951 . S
H814 C834 0.950 . S
H815 C835 0.950 . S
H816 C837 0.950 . S
H817 C840 0.950 . S
H818 C841 0.950 . S
H819 C843 0.950 . S
H820 C844 0.950 . S
H821 C845 0.951 . S
H822 C847 0.951 . S
H823 C849 0.950 . S
H824 C850 0.950 1_455 S
H825 C852 0.950 . S
H826 C855 0.950 . S
H827 C856 0.950 . S
H828 C858 0.950 . S
H829 C859 0.950 . S
C830 H812 0.951 . S
C830 C831 1.366 . S
C830 C832 1.388 . S
C831 C830 1.366 . S
C831 C835 1.385 . S
C832 H813 0.951 . S
C832 C830 1.388 . S
C832 C833 1.366 . S
C833 C832 1.366 . S
C833 C834 1.414 . S
C833 C836 1.499 . S
C834 H814 0.950 . S
C834 C833 1.414 . S
C834 C835 1.374 . S
C835 H815 0.950 . S
C835 C831 1.385 . S
C835 C834 1.374 . S
C836 C833 1.499 . S
C836 C837 1.373 . S
C836 C838 1.389 . S
C837 H816 0.950 . S
C837 C836 1.373 . S
C837 C853 1.377 . S
C838 C836 1.389 . S
C838 C839 1.524 . S
C838 C852 1.377 . S
C839 C838 1.524 . S
C839 C840 1.397 . S
C839 C844 1.363 . S
C840 H817 0.950 . S
C840 C839 1.397 . S
C840 C841 1.334 . S
C841 H818 0.950 . S
C841 C840 1.334 . S
C841 C842 1.287 1_655 S
C842 C841 1.287 1_455 S
C842 C843 1.524 . S
C842 H861 0.913 . S
C843 H819 0.950 . S
C843 C842 1.524 . S
C843 C844 1.415 1_455 S
C844 H820 0.950 . S
C844 C839 1.363 . S
C844 C843 1.415 1_655 S
C845 H821 0.951 . S
C845 C846 1.366 . S
C845 C847 1.388 . S
C846 C845 1.366 . S
C846 C850 1.385 . S
C847 H822 0.951 . S
C847 C845 1.388 . S
C847 C848 1.366 . S
C848 C847 1.366 . S
C848 C849 1.414 . S
C848 C851 1.499 . S
C849 H823 0.950 . S
C849 C848 1.414 . S
C849 C850 1.374 . S
C850 H824 0.950 1_655 S
C850 C846 1.385 . S
C850 C849 1.374 . S
C851 C848 1.499 . S
C851 C852 1.373 . S
C851 C853 1.389 . S
C852 H825 0.950 . S
C852 C838 1.377 . S
C852 C851 1.373 . S
C853 C837 1.377 . S
C853 C851 1.389 . S
C853 C854 1.524 . S
C854 C853 1.524 . S
C854 C855 1.397 . S
C854 C859 1.363 . S
C855 H826 0.950 . S
C855 C854 1.397 . S
C855 C856 1.334 . S
C856 H827 0.950 . S
C856 C855 1.334 . S
C856 C857 1.287 . S
C857 C856 1.287 . S
C857 C858 1.524 . S
C857 H860 0.999 . S
C858 H828 0.950 . S
C858 C857 1.524 . S
C858 C859 1.415 . S
C859 H829 0.950 . S
C859 C854 1.363 . S
C859 C858 1.415 . S
H860 C857 0.999 . S
H861 C842 0.913 . S
H862 C880 0.951 . S
H863 C882 0.951 . S
H864 C884 0.950 . S
H865 C885 0.950 . S
H866 C887 0.950 . S
H867 C890 0.950 . S
H868 C891 0.950 . S
H869 C893 0.950 . S
H870 C894 0.950 . S
H871 C895 0.951 . S
H872 C897 0.951 . S
H873 C899 0.950 . S
H874 C900 0.950 . S
H875 C902 0.950 . S
H876 C905 0.950 . S
H877 C906 0.950 . S
H878 C908 0.950 . S
H879 C909 0.950 . S
C880 H862 0.951 . S
C880 C881 1.366 . S
C880 C882 1.388 . S
C881 C880 1.366 . S
C881 C885 1.385 . S
C882 H863 0.951 . S
C882 C880 1.388 . S
C882 C883 1.366 . S
C883 C882 1.366 . S
C883 C884 1.414 . S
C883 C886 1.499 . S
C884 H864 0.950 . S
C884 C883 1.414 . S
C884 C885 1.374 . S
C885 H865 0.950 . S
C885 C881 1.385 . S
C885 C884 1.374 . S
C886 C883 1.499 . S
C886 C887 1.373 . S
C886 C888 1.389 . S
C887 H866 0.950 . S
C887 C886 1.373 . S
C887 C903 1.377 . S
C888 C886 1.389 . S
C888 C889 1.524 . S
C888 C902 1.377 . S
C889 C888 1.524 . S
C889 C890 1.397 . S
C889 C894 1.363 . S
C890 H867 0.950 . S
C890 C889 1.397 . S
C890 C891 1.334 . S
C891 H868 0.950 . S
C891 C890 1.334 . S
C891 C892 1.287 . S
C892 C891 1.287 . S
C892 C893 1.524 . S
C892 H911 0.913 . S
C893 H869 0.950 . S
C893 C892 1.524 . S
C893 C894 1.415 . S
C894 H870 0.950 . S
C894 C889 1.363 . S
C894 C893 1.415 . S
C895 H871 0.951 . S
C895 C896 1.366 . S
C895 C897 1.388 . S
C896 C895 1.366 . S
C896 C900 1.385 . S
C897 H872 0.951 . S
C897 C895 1.388 . S
C897 C898 1.366 . S
C898 C897 1.366 . S
C898 C899 1.414 . S
C898 C901 1.499 . S
C899 H873 0.950 . S
C899 C898 1.414 . S
C899 C900 1.374 . S
C900 H874 0.950 . S
C900 C896 1.385 . S
C900 C899 1.374 . S
C901 C898 1.499 . S
C901 C902 1.373 . S
C901 C903 1.389 . S
C902 H875 0.950 . S
C902 C888 1.377 . S
C902 C901 1.373 . S
C903 C887 1.377 . S
C903 C901 1.389 . S
C903 C904 1.524 . S
C904 C903 1.524 . S
C904 C905 1.397 . S
C904 C909 1.363 . S
C905 H876 0.950 . S
C905 C904 1.397 . S
C905 C906 1.334 . S
C906 H877 0.950 . S
C906 C905 1.334 . S
C906 C907 1.287 . S
C907 C906 1.287 . S
C907 C908 1.524 . S
C907 H910 0.999 . S
C908 H878 0.950 . S
C908 C907 1.524 . S
C908 C909 1.415 . S
C909 H879 0.950 . S
C909 C904 1.363 . S
C909 C908 1.415 . S
H910 C907 0.999 . S
H911 C892 0.913 . S
H912 C930 0.951 . S
H913 C932 0.951 . S
H914 C934 0.950 . S
H915 C935 0.950 . S
H916 C937 0.950 . S
H917 C940 0.950 . S
H918 C941 0.950 . S
H919 C943 0.950 . S
H920 C944 0.950 . S
H921 C945 0.951 . S
H922 C947 0.951 . S
H923 C949 0.950 . S
H924 C950 0.950 . S
H925 C952 0.950 . S
H926 C955 0.950 . S
H927 C956 0.950 . S
H928 C958 0.950 . S
H929 C959 0.950 . S
C930 H912 0.951 . S
C930 C931 1.366 . S
C930 C932 1.388 . S
C931 C930 1.366 . S
C931 C935 1.385 . S
C932 H913 0.951 . S
C932 C930 1.388 . S
C932 C933 1.366 . S
C933 C932 1.366 . S
C933 C934 1.414 . S
C933 C936 1.499 . S
C934 H914 0.950 . S
C934 C933 1.414 . S
C934 C935 1.374 . S
C935 H915 0.950 . S
C935 C931 1.385 . S
C935 C934 1.374 . S
C936 C933 1.499 . S
C936 C937 1.373 . S
C936 C938 1.389 . S
C937 H916 0.950 . S
C937 C936 1.373 . S
C937 C953 1.377 . S
C938 C936 1.389 . S
C938 C939 1.524 . S
C938 C952 1.377 . S
C939 C938 1.524 . S
C939 C940 1.397 . S
C939 C944 1.363 . S
C940 H917 0.950 . S
C940 C939 1.397 . S
C940 C941 1.334 . S
C941 H918 0.950 . S
C941 C940 1.334 . S
C941 C942 1.287 . S
C942 C941 1.287 . S
C942 C943 1.524 . S
C942 H961 0.913 . S
C943 H919 0.950 . S
C943 C942 1.524 . S
C943 C944 1.415 . S
C944 H920 0.950 . S
C944 C939 1.363 . S
C944 C943 1.415 . S
C945 H921 0.951 . S
C945 C946 1.366 . S
C945 C947 1.388 . S
C946 C945 1.366 . S
C946 C950 1.385 . S
C947 H922 0.951 . S
C947 C945 1.388 . S
C947 C948 1.366 . S
C948 C947 1.366 . S
C948 C949 1.414 . S
C948 C951 1.499 . S
C949 H923 0.950 . S
C949 C948 1.414 . S
C949 C950 1.374 . S
C950 H924 0.950 . S
C950 C946 1.385 . S
C950 C949 1.374 . S
C951 C948 1.499 . S
C951 C952 1.373 . S
C951 C953 1.389 . S
C952 H925 0.950 . S
C952 C938 1.377 . S
C952 C951 1.373 . S
C953 C937 1.377 . S
C953 C951 1.389 . S
C953 C954 1.524 . S
C954 C953 1.524 . S
C954 C955 1.397 . S
C954 C959 1.363 . S
C955 H926 0.950 . S
C955 C954 1.397 . S
C955 C956 1.334 . S
C956 H927 0.950 . S
C956 C955 1.334 . S
C956 C957 1.287 . S
C957 C956 1.287 . S
C957 C958 1.524 . S
C957 H960 0.999 . S
C958 H928 0.950 . S
C958 C957 1.524 . S
C958 C959 1.415 . S
C959 H929 0.950 . S
C959 C954 1.363 . S
C959 C958 1.415 . S
H960 C957 0.999 . S
H961 C942 0.913 . S
H962 C980 0.951 . S
H963 C982 0.951 . S
H964 C984 0.950 . S
H965 C985 0.950 . S
H966 C987 0.950 . S
H967 C990 0.950 . S
H968 C991 0.950 . S
H969 C993 0.950 . S
H970 C994 0.950 . S
H971 C995 0.951 . S
H972 C997 0.951 . S
H973 C999 0.950 . S
H974 C1000 0.950 . S
H975 C1002 0.950 . S
H976 C1005 0.950 . S
H977 C1006 0.950 . S
H978 C1008 0.950 . S
H979 C1009 0.950 . S
C980 H962 0.951 . S
C980 C981 1.366 . S
C980 C982 1.388 . S
C981 C980 1.366 . S
C981 C985 1.385 . S
C982 H963 0.951 . S
C982 C980 1.388 . S
C982 C983 1.366 . S
C983 C982 1.366 . S
C983 C984 1.414 . S
C983 C986 1.499 . S
C984 H964 0.950 . S
C984 C983 1.414 . S
C984 C985 1.374 . S
C985 H965 0.950 . S
C985 C981 1.385 . S
C985 C984 1.374 . S
C986 C983 1.499 . S
C986 C987 1.373 . S
C986 C988 1.389 . S
C987 H966 0.950 . S
C987 C986 1.373 . S
C987 C1003 1.377 . S
C988 C986 1.389 . S
C988 C989 1.524 . S
C988 C1002 1.377 . S
C989 C988 1.524 . S
C989 C990 1.397 . S
C989 C994 1.363 . S
C990 H967 0.950 . S
C990 C989 1.397 . S
C990 C991 1.334 . S
C991 H968 0.950 . S
C991 C990 1.334 . S
C991 C992 1.287 . S
C992 C991 1.287 . S
C992 C993 1.524 . S
C992 H1011 0.913 . S
C993 H969 0.950 . S
C993 C992 1.524 . S
C993 C994 1.415 . S
C994 H970 0.950 . S
C994 C989 1.363 . S
C994 C993 1.415 . S
C995 H971 0.951 . S
C995 C996 1.366 . S
C995 C997 1.388 . S
C996 C995 1.366 . S
C996 C1000 1.385 . S
C997 H972 0.951 . S
C997 C995 1.388 . S
C997 C998 1.366 . S
C998 C997 1.366 . S
C998 C999 1.414 . S
C998 C1001 1.499 . S
C999 H973 0.950 . S
C999 C998 1.414 . S
C999 C1000 1.374 . S
C1000 H974 0.950 . S
C1000 C996 1.385 . S
C1000 C999 1.374 . S
C1001 C998 1.499 . S
C1001 C1002 1.373 . S
C1001 C1003 1.389 . S
C1002 H975 0.950 . S
C1002 C988 1.377 . S
C1002 C1001 1.373 . S
C1003 C987 1.377 . S
C1003 C1001 1.389 . S
C1003 C1004 1.524 . S
C1004 C1003 1.524 . S
C1004 C1005 1.397 . S
C1004 C1009 1.363 . S
C1005 H976 0.950 . S
C1005 C1004 1.397 . S
C1005 C1006 1.334 . S
C1006 H977 0.950 . S
C1006 C1005 1.334 . S
C1006 C1007 1.287 1_655 S
C1007 C1006 1.287 1_455 S
C1007 C1008 1.524 . S
C1007 H1010 0.999 . S
C1008 H978 0.950 . S
C1008 C1007 1.524 . S
C1008 C1009 1.415 1_455 S
C1009 H979 0.950 . S
C1009 C1004 1.363 . S
C1009 C1008 1.415 1_655 S
H1010 C1007 0.999 . S
H1011 C992 0.913 . S
H1012 C1030 0.951 . S
H1013 C1032 0.951 . S
H1014 C1034 0.950 . S
H1015 C1035 0.950 . S
H1016 C1037 0.950 . S
H1017 C1040 0.950 . S
H1018 C1041 0.950 . S
H1019 C1043 0.950 . S
H1020 C1044 0.950 . S
H1021 C1045 0.951 . S
H1022 C1047 0.951 . S
H1023 C1049 0.950 . S
H1024 C1050 0.946 . S
H1025 C1052 0.950 . S
H1026 C1055 0.950 . S
H1027 C1056 0.950 . S
H1028 C1058 0.950 . S
H1029 C1059 0.950 . S
C1030 H1012 0.951 . S
C1030 C1031 1.366 . S
C1030 C1032 1.388 . S
C1031 C1030 1.366 . S
C1031 C1035 1.385 . S
C1032 H1013 0.951 . S
C1032 C1030 1.388 . S
C1032 C1033 1.366 . S
C1033 C1032 1.366 . S
C1033 C1034 1.414 . S
C1033 C1036 1.499 . S
C1034 H1014 0.950 . S
C1034 C1033 1.414 . S
C1034 C1035 1.374 . S
C1035 H1015 0.950 . S
C1035 C1031 1.385 . S
C1035 C1034 1.374 . S
C1036 C1033 1.499 . S
C1036 C1037 1.373 . S
C1036 C1038 1.389 . S
C1037 H1016 0.950 . S
C1037 C1036 1.373 . S
C1037 C1053 1.377 . S
C1038 C1036 1.389 . S
C1038 C1039 1.524 . S
C1038 C1052 1.377 . S
C1039 C1038 1.524 . S
C1039 C1040 1.397 . S
C1039 C1044 1.363 . S
C1040 H1017 0.950 . S
C1040 C1039 1.397 . S
C1040 C1041 1.334 . S
C1041 H1018 0.950 . S
C1041 C1040 1.334 . S
C1041 C1042 1.287 . S
C1042 C1041 1.287 . S
C1042 C1043 1.524 1_565 S
C1042 H1061 0.913 1_565 S
C1043 H1019 0.950 . S
C1043 C1042 1.524 1_545 S
C1043 C1044 1.415 1_545 S
C1044 H1020 0.950 . S
C1044 C1039 1.363 . S
C1044 C1043 1.415 1_565 S
C1045 H1021 0.951 . S
C1045 C1046 1.366 . S
C1045 C1047 1.388 . S
C1046 C1045 1.366 . S
C1046 C1050 1.386 1_565 S
C1047 H1022 0.951 . S
C1047 C1045 1.388 . S
C1047 C1048 1.366 . S
C1048 C1047 1.366 . S
C1048 C1049 1.414 . S
C1048 C1051 1.499 . S
C1049 H1023 0.950 . S
C1049 C1048 1.414 . S
C1049 C1050 1.377 1_565 S
C1050 H1024 0.946 . S
C1050 C1046 1.386 1_545 S
C1050 C1049 1.377 1_545 S
C1051 C1048 1.499 . S
C1051 C1052 1.373 . S
C1051 C1053 1.389 . S
C1052 H1025 0.950 . S
C1052 C1038 1.377 . S
C1052 C1051 1.373 . S
C1053 C1037 1.377 . S
C1053 C1051 1.389 . S
C1053 C1054 1.524 . S
C1054 C1053 1.524 . S
C1054 C1055 1.397 . S
C1054 C1059 1.363 . S
C1055 H1026 0.950 . S
C1055 C1054 1.397 . S
C1055 C1056 1.334 . S
C1056 H1027 0.950 . S
C1056 C1055 1.334 . S
C1056 C1057 1.287 . S
C1057 C1056 1.287 . S
C1057 C1058 1.524 . S
C1057 H1060 0.999 . S
C1058 H1028 0.950 . S
C1058 C1057 1.524 . S
C1058 C1059 1.415 . S
C1059 H1029 0.950 . S
C1059 C1054 1.363 . S
C1059 C1058 1.415 . S
H1060 C1057 0.999 . S
H1061 C1042 0.913 1_545 S
H1062 C1080 0.951 . S
H1063 C1082 0.951 . S
H1064 C1084 0.950 . S
H1065 C1085 0.950 . S
H1066 C1087 0.950 . S
H1067 C1090 0.950 . S
H1068 C1091 0.950 . S
H1069 C1093 0.950 . S
H1070 C1094 0.950 . S
H1071 C1095 0.951 . S
H1072 C1097 0.951 . S
H1073 C1099 0.950 . S
H1074 C1100 0.950 . S
H1075 C1102 0.950 . S
H1076 C1105 0.950 . S
H1077 C1106 0.950 . S
H1078 C1108 0.950 . S
H1079 C1109 0.950 . S
C1080 H1062 0.951 . S
C1080 C1081 1.366 . S
C1080 C1082 1.388 . S
C1081 C1080 1.366 . S
C1081 C1085 1.385 . S
C1082 H1063 0.951 . S
C1082 C1080 1.388 . S
C1082 C1083 1.366 . S
C1083 C1082 1.366 . S
C1083 C1084 1.414 . S
C1083 C1086 1.499 . S
C1084 H1064 0.950 . S
C1084 C1083 1.414 . S
C1084 C1085 1.374 . S
C1085 H1065 0.950 . S
C1085 C1081 1.385 . S
C1085 C1084 1.374 . S
C1086 C1083 1.499 . S
C1086 C1087 1.373 . S
C1086 C1088 1.389 . S
C1087 H1066 0.950 . S
C1087 C1086 1.373 . S
C1087 C1103 1.377 . S
C1088 C1086 1.389 . S
C1088 C1089 1.524 . S
C1088 C1102 1.377 . S
C1089 C1088 1.524 . S
C1089 C1090 1.397 . S
C1089 C1094 1.363 . S
C1090 H1067 0.950 . S
C1090 C1089 1.397 . S
C1090 C1091 1.334 . S
C1091 H1068 0.950 . S
C1091 C1090 1.334 . S
C1091 C1092 1.287 . S
C1092 C1091 1.287 . S
C1092 C1093 1.524 . S
C1092 H1111 0.913 . S
C1093 H1069 0.950 . S
C1093 C1092 1.524 . S
C1093 C1094 1.415 . S
C1094 H1070 0.950 . S
C1094 C1089 1.363 . S
C1094 C1093 1.415 . S
C1095 H1071 0.951 . S
C1095 C1096 1.366 . S
C1095 C1097 1.388 . S
C1096 C1095 1.366 . S
C1096 C1100 1.385 . S
C1097 H1072 0.951 . S
C1097 C1095 1.388 . S
C1097 C1098 1.366 . S
C1098 C1097 1.366 . S
C1098 C1099 1.414 . S
C1098 C1101 1.499 . S
C1099 H1073 0.950 . S
C1099 C1098 1.414 . S
C1099 C1100 1.374 . S
C1100 H1074 0.950 . S
C1100 C1096 1.385 . S
C1100 C1099 1.374 . S
C1101 C1098 1.499 . S
C1101 C1102 1.373 . S
C1101 C1103 1.389 . S
C1102 H1075 0.950 . S
C1102 C1088 1.377 . S
C1102 C1101 1.373 . S
C1103 C1087 1.377 . S
C1103 C1101 1.389 . S
C1103 C1104 1.524 . S
C1104 C1103 1.524 . S
C1104 C1105 1.397 . S
C1104 C1109 1.363 . S
C1105 H1076 0.950 . S
C1105 C1104 1.397 . S
C1105 C1106 1.334 . S
C1106 H1077 0.950 . S
C1106 C1105 1.334 . S
C1106 C1107 1.287 . S
C1107 C1106 1.287 . S
C1107 C1108 1.524 . S
C1107 H1110 0.999 . S
C1108 H1078 0.950 . S
C1108 C1107 1.524 . S
C1108 C1109 1.415 . S
C1109 H1079 0.950 . S
C1109 C1104 1.363 . S
C1109 C1108 1.415 . S
H1110 C1107 0.999 . S
H1111 C1092 0.913 . S
H1112 C1130 0.951 . S
H1113 C1132 0.951 . S
H1114 C1134 0.950 . S
H1115 C1135 0.950 . S
H1116 C1137 0.950 . S
H1117 C1140 0.950 . S
H1118 C1141 0.950 . S
H1119 C1143 0.950 . S
H1120 C1144 0.950 . S
H1121 C1145 0.951 . S
H1122 C1147 0.951 . S
H1123 C1149 0.950 . S
H1124 C1150 0.950 . S
H1125 C1152 0.950 . S
H1126 C1155 0.950 . S
H1127 C1156 0.950 . S
H1128 C1158 0.950 . S
H1129 C1159 0.950 . S
C1130 H1112 0.951 . S
C1130 C1131 1.366 . S
C1130 C1132 1.388 . S
C1131 C1130 1.366 . S
C1131 C1135 1.385 . S
C1132 H1113 0.951 . S
C1132 C1130 1.388 . S
C1132 C1133 1.366 . S
C1133 C1132 1.366 . S
C1133 C1134 1.414 . S
C1133 C1136 1.499 . S
C1134 H1114 0.950 . S
C1134 C1133 1.414 . S
C1134 C1135 1.374 . S
C1135 H1115 0.950 . S
C1135 C1131 1.385 . S
C1135 C1134 1.374 . S
C1136 C1133 1.499 . S
C1136 C1137 1.373 . S
C1136 C1138 1.389 . S
C1137 H1116 0.950 . S
C1137 C1136 1.373 . S
C1137 C1153 1.377 . S
C1138 C1136 1.389 . S
C1138 C1139 1.524 . S
C1138 C1152 1.377 . S
C1139 C1138 1.524 . S
C1139 C1140 1.397 . S
C1139 C1144 1.363 . S
C1140 H1117 0.950 . S
C1140 C1139 1.397 . S
C1140 C1141 1.334 . S
C1141 H1118 0.950 . S
C1141 C1140 1.334 . S
C1141 C1142 1.287 . S
C1142 C1141 1.287 . S
C1142 C1143 1.524 . S
C1142 H1161 0.913 . S
C1143 H1119 0.950 . S
C1143 C1142 1.524 . S
C1143 C1144 1.415 . S
C1144 H1120 0.950 . S
C1144 C1139 1.363 . S
C1144 C1143 1.415 . S
C1145 H1121 0.951 . S
C1145 C1146 1.366 . S
C1145 C1147 1.388 . S
C1146 C1145 1.366 . S
C1146 C1150 1.385 . S
C1147 H1122 0.951 . S
C1147 C1145 1.388 . S
C1147 C1148 1.366 . S
C1148 C1147 1.366 . S
C1148 C1149 1.414 . S
C1148 C1151 1.499 . S
C1149 H1123 0.950 . S
C1149 C1148 1.414 . S
C1149 C1150 1.374 . S
C1150 H1124 0.950 . S
C1150 C1146 1.385 . S
C1150 C1149 1.374 . S
C1151 C1148 1.499 . S
C1151 C1152 1.373 . S
C1151 C1153 1.389 . S
C1152 H1125 0.950 . S
C1152 C1138 1.377 . S
C1152 C1151 1.373 . S
C1153 C1137 1.377 . S
C1153 C1151 1.389 . S
C1153 C1154 1.524 . S
C1154 C1153 1.524 . S
C1154 C1155 1.397 . S
C1154 C1159 1.363 . S
C1155 H1126 0.950 . S
C1155 C1154 1.397 . S
C1155 C1156 1.334 . S
C1156 H1127 0.950 . S
C1156 C1155 1.334 . S
C1156 C1157 1.287 . S
C1157 C1156 1.287 . S
C1157 C1158 1.524 . S
C1157 H1160 0.999 . S
C1158 H1128 0.950 . S
C1158 C1157 1.524 . S
C1158 C1159 1.415 . S
C1159 H1129 0.950 . S
C1159 C1154 1.363 . S
C1159 C1158 1.415 . S
H1160 C1157 0.999 . S
H1161 C1142 0.913 . S
H1162 C1180 0.951 . S
H1163 C1182 0.951 . S
H1164 C1184 0.950 . S
H1165 C1185 0.950 . S
H1166 C1187 0.950 . S
H1167 C1190 0.950 . S
H1168 C1191 0.950 . S
H1169 C1193 0.950 . S
H1170 C1194 0.950 . S
H1171 C1195 0.951 . S
H1172 C1197 0.951 . S
H1173 C1199 0.950 . S
H1174 C1200 0.950 . S
H1175 C1202 0.950 . S
H1176 C1205 0.950 . S
H1177 C1206 0.950 1_655 S
H1178 C1208 0.950 . S
H1179 C1209 0.950 . S
C1180 H1162 0.951 . S
C1180 C1181 1.366 . S
C1180 C1182 1.388 . S
C1181 C1180 1.366 . S
C1181 C1185 1.385 . S
C1182 H1163 0.951 . S
C1182 C1180 1.388 . S
C1182 C1183 1.366 . S
C1183 C1182 1.366 . S
C1183 C1184 1.414 . S
C1183 C1186 1.499 . S
C1184 H1164 0.950 . S
C1184 C1183 1.414 . S
C1184 C1185 1.374 . S
C1185 H1165 0.950 . S
C1185 C1181 1.385 . S
C1185 C1184 1.374 . S
C1186 C1183 1.499 . S
C1186 C1187 1.373 . S
C1186 C1188 1.389 . S
C1187 H1166 0.950 . S
C1187 C1186 1.373 . S
C1187 C1203 1.377 . S
C1188 C1186 1.389 . S
C1188 C1189 1.524 . S
C1188 C1202 1.377 . S
C1189 C1188 1.524 . S
C1189 C1190 1.397 . S
C1189 C1194 1.363 . S
C1190 H1167 0.950 . S
C1190 C1189 1.397 . S
C1190 C1191 1.334 . S
C1191 H1168 0.950 . S
C1191 C1190 1.334 . S
C1191 C1192 1.287 . S
C1192 C1191 1.287 . S
C1192 C1193 1.524 . S
C1192 H1211 0.913 . S
C1193 H1169 0.950 . S
C1193 C1192 1.524 . S
C1193 C1194 1.415 . S
C1194 H1170 0.950 . S
C1194 C1189 1.363 . S
C1194 C1193 1.415 . S
C1195 H1171 0.951 . S
C1195 C1196 1.366 . S
C1195 C1197 1.388 . S
C1196 C1195 1.366 . S
C1196 C1200 1.385 . S
C1197 H1172 0.951 . S
C1197 C1195 1.388 . S
C1197 C1198 1.366 . S
C1198 C1197 1.366 . S
C1198 C1199 1.414 . S
C1198 C1201 1.499 . S
C1199 H1173 0.950 . S
C1199 C1198 1.414 . S
C1199 C1200 1.374 . S
C1200 H1174 0.950 . S
C1200 C1196 1.385 . S
C1200 C1199 1.374 . S
C1201 C1198 1.499 . S
C1201 C1202 1.373 . S
C1201 C1203 1.389 . S
C1202 H1175 0.950 . S
C1202 C1188 1.377 . S
C1202 C1201 1.373 . S
C1203 C1187 1.377 . S
C1203 C1201 1.389 . S
C1203 C1204 1.524 . S
C1204 C1203 1.524 . S
C1204 C1205 1.397 . S
C1204 C1209 1.363 . S
C1205 H1176 0.950 . S
C1205 C1204 1.397 . S
C1205 C1206 1.334 . S
C1206 H1177 0.950 1_455 S
C1206 C1205 1.334 . S
C1206 C1207 1.287 1_455 S
C1207 C1206 1.287 1_655 S
C1207 C1208 1.524 . S
C1207 H1210 0.999 . S
C1208 H1178 0.950 . S
C1208 C1207 1.524 . S
C1208 C1209 1.415 1_655 S
C1209 H1179 0.950 . S
C1209 C1204 1.363 . S
C1209 C1208 1.415 1_455 S
H1210 C1207 0.999 . S
H1211 C1192 0.913 . S
H1212 C1230 0.951 . S
H1213 C1232 0.951 . S
H1214 C1234 0.950 . S
H1215 C1235 0.950 . S
H1216 C1237 0.950 . S
H1217 C1240 0.950 . S
H1218 C1241 0.950 . S
H1219 C1243 0.950 . S
H1220 C1244 0.950 . S
H1221 C1245 0.951 . S
H1222 C1247 0.951 . S
H1223 C1249 0.950 . S
H1224 C1250 0.950 . S
H1225 C1252 0.950 . S
H1226 C1255 0.950 . S
H1227 C1256 0.950 . S
H1228 C1258 0.950 . S
H1229 C1259 0.950 . S
C1230 H1212 0.951 . S
C1230 C1231 1.366 . S
C1230 C1232 1.388 . S
C1231 C1230 1.366 . S
C1231 C1235 1.385 . S
C1232 H1213 0.951 . S
C1232 C1230 1.388 . S
C1232 C1233 1.366 . S
C1233 C1232 1.366 . S
C1233 C1234 1.414 . S
C1233 C1236 1.499 . S
C1234 H1214 0.950 . S
C1234 C1233 1.414 . S
C1234 C1235 1.374 . S
C1235 H1215 0.950 . S
C1235 C1231 1.385 . S
C1235 C1234 1.374 . S
C1236 C1233 1.499 . S
C1236 C1237 1.373 . S
C1236 C1238 1.389 . S
C1237 H1216 0.950 . S
C1237 C1236 1.373 . S
C1237 C1253 1.377 . S
C1238 C1236 1.389 . S
C1238 C1239 1.524 . S
C1238 C1252 1.377 . S
C1239 C1238 1.524 . S
C1239 C1240 1.397 . S
C1239 C1244 1.363 . S
C1240 H1217 0.950 . S
C1240 C1239 1.397 . S
C1240 C1241 1.334 . S
C1241 H1218 0.950 . S
C1241 C1240 1.334 . S
C1241 C1242 1.287 . S
C1242 C1241 1.287 . S
C1242 C1243 1.524 . S
C1242 H1261 0.913 . S
C1243 H1219 0.950 . S
C1243 C1242 1.524 . S
C1243 C1244 1.415 . S
C1244 H1220 0.950 . S
C1244 C1239 1.363 . S
C1244 C1243 1.415 . S
C1245 H1221 0.951 . S
C1245 C1246 1.366 . S
C1245 C1247 1.388 . S
C1246 C1245 1.366 . S
C1246 C1250 1.385 . S
C1247 H1222 0.951 . S
C1247 C1245 1.388 . S
C1247 C1248 1.366 . S
C1248 C1247 1.366 . S
C1248 C1249 1.414 . S
C1248 C1251 1.499 . S
C1249 H1223 0.950 . S
C1249 C1248 1.414 . S
C1249 C1250 1.374 . S
C1250 H1224 0.950 . S
C1250 C1246 1.385 . S
C1250 C1249 1.374 . S
C1251 C1248 1.499 . S
C1251 C1252 1.373 . S
C1251 C1253 1.389 . S
C1252 H1225 0.950 . S
C1252 C1238 1.377 . S
C1252 C1251 1.373 . S
C1253 C1237 1.377 . S
C1253 C1251 1.389 . S
C1253 C1254 1.524 . S
C1254 C1253 1.524 . S
C1254 C1255 1.397 . S
C1254 C1259 1.363 . S
C1255 H1226 0.950 . S
C1255 C1254 1.397 . S
C1255 C1256 1.334 . S
C1256 H1227 0.950 . S
C1256 C1255 1.334 . S
C1256 C1257 1.287 . S
C1257 C1256 1.287 . S
C1257 C1258 1.524 . S
C1257 H1260 0.999 . S
C1258 H1228 0.950 . S
C1258 C1257 1.524 . S
C1258 C1259 1.415 . S
C1259 H1229 0.950 . S
C1259 C1254 1.363 . S
C1259 C1258 1.415 . S
H1260 C1257 0.999 . S
H1261 C1242 0.913 . S
H1262 C1280 0.951 . S
H1263 C1282 0.951 . S
H1264 C1284 0.950 . S
H1265 C1285 0.950 . S
H1266 C1287 0.950 . S
H1267 C1290 0.950 . S
H1268 C1291 0.950 . S
H1269 C1293 0.950 . S
H1270 C1294 0.950 . S
H1271 C1295 0.951 1_554 S
H1272 C1297 0.951 . S
H1273 C1299 0.950 . S
H1274 C1300 0.950 . S
H1275 C1302 0.950 . S
H1276 C1305 0.950 . S
H1277 C1306 0.950 . S
H1278 C1308 0.950 . S
H1279 C1309 0.950 1_556 S
C1280 H1262 0.951 . S
C1280 C1281 1.366 . S
C1280 C1282 1.388 . S
C1281 C1280 1.366 . S
C1281 C1285 1.385 . S
C1282 H1263 0.951 . S
C1282 C1280 1.388 . S
C1282 C1283 1.366 . S
C1283 C1282 1.366 . S
C1283 C1284 1.414 . S
C1283 C1286 1.499 . S
C1284 H1264 0.950 . S
C1284 C1283 1.414 . S
C1284 C1285 1.374 . S
C1285 H1265 0.950 . S
C1285 C1281 1.385 . S
C1285 C1284 1.374 . S
C1286 C1283 1.499 . S
C1286 C1287 1.373 . S
C1286 C1288 1.389 . S
C1287 H1266 0.950 . S
C1287 C1286 1.373 . S
C1287 C1303 1.377 . S
C1288 C1286 1.389 . S
C1288 C1289 1.524 . S
C1288 C1302 1.377 . S
C1289 C1288 1.524 . S
C1289 C1290 1.397 . S
C1289 C1294 1.363 . S
C1290 H1267 0.950 . S
C1290 C1289 1.397 . S
C1290 C1291 1.334 . S
C1291 H1268 0.950 . S
C1291 C1290 1.334 . S
C1291 C1292 1.287 . S
C1292 C1291 1.287 . S
C1292 C1293 1.524 . S
C1292 H1311 0.913 . S
C1293 H1269 0.950 . S
C1293 C1292 1.524 . S
C1293 C1294 1.415 . S
C1294 H1270 0.950 . S
C1294 C1289 1.363 . S
C1294 C1293 1.415 . S
C1295 H1271 0.951 1_556 S
C1295 C1296 1.366 . S
C1295 C1297 1.388 . S
C1296 C1295 1.366 . S
C1296 C1300 1.385 . S
C1297 H1272 0.951 . S
C1297 C1295 1.388 . S
C1297 C1298 1.366 . S
C1298 C1297 1.366 . S
C1298 C1299 1.414 . S
C1298 C1301 1.499 . S
C1299 H1273 0.950 . S
C1299 C1298 1.414 . S
C1299 C1300 1.374 . S
C1300 H1274 0.950 . S
C1300 C1296 1.385 . S
C1300 C1299 1.374 . S
C1301 C1298 1.499 . S
C1301 C1302 1.373 . S
C1301 C1303 1.389 . S
C1302 H1275 0.950 . S
C1302 C1288 1.377 . S
C1302 C1301 1.373 . S
C1303 C1287 1.377 . S
C1303 C1301 1.389 . S
C1303 C1304 1.524 . S
C1304 C1303 1.524 . S
C1304 C1305 1.397 1_556 S
C1304 C1309 1.363 1_556 S
C1305 H1276 0.950 . S
C1305 C1304 1.397 1_554 S
C1305 C1306 1.334 . S
C1306 H1277 0.950 . S
C1306 C1305 1.334 . S
C1306 C1307 1.287 . S
C1307 C1306 1.287 . S
C1307 C1308 1.524 . S
C1307 H1310 0.999 . S
C1308 H1278 0.950 . S
C1308 C1307 1.524 . S
C1308 C1309 1.415 . S
C1309 H1279 0.950 1_554 S
C1309 C1304 1.363 1_554 S
C1309 C1308 1.415 . S
H1310 C1307 0.999 . S
H1311 C1292 0.913 . S
H1312 C1330 0.951 . S
H1313 C1332 0.951 . S
H1314 C1334 0.950 . S
H1315 C1335 0.950 . S
H1316 C1337 0.950 . S
H1317 C1340 0.950 . S
H1318 C1341 0.950 . S
H1319 C1343 0.950 . S
H1320 C1344 0.950 . S
H1321 C1345 0.951 . S
H1322 C1347 0.951 . S
H1323 C1349 0.950 . S
H1324 C1350 0.950 . S
H1325 C1352 0.950 . S
H1326 C1355 0.950 . S
H1327 C1356 0.950 . S
H1328 C1358 0.950 . S
H1329 C1359 0.950 . S
C1330 H1312 0.951 . S
C1330 C1331 1.366 . S
C1330 C1332 1.388 . S
C1331 C1330 1.366 . S
C1331 C1335 1.385 . S
C1332 H1313 0.951 . S
C1332 C1330 1.388 . S
C1332 C1333 1.366 . S
C1333 C1332 1.366 . S
C1333 C1334 1.414 . S
C1333 C1336 1.499 . S
C1334 H1314 0.950 . S
C1334 C1333 1.414 . S
C1334 C1335 1.374 . S
C1335 H1315 0.950 . S
C1335 C1331 1.385 . S
C1335 C1334 1.374 . S
C1336 C1333 1.499 . S
C1336 C1337 1.373 . S
C1336 C1338 1.389 . S
C1337 H1316 0.950 . S
C1337 C1336 1.373 . S
C1337 C1353 1.377 . S
C1338 C1336 1.389 . S
C1338 C1339 1.524 . S
C1338 C1352 1.377 . S
C1339 C1338 1.524 . S
C1339 C1340 1.397 . S
C1339 C1344 1.363 . S
C1340 H1317 0.950 . S
C1340 C1339 1.397 . S
C1340 C1341 1.334 . S
C1341 H1318 0.950 . S
C1341 C1340 1.334 . S
C1341 C1342 1.287 . S
C1342 C1341 1.287 . S
C1342 C1343 1.524 . S
C1342 H1361 0.913 . S
C1343 H1319 0.950 . S
C1343 C1342 1.524 . S
C1343 C1344 1.415 . S
C1344 H1320 0.950 . S
C1344 C1339 1.363 . S
C1344 C1343 1.415 . S
C1345 H1321 0.951 . S
C1345 C1346 1.366 . S
C1345 C1347 1.388 . S
C1346 C1345 1.366 . S
C1346 C1350 1.385 . S
C1347 H1322 0.951 . S
C1347 C1345 1.388 . S
C1347 C1348 1.366 . S
C1348 C1347 1.366 . S
C1348 C1349 1.414 . S
C1348 C1351 1.499 . S
C1349 H1323 0.950 . S
C1349 C1348 1.414 . S
C1349 C1350 1.374 . S
C1350 H1324 0.950 . S
C1350 C1346 1.385 . S
C1350 C1349 1.374 . S
C1351 C1348 1.499 . S
C1351 C1352 1.373 . S
C1351 C1353 1.389 . S
C1352 H1325 0.950 . S
C1352 C1338 1.377 . S
C1352 C1351 1.373 . S
C1353 C1337 1.377 . S
C1353 C1351 1.389 . S
C1353 C1354 1.524 . S
C1354 C1353 1.524 . S
C1354 C1355 1.397 . S
C1354 C1359 1.363 . S
C1355 H1326 0.950 . S
C1355 C1354 1.397 . S
C1355 C1356 1.334 . S
C1356 H1327 0.950 . S
C1356 C1355 1.334 . S
C1356 C1357 1.300 . S
C1357 C1356 1.300 . S
C1357 C1358 1.534 . S
C1357 H1360 0.973 1_455 S
C1358 H1328 0.950 . S
C1358 C1357 1.534 . S
C1358 C1359 1.415 . S
C1359 H1329 0.950 . S
C1359 C1354 1.363 . S
C1359 C1358 1.415 . S
H1360 C1357 0.973 1_655 S
H1361 C1342 0.913 . S
H1362 C1380 0.951 . S
H1363 C1382 0.951 . S
H1364 C1384 0.950 . S
H1365 C1385 0.950 . S
H1366 C1387 0.950 . S
H1367 C1390 0.950 . S
H1368 C1391 0.950 . S
H1369 C1393 0.950 . S
H1370 C1394 0.950 . S
H1371 C1395 0.951 . S
H1372 C1397 0.951 . S
H1373 C1399 0.950 1_554 S
H1374 C1400 0.950 . S
H1375 C1402 0.950 . S
H1376 C1405 0.950 . S
H1377 C1406 0.948 . S
H1378 C1408 0.950 . S
H1379 C1409 0.950 . S
C1380 H1362 0.951 . S
C1380 C1381 1.366 . S
C1380 C1382 1.388 . S
C1381 C1380 1.366 . S
C1381 C1385 1.385 . S
C1382 H1363 0.951 . S
C1382 C1380 1.388 . S
C1382 C1383 1.366 . S
C1383 C1382 1.366 . S
C1383 C1384 1.414 . S
C1383 C1386 1.499 . S
C1384 H1364 0.950 . S
C1384 C1383 1.414 . S
C1384 C1385 1.374 . S
C1385 H1365 0.950 . S
C1385 C1381 1.385 . S
C1385 C1384 1.374 . S
C1386 C1383 1.499 . S
C1386 C1387 1.373 . S
C1386 C1388 1.389 . S
C1387 H1366 0.950 . S
C1387 C1386 1.373 . S
C1387 C1403 1.377 . S
C1388 C1386 1.389 . S
C1388 C1389 1.524 . S
C1388 C1402 1.377 . S
C1389 C1388 1.524 . S
C1389 C1390 1.397 . S
C1389 C1394 1.363 . S
C1390 H1367 0.950 . S
C1390 C1389 1.397 . S
C1390 C1391 1.334 . S
C1391 H1368 0.950 . S
C1391 C1390 1.334 . S
C1391 C1392 1.287 . S
C1392 C1391 1.287 . S
C1392 C1393 1.524 1_556 S
C1392 H1411 0.913 . S
C1393 H1369 0.950 . S
C1393 C1392 1.524 1_554 S
C1393 C1394 1.415 1_554 S
C1394 H1370 0.950 . S
C1394 C1389 1.363 . S
C1394 C1393 1.415 1_556 S
C1395 H1371 0.951 . S
C1395 C1396 1.366 1_556 S
C1395 C1397 1.388 . S
C1396 C1395 1.366 1_554 S
C1396 C1400 1.385 . S
C1397 H1372 0.951 . S
C1397 C1395 1.388 . S
C1397 C1398 1.366 . S
C1398 C1397 1.366 . S
C1398 C1399 1.414 . S
C1398 C1401 1.499 . S
C1399 H1373 0.950 1_556 S
C1399 C1398 1.414 . S
C1399 C1400 1.374 1_556 S
C1400 H1374 0.950 . S
C1400 C1396 1.385 . S
C1400 C1399 1.374 1_554 S
C1401 C1398 1.499 . S
C1401 C1402 1.373 . S
C1401 C1403 1.389 . S
C1402 H1375 0.950 . S
C1402 C1388 1.377 . S
C1402 C1401 1.373 . S
C1403 C1387 1.377 . S
C1403 C1401 1.389 . S
C1403 C1404 1.524 . S
C1404 C1403 1.524 . S
C1404 C1405 1.397 . S
C1404 C1409 1.363 . S
C1405 H1376 0.950 . S
C1405 C1404 1.397 . S
C1405 C1406 1.334 . S
C1406 H1377 0.948 . S
C1406 C1405 1.334 . S
C1406 C1407 1.287 . S
C1407 C1406 1.287 . S
C1407 C1408 1.524 . S
C1407 H1410 0.999 1_455 S
C1408 H1378 0.950 . S
C1408 C1407 1.524 . S
C1408 C1409 1.415 . S
C1409 H1379 0.950 . S
C1409 C1404 1.363 . S
C1409 C1408 1.415 . S
H1410 C1407 0.999 1_655 S
H1411 C1392 0.913 . S
H1412 C1430 0.951 . S
H1413 C1432 0.951 . S
H1414 C1434 0.950 . S
H1415 C1435 0.950 . S
H1416 C1437 0.950 . S
H1417 C1440 0.950 . S
H1418 C1441 0.950 . S
H1419 C1443 0.950 . S
H1420 C1444 0.950 . S
H1421 C1445 0.951 . S
H1422 C1447 0.951 . S
H1423 C1449 0.950 . S
H1424 C1450 0.950 . S
H1425 C1452 0.950 . S
H1426 C1455 0.950 . S
H1427 C1456 0.950 . S
H1428 C1458 0.950 . S
H1429 C1459 0.950 . S
C1430 H1412 0.951 . S
C1430 C1431 1.366 . S
C1430 C1432 1.388 . S
C1431 C1430 1.366 . S
C1431 C1435 1.385 . S
C1432 H1413 0.951 . S
C1432 C1430 1.388 . S
C1432 C1433 1.366 . S
C1433 C1432 1.366 . S
C1433 C1434 1.414 . S
C1433 C1436 1.499 . S
C1434 H1414 0.950 . S
C1434 C1433 1.414 . S
C1434 C1435 1.374 . S
C1435 H1415 0.950 . S
C1435 C1431 1.385 . S
C1435 C1434 1.374 . S
C1436 C1433 1.499 . S
C1436 C1437 1.373 . S
C1436 C1438 1.389 . S
C1437 H1416 0.950 . S
C1437 C1436 1.373 . S
C1437 C1453 1.377 . S
C1438 C1436 1.389 . S
C1438 C1439 1.524 . S
C1438 C1452 1.377 . S
C1439 C1438 1.524 . S
C1439 C1440 1.397 . S
C1439 C1444 1.363 . S
C1440 H1417 0.950 . S
C1440 C1439 1.397 . S
C1440 C1441 1.334 . S
C1441 H1418 0.950 . S
C1441 C1440 1.334 . S
C1441 C1442 1.287 . S
C1442 C1441 1.287 . S
C1442 C1443 1.524 . S
C1442 H1461 0.913 . S
C1443 H1419 0.950 . S
C1443 C1442 1.524 . S
C1443 C1444 1.415 . S
C1444 H1420 0.950 . S
C1444 C1439 1.363 . S
C1444 C1443 1.415 . S
C1445 H1421 0.951 . S
C1445 C1446 1.366 . S
C1445 C1447 1.388 . S
C1446 C1445 1.366 . S
C1446 C1450 1.385 . S
C1447 H1422 0.951 . S
C1447 C1445 1.388 . S
C1447 C1448 1.366 . S
C1448 C1447 1.366 . S
C1448 C1449 1.414 . S
C1448 C1451 1.499 . S
C1449 H1423 0.950 . S
C1449 C1448 1.414 . S
C1449 C1450 1.374 . S
C1450 H1424 0.950 . S
C1450 C1446 1.385 . S
C1450 C1449 1.374 . S
C1451 C1448 1.499 . S
C1451 C1452 1.373 . S
C1451 C1453 1.389 . S
C1452 H1425 0.950 . S
C1452 C1438 1.377 . S
C1452 C1451 1.373 . S
C1453 C1437 1.377 . S
C1453 C1451 1.389 . S
C1453 C1454 1.524 . S
C1454 C1453 1.524 . S
C1454 C1455 1.397 . S
C1454 C1459 1.363 . S
C1455 H1426 0.950 . S
C1455 C1454 1.397 . S
C1455 C1456 1.334 . S
C1456 H1427 0.950 . S
C1456 C1455 1.334 . S
C1456 C1457 1.287 . S
C1457 C1456 1.287 . S
C1457 C1458 1.524 . S
C1457 H1460 0.999 . S
C1458 H1428 0.950 . S
C1458 C1457 1.524 . S
C1458 C1459 1.415 . S
C1459 H1429 0.950 . S
C1459 C1454 1.363 . S
C1459 C1458 1.415 . S
H1460 C1457 0.999 . S
H1461 C1442 0.913 . S
H1462 C1480 0.951 . S
H1463 C1482 0.951 . S
H1464 C1484 0.950 . S
H1465 C1485 0.950 . S
H1466 C1487 0.950 . S
H1467 C1490 0.950 . S
H1468 C1491 0.950 . S
H1469 C1493 0.950 . S
H1470 C1494 0.950 . S
H1471 C1495 0.951 . S
H1472 C1497 0.951 . S
H1473 C1499 0.950 . S
H1474 C1500 0.950 . S
H1475 C1502 0.950 . S
H1476 C1505 0.950 . S
H1477 C1506 0.950 1_554 S
H1478 C1508 0.950 . S
H1479 C1509 0.950 . S
C1480 H1462 0.951 . S
C1480 C1481 1.366 . S
C1480 C1482 1.388 . S
C1481 C1480 1.366 . S
C1481 C1485 1.385 . S
C1482 H1463 0.951 . S
C1482 C1480 1.388 . S
C1482 C1483 1.366 . S
C1483 C1482 1.366 . S
C1483 C1484 1.414 . S
C1483 C1486 1.499 . S
C1484 H1464 0.950 . S
C1484 C1483 1.414 . S
C1484 C1485 1.374 . S
C1485 H1465 0.950 . S
C1485 C1481 1.385 . S
C1485 C1484 1.374 . S
C1486 C1483 1.499 . S
C1486 C1487 1.373 . S
C1486 C1488 1.389 . S
C1487 H1466 0.950 . S
C1487 C1486 1.373 . S
C1487 C1503 1.377 . S
C1488 C1486 1.389 . S
C1488 C1489 1.524 . S
C1488 C1502 1.377 . S
C1489 C1488 1.524 . S
C1489 C1490 1.397 . S
C1489 C1494 1.363 . S
C1490 H1467 0.950 . S
C1490 C1489 1.397 . S
C1490 C1491 1.334 . S
C1491 H1468 0.950 . S
C1491 C1490 1.334 . S
C1491 C1492 1.287 . S
C1492 C1491 1.287 . S
C1492 C1493 1.524 . S
C1492 H1511 0.913 . S
C1493 H1469 0.950 . S
C1493 C1492 1.524 . S
C1493 C1494 1.415 . S
C1494 H1470 0.950 . S
C1494 C1489 1.363 . S
C1494 C1493 1.415 . S
C1495 H1471 0.951 . S
C1495 C1496 1.366 . S
C1495 C1497 1.388 . S
C1496 C1495 1.366 . S
C1496 C1500 1.385 . S
C1497 H1472 0.951 . S
C1497 C1495 1.388 . S
C1497 C1498 1.366 . S
C1498 C1497 1.366 . S
C1498 C1499 1.414 . S
C1498 C1501 1.499 . S
C1499 H1473 0.950 . S
C1499 C1498 1.414 . S
C1499 C1500 1.374 . S
C1500 H1474 0.950 . S
C1500 C1496 1.385 . S
C1500 C1499 1.374 . S
C1501 C1498 1.499 . S
C1501 C1502 1.373 . S
C1501 C1503 1.389 . S
C1502 H1475 0.950 . S
C1502 C1488 1.377 . S
C1502 C1501 1.373 . S
C1503 C1487 1.377 . S
C1503 C1501 1.389 . S
C1503 C1504 1.524 . S
C1504 C1503 1.524 . S
C1504 C1505 1.397 . S
C1504 C1509 1.363 . S
C1505 H1476 0.950 . S
C1505 C1504 1.397 . S
C1505 C1506 1.334 . S
C1506 H1477 0.950 1_556 S
C1506 C1505 1.334 . S
C1506 C1507 1.287 . S
C1507 C1506 1.287 . S
C1507 C1508 1.524 . S
C1507 H1510 0.999 . S
C1508 H1478 0.950 . S
C1508 C1507 1.524 . S
C1508 C1509 1.415 . S
C1509 H1479 0.950 . S
C1509 C1504 1.363 . S
C1509 C1508 1.415 . S
H1510 C1507 0.999 . S
H1511 C1492 0.913 . S
H1512 C1530 0.951 . S
H1513 C1532 0.951 . S
H1514 C1534 0.950 . S
H1515 C1535 0.950 . S
H1516 C1537 0.950 . S
H1517 C1540 0.950 . S
H1518 C1541 0.950 . S
H1519 C1543 0.950 . S
H1520 C1544 0.950 . S
H1521 C1545 0.951 . S
H1522 C1547 0.951 . S
H1523 C1549 0.950 . S
H1524 C1550 0.950 . S
H1525 C1552 0.950 . S
H1526 C1555 0.950 . S
H1527 C1556 0.950 . S
H1528 C1558 0.950 . S
H1529 C1559 0.950 . S
C1530 H1512 0.951 . S
C1530 C1531 1.366 . S
C1530 C1532 1.388 . S
C1531 C1530 1.366 . S
C1531 C1535 1.385 . S
C1532 H1513 0.951 . S
C1532 C1530 1.388 . S
C1532 C1533 1.366 . S
C1533 C1532 1.366 . S
C1533 C1534 1.414 . S
C1533 C1536 1.499 . S
C1534 H1514 0.950 . S
C1534 C1533 1.414 . S
C1534 C1535 1.374 . S
C1535 H1515 0.950 . S
C1535 C1531 1.385 . S
C1535 C1534 1.374 . S
C1536 C1533 1.499 . S
C1536 C1537 1.373 . S
C1536 C1538 1.389 . S
C1537 H1516 0.950 . S
C1537 C1536 1.373 . S
C1537 C1553 1.377 . S
C1538 C1536 1.389 . S
C1538 C1539 1.524 . S
C1538 C1552 1.377 . S
C1539 C1538 1.524 . S
C1539 C1540 1.397 . S
C1539 C1544 1.363 . S
C1540 H1517 0.950 . S
C1540 C1539 1.397 . S
C1540 C1541 1.334 . S
C1541 H1518 0.950 . S
C1541 C1540 1.334 . S
C1541 C1542 1.287 . S
C1542 C1541 1.287 . S
C1542 C1543 1.524 . S
C1542 H1561 0.913 . S
C1543 H1519 0.950 . S
C1543 C1542 1.524 . S
C1543 C1544 1.415 . S
C1544 H1520 0.950 . S
C1544 C1539 1.363 . S
C1544 C1543 1.415 . S
C1545 H1521 0.951 . S
C1545 C1546 1.366 . S
C1545 C1547 1.388 . S
C1546 C1545 1.366 . S
C1546 C1550 1.385 . S
C1547 H1522 0.951 . S
C1547 C1545 1.388 . S
C1547 C1548 1.366 . S
C1548 C1547 1.366 . S
C1548 C1549 1.414 . S
C1548 C1551 1.499 . S
C1549 H1523 0.950 . S
C1549 C1548 1.414 . S
C1549 C1550 1.374 . S
C1550 H1524 0.950 . S
C1550 C1546 1.385 . S
C1550 C1549 1.374 . S
C1551 C1548 1.499 . S
C1551 C1552 1.373 . S
C1551 C1553 1.389 . S
C1552 H1525 0.950 . S
C1552 C1538 1.377 . S
C1552 C1551 1.373 . S
C1553 C1537 1.377 . S
C1553 C1551 1.389 . S
C1553 C1554 1.524 . S
C1554 C1553 1.524 . S
C1554 C1555 1.397 . S
C1554 C1559 1.363 . S
C1555 H1526 0.950 . S
C1555 C1554 1.397 . S
C1555 C1556 1.334 . S
C1556 H1527 0.950 . S
C1556 C1555 1.334 . S
C1556 C1557 1.287 . S
C1557 C1556 1.287 . S
C1557 C1558 1.524 . S
C1557 H1560 0.999 . S
C1558 H1528 0.950 . S
C1558 C1557 1.524 . S
C1558 C1559 1.415 . S
C1559 H1529 0.950 . S
C1559 C1554 1.363 . S
C1559 C1558 1.415 . S
H1560 C1557 0.999 . S
H1561 C1542 0.913 . S
H1562 C1580 0.951 . S
H1563 C1582 0.951 . S
H1564 C1584 0.950 . S
H1565 C1585 0.950 . S
H1566 C1587 0.950 . S
H1567 C1590 0.950 . S
H1568 C1591 0.950 . S
H1569 C1593 0.950 . S
H1570 C1594 0.950 . S
H1571 C1595 0.951 . S
H1572 C1597 0.951 . S
H1573 C1599 0.950 . S
H1574 C1600 0.950 . S
H1575 C1602 0.950 . S
H1576 C1605 0.950 . S
H1577 C1606 0.950 . S
H1578 C1608 0.950 . S
H1579 C1609 0.950 . S
C1580 H1562 0.951 . S
C1580 C1581 1.366 . S
C1580 C1582 1.388 . S
C1581 C1580 1.366 . S
C1581 C1585 1.385 . S
C1582 H1563 0.951 . S
C1582 C1580 1.388 . S
C1582 C1583 1.366 . S
C1583 C1582 1.366 . S
C1583 C1584 1.414 . S
C1583 C1586 1.499 . S
C1584 H1564 0.950 . S
C1584 C1583 1.414 . S
C1584 C1585 1.374 . S
C1585 H1565 0.950 . S
C1585 C1581 1.385 . S
C1585 C1584 1.374 . S
C1586 C1583 1.499 . S
C1586 C1587 1.373 . S
C1586 C1588 1.389 . S
C1587 H1566 0.950 . S
C1587 C1586 1.373 . S
C1587 C1603 1.377 . S
C1588 C1586 1.389 . S
C1588 C1589 1.524 . S
C1588 C1602 1.377 . S
C1589 C1588 1.524 . S
C1589 C1590 1.397 . S
C1589 C1594 1.363 . S
C1590 H1567 0.950 . S
C1590 C1589 1.397 . S
C1590 C1591 1.334 . S
C1591 H1568 0.950 . S
C1591 C1590 1.334 . S
C1591 C1592 1.287 . S
C1592 C1591 1.287 . S
C1592 C1593 1.524 . S
C1592 H1611 0.913 . S
C1593 H1569 0.950 . S
C1593 C1592 1.524 . S
C1593 C1594 1.415 . S
C1594 H1570 0.950 . S
C1594 C1589 1.363 . S
C1594 C1593 1.415 . S
C1595 H1571 0.951 . S
C1595 C1596 1.366 . S
C1595 C1597 1.388 . S
C1596 C1595 1.366 . S
C1596 C1600 1.385 . S
C1597 H1572 0.951 . S
C1597 C1595 1.388 . S
C1597 C1598 1.366 . S
C1598 C1597 1.366 . S
C1598 C1599 1.414 . S
C1598 C1601 1.499 . S
C1599 H1573 0.950 . S
C1599 C1598 1.414 . S
C1599 C1600 1.374 . S
C1600 H1574 0.950 . S
C1600 C1596 1.385 . S
C1600 C1599 1.374 . S
C1601 C1598 1.499 . S
C1601 C1602 1.373 . S
C1601 C1603 1.389 . S
C1602 H1575 0.950 . S
C1602 C1588 1.377 . S
C1602 C1601 1.373 . S
C1603 C1587 1.377 . S
C1603 C1601 1.389 . S
C1603 C1604 1.524 . S
C1604 C1603 1.524 . S
C1604 C1605 1.397 . S
C1604 C1609 1.363 . S
C1605 H1576 0.950 . S
C1605 C1604 1.397 . S
C1605 C1606 1.334 . S
C1606 H1577 0.950 . S
C1606 C1605 1.334 . S
C1606 C1607 1.287 . S
C1607 C1606 1.287 . S
C1607 C1608 1.524 . S
C1607 H1610 0.999 . S
C1608 H1578 0.950 . S
C1608 C1607 1.524 . S
C1608 C1609 1.415 . S
C1609 H1579 0.950 . S
C1609 C1604 1.363 . S
C1609 C1608 1.415 . S
H1610 C1607 0.999 . S
H1611 C1592 0.913 . S
H1612 C1630 0.951 . S
H1613 C1632 0.951 . S
H1614 C1634 0.950 . S
H1615 C1635 0.950 . S
H1616 C1637 0.950 . S
H1617 C1640 0.950 . S
H1618 C1641 0.950 . S
H1619 C1643 0.950 . S
H1620 C1644 0.950 . S
H1621 C1645 0.951 . S
H1622 C1647 0.951 . S
H1623 C1649 0.950 . S
H1624 C1650 0.950 . S
H1625 C1652 0.950 . S
H1626 C1655 0.950 . S
H1627 C1656 0.950 . S
H1628 C1658 0.950 . S
H1629 C1659 0.950 . S
C1630 H1612 0.951 . S
C1630 C1631 1.366 . S
C1630 C1632 1.388 . S
C1631 C1630 1.366 . S
C1631 C1635 1.385 . S
C1632 H1613 0.951 . S
C1632 C1630 1.388 . S
C1632 C1633 1.366 . S
C1633 C1632 1.366 . S
C1633 C1634 1.414 . S
C1633 C1636 1.499 . S
C1634 H1614 0.950 . S
C1634 C1633 1.414 . S
C1634 C1635 1.374 . S
C1635 H1615 0.950 . S
C1635 C1631 1.385 . S
C1635 C1634 1.374 . S
C1636 C1633 1.499 . S
C1636 C1637 1.373 . S
C1636 C1638 1.389 . S
C1637 H1616 0.950 . S
C1637 C1636 1.373 . S
C1637 C1653 1.377 . S
C1638 C1636 1.389 . S
C1638 C1639 1.524 . S
C1638 C1652 1.377 . S
C1639 C1638 1.524 . S
C1639 C1640 1.397 . S
C1639 C1644 1.363 . S
C1640 H1617 0.950 . S
C1640 C1639 1.397 . S
C1640 C1641 1.334 . S
C1641 H1618 0.950 . S
C1641 C1640 1.334 . S
C1641 C1642 1.287 . S
C1642 C1641 1.287 . S
C1642 C1643 1.524 . S
C1642 H1661 0.913 . S
C1643 H1619 0.950 . S
C1643 C1642 1.524 . S
C1643 C1644 1.415 . S
C1644 H1620 0.950 . S
C1644 C1639 1.363 . S
C1644 C1643 1.415 . S
C1645 H1621 0.951 . S
C1645 C1646 1.366 . S
C1645 C1647 1.388 . S
C1646 C1645 1.366 . S
C1646 C1650 1.385 . S
C1647 H1622 0.951 . S
C1647 C1645 1.388 . S
C1647 C1648 1.366 . S
C1648 C1647 1.366 . S
C1648 C1649 1.414 . S
C1648 C1651 1.499 . S
C1649 H1623 0.950 . S
C1649 C1648 1.414 . S
C1649 C1650 1.374 . S
C1650 H1624 0.950 . S
C1650 C1646 1.385 . S
C1650 C1649 1.374 . S
C1651 C1648 1.499 . S
C1651 C1652 1.373 . S
C1651 C1653 1.389 . S
C1652 H1625 0.950 . S
C1652 C1638 1.377 . S
C1652 C1651 1.373 . S
C1653 C1637 1.377 . S
C1653 C1651 1.389 . S
C1653 C1654 1.524 . S
C1654 C1653 1.524 . S
C1654 C1655 1.397 . S
C1654 C1659 1.363 . S
C1655 H1626 0.950 . S
C1655 C1654 1.397 . S
C1655 C1656 1.334 . S
C1656 H1627 0.950 . S
C1656 C1655 1.334 . S
C1656 C1657 1.287 . S
C1657 C1656 1.287 . S
C1657 C1658 1.524 . S
C1657 H1660 0.999 . S
C1658 H1628 0.950 . S
C1658 C1657 1.524 . S
C1658 C1659 1.415 . S
C1659 H1629 0.950 . S
C1659 C1654 1.363 . S
C1659 C1658 1.415 . S
H1660 C1657 0.999 . S
H1661 C1642 0.913 . S
H1662 C1680 0.951 . S
H1663 C1682 0.951 . S
H1664 C1684 0.950 . S
H1665 C1685 0.950 . S
H1666 C1687 0.950 . S
H1667 C1690 0.950 . S
H1668 C1691 0.950 . S
H1669 C1693 0.950 . S
H1670 C1694 0.950 . S
H1671 C1695 0.951 . S
H1672 C1697 0.951 . S
H1673 C1699 0.950 . S
H1674 C1700 0.950 . S
H1675 C1702 0.950 . S
H1676 C1705 0.950 . S
H1677 C1706 0.950 . S
H1678 C1708 0.950 . S
H1679 C1709 0.950 . S
C1680 H1662 0.951 . S
C1680 C1681 1.366 . S
C1680 C1682 1.388 . S
C1681 C1680 1.366 . S
C1681 C1685 1.385 . S
C1682 H1663 0.951 . S
C1682 C1680 1.388 . S
C1682 C1683 1.366 . S
C1683 C1682 1.366 . S
C1683 C1684 1.414 . S
C1683 C1686 1.499 . S
C1684 H1664 0.950 . S
C1684 C1683 1.414 . S
C1684 C1685 1.374 . S
C1685 H1665 0.950 . S
C1685 C1681 1.385 . S
C1685 C1684 1.374 . S
C1686 C1683 1.499 . S
C1686 C1687 1.373 . S
C1686 C1688 1.389 . S
C1687 H1666 0.950 . S
C1687 C1686 1.373 . S
C1687 C1703 1.377 . S
C1688 C1686 1.389 . S
C1688 C1689 1.524 . S
C1688 C1702 1.377 . S
C1689 C1688 1.524 . S
C1689 C1690 1.397 . S
C1689 C1694 1.363 . S
C1690 H1667 0.950 . S
C1690 C1689 1.397 . S
C1690 C1691 1.334 . S
C1691 H1668 0.950 . S
C1691 C1690 1.334 . S
C1691 C1692 1.287 . S
C1692 C1691 1.287 . S
C1692 C1693 1.524 . S
C1692 H1711 0.913 . S
C1693 H1669 0.950 . S
C1693 C1692 1.524 . S
C1693 C1694 1.415 . S
C1694 H1670 0.950 . S
C1694 C1689 1.363 . S
C1694 C1693 1.415 . S
C1695 H1671 0.951 . S
C1695 C1696 1.366 . S
C1695 C1697 1.388 . S
C1696 C1695 1.366 . S
C1696 C1700 1.385 . S
C1697 H1672 0.951 . S
C1697 C1695 1.388 . S
C1697 C1698 1.366 . S
C1698 C1697 1.366 . S
C1698 C1699 1.414 . S
C1698 C1701 1.499 . S
C1699 H1673 0.950 . S
C1699 C1698 1.414 . S
C1699 C1700 1.374 . S
C1700 H1674 0.950 . S
C1700 C1696 1.385 . S
C1700 C1699 1.374 . S
C1701 C1698 1.499 . S
C1701 C1702 1.373 . S
C1701 C1703 1.389 . S
C1702 H1675 0.950 . S
C1702 C1688 1.377 . S
C1702 C1701 1.373 . S
C1703 C1687 1.377 . S
C1703 C1701 1.389 . S
C1703 C1704 1.524 . S
C1704 C1703 1.524 . S
C1704 C1705 1.397 . S
C1704 C1709 1.363 . S
C1705 H1676 0.950 . S
C1705 C1704 1.397 . S
C1705 C1706 1.334 . S
C1706 H1677 0.950 . S
C1706 C1705 1.334 . S
C1706 C1707 1.287 . S
C1707 C1706 1.287 . S
C1707 C1708 1.524 . S
C1707 H1710 0.999 . S
C1708 H1678 0.950 . S
C1708 C1707 1.524 . S
C1708 C1709 1.415 . S
C1709 H1679 0.950 . S
C1709 C1704 1.363 . S
C1709 C1708 1.415 . S
H1710 C1707 0.999 . S
H1711 C1692 0.913 . S
H1712 C1730 0.951 . S
H1713 C1732 0.951 . S
H1714 C1734 0.950 . S
H1715 C1735 0.950 . S
H1716 C1737 0.950 . S
H1717 C1740 0.950 . S
H1718 C1741 0.950 . S
H1719 C1743 0.950 . S
H1720 C1744 0.950 . S
H1721 C1745 0.951 . S
H1722 C1747 0.951 . S
H1723 C1749 0.950 . S
H1724 C1750 0.950 . S
H1725 C1752 0.950 . S
H1726 C1755 0.950 . S
H1727 C1756 0.950 . S
H1728 C1758 0.950 . S
H1729 C1759 0.950 . S
C1730 H1712 0.951 . S
C1730 C1731 1.366 . S
C1730 C1732 1.388 . S
C1731 C1730 1.366 . S
C1731 C1735 1.385 . S
C1732 H1713 0.951 . S
C1732 C1730 1.388 . S
C1732 C1733 1.366 . S
C1733 C1732 1.366 . S
C1733 C1734 1.414 . S
C1733 C1736 1.499 . S
C1734 H1714 0.950 . S
C1734 C1733 1.414 . S
C1734 C1735 1.374 . S
C1735 H1715 0.950 . S
C1735 C1731 1.385 . S
C1735 C1734 1.374 . S
C1736 C1733 1.499 . S
C1736 C1737 1.373 . S
C1736 C1738 1.389 . S
C1737 H1716 0.950 . S
C1737 C1736 1.373 . S
C1737 C1753 1.377 . S
C1738 C1736 1.389 . S
C1738 C1739 1.524 . S
C1738 C1752 1.377 . S
C1739 C1738 1.524 . S
C1739 C1740 1.397 . S
C1739 C1744 1.363 . S
C1740 H1717 0.950 . S
C1740 C1739 1.397 . S
C1740 C1741 1.334 . S
C1741 H1718 0.950 . S
C1741 C1740 1.334 . S
C1741 C1742 1.287 . S
C1742 C1741 1.287 . S
C1742 C1743 1.524 . S
C1742 H1761 0.913 . S
C1743 H1719 0.950 . S
C1743 C1742 1.524 . S
C1743 C1744 1.415 . S
C1744 H1720 0.950 . S
C1744 C1739 1.363 . S
C1744 C1743 1.415 . S
C1745 H1721 0.951 . S
C1745 C1746 1.366 . S
C1745 C1747 1.388 . S
C1746 C1745 1.366 . S
C1746 C1750 1.385 . S
C1747 H1722 0.951 . S
C1747 C1745 1.388 . S
C1747 C1748 1.366 . S
C1748 C1747 1.366 . S
C1748 C1749 1.414 . S
C1748 C1751 1.499 . S
C1749 H1723 0.950 . S
C1749 C1748 1.414 . S
C1749 C1750 1.374 . S
C1750 H1724 0.950 . S
C1750 C1746 1.385 . S
C1750 C1749 1.374 . S
C1751 C1748 1.499 . S
C1751 C1752 1.373 . S
C1751 C1753 1.389 . S
C1752 H1725 0.950 . S
C1752 C1738 1.377 . S
C1752 C1751 1.373 . S
C1753 C1737 1.377 . S
C1753 C1751 1.389 . S
C1753 C1754 1.524 . S
C1754 C1753 1.524 . S
C1754 C1755 1.397 . S
C1754 C1759 1.363 . S
C1755 H1726 0.950 . S
C1755 C1754 1.397 . S
C1755 C1756 1.334 . S
C1756 H1727 0.950 . S
C1756 C1755 1.334 . S
C1756 C1757 1.287 . S
C1757 C1756 1.287 . S
C1757 C1758 1.524 . S
C1757 H1760 0.999 . S
C1758 H1728 0.950 . S
C1758 C1757 1.524 . S
C1758 C1759 1.415 . S
C1759 H1729 0.950 . S
C1759 C1754 1.363 . S
C1759 C1758 1.415 . S
H1760 C1757 0.999 . S
H1761 C1742 0.913 . S
H1762 C1780 0.951 . S
H1763 C1782 0.951 . S
H1764 C1784 0.950 . S
H1765 C1785 0.950 . S
H1766 C1787 0.950 . S
H1767 C1790 0.950 . S
H1768 C1791 0.950 . S
H1769 C1793 0.950 . S
H1770 C1794 0.950 . S
H1771 C1795 0.951 . S
H1772 C1797 0.951 . S
H1773 C1799 0.950 . S
H1774 C1800 0.950 . S
H1775 C1802 0.950 . S
H1776 C1805 0.950 . S
H1777 C1806 0.950 . S
H1778 C1808 0.950 . S
H1779 C1809 0.950 . S
C1780 H1762 0.951 . S
C1780 C1781 1.366 . S
C1780 C1782 1.388 . S
C1781 C1780 1.366 . S
C1781 C1785 1.385 . S
C1782 H1763 0.951 . S
C1782 C1780 1.388 . S
C1782 C1783 1.366 . S
C1783 C1782 1.366 . S
C1783 C1784 1.414 . S
C1783 C1786 1.499 . S
C1784 H1764 0.950 . S
C1784 C1783 1.414 . S
C1784 C1785 1.374 . S
C1785 H1765 0.950 . S
C1785 C1781 1.385 . S
C1785 C1784 1.374 . S
C1786 C1783 1.499 . S
C1786 C1787 1.373 . S
C1786 C1788 1.389 . S
C1787 H1766 0.950 . S
C1787 C1786 1.373 . S
C1787 C1803 1.377 . S
C1788 C1786 1.389 . S
C1788 C1789 1.524 . S
C1788 C1802 1.377 . S
C1789 C1788 1.524 . S
C1789 C1790 1.397 . S
C1789 C1794 1.363 . S
C1790 H1767 0.950 . S
C1790 C1789 1.397 . S
C1790 C1791 1.334 . S
C1791 H1768 0.950 . S
C1791 C1790 1.334 . S
C1791 C1792 1.287 . S
C1792 C1791 1.287 . S
C1792 C1793 1.524 . S
C1792 H1811 0.913 . S
C1793 H1769 0.950 . S
C1793 C1792 1.524 . S
C1793 C1794 1.415 . S
C1794 H1770 0.950 . S
C1794 C1789 1.363 . S
C1794 C1793 1.415 . S
C1795 H1771 0.951 . S
C1795 C1796 1.366 . S
C1795 C1797 1.388 . S
C1796 C1795 1.366 . S
C1796 C1800 1.385 . S
C1797 H1772 0.951 . S
C1797 C1795 1.388 . S
C1797 C1798 1.366 . S
C1798 C1797 1.366 . S
C1798 C1799 1.414 . S
C1798 C1801 1.499 . S
C1799 H1773 0.950 . S
C1799 C1798 1.414 . S
C1799 C1800 1.374 . S
C1800 H1774 0.950 . S
C1800 C1796 1.385 . S
C1800 C1799 1.374 . S
C1801 C1798 1.499 . S
C1801 C1802 1.373 . S
C1801 C1803 1.389 . S
C1802 H1775 0.950 . S
C1802 C1788 1.377 . S
C1802 C1801 1.373 . S
C1803 C1787 1.377 . S
C1803 C1801 1.389 . S
C1803 C1804 1.524 . S
C1804 C1803 1.524 . S
C1804 C1805 1.397 . S
C1804 C1809 1.363 . S
C1805 H1776 0.950 . S
C1805 C1804 1.397 . S
C1805 C1806 1.334 . S
C1806 H1777 0.950 . S
C1806 C1805 1.334 . S
C1806 C1807 1.287 . S
C1807 C1806 1.287 . S
C1807 C1808 1.524 . S
C1807 H1810 0.999 . S
C1808 H1778 0.950 . S
C1808 C1807 1.524 . S
C1808 C1809 1.415 . S
C1809 H1779 0.950 . S
C1809 C1804 1.363 . S
C1809 C1808 1.415 . S
H1810 C1807 0.999 . S
H1811 C1792 0.913 . S
H1812 C1830 0.951 . S
H1813 C1832 0.951 . S
H1814 C1834 0.950 . S
H1815 C1835 0.950 . S
H1816 C1837 0.950 . S
H1817 C1840 0.950 . S
H1818 C1841 0.950 . S
H1819 C1843 0.950 . S
H1820 C1844 0.950 . S
H1821 C1845 0.951 . S
H1822 C1847 0.951 . S
H1823 C1849 0.950 . S
H1824 C1850 0.950 . S
H1825 C1852 0.950 . S
H1826 C1855 0.950 . S
H1827 C1856 0.950 . S
H1828 C1858 0.950 . S
H1829 C1859 0.950 . S
C1830 H1812 0.951 . S
C1830 C1831 1.366 . S
C1830 C1832 1.388 . S
C1831 C1830 1.366 . S
C1831 C1835 1.385 . S
C1832 H1813 0.951 . S
C1832 C1830 1.388 . S
C1832 C1833 1.366 . S
C1833 C1832 1.366 . S
C1833 C1834 1.414 . S
C1833 C1836 1.499 . S
C1834 H1814 0.950 . S
C1834 C1833 1.414 . S
C1834 C1835 1.374 . S
C1835 H1815 0.950 . S
C1835 C1831 1.385 . S
C1835 C1834 1.374 . S
C1836 C1833 1.499 . S
C1836 C1837 1.373 . S
C1836 C1838 1.389 . S
C1837 H1816 0.950 . S
C1837 C1836 1.373 . S
C1837 C1853 1.377 . S
C1838 C1836 1.389 . S
C1838 C1839 1.524 . S
C1838 C1852 1.377 . S
C1839 C1838 1.524 . S
C1839 C1840 1.397 . S
C1839 C1844 1.363 . S
C1840 H1817 0.950 . S
C1840 C1839 1.397 . S
C1840 C1841 1.334 . S
C1841 H1818 0.950 . S
C1841 C1840 1.334 . S
C1841 C1842 1.287 . S
C1842 C1841 1.287 . S
C1842 C1843 1.524 . S
C1842 H1861 0.913 . S
C1843 H1819 0.950 . S
C1843 C1842 1.524 . S
C1843 C1844 1.415 . S
C1844 H1820 0.950 . S
C1844 C1839 1.363 . S
C1844 C1843 1.415 . S
C1845 H1821 0.951 . S
C1845 C1846 1.366 . S
C1845 C1847 1.388 . S
C1846 C1845 1.366 . S
C1846 C1850 1.385 . S
C1847 H1822 0.951 . S
C1847 C1845 1.388 . S
C1847 C1848 1.366 . S
C1848 C1847 1.366 . S
C1848 C1849 1.414 . S
C1848 C1851 1.499 . S
C1849 H1823 0.950 . S
C1849 C1848 1.414 . S
C1849 C1850 1.374 . S
C1850 H1824 0.950 . S
C1850 C1846 1.385 . S
C1850 C1849 1.374 . S
C1851 C1848 1.499 . S
C1851 C1852 1.373 . S
C1851 C1853 1.389 . S
C1852 H1825 0.950 . S
C1852 C1838 1.377 . S
C1852 C1851 1.373 . S
C1853 C1837 1.377 . S
C1853 C1851 1.389 . S
C1853 C1854 1.524 . S
C1854 C1853 1.524 . S
C1854 C1855 1.397 . S
C1854 C1859 1.363 . S
C1855 H1826 0.950 . S
C1855 C1854 1.397 . S
C1855 C1856 1.334 . S
C1856 H1827 0.950 . S
C1856 C1855 1.334 . S
C1856 C1857 1.287 . S
C1857 C1856 1.287 . S
C1857 C1858 1.524 . S
C1857 H1860 0.999 . S
C1858 H1828 0.950 . S
C1858 C1857 1.524 . S
C1858 C1859 1.415 . S
C1859 H1829 0.950 . S
C1859 C1854 1.363 . S
C1859 C1858 1.415 . S
H1860 C1857 0.999 . S
H1861 C1842 0.913 . S
H1862 C1880 0.951 . S
H1863 C1882 0.951 . S
H1864 C1884 0.950 . S
H1865 C1885 0.950 . S
H1866 C1887 0.950 . S
H1867 C1890 0.950 . S
H1868 C1891 0.950 . S
H1869 C1893 0.950 . S
H1870 C1894 0.950 . S
H1871 C1895 0.951 . S
H1872 C1897 0.951 . S
H1873 C1899 0.950 . S
H1874 C1900 0.950 . S
H1875 C1902 0.950 . S
H1876 C1905 0.950 . S
H1877 C1906 0.960 . S
H1878 C1908 0.969 . S
H1879 C1909 0.950 . S
C1880 H1862 0.951 . S
C1880 C1881 1.366 . S
C1880 C1882 1.388 . S
C1881 C1880 1.366 . S
C1881 C1885 1.385 . S
C1882 H1863 0.951 . S
C1882 C1880 1.388 . S
C1882 C1883 1.366 . S
C1883 C1882 1.366 . S
C1883 C1884 1.414 . S
C1883 C1886 1.499 . S
C1884 H1864 0.950 . S
C1884 C1883 1.414 . S
C1884 C1885 1.374 . S
C1885 H1865 0.950 . S
C1885 C1881 1.385 . S
C1885 C1884 1.374 . S
C1886 C1883 1.499 . S
C1886 C1887 1.373 . S
C1886 C1888 1.389 . S
C1887 H1866 0.950 . S
C1887 C1886 1.373 . S
C1887 C1903 1.377 . S
C1888 C1886 1.389 . S
C1888 C1889 1.524 . S
C1888 C1902 1.377 . S
C1889 C1888 1.524 . S
C1889 C1890 1.397 . S
C1889 C1894 1.363 . S
C1890 H1867 0.950 . S
C1890 C1889 1.397 . S
C1890 C1891 1.334 . S
C1891 H1868 0.950 . S
C1891 C1890 1.334 . S
C1891 C1892 1.287 . S
C1892 C1891 1.287 . S
C1892 C1893 1.524 . S
C1892 H1911 0.913 . S
C1893 H1869 0.950 . S
C1893 C1892 1.524 . S
C1893 C1894 1.415 . S
C1894 H1870 0.950 . S
C1894 C1889 1.363 . S
C1894 C1893 1.415 . S
C1895 H1871 0.951 . S
C1895 C1896 1.366 . S
C1895 C1897 1.388 . S
C1896 C1895 1.366 . S
C1896 C1900 1.385 . S
C1897 H1872 0.951 . S
C1897 C1895 1.388 . S
C1897 C1898 1.366 . S
C1898 C1897 1.366 . S
C1898 C1899 1.414 . S
C1898 C1901 1.499 . S
C1899 H1873 0.950 . S
C1899 C1898 1.414 . S
C1899 C1900 1.374 . S
C1900 H1874 0.950 . S
C1900 C1896 1.385 . S
C1900 C1899 1.374 . S
C1901 C1898 1.499 . S
C1901 C1902 1.373 . S
C1901 C1903 1.389 . S
C1902 H1875 0.950 . S
C1902 C1888 1.377 . S
C1902 C1901 1.373 . S
C1903 C1887 1.377 . S
C1903 C1901 1.389 . S
C1903 C1904 1.524 . S
C1904 C1903 1.524 . S
C1904 C1905 1.397 . S
C1904 C1909 1.363 . S
C1905 H1876 0.950 . S
C1905 C1904 1.397 . S
C1905 C1906 1.334 . S
C1906 H1877 0.960 . S
C1906 C1905 1.334 . S
C1906 C1907 1.287 1_556 S
C1907 C1906 1.287 1_554 S
C1907 C1908 1.534 . S
C1907 H1910 0.999 . S
C1908 H1878 0.969 . S
C1908 C1907 1.534 . S
C1908 C1909 1.384 1_554 S
C1909 H1879 0.950 . S
C1909 C1904 1.363 . S
C1909 C1908 1.384 1_556 S
H1910 C1907 0.999 . S
H1911 C1892 0.913 . S
H1912 C1930 0.951 . S
H1913 C1932 0.951 . S
H1914 C1934 0.950 . S
H1915 C1935 0.950 . S
H1916 C1937 0.950 . S
H1917 C1940 0.950 . S
H1918 C1941 0.950 . S
H1919 C1943 0.950 . S
H1920 C1944 0.950 . S
H1921 C1945 0.951 . S
H1922 C1947 0.951 . S
H1923 C1949 0.950 . S
H1924 C1950 0.950 . S
H1925 C1952 0.950 . S
H1926 C1955 0.950 . S
H1927 C1956 0.950 . S
H1928 C1958 0.950 . S
H1929 C1959 0.950 . S
C1930 H1912 0.951 . S
C1930 C1931 1.366 . S
C1930 C1932 1.388 . S
C1931 C1930 1.366 . S
C1931 C1935 1.385 . S
C1932 H1913 0.951 . S
C1932 C1930 1.388 . S
C1932 C1933 1.366 . S
C1933 C1932 1.366 . S
C1933 C1934 1.414 . S
C1933 C1936 1.499 . S
C1934 H1914 0.950 . S
C1934 C1933 1.414 . S
C1934 C1935 1.374 . S
C1935 H1915 0.950 . S
C1935 C1931 1.385 . S
C1935 C1934 1.374 . S
C1936 C1933 1.499 . S
C1936 C1937 1.373 . S
C1936 C1938 1.389 . S
C1937 H1916 0.950 . S
C1937 C1936 1.373 . S
C1937 C1953 1.377 . S
C1938 C1936 1.389 . S
C1938 C1939 1.524 . S
C1938 C1952 1.377 . S
C1939 C1938 1.524 . S
C1939 C1940 1.397 . S
C1939 C1944 1.363 . S
C1940 H1917 0.950 . S
C1940 C1939 1.397 . S
C1940 C1941 1.334 . S
C1941 H1918 0.950 . S
C1941 C1940 1.334 . S
C1941 C1942 1.287 . S
C1942 C1941 1.287 . S
C1942 C1943 1.524 . S
C1942 H1961 0.913 . S
C1943 H1919 0.950 . S
C1943 C1942 1.524 . S
C1943 C1944 1.415 . S
C1944 H1920 0.950 . S
C1944 C1939 1.363 . S
C1944 C1943 1.415 . S
C1945 H1921 0.951 . S
C1945 C1946 1.366 . S
C1945 C1947 1.388 . S
C1946 C1945 1.366 . S
C1946 C1950 1.385 . S
C1947 H1922 0.951 . S
C1947 C1945 1.388 . S
C1947 C1948 1.366 . S
C1948 C1947 1.366 . S
C1948 C1949 1.414 . S
C1948 C1951 1.499 . S
C1949 H1923 0.950 . S
C1949 C1948 1.414 . S
C1949 C1950 1.374 . S
C1950 H1924 0.950 . S
C1950 C1946 1.385 . S
C1950 C1949 1.374 . S
C1951 C1948 1.499 . S
C1951 C1952 1.373 . S
C1951 C1953 1.389 . S
C1952 H1925 0.950 . S
C1952 C1938 1.377 . S
C1952 C1951 1.373 . S
C1953 C1937 1.377 . S
C1953 C1951 1.389 . S
C1953 C1954 1.524 . S
C1954 C1953 1.524 . S
C1954 C1955 1.397 . S
C1954 C1959 1.363 . S
C1955 H1926 0.950 . S
C1955 C1954 1.397 . S
C1955 C1956 1.334 . S
C1956 H1927 0.950 . S
C1956 C1955 1.334 . S
C1956 C1957 1.287 . S
C1957 C1956 1.287 . S
C1957 C1958 1.524 . S
C1957 H1960 0.999 . S
C1958 H1928 0.950 . S
C1958 C1957 1.524 . S
C1958 C1959 1.415 . S
C1959 H1929 0.950 . S
C1959 C1954 1.363 . S
C1959 C1958 1.415 . S
H1960 C1957 0.999 . S
H1961 C1942 0.913 . S
H1962 C1980 0.951 . S
H1963 C1982 0.951 . S
H1964 C1984 0.950 . S
H1965 C1985 0.950 . S
H1966 C1987 0.950 . S
H1967 C1990 0.950 . S
H1968 C1991 0.950 . S
H1969 C1993 0.950 . S
H1970 C1994 0.950 . S
H1971 C1995 0.951 . S
H1972 C1997 0.951 . S
H1973 C1999 0.950 . S
H1974 C2000 0.950 . S
H1975 C2002 0.950 . S
H1976 C2005 0.950 . S
H1977 C2006 0.950 . S
H1978 C2008 0.950 . S
H1979 C2009 0.950 . S
C1980 H1962 0.951 . S
C1980 C1981 1.366 . S
C1980 C1982 1.388 . S
C1981 C1980 1.366 . S
C1981 C1985 1.385 . S
C1982 H1963 0.951 . S
C1982 C1980 1.388 . S
C1982 C1983 1.366 . S
C1983 C1982 1.366 . S
C1983 C1984 1.414 . S
C1983 C1986 1.499 . S
C1984 H1964 0.950 . S
C1984 C1983 1.414 . S
C1984 C1985 1.374 . S
C1985 H1965 0.950 . S
C1985 C1981 1.385 . S
C1985 C1984 1.374 . S
C1986 C1983 1.499 . S
C1986 C1987 1.373 . S
C1986 C1988 1.389 . S
C1987 H1966 0.950 . S
C1987 C1986 1.373 . S
C1987 C2003 1.377 . S
C1988 C1986 1.389 . S
C1988 C1989 1.524 . S
C1988 C2002 1.377 . S
C1989 C1988 1.524 . S
C1989 C1990 1.397 . S
C1989 C1994 1.363 . S
C1990 H1967 0.950 . S
C1990 C1989 1.397 . S
C1990 C1991 1.334 . S
C1991 H1968 0.950 . S
C1991 C1990 1.334 . S
C1991 C1992 1.287 . S
C1992 C1991 1.287 . S
C1992 C1993 1.524 . S
C1992 H2011 0.913 . S
C1993 H1969 0.950 . S
C1993 C1992 1.524 . S
C1993 C1994 1.415 . S
C1994 H1970 0.950 . S
C1994 C1989 1.363 . S
C1994 C1993 1.415 . S
C1995 H1971 0.951 . S
C1995 C1996 1.366 . S
C1995 C1997 1.388 . S
C1996 C1995 1.366 . S
C1996 C2000 1.385 . S
C1997 H1972 0.951 . S
C1997 C1995 1.388 . S
C1997 C1998 1.366 . S
C1998 C1997 1.366 . S
C1998 C1999 1.414 . S
C1998 C2001 1.499 . S
C1999 H1973 0.950 . S
C1999 C1998 1.414 . S
C1999 C2000 1.374 . S
C2000 H1974 0.950 . S
C2000 C1996 1.385 . S
C2000 C1999 1.374 . S
C2001 C1998 1.499 . S
C2001 C2002 1.373 . S
C2001 C2003 1.389 . S
C2002 H1975 0.950 . S
C2002 C1988 1.377 . S
C2002 C2001 1.373 . S
C2003 C1987 1.377 . S
C2003 C2001 1.389 . S
C2003 C2004 1.524 . S
C2004 C2003 1.524 . S
C2004 C2005 1.397 . S
C2004 C2009 1.363 . S
C2005 H1976 0.950 . S
C2005 C2004 1.397 . S
C2005 C2006 1.334 . S
C2006 H1977 0.950 . S
C2006 C2005 1.334 . S
C2006 C2007 1.287 . S
C2007 C2006 1.287 . S
C2007 C2008 1.524 . S
C2007 H2010 0.999 . S
C2008 H1978 0.950 . S
C2008 C2007 1.524 . S
C2008 C2009 1.415 . S
C2009 H1979 0.950 . S
C2009 C2004 1.363 . S
C2009 C2008 1.415 . S
H2010 C2007 0.999 . S
H2011 C1992 0.913 . S
H2012 C2030 0.951 . S
H2013 C2032 0.951 . S
H2014 C2034 0.950 . S
H2015 C2035 0.950 . S
H2016 C2037 0.950 . S
H2017 C2040 0.950 . S
H2018 C2041 0.950 . S
H2019 C2043 0.950 . S
H2020 C2044 0.950 . S
H2021 C2045 0.951 . S
H2022 C2047 0.951 . S
H2023 C2049 0.950 . S
H2024 C2050 0.950 . S
H2025 C2052 0.950 . S
H2026 C2055 0.950 . S
H2027 C2056 0.950 . S
H2028 C2058 0.950 . S
H2029 C2059 0.950 . S
C2030 H2012 0.951 . S
C2030 C2031 1.366 . S
C2030 C2032 1.388 . S
C2031 C2030 1.366 . S
C2031 C2035 1.385 . S
C2032 H2013 0.951 . S
C2032 C2030 1.388 . S
C2032 C2033 1.366 . S
C2033 C2032 1.366 . S
C2033 C2034 1.414 . S
C2033 C2036 1.499 . S
C2034 H2014 0.950 . S
C2034 C2033 1.414 . S
C2034 C2035 1.374 . S
C2035 H2015 0.950 . S
C2035 C2031 1.385 . S
C2035 C2034 1.374 . S
C2036 C2033 1.499 . S
C2036 C2037 1.373 . S
C2036 C2038 1.389 . S
C2037 H2016 0.950 . S
C2037 C2036 1.373 . S
C2037 C2053 1.377 . S
C2038 C2036 1.389 . S
C2038 C2039 1.524 . S
C2038 C2052 1.377 . S
C2039 C2038 1.524 . S
C2039 C2040 1.397 . S
C2039 C2044 1.363 . S
C2040 H2017 0.950 . S
C2040 C2039 1.397 . S
C2040 C2041 1.334 . S
C2041 H2018 0.950 . S
C2041 C2040 1.334 . S
C2041 C2042 1.287 . S
C2042 C2041 1.287 . S
C2042 C2043 1.524 . S
C2042 H2061 0.913 . S
C2043 H2019 0.950 . S
C2043 C2042 1.524 . S
C2043 C2044 1.415 . S
C2044 H2020 0.950 . S
C2044 C2039 1.363 . S
C2044 C2043 1.415 . S
C2045 H2021 0.951 . S
C2045 C2046 1.366 . S
C2045 C2047 1.388 . S
C2046 C2045 1.366 . S
C2046 C2050 1.385 . S
C2047 H2022 0.951 . S
C2047 C2045 1.388 . S
C2047 C2048 1.366 . S
C2048 C2047 1.366 . S
C2048 C2049 1.414 . S
C2048 C2051 1.499 . S
C2049 H2023 0.950 . S
C2049 C2048 1.414 . S
C2049 C2050 1.374 . S
C2050 H2024 0.950 . S
C2050 C2046 1.385 . S
C2050 C2049 1.374 . S
C2051 C2048 1.499 . S
C2051 C2052 1.373 . S
C2051 C2053 1.389 . S
C2052 H2025 0.950 . S
C2052 C2038 1.377 . S
C2052 C2051 1.373 . S
C2053 C2037 1.377 . S
C2053 C2051 1.389 . S
C2053 C2054 1.524 . S
C2054 C2053 1.524 . S
C2054 C2055 1.397 . S
C2054 C2059 1.363 . S
C2055 H2026 0.950 . S
C2055 C2054 1.397 . S
C2055 C2056 1.334 . S
C2056 H2027 0.950 . S
C2056 C2055 1.334 . S
C2056 C2057 1.287 . S
C2057 C2056 1.287 . S
C2057 C2058 1.524 . S
C2057 H2060 0.999 . S
C2058 H2028 0.950 . S
C2058 C2057 1.524 . S
C2058 C2059 1.415 . S
C2059 H2029 0.950 . S
C2059 C2054 1.363 . S
C2059 C2058 1.415 . S
H2060 C2057 0.999 . S
H2061 C2042 0.913 . S
H2062 C2080 0.951 . S
H2063 C2082 0.951 . S
H2064 C2084 0.950 . S
H2065 C2085 0.950 . S
H2066 C2087 0.950 . S
H2067 C2090 0.950 . S
H2068 C2091 0.950 . S
H2069 C2093 0.950 . S
H2070 C2094 0.950 . S
H2071 C2095 0.951 . S
H2072 C2097 0.951 . S
H2073 C2099 0.950 . S
H2074 C2100 0.950 . S
H2075 C2102 0.950 . S
H2076 C2105 0.950 . S
H2077 C2106 0.950 . S
H2078 C2108 0.950 . S
H2079 C2109 0.950 . S
C2080 H2062 0.951 . S
C2080 C2081 1.366 . S
C2080 C2082 1.388 . S
C2081 C2080 1.366 . S
C2081 C2085 1.385 . S
C2082 H2063 0.951 . S
C2082 C2080 1.388 . S
C2082 C2083 1.366 . S
C2083 C2082 1.366 . S
C2083 C2084 1.414 . S
C2083 C2086 1.499 . S
C2084 H2064 0.950 . S
C2084 C2083 1.414 . S
C2084 C2085 1.374 . S
C2085 H2065 0.950 . S
C2085 C2081 1.385 . S
C2085 C2084 1.374 . S
C2086 C2083 1.499 . S
C2086 C2087 1.373 . S
C2086 C2088 1.389 . S
C2087 H2066 0.950 . S
C2087 C2086 1.373 . S
C2087 C2103 1.377 . S
C2088 C2086 1.389 . S
C2088 C2089 1.524 . S
C2088 C2102 1.377 . S
C2089 C2088 1.524 . S
C2089 C2090 1.397 . S
C2089 C2094 1.363 . S
C2090 H2067 0.950 . S
C2090 C2089 1.397 . S
C2090 C2091 1.334 . S
C2091 H2068 0.950 . S
C2091 C2090 1.334 . S
C2091 C2092 1.287 . S
C2092 C2091 1.287 . S
C2092 C2093 1.524 . S
C2092 H2111 0.913 . S
C2093 H2069 0.950 . S
C2093 C2092 1.524 . S
C2093 C2094 1.415 . S
C2094 H2070 0.950 . S
C2094 C2089 1.363 . S
C2094 C2093 1.415 . S
C2095 H2071 0.951 . S
C2095 C2096 1.366 . S
C2095 C2097 1.388 . S
C2096 C2095 1.366 . S
C2096 C2100 1.385 . S
C2097 H2072 0.951 . S
C2097 C2095 1.388 . S
C2097 C2098 1.366 . S
C2098 C2097 1.366 . S
C2098 C2099 1.414 . S
C2098 C2101 1.499 . S
C2099 H2073 0.950 . S
C2099 C2098 1.414 . S
C2099 C2100 1.374 . S
C2100 H2074 0.950 . S
C2100 C2096 1.385 . S
C2100 C2099 1.374 . S
C2101 C2098 1.499 . S
C2101 C2102 1.373 . S
C2101 C2103 1.389 . S
C2102 H2075 0.950 . S
C2102 C2088 1.377 . S
C2102 C2101 1.373 . S
C2103 C2087 1.377 . S
C2103 C2101 1.389 . S
C2103 C2104 1.524 . S
C2104 C2103 1.524 . S
C2104 C2105 1.397 . S
C2104 C2109 1.363 . S
C2105 H2076 0.950 . S
C2105 C2104 1.397 . S
C2105 C2106 1.334 . S
C2106 H2077 0.950 . S
C2106 C2105 1.334 . S
C2106 C2107 1.287 . S
C2107 C2106 1.287 . S
C2107 C2108 1.524 . S
C2107 H2110 0.999 . S
C2108 H2078 0.950 . S
C2108 C2107 1.524 . S
C2108 C2109 1.415 . S
C2109 H2079 0.950 . S
C2109 C2104 1.363 . S
C2109 C2108 1.415 . S
H2110 C2107 0.999 . S
H2111 C2092 0.913 . S
H2112 C2130 0.951 . S
H2113 C2132 0.951 . S
H2114 C2134 0.950 . S
H2115 C2135 0.950 . S
H2116 C2137 0.950 . S
H2117 C2140 0.950 . S
H2118 C2141 0.950 . S
H2119 C2143 0.950 . S
H2120 C2144 0.950 . S
H2121 C2145 0.951 . S
H2122 C2147 0.951 . S
H2123 C2149 0.950 . S
H2124 C2150 0.950 . S
H2125 C2152 0.950 . S
H2126 C2155 0.950 . S
H2127 C2156 0.950 . S
H2128 C2158 0.950 . S
H2129 C2159 0.950 . S
C2130 H2112 0.951 . S
C2130 C2131 1.366 . S
C2130 C2132 1.388 . S
C2131 C2130 1.366 . S
C2131 C2135 1.385 . S
C2132 H2113 0.951 . S
C2132 C2130 1.388 . S
C2132 C2133 1.366 . S
C2133 C2132 1.366 . S
C2133 C2134 1.414 . S
C2133 C2136 1.499 . S
C2134 H2114 0.950 . S
C2134 C2133 1.414 . S
C2134 C2135 1.374 . S
C2135 H2115 0.950 . S
C2135 C2131 1.385 . S
C2135 C2134 1.374 . S
C2136 C2133 1.499 . S
C2136 C2137 1.373 . S
C2136 C2138 1.389 . S
C2137 H2116 0.950 . S
C2137 C2136 1.373 . S
C2137 C2153 1.377 . S
C2138 C2136 1.389 . S
C2138 C2139 1.524 . S
C2138 C2152 1.377 . S
C2139 C2138 1.524 . S
C2139 C2140 1.397 . S
C2139 C2144 1.363 . S
C2140 H2117 0.950 . S
C2140 C2139 1.397 . S
C2140 C2141 1.334 . S
C2141 H2118 0.950 . S
C2141 C2140 1.334 . S
C2141 C2142 1.287 . S
C2142 C2141 1.287 . S
C2142 C2143 1.524 . S
C2142 H2161 0.913 . S
C2143 H2119 0.950 . S
C2143 C2142 1.524 . S
C2143 C2144 1.415 . S
C2144 H2120 0.950 . S
C2144 C2139 1.363 . S
C2144 C2143 1.415 . S
C2145 H2121 0.951 . S
C2145 C2146 1.366 . S
C2145 C2147 1.388 . S
C2146 C2145 1.366 . S
C2146 C2150 1.385 . S
C2147 H2122 0.951 . S
C2147 C2145 1.388 . S
C2147 C2148 1.366 . S
C2148 C2147 1.366 . S
C2148 C2149 1.414 . S
C2148 C2151 1.499 . S
C2149 H2123 0.950 . S
C2149 C2148 1.414 . S
C2149 C2150 1.374 . S
C2150 H2124 0.950 . S
C2150 C2146 1.385 . S
C2150 C2149 1.374 . S
C2151 C2148 1.499 . S
C2151 C2152 1.373 . S
C2151 C2153 1.389 . S
C2152 H2125 0.950 . S
C2152 C2138 1.377 . S
C2152 C2151 1.373 . S
C2153 C2137 1.377 . S
C2153 C2151 1.389 . S
C2153 C2154 1.524 . S
C2154 C2153 1.524 . S
C2154 C2155 1.397 . S
C2154 C2159 1.363 . S
C2155 H2126 0.950 . S
C2155 C2154 1.397 . S
C2155 C2156 1.334 . S
C2156 H2127 0.950 . S
C2156 C2155 1.334 . S
C2156 C2157 1.287 . S
C2157 C2156 1.287 . S
C2157 C2158 1.524 . S
C2157 H2160 0.999 . S
C2158 H2128 0.950 . S
C2158 C2157 1.524 . S
C2158 C2159 1.415 . S
C2159 H2129 0.950 . S
C2159 C2154 1.363 . S
C2159 C2158 1.415 . S
H2160 C2157 0.999 . S
H2161 C2142 0.913 . S
H2162 C2180 0.951 . S
H2163 C2182 0.951 . S
H2164 C2184 0.950 . S
H2165 C2185 0.950 . S
H2166 C2187 0.950 . S
H2167 C2190 0.950 . S
H2168 C2191 0.950 . S
H2169 C2193 0.950 . S
H2170 C2194 0.950 . S
H2171 C2195 0.951 . S
H2172 C2197 0.951 . S
H2173 C2199 0.950 . S
H2174 C2200 0.950 . S
H2175 C2202 0.950 . S
H2176 C2205 0.950 . S
H2177 C2206 0.950 . S
H2178 C2208 0.950 . S
H2179 C2209 0.950 . S
C2180 H2162 0.951 . S
C2180 C2181 1.366 . S
C2180 C2182 1.388 . S
C2181 C2180 1.366 . S
C2181 C2185 1.385 . S
C2182 H2163 0.951 . S
C2182 C2180 1.388 . S
C2182 C2183 1.366 . S
C2183 C2182 1.366 . S
C2183 C2184 1.414 . S
C2183 C2186 1.499 . S
C2184 H2164 0.950 . S
C2184 C2183 1.414 . S
C2184 C2185 1.374 . S
C2185 H2165 0.950 . S
C2185 C2181 1.385 . S
C2185 C2184 1.374 . S
C2186 C2183 1.499 . S
C2186 C2187 1.373 . S
C2186 C2188 1.389 . S
C2187 H2166 0.950 . S
C2187 C2186 1.373 . S
C2187 C2203 1.377 . S
C2188 C2186 1.389 . S
C2188 C2189 1.524 . S
C2188 C2202 1.377 . S
C2189 C2188 1.524 . S
C2189 C2190 1.397 . S
C2189 C2194 1.363 . S
C2190 H2167 0.950 . S
C2190 C2189 1.397 . S
C2190 C2191 1.334 . S
C2191 H2168 0.950 . S
C2191 C2190 1.334 . S
C2191 C2192 1.287 . S
C2192 C2191 1.287 . S
C2192 C2193 1.524 . S
C2192 H2211 0.913 . S
C2193 H2169 0.950 . S
C2193 C2192 1.524 . S
C2193 C2194 1.415 . S
C2194 H2170 0.950 . S
C2194 C2189 1.363 . S
C2194 C2193 1.415 . S
C2195 H2171 0.951 . S
C2195 C2196 1.366 . S
C2195 C2197 1.388 . S
C2196 C2195 1.366 . S
C2196 C2200 1.385 . S
C2197 H2172 0.951 . S
C2197 C2195 1.388 . S
C2197 C2198 1.366 . S
C2198 C2197 1.366 . S
C2198 C2199 1.414 . S
C2198 C2201 1.499 . S
C2199 H2173 0.950 . S
C2199 C2198 1.414 . S
C2199 C2200 1.374 . S
C2200 H2174 0.950 . S
C2200 C2196 1.385 . S
C2200 C2199 1.374 . S
C2201 C2198 1.499 . S
C2201 C2202 1.373 . S
C2201 C2203 1.389 . S
C2202 H2175 0.950 . S
C2202 C2188 1.377 . S
C2202 C2201 1.373 . S
C2203 C2187 1.377 . S
C2203 C2201 1.389 . S
C2203 C2204 1.524 . S
C2204 C2203 1.524 . S
C2204 C2205 1.397 . S
C2204 C2209 1.363 . S
C2205 H2176 0.950 . S
C2205 C2204 1.397 . S
C2205 C2206 1.334 . S
C2206 H2177 0.950 . S
C2206 C2205 1.334 . S
C2206 C2207 1.287 . S
C2207 C2206 1.287 . S
C2207 C2208 1.524 . S
C2207 H2210 0.999 . S
C2208 H2178 0.950 . S
C2208 C2207 1.524 . S
C2208 C2209 1.415 . S
C2209 H2179 0.950 . S
C2209 C2204 1.363 . S
C2209 C2208 1.415 . S
H2210 C2207 0.999 . S
H2211 C2192 0.913 . S
H2212 C2230 0.951 . S
H2213 C2232 0.951 . S
H2214 C2234 0.950 . S
H2215 C2235 0.950 . S
H2216 C2237 0.950 . S
H2217 C2240 0.950 . S
H2218 C2241 0.950 . S
H2219 C2243 0.950 . S
H2220 C2244 0.950 . S
H2221 C2245 0.951 . S
H2222 C2247 0.951 . S
H2223 C2249 0.950 . S
H2224 C2250 0.950 . S
H2225 C2252 0.950 . S
H2226 C2255 0.950 . S
H2227 C2256 0.950 . S
H2228 C2258 0.950 . S
H2229 C2259 0.950 . S
C2230 H2212 0.951 . S
C2230 C2231 1.366 . S
C2230 C2232 1.388 . S
C2231 C2230 1.366 . S
C2231 C2235 1.385 . S
C2232 H2213 0.951 . S
C2232 C2230 1.388 . S
C2232 C2233 1.366 . S
C2233 C2232 1.366 . S
C2233 C2234 1.414 . S
C2233 C2236 1.499 . S
C2234 H2214 0.950 . S
C2234 C2233 1.414 . S
C2234 C2235 1.374 . S
C2235 H2215 0.950 . S
C2235 C2231 1.385 . S
C2235 C2234 1.374 . S
C2236 C2233 1.499 . S
C2236 C2237 1.373 . S
C2236 C2238 1.389 . S
C2237 H2216 0.950 . S
C2237 C2236 1.373 . S
C2237 C2253 1.377 . S
C2238 C2236 1.389 . S
C2238 C2239 1.524 . S
C2238 C2252 1.377 . S
C2239 C2238 1.524 . S
C2239 C2240 1.397 . S
C2239 C2244 1.363 . S
C2240 H2217 0.950 . S
C2240 C2239 1.397 . S
C2240 C2241 1.334 . S
C2241 H2218 0.950 . S
C2241 C2240 1.334 . S
C2241 C2242 1.287 . S
C2242 C2241 1.287 . S
C2242 C2243 1.524 . S
C2242 H2261 0.913 . S
C2243 H2219 0.950 . S
C2243 C2242 1.524 . S
C2243 C2244 1.415 . S
C2244 H2220 0.950 . S
C2244 C2239 1.363 . S
C2244 C2243 1.415 . S
C2245 H2221 0.951 . S
C2245 C2246 1.366 . S
C2245 C2247 1.388 . S
C2246 C2245 1.366 . S
C2246 C2250 1.385 . S
C2247 H2222 0.951 . S
C2247 C2245 1.388 . S
C2247 C2248 1.366 . S
C2248 C2247 1.366 . S
C2248 C2249 1.414 . S
C2248 C2251 1.499 . S
C2249 H2223 0.950 . S
C2249 C2248 1.414 . S
C2249 C2250 1.374 . S
C2250 H2224 0.950 . S
C2250 C2246 1.385 . S
C2250 C2249 1.374 . S
C2251 C2248 1.499 . S
C2251 C2252 1.373 . S
C2251 C2253 1.389 . S
C2252 H2225 0.950 . S
C2252 C2238 1.377 . S
C2252 C2251 1.373 . S
C2253 C2237 1.377 . S
C2253 C2251 1.389 . S
C2253 C2254 1.524 . S
C2254 C2253 1.524 . S
C2254 C2255 1.397 . S
C2254 C2259 1.363 . S
C2255 H2226 0.950 . S
C2255 C2254 1.397 . S
C2255 C2256 1.334 . S
C2256 H2227 0.950 . S
C2256 C2255 1.334 . S
C2256 C2257 1.287 . S
C2257 C2256 1.287 . S
C2257 C2258 1.524 . S
C2257 H2260 0.999 . S
C2258 H2228 0.950 . S
C2258 C2257 1.524 . S
C2258 C2259 1.415 . S
C2259 H2229 0.950 . S
C2259 C2254 1.363 . S
C2259 C2258 1.415 . S
H2260 C2257 0.999 . S
H2261 C2242 0.913 . S
H2262 C2280 0.951 . S
H2263 C2282 0.951 . S
H2264 C2284 0.950 . S
H2265 C2285 0.950 . S
H2266 C2287 0.950 . S
H2267 C2290 0.950 . S
H2268 C2291 0.950 . S
H2269 C2293 0.950 . S
H2270 C2294 0.950 . S
H2271 C2295 0.951 . S
H2272 C2297 0.951 . S
H2273 C2299 0.950 . S
H2274 C2300 0.950 . S
H2275 C2302 0.950 . S
H2276 C2305 0.950 . S
H2277 C2306 0.950 . S
H2278 C2308 0.950 . S
H2279 C2309 0.950 . S
C2280 H2262 0.951 . S
C2280 C2281 1.366 . S
C2280 C2282 1.388 . S
C2281 C2280 1.366 . S
C2281 C2285 1.385 . S
C2282 H2263 0.951 . S
C2282 C2280 1.388 . S
C2282 C2283 1.366 . S
C2283 C2282 1.366 . S
C2283 C2284 1.414 . S
C2283 C2286 1.499 . S
C2284 H2264 0.950 . S
C2284 C2283 1.414 . S
C2284 C2285 1.374 . S
C2285 H2265 0.950 . S
C2285 C2281 1.385 . S
C2285 C2284 1.374 . S
C2286 C2283 1.499 . S
C2286 C2287 1.373 . S
C2286 C2288 1.389 . S
C2287 H2266 0.950 . S
C2287 C2286 1.373 . S
C2287 C2303 1.377 . S
C2288 C2286 1.389 . S
C2288 C2289 1.524 . S
C2288 C2302 1.377 . S
C2289 C2288 1.524 . S
C2289 C2290 1.397 . S
C2289 C2294 1.363 . S
C2290 H2267 0.950 . S
C2290 C2289 1.397 . S
C2290 C2291 1.334 . S
C2291 H2268 0.950 . S
C2291 C2290 1.334 . S
C2291 C2292 1.287 . S
C2292 C2291 1.287 . S
C2292 C2293 1.524 . S
C2292 H2311 0.913 . S
C2293 H2269 0.950 . S
C2293 C2292 1.524 . S
C2293 C2294 1.415 . S
C2294 H2270 0.950 . S
C2294 C2289 1.363 . S
C2294 C2293 1.415 . S
C2295 H2271 0.951 . S
C2295 C2296 1.366 . S
C2295 C2297 1.388 . S
C2296 C2295 1.366 . S
C2296 C2300 1.385 . S
C2297 H2272 0.951 . S
C2297 C2295 1.388 . S
C2297 C2298 1.366 . S
C2298 C2297 1.366 . S
C2298 C2299 1.414 . S
C2298 C2301 1.499 . S
C2299 H2273 0.950 . S
C2299 C2298 1.414 . S
C2299 C2300 1.374 . S
C2300 H2274 0.950 . S
C2300 C2296 1.385 . S
C2300 C2299 1.374 . S
C2301 C2298 1.499 . S
C2301 C2302 1.373 . S
C2301 C2303 1.389 . S
C2302 H2275 0.950 . S
C2302 C2288 1.377 . S
C2302 C2301 1.373 . S
C2303 C2287 1.377 . S
C2303 C2301 1.389 . S
C2303 C2304 1.524 . S
C2304 C2303 1.524 . S
C2304 C2305 1.397 . S
C2304 C2309 1.363 . S
C2305 H2276 0.950 . S
C2305 C2304 1.397 . S
C2305 C2306 1.334 . S
C2306 H2277 0.950 . S
C2306 C2305 1.334 . S
C2306 C2307 1.287 . S
C2307 C2306 1.287 . S
C2307 C2308 1.524 . S
C2307 H2310 0.999 . S
C2308 H2278 0.950 . S
C2308 C2307 1.524 . S
C2308 C2309 1.415 . S
C2309 H2279 0.950 . S
C2309 C2304 1.363 . S
C2309 C2308 1.415 . S
H2310 C2307 0.999 . S
H2311 C2292 0.913 . S
H2312 C2330 0.951 . S
H2313 C2332 0.951 . S
H2314 C2334 0.950 . S
H2315 C2335 0.950 . S
H2316 C2337 0.950 . S
H2317 C2340 0.950 . S
H2318 C2341 0.950 . S
H2319 C2343 0.950 . S
H2320 C2344 0.950 . S
H2321 C2345 0.951 . S
H2322 C2347 0.951 . S
H2323 C2349 0.950 . S
H2324 C2350 0.950 . S
H2325 C2352 0.950 . S
H2326 C2355 0.950 . S
H2327 C2356 0.950 . S
H2328 C2358 0.950 . S
H2329 C2359 0.950 . S
C2330 H2312 0.951 . S
C2330 C2331 1.366 . S
C2330 C2332 1.388 . S
C2331 C2330 1.366 . S
C2331 C2335 1.385 . S
C2332 H2313 0.951 . S
C2332 C2330 1.388 . S
C2332 C2333 1.366 . S
C2333 C2332 1.366 . S
C2333 C2334 1.414 . S
C2333 C2336 1.499 . S
C2334 H2314 0.950 . S
C2334 C2333 1.414 . S
C2334 C2335 1.374 . S
C2335 H2315 0.950 . S
C2335 C2331 1.385 . S
C2335 C2334 1.374 . S
C2336 C2333 1.499 . S
C2336 C2337 1.373 . S
C2336 C2338 1.389 . S
C2337 H2316 0.950 . S
C2337 C2336 1.373 . S
C2337 C2353 1.377 . S
C2338 C2336 1.389 . S
C2338 C2339 1.524 . S
C2338 C2352 1.377 . S
C2339 C2338 1.524 . S
C2339 C2340 1.397 . S
C2339 C2344 1.363 . S
C2340 H2317 0.950 . S
C2340 C2339 1.397 . S
C2340 C2341 1.334 . S
C2341 H2318 0.950 . S
C2341 C2340 1.334 . S
C2341 C2342 1.287 . S
C2342 C2341 1.287 . S
C2342 C2343 1.524 . S
C2342 H2361 0.913 . S
C2343 H2319 0.950 . S
C2343 C2342 1.524 . S
C2343 C2344 1.415 . S
C2344 H2320 0.950 . S
C2344 C2339 1.363 . S
C2344 C2343 1.415 . S
C2345 H2321 0.951 . S
C2345 C2346 1.366 . S
C2345 C2347 1.388 . S
C2346 C2345 1.366 . S
C2346 C2350 1.385 . S
C2347 H2322 0.951 . S
C2347 C2345 1.388 . S
C2347 C2348 1.366 . S
C2348 C2347 1.366 . S
C2348 C2349 1.414 . S
C2348 C2351 1.499 . S
C2349 H2323 0.950 . S
C2349 C2348 1.414 . S
C2349 C2350 1.374 . S
C2350 H2324 0.950 . S
C2350 C2346 1.385 . S
C2350 C2349 1.374 . S
C2351 C2348 1.499 . S
C2351 C2352 1.373 . S
C2351 C2353 1.389 . S
C2352 H2325 0.950 . S
C2352 C2338 1.377 . S
C2352 C2351 1.373 . S
C2353 C2337 1.377 . S
C2353 C2351 1.389 . S
C2353 C2354 1.524 . S
C2354 C2353 1.524 . S
C2354 C2355 1.397 . S
C2354 C2359 1.363 . S
C2355 H2326 0.950 . S
C2355 C2354 1.397 . S
C2355 C2356 1.334 . S
C2356 H2327 0.950 . S
C2356 C2355 1.334 . S
C2356 C2357 1.287 . S
C2357 C2356 1.287 . S
C2357 C2358 1.524 . S
C2357 H2360 0.999 . S
C2358 H2328 0.950 . S
C2358 C2357 1.524 . S
C2358 C2359 1.415 . S
C2359 H2329 0.950 . S
C2359 C2354 1.363 . S
C2359 C2358 1.415 . S
H2360 C2357 0.999 . S
H2361 C2342 0.913 . S
H2362 C2380 0.951 . S
H2363 C2382 0.951 . S
H2364 C2384 0.950 . S
H2365 C2385 0.950 . S
H2366 C2387 0.950 . S
H2367 C2390 0.950 . S
H2368 C2391 0.950 . S
H2369 C2393 0.950 . S
H2370 C2394 0.950 . S
H2371 C2395 0.951 . S
H2372 C2397 0.951 . S
H2373 C2399 0.950 . S
H2374 C2400 0.950 . S
H2375 C2402 0.950 . S
H2376 C2405 0.950 . S
H2377 C2406 0.950 . S
H2378 C2408 0.950 . S
H2379 C2409 0.950 . S
C2380 H2362 0.951 . S
C2380 C2381 1.366 . S
C2380 C2382 1.388 . S
C2381 C2380 1.366 . S
C2381 C2385 1.385 . S
C2382 H2363 0.951 . S
C2382 C2380 1.388 . S
C2382 C2383 1.366 . S
C2383 C2382 1.366 . S
C2383 C2384 1.414 . S
C2383 C2386 1.499 . S
C2384 H2364 0.950 . S
C2384 C2383 1.414 . S
C2384 C2385 1.374 . S
C2385 H2365 0.950 . S
C2385 C2381 1.385 . S
C2385 C2384 1.374 . S
C2386 C2383 1.499 . S
C2386 C2387 1.373 . S
C2386 C2388 1.389 . S
C2387 H2366 0.950 . S
C2387 C2386 1.373 . S
C2387 C2403 1.377 . S
C2388 C2386 1.389 . S
C2388 C2389 1.524 . S
C2388 C2402 1.377 . S
C2389 C2388 1.524 . S
C2389 C2390 1.397 . S
C2389 C2394 1.363 . S
C2390 H2367 0.950 . S
C2390 C2389 1.397 . S
C2390 C2391 1.334 . S
C2391 H2368 0.950 . S
C2391 C2390 1.334 . S
C2391 C2392 1.287 . S
C2392 C2391 1.287 . S
C2392 C2393 1.524 . S
C2392 H2411 0.913 . S
C2393 H2369 0.950 . S
C2393 C2392 1.524 . S
C2393 C2394 1.415 . S
C2394 H2370 0.950 . S
C2394 C2389 1.363 . S
C2394 C2393 1.415 . S
C2395 H2371 0.951 . S
C2395 C2396 1.366 . S
C2395 C2397 1.388 . S
C2396 C2395 1.366 . S
C2396 C2400 1.385 . S
C2397 H2372 0.951 . S
C2397 C2395 1.388 . S
C2397 C2398 1.366 . S
C2398 C2397 1.366 . S
C2398 C2399 1.414 . S
C2398 C2401 1.499 . S
C2399 H2373 0.950 . S
C2399 C2398 1.414 . S
C2399 C2400 1.374 . S
C2400 H2374 0.950 . S
C2400 C2396 1.385 . S
C2400 C2399 1.374 . S
C2401 C2398 1.499 . S
C2401 C2402 1.373 . S
C2401 C2403 1.389 . S
C2402 H2375 0.950 . S
C2402 C2388 1.377 . S
C2402 C2401 1.373 . S
C2403 C2387 1.377 . S
C2403 C2401 1.389 . S
C2403 C2404 1.524 . S
C2404 C2403 1.524 . S
C2404 C2405 1.397 . S
C2404 C2409 1.363 . S
C2405 H2376 0.950 . S
C2405 C2404 1.397 . S
C2405 C2406 1.334 . S
C2406 H2377 0.950 . S
C2406 C2405 1.334 . S
C2406 C2407 1.287 . S
C2407 C2406 1.287 . S
C2407 C2408 1.524 . S
C2407 H2410 0.999 . S
C2408 H2378 0.950 . S
C2408 C2407 1.524 . S
C2408 C2409 1.415 . S
C2409 H2379 0.950 . S
C2409 C2404 1.363 . S
C2409 C2408 1.415 . S
H2410 C2407 0.999 . S
H2411 C2392 0.913 . S
H2412 C2430 0.951 . S
H2413 C2432 0.951 . S
H2414 C2434 0.950 . S
H2415 C2435 0.950 . S
H2416 C2437 0.950 . S
H2417 C2440 0.950 . S
H2418 C2441 0.950 . S
H2419 C2443 0.950 . S
H2420 C2444 0.950 . S
H2421 C2445 0.951 . S
H2422 C2447 0.951 . S
H2423 C2449 0.950 . S
H2424 C2450 0.950 . S
H2425 C2452 0.950 . S
H2426 C2455 0.950 . S
H2427 C2456 0.950 . S
H2428 C2458 0.950 . S
H2429 C2459 0.950 . S
C2430 H2412 0.951 . S
C2430 C2431 1.366 . S
C2430 C2432 1.388 . S
C2431 C2430 1.366 . S
C2431 C2435 1.385 . S
C2432 H2413 0.951 . S
C2432 C2430 1.388 . S
C2432 C2433 1.366 . S
C2433 C2432 1.366 . S
C2433 C2434 1.414 . S
C2433 C2436 1.499 . S
C2434 H2414 0.950 . S
C2434 C2433 1.414 . S
C2434 C2435 1.374 . S
C2435 H2415 0.950 . S
C2435 C2431 1.385 . S
C2435 C2434 1.374 . S
C2436 C2433 1.499 . S
C2436 C2437 1.373 . S
C2436 C2438 1.389 . S
C2437 H2416 0.950 . S
C2437 C2436 1.373 . S
C2437 C2453 1.377 . S
C2438 C2436 1.389 . S
C2438 C2439 1.524 . S
C2438 C2452 1.377 . S
C2439 C2438 1.524 . S
C2439 C2440 1.397 . S
C2439 C2444 1.363 . S
C2440 H2417 0.950 . S
C2440 C2439 1.397 . S
C2440 C2441 1.334 . S
C2441 H2418 0.950 . S
C2441 C2440 1.334 . S
C2441 C2442 1.287 . S
C2442 C2441 1.287 . S
C2442 C2443 1.524 . S
C2442 H2461 0.913 . S
C2443 H2419 0.950 . S
C2443 C2442 1.524 . S
C2443 C2444 1.415 . S
C2444 H2420 0.950 . S
C2444 C2439 1.363 . S
C2444 C2443 1.415 . S
C2445 H2421 0.951 . S
C2445 C2446 1.366 . S
C2445 C2447 1.388 . S
C2446 C2445 1.366 . S
C2446 C2450 1.385 . S
C2447 H2422 0.951 . S
C2447 C2445 1.388 . S
C2447 C2448 1.366 . S
C2448 C2447 1.366 . S
C2448 C2449 1.414 . S
C2448 C2451 1.499 . S
C2449 H2423 0.950 . S
C2449 C2448 1.414 . S
C2449 C2450 1.374 . S
C2450 H2424 0.950 . S
C2450 C2446 1.385 . S
C2450 C2449 1.374 . S
C2451 C2448 1.499 . S
C2451 C2452 1.373 . S
C2451 C2453 1.389 . S
C2452 H2425 0.950 . S
C2452 C2438 1.377 . S
C2452 C2451 1.373 . S
C2453 C2437 1.377 . S
C2453 C2451 1.389 . S
C2453 C2454 1.524 . S
C2454 C2453 1.524 . S
C2454 C2455 1.397 . S
C2454 C2459 1.363 . S
C2455 H2426 0.950 . S
C2455 C2454 1.397 . S
C2455 C2456 1.334 . S
C2456 H2427 0.950 . S
C2456 C2455 1.334 . S
C2456 C2457 1.287 . S
C2457 C2456 1.287 . S
C2457 C2458 1.524 . S
C2457 H2460 0.999 . S
C2458 H2428 0.950 . S
C2458 C2457 1.524 . S
C2458 C2459 1.415 . S
C2459 H2429 0.950 . S
C2459 C2454 1.363 . S
C2459 C2458 1.415 . S
H2460 C2457 0.999 . S
H2461 C2442 0.913 . S
H2462 C2480 0.951 . S
H2463 C2482 0.951 . S
H2464 C2484 0.950 . S
H2465 C2485 0.950 . S
H2466 C2487 0.950 . S
H2467 C2490 0.950 . S
H2468 C2491 0.950 . S
H2469 C2493 0.950 . S
H2470 C2494 0.950 . S
H2471 C2495 0.951 . S
H2472 C2497 0.951 . S
H2473 C2499 0.950 . S
H2474 C2500 0.950 . S
H2475 C2502 0.950 . S
H2476 C2505 0.950 . S
H2477 C2506 0.950 . S
H2478 C2508 0.950 . S
H2479 C2509 0.950 . S
C2480 H2462 0.951 . S
C2480 C2481 1.366 . S
C2480 C2482 1.388 . S
C2481 C2480 1.366 . S
C2481 C2485 1.385 . S
C2482 H2463 0.951 . S
C2482 C2480 1.388 . S
C2482 C2483 1.366 . S
C2483 C2482 1.366 . S
C2483 C2484 1.414 . S
C2483 C2486 1.499 . S
C2484 H2464 0.950 . S
C2484 C2483 1.414 . S
C2484 C2485 1.374 . S
C2485 H2465 0.950 . S
C2485 C2481 1.385 . S
C2485 C2484 1.374 . S
C2486 C2483 1.499 . S
C2486 C2487 1.373 . S
C2486 C2488 1.389 . S
C2487 H2466 0.950 . S
C2487 C2486 1.373 . S
C2487 C2503 1.377 . S
C2488 C2486 1.389 . S
C2488 C2489 1.524 . S
C2488 C2502 1.377 . S
C2489 C2488 1.524 . S
C2489 C2490 1.397 . S
C2489 C2494 1.363 . S
C2490 H2467 0.950 . S
C2490 C2489 1.397 . S
C2490 C2491 1.334 . S
C2491 H2468 0.950 . S
C2491 C2490 1.334 . S
C2491 C2492 1.287 . S
C2492 C2491 1.287 . S
C2492 C2493 1.524 . S
C2492 H2511 0.913 . S
C2493 H2469 0.950 . S
C2493 C2492 1.524 . S
C2493 C2494 1.415 . S
C2494 H2470 0.950 . S
C2494 C2489 1.363 . S
C2494 C2493 1.415 . S
C2495 H2471 0.951 . S
C2495 C2496 1.366 . S
C2495 C2497 1.388 . S
C2496 C2495 1.366 . S
C2496 C2500 1.385 . S
C2497 H2472 0.951 . S
C2497 C2495 1.388 . S
C2497 C2498 1.366 . S
C2498 C2497 1.366 . S
C2498 C2499 1.414 . S
C2498 C2501 1.499 . S
C2499 H2473 0.950 . S
C2499 C2498 1.414 . S
C2499 C2500 1.374 . S
C2500 H2474 0.950 . S
C2500 C2496 1.385 . S
C2500 C2499 1.374 . S
C2501 C2498 1.499 . S
C2501 C2502 1.373 . S
C2501 C2503 1.389 . S
C2502 H2475 0.950 . S
C2502 C2488 1.377 . S
C2502 C2501 1.373 . S
C2503 C2487 1.377 . S
C2503 C2501 1.389 . S
C2503 C2504 1.524 . S
C2504 C2503 1.524 . S
C2504 C2505 1.397 . S
C2504 C2509 1.363 . S
C2505 H2476 0.950 . S
C2505 C2504 1.397 . S
C2505 C2506 1.334 . S
C2506 H2477 0.950 . S
C2506 C2505 1.334 . S
C2506 C2507 1.287 . S
C2507 C2506 1.287 . S
C2507 C2508 1.524 . S
C2507 H2510 0.999 . S
C2508 H2478 0.950 . S
C2508 C2507 1.524 . S
C2508 C2509 1.415 . S
C2509 H2479 0.950 . S
C2509 C2504 1.363 . S
C2509 C2508 1.415 . S
H2510 C2507 0.999 . S
H2511 C2492 0.913 . S
H2512 C2530 0.951 . S
H2513 C2532 0.951 . S
H2514 C2534 0.950 . S
H2515 C2535 0.950 . S
H2516 C2537 0.950 . S
H2517 C2540 0.950 . S
H2518 C2541 0.950 . S
H2519 C2543 0.950 . S
H2520 C2544 0.950 . S
H2521 C2545 0.951 . S
H2522 C2547 0.951 . S
H2523 C2549 0.950 . S
H2524 C2550 0.950 . S
H2525 C2552 0.950 . S
H2526 C2555 0.950 . S
H2527 C2556 0.937 1_545 S
H2528 C2558 0.956 . S
H2529 C2559 0.950 . S
C2530 H2512 0.951 . S
C2530 C2531 1.366 . S
C2530 C2532 1.388 . S
C2531 C2530 1.366 . S
C2531 C2535 1.385 . S
C2532 H2513 0.951 . S
C2532 C2530 1.388 . S
C2532 C2533 1.366 . S
C2533 C2532 1.366 . S
C2533 C2534 1.414 . S
C2533 C2536 1.499 . S
C2534 H2514 0.950 . S
C2534 C2533 1.414 . S
C2534 C2535 1.374 . S
C2535 H2515 0.950 . S
C2535 C2531 1.385 . S
C2535 C2534 1.374 . S
C2536 C2533 1.499 . S
C2536 C2537 1.373 . S
C2536 C2538 1.389 . S
C2537 H2516 0.950 . S
C2537 C2536 1.373 . S
C2537 C2553 1.377 . S
C2538 C2536 1.389 . S
C2538 C2539 1.524 . S
C2538 C2552 1.377 . S
C2539 C2538 1.524 . S
C2539 C2540 1.397 . S
C2539 C2544 1.363 . S
C2540 H2517 0.950 . S
C2540 C2539 1.397 . S
C2540 C2541 1.334 . S
C2541 H2518 0.950 . S
C2541 C2540 1.334 . S
C2541 C2542 1.287 . S
C2542 C2541 1.287 . S
C2542 C2543 1.524 . S
C2542 H2561 0.913 . S
C2543 H2519 0.950 . S
C2543 C2542 1.524 . S
C2543 C2544 1.415 . S
C2544 H2520 0.950 . S
C2544 C2539 1.363 . S
C2544 C2543 1.415 . S
C2545 H2521 0.951 . S
C2545 C2546 1.366 . S
C2545 C2547 1.388 . S
C2546 C2545 1.366 . S
C2546 C2550 1.385 . S
C2547 H2522 0.951 . S
C2547 C2545 1.388 . S
C2547 C2548 1.366 . S
C2548 C2547 1.366 . S
C2548 C2549 1.414 . S
C2548 C2551 1.499 . S
C2549 H2523 0.950 . S
C2549 C2548 1.414 . S
C2549 C2550 1.374 . S
C2550 H2524 0.950 . S
C2550 C2546 1.385 . S
C2550 C2549 1.374 . S
C2551 C2548 1.499 . S
C2551 C2552 1.373 . S
C2551 C2553 1.389 . S
C2552 H2525 0.950 . S
C2552 C2538 1.377 . S
C2552 C2551 1.373 . S
C2553 C2537 1.377 . S
C2553 C2551 1.389 . S
C2553 C2554 1.524 . S
C2554 C2553 1.524 . S
C2554 C2555 1.397 . S
C2554 C2559 1.363 . S
C2555 H2526 0.950 . S
C2555 C2554 1.397 . S
C2555 C2556 1.334 . S
C2556 H2527 0.937 1_565 S
C2556 C2555 1.334 . S
C2556 C2557 1.287 1_565 S
C2557 C2556 1.287 1_545 S
C2557 C2558 1.524 1_545 S
C2557 H2560 0.999 . S
C2558 H2528 0.956 . S
C2558 C2557 1.524 1_565 S
C2558 C2559 1.415 . S
C2559 H2529 0.950 . S
C2559 C2554 1.363 . S
C2559 C2558 1.415 . S
H2560 C2557 0.999 . S
H2561 C2542 0.913 . S
H2562 C2580 0.951 . S
H2563 C2582 0.951 . S
H2564 C2584 0.950 . S
H2565 C2585 0.950 . S
H2566 C2587 0.950 . S
H2567 C2590 0.950 . S
H2568 C2591 0.950 . S
H2569 C2593 0.950 . S
H2570 C2594 0.950 . S
H2571 C2595 0.951 . S
H2572 C2597 0.951 . S
H2573 C2599 0.950 . S
H2574 C2600 0.950 . S
H2575 C2602 0.950 . S
H2576 C2605 0.950 . S
H2577 C2606 0.950 . S
H2578 C2608 0.950 . S
H2579 C2609 0.950 . S
C2580 H2562 0.951 . S
C2580 C2581 1.366 . S
C2580 C2582 1.388 . S
C2581 C2580 1.366 . S
C2581 C2585 1.385 . S
C2582 H2563 0.951 . S
C2582 C2580 1.388 . S
C2582 C2583 1.366 . S
C2583 C2582 1.366 . S
C2583 C2584 1.414 . S
C2583 C2586 1.499 . S
C2584 H2564 0.950 . S
C2584 C2583 1.414 . S
C2584 C2585 1.374 . S
C2585 H2565 0.950 . S
C2585 C2581 1.385 . S
C2585 C2584 1.374 . S
C2586 C2583 1.499 . S
C2586 C2587 1.373 . S
C2586 C2588 1.389 . S
C2587 H2566 0.950 . S
C2587 C2586 1.373 . S
C2587 C2603 1.377 . S
C2588 C2586 1.389 . S
C2588 C2589 1.524 . S
C2588 C2602 1.377 . S
C2589 C2588 1.524 . S
C2589 C2590 1.397 . S
C2589 C2594 1.363 . S
C2590 H2567 0.950 . S
C2590 C2589 1.397 . S
C2590 C2591 1.334 . S
C2591 H2568 0.950 . S
C2591 C2590 1.334 . S
C2591 C2592 1.287 . S
C2592 C2591 1.287 . S
C2592 C2593 1.524 . S
C2592 H2611 0.913 . S
C2593 H2569 0.950 . S
C2593 C2592 1.524 . S
C2593 C2594 1.415 . S
C2594 H2570 0.950 . S
C2594 C2589 1.363 . S
C2594 C2593 1.415 . S
C2595 H2571 0.951 . S
C2595 C2596 1.366 . S
C2595 C2597 1.388 . S
C2596 C2595 1.366 . S
C2596 C2600 1.385 . S
C2597 H2572 0.951 . S
C2597 C2595 1.388 . S
C2597 C2598 1.366 . S
C2598 C2597 1.366 . S
C2598 C2599 1.414 . S
C2598 C2601 1.499 . S
C2599 H2573 0.950 . S
C2599 C2598 1.414 . S
C2599 C2600 1.374 . S
C2600 H2574 0.950 . S
C2600 C2596 1.385 . S
C2600 C2599 1.374 . S
C2601 C2598 1.499 . S
C2601 C2602 1.373 . S
C2601 C2603 1.389 . S
C2602 H2575 0.950 . S
C2602 C2588 1.377 . S
C2602 C2601 1.373 . S
C2603 C2587 1.377 . S
C2603 C2601 1.389 . S
C2603 C2604 1.524 . S
C2604 C2603 1.524 . S
C2604 C2605 1.397 . S
C2604 C2609 1.363 . S
C2605 H2576 0.950 . S
C2605 C2604 1.397 . S
C2605 C2606 1.334 . S
C2606 H2577 0.950 . S
C2606 C2605 1.334 . S
C2606 C2607 1.287 . S
C2607 C2606 1.287 . S
C2607 C2608 1.524 . S
C2607 H2610 0.999 . S
C2608 H2578 0.950 . S
C2608 C2607 1.524 . S
C2608 C2609 1.415 . S
C2609 H2579 0.950 . S
C2609 C2604 1.363 . S
C2609 C2608 1.415 . S
H2610 C2607 0.999 . S
H2611 C2592 0.913 . S
H2612 C2630 0.951 . S
H2613 C2632 0.951 . S
H2614 C2634 0.950 . S
H2615 C2635 0.950 . S
H2616 C2637 0.950 . S
H2617 C2640 0.950 . S
H2618 C2641 0.950 . S
H2619 C2643 0.950 . S
H2620 C2644 0.950 . S
H2621 C2645 0.951 . S
H2622 C2647 0.951 . S
H2623 C2649 0.950 . S
H2624 C2650 0.950 1_455 S
H2625 C2652 0.950 . S
H2626 C2655 0.950 . S
H2627 C2656 0.950 . S
H2628 C2658 0.950 . S
H2629 C2659 0.950 . S
C2630 H2612 0.951 . S
C2630 C2631 1.366 . S
C2630 C2632 1.388 . S
C2631 C2630 1.366 . S
C2631 C2635 1.385 . S
C2632 H2613 0.951 . S
C2632 C2630 1.388 . S
C2632 C2633 1.366 . S
C2633 C2632 1.366 . S
C2633 C2634 1.414 . S
C2633 C2636 1.499 . S
C2634 H2614 0.950 . S
C2634 C2633 1.414 . S
C2634 C2635 1.374 . S
C2635 H2615 0.950 . S
C2635 C2631 1.385 . S
C2635 C2634 1.374 . S
C2636 C2633 1.499 . S
C2636 C2637 1.373 . S
C2636 C2638 1.389 . S
C2637 H2616 0.950 . S
C2637 C2636 1.373 . S
C2637 C2653 1.377 . S
C2638 C2636 1.389 . S
C2638 C2639 1.524 . S
C2638 C2652 1.377 . S
C2639 C2638 1.524 . S
C2639 C2640 1.397 . S
C2639 C2644 1.363 . S
C2640 H2617 0.950 . S
C2640 C2639 1.397 . S
C2640 C2641 1.334 . S
C2641 H2618 0.950 . S
C2641 C2640 1.334 . S
C2641 C2642 1.287 . S
C2642 C2641 1.287 . S
C2642 C2643 1.524 . S
C2642 H2661 0.913 . S
C2643 H2619 0.950 . S
C2643 C2642 1.524 . S
C2643 C2644 1.415 . S
C2644 H2620 0.950 . S
C2644 C2639 1.363 . S
C2644 C2643 1.415 . S
C2645 H2621 0.951 . S
C2645 C2646 1.366 . S
C2645 C2647 1.388 . S
C2646 C2645 1.366 . S
C2646 C2650 1.385 . S
C2647 H2622 0.951 . S
C2647 C2645 1.388 . S
C2647 C2648 1.366 . S
C2648 C2647 1.366 . S
C2648 C2649 1.414 . S
C2648 C2651 1.499 . S
C2649 H2623 0.950 . S
C2649 C2648 1.414 . S
C2649 C2650 1.374 . S
C2650 H2624 0.950 1_655 S
C2650 C2646 1.385 . S
C2650 C2649 1.374 . S
C2651 C2648 1.499 . S
C2651 C2652 1.373 . S
C2651 C2653 1.389 . S
C2652 H2625 0.950 . S
C2652 C2638 1.377 . S
C2652 C2651 1.373 . S
C2653 C2637 1.377 . S
C2653 C2651 1.389 . S
C2653 C2654 1.524 . S
C2654 C2653 1.524 . S
C2654 C2655 1.397 . S
C2654 C2659 1.363 . S
C2655 H2626 0.950 . S
C2655 C2654 1.397 . S
C2655 C2656 1.334 . S
C2656 H2627 0.950 . S
C2656 C2655 1.334 . S
C2656 C2657 1.287 . S
C2657 C2656 1.287 . S
C2657 C2658 1.524 . S
C2657 H2660 0.999 . S
C2658 H2628 0.950 . S
C2658 C2657 1.524 . S
C2658 C2659 1.415 . S
C2659 H2629 0.950 . S
C2659 C2654 1.363 . S
C2659 C2658 1.415 . S
H2660 C2657 0.999 . S
H2661 C2642 0.913 . S
H2662 C2680 0.951 . S
H2663 C2682 0.951 . S
H2664 C2684 0.950 . S
H2665 C2685 0.950 . S
H2666 C2687 0.950 . S
H2667 C2690 0.950 . S
H2668 C2691 0.950 . S
H2669 C2693 0.950 . S
H2670 C2694 0.950 . S
H2671 C2695 0.951 . S
H2672 C2697 0.951 . S
H2673 C2699 0.950 . S
H2674 C2700 0.950 . S
H2675 C2702 0.950 . S
H2676 C2705 0.950 . S
H2677 C2706 0.950 . S
H2678 C2708 0.950 . S
H2679 C2709 0.950 . S
C2680 H2662 0.951 . S
C2680 C2681 1.366 . S
C2680 C2682 1.388 . S
C2681 C2680 1.366 . S
C2681 C2685 1.385 . S
C2682 H2663 0.951 . S
C2682 C2680 1.388 . S
C2682 C2683 1.366 . S
C2683 C2682 1.366 . S
C2683 C2684 1.414 . S
C2683 C2686 1.499 . S
C2684 H2664 0.950 . S
C2684 C2683 1.414 . S
C2684 C2685 1.374 . S
C2685 H2665 0.950 . S
C2685 C2681 1.385 . S
C2685 C2684 1.374 . S
C2686 C2683 1.499 . S
C2686 C2687 1.373 . S
C2686 C2688 1.389 . S
C2687 H2666 0.950 . S
C2687 C2686 1.373 . S
C2687 C2703 1.377 . S
C2688 C2686 1.389 . S
C2688 C2689 1.524 . S
C2688 C2702 1.377 . S
C2689 C2688 1.524 . S
C2689 C2690 1.397 . S
C2689 C2694 1.363 . S
C2690 H2667 0.950 . S
C2690 C2689 1.397 . S
C2690 C2691 1.334 . S
C2691 H2668 0.950 . S
C2691 C2690 1.334 . S
C2691 C2692 1.287 . S
C2692 C2691 1.287 . S
C2692 C2693 1.524 . S
C2692 H2711 0.913 . S
C2693 H2669 0.950 . S
C2693 C2692 1.524 . S
C2693 C2694 1.415 . S
C2694 H2670 0.950 . S
C2694 C2689 1.363 . S
C2694 C2693 1.415 . S
C2695 H2671 0.951 . S
C2695 C2696 1.366 . S
C2695 C2697 1.388 . S
C2696 C2695 1.366 . S
C2696 C2700 1.385 . S
C2697 H2672 0.951 . S
C2697 C2695 1.388 . S
C2697 C2698 1.366 . S
C2698 C2697 1.366 . S
C2698 C2699 1.414 . S
C2698 C2701 1.499 . S
C2699 H2673 0.950 . S
C2699 C2698 1.414 . S
C2699 C2700 1.374 . S
C2700 H2674 0.950 . S
C2700 C2696 1.385 . S
C2700 C2699 1.374 . S
C2701 C2698 1.499 . S
C2701 C2702 1.373 . S
C2701 C2703 1.389 . S
C2702 H2675 0.950 . S
C2702 C2688 1.377 . S
C2702 C2701 1.373 . S
C2703 C2687 1.377 . S
C2703 C2701 1.389 . S
C2703 C2704 1.524 . S
C2704 C2703 1.524 . S
C2704 C2705 1.397 . S
C2704 C2709 1.363 . S
C2705 H2676 0.950 . S
C2705 C2704 1.397 . S
C2705 C2706 1.334 . S
C2706 H2677 0.950 . S
C2706 C2705 1.334 . S
C2706 C2707 1.287 . S
C2707 C2706 1.287 . S
C2707 C2708 1.524 . S
C2707 H2710 0.999 . S
C2708 H2678 0.950 . S
C2708 C2707 1.524 . S
C2708 C2709 1.415 . S
C2709 H2679 0.950 . S
C2709 C2704 1.363 . S
C2709 C2708 1.415 . S
H2710 C2707 0.999 . S
H2711 C2692 0.913 . S
H2712 C2730 0.951 . S
H2713 C2732 0.951 . S
H2714 C2734 0.950 . S
H2715 C2735 0.950 . S
H2716 C2737 0.950 . S
H2717 C2740 0.950 . S
H2718 C2741 0.950 . S
H2719 C2743 0.950 . S
H2720 C2744 0.950 . S
H2721 C2745 0.951 . S
H2722 C2747 0.951 . S
H2723 C2749 0.950 . S
H2724 C2750 0.950 . S
H2725 C2752 0.950 . S
H2726 C2755 0.950 . S
H2727 C2756 0.950 . S
H2728 C2758 0.950 . S
H2729 C2759 0.950 . S
C2730 H2712 0.951 . S
C2730 C2731 1.366 . S
C2730 C2732 1.388 . S
C2731 C2730 1.366 . S
C2731 C2735 1.385 . S
C2732 H2713 0.951 . S
C2732 C2730 1.388 . S
C2732 C2733 1.366 . S
C2733 C2732 1.366 . S
C2733 C2734 1.414 . S
C2733 C2736 1.499 . S
C2734 H2714 0.950 . S
C2734 C2733 1.414 . S
C2734 C2735 1.374 . S
C2735 H2715 0.950 . S
C2735 C2731 1.385 . S
C2735 C2734 1.374 . S
C2736 C2733 1.499 . S
C2736 C2737 1.373 . S
C2736 C2738 1.389 . S
C2737 H2716 0.950 . S
C2737 C2736 1.373 . S
C2737 C2753 1.377 . S
C2738 C2736 1.389 . S
C2738 C2739 1.524 . S
C2738 C2752 1.377 . S
C2739 C2738 1.524 . S
C2739 C2740 1.397 . S
C2739 C2744 1.363 . S
C2740 H2717 0.950 . S
C2740 C2739 1.397 . S
C2740 C2741 1.334 . S
C2741 H2718 0.950 . S
C2741 C2740 1.334 . S
C2741 C2742 1.287 . S
C2742 C2741 1.287 . S
C2742 C2743 1.524 . S
C2742 H2761 0.913 . S
C2743 H2719 0.950 . S
C2743 C2742 1.524 . S
C2743 C2744 1.415 . S
C2744 H2720 0.950 . S
C2744 C2739 1.363 . S
C2744 C2743 1.415 . S
C2745 H2721 0.951 . S
C2745 C2746 1.366 . S
C2745 C2747 1.388 . S
C2746 C2745 1.366 . S
C2746 C2750 1.385 . S
C2747 H2722 0.951 . S
C2747 C2745 1.388 . S
C2747 C2748 1.366 . S
C2748 C2747 1.366 . S
C2748 C2749 1.414 . S
C2748 C2751 1.499 . S
C2749 H2723 0.950 . S
C2749 C2748 1.414 . S
C2749 C2750 1.374 . S
C2750 H2724 0.950 . S
C2750 C2746 1.385 . S
C2750 C2749 1.374 . S
C2751 C2748 1.499 . S
C2751 C2752 1.373 . S
C2751 C2753 1.389 . S
C2752 H2725 0.950 . S
C2752 C2738 1.377 . S
C2752 C2751 1.373 . S
C2753 C2737 1.377 . S
C2753 C2751 1.389 . S
C2753 C2754 1.524 . S
C2754 C2753 1.524 . S
C2754 C2755 1.397 . S
C2754 C2759 1.363 . S
C2755 H2726 0.950 . S
C2755 C2754 1.397 . S
C2755 C2756 1.334 . S
C2756 H2727 0.950 . S
C2756 C2755 1.334 . S
C2756 C2757 1.287 . S
C2757 C2756 1.287 . S
C2757 C2758 1.524 . S
C2757 H2760 0.999 . S
C2758 H2728 0.950 . S
C2758 C2757 1.524 . S
C2758 C2759 1.415 . S
C2759 H2729 0.950 . S
C2759 C2754 1.363 . S
C2759 C2758 1.415 . S
H2760 C2757 0.999 . S
H2761 C2742 0.913 . S
H2762 C2780 0.951 . S
H2763 C2782 0.951 . S
H2764 C2784 0.950 . S
H2765 C2785 0.950 . S
H2766 C2787 0.950 . S
H2767 C2790 0.950 . S
H2768 C2791 0.950 . S
H2769 C2793 0.950 . S
H2770 C2794 0.950 . S
H2771 C2795 0.951 . S
H2772 C2797 0.951 . S
H2773 C2799 0.950 . S
H2774 C2800 0.950 . S
H2775 C2802 0.950 . S
H2776 C2805 0.950 . S
H2777 C2806 0.950 . S
H2778 C2808 0.950 . S
H2779 C2809 0.950 . S
C2780 H2762 0.951 . S
C2780 C2781 1.366 . S
C2780 C2782 1.388 . S
C2781 C2780 1.366 . S
C2781 C2785 1.385 . S
C2782 H2763 0.951 . S
C2782 C2780 1.388 . S
C2782 C2783 1.366 . S
C2783 C2782 1.366 . S
C2783 C2784 1.414 . S
C2783 C2786 1.499 . S
C2784 H2764 0.950 . S
C2784 C2783 1.414 . S
C2784 C2785 1.374 . S
C2785 H2765 0.950 . S
C2785 C2781 1.385 . S
C2785 C2784 1.374 . S
C2786 C2783 1.499 . S
C2786 C2787 1.373 . S
C2786 C2788 1.389 . S
C2787 H2766 0.950 . S
C2787 C2786 1.373 . S
C2787 C2803 1.377 . S
C2788 C2786 1.389 . S
C2788 C2789 1.524 . S
C2788 C2802 1.377 . S
C2789 C2788 1.524 . S
C2789 C2790 1.397 . S
C2789 C2794 1.363 . S
C2790 H2767 0.950 . S
C2790 C2789 1.397 . S
C2790 C2791 1.334 . S
C2791 H2768 0.950 . S
C2791 C2790 1.334 . S
C2791 C2792 1.287 . S
C2792 C2791 1.287 . S
C2792 C2793 1.524 . S
C2792 H2811 0.913 . S
C2793 H2769 0.950 . S
C2793 C2792 1.524 . S
C2793 C2794 1.415 . S
C2794 H2770 0.950 . S
C2794 C2789 1.363 . S
C2794 C2793 1.415 . S
C2795 H2771 0.951 . S
C2795 C2796 1.366 . S
C2795 C2797 1.388 . S
C2796 C2795 1.366 . S
C2796 C2800 1.385 . S
C2797 H2772 0.951 . S
C2797 C2795 1.388 . S
C2797 C2798 1.366 . S
C2798 C2797 1.366 . S
C2798 C2799 1.414 . S
C2798 C2801 1.499 . S
C2799 H2773 0.950 . S
C2799 C2798 1.414 . S
C2799 C2800 1.374 . S
C2800 H2774 0.950 . S
C2800 C2796 1.385 . S
C2800 C2799 1.374 . S
C2801 C2798 1.499 . S
C2801 C2802 1.373 . S
C2801 C2803 1.389 . S
C2802 H2775 0.950 . S
C2802 C2788 1.377 . S
C2802 C2801 1.373 . S
C2803 C2787 1.377 . S
C2803 C2801 1.389 . S
C2803 C2804 1.524 . S
C2804 C2803 1.524 . S
C2804 C2805 1.397 . S
C2804 C2809 1.363 . S
C2805 H2776 0.950 . S
C2805 C2804 1.397 . S
C2805 C2806 1.334 . S
C2806 H2777 0.950 . S
C2806 C2805 1.334 . S
C2806 C2807 1.287 . S
C2807 C2806 1.287 . S
C2807 C2808 1.524 . S
C2807 H2810 0.999 . S
C2808 H2778 0.950 . S
C2808 C2807 1.524 . S
C2808 C2809 1.415 . S
C2809 H2779 0.950 . S
C2809 C2804 1.363 . S
C2809 C2808 1.415 . S
H2810 C2807 0.999 . S
H2811 C2792 0.913 . S
H2812 C2830 0.951 . S
H2813 C2832 0.951 . S
H2814 C2834 0.950 . S
H2815 C2835 0.950 . S
H2816 C2837 0.950 . S
H2817 C2840 0.950 . S
H2818 C2841 0.950 . S
H2819 C2843 0.950 . S
H2820 C2844 0.950 . S
H2821 C2845 0.951 . S
H2822 C2847 0.951 . S
H2823 C2849 0.950 . S
H2824 C2850 0.950 . S
H2825 C2852 0.950 . S
H2826 C2855 0.950 . S
H2827 C2856 0.950 . S
H2828 C2858 0.950 . S
H2829 C2859 0.950 . S
C2830 H2812 0.951 . S
C2830 C2831 1.366 . S
C2830 C2832 1.388 . S
C2831 C2830 1.366 . S
C2831 C2835 1.385 . S
C2832 H2813 0.951 . S
C2832 C2830 1.388 . S
C2832 C2833 1.366 . S
C2833 C2832 1.366 . S
C2833 C2834 1.414 . S
C2833 C2836 1.499 . S
C2834 H2814 0.950 . S
C2834 C2833 1.414 . S
C2834 C2835 1.374 . S
C2835 H2815 0.950 . S
C2835 C2831 1.385 . S
C2835 C2834 1.374 . S
C2836 C2833 1.499 . S
C2836 C2837 1.373 . S
C2836 C2838 1.389 . S
C2837 H2816 0.950 . S
C2837 C2836 1.373 . S
C2837 C2853 1.377 . S
C2838 C2836 1.389 . S
C2838 C2839 1.524 . S
C2838 C2852 1.377 . S
C2839 C2838 1.524 . S
C2839 C2840 1.397 . S
C2839 C2844 1.363 . S
C2840 H2817 0.950 . S
C2840 C2839 1.397 . S
C2840 C2841 1.334 . S
C2841 H2818 0.950 . S
C2841 C2840 1.334 . S
C2841 C2842 1.287 . S
C2842 C2841 1.287 . S
C2842 C2843 1.524 . S
C2842 H2861 0.913 . S
C2843 H2819 0.950 . S
C2843 C2842 1.524 . S
C2843 C2844 1.415 . S
C2844 H2820 0.950 . S
C2844 C2839 1.363 . S
C2844 C2843 1.415 . S
C2845 H2821 0.951 . S
C2845 C2846 1.366 . S
C2845 C2847 1.388 . S
C2846 C2845 1.366 . S
C2846 C2850 1.385 . S
C2847 H2822 0.951 . S
C2847 C2845 1.388 . S
C2847 C2848 1.366 . S
C2848 C2847 1.366 . S
C2848 C2849 1.414 . S
C2848 C2851 1.499 . S
C2849 H2823 0.950 . S
C2849 C2848 1.414 . S
C2849 C2850 1.374 . S
C2850 H2824 0.950 . S
C2850 C2846 1.385 . S
C2850 C2849 1.374 . S
C2851 C2848 1.499 . S
C2851 C2852 1.373 . S
C2851 C2853 1.389 . S
C2852 H2825 0.950 . S
C2852 C2838 1.377 . S
C2852 C2851 1.373 . S
C2853 C2837 1.377 . S
C2853 C2851 1.389 . S
C2853 C2854 1.524 . S
C2854 C2853 1.524 . S
C2854 C2855 1.397 . S
C2854 C2859 1.363 . S
C2855 H2826 0.950 . S
C2855 C2854 1.397 . S
C2855 C2856 1.334 . S
C2856 H2827 0.950 . S
C2856 C2855 1.334 . S
C2856 C2857 1.287 . S
C2857 C2856 1.287 . S
C2857 C2858 1.524 . S
C2857 H2860 0.999 . S
C2858 H2828 0.950 . S
C2858 C2857 1.524 . S
C2858 C2859 1.415 . S
C2859 H2829 0.950 . S
C2859 C2854 1.363 . S
C2859 C2858 1.415 . S
H2860 C2857 0.999 . S
H2861 C2842 0.913 . S
H2862 C2880 0.951 . S
H2863 C2882 0.951 . S
H2864 C2884 0.950 . S
H2865 C2885 0.950 . S
H2866 C2887 0.950 . S
H2867 C2890 0.950 . S
H2868 C2891 0.950 . S
H2869 C2893 0.950 . S
H2870 C2894 0.950 . S
H2871 C2895 0.951 . S
H2872 C2897 0.951 . S
H2873 C2899 0.950 . S
H2874 C2900 0.950 . S
H2875 C2902 0.950 . S
H2876 C2905 0.950 . S
H2877 C2906 0.950 . S
H2878 C2908 0.950 . S
H2879 C2909 0.950 . S
C2880 H2862 0.951 . S
C2880 C2881 1.366 . S
C2880 C2882 1.388 . S
C2881 C2880 1.366 . S
C2881 C2885 1.385 . S
C2882 H2863 0.951 . S
C2882 C2880 1.388 . S
C2882 C2883 1.366 . S
C2883 C2882 1.366 . S
C2883 C2884 1.414 . S
C2883 C2886 1.499 . S
C2884 H2864 0.950 . S
C2884 C2883 1.414 . S
C2884 C2885 1.374 . S
C2885 H2865 0.950 . S
C2885 C2881 1.385 . S
C2885 C2884 1.374 . S
C2886 C2883 1.499 . S
C2886 C2887 1.373 . S
C2886 C2888 1.389 . S
C2887 H2866 0.950 . S
C2887 C2886 1.373 . S
C2887 C2903 1.377 . S
C2888 C2886 1.389 . S
C2888 C2889 1.524 . S
C2888 C2902 1.377 . S
C2889 C2888 1.524 . S
C2889 C2890 1.397 . S
C2889 C2894 1.363 . S
C2890 H2867 0.950 . S
C2890 C2889 1.397 . S
C2890 C2891 1.334 . S
C2891 H2868 0.950 . S
C2891 C2890 1.334 . S
C2891 C2892 1.287 . S
C2892 C2891 1.287 . S
C2892 C2893 1.524 . S
C2892 H2911 0.913 . S
C2893 H2869 0.950 . S
C2893 C2892 1.524 . S
C2893 C2894 1.415 . S
C2894 H2870 0.950 . S
C2894 C2889 1.363 . S
C2894 C2893 1.415 . S
C2895 H2871 0.951 . S
C2895 C2896 1.366 . S
C2895 C2897 1.388 . S
C2896 C2895 1.366 . S
C2896 C2900 1.385 . S
C2897 H2872 0.951 . S
C2897 C2895 1.388 . S
C2897 C2898 1.366 . S
C2898 C2897 1.366 . S
C2898 C2899 1.414 . S
C2898 C2901 1.499 . S
C2899 H2873 0.950 . S
C2899 C2898 1.414 . S
C2899 C2900 1.374 . S
C2900 H2874 0.950 . S
C2900 C2896 1.385 . S
C2900 C2899 1.374 . S
C2901 C2898 1.499 . S
C2901 C2902 1.373 . S
C2901 C2903 1.389 . S
C2902 H2875 0.950 . S
C2902 C2888 1.377 . S
C2902 C2901 1.373 . S
C2903 C2887 1.377 . S
C2903 C2901 1.389 . S
C2903 C2904 1.524 . S
C2904 C2903 1.524 . S
C2904 C2905 1.397 . S
C2904 C2909 1.363 . S
C2905 H2876 0.950 . S
C2905 C2904 1.397 . S
C2905 C2906 1.334 . S
C2906 H2877 0.950 . S
C2906 C2905 1.334 . S
C2906 C2907 1.287 . S
C2907 C2906 1.287 . S
C2907 C2908 1.524 . S
C2907 H2910 0.999 . S
C2908 H2878 0.950 . S
C2908 C2907 1.524 . S
C2908 C2909 1.415 . S
C2909 H2879 0.950 . S
C2909 C2904 1.363 . S
C2909 C2908 1.415 . S
H2910 C2907 0.999 . S
H2911 C2892 0.913 . S
C546 C337 2.627 . S
C531 C24 2.610 . S
C596 C342 3.090 . S
C581 C53 3.118 . S
C646 C343 1.242 . S
C631 C82 1.242 . S
C681 C137 0.347 . S
C696 C347 0.497 . S
C731 C184 2.897 . S
C746 C350 2.855 . S
C796 C351 1.245 . S
C781 C202 1.257 . S
C831 C266 0.312 . S
C846 C328 0.330 . S
C881 C293 2.618 . S
C896 C344 2.632 . S
C946 C382 2.698 . S
C931 C2 2.723 . S
C981 C57 0.671 . S
C996 C408 0.857 . S
C1046 C360 0.703 . S
C1031 C106 0.697 . S
C1096 C415 0.840 . S
C1081 C143 0.848 . S
C1131 C162 0.906 . S
C1146 C369 0.896 . S
C1196 C411 0.705 1_556 S
C1181 C226 0.704 . S
C1231 C264 2.401 . S
C1246 C375 2.372 . S
C1281 C297 0.374 . S
C1296 C406 0.488 1_556 S
C1331 C26 0.507 . S
C1346 C414 0.579 . S
C1381 C186 0.239 . S
C1396 C401 0.401 . S
C1446 C379 2.265 . S
C1431 C224 2.301 . S
C1496 C407 1.636 . S
C1481 C242 1.671 . S
C1531 C303 3.142 . S
C1546 C374 3.064 . S
C1581 C104 2.004 . S
C1596 C392 1.982 . S
C1646 C383 2.791 . S
C1631 C133 2.814 . S
C1681 C63 1.577 . S
C1696 C376 1.579 . S
C1731 C304 2.576 . S
C1746 C438 2.544 . S
C1781 C173 2.854 . S
C1796 C433 2.823 . S
C1846 C447 1.199 . S
C1831 C223 1.222 . S
C1896 C424 0.284 . S
C1881 C257 0.312 . S
C1931 C64 3.076 . S
C1946 C440 3.059 . S
C1996 C439 1.207 . S
C1981 C103 1.216 . S
C2031 C146 0.369 . S
C2046 C443 0.418 . S
C2081 C13 2.572 . S
C2096 C446 2.551 . S
C2131 C282 3.150 . S
C2146 C472 3.141 1_655 S
C2196 C488 0.437 . S
C2181 C177 0.231 . S
C2231 C213 2.320 . S
C2246 C470 2.280 . S
C2281 C263 1.695 . S
C2296 C503 1.627 . S
C2346 C479 1.588 . S
C2331 C42 1.585 . S
C2381 C93 2.043 . S
C2396 C497 2.018 . S
C2446 C475 2.740 . S
C2431 C144 2.808 . S
C2496 C510 0.531 . S
C2481 C17 0.526 . S
C2546 C502 0.442 . S
C2531 C306 0.359 . S
C2581 C66 0.655 . S
C2596 C507 0.790 . S
C2631 C97 0.708 . S
C2646 C478 0.712 . S
C2696 C511 0.874 . S
C2681 C122 0.873 . S
C2731 C23 2.733 . S
C2746 C465 2.717 . S
C2781 C217 0.723 . S
C2796 C504 0.727 . S
C2846 C456 2.383 . S
C2831 C253 2.396 . S
C2896 C471 0.897 . S
C2881 C183 0.908 . S
