# Generated by pormake.
# Topology gar, (4,6)-cn, num edge types: 1
# Building blocks:
#     Node 0, Type 0, BuildingBlock: TATPOV_clean_sbu_0, # of connection points: 4
#     Node 1, Type 0, BuildingBlock: TATPOV_clean_sbu_0, # of connection points: 4
#     Node 2, Type 0, BuildingBlock: TATPOV_clean_sbu_0, # of connection points: 4
#     Node 3, Type 0, BuildingBlock: TATPOV_clean_sbu_0, # of connection points: 4
#     Node 4, Type 0, BuildingBlock: TATPOV_clean_sbu_0, # of connection points: 4
#     Node 5, Type 0, BuildingBlock: TATPOV_clean_sbu_0, # of connection points: 4
#     Node 6, Type 0, BuildingBlock: TATPOV_clean_sbu_0, # of connection points: 4
#     Node 7, Type 0, BuildingBlock: TATPOV_clean_sbu_0, # of connection points: 4
#     Node 8, Type 0, BuildingBlock: TATPOV_clean_sbu_0, # of connection points: 4
#     Node 9, Type 0, BuildingBlock: TATPOV_clean_sbu_0, # of connection points: 4
#     Node 10, Type 0, BuildingBlock: TATPOV_clean_sbu_0, # of connection points: 4
#     Node 11, Type 0, BuildingBlock: TATPOV_clean_sbu_0, # of connection points: 4
#     Node 12, Type 0, BuildingBlock: TATPOV_clean_sbu_0, # of connection points: 4
#     Node 13, Type 0, BuildingBlock: TATPOV_clean_sbu_0, # of connection points: 4
#     Node 14, Type 0, BuildingBlock: TATPOV_clean_sbu_0, # of connection points: 4
#     Node 15, Type 0, BuildingBlock: TATPOV_clean_sbu_0, # of connection points: 4
#     Node 16, Type 0, BuildingBlock: TATPOV_clean_sbu_0, # of connection points: 4
#     Node 17, Type 0, BuildingBlock: TATPOV_clean_sbu_0, # of connection points: 4
#     Node 18, Type 0, BuildingBlock: TATPOV_clean_sbu_0, # of connection points: 4
#     Node 19, Type 0, BuildingBlock: TATPOV_clean_sbu_0, # of connection points: 4
#     Node 20, Type 0, BuildingBlock: TATPOV_clean_sbu_0, # of connection points: 4
#     Node 21, Type 0, BuildingBlock: TATPOV_clean_sbu_0, # of connection points: 4
#     Node 22, Type 0, BuildingBlock: TATPOV_clean_sbu_0, # of connection points: 4
#     Node 23, Type 0, BuildingBlock: TATPOV_clean_sbu_0, # of connection points: 4
#     Node 24, Type 1, BuildingBlock: KUMBUR_clean_sbu_0, # of connection points: 6
#     Node 25, Type 1, BuildingBlock: KUMBUR_clean_sbu_0, # of connection points: 6
#     Node 26, Type 1, BuildingBlock: KUMBUR_clean_sbu_0, # of connection points: 6
#     Node 27, Type 1, BuildingBlock: KUMBUR_clean_sbu_0, # of connection points: 6
#     Node 28, Type 1, BuildingBlock: KUMBUR_clean_sbu_0, # of connection points: 6
#     Node 29, Type 1, BuildingBlock: KUMBUR_clean_sbu_0, # of connection points: 6
#     Node 30, Type 1, BuildingBlock: KUMBUR_clean_sbu_0, # of connection points: 6
#     Node 31, Type 1, BuildingBlock: KUMBUR_clean_sbu_0, # of connection points: 6
#     Node 32, Type 1, BuildingBlock: KUMBUR_clean_sbu_0, # of connection points: 6
#     Node 33, Type 1, BuildingBlock: KUMBUR_clean_sbu_0, # of connection points: 6
#     Node 34, Type 1, BuildingBlock: KUMBUR_clean_sbu_0, # of connection points: 6
#     Node 35, Type 1, BuildingBlock: KUMBUR_clean_sbu_0, # of connection points: 6
#     Node 36, Type 1, BuildingBlock: KUMBUR_clean_sbu_0, # of connection points: 6
#     Node 37, Type 1, BuildingBlock: KUMBUR_clean_sbu_0, # of connection points: 6
#     Node 38, Type 1, BuildingBlock: KUMBUR_clean_sbu_0, # of connection points: 6
#     Node 39, Type 1, BuildingBlock: KUMBUR_clean_sbu_0, # of connection points: 6
#     Edge 40, Type (0, 1), BuildingBlock: TEMPAE_clean_linker_10, # of connection points: 2
#     Edge 41, Type (0, 1), BuildingBlock: TEMPAE_clean_linker_10, # of connection points: 2
#     Edge 42, Type (0, 1), BuildingBlock: TEMPAE_clean_linker_10, # of connection points: 2
#     Edge 43, Type (0, 1), BuildingBlock: TEMPAE_clean_linker_10, # of connection points: 2
#     Edge 44, Type (0, 1), BuildingBlock: TEMPAE_clean_linker_10, # of connection points: 2
#     Edge 45, Type (0, 1), BuildingBlock: TEMPAE_clean_linker_10, # of connection points: 2
#     Edge 46, Type (0, 1), BuildingBlock: TEMPAE_clean_linker_10, # of connection points: 2
#     Edge 47, Type (0, 1), BuildingBlock: TEMPAE_clean_linker_10, # of connection points: 2
#     Edge 48, Type (0, 1), BuildingBlock: TEMPAE_clean_linker_10, # of connection points: 2
#     Edge 49, Type (0, 1), BuildingBlock: TEMPAE_clean_linker_10, # of connection points: 2
#     Edge 50, Type (0, 1), BuildingBlock: TEMPAE_clean_linker_10, # of connection points: 2
#     Edge 51, Type (0, 1), BuildingBlock: TEMPAE_clean_linker_10, # of connection points: 2
#     Edge 52, Type (0, 1), BuildingBlock: TEMPAE_clean_linker_10, # of connection points: 2
#     Edge 53, Type (0, 1), BuildingBlock: TEMPAE_clean_linker_10, # of connection points: 2
#     Edge 54, Type (0, 1), BuildingBlock: TEMPAE_clean_linker_10, # of connection points: 2
#     Edge 55, Type (0, 1), BuildingBlock: TEMPAE_clean_linker_10, # of connection points: 2
#     Edge 56, Type (0, 1), BuildingBlock: TEMPAE_clean_linker_10, # of connection points: 2
#     Edge 57, Type (0, 1), BuildingBlock: TEMPAE_clean_linker_10, # of connection points: 2
#     Edge 58, Type (0, 1), BuildingBlock: TEMPAE_clean_linker_10, # of connection points: 2
#     Edge 59, Type (0, 1), BuildingBlock: TEMPAE_clean_linker_10, # of connection points: 2
#     Edge 60, Type (0, 1), BuildingBlock: TEMPAE_clean_linker_10, # of connection points: 2
#     Edge 61, Type (0, 1), BuildingBlock: TEMPAE_clean_linker_10, # of connection points: 2
#     Edge 62, Type (0, 1), BuildingBlock: TEMPAE_clean_linker_10, # of connection points: 2
#     Edge 63, Type (0, 1), BuildingBlock: TEMPAE_clean_linker_10, # of connection points: 2
#     Edge 64, Type (0, 1), BuildingBlock: TEMPAE_clean_linker_10, # of connection points: 2
#     Edge 65, Type (0, 1), BuildingBlock: TEMPAE_clean_linker_10, # of connection points: 2
#     Edge 66, Type (0, 1), BuildingBlock: TEMPAE_clean_linker_10, # of connection points: 2
#     Edge 67, Type (0, 1), BuildingBlock: TEMPAE_clean_linker_10, # of connection points: 2
#     Edge 68, Type (0, 1), BuildingBlock: TEMPAE_clean_linker_10, # of connection points: 2
#     Edge 69, Type (0, 1), BuildingBlock: TEMPAE_clean_linker_10, # of connection points: 2
#     Edge 70, Type (0, 1), BuildingBlock: TEMPAE_clean_linker_10, # of connection points: 2
#     Edge 71, Type (0, 1), BuildingBlock: TEMPAE_clean_linker_10, # of connection points: 2
#     Edge 72, Type (0, 1), BuildingBlock: TEMPAE_clean_linker_10, # of connection points: 2
#     Edge 73, Type (0, 1), BuildingBlock: TEMPAE_clean_linker_10, # of connection points: 2
#     Edge 74, Type (0, 1), BuildingBlock: TEMPAE_clean_linker_10, # of connection points: 2
#     Edge 75, Type (0, 1), BuildingBlock: TEMPAE_clean_linker_10, # of connection points: 2
#     Edge 76, Type (0, 1), BuildingBlock: TEMPAE_clean_linker_10, # of connection points: 2
#     Edge 77, Type (0, 1), BuildingBlock: TEMPAE_clean_linker_10, # of connection points: 2
#     Edge 78, Type (0, 1), BuildingBlock: TEMPAE_clean_linker_10, # of connection points: 2
#     Edge 79, Type (0, 1), BuildingBlock: TEMPAE_clean_linker_10, # of connection points: 2
#     Edge 80, Type (0, 1), BuildingBlock: TEMPAE_clean_linker_10, # of connection points: 2
#     Edge 81, Type (0, 1), BuildingBlock: TEMPAE_clean_linker_10, # of connection points: 2
#     Edge 82, Type (0, 1), BuildingBlock: TEMPAE_clean_linker_10, # of connection points: 2
#     Edge 83, Type (0, 1), BuildingBlock: TEMPAE_clean_linker_10, # of connection points: 2
#     Edge 84, Type (0, 1), BuildingBlock: TEMPAE_clean_linker_10, # of connection points: 2
#     Edge 85, Type (0, 1), BuildingBlock: TEMPAE_clean_linker_10, # of connection points: 2
#     Edge 86, Type (0, 1), BuildingBlock: TEMPAE_clean_linker_10, # of connection points: 2
#     Edge 87, Type (0, 1), BuildingBlock: TEMPAE_clean_linker_10, # of connection points: 2
#     Edge 88, Type (0, 1), BuildingBlock: TEMPAE_clean_linker_10, # of connection points: 2
#     Edge 89, Type (0, 1), BuildingBlock: TEMPAE_clean_linker_10, # of connection points: 2
#     Edge 90, Type (0, 1), BuildingBlock: TEMPAE_clean_linker_10, # of connection points: 2
#     Edge 91, Type (0, 1), BuildingBlock: TEMPAE_clean_linker_10, # of connection points: 2
#     Edge 92, Type (0, 1), BuildingBlock: TEMPAE_clean_linker_10, # of connection points: 2
#     Edge 93, Type (0, 1), BuildingBlock: TEMPAE_clean_linker_10, # of connection points: 2
#     Edge 94, Type (0, 1), BuildingBlock: TEMPAE_clean_linker_10, # of connection points: 2
#     Edge 95, Type (0, 1), BuildingBlock: TEMPAE_clean_linker_10, # of connection points: 2
#     Edge 96, Type (0, 1), BuildingBlock: TEMPAE_clean_linker_10, # of connection points: 2
#     Edge 97, Type (0, 1), BuildingBlock: TEMPAE_clean_linker_10, # of connection points: 2
#     Edge 98, Type (0, 1), BuildingBlock: TEMPAE_clean_linker_10, # of connection points: 2
#     Edge 99, Type (0, 1), BuildingBlock: TEMPAE_clean_linker_10, # of connection points: 2
#     Edge 100, Type (0, 1), BuildingBlock: TEMPAE_clean_linker_10, # of connection points: 2
#     Edge 101, Type (0, 1), BuildingBlock: TEMPAE_clean_linker_10, # of connection points: 2
#     Edge 102, Type (0, 1), BuildingBlock: TEMPAE_clean_linker_10, # of connection points: 2
#     Edge 103, Type (0, 1), BuildingBlock: TEMPAE_clean_linker_10, # of connection points: 2
#     Edge 104, Type (0, 1), BuildingBlock: TEMPAE_clean_linker_10, # of connection points: 2
#     Edge 105, Type (0, 1), BuildingBlock: TEMPAE_clean_linker_10, # of connection points: 2
#     Edge 106, Type (0, 1), BuildingBlock: TEMPAE_clean_linker_10, # of connection points: 2
#     Edge 107, Type (0, 1), BuildingBlock: TEMPAE_clean_linker_10, # of connection points: 2
#     Edge 108, Type (0, 1), BuildingBlock: TEMPAE_clean_linker_10, # of connection points: 2
#     Edge 109, Type (0, 1), BuildingBlock: TEMPAE_clean_linker_10, # of connection points: 2
#     Edge 110, Type (0, 1), BuildingBlock: TEMPAE_clean_linker_10, # of connection points: 2
#     Edge 111, Type (0, 1), BuildingBlock: TEMPAE_clean_linker_10, # of connection points: 2
#     Edge 112, Type (0, 1), BuildingBlock: TEMPAE_clean_linker_10, # of connection points: 2
#     Edge 113, Type (0, 1), BuildingBlock: TEMPAE_clean_linker_10, # of connection points: 2
#     Edge 114, Type (0, 1), BuildingBlock: TEMPAE_clean_linker_10, # of connection points: 2
#     Edge 115, Type (0, 1), BuildingBlock: TEMPAE_clean_linker_10, # of connection points: 2
#     Edge 116, Type (0, 1), BuildingBlock: TEMPAE_clean_linker_10, # of connection points: 2
#     Edge 117, Type (0, 1), BuildingBlock: TEMPAE_clean_linker_10, # of connection points: 2
#     Edge 118, Type (0, 1), BuildingBlock: TEMPAE_clean_linker_10, # of connection points: 2
#     Edge 119, Type (0, 1), BuildingBlock: TEMPAE_clean_linker_10, # of connection points: 2
#     Edge 120, Type (0, 1), BuildingBlock: TEMPAE_clean_linker_10, # of connection points: 2
#     Edge 121, Type (0, 1), BuildingBlock: TEMPAE_clean_linker_10, # of connection points: 2
#     Edge 122, Type (0, 1), BuildingBlock: TEMPAE_clean_linker_10, # of connection points: 2
#     Edge 123, Type (0, 1), BuildingBlock: TEMPAE_clean_linker_10, # of connection points: 2
#     Edge 124, Type (0, 1), BuildingBlock: TEMPAE_clean_linker_10, # of connection points: 2
#     Edge 125, Type (0, 1), BuildingBlock: TEMPAE_clean_linker_10, # of connection points: 2
#     Edge 126, Type (0, 1), BuildingBlock: TEMPAE_clean_linker_10, # of connection points: 2
#     Edge 127, Type (0, 1), BuildingBlock: TEMPAE_clean_linker_10, # of connection points: 2
#     Edge 128, Type (0, 1), BuildingBlock: TEMPAE_clean_linker_10, # of connection points: 2
#     Edge 129, Type (0, 1), BuildingBlock: TEMPAE_clean_linker_10, # of connection points: 2
#     Edge 130, Type (0, 1), BuildingBlock: TEMPAE_clean_linker_10, # of connection points: 2
#     Edge 131, Type (0, 1), BuildingBlock: TEMPAE_clean_linker_10, # of connection points: 2
#     Edge 132, Type (0, 1), BuildingBlock: TEMPAE_clean_linker_10, # of connection points: 2
#     Edge 133, Type (0, 1), BuildingBlock: TEMPAE_clean_linker_10, # of connection points: 2
#     Edge 134, Type (0, 1), BuildingBlock: TEMPAE_clean_linker_10, # of connection points: 2
#     Edge 135, Type (0, 1), BuildingBlock: TEMPAE_clean_linker_10, # of connection points: 2
# Relax obj value: 0.136
# Max RMSD: 0.331
# Mean RMSD: 0.171
data_MOF--net-gar--node1-TATPOV_clean_sbu_0--node2-KUMBUR_clean_sbu_0--edge1-TEMPAE_clean_linker_10
_symmetry_space_group_name_H-M    P1
_symmetry_Int_Tables_number       1
_symmetry_cell_setting            triclinic
loop_
_symmetry_equiv_pos_as_xyz
'x, y, z'
_cell_length_a     61.731344
_cell_length_b     57.059845
_cell_length_c     57.227801
_cell_angle_alpha  101.10587
_cell_angle_beta   94.043536
_cell_angle_gamma 104.73228
loop_
_atom_site_label
_atom_site_type_symbol
_atom_site_fract_x
_atom_site_fract_y
_atom_site_fract_z
_atom_type_partial_charge
Zn0 Zn 0.0984 0.3306 0.43196 0.0
Zn1 Zn 0.12863 0.33574 0.39918 0.0
O2 O 0.14328 0.37037 0.4148 0.0
O3 O 0.11239 0.36743 0.43225 0.0
O4 O 0.14737 0.32756 0.3751 0.0
O5 O 0.09527 0.29734 0.40768 0.0
O6 O 0.13065 0.31166 0.41994 0.0
C7 C 0.13005 0.38045 0.42608 0.0
C8 C 0.07776 0.32763 0.38563 0.0
O9 O 0.09808 0.33476 0.38128 0.0
O10 O 0.07342 0.3201 0.40472 0.0
C11 C 0.15299 0.3399 0.35934 0.0
O12 O 0.14495 0.35885 0.35778 0.0
C13 C 0.11343 0.29326 0.41464 0.0
Zn14 Zn 0.0026 0.7262 0.69258 0.0
Zn15 Zn 0.00543 0.75987 0.66219 0.0
O16 O 0.98107 0.76566 0.6811 0.0
O17 O 0.97753 0.73803 0.70396 0.0
O18 O 0.01102 0.78435 0.64178 0.0
O19 O 0.03461 0.74342 0.70588 0.0
O20 O 0.03641 0.7652 0.67785 0.0
C21 C 0.97093 0.75452 0.69602 0.0
C22 C 0.99143 0.70571 0.64145 0.0
O23 O 0.99469 0.72793 0.63919 0.0
O24 O 0.99477 0.70069 0.66179 0.0
C25 C 0.9967 0.78677 0.62612 0.0
O26 O 0.97561 0.77333 0.62354 0.0
C27 C 0.04579 0.75868 0.69488 0.0
Zn28 Zn 0.59943 0.8361 0.92287 0.0
Zn29 Zn 0.62356 0.8314 0.89361 0.0
O30 O 0.64084 0.86527 0.91312 0.0
O31 O 0.60968 0.8721 0.92549 0.0
O32 O 0.64295 0.82459 0.87003 0.0
O33 O 0.61476 0.82105 0.94496 0.0
O34 O 0.62024 0.80244 0.90965 0.0
C35 C 0.63012 0.88001 0.92258 0.0
C36 C 0.57546 0.82189 0.87906 0.0
O37 O 0.59509 0.83176 0.87453 0.0
O38 O 0.57293 0.81585 0.899 0.0
C39 C 0.65478 0.841 0.86067 0.0
O40 O 0.6532 0.86392 0.86586 0.0
C41 C 0.61911 0.80286 0.93174 0.0
Zn42 Zn 0.49404 0.2182 0.17462 0.0
Zn43 Zn 0.50326 0.25912 0.16088 0.0
O44 O 0.47925 0.26169 0.18232 0.0
O45 O 0.48081 0.23249 0.20224 0.0
O46 O 0.50956 0.28758 0.14511 0.0
O47 O 0.52752 0.22168 0.17449 0.0
O48 O 0.53362 0.26194 0.17774 0.0
C49 C 0.47338 0.25043 0.19894 0.0
C50 C 0.48198 0.20849 0.12838 0.0
O51 O 0.49525 0.23025 0.1327 0.0
O52 O 0.4725 0.20047 0.14517 0.0
C53 C 0.49558 0.28975 0.12892 0.0
O54 O 0.47511 0.27456 0.12433 0.0
C55 C 0.54102 0.24319 0.17797 0.0
Zn56 Zn 0.12839 0.81647 0.08124 0.0
Zn57 Zn 0.09731 0.81307 0.1107 0.0
O58 O 0.09403 0.84308 0.09385 0.0
O59 O 0.11976 0.84579 0.06927 0.0
O60 O 0.07146 0.81016 0.13204 0.0
O61 O 0.11495 0.77963 0.06402 0.0
O62 O 0.08955 0.77661 0.08911 0.0
C63 C 0.10386 0.85358 0.07802 0.0
C64 C 0.14781 0.82072 0.13095 0.0
O65 O 0.12723 0.81861 0.13481 0.0
O66 O 0.15284 0.82149 0.10989 0.0
C67 C 0.05314 0.81558 0.1267 0.0
O68 O 0.05073 0.82388 0.10707 0.0
C69 C 0.09854 0.76631 0.0719 0.0
Zn70 Zn 0.49274 0.76353 0.46201 0.0
Zn71 Zn 0.5221 0.76586 0.43081 0.0
O72 O 0.53032 0.80263 0.45109 0.0
O73 O 0.50835 0.80011 0.47961 0.0
O74 O 0.54912 0.76596 0.41121 0.0
O75 O 0.49947 0.73243 0.47248 0.0
O76 O 0.52596 0.73712 0.4489 0.0
C77 C 0.52326 0.81323 0.46969 0.0
C78 C 0.47152 0.76053 0.41286 0.0
O79 O 0.49135 0.76051 0.40718 0.0
O80 O 0.46798 0.76103 0.43454 0.0
C81 C 0.55884 0.78247 0.40036 0.0
O82 O 0.55044 0.80127 0.39938 0.0
C83 C 0.51597 0.72573 0.46405 0.0
Zn84 Zn 0.6288 0.31891 0.58317 0.0
Zn85 Zn 0.59855 0.3172 0.61414 0.0
O86 O 0.5957 0.34688 0.597 0.0
O87 O 0.62123 0.34912 0.57215 0.0
O88 O 0.57389 0.3163 0.6364 0.0
O89 O 0.61251 0.28178 0.56634 0.0
O90 O 0.58951 0.28065 0.594 0.0
C91 C 0.6057 0.35732 0.58127 0.0
C92 C 0.64888 0.3239 0.63286 0.0
O93 O 0.62839 0.32159 0.63692 0.0
O94 O 0.65387 0.32454 0.61177 0.0
C95 C 0.55579 0.32195 0.6308 0.0
O96 O 0.55319 0.32895 0.61046 0.0
C97 C 0.59664 0.26951 0.57582 0.0
Zn98 Zn 0.99023 0.26131 0.96211 0.0
Zn99 Zn 0.021 0.26494 0.93252 0.0
O100 O 0.02939 0.3016 0.95386 0.0
O101 O 0.00315 0.29829 0.97808 0.0
O102 O 0.04805 0.26441 0.9128 0.0
O103 O 0.99835 0.23281 0.9756 0.0
O104 O 0.02276 0.23474 0.94949 0.0
C105 C 0.01969 0.31173 0.9705 0.0
C106 C 0.97044 0.25803 0.91295 0.0
O107 O 0.99107 0.26104 0.90873 0.0
O108 O 0.96565 0.25557 0.93375 0.0
C109 C 0.05704 0.2798 0.90044 0.0
O110 O 0.04817 0.29806 0.89844 0.0
C111 C 0.01355 0.22463 0.96582 0.0
Zn112 Zn 0.44791 0.01095 0.31875 0.0
Zn113 Zn 0.43261 0.05264 0.30515 0.0
O114 O 0.44237 0.06389 0.33954 0.0
O115 O 0.42591 0.02572 0.33818 0.0
O116 O 0.41825 0.07626 0.29766 0.0
O117 O 0.45595 0.01462 0.28434 0.0
O118 O 0.45771 0.05406 0.28622 0.0
C119 C 0.43734 0.04645 0.3504 0.0
C120 C 0.41057 0.99869 0.2849 0.0
O121 O 0.40849 0.01985 0.29458 0.0
O122 O 0.43004 0.99495 0.28552 0.0
C123 C 0.40133 0.07682 0.30872 0.0
O124 O 0.39672 0.06334 0.32488 0.0
C125 C 0.46098 0.03394 0.27559 0.0
Zn126 Zn 0.279 0.22788 0.50974 0.0
Zn127 Zn 0.30353 0.19658 0.50896 0.0
O128 O 0.31091 0.21314 0.47965 0.0
O129 O 0.29094 0.24026 0.48147 0.0
O130 O 0.32479 0.17421 0.5092 0.0
O131 O 0.29138 0.24602 0.54357 0.0
O132 O 0.31089 0.21882 0.54419 0.0
C133 C 0.3047 0.22995 0.47134 0.0
C134 C 0.2518 0.17683 0.50136 0.0
O135 O 0.27101 0.17222 0.50273 0.0
O136 O 0.25089 0.19911 0.50391 0.0
C137 C 0.34278 0.17677 0.49911 0.0
O138 O 0.34824 0.1945 0.48721 0.0
C139 C 0.30473 0.23742 0.555 0.0
Zn140 Zn 0.15389 0.03423 0.77293 0.0
Zn141 Zn 0.1801 1.00533 0.76732 0.0
O142 O 0.16204 1.00447 0.80224 0.0
O143 O 0.13733 0.02613 0.80094 0.0
O144 O 0.19849 0.97288 0.76352 0.0
O145 O 0.13726 0.02741 0.73967 0.0
O146 O 0.15975 1.0038 0.72993 0.0
C147 C 0.14626 0.01314 0.81204 0.0
C148 C 0.20115 0.06403 0.77844 0.0
O149 O 0.20518 0.04249 0.77342 0.0
O150 O 0.18094 0.06472 0.78013 0.0
C151 C 0.21572 0.96987 0.77638 0.0
O152 O 0.2253 0.98799 0.79494 0.0
C153 C 0.14432 0.01417 0.72319 0.0
Zn154 Zn 0.38339 0.91428 0.00737 0.0
Zn155 Zn 0.32901 0.93883 0.01504 0.0
O156 O 0.32658 0.92831 0.9785 0.0
O157 O 0.35804 0.92571 0.99422 0.0
O158 O 0.3004 0.94441 0.02181 0.0
O159 O 0.36607 0.8958 0.03024 0.0
O160 O 0.33662 0.91278 0.03315 0.0
C161 C 0.34432 0.9217 0.97563 0.0
C162 C 0.37085 0.96546 0.02717 0.0
O163 O 0.35297 0.97227 0.02774 0.0
O164 O 0.3686 0.94274 0.01815 0.0
C165 C 0.29819 0.96168 0.01173 0.0
O166 O 0.31375 0.97101 0.99896 0.0
C167 C 0.34784 0.89811 0.03878 0.0
Zn168 Zn 0.34243 0.35341 0.0324 0.0
Zn169 Zn 0.31792 0.38481 0.03384 0.0
O170 O 0.31188 0.36379 0.99865 0.0
O171 O 0.33016 0.3354 0.99874 0.0
O172 O 0.29255 0.40176 0.03414 0.0
O173 O 0.33014 0.33912 0.05953 0.0
O174 O 0.3111 0.36713 0.06222 0.0
C175 C 0.31749 0.34496 0.98761 0.0
C176 C 0.36872 0.406 0.04016 0.0
O177 O 0.3496 0.41095 0.0398 0.0
O178 O 0.36947 0.38366 0.03778 0.0
C179 C 0.29316 0.42264 0.02914 0.0
O180 O 0.31209 0.43589 0.02371 0.0
C181 C 0.31653 0.34954 0.06978 0.0
Zn182 Zn 0.74166 0.16047 0.01925 0.0
Zn183 Zn 0.79121 0.14434 0.03 0.0
O184 O 0.80058 0.15477 0.99873 0.0
O185 O 0.76856 0.15956 0.00571 0.0
O186 O 0.81719 0.13379 0.04141 0.0
O187 O 0.75298 0.18056 0.05204 0.0
O188 O 0.78643 0.17181 0.05585 0.0
C189 C 0.78376 0.16166 0.9925 0.0
C190 C 0.74274 0.10876 0.02143 0.0
O191 O 0.76417 0.11392 0.0253 0.0
O192 O 0.73207 0.12477 0.01921 0.0
C193 C 0.81866 0.11615 0.02492 0.0
O194 O 0.80285 0.10773 0.00638 0.0
C195 C 0.77228 0.18352 0.06337 0.0
Zn196 Zn 0.1791 0.56976 0.22075 0.0
Zn197 Zn 0.20269 0.54243 0.22867 0.0
O198 O 0.19334 0.5499 0.26096 0.0
O199 O 0.16162 0.55503 0.24569 0.0
O200 O 0.22043 0.51988 0.2291 0.0
O201 O 0.18038 0.55118 0.18703 0.0
O202 O 0.17743 0.52105 0.20547 0.0
C203 C 0.17382 0.55255 0.26339 0.0
C204 C 0.22423 0.59292 0.23294 0.0
O205 O 0.22505 0.57177 0.22196 0.0
O206 O 0.20549 0.59693 0.23679 0.0
C207 C 0.2372 0.5266 0.24499 0.0
O208 O 0.24111 0.54771 0.26075 0.0
C209 C 0.17463 0.5282 0.18639 0.0
Zn210 Zn 0.84493 0.8577 0.53641 0.0
Zn211 Zn 0.81988 0.88795 0.53559 0.0
O212 O 0.81502 0.8668 0.50019 0.0
O213 O 0.83501 0.84021 0.502 0.0
O214 O 0.79732 0.90888 0.53624 0.0
O215 O 0.8322 0.8443 0.56379 0.0
O216 O 0.81075 0.86975 0.5635 0.0
C217 C 0.82236 0.84896 0.48982 0.0
C218 C 0.87138 0.90887 0.54489 0.0
O219 O 0.85209 0.91325 0.54283 0.0
O220 O 0.87245 0.88675 0.54319 0.0
C221 C 0.78312 0.90674 0.51817 0.0
O222 O 0.78387 0.89178 0.4979 0.0
C223 C 0.8171 0.85337 0.57245 0.0
Zn224 Zn 0.9716 0.04922 0.27113 0.0
Zn225 Zn 0.94418 0.07596 0.27271 0.0
O226 O 0.96332 0.0792 0.31061 0.0
O227 O 0.98973 0.05991 0.30391 0.0
O228 O 0.925 0.10707 0.27244 0.0
O229 O 0.98651 0.05384 0.24158 0.0
O230 O 0.96326 0.07671 0.23856 0.0
C231 C 0.98015 0.07172 0.31895 0.0
C232 C 0.92508 0.01731 0.26656 0.0
O233 O 0.91973 0.03805 0.26746 0.0
O234 O 0.94582 0.01807 0.26754 0.0
C235 C 0.91971 0.12364 0.28868 0.0
O236 O 0.92567 0.12373 0.3112 0.0
C237 C 0.97863 0.06684 0.2295 0.0
Zn238 Zn 0.24 0.66435 0.51943 0.0
Zn239 Zn 0.29371 0.63938 0.53017 0.0
O240 O 0.29922 0.64894 0.49767 0.0
O241 O 0.26825 0.6559 0.50742 0.0
O242 O 0.32105 0.63253 0.54279 0.0
O243 O 0.25523 0.68295 0.55291 0.0
O244 O 0.28532 0.66695 0.55473 0.0
C245 C 0.28273 0.65719 0.49277 0.0
C246 C 0.25139 0.61545 0.52337 0.0
O247 O 0.26808 0.6071 0.52661 0.0
O248 O 0.25549 0.63718 0.51976 0.0
C249 C 0.32172 0.61246 0.52925 0.0
O250 O 0.3061 0.60203 0.51075 0.0
C251 C 0.27381 0.68166 0.56345 0.0
Zn252 Zn 0.46947 0.54691 0.77043 0.0
Zn253 Zn 0.44291 0.57535 0.77294 0.0
O254 O 0.46273 0.57835 0.81054 0.0
O255 O 0.48872 0.55872 0.80256 0.0
O256 O 0.42113 0.60439 0.77358 0.0
O257 O 0.48277 0.55077 0.73978 0.0
O258 O 0.46207 0.57676 0.73878 0.0
C259 C 0.47972 0.57066 0.81816 0.0
C260 C 0.42342 0.51657 0.76759 0.0
O261 O 0.41886 0.53756 0.76759 0.0
O262 O 0.44387 0.51616 0.76896 0.0
C263 C 0.42401 0.62762 0.78464 0.0
O264 O 0.44259 0.63793 0.79968 0.0
C265 C 0.47619 0.56542 0.72878 0.0
Zn266 Zn 0.67806 0.08017 0.75303 0.0
Zn267 Zn 0.69895 0.0398 0.73378 0.0
O268 O 0.68526 0.03149 0.76271 0.0
O269 O 0.69723 0.07064 0.77914 0.0
O270 O 0.71246 0.01346 0.72256 0.0
O271 O 0.67219 0.07344 0.71626 0.0
O272 O 0.67679 0.03587 0.70853 0.0
C273 C 0.68982 0.04855 0.78141 0.0
C274 C 0.72735 0.08982 0.75437 0.0
O275 O 0.72388 0.0712 0.73713 0.0
O276 O 0.71162 0.09293 0.76691 0.0
C277 C 0.72838 0.0153 0.73838 0.0
O278 O 0.73375 0.03424 0.75689 0.0
C279 C 0.67048 0.05303 0.70186 0.0
Zn280 Zn 0.77682 0.72669 0.00885 0.0
Zn281 Zn 0.80503 0.70063 0.01056 0.0
O282 O 0.81209 0.71755 0.98131 0.0
O283 O 0.79091 0.74334 0.98374 0.0
O284 O 0.82997 0.68355 0.01304 0.0
O285 O 0.78387 0.74246 0.04408 0.0
O286 O 0.81001 0.72265 0.04529 0.0
C287 C 0.80538 0.73435 0.97344 0.0
C288 C 0.75423 0.67449 0.99902 0.0
O289 O 0.77418 0.6728 0.00438 0.0
O290 O 0.75115 0.69547 0.99834 0.0
C291 C 0.83213 0.66517 0.99775 0.0
O292 O 0.81699 0.65551 0.97873 0.0
C293 C 0.79955 0.73741 0.05587 0.0
Zn294 Zn 0.94156 0.50655 0.81899 0.0
Zn295 Zn 0.93073 0.55389 0.81181 0.0
O296 O 0.94079 0.5613 0.8461 0.0
O297 O 0.92269 0.52303 0.84206 0.0
O298 O 0.91865 0.5801 0.80684 0.0
O299 O 0.95257 0.51512 0.78679 0.0
O300 O 0.95533 0.55522 0.79224 0.0
C301 C 0.93457 0.5429 0.85553 0.0
C302 C 0.90515 0.50196 0.78728 0.0
O303 O 0.90477 0.52287 0.79956 0.0
O304 O 0.92402 0.49713 0.78535 0.0
C305 C 0.90075 0.57978 0.81628 0.0
O306 O 0.89484 0.56533 0.8314 0.0
C307 C 0.95904 0.53581 0.78053 0.0
Zn308 Zn 0.87865 0.40642 0.50792 0.0
Zn309 Zn 0.82797 0.43395 0.51698 0.0
O310 O 0.82472 0.42466 0.48064 0.0
O311 O 0.85673 0.42241 0.49516 0.0
O312 O 0.80009 0.44001 0.52659 0.0
O313 O 0.86163 0.385 0.52861 0.0
O314 O 0.83697 0.4077 0.5317 0.0
C315 C 0.84213 0.41751 0.4771 0.0
C316 C 0.87146 0.4634 0.52862 0.0
O317 O 0.85171 0.46578 0.52902 0.0
O318 O 0.87419 0.44197 0.52083 0.0
C319 C 0.79565 0.4551 0.51469 0.0
O320 O 0.80913 0.46314 0.49946 0.0
C321 C 0.84502 0.39105 0.53784 0.0
Zn322 Zn 0.65422 0.53382 0.2704 0.0
Zn323 Zn 0.67985 0.50468 0.26676 0.0
O324 O 0.66176 0.50415 0.30177 0.0
O325 O 0.63969 0.5286 0.29991 0.0
O326 O 0.6987 0.47283 0.26314 0.0
O327 O 0.63561 0.52436 0.23798 0.0
O328 O 0.65902 0.50151 0.22951 0.0
C329 C 0.64715 0.51493 0.31148 0.0
C330 C 0.70075 0.56364 0.27488 0.0
O331 O 0.7048 0.54207 0.27185 0.0
O332 O 0.68049 0.56454 0.2753 0.0
C333 C 0.7152 0.4696 0.27689 0.0
O334 O 0.72334 0.48696 0.29643 0.0
C335 C 0.64292 0.51065 0.22218 0.0
Tb336 Tb 0.03659 0.02549 0.00659 0.0
C337 C 0.11046 0.1142 0.06511 0.0
C338 C 0.1219 0.14008 0.03684 0.0
C339 C 0.12973 0.15815 0.07955 0.0
C340 C 0.11129 0.11678 0.04174 0.0
C341 C 0.12023 0.13473 0.08433 0.0
C342 C 0.13056 0.16082 0.05582 0.0
C343 C 0.11399 0.1068 0.11141 0.0
N344 N 0.10231 0.09106 0.069 0.0
C345 C 0.10497 0.087 0.09177 0.0
C346 C 0.12142 0.13084 0.10771 0.0
Tb347 Tb 0.0899 0.05896 0.03585 0.0
N348 N 0.10364 0.09607 0.02395 0.0
C349 C 0.10731 0.09762 1.00082 0.0
C350 C 0.12466 0.14166 0.01315 0.0
C351 C 0.11763 0.12024 0.99513 0.0
H352 H 0.09965 0.06838 0.09482 0.0
H353 H 0.12004 0.12108 0.97672 0.0
H354 H 0.1387 0.1788 0.05236 0.0
H355 H 0.11548 0.10345 0.12936 0.0
H356 H 0.10202 0.08188 0.98607 0.0
H357 H 0.01399 0.96644 0.07072 0.0
H358 H 0.13281 0.15913 0.00868 0.0
H359 H 0.02667 0.01288 0.94745 0.0
H360 H 0.03129 1.00454 0.05891 0.0
H361 H 0.00781 0.97696 0.91461 0.0
H362 H 0.13727 0.17411 0.09405 0.0
H363 H 0.99524 0.92837 0.0402 0.0
H364 H 0.98336 0.90767 0.99694 0.0
H365 H 0.12885 0.14611 0.1229 0.0
H366 H 0.98189 0.91035 0.95451 0.0
N367 N 0.02292 0.98966 0.02083 0.0
C368 C 0.02306 0.9888 0.04472 0.0
C369 C 0.00283 0.94538 0.0346 0.0
C370 C 1.00214 0.9462 0.01035 0.0
C371 C 0.01333 0.96681 0.05184 0.0
C372 C 0.01243 0.96883 0.00398 0.0
H373 H 0.99097 0.93603 0.9237 0.0
N374 N 0.02177 0.99228 0.97493 0.0
C375 C 0.00904 0.9747 0.93296 0.0
C376 C 0.01193 0.97018 0.98022 0.0
C377 C 0.01984 0.99496 0.95163 0.0
C378 C 0.99953 0.95166 0.93816 0.0
C379 C 1.0007 0.94921 0.96202 0.0
O380 O 0.01395 0.03712 0.98559 0.0
O381 O 0.05888 0.06261 0.01979 0.0
O382 O 0.06681 0.0689 0.06252 0.0
O383 O 0.03318 0.03968 0.04531 0.0
O384 O 0.0451 0.05364 0.98495 0.0
O385 O 0.00612 0.02838 0.01967 0.0
O386 O 0.11316 0.04707 0.05584 0.0
O387 O 0.06808 0.02122 0.02227 0.0
O388 O 0.05914 0.0153 0.97958 0.0
O389 O 0.09258 0.04504 0.99652 0.0
O390 O 0.08173 0.03123 0.05739 0.0
O391 O 0.12133 0.05983 0.02358 0.0
C392 C 0.05688 0.07189 1.00153 0.0
C393 C 0.97583 0.02805 0.99177 0.0
C394 C 0.93975 0.03702 0.99304 0.0
C395 C 0.96225 0.04203 0.00246 0.0
C396 C 0.93066 0.01787 0.97272 0.0
C397 C 0.96689 0.00888 0.97141 0.0
C398 C 0.94428 1.00385 0.96191 0.0
C399 C 0.04556 0.05674 0.06405 0.0
C400 C 0.99965 0.03614 1.00113 0.0
C401 C 0.99056 0.92666 0.96822 0.0
C402 C 0.99134 0.92514 0.99236 0.0
C403 C 0.07084 0.01242 0.04087 0.0
C404 C 0.15137 0.06274 0.05272 0.0
C405 C 0.1662 0.0483 0.0483 0.0
C406 C 0.18873 0.05725 0.05844 0.0
C407 C 0.19624 0.08072 0.07407 0.0
C408 C 0.15879 0.08632 0.06806 0.0
C409 C 0.18121 0.09518 0.07887 0.0
C410 C 0.08017 0.02782 0.97783 0.0
C411 C 0.12825 0.05153 0.04151 0.0
H412 H 0.96927 0.05714 0.01798 0.0
H413 H 0.91322 0.01405 0.96512 0.0
H414 H 0.97732 0.99815 0.9627 0.0
H415 H 0.93738 0.98928 0.94605 0.0
H416 H 0.16007 0.02981 0.03686 0.0
H417 H 0.21368 0.08798 0.08215 0.0
H418 H 0.14748 0.09775 0.07178 0.0
H419 H 0.18698 0.11333 0.09082 0.0
Tb420 Tb 0.31822 0.78361 0.25151 0.0
C421 C 0.29214 0.85877 0.32772 0.0
C422 C 0.32859 0.88214 0.34974 0.0
C423 C 0.29631 0.89876 0.35461 0.0
C424 C 0.31458 0.86056 0.33407 0.0
C425 C 0.28275 0.87793 0.33792 0.0
C426 C 0.31923 0.90094 0.3604 0.0
C427 C 0.24713 0.85453 0.31475 0.0
N428 N 0.27964 0.83839 0.31135 0.0
C429 C 0.25707 0.83597 0.30527 0.0
C430 C 0.25999 0.87559 0.3312 0.0
Tb431 Tb 0.29561 0.80554 0.30502 0.0
N432 N 0.32291 0.84176 0.32375 0.0
C433 C 0.34585 0.84518 0.32602 0.0
C434 C 0.35169 0.8845 0.35374 0.0
C435 C 0.36044 0.86632 0.34118 0.0
H436 H 0.24599 0.8191 0.29416 0.0
H437 H 0.37847 0.86859 0.34309 0.0
H438 H 0.32966 0.91745 0.37278 0.0
H439 H 0.22931 0.85217 0.30991 0.0
H440 H 0.35337 0.83221 0.3158 0.0
H441 H 0.24229 0.72243 0.19414 0.0
H442 H 0.36302 0.90078 0.36563 0.0
H443 H 0.36793 0.77179 0.26646 0.0
H444 H 0.26193 0.75576 0.22732 0.0
H445 H 0.38631 0.73945 0.25476 0.0
H446 H 0.28932 0.91349 0.36281 0.0
H447 H 0.26139 0.69181 0.17559 0.0
H448 H 0.29554 0.67618 0.17536 0.0
H449 H 0.25213 0.88978 0.33879 0.0
H450 H 0.33373 0.6795 0.19346 0.0
N451 N 0.29395 0.74782 0.22674 0.0
C452 C 0.27161 0.74442 0.21877 0.0
C453 C 0.27056 0.70723 0.18998 0.0
C454 C 0.29264 0.70935 0.19923 0.0
C455 C 0.25983 0.72456 0.20022 0.0
C456 C 0.30382 0.72972 0.21818 0.0
H457 H 0.3669 0.70195 0.22393 0.0
N458 N 0.33551 0.75149 0.24639 0.0
C459 C 0.36891 0.7366 0.2476 0.0
C460 C 0.32512 0.7314 0.2286 0.0
C461 C 0.35781 0.75471 0.25484 0.0
C462 C 0.35798 0.7156 0.23012 0.0
C463 C 0.33611 0.7131 0.21991 0.0
O464 O 0.3519 0.80226 0.25009 0.0
O465 O 0.31934 0.81453 0.2805 0.0
O466 O 0.27316 0.80635 0.27268 0.0
O467 O 0.288 0.79321 0.23718 0.0
O468 O 0.31837 0.82012 0.24589 0.0
O469 O 0.32879 0.7838 0.21754 0.0
O470 O 0.26282 0.78996 0.3124 0.0
O471 O 0.29388 0.77534 0.27532 0.0
O472 O 0.33831 0.78102 0.28477 0.0
O473 O 0.3248 0.79539 0.32048 0.0
O474 O 0.29229 0.76747 0.30899 0.0
O475 O 0.29023 0.8097 0.34111 0.0
C476 C 0.31902 0.83045 0.26809 0.0
C477 C 0.36024 0.81709 0.21524 0.0
C478 C 0.3597 0.84161 0.18527 0.0
C479 C 0.34818 0.82461 0.19777 0.0
C480 C 0.38318 0.85149 0.1904 0.0
C481 C 0.38375 0.82709 0.22038 0.0
C482 C 0.39515 0.84433 0.20806 0.0
C483 C 0.27236 0.80137 0.24878 0.0
C484 C 0.34922 0.79718 0.2267 0.0
C485 C 0.3254 0.69344 0.20054 0.0
C486 C 0.30374 0.69165 0.19013 0.0
C487 C 0.29164 0.75832 0.28657 0.0
C488 C 0.25736 0.78433 0.35168 0.0
C489 C 0.26683 0.76789 0.36125 0.0
C490 C 0.25582 0.75558 0.37776 0.0
C491 C 0.23559 0.75979 0.38484 0.0
C492 C 0.2371 0.78849 0.35873 0.0
C493 C 0.22627 0.77626 0.37532 0.0
C494 C 0.33952 0.78591 0.30865 0.0
C495 C 0.26864 0.79869 0.33545 0.0
H496 H 0.33009 0.81666 0.1932 0.0
H497 H 0.39225 0.86424 0.18032 0.0
H498 H 0.39335 0.82112 0.23356 0.0
H499 H 0.41331 0.85168 0.21179 0.0
H500 H 0.28265 0.76487 0.35613 0.0
H501 H 0.22719 0.75052 0.3979 0.0
H502 H 0.22984 0.80148 0.35163 0.0
H503 H 0.21077 0.77969 0.38092 0.0
Tb504 Tb 0.5863 0.04283 0.50923 0.0
C505 C 0.5049 0.99576 0.55535 0.0
C506 C 0.48131 0.96299 0.52359 0.0
C507 C 0.48075 0.95898 0.56506 0.0
C508 C 0.49771 0.98611 0.53123 0.0
C509 C 0.4961 0.98264 0.57262 0.0
C510 C 0.47337 0.94916 0.54056 0.0
C511 C 0.51661 0.01827 0.60346 0.0
N512 N 0.5197 0.01867 0.56194 0.0
C513 C 0.5249 0.03052 0.58563 0.0
C514 C 0.50244 0.99406 0.59694 0.0
Tb515 Tb 0.53241 0.03717 0.53156 0.0
N516 N 0.50565 1.00016 0.51544 0.0
C517 C 0.49643 0.99283 0.49181 0.0
C518 C 0.47266 0.95497 0.49929 0.0
C519 C 0.47985 0.97026 0.48347 0.0
H520 H 0.53597 0.04918 0.59073 0.0
H521 H 0.47286 0.96453 0.46472 0.0
H522 H 0.461 0.93123 0.535 0.0
H523 H 0.5212 0.02746 0.6222 0.0
H524 H 0.50166 1.00405 0.47902 0.0
H525 H 0.64307 0.11855 0.57555 0.0
H526 H 0.45996 0.9374 0.49271 0.0
H527 H 0.58389 0.02741 0.44994 0.0
H528 H 0.61263 0.08034 0.56225 0.0
H529 H 0.60096 0.0461 0.41777 0.0
H530 H 0.47399 0.94846 0.57803 0.0
H531 H 0.66213 0.13993 0.54591 0.0
H532 H 0.66567 0.14145 0.50285 0.0
H533 H 0.49603 0.98462 0.61077 0.0
H534 H 0.6536 0.12241 0.46002 0.0
N535 N 0.61346 0.07947 0.52467 0.0
C536 C 0.62035 0.08914 0.54874 0.0
C537 C 0.64863 0.12295 0.53976 0.0
C538 C 0.64184 0.11291 0.51525 0.0
C539 C 0.63787 0.11097 0.55654 0.0
C540 C 0.62408 0.0908 0.50814 0.0
H541 H 0.62942 0.08701 0.42814 0.0
N542 N 0.60044 0.0586 0.47789 0.0
C543 C 0.60538 0.05612 0.43629 0.0
C544 C 0.61713 0.08023 0.48403 0.0
C545 C 0.59537 0.04578 0.45447 0.0
C546 C 0.6215 0.07915 0.44223 0.0
C547 C 0.62793 0.09126 0.46637 0.0
O548 O 0.59653 0.01023 0.49836 0.0
O549 O 0.55481 0.01814 0.51395 0.0
O550 O 0.55098 0.01835 0.55197 0.0
O551 O 0.58472 0.04383 0.54717 0.0
O552 O 0.56726 0.00823 0.48348 0.0
O553 O 0.61876 0.04174 0.52238 0.0
O554 O 0.51869 0.06355 0.55099 0.0
O555 O 0.56304 0.06316 0.52519 0.0
O556 O 0.5679 0.05752 0.48538 0.0
O557 O 0.53155 0.03939 0.49396 0.0
O558 O 0.55202 0.07132 0.557 0.0
O559 O 0.50347 0.04413 0.51516 0.0
C560 C 0.551 1.00056 0.49562 0.0
C561 C 0.63539 0.0143 0.49831 0.0
C562 C 0.66876 0.99875 0.49762 0.0
C563 C 0.65091 1.00438 0.50954 0.0
C564 C 0.67065 1.00289 0.4743 0.0
C565 C 0.63771 0.01827 0.4751 0.0
C566 C 0.65522 0.01259 0.46318 0.0
C567 C 0.57309 0.02613 0.55661 0.0
C568 C 0.61635 0.01925 0.51056 0.0
C569 C 0.64522 0.11357 0.47334 0.0
C570 C 0.65217 0.12436 0.49773 0.0
C571 C 0.56608 0.08093 0.5435 0.0
C572 C 0.48021 0.06068 0.54171 0.0
C573 C 0.46746 0.0744 0.53169 0.0
C574 C 0.44807 0.07828 0.54147 0.0
C575 C 0.44133 0.06805 0.56109 0.0
C576 C 0.47293 0.05015 0.56103 0.0
C577 C 0.45357 0.05385 0.57062 0.0
C578 C 0.54582 0.05007 0.48045 0.0
C579 C 0.50245 0.06058 0.534 0.0
H580 H 0.64913 1.00111 0.52745 0.0
H581 H 0.68392 0.99823 0.4645 0.0
H582 H 0.62584 0.02537 0.46599 0.0
H583 H 0.65673 0.01552 0.44516 0.0
H584 H 0.47314 0.08291 0.51701 0.0
H585 H 0.42654 0.07105 0.56899 0.0
H586 H 0.48254 0.03972 0.56915 0.0
H587 H 0.44827 0.04605 0.58577 0.0
Tb588 Tb 0.28491 0.29677 0.77003 0.0
C589 C 0.36294 0.26755 0.81584 0.0
C590 C 0.38515 0.30501 0.84342 0.0
C591 C 0.3848 0.26487 0.85185 0.0
C592 C 0.36967 0.2931 0.82252 0.0
C593 C 0.371 0.25313 0.83004 0.0
C594 C 0.39195 0.2908 0.85849 0.0
C595 C 0.35454 0.217 0.79824 0.0
N596 N 0.35045 0.25691 0.7942 0.0
C597 C 0.34741 0.23214 0.78462 0.0
C598 C 0.36605 0.22748 0.82125 0.0
Tb599 Tb 0.33875 0.28287 0.77316 0.0
N600 N 0.36296 0.30618 0.80729 0.0
C601 C 0.37296 0.33133 0.81123 0.0
C602 C 0.39447 0.33068 0.84783 0.0
C603 C 0.38874 0.34379 0.83136 0.0
H604 H 0.33862 0.22395 0.76672 0.0
H605 H 0.39629 0.36361 0.83426 0.0
H606 H 0.40352 0.29966 0.87477 0.0
H607 H 0.35131 0.19731 0.7909 0.0
H608 H 0.36938 0.34256 0.79927 0.0
H609 H 0.23819 0.22324 0.69489 0.0
H610 H 0.40662 0.34043 0.86348 0.0
H611 H 0.28125 0.35445 0.78496 0.0
H612 H 0.26111 0.24054 0.73351 0.0
H613 H 0.26953 0.38494 0.76519 0.0
H614 H 0.39095 0.2541 0.86312 0.0
H615 H 0.22887 0.25103 0.66999 0.0
H616 H 0.22995 0.29433 0.66622 0.0
H617 H 0.3719 0.21578 0.83164 0.0
H618 H 0.23877 0.33871 0.68534 0.0
N619 N 0.26455 0.27844 0.7325 0.0
C620 C 0.25677 0.25327 0.72392 0.0
C621 C 0.23877 0.25889 0.68744 0.0
C622 C 0.24581 0.28451 0.69653 0.0
C623 C 0.24382 0.24318 0.7015 0.0
C624 C 0.25852 0.29375 0.7195 0.0
H625 H 0.25327 0.37266 0.72242 0.0
N626 N 0.27339 0.32583 0.75321 0.0
C627 C 0.26782 0.36634 0.75507 0.0
C628 C 0.26327 0.31846 0.73023 0.0
C629 C 0.27447 0.34906 0.76618 0.0
C630 C 0.25875 0.35938 0.73091 0.0
C631 C 0.25575 0.33497 0.71836 0.0
O632 O 0.26877 0.31064 0.79875 0.0
O633 O 0.31287 0.29304 0.79274 0.0
O634 O 0.31481 0.25304 0.78614 0.0
O635 O 0.28013 0.25675 0.77115 0.0
O636 O 0.30218 0.32363 0.80275 0.0
O637 O 0.25286 0.27549 0.77565 0.0
O638 O 0.3539 0.2632 0.74716 0.0
O639 O 0.31103 0.28652 0.7503 0.0
O640 O 0.30833 0.32976 0.76179 0.0
O641 O 0.34327 0.32169 0.76806 0.0
O642 O 0.32133 0.25512 0.74127 0.0
O643 O 0.36896 0.30197 0.76205 0.0
C644 C 0.31581 0.31185 0.80962 0.0
C645 C 0.22895 0.29742 0.79605 0.0
C646 C 0.19442 0.29554 0.81552 0.0
C647 C 0.21461 0.28844 0.8126 0.0
C648 C 0.18899 0.31181 0.80203 0.0
C649 C 0.22264 0.31315 0.78245 0.0
C650 C 0.20294 0.32046 0.78561 0.0
C651 C 0.29264 0.24366 0.77972 0.0
C652 C 0.25104 0.29174 0.79419 0.0
C653 C 0.2445 0.32628 0.69485 0.0
C654 C 0.23948 0.30103 0.68396 0.0
C655 C 0.30838 0.26733 0.73386 0.0
C656 C 0.39349 0.27789 0.74785 0.0
C657 C 0.40833 0.28714 0.73202 0.0
C658 C 0.42911 0.28126 0.73075 0.0
C659 C 0.43496 0.26623 0.74548 0.0
C660 C 0.39998 0.26337 0.76278 0.0
C661 C 0.42054 0.25753 0.76151 0.0
C662 C 0.33076 0.33672 0.76392 0.0
C663 C 0.37089 0.28227 0.74752 0.0
H664 H 0.21923 0.27625 0.82324 0.0
H665 H 0.17374 0.31771 0.8041 0.0
H666 H 0.23299 0.31999 0.7695 0.0
H667 H 0.19846 0.33291 0.77526 0.0
H668 H 0.40352 0.29837 0.72038 0.0
H669 H 0.4508 0.26137 0.74466 0.0
H670 H 0.38909 0.25623 0.7752 0.0
H671 H 0.42525 0.24605 0.77289 0.0
Tb672 Tb 0.05865 0.06902 0.53341 0.0
C673 C 0.07854 0.9883 0.45758 0.0
C674 C 0.04477 0.97228 0.4288 0.0
C675 C 0.08047 0.96675 0.41704 0.0
C676 C 0.05572 0.98492 0.45201 0.0
C677 C 0.09116 0.97898 0.44026 0.0
C678 C 0.0573 0.96342 0.41132 0.0
C679 C 0.12367 0.99301 0.47053 0.0
N680 N 0.08823 0.99997 0.48025 0.0
C681 C 0.1104 1.00169 0.48714 0.0
C682 C 0.11405 0.98173 0.44694 0.0
Tb683 Tb 0.0648 0.01202 0.50663 0.0
N684 N 0.04418 0.99371 0.46941 0.0
C685 C 0.02129 0.98985 0.46459 0.0
C686 C 0.02152 0.96873 0.42387 0.0
C687 C 0.00975 0.97754 0.44189 0.0
H688 H 0.11798 0.01012 0.50539 0.0
H689 H 0.99174 0.97492 0.43832 0.0
H690 H 0.0492 0.95377 0.39341 0.0
H691 H 0.14127 0.99483 0.47599 0.0
H692 H 0.01155 0.99645 0.47779 0.0
H693 H 0.13264 0.11407 0.59922 0.0
H694 H 0.01253 0.9592 0.40628 0.0
H695 H 0.0052 0.06945 0.53551 0.0
H696 H 0.1127 0.09192 0.55999 0.0
H697 H 0.98159 0.08254 0.56565 0.0
H698 H 0.08989 0.95952 0.40347 0.0
H699 H 0.11145 0.12474 0.63284 0.0
H700 H 0.07424 0.12548 0.64725 0.0
H701 H 0.12432 0.97482 0.43416 0.0
H702 H 0.0331 0.11706 0.63811 0.0
N703 N 0.07957 0.08854 0.57025 0.0
C704 C 0.10271 0.0958 0.57402 0.0
C705 C 0.10237 0.11464 0.61544 0.0
C706 C 0.07882 0.10831 0.61141 0.0
C707 C 0.11436 0.10872 0.59653 0.0
C708 C 0.06781 0.09527 0.58833 0.0
H709 H 0.99848 0.10132 0.60771 0.0
N710 N 0.03512 0.07957 0.56043 0.0
C711 C 0.99931 0.08479 0.57088 0.0
C712 C 0.04477 0.09064 0.58323 0.0
C713 C 0.01278 0.0774 0.55385 0.0
C714 C 0.00889 0.09532 0.59461 0.0
C715 C 0.03195 0.09875 0.60097 0.0
O716 O 0.04394 0.09225 0.51787 0.0
O717 O 0.05611 0.04458 0.49789 0.0
O718 O 0.08976 0.03816 0.49216 0.0
O719 O 0.09305 0.07181 0.52333 0.0
O720 O 0.02951 0.05749 0.50522 0.0
O721 O 0.07934 0.10435 0.5322 0.0
O722 O 0.0771 0.98857 0.52454 0.0
O723 O 0.06789 0.03706 0.54165 0.0
O724 O 0.03482 0.0422 0.54835 0.0
O725 O 0.03029 0.00968 0.51599 0.0
O726 O 0.0939 0.02295 0.53535 0.0
O727 O 0.0433 0.97642 0.50575 0.0
C728 C 0.03736 0.04602 0.48761 0.0
C729 C 0.06021 0.13479 0.52832 0.0
C730 C 0.063 0.17331 0.51568 0.0
C731 C 0.06814 0.15063 0.51335 0.0
C732 C 0.04984 0.18023 0.53342 0.0
C733 C 0.04727 0.14166 0.54627 0.0
C734 C 0.04218 0.16447 0.54883 0.0
C735 C 0.10104 0.06025 0.50497 0.0
C736 C 0.06259 0.10987 0.52149 0.0
C737 C 0.04267 0.11078 0.62422 0.0
C738 C 0.06608 0.11555 0.62943 0.0
C739 C 0.08673 0.03637 0.55219 0.0
C740 C 0.06158 0.94588 0.51226 0.0
C741 C 0.05188 0.92882 0.52561 0.0
C742 C 0.05716 0.90609 0.52325 0.0
C743 C 0.07209 0.90043 0.50697 0.0
C744 C 0.07634 0.94006 0.49594 0.0
C745 C 0.08151 0.91734 0.4933 0.0
C746 C 0.02286 0.02069 0.53503 0.0
C747 C 0.05859 0.97072 0.51869 0.0
H748 H 0.07742 0.14469 0.49895 0.0
H749 H 0.0456 0.19774 0.53539 0.0
H750 H 0.04057 0.12922 0.55768 0.0
H751 H 0.03195 0.16973 0.56244 0.0
H752 H 0.04056 0.93353 0.53829 0.0
H753 H 0.07675 0.88317 0.50512 0.0
H754 H 0.08431 0.9532 0.48579 0.0
H755 H 0.09319 0.91304 0.481 0.0
Tb756 Tb 0.33891 0.81237 0.76986 0.0
C757 C 0.28003 0.73396 0.8128 0.0
C758 C 0.28707 0.69614 0.79174 0.0
C759 C 0.27538 0.6985 0.83155 0.0
C760 C 0.28648 0.72092 0.79293 0.0
C761 C 0.27375 0.7227 0.83208 0.0
C762 C 0.28207 0.68525 0.81141 0.0
C763 C 0.26183 0.75872 0.84934 0.0
N764 N 0.2782 0.75705 0.8124 0.0
C765 C 0.26797 0.76888 0.82961 0.0
C766 C 0.26509 0.73569 0.85079 0.0
Tb767 Tb 0.28914 0.77271 0.77983 0.0
N768 N 0.29053 0.7319 0.77408 0.0
C769 C 0.29366 0.7181 0.75273 0.0
C770 C 0.29176 0.68271 0.77049 0.0
C771 C 0.29471 0.69364 0.75079 0.0
H772 H 0.26454 0.78619 0.82809 0.0
H773 H 0.29772 0.68323 0.734 0.0
H774 H 0.2826 0.66632 0.81088 0.0
H775 H 0.25429 0.76849 0.86322 0.0
H776 H 0.29573 0.72556 0.73693 0.0
H777 H 0.33191 0.90165 0.81718 0.0
H778 H 0.29241 0.66368 0.76887 0.0
H779 H 0.35503 0.79452 0.71675 0.0
H780 H 0.33074 0.85796 0.81272 0.0
H781 H 0.36613 0.81306 0.68231 0.0
H782 H 0.2708 0.68958 0.84627 0.0
H783 H 0.34098 0.92277 0.78382 0.0
H784 H 0.35203 0.92082 0.74232 0.0
H785 H 0.26004 0.72767 0.86592 0.0
H786 H 0.36133 0.89684 0.70572 0.0
N787 N 0.33837 0.85318 0.77644 0.0
C788 C 0.33461 0.86643 0.79771 0.0
C789 C 0.34034 0.9033 0.78157 0.0
C790 C 0.34492 0.88999 0.76017 0.0
C791 C 0.33525 0.89147 0.80044 0.0
C792 C 0.34373 0.86463 0.75809 0.0
H793 H 0.36656 0.8567 0.68318 0.0
N794 N 0.34783 0.82687 0.73625 0.0
C795 C 0.36109 0.82389 0.6976 0.0
C796 C 0.3487 0.85108 0.73737 0.0
C797 C 0.35467 0.8134 0.71706 0.0
C798 C 0.36132 0.84853 0.69817 0.0
C799 C 0.35533 0.86254 0.71831 0.0
O800 O 0.37046 0.80565 0.76741 0.0
O801 O 0.32536 0.77615 0.77937 0.0
O802 O 0.30903 0.78374 0.81464 0.0
O803 O 0.3354 0.81815 0.80789 0.0
O804 O 0.34606 0.77716 0.75353 0.0
O805 O 0.36702 0.83721 0.79308 0.0
O806 O 0.2572 0.77892 0.77974 0.0
O807 O 0.30277 0.80916 0.77087 0.0
O808 O 0.31649 0.80359 0.73674 0.0
O809 O 0.29559 0.76623 0.74268 0.0
O810 O 0.28193 0.80794 0.79631 0.0
O811 O 0.26281 0.7487 0.75406 0.0
C812 C 0.33568 0.76253 0.7662 0.0
C813 C 0.40281 0.83904 0.77919 0.0
C814 C 0.44339 0.84944 0.79023 0.0
C815 C 0.42132 0.84242 0.79615 0.0
C816 C 0.44667 0.8545 0.76742 0.0
C817 C 0.40634 0.84461 0.7567 0.0
C818 C 0.42821 0.85248 0.75093 0.0
C819 C 0.32533 0.80441 0.82209 0.0
C820 C 0.38079 0.82509 0.78396 0.0
C821 C 0.35628 0.8877 0.72018 0.0
C822 C 0.35101 0.90137 0.74103 0.0
C823 C 0.29237 0.82282 0.78388 0.0
C824 C 0.22584 0.74533 0.76413 0.0
C825 C 0.20893 0.74394 0.74619 0.0
C826 C 0.18629 0.73563 0.74935 0.0
C827 C 0.18062 0.72695 0.77013 0.0
C828 C 0.22029 0.73645 0.78477 0.0
C829 C 0.19765 0.72706 0.78762 0.0
C830 C 0.30317 0.78117 0.72853 0.0
C831 C 0.24826 0.76014 0.76209 0.0
H832 H 0.41841 0.83819 0.81353 0.0
H833 H 0.4634 0.85915 0.76196 0.0
H834 H 0.3924 0.84209 0.74329 0.0
H835 H 0.43082 0.85606 0.73331 0.0
H836 H 0.21344 0.75096 0.73034 0.0
H837 H 0.16316 0.72102 0.77327 0.0
H838 H 0.2332 0.73736 0.79885 0.0
H839 H 0.19328 0.72076 0.80378 0.0
Tb840 Tb 0.56238 0.034 0.039 0.0
C841 C 0.50721 0.0602 0.96168 0.0
C842 C 0.48686 0.01918 0.9391 0.0
C843 C 0.46931 0.05299 0.94156 0.0
C844 C 0.50616 0.03554 0.95391 0.0
C845 C 0.48926 0.06949 0.95461 0.0
C846 C 0.4681 0.02781 0.93382 0.0
C847 C 0.51364 0.1109 0.96981 0.0
N848 N 0.52684 0.07558 0.97391 0.0
C849 C 0.53088 0.10069 0.97638 0.0
C850 C 0.49248 0.09521 0.95952 0.0
Tb851 Tb 0.55414 0.05764 0.9846 0.0
N852 N 0.52483 0.02814 0.95909 0.0
C853 C 0.52557 1.00464 0.94861 0.0
C854 C 0.48738 0.99501 0.92914 0.0
C855 C 0.50699 0.98788 0.93354 0.0
H856 H 0.54706 0.11295 0.98485 0.0
H857 H 0.50772 0.96933 0.9256 0.0
H858 H 0.45299 0.01542 0.92286 0.0
H859 H 0.51666 0.13084 0.97282 0.0
H860 H 0.54018 0.99818 0.95169 0.0
H861 H 0.61503 0.12218 0.09382 0.0
H862 H 0.47298 0.98194 0.91757 0.0
H863 H 0.56729 0.9772 0.03403 0.0
H864 H 0.58304 0.09576 0.066 0.0
H865 H 0.59378 0.95611 0.04936 0.0
H866 H 0.45517 0.05969 0.93635 0.0
H867 H 0.64382 0.10466 0.11036 0.0
H868 H 0.65729 0.06731 0.11294 0.0
H869 H 0.47916 0.10313 0.95434 0.0
H870 H 0.65162 0.02217 0.10088 0.0
N871 N 0.59222 0.06176 0.06588 0.0
C872 C 0.59462 0.08684 0.07298 0.0
C873 C 0.62939 0.09249 0.09815 0.0
C874 C 0.62673 0.06698 0.09161 0.0
C875 C 0.61318 0.10242 0.08888 0.0
C876 C 0.60772 0.05197 0.07543 0.0
H877 H 0.62805 0.9806 0.07714 0.0
N878 N 0.58683 0.01346 0.05208 0.0
C879 C 0.59724 0.97608 0.05468 0.0
C880 C 0.60487 0.02689 0.06829 0.0
C881 C 0.58236 0.98813 0.04593 0.0
C882 C 0.6165 0.98994 0.07042 0.0
C883 C 0.62044 0.01565 0.07759 0.0
O884 O 0.5406 0.00568 0.05128 0.0
O885 O 0.54097 0.03547 0.00886 0.0
O886 O 0.53693 0.07593 0.0107 0.0
O887 O 0.55101 0.06773 0.04658 0.0
O888 O 0.53578 1.00231 0.01766 0.0
O889 O 0.54642 0.04416 0.06894 0.0
O890 O 0.5748 0.08775 0.97394 0.0
O891 O 0.57599 0.05553 0.01423 0.0
O892 O 0.57624 0.01246 0.01164 0.0
O893 O 0.56973 0.02716 0.97666 0.0
O894 O 0.58249 0.08869 0.00463 0.0
O895 O 0.5649 0.05073 0.9507 0.0
C896 C 0.52747 0.01423 0.00405 0.0
C897 C 0.53646 0.01438 0.09199 0.0
C898 C 0.51896 0.01313 0.12802 0.0
C899 C 0.52032 0.02005 0.10613 0.0
C900 C 0.53376 1.0005 0.13604 0.0
C901 C 0.55146 1.00181 0.09981 0.0
C902 C 0.55001 0.99483 0.12186 0.0
C903 C 0.54044 0.07996 0.03435 0.0
C904 C 0.53636 0.02119 0.06892 0.0
C905 C 0.63936 0.03041 0.09371 0.0
C906 C 0.64256 0.05607 0.10061 0.0
C907 C 0.58998 0.07645 0.0185 0.0
C908 C 0.57242 0.08522 0.93221 0.0
C909 C 0.57725 0.07284 0.91074 0.0
C910 C 0.58521 0.08596 0.89346 0.0
C911 C 0.58347 0.11038 0.89552 0.0
C912 C 0.57093 0.10972 0.93453 0.0
C913 C 0.57556 0.12186 0.91572 0.0
C914 C 0.57682 0.01227 0.98859 0.0
C915 C 0.57507 0.07429 0.95292 0.0
H916 H 0.50881 0.02989 0.10013 0.0
H917 H 0.53275 0.99519 0.1532 0.0
H918 H 0.56404 0.99725 0.08896 0.0
H919 H 0.56145 0.98505 0.12794 0.0
H920 H 0.57784 0.05374 0.90898 0.0
H921 H 0.58949 0.12113 0.88248 0.0
H922 H 0.56748 0.11995 0.95115 0.0
H923 H 0.57478 0.14086 0.91764 0.0
Tb924 Tb 0.32286 0.31618 0.27845 0.0
C925 C 0.23637 0.23072 0.23798 0.0
C926 C 0.21728 0.22582 0.27294 0.0
C927 C 0.19694 0.20669 0.23321 0.0
C928 C 0.237 0.2347 0.26256 0.0
C929 C 0.21627 0.21659 0.22297 0.0
C930 C 0.19741 0.21138 0.25816 0.0
C931 C 0.23592 0.22206 0.18876 0.0
N932 N 0.25545 0.24064 0.22882 0.0
C933 C 0.25542 0.23575 0.20427 0.0
C934 C 0.21624 0.21242 0.19813 0.0
Tb935 Tb 0.28814 0.25417 0.25598 0.0
N936 N 0.25658 0.24864 0.27623 0.0
C937 C 0.25647 0.25677 0.30038 0.0
C938 C 0.21791 0.2323 0.29782 0.0
C939 C 0.23748 0.24829 0.31153 0.0
H940 H 0.27068 0.24115 0.19615 0.0
H941 H 0.23792 0.25435 0.33072 0.0
H942 H 0.18222 0.20414 0.26584 0.0
H943 H 0.23633 0.2183 0.16954 0.0
H944 H 0.2706 0.27034 0.31137 0.0
H945 H 0.37281 0.33727 0.20579 0.0
H946 H 0.20314 0.22592 0.30649 0.0
H947 H 0.34097 0.32226 0.3375 0.0
H948 H 0.33906 0.32315 0.22226 0.0
H949 H 0.37609 0.33329 0.36328 0.0
H950 H 0.18147 0.19561 0.22197 0.0
H951 H 0.40942 0.35095 0.23112 0.0
H952 H 0.43121 0.35737 0.27082 0.0
H953 H 0.20124 0.20147 0.18605 0.0
H954 H 0.43236 0.35399 0.3128 0.0
N955 N 0.35435 0.32453 0.25775 0.0
C956 C 0.354 0.32698 0.23424 0.0
C957 C 0.39427 0.34322 0.23863 0.0
C958 C 0.39509 0.34095 0.26244 0.0
C959 C 0.37368 0.33566 0.22436 0.0
C960 C 0.37477 0.33094 0.27154 0.0
H961 H 0.4122 0.34447 0.347 0.0
N962 N 0.35558 0.3213 0.30417 0.0
C963 C 0.37627 0.33147 0.34411 0.0
C964 C 0.37541 0.32908 0.29531 0.0
C965 C 0.35607 0.32417 0.32878 0.0
C966 C 0.39655 0.33788 0.33489 0.0
C967 C 0.39633 0.33754 0.31047 0.0
O968 O 0.31803 0.33822 0.31027 0.0
O969 O 0.28956 0.29084 0.27625 0.0
O970 O 0.28894 0.27482 0.22733 0.0
O971 O 0.30964 0.31641 0.24203 0.0
O972 O 0.29181 0.32486 0.26835 0.0
O973 O 0.33541 0.35472 0.28325 0.0
O974 O 0.29699 0.23193 0.22597 0.0
O975 O 0.32068 0.28056 0.25794 0.0
O976 O 0.31814 0.29399 0.30642 0.0
O977 O 0.29882 0.25216 0.29219 0.0
O978 O 0.3205 0.24699 0.26565 0.0
O979 O 0.27923 0.21614 0.254 0.0
C980 C 0.27776 0.30459 0.27062 0.0
C981 C 0.3213 0.38036 0.31234 0.0
C982 C 0.30629 0.413 0.30341 0.0
C983 C 0.31081 0.39025 0.29581 0.0
C984 C 0.31147 0.42547 0.32764 0.0
C985 C 0.32635 0.39263 0.3366 0.0
C986 C 0.32131 0.41512 0.34424 0.0
C987 C 0.29749 0.29769 0.22472 0.0
C988 C 0.32907 0.35856 0.30464 0.0
C989 C 0.41633 0.3472 0.30133 0.0
C990 C 0.41566 0.34923 0.27748 0.0
C991 C 0.33319 0.26799 0.26372 0.0
C992 C 0.28764 0.18722 0.22221 0.0
C993 C 0.29407 0.17265 0.23672 0.0
C994 C 0.29886 0.15057 0.22651 0.0
C995 C 0.29493 0.14188 0.20144 0.0
C996 C 0.28395 0.17881 0.19722 0.0
C997 C 0.28716 0.15586 0.1869 0.0
C998 C 0.31069 0.27095 0.30931 0.0
C999 C 0.2871 0.21211 0.23339 0.0
H1000 H 0.30707 0.3809 0.277 0.0
H1001 H 0.30798 0.4432 0.3336 0.0
H1002 H 0.33464 0.38506 0.34948 0.0
H1003 H 0.32541 0.42473 0.3629 0.0
H1004 H 0.29674 0.17937 0.25606 0.0
H1005 H 0.29874 0.12493 0.19306 0.0
H1006 H 0.27896 0.19011 0.18578 0.0
H1007 H 0.28445 0.14936 0.16759 0.0
Tb1008 Tb 0.55687 0.56733 0.03254 0.0
C1009 C 0.57688 0.48648 0.95727 0.0
C1010 C 0.54185 0.46858 0.93059 0.0
C1011 C 0.57697 0.46354 0.91674 0.0
C1012 C 0.55383 0.48246 0.95306 0.0
C1013 C 0.58869 0.47671 0.93928 0.0
C1014 C 0.55358 0.45945 0.91242 0.0
C1015 C 0.62244 0.49152 0.96787 0.0
N1016 N 0.58759 0.49891 0.97936 0.0
C1017 C 0.60993 0.50049 0.9852 0.0
C1018 C 0.61182 0.47981 0.94472 0.0
Tb1019 Tb 0.56557 0.51137 0.00727 0.0
N1020 N 0.54307 0.49174 0.97105 0.0
C1021 C 0.51995 0.48716 0.9674 0.0
C1022 C 0.51842 0.46412 0.92703 0.0
C1023 C 0.50745 0.47344 0.94555 0.0
H1024 H 0.61821 0.50924 0.00319 0.0
H1025 H 0.48931 0.47029 0.94296 0.0
H1026 H 0.54468 0.44894 0.89505 0.0
H1027 H 0.64021 0.49348 0.97244 0.0
H1028 H 0.51051 0.49435 0.98067 0.0
H1029 H 0.63541 0.61581 0.09124 0.0
H1030 H 0.50867 0.45361 0.91007 0.0
H1031 H 0.50392 0.56607 0.03957 0.0
H1032 H 0.61302 0.5869 0.05628 0.0
H1033 H 0.483 0.58248 0.0711 0.0
H1034 H 0.58577 0.45601 0.90268 0.0
H1035 H 0.61705 0.63269 0.12496 0.0
H1036 H 0.58156 0.63529 0.14232 0.0
H1037 H 0.62148 0.47262 0.93138 0.0
H1038 H 0.54016 0.62563 0.13722 0.0
N1039 N 0.58076 0.58877 0.06736 0.0
C1040 C 0.60398 0.59505 0.06942 0.0
C1041 C 0.60676 0.6205 0.10896 0.0
C1042 C 0.58322 0.61388 0.10718 0.0
C1043 C 0.61717 0.61123 0.08989 0.0
C1044 C 0.57053 0.59806 0.08584 0.0
H1045 H 0.50339 0.6062 0.11075 0.0
N1046 N 0.5357 0.57897 0.06165 0.0
C1047 C 0.50102 0.58527 0.07479 0.0
C1048 C 0.54724 0.59269 0.083 0.0
C1049 C 0.51292 0.57594 0.05704 0.0
C1050 C 0.51258 0.59862 0.09714 0.0
C1051 C 0.536 0.60284 0.10136 0.0
O1052 O 0.53834 0.58904 0.01964 0.0
O1053 O 0.55623 0.54316 0.99737 0.0
O1054 O 0.59204 0.53815 0.99461 0.0
O1055 O 0.59064 0.57359 0.02112 0.0
O1056 O 0.52845 0.55427 0.00333 0.0
O1057 O 0.57487 0.6024 0.02808 0.0
O1058 O 0.58127 0.48859 0.02255 0.0
O1059 O 0.56649 0.53589 0.04213 0.0
O1060 O 0.53329 0.54033 0.04751 0.0
O1061 O 0.53091 0.50668 0.01701 0.0
O1062 O 0.5936 0.52374 0.03718 0.0
O1063 O 0.54562 0.47602 0.00952 0.0
C1064 C 0.53752 0.54369 0.9862 0.0
C1065 C 0.55438 0.63195 0.02707 0.0
C1066 C 0.55913 0.67131 0.01568 0.0
C1067 C 0.56116 0.64716 0.01127 0.0
C1068 C 0.54946 0.68 0.03598 0.0
C1069 C 0.54478 0.64043 0.04737 0.0
C1070 C 0.54228 0.6645 0.05175 0.0
C1071 C 0.60104 0.56167 0.0055 0.0
C1072 C 0.55635 0.60692 0.02016 0.0
C1073 C 0.54851 0.61773 0.12292 0.0
C1074 C 0.57207 0.62327 0.12581 0.0
C1075 C 0.58498 0.53566 0.05385 0.0
C1076 C 0.56494 0.44561 0.01334 0.0
C1077 C 0.55479 0.42896 0.02687 0.0
C1078 C 0.55866 0.40553 0.02402 0.0
C1079 C 0.57267 0.39871 0.00717 0.0
C1080 C 0.57895 0.43878 0.99655 0.0
C1081 C 0.58275 0.41532 0.99348 0.0
C1082 C 0.52237 0.51811 0.03487 0.0
C1083 C 0.56278 0.4708 0.01977 0.0
H1084 H 0.56785 0.63995 0.99518 0.0
H1085 H 0.54778 0.69875 0.03981 0.0
H1086 H 0.53901 0.62855 0.05953 0.0
H1087 H 0.53482 0.67116 0.06736 0.0
H1088 H 0.54417 0.43446 0.04004 0.0
H1089 H 0.57611 0.38077 0.00492 0.0
H1090 H 0.58729 0.4516 0.98625 0.0
H1091 H 0.5938 0.41016 0.98076 0.0
Tb1092 Tb 0.84089 0.31244 0.26876 0.0
C1093 C 0.77616 0.23617 0.31137 0.0
C1094 C 0.77271 0.19576 0.28623 0.0
C1095 C 0.76379 0.19893 0.32714 0.0
C1096 C 0.77845 0.22192 0.28974 0.0
C1097 C 0.76815 0.22476 0.33006 0.0
C1098 C 0.76606 0.18445 0.30524 0.0
C1099 C 0.76624 0.2647 0.35185 0.0
N1100 N 0.78 0.26099 0.31341 0.0
C1101 C 0.77421 0.27517 0.33286 0.0
C1102 C 0.76362 0.23948 0.35065 0.0
Tb1103 Tb 0.79055 0.27616 0.28056 0.0
N1104 N 0.78463 0.2335 0.27164 0.0
C1105 C 0.78422 0.21938 0.24909 0.0
C1106 C 0.77286 0.1816 0.26346 0.0
C1107 C 0.77837 0.19347 0.24476 0.0
H1108 H 0.77598 0.29467 0.33386 0.0
H1109 H 0.77826 0.18269 0.22695 0.0
H1110 H 0.76188 0.16444 0.30293 0.0
H1111 H 0.762 0.27609 0.36731 0.0
H1112 H 0.78817 0.22735 0.23389 0.0
H1113 H 0.83795 0.40329 0.31696 0.0
H1114 H 0.76837 0.1615 0.26002 0.0
H1115 H 0.85565 0.29384 0.21526 0.0
H1116 H 0.83581 0.35948 0.31253 0.0
H1117 H 0.8666 0.31197 0.18052 0.0
H1118 H 0.75784 0.18987 0.34138 0.0
H1119 H 0.84635 0.42392 0.28317 0.0
H1120 H 0.85608 0.42123 0.24114 0.0
H1121 H 0.75728 0.23137 0.3653 0.0
H1122 H 0.86391 0.39652 0.20411 0.0
N1123 N 0.84232 0.35394 0.27582 0.0
C1124 C 0.83948 0.36764 0.29731 0.0
C1125 C 0.84536 0.40436 0.28095 0.0
C1126 C 0.84909 0.39065 0.25933 0.0
C1127 C 0.84065 0.39281 0.30005 0.0
C1128 C 0.84739 0.36517 0.25727 0.0
H1129 H 0.86795 0.35585 0.18139 0.0
N1130 N 0.8499 0.32685 0.23512 0.0
C1131 C 0.86221 0.32315 0.19602 0.0
C1132 C 0.85141 0.35121 0.23628 0.0
C1133 C 0.85596 0.31294 0.21568 0.0
C1134 C 0.86294 0.34793 0.19658 0.0
C1135 C 0.85774 0.36237 0.21696 0.0
O1136 O 0.87195 0.30509 0.26395 0.0
O1137 O 0.82627 0.2766 0.27867 0.0
O1138 O 0.81336 0.28379 0.31374 0.0
O1139 O 0.83782 0.31893 0.30671 0.0
O1140 O 0.84574 0.27588 0.25239 0.0
O1141 O 0.86968 0.33476 0.29256 0.0
O1142 O 0.76057 0.28629 0.28487 0.0
O1143 O 0.80518 0.31188 0.27069 0.0
O1144 O 0.81794 0.30535 0.23644 0.0
O1145 O 0.79619 0.26889 0.24316 0.0
O1146 O 0.78719 0.31274 0.2985 0.0
O1147 O 0.76161 0.2569 0.25549 0.0
C1148 C 0.83547 0.26163 0.2655 0.0
C1149 C 0.90518 0.33724 0.27788 0.0
C1150 C 0.94579 0.34928 0.28965 0.0
C1151 C 0.92374 0.33912 0.29432 0.0
C1152 C 0.94909 0.35813 0.26855 0.0
C1153 C 0.9087 0.34611 0.25684 0.0
C1154 C 0.93058 0.35659 0.25228 0.0
C1155 C 0.8297 0.30458 0.32125 0.0
C1156 C 0.88291 0.3229 0.28179 0.0
C1157 C 0.85916 0.38763 0.21879 0.0
C1158 C 0.85474 0.40171 0.23989 0.0
C1159 C 0.79637 0.3266 0.28458 0.0
C1160 C 0.72647 0.2558 0.27054 0.0
C1161 C 0.70877 0.25081 0.25209 0.0
C1162 C 0.68618 0.24398 0.25669 0.0
C1163 C 0.68179 0.241 0.27998 0.0
C1164 C 0.72166 0.25181 0.29328 0.0
C1165 C 0.69943 0.24431 0.29789 0.0
C1166 C 0.80351 0.28356 0.2287 0.0
C1167 C 0.74907 0.26933 0.26671 0.0
H1168 H 0.92104 0.33188 0.3104 0.0
H1169 H 0.96596 0.36549 0.26429 0.0
H1170 H 0.89475 0.34442 0.24367 0.0
H1171 H 0.93323 0.36299 0.23582 0.0
H1172 H 0.71281 0.25341 0.2345 0.0
H1173 H 0.66482 0.23691 0.2848 0.0
H1174 H 0.73489 0.25552 0.30779 0.0
H1175 H 0.69586 0.24208 0.31571 0.0
Tb1176 Tb 0.06222 0.53848 0.54116 0.0
C1177 C 0.00414 0.56259 0.46256 0.0
C1178 C 0.97988 0.52184 0.44363 0.0
C1179 C 0.96629 0.55826 0.4439 0.0
C1180 C 1.00067 0.53726 0.45626 0.0
C1181 C 0.98723 0.5735 0.45593 0.0
C1182 C 0.9626 0.53245 0.43783 0.0
C1183 C 0.01363 0.61373 0.47167 0.0
N1184 N 0.02451 0.57663 0.4743 0.0
C1185 C 0.02989 0.602 0.47768 0.0
C1186 C 0.99208 0.59941 0.46105 0.0
Tb1187 Tb 0.04995 0.5558 0.48416 0.0
N1188 N 0.01784 0.5278 0.46212 0.0
C1189 C 0.01559 0.50289 0.45445 0.0
C1190 C 0.97721 0.4963 0.43691 0.0
C1191 C 0.99524 0.48684 0.44213 0.0
H1192 H 0.04659 0.61316 0.48587 0.0
H1193 H 0.99349 0.46712 0.43672 0.0
H1194 H 0.94648 0.5209 0.42826 0.0
H1195 H 0.01776 0.63378 0.47516 0.0
H1196 H 0.02904 0.49482 0.45832 0.0
H1197 H 0.11827 0.62817 0.58885 0.0
H1198 H 0.96148 0.48382 0.42732 0.0
H1199 H 0.06773 0.48221 0.53708 0.0
H1200 H 0.08836 0.60096 0.5585 0.0
H1201 H 0.09185 0.46129 0.55686 0.0
H1202 H 0.953 0.56626 0.43884 0.0
H1203 H 0.14116 0.61067 0.61427 0.0
H1204 H 0.15042 0.57302 0.62398 0.0
H1205 H 0.97953 0.60852 0.4563 0.0
H1206 H 0.14385 0.52763 0.61467 0.0
N1207 N 0.09227 0.56707 0.56688 0.0
C1208 C 0.09721 0.5924 0.56969 0.0
C1209 C 0.12753 0.59833 0.60113 0.0
C1210 C 0.12325 0.57258 0.59761 0.0
C1211 C 0.11466 0.60825 0.58684 0.0
C1212 C 0.10539 0.55735 0.58012 0.0
H1213 H 0.12258 0.48591 0.58909 0.0
N1214 N 0.08586 0.51845 0.55636 0.0
C1215 C 0.0951 0.48126 0.56185 0.0
C1216 C 0.10209 0.53205 0.57454 0.0
C1217 C 0.08174 0.4932 0.55038 0.0
C1218 C 0.1123 0.49519 0.58015 0.0
C1219 C 0.11594 0.52092 0.58678 0.0
O1220 O 0.03994 0.51144 0.55424 0.0
O1221 O 0.03852 0.5375 0.51171 0.0
O1222 O 0.03706 0.57834 0.51077 0.0
O1223 O 0.05295 0.57349 0.54746 0.0
O1224 O 0.03566 0.5052 0.52251 0.0
O1225 O 0.04749 0.55029 0.57181 0.0
O1226 O 0.07051 0.58136 0.46815 0.0
O1227 O 0.07373 0.55626 0.51309 0.0
O1228 O 0.07888 0.51852 0.51519 0.0
O1229 O 0.06233 0.52274 0.47837 0.0
O1230 O 0.07949 0.58706 0.49962 0.0
O1231 O 0.05815 0.54223 0.45016 0.0
C1232 C 0.02605 0.51588 0.50861 0.0
C1233 C 0.03668 0.52023 0.59503 0.0
C1234 C 0.01847 0.51786 0.63058 0.0
C1235 C 0.0218 0.52746 0.61018 0.0
C1236 C 0.03033 0.50136 0.63632 0.0
C1237 C 0.04881 0.50388 0.6008 0.0
C1238 C 0.04566 0.49454 0.62147 0.0
C1239 C 0.04215 0.58462 0.5342 0.0
C1240 C 0.03673 0.52751 0.57207 0.0
C1241 C 0.13308 0.53583 0.60498 0.0
C1242 C 0.13676 0.56165 0.61036 0.0
C1243 C 0.08835 0.5762 0.51396 0.0
C1244 C 0.06873 0.57185 0.42661 0.0
C1245 C 0.08479 0.56694 0.41223 0.0
C1246 C 0.08864 0.57814 0.39296 0.0
C1247 C 0.07565 0.59359 0.38716 0.0
C1248 C 0.05525 0.58696 0.42101 0.0
C1249 C 0.05865 0.59767 0.40106 0.0
C1250 C 0.07482 0.51305 0.49145 0.0
C1251 C 0.07 0.56441 0.4492 0.0
H1252 H 0.01225 0.53992 0.60572 0.0
H1253 H 0.02782 0.49397 0.65231 0.0
H1254 H 0.06017 0.49777 0.58914 0.0
H1255 H 0.05483 0.48177 0.62579 0.0
H1256 H 0.09541 0.55554 0.41691 0.0
H1257 H 0.0787 0.6024 0.37209 0.0
H1258 H 0.04281 0.59108 0.43231 0.0
H1259 H 0.04856 0.60962 0.39678 0.0
Tb1260 Tb 0.78494 0.79679 0.2686 0.0
C1261 C 0.85941 0.76651 0.32011 0.0
C1262 C 0.87529 0.80195 0.35292 0.0
C1263 C 0.87643 0.76085 0.35752 0.0
C1264 C 0.8638 0.79156 0.32952 0.0
C1265 C 0.8663 0.75093 0.33369 0.0
C1266 C 0.88094 0.78635 0.36713 0.0
C1267 C 0.85567 0.71784 0.29814 0.0
N1268 N 0.85021 0.75782 0.29686 0.0
C1269 C 0.84942 0.73415 0.28536 0.0
C1270 C 0.8638 0.72615 0.32254 0.0
Tb1271 Tb 0.83958 0.78544 0.27742 0.0
N1272 N 0.85865 0.806 0.31494 0.0
C1273 C 0.86629 0.83137 0.32229 0.0
C1274 C 0.88183 0.82775 0.36088 0.0
C1275 C 0.87765 0.84252 0.34533 0.0
H1276 H 0.84316 0.72767 0.26648 0.0
H1277 H 0.88315 0.86256 0.35105 0.0
H1278 H 0.88955 0.79396 0.38521 0.0
H1279 H 0.8543 0.69892 0.28916 0.0
H1280 H 0.86359 0.84353 0.31091 0.0
H1281 H 0.7453 0.72152 0.19184 0.0
H1282 H 0.8909 0.83647 0.3786 0.0
H1283 H 0.78157 0.85453 0.28162 0.0
H1284 H 0.76652 0.73985 0.23126 0.0
H1285 H 0.76843 0.88355 0.26091 0.0
H1286 H 0.88165 0.74914 0.36834 0.0
H1287 H 0.73262 0.74795 0.16746 0.0
H1288 H 0.73101 0.79041 0.16334 0.0
H1289 H 0.86888 0.71357 0.33235 0.0
H1290 H 0.73777 0.83471 0.18189 0.0
N1291 N 0.76633 0.77718 0.23064 0.0
C1292 C 0.76093 0.75202 0.22166 0.0
C1293 C 0.74215 0.75633 0.18502 0.0
C1294 C 0.74724 0.78188 0.19423 0.0
C1295 C 0.74905 0.74135 0.19881 0.0
C1296 C 0.75926 0.7918 0.21745 0.0
H1297 H 0.75148 0.86955 0.21837 0.0
N1298 N 0.77327 0.82485 0.25073 0.0
C1299 C 0.76696 0.8648 0.25132 0.0
C1300 C 0.763 0.81655 0.22782 0.0
C1301 C 0.77439 0.84834 0.26298 0.0
C1302 C 0.75744 0.85685 0.2273 0.0
C1303 C 0.75494 0.83231 0.21538 0.0
O1304 O 0.76796 0.80913 0.29721 0.0
O1305 O 0.81198 0.79527 0.29386 0.0
O1306 O 0.81516 0.75359 0.28725 0.0
O1307 O 0.78084 0.75725 0.27067 0.0
O1308 O 0.7995 0.82549 0.30093 0.0
O1309 O 0.75208 0.77546 0.27171 0.0
O1310 O 0.85666 0.77153 0.24968 0.0
O1311 O 0.81282 0.7873 0.25211 0.0
O1312 O 0.80859 0.82839 0.25797 0.0
O1313 O 0.84321 0.8249 0.27421 0.0
O1314 O 0.82543 0.75707 0.24499 0.0
O1315 O 0.87253 0.80617 0.27382 0.0
C1316 C 0.81346 0.8149 0.30928 0.0
C1317 C 0.72825 0.79682 0.29307 0.0
C1318 C 0.69525 0.79796 0.31451 0.0
C1319 C 0.71476 0.78969 0.31095 0.0
C1320 C 0.6895 0.81331 0.30008 0.0
C1321 C 0.7217 0.81167 0.27861 0.0
C1322 C 0.70253 0.81995 0.2822 0.0
C1323 C 0.79307 0.74421 0.27981 0.0
C1324 C 0.75003 0.79056 0.29108 0.0
C1325 C 0.74393 0.82286 0.19183 0.0
C1326 C 0.74005 0.79765 0.18128 0.0
C1327 C 0.81184 0.76799 0.23643 0.0
C1328 C 0.89632 0.7837 0.25394 0.0
C1329 C 0.91013 0.79071 0.23635 0.0
C1330 C 0.92945 0.7821 0.23301 0.0
C1331 C 0.93476 0.76651 0.24739 0.0
C1332 C 0.90238 0.76862 0.26846 0.0
C1333 C 0.92141 0.76 0.26509 0.0
C1334 C 0.83071 0.8377 0.26497 0.0
C1335 C 0.87461 0.79011 0.25523 0.0
H1336 H 0.71964 0.77823 0.32228 0.0
H1337 H 0.67469 0.81998 0.30252 0.0
H1338 H 0.73153 0.81717 0.26473 0.0
H1339 H 0.6978 0.83168 0.27113 0.0
H1340 H 0.90559 0.8023 0.22496 0.0
H1341 H 0.94944 0.75957 0.24506 0.0
H1342 H 0.89223 0.76318 0.28215 0.0
H1343 H 0.92576 0.74807 0.27617 0.0
Tb1344 Tb 0.82068 0.28418 0.74963 0.0
C1345 C 0.79233 0.35817 0.82886 0.0
C1346 C 0.82825 0.38221 0.85161 0.0
C1347 C 0.79446 0.39544 0.85897 0.0
C1348 C 0.8151 0.36126 0.83454 0.0
C1349 C 0.78172 0.37531 0.84095 0.0
C1350 C 0.81772 0.39895 0.86423 0.0
C1351 C 0.74661 0.35106 0.81717 0.0
N1352 N 0.78061 0.33825 0.81153 0.0
C1353 C 0.75776 0.33436 0.80602 0.0
C1354 C 0.7586 0.37157 0.83482 0.0
Tb1355 Tb 0.79862 0.30734 0.80302 0.0
N1356 N 0.82448 0.34419 0.82252 0.0
C1357 C 0.84753 0.34914 0.82428 0.0
C1358 C 0.8516 0.38595 0.85513 0.0
C1359 C 0.86135 0.36983 0.84076 0.0
H1360 H 0.74755 0.31745 0.79418 0.0
H1361 H 0.87951 0.37324 0.84246 0.0
H1362 H 0.82747 0.41491 0.87774 0.0
H1363 H 0.72856 0.34753 0.81277 0.0
H1364 H 0.85556 0.33729 0.81308 0.0
H1365 H 0.74172 0.22284 0.69773 0.0
H1366 H 0.86232 0.40179 0.8681 0.0
H1367 H 0.87013 0.27162 0.76294 0.0
H1368 H 0.76343 0.25775 0.72849 0.0
H1369 H 0.88768 0.23852 0.75037 0.0
H1370 H 0.78655 0.40859 0.86869 0.0
H1371 H 0.75922 0.19074 0.67901 0.0
H1372 H 0.79299 0.17443 0.67687 0.0
H1373 H 0.74981 0.3842 0.84382 0.0
H1374 H 0.83188 0.17764 0.69266 0.0
N1375 N 0.79504 0.24858 0.72627 0.0
C1376 C 0.77242 0.24546 0.71982 0.0
C1377 C 0.76931 0.2067 0.69231 0.0
C1378 C 0.79179 0.20879 0.70003 0.0
C1379 C 0.75946 0.22485 0.70267 0.0
C1380 C 0.80417 0.22981 0.71767 0.0
H1381 H 0.86664 0.20057 0.72086 0.0
N1382 N 0.83722 0.25167 0.744 0.0
C1383 C 0.87014 0.23597 0.74393 0.0
C1384 C 0.82587 0.23133 0.72694 0.0
C1385 C 0.85965 0.25456 0.75153 0.0
C1386 C 0.85828 0.2147 0.72721 0.0
C1387 C 0.83608 0.21238 0.71811 0.0
O1388 O 0.85429 0.30215 0.74719 0.0
O1389 O 0.82261 0.31548 0.77857 0.0
O1390 O 0.77735 0.31095 0.77076 0.0
O1391 O 0.79101 0.29446 0.73548 0.0
O1392 O 0.82284 0.32107 0.74383 0.0
O1393 O 0.83042 0.28295 0.71522 0.0
O1394 O 0.76636 0.29008 0.81074 0.0
O1395 O 0.79575 0.27714 0.77299 0.0
O1396 O 0.83987 0.27945 0.78239 0.0
O1397 O 0.82951 0.2996 0.81771 0.0
O1398 O 0.79461 0.26897 0.80648 0.0
O1399 O 0.79438 0.30933 0.83927 0.0
C1400 C 0.82328 0.33143 0.76592 0.0
C1401 C 0.86173 0.31561 0.71159 0.0
C1402 C 0.85977 0.34202 0.68372 0.0
C1403 C 0.8489 0.32492 0.69644 0.0
C1404 C 0.88342 0.35005 0.68617 0.0
C1405 C 0.8854 0.32374 0.7141 0.0
C1406 C 0.8962 0.34098 0.70145 0.0
C1407 C 0.77623 0.30464 0.74672 0.0
C1408 C 0.85106 0.29625 0.72377 0.0
C1409 C 0.82419 0.19213 0.69983 0.0
C1410 C 0.8021 0.19038 0.69077 0.0
C1411 C 0.79284 0.2599 0.78394 0.0
C1412 C 0.76041 0.2865 0.85069 0.0
C1413 C 0.76733 0.26829 0.85984 0.0
C1414 C 0.75523 0.25738 0.87651 0.0
C1415 C 0.73647 0.26487 0.88425 0.0
C1416 C 0.7417 0.29407 0.85842 0.0
C1417 C 0.72979 0.28329 0.87523 0.0
C1418 C 0.84288 0.28766 0.80615 0.0
C1419 C 0.7727 0.2987 0.83374 0.0
H1420 H 0.83061 0.31838 0.69389 0.0
H1421 H 0.89191 0.3628 0.67576 0.0
H1422 H 0.89552 0.3164 0.72553 0.0
H1423 H 0.91445 0.34692 0.70312 0.0
H1424 H 0.78198 0.26269 0.8541 0.0
H1425 H 0.7273 0.25676 0.89752 0.0
H1426 H 0.73647 0.30848 0.85159 0.0
H1427 H 0.71548 0.28929 0.88135 0.0
Tb1428 Tb 0.82235 0.81475 0.77911 0.0
C1429 C 0.73579 0.73411 0.73568 0.0
C1430 C 0.71556 0.72789 0.76974 0.0
C1431 C 0.69566 0.71228 0.72942 0.0
C1432 C 0.73587 0.73653 0.7602 0.0
C1433 C 0.71568 0.72148 0.72 0.0
C1434 C 0.69555 0.71569 0.75423 0.0
C1435 C 0.73672 0.72579 0.68657 0.0
N1436 N 0.75557 0.74284 0.72714 0.0
C1437 C 0.75615 0.73806 0.70265 0.0
C1438 C 0.71636 0.71752 0.69525 0.0
Tb1439 Tb 0.78752 0.75292 0.75489 0.0
N1440 N 0.75578 0.74717 0.77469 0.0
C1441 C 0.75581 0.75184 0.79913 0.0
C1442 C 0.71593 0.73156 0.79459 0.0
C1443 C 0.73604 0.74412 0.80934 0.0
H1444 H 0.77187 0.74245 0.69511 0.0
H1445 H 0.73638 0.74786 0.82866 0.0
H1446 H 0.67992 0.70862 0.76126 0.0
H1447 H 0.73767 0.72202 0.66744 0.0
H1448 H 0.77069 0.76229 0.81122 0.0
H1449 H 0.86804 0.82803 0.70218 0.0
H1450 H 0.70071 0.72522 0.80257 0.0
H1451 H 0.84145 0.82633 0.83743 0.0
H1452 H 0.83628 0.80911 0.72068 0.0
H1453 H 0.87725 0.84391 0.86323 0.0
H1454 H 0.68018 0.70238 0.71763 0.0
H1455 H 0.90452 0.85035 0.72677 0.0
H1456 H 0.92853 0.86049 0.76611 0.0
H1457 H 0.70139 0.70751 0.68271 0.0
H1458 H 0.93149 0.86253 0.80947 0.0
N1459 N 0.85266 0.82217 0.75694 0.0
C1460 C 0.85122 0.81953 0.73245 0.0
C1461 C 0.89032 0.84189 0.73527 0.0
C1462 C 0.89263 0.84221 0.75972 0.0
C1463 C 0.86972 0.82972 0.72144 0.0
C1464 C 0.87329 0.83213 0.77022 0.0
H1465 H 0.91264 0.85627 0.84566 0.0
N1466 N 0.85587 0.82465 0.80432 0.0
C1467 C 0.87705 0.84042 0.84392 0.0
C1468 C 0.87501 0.833 0.79456 0.0
C1469 C 0.85667 0.82981 0.82892 0.0
C1470 C 0.89691 0.84742 0.83396 0.0
C1471 C 0.89603 0.84437 0.80909 0.0
O1472 O 0.81522 0.83617 0.8102 0.0
O1473 O 0.79005 0.78814 0.7777 0.0
O1474 O 0.78769 0.77621 0.72812 0.0
O1475 O 0.80871 0.8176 0.74383 0.0
O1476 O 0.79023 0.82252 0.77188 0.0
O1477 O 0.83426 0.85338 0.78446 0.0
O1478 O 0.79474 0.73006 0.72479 0.0
O1479 O 0.81944 0.77969 0.75652 0.0
O1480 O 0.82338 0.79076 0.80562 0.0
O1481 O 0.79913 0.75061 0.79092 0.0
O1482 O 0.82006 0.74539 0.76141 0.0
O1483 O 0.77605 0.71439 0.75181 0.0
C1484 C 0.77744 0.80137 0.77344 0.0
C1485 C 0.81797 0.87832 0.81178 0.0
C1486 C 0.8012 0.90912 0.80098 0.0
C1487 C 0.80667 0.88669 0.79454 0.0
C1488 C 0.80646 0.92283 0.82482 0.0
C1489 C 0.82314 0.89191 0.8356 0.0
C1490 C 0.81729 0.9141 0.84211 0.0
C1491 C 0.79563 0.79964 0.72643 0.0
C1492 C 0.82646 0.85681 0.80515 0.0
C1493 C 0.9153 0.85376 0.79858 0.0
C1494 C 0.91359 0.85275 0.77395 0.0
C1495 C 0.83241 0.76683 0.76017 0.0
C1496 C 0.78761 0.68658 0.72151 0.0
C1497 C 0.79685 0.67437 0.73671 0.0
C1498 C 0.80072 0.65144 0.72737 0.0
C1499 C 0.79474 0.64056 0.70277 0.0
C1500 C 0.78182 0.67577 0.69695 0.0
C1501 C 0.78528 0.65275 0.68765 0.0
C1502 C 0.8135 0.76776 0.80797 0.0
C1503 C 0.78293 0.71013 0.73067 0.0
H1504 H 0.80296 0.87634 0.77605 0.0
H1505 H 0.80219 0.94024 0.83 0.0
H1506 H 0.83211 0.8856 0.84901 0.0
H1507 H 0.82144 0.9247 0.86045 0.0
H1508 H 0.80108 0.68274 0.75573 0.0
H1509 H 0.7979 0.62301 0.69517 0.0
H1510 H 0.77446 0.68509 0.68502 0.0
H1511 H 0.7808 0.64445 0.66869 0.0
Tb1512 Tb 0.53915 0.52758 0.50891 0.0
C1513 C 0.60873 0.61727 0.55938 0.0
C1514 C 0.61861 0.63936 0.52775 0.0
C1515 C 0.62486 0.66226 0.56903 0.0
C1516 C 0.61012 0.61681 0.53518 0.0
C1517 C 0.61687 0.64002 0.57655 0.0
C1518 C 0.62557 0.66195 0.5447 0.0
C1519 C 0.61205 0.61723 0.6079 0.0
N1520 N 0.60144 0.59544 0.56637 0.0
C1521 C 0.60442 0.59529 0.59044 0.0
C1522 C 0.61798 0.63977 0.60096 0.0
Tb1523 Tb 0.59315 0.55991 0.53625 0.0
N1524 N 0.6044 0.59447 0.51916 0.0
C1525 C 0.60686 0.59416 0.49534 0.0
C1526 C 0.6206 0.63871 0.50355 0.0
C1527 C 0.61472 0.61602 0.48734 0.0
H1528 H 0.60139 0.57811 0.59654 0.0
H1529 H 0.61611 0.6153 0.46847 0.0
H1530 H 0.63218 0.67927 0.53921 0.0
H1531 H 0.6139 0.61665 0.62672 0.0
H1532 H 0.60194 0.57763 0.48148 0.0
H1533 H 0.5236 0.4685 0.57295 0.0
H1534 H 0.6269 0.6556 0.49723 0.0
H1535 H 0.52662 0.5155 0.45016 0.0
H1536 H 0.53721 0.50756 0.56027 0.0
H1537 H 0.50928 0.47897 0.41725 0.0
H1538 H 0.63113 0.67976 0.58199 0.0
H1539 H 0.50747 0.4294 0.54268 0.0
H1540 H 0.49572 0.40804 0.49932 0.0
H1541 H 0.62437 0.65678 0.61455 0.0
H1542 H 0.49197 0.41083 0.4569 0.0
N1543 N 0.5297 0.49143 0.52273 0.0
C1544 C 0.5303 0.49096 0.54663 0.0
C1545 C 0.51365 0.44663 0.5369 0.0
C1546 C 0.51232 0.44722 0.51254 0.0
C1547 C 0.52265 0.46865 0.55402 0.0
C1548 C 0.52069 0.47016 0.50599 0.0
H1549 H 0.49707 0.43716 0.42611 0.0
N1550 N 0.52623 0.49433 0.47704 0.0
C1551 C 0.51211 0.47659 0.43542 0.0
C1552 C 0.51888 0.47167 0.48226 0.0
C1553 C 0.52214 0.49719 0.45407 0.0
C1554 C 0.50524 0.45303 0.44049 0.0
C1555 C 0.50826 0.45038 0.4642 0.0
O1556 O 0.51532 0.54123 0.49187 0.0
O1557 O 0.56169 0.5651 0.52184 0.0
O1558 O 0.57015 0.56047 0.56562 0.0
O1559 O 0.53392 0.54454 0.5458 0.0
O1560 O 0.54741 0.55458 0.4865 0.0
O1561 O 0.50663 0.52157 0.51988 0.0
O1562 O 0.61122 0.55048 0.56412 0.0
O1563 O 0.56728 0.52512 0.53204 0.0
O1564 O 0.56174 0.51933 0.48066 0.0
O1565 O 0.59747 0.54485 0.49804 0.0
O1566 O 0.59857 0.52309 0.52479 0.0
O1567 O 0.62845 0.57242 0.54002 0.0
C1568 C 0.5589 0.57326 0.50287 0.0
C1569 C 0.47678 0.52497 0.49361 0.0
C1570 C 0.44053 0.53358 0.4922 0.0
C1571 C 0.46198 0.5373 0.50405 0.0
C1572 C 0.43353 0.51692 0.46988 0.0
C1573 C 0.46977 0.50782 0.47157 0.0
C1574 C 0.44809 0.50377 0.45977 0.0
C1575 C 0.54779 0.55525 0.56595 0.0
C1576 C 0.49999 0.53354 0.505 0.0
C1577 C 0.50023 0.42738 0.4705 0.0
C1578 C 0.50232 0.4258 0.49464 0.0
C1579 C 0.57879 0.50969 0.52632 0.0
C1580 C 0.65169 0.56002 0.5677 0.0
C1581 C 0.66273 0.54564 0.55286 0.0
C1582 C 0.68415 0.54442 0.56135 0.0
C1583 C 0.69438 0.55738 0.58451 0.0
C1584 C 0.66188 0.57274 0.59092 0.0
C1585 C 0.68319 0.57143 0.59928 0.0
C1586 C 0.58359 0.52948 0.47905 0.0
C1587 C 0.63026 0.56367 0.55931 0.0
H1588 H 0.46757 0.55089 0.52092 0.0
H1589 H 0.41693 0.51409 0.46043 0.0
H1590 H 0.48101 0.49805 0.46329 0.0
H1591 H 0.44273 0.49083 0.44259 0.0
H1592 H 0.65488 0.53575 0.5349 0.0
H1593 H 0.71091 0.55637 0.5912 0.0
H1594 H 0.65346 0.58402 0.60246 0.0
H1595 H 0.69106 0.58136 0.61717 0.0
Tb1596 Tb 0.08607 0.54269 0.01253 0.0
C1597 C 0.00403 0.49473 0.0557 0.0
C1598 C 0.98472 0.45852 0.02469 0.0
C1599 C 0.98267 0.45723 0.06668 0.0
C1600 C 0.99861 0.48315 0.03166 0.0
C1601 C 0.99579 0.48206 0.07348 0.0
C1602 C 0.97719 0.44547 0.04234 0.0
C1603 C 0.01312 0.51979 0.1033 0.0
N1604 N 0.01702 0.51866 0.06164 0.0
C1605 C 0.02105 0.53159 0.08507 0.0
C1606 C 1.00066 0.49486 0.09752 0.0
Tb1607 Tb 0.0298 0.53541 0.03012 0.0
N1608 N 0.00613 0.49635 0.01509 0.0
C1609 C 0.99892 0.48647 0.99117 0.0
C1610 C 0.97833 0.44796 1.00022 0.0
C1611 C 0.9852 0.46214 0.98341 0.0
H1612 H 0.03077 0.55084 0.08963 0.0
H1613 H 0.97995 0.45436 0.96445 0.0
H1614 H 0.96672 0.42645 0.03733 0.0
H1615 H 0.01664 0.52993 0.1218 0.0
H1616 H 0.0037 0.49702 0.97778 0.0
H1617 H 0.13804 0.62298 0.07767 0.0
H1618 H 0.96759 0.42916 0.99416 0.0
H1619 H 0.08749 0.526 0.95396 0.0
H1620 H 0.1132 0.58086 0.06454 0.0
H1621 H 0.10215 0.54595 0.92144 0.0
H1622 H 0.97636 0.44709 0.08009 0.0
H1623 H 0.15031 0.64818 0.04793 0.0
H1624 H 0.151 0.65073 0.00462 0.0
H1625 H 0.99457 0.48578 0.11169 0.0
H1626 H 0.14145 0.62964 0.96193 0.0
N1627 N 0.11045 0.58156 0.02723 0.0
C1628 C 0.11811 0.59127 0.05108 0.0
C1629 C 0.13925 0.62952 0.04193 0.0
C1630 C 0.13245 0.61908 0.0175 0.0
C1631 C 0.13243 0.61534 0.05874 0.0
C1632 C 0.11811 0.59467 0.01068 0.0
H1633 H 0.12361 0.59033 0.93073 0.0
N1634 N 0.09996 0.55899 0.98126 0.0
C1635 C 0.10513 0.55661 0.93974 0.0
C1636 C 0.11278 0.58292 0.9868 0.0
C1637 C 0.09691 0.54535 0.9582 0.0
C1638 C 0.1172 0.58168 0.94505 0.0
C1639 C 0.12152 0.59506 0.96888 0.0
O1640 O 0.09932 0.51311 0.999 0.0
O1641 O 0.05456 0.51711 0.01649 0.0
O1642 O 0.04858 0.52138 0.05437 0.0
O1643 O 0.08497 0.54375 0.05076 0.0
O1644 O 0.06916 0.50754 0.98684 0.0
O1645 O 0.11611 0.54006 0.03079 0.0
O1646 O 0.01744 0.56641 0.04035 0.0
O1647 O 0.06112 0.56077 0.02577 0.0
O1648 O 0.06772 0.55676 0.98778 0.0
O1649 O 0.03129 0.53482 0.99213 0.0
O1650 O 0.0469 0.57076 0.05561 0.0
O1651 O 0.99696 0.53444 0.0152 0.0
C1652 C 0.05251 0.49972 0.99827 0.0
C1653 C 0.13831 0.5197 0.00621 0.0
C1654 C 0.16868 0.49952 1.00095 0.0
C1655 C 0.14946 0.50244 0.01182 0.0
C1656 C 0.17656 0.5142 0.98454 0.0
C1657 C 0.14671 0.53436 0.99007 0.0
C1658 C 0.16568 0.53152 0.97924 0.0
C1659 C 0.06992 0.53169 0.06262 0.0
C1660 C 0.11672 0.52033 0.01532 0.0
C1661 C 0.13479 0.61985 0.97544 0.0
C1662 C 0.14022 0.63186 0.99974 0.0
C1663 C 0.06348 0.57834 0.04386 0.0
C1664 C 0.97853 0.55995 0.04016 0.0
C1665 C 0.96357 0.57182 0.03085 0.0
C1666 C 0.94766 0.57974 0.04486 0.0
C1667 C 0.94738 0.57559 0.06838 0.0
C1668 C 0.97678 0.55492 0.06305 0.0
C1669 C 0.96145 0.56283 0.07711 0.0
C1670 C 0.04635 0.54621 0.9798 0.0
C1671 C 0.99794 0.5564 0.02759 0.0
H1672 H 0.14288 0.4909 0.0241 0.0
H1673 H 0.19144 0.5126 0.97609 0.0
H1674 H 0.13849 0.54773 0.98556 0.0
H1675 H 0.17195 0.54276 0.96665 0.0
H1676 H 0.96471 0.57512 0.01292 0.0
H1677 H 0.93654 0.58245 0.08041 0.0
H1678 H 0.98781 0.54575 0.07051 0.0
H1679 H 0.96086 0.55958 0.09511 0.0
C1680 C 0.03556 0.20701 0.99399 0.0
C1681 C 0.02031 0.20323 0.97328 0.0
C1682 C 0.04189 0.18698 1.0013 0.0
C1683 C 0.03258 0.16221 0.98785 0.0
C1684 C 0.0166 0.15833 0.96732 0.0
C1685 C 0.01086 0.17874 0.96024 0.0
C1686 C 0.05916 0.19251 0.02304 0.0
C1687 C 0.00529 0.13243 0.9529 0.0
C1688 C 0.06234 0.1102 0.98434 0.0
C1689 C 0.05351 0.09723 1.00161 0.0
C1690 C 0.05729 0.13238 0.9815 0.0
C1691 C 0.04057 0.14061 0.99396 0.0
C1692 C 0.03066 0.12693 0.01075 0.0
C1693 C 0.03778 0.10605 0.01493 0.0
C1694 C 0.06949 0.14665 0.96449 0.0
C1695 C 0.01187 0.13367 0.02363 0.0
H1696 H 0.04282 0.22579 0.00438 0.0
H1697 H 0.99876 0.17549 0.94449 0.0
H1698 H 0.05344 0.17979 0.03515 0.0
H1699 H 0.07517 0.18943 0.0172 0.0
H1700 H 0.06264 0.21196 0.03335 0.0
H1701 H 0.99299 0.1323 0.93771 0.0
H1702 H 0.0181 0.12349 0.94562 0.0
H1703 H 0.99632 0.12094 0.96472 0.0
H1704 H 0.073 0.10271 0.97248 0.0
H1705 H 0.02985 0.09559 0.02747 0.0
H1706 H 0.07559 0.16672 0.97307 0.0
H1707 H 0.05775 0.14467 0.9482 0.0
H1708 H 0.08417 0.14002 0.95891 0.0
H1709 H 0.01883 0.15104 0.03749 0.0
H1710 H 0.00321 0.11888 0.03257 0.0
H1711 H 0.99916 0.13705 0.01091 0.0
C1712 C 0.16305 0.82367 0.17461 0.0
C1713 C 0.16575 0.81989 0.15006 0.0
C1714 C 0.17972 0.82182 0.19212 0.0
C1715 C 0.19958 0.81554 0.18513 0.0
C1716 C 0.20221 0.81151 0.16036 0.0
C1717 C 0.18559 0.81397 0.14338 0.0
C1718 C 0.17619 0.82695 0.21822 0.0
C1719 C 0.22238 0.80376 0.15158 0.0
C1720 C 0.25463 0.82859 0.22804 0.0
C1721 C 0.25302 0.80556 0.23411 0.0
C1722 C 0.23705 0.83242 0.21313 0.0
C1723 C 0.21742 0.81259 0.20332 0.0
C1724 C 0.21559 0.78942 0.20986 0.0
C1725 C 0.23303 0.78643 0.22554 0.0
C1726 C 0.23965 0.8577 0.20759 0.0
C1727 C 0.19536 0.76751 0.19991 0.0
H1728 H 0.14793 0.82822 0.18019 0.0
H1729 H 0.18794 0.81057 0.12456 0.0
H1730 H 0.17839 0.8116 0.22659 0.0
H1731 H 0.18909 0.84407 0.22797 0.0
H1732 H 0.15917 0.82948 0.2207 0.0
H1733 H 0.22253 0.80221 0.13195 0.0
H1734 H 0.23828 0.81729 0.16103 0.0
H1735 H 0.22225 0.7855 0.15571 0.0
H1736 H 0.26979 0.84363 0.23486 0.0
H1737 H 0.23103 0.76884 0.23079 0.0
H1738 H 0.22458 0.86421 0.21171 0.0
H1739 H 0.24082 0.85656 0.18817 0.0
H1740 H 0.25494 0.87167 0.21795 0.0
H1741 H 0.18002 0.7714 0.20685 0.0
H1742 H 0.19737 0.7502 0.20483 0.0
H1743 H 0.19251 0.76432 0.18005 0.0
C1744 C 0.52185 0.85305 0.49777 0.0
C1745 C 0.53022 0.84117 0.47788 0.0
C1746 C 0.52567 0.87917 0.50368 0.0
C1747 C 0.5381 0.89413 0.48934 0.0
C1748 C 0.54751 0.88236 0.46998 0.0
C1749 C 0.54348 0.85623 0.4645 0.0
C1750 C 0.51539 0.89057 0.5246 0.0
C1751 C 0.56159 0.89741 0.45467 0.0
C1752 C 0.52844 0.95582 0.48033 0.0
C1753 C 0.54522 0.97368 0.49691 0.0
C1754 C 0.52474 0.93015 0.4794 0.0
C1755 C 0.53992 0.92166 0.49327 0.0
C1756 C 0.55755 0.93966 0.50946 0.0
C1757 C 0.55942 0.96527 0.51169 0.0
C1758 C 0.50485 0.91203 0.46301 0.0
C1759 C 0.575 0.93204 0.52384 0.0
H1760 H 0.51164 0.84184 0.5084 0.0
H1761 H 0.55017 0.84754 0.44917 0.0
H1762 H 0.52777 0.90724 0.53585 0.0
H1763 H 0.50093 0.89665 0.51772 0.0
H1764 H 0.50924 0.87726 0.53609 0.0
H1765 H 0.56804 0.88569 0.44051 0.0
H1766 H 0.55146 0.90756 0.4459 0.0
H1767 H 0.57616 0.91149 0.46615 0.0
H1768 H 0.51844 0.96184 0.46761 0.0
H1769 H 0.57303 0.9788 0.52398 0.0
H1770 H 0.49516 0.89887 0.473 0.0
H1771 H 0.51086 0.90096 0.448 0.0
H1772 H 0.49328 0.92152 0.45544 0.0
H1773 H 0.56741 0.9242 0.53861 0.0
H1774 H 0.58986 0.94799 0.53183 0.0
H1775 H 0.58093 0.91745 0.51243 0.0
C1776 C 0.53887 0.31016 0.66706 0.0
C1777 C 0.53718 0.31932 0.64614 0.0
C1778 C 0.52075 0.30611 0.68075 0.0
C1779 C 0.50033 0.31121 0.67334 0.0
C1780 C 0.49875 0.32114 0.65264 0.0
C1781 C 0.51719 0.32518 0.63939 0.0
C1782 C 0.52324 0.29568 0.7028 0.0
C1783 C 0.4775 0.32725 0.64429 0.0
C1784 C 0.44804 0.27335 0.69412 0.0
C1785 C 0.44493 0.29018 0.71403 0.0
C1786 C 0.46537 0.28036 0.6801 0.0
C1787 C 0.48028 0.30465 0.68646 0.0
C1788 C 0.47662 0.32201 0.70606 0.0
C1789 C 0.45892 0.31455 0.7196 0.0
C1790 C 0.46822 0.26148 0.65895 0.0
C1791 C 0.49209 0.34803 0.71356 0.0
H1792 H 0.55425 0.30571 0.67254 0.0
H1793 H 0.51574 0.33256 0.62343 0.0
H1794 H 0.51853 0.30729 0.71845 0.0
H1795 H 0.51159 0.27674 0.69983 0.0
H1796 H 0.54073 0.29464 0.70728 0.0
H1797 H 0.47804 0.33221 0.62646 0.0
H1798 H 0.4625 0.3113 0.64323 0.0
H1799 H 0.47518 0.34316 0.65747 0.0
H1800 H 0.43724 0.25446 0.68993 0.0
H1801 H 0.45664 0.32744 0.73521 0.0
H1802 H 0.48436 0.25682 0.66249 0.0
H1803 H 0.46904 0.26932 0.64262 0.0
H1804 H 0.45421 0.24409 0.65523 0.0
H1805 H 0.50858 0.3474 0.72207 0.0
H1806 H 0.48502 0.36027 0.7266 0.0
H1807 H 0.49534 0.3564 0.69775 0.0
C1808 C 0.02739 0.81081 0.60742 0.0
C1809 C 0.00442 0.80386 0.61033 0.0
C1810 C 0.0354 0.82725 0.5928 0.0
C1811 C 0.02012 0.83736 0.58123 0.0
C1812 C 0.99691 0.83043 0.58404 0.0
C1813 C 0.98924 0.81344 0.59839 0.0
C1814 C 0.06026 0.834 0.59002 0.0
C1815 C 0.98025 0.84105 0.57198 0.0
C1816 C 0.04641 0.89723 0.56259 0.0
C1817 C 0.04734 0.8886 0.5381 0.0
C1818 C 0.03704 0.88078 0.57679 0.0
C1819 C 0.02857 0.85518 0.56618 0.0
C1820 C 0.0293 0.84643 0.54146 0.0
C1821 C 0.03869 0.8633 0.5277 0.0
C1822 C 0.0366 0.89069 0.60316 0.0
C1823 C 0.02091 0.81917 0.52969 0.0
H1824 H 0.03915 0.80322 0.61646 0.0
H1825 H 0.9715 0.80806 0.60066 0.0
H1826 H 0.06274 0.83261 0.57083 0.0
H1827 H 0.06829 0.85351 0.59956 0.0
H1828 H 0.06919 0.8219 0.59745 0.0
H1829 H 0.963 0.83474 0.57701 0.0
H1830 H 0.98591 0.86164 0.57688 0.0
H1831 H 0.97946 0.83541 0.55221 0.0
H1832 H 0.05335 0.9168 0.57076 0.0
H1833 H 0.03919 0.85668 0.50873 0.0
H1834 H 0.04796 0.88351 0.61405 0.0
H1835 H 0.01934 0.88417 0.60803 0.0
H1836 H 0.04208 0.91131 0.60814 0.0
H1837 H 0.03276 0.80932 0.53602 0.0
H1838 H 0.01968 0.8159 0.5098 0.0
H1839 H 0.00411 0.81082 0.53473 0.0
C1840 C 0.54905 0.81641 0.84246 0.0
C1841 C 0.55645 0.82686 0.8667 0.0
C1842 C 0.53073 0.82204 0.8312 0.0
C1843 C 0.52042 0.83889 0.84457 0.0
C1844 C 0.52868 0.85022 0.86883 0.0
C1845 C 0.54651 0.84379 0.87967 0.0
C1846 C 0.52216 0.80973 0.80523 0.0
C1847 C 0.51838 0.86839 0.8838 0.0
C1848 C 0.48386 0.86586 0.80813 0.0
C1849 C 0.46268 0.84888 0.80676 0.0
C1850 C 0.50286 0.86333 0.82112 0.0
C1851 C 0.50037 0.84374 0.83335 0.0
C1852 C 0.47885 0.82778 0.8337 0.0
C1853 C 0.46028 0.83022 0.81998 0.0
C1854 C 0.52568 0.88102 0.82109 0.0
C1855 C 0.4756 0.80738 0.84757 0.0
H1856 H 0.55726 0.80364 0.83259 0.0
H1857 H 0.55291 0.85221 0.89838 0.0
H1858 H 0.5046 0.79791 0.80379 0.0
H1859 H 0.52179 0.82401 0.79461 0.0
H1860 H 0.53272 0.79798 0.79713 0.0
H1861 H 0.53095 0.88126 0.89858 0.0
H1862 H 0.51145 0.87956 0.87295 0.0
H1863 H 0.50436 0.85789 0.89201 0.0
H1864 H 0.48571 0.88075 0.79855 0.0
H1865 H 0.44411 0.81675 0.81888 0.0
H1866 H 0.53677 0.87067 0.81185 0.0
H1867 H 0.53392 0.88933 0.83976 0.0
H1868 H 0.52451 0.89621 0.81192 0.0
H1869 H 0.48229 0.79228 0.83828 0.0
H1870 H 0.45752 0.79938 0.8492 0.0
H1871 H 0.48505 0.81444 0.86587 0.0
C1872 C 0.50974 0.19302 0.10664 0.0
C1873 C 0.48696 0.19012 0.10979 0.0
C1874 C 0.517 0.17299 0.09581 0.0
C1875 C 0.50083 0.15002 0.08655 0.0
C1876 C 0.47765 0.14717 0.08839 0.0
C1877 C 0.47095 0.16733 0.10055 0.0
C1878 C 0.54203 0.17632 0.09477 0.0
C1879 C 0.46021 0.12274 0.07811 0.0
C1880 C 0.5222 0.1139 0.03685 0.0
C1881 C 0.5297 0.09723 0.04802 0.0
C1882 C 0.51118 0.12996 0.04879 0.0
C1883 C 0.50828 0.12987 0.07293 0.0
C1884 C 0.51553 0.11299 0.08459 0.0
C1885 C 0.52627 0.09674 0.07189 0.0
C1886 C 0.5038 0.14796 0.03589 0.0
C1887 C 0.51324 0.11296 0.11068 0.0
H1888 H 0.52229 0.21045 0.11445 0.0
H1889 H 0.45348 0.1651 0.10362 0.0
H1890 H 0.54741 0.16123 0.1011 0.0
H1891 H 0.54566 0.17537 0.07596 0.0
H1892 H 0.55247 0.19439 0.10589 0.0
H1893 H 0.44276 0.1239 0.08036 0.0
H1894 H 0.46131 0.11667 0.0587 0.0
H1895 H 0.46363 0.10821 0.08707 0.0
H1896 H 0.52544 0.11503 0.01896 0.0
H1897 H 0.53198 0.08385 0.08074 0.0
H1898 H 0.51524 0.16691 0.04282 0.0
H1899 H 0.48645 0.14864 0.03917 0.0
H1900 H 0.50418 0.14294 0.01621 0.0
H1901 H 0.5278 0.12724 0.12197 0.0
H1902 H 0.51327 0.09469 0.11475 0.0
H1903 H 0.49759 0.11754 0.11589 0.0
C1904 C 0.17363 0.34291 0.32369 0.0
C1905 C 0.16974 0.33355 0.34432 0.0
C1906 C 0.18995 0.33684 0.30973 0.0
C1907 C 0.20239 0.32113 0.31677 0.0
C1908 C 0.19847 0.31163 0.33755 0.0
C1909 C 0.18216 0.31796 0.35108 0.0
C1910 C 0.19419 0.34754 0.28777 0.0
C1911 C 0.21185 0.29527 0.34582 0.0
C1912 C 0.23623 0.29293 0.27251 0.0
C1913 C 0.25799 0.30748 0.28202 0.0
C1914 C 0.21773 0.29657 0.28411 0.0
C1915 C 0.22124 0.31673 0.30403 0.0
C1916 C 0.24307 0.33254 0.31254 0.0
C1917 C 0.26122 0.32726 0.30178 0.0
C1918 C 0.19465 0.27879 0.27543 0.0
C1919 C 0.24734 0.35524 0.33272 0.0
H1920 H 0.16399 0.35496 0.31853 0.0
H1921 H 0.17943 0.31095 0.36726 0.0
H1922 H 0.21236 0.35721 0.28864 0.0
H1923 H 0.18973 0.33232 0.27148 0.0
H1924 H 0.18416 0.36084 0.28577 0.0
H1925 H 0.20614 0.28882 0.36205 0.0
H1926 H 0.21016 0.27882 0.33122 0.0
H1927 H 0.23003 0.30546 0.34994 0.0
H1928 H 0.23372 0.27891 0.25617 0.0
H1929 H 0.27798 0.33919 0.30852 0.0
H1930 H 0.18238 0.28902 0.27113 0.0
H1931 H 0.18857 0.26935 0.28994 0.0
H1932 H 0.19474 0.26445 0.25931 0.0
H1933 H 0.23862 0.36845 0.32721 0.0
H1934 H 0.2656 0.36498 0.33762 0.0
H1935 H 0.24039 0.35008 0.34894 0.0
C1936 C 1.00148 0.05305 0.19621 0.0
C1937 C 0.9875 0.0683 0.20478 0.0
C1938 C 0.01034 0.05261 0.17379 0.0
C1939 C 0.00588 0.06809 0.15839 0.0
C1940 C 0.99198 0.08386 0.16683 0.0
C1941 C 0.98291 0.08365 0.18944 0.0
C1942 C 0.02464 0.03519 0.16655 0.0
C1943 C 0.98645 0.10099 0.15177 0.0
C1944 C 0.04683 0.07849 0.10899 0.0
C1945 C 0.03504 0.06125 0.08792 0.0
C1946 C 0.03751 0.08145 0.13137 0.0
C1947 C 0.01543 0.06703 0.13365 0.0
C1948 C 0.00329 0.05002 0.11231 0.0
C1949 C 0.01303 0.04737 0.09023 0.0
C1950 C 0.05162 0.1 0.15287 0.0
C1951 C 0.97998 0.03375 0.11289 0.0
H1952 H 0.00555 0.04085 0.20713 0.0
H1953 H 0.97233 0.09567 0.19509 0.0
H1954 H 0.0178 0.02326 0.14849 0.0
H1955 H 0.04206 0.04607 0.16546 0.0
H1956 H 0.02549 0.02305 0.17941 0.0
H1957 H 0.97849 0.11459 0.16177 0.0
H1958 H 1.00194 0.11123 0.14546 0.0
H1959 H 0.97464 0.08987 0.13563 0.0
H1960 H 0.06362 0.08971 0.10816 0.0
H1961 H 0.00328 0.03386 0.07467 0.0
H1962 H 0.05584 0.09015 0.16673 0.0
H1963 H 0.04189 0.11271 0.16096 0.0
H1964 H 0.06759 0.1112 0.14821 0.0
H1965 H 0.98126 0.01963 0.12342 0.0
H1966 H 0.97134 0.02402 0.09462 0.0
H1967 H 0.96941 0.04491 0.12192 0.0
C1968 C 0.29553 0.66821 0.45506 0.0
C1969 C 0.28051 0.66851 0.47225 0.0
C1970 C 0.29378 0.68002 0.43601 0.0
C1971 C 0.2769 0.69259 0.43464 0.0
C1972 C 0.26132 0.69232 0.45162 0.0
C1973 C 0.26324 0.6801 0.47015 0.0
C1974 C 0.31041 0.67979 0.41793 0.0
C1975 C 0.24301 0.70554 0.45068 0.0
C1976 C 0.28213 0.74863 0.40834 0.0
C1977 C 0.26554 0.73883 0.38852 0.0
C1978 C 0.28758 0.73315 0.42261 0.0
C1979 C 0.27612 0.70752 0.41655 0.0
C1980 C 0.26086 0.69733 0.39524 0.0
C1981 C 0.25559 0.71329 0.38146 0.0
C1982 C 0.30363 0.74462 0.44551 0.0
C1983 C 0.24858 0.67001 0.38824 0.0
H1984 H 0.30874 0.659 0.45663 0.0
H1985 H 0.2515 0.68018 0.48335 0.0
H1986 H 0.30176 0.67633 0.39942 0.0
H1987 H 0.32302 0.69821 0.42151 0.0
H1988 H 0.31953 0.66547 0.41884 0.0
H1989 H 0.23258 0.70382 0.46564 0.0
H1990 H 0.25062 0.72557 0.45153 0.0
H1991 H 0.2317 0.69781 0.43348 0.0
H1992 H 0.28955 0.76855 0.41364 0.0
H1993 H 0.24273 0.70605 0.36601 0.0
H1994 H 0.31556 0.7334 0.44788 0.0
H1995 H 0.29387 0.74498 0.46108 0.0
H1996 H 0.31346 0.76394 0.44582 0.0
H1997 H 0.26048 0.65862 0.39002 0.0
H1998 H 0.23992 0.6646 0.36954 0.0
H1999 H 0.2357 0.66556 0.40048 0.0
C2000 C 0.64646 0.06278 0.67095 0.0
C2001 C 0.65893 0.04746 0.67783 0.0
C2002 C 0.63194 0.05466 0.6496 0.0
C2003 C 0.62968 0.03053 0.63585 0.0
C2004 C 0.64319 0.01568 0.64201 0.0
C2005 C 0.65831 0.02477 0.66268 0.0
C2006 C 0.61876 0.07157 0.64208 0.0
C2007 C 0.6414 0.99014 0.62705 0.0
C2008 C 0.57651 0.01053 0.59379 0.0
C2009 C 0.58557 0.01733 0.57369 0.0
C2010 C 0.59116 0.01208 0.61408 0.0
C2011 C 0.61462 0.02174 0.61375 0.0
C2012 C 0.62359 0.02569 0.59255 0.0
C2013 C 0.60866 0.02154 0.57231 0.0
C2014 C 0.58166 0.00587 0.63638 0.0
C2015 C 0.64828 0.03824 0.59182 0.0
H2016 H 0.64745 0.08056 0.68253 0.0
H2017 H 0.66876 0.01337 0.66761 0.0
H2018 H 0.61987 0.07227 0.62294 0.0
H2019 H 0.60069 0.06426 0.64402 0.0
H2020 H 0.62493 0.0908 0.65314 0.0
H2021 H 0.65097 0.97977 0.63631 0.0
H2022 H 0.62346 0.97909 0.62271 0.0
H2023 H 0.64813 0.99175 0.6098 0.0
H2024 H 0.55848 0.00609 0.59439 0.0
H2025 H 0.61546 0.02527 0.55639 0.0
H2026 H 0.58241 0.02325 0.64943 0.0
H2027 H 0.59186 0.9957 0.64508 0.0
H2028 H 0.5638 0.99445 0.63232 0.0
H2029 H 0.65171 0.05839 0.59972 0.0
H2030 H 0.65269 0.03622 0.57317 0.0
H2031 H 0.65974 0.03102 0.60243 0.0
C2032 C 0.30709 0.35165 0.94676 0.0
C2033 C 0.31182 0.33593 0.96125 0.0
C2034 C 0.30613 0.34501 0.92165 0.0
C2035 C 0.30973 0.322 0.91082 0.0
C2036 C 0.3132 0.30547 0.92531 0.0
C2037 C 0.31417 0.31263 0.95032 0.0
C2038 C 0.30262 0.36326 0.90685 0.0
C2039 C 0.31785 0.28116 0.91466 0.0
C2040 C 0.29636 0.29794 0.84311 0.0
C2041 C 0.31632 0.31002 0.83511 0.0
C2042 C 0.29374 0.30197 0.86766 0.0
C2043 C 0.3123 0.31647 0.88478 0.0
C2044 C 0.33309 0.32692 0.87683 0.0
C2045 C 0.33427 0.32485 0.85217 0.0
C2046 C 0.27074 0.29226 0.87508 0.0
C2047 C 0.35399 0.34156 0.89397 0.0
H2048 H 0.30544 0.36976 0.95507 0.0
H2049 H 0.31779 0.30034 0.96142 0.0
H2050 H 0.3184 0.37053 0.89928 0.0
H2051 H 0.28919 0.35387 0.89155 0.0
H2052 H 0.29797 0.37924 0.9176 0.0
H2053 H 0.31726 0.26906 0.9278 0.0
H2054 H 0.30553 0.27088 0.89866 0.0
H2055 H 0.33489 0.285 0.90871 0.0
H2056 H 0.28215 0.28686 0.83005 0.0
H2057 H 0.34891 0.33588 0.8465 0.0
H2058 H 0.26483 0.3081 0.88417 0.0
H2059 H 0.27164 0.28041 0.88817 0.0
H2060 H 0.258 0.28138 0.85954 0.0
H2061 H 0.35738 0.36151 0.89349 0.0
H2062 H 0.3688 0.33546 0.88805 0.0
H2063 H 0.35278 0.33957 0.91275 0.0
C2064 C 0.01108 0.08295 0.35503 0.0
C2065 C 0.98795 0.07337 0.34567 0.0
C2066 C 0.02018 0.07969 0.37759 0.0
C2067 C 0.00639 0.06511 0.39151 0.0
C2068 C 0.98301 0.05525 0.3821 0.0
C2069 C 0.9742 0.05962 0.35986 0.0
C2070 C 0.04495 0.09157 0.38603 0.0
C2071 C 0.96725 0.039 0.39513 0.0
C2072 C 0.036 0.03842 0.44018 0.0
C2073 C 0.03209 0.05156 0.46239 0.0
C2074 C 0.02747 0.04202 0.41738 0.0
C2075 C 0.01603 0.06072 0.4159 0.0
C2076 C 0.0139 0.07547 0.43822 0.0
C2077 C 0.02104 0.07027 0.46052 0.0
C2078 C 0.03032 0.02525 0.39471 0.0
C2079 C 0.00453 0.09751 0.43868 0.0
H2080 H 0.02243 0.09278 0.34431 0.0
H2081 H 0.9566 0.05096 0.35287 0.0
H2082 H 0.04828 0.09757 0.40588 0.0
H2083 H 0.05456 0.07794 0.38023 0.0
H2084 H 0.05153 0.10791 0.37813 0.0
H2085 H 0.95013 0.03088 0.3849 0.0
H2086 H 0.97426 0.02369 0.39851 0.0
H2087 H 0.96567 0.04997 0.41284 0.0
H2088 H 0.04529 0.02485 0.44036 0.0
H2089 H 0.01798 0.08144 0.47684 0.0
H2090 H 0.04125 0.0363 0.38392 0.0
H2091 H 0.01367 0.01639 0.38366 0.0
H2092 H 0.03796 0.0105 0.39843 0.0
H2093 H 0.01516 0.11068 0.42934 0.0
H2094 H 0.00406 0.10752 0.45724 0.0
H2095 H 0.98722 0.09155 0.4289 0.0
C2096 C 0.26754 0.68876 0.60559 0.0
C2097 C 0.28087 0.6953 0.58792 0.0
C2098 C 0.27374 0.70185 0.62932 0.0
C2099 C 0.29311 0.72242 0.63481 0.0
C2100 C 0.30722 0.72825 0.61715 0.0
C2101 C 0.30101 0.71424 0.59369 0.0
C2102 C 0.25917 0.6942 0.64817 0.0
C2103 C 0.32836 0.74969 0.62295 0.0
C2104 C 0.2896 0.77345 0.68557 0.0
C2105 C 0.30313 0.76927 0.70392 0.0
C2106 C 0.28654 0.75841 0.66259 0.0
C2107 C 0.29745 0.73918 0.65842 0.0
C2108 C 0.31176 0.73559 0.67691 0.0
C2109 C 0.31438 0.75079 0.69957 0.0
C2110 C 0.27087 0.76228 0.64311 0.0
C2111 C 0.32298 0.71472 0.67355 0.0
H2112 H 0.2523 0.67343 0.6008 0.0
H2113 H 0.31139 0.71859 0.57975 0.0
H2114 H 0.26967 0.69561 0.66521 0.0
H2115 H 0.24817 0.70676 0.65198 0.0
H2116 H 0.2482 0.67486 0.64215 0.0
H2117 H 0.33755 0.75158 0.60712 0.0
H2118 H 0.32395 0.76726 0.62966 0.0
H2119 H 0.33986 0.74711 0.63746 0.0
H2120 H 0.28067 0.78757 0.68946 0.0
H2121 H 0.32452 0.7475 0.71415 0.0
H2122 H 0.25563 0.74617 0.63833 0.0
H2123 H 0.27925 0.76346 0.62668 0.0
H2124 H 0.26536 0.77938 0.64876 0.0
H2125 H 0.31092 0.69764 0.67624 0.0
H2126 H 0.33821 0.71901 0.68689 0.0
H2127 H 0.32794 0.71063 0.65528 0.0
C2128 C 0.68398 0.06457 0.82247 0.0
C2129 C 0.67777 0.04527 0.80202 0.0
C2130 C 0.66806 0.06913 0.83747 0.0
C2131 C 0.64602 0.05281 0.83261 0.0
C2132 C 0.64063 0.03127 0.81398 0.0
C2133 C 0.6567 0.02772 0.79868 0.0
C2134 C 0.67458 0.09228 0.85737 0.0
C2135 C 0.61736 0.01324 0.80899 0.0
C2136 C 0.61302 0.06174 0.88415 0.0
C2137 C 0.59908 0.07561 0.87648 0.0
C2138 C 0.62713 0.0526 0.8692 0.0
C2139 C 0.62848 0.05882 0.84665 0.0
C2140 C 0.61468 0.07284 0.83863 0.0
C2141 C 0.59979 0.08075 0.85359 0.0
C2142 C 0.64128 0.03717 0.87796 0.0
C2143 C 0.6167 0.08101 0.81511 0.0
H2144 H 0.70054 0.07779 0.82514 0.0
H2145 H 0.65196 0.01268 0.78288 0.0
H2146 H 0.66073 0.10141 0.85915 0.0
H2147 H 0.67834 0.0872 0.87466 0.0
H2148 H 0.68989 0.10604 0.85439 0.0
H2149 H 0.61664 0.9962 0.79539 0.0
H2150 H 0.61202 0.00786 0.82577 0.0
H2151 H 0.605 0.02229 0.80227 0.0
H2152 H 0.61358 0.05857 0.90221 0.0
H2153 H 0.58917 0.09147 0.8476 0.0
H2154 H 0.65915 0.04833 0.8825 0.0
H2155 H 0.64068 0.02071 0.8637 0.0
H2156 H 0.63555 0.0307 0.89418 0.0
H2157 H 0.63187 0.09705 0.81739 0.0
H2158 H 0.60173 0.0869 0.80927 0.0
H2159 H 0.61882 0.06607 0.80066 0.0
C2160 C 0.29516 0.31762 0.08976 0.0
C2161 C 0.30815 0.34197 0.0913 0.0
C2162 C 0.28972 0.30901 0.11057 0.0
C2163 C 0.29828 0.32491 0.13335 0.0
C2164 C 0.31105 0.34974 0.13489 0.0
C2165 C 0.31552 0.3581 0.11375 0.0
C2166 C 0.27538 0.28273 0.10822 0.0
C2167 C 0.32154 0.36687 0.15878 0.0
C2168 C 0.27931 0.31305 0.19274 0.0
C2169 C 0.29538 0.30185 0.20031 0.0
C2170 C 0.27898 0.31908 0.17006 0.0
C2171 C 0.29592 0.31503 0.15551 0.0
C2172 C 0.31176 0.303 0.16302 0.0
C2173 C 0.3106 0.29559 0.18491 0.0
C2174 C 0.26105 0.33052 0.16203 0.0
C2175 C 0.33062 0.29901 0.14861 0.0
H2176 H 0.28961 0.30521 0.07227 0.0
H2177 H 0.32594 0.37679 0.11478 0.0
H2178 H 0.28549 0.27159 0.1154 0.0
H2179 H 0.26109 0.28269 0.11897 0.0
H2180 H 0.26854 0.27348 0.08927 0.0
H2181 H 0.32903 0.38624 0.15703 0.0
H2182 H 0.30888 0.367 0.17157 0.0
H2183 H 0.33506 0.36004 0.16669 0.0
H2184 H 0.26722 0.31727 0.2046 0.0
H2185 H 0.32262 0.2863 0.19074 0.0
H2186 H 0.25366 0.32142 0.14321 0.0
H2187 H 0.26869 0.35046 0.16259 0.0
H2188 H 0.24728 0.32894 0.17363 0.0
H2189 H 0.3236 0.28481 0.13185 0.0
H2190 H 0.34329 0.29271 0.1587 0.0
H2191 H 0.33942 0.31644 0.14344 0.0
C2192 C 0.26056 0.96043 0.02426 0.0
C2193 C 0.28049 0.97358 0.01725 0.0
C2194 C 0.24426 0.97237 0.03138 0.0
C2195 C 0.24843 0.99794 0.03164 0.0
C2196 C 0.26851 0.01121 0.02441 0.0
C2197 C 0.28429 0.99872 0.01704 0.0
C2198 C 0.22257 0.95756 0.03817 0.0
C2199 C 0.27352 0.03867 0.0249 0.0
C2200 C 0.20259 0.02946 0.02794 0.0
C2201 C 0.20403 0.04184 0.05194 0.0
C2202 C 0.21606 0.01373 0.02133 0.0
C2203 C 0.23178 0.0111 0.03904 0.0
C2204 C 0.2332 0.02322 0.06332 0.0
C2205 C 0.21912 0.03847 0.06956 0.0
C2206 C 0.21404 1.00064 0.99531 0.0
C2207 C 0.24984 0.02038 0.0825 0.0
H2208 H 0.25775 0.94085 0.02416 0.0
H2209 H 0.29994 0.00885 0.01188 0.0
H2210 H 0.21757 0.96803 0.05435 0.0
H2211 H 0.20882 0.95386 0.02324 0.0
H2212 H 0.22396 0.93945 0.04159 0.0
H2213 H 0.28987 0.04601 0.01833 0.0
H2214 H 0.25993 0.04237 0.01365 0.0
H2215 H 0.27407 0.04911 0.04352 0.0
H2216 H 0.19103 0.03225 0.01425 0.0
H2217 H 0.2198 0.04764 0.08814 0.0
H2218 H 0.21237 0.98057 0.99387 0.0
H2219 H 0.22957 0.0084 0.98757 0.0
H2220 H 0.19932 1.00265 0.98433 0.0
H2221 H 0.24692 1.00047 0.08296 0.0
H2222 H 0.24856 0.03085 0.10061 0.0
H2223 H 0.26732 0.02706 0.07824 0.0
C2224 C 0.73209 0.63515 0.00946 0.0
C2225 C 0.73399 0.65284 0.99524 0.0
C2226 C 0.71115 0.61785 0.00944 0.0
C2227 C 0.69184 0.61783 0.99437 0.0
C2228 C 0.6942 0.63459 0.97878 0.0
C2229 C 0.7151 0.652 0.97962 0.0
C2230 C 0.70939 0.60065 0.02663 0.0
C2231 C 0.67428 0.63539 0.96236 0.0
C2232 C 0.63697 0.56512 0.98547 0.0
C2233 C 0.62403 0.57575 1.0014 0.0
C2234 C 0.65913 0.57839 0.98304 0.0
C2235 C 0.66871 0.6028 0.99703 0.0
C2236 C 0.65565 0.61365 0.01294 0.0
C2237 C 0.63355 0.60025 0.01461 0.0
C2238 C 0.67221 0.56643 0.96534 0.0
C2239 C 0.66508 0.63946 0.02849 0.0
H2240 H 0.74656 0.6359 0.02175 0.0
H2241 H 0.71646 0.66563 0.96856 0.0
H2242 H 0.69752 0.60459 0.03957 0.0
H2243 H 0.70246 0.58111 0.01667 0.0
H2244 H 0.72597 0.60262 0.03686 0.0
H2245 H 0.67963 0.64606 0.94845 0.0
H2246 H 0.66414 0.61636 0.95331 0.0
H2247 H 0.66316 0.64441 0.97309 0.0
H2248 H 0.62981 0.54652 0.97476 0.0
H2249 H 0.62382 0.60918 0.02659 0.0
H2250 H 0.68827 0.56562 0.97473 0.0
H2251 H 0.67668 0.57784 0.95182 0.0
H2252 H 0.66254 0.54732 0.95588 0.0
H2253 H 0.68017 0.64005 0.04057 0.0
H2254 H 0.65261 0.64541 0.03967 0.0
H2255 H 0.67055 0.65312 0.0172 0.0
C2256 C 0.71718 0.42344 0.25769 0.0
C2257 C 0.72664 0.4475 0.27257 0.0
C2258 C 0.72809 0.40349 0.25658 0.0
C2259 C 0.74942 0.40676 0.27054 0.0
C2260 C 0.75917 0.43113 0.28485 0.0
C2261 C 0.74799 0.45047 0.28571 0.0
C2262 C 0.71631 0.37849 0.24074 0.0
C2263 C 0.78176 0.4369 0.2998 0.0
C2264 C 0.7684 0.35311 0.29365 0.0
C2265 C 0.78477 0.34695 0.27912 0.0
C2266 C 0.7565 0.37106 0.29026 0.0
C2267 C 0.76082 0.385 0.27209 0.0
C2268 C 0.7773 0.37895 0.25712 0.0
C2269 C 0.78847 0.36003 0.26038 0.0
C2270 C 0.73906 0.37519 0.30659 0.0
C2271 C 0.78317 0.3924 0.23726 0.0
H2272 H 0.70087 0.41983 0.24728 0.0
H2273 H 0.75628 0.46842 0.29726 0.0
H2274 H 0.72849 0.37063 0.23066 0.0
H2275 H 0.70899 0.36549 0.25208 0.0
H2276 H 0.70249 0.37951 0.22779 0.0
H2277 H 0.78753 0.45647 0.31004 0.0
H2278 H 0.78081 0.42449 0.31265 0.0
H2279 H 0.79463 0.43333 0.288 0.0
H2280 H 0.76454 0.34356 0.30811 0.0
H2281 H 0.80024 0.35569 0.24822 0.0
H2282 H 0.72263 0.37241 0.29572 0.0
H2283 H 0.74421 0.39462 0.31716 0.0
H2284 H 0.7366 0.36246 0.31921 0.0
H2285 H 0.76888 0.38582 0.22257 0.0
H2286 H 0.79856 0.38913 0.22982 0.0
H2287 H 0.78587 0.41267 0.24375 0.0
C2288 C 0.8934 0.48905 0.50559 0.0
C2289 C 0.88992 0.48445 0.5283 0.0
C2290 C 0.91522 0.49757 0.50024 0.0
C2291 C 0.93332 0.50282 0.5186 0.0
C2292 C 0.92943 0.50263 0.54264 0.0
C2293 C 0.90748 0.49255 0.54718 0.0
C2294 C 0.91901 0.49799 0.47451 0.0
C2295 C 0.94862 0.51069 0.56289 0.0
C2296 C 0.98763 0.48761 0.50586 0.0
C2297 C 1.00146 0.51123 0.50628 0.0
C2298 C 0.96481 0.48435 0.50869 0.0
C2299 C 0.95613 0.50534 0.51225 0.0
C2300 C 0.96962 0.5288 0.51111 0.0
C2301 C 0.99214 0.53139 0.50832 0.0
C2302 C 0.9503 0.4588 0.50907 0.0
C2303 C 0.96112 0.5517 0.51452 0.0
H2304 H 0.87945 0.48247 0.49118 0.0
H2305 H 0.90442 0.48884 0.56472 0.0
H2306 H 0.93078 0.51592 0.47348 0.0
H2307 H 0.92689 0.48307 0.4674 0.0
H2308 H 0.90302 0.49516 0.4628 0.0
H2309 H 0.94248 0.51139 0.58073 0.0
H2310 H 0.9593 0.49762 0.56064 0.0
H2311 H 0.9595 0.52935 0.56246 0.0
H2312 H 0.99484 0.47201 0.50436 0.0
H2313 H 0.00248 0.54961 0.50876 0.0
H2314 H 0.93433 0.45432 0.49684 0.0
H2315 H 0.94577 0.45837 0.52744 0.0
H2316 H 0.95902 0.44418 0.50366 0.0
H2317 H 0.96796 0.56332 0.50182 0.0
H2318 H 0.96729 0.56286 0.53303 0.0
H2319 H 0.94247 0.54757 0.51187 0.0
C2320 C 0.38795 0.0971 0.2788 0.0
C2321 C 0.38504 0.08848 0.29997 0.0
C2322 C 0.37148 0.10569 0.26826 0.0
C2323 C 0.35205 0.10634 0.27971 0.0
C2324 C 0.34921 0.09832 0.30143 0.0
C2325 C 0.3658 0.08917 0.3113 0.0
C2326 C 0.37517 0.11436 0.2451 0.0
C2327 C 0.32873 0.09938 0.31409 0.0
C2328 C 0.32754 0.15358 0.26032 0.0
C2329 C 0.31047 0.13865 0.24204 0.0
C2330 C 0.33986 0.143 0.2744 0.0
C2331 C 0.33556 0.11697 0.26937 0.0
C2332 C 0.31798 0.10167 0.25157 0.0
C2333 C 0.30541 0.11278 0.23815 0.0
C2334 C 0.35857 0.15973 0.29343 0.0
C2335 C 0.31372 0.0738 0.24535 0.0
H2336 H 0.40287 0.09659 0.27 0.0
H2337 H 0.36366 0.08244 0.32769 0.0
H2338 H 0.35959 0.10728 0.23207 0.0
H2339 H 0.37973 0.13494 0.24888 0.0
H2340 H 0.389 0.10827 0.2365 0.0
H2341 H 0.32985 0.09382 0.3316 0.0
H2342 H 0.32667 0.11846 0.3172 0.0
H2343 H 0.31335 0.08686 0.3026 0.0
H2344 H 0.33198 0.17364 0.26304 0.0
H2345 H 0.29211 0.1013 0.22417 0.0
H2346 H 0.37518 0.15995 0.2871 0.0
H2347 H 0.35825 0.1527 0.31022 0.0
H2348 H 0.3573 0.17914 0.29764 0.0
H2349 H 0.32724 0.06909 0.23514 0.0
H2350 H 0.2972 0.06444 0.23417 0.0
H2351 H 0.31423 0.06628 0.2618 0.0
C2352 C 0.35251 0.14186 0.51451 0.0
C2353 C 0.35817 0.16092 0.50192 0.0
C2354 C 0.36753 0.12781 0.51859 0.0
C2355 C 0.38888 0.13307 0.51011 0.0
C2356 C 0.39445 0.15175 0.49675 0.0
C2357 C 0.379 0.16535 0.49271 0.0
C2358 C 0.3608 0.10784 0.53267 0.0
C2359 C 0.41693 0.15772 0.48718 0.0
C2360 C 0.43436 0.11618 0.54635 0.0
C2361 C 0.43506 0.09364 0.53198 0.0
C2362 C 0.42014 0.12973 0.53888 0.0
C2363 C 0.40589 0.12018 0.51674 0.0
C2364 C 0.40714 0.09777 0.50178 0.0
C2365 C 0.42187 0.08483 0.50955 0.0
C2366 C 0.41989 0.15392 0.55502 0.0
C2367 C 0.39208 0.08671 0.47823 0.0
H2368 H 0.33643 0.13813 0.52155 0.0
H2369 H 0.38351 0.17987 0.48276 0.0
H2370 H 0.36397 0.09035 0.52329 0.0
H2371 H 0.37122 0.11373 0.55048 0.0
H2372 H 0.34272 0.10401 0.53549 0.0
H2373 H 0.41911 0.17349 0.47801 0.0
H2374 H 0.43092 0.16236 0.50204 0.0
H2375 H 0.41849 0.14121 0.47426 0.0
H2376 H 0.4447 0.12298 0.56366 0.0
H2377 H 0.42238 0.06728 0.49855 0.0
H2378 H 0.40321 0.15203 0.56167 0.0
H2379 H 0.4224 0.16888 0.5448 0.0
H2380 H 0.43319 0.1597 0.57072 0.0
H2381 H 0.37463 0.07863 0.48185 0.0
H2382 H 0.39777 0.0718 0.46697 0.0
H2383 H 0.39145 0.10114 0.4679 0.0
C2384 C 0.7362 0.59308 0.26407 0.0
C2385 C 0.71844 0.58861 0.27822 0.0
C2386 C 0.74948 0.61776 0.26445 0.0
C2387 C 0.74548 0.63882 0.27969 0.0
C2388 C 0.72807 0.63416 0.29453 0.0
C2389 C 0.71487 0.60957 0.29341 0.0
C2390 C 0.7673 0.62137 0.24779 0.0
C2391 C 0.72257 0.65529 0.31107 0.0
C2392 C 0.79037 0.7035 0.29426 0.0
C2393 C 0.78118 0.71724 0.28021 0.0
C2394 C 0.77913 0.67832 0.29433 0.0
C2395 C 0.75837 0.66566 0.27933 0.0
C2396 C 0.7492 0.6794 0.26494 0.0
C2397 C 0.76027 0.70475 0.26598 0.0
C2398 C 0.78925 0.66539 0.31103 0.0
C2399 C 0.72766 0.6672 0.248 0.0
H2400 H 0.73899 0.57746 0.25176 0.0
H2401 H 0.70112 0.60679 0.30426 0.0
H2402 H 0.7643 0.63424 0.23642 0.0
H2403 H 0.78416 0.63002 0.25841 0.0
H2404 H 0.7676 0.6036 0.23596 0.0
H2405 H 0.71186 0.64872 0.3246 0.0
H2406 H 0.73821 0.66925 0.3206 0.0
H2407 H 0.71326 0.66475 0.30038 0.0
H2408 H 0.80617 0.71261 0.30573 0.0
H2409 H 0.75239 0.71469 0.25528 0.0
H2410 H 0.7928 0.64859 0.30058 0.0
H2411 H 0.77698 0.65917 0.32336 0.0
H2412 H 0.80515 0.67759 0.32189 0.0
H2413 H 0.73011 0.65151 0.2346 0.0
H2414 H 0.72235 0.6803 0.23828 0.0
H2415 H 0.71377 0.65938 0.25793 0.0
C2416 C 0.88799 0.47016 0.80841 0.0
C2417 C 0.88648 0.48128 0.78884 0.0
C2418 C 0.87239 0.44809 0.80917 0.0
C2419 C 0.85562 0.43661 0.78939 0.0
C2420 C 0.85247 0.44924 0.77091 0.0
C2421 C 0.86813 0.47181 0.77091 0.0
C2422 C 0.87537 0.4357 0.82976 0.0
C2423 C 0.83408 0.43772 0.74998 0.0
C2424 C 0.85304 0.36938 0.76983 0.0
C2425 C 0.83134 0.35804 0.774 0.0
C2426 C 0.86079 0.39507 0.77414 0.0
C2427 C 0.84687 0.40955 0.78443 0.0
C2428 C 0.82502 0.39807 0.78913 0.0
C2429 C 0.81696 0.37222 0.7823 0.0
C2430 C 0.88372 0.40655 0.76733 0.0
C2431 C 0.81053 0.41283 0.80183 0.0
H2432 H 0.90215 0.47793 0.82245 0.0
H2433 H 0.86692 0.4811 0.75623 0.0
H2434 H 0.85874 0.42821 0.83557 0.0
H2435 H 0.88264 0.41995 0.82388 0.0
H2436 H 0.88678 0.44873 0.84535 0.0
H2437 H 0.83477 0.44945 0.7365 0.0
H2438 H 0.83542 0.41918 0.74097 0.0
H2439 H 0.81732 0.43502 0.75649 0.0
H2440 H 0.86363 0.35805 0.7623 0.0
H2441 H 0.79955 0.36318 0.78328 0.0
H2442 H 0.89585 0.41554 0.78378 0.0
H2443 H 0.8828 0.421 0.7571 0.0
H2444 H 0.89055 0.39254 0.7562 0.0
H2445 H 0.81793 0.4201 0.82089 0.0
H2446 H 0.79293 0.40137 0.80121 0.0
H2447 H 0.81021 0.42912 0.79412 0.0
C2448 C 0.1088 0.88696 0.05319 0.0
C2449 C 0.09709 0.87494 0.06981 0.0
C2450 C 0.10336 0.9074 0.04579 0.0
C2451 C 0.08557 0.91655 0.05499 0.0
C2452 C 0.07324 0.90407 0.07123 0.0
C2453 C 0.07911 0.88368 0.07842 0.0
C2454 C 0.11741 0.91987 0.0288 0.0
C2455 C 0.05384 0.91245 0.08125 0.0
C2456 C 0.08845 0.98592 0.06254 0.0
C2457 C 0.07445 0.98716 0.04243 0.0
C2458 C 0.09266 0.96358 0.0661 0.0
C2459 C 0.08169 0.94074 0.05 0.0
C2460 C 0.06742 0.94156 0.02956 0.0
C2461 C 0.06476 0.96472 0.02552 0.0
C2462 C 0.10908 0.96455 0.08736 0.0
C2463 C 0.05478 0.91794 0.01196 0.0
H2464 H 0.12267 0.88065 0.04615 0.0
H2465 H 0.06964 0.8747 0.09102 0.0
H2466 H 0.10645 0.92301 0.01418 0.0
H2467 H 0.12818 0.93832 0.03868 0.0
H2468 H 0.12849 0.9088 0.02068 0.0
H2469 H 0.04575 0.90097 0.09354 0.0
H2470 H 0.05979 0.9321 0.09118 0.0
H2471 H 0.04093 0.91146 0.06629 0.0
H2472 H 0.09666 1.00279 0.07577 0.0
H2473 H 0.05484 0.96506 0.00934 0.0
H2474 H 0.12242 0.95582 0.08124 0.0
H2475 H 0.10018 0.95388 0.09979 0.0
H2476 H 0.11732 0.98384 0.09748 0.0
H2477 H 0.06674 0.91069 1.00101 0.0
H2478 H 0.04148 0.92094 0.99967 0.0
H2479 H 0.04681 0.90351 0.0216 0.0
C2480 C 0.95608 0.26442 0.87208 0.0
C2481 C 0.95209 0.26011 0.89501 0.0
C2482 C 0.93917 0.2686 0.85642 0.0
C2483 C 0.91763 0.2688 0.86374 0.0
C2484 C 0.91343 0.26399 0.88665 0.0
C2485 C 0.93048 0.25973 0.90179 0.0
C2486 C 0.9447 0.27362 0.8323 0.0
C2487 C 0.89071 0.26313 0.89522 0.0
C2488 C 0.87715 0.30205 0.83819 0.0
C2489 C 0.86243 0.28302 0.82043 0.0
C2490 C 0.89596 0.29811 0.85107 0.0
C2491 C 0.89937 0.27401 0.84778 0.0
C2492 C 0.88438 0.25469 0.8301 0.0
C2493 C 0.86714 0.25978 0.8159 0.0
C2494 C 0.91231 0.31987 0.86819 0.0
C2495 C 0.88621 0.22837 0.82617 0.0
H2496 H 0.97257 0.26496 0.86647 0.0
H2497 H 0.92687 0.25648 0.91933 0.0
H2498 H 0.93132 0.26175 0.81785 0.0
H2499 H 0.94544 0.29322 0.83212 0.0
H2500 H 0.96112 0.27032 0.82813 0.0
H2501 H 0.89025 0.26008 0.91379 0.0
H2502 H 0.8863 0.28071 0.89471 0.0
H2503 H 0.8775 0.24792 0.88302 0.0
H2504 H 0.87442 0.32032 0.8416 0.0
H2505 H 0.85717 0.24512 0.80156 0.0
H2506 H 0.92987 0.32071 0.86444 0.0
H2507 H 0.91126 0.31752 0.8869 0.0
H2508 H 0.90891 0.33781 0.86685 0.0
H2509 H 0.90026 0.22658 0.81552 0.0
H2510 H 0.87047 0.21481 0.81628 0.0
H2511 H 0.88982 0.22329 0.84352 0.0
C2512 C 0.59076 0.22756 0.58569 0.0
C2513 C 0.58912 0.2417 0.56844 0.0
C2514 C 0.58593 0.20142 0.57931 0.0
C2515 C 0.57823 0.18862 0.55512 0.0
C2516 C 0.57559 0.2028 0.53773 0.0
C2517 C 0.58162 0.22912 0.54446 0.0
C2518 C 0.58983 0.18756 0.59847 0.0
C2519 C 0.56589 0.19016 0.51211 0.0
C2520 C 0.5866 0.12344 0.53524 0.0
C2521 C 0.568 0.10796 0.54256 0.0
C2522 C 0.59016 0.14948 0.53895 0.0
C2523 C 0.57358 0.1606 0.54828 0.0
C2524 C 0.55333 0.14478 0.55283 0.0
C2525 C 0.55123 0.11919 0.5509 0.0
C2526 C 0.61245 0.16513 0.53429 0.0
C2527 C 0.53391 0.1548 0.56038 0.0
H2528 H 0.59676 0.23711 0.6042 0.0
H2529 H 0.58013 0.23985 0.53103 0.0
H2530 H 0.57374 0.17453 0.60053 0.0
H2531 H 0.60168 0.17635 0.59308 0.0
H2532 H 0.59686 0.20023 0.61618 0.0
H2533 H 0.56692 0.20359 0.50025 0.0
H2534 H 0.5747 0.17622 0.50473 0.0
H2535 H 0.54789 0.18004 0.51165 0.0
H2536 H 0.59894 0.11573 0.52734 0.0
H2537 H 0.53624 0.10814 0.55623 0.0
H2538 H 0.62332 0.1737 0.5517 0.0
H2539 H 0.61026 0.18041 0.52581 0.0
H2540 H 0.62143 0.15395 0.52259 0.0
H2541 H 0.53641 0.16168 0.58013 0.0
H2542 H 0.51759 0.14011 0.55554 0.0
H2543 H 0.53273 0.17044 0.5519 0.0
C2544 C 0.58519 0.79177 0.3699 0.0
C2545 C 0.58004 0.78123 0.3897 0.0
C2546 C 0.60544 0.79181 0.35999 0.0
C2547 C 0.62147 0.78168 0.37047 0.0
C2548 C 0.6164 0.77097 0.39055 0.0
C2549 C 0.59566 0.77062 0.39974 0.0
C2550 C 0.60969 0.80283 0.33822 0.0
C2551 C 0.63314 0.76069 0.40291 0.0
C2552 C 0.66349 0.76818 0.32748 0.0
C2553 C 0.68021 0.79092 0.33277 0.0
C2554 C 0.64516 0.76397 0.341 0.0
C2555 C 0.64349 0.78297 0.36028 0.0
C2556 C 0.66156 0.805 0.36707 0.0
C2557 C 0.67951 0.80885 0.35304 0.0
C2558 C 0.62665 0.73997 0.33339 0.0
C2559 C 0.6611 0.82541 0.38799 0.0
H2560 H 0.57322 0.79989 0.36196 0.0
H2561 H 0.59199 0.76274 0.41528 0.0
H2562 H 0.62516 0.81866 0.34245 0.0
H2563 H 0.61256 0.78874 0.32335 0.0
H2564 H 0.59539 0.80948 0.33189 0.0
H2565 H 0.62526 0.74914 0.41525 0.0
H2566 H 0.64079 0.74939 0.38966 0.0
H2567 H 0.64704 0.77633 0.41357 0.0
H2568 H 0.66389 0.75435 0.31172 0.0
H2569 H 0.69236 0.82651 0.35714 0.0
H2570 H 0.61144 0.74361 0.32497 0.0
H2571 H 0.62186 0.73216 0.3492 0.0
H2572 H 0.63174 0.72589 0.32031 0.0
H2573 H 0.64909 0.83557 0.38271 0.0
H2574 H 0.67799 0.8389 0.39381 0.0
H2575 H 0.6552 0.8176 0.40347 0.0
C2576 C 0.11281 0.27982 0.45244 0.0
C2577 C 0.1113 0.27353 0.42747 0.0
C2578 C 0.10487 0.26167 0.46526 0.0
C2579 C 0.09608 0.23671 0.45267 0.0
C2580 C 0.09576 0.23009 0.4275 0.0
C2581 C 0.10296 0.24886 0.41502 0.0
C2582 C 0.10495 0.2694 0.49208 0.0
C2583 C 0.08686 0.20352 0.41369 0.0
C2584 C 0.09359 0.19308 0.49416 0.0
C2585 C 0.0711 0.18898 0.49885 0.0
C2586 C 0.10159 0.20731 0.47776 0.0
C2587 C 0.08678 0.21786 0.46614 0.0
C2588 C 0.06382 0.21299 0.47002 0.0
C2589 C 0.05622 0.19853 0.48648 0.0
C2590 C 0.12609 0.21191 0.47362 0.0
C2591 C 0.0476 0.22413 0.45792 0.0
H2592 H 0.11867 0.29919 0.46173 0.0
H2593 H 0.1014 0.24444 0.39556 0.0
H2594 H 0.08774 0.26261 0.49699 0.0
H2595 H 0.11623 0.26096 0.50156 0.0
H2596 H 0.11075 0.28987 0.49869 0.0
H2597 H 0.09131 0.20116 0.39506 0.0
H2598 H 0.0936 0.19095 0.42288 0.0
H2599 H 0.0682 0.19767 0.41278 0.0
H2600 H 0.10502 0.18546 0.50367 0.0
H2601 H 0.03869 0.19472 0.48971 0.0
H2602 H 0.13534 0.23145 0.48202 0.0
H2603 H 0.12759 0.20912 0.45412 0.0
H2604 H 0.13444 0.19953 0.48136 0.0
H2605 H 0.05105 0.24403 0.46676 0.0
H2606 H 0.02973 0.21469 0.45913 0.0
H2607 H 0.04984 0.22313 0.43873 0.0
C2608 C 0.57453 0.2283 0.16995 0.0
C2609 C 0.56522 0.24625 0.18229 0.0
C2610 C 0.59709 0.22921 0.17598 0.0
C2611 C 0.60999 0.24775 0.19554 0.0
C2612 C 0.60115 0.26714 0.20666 0.0
C2613 C 0.57882 0.26637 0.19947 0.0
C2614 C 0.60647 0.20923 0.16268 0.0
C2615 C 0.61453 0.28754 0.2274 0.0
C2616 C 0.64571 0.22688 0.2388 0.0
C2617 C 0.66732 0.24207 0.23809 0.0
C2618 C 0.62694 0.22829 0.22465 0.0
C2619 C 0.63006 0.24378 0.20791 0.0
C2620 C 0.65197 0.25711 0.20511 0.0
C2621 C 0.67033 0.25672 0.22074 0.0
C2622 C 0.60367 0.2144 0.22881 0.0
C2623 C 0.65593 0.27215 0.18602 0.0
H2624 H 0.56401 0.2132 0.15602 0.0
H2625 H 0.57152 0.28049 0.20851 0.0
H2626 H 0.62449 0.21684 0.16065 0.0
H2627 H 0.60542 0.19443 0.17294 0.0
H2628 H 0.5968 0.20058 0.14462 0.0
H2629 H 0.60413 0.29933 0.2358 0.0
H2630 H 0.62163 0.27962 0.24142 0.0
H2631 H 0.62887 0.29965 0.22098 0.0
H2632 H 0.64319 0.21454 0.25116 0.0
H2633 H 0.68678 0.26869 0.2198 0.0
H2634 H 0.59489 0.20077 0.21224 0.0
H2635 H 0.59334 0.22757 0.23347 0.0
H2636 H 0.60424 0.2043 0.24351 0.0
H2637 H 0.64886 0.25997 0.16811 0.0
H2638 H 0.67415 0.28096 0.18582 0.0
H2639 H 0.64705 0.28688 0.18881 0.0
C2640 C 0.64286 0.91532 0.95517 0.0
C2641 C 0.64043 0.90628 0.93041 0.0
C2642 C 0.63572 0.93613 0.96433 0.0
C2643 C 0.62726 0.94834 0.94802 0.0
C2644 C 0.62896 0.94196 0.92326 0.0
C2645 C 0.63584 0.92078 0.91464 0.0
C2646 C 0.63389 0.9424 0.99088 0.0
C2647 C 0.62042 0.95518 0.90565 0.0
C2648 C 0.57808 0.97136 0.96717 0.0
C2649 C 0.58888 0.99641 0.97604 0.0
C2650 C 0.5903 0.95543 0.95697 0.0
C2651 C 0.61376 0.96515 0.95644 0.0
C2652 C 0.62453 0.99056 0.96519 0.0
C2653 C 0.61177 0.00616 0.97464 0.0
C2654 C 0.57834 0.92823 0.94758 0.0
C2655 C 0.64961 1.0008 0.96542 0.0
H2656 H 0.64638 0.90374 0.96713 0.0
H2657 H 0.634 0.91344 0.89542 0.0
H2658 H 0.63832 0.96276 0.99792 0.0
H2659 H 0.61618 0.93456 0.99391 0.0
H2660 H 0.64495 0.93447 1.00137 0.0
H2661 H 0.62543 0.94985 0.88753 0.0
H2662 H 0.60171 0.95044 0.90403 0.0
H2663 H 0.62688 0.9756 0.91212 0.0
H2664 H 0.56027 0.96427 0.96856 0.0
H2665 H 0.61976 0.02576 0.9816 0.0
H2666 H 0.58525 0.91695 0.95834 0.0
H2667 H 0.58126 0.92221 0.92872 0.0
H2668 H 0.55984 0.92413 0.9483 0.0
H2669 H 0.65892 0.99173 0.97656 0.0
H2670 H 0.65527 0.02097 0.97282 0.0
H2671 H 0.65427 0.99688 0.94699 0.0
C2672 C 0.94407 0.77973 0.69982 0.0
C2673 C 0.94905 0.75743 0.70066 0.0
C2674 C 0.92308 0.7826 0.70474 0.0
C2675 C 0.90716 0.76264 0.71049 0.0
C2676 C 0.9113 0.7392 0.70872 0.0
C2677 C 0.93248 0.73694 0.70405 0.0
C2678 C 0.91902 0.80763 0.70606 0.0
C2679 C 0.89407 0.71713 0.71358 0.0
C2680 C 0.87314 0.77321 0.7608 0.0
C2681 C 0.85195 0.76806 0.74795 0.0
C2682 C 0.89179 0.7732 0.74852 0.0
C2683 C 0.88853 0.76728 0.72306 0.0
C2684 C 0.86705 0.76258 0.71011 0.0
C2685 C 0.84883 0.76301 0.72288 0.0
C2686 C 0.91466 0.77806 0.76271 0.0
C2687 C 0.86317 0.75616 0.683 0.0
H2688 H 0.95685 0.7952 0.69634 0.0
H2689 H 0.93617 0.71923 0.70334 0.0
H2690 H 0.90112 0.80585 0.70008 0.0
H2691 H 0.92339 0.81806 0.72499 0.0
H2692 H 0.92981 0.81847 0.69492 0.0
H2693 H 0.89907 0.69962 0.70852 0.0
H2694 H 0.89213 0.72032 0.73298 0.0
H2695 H 0.87734 0.71472 0.70354 0.0
H2696 H 0.87502 0.77699 0.78026 0.0
H2697 H 0.83207 0.75916 0.71332 0.0
H2698 H 0.92759 0.79168 0.756 0.0
H2699 H 0.91977 0.76054 0.76046 0.0
H2700 H 0.91461 0.78525 0.78218 0.0
H2701 H 0.87403 0.77107 0.67577 0.0
H2702 H 0.84529 0.75355 0.6759 0.0
H2703 H 0.86789 0.73883 0.67611 0.0
C2704 C 0.1519 0.02113 0.85877 0.0
C2705 C 0.13805 0.01 0.8366 0.0
C2706 C 0.14299 0.02361 0.88148 0.0
C2707 C 0.11938 0.01447 0.88304 0.0
C2708 C 0.10547 1.00272 0.86072 0.0
C2709 C 0.11471 1.00113 0.8383 0.0
C2710 C 0.15897 0.03688 0.90397 0.0
C2711 C 0.08037 0.99248 0.86031 0.0
C2712 C 0.09744 1.00292 0.94443 0.0
C2713 C 0.08989 0.02393 0.95347 0.0
C2714 C 0.10701 0.99978 0.92217 0.0
C2715 C 0.1092 0.01777 0.90754 0.0
C2716 C 0.10117 0.0388 0.91646 0.0
C2717 C 0.09202 0.04165 0.93894 0.0
C2718 C 0.11487 0.97692 0.91423 0.0
C2719 C 0.10249 0.05877 0.90237 0.0
H2720 H 0.16972 0.02916 0.85832 0.0
H2721 H 0.10334 0.99328 0.82174 0.0
H2722 H 0.15295 0.05225 0.91386 0.0
H2723 H 0.15935 0.02382 0.91597 0.0
H2724 H 0.17642 0.04461 0.9001 0.0
H2725 H 0.07211 0.98111 0.84239 0.0
H2726 H 0.07679 0.98091 0.87384 0.0
H2727 H 0.07265 0.00805 0.86505 0.0
H2728 H 0.09612 0.98888 0.95499 0.0
H2729 H 0.08626 0.05795 0.94508 0.0
H2730 H 0.13317 0.98239 0.9125 0.0
H2731 H 0.1059 0.96655 0.89627 0.0
H2732 H 0.11196 0.96436 0.92699 0.0
H2733 H 0.12038 0.0695 0.90343 0.0
H2734 H 0.09262 0.07181 0.90934 0.0
H2735 H 0.09619 0.0505 0.88315 0.0
C2736 C 0.81897 0.37938 0.56721 0.0
C2737 C 0.8409 0.38629 0.5612 0.0
C2738 C 0.81562 0.37641 0.59051 0.0
C2739 C 0.83467 0.38084 0.60763 0.0
C2740 C 0.85664 0.39115 0.60223 0.0
C2741 C 0.85948 0.39322 0.57883 0.0
C2742 C 0.79197 0.36659 0.59621 0.0
C2743 C 0.87754 0.39732 0.62017 0.0
C2744 C 0.84122 0.37155 0.67016 0.0
C2745 C 0.84678 0.349 0.66536 0.0
C2746 C 0.83394 0.38114 0.65125 0.0
C2747 C 0.83296 0.36789 0.62745 0.0
C2748 C 0.83627 0.34382 0.62287 0.0
C2749 C 0.8431 0.3346 0.64209 0.0
C2750 C 0.83005 0.40658 0.65668 0.0
C2751 C 0.83564 0.32922 0.59763 0.0
H2752 H 0.80464 0.37556 0.5536 0.0
H2753 H 0.87634 0.40025 0.57428 0.0
H2754 H 0.78835 0.34629 0.59493 0.0
H2755 H 0.79016 0.37531 0.61478 0.0
H2756 H 0.77923 0.36991 0.58347 0.0
H2757 H 0.89171 0.41127 0.6154 0.0
H2758 H 0.8744 0.40467 0.63859 0.0
H2759 H 0.88295 0.3802 0.62019 0.0
H2760 H 0.84403 0.38237 0.68844 0.0
H2761 H 0.84745 0.31708 0.63878 0.0
H2762 H 0.81697 0.40822 0.64324 0.0
H2763 H 0.84594 0.42079 0.65613 0.0
H2764 H 0.82488 0.41084 0.67488 0.0
H2765 H 0.82007 0.32848 0.58626 0.0
H2766 H 0.83637 0.30992 0.59731 0.0
H2767 H 0.85029 0.33849 0.58938 0.0
C2768 C 0.44987 0.02753 0.38178 0.0
C2769 C 0.45484 0.04542 0.36791 0.0
C2770 C 0.46702 0.02386 0.39645 0.0
C2771 C 0.4892 0.03882 0.39718 0.0
C2772 C 0.49459 0.05541 0.38184 0.0
C2773 C 0.47718 0.05884 0.36753 0.0
C2774 C 0.46111 0.00556 0.41244 0.0
C2775 C 0.51846 0.07097 0.38206 0.0
C2776 C 0.5207 0.06545 0.45796 0.0
C2777 C 0.53589 0.05124 0.45784 0.0
C2778 C 0.50494 0.06106 0.43816 0.0
C2779 C 0.50521 0.04247 0.41795 0.0
C2780 C 0.52115 0.02864 0.41746 0.0
C2781 C 0.53625 0.03295 0.43794 0.0
C2782 C 0.48754 0.07561 0.43928 0.0
C2783 C 0.52136 0.00842 0.39618 0.0
H2784 H 0.43261 0.01652 0.38117 0.0
H2785 H 0.48118 0.07183 0.35588 0.0
H2786 H 0.47492 0.99687 0.41543 0.0
H2787 H 0.45833 0.01546 0.43017 0.0
H2788 H 0.44537 0.99069 0.4047 0.0
H2789 H 0.52019 0.08016 0.36659 0.0
H2790 H 0.52347 0.08556 0.39886 0.0
H2791 H 0.53043 0.05935 0.3817 0.0
H2792 H 0.5202 0.07873 0.47415 0.0
H2793 H 0.54701 0.0208 0.43897 0.0
H2794 H 0.47032 0.06274 0.4368 0.0
H2795 H 0.48856 0.08591 0.42463 0.0
H2796 H 0.48981 0.08914 0.45666 0.0
H2797 H 0.50758 0.99158 0.39618 0.0
H2798 H 0.53759 1.00336 0.39687 0.0
H2799 H 0.51843 0.01409 0.37901 0.0
C2800 C 0.78365 0.74512 0.09427 0.0
C2801 C 0.80277 0.74539 0.08239 0.0
C2802 C 0.78531 0.75032 0.11938 0.0
C2803 C 0.80675 0.757 0.13317 0.0
C2804 C 0.82633 0.75829 0.12129 0.0
C2805 C 0.82406 0.75189 0.09597 0.0
C2806 C 0.76396 0.74778 0.1311 0.0
C2807 C 0.84957 0.76573 0.13529 0.0
C2808 C 0.80934 0.78603 0.19973 0.0
C2809 C 0.80859 0.76554 0.21008 0.0
C2810 C 0.80912 0.78371 0.17473 0.0
C2811 C 0.80823 0.76041 0.15985 0.0
C2812 C 0.80737 0.73972 0.17036 0.0
C2813 C 0.80754 0.74256 0.19526 0.0
C2814 C 0.81022 0.80626 0.16428 0.0
C2815 C 0.80598 0.71441 0.1553 0.0
H2816 H 0.76712 0.73974 0.08385 0.0
H2817 H 0.83888 0.75208 0.08683 0.0
H2818 H 0.76297 0.73434 0.14292 0.0
H2819 H 0.76416 0.76593 0.14247 0.0
H2820 H 0.74852 0.74137 0.11781 0.0
H2821 H 0.86309 0.77009 0.1237 0.0
H2822 H 0.85154 0.78216 0.15008 0.0
H2823 H 0.85192 0.75032 0.14352 0.0
H2824 H 0.81062 0.80395 0.21117 0.0
H2825 H 0.80711 0.72673 0.20327 0.0
H2826 H 0.79487 0.80296 0.15145 0.0
H2827 H 0.82495 0.80967 0.15412 0.0
H2828 H 0.81161 0.82318 0.17832 0.0
H2829 H 0.78961 0.70724 0.14349 0.0
H2830 H 0.80736 0.70079 0.16643 0.0
H2831 H 0.81957 0.71565 0.14354 0.0
C2832 C 0.11669 0.02459 0.69342 0.0
C2833 C 0.13459 0.01355 0.6969 0.0
C2834 C 0.1082 0.02774 0.67063 0.0
C2835 C 0.11693 0.01919 0.64922 0.0
C2836 C 0.13446 0.00715 0.65219 0.0
C2837 C 0.14312 1.00476 0.67556 0.0
C2838 C 0.08979 0.04075 0.66978 0.0
C2839 C 0.14433 0.99684 0.63049 0.0
C2840 C 0.08031 0.01378 0.58753 0.0
C2841 C 0.09234 0.03394 0.57835 0.0
C2842 C 0.0882 0.00834 0.60966 0.0
C2843 C 0.10842 0.02387 0.62441 0.0
C2844 C 0.12019 0.04459 0.61543 0.0
C2845 C 0.11284 0.0484 0.59245 0.0
C2846 C 0.07512 0.98523 0.61679 0.0
C2847 C 0.14069 0.0632 0.63033 0.0
H2848 H 0.10928 0.03153 0.70899 0.0
H2849 H 0.15685 0.99629 0.67704 0.0
H2850 H 0.0929 0.05391 0.65762 0.0
H2851 H 0.07338 0.02681 0.66283 0.0
H2852 H 0.08825 0.05114 0.68783 0.0
H2853 H 0.15436 0.98412 0.63446 0.0
H2854 H 0.13075 0.98669 0.61552 0.0
H2855 H 0.15556 0.0123 0.62429 0.0
H2856 H 0.06513 1.00135 0.57672 0.0
H2857 H 0.12363 0.06272 0.58533 0.0
H2858 H 0.06691 0.99041 0.63286 0.0
H2859 H 0.08671 0.97438 0.62156 0.0
H2860 H 0.06185 0.97318 0.60222 0.0
H2861 H 0.13626 0.07064 0.64821 0.0
H2862 H 0.14745 0.07898 0.62175 0.0
H2863 H 0.15417 0.05408 0.63332 0.0
C2864 C 0.85643 0.38368 0.45522 0.0
C2865 C 0.84221 0.39929 0.45538 0.0
C2866 C 0.85547 0.36512 0.4351 0.0
C2867 C 0.84036 0.36274 0.41459 0.0
C2868 C 0.82614 0.37863 0.41444 0.0
C2869 C 0.82714 0.39671 0.43502 0.0
C2870 C 0.87081 0.34834 0.43563 0.0
C2871 C 0.81003 0.37667 0.39253 0.0
C2872 C 0.85349 0.338 0.3536 0.0
C2873 C 0.83668 0.31531 0.34692 0.0
C2874 C 0.85558 0.35322 0.37618 0.0
C2875 C 0.84085 0.34514 0.39251 0.0
C2876 C 0.82577 0.32103 0.38701 0.0
C2877 C 0.82437 0.30597 0.36427 0.0
C2878 C 0.87204 0.37882 0.38163 0.0
C2879 C 0.81027 0.31184 0.40454 0.0
H2880 H 0.86808 0.38552 0.47081 0.0
H2881 H 0.81623 0.40891 0.43514 0.0
H2882 H 0.8609 0.32859 0.42987 0.0
H2883 H 0.88331 0.35186 0.42283 0.0
H2884 H 0.88009 0.35122 0.45376 0.0
H2885 H 0.80058 0.39096 0.3953 0.0
H2886 H 0.81942 0.37876 0.37688 0.0
H2887 H 0.7977 0.35803 0.38794 0.0
H2888 H 0.86395 0.34487 0.34062 0.0
H2889 H 0.81286 0.2876 0.35976 0.0
H2890 H 0.88271 0.38218 0.399 0.0
H2891 H 0.86259 0.39309 0.38324 0.0
H2892 H 0.88324 0.38151 0.36744 0.0
H2893 H 0.82043 0.31094 0.42096 0.0
H2894 H 0.7986 0.29316 0.39688 0.0
H2895 H 0.8001 0.32496 0.41011 0.0
C2896 C 0.47505 0.01444 0.23968 0.0
C2897 C 0.46347 0.03087 0.25023 0.0
C2898 C 0.47723 0.01136 0.21529 0.0
C2899 C 0.46721 0.02485 0.2014 0.0
C2900 C 0.4536 0.03952 0.21153 0.0
C2901 C 0.45214 0.04267 0.23608 0.0
C2902 C 0.49157 0.99505 0.20483 0.0
C2903 C 0.44141 0.05259 0.19671 0.0
C2904 C 0.50973 0.04133 0.16128 0.0
C2905 C 0.50263 0.02005 0.14298 0.0
C2906 C 0.49609 0.0455 0.17909 0.0
C2907 C 0.47529 0.02756 0.17836 0.0
C2908 C 0.46663 0.00824 0.15781 0.0
C2909 C 0.4807 1.00452 0.14019 0.0
C2910 C 0.50555 0.06689 0.20044 0.0
C2911 C 0.44396 0.98963 0.15577 0.0
H2912 H 0.48302 1.0047 0.25068 0.0
H2913 H 0.44206 0.05431 0.2442 0.0
H2914 H 0.48227 0.98163 0.18832 0.0
H2915 H 0.50713 0.00666 0.19983 0.0
H2916 H 0.4966 0.98446 0.21765 0.0
H2917 H 0.43002 0.06162 0.20704 0.0
H2918 H 0.45379 0.06697 0.19028 0.0
H2919 H 0.43129 0.03916 0.18061 0.0
H2920 H 0.5266 0.0536 0.16262 0.0
H2921 H 0.47521 0.98852 0.1253 0.0
H2922 H 0.51164 0.05978 0.21567 0.0
H2923 H 0.49238 0.07597 0.20633 0.0
H2924 H 0.51992 0.0811 0.19639 0.0
H2925 H 0.44631 0.97297 0.16177 0.0
H2926 H 0.43599 0.98352 0.13679 0.0
H2927 H 0.43233 0.99724 0.16696 0.0
C2928 C 0.80274 0.75858 0.94182 0.0
C2929 C 0.81218 0.74162 0.9508 0.0
C2930 C 0.80591 0.7632 0.91894 0.0
C2931 C 0.81906 0.75079 0.90456 0.0
C2932 C 0.82978 0.73475 0.91395 0.0
C2933 C 0.82617 0.73029 0.93697 0.0
C2934 C 0.79418 0.78047 0.9097 0.0
C2935 C 0.84453 0.72183 0.89941 0.0
C2936 C 0.80152 0.74147 0.83771 0.0
C2937 C 0.8171 0.76137 0.83177 0.0
C2938 C 0.80273 0.73709 0.86102 0.0
C2939 C 0.81982 0.7531 0.87906 0.0
C2940 C 0.83637 0.77235 0.87292 0.0
C2941 C 0.83504 0.77584 0.84925 0.0
C2942 C 0.78508 0.71588 0.86658 0.0
C2943 C 0.85485 0.79001 0.89152 0.0
H2944 H 0.79205 0.76764 0.95232 0.0
H2945 H 0.83373 0.71736 0.94378 0.0
H2946 H 0.80644 0.79477 0.90304 0.0
H2947 H 0.78118 0.76978 0.89436 0.0
H2948 H 0.78582 0.78997 0.92369 0.0
H2949 H 0.85059 0.70882 0.90862 0.0
H2950 H 0.83517 0.71135 0.88165 0.0
H2951 H 0.85941 0.73585 0.89605 0.0
H2952 H 0.78781 0.7297 0.82436 0.0
H2953 H 0.84809 0.78997 0.84459 0.0
H2954 H 0.77459 0.7233 0.87949 0.0
H2955 H 0.79333 0.70397 0.87516 0.0
H2956 H 0.77381 0.70418 0.85026 0.0
H2957 H 0.84749 0.80265 0.90372 0.0
H2958 H 0.86823 0.8015 0.88326 0.0
H2959 H 0.86269 0.77974 0.90267 0.0
C2960 C 0.84199 0.09197 0.00377 0.0
C2961 C 0.83883 0.10713 0.02481 0.0
C2962 C 0.86133 0.08379 0.00245 0.0
C2963 C 0.8777 0.09055 0.02289 0.0
C2964 C 0.87473 0.10591 0.04427 0.0
C2965 C 0.85527 0.11428 0.04491 0.0
C2966 C 0.86397 0.06749 0.97922 0.0
C2967 C 0.89198 0.1135 0.06631 0.0
C2968 C 0.90812 0.04155 0.01589 0.0
C2969 C 0.926 0.05224 0.00433 0.0
C2970 C 0.89364 0.05524 0.02503 0.0
C2971 C 0.89694 0.07979 0.02173 0.0
C2972 C 0.91618 0.09134 0.01189 0.0
C2973 C 0.93069 0.07733 0.00336 0.0
C2974 C 0.87363 0.0427 0.03614 0.0
C2975 C 0.92017 0.11749 0.00811 0.0
H2976 H 0.82943 0.08662 0.9881 0.0
H2977 H 0.85288 0.12624 0.06113 0.0
H2978 H 0.88055 0.07516 0.97331 0.0
H2979 H 0.86341 0.04865 0.98201 0.0
H2980 H 0.85049 0.06566 0.96452 0.0
H2981 H 0.88535 0.12186 0.08249 0.0
H2982 H 0.89752 0.09735 0.0699 0.0
H2983 H 0.90711 0.12741 0.06329 0.0
H2984 H 0.9051 0.02227 0.0171 0.0
H2985 H 0.94495 0.08552 0.99474 0.0
H2986 H 0.85816 0.03763 0.02305 0.0
H2987 H 0.87102 0.05546 0.05228 0.0
H2988 H 0.87573 0.02553 0.04129 0.0
H2989 H 0.90896 0.11735 0.99201 0.0
H2990 H 0.93793 0.12541 0.00524 0.0
H2991 H 0.91606 0.12981 0.02362 0.0
C2992 C 0.39306 0.45072 0.05142 0.0
C2993 C 0.3904 0.42548 0.0416 0.0
C2994 C 0.41406 0.46853 0.05278 0.0
C2995 C 0.43257 0.46099 0.04352 0.0
C2996 C 0.42977 0.43558 0.0334 0.0
C2997 C 0.40894 0.41827 0.03279 0.0
C2998 C 0.41634 0.49538 0.06388 0.0
C2999 C 0.4488 0.42656 0.02304 0.0
C3000 C 0.48115 0.50288 0.0209 0.0
C3001 C 0.49902 0.50654 0.0389 0.0
C3002 C 0.45908 0.48957 0.02297 0.0
C3003 C 0.4548 0.47934 0.04343 0.0
C3004 C 0.47272 0.48399 0.06216 0.0
C3005 C 0.49462 0.49776 0.05976 0.0
C3006 C 0.44058 0.4853 0.00264 0.0
C3007 C 0.46896 0.47349 0.08427 0.0
H3008 H 0.37889 0.45648 0.05831 0.0
H3009 H 0.4071 0.39889 0.02494 0.0
H3010 H 0.43195 0.50335 0.07684 0.0
H3011 H 0.41774 0.50623 0.04966 0.0
H3012 H 0.40164 0.49775 0.07327 0.0
H3013 H 0.44354 0.40638 0.01476 0.0
H3014 H 0.4552 0.43681 0.00919 0.0
H3015 H 0.46305 0.43021 0.0374 0.0
H3016 H 0.48453 0.51009 0.00494 0.0
H3017 H 0.50848 0.50071 0.0737 0.0
H3018 H 0.42575 0.49048 0.00963 0.0
H3019 H 0.43494 0.46528 0.99381 0.0
H3020 H 0.4462 0.49609 0.9889 0.0
H3021 H 0.45563 0.4801 0.09331 0.0
H3022 H 0.48456 0.47884 0.09725 0.0
H3023 H 0.46297 0.45292 0.07912 0.0
C3024 C 0.38487 0.63701 0.77192 0.0
C3025 C 0.40818 0.64489 0.7811 0.0
C3026 C 0.37129 0.65427 0.77059 0.0
C3027 C 0.38066 0.68074 0.77805 0.0
C3028 C 0.40408 0.6886 0.78712 0.0
C3029 C 0.41701 0.67113 0.78874 0.0
C3030 C 0.34656 0.64406 0.76127 0.0
C3031 C 0.41583 0.71594 0.79557 0.0
C3032 C 0.35518 0.72851 0.75144 0.0
C3033 C 0.34463 0.73993 0.76992 0.0
C3034 C 0.36593 0.70935 0.75364 0.0
C3035 C 0.36688 0.70022 0.77512 0.0
C3036 C 0.35593 0.71135 0.79391 0.0
C3037 C 0.34517 0.73068 0.79118 0.0
C3038 C 0.37708 0.69935 0.73283 0.0
C3039 C 0.35558 0.70283 0.81722 0.0
H3040 H 0.37698 0.61725 0.76613 0.0
H3041 H 0.43465 0.67843 0.79608 0.0
H3042 H 0.33635 0.65192 0.77427 0.0
H3043 H 0.34309 0.64976 0.74422 0.0
H3044 H 0.34093 0.62349 0.75802 0.0
H3045 H 0.43449 0.71964 0.79849 0.0
H3046 H 0.41152 0.72651 0.7824 0.0
H3047 H 0.41007 0.72314 0.81276 0.0
H3048 H 0.35544 0.73501 0.73485 0.0
H3049 H 0.33757 0.73889 0.806 0.0
H3050 H 0.3704 0.67886 0.72745 0.0
H3051 H 0.39551 0.70362 0.73836 0.0
H3052 H 0.3744 0.70734 0.71697 0.0
H3053 H 0.34506 0.68332 0.81396 0.0
H3054 H 0.34858 0.71443 0.83094 0.0
H3055 H 0.37287 0.70326 0.82444 0.0
C3056 C 0.21861 0.57885 0.51098 0.0
C3057 C 0.22861 0.60234 0.5255 0.0
C3058 C 0.19511 0.56949 0.50752 0.0
C3059 C 0.18205 0.58411 0.51924 0.0
C3060 C 0.1924 0.60674 0.5358 0.0
C3061 C 0.21574 0.61571 0.53858 0.0
C3062 C 0.18429 0.54506 0.49011 0.0
C3063 C 0.17883 0.62212 0.54954 0.0
C3064 C 0.12542 0.58969 0.499 0.0
C3065 C 0.11231 0.5768 0.51394 0.0
C3066 C 0.14779 0.58905 0.49781 0.0
C3067 C 0.15755 0.57706 0.51344 0.0
C3068 C 0.14411 0.56272 0.52717 0.0
C3069 C 0.12142 0.56187 0.52613 0.0
C3070 C 0.16134 0.60257 0.4811 0.0
C3071 C 0.15367 0.54996 0.54458 0.0
H3072 H 0.22894 0.56883 0.50091 0.0
H3073 H 0.2239 0.63384 0.54998 0.0
H3074 H 0.17084 0.53321 0.49792 0.0
H3075 H 0.17622 0.54858 0.47367 0.0
H3076 H 0.1968 0.53466 0.4849 0.0
H3077 H 0.18974 0.63902 0.56211 0.0
H3078 H 0.16796 0.62808 0.5369 0.0
H3079 H 0.16758 0.6108 0.55994 0.0
H3080 H 0.11823 0.60001 0.48801 0.0
H3081 H 0.11111 0.54968 0.53523 0.0
H3082 H 0.17341 0.59254 0.47364 0.0
H3083 H 0.1712 0.62133 0.4912 0.0
H3084 H 0.15022 0.60474 0.46598 0.0
H3085 H 0.1413 0.53232 0.54548 0.0
H3086 H 0.15709 0.56227 0.56276 0.0
H3087 H 0.16966 0.5459 0.53999 0.0
C3088 C 0.73265 0.98505 0.76147 0.0
C3089 C 0.73503 0.99329 0.7402 0.0
C3090 C 0.74052 0.96518 0.76503 0.0
C3091 C 0.75143 0.95394 0.7469 0.0
C3092 C 0.75184 0.96067 0.72438 0.0
C3093 C 0.74331 0.98043 0.72115 0.0
C3094 C 0.73947 0.95839 0.78927 0.0
C3095 C 0.76293 0.94843 0.70467 0.0
C3096 C 0.80003 0.94287 0.78034 0.0
C3097 C 0.79053 0.91864 0.78272 0.0
C3098 C 0.78832 0.95385 0.76601 0.0
C3099 C 0.76668 0.94004 0.75402 0.0
C3100 C 0.7581 0.9147 0.75432 0.0
C3101 C 0.77026 0.90417 0.76886 0.0
C3102 C 0.79795 0.98106 0.76611 0.0
C3103 C 0.73506 0.89964 0.74169 0.0
H3104 H 0.72529 0.99472 0.77567 0.0
H3105 H 0.74429 0.98672 0.70444 0.0
H3106 H 0.73529 0.93801 0.78748 0.0
H3107 H 0.75621 0.96673 0.80026 0.0
H3108 H 0.72673 0.96543 0.79917 0.0
H3109 H 0.76039 0.95467 0.68771 0.0
H3110 H 0.78133 0.95282 0.71038 0.0
H3111 H 0.75608 0.92796 0.7012 0.0
H3112 H 0.81606 0.95364 0.79073 0.0
H3113 H 0.76318 0.88526 0.77068 0.0
H3114 H 0.78851 0.99219 0.77724 0.0
H3115 H 0.79615 0.98437 0.7477 0.0
H3116 H 0.81607 0.98799 0.77361 0.0
H3117 H 0.72199 0.90358 0.75302 0.0
H3118 H 0.73344 0.87941 0.7385 0.0
H3119 H 0.73151 0.90462 0.72429 0.0
C3120 C 0.7638 0.93622 0.54122 0.0
C3121 C 0.76541 0.92023 0.51981 0.0
C3122 C 0.74723 0.9493 0.54234 0.0
C3123 C 0.73197 0.94628 0.52161 0.0
C3124 C 0.73306 0.92953 0.50026 0.0
C3125 C 0.74973 0.91681 0.49963 0.0
C3126 C 0.74622 0.96657 0.56556 0.0
C3127 C 0.71725 0.92584 0.47764 0.0
C3128 C 0.67815 0.96687 0.5183 0.0
C3129 C 0.68531 0.98801 0.50873 0.0
C3130 C 0.69354 0.95394 0.52447 0.0
C3131 C 0.71649 0.96243 0.52095 0.0
C3132 C 0.72399 0.9849 0.51315 0.0
C3133 C 0.70833 0.99743 0.50724 0.0
C3134 C 0.685 0.93034 0.53322 0.0
C3135 C 0.74834 0.99485 0.50948 0.0
H3136 H 0.77563 0.93874 0.55701 0.0
H3137 H 0.75064 0.90437 0.48306 0.0
H3138 H 0.74791 0.98561 0.5627 0.0
H3139 H 0.72955 0.96032 0.57184 0.0
H3140 H 0.75964 0.96737 0.57991 0.0
H3141 H 0.71883 0.91039 0.46332 0.0
H3142 H 0.69947 0.92188 0.48146 0.0
H3143 H 0.72103 0.94314 0.47072 0.0
H3144 H 0.66035 0.95961 0.51957 0.0
H3145 H 0.71394 0.01411 0.50037 0.0
H3146 H 0.69561 0.93087 0.54989 0.0
H3147 H 0.68625 0.91421 0.51956 0.0
H3148 H 0.66715 0.92731 0.5368 0.0
H3149 H 0.75951 0.9978 0.52645 0.0
H3150 H 0.75143 0.01268 0.50348 0.0
H3151 H 0.75325 0.98115 0.49583 0.0
C3152 C 0.38779 0.48045 0.75004 0.0
C3153 C 0.40621 0.49228 0.76802 0.0
C3154 C 0.37489 0.45538 0.74841 0.0
C3155 C 0.38 0.44154 0.76535 0.0
C3156 C 0.39814 0.45382 0.78392 0.0
C3157 C 0.41098 0.47849 0.78476 0.0
C3158 C 0.35615 0.44334 0.728 0.0
C3159 C 0.40464 0.44066 0.80266 0.0
C3160 C 0.33499 0.38335 0.7741 0.0
C3161 C 0.34277 0.36332 0.76296 0.0
C3162 C 0.34674 0.40849 0.77495 0.0
C3163 C 0.36672 0.41439 0.76377 0.0
C3164 C 0.3745 0.39416 0.75219 0.0
C3165 C 0.36277 0.36918 0.75226 0.0
C3166 C 0.33812 0.42888 0.78865 0.0
C3167 C 0.39521 0.39888 0.73942 0.0
H3168 H 0.38414 0.49034 0.73654 0.0
H3169 H 0.42533 0.487 0.79853 0.0
H3170 H 0.35858 0.42562 0.71814 0.0
H3171 H 0.33973 0.43879 0.73518 0.0
H3172 H 0.35527 0.45551 0.71517 0.0
H3173 H 0.41632 0.45373 0.81804 0.0
H3174 H 0.38945 0.43058 0.80957 0.0
H3175 H 0.41318 0.42676 0.79449 0.0
H3176 H 0.32007 0.37943 0.78311 0.0
H3177 H 0.36917 0.35411 0.74365 0.0
H3178 H 0.33441 0.44081 0.7766 0.0
H3179 H 0.35134 0.44085 0.80328 0.0
H3180 H 0.3226 0.42151 0.79662 0.0
H3181 H 0.39204 0.40756 0.72421 0.0
H3182 H 0.39991 0.38154 0.73234 0.0
H3183 H 0.40976 0.41208 0.75167 0.0
C3184 C 0.24396 0.62507 0.26779 0.0
C3185 C 0.24461 0.61133 0.24495 0.0
C3186 C 0.26057 0.64704 0.27733 0.0
C3187 C 0.27762 0.6552 0.26316 0.0
C3188 C 0.28069 0.63886 0.24253 0.0
C3189 C 0.26378 0.61679 0.23337 0.0
C3190 C 0.25702 0.66364 0.29989 0.0
C3191 C 0.29928 0.64659 0.22772 0.0
C3192 C 0.27227 0.71802 0.26141 0.0
C3193 C 0.29107 0.73288 0.27699 0.0
C3194 C 0.2696 0.69274 0.25392 0.0
C3195 C 0.28503 0.68195 0.26452 0.0
C3196 C 0.30423 0.69701 0.2803 0.0
C3197 C 0.30714 0.72259 0.28621 0.0
C3198 C 0.24899 0.67743 0.23657 0.0
C3199 C 0.32036 0.68621 0.2929 0.0
H3200 H 0.22942 0.61986 0.2772 0.0
H3201 H 0.26445 0.60537 0.21608 0.0
H3202 H 0.27332 0.67526 0.31023 0.0
H3203 H 0.24725 0.67621 0.2949 0.0
H3204 H 0.24725 0.65262 0.31161 0.0
H3205 H 0.30395 0.63023 0.21779 0.0
H3206 H 0.29289 0.65562 0.21433 0.0
H3207 H 0.31448 0.65991 0.23886 0.0
H3208 H 0.25909 0.726 0.25598 0.0
H3209 H 0.32126 0.73428 0.299 0.0
H3210 H 0.23653 0.66655 0.2462 0.0
H3211 H 0.25371 0.66426 0.22224 0.0
H3212 H 0.2405 0.68917 0.22799 0.0
H3213 H 0.31437 0.68288 0.31012 0.0
H3214 H 0.33754 0.69936 0.29716 0.0
H3215 H 0.32141 0.66828 0.28208 0.0
C3216 C 0.50777 0.68194 0.47171 0.0
C3217 C 0.52347 0.70469 0.47175 0.0
C3218 C 0.51453 0.6618 0.47827 0.0
C3219 C 0.53756 0.66448 0.48635 0.0
C3220 C 0.55335 0.68778 0.4873 0.0
C3221 C 0.54627 0.70721 0.47951 0.0
C3222 C 0.49692 0.63745 0.47621 0.0
C3223 C 0.57791 0.69216 0.49635 0.0
C3224 C 0.5511 0.61518 0.51943 0.0
C3225 C 0.55704 0.5988 0.50091 0.0
C3226 C 0.54515 0.63675 0.51523 0.0
C3227 C 0.5453 0.64247 0.49201 0.0
C3228 C 0.55223 0.62642 0.47368 0.0
C3229 C 0.55764 0.60494 0.47825 0.0
C3230 C 0.53798 0.65302 0.5355 0.0
C3231 C 0.55291 0.63118 0.44867 0.0
H3232 H 0.49012 0.67962 0.46582 0.0
H3233 H 0.55861 0.72467 0.47997 0.0
H3234 H 0.50253 0.62191 0.46603 0.0
H3235 H 0.49457 0.63393 0.49438 0.0
H3236 H 0.48035 0.63731 0.46714 0.0
H3237 H 0.58741 0.71206 0.4995 0.0
H3238 H 0.57958 0.68575 0.51335 0.0
H3239 H 0.58582 0.68126 0.48304 0.0
H3240 H 0.55007 0.61056 0.5369 0.0
H3241 H 0.56192 0.59239 0.46366 0.0
H3242 H 0.51983 0.65175 0.53145 0.0
H3243 H 0.54755 0.67272 0.53734 0.0
H3244 H 0.54058 0.64757 0.55288 0.0
H3245 H 0.53542 0.6281 0.44012 0.0
H3246 H 0.5611 0.6188 0.43721 0.0
H3247 H 0.56218 0.65072 0.44926 0.0
C3248 C 0.66247 0.30412 0.66478 0.0
C3249 C 0.66656 0.32312 0.65193 0.0
C3250 C 0.67976 0.30109 0.68061 0.0
C3251 C 0.70161 0.31814 0.68469 0.0
C3252 C 0.7055 0.33798 0.67246 0.0
C3253 C 0.68821 0.33984 0.65585 0.0
C3254 C 0.6747 0.27922 0.6925 0.0
C3255 C 0.72815 0.35705 0.67652 0.0
C3256 C 0.74247 0.32216 0.74052 0.0
C3257 C 0.75724 0.30868 0.73106 0.0
C3258 C 0.72426 0.3251 0.7259 0.0
C3259 C 0.72064 0.31469 0.70084 0.0
C3260 C 0.73563 0.30134 0.6911 0.0
C3261 C 0.75355 0.29854 0.70616 0.0
C3262 C 0.70899 0.33962 0.73729 0.0
C3263 C 0.73255 0.2896 0.66467 0.0
H3264 H 0.64593 0.29086 0.6616 0.0
H3265 H 0.69162 0.3545 0.64595 0.0
H3266 H 0.68783 0.26911 0.69007 0.0
H3267 H 0.67495 0.28589 0.71207 0.0
H3268 H 0.65794 0.26599 0.68523 0.0
H3269 H 0.72758 0.37321 0.66857 0.0
H3270 H 0.73408 0.36384 0.69601 0.0
H3271 H 0.7408 0.34843 0.6683 0.0
H3272 H 0.74524 0.33084 0.75933 0.0
H3273 H 0.76463 0.28811 0.69827 0.0
H3274 H 0.69133 0.32775 0.73421 0.0
H3275 H 0.70928 0.35561 0.72881 0.0
H3276 H 0.71399 0.34666 0.75694 0.0
H3277 H 0.71606 0.27525 0.65986 0.0
H3278 H 0.74614 0.28077 0.65959 0.0
H3279 H 0.73228 0.30372 0.65385 0.0
C3280 C 0.00813 0.35053 0.98611 0.0
C3281 C 0.02518 0.33952 0.97862 0.0
C3282 C 0.01165 0.37653 0.99124 0.0
C3283 C 0.033 0.39237 0.98957 0.0
C3284 C 0.05069 0.38144 0.9833 0.0
C3285 C 0.04648 0.35524 0.97746 0.0
C3286 C 0.99206 0.38695 0.99718 0.0
C3287 C 0.07413 0.39749 0.98282 0.0
C3288 C 0.03801 0.45604 0.97442 0.0
C3289 C 0.04402 0.47242 0.99697 0.0
C3290 C 0.03364 0.43012 0.97197 0.0
C3291 C 0.03628 0.42005 0.99248 0.0
C3292 C 0.04218 0.43655 0.0154 0.0
C3293 C 0.04557 0.46239 0.01736 0.0
C3294 C 0.02669 0.4135 0.94723 0.0
C3295 C 0.04544 0.42715 0.03792 0.0
H3296 H 0.99152 0.33871 0.9869 0.0
H3297 H 0.05986 0.34707 0.97198 0.0
H3298 H 0.99691 0.40175 0.01379 0.0
H3299 H 0.98732 0.39548 0.98243 0.0
H3300 H 0.97703 0.37249 0.99959 0.0
H3301 H 0.08596 0.38634 0.97713 0.0
H3302 H 0.07368 0.41019 0.97047 0.0
H3303 H 0.08082 0.40923 1.00101 0.0
H3304 H 0.03702 0.46361 0.95852 0.0
H3305 H 0.05058 0.47487 0.03475 0.0
H3306 H 0.01103 0.39865 0.9471 0.0
H3307 H 0.04005 0.40433 0.94226 0.0
H3308 H 0.02369 0.42391 0.93336 0.0
H3309 H 0.02874 0.4196 0.04361 0.0
H3310 H 0.05559 0.44224 0.05286 0.0
H3311 H 0.05393 0.41206 0.03486 0.0
C3312 C 0.01479 0.81924 0.13631 0.0
C3313 C 0.03431 0.81193 0.14185 0.0
C3314 C 0.99653 0.81534 0.14989 0.0
C3315 C 0.99773 0.80398 0.1697 0.0
C3316 C 0.01744 0.7967 0.17547 0.0
C3317 C 0.03543 0.80075 0.16154 0.0
C3318 C 0.97602 0.82358 0.14308 0.0
C3319 C 0.01942 0.7843 0.19626 0.0
C3320 C 0.96073 0.81225 0.21987 0.0
C3321 C 0.94453 0.78917 0.21487 0.0
C3322 C 0.97773 0.81762 0.20494 0.0
C3323 C 0.97845 0.79953 0.1844 0.0
C3324 C 0.96139 0.77661 0.17869 0.0
C3325 C 0.94479 0.77161 0.19412 0.0
C3326 C 0.99553 0.84224 0.21179 0.0
C3327 C 0.96099 0.75712 0.15657 0.0
H3328 H 0.01369 0.82801 0.12124 0.0
H3329 H 0.05032 0.79494 0.16597 0.0
H3330 H 0.96032 0.80859 0.1423 0.0
H3331 H 0.97521 0.83975 0.15695 0.0
H3332 H 0.97639 0.82905 0.12547 0.0
H3333 H 0.03628 0.78105 0.19931 0.0
H3334 H 0.0163 0.79586 0.21295 0.0
H3335 H 0.00638 0.76617 0.19276 0.0
H3336 H 0.96069 0.82569 0.23607 0.0
H3337 H 0.9323 0.75371 0.19032 0.0
H3338 H 0.99682 0.85159 0.19645 0.0
H3339 H 0.01222 0.83913 0.21623 0.0
H3340 H 0.99191 0.85484 0.22748 0.0
H3341 H 0.95955 0.76484 0.14033 0.0
H3342 H 0.94672 0.7402 0.15473 0.0
H3343 H 0.97704 0.75173 0.15715 0.0
C3344 C 0.52582 0.31058 0.10769 0.0
C3345 C 0.50359 0.30673 0.11318 0.0
C3346 C 0.53388 0.32618 0.09231 0.0
C3347 C 0.51955 0.33883 0.08293 0.0
C3348 C 0.49709 0.33505 0.08846 0.0
C3349 C 0.48921 0.3186 0.10325 0.0
C3350 C 0.55777 0.32929 0.08634 0.0
C3351 C 0.48149 0.34849 0.07889 0.0
C3352 C 0.5499 0.39712 0.06394 0.0
C3353 C 0.54831 0.38856 0.03905 0.0
C3354 C 0.54006 0.38124 0.07842 0.0
C3355 C 0.52836 0.35632 0.06765 0.0
C3356 C 0.52635 0.34775 0.04247 0.0
C3357 C 0.53649 0.364 0.02845 0.0
C3358 C 0.54263 0.39096 0.10526 0.0
C3359 C 0.51429 0.3212 0.03036 0.0
H3360 H 0.53682 0.301 0.11508 0.0
H3361 H 0.472 0.31544 0.10749 0.0
H3362 H 0.55823 0.32749 0.06674 0.0
H3363 H 0.56835 0.34813 0.09537 0.0
H3364 H 0.56546 0.31543 0.09221 0.0
H3365 H 0.46492 0.34445 0.0859 0.0
H3366 H 0.48942 0.36884 0.08379 0.0
H3367 H 0.47855 0.34297 0.059 0.0
H3368 H 0.55919 0.41613 0.0721 0.0
H3369 H 0.53512 0.35756 0.00916 0.0
H3370 H 0.55343 0.38171 0.11436 0.0
H3371 H 0.52595 0.38657 0.11196 0.0
H3372 H 0.55039 0.41135 0.1105 0.0
H3373 H 0.52509 0.30908 0.03384 0.0
H3374 H 0.51061 0.31881 0.01063 0.0
H3375 H 0.4982 0.31472 0.03767 0.0
C3376 C 0.0437 0.34204 0.38392 0.0
C3377 C 0.05958 0.3328 0.37154 0.0
C3378 C 0.02625 0.34805 0.37178 0.0
C3379 C 0.02423 0.34388 0.3465 0.0
C3380 C 0.0407 0.33538 0.33386 0.0
C3381 C 0.05854 0.33023 0.34667 0.0
C3382 C 0.00956 0.35779 0.38616 0.0
C3383 C 0.03903 0.33104 0.30685 0.0
C3384 C 0.96558 0.3268 0.31324 0.0
C3385 C 0.96534 0.34871 0.30573 0.0
C3386 C 0.98459 0.3252 0.32694 0.0
C3387 C 0.00375 0.34601 0.33317 0.0
C3388 C 0.00332 0.36851 0.32653 0.0
C3389 C 0.98408 0.36956 0.31269 0.0
C3390 C 0.98439 0.30106 0.33423 0.0
C3391 C 0.02312 0.39139 0.3341 0.0
H3392 H 0.04504 0.34485 0.40333 0.0
H3393 H 0.07121 0.32359 0.33727 0.0
H3394 H 0.003 0.37106 0.37788 0.0
H3395 H 0.99505 0.342 0.38704 0.0
H3396 H 0.01729 0.36718 0.40485 0.0
H3397 H 0.05372 0.32546 0.29984 0.0
H3398 H 0.02339 0.31624 0.29872 0.0
H3399 H 0.03787 0.34813 0.30092 0.0
H3400 H 0.95114 0.31062 0.30776 0.0
H3401 H 0.98367 0.38663 0.30724 0.0
H3402 H 0.98845 0.30433 0.35399 0.0
H3403 H 0.99757 0.29339 0.32597 0.0
H3404 H 0.9678 0.28694 0.3287 0.0
H3405 H 0.02648 0.39677 0.35399 0.0
H3406 H 0.02014 0.40739 0.32725 0.0
H3407 H 0.03856 0.38739 0.3275 0.0
C3408 C 0.99595 0.69347 0.59899 0.0
C3409 C 0.98896 0.68643 0.62 0.0
C3410 C 0.00295 0.67712 0.58188 0.0
C3411 C 1.00172 0.65318 0.58567 0.0
C3412 C 0.99157 0.64485 0.60503 0.0
C3413 C 0.98519 0.66177 0.62215 0.0
C3414 C 0.01406 0.68637 0.56142 0.0
C3415 C 0.98999 0.61913 0.60921 0.0
C3416 C 0.01177 0.60483 0.53732 0.0
C3417 C 0.03304 0.6038 0.54639 0.0
C3418 C 1.00138 0.62132 0.54977 0.0
C3419 C 0.01321 0.63771 0.57104 0.0
C3420 C 0.03546 0.63808 0.57937 0.0
C3421 C 0.04499 0.6205 0.5671 0.0
C3422 C 0.97735 0.62005 0.54103 0.0
C3423 C 0.04899 0.6567 0.60128 0.0
H3424 H 0.99846 0.71251 0.59716 0.0
H3425 H 0.97932 0.65632 0.63825 0.0
H3426 H 0.0324 0.68797 0.56424 0.0
H3427 H 0.00705 0.67303 0.54411 0.0
H3428 H 0.01194 0.70483 0.55999 0.0
H3429 H 0.97852 0.6144 0.62273 0.0
H3430 H 0.98397 0.60493 0.59223 0.0
H3431 H 0.00701 0.61815 0.61584 0.0
H3432 H 0.00283 0.59204 0.521 0.0
H3433 H 0.06167 0.61989 0.57365 0.0
H3434 H 0.9751 0.63886 0.54204 0.0
H3435 H 0.96591 0.61098 0.55276 0.0
H3436 H 0.97205 0.60923 0.52226 0.0
H3437 H 0.05162 0.67576 0.59811 0.0
H3438 H 0.06577 0.65371 0.60567 0.0
H3439 H 0.03968 0.65571 0.6171 0.0
C3440 C 0.68515 0.85126 0.83484 0.0
C3441 C 0.67156 0.83421 0.84601 0.0
C3442 C 0.70181 0.84462 0.82181 0.0
C3443 C 0.70456 0.82051 0.82013 0.0
C3444 C 0.6909 0.80332 0.83132 0.0
C3445 C 0.6745 0.81037 0.84409 0.0
C3446 C 0.71662 0.86334 0.81016 0.0
C3447 C 0.69398 0.77771 0.8303 0.0
C3448 C 0.73681 0.79735 0.77173 0.0
C3449 C 0.7577 0.80171 0.78513 0.0
C3450 C 0.71883 0.8026 0.78315 0.0
C3451 C 0.72268 0.81356 0.80799 0.0
C3452 C 0.74378 0.81746 0.82154 0.0
C3453 C 0.76099 0.81093 0.80989 0.0
C3454 C 0.69605 0.79721 0.76868 0.0
C3455 C 0.74866 0.82974 0.84795 0.0
H3456 H 0.68293 0.86972 0.83646 0.0
H3457 H 0.66422 0.79717 0.85294 0.0
H3458 H 0.73472 0.86539 0.81572 0.0
H3459 H 0.7135 0.85667 0.79036 0.0
H3460 H 0.71343 0.88188 0.81477 0.0
H3461 H 0.68123 0.76622 0.83923 0.0
H3462 H 0.69275 0.76794 0.81133 0.0
H3463 H 0.71102 0.77924 0.83915 0.0
H3464 H 0.73475 0.79038 0.75245 0.0
H3465 H 0.77738 0.81411 0.81996 0.0
H3466 H 0.69213 0.81493 0.76762 0.0
H3467 H 0.68267 0.78661 0.77758 0.0
H3468 H 0.69542 0.78642 0.75015 0.0
H3469 H 0.74922 0.84965 0.85016 0.0
H3470 H 0.76509 0.82857 0.85621 0.0
H3471 H 0.73516 0.82123 0.85798 0.0
C3472 C 0.49138 0.54616 0.69136 0.0
C3473 C 0.48476 0.5667 0.70392 0.0
C3474 C 0.50113 0.54588 0.66942 0.0
C3475 C 0.50529 0.56687 0.65872 0.0
C3476 C 0.49863 0.58783 0.67109 0.0
C3477 C 0.4884 0.58744 0.69306 0.0
C3478 C 0.50722 0.52277 0.65772 0.0
C3479 C 0.50241 0.61093 0.66114 0.0
C3480 C 0.55027 0.56921 0.61276 0.0
C3481 C 0.53728 0.55994 0.58988 0.0
C3482 C 0.54034 0.57252 0.63475 0.0
C3483 C 0.51639 0.5663 0.63484 0.0
C3484 C 0.50321 0.55739 0.6118 0.0
C3485 C 0.51357 0.55437 0.59012 0.0
C3486 C 0.55573 0.58248 0.65814 0.0
C3487 C 0.47781 0.55023 0.60992 0.0
H3488 H 0.48891 0.52974 0.69882 0.0
H3489 H 0.48384 0.60371 0.70201 0.0
H3490 H 0.49914 0.51629 0.63882 0.0
H3491 H 0.52575 0.52703 0.65741 0.0
H3492 H 0.50196 0.50741 0.66722 0.0
H3493 H 0.49996 0.62688 0.6742 0.0
H3494 H 0.5197 0.6161 0.65596 0.0
H3495 H 0.49033 0.60728 0.6447 0.0
H3496 H 0.56841 0.57362 0.61373 0.0
H3497 H 0.50279 0.54719 0.57312 0.0
H3498 H 0.55373 0.56789 0.66876 0.0
H3499 H 0.55102 0.59838 0.66893 0.0
H3500 H 0.57376 0.58865 0.65541 0.0
H3501 H 0.47188 0.53275 0.61623 0.0
H3502 H 0.4698 0.54733 0.5912 0.0
H3503 H 0.47197 0.56472 0.62157 0.0
C3504 C 0.79195 0.16658 0.95158 0.0
C3505 C 0.78165 0.1727 0.97198 0.0
C3506 C 0.78857 0.1767 0.93166 0.0
C3507 C 0.77531 0.19369 0.93294 0.0
C3508 C 0.76481 0.19969 0.95358 0.0
C3509 C 0.768 0.1889 0.97279 0.0
C3510 C 0.79947 0.16961 0.90957 0.0
C3511 C 0.7506 0.2179 0.95569 0.0
C3512 C 0.78329 0.24627 0.90179 0.0
C3513 C 0.76276 0.23901 0.88688 0.0
C3514 C 0.78878 0.2304 0.91552 0.0
C3515 C 0.7734 0.20686 0.9137 0.0
C3516 C 0.75369 0.19863 0.8969 0.0
C3517 C 0.74843 0.21508 0.88377 0.0
C3518 C 0.80959 0.2399 0.93388 0.0
C3519 C 0.73721 0.17342 0.89443 0.0
H3520 H 0.80221 0.15368 0.95107 0.0
H3521 H 0.76005 0.19352 0.98872 0.0
H3522 H 0.78795 0.16726 0.89298 0.0
H3523 H 0.81487 0.18464 0.90937 0.0
H3524 H 0.80443 0.15216 0.90923 0.0
H3525 H 0.74405 0.22067 0.97332 0.0
H3526 H 0.76072 0.23619 0.95335 0.0
H3527 H 0.736 0.21119 0.94138 0.0
H3528 H 0.79419 0.26495 0.90402 0.0
H3529 H 0.73266 0.20972 0.87191 0.0
H3530 H 0.81889 0.22561 0.93364 0.0
H3531 H 0.80446 0.24407 0.9521 0.0
H3532 H 0.82121 0.25708 0.9308 0.0
H3533 H 0.74632 0.15887 0.89336 0.0
H3534 H 0.7245 0.16861 0.87829 0.0
H3535 H 0.72815 0.17321 0.91049 0.0
C3536 C 0.16024 0.5123 0.1445 0.0
C3537 C 0.15663 0.5134 0.16835 0.0
C3538 C 0.14256 0.51125 0.12759 0.0
C3539 C 0.12144 0.51181 0.13546 0.0
C3540 C 0.11722 0.51011 0.15902 0.0
C3541 C 0.13496 0.50998 0.17521 0.0
C3542 C 0.1474 0.51307 0.10237 0.0
C3543 C 0.09506 0.51198 0.16787 0.0
C3544 C 0.09341 0.54723 0.10103 0.0
C3545 C 0.0782 0.52754 0.08491 0.0
C3546 C 0.1068 0.54245 0.11902 0.0
C3547 C 0.10482 0.51741 0.11999 0.0
C3548 C 0.08812 0.49772 0.10493 0.0
C3549 C 0.07441 0.50317 0.08769 0.0
C3550 C 0.12407 0.56393 0.13565 0.0
C3551 C 0.08644 0.47091 0.10524 0.0
H3552 H 0.17729 0.51528 0.13973 0.0
H3553 H 0.13267 0.51128 0.194 0.0
H3554 H 0.13288 0.50166 0.08895 0.0
H3555 H 0.1504 0.53266 0.10068 0.0
H3556 H 0.16269 0.50707 0.09802 0.0
H3557 H 0.09452 0.51006 0.18678 0.0
H3558 H 0.09241 0.53027 0.16663 0.0
H3559 H 0.08078 0.49751 0.15639 0.0
H3560 H 0.09567 0.56608 0.09866 0.0
H3561 H 0.06232 0.48822 0.07505 0.0
H3562 H 0.14133 0.5634 0.13185 0.0
H3563 H 0.12289 0.5625 0.1546 0.0
H3564 H 0.12186 0.5822 0.13359 0.0
H3565 H 0.10096 0.46583 0.0973 0.0
H3566 H 0.07059 0.45815 0.09483 0.0
H3567 H 0.08731 0.46806 0.12387 0.0
C3568 C 0.80111 0.84368 0.44887 0.0
C3569 C 0.81922 0.84078 0.46322 0.0
C3570 C 0.79952 0.83752 0.42359 0.0
C3571 C 0.8168 0.82902 0.41247 0.0
C3572 C 0.83495 0.82593 0.42695 0.0
C3573 C 0.83575 0.83148 0.45201 0.0
C3574 C 0.7794 0.84014 0.40877 0.0
C3575 C 0.85435 0.81824 0.41611 0.0
C3576 C 0.80904 0.79729 0.34604 0.0
C3577 C 0.81717 0.81755 0.33556 0.0
C3578 C 0.80831 0.80077 0.37099 0.0
C3579 C 0.81683 0.82491 0.38585 0.0
C3580 C 0.82596 0.8452 0.3753 0.0
C3581 C 0.8252 0.84139 0.35025 0.0
C3582 C 0.79766 0.77881 0.38135 0.0
C3583 C 0.83622 0.87106 0.39036 0.0
H3584 H 0.78824 0.85077 0.4574 0.0
H3585 H 0.85004 0.82959 0.4629 0.0
H3586 H 0.78502 0.85271 0.3965 0.0
H3587 H 0.77004 0.82176 0.39742 0.0
H3588 H 0.76767 0.84748 0.42007 0.0
H3589 H 0.86594 0.81412 0.42953 0.0
H3590 H 0.84812 0.80164 0.40122 0.0
H3591 H 0.86413 0.83354 0.40854 0.0
H3592 H 0.80209 0.77896 0.33459 0.0
H3593 H 0.83099 0.85712 0.34204 0.0
H3594 H 0.78304 0.78224 0.39031 0.0
H3595 H 0.80988 0.77635 0.3952 0.0
H3596 H 0.79176 0.76129 0.36741 0.0
H3597 H 0.82268 0.87877 0.39761 0.0
H3598 H 0.84567 0.8838 0.37982 0.0
H3599 H 0.8479 0.87067 0.40585 0.0
C3600 C 0.47461 0.5636 0.86138 0.0
C3601 C 0.48866 0.57245 0.84467 0.0
C3602 C 0.48346 0.55931 0.88369 0.0
C3603 C 0.50724 0.5643 0.89056 0.0
C3604 C 0.52145 0.574 0.87406 0.0
C3605 C 0.51216 0.57734 0.85165 0.0
C3606 C 0.46712 0.54828 0.89959 0.0
C3607 C 0.54679 0.58027 0.87955 0.0
C3608 C 0.52729 0.57194 0.95915 0.0
C3609 C 0.53344 0.54994 0.961 0.0
C3610 C 0.52014 0.57724 0.93682 0.0
C3611 C 0.51709 0.55956 0.91471 0.0
C3612 C 0.52382 0.5376 0.91614 0.0
C3613 C 0.53244 0.53362 0.93868 0.0
C3614 C 0.516 0.60219 0.93698 0.0
C3615 C 0.52091 0.51742 0.89393 0.0
H3616 H 0.4565 0.55861 0.85641 0.0
H3617 H 0.52357 0.5834 0.83909 0.0
H3618 H 0.47055 0.53097 0.90302 0.0
H3619 H 0.46949 0.56137 0.9172 0.0
H3620 H 0.44927 0.54395 0.89155 0.0
H3621 H 0.55543 0.59335 0.86888 0.0
H3622 H 0.55244 0.5886 0.8989 0.0
H3623 H 0.55226 0.56305 0.87499 0.0
H3624 H 0.52799 0.58548 0.9754 0.0
H3625 H 0.53782 0.51721 0.93857 0.0
H3626 H 0.49777 0.59984 0.93197 0.0
H3627 H 0.52525 0.61084 0.92347 0.0
H3628 H 0.52146 0.61509 0.95484 0.0
H3629 H 0.5027 0.5075 0.88919 0.0
H3630 H 0.53026 0.50371 0.89666 0.0
H3631 H 0.52662 0.52526 0.87843 0.0
C3632 C 0.79727 0.21841 0.09313 0.0
C3633 C 0.77748 0.19903 0.08714 0.0
C3634 C 0.80219 0.23355 0.11609 0.0
C3635 C 0.78725 0.22827 0.13317 0.0
C3636 C 0.76759 0.20806 0.12731 0.0
C3637 C 0.76267 0.19388 0.10397 0.0
C3638 C 0.82327 0.25509 0.12212 0.0
C3639 C 0.75181 0.20141 0.14553 0.0
C3640 C 0.81054 0.25181 0.19784 0.0
C3641 C 0.80143 0.27187 0.2038 0.0
C3642 C 0.80615 0.23742 0.17468 0.0
C3643 C 0.79248 0.24365 0.15738 0.0
C3644 C 0.7836 0.2643 0.16324 0.0
C3645 C 0.78836 0.27846 0.18669 0.0
C3646 C 0.81527 0.21502 0.16904 0.0
C3647 C 0.76871 0.27094 0.14495 0.0
H3648 H 0.80857 0.22193 0.07975 0.0
H3649 H 0.74753 0.17844 0.09897 0.0
H3650 H 0.81889 0.27255 0.12935 0.0
H3651 H 0.83491 0.25218 0.13628 0.0
H3652 H 0.83233 0.25743 0.10627 0.0
H3653 H 0.7397 0.18273 0.1391 0.0
H3654 H 0.7614 0.20175 0.16279 0.0
H3655 H 0.74203 0.21526 0.14917 0.0
H3656 H 0.82052 0.24692 0.21154 0.0
H3657 H 0.78122 0.29392 0.19188 0.0
H3658 H 0.82564 0.21635 0.15404 0.0
H3659 H 0.80107 0.1979 0.16317 0.0
H3660 H 0.82576 0.21303 0.18474 0.0
H3661 H 0.77801 0.27481 0.1296 0.0
H3662 H 0.76297 0.28741 0.15262 0.0
H3663 H 0.75363 0.25506 0.13776 0.0
C3664 C 0.17725 0.5493 0.30621 0.0
C3665 C 0.16682 0.5566 0.28732 0.0
C3666 C 0.17063 0.55367 0.32918 0.0
C3667 C 0.15329 0.56553 0.33292 0.0
C3668 C 0.14394 0.5745 0.31427 0.0
C3669 C 0.15072 0.56969 0.29164 0.0
C3670 C 0.18147 0.5446 0.34886 0.0
C3671 C 0.12594 0.58815 0.31779 0.0
C3672 C 0.10444 0.55038 0.36545 0.0
C3673 C 0.10701 0.5738 0.3799 0.0
C3674 C 0.12174 0.5457 0.35259 0.0
C3675 C 0.14171 0.56512 0.35436 0.0
C3676 C 0.14561 0.58738 0.37186 0.0
C3677 C 0.12785 0.59171 0.38431 0.0
C3678 C 0.11737 0.52128 0.33473 0.0
C3679 C 0.16755 0.60751 0.37548 0.0
H3680 H 0.19021 0.53974 0.30296 0.0
H3681 H 0.14334 0.57623 0.27725 0.0
H3682 H 0.18102 0.55568 0.36694 0.0
H3683 H 0.17227 0.525 0.34812 0.0
H3684 H 0.19928 0.54521 0.34643 0.0
H3685 H 0.12118 0.59456 0.30152 0.0
H3686 H 0.11051 0.57585 0.32231 0.0
H3687 H 0.13197 0.60462 0.33285 0.0
H3688 H 0.08854 0.53617 0.36343 0.0
H3689 H 0.13003 0.60918 0.39697 0.0
H3690 H 0.13265 0.51446 0.33455 0.0
H3691 H 0.11295 0.52396 0.31647 0.0
H3692 H 0.1032 0.50682 0.33879 0.0
H3693 H 0.18207 0.59937 0.37488 0.0
H3694 H 0.16967 0.621 0.39287 0.0
H3695 H 0.16786 0.61774 0.36081 0.0
C3696 C 0.82547 0.85372 0.61533 0.0
C3697 C 0.80952 0.84727 0.59492 0.0
C3698 C 0.81993 0.84595 0.63645 0.0
C3699 C 0.79796 0.83082 0.63699 0.0
C3700 C 0.78157 0.82467 0.61653 0.0
C3701 C 0.7875 0.83321 0.59569 0.0
C3702 C 0.83791 0.8531 0.65785 0.0
C3703 C 0.75804 0.80852 0.61649 0.0
C3704 C 0.79744 0.79061 0.68257 0.0
C3705 C 0.79217 0.80538 0.7027 0.0
C3706 C 0.79817 0.798 0.66057 0.0
C3707 C 0.79295 0.8204 0.65858 0.0
C3708 C 0.78598 0.83436 0.67848 0.0
C3709 C 0.78612 0.82692 0.70049 0.0
C3710 C 0.80613 0.78278 0.64003 0.0
C3711 C 0.77986 0.85807 0.67714 0.0
H3712 H 0.84252 0.86456 0.61458 0.0
H3713 H 0.77527 0.82806 0.57975 0.0
H3714 H 0.83146 0.86116 0.67425 0.0
H3715 H 0.84251 0.8363 0.66106 0.0
H3716 H 0.85343 0.86677 0.65524 0.0
H3717 H 0.74732 0.80517 0.5991 0.0
H3718 H 0.75883 0.79035 0.62019 0.0
H3719 H 0.74985 0.8174 0.63102 0.0
H3720 H 0.80255 0.77417 0.68447 0.0
H3721 H 0.78202 0.83826 0.71614 0.0
H3722 H 0.82308 0.79325 0.63695 0.0
H3723 H 0.79457 0.77932 0.62324 0.0
H3724 H 0.80728 0.76466 0.64364 0.0
H3725 H 0.79557 0.87345 0.67954 0.0
H3726 H 0.76949 0.86298 0.69144 0.0
H3727 H 0.77045 0.85657 0.65943 0.0
C3728 C 0.76105 0.46357 0.49956 0.0
C3729 C 0.77672 0.46506 0.51893 0.0
C3730 C 0.74361 0.47482 0.50294 0.0
C3731 C 0.74267 0.4885 0.52603 0.0
C3732 C 0.75874 0.49015 0.54565 0.0
C3733 C 0.77545 0.47787 0.54189 0.0
C3734 C 0.72665 0.47259 0.48175 0.0
C3735 C 0.75851 0.50512 0.57044 0.0
C3736 C 0.71494 0.54024 0.53707 0.0
C3737 C 0.6959 0.52897 0.54681 0.0
C3738 C 0.72962 0.5266 0.52831 0.0
C3739 C 0.72508 0.50143 0.5299 0.0
C3740 C 0.70502 0.4896 0.53821 0.0
C3741 C 0.69048 0.50361 0.54652 0.0
C3742 C 0.75095 0.53966 0.51948 0.0
C3743 C 0.69991 0.46275 0.54013 0.0
H3744 H 0.76251 0.45362 0.48183 0.0
H3745 H 0.78806 0.4791 0.55662 0.0
H3746 H 0.70921 0.46755 0.48652 0.0
H3747 H 0.72951 0.49077 0.47652 0.0
H3748 H 0.72799 0.45848 0.46597 0.0
H3749 H 0.7736 0.50647 0.58297 0.0
H3750 H 0.75789 0.5242 0.56957 0.0
H3751 H 0.74319 0.49637 0.57797 0.0
H3752 H 0.71897 0.56 0.5376 0.0
H3753 H 0.67574 0.49521 0.55435 0.0
H3754 H 0.75394 0.52818 0.5027 0.0
H3755 H 0.76561 0.54254 0.53314 0.0
H3756 H 0.75032 0.55804 0.51614 0.0
H3757 H 0.70157 0.45089 0.52293 0.0
H3758 H 0.68269 0.4558 0.54494 0.0
H3759 H 0.7123 0.46074 0.55411 0.0
C3760 C 0.20977 0.16301 0.49968 0.0
C3761 C 0.23023 0.1567 0.49755 0.0
C3762 C 0.1892 0.1448 0.49762 0.0
C3763 C 0.18881 0.11941 0.49318 0.0
C3764 C 0.20921 0.11275 0.48993 0.0
C3765 C 0.22971 0.13147 0.49226 0.0
C3766 C 0.16802 0.15295 0.5015 0.0
C3767 C 0.2094 0.08587 0.48443 0.0
C3768 C 0.14136 0.08128 0.5201 0.0
C3769 C 0.12429 0.07182 0.5006 0.0
C3770 C 0.16283 0.09556 0.51755 0.0
C3771 C 0.1675 0.10046 0.49481 0.0
C3772 C 0.15076 0.0895 0.47464 0.0
C3773 C 0.12929 0.07518 0.47777 0.0
C3774 C 0.18014 0.10653 0.53952 0.0
C3775 C 0.15499 0.09415 0.45008 0.0
H3776 H 0.20983 0.18238 0.50367 0.0
H3777 H 0.24533 0.12636 0.49021 0.0
H3778 H 0.154 0.14201 0.48729 0.0
H3779 H 0.16268 0.1496 0.51896 0.0
H3780 H 0.17058 0.17297 0.50166 0.0
H3781 H 0.22665 0.08371 0.48278 0.0
H3782 H 0.20243 0.07666 0.49872 0.0
H3783 H 0.19841 0.07602 0.46737 0.0
H3784 H 0.13778 0.07784 0.53757 0.0
H3785 H 0.11613 0.0677 0.46262 0.0
H3786 H 0.18373 0.12706 0.54364 0.0
H3787 H 0.19623 0.10198 0.53613 0.0
H3788 H 0.17435 0.09968 0.55555 0.0
H3789 H 0.15423 0.11323 0.44943 0.0
H3790 H 0.14221 0.08086 0.43574 0.0
H3791 H 0.17205 0.0928 0.44626 0.0
C3792 C 0.21563 0.92245 0.75939 0.0
C3793 C 0.2265 0.94719 0.77208 0.0
C3794 C 0.2261 0.90216 0.75853 0.0
C3795 C 0.24839 0.90569 0.77051 0.0
C3796 C 0.25952 0.93068 0.78252 0.0
C3797 C 0.24876 0.95038 0.7832 0.0
C3798 C 0.21291 0.87655 0.74505 0.0
C3799 C 0.28321 0.93679 0.79512 0.0
C3800 C 0.26775 0.85283 0.79507 0.0
C3801 C 0.28224 0.84451 0.77912 0.0
C3802 C 0.25657 0.87149 0.79199 0.0
C3803 C 0.25951 0.88372 0.77243 0.0
C3804 C 0.27426 0.87563 0.75615 0.0
C3805 C 0.28491 0.85626 0.75936 0.0
C3806 C 0.24137 0.87821 0.81013 0.0
C3807 C 0.27866 0.88715 0.7348 0.0
H3808 H 0.1986 0.91864 0.7506 0.0
H3809 H 0.25813 0.96882 0.79298 0.0
H3810 H 0.22371 0.8677 0.73362 0.0
H3811 H 0.20735 0.86479 0.75804 0.0
H3812 H 0.19775 0.87688 0.73357 0.0
H3813 H 0.28978 0.95669 0.80421 0.0
H3814 H 0.28371 0.92535 0.80869 0.0
H3815 H 0.29466 0.93218 0.78193 0.0
H3816 H 0.26486 0.84441 0.8104 0.0
H3817 H 0.29528 0.85033 0.74621 0.0
H3818 H 0.22414 0.87525 0.80094 0.0
H3819 H 0.24774 0.89818 0.81898 0.0
H3820 H 0.24019 0.86709 0.82416 0.0
H3821 H 0.26359 0.87962 0.72106 0.0
H3822 H 0.29347 0.88308 0.72663 0.0
H3823 H 0.28156 0.90758 0.73989 0.0
C3824 C 0.41077 0.97477 0.04026 0.0
C3825 C 0.39307 0.98248 0.03061 0.0
C3826 C 0.43242 0.98314 0.03439 0.0
C3827 C 0.43614 0.99991 0.01886 0.0
C3828 C 0.41876 0.00972 0.01111 0.0
C3829 C 0.39716 1.00088 0.01727 0.0
C3830 C 0.45091 0.97315 0.04402 0.0
C3831 C 0.42259 0.02793 0.99486 0.0
C3832 C 0.49751 0.02844 0.02308 0.0
C3833 C 0.50355 0.01254 0.0044 0.0
C3834 C 0.47516 0.02627 0.02638 0.0
C3835 C 0.45842 0.00701 0.01102 0.0
C3836 C 0.46412 0.99124 0.9915 0.0
C3837 C 0.48692 0.99373 0.9889 0.0
C3838 C 0.46982 0.04285 0.04792 0.0
C3839 C 0.44648 0.97027 0.97489 0.0
H3840 H 0.4072 0.96043 0.05058 0.0
H3841 H 0.38314 0.00636 0.0096 0.0
H3842 H 0.46159 0.96838 0.03006 0.0
H3843 H 0.46199 0.98758 0.05889 0.0
H3844 H 0.44399 0.95633 0.05111 0.0
H3845 H 0.40777 0.03522 0.99206 0.0
H3846 H 0.43762 0.04378 0.00245 0.0
H3847 H 0.42602 0.01866 0.97715 0.0
H3848 H 0.51024 0.04126 0.03653 0.0
H3849 H 0.49167 0.98039 0.97556 0.0
H3850 H 0.46701 0.03264 0.06259 0.0
H3851 H 0.45426 0.04829 0.04356 0.0
H3852 H 0.48386 0.05995 0.05474 0.0
H3853 H 0.44281 0.95387 0.98321 0.0
H3854 H 0.45249 0.96485 0.95732 0.0
H3855 H 0.4305 0.97536 0.97172 0.0
C3856 C 0.88608 0.59327 0.78177 0.0
C3857 C 0.88432 0.58976 0.8052 0.0
C3858 C 0.86983 0.60106 0.76981 0.0
C3859 C 0.85185 0.60608 0.78194 0.0
C3860 C 0.84979 0.60235 0.80548 0.0
C3861 C 0.86609 0.59388 0.81686 0.0
C3862 C 0.87246 0.60471 0.74455 0.0
C3863 C 0.83071 0.60778 0.8187 0.0
C3864 C 0.83125 0.65442 0.75905 0.0
C3865 C 0.81228 0.63977 0.7431 0.0
C3866 C 0.8435 0.64368 0.77307 0.0
C3867 C 0.83669 0.6177 0.77069 0.0
C3868 C 0.81719 0.6028 0.75522 0.0
C3869 C 0.80506 0.61413 0.74156 0.0
C3870 C 0.86447 0.65994 0.78933 0.0
C3871 C 0.8101 0.57488 0.75186 0.0
H3872 H 0.89999 0.58953 0.77252 0.0
H3873 H 0.86476 0.59079 0.83488 0.0
H3874 H 0.85607 0.59737 0.73283 0.0
H3875 H 0.87859 0.62485 0.74497 0.0
H3876 H 0.88476 0.59547 0.73631 0.0
H3877 H 0.83171 0.60398 0.83701 0.0
H3878 H 0.83098 0.62755 0.82022 0.0
H3879 H 0.81428 0.59633 0.80845 0.0
H3880 H 0.83706 0.67421 0.75989 0.0
H3881 H 0.79026 0.6029 0.72933 0.0
H3882 H 0.87969 0.65622 0.7819 0.0
H3883 H 0.86459 0.65565 0.80743 0.0
H3884 H 0.86583 0.68003 0.79122 0.0
H3885 H 0.82161 0.56691 0.74075 0.0
H3886 H 0.79257 0.56661 0.74269 0.0
H3887 H 0.81135 0.56932 0.76933 0.0
C3888 C 0.86954 0.66711 0.01946 0.0
C3889 C 0.85109 0.65423 0.00193 0.0
C3890 C 0.88684 0.65626 0.0247 0.0
C3891 C 0.8856 0.63189 0.0122 0.0
C3892 C 0.86749 0.61919 0.99388 0.0
C3893 C 0.8505 0.63054 0.98891 0.0
C3894 C 0.90605 0.67053 0.04415 0.0
C3895 C 0.86545 0.59311 0.98029 0.0
C3896 C 0.93721 0.60729 0.0185 0.0
C3897 C 0.93167 0.59271 0.03559 0.0
C3898 C 0.92226 0.61978 0.01029 0.0
C3899 C 0.9017 0.6186 0.02012 0.0
C3900 C 0.8961 0.60424 0.0375 0.0
C3901 C 0.91073 0.59096 0.04442 0.0
C3902 C 0.92852 0.63431 0.99118 0.0
C3903 C 0.87473 0.60317 0.04913 0.0
H3904 H 0.87032 0.68558 0.02937 0.0
H3905 H 0.83635 0.62046 0.97532 0.0
H3906 H 0.90681 0.65996 0.05842 0.0
H3907 H 0.92233 0.67296 0.0366 0.0
H3908 H 0.90436 0.68916 0.05245 0.0
H3909 H 0.85213 0.58703 0.96461 0.0
H3910 H 0.88175 0.59172 0.97396 0.0
H3911 H 0.86122 0.58006 0.99244 0.0
H3912 H 0.95334 0.60931 0.01166 0.0
H3913 H 0.90557 0.57917 0.05688 0.0
H3914 H 0.93115 0.65438 0.99874 0.0
H3915 H 0.91457 0.62862 0.97617 0.0
H3916 H 0.94415 0.63165 0.9839 0.0
H3917 H 0.87493 0.62212 0.05868 0.0
H3918 H 0.87272 0.59094 0.06221 0.0
H3919 H 0.85975 0.59636 0.03527 0.0
C3920 C 0.21412 0.11047 0.79526 0.0
C3921 C 0.21873 0.08914 0.78183 0.0
C3922 C 0.22761 0.13491 0.79637 0.0
C3923 C 0.24651 0.13905 0.78342 0.0
C3924 C 0.25179 0.11765 0.77033 0.0
C3925 C 0.23808 0.09314 0.76984 0.0
C3926 C 0.22091 0.15643 0.81084 0.0
C3927 C 0.27157 0.12071 0.75611 0.0
C3928 C 0.26137 0.20293 0.76562 0.0
C3929 C 0.28118 0.21688 0.78104 0.0
C3930 C 0.25086 0.17768 0.76547 0.0
C3931 C 0.25928 0.16562 0.78214 0.0
C3932 C 0.27895 0.17974 0.79832 0.0
C3933 C 0.28982 0.20474 0.79724 0.0
C3934 C 0.23053 0.16386 0.74724 0.0
C3935 C 0.28808 0.16878 0.8175 0.0
H3936 H 0.19937 0.10812 0.8047 0.0
H3937 H 0.24195 0.07721 0.75915 0.0
H3938 H 0.23596 0.17078 0.82116 0.0
H3939 H 0.21256 0.16524 0.79854 0.0
H3940 H 0.20895 0.15041 0.82355 0.0
H3941 H 0.27274 0.10269 0.74552 0.0
H3942 H 0.2702 0.13316 0.7437 0.0
H3943 H 0.28746 0.12958 0.76846 0.0
H3944 H 0.25396 0.21152 0.75319 0.0
H3945 H 0.3048 0.21504 0.80964 0.0
H3946 H 0.21522 0.15987 0.75643 0.0
H3947 H 0.23264 0.14579 0.73789 0.0
H3948 H 0.22768 0.17459 0.7336 0.0
H3949 H 0.27592 0.16639 0.83082 0.0
H3950 H 0.30466 0.18079 0.82702 0.0
H3951 H 0.28993 0.15015 0.80968 0.0
C3952 C 0.37582 0.96602 0.26633 0.0
C3953 C 0.39215 0.97773 0.28597 0.0
C3954 C 0.36022 0.94362 0.26678 0.0
C3955 C 0.36139 0.93341 0.28739 0.0
C3956 C 0.37663 0.94656 0.30803 0.0
C3957 C 0.39207 0.96863 0.30697 0.0
C3958 C 0.34406 0.92974 0.24446 0.0
C3959 C 0.37802 0.93624 0.33032 0.0
C3960 C 0.31727 0.87331 0.28284 0.0
C3961 C 0.32983 0.85656 0.27616 0.0
C3962 C 0.3279 0.89874 0.28895 0.0
C3963 C 0.3507 0.90704 0.28525 0.0
C3964 C 0.36317 0.88996 0.27749 0.0
C3965 C 0.35265 0.86476 0.27377 0.0
C3966 C 0.31484 0.9166 0.29898 0.0
C3967 C 0.38713 0.89813 0.27173 0.0
H3968 H 0.37607 0.97359 0.25034 0.0
H3969 H 0.40487 0.97815 0.32214 0.0
H3970 H 0.34879 0.9127 0.23645 0.0
H3971 H 0.32662 0.92381 0.24901 0.0
H3972 H 0.34414 0.94114 0.23076 0.0
H3973 H 0.3887 0.95028 0.34577 0.0
H3974 H 0.36088 0.92947 0.33534 0.0
H3975 H 0.38533 0.92021 0.32676 0.0
H3976 H 0.29927 0.86659 0.28308 0.0
H3977 H 0.36192 0.85141 0.26775 0.0
H3978 H 0.31473 0.9302 0.28755 0.0
H3979 H 0.32323 0.92729 0.31706 0.0
H3980 H 0.29713 0.90693 0.30053 0.0
H3981 H 0.38753 0.90839 0.25706 0.0
H3982 H 0.39425 0.88221 0.26596 0.0
H3983 H 0.39826 0.9109 0.28759 0.0
C3984 C 0.57812 0.3832 0.57559 0.0
C3985 C 0.5996 0.37919 0.57373 0.0
C3986 C 0.57232 0.40337 0.56792 0.0
C3987 C 0.58846 0.42064 0.55861 0.0
C3988 C 0.61025 0.41685 0.55706 0.0
C3989 C 0.6154 0.39623 0.56427 0.0
C3990 C 0.54867 0.40587 0.56931 0.0
C3991 C 0.62844 0.43492 0.54814 0.0
C3992 C 0.57312 0.46313 0.51867 0.0
C3993 C 0.57706 0.48602 0.53498 0.0
C3994 C 0.57549 0.44153 0.52625 0.0
C3995 C 0.58289 0.44277 0.55071 0.0
C3996 C 0.58643 0.46584 0.56729 0.0
C3997 C 0.58334 0.48695 0.5593 0.0
C3998 C 0.57083 0.4175 0.50785 0.0
C3999 C 0.59432 0.46853 0.59346 0.0
H4000 H 0.5656 0.37022 0.58261 0.0
H4001 H 0.6321 0.3937 0.56285 0.0
H4002 H 0.54908 0.42484 0.57892 0.0
H4003 H 0.54004 0.40302 0.55089 0.0
H4004 H 0.53852 0.39219 0.57849 0.0
H4005 H 0.64403 0.4287 0.54658 0.0
H4006 H 0.62232 0.43743 0.53035 0.0
H4007 H 0.63277 0.45334 0.56071 0.0
H4008 H 0.56863 0.46223 0.49979 0.0
H4009 H 0.58677 0.50458 0.57202 0.0
H4010 H 0.55938 0.40228 0.51419 0.0
H4011 H 0.58684 0.41242 0.50535 0.0
H4012 H 0.56306 0.4188 0.4902 0.0
H4013 H 0.58146 0.45611 0.60142 0.0
H4014 H 0.5974 0.48788 0.60389 0.0
H4015 H 0.61014 0.46284 0.59534 0.0
C4016 C 0.44791 0.75062 0.37136 0.0
C4017 C 0.45296 0.7633 0.39559 0.0
C4018 C 0.42946 0.75278 0.35621 0.0
C4019 C 0.41621 0.76899 0.36494 0.0
C4020 C 0.42188 0.78242 0.38916 0.0
C4021 C 0.43958 0.77899 0.4041 0.0
C4022 C 0.4242 0.73749 0.33086 0.0
C4023 C 0.4093 0.80073 0.39944 0.0
C4024 C 0.3815 0.79306 0.3204 0.0
C4025 C 0.35904 0.7812 0.3227 0.0
C4026 C 0.4001 0.78927 0.33381 0.0
C4027 C 0.39649 0.77217 0.34921 0.0
C4028 C 0.37376 0.75939 0.35074 0.0
C4029 C 0.35548 0.76456 0.33812 0.0
C4030 C 0.42365 0.80412 0.33193 0.0
C4031 C 0.3687 0.73972 0.36533 0.0
H4032 H 0.45793 0.7384 0.36441 0.0
H4033 H 0.44328 0.78916 0.42264 0.0
H4034 H 0.40574 0.73106 0.325 0.0
H4035 H 0.43215 0.74897 0.31855 0.0
H4036 H 0.43098 0.72104 0.329 0.0
H4037 H 0.41763 0.81221 0.4173 0.0
H4038 H 0.40801 0.81329 0.38712 0.0
H4039 H 0.39188 0.79064 0.40145 0.0
H4040 H 0.38453 0.80595 0.30856 0.0
H4041 H 0.33829 0.75508 0.33991 0.0
H4042 H 0.43357 0.79148 0.32428 0.0
H4043 H 0.43236 0.81423 0.35008 0.0
H4044 H 0.42368 0.81777 0.32046 0.0
H4045 H 0.37705 0.72507 0.35872 0.0
H4046 H 0.35029 0.73097 0.36429 0.0
H4047 H 0.37563 0.74779 0.38441 0.0
C4048 C 0.07261 0.72317 0.06965 0.0
C4049 C 0.09182 0.73846 0.063 0.0
C4050 C 0.06771 0.69694 0.06352 0.0
C4051 C 0.08265 0.68539 0.05099 0.0
C4052 C 0.10164 0.70067 0.0435 0.0
C4053 C 0.1058 0.72681 0.04931 0.0
C4054 C 0.04676 0.68156 0.07107 0.0
C4055 C 0.11805 0.68945 0.03003 0.0
C4056 C 0.08262 0.6223 0.06502 0.0
C4057 C 0.07142 0.60538 0.04391 0.0
C4058 C 0.0876 0.64818 0.06681 0.0
C4059 C 0.07955 0.65769 0.04777 0.0
C4060 C 0.068 0.64058 0.02637 0.0
C4061 C 0.06446 0.61473 0.02456 0.0
C4062 C 0.10128 0.66539 0.08933 0.0
C4063 C 0.05794 0.64927 0.00595 0.0
H4064 H 0.06152 0.73171 0.08004 0.0
H4065 H 0.12068 0.73818 0.0439 0.0
H4066 H 0.03752 0.66617 0.0559 0.0
H4067 H 0.05161 0.67313 0.08585 0.0
H4068 H 0.0352 0.69283 0.07739 0.0
H4069 H 0.13288 0.70379 0.02702 0.0
H4070 H 0.12411 0.67706 0.04008 0.0
H4071 H 0.10944 0.67791 0.01234 0.0
H4072 H 0.08759 0.61522 0.08023 0.0
H4073 H 0.05498 0.60178 0.00851 0.0
H4074 H 0.09055 0.67561 0.09937 0.0
H4075 H 0.11544 0.67935 0.08463 0.0
H4076 H 0.10834 0.65524 0.10131 0.0
H4077 H 0.04212 0.65377 0.01073 0.0
H4078 H 0.05378 0.63474 0.98906 0.0
H4079 H 0.06947 0.66635 0.00267 0.0
C4080 C 0.09149 0.2634 0.89598 0.0
C4081 C 0.07783 0.27785 0.889 0.0
C4082 C 0.11172 0.26272 0.88598 0.0
C4083 C 0.11849 0.27668 0.86843 0.0
C4084 C 0.10441 0.29072 0.86094 0.0
C4085 C 0.08449 0.29125 0.87136 0.0
C4086 C 0.12611 0.24763 0.89476 0.0
C4087 C 0.11046 0.30538 0.84187 0.0
C4088 C 0.17864 0.30146 0.85474 0.0
C4089 C 0.17829 0.28645 0.83214 0.0
C4090 C 0.16003 0.29707 0.86785 0.0
C4091 C 0.14035 0.27745 0.85798 0.0
C4092 C 0.14071 0.26109 0.836 0.0
C4093 C 0.15961 0.26583 0.82335 0.0
C4094 C 0.16076 0.31463 0.89144 0.0
C4095 C 0.1205 0.23951 0.82507 0.0
H4096 H 0.08664 0.25304 0.90967 0.0
H4097 H 0.07407 0.30228 0.86562 0.0
H4098 H 0.13224 0.23697 0.87955 0.0
H4099 H 0.14116 0.26031 0.90667 0.0
H4100 H 0.1168 0.2345 0.90502 0.0
H4101 H 0.09778 0.31532 0.83796 0.0
H4102 H 0.12715 0.31919 0.84764 0.0
H4103 H 0.1118 0.29273 0.82501 0.0
H4104 H 0.19293 0.31759 0.86148 0.0
H4105 H 0.15919 0.25434 0.80577 0.0
H4106 H 0.15501 0.30405 0.90527 0.0
H4107 H 0.14907 0.32619 0.88928 0.0
H4108 H 0.17798 0.32713 0.89801 0.0
H4109 H 0.11631 0.2272 0.83789 0.0
H4110 H 0.12346 0.22836 0.80803 0.0
H4111 H 0.10558 0.24636 0.82145 0.0
C4112 C 0.61973 0.78166 0.96501 0.0
C4113 C 0.61603 0.78009 0.94036 0.0
C4114 C 0.61046 0.76131 0.97464 0.0
C4115 C 0.59739 0.73906 0.95903 0.0
C4116 C 0.59502 0.73679 0.93392 0.0
C4117 C 0.60459 0.7575 0.92478 0.0
C4118 C 0.61362 0.76407 1.00156 0.0
C4119 C 0.58103 0.71329 0.91692 0.0
C4120 C 0.58846 0.68672 0.9906 0.0
C4121 C 0.56777 0.68718 0.99917 0.0
C4122 C 0.59739 0.7021 0.97548 0.0
C4123 C 0.58562 0.7187 0.96949 0.0
C4124 C 0.56419 0.71837 0.97694 0.0
C4125 C 0.55543 0.70243 0.99174 0.0
C4126 C 0.62004 0.70174 0.9672 0.0
C4127 C 0.55125 0.736 0.97074 0.0
H4128 H 0.62863 0.79928 0.97687 0.0
H4129 H 0.60147 0.75652 0.90568 0.0
H4130 H 0.59696 0.76005 0.00835 0.0
H4131 H 0.62233 0.75049 0.00619 0.0
H4132 H 0.62367 0.78301 0.01109 0.0
H4133 H 0.58405 0.71323 0.898 0.0
H4134 H 0.58469 0.69668 0.92184 0.0
H4135 H 0.56286 0.7116 0.91811 0.0
H4136 H 0.59809 0.67494 0.99636 0.0
H4137 H 0.53917 0.70223 0.99786 0.0
H4138 H 0.63301 0.71891 0.97672 0.0
H4139 H 0.61945 0.70139 0.9477 0.0
H4140 H 0.62549 0.68549 0.9707 0.0
H4141 H 0.55948 0.75495 0.98162 0.0
H4142 H 0.53344 0.73052 0.97443 0.0
H4143 H 0.5514 0.7369 0.95156 0.0
C4144 C 0.0806 0.75726 0.67751 0.0
C4145 C 0.07008 0.76371 0.69774 0.0
C4146 C 0.10236 0.75443 0.68019 0.0
C4147 C 0.11354 0.75871 0.70361 0.0
C4148 C 0.10381 0.76796 0.7239 0.0
C4149 C 0.08185 0.76996 0.72068 0.0
C4150 C 0.11225 0.7445 0.65825 0.0
C4151 C 0.11576 0.77366 0.74915 0.0
C4152 C 0.14839 0.72106 0.72535 0.0
C4153 C 0.16897 0.73921 0.73249 0.0
C4154 C 0.1305 0.72618 0.7129 0.0
C4155 C 0.13355 0.75002 0.70774 0.0
C4156 C 0.15499 0.76731 0.71237 0.0
C4157 C 0.17251 0.76182 0.72502 0.0
C4158 C 0.10774 0.70715 0.70781 0.0
C4159 C 0.15878 0.79249 0.70615 0.0
H4160 H 0.07108 0.75216 0.65975 0.0
H4161 H 0.0734 0.77499 0.7361 0.0
H4162 H 0.13069 0.75316 0.65995 0.0
H4163 H 0.10959 0.7242 0.65624 0.0
H4164 H 0.10405 0.74764 0.64165 0.0
H4165 H 0.10588 0.7812 0.76276 0.0
H4166 H 0.11884 0.75656 0.7535 0.0
H4167 H 0.1324 0.7874 0.75066 0.0
H4168 H 0.14594 0.7034 0.73062 0.0
H4169 H 0.18848 0.77595 0.73048 0.0
H4170 H 0.09975 0.7055 0.68939 0.0
H4171 H 0.09643 0.71316 0.72053 0.0
H4172 H 0.10901 0.68854 0.70982 0.0
H4173 H 0.15164 0.79049 0.6873 0.0
H4174 H 0.17698 0.80267 0.70854 0.0
H4175 H 0.14992 0.80389 0.71778 0.0
C4176 C 0.14652 0.42558 0.44129 0.0
C4177 C 0.13075 0.4059 0.4257 0.0
C4178 C 0.14193 0.44861 0.44733 0.0
C4179 C 0.12095 0.451 0.43797 0.0
C4180 C 0.10689 0.43232 0.41927 0.0
C4181 C 0.11215 0.40981 0.4132 0.0
C4182 C 0.15762 0.46887 0.46653 0.0
C4183 C 0.08436 0.43426 0.40885 0.0
C4184 C 0.08763 0.4754 0.48439 0.0
C4185 C 0.0872 0.49773 0.47839 0.0
C4186 C 0.099 0.46018 0.47147 0.0
C4187 C 0.11054 0.46808 0.45254 0.0
C4188 C 0.11055 0.49104 0.44681 0.0
C4189 C 0.09868 0.50569 0.45989 0.0
C4190 C 0.09797 0.43533 0.47763 0.0
C4191 C 0.12312 0.50021 0.42718 0.0
H4192 H 0.16104 0.42231 0.45056 0.0
H4193 H 0.10029 0.39433 0.40073 0.0
H4194 H 0.15759 0.48749 0.46348 0.0
H4195 H 0.15185 0.46749 0.48427 0.0
H4196 H 0.17516 0.46713 0.46716 0.0
H4197 H 0.07721 0.41987 0.39217 0.0
H4198 H 0.07219 0.43174 0.42216 0.0
H4199 H 0.08594 0.45284 0.40487 0.0
H4200 H 0.07844 0.46948 0.49863 0.0
H4201 H 0.09852 0.52345 0.45582 0.0
H4202 H 0.11526 0.43407 0.48265 0.0
H4203 H 0.09011 0.4201 0.4618 0.0
H4204 H 0.08806 0.4322 0.49277 0.0
H4205 H 0.14149 0.50634 0.43349 0.0
H4206 H 0.11803 0.51613 0.42224 0.0
H4207 H 0.12034 0.48521 0.41085 0.0
C4208 C 0.43604 0.23496 0.21084 0.0
C4209 C 0.45472 0.25497 0.21114 0.0
C4210 C 0.41671 0.23903 0.22007 0.0
C4211 C 0.41664 0.26361 0.2303 0.0
C4212 C 0.43577 0.28371 0.23096 0.0
C4213 C 0.45457 0.27918 0.22089 0.0
C4214 C 0.39626 0.21722 0.21824 0.0
C4215 C 0.43626 0.30991 0.24197 0.0
C4216 C 0.35856 0.27208 0.23299 0.0
C4217 C 0.35545 0.27014 0.25653 0.0
C4218 C 0.37903 0.27145 0.22452 0.0
C4219 C 0.39635 0.26813 0.23997 0.0
C4220 C 0.39336 0.26661 0.26398 0.0
C4221 C 0.37267 0.26747 0.272 0.0
C4222 C 0.38158 0.27299 0.19875 0.0
C4223 C 0.41144 0.26256 0.28067 0.0
H4224 H 0.43625 0.21627 0.2025 0.0
H4225 H 0.46913 0.29446 0.22063 0.0
H4226 H 0.39036 0.21691 0.23608 0.0
H4227 H 0.38223 0.21905 0.20612 0.0
H4228 H 0.39974 0.19918 0.21114 0.0
H4229 H 0.45278 0.32338 0.24189 0.0
H4230 H 0.42304 0.3151 0.23174 0.0
H4231 H 0.43252 0.31104 0.26074 0.0
H4232 H 0.34468 0.2733 0.22099 0.0
H4233 H 0.36976 0.26555 0.29009 0.0
H4234 H 0.38155 0.25452 0.18817 0.0
H4235 H 0.39788 0.28624 0.19759 0.0
H4236 H 0.36766 0.2789 0.19033 0.0
H4237 H 0.41262 0.24324 0.27499 0.0
H4238 H 0.40776 0.26548 0.29958 0.0
H4239 H 0.42815 0.27522 0.27981 0.0
C4240 C 0.63977 0.49612 0.35017 0.0
C4241 C 0.63904 0.51431 0.33666 0.0
C4242 C 0.63088 0.49656 0.37294 0.0
C4243 C 0.62098 0.51572 0.38333 0.0
C4244 C 0.62045 0.53407 0.3698 0.0
C4245 C 0.62917 0.53308 0.34727 0.0
C4246 C 0.63177 0.47609 0.38579 0.0
C4247 C 0.61077 0.55529 0.37929 0.0
C4248 C 0.57964 0.51029 0.43299 0.0
C4249 C 0.59324 0.52423 0.45466 0.0
C4250 C 0.58833 0.50682 0.41026 0.0
C4251 C 0.61159 0.51729 0.4082 0.0
C4252 C 0.62543 0.53106 0.43005 0.0
C4253 C 0.61631 0.53426 0.45249 0.0
C4254 C 0.57229 0.49218 0.38818 0.0
C4255 C 0.65019 0.54278 0.42978 0.0
H4256 H 0.64694 0.48124 0.34282 0.0
H4257 H 0.62829 0.54764 0.33787 0.0
H4258 H 0.63967 0.48405 0.40463 0.0
H4259 H 0.61432 0.4649 0.38636 0.0
H4260 H 0.64133 0.4636 0.37687 0.0
H4261 H 0.61033 0.56747 0.36638 0.0
H4262 H 0.59336 0.54806 0.38345 0.0
H4263 H 0.62108 0.56672 0.39626 0.0
H4264 H 0.56191 0.50224 0.43359 0.0
H4265 H 0.62747 0.54509 0.46851 0.0
H4266 H 0.57871 0.47681 0.37899 0.0
H4267 H 0.57129 0.50431 0.37537 0.0
H4268 H 0.55501 0.48429 0.39243 0.0
H4269 H 0.65872 0.52802 0.42436 0.0
H4270 H 0.65861 0.5543 0.44758 0.0
H4271 H 0.65251 0.5546 0.41635 0.0
C4272 C 0.32167 0.87797 0.06474 0.0
C4273 C 0.34349 0.88953 0.0607 0.0
C4274 C 0.31811 0.87059 0.08647 0.0
C4275 C 0.33676 0.87566 0.1043 0.0
C4276 C 0.35845 0.88928 0.10085 0.0
C4277 C 0.36157 0.89566 0.07888 0.0
C4278 C 0.29477 0.85654 0.08999 0.0
C4279 C 0.37881 0.89567 0.11958 0.0
C4280 C 0.33981 0.86794 0.16773 0.0
C4281 C 0.34783 0.84691 0.16487 0.0
C4282 C 0.33316 0.87619 0.1476 0.0
C4283 C 0.3351 0.86313 0.12452 0.0
C4284 C 0.34109 0.84049 0.12167 0.0
C4285 C 0.34741 0.83261 0.14205 0.0
C4286 C 0.32678 0.90035 0.15122 0.0
C4287 C 0.34357 0.82624 0.09729 0.0
H4288 H 0.30766 0.87413 0.05074 0.0
H4289 H 0.37826 0.90566 0.07592 0.0
H4290 H 0.29451 0.83718 0.0907 0.0
H4291 H 0.29018 0.86513 0.10736 0.0
H4292 H 0.28179 0.85605 0.0753 0.0
H4293 H 0.39288 0.91063 0.1161 0.0
H4294 H 0.37456 0.90177 0.13784 0.0
H4295 H 0.38491 0.87894 0.11933 0.0
H4296 H 0.34018 0.87876 0.18563 0.0
H4297 H 0.35363 0.81628 0.1402 0.0
H4298 H 0.31368 0.89994 0.13674 0.0
H4299 H 0.34188 0.91568 0.15078 0.0
H4300 H 0.32051 0.9046 0.16885 0.0
H4301 H 0.32865 0.82392 0.08419 0.0
H4302 H 0.34569 0.80761 0.09795 0.0
H4303 H 0.35862 0.83679 0.0905 0.0
C4304 C 0.94924 0.53919 0.89505 0.0
C4305 C 0.95215 0.54 0.87136 0.0
C4306 C 0.96688 0.53703 0.91026 0.0
C4307 C 0.98726 0.53553 0.90091 0.0
C4308 C 0.98954 0.53463 0.87652 0.0
C4309 C 0.97184 0.53716 0.86193 0.0
C4310 C 0.96416 0.53787 0.93642 0.0
C4311 C 0.01099 0.5323 0.86624 0.0
C4312 C 0.03664 0.56486 0.94761 0.0
C4313 C 0.03895 0.54384 0.95515 0.0
C4314 C 0.02055 0.56224 0.92839 0.0
C4315 C 0.00711 0.53808 0.91716 0.0
C4316 C 0.01147 0.51673 0.92304 0.0
C4317 C 0.02796 0.51996 0.94196 0.0
C4318 C 0.01622 0.58527 0.92198 0.0
C4319 C 0.99693 0.49082 0.91168 0.0
H4320 H 0.93358 0.54094 0.90172 0.0
H4321 H 0.97352 0.53742 0.84323 0.0
H4322 H 0.97155 0.52429 0.9432 0.0
H4323 H 0.97322 0.55664 0.94718 0.0
H4324 H 0.94613 0.534 0.93948 0.0
H4325 H 0.00933 0.53042 0.84647 0.0
H4326 H 0.02508 0.54893 0.87459 0.0
H4327 H 0.01568 0.51593 0.87048 0.0
H4328 H 0.04541 0.58317 0.9583 0.0
H4329 H 0.03035 0.50392 0.94825 0.0
H4330 H 0.99978 0.58726 0.9275 0.0
H4331 H 0.01521 0.58372 0.90229 0.0
H4332 H 0.02959 0.60236 0.93099 0.0
H4333 H 0.98054 0.48775 0.91907 0.0
H4334 H 0.00499 0.47638 0.91545 0.0
H4335 H 0.99326 0.48837 0.89197 0.0
C4336 C 0.32361 0.23714 0.59565 0.0
C4337 C 0.31057 0.24732 0.58147 0.0
C4338 C 0.32599 0.24395 0.62094 0.0
C4339 C 0.31453 0.26075 0.63235 0.0
C4340 C 0.30257 0.27223 0.61815 0.0
C4341 C 0.30103 0.26567 0.59301 0.0
C4342 C 0.33998 0.23228 0.63541 0.0
C4343 C 0.29032 0.2905 0.62942 0.0
C4344 C 0.29495 0.24694 0.69101 0.0
C4345 C 0.30756 0.26786 0.70805 0.0
C4346 C 0.29601 0.24539 0.66638 0.0
C4347 C 0.31234 0.26366 0.6586 0.0
C4348 C 0.32619 0.28428 0.67588 0.0
C4349 C 0.32314 0.28651 0.70034 0.0
C4350 C 0.27973 0.22398 0.64873 0.0
C4351 C 0.34531 0.30298 0.66895 0.0
H4352 H 0.33134 0.22323 0.58704 0.0
H4353 H 0.29127 0.2741 0.58236 0.0
H4354 H 0.34998 0.24613 0.65135 0.0
H4355 H 0.32869 0.21711 0.64194 0.0
H4356 H 0.35166 0.22431 0.62454 0.0
H4357 H 0.27999 0.29594 0.61581 0.0
H4358 H 0.2791 0.28247 0.64189 0.0
H4359 H 0.30273 0.30752 0.64007 0.0
H4360 H 0.28433 0.23153 0.69695 0.0
H4361 H 0.33407 0.30194 0.71362 0.0
H4362 H 0.28888 0.21091 0.64015 0.0
H4363 H 0.27188 0.23083 0.63432 0.0
H4364 H 0.26607 0.21359 0.65751 0.0
H4365 H 0.35946 0.29453 0.66572 0.0
H4366 H 0.35163 0.32009 0.68334 0.0
H4367 H 0.34024 0.30816 0.65211 0.0
C4368 C 0.64518 0.50811 0.17601 0.0
C4369 C 0.63266 0.50788 0.1958 0.0
C4370 C 0.63611 0.51085 0.15304 0.0
C4371 C 0.61377 0.51352 0.14894 0.0
C4372 C 0.60085 0.51222 0.16854 0.0
C4373 C 0.61029 0.50965 0.19118 0.0
C4374 C 0.65086 0.51178 0.1332 0.0
C4375 C 0.57681 0.51382 0.16572 0.0
C4376 C 0.59872 0.54881 0.10004 0.0
C4377 C 0.58827 0.53016 0.07943 0.0
C4378 C 0.6068 0.54375 0.12214 0.0
C4379 C 0.60437 0.51897 0.12498 0.0
C4380 C 0.59255 0.49983 0.10484 0.0
C4381 C 0.58518 0.50556 0.08272 0.0
C4382 C 0.61856 0.56533 0.14251 0.0
C4383 C 0.58812 0.47292 0.10608 0.0
H4384 H 0.6625 0.50732 0.17872 0.0
H4385 H 0.60002 0.50962 0.20578 0.0
H4386 H 0.64175 0.49843 0.11655 0.0
H4387 H 0.65481 0.53061 0.12925 0.0
H4388 H 0.66694 0.50744 0.13795 0.0
H4389 H 0.56903 0.51352 0.18261 0.0
H4390 H 0.57611 0.53106 0.15984 0.0
H4391 H 0.56652 0.49795 0.15156 0.0
H4392 H 0.60127 0.56772 0.09911 0.0
H4393 H 0.57723 0.49038 0.06774 0.0
H4394 H 0.63602 0.56449 0.14743 0.0
H4395 H 0.60964 0.56418 0.15859 0.0
H4396 H 0.61935 0.58355 0.13791 0.0
H4397 H 0.6032 0.46656 0.10172 0.0
H4398 H 0.57349 0.4611 0.09295 0.0
H4399 H 0.5848 0.47013 0.1243 0.0
C4400 C 0.34604 0.88044 0.95625 0.0
C4401 C 0.34572 0.90435 0.95433 0.0
C4402 C 0.34458 0.86226 0.93571 0.0
C4403 C 0.34369 0.86877 0.91317 0.0
C4404 C 0.34479 0.89344 0.91134 0.0
C4405 C 0.34534 0.91102 0.93217 0.0
C4406 C 0.34264 0.83589 0.93799 0.0
C4407 C 0.34397 0.90086 0.88739 0.0
C4408 C 0.35222 0.82627 0.85795 0.0
C4409 C 0.32987 0.81571 0.84741 0.0
C4410 C 0.35707 0.84305 0.8801 0.0
C4411 C 0.33904 0.84927 0.89137 0.0
C4412 C 0.3164 0.8379 0.88113 0.0
C4413 C 0.31213 0.82119 0.85911 0.0
C4414 C 0.38137 0.85531 0.89063 0.0
C4415 C 0.29676 0.84428 0.89274 0.0
H4416 H 0.3462 0.87569 0.97372 0.0
H4417 H 0.34519 0.92977 0.93116 0.0
H4418 H 0.32594 0.82369 0.92908 0.0
H4419 H 0.35569 0.82887 0.92878 0.0
H4420 H 0.34447 0.83424 0.95701 0.0
H4421 H 0.34864 0.92135 0.88947 0.0
H4422 H 0.35548 0.89325 0.87602 0.0
H4423 H 0.32661 0.89308 0.87771 0.0
H4424 H 0.36585 0.82239 0.84827 0.0
H4425 H 0.29508 0.8142 0.85018 0.0
H4426 H 0.38405 0.85344 0.90948 0.0
H4427 H 0.38546 0.87547 0.89088 0.0
H4428 H 0.3933 0.84727 0.88024 0.0
H4429 H 0.2958 0.83814 0.90998 0.0
H4430 H 0.28036 0.83529 0.88119 0.0
H4431 H 0.29914 0.86464 0.89684 0.0
C4432 C 0.95377 0.5478 0.74197 0.0
C4433 C 0.96475 0.53591 0.75634 0.0
C4434 C 0.95761 0.54699 0.71814 0.0
C4435 C 0.97316 0.53446 0.70895 0.0
C4436 C 0.98419 0.52224 0.7234 0.0
C4437 C 0.97951 0.5228 0.74698 0.0
C4438 C 0.94487 0.55916 0.70284 0.0
C4439 C 1.00126 0.50903 0.71415 0.0
C4440 C 0.98222 0.50912 0.64703 0.0
C4441 C 0.00305 0.52561 0.64639 0.0
C4442 C 0.96986 0.51385 0.66604 0.0
C4443 C 0.97928 0.53502 0.68473 0.0
C4444 C 0.99874 0.55334 0.68222 0.0
C4445 C 0.01051 0.54835 0.66279 0.0
C4446 C 0.94852 0.49456 0.66767 0.0
C4447 C 0.00893 0.5764 0.70164 0.0
H4448 H 0.9417 0.55721 0.74923 0.0
H4449 H 0.98762 0.51339 0.75821 0.0
H4450 H 0.9567 0.57214 0.69438 0.0
H4451 H 0.93358 0.54479 0.6881 0.0
H4452 H 0.93444 0.56951 0.71334 0.0
H4453 H 0.00796 0.5002 0.72766 0.0
H4454 H 0.9935 0.49444 0.69782 0.0
H4455 H 0.01564 0.52242 0.7091 0.0
H4456 H 0.97644 0.49182 0.63369 0.0
H4457 H 0.02655 0.56113 0.66163 0.0
H4458 H 0.93621 0.50327 0.67653 0.0
H4459 H 0.95267 0.48181 0.67857 0.0
H4460 H 0.94046 0.48334 0.64962 0.0
H4461 H 0.99573 0.58519 0.70804 0.0
H4462 H 0.02204 0.59026 0.69535 0.0
H4463 H 0.01688 0.57125 0.7172 0.0
C4464 C 0.29305 0.22324 0.42795 0.0
C4465 C 0.30977 0.23437 0.44756 0.0
C4466 C 0.29535 0.22977 0.40568 0.0
C4467 C 0.31492 0.24787 0.40294 0.0
C4468 C 0.3322 0.25871 0.4226 0.0
C4469 C 0.32936 0.25189 0.44483 0.0
C4470 C 0.27642 0.21792 0.38531 0.0
C4471 C 0.35321 0.2782 0.42041 0.0
C4472 C 0.32284 0.24738 0.33765 0.0
C4473 C 0.31382 0.2666 0.33367 0.0
C4474 C 0.32477 0.24219 0.3606 0.0
C4475 C 0.31662 0.25593 0.37969 0.0
C4476 C 0.30798 0.27581 0.37576 0.0
C4477 C 0.30703 0.28115 0.35283 0.0
C4478 C 0.33486 0.22149 0.36421 0.0
C4479 C 0.29836 0.29043 0.39526 0.0
H4480 H 0.27778 0.20995 0.43031 0.0
H4481 H 0.34205 0.26081 0.46021 0.0
H4482 H 0.27002 0.23246 0.37909 0.0
H4483 H 0.28278 0.20792 0.36987 0.0
H4484 H 0.2621 0.2046 0.39058 0.0
H4485 H 0.36606 0.28284 0.43639 0.0
H4486 H 0.36077 0.2718 0.40418 0.0
H4487 H 0.34873 0.29539 0.41833 0.0
H4488 H 0.32834 0.2364 0.32278 0.0
H4489 H 0.29997 0.29599 0.34959 0.0
H4490 H 0.32142 0.20558 0.36702 0.0
H4491 H 0.34752 0.22775 0.38047 0.0
H4492 H 0.34311 0.21492 0.34855 0.0
H4493 H 0.28155 0.27894 0.39762 0.0
H4494 H 0.29623 0.30788 0.39077 0.0
H4495 H 0.30925 0.29512 0.41268 0.0
C4496 C 0.3615 0.61687 0.54449 0.0
C4497 C 0.34057 0.60196 0.53244 0.0
C4498 C 0.38057 0.60793 0.54329 0.0
C4499 C 0.37823 0.58376 0.52972 0.0
C4500 C 0.35671 0.56799 0.51942 0.0
C4501 C 0.33806 0.57733 0.52102 0.0
C4502 C 0.40327 0.62505 0.55479 0.0
C4503 C 0.35356 0.54188 0.50509 0.0
C4504 C 0.4196 0.56492 0.49094 0.0
C4505 C 0.42619 0.54831 0.50297 0.0
C4506 C 0.40573 0.57896 0.50096 0.0
C4507 C 0.39809 0.57565 0.52316 0.0
C4508 C 0.40607 0.56024 0.53617 0.0
C4509 C 0.42024 0.54672 0.52588 0.0
C4510 C 0.39786 0.59579 0.48692 0.0
C4511 C 0.3984 0.55678 0.56006 0.0
H4512 H 0.36328 0.63592 0.55353 0.0
H4513 H 0.32165 0.5657 0.51224 0.0
H4514 H 0.41443 0.6147 0.56154 0.0
H4515 H 0.41167 0.63439 0.54123 0.0
H4516 H 0.40148 0.63965 0.56988 0.0
H4517 H 0.3355 0.53191 0.499 0.0
H4518 H 0.36257 0.54246 0.48901 0.0
H4519 H 0.36086 0.53103 0.51602 0.0
H4520 H 0.42505 0.56663 0.47359 0.0
H4521 H 0.42603 0.53424 0.53531 0.0
H4522 H 0.39896 0.61398 0.49882 0.0
H4523 H 0.3799 0.58723 0.47931 0.0
H4524 H 0.40792 0.59906 0.47193 0.0
H4525 H 0.39979 0.57502 0.57201 0.0
H4526 H 0.40836 0.5467 0.56921 0.0
H4527 H 0.38036 0.54605 0.5573 0.0
C4528 C 0.89367 0.95402 0.55113 0.0
C4529 C 0.89293 0.92877 0.54746 0.0
C4530 C 0.91422 0.97227 0.55199 0.0
C4531 C 0.93434 0.96502 0.54859 0.0
C4532 C 0.93366 0.93962 0.54534 0.0
C4533 C 0.91315 0.92198 0.54507 0.0
C4534 C 0.91424 0.99918 0.55575 0.0
C4535 C 0.95454 0.93087 0.54135 0.0
C4536 C 0.98231 1.00019 0.52019 0.0
C4537 C 0.99953 0.00972 0.53956 0.0
C4538 C 0.96056 0.98703 0.5232 0.0
C4539 C 0.95582 0.98326 0.54626 0.0
C4540 C 0.9728 0.99419 0.56621 0.0
C4541 C 0.99447 0.00753 0.56265 0.0
C4542 C 0.94307 0.97585 0.50141 0.0
C4543 C 0.96833 0.99085 0.5911 0.0
H4544 H 0.87821 0.95951 0.55306 0.0
H4545 H 0.91293 0.90258 0.54221 0.0
H4546 H 0.92904 0.01117 0.5685 0.0
H4547 H 0.91549 1.00511 0.53842 0.0
H4548 H 0.89859 1.00229 0.56263 0.0
H4549 H 0.951 0.91036 0.53834 0.0
H4550 H 0.9618 0.93682 0.52556 0.0
H4551 H 0.96757 0.9394 0.55716 0.0
H4552 H 0.9859 1.00275 0.50249 0.0
H4553 H 0.00771 0.01521 0.5777 0.0
H4554 H 0.92723 0.98104 0.50463 0.0
H4555 H 0.93898 0.95529 0.49793 0.0
H4556 H 0.94894 0.9819 0.48506 0.0
H4557 H 0.95362 0.99767 0.59609 0.0
H4558 H 0.98311 1.00088 0.60478 0.0
H4559 H 0.964 0.97084 0.59148 0.0
C4560 C 0.90011 0.15804 0.30378 0.0
C4561 C 0.90701 0.14346 0.28408 0.0
C4562 C 0.88919 0.17714 0.30168 0.0
C4563 C 0.8841 0.18286 0.27908 0.0
C4564 C 0.89098 0.16836 0.25896 0.0
C4565 C 0.90211 0.14927 0.2616 0.0
C4566 C 0.88297 0.19122 0.32417 0.0
C4567 C 0.88668 0.17318 0.23433 0.0
C4568 C 0.83617 0.21748 0.27341 0.0
C4569 C 0.8475 0.24225 0.2728 0.0
C4570 C 0.84747 0.19841 0.27472 0.0
C4571 C 0.87153 0.20348 0.27674 0.0
C4572 C 0.88329 0.2288 0.27762 0.0
C4573 C 0.87144 0.24716 0.2751 0.0
C4574 C 0.83337 0.1723 0.27333 0.0
C4575 C 0.90872 0.2368 0.28162 0.0
H4576 H 0.90331 0.15458 0.32148 0.0
H4577 H 0.90713 0.13903 0.24591 0.0
H4578 H 0.88674 0.21134 0.32432 0.0
H4579 H 0.86458 0.18425 0.32481 0.0
H4580 H 0.89205 0.1889 0.34066 0.0
H4581 H 0.89091 0.15944 0.22011 0.0
H4582 H 0.86869 0.17273 0.23035 0.0
H4583 H 0.89702 0.19202 0.23375 0.0
H4584 H 0.81823 0.21248 0.27242 0.0
H4585 H 0.88126 0.26574 0.27491 0.0
H4586 H 0.83707 0.16643 0.2902 0.0
H4587 H 0.83774 0.15936 0.25848 0.0
H4588 H 0.81501 0.17046 0.27034 0.0
H4589 H 0.91462 0.2344 0.29957 0.0
H4590 H 0.91575 0.25652 0.28072 0.0
H4591 H 0.91563 0.22491 0.26813 0.0
C4592 C 0.71346 0.07386 0.00176 0.0
C4593 C 0.72879 0.08453 0.0225 0.0
C4594 C 0.69084 0.07355 0.00267 0.0
C4595 C 0.68354 0.08005 0.02537 0.0
C4596 C 0.69835 0.08421 0.0467 0.0
C4597 C 0.72092 0.08467 0.04482 0.0
C4598 C 0.67609 0.06986 0.97931 0.0
C4599 C 0.69122 0.09028 0.0714 0.0
C4600 C 0.63041 0.10157 0.02334 0.0
C4601 C 0.61435 0.07945 0.02383 0.0
C4602 C 0.65345 0.10251 0.02466 0.0
C4603 C 0.66013 0.08087 0.02661 0.0
C4604 C 0.64411 0.05903 0.02802 0.0
C4605 C 0.62158 0.05866 0.02623 0.0
C4606 C 0.67054 0.1262 0.02327 0.0
C4607 C 0.65058 0.03568 0.03052 0.0
H4608 H 0.71981 0.07212 0.98448 0.0
H4609 H 0.73302 0.09097 0.06094 0.0
H4610 H 0.65785 0.06297 0.98072 0.0
H4611 H 0.67883 0.08795 0.97391 0.0
H4612 H 0.68083 0.05691 0.96474 0.0
H4613 H 0.7052 0.10418 0.08395 0.0
H4614 H 0.67622 0.09762 0.07137 0.0
H4615 H 0.68717 0.07319 0.07862 0.0
H4616 H 0.62494 0.11771 0.02111 0.0
H4617 H 0.60964 0.04161 0.02623 0.0
H4618 H 0.67855 0.12323 0.0066 0.0
H4619 H 0.68412 0.13151 0.03864 0.0
H4620 H 0.66279 0.14178 0.02334 0.0
H4621 H 0.66154 0.03098 0.01683 0.0
H4622 H 0.63566 0.01943 0.02868 0.0
H4623 H 0.66036 0.03884 0.04839 0.0
C4624 C 0.25468 0.49384 0.22917 0.0
C4625 C 0.24806 0.50794 0.24876 0.0
C4626 C 0.26287 0.47382 0.23205 0.0
C4627 C 0.26359 0.46777 0.2548 0.0
C4628 C 0.25546 0.48112 0.27417 0.0
C4629 C 0.24819 0.50152 0.27098 0.0
C4630 C 0.27131 0.4597 0.21115 0.0
C4631 C 0.25545 0.47474 0.29861 0.0
C4632 C 0.27561 0.41287 0.27324 0.0
C4633 C 0.29709 0.42441 0.28592 0.0
C4634 C 0.26493 0.42598 0.26018 0.0
C4635 C 0.27638 0.45076 0.26005 0.0
C4636 C 0.2991 0.46123 0.27046 0.0
C4637 C 0.30921 0.44784 0.28351 0.0
C4638 C 0.24068 0.41447 0.24914 0.0
C4639 C 0.31177 0.48764 0.27032 0.0
H4640 H 0.25362 0.49866 0.21177 0.0
H4641 H 0.24201 0.51205 0.28564 0.0
H4642 H 0.28935 0.46078 0.21576 0.0
H4643 H 0.2618 0.43979 0.20722 0.0
H4644 H 0.26955 0.46697 0.19465 0.0
H4645 H 0.24477 0.4839 0.30998 0.0
H4646 H 0.24922 0.45441 0.297 0.0
H4647 H 0.27297 0.48097 0.30796 0.0
H4648 H 0.2666 0.39446 0.27506 0.0
H4649 H 0.32609 0.45621 0.29302 0.0
H4650 H 0.23789 0.41868 0.23122 0.0
H4651 H 0.22946 0.42246 0.26067 0.0
H4652 H 0.23561 0.39401 0.24731 0.0
H4653 H 0.30983 0.49123 0.25202 0.0
H4654 H 0.33005 0.49177 0.27662 0.0
H4655 H 0.30468 0.50073 0.28233 0.0
C4656 C 0.27398 0.45598 0.02681 0.0
C4657 C 0.27244 0.43142 0.02837 0.0
C4658 C 0.2546 0.46435 0.02457 0.0
C4659 C 0.23298 0.44773 0.02364 0.0
C4660 C 0.23127 0.42311 0.02605 0.0
C4661 C 0.25103 0.41524 0.0284 0.0
C4662 C 0.25724 0.49089 0.02247 0.0
C4663 C 0.20861 0.40474 0.02511 0.0
C4664 C 0.18752 0.48171 0.03087 0.0
C4665 C 0.18116 0.48188 0.0069 0.0
C4666 C 0.20309 0.46884 0.0367 0.0
C4667 C 0.21246 0.45596 0.0181 0.0
C4668 C 0.20436 0.45413 0.99387 0.0
C4669 C 0.18883 0.46712 0.98857 0.0
C4670 C 0.21062 0.47044 0.06275 0.0
C4671 C 0.21338 0.44004 0.97345 0.0
H4672 H 0.29041 0.46869 0.02705 0.0
H4673 H 0.24961 0.39619 0.0296 0.0
H4674 H 0.24882 0.49124 0.00481 0.0
H4675 H 0.24894 0.50031 0.03654 0.0
H4676 H 0.27523 0.50167 0.02428 0.0
H4677 H 0.21021 0.38875 0.03287 0.0
H4678 H 0.19686 0.41367 0.03482 0.0
H4679 H 0.20091 0.39746 0.00613 0.0
H4680 H 0.18146 0.49288 0.04512 0.0
H4681 H 0.18344 0.46663 0.96999 0.0
H4682 H 0.22815 0.48257 0.06773 0.0
H4683 H 0.21066 0.45183 0.06578 0.0
H4684 H 0.1996 0.47815 0.07482 0.0
H4685 H 0.23114 0.45015 0.97267 0.0
H4686 H 0.20341 0.43783 0.95584 0.0
H4687 H 0.21331 0.42137 0.97639 0.0
C4688 C 0.88488 0.98658 0.26388 0.0
C4689 C 0.90859 0.99164 0.26518 0.0
C4690 C 0.87077 0.96209 0.2631 0.0
C4691 C 0.88025 0.94179 0.26385 0.0
C4692 C 0.90407 0.94691 0.26514 0.0
C4693 C 0.9176 0.97119 0.26565 0.0
C4694 C 0.84558 0.95794 0.26175 0.0
C4695 C 0.91555 0.92657 0.26585 0.0
C4696 C 0.85025 0.8826 0.2857 0.0
C4697 C 0.84207 0.86451 0.26428 0.0
C4698 C 0.86171 0.90767 0.28576 0.0
C4699 C 0.86579 0.91538 0.26384 0.0
C4700 C 0.85753 0.89705 0.24211 0.0
C4701 C 0.8456 0.8722 0.24259 0.0
C4702 C 0.8699 0.92589 0.30949 0.0
C4703 C 0.8616 0.90358 0.21821 0.0
H4704 H 0.8773 1.00169 0.26354 0.0
H4705 H 0.9357 0.97407 0.26661 0.0
H4706 H 0.83685 0.94199 0.24687 0.0
H4707 H 0.83985 0.95323 0.27863 0.0
H4708 H 0.84038 0.97458 0.25902 0.0
H4709 H 0.93424 0.93379 0.2691 0.0
H4710 H 0.90987 0.91663 0.28013 0.0
H4711 H 0.91086 0.91279 0.2485 0.0
H4712 H 0.8476 0.87714 0.30262 0.0
H4713 H 0.83954 0.85854 0.22588 0.0
H4714 H 0.86327 0.94228 0.30983 0.0
H4715 H 0.8886 0.93266 0.3118 0.0
H4716 H 0.86463 0.91758 0.32493 0.0
H4717 H 0.8526 0.9175 0.21528 0.0
H4718 H 0.85573 0.88711 0.20306 0.0
H4719 H 0.87986 0.91211 0.21803 0.0
C4720 C 0.75277 0.12708 0.78028 0.0
C4721 C 0.7482 0.10957 0.75858 0.0
C4722 C 0.76598 0.15103 0.78161 0.0
C4723 C 0.7754 0.15685 0.76091 0.0
C4724 C 0.77401 0.13804 0.7404 0.0
C4725 C 0.76016 0.11429 0.73937 0.0
C4726 C 0.76678 0.1707 0.80384 0.0
C4727 C 0.78466 0.14364 0.71855 0.0
C4728 C 0.76901 0.21963 0.76153 0.0
C4729 C 0.7899 0.23401 0.77366 0.0
C4730 C 0.76511 0.19408 0.7537 0.0
C4731 C 0.78226 0.18297 0.75959 0.0
C4732 C 0.80377 0.19772 0.77071 0.0
C4733 C 0.80705 0.22317 0.77823 0.0
C4734 C 0.74189 0.17889 0.74159 0.0
C4735 C 0.82244 0.18658 0.77722 0.0
H4736 H 0.74387 0.12294 0.79532 0.0
H4737 H 0.75682 0.10042 0.72271 0.0
H4738 H 0.78412 0.18308 0.80946 0.0
H4739 H 0.75562 0.18231 0.79987 0.0
H4740 H 0.76097 0.16247 0.81916 0.0
H4741 H 0.78612 0.12655 0.70641 0.0
H4742 H 0.77402 0.15228 0.70845 0.0
H4743 H 0.80166 0.15684 0.7239 0.0
H4744 H 0.75551 0.22825 0.75898 0.0
H4745 H 0.82259 0.2345 0.78853 0.0
H4746 H 0.73242 0.16967 0.75463 0.0
H4747 H 0.74311 0.16421 0.72633 0.0
H4748 H 0.73207 0.19057 0.7348 0.0
H4749 H 0.82093 0.18235 0.79526 0.0
H4750 H 0.83926 0.19981 0.77792 0.0
H4751 H 0.82148 0.16909 0.76424 0.0
loop_
_geom_bond_atom_site_label_1
_geom_bond_atom_site_label_2
_geom_bond_distance
_geom_bond_site_symmetry_2
_ccdc_geom_bond_type
Zn0 O3 2.031 . S
Zn0 O5 2.049 . S
Zn0 O10 2.067 . S
Zn1 O2 1.962 . S
Zn1 O4 1.986 . S
Zn1 O6 1.996 . S
Zn1 O9 1.943 . S
O2 Zn1 1.962 . S
O2 C7 1.254 . S
O3 Zn0 2.031 . S
O3 C7 1.269 . S
O4 Zn1 1.986 . S
O4 C11 1.262 . S
O5 Zn0 2.049 . S
O5 C13 1.260 . S
O6 Zn1 1.996 . S
O6 C13 1.257 . S
C7 O2 1.254 . S
C7 O3 1.269 . S
C8 O9 1.249 . S
C8 O10 1.270 . S
O9 Zn1 1.943 . S
O9 C8 1.249 . S
O10 Zn0 2.067 . S
O10 C8 1.270 . S
C11 O4 1.262 . S
C11 O12 1.232 . S
O12 C11 1.232 . S
C13 O5 1.260 . S
C13 O6 1.257 . S
Zn14 O17 2.031 1_455 S
Zn14 O19 2.049 . S
Zn14 O24 2.067 . S
Zn15 O16 1.931 1_455 S
Zn15 O18 1.999 . S
Zn15 O20 2.022 . S
Zn15 O23 1.950 1_455 S
O16 Zn15 1.931 1_655 S
O16 C21 1.254 . S
O17 Zn14 2.031 1_655 S
O17 C21 1.269 . S
O18 Zn15 1.999 . S
O18 C25 1.262 . S
O19 Zn14 2.049 . S
O19 C27 1.260 . S
O20 Zn15 2.022 . S
O20 C27 1.257 . S
C21 O16 1.254 . S
C21 O17 1.269 . S
C22 O23 1.249 . S
C22 O24 1.270 1_655 S
O23 Zn15 1.950 1_655 S
O23 C22 1.249 . S
O24 Zn14 2.067 . S
O24 C22 1.270 1_455 S
C25 O18 1.262 . S
C25 O26 1.232 1_455 S
O26 C25 1.232 1_655 S
C27 O19 1.260 . S
C27 O20 1.257 . S
Zn28 O31 2.031 . S
Zn28 O33 2.049 . S
Zn28 O38 2.067 . S
Zn29 O30 1.962 . S
Zn29 O32 1.986 . S
Zn29 O34 1.996 . S
Zn29 O37 1.943 . S
O30 Zn29 1.962 . S
O30 C35 1.254 . S
O31 Zn28 2.031 . S
O31 C35 1.269 . S
O32 Zn29 1.986 . S
O32 C39 1.262 . S
O33 Zn28 2.049 . S
O33 C41 1.260 . S
O34 Zn29 1.996 . S
O34 C41 1.257 . S
C35 O30 1.254 . S
C35 O31 1.269 . S
C36 O37 1.249 . S
C36 O38 1.270 . S
O37 Zn29 1.943 . S
O37 C36 1.249 . S
O38 Zn28 2.067 . S
O38 C36 1.270 . S
C39 O32 1.262 . S
C39 O40 1.232 . S
O40 C39 1.232 . S
C41 O33 1.260 . S
C41 O34 1.257 . S
Zn42 O45 2.031 . S
Zn42 O47 2.049 . S
Zn42 O52 2.067 . S
Zn43 O44 1.962 . S
Zn43 O46 1.986 . S
Zn43 O48 1.996 . S
Zn43 O51 1.943 . S
O44 Zn43 1.962 . S
O44 C49 1.254 . S
O45 Zn42 2.031 . S
O45 C49 1.269 . S
O46 Zn43 1.986 . S
O46 C53 1.262 . S
O47 Zn42 2.049 . S
O47 C55 1.260 . S
O48 Zn43 1.996 . S
O48 C55 1.257 . S
C49 O44 1.254 . S
C49 O45 1.269 . S
C50 O51 1.249 . S
C50 O52 1.270 . S
O51 Zn43 1.943 . S
O51 C50 1.249 . S
O52 Zn42 2.067 . S
O52 C50 1.270 . S
C53 O46 1.262 . S
C53 O54 1.232 . S
O54 C53 1.232 . S
C55 O47 1.260 . S
C55 O48 1.257 . S
Zn56 O59 2.031 . S
Zn56 O61 2.049 . S
Zn56 O66 2.067 . S
Zn57 O58 1.962 . S
Zn57 O60 1.986 . S
Zn57 O62 1.996 . S
Zn57 O65 1.943 . S
O58 Zn57 1.962 . S
O58 C63 1.254 . S
O59 Zn56 2.031 . S
O59 C63 1.269 . S
O60 Zn57 1.986 . S
O60 C67 1.262 . S
O61 Zn56 2.049 . S
O61 C69 1.260 . S
O62 Zn57 1.996 . S
O62 C69 1.257 . S
C63 O58 1.254 . S
C63 O59 1.269 . S
C64 O65 1.249 . S
C64 O66 1.270 . S
O65 Zn57 1.943 . S
O65 C64 1.249 . S
O66 Zn56 2.067 . S
O66 C64 1.270 . S
C67 O60 1.262 . S
C67 O68 1.232 . S
O68 C67 1.232 . S
C69 O61 1.260 . S
C69 O62 1.257 . S
Zn70 O73 2.031 . S
Zn70 O75 2.049 . S
Zn70 O80 2.067 . S
Zn71 O72 1.962 . S
Zn71 O74 1.986 . S
Zn71 O76 1.996 . S
Zn71 O79 1.943 . S
O72 Zn71 1.962 . S
O72 C77 1.254 . S
O73 Zn70 2.031 . S
O73 C77 1.269 . S
O74 Zn71 1.986 . S
O74 C81 1.262 . S
O75 Zn70 2.049 . S
O75 C83 1.260 . S
O76 Zn71 1.996 . S
O76 C83 1.257 . S
C77 O72 1.254 . S
C77 O73 1.269 . S
C78 O79 1.249 . S
C78 O80 1.270 . S
O79 Zn71 1.943 . S
O79 C78 1.249 . S
O80 Zn70 2.067 . S
O80 C78 1.270 . S
C81 O74 1.262 . S
C81 O82 1.232 . S
O82 C81 1.232 . S
C83 O75 1.260 . S
C83 O76 1.257 . S
Zn84 O87 2.031 . S
Zn84 O89 2.049 . S
Zn84 O94 2.067 . S
Zn85 O86 1.962 . S
Zn85 O88 1.986 . S
Zn85 O90 1.996 . S
Zn85 O93 1.943 . S
O86 Zn85 1.962 . S
O86 C91 1.254 . S
O87 Zn84 2.031 . S
O87 C91 1.269 . S
O88 Zn85 1.986 . S
O88 C95 1.262 . S
O89 Zn84 2.049 . S
O89 C97 1.260 . S
O90 Zn85 1.996 . S
O90 C97 1.257 . S
C91 O86 1.254 . S
C91 O87 1.269 . S
C92 O93 1.249 . S
C92 O94 1.270 . S
O93 Zn85 1.943 . S
O93 C92 1.249 . S
O94 Zn84 2.067 . S
O94 C92 1.270 . S
C95 O88 1.262 . S
C95 O96 1.232 . S
O96 C95 1.232 . S
C97 O89 1.260 . S
C97 O90 1.257 . S
Zn98 O101 2.031 1_655 S
Zn98 O103 2.049 . S
Zn98 O108 2.067 . S
Zn99 O100 1.962 . S
Zn99 O102 1.986 . S
Zn99 O104 1.996 . S
Zn99 O107 1.943 . S
O100 Zn99 1.962 . S
O100 C105 1.254 . S
O101 Zn98 2.031 1_455 S
O101 C105 1.269 . S
O102 Zn99 1.986 . S
O102 C109 1.262 . S
O103 Zn98 2.049 . S
O103 C111 1.260 1_655 S
O104 Zn99 1.996 . S
O104 C111 1.257 . S
C105 O100 1.254 . S
C105 O101 1.269 . S
C106 O107 1.249 1_655 S
C106 O108 1.270 . S
O107 Zn99 1.943 . S
O107 C106 1.249 1_455 S
O108 Zn98 2.067 . S
O108 C106 1.270 . S
C109 O102 1.262 . S
C109 O110 1.232 . S
O110 C109 1.232 . S
C111 O103 1.260 1_455 S
C111 O104 1.257 . S
Zn112 O115 2.031 1_565 S
Zn112 O117 2.049 . S
Zn112 O122 2.067 . S
Zn113 O114 1.962 . S
Zn113 O116 1.986 . S
Zn113 O118 1.996 . S
Zn113 O121 1.945 1_545 S
O114 Zn113 1.962 . S
O114 C119 1.254 . S
O115 Zn112 2.031 1_545 S
O115 C119 1.269 . S
O116 Zn113 1.986 . S
O116 C123 1.262 . S
O117 Zn112 2.049 . S
O117 C125 1.260 1_565 S
O118 Zn113 1.996 . S
O118 C125 1.257 . S
C119 O114 1.254 . S
C119 O115 1.269 . S
C120 O121 1.246 . S
C120 O122 1.270 . S
O121 Zn113 1.945 1_565 S
O121 C120 1.246 . S
O122 Zn112 2.067 . S
O122 C120 1.270 . S
C123 O116 1.262 . S
C123 O124 1.232 . S
O124 C123 1.232 . S
C125 O117 1.260 1_545 S
C125 O118 1.257 . S
Zn126 O129 2.031 . S
Zn126 O131 2.049 . S
Zn126 O136 2.067 . S
Zn127 O128 1.962 . S
Zn127 O130 1.986 . S
Zn127 O132 1.996 . S
Zn127 O135 1.943 . S
O128 Zn127 1.962 . S
O128 C133 1.254 . S
O129 Zn126 2.031 . S
O129 C133 1.269 . S
O130 Zn127 1.986 . S
O130 C137 1.262 . S
O131 Zn126 2.049 . S
O131 C139 1.260 . S
O132 Zn127 1.996 . S
O132 C139 1.257 . S
C133 O128 1.254 . S
C133 O129 1.269 . S
C134 O135 1.249 . S
C134 O136 1.270 . S
O135 Zn127 1.943 . S
O135 C134 1.249 . S
O136 Zn126 2.067 . S
O136 C134 1.270 . S
C137 O130 1.262 . S
C137 O138 1.232 . S
O138 C137 1.232 . S
C139 O131 1.260 . S
C139 O132 1.257 . S
Zn140 O143 2.031 . S
Zn140 O145 2.049 . S
Zn140 O150 2.067 . S
Zn141 O142 1.962 . S
Zn141 O144 1.986 . S
Zn141 O146 1.996 . S
Zn141 O149 1.943 1_565 S
O142 Zn141 1.962 . S
O142 C147 1.254 1_565 S
O143 Zn140 2.031 . S
O143 C147 1.269 . S
O144 Zn141 1.986 . S
O144 C151 1.262 . S
O145 Zn140 2.049 . S
O145 C153 1.260 1_545 S
O146 Zn141 1.996 . S
O146 C153 1.257 . S
C147 O142 1.254 1_545 S
C147 O143 1.269 . S
C148 O149 1.249 . S
C148 O150 1.270 . S
O149 Zn141 1.943 1_545 S
O149 C148 1.249 . S
O150 Zn140 2.067 . S
O150 C148 1.270 . S
C151 O144 1.262 . S
C151 O152 1.232 . S
O152 C151 1.232 . S
C153 O145 1.260 1_565 S
C153 O146 1.257 . S
Zn154 O157 2.031 1_554 S
Zn154 O159 2.049 . S
Zn154 O164 2.067 . S
Zn155 O156 1.962 1_554 S
Zn155 O158 1.986 . S
Zn155 O160 1.996 . S
Zn155 O163 1.943 . S
O156 Zn155 1.962 1_556 S
O156 C161 1.254 . S
O157 Zn154 2.031 1_556 S
O157 C161 1.269 . S
O158 Zn155 1.986 . S
O158 C165 1.262 . S
O159 Zn154 2.049 . S
O159 C167 1.260 . S
O160 Zn155 1.996 . S
O160 C167 1.257 . S
C161 O156 1.254 . S
C161 O157 1.269 . S
C162 O163 1.249 . S
C162 O164 1.270 . S
O163 Zn155 1.943 . S
O163 C162 1.249 . S
O164 Zn154 2.067 . S
O164 C162 1.270 . S
C165 O158 1.262 . S
C165 O166 1.232 1_554 S
O166 C165 1.232 1_556 S
C167 O159 1.260 . S
C167 O160 1.257 . S
Zn168 O171 2.031 . S
Zn168 O173 2.049 . S
Zn168 O178 2.067 . S
Zn169 O170 1.962 . S
Zn169 O172 1.986 . S
Zn169 O174 1.996 . S
Zn169 O177 1.943 . S
O170 Zn169 1.962 . S
O170 C175 1.254 1_554 S
O171 Zn168 2.031 . S
O171 C175 1.269 1_554 S
O172 Zn169 1.986 . S
O172 C179 1.262 . S
O173 Zn168 2.049 . S
O173 C181 1.260 . S
O174 Zn169 1.996 . S
O174 C181 1.257 . S
C175 O170 1.254 1_556 S
C175 O171 1.269 1_556 S
C176 O177 1.249 . S
C176 O178 1.270 . S
O177 Zn169 1.943 . S
O177 C176 1.249 . S
O178 Zn168 2.067 . S
O178 C176 1.270 . S
C179 O172 1.262 . S
C179 O180 1.232 . S
O180 C179 1.232 . S
C181 O173 1.260 . S
C181 O174 1.257 . S
Zn182 O185 2.031 . S
Zn182 O187 2.049 . S
Zn182 O192 2.067 . S
Zn183 O184 1.962 . S
Zn183 O186 1.986 . S
Zn183 O188 1.996 . S
Zn183 O191 1.943 . S
O184 Zn183 1.962 . S
O184 C189 1.254 1_554 S
O185 Zn182 2.031 . S
O185 C189 1.269 1_554 S
O186 Zn183 1.986 . S
O186 C193 1.262 . S
O187 Zn182 2.049 . S
O187 C195 1.260 . S
O188 Zn183 1.996 . S
O188 C195 1.257 . S
C189 O184 1.254 1_556 S
C189 O185 1.269 1_556 S
C190 O191 1.249 . S
C190 O192 1.270 . S
O191 Zn183 1.943 . S
O191 C190 1.249 . S
O192 Zn182 2.067 . S
O192 C190 1.270 . S
C193 O186 1.262 . S
C193 O194 1.232 . S
O194 C193 1.232 . S
C195 O187 1.260 . S
C195 O188 1.257 . S
Zn196 O199 2.031 . S
Zn196 O201 2.049 . S
Zn196 O206 2.067 . S
Zn197 O198 1.962 . S
Zn197 O200 1.986 . S
Zn197 O202 1.996 . S
Zn197 O205 1.943 . S
O198 Zn197 1.962 . S
O198 C203 1.254 . S
O199 Zn196 2.031 . S
O199 C203 1.269 . S
O200 Zn197 1.986 . S
O200 C207 1.262 . S
O201 Zn196 2.049 . S
O201 C209 1.260 . S
O202 Zn197 1.996 . S
O202 C209 1.257 . S
C203 O198 1.254 . S
C203 O199 1.269 . S
C204 O205 1.249 . S
C204 O206 1.270 . S
O205 Zn197 1.943 . S
O205 C204 1.249 . S
O206 Zn196 2.067 . S
O206 C204 1.270 . S
C207 O200 1.262 . S
C207 O208 1.232 . S
O208 C207 1.232 . S
C209 O201 1.260 . S
C209 O202 1.257 . S
Zn210 O213 2.031 . S
Zn210 O215 2.049 . S
Zn210 O220 2.067 . S
Zn211 O212 1.962 . S
Zn211 O214 1.986 . S
Zn211 O216 1.996 . S
Zn211 O219 1.943 . S
O212 Zn211 1.962 . S
O212 C217 1.254 . S
O213 Zn210 2.031 . S
O213 C217 1.269 . S
O214 Zn211 1.986 . S
O214 C221 1.262 . S
O215 Zn210 2.049 . S
O215 C223 1.260 . S
O216 Zn211 1.996 . S
O216 C223 1.257 . S
C217 O212 1.254 . S
C217 O213 1.269 . S
C218 O219 1.249 . S
C218 O220 1.270 . S
O219 Zn211 1.943 . S
O219 C218 1.249 . S
O220 Zn210 2.067 . S
O220 C218 1.270 . S
C221 O214 1.262 . S
C221 O222 1.232 . S
O222 C221 1.232 . S
C223 O215 1.260 . S
C223 O216 1.257 . S
Zn224 O227 2.031 . S
Zn224 O229 2.049 . S
Zn224 O234 2.067 . S
Zn225 O226 1.962 . S
Zn225 O228 1.986 . S
Zn225 O230 1.996 . S
Zn225 O233 1.943 . S
O226 Zn225 1.962 . S
O226 C231 1.254 . S
O227 Zn224 2.031 . S
O227 C231 1.269 . S
O228 Zn225 1.986 . S
O228 C235 1.262 . S
O229 Zn224 2.049 . S
O229 C237 1.260 . S
O230 Zn225 1.996 . S
O230 C237 1.257 . S
C231 O226 1.254 . S
C231 O227 1.269 . S
C232 O233 1.249 . S
C232 O234 1.270 . S
O233 Zn225 1.943 . S
O233 C232 1.249 . S
O234 Zn224 2.067 . S
O234 C232 1.270 . S
C235 O228 1.262 . S
C235 O236 1.232 . S
O236 C235 1.232 . S
C237 O229 1.260 . S
C237 O230 1.257 . S
Zn238 O241 2.031 . S
Zn238 O243 2.049 . S
Zn238 O248 2.067 . S
Zn239 O240 1.962 . S
Zn239 O242 1.986 . S
Zn239 O244 1.996 . S
Zn239 O247 1.943 . S
O240 Zn239 1.962 . S
O240 C245 1.254 . S
O241 Zn238 2.031 . S
O241 C245 1.269 . S
O242 Zn239 1.986 . S
O242 C249 1.262 . S
O243 Zn238 2.049 . S
O243 C251 1.260 . S
O244 Zn239 1.996 . S
O244 C251 1.257 . S
C245 O240 1.254 . S
C245 O241 1.269 . S
C246 O247 1.249 . S
C246 O248 1.270 . S
O247 Zn239 1.943 . S
O247 C246 1.249 . S
O248 Zn238 2.067 . S
O248 C246 1.270 . S
C249 O242 1.262 . S
C249 O250 1.232 . S
O250 C249 1.232 . S
C251 O243 1.260 . S
C251 O244 1.257 . S
Zn252 O255 2.031 . S
Zn252 O257 2.049 . S
Zn252 O262 2.067 . S
Zn253 O254 1.962 . S
Zn253 O256 1.986 . S
Zn253 O258 1.996 . S
Zn253 O261 1.943 . S
O254 Zn253 1.962 . S
O254 C259 1.254 . S
O255 Zn252 2.031 . S
O255 C259 1.269 . S
O256 Zn253 1.986 . S
O256 C263 1.262 . S
O257 Zn252 2.049 . S
O257 C265 1.260 . S
O258 Zn253 1.996 . S
O258 C265 1.257 . S
C259 O254 1.254 . S
C259 O255 1.269 . S
C260 O261 1.249 . S
C260 O262 1.270 . S
O261 Zn253 1.943 . S
O261 C260 1.249 . S
O262 Zn252 2.067 . S
O262 C260 1.270 . S
C263 O256 1.262 . S
C263 O264 1.232 . S
O264 C263 1.232 . S
C265 O257 1.260 . S
C265 O258 1.257 . S
Zn266 O269 2.031 . S
Zn266 O271 2.049 . S
Zn266 O276 2.067 . S
Zn267 O268 1.962 . S
Zn267 O270 1.986 . S
Zn267 O272 1.996 . S
Zn267 O275 1.943 . S
O268 Zn267 1.962 . S
O268 C273 1.254 . S
O269 Zn266 2.031 . S
O269 C273 1.269 . S
O270 Zn267 1.986 . S
O270 C277 1.262 . S
O271 Zn266 2.049 . S
O271 C279 1.260 . S
O272 Zn267 1.996 . S
O272 C279 1.257 . S
C273 O268 1.254 . S
C273 O269 1.269 . S
C274 O275 1.249 . S
C274 O276 1.270 . S
O275 Zn267 1.943 . S
O275 C274 1.249 . S
O276 Zn266 2.067 . S
O276 C274 1.270 . S
C277 O270 1.262 . S
C277 O278 1.232 . S
O278 C277 1.232 . S
C279 O271 1.260 . S
C279 O272 1.257 . S
Zn280 O283 2.031 1_554 S
Zn280 O285 2.049 . S
Zn280 O290 2.067 . S
Zn281 O282 1.989 . S
Zn281 O284 1.972 1_556 S
Zn281 O286 1.976 1_556 S
Zn281 O289 1.940 . S
O282 Zn281 1.989 . S
O282 C287 1.254 . S
O283 Zn280 2.031 1_556 S
O283 C287 1.269 . S
O284 Zn281 1.972 1_554 S
O284 C291 1.262 1_554 S
O285 Zn280 2.049 . S
O285 C293 1.260 . S
O286 Zn281 1.976 1_554 S
O286 C293 1.257 . S
C287 O282 1.254 . S
C287 O283 1.269 . S
C288 O289 1.249 . S
C288 O290 1.270 1_556 S
O289 Zn281 1.940 . S
O289 C288 1.249 . S
O290 Zn280 2.067 . S
O290 C288 1.270 1_554 S
C291 O284 1.262 1_556 S
C291 O292 1.232 . S
O292 C291 1.232 . S
C293 O285 1.260 . S
C293 O286 1.257 . S
Zn294 O297 2.031 . S
Zn294 O299 2.049 . S
Zn294 O304 2.067 . S
Zn295 O296 1.962 . S
Zn295 O298 1.986 . S
Zn295 O300 1.996 . S
Zn295 O303 1.943 . S
O296 Zn295 1.962 . S
O296 C301 1.254 . S
O297 Zn294 2.031 . S
O297 C301 1.269 . S
O298 Zn295 1.986 . S
O298 C305 1.262 . S
O299 Zn294 2.049 . S
O299 C307 1.260 . S
O300 Zn295 1.996 . S
O300 C307 1.257 . S
C301 O296 1.254 . S
C301 O297 1.269 . S
C302 O303 1.249 . S
C302 O304 1.270 . S
O303 Zn295 1.943 . S
O303 C302 1.249 . S
O304 Zn294 2.067 . S
O304 C302 1.270 . S
C305 O298 1.262 . S
C305 O306 1.232 . S
O306 C305 1.232 . S
C307 O299 1.260 . S
C307 O300 1.257 . S
Zn308 O311 2.031 . S
Zn308 O313 2.049 . S
Zn308 O318 2.067 . S
Zn309 O310 1.962 . S
Zn309 O312 1.986 . S
Zn309 O314 1.996 . S
Zn309 O317 1.943 . S
O310 Zn309 1.962 . S
O310 C315 1.254 . S
O311 Zn308 2.031 . S
O311 C315 1.269 . S
O312 Zn309 1.986 . S
O312 C319 1.262 . S
O313 Zn308 2.049 . S
O313 C321 1.260 . S
O314 Zn309 1.996 . S
O314 C321 1.257 . S
C315 O310 1.254 . S
C315 O311 1.269 . S
C316 O317 1.249 . S
C316 O318 1.270 . S
O317 Zn309 1.943 . S
O317 C316 1.249 . S
O318 Zn308 2.067 . S
O318 C316 1.270 . S
C319 O312 1.262 . S
C319 O320 1.232 . S
O320 C319 1.232 . S
C321 O313 1.260 . S
C321 O314 1.257 . S
Zn322 O325 2.031 . S
Zn322 O327 2.049 . S
Zn322 O332 2.067 . S
Zn323 O324 1.962 . S
Zn323 O326 1.986 . S
Zn323 O328 1.996 . S
Zn323 O331 1.943 . S
O324 Zn323 1.962 . S
O324 C329 1.254 . S
O325 Zn322 2.031 . S
O325 C329 1.269 . S
O326 Zn323 1.986 . S
O326 C333 1.262 . S
O327 Zn322 2.049 . S
O327 C335 1.260 . S
O328 Zn323 1.996 . S
O328 C335 1.257 . S
C329 O324 1.254 . S
C329 O325 1.269 . S
C330 O331 1.249 . S
C330 O332 1.270 . S
O331 Zn323 1.943 . S
O331 C330 1.249 . S
O332 Zn322 2.067 . S
O332 C330 1.270 . S
C333 O326 1.262 . S
C333 O334 1.232 . S
O334 C333 1.232 . S
C335 O327 1.260 . S
C335 O328 1.257 . S
Tb336 N367 2.660 1_545 S
Tb336 N374 2.600 1_544 S
Tb336 O380 2.546 1_454 S
Tb336 O381 2.610 . S
Tb336 O383 2.320 . S
Tb336 O384 2.552 . S
Tb336 O385 2.413 1_455 S
Tb336 O387 2.362 . S
Tb336 O388 2.421 1_554 S
Tb336 C400 2.833 1_454 S
C337 C340 1.432 . S
C337 C341 1.414 . S
C337 N344 1.359 . S
C338 C340 1.417 . S
C338 C342 1.432 . S
C338 C350 1.410 . S
C339 C341 1.444 . S
C339 C342 1.317 . S
C339 H362 0.929 . S
C340 C337 1.432 . S
C340 C338 1.417 . S
C340 N348 1.360 . S
C341 C337 1.414 . S
C341 C339 1.444 . S
C341 C346 1.385 . S
C342 C338 1.432 . S
C342 C339 1.317 . S
C342 H354 0.930 . S
C343 C345 1.392 . S
C343 C346 1.370 . S
C343 H355 0.931 . S
N344 C337 1.359 . S
N344 C345 1.327 . S
N344 Tb347 2.600 . S
C345 C343 1.392 . S
C345 N344 1.327 . S
C345 H352 0.930 . S
C346 C341 1.385 . S
C346 C343 1.370 . S
C346 H365 0.930 . S
Tb347 N344 2.600 . S
Tb347 N348 2.660 . S
Tb347 O381 2.362 . S
Tb347 O382 2.421 . S
Tb347 O386 2.546 . S
Tb347 O387 2.610 . S
Tb347 O389 2.320 1_554 S
Tb347 O390 2.552 . S
Tb347 O391 2.413 . S
Tb347 C411 2.833 . S
N348 C340 1.360 . S
N348 Tb347 2.660 . S
N348 C349 1.305 1_554 S
C349 N348 1.305 1_556 S
C349 C351 1.407 . S
C349 H356 0.930 . S
C350 C338 1.410 . S
C350 C351 1.345 1_554 S
C350 H358 0.930 1_554 S
C351 C349 1.407 . S
C351 C350 1.345 1_556 S
C351 H353 0.930 . S
H352 C345 0.930 . S
H353 C351 0.930 . S
H354 C342 0.930 . S
H355 C343 0.931 . S
H356 C349 0.930 . S
H357 C371 0.930 . S
H358 C350 0.930 1_556 S
H359 C377 0.930 . S
H360 C368 0.906 1_545 S
H361 C375 0.932 . S
H362 C339 0.929 . S
H363 C369 0.930 . S
H364 C402 0.931 . S
H365 C346 0.930 . S
H366 C401 0.929 . S
N367 Tb336 2.660 1_565 S
N367 C368 1.305 . S
N367 C372 1.360 . S
C368 H360 0.906 1_565 S
C368 N367 1.305 . S
C368 C371 1.407 . S
C369 H363 0.930 . S
C369 C370 1.410 . S
C369 C371 1.345 1_655 S
C370 C369 1.410 . S
C370 C372 1.417 1_655 S
C370 C402 1.433 . S
C371 H357 0.930 . S
C371 C368 1.407 . S
C371 C369 1.345 1_455 S
C372 N367 1.360 . S
C372 C370 1.417 1_455 S
C372 C376 1.432 1_554 S
H373 C378 0.930 . S
N374 Tb336 2.600 1_566 S
N374 C376 1.359 . S
N374 C377 1.327 . S
C375 H361 0.932 . S
C375 C377 1.391 1_655 S
C375 C378 1.371 . S
C376 C372 1.432 1_556 S
C376 N374 1.359 . S
C376 C379 1.414 1_455 S
C377 H359 0.930 . S
C377 N374 1.327 . S
C377 C375 1.391 1_455 S
C378 H373 0.930 . S
C378 C375 1.371 . S
C378 C379 1.385 . S
C379 C376 1.414 1_655 S
C379 C378 1.385 . S
C379 C401 1.444 . S
O380 Tb336 2.546 1_656 S
O380 C400 1.251 . S
O381 Tb336 2.610 . S
O381 Tb347 2.362 . S
O381 C392 1.283 . S
O382 Tb347 2.421 . S
O382 C399 1.262 . S
O383 Tb336 2.320 . S
O383 C399 1.260 . S
O384 Tb336 2.552 . S
O384 C392 1.243 . S
O385 Tb336 2.413 1_655 S
O385 C400 1.256 1_554 S
O386 Tb347 2.546 . S
O386 C411 1.251 . S
O387 Tb336 2.362 . S
O387 Tb347 2.610 . S
O387 C403 1.257 1_545 S
O388 Tb336 2.421 1_556 S
O388 C410 1.262 . S
O389 Tb347 2.320 1_556 S
O389 C410 1.260 . S
O390 Tb347 2.552 . S
O390 C403 1.240 1_545 S
O391 Tb347 2.413 . S
O391 C411 1.256 . S
C392 O381 1.283 . S
C392 O384 1.243 . S
C393 C395 1.382 1_556 S
C393 C397 1.393 . S
C393 C400 1.500 . S
C394 C395 1.401 . S
C394 C396 1.381 1_554 S
C395 C393 1.382 1_554 S
C395 C394 1.401 . S
C395 H412 0.930 . S
C396 C394 1.381 1_556 S
C396 C398 1.392 . S
C396 H413 0.931 . S
C397 C393 1.393 . S
C397 C398 1.401 . S
C397 H414 0.930 . S
C398 C396 1.392 . S
C398 C397 1.401 . S
C398 H415 0.930 . S
C399 O382 1.262 . S
C399 O383 1.260 . S
C400 Tb336 2.833 1_656 S
C400 O380 1.251 . S
C400 O385 1.256 1_556 S
C400 C393 1.500 . S
C401 H366 0.929 . S
C401 C379 1.444 . S
C401 C402 1.315 1_556 S
C402 H364 0.931 . S
C402 C370 1.433 . S
C402 C401 1.315 1_554 S
C403 O387 1.257 1_565 S
C403 O390 1.240 1_565 S
C404 C405 1.382 . S
C404 C408 1.393 . S
C404 C411 1.500 . S
C405 C404 1.382 . S
C405 C406 1.400 . S
C405 H416 0.930 . S
C406 C405 1.400 . S
C406 C407 1.384 . S
C407 C406 1.384 . S
C407 C409 1.392 . S
C407 H417 0.931 . S
C408 C404 1.393 . S
C408 C409 1.401 . S
C408 H418 0.930 . S
C409 C407 1.392 . S
C409 C408 1.401 . S
C409 H419 0.930 . S
C410 O388 1.262 . S
C410 O389 1.260 . S
C411 Tb347 2.833 . S
C411 O386 1.251 . S
C411 O391 1.256 . S
C411 C404 1.500 . S
H412 C395 0.930 . S
H413 C396 0.931 . S
H414 C397 0.930 . S
H415 C398 0.930 . S
H416 C405 0.930 . S
H417 C407 0.931 . S
H418 C408 0.930 . S
H419 C409 0.930 . S
Tb420 N451 2.660 . S
Tb420 N458 2.600 . S
Tb420 O464 2.546 . S
Tb420 O465 2.610 . S
Tb420 O467 2.320 . S
Tb420 O468 2.552 . S
Tb420 O469 2.413 . S
Tb420 O471 2.362 . S
Tb420 O472 2.421 . S
Tb420 C484 2.833 . S
C421 C424 1.432 . S
C421 C425 1.414 . S
C421 N428 1.359 . S
C422 C424 1.417 . S
C422 C426 1.432 . S
C422 C434 1.410 . S
C423 C425 1.444 . S
C423 C426 1.317 . S
C423 H446 0.929 . S
C424 C421 1.432 . S
C424 C422 1.417 . S
C424 N432 1.360 . S
C425 C421 1.414 . S
C425 C423 1.444 . S
C425 C430 1.385 . S
C426 C422 1.432 . S
C426 C423 1.317 . S
C426 H438 0.930 . S
C427 C429 1.392 . S
C427 C430 1.370 . S
C427 H439 0.931 . S
N428 C421 1.359 . S
N428 C429 1.327 . S
N428 Tb431 2.600 . S
C429 C427 1.392 . S
C429 N428 1.327 . S
C429 H436 0.930 . S
C430 C425 1.385 . S
C430 C427 1.370 . S
C430 H449 0.930 . S
Tb431 N428 2.600 . S
Tb431 N432 2.660 . S
Tb431 O465 2.362 . S
Tb431 O466 2.421 . S
Tb431 O470 2.546 . S
Tb431 O471 2.610 . S
Tb431 O473 2.320 . S
Tb431 O474 2.552 . S
Tb431 O475 2.413 . S
Tb431 C495 2.833 . S
N432 C424 1.360 . S
N432 Tb431 2.660 . S
N432 C433 1.305 . S
C433 N432 1.305 . S
C433 C435 1.407 . S
C433 H440 0.930 . S
C434 C422 1.410 . S
C434 C435 1.345 . S
C434 H442 0.930 . S
C435 C433 1.407 . S
C435 C434 1.345 . S
C435 H437 0.930 . S
H436 C429 0.930 . S
H437 C435 0.930 . S
H438 C426 0.930 . S
H439 C427 0.931 . S
H440 C433 0.930 . S
H441 C455 0.930 . S
H442 C434 0.930 . S
H443 C461 0.930 . S
H444 C452 0.930 . S
H445 C459 0.931 . S
H446 C423 0.929 . S
H447 C453 0.930 . S
H448 C486 0.930 . S
H449 C430 0.930 . S
H450 C485 0.929 . S
N451 Tb420 2.660 . S
N451 C452 1.305 . S
N451 C456 1.360 . S
C452 H444 0.930 . S
C452 N451 1.305 . S
C452 C455 1.407 . S
C453 H447 0.930 . S
C453 C454 1.410 . S
C453 C455 1.345 . S
C454 C453 1.410 . S
C454 C456 1.417 . S
C454 C486 1.432 . S
C455 H441 0.930 . S
C455 C452 1.407 . S
C455 C453 1.345 . S
C456 N451 1.360 . S
C456 C454 1.417 . S
C456 C460 1.432 . S
H457 C462 0.930 . S
N458 Tb420 2.600 . S
N458 C460 1.359 . S
N458 C461 1.327 . S
C459 H445 0.931 . S
C459 C461 1.392 . S
C459 C462 1.370 . S
C460 C456 1.432 . S
C460 N458 1.359 . S
C460 C463 1.414 . S
C461 H443 0.930 . S
C461 N458 1.327 . S
C461 C459 1.392 . S
C462 H457 0.930 . S
C462 C459 1.370 . S
C462 C463 1.385 . S
C463 C460 1.414 . S
C463 C462 1.385 . S
C463 C485 1.444 . S
O464 Tb420 2.546 . S
O464 C484 1.251 . S
O465 Tb420 2.610 . S
O465 Tb431 2.362 . S
O465 C476 1.283 . S
O466 Tb431 2.421 . S
O466 C483 1.262 . S
O467 Tb420 2.320 . S
O467 C483 1.260 . S
O468 Tb420 2.552 . S
O468 C476 1.243 . S
O469 Tb420 2.413 . S
O469 C484 1.256 . S
O470 Tb431 2.546 . S
O470 C495 1.251 . S
O471 Tb420 2.362 . S
O471 Tb431 2.610 . S
O471 C487 1.283 . S
O472 Tb420 2.421 . S
O472 C494 1.262 . S
O473 Tb431 2.320 . S
O473 C494 1.260 . S
O474 Tb431 2.552 . S
O474 C487 1.243 . S
O475 Tb431 2.413 . S
O475 C495 1.256 . S
C476 O465 1.283 . S
C476 O468 1.243 . S
C477 C479 1.382 . S
C477 C481 1.393 . S
C477 C484 1.500 . S
C478 C479 1.400 . S
C478 C480 1.384 . S
C479 C477 1.382 . S
C479 C478 1.400 . S
C479 H496 0.930 . S
C480 C478 1.384 . S
C480 C482 1.392 . S
C480 H497 0.931 . S
C481 C477 1.393 . S
C481 C482 1.401 . S
C481 H498 0.930 . S
C482 C480 1.392 . S
C482 C481 1.401 . S
C482 H499 0.930 . S
C483 O466 1.262 . S
C483 O467 1.260 . S
C484 Tb420 2.833 . S
C484 O464 1.251 . S
C484 O469 1.256 . S
C484 C477 1.500 . S
C485 H450 0.929 . S
C485 C463 1.444 . S
C485 C486 1.317 . S
C486 H448 0.930 . S
C486 C454 1.432 . S
C486 C485 1.317 . S
C487 O471 1.283 . S
C487 O474 1.243 . S
C488 C489 1.382 . S
C488 C492 1.393 . S
C488 C495 1.500 . S
C489 C488 1.382 . S
C489 C490 1.400 . S
C489 H500 0.930 . S
C490 C489 1.400 . S
C490 C491 1.384 . S
C491 C490 1.384 . S
C491 C493 1.392 . S
C491 H501 0.931 . S
C492 C488 1.393 . S
C492 C493 1.401 . S
C492 H502 0.930 . S
C493 C491 1.392 . S
C493 C492 1.401 . S
C493 H503 0.930 . S
C494 O472 1.262 . S
C494 O473 1.260 . S
C495 Tb431 2.833 . S
C495 O470 1.251 . S
C495 O475 1.256 . S
C495 C488 1.500 . S
H496 C479 0.930 . S
H497 C480 0.931 . S
H498 C481 0.930 . S
H499 C482 0.930 . S
H500 C489 0.930 . S
H501 C491 0.931 . S
H502 C492 0.930 . S
H503 C493 0.930 . S
Tb504 N535 2.660 . S
Tb504 N542 2.600 . S
Tb504 O548 2.546 . S
Tb504 O549 2.610 . S
Tb504 O551 2.320 . S
Tb504 O552 2.552 1_545 S
Tb504 O553 2.413 . S
Tb504 O555 2.362 . S
Tb504 O556 2.421 . S
Tb504 C568 2.833 . S
C505 C508 1.432 . S
C505 C509 1.414 . S
C505 N512 1.359 1_565 S
C506 C508 1.417 . S
C506 C510 1.432 . S
C506 C518 1.410 . S
C507 C509 1.444 . S
C507 C510 1.317 . S
C507 H530 0.929 . S
C508 C505 1.432 . S
C508 C506 1.417 . S
C508 N516 1.360 . S
C509 C505 1.414 . S
C509 C507 1.444 . S
C509 C514 1.385 . S
C510 C506 1.432 . S
C510 C507 1.317 . S
C510 H522 0.930 . S
C511 C513 1.392 1_565 S
C511 C514 1.370 . S
C511 H523 0.931 1_565 S
N512 C505 1.359 1_545 S
N512 C513 1.327 . S
N512 Tb515 2.600 . S
C513 C511 1.392 1_545 S
C513 N512 1.327 . S
C513 H520 0.930 . S
C514 C509 1.385 . S
C514 C511 1.370 . S
C514 H533 0.930 . S
Tb515 N512 2.600 . S
Tb515 N516 2.660 1_545 S
Tb515 O549 2.362 . S
Tb515 O550 2.421 . S
Tb515 O554 2.546 . S
Tb515 O555 2.610 . S
Tb515 O557 2.320 . S
Tb515 O558 2.552 . S
Tb515 O559 2.413 . S
Tb515 C579 2.833 . S
N516 C508 1.360 . S
N516 Tb515 2.660 1_565 S
N516 C517 1.305 . S
C517 N516 1.305 . S
C517 C519 1.407 . S
C517 H524 0.930 . S
C518 C506 1.410 . S
C518 C519 1.345 . S
C518 H526 0.930 . S
C519 C517 1.407 . S
C519 C518 1.345 . S
C519 H521 0.930 . S
H520 C513 0.930 . S
H521 C519 0.930 . S
H522 C510 0.930 . S
H523 C511 0.931 1_545 S
H524 C517 0.930 . S
H525 C539 0.930 . S
H526 C518 0.930 . S
H527 C545 0.930 . S
H528 C536 0.930 . S
H529 C543 0.931 . S
H530 C507 0.929 . S
H531 C537 0.930 . S
H532 C570 0.930 . S
H533 C514 0.930 . S
H534 C569 0.929 . S
N535 Tb504 2.660 . S
N535 C536 1.305 . S
N535 C540 1.360 . S
C536 H528 0.930 . S
C536 N535 1.305 . S
C536 C539 1.407 . S
C537 H531 0.930 . S
C537 C538 1.410 . S
C537 C539 1.345 . S
C538 C537 1.410 . S
C538 C540 1.417 . S
C538 C570 1.432 . S
C539 H525 0.930 . S
C539 C536 1.407 . S
C539 C537 1.345 . S
C540 N535 1.360 . S
C540 C538 1.417 . S
C540 C544 1.432 . S
H541 C546 0.930 . S
N542 Tb504 2.600 . S
N542 C544 1.359 . S
N542 C545 1.327 . S
C543 H529 0.931 . S
C543 C545 1.392 . S
C543 C546 1.370 . S
C544 C540 1.432 . S
C544 N542 1.359 . S
C544 C547 1.414 . S
C545 H527 0.930 . S
C545 N542 1.327 . S
C545 C543 1.392 . S
C546 H541 0.930 . S
C546 C543 1.370 . S
C546 C547 1.385 . S
C547 C544 1.414 . S
C547 C546 1.385 . S
C547 C569 1.444 . S
O548 Tb504 2.546 . S
O548 C568 1.251 . S
O549 Tb504 2.610 . S
O549 Tb515 2.362 . S
O549 C560 1.283 1_545 S
O550 Tb515 2.421 . S
O550 C567 1.262 . S
O551 Tb504 2.320 . S
O551 C567 1.260 . S
O552 Tb504 2.552 1_565 S
O552 C560 1.243 . S
O553 Tb504 2.413 . S
O553 C568 1.256 . S
O554 Tb515 2.546 . S
O554 C579 1.251 . S
O555 Tb504 2.362 . S
O555 Tb515 2.610 . S
O555 C571 1.283 . S
O556 Tb504 2.421 . S
O556 C578 1.262 . S
O557 Tb515 2.320 . S
O557 C578 1.260 . S
O558 Tb515 2.552 . S
O558 C571 1.243 . S
O559 Tb515 2.413 . S
O559 C579 1.256 . S
C560 O549 1.283 1_565 S
C560 O552 1.243 . S
C561 C563 1.382 1_545 S
C561 C565 1.393 . S
C561 C568 1.500 . S
C562 C563 1.400 . S
C562 C564 1.384 . S
C563 C561 1.382 1_565 S
C563 C562 1.400 . S
C563 H580 0.930 . S
C564 C562 1.384 . S
C564 C566 1.392 . S
C564 H581 0.931 . S
C565 C561 1.393 . S
C565 C566 1.401 1_545 S
C565 H582 0.930 . S
C566 C564 1.392 . S
C566 C565 1.401 1_565 S
C566 H583 0.930 . S
C567 O550 1.262 . S
C567 O551 1.260 . S
C568 Tb504 2.833 . S
C568 O548 1.251 . S
C568 O553 1.256 . S
C568 C561 1.500 . S
C569 H534 0.929 . S
C569 C547 1.444 . S
C569 C570 1.317 . S
C570 H532 0.930 . S
C570 C538 1.432 . S
C570 C569 1.317 . S
C571 O555 1.283 . S
C571 O558 1.243 . S
C572 C573 1.382 . S
C572 C576 1.393 . S
C572 C579 1.500 . S
C573 C572 1.382 . S
C573 C574 1.400 . S
C573 H584 0.930 . S
C574 C573 1.400 . S
C574 C575 1.384 . S
C575 C574 1.384 . S
C575 C577 1.392 . S
C575 H585 0.931 . S
C576 C572 1.393 . S
C576 C577 1.401 . S
C576 H586 0.930 . S
C577 C575 1.392 . S
C577 C576 1.401 . S
C577 H587 0.930 . S
C578 O556 1.262 . S
C578 O557 1.260 . S
C579 Tb515 2.833 . S
C579 O554 1.251 . S
C579 O559 1.256 . S
C579 C572 1.500 . S
H580 C563 0.930 . S
H581 C564 0.931 . S
H582 C565 0.930 . S
H583 C566 0.930 . S
H584 C573 0.930 . S
H585 C575 0.931 . S
H586 C576 0.930 . S
H587 C577 0.930 . S
Tb588 N619 2.660 . S
Tb588 N626 2.600 . S
Tb588 O632 2.546 . S
Tb588 O633 2.610 . S
Tb588 O635 2.320 . S
Tb588 O636 2.552 . S
Tb588 O637 2.413 . S
Tb588 O639 2.362 . S
Tb588 O640 2.421 . S
Tb588 C652 2.833 . S
C589 C592 1.432 . S
C589 C593 1.414 . S
C589 N596 1.359 . S
C590 C592 1.417 . S
C590 C594 1.432 . S
C590 C602 1.410 . S
C591 C593 1.444 . S
C591 C594 1.317 . S
C591 H614 0.929 . S
C592 C589 1.432 . S
C592 C590 1.417 . S
C592 N600 1.360 . S
C593 C589 1.414 . S
C593 C591 1.444 . S
C593 C598 1.385 . S
C594 C590 1.432 . S
C594 C591 1.317 . S
C594 H606 0.930 . S
C595 C597 1.392 . S
C595 C598 1.370 . S
C595 H607 0.931 . S
N596 C589 1.359 . S
N596 C597 1.327 . S
N596 Tb599 2.600 . S
C597 C595 1.392 . S
C597 N596 1.327 . S
C597 H604 0.930 . S
C598 C593 1.385 . S
C598 C595 1.370 . S
C598 H617 0.930 . S
Tb599 N596 2.600 . S
Tb599 N600 2.660 . S
Tb599 O633 2.362 . S
Tb599 O634 2.421 . S
Tb599 O638 2.546 . S
Tb599 O639 2.610 . S
Tb599 O641 2.320 . S
Tb599 O642 2.552 . S
Tb599 O643 2.413 . S
Tb599 C663 2.833 . S
N600 C592 1.360 . S
N600 Tb599 2.660 . S
N600 C601 1.305 . S
C601 N600 1.305 . S
C601 C603 1.407 . S
C601 H608 0.930 . S
C602 C590 1.410 . S
C602 C603 1.345 . S
C602 H610 0.930 . S
C603 C601 1.407 . S
C603 C602 1.345 . S
C603 H605 0.930 . S
H604 C597 0.930 . S
H605 C603 0.930 . S
H606 C594 0.930 . S
H607 C595 0.931 . S
H608 C601 0.930 . S
H609 C623 0.930 . S
H610 C602 0.930 . S
H611 C629 0.930 . S
H612 C620 0.930 . S
H613 C627 0.931 . S
H614 C591 0.929 . S
H615 C621 0.930 . S
H616 C654 0.930 . S
H617 C598 0.930 . S
H618 C653 0.929 . S
N619 Tb588 2.660 . S
N619 C620 1.305 . S
N619 C624 1.360 . S
C620 H612 0.930 . S
C620 N619 1.305 . S
C620 C623 1.407 . S
C621 H615 0.930 . S
C621 C622 1.410 . S
C621 C623 1.345 . S
C622 C621 1.410 . S
C622 C624 1.417 . S
C622 C654 1.432 . S
C623 H609 0.930 . S
C623 C620 1.407 . S
C623 C621 1.345 . S
C624 N619 1.360 . S
C624 C622 1.417 . S
C624 C628 1.432 . S
H625 C630 0.930 . S
N626 Tb588 2.600 . S
N626 C628 1.359 . S
N626 C629 1.327 . S
C627 H613 0.931 . S
C627 C629 1.392 . S
C627 C630 1.370 . S
C628 C624 1.432 . S
C628 N626 1.359 . S
C628 C631 1.414 . S
C629 H611 0.930 . S
C629 N626 1.327 . S
C629 C627 1.392 . S
C630 H625 0.930 . S
C630 C627 1.370 . S
C630 C631 1.385 . S
C631 C628 1.414 . S
C631 C630 1.385 . S
C631 C653 1.444 . S
O632 Tb588 2.546 . S
O632 C652 1.251 . S
O633 Tb588 2.610 . S
O633 Tb599 2.362 . S
O633 C644 1.283 . S
O634 Tb599 2.421 . S
O634 C651 1.262 . S
O635 Tb588 2.320 . S
O635 C651 1.260 . S
O636 Tb588 2.552 . S
O636 C644 1.243 . S
O637 Tb588 2.413 . S
O637 C652 1.256 . S
O638 Tb599 2.546 . S
O638 C663 1.251 . S
O639 Tb588 2.362 . S
O639 Tb599 2.610 . S
O639 C655 1.283 . S
O640 Tb588 2.421 . S
O640 C662 1.262 . S
O641 Tb599 2.320 . S
O641 C662 1.260 . S
O642 Tb599 2.552 . S
O642 C655 1.243 . S
O643 Tb599 2.413 . S
O643 C663 1.256 . S
C644 O633 1.283 . S
C644 O636 1.243 . S
C645 C647 1.382 . S
C645 C649 1.393 . S
C645 C652 1.500 . S
C646 C647 1.400 . S
C646 C648 1.384 . S
C647 C645 1.382 . S
C647 C646 1.400 . S
C647 H664 0.930 . S
C648 C646 1.384 . S
C648 C650 1.392 . S
C648 H665 0.931 . S
C649 C645 1.393 . S
C649 C650 1.401 . S
C649 H666 0.930 . S
C650 C648 1.392 . S
C650 C649 1.401 . S
C650 H667 0.930 . S
C651 O634 1.262 . S
C651 O635 1.260 . S
C652 Tb588 2.833 . S
C652 O632 1.251 . S
C652 O637 1.256 . S
C652 C645 1.500 . S
C653 H618 0.929 . S
C653 C631 1.444 . S
C653 C654 1.317 . S
C654 H616 0.930 . S
C654 C622 1.432 . S
C654 C653 1.317 . S
C655 O639 1.283 . S
C655 O642 1.243 . S
C656 C657 1.382 . S
C656 C660 1.393 . S
C656 C663 1.500 . S
C657 C656 1.382 . S
C657 C658 1.400 . S
C657 H668 0.930 . S
C658 C657 1.400 . S
C658 C659 1.384 . S
C659 C658 1.384 . S
C659 C661 1.392 . S
C659 H669 0.931 . S
C660 C656 1.393 . S
C660 C661 1.401 . S
C660 H670 0.930 . S
C661 C659 1.392 . S
C661 C660 1.401 . S
C661 H671 0.930 . S
C662 O640 1.262 . S
C662 O641 1.260 . S
C663 Tb599 2.833 . S
C663 O638 1.251 . S
C663 O643 1.256 . S
C663 C656 1.500 . S
H664 C647 0.930 . S
H665 C648 0.931 . S
H666 C649 0.930 . S
H667 C650 0.930 . S
H668 C657 0.930 . S
H669 C659 0.931 . S
H670 C660 0.930 . S
H671 C661 0.930 . S
Tb672 N703 2.660 . S
Tb672 N710 2.600 . S
Tb672 O716 2.546 . S
Tb672 O717 2.610 . S
Tb672 O719 2.320 . S
Tb672 O720 2.552 . S
Tb672 O721 2.413 . S
Tb672 O723 2.362 . S
Tb672 O724 2.421 . S
Tb672 C736 2.833 . S
C673 C676 1.432 . S
C673 C677 1.414 . S
C673 N680 1.359 . S
C674 C676 1.417 . S
C674 C678 1.432 . S
C674 C686 1.410 . S
C675 C677 1.444 . S
C675 C678 1.317 . S
C675 H698 0.929 . S
C676 C673 1.432 . S
C676 C674 1.417 . S
C676 N684 1.360 . S
C677 C673 1.414 . S
C677 C675 1.444 . S
C677 C682 1.385 . S
C678 C674 1.432 . S
C678 C675 1.317 . S
C678 H690 0.930 . S
C679 C681 1.392 . S
C679 C682 1.370 . S
C679 H691 0.931 . S
N680 C673 1.359 . S
N680 C681 1.327 . S
N680 Tb683 2.600 1_565 S
C681 C679 1.392 . S
C681 N680 1.327 . S
C681 H688 0.941 . S
C682 C677 1.385 . S
C682 C679 1.370 . S
C682 H701 0.930 . S
Tb683 N680 2.600 1_545 S
Tb683 N684 2.660 1_545 S
Tb683 O717 2.362 . S
Tb683 O718 2.421 . S
Tb683 O722 2.546 1_545 S
Tb683 O723 2.610 . S
Tb683 O725 2.320 . S
Tb683 O726 2.552 . S
Tb683 O727 2.413 1_545 S
Tb683 C747 2.833 1_545 S
N684 C676 1.360 . S
N684 Tb683 2.660 1_565 S
N684 C685 1.305 . S
C685 N684 1.305 . S
C685 C687 1.401 1_455 S
C685 H692 0.930 . S
C686 C674 1.410 . S
C686 C687 1.338 1_455 S
C686 H694 0.930 1_455 S
C687 C685 1.401 1_655 S
C687 C686 1.338 1_655 S
C687 H689 0.944 . S
H688 C681 0.941 . S
H689 C687 0.944 . S
H690 C678 0.930 . S
H691 C679 0.931 . S
H692 C685 0.930 . S
H693 C707 0.930 . S
H694 C686 0.930 1_655 S
H695 C713 0.930 . S
H696 C704 0.930 . S
H697 C711 0.931 1_655 S
H698 C675 0.929 . S
H699 C705 0.930 . S
H700 C738 0.930 . S
H701 C682 0.930 . S
H702 C737 0.929 . S
N703 Tb672 2.660 . S
N703 C704 1.305 . S
N703 C708 1.360 . S
C704 H696 0.930 . S
C704 N703 1.305 . S
C704 C707 1.407 . S
C705 H699 0.930 . S
C705 C706 1.410 . S
C705 C707 1.345 . S
C706 C705 1.410 . S
C706 C708 1.417 . S
C706 C738 1.432 . S
C707 H693 0.930 . S
C707 C704 1.407 . S
C707 C705 1.345 . S
C708 N703 1.360 . S
C708 C706 1.417 . S
C708 C712 1.432 . S
H709 C714 0.930 . S
N710 Tb672 2.600 . S
N710 C712 1.359 . S
N710 C713 1.327 . S
C711 H697 0.931 1_455 S
C711 C713 1.392 . S
C711 C714 1.370 . S
C712 C708 1.432 . S
C712 N710 1.359 . S
C712 C715 1.414 . S
C713 H695 0.930 . S
C713 N710 1.327 . S
C713 C711 1.392 . S
C714 H709 0.930 . S
C714 C711 1.370 . S
C714 C715 1.385 . S
C715 C712 1.414 . S
C715 C714 1.385 . S
C715 C737 1.444 . S
O716 Tb672 2.546 . S
O716 C736 1.251 . S
O717 Tb672 2.610 . S
O717 Tb683 2.362 . S
O717 C728 1.283 . S
O718 Tb683 2.421 . S
O718 C735 1.262 . S
O719 Tb672 2.320 . S
O719 C735 1.260 . S
O720 Tb672 2.552 . S
O720 C728 1.243 . S
O721 Tb672 2.413 . S
O721 C736 1.256 . S
O722 Tb683 2.546 1_565 S
O722 C747 1.251 . S
O723 Tb672 2.362 . S
O723 Tb683 2.610 . S
O723 C739 1.283 . S
O724 Tb672 2.421 . S
O724 C746 1.262 . S
O725 Tb683 2.320 . S
O725 C746 1.260 . S
O726 Tb683 2.552 . S
O726 C739 1.243 . S
O727 Tb683 2.413 1_565 S
O727 C747 1.256 . S
C728 O717 1.283 . S
C728 O720 1.243 . S
C729 C731 1.382 . S
C729 C733 1.393 . S
C729 C736 1.500 . S
C730 C731 1.400 . S
C730 C732 1.384 . S
C731 C729 1.382 . S
C731 C730 1.400 . S
C731 H748 0.930 . S
C732 C730 1.384 . S
C732 C734 1.392 . S
C732 H749 0.931 . S
C733 C729 1.393 . S
C733 C734 1.401 . S
C733 H750 0.930 . S
C734 C732 1.392 . S
C734 C733 1.401 . S
C734 H751 0.930 . S
C735 O718 1.262 . S
C735 O719 1.260 . S
C736 Tb672 2.833 . S
C736 O716 1.251 . S
C736 O721 1.256 . S
C736 C729 1.500 . S
C737 H702 0.929 . S
C737 C715 1.444 . S
C737 C738 1.317 . S
C738 H700 0.930 . S
C738 C706 1.432 . S
C738 C737 1.317 . S
C739 O723 1.283 . S
C739 O726 1.243 . S
C740 C741 1.382 . S
C740 C744 1.393 . S
C740 C747 1.500 . S
C741 C740 1.382 . S
C741 C742 1.400 . S
C741 H752 0.930 . S
C742 C741 1.400 . S
C742 C743 1.384 . S
C743 C742 1.384 . S
C743 C745 1.392 . S
C743 H753 0.931 . S
C744 C740 1.393 . S
C744 C745 1.401 . S
C744 H754 0.930 . S
C745 C743 1.392 . S
C745 C744 1.401 . S
C745 H755 0.930 . S
C746 O724 1.262 . S
C746 O725 1.260 . S
C747 Tb683 2.833 1_565 S
C747 O722 1.251 . S
C747 O727 1.256 . S
C747 C740 1.500 . S
H748 C731 0.930 . S
H749 C732 0.931 . S
H750 C733 0.930 . S
H751 C734 0.930 . S
H752 C741 0.930 . S
H753 C743 0.931 . S
H754 C744 0.930 . S
H755 C745 0.930 . S
Tb756 N787 2.660 . S
Tb756 N794 2.600 . S
Tb756 O800 2.546 . S
Tb756 O801 2.610 . S
Tb756 O803 2.320 . S
Tb756 O804 2.552 . S
Tb756 O805 2.413 . S
Tb756 O807 2.362 . S
Tb756 O808 2.421 . S
Tb756 C820 2.833 . S
C757 C760 1.432 . S
C757 C761 1.414 . S
C757 N764 1.359 . S
C758 C760 1.417 . S
C758 C762 1.432 . S
C758 C770 1.410 . S
C759 C761 1.444 . S
C759 C762 1.317 . S
C759 H782 0.929 . S
C760 C757 1.432 . S
C760 C758 1.417 . S
C760 N768 1.360 . S
C761 C757 1.414 . S
C761 C759 1.444 . S
C761 C766 1.385 . S
C762 C758 1.432 . S
C762 C759 1.317 . S
C762 H774 0.930 . S
C763 C765 1.392 . S
C763 C766 1.370 . S
C763 H775 0.931 . S
N764 C757 1.359 . S
N764 C765 1.327 . S
N764 Tb767 2.600 . S
C765 C763 1.392 . S
C765 N764 1.327 . S
C765 H772 0.930 . S
C766 C761 1.385 . S
C766 C763 1.370 . S
C766 H785 0.930 . S
Tb767 N764 2.600 . S
Tb767 N768 2.660 . S
Tb767 O801 2.362 . S
Tb767 O802 2.421 . S
Tb767 O806 2.546 . S
Tb767 O807 2.610 . S
Tb767 O809 2.320 . S
Tb767 O810 2.552 . S
Tb767 O811 2.413 . S
Tb767 C831 2.833 . S
N768 C760 1.360 . S
N768 Tb767 2.660 . S
N768 C769 1.305 . S
C769 N768 1.305 . S
C769 C771 1.407 . S
C769 H776 0.930 . S
C770 C758 1.410 . S
C770 C771 1.345 . S
C770 H778 0.930 . S
C771 C769 1.407 . S
C771 C770 1.345 . S
C771 H773 0.930 . S
H772 C765 0.930 . S
H773 C771 0.930 . S
H774 C762 0.930 . S
H775 C763 0.931 . S
H776 C769 0.930 . S
H777 C791 0.930 . S
H778 C770 0.930 . S
H779 C797 0.930 . S
H780 C788 0.930 . S
H781 C795 0.931 . S
H782 C759 0.929 . S
H783 C789 0.930 . S
H784 C822 0.930 . S
H785 C766 0.930 . S
H786 C821 0.929 . S
N787 Tb756 2.660 . S
N787 C788 1.305 . S
N787 C792 1.360 . S
C788 H780 0.930 . S
C788 N787 1.305 . S
C788 C791 1.407 . S
C789 H783 0.930 . S
C789 C790 1.410 . S
C789 C791 1.345 . S
C790 C789 1.410 . S
C790 C792 1.417 . S
C790 C822 1.432 . S
C791 H777 0.930 . S
C791 C788 1.407 . S
C791 C789 1.345 . S
C792 N787 1.360 . S
C792 C790 1.417 . S
C792 C796 1.432 . S
H793 C798 0.930 . S
N794 Tb756 2.600 . S
N794 C796 1.359 . S
N794 C797 1.327 . S
C795 H781 0.931 . S
C795 C797 1.392 . S
C795 C798 1.370 . S
C796 C792 1.432 . S
C796 N794 1.359 . S
C796 C799 1.414 . S
C797 H779 0.930 . S
C797 N794 1.327 . S
C797 C795 1.392 . S
C798 H793 0.930 . S
C798 C795 1.370 . S
C798 C799 1.385 . S
C799 C796 1.414 . S
C799 C798 1.385 . S
C799 C821 1.444 . S
O800 Tb756 2.546 . S
O800 C820 1.251 . S
O801 Tb756 2.610 . S
O801 Tb767 2.362 . S
O801 C812 1.283 . S
O802 Tb767 2.421 . S
O802 C819 1.262 . S
O803 Tb756 2.320 . S
O803 C819 1.260 . S
O804 Tb756 2.552 . S
O804 C812 1.243 . S
O805 Tb756 2.413 . S
O805 C820 1.256 . S
O806 Tb767 2.546 . S
O806 C831 1.251 . S
O807 Tb756 2.362 . S
O807 Tb767 2.610 . S
O807 C823 1.283 . S
O808 Tb756 2.421 . S
O808 C830 1.262 . S
O809 Tb767 2.320 . S
O809 C830 1.260 . S
O810 Tb767 2.552 . S
O810 C823 1.243 . S
O811 Tb767 2.413 . S
O811 C831 1.256 . S
C812 O801 1.283 . S
C812 O804 1.243 . S
C813 C815 1.382 . S
C813 C817 1.393 . S
C813 C820 1.500 . S
C814 C815 1.400 . S
C814 C816 1.384 . S
C815 C813 1.382 . S
C815 C814 1.400 . S
C815 H832 0.930 . S
C816 C814 1.384 . S
C816 C818 1.392 . S
C816 H833 0.931 . S
C817 C813 1.393 . S
C817 C818 1.401 . S
C817 H834 0.930 . S
C818 C816 1.392 . S
C818 C817 1.401 . S
C818 H835 0.930 . S
C819 O802 1.262 . S
C819 O803 1.260 . S
C820 Tb756 2.833 . S
C820 O800 1.251 . S
C820 O805 1.256 . S
C820 C813 1.500 . S
C821 H786 0.929 . S
C821 C799 1.444 . S
C821 C822 1.317 . S
C822 H784 0.930 . S
C822 C790 1.432 . S
C822 C821 1.317 . S
C823 O807 1.283 . S
C823 O810 1.243 . S
C824 C825 1.382 . S
C824 C828 1.393 . S
C824 C831 1.500 . S
C825 C824 1.382 . S
C825 C826 1.400 . S
C825 H836 0.930 . S
C826 C825 1.400 . S
C826 C827 1.384 . S
C827 C826 1.384 . S
C827 C829 1.392 . S
C827 H837 0.931 . S
C828 C824 1.393 . S
C828 C829 1.401 . S
C828 H838 0.930 . S
C829 C827 1.392 . S
C829 C828 1.401 . S
C829 H839 0.930 . S
C830 O808 1.262 . S
C830 O809 1.260 . S
C831 Tb767 2.833 . S
C831 O806 1.251 . S
C831 O811 1.256 . S
C831 C824 1.500 . S
H832 C815 0.930 . S
H833 C816 0.931 . S
H834 C817 0.930 . S
H835 C818 0.930 . S
H836 C825 0.930 . S
H837 C827 0.931 . S
H838 C828 0.930 . S
H839 C829 0.930 . S
Tb840 N871 2.660 . S
Tb840 N878 2.600 . S
Tb840 O884 2.576 . S
Tb840 O885 2.610 . S
Tb840 O887 2.320 . S
Tb840 O888 2.552 . S
Tb840 O889 2.413 . S
Tb840 O891 2.362 . S
Tb840 O892 2.421 1_545 S
Tb840 C904 2.833 . S
C841 C844 1.432 . S
C841 C845 1.414 . S
C841 N848 1.359 . S
C842 C844 1.417 . S
C842 C846 1.432 . S
C842 C854 1.410 1_545 S
C843 C845 1.444 . S
C843 C846 1.317 . S
C843 H866 0.929 . S
C844 C841 1.432 . S
C844 C842 1.417 . S
C844 N852 1.360 . S
C845 C841 1.414 . S
C845 C843 1.444 . S
C845 C850 1.385 . S
C846 C842 1.432 . S
C846 C843 1.317 . S
C846 H858 0.930 . S
C847 C849 1.392 . S
C847 C850 1.370 . S
C847 H859 0.931 . S
N848 C841 1.359 . S
N848 C849 1.327 . S
N848 Tb851 2.600 . S
C849 C847 1.392 . S
C849 N848 1.327 . S
C849 H856 0.930 . S
C850 C845 1.385 . S
C850 C847 1.370 . S
C850 H869 0.930 . S
Tb851 N848 2.600 . S
Tb851 N852 2.660 . S
Tb851 O885 2.362 1_556 S
Tb851 O886 2.421 1_556 S
Tb851 O890 2.546 . S
Tb851 O891 2.610 1_556 S
Tb851 O893 2.320 . S
Tb851 O894 2.552 . S
Tb851 O895 2.413 . S
Tb851 C915 2.833 . S
N852 C844 1.360 . S
N852 Tb851 2.660 . S
N852 C853 1.305 1_545 S
C853 N852 1.305 1_565 S
C853 C855 1.407 . S
C853 H860 0.930 . S
C854 C842 1.410 1_565 S
C854 C855 1.345 . S
C854 H862 0.930 . S
C855 C853 1.407 . S
C855 C854 1.345 . S
C855 H857 0.930 . S
H856 C849 0.930 . S
H857 C855 0.930 . S
H858 C846 0.930 . S
H859 C847 0.931 . S
H860 C853 0.930 . S
H861 C875 0.930 . S
H862 C854 0.930 . S
H863 C881 0.930 . S
H864 C872 0.930 . S
H865 C879 0.931 . S
H866 C843 0.929 . S
H867 C873 0.930 . S
H868 C906 0.930 . S
H869 C850 0.930 . S
H870 C905 0.929 . S
N871 Tb840 2.660 . S
N871 C872 1.305 . S
N871 C876 1.360 . S
C872 H864 0.930 . S
C872 N871 1.305 . S
C872 C875 1.407 . S
C873 H867 0.930 . S
C873 C874 1.410 . S
C873 C875 1.345 . S
C874 C873 1.410 . S
C874 C876 1.417 . S
C874 C906 1.432 . S
C875 H861 0.930 . S
C875 C872 1.407 . S
C875 C873 1.345 . S
C876 N871 1.360 . S
C876 C874 1.417 . S
C876 C880 1.432 . S
H877 C882 0.930 . S
N878 Tb840 2.600 . S
N878 C880 1.359 . S
N878 C881 1.327 1_545 S
C879 H865 0.931 . S
C879 C881 1.392 . S
C879 C882 1.370 . S
C880 C876 1.432 . S
C880 N878 1.359 . S
C880 C883 1.414 . S
C881 H863 0.930 . S
C881 N878 1.327 1_565 S
C881 C879 1.392 . S
C882 H877 0.930 . S
C882 C879 1.370 . S
C882 C883 1.385 1_565 S
C883 C880 1.414 . S
C883 C882 1.385 1_545 S
C883 C905 1.444 . S
O884 Tb840 2.576 . S
O884 C904 1.279 . S
O885 Tb840 2.610 . S
O885 Tb851 2.362 1_554 S
O885 C896 1.283 . S
O886 Tb851 2.421 1_554 S
O886 C903 1.262 . S
O887 Tb840 2.320 . S
O887 C903 1.260 . S
O888 Tb840 2.552 . S
O888 C896 1.243 . S
O889 Tb840 2.413 . S
O889 C904 1.256 . S
O890 Tb851 2.546 . S
O890 C915 1.251 . S
O891 Tb840 2.362 . S
O891 Tb851 2.610 1_554 S
O891 C907 1.283 . S
O892 Tb840 2.421 1_565 S
O892 C914 1.255 1_564 S
O893 Tb851 2.320 . S
O893 C914 1.287 . S
O894 Tb851 2.552 . S
O894 C907 1.243 1_556 S
O895 Tb851 2.413 . S
O895 C915 1.256 . S
C896 O885 1.283 . S
C896 O888 1.243 . S
C897 C899 1.382 . S
C897 C901 1.393 1_545 S
C897 C904 1.500 . S
C898 C899 1.400 . S
C898 C900 1.365 1_545 S
C899 C897 1.382 . S
C899 C898 1.400 . S
C899 H916 0.930 . S
C900 C898 1.365 1_565 S
C900 C902 1.405 . S
C900 H917 0.937 . S
C901 C897 1.393 1_565 S
C901 C902 1.401 . S
C901 H918 0.930 . S
C902 C900 1.405 . S
C902 C901 1.401 . S
C902 H919 0.930 . S
C903 O886 1.262 . S
C903 O887 1.260 . S
C904 Tb840 2.833 . S
C904 O884 1.279 . S
C904 O889 1.256 . S
C904 C897 1.500 . S
C905 H870 0.929 . S
C905 C883 1.444 . S
C905 C906 1.317 . S
C906 H868 0.930 . S
C906 C874 1.432 . S
C906 C905 1.317 . S
C907 O891 1.283 . S
C907 O894 1.243 1_554 S
C908 C909 1.382 . S
C908 C912 1.393 . S
C908 C915 1.500 . S
C909 C908 1.382 . S
C909 C910 1.400 . S
C909 H920 0.930 . S
C910 C909 1.400 . S
C910 C911 1.384 . S
C911 C910 1.384 . S
C911 C913 1.392 . S
C911 H921 0.931 . S
C912 C908 1.393 . S
C912 C913 1.401 . S
C912 H922 0.930 . S
C913 C911 1.392 . S
C913 C912 1.401 . S
C913 H923 0.930 . S
C914 O892 1.255 1_546 S
C914 O893 1.287 . S
C915 Tb851 2.833 . S
C915 O890 1.251 . S
C915 O895 1.256 . S
C915 C908 1.500 . S
H916 C899 0.930 . S
H917 C900 0.937 . S
H918 C901 0.930 . S
H919 C902 0.930 . S
H920 C909 0.930 . S
H921 C911 0.931 . S
H922 C912 0.930 . S
H923 C913 0.930 . S
Tb924 N955 2.660 . S
Tb924 N962 2.600 . S
Tb924 O968 2.546 . S
Tb924 O969 2.610 . S
Tb924 O971 2.320 . S
Tb924 O972 2.552 . S
Tb924 O973 2.413 . S
Tb924 O975 2.362 . S
Tb924 O976 2.421 . S
Tb924 C988 2.833 . S
C925 C928 1.432 . S
C925 C929 1.414 . S
C925 N932 1.359 . S
C926 C928 1.417 . S
C926 C930 1.432 . S
C926 C938 1.410 . S
C927 C929 1.444 . S
C927 C930 1.317 . S
C927 H950 0.929 . S
C928 C925 1.432 . S
C928 C926 1.417 . S
C928 N936 1.360 . S
C929 C925 1.414 . S
C929 C927 1.444 . S
C929 C934 1.385 . S
C930 C926 1.432 . S
C930 C927 1.317 . S
C930 H942 0.930 . S
C931 C933 1.392 . S
C931 C934 1.370 . S
C931 H943 0.931 . S
N932 C925 1.359 . S
N932 C933 1.327 . S
N932 Tb935 2.600 . S
C933 C931 1.392 . S
C933 N932 1.327 . S
C933 H940 0.930 . S
C934 C929 1.385 . S
C934 C931 1.370 . S
C934 H953 0.930 . S
Tb935 N932 2.600 . S
Tb935 N936 2.660 . S
Tb935 O969 2.362 . S
Tb935 O970 2.421 . S
Tb935 O974 2.546 . S
Tb935 O975 2.610 . S
Tb935 O977 2.320 . S
Tb935 O978 2.552 . S
Tb935 O979 2.413 . S
Tb935 C999 2.833 . S
N936 C928 1.360 . S
N936 Tb935 2.660 . S
N936 C937 1.305 . S
C937 N936 1.305 . S
C937 C939 1.407 . S
C937 H944 0.930 . S
C938 C926 1.410 . S
C938 C939 1.345 . S
C938 H946 0.930 . S
C939 C937 1.407 . S
C939 C938 1.345 . S
C939 H941 0.930 . S
H940 C933 0.930 . S
H941 C939 0.930 . S
H942 C930 0.930 . S
H943 C931 0.931 . S
H944 C937 0.930 . S
H945 C959 0.930 . S
H946 C938 0.930 . S
H947 C965 0.930 . S
H948 C956 0.930 . S
H949 C963 0.931 . S
H950 C927 0.929 . S
H951 C957 0.930 . S
H952 C990 0.930 . S
H953 C934 0.930 . S
H954 C989 0.929 . S
N955 Tb924 2.660 . S
N955 C956 1.305 . S
N955 C960 1.360 . S
C956 H948 0.930 . S
C956 N955 1.305 . S
C956 C959 1.407 . S
C957 H951 0.930 . S
C957 C958 1.410 . S
C957 C959 1.345 . S
C958 C957 1.410 . S
C958 C960 1.417 . S
C958 C990 1.432 . S
C959 H945 0.930 . S
C959 C956 1.407 . S
C959 C957 1.345 . S
C960 N955 1.360 . S
C960 C958 1.417 . S
C960 C964 1.432 . S
H961 C966 0.930 . S
N962 Tb924 2.600 . S
N962 C964 1.359 . S
N962 C965 1.327 . S
C963 H949 0.931 . S
C963 C965 1.392 . S
C963 C966 1.370 . S
C964 C960 1.432 . S
C964 N962 1.359 . S
C964 C967 1.414 . S
C965 H947 0.930 . S
C965 N962 1.327 . S
C965 C963 1.392 . S
C966 H961 0.930 . S
C966 C963 1.370 . S
C966 C967 1.385 . S
C967 C964 1.414 . S
C967 C966 1.385 . S
C967 C989 1.444 . S
O968 Tb924 2.546 . S
O968 C988 1.251 . S
O969 Tb924 2.610 . S
O969 Tb935 2.362 . S
O969 C980 1.283 . S
O970 Tb935 2.421 . S
O970 C987 1.262 . S
O971 Tb924 2.320 . S
O971 C987 1.260 . S
O972 Tb924 2.552 . S
O972 C980 1.243 . S
O973 Tb924 2.413 . S
O973 C988 1.256 . S
O974 Tb935 2.546 . S
O974 C999 1.251 . S
O975 Tb924 2.362 . S
O975 Tb935 2.610 . S
O975 C991 1.283 . S
O976 Tb924 2.421 . S
O976 C998 1.262 . S
O977 Tb935 2.320 . S
O977 C998 1.260 . S
O978 Tb935 2.552 . S
O978 C991 1.243 . S
O979 Tb935 2.413 . S
O979 C999 1.256 . S
C980 O969 1.283 . S
C980 O972 1.243 . S
C981 C983 1.382 . S
C981 C985 1.393 . S
C981 C988 1.500 . S
C982 C983 1.400 . S
C982 C984 1.384 . S
C983 C981 1.382 . S
C983 C982 1.400 . S
C983 H1000 0.930 . S
C984 C982 1.384 . S
C984 C986 1.392 . S
C984 H1001 0.931 . S
C985 C981 1.393 . S
C985 C986 1.401 . S
C985 H1002 0.930 . S
C986 C984 1.392 . S
C986 C985 1.401 . S
C986 H1003 0.930 . S
C987 O970 1.262 . S
C987 O971 1.260 . S
C988 Tb924 2.833 . S
C988 O968 1.251 . S
C988 O973 1.256 . S
C988 C981 1.500 . S
C989 H954 0.929 . S
C989 C967 1.444 . S
C989 C990 1.317 . S
C990 H952 0.930 . S
C990 C958 1.432 . S
C990 C989 1.317 . S
C991 O975 1.283 . S
C991 O978 1.243 . S
C992 C993 1.382 . S
C992 C996 1.393 . S
C992 C999 1.500 . S
C993 C992 1.382 . S
C993 C994 1.400 . S
C993 H1004 0.930 . S
C994 C993 1.400 . S
C994 C995 1.384 . S
C995 C994 1.384 . S
C995 C997 1.392 . S
C995 H1005 0.931 . S
C996 C992 1.393 . S
C996 C997 1.401 . S
C996 H1006 0.930 . S
C997 C995 1.392 . S
C997 C996 1.401 . S
C997 H1007 0.930 . S
C998 O976 1.262 . S
C998 O977 1.260 . S
C999 Tb935 2.833 . S
C999 O974 1.251 . S
C999 O979 1.256 . S
C999 C992 1.500 . S
H1000 C983 0.930 . S
H1001 C984 0.931 . S
H1002 C985 0.930 . S
H1003 C986 0.930 . S
H1004 C993 0.930 . S
H1005 C995 0.931 . S
H1006 C996 0.930 . S
H1007 C997 0.930 . S
Tb1008 N1039 2.660 . S
Tb1008 N1046 2.600 . S
Tb1008 O1052 2.546 . S
Tb1008 O1053 2.610 1_554 S
Tb1008 O1055 2.320 . S
Tb1008 O1056 2.552 1_554 S
Tb1008 O1057 2.413 . S
Tb1008 O1059 2.362 . S
Tb1008 O1060 2.421 . S
Tb1008 C1072 2.833 . S
C1009 C1012 1.432 . S
C1009 C1013 1.414 . S
C1009 N1016 1.359 . S
C1010 C1012 1.417 . S
C1010 C1014 1.432 . S
C1010 C1022 1.410 . S
C1011 C1013 1.444 . S
C1011 C1014 1.317 . S
C1011 H1034 0.929 . S
C1012 C1009 1.432 . S
C1012 C1010 1.417 . S
C1012 N1020 1.360 . S
C1013 C1009 1.414 . S
C1013 C1011 1.444 . S
C1013 C1018 1.385 . S
C1014 C1010 1.432 . S
C1014 C1011 1.317 . S
C1014 H1026 0.930 . S
C1015 C1017 1.392 . S
C1015 C1018 1.370 . S
C1015 H1027 0.931 . S
N1016 C1009 1.359 . S
N1016 C1017 1.327 . S
N1016 Tb1019 2.600 1_556 S
C1017 C1015 1.392 . S
C1017 N1016 1.327 . S
C1017 H1024 0.930 . S
C1018 C1013 1.385 . S
C1018 C1015 1.370 . S
C1018 H1037 0.930 . S
Tb1019 N1016 2.600 1_554 S
Tb1019 N1020 2.660 1_554 S
Tb1019 O1053 2.362 1_554 S
Tb1019 O1054 2.421 . S
Tb1019 O1058 2.546 . S
Tb1019 O1059 2.610 . S
Tb1019 O1061 2.320 . S
Tb1019 O1062 2.552 . S
Tb1019 O1063 2.413 . S
Tb1019 C1083 2.833 . S
N1020 C1012 1.360 . S
N1020 Tb1019 2.660 1_556 S
N1020 C1021 1.305 . S
C1021 N1020 1.305 . S
C1021 C1023 1.407 . S
C1021 H1028 0.930 . S
C1022 C1010 1.410 . S
C1022 C1023 1.345 . S
C1022 H1030 0.930 . S
C1023 C1021 1.407 . S
C1023 C1022 1.345 . S
C1023 H1025 0.930 . S
H1024 C1017 0.930 . S
H1025 C1023 0.930 . S
H1026 C1014 0.930 . S
H1027 C1015 0.931 . S
H1028 C1021 0.930 . S
H1029 C1043 0.930 . S
H1030 C1022 0.930 . S
H1031 C1049 0.930 . S
H1032 C1040 0.930 . S
H1033 C1047 0.931 . S
H1034 C1011 0.929 . S
H1035 C1041 0.930 . S
H1036 C1074 0.930 . S
H1037 C1018 0.930 . S
H1038 C1073 0.929 . S
N1039 Tb1008 2.660 . S
N1039 C1040 1.305 . S
N1039 C1044 1.360 . S
C1040 H1032 0.930 . S
C1040 N1039 1.305 . S
C1040 C1043 1.407 . S
C1041 H1035 0.930 . S
C1041 C1042 1.410 . S
C1041 C1043 1.345 . S
C1042 C1041 1.410 . S
C1042 C1044 1.417 . S
C1042 C1074 1.432 . S
C1043 H1029 0.930 . S
C1043 C1040 1.407 . S
C1043 C1041 1.345 . S
C1044 N1039 1.360 . S
C1044 C1042 1.417 . S
C1044 C1048 1.432 . S
H1045 C1050 0.930 . S
N1046 Tb1008 2.600 . S
N1046 C1048 1.359 . S
N1046 C1049 1.327 . S
C1047 H1033 0.931 . S
C1047 C1049 1.392 . S
C1047 C1050 1.370 . S
C1048 C1044 1.432 . S
C1048 N1046 1.359 . S
C1048 C1051 1.414 . S
C1049 H1031 0.930 . S
C1049 N1046 1.327 . S
C1049 C1047 1.392 . S
C1050 H1045 0.930 . S
C1050 C1047 1.370 . S
C1050 C1051 1.385 . S
C1051 C1048 1.414 . S
C1051 C1050 1.385 . S
C1051 C1073 1.444 . S
O1052 Tb1008 2.546 . S
O1052 C1072 1.251 . S
O1053 Tb1008 2.610 1_556 S
O1053 Tb1019 2.362 1_556 S
O1053 C1064 1.283 . S
O1054 Tb1019 2.421 . S
O1054 C1071 1.262 . S
O1055 Tb1008 2.320 . S
O1055 C1071 1.260 . S
O1056 Tb1008 2.552 1_556 S
O1056 C1064 1.243 . S
O1057 Tb1008 2.413 . S
O1057 C1072 1.256 . S
O1058 Tb1019 2.546 . S
O1058 C1083 1.251 . S
O1059 Tb1008 2.362 . S
O1059 Tb1019 2.610 . S
O1059 C1075 1.283 . S
O1060 Tb1008 2.421 . S
O1060 C1082 1.262 . S
O1061 Tb1019 2.320 . S
O1061 C1082 1.260 . S
O1062 Tb1019 2.552 . S
O1062 C1075 1.243 . S
O1063 Tb1019 2.413 . S
O1063 C1083 1.256 . S
C1064 O1053 1.283 . S
C1064 O1056 1.243 . S
C1065 C1067 1.382 . S
C1065 C1069 1.393 . S
C1065 C1072 1.500 . S
C1066 C1067 1.400 1_556 S
C1066 C1068 1.384 1_556 S
C1067 C1065 1.382 . S
C1067 C1066 1.400 1_554 S
C1067 H1084 0.930 1_554 S
C1068 C1066 1.384 1_554 S
C1068 C1070 1.392 . S
C1068 H1085 0.922 1_554 S
C1069 C1065 1.393 . S
C1069 C1070 1.401 . S
C1069 H1086 0.930 . S
C1070 C1068 1.392 . S
C1070 C1069 1.401 . S
C1070 H1087 0.930 . S
C1071 O1054 1.262 . S
C1071 O1055 1.260 . S
C1072 Tb1008 2.833 . S
C1072 O1052 1.251 . S
C1072 O1057 1.256 . S
C1072 C1065 1.500 . S
C1073 H1038 0.929 . S
C1073 C1051 1.444 . S
C1073 C1074 1.317 . S
C1074 H1036 0.930 . S
C1074 C1042 1.432 . S
C1074 C1073 1.317 . S
C1075 O1059 1.283 . S
C1075 O1062 1.243 . S
C1076 C1077 1.382 . S
C1076 C1080 1.393 . S
C1076 C1083 1.500 . S
C1077 C1076 1.382 . S
C1077 C1078 1.400 . S
C1077 H1088 0.930 . S
C1078 C1077 1.400 . S
C1078 C1079 1.384 . S
C1079 C1078 1.384 . S
C1079 C1081 1.392 . S
C1079 H1089 0.931 . S
C1080 C1076 1.393 . S
C1080 C1081 1.401 . S
C1080 H1090 0.956 . S
C1081 C1079 1.392 . S
C1081 C1080 1.401 . S
C1081 H1091 0.930 . S
C1082 O1060 1.262 . S
C1082 O1061 1.260 . S
C1083 Tb1019 2.833 . S
C1083 O1058 1.251 . S
C1083 O1063 1.256 . S
C1083 C1076 1.500 . S
H1084 C1067 0.930 1_556 S
H1085 C1068 0.922 1_556 S
H1086 C1069 0.930 . S
H1087 C1070 0.930 . S
H1088 C1077 0.930 . S
H1089 C1079 0.931 . S
H1090 C1080 0.956 . S
H1091 C1081 0.930 . S
Tb1092 N1123 2.660 . S
Tb1092 N1130 2.600 . S
Tb1092 O1136 2.546 . S
Tb1092 O1137 2.610 . S
Tb1092 O1139 2.320 . S
Tb1092 O1140 2.552 . S
Tb1092 O1141 2.413 . S
Tb1092 O1143 2.362 . S
Tb1092 O1144 2.421 . S
Tb1092 C1156 2.833 . S
C1093 C1096 1.432 . S
C1093 C1097 1.414 . S
C1093 N1100 1.359 . S
C1094 C1096 1.417 . S
C1094 C1098 1.432 . S
C1094 C1106 1.410 . S
C1095 C1097 1.444 . S
C1095 C1098 1.317 . S
C1095 H1118 0.929 . S
C1096 C1093 1.432 . S
C1096 C1094 1.417 . S
C1096 N1104 1.360 . S
C1097 C1093 1.414 . S
C1097 C1095 1.444 . S
C1097 C1102 1.385 . S
C1098 C1094 1.432 . S
C1098 C1095 1.317 . S
C1098 H1110 0.930 . S
C1099 C1101 1.392 . S
C1099 C1102 1.370 . S
C1099 H1111 0.931 . S
N1100 C1093 1.359 . S
N1100 C1101 1.327 . S
N1100 Tb1103 2.600 . S
C1101 C1099 1.392 . S
C1101 N1100 1.327 . S
C1101 H1108 0.930 . S
C1102 C1097 1.385 . S
C1102 C1099 1.370 . S
C1102 H1121 0.930 . S
Tb1103 N1100 2.600 . S
Tb1103 N1104 2.660 . S
Tb1103 O1137 2.362 . S
Tb1103 O1138 2.421 . S
Tb1103 O1142 2.546 . S
Tb1103 O1143 2.610 . S
Tb1103 O1145 2.320 . S
Tb1103 O1146 2.552 . S
Tb1103 O1147 2.413 . S
Tb1103 C1167 2.833 . S
N1104 C1096 1.360 . S
N1104 Tb1103 2.660 . S
N1104 C1105 1.305 . S
C1105 N1104 1.305 . S
C1105 C1107 1.407 . S
C1105 H1112 0.930 . S
C1106 C1094 1.410 . S
C1106 C1107 1.345 . S
C1106 H1114 0.930 . S
C1107 C1105 1.407 . S
C1107 C1106 1.345 . S
C1107 H1109 0.930 . S
H1108 C1101 0.930 . S
H1109 C1107 0.930 . S
H1110 C1098 0.930 . S
H1111 C1099 0.931 . S
H1112 C1105 0.930 . S
H1113 C1127 0.930 . S
H1114 C1106 0.930 . S
H1115 C1133 0.930 . S
H1116 C1124 0.930 . S
H1117 C1131 0.931 . S
H1118 C1095 0.929 . S
H1119 C1125 0.930 . S
H1120 C1158 0.930 . S
H1121 C1102 0.930 . S
H1122 C1157 0.929 . S
N1123 Tb1092 2.660 . S
N1123 C1124 1.305 . S
N1123 C1128 1.360 . S
C1124 H1116 0.930 . S
C1124 N1123 1.305 . S
C1124 C1127 1.407 . S
C1125 H1119 0.930 . S
C1125 C1126 1.410 . S
C1125 C1127 1.345 . S
C1126 C1125 1.410 . S
C1126 C1128 1.417 . S
C1126 C1158 1.432 . S
C1127 H1113 0.930 . S
C1127 C1124 1.407 . S
C1127 C1125 1.345 . S
C1128 N1123 1.360 . S
C1128 C1126 1.417 . S
C1128 C1132 1.432 . S
H1129 C1134 0.930 . S
N1130 Tb1092 2.600 . S
N1130 C1132 1.359 . S
N1130 C1133 1.327 . S
C1131 H1117 0.931 . S
C1131 C1133 1.392 . S
C1131 C1134 1.370 . S
C1132 C1128 1.432 . S
C1132 N1130 1.359 . S
C1132 C1135 1.414 . S
C1133 H1115 0.930 . S
C1133 N1130 1.327 . S
C1133 C1131 1.392 . S
C1134 H1129 0.930 . S
C1134 C1131 1.370 . S
C1134 C1135 1.385 . S
C1135 C1132 1.414 . S
C1135 C1134 1.385 . S
C1135 C1157 1.444 . S
O1136 Tb1092 2.546 . S
O1136 C1156 1.251 . S
O1137 Tb1092 2.610 . S
O1137 Tb1103 2.362 . S
O1137 C1148 1.283 . S
O1138 Tb1103 2.421 . S
O1138 C1155 1.262 . S
O1139 Tb1092 2.320 . S
O1139 C1155 1.260 . S
O1140 Tb1092 2.552 . S
O1140 C1148 1.243 . S
O1141 Tb1092 2.413 . S
O1141 C1156 1.256 . S
O1142 Tb1103 2.546 . S
O1142 C1167 1.251 . S
O1143 Tb1092 2.362 . S
O1143 Tb1103 2.610 . S
O1143 C1159 1.283 . S
O1144 Tb1092 2.421 . S
O1144 C1166 1.262 . S
O1145 Tb1103 2.320 . S
O1145 C1166 1.260 . S
O1146 Tb1103 2.552 . S
O1146 C1159 1.243 . S
O1147 Tb1103 2.413 . S
O1147 C1167 1.256 . S
C1148 O1137 1.283 . S
C1148 O1140 1.243 . S
C1149 C1151 1.382 . S
C1149 C1153 1.393 . S
C1149 C1156 1.500 . S
C1150 C1151 1.400 . S
C1150 C1152 1.384 . S
C1151 C1149 1.382 . S
C1151 C1150 1.400 . S
C1151 H1168 0.930 . S
C1152 C1150 1.384 . S
C1152 C1154 1.392 . S
C1152 H1169 0.931 . S
C1153 C1149 1.393 . S
C1153 C1154 1.401 . S
C1153 H1170 0.930 . S
C1154 C1152 1.392 . S
C1154 C1153 1.401 . S
C1154 H1171 0.930 . S
C1155 O1138 1.262 . S
C1155 O1139 1.260 . S
C1156 Tb1092 2.833 . S
C1156 O1136 1.251 . S
C1156 O1141 1.256 . S
C1156 C1149 1.500 . S
C1157 H1122 0.929 . S
C1157 C1135 1.444 . S
C1157 C1158 1.317 . S
C1158 H1120 0.930 . S
C1158 C1126 1.432 . S
C1158 C1157 1.317 . S
C1159 O1143 1.283 . S
C1159 O1146 1.243 . S
C1160 C1161 1.382 . S
C1160 C1164 1.393 . S
C1160 C1167 1.500 . S
C1161 C1160 1.382 . S
C1161 C1162 1.400 . S
C1161 H1172 0.930 . S
C1162 C1161 1.400 . S
C1162 C1163 1.384 . S
C1163 C1162 1.384 . S
C1163 C1165 1.392 . S
C1163 H1173 0.931 . S
C1164 C1160 1.393 . S
C1164 C1165 1.401 . S
C1164 H1174 0.930 . S
C1165 C1163 1.392 . S
C1165 C1164 1.401 . S
C1165 H1175 0.930 . S
C1166 O1144 1.262 . S
C1166 O1145 1.260 . S
C1167 Tb1103 2.833 . S
C1167 O1142 1.251 . S
C1167 O1147 1.256 . S
C1167 C1160 1.500 . S
H1168 C1151 0.930 . S
H1169 C1152 0.931 . S
H1170 C1153 0.930 . S
H1171 C1154 0.930 . S
H1172 C1161 0.930 . S
H1173 C1163 0.931 . S
H1174 C1164 0.930 . S
H1175 C1165 0.930 . S
Tb1176 N1207 2.660 . S
Tb1176 N1214 2.600 . S
Tb1176 O1220 2.546 . S
Tb1176 O1221 2.610 . S
Tb1176 O1223 2.320 . S
Tb1176 O1224 2.552 . S
Tb1176 O1225 2.413 . S
Tb1176 O1227 2.362 . S
Tb1176 O1228 2.421 . S
Tb1176 C1240 2.833 . S
C1177 C1180 1.434 1_455 S
C1177 C1181 1.404 1_455 S
C1177 N1184 1.367 . S
C1178 C1180 1.417 . S
C1178 C1182 1.432 . S
C1178 C1190 1.410 . S
C1179 C1181 1.444 . S
C1179 C1182 1.317 . S
C1179 H1202 0.929 . S
C1180 C1177 1.434 1_655 S
C1180 C1178 1.417 . S
C1180 N1188 1.360 1_655 S
C1181 C1177 1.404 1_655 S
C1181 C1179 1.444 . S
C1181 C1186 1.385 . S
C1182 C1178 1.432 . S
C1182 C1179 1.317 . S
C1182 H1194 0.930 . S
C1183 C1185 1.392 . S
C1183 C1186 1.370 1_455 S
C1183 H1195 0.931 . S
N1184 C1177 1.367 . S
N1184 C1185 1.327 . S
N1184 Tb1187 2.600 . S
C1185 C1183 1.392 . S
C1185 N1184 1.327 . S
C1185 H1192 0.930 . S
C1186 C1181 1.385 . S
C1186 C1183 1.370 1_655 S
C1186 H1205 0.930 . S
Tb1187 N1184 2.600 . S
Tb1187 N1188 2.660 . S
Tb1187 O1221 2.362 . S
Tb1187 O1222 2.421 . S
Tb1187 O1226 2.546 . S
Tb1187 O1227 2.610 . S
Tb1187 O1229 2.320 . S
Tb1187 O1230 2.552 . S
Tb1187 O1231 2.413 . S
Tb1187 C1251 2.833 . S
N1188 C1180 1.360 1_455 S
N1188 Tb1187 2.660 . S
N1188 C1189 1.305 . S
C1189 N1188 1.305 . S
C1189 C1191 1.407 1_455 S
C1189 H1196 0.930 . S
C1190 C1178 1.410 . S
C1190 C1191 1.345 . S
C1190 H1198 0.930 . S
C1191 C1189 1.407 1_655 S
C1191 C1190 1.345 . S
C1191 H1193 0.930 . S
H1192 C1185 0.930 . S
H1193 C1191 0.930 . S
H1194 C1182 0.930 . S
H1195 C1183 0.931 . S
H1196 C1189 0.930 . S
H1197 C1211 0.930 . S
H1198 C1190 0.930 . S
H1199 C1217 0.930 . S
H1200 C1208 0.930 . S
H1201 C1215 0.931 . S
H1202 C1179 0.929 . S
H1203 C1209 0.930 . S
H1204 C1242 0.930 . S
H1205 C1186 0.930 . S
H1206 C1241 0.929 . S
N1207 Tb1176 2.660 . S
N1207 C1208 1.305 . S
N1207 C1212 1.360 . S
C1208 H1200 0.930 . S
C1208 N1207 1.305 . S
C1208 C1211 1.407 . S
C1209 H1203 0.930 . S
C1209 C1210 1.410 . S
C1209 C1211 1.345 . S
C1210 C1209 1.410 . S
C1210 C1212 1.417 . S
C1210 C1242 1.432 . S
C1211 H1197 0.930 . S
C1211 C1208 1.407 . S
C1211 C1209 1.345 . S
C1212 N1207 1.360 . S
C1212 C1210 1.417 . S
C1212 C1216 1.432 . S
H1213 C1218 0.930 . S
N1214 Tb1176 2.600 . S
N1214 C1216 1.359 . S
N1214 C1217 1.327 . S
C1215 H1201 0.931 . S
C1215 C1217 1.392 . S
C1215 C1218 1.370 . S
C1216 C1212 1.432 . S
C1216 N1214 1.359 . S
C1216 C1219 1.414 . S
C1217 H1199 0.930 . S
C1217 N1214 1.327 . S
C1217 C1215 1.392 . S
C1218 H1213 0.930 . S
C1218 C1215 1.370 . S
C1218 C1219 1.385 . S
C1219 C1216 1.414 . S
C1219 C1218 1.385 . S
C1219 C1241 1.444 . S
O1220 Tb1176 2.546 . S
O1220 C1240 1.251 . S
O1221 Tb1176 2.610 . S
O1221 Tb1187 2.362 . S
O1221 C1232 1.283 . S
O1222 Tb1187 2.421 . S
O1222 C1239 1.262 . S
O1223 Tb1176 2.320 . S
O1223 C1239 1.260 . S
O1224 Tb1176 2.552 . S
O1224 C1232 1.243 . S
O1225 Tb1176 2.413 . S
O1225 C1240 1.256 . S
O1226 Tb1187 2.546 . S
O1226 C1251 1.251 . S
O1227 Tb1176 2.362 . S
O1227 Tb1187 2.610 . S
O1227 C1243 1.283 . S
O1228 Tb1176 2.421 . S
O1228 C1250 1.262 . S
O1229 Tb1187 2.320 . S
O1229 C1250 1.260 . S
O1230 Tb1187 2.552 . S
O1230 C1243 1.243 . S
O1231 Tb1187 2.413 . S
O1231 C1251 1.256 . S
C1232 O1221 1.283 . S
C1232 O1224 1.243 . S
C1233 C1235 1.382 . S
C1233 C1237 1.393 . S
C1233 C1240 1.500 . S
C1234 C1235 1.400 . S
C1234 C1236 1.384 . S
C1235 C1233 1.382 . S
C1235 C1234 1.400 . S
C1235 H1252 0.930 . S
C1236 C1234 1.384 . S
C1236 C1238 1.392 . S
C1236 H1253 0.931 . S
C1237 C1233 1.393 . S
C1237 C1238 1.401 . S
C1237 H1254 0.930 . S
C1238 C1236 1.392 . S
C1238 C1237 1.401 . S
C1238 H1255 0.930 . S
C1239 O1222 1.262 . S
C1239 O1223 1.260 . S
C1240 Tb1176 2.833 . S
C1240 O1220 1.251 . S
C1240 O1225 1.256 . S
C1240 C1233 1.500 . S
C1241 H1206 0.929 . S
C1241 C1219 1.444 . S
C1241 C1242 1.317 . S
C1242 H1204 0.930 . S
C1242 C1210 1.432 . S
C1242 C1241 1.317 . S
C1243 O1227 1.283 . S
C1243 O1230 1.243 . S
C1244 C1245 1.382 . S
C1244 C1248 1.393 . S
C1244 C1251 1.500 . S
C1245 C1244 1.382 . S
C1245 C1246 1.400 . S
C1245 H1256 0.930 . S
C1246 C1245 1.400 . S
C1246 C1247 1.384 . S
C1247 C1246 1.384 . S
C1247 C1249 1.392 . S
C1247 H1257 0.931 . S
C1248 C1244 1.393 . S
C1248 C1249 1.401 . S
C1248 H1258 0.930 . S
C1249 C1247 1.392 . S
C1249 C1248 1.401 . S
C1249 H1259 0.930 . S
C1250 O1228 1.262 . S
C1250 O1229 1.260 . S
C1251 Tb1187 2.833 . S
C1251 O1226 1.251 . S
C1251 O1231 1.256 . S
C1251 C1244 1.500 . S
H1252 C1235 0.930 . S
H1253 C1236 0.931 . S
H1254 C1237 0.930 . S
H1255 C1238 0.930 . S
H1256 C1245 0.930 . S
H1257 C1247 0.931 . S
H1258 C1248 0.930 . S
H1259 C1249 0.930 . S
Tb1260 N1291 2.660 . S
Tb1260 N1298 2.600 . S
Tb1260 O1304 2.546 . S
Tb1260 O1305 2.610 . S
Tb1260 O1307 2.320 . S
Tb1260 O1308 2.552 . S
Tb1260 O1309 2.413 . S
Tb1260 O1311 2.362 . S
Tb1260 O1312 2.421 . S
Tb1260 C1324 2.833 . S
C1261 C1264 1.432 . S
C1261 C1265 1.414 . S
C1261 N1268 1.359 . S
C1262 C1264 1.417 . S
C1262 C1266 1.432 . S
C1262 C1274 1.410 . S
C1263 C1265 1.444 . S
C1263 C1266 1.317 . S
C1263 H1286 0.929 . S
C1264 C1261 1.432 . S
C1264 C1262 1.417 . S
C1264 N1272 1.360 . S
C1265 C1261 1.414 . S
C1265 C1263 1.444 . S
C1265 C1270 1.385 . S
C1266 C1262 1.432 . S
C1266 C1263 1.317 . S
C1266 H1278 0.930 . S
C1267 C1269 1.392 . S
C1267 C1270 1.370 . S
C1267 H1279 0.931 . S
N1268 C1261 1.359 . S
N1268 C1269 1.327 . S
N1268 Tb1271 2.600 . S
C1269 C1267 1.392 . S
C1269 N1268 1.327 . S
C1269 H1276 0.930 . S
C1270 C1265 1.385 . S
C1270 C1267 1.370 . S
C1270 H1289 0.930 . S
Tb1271 N1268 2.600 . S
Tb1271 N1272 2.660 . S
Tb1271 O1305 2.362 . S
Tb1271 O1306 2.421 . S
Tb1271 O1310 2.546 . S
Tb1271 O1311 2.610 . S
Tb1271 O1313 2.320 . S
Tb1271 O1314 2.552 . S
Tb1271 O1315 2.413 . S
Tb1271 C1335 2.833 . S
N1272 C1264 1.360 . S
N1272 Tb1271 2.660 . S
N1272 C1273 1.305 . S
C1273 N1272 1.305 . S
C1273 C1275 1.407 . S
C1273 H1280 0.930 . S
C1274 C1262 1.410 . S
C1274 C1275 1.345 . S
C1274 H1282 0.930 . S
C1275 C1273 1.407 . S
C1275 C1274 1.345 . S
C1275 H1277 0.930 . S
H1276 C1269 0.930 . S
H1277 C1275 0.930 . S
H1278 C1266 0.930 . S
H1279 C1267 0.931 . S
H1280 C1273 0.930 . S
H1281 C1295 0.930 . S
H1282 C1274 0.930 . S
H1283 C1301 0.930 . S
H1284 C1292 0.930 . S
H1285 C1299 0.931 . S
H1286 C1263 0.929 . S
H1287 C1293 0.930 . S
H1288 C1326 0.930 . S
H1289 C1270 0.930 . S
H1290 C1325 0.929 . S
N1291 Tb1260 2.660 . S
N1291 C1292 1.305 . S
N1291 C1296 1.360 . S
C1292 H1284 0.930 . S
C1292 N1291 1.305 . S
C1292 C1295 1.407 . S
C1293 H1287 0.930 . S
C1293 C1294 1.410 . S
C1293 C1295 1.345 . S
C1294 C1293 1.410 . S
C1294 C1296 1.417 . S
C1294 C1326 1.432 . S
C1295 H1281 0.930 . S
C1295 C1292 1.407 . S
C1295 C1293 1.345 . S
C1296 N1291 1.360 . S
C1296 C1294 1.417 . S
C1296 C1300 1.432 . S
H1297 C1302 0.930 . S
N1298 Tb1260 2.600 . S
N1298 C1300 1.359 . S
N1298 C1301 1.327 . S
C1299 H1285 0.931 . S
C1299 C1301 1.392 . S
C1299 C1302 1.370 . S
C1300 C1296 1.432 . S
C1300 N1298 1.359 . S
C1300 C1303 1.414 . S
C1301 H1283 0.930 . S
C1301 N1298 1.327 . S
C1301 C1299 1.392 . S
C1302 H1297 0.930 . S
C1302 C1299 1.370 . S
C1302 C1303 1.385 . S
C1303 C1300 1.414 . S
C1303 C1302 1.385 . S
C1303 C1325 1.444 . S
O1304 Tb1260 2.546 . S
O1304 C1324 1.251 . S
O1305 Tb1260 2.610 . S
O1305 Tb1271 2.362 . S
O1305 C1316 1.283 . S
O1306 Tb1271 2.421 . S
O1306 C1323 1.262 . S
O1307 Tb1260 2.320 . S
O1307 C1323 1.260 . S
O1308 Tb1260 2.552 . S
O1308 C1316 1.243 . S
O1309 Tb1260 2.413 . S
O1309 C1324 1.256 . S
O1310 Tb1271 2.546 . S
O1310 C1335 1.251 . S
O1311 Tb1260 2.362 . S
O1311 Tb1271 2.610 . S
O1311 C1327 1.283 . S
O1312 Tb1260 2.421 . S
O1312 C1334 1.262 . S
O1313 Tb1271 2.320 . S
O1313 C1334 1.260 . S
O1314 Tb1271 2.552 . S
O1314 C1327 1.243 . S
O1315 Tb1271 2.413 . S
O1315 C1335 1.256 . S
C1316 O1305 1.283 . S
C1316 O1308 1.243 . S
C1317 C1319 1.382 . S
C1317 C1321 1.393 . S
C1317 C1324 1.500 . S
C1318 C1319 1.400 . S
C1318 C1320 1.384 . S
C1319 C1317 1.382 . S
C1319 C1318 1.400 . S
C1319 H1336 0.930 . S
C1320 C1318 1.384 . S
C1320 C1322 1.392 . S
C1320 H1337 0.931 . S
C1321 C1317 1.393 . S
C1321 C1322 1.401 . S
C1321 H1338 0.930 . S
C1322 C1320 1.392 . S
C1322 C1321 1.401 . S
C1322 H1339 0.930 . S
C1323 O1306 1.262 . S
C1323 O1307 1.260 . S
C1324 Tb1260 2.833 . S
C1324 O1304 1.251 . S
C1324 O1309 1.256 . S
C1324 C1317 1.500 . S
C1325 H1290 0.929 . S
C1325 C1303 1.444 . S
C1325 C1326 1.317 . S
C1326 H1288 0.930 . S
C1326 C1294 1.432 . S
C1326 C1325 1.317 . S
C1327 O1311 1.283 . S
C1327 O1314 1.243 . S
C1328 C1329 1.382 . S
C1328 C1332 1.393 . S
C1328 C1335 1.500 . S
C1329 C1328 1.382 . S
C1329 C1330 1.400 . S
C1329 H1340 0.930 . S
C1330 C1329 1.400 . S
C1330 C1331 1.384 . S
C1331 C1330 1.384 . S
C1331 C1333 1.392 . S
C1331 H1341 0.931 . S
C1332 C1328 1.393 . S
C1332 C1333 1.401 . S
C1332 H1342 0.930 . S
C1333 C1331 1.392 . S
C1333 C1332 1.401 . S
C1333 H1343 0.930 . S
C1334 O1312 1.262 . S
C1334 O1313 1.260 . S
C1335 Tb1271 2.833 . S
C1335 O1310 1.251 . S
C1335 O1315 1.256 . S
C1335 C1328 1.500 . S
H1336 C1319 0.930 . S
H1337 C1320 0.931 . S
H1338 C1321 0.930 . S
H1339 C1322 0.930 . S
H1340 C1329 0.930 . S
H1341 C1331 0.931 . S
H1342 C1332 0.930 . S
H1343 C1333 0.930 . S
Tb1344 N1375 2.660 . S
Tb1344 N1382 2.600 . S
Tb1344 O1388 2.546 . S
Tb1344 O1389 2.610 . S
Tb1344 O1391 2.320 . S
Tb1344 O1392 2.552 . S
Tb1344 O1393 2.413 . S
Tb1344 O1395 2.362 . S
Tb1344 O1396 2.421 . S
Tb1344 C1408 2.833 . S
C1345 C1348 1.432 . S
C1345 C1349 1.414 . S
C1345 N1352 1.359 . S
C1346 C1348 1.417 . S
C1346 C1350 1.432 . S
C1346 C1358 1.410 . S
C1347 C1349 1.444 . S
C1347 C1350 1.317 . S
C1347 H1370 0.929 . S
C1348 C1345 1.432 . S
C1348 C1346 1.417 . S
C1348 N1356 1.360 . S
C1349 C1345 1.414 . S
C1349 C1347 1.444 . S
C1349 C1354 1.385 . S
C1350 C1346 1.432 . S
C1350 C1347 1.317 . S
C1350 H1362 0.930 . S
C1351 C1353 1.392 . S
C1351 C1354 1.370 . S
C1351 H1363 0.931 . S
N1352 C1345 1.359 . S
N1352 C1353 1.327 . S
N1352 Tb1355 2.600 . S
C1353 C1351 1.392 . S
C1353 N1352 1.327 . S
C1353 H1360 0.930 . S
C1354 C1349 1.385 . S
C1354 C1351 1.370 . S
C1354 H1373 0.930 . S
Tb1355 N1352 2.600 . S
Tb1355 N1356 2.660 . S
Tb1355 O1389 2.362 . S
Tb1355 O1390 2.421 . S
Tb1355 O1394 2.546 . S
Tb1355 O1395 2.610 . S
Tb1355 O1397 2.320 . S
Tb1355 O1398 2.552 . S
Tb1355 O1399 2.413 . S
Tb1355 C1419 2.833 . S
N1356 C1348 1.360 . S
N1356 Tb1355 2.660 . S
N1356 C1357 1.305 . S
C1357 N1356 1.305 . S
C1357 C1359 1.407 . S
C1357 H1364 0.930 . S
C1358 C1346 1.410 . S
C1358 C1359 1.345 . S
C1358 H1366 0.930 . S
C1359 C1357 1.407 . S
C1359 C1358 1.345 . S
C1359 H1361 0.930 . S
H1360 C1353 0.930 . S
H1361 C1359 0.930 . S
H1362 C1350 0.930 . S
H1363 C1351 0.931 . S
H1364 C1357 0.930 . S
H1365 C1379 0.930 . S
H1366 C1358 0.930 . S
H1367 C1385 0.930 . S
H1368 C1376 0.930 . S
H1369 C1383 0.931 . S
H1370 C1347 0.929 . S
H1371 C1377 0.930 . S
H1372 C1410 0.930 . S
H1373 C1354 0.930 . S
H1374 C1409 0.929 . S
N1375 Tb1344 2.660 . S
N1375 C1376 1.305 . S
N1375 C1380 1.360 . S
C1376 H1368 0.930 . S
C1376 N1375 1.305 . S
C1376 C1379 1.407 . S
C1377 H1371 0.930 . S
C1377 C1378 1.410 . S
C1377 C1379 1.345 . S
C1378 C1377 1.410 . S
C1378 C1380 1.417 . S
C1378 C1410 1.432 . S
C1379 H1365 0.930 . S
C1379 C1376 1.407 . S
C1379 C1377 1.345 . S
C1380 N1375 1.360 . S
C1380 C1378 1.417 . S
C1380 C1384 1.432 . S
H1381 C1386 0.930 . S
N1382 Tb1344 2.600 . S
N1382 C1384 1.359 . S
N1382 C1385 1.327 . S
C1383 H1369 0.931 . S
C1383 C1385 1.392 . S
C1383 C1386 1.370 . S
C1384 C1380 1.432 . S
C1384 N1382 1.359 . S
C1384 C1387 1.414 . S
C1385 H1367 0.930 . S
C1385 N1382 1.327 . S
C1385 C1383 1.392 . S
C1386 H1381 0.930 . S
C1386 C1383 1.370 . S
C1386 C1387 1.385 . S
C1387 C1384 1.414 . S
C1387 C1386 1.385 . S
C1387 C1409 1.444 . S
O1388 Tb1344 2.546 . S
O1388 C1408 1.251 . S
O1389 Tb1344 2.610 . S
O1389 Tb1355 2.362 . S
O1389 C1400 1.283 . S
O1390 Tb1355 2.421 . S
O1390 C1407 1.262 . S
O1391 Tb1344 2.320 . S
O1391 C1407 1.260 . S
O1392 Tb1344 2.552 . S
O1392 C1400 1.243 . S
O1393 Tb1344 2.413 . S
O1393 C1408 1.256 . S
O1394 Tb1355 2.546 . S
O1394 C1419 1.251 . S
O1395 Tb1344 2.362 . S
O1395 Tb1355 2.610 . S
O1395 C1411 1.283 . S
O1396 Tb1344 2.421 . S
O1396 C1418 1.262 . S
O1397 Tb1355 2.320 . S
O1397 C1418 1.260 . S
O1398 Tb1355 2.552 . S
O1398 C1411 1.243 . S
O1399 Tb1355 2.413 . S
O1399 C1419 1.256 . S
C1400 O1389 1.283 . S
C1400 O1392 1.243 . S
C1401 C1403 1.382 . S
C1401 C1405 1.393 . S
C1401 C1408 1.500 . S
C1402 C1403 1.400 . S
C1402 C1404 1.384 . S
C1403 C1401 1.382 . S
C1403 C1402 1.400 . S
C1403 H1420 0.930 . S
C1404 C1402 1.384 . S
C1404 C1406 1.392 . S
C1404 H1421 0.931 . S
C1405 C1401 1.393 . S
C1405 C1406 1.401 . S
C1405 H1422 0.930 . S
C1406 C1404 1.392 . S
C1406 C1405 1.401 . S
C1406 H1423 0.930 . S
C1407 O1390 1.262 . S
C1407 O1391 1.260 . S
C1408 Tb1344 2.833 . S
C1408 O1388 1.251 . S
C1408 O1393 1.256 . S
C1408 C1401 1.500 . S
C1409 H1374 0.929 . S
C1409 C1387 1.444 . S
C1409 C1410 1.317 . S
C1410 H1372 0.930 . S
C1410 C1378 1.432 . S
C1410 C1409 1.317 . S
C1411 O1395 1.283 . S
C1411 O1398 1.243 . S
C1412 C1413 1.382 . S
C1412 C1416 1.393 . S
C1412 C1419 1.500 . S
C1413 C1412 1.382 . S
C1413 C1414 1.400 . S
C1413 H1424 0.930 . S
C1414 C1413 1.400 . S
C1414 C1415 1.384 . S
C1415 C1414 1.384 . S
C1415 C1417 1.392 . S
C1415 H1425 0.931 . S
C1416 C1412 1.393 . S
C1416 C1417 1.401 . S
C1416 H1426 0.930 . S
C1417 C1415 1.392 . S
C1417 C1416 1.401 . S
C1417 H1427 0.930 . S
C1418 O1396 1.262 . S
C1418 O1397 1.260 . S
C1419 Tb1355 2.833 . S
C1419 O1394 1.251 . S
C1419 O1399 1.256 . S
C1419 C1412 1.500 . S
H1420 C1403 0.930 . S
H1421 C1404 0.931 . S
H1422 C1405 0.930 . S
H1423 C1406 0.930 . S
H1424 C1413 0.930 . S
H1425 C1415 0.931 . S
H1426 C1416 0.930 . S
H1427 C1417 0.930 . S
Tb1428 N1459 2.660 . S
Tb1428 N1466 2.600 . S
Tb1428 O1472 2.546 . S
Tb1428 O1473 2.610 . S
Tb1428 O1475 2.320 . S
Tb1428 O1476 2.552 . S
Tb1428 O1477 2.413 . S
Tb1428 O1479 2.362 . S
Tb1428 O1480 2.421 . S
Tb1428 C1492 2.833 . S
C1429 C1432 1.432 . S
C1429 C1433 1.414 . S
C1429 N1436 1.359 . S
C1430 C1432 1.417 . S
C1430 C1434 1.432 . S
C1430 C1442 1.410 . S
C1431 C1433 1.444 . S
C1431 C1434 1.317 . S
C1431 H1454 0.929 . S
C1432 C1429 1.432 . S
C1432 C1430 1.417 . S
C1432 N1440 1.360 . S
C1433 C1429 1.414 . S
C1433 C1431 1.444 . S
C1433 C1438 1.385 . S
C1434 C1430 1.432 . S
C1434 C1431 1.317 . S
C1434 H1446 0.930 . S
C1435 C1437 1.392 . S
C1435 C1438 1.370 . S
C1435 H1447 0.931 . S
N1436 C1429 1.359 . S
N1436 C1437 1.327 . S
N1436 Tb1439 2.600 . S
C1437 C1435 1.392 . S
C1437 N1436 1.327 . S
C1437 H1444 0.930 . S
C1438 C1433 1.385 . S
C1438 C1435 1.370 . S
C1438 H1457 0.930 . S
Tb1439 N1436 2.600 . S
Tb1439 N1440 2.660 . S
Tb1439 O1473 2.362 . S
Tb1439 O1474 2.421 . S
Tb1439 O1478 2.546 . S
Tb1439 O1479 2.610 . S
Tb1439 O1481 2.320 . S
Tb1439 O1482 2.552 . S
Tb1439 O1483 2.413 . S
Tb1439 C1503 2.833 . S
N1440 C1432 1.360 . S
N1440 Tb1439 2.660 . S
N1440 C1441 1.305 . S
C1441 N1440 1.305 . S
C1441 C1443 1.407 . S
C1441 H1448 0.930 . S
C1442 C1430 1.410 . S
C1442 C1443 1.345 . S
C1442 H1450 0.930 . S
C1443 C1441 1.407 . S
C1443 C1442 1.345 . S
C1443 H1445 0.930 . S
H1444 C1437 0.930 . S
H1445 C1443 0.930 . S
H1446 C1434 0.930 . S
H1447 C1435 0.931 . S
H1448 C1441 0.930 . S
H1449 C1463 0.930 . S
H1450 C1442 0.930 . S
H1451 C1469 0.930 . S
H1452 C1460 0.930 . S
H1453 C1467 0.931 . S
H1454 C1431 0.929 . S
H1455 C1461 0.930 . S
H1456 C1494 0.930 . S
H1457 C1438 0.930 . S
H1458 C1493 0.929 . S
N1459 Tb1428 2.660 . S
N1459 C1460 1.305 . S
N1459 C1464 1.360 . S
C1460 H1452 0.930 . S
C1460 N1459 1.305 . S
C1460 C1463 1.407 . S
C1461 H1455 0.930 . S
C1461 C1462 1.410 . S
C1461 C1463 1.345 . S
C1462 C1461 1.410 . S
C1462 C1464 1.417 . S
C1462 C1494 1.432 . S
C1463 H1449 0.930 . S
C1463 C1460 1.407 . S
C1463 C1461 1.345 . S
C1464 N1459 1.360 . S
C1464 C1462 1.417 . S
C1464 C1468 1.432 . S
H1465 C1470 0.930 . S
N1466 Tb1428 2.600 . S
N1466 C1468 1.359 . S
N1466 C1469 1.327 . S
C1467 H1453 0.931 . S
C1467 C1469 1.392 . S
C1467 C1470 1.370 . S
C1468 C1464 1.432 . S
C1468 N1466 1.359 . S
C1468 C1471 1.414 . S
C1469 H1451 0.930 . S
C1469 N1466 1.327 . S
C1469 C1467 1.392 . S
C1470 H1465 0.930 . S
C1470 C1467 1.370 . S
C1470 C1471 1.385 . S
C1471 C1468 1.414 . S
C1471 C1470 1.385 . S
C1471 C1493 1.444 . S
O1472 Tb1428 2.546 . S
O1472 C1492 1.251 . S
O1473 Tb1428 2.610 . S
O1473 Tb1439 2.362 . S
O1473 C1484 1.283 . S
O1474 Tb1439 2.421 . S
O1474 C1491 1.262 . S
O1475 Tb1428 2.320 . S
O1475 C1491 1.260 . S
O1476 Tb1428 2.552 . S
O1476 C1484 1.243 . S
O1477 Tb1428 2.413 . S
O1477 C1492 1.256 . S
O1478 Tb1439 2.546 . S
O1478 C1503 1.251 . S
O1479 Tb1428 2.362 . S
O1479 Tb1439 2.610 . S
O1479 C1495 1.283 . S
O1480 Tb1428 2.421 . S
O1480 C1502 1.262 . S
O1481 Tb1439 2.320 . S
O1481 C1502 1.260 . S
O1482 Tb1439 2.552 . S
O1482 C1495 1.243 . S
O1483 Tb1439 2.413 . S
O1483 C1503 1.256 . S
C1484 O1473 1.283 . S
C1484 O1476 1.243 . S
C1485 C1487 1.382 . S
C1485 C1489 1.393 . S
C1485 C1492 1.500 . S
C1486 C1487 1.400 . S
C1486 C1488 1.384 . S
C1487 C1485 1.382 . S
C1487 C1486 1.400 . S
C1487 H1504 0.930 . S
C1488 C1486 1.384 . S
C1488 C1490 1.392 . S
C1488 H1505 0.931 . S
C1489 C1485 1.393 . S
C1489 C1490 1.401 . S
C1489 H1506 0.930 . S
C1490 C1488 1.392 . S
C1490 C1489 1.401 . S
C1490 H1507 0.930 . S
C1491 O1474 1.262 . S
C1491 O1475 1.260 . S
C1492 Tb1428 2.833 . S
C1492 O1472 1.251 . S
C1492 O1477 1.256 . S
C1492 C1485 1.500 . S
C1493 H1458 0.929 . S
C1493 C1471 1.444 . S
C1493 C1494 1.317 . S
C1494 H1456 0.930 . S
C1494 C1462 1.432 . S
C1494 C1493 1.317 . S
C1495 O1479 1.283 . S
C1495 O1482 1.243 . S
C1496 C1497 1.382 . S
C1496 C1500 1.393 . S
C1496 C1503 1.500 . S
C1497 C1496 1.382 . S
C1497 C1498 1.400 . S
C1497 H1508 0.930 . S
C1498 C1497 1.400 . S
C1498 C1499 1.384 . S
C1499 C1498 1.384 . S
C1499 C1501 1.392 . S
C1499 H1509 0.931 . S
C1500 C1496 1.393 . S
C1500 C1501 1.401 . S
C1500 H1510 0.930 . S
C1501 C1499 1.392 . S
C1501 C1500 1.401 . S
C1501 H1511 0.930 . S
C1502 O1480 1.262 . S
C1502 O1481 1.260 . S
C1503 Tb1439 2.833 . S
C1503 O1478 1.251 . S
C1503 O1483 1.256 . S
C1503 C1496 1.500 . S
H1504 C1487 0.930 . S
H1505 C1488 0.931 . S
H1506 C1489 0.930 . S
H1507 C1490 0.930 . S
H1508 C1497 0.930 . S
H1509 C1499 0.931 . S
H1510 C1500 0.930 . S
H1511 C1501 0.930 . S
Tb1512 N1543 2.660 . S
Tb1512 N1550 2.600 . S
Tb1512 O1556 2.546 . S
Tb1512 O1557 2.610 . S
Tb1512 O1559 2.320 . S
Tb1512 O1560 2.552 . S
Tb1512 O1561 2.413 . S
Tb1512 O1563 2.362 . S
Tb1512 O1564 2.421 . S
Tb1512 C1576 2.833 . S
C1513 C1516 1.432 . S
C1513 C1517 1.414 . S
C1513 N1520 1.359 . S
C1514 C1516 1.417 . S
C1514 C1518 1.432 . S
C1514 C1526 1.410 . S
C1515 C1517 1.444 . S
C1515 C1518 1.317 . S
C1515 H1538 0.929 . S
C1516 C1513 1.432 . S
C1516 C1514 1.417 . S
C1516 N1524 1.360 . S
C1517 C1513 1.414 . S
C1517 C1515 1.444 . S
C1517 C1522 1.385 . S
C1518 C1514 1.432 . S
C1518 C1515 1.317 . S
C1518 H1530 0.930 . S
C1519 C1521 1.392 . S
C1519 C1522 1.370 . S
C1519 H1531 0.931 . S
N1520 C1513 1.359 . S
N1520 C1521 1.327 . S
N1520 Tb1523 2.600 . S
C1521 C1519 1.392 . S
C1521 N1520 1.327 . S
C1521 H1528 0.930 . S
C1522 C1517 1.385 . S
C1522 C1519 1.370 . S
C1522 H1541 0.930 . S
Tb1523 N1520 2.600 . S
Tb1523 N1524 2.660 . S
Tb1523 O1557 2.362 . S
Tb1523 O1558 2.421 . S
Tb1523 O1562 2.546 . S
Tb1523 O1563 2.610 . S
Tb1523 O1565 2.320 . S
Tb1523 O1566 2.552 . S
Tb1523 O1567 2.413 . S
Tb1523 C1587 2.833 . S
N1524 C1516 1.360 . S
N1524 Tb1523 2.660 . S
N1524 C1525 1.305 . S
C1525 N1524 1.305 . S
C1525 C1527 1.407 . S
C1525 H1532 0.930 . S
C1526 C1514 1.410 . S
C1526 C1527 1.345 . S
C1526 H1534 0.930 . S
C1527 C1525 1.407 . S
C1527 C1526 1.345 . S
C1527 H1529 0.930 . S
H1528 C1521 0.930 . S
H1529 C1527 0.930 . S
H1530 C1518 0.930 . S
H1531 C1519 0.931 . S
H1532 C1525 0.930 . S
H1533 C1547 0.930 . S
H1534 C1526 0.930 . S
H1535 C1553 0.930 . S
H1536 C1544 0.930 . S
H1537 C1551 0.931 . S
H1538 C1515 0.929 . S
H1539 C1545 0.930 . S
H1540 C1578 0.930 . S
H1541 C1522 0.930 . S
H1542 C1577 0.929 . S
N1543 Tb1512 2.660 . S
N1543 C1544 1.305 . S
N1543 C1548 1.360 . S
C1544 H1536 0.930 . S
C1544 N1543 1.305 . S
C1544 C1547 1.407 . S
C1545 H1539 0.930 . S
C1545 C1546 1.410 . S
C1545 C1547 1.345 . S
C1546 C1545 1.410 . S
C1546 C1548 1.417 . S
C1546 C1578 1.432 . S
C1547 H1533 0.930 . S
C1547 C1544 1.407 . S
C1547 C1545 1.345 . S
C1548 N1543 1.360 . S
C1548 C1546 1.417 . S
C1548 C1552 1.432 . S
H1549 C1554 0.930 . S
N1550 Tb1512 2.600 . S
N1550 C1552 1.359 . S
N1550 C1553 1.327 . S
C1551 H1537 0.931 . S
C1551 C1553 1.392 . S
C1551 C1554 1.370 . S
C1552 C1548 1.432 . S
C1552 N1550 1.359 . S
C1552 C1555 1.414 . S
C1553 H1535 0.930 . S
C1553 N1550 1.327 . S
C1553 C1551 1.392 . S
C1554 H1549 0.930 . S
C1554 C1551 1.370 . S
C1554 C1555 1.385 . S
C1555 C1552 1.414 . S
C1555 C1554 1.385 . S
C1555 C1577 1.444 . S
O1556 Tb1512 2.546 . S
O1556 C1576 1.251 . S
O1557 Tb1512 2.610 . S
O1557 Tb1523 2.362 . S
O1557 C1568 1.283 . S
O1558 Tb1523 2.421 . S
O1558 C1575 1.262 . S
O1559 Tb1512 2.320 . S
O1559 C1575 1.260 . S
O1560 Tb1512 2.552 . S
O1560 C1568 1.243 . S
O1561 Tb1512 2.413 . S
O1561 C1576 1.256 . S
O1562 Tb1523 2.546 . S
O1562 C1587 1.251 . S
O1563 Tb1512 2.362 . S
O1563 Tb1523 2.610 . S
O1563 C1579 1.283 . S
O1564 Tb1512 2.421 . S
O1564 C1586 1.262 . S
O1565 Tb1523 2.320 . S
O1565 C1586 1.260 . S
O1566 Tb1523 2.552 . S
O1566 C1579 1.243 . S
O1567 Tb1523 2.413 . S
O1567 C1587 1.256 . S
C1568 O1557 1.283 . S
C1568 O1560 1.243 . S
C1569 C1571 1.382 . S
C1569 C1573 1.393 . S
C1569 C1576 1.500 . S
C1570 C1571 1.400 . S
C1570 C1572 1.384 . S
C1571 C1569 1.382 . S
C1571 C1570 1.400 . S
C1571 H1588 0.930 . S
C1572 C1570 1.384 . S
C1572 C1574 1.392 . S
C1572 H1589 0.931 . S
C1573 C1569 1.393 . S
C1573 C1574 1.401 . S
C1573 H1590 0.930 . S
C1574 C1572 1.392 . S
C1574 C1573 1.401 . S
C1574 H1591 0.930 . S
C1575 O1558 1.262 . S
C1575 O1559 1.260 . S
C1576 Tb1512 2.833 . S
C1576 O1556 1.251 . S
C1576 O1561 1.256 . S
C1576 C1569 1.500 . S
C1577 H1542 0.929 . S
C1577 C1555 1.444 . S
C1577 C1578 1.317 . S
C1578 H1540 0.930 . S
C1578 C1546 1.432 . S
C1578 C1577 1.317 . S
C1579 O1563 1.283 . S
C1579 O1566 1.243 . S
C1580 C1581 1.382 . S
C1580 C1584 1.393 . S
C1580 C1587 1.500 . S
C1581 C1580 1.382 . S
C1581 C1582 1.400 . S
C1581 H1592 0.930 . S
C1582 C1581 1.400 . S
C1582 C1583 1.384 . S
C1583 C1582 1.384 . S
C1583 C1585 1.392 . S
C1583 H1593 0.931 . S
C1584 C1580 1.393 . S
C1584 C1585 1.401 . S
C1584 H1594 0.930 . S
C1585 C1583 1.392 . S
C1585 C1584 1.401 . S
C1585 H1595 0.930 . S
C1586 O1564 1.262 . S
C1586 O1565 1.260 . S
C1587 Tb1523 2.833 . S
C1587 O1562 1.251 . S
C1587 O1567 1.256 . S
C1587 C1580 1.500 . S
H1588 C1571 0.930 . S
H1589 C1572 0.931 . S
H1590 C1573 0.930 . S
H1591 C1574 0.930 . S
H1592 C1581 0.930 . S
H1593 C1583 0.931 . S
H1594 C1584 0.930 . S
H1595 C1585 0.930 . S
Tb1596 N1627 2.660 . S
Tb1596 N1634 2.600 1_554 S
Tb1596 O1640 2.546 1_554 S
Tb1596 O1641 2.610 . S
Tb1596 O1643 2.320 . S
Tb1596 O1644 2.555 1_554 S
Tb1596 O1645 2.413 . S
Tb1596 O1647 2.362 . S
Tb1596 O1648 2.421 1_554 S
Tb1596 C1660 2.833 1_554 S
C1597 C1600 1.432 . S
C1597 C1601 1.414 . S
C1597 N1604 1.359 1_655 S
C1598 C1600 1.417 . S
C1598 C1602 1.432 . S
C1598 C1610 1.410 1_554 S
C1599 C1601 1.444 . S
C1599 C1602 1.317 . S
C1599 H1622 0.929 . S
C1600 C1597 1.432 . S
C1600 C1598 1.417 . S
C1600 N1608 1.360 . S
C1601 C1597 1.414 . S
C1601 C1599 1.444 . S
C1601 C1606 1.385 . S
C1602 C1598 1.432 . S
C1602 C1599 1.317 . S
C1602 H1614 0.930 . S
C1603 C1605 1.392 . S
C1603 C1606 1.370 1_455 S
C1603 H1615 0.931 . S
N1604 C1597 1.359 1_455 S
N1604 C1605 1.327 . S
N1604 Tb1607 2.600 . S
C1605 C1603 1.392 . S
C1605 N1604 1.327 . S
C1605 H1612 0.930 . S
C1606 C1601 1.385 . S
C1606 C1603 1.370 1_655 S
C1606 H1625 0.930 . S
Tb1607 N1604 2.600 . S
Tb1607 N1608 2.660 1_455 S
Tb1607 O1641 2.362 . S
Tb1607 O1642 2.421 . S
Tb1607 O1646 2.546 . S
Tb1607 O1647 2.610 . S
Tb1607 O1649 2.320 1_554 S
Tb1607 O1650 2.552 . S
Tb1607 O1651 2.413 1_455 S
Tb1607 C1671 2.833 1_455 S
N1608 C1600 1.360 . S
N1608 Tb1607 2.660 1_655 S
N1608 C1609 1.305 1_554 S
C1609 N1608 1.305 1_556 S
C1609 C1611 1.407 . S
C1609 H1616 0.914 1_655 S
C1610 C1598 1.410 1_556 S
C1610 C1611 1.345 . S
C1610 H1618 0.930 . S
C1611 C1609 1.407 . S
C1611 C1610 1.345 . S
C1611 H1613 0.930 . S
H1612 C1605 0.930 . S
H1613 C1611 0.930 . S
H1614 C1602 0.930 . S
H1615 C1603 0.931 . S
H1616 C1609 0.914 1_455 S
H1617 C1631 0.930 . S
H1618 C1610 0.930 . S
H1619 C1637 0.930 . S
H1620 C1628 0.930 . S
H1621 C1635 0.931 . S
H1622 C1599 0.929 . S
H1623 C1629 0.930 . S
H1624 C1662 0.930 . S
H1625 C1606 0.930 . S
H1626 C1661 0.929 . S
N1627 Tb1596 2.660 . S
N1627 C1628 1.305 . S
N1627 C1632 1.360 . S
C1628 H1620 0.930 . S
C1628 N1627 1.305 . S
C1628 C1631 1.407 . S
C1629 H1623 0.930 . S
C1629 C1630 1.410 . S
C1629 C1631 1.345 . S
C1630 C1629 1.410 . S
C1630 C1632 1.417 . S
C1630 C1662 1.432 . S
C1631 H1617 0.930 . S
C1631 C1628 1.407 . S
C1631 C1629 1.345 . S
C1632 N1627 1.360 . S
C1632 C1630 1.417 . S
C1632 C1636 1.432 1_554 S
H1633 C1638 0.930 . S
N1634 Tb1596 2.600 1_556 S
N1634 C1636 1.359 . S
N1634 C1637 1.327 . S
C1635 H1621 0.931 . S
C1635 C1637 1.392 . S
C1635 C1638 1.370 . S
C1636 C1632 1.432 1_556 S
C1636 N1634 1.359 . S
C1636 C1639 1.414 . S
C1637 H1619 0.930 . S
C1637 N1634 1.327 . S
C1637 C1635 1.392 . S
C1638 H1633 0.930 . S
C1638 C1635 1.370 . S
C1638 C1639 1.385 . S
C1639 C1636 1.414 . S
C1639 C1638 1.385 . S
C1639 C1661 1.444 . S
O1640 Tb1596 2.546 1_556 S
O1640 C1660 1.251 . S
O1641 Tb1596 2.610 . S
O1641 Tb1607 2.362 . S
O1641 C1652 1.283 . S
O1642 Tb1607 2.421 . S
O1642 C1659 1.262 . S
O1643 Tb1596 2.320 . S
O1643 C1659 1.260 . S
O1644 Tb1596 2.555 1_556 S
O1644 C1652 1.225 1_556 S
O1645 Tb1596 2.413 . S
O1645 C1660 1.256 1_554 S
O1646 Tb1607 2.546 . S
O1646 C1671 1.251 1_455 S
O1647 Tb1596 2.362 . S
O1647 Tb1607 2.610 . S
O1647 C1663 1.283 . S
O1648 Tb1596 2.421 1_556 S
O1648 C1670 1.262 . S
O1649 Tb1607 2.320 1_556 S
O1649 C1670 1.260 . S
O1650 Tb1607 2.552 . S
O1650 C1663 1.243 . S
O1651 Tb1607 2.413 1_655 S
O1651 C1671 1.256 . S
C1652 O1641 1.283 . S
C1652 O1644 1.225 1_554 S
C1653 C1655 1.382 1_556 S
C1653 C1657 1.393 . S
C1653 C1660 1.500 . S
C1654 C1655 1.400 1_556 S
C1654 C1656 1.384 . S
C1655 C1653 1.382 1_554 S
C1655 C1654 1.400 1_554 S
C1655 H1672 0.930 . S
C1656 C1654 1.384 . S
C1656 C1658 1.392 . S
C1656 H1673 0.931 . S
C1657 C1653 1.393 . S
C1657 C1658 1.401 . S
C1657 H1674 0.930 . S
C1658 C1656 1.392 . S
C1658 C1657 1.401 . S
C1658 H1675 0.930 . S
C1659 O1642 1.262 . S
C1659 O1643 1.260 . S
C1660 Tb1596 2.833 1_556 S
C1660 O1640 1.251 . S
C1660 O1645 1.256 1_556 S
C1660 C1653 1.500 . S
C1661 H1626 0.929 . S
C1661 C1639 1.444 . S
C1661 C1662 1.317 1_556 S
C1662 H1624 0.930 . S
C1662 C1630 1.432 . S
C1662 C1661 1.317 1_554 S
C1663 O1647 1.283 . S
C1663 O1650 1.243 . S
C1664 C1665 1.382 . S
C1664 C1668 1.393 . S
C1664 C1671 1.500 . S
C1665 C1664 1.382 . S
C1665 C1666 1.400 . S
C1665 H1676 0.930 . S
C1666 C1665 1.400 . S
C1666 C1667 1.384 . S
C1667 C1666 1.384 . S
C1667 C1669 1.392 . S
C1667 H1677 0.931 . S
C1668 C1664 1.393 . S
C1668 C1669 1.401 . S
C1668 H1678 0.930 . S
C1669 C1667 1.392 . S
C1669 C1668 1.401 . S
C1669 H1679 0.930 . S
C1670 O1648 1.262 . S
C1670 O1649 1.260 . S
C1671 Tb1607 2.833 1_655 S
C1671 O1646 1.251 1_655 S
C1671 O1651 1.256 . S
C1671 C1664 1.500 . S
H1672 C1655 0.930 . S
H1673 C1656 0.931 . S
H1674 C1657 0.930 . S
H1675 C1658 0.930 . S
H1676 C1665 0.930 . S
H1677 C1667 0.931 . S
H1678 C1668 0.930 . S
H1679 C1669 0.930 . S
C1680 C1681 1.391 . S
C1680 C1682 1.394 1_556 S
C1680 H1696 0.931 1_556 S
C1681 C1680 1.391 . S
C1681 C1685 1.376 . S
C1682 C1680 1.394 1_554 S
C1682 C1683 1.369 1_554 S
C1682 C1686 1.531 . S
C1683 C1682 1.369 1_556 S
C1683 C1684 1.410 . S
C1683 C1691 1.504 . S
C1684 C1683 1.410 . S
C1684 C1685 1.392 . S
C1684 C1687 1.511 . S
C1685 C1681 1.376 . S
C1685 C1684 1.392 . S
C1685 H1697 0.912 1_455 S
C1686 C1682 1.531 . S
C1686 H1698 0.960 . S
C1686 H1699 0.962 . S
C1686 H1700 0.960 . S
C1687 C1684 1.511 . S
C1687 H1701 0.959 1_455 S
C1687 H1702 0.961 . S
C1687 H1703 0.961 1_455 S
C1688 C1689 1.370 1_556 S
C1688 C1690 1.363 . S
C1688 H1704 0.931 . S
C1689 C1688 1.370 1_554 S
C1689 C1693 1.408 . S
C1690 C1688 1.363 . S
C1690 C1691 1.371 . S
C1690 C1694 1.524 . S
C1691 C1683 1.504 . S
C1691 C1690 1.371 . S
C1691 C1692 1.401 1_556 S
C1692 C1691 1.401 1_554 S
C1692 C1693 1.404 . S
C1692 C1695 1.539 . S
C1693 C1689 1.408 . S
C1693 C1692 1.404 . S
C1693 H1705 0.930 . S
C1694 C1690 1.524 . S
C1694 H1706 0.956 . S
C1694 H1707 0.961 . S
C1694 H1708 0.961 . S
C1695 C1692 1.539 . S
C1695 H1709 0.958 . S
C1695 H1710 0.961 1_455 S
C1695 H1711 0.960 1_455 S
H1696 C1680 0.931 1_554 S
H1697 C1685 0.912 1_655 S
H1698 C1686 0.960 . S
H1699 C1686 0.962 . S
H1700 C1686 0.960 . S
H1701 C1687 0.959 1_655 S
H1702 C1687 0.961 . S
H1703 C1687 0.961 1_655 S
H1704 C1688 0.931 . S
H1705 C1693 0.930 . S
H1706 C1694 0.956 . S
H1707 C1694 0.961 . S
H1708 C1694 0.961 . S
H1709 C1695 0.958 . S
H1710 C1695 0.961 1_655 S
H1711 C1695 0.960 1_655 S
C1712 C1713 1.391 . S
C1712 C1714 1.394 . S
C1712 H1728 0.931 . S
C1713 C1712 1.391 . S
C1713 C1717 1.376 . S
C1714 C1712 1.394 . S
C1714 C1715 1.369 . S
C1714 C1718 1.531 . S
C1715 C1714 1.369 . S
C1715 C1716 1.410 . S
C1715 C1723 1.503 . S
C1716 C1715 1.410 . S
C1716 C1717 1.392 . S
C1716 C1719 1.511 . S
C1717 C1713 1.376 . S
C1717 C1716 1.392 . S
C1717 H1729 0.929 . S
C1718 C1714 1.531 . S
C1718 H1730 0.960 . S
C1718 H1731 0.962 . S
C1718 H1732 0.960 . S
C1719 C1716 1.511 . S
C1719 H1733 0.961 . S
C1719 H1734 0.961 . S
C1719 H1735 0.961 . S
C1720 C1721 1.370 . S
C1720 C1722 1.363 . S
C1720 H1736 0.931 . S
C1721 C1720 1.370 . S
C1721 C1725 1.408 . S
C1722 C1720 1.363 . S
C1722 C1723 1.370 . S
C1722 C1726 1.524 . S
C1723 C1715 1.503 . S
C1723 C1722 1.370 . S
C1723 C1724 1.403 . S
C1724 C1723 1.403 . S
C1724 C1725 1.404 . S
C1724 C1727 1.539 . S
C1725 C1721 1.408 . S
C1725 C1724 1.404 . S
C1725 H1737 0.930 . S
C1726 C1722 1.524 . S
C1726 H1738 0.956 . S
C1726 H1739 0.961 . S
C1726 H1740 0.961 . S
C1727 C1724 1.539 . S
C1727 H1741 0.958 . S
C1727 H1742 0.961 . S
C1727 H1743 0.960 . S
H1728 C1712 0.931 . S
H1729 C1717 0.929 . S
H1730 C1718 0.960 . S
H1731 C1718 0.962 . S
H1732 C1718 0.960 . S
H1733 C1719 0.961 . S
H1734 C1719 0.961 . S
H1735 C1719 0.961 . S
H1736 C1720 0.931 . S
H1737 C1725 0.930 . S
H1738 C1726 0.956 . S
H1739 C1726 0.961 . S
H1740 C1726 0.961 . S
H1741 C1727 0.958 . S
H1742 C1727 0.961 . S
H1743 C1727 0.960 . S
C1744 C1745 1.391 . S
C1744 C1746 1.394 . S
C1744 H1760 0.931 . S
C1745 C1744 1.391 . S
C1745 C1749 1.376 . S
C1746 C1744 1.394 . S
C1746 C1747 1.369 . S
C1746 C1750 1.531 . S
C1747 C1746 1.369 . S
C1747 C1748 1.410 . S
C1747 C1755 1.503 . S
C1748 C1747 1.410 . S
C1748 C1749 1.392 . S
C1748 C1751 1.511 . S
C1749 C1745 1.376 . S
C1749 C1748 1.392 . S
C1749 H1761 0.929 . S
C1750 C1746 1.531 . S
C1750 H1762 0.960 . S
C1750 H1763 0.962 . S
C1750 H1764 0.960 . S
C1751 C1748 1.511 . S
C1751 H1765 0.961 . S
C1751 H1766 0.961 . S
C1751 H1767 0.961 . S
C1752 C1753 1.370 . S
C1752 C1754 1.363 . S
C1752 H1768 0.931 . S
C1753 C1752 1.370 . S
C1753 C1757 1.408 . S
C1754 C1752 1.363 . S
C1754 C1755 1.370 . S
C1754 C1758 1.524 . S
C1755 C1747 1.503 . S
C1755 C1754 1.370 . S
C1755 C1756 1.403 . S
C1756 C1755 1.403 . S
C1756 C1757 1.404 . S
C1756 C1759 1.539 . S
C1757 C1753 1.408 . S
C1757 C1756 1.404 . S
C1757 H1769 0.930 . S
C1758 C1754 1.524 . S
C1758 H1770 0.956 . S
C1758 H1771 0.961 . S
C1758 H1772 0.961 . S
C1759 C1756 1.539 . S
C1759 H1773 0.958 . S
C1759 H1774 0.961 . S
C1759 H1775 0.960 . S
H1760 C1744 0.931 . S
H1761 C1749 0.929 . S
H1762 C1750 0.960 . S
H1763 C1750 0.962 . S
H1764 C1750 0.960 . S
H1765 C1751 0.961 . S
H1766 C1751 0.961 . S
H1767 C1751 0.961 . S
H1768 C1752 0.931 . S
H1769 C1757 0.930 . S
H1770 C1758 0.956 . S
H1771 C1758 0.961 . S
H1772 C1758 0.961 . S
H1773 C1759 0.958 . S
H1774 C1759 0.961 . S
H1775 C1759 0.960 . S
C1776 C1777 1.391 . S
C1776 C1778 1.394 . S
C1776 H1792 0.931 . S
C1777 C1776 1.391 . S
C1777 C1781 1.376 . S
C1778 C1776 1.394 . S
C1778 C1779 1.369 . S
C1778 C1782 1.531 . S
C1779 C1778 1.369 . S
C1779 C1780 1.410 . S
C1779 C1787 1.503 . S
C1780 C1779 1.410 . S
C1780 C1781 1.392 . S
C1780 C1783 1.511 . S
C1781 C1777 1.376 . S
C1781 C1780 1.392 . S
C1781 H1793 0.929 . S
C1782 C1778 1.531 . S
C1782 H1794 0.960 . S
C1782 H1795 0.962 . S
C1782 H1796 0.960 . S
C1783 C1780 1.511 . S
C1783 H1797 0.961 . S
C1783 H1798 0.961 . S
C1783 H1799 0.961 . S
C1784 C1785 1.370 . S
C1784 C1786 1.363 . S
C1784 H1800 0.931 . S
C1785 C1784 1.370 . S
C1785 C1789 1.408 . S
C1786 C1784 1.363 . S
C1786 C1787 1.370 . S
C1786 C1790 1.524 . S
C1787 C1779 1.503 . S
C1787 C1786 1.370 . S
C1787 C1788 1.403 . S
C1788 C1787 1.403 . S
C1788 C1789 1.404 . S
C1788 C1791 1.539 . S
C1789 C1785 1.408 . S
C1789 C1788 1.404 . S
C1789 H1801 0.930 . S
C1790 C1786 1.524 . S
C1790 H1802 0.956 . S
C1790 H1803 0.961 . S
C1790 H1804 0.961 . S
C1791 C1788 1.539 . S
C1791 H1805 0.958 . S
C1791 H1806 0.961 . S
C1791 H1807 0.960 . S
H1792 C1776 0.931 . S
H1793 C1781 0.929 . S
H1794 C1782 0.960 . S
H1795 C1782 0.962 . S
H1796 C1782 0.960 . S
H1797 C1783 0.961 . S
H1798 C1783 0.961 . S
H1799 C1783 0.961 . S
H1800 C1784 0.931 . S
H1801 C1789 0.930 . S
H1802 C1790 0.956 . S
H1803 C1790 0.961 . S
H1804 C1790 0.961 . S
H1805 C1791 0.958 . S
H1806 C1791 0.961 . S
H1807 C1791 0.960 . S
C1808 C1809 1.391 . S
C1808 C1810 1.394 . S
C1808 H1824 0.931 . S
C1809 C1808 1.391 . S
C1809 C1813 1.376 1_455 S
C1810 C1808 1.394 . S
C1810 C1811 1.369 . S
C1810 C1814 1.531 . S
C1811 C1810 1.369 . S
C1811 C1812 1.371 1_455 S
C1811 C1819 1.503 . S
C1812 C1811 1.371 1_655 S
C1812 C1813 1.398 . S
C1812 C1815 1.545 . S
C1813 C1809 1.376 1_655 S
C1813 C1812 1.398 . S
C1813 H1825 0.929 . S
C1814 C1810 1.531 . S
C1814 H1826 0.960 . S
C1814 H1827 0.962 . S
C1814 H1828 0.960 . S
C1815 C1812 1.545 . S
C1815 H1829 0.961 . S
C1815 H1830 0.961 . S
C1815 H1831 0.961 . S
C1816 C1817 1.370 . S
C1816 C1818 1.363 . S
C1816 H1832 0.931 . S
C1817 C1816 1.370 . S
C1817 C1821 1.408 . S
C1818 C1816 1.363 . S
C1818 C1819 1.370 . S
C1818 C1822 1.524 . S
C1819 C1811 1.503 . S
C1819 C1818 1.370 . S
C1819 C1820 1.403 . S
C1820 C1819 1.403 . S
C1820 C1821 1.404 . S
C1820 C1823 1.539 . S
C1821 C1817 1.408 . S
C1821 C1820 1.404 . S
C1821 H1833 0.930 . S
C1822 C1818 1.524 . S
C1822 H1834 0.956 . S
C1822 H1835 0.961 . S
C1822 H1836 0.961 . S
C1823 C1820 1.539 . S
C1823 H1837 0.958 . S
C1823 H1838 0.961 . S
C1823 H1839 0.960 . S
H1824 C1808 0.931 . S
H1825 C1813 0.929 . S
H1826 C1814 0.960 . S
H1827 C1814 0.962 . S
H1828 C1814 0.960 . S
H1829 C1815 0.961 . S
H1830 C1815 0.961 . S
H1831 C1815 0.961 . S
H1832 C1816 0.931 . S
H1833 C1821 0.930 . S
H1834 C1822 0.956 . S
H1835 C1822 0.961 . S
H1836 C1822 0.961 . S
H1837 C1823 0.958 . S
H1838 C1823 0.961 . S
H1839 C1823 0.960 . S
C1840 C1841 1.391 . S
C1840 C1842 1.394 . S
C1840 H1856 0.931 . S
C1841 C1840 1.391 . S
C1841 C1845 1.376 . S
C1842 C1840 1.394 . S
C1842 C1843 1.369 . S
C1842 C1846 1.531 . S
C1843 C1842 1.369 . S
C1843 C1844 1.410 . S
C1843 C1851 1.503 . S
C1844 C1843 1.410 . S
C1844 C1845 1.392 . S
C1844 C1847 1.511 . S
C1845 C1841 1.376 . S
C1845 C1844 1.392 . S
C1845 H1857 0.929 . S
C1846 C1842 1.531 . S
C1846 H1858 0.960 . S
C1846 H1859 0.962 . S
C1846 H1860 0.960 . S
C1847 C1844 1.511 . S
C1847 H1861 0.961 . S
C1847 H1862 0.961 . S
C1847 H1863 0.961 . S
C1848 C1849 1.370 . S
C1848 C1850 1.363 . S
C1848 H1864 0.931 . S
C1849 C1848 1.370 . S
C1849 C1853 1.408 . S
C1850 C1848 1.363 . S
C1850 C1851 1.370 . S
C1850 C1854 1.524 . S
C1851 C1843 1.503 . S
C1851 C1850 1.370 . S
C1851 C1852 1.403 . S
C1852 C1851 1.403 . S
C1852 C1853 1.404 . S
C1852 C1855 1.539 . S
C1853 C1849 1.408 . S
C1853 C1852 1.404 . S
C1853 H1865 0.930 . S
C1854 C1850 1.524 . S
C1854 H1866 0.956 . S
C1854 H1867 0.961 . S
C1854 H1868 0.961 . S
C1855 C1852 1.539 . S
C1855 H1869 0.958 . S
C1855 H1870 0.961 . S
C1855 H1871 0.960 . S
H1856 C1840 0.931 . S
H1857 C1845 0.929 . S
H1858 C1846 0.960 . S
H1859 C1846 0.962 . S
H1860 C1846 0.960 . S
H1861 C1847 0.961 . S
H1862 C1847 0.961 . S
H1863 C1847 0.961 . S
H1864 C1848 0.931 . S
H1865 C1853 0.930 . S
H1866 C1854 0.956 . S
H1867 C1854 0.961 . S
H1868 C1854 0.961 . S
H1869 C1855 0.958 . S
H1870 C1855 0.961 . S
H1871 C1855 0.960 . S
C1872 C1873 1.391 . S
C1872 C1874 1.394 . S
C1872 H1888 0.931 . S
C1873 C1872 1.391 . S
C1873 C1877 1.376 . S
C1874 C1872 1.394 . S
C1874 C1875 1.369 . S
C1874 C1878 1.531 . S
C1875 C1874 1.369 . S
C1875 C1876 1.410 . S
C1875 C1883 1.503 . S
C1876 C1875 1.410 . S
C1876 C1877 1.392 . S
C1876 C1879 1.511 . S
C1877 C1873 1.376 . S
C1877 C1876 1.392 . S
C1877 H1889 0.929 . S
C1878 C1874 1.531 . S
C1878 H1890 0.960 . S
C1878 H1891 0.962 . S
C1878 H1892 0.960 . S
C1879 C1876 1.511 . S
C1879 H1893 0.961 . S
C1879 H1894 0.961 . S
C1879 H1895 0.961 . S
C1880 C1881 1.370 . S
C1880 C1882 1.363 . S
C1880 H1896 0.931 . S
C1881 C1880 1.370 . S
C1881 C1885 1.408 . S
C1882 C1880 1.363 . S
C1882 C1883 1.370 . S
C1882 C1886 1.524 . S
C1883 C1875 1.503 . S
C1883 C1882 1.370 . S
C1883 C1884 1.403 . S
C1884 C1883 1.403 . S
C1884 C1885 1.404 . S
C1884 C1887 1.539 . S
C1885 C1881 1.408 . S
C1885 C1884 1.404 . S
C1885 H1897 0.930 . S
C1886 C1882 1.524 . S
C1886 H1898 0.956 . S
C1886 H1899 0.961 . S
C1886 H1900 0.961 . S
C1887 C1884 1.539 . S
C1887 H1901 0.958 . S
C1887 H1902 0.961 . S
C1887 H1903 0.960 . S
H1888 C1872 0.931 . S
H1889 C1877 0.929 . S
H1890 C1878 0.960 . S
H1891 C1878 0.962 . S
H1892 C1878 0.960 . S
H1893 C1879 0.961 . S
H1894 C1879 0.961 . S
H1895 C1879 0.961 . S
H1896 C1880 0.931 . S
H1897 C1885 0.930 . S
H1898 C1886 0.956 . S
H1899 C1886 0.961 . S
H1900 C1886 0.961 . S
H1901 C1887 0.958 . S
H1902 C1887 0.961 . S
H1903 C1887 0.960 . S
C1904 C1905 1.391 . S
C1904 C1906 1.394 . S
C1904 H1920 0.931 . S
C1905 C1904 1.391 . S
C1905 C1909 1.376 . S
C1906 C1904 1.394 . S
C1906 C1907 1.369 . S
C1906 C1910 1.531 . S
C1907 C1906 1.369 . S
C1907 C1908 1.410 . S
C1907 C1915 1.503 . S
C1908 C1907 1.410 . S
C1908 C1909 1.392 . S
C1908 C1911 1.511 . S
C1909 C1905 1.376 . S
C1909 C1908 1.392 . S
C1909 H1921 0.929 . S
C1910 C1906 1.531 . S
C1910 H1922 0.960 . S
C1910 H1923 0.962 . S
C1910 H1924 0.960 . S
C1911 C1908 1.511 . S
C1911 H1925 0.961 . S
C1911 H1926 0.961 . S
C1911 H1927 0.961 . S
C1912 C1913 1.370 . S
C1912 C1914 1.363 . S
C1912 H1928 0.931 . S
C1913 C1912 1.370 . S
C1913 C1917 1.408 . S
C1914 C1912 1.363 . S
C1914 C1915 1.370 . S
C1914 C1918 1.524 . S
C1915 C1907 1.503 . S
C1915 C1914 1.370 . S
C1915 C1916 1.403 . S
C1916 C1915 1.403 . S
C1916 C1917 1.404 . S
C1916 C1919 1.539 . S
C1917 C1913 1.408 . S
C1917 C1916 1.404 . S
C1917 H1929 0.930 . S
C1918 C1914 1.524 . S
C1918 H1930 0.956 . S
C1918 H1931 0.961 . S
C1918 H1932 0.961 . S
C1919 C1916 1.539 . S
C1919 H1933 0.958 . S
C1919 H1934 0.961 . S
C1919 H1935 0.960 . S
H1920 C1904 0.931 . S
H1921 C1909 0.929 . S
H1922 C1910 0.960 . S
H1923 C1910 0.962 . S
H1924 C1910 0.960 . S
H1925 C1911 0.961 . S
H1926 C1911 0.961 . S
H1927 C1911 0.961 . S
H1928 C1912 0.931 . S
H1929 C1917 0.930 . S
H1930 C1918 0.956 . S
H1931 C1918 0.961 . S
H1932 C1918 0.961 . S
H1933 C1919 0.958 . S
H1934 C1919 0.961 . S
H1935 C1919 0.960 . S
C1936 C1937 1.391 . S
C1936 C1938 1.394 1_655 S
C1936 H1952 0.916 1_655 S
C1937 C1936 1.391 . S
C1937 C1941 1.376 . S
C1938 C1936 1.394 1_455 S
C1938 C1939 1.369 . S
C1938 C1942 1.531 . S
C1939 C1938 1.369 . S
C1939 C1940 1.410 1_455 S
C1939 C1947 1.503 . S
C1940 C1939 1.410 1_655 S
C1940 C1941 1.392 . S
C1940 C1943 1.511 . S
C1941 C1937 1.376 . S
C1941 C1940 1.392 . S
C1941 H1953 0.929 . S
C1942 C1938 1.531 . S
C1942 H1954 0.960 . S
C1942 H1955 0.962 . S
C1942 H1956 0.960 . S
C1943 C1940 1.511 . S
C1943 H1957 0.961 . S
C1943 H1958 0.961 . S
C1943 H1959 0.961 . S
C1944 C1945 1.370 . S
C1944 C1946 1.363 . S
C1944 H1960 0.931 . S
C1945 C1944 1.370 . S
C1945 C1949 1.408 . S
C1946 C1944 1.363 . S
C1946 C1947 1.370 . S
C1946 C1950 1.524 . S
C1947 C1939 1.503 . S
C1947 C1946 1.370 . S
C1947 C1948 1.403 . S
C1948 C1947 1.403 . S
C1948 C1949 1.404 . S
C1948 C1951 1.539 1_455 S
C1949 C1945 1.408 . S
C1949 C1948 1.404 . S
C1949 H1961 0.930 . S
C1950 C1946 1.524 . S
C1950 H1962 0.956 . S
C1950 H1963 0.961 . S
C1950 H1964 0.961 . S
C1951 C1948 1.539 1_655 S
C1951 H1965 0.958 . S
C1951 H1966 0.961 . S
C1951 H1967 0.960 . S
H1952 C1936 0.916 1_455 S
H1953 C1941 0.929 . S
H1954 C1942 0.960 . S
H1955 C1942 0.962 . S
H1956 C1942 0.960 . S
H1957 C1943 0.961 . S
H1958 C1943 0.961 . S
H1959 C1943 0.961 . S
H1960 C1944 0.931 . S
H1961 C1949 0.930 . S
H1962 C1950 0.956 . S
H1963 C1950 0.961 . S
H1964 C1950 0.961 . S
H1965 C1951 0.958 . S
H1966 C1951 0.961 . S
H1967 C1951 0.960 . S
C1968 C1969 1.391 . S
C1968 C1970 1.394 . S
C1968 H1984 0.931 . S
C1969 C1968 1.391 . S
C1969 C1973 1.376 . S
C1970 C1968 1.394 . S
C1970 C1971 1.369 . S
C1970 C1974 1.531 . S
C1971 C1970 1.369 . S
C1971 C1972 1.410 . S
C1971 C1979 1.503 . S
C1972 C1971 1.410 . S
C1972 C1973 1.392 . S
C1972 C1975 1.511 . S
C1973 C1969 1.376 . S
C1973 C1972 1.392 . S
C1973 H1985 0.929 . S
C1974 C1970 1.531 . S
C1974 H1986 0.960 . S
C1974 H1987 0.962 . S
C1974 H1988 0.960 . S
C1975 C1972 1.511 . S
C1975 H1989 0.961 . S
C1975 H1990 0.961 . S
C1975 H1991 0.961 . S
C1976 C1977 1.370 . S
C1976 C1978 1.363 . S
C1976 H1992 0.931 . S
C1977 C1976 1.370 . S
C1977 C1981 1.408 . S
C1978 C1976 1.363 . S
C1978 C1979 1.370 . S
C1978 C1982 1.524 . S
C1979 C1971 1.503 . S
C1979 C1978 1.370 . S
C1979 C1980 1.403 . S
C1980 C1979 1.403 . S
C1980 C1981 1.404 . S
C1980 C1983 1.539 . S
C1981 C1977 1.408 . S
C1981 C1980 1.404 . S
C1981 H1993 0.930 . S
C1982 C1978 1.524 . S
C1982 H1994 0.956 . S
C1982 H1995 0.961 . S
C1982 H1996 0.961 . S
C1983 C1980 1.539 . S
C1983 H1997 0.958 . S
C1983 H1998 0.961 . S
C1983 H1999 0.960 . S
H1984 C1968 0.931 . S
H1985 C1973 0.929 . S
H1986 C1974 0.960 . S
H1987 C1974 0.962 . S
H1988 C1974 0.960 . S
H1989 C1975 0.961 . S
H1990 C1975 0.961 . S
H1991 C1975 0.961 . S
H1992 C1976 0.931 . S
H1993 C1981 0.930 . S
H1994 C1982 0.956 . S
H1995 C1982 0.961 . S
H1996 C1982 0.961 . S
H1997 C1983 0.958 . S
H1998 C1983 0.961 . S
H1999 C1983 0.960 . S
C2000 C2001 1.391 . S
C2000 C2002 1.394 . S
C2000 H2016 0.931 . S
C2001 C2000 1.391 . S
C2001 C2005 1.376 . S
C2002 C2000 1.394 . S
C2002 C2003 1.369 . S
C2002 C2006 1.531 . S
C2003 C2002 1.369 . S
C2003 C2004 1.410 . S
C2003 C2011 1.503 . S
C2004 C2003 1.410 . S
C2004 C2005 1.392 . S
C2004 C2007 1.511 1_545 S
C2005 C2001 1.376 . S
C2005 C2004 1.392 . S
C2005 H2017 0.929 . S
C2006 C2002 1.531 . S
C2006 H2018 0.960 . S
C2006 H2019 0.962 . S
C2006 H2020 0.960 . S
C2007 C2004 1.511 1_565 S
C2007 H2021 0.961 . S
C2007 H2022 0.961 . S
C2007 H2023 0.961 1_565 S
C2008 C2009 1.370 . S
C2008 C2010 1.363 . S
C2008 H2024 0.931 . S
C2009 C2008 1.370 . S
C2009 C2013 1.408 . S
C2010 C2008 1.363 . S
C2010 C2011 1.370 . S
C2010 C2014 1.524 . S
C2011 C2003 1.503 . S
C2011 C2010 1.370 . S
C2011 C2012 1.403 . S
C2012 C2011 1.403 . S
C2012 C2013 1.404 . S
C2012 C2015 1.539 . S
C2013 C2009 1.408 . S
C2013 C2012 1.404 . S
C2013 H2025 0.930 . S
C2014 C2010 1.524 . S
C2014 H2026 0.956 . S
C2014 H2027 0.920 1_545 S
C2014 H2028 0.961 1_545 S
C2015 C2012 1.539 . S
C2015 H2029 0.958 . S
C2015 H2030 0.961 . S
C2015 H2031 0.960 . S
H2016 C2000 0.931 . S
H2017 C2005 0.929 . S
H2018 C2006 0.960 . S
H2019 C2006 0.962 . S
H2020 C2006 0.960 . S
H2021 C2007 0.961 . S
H2022 C2007 0.961 . S
H2023 C2007 0.961 1_545 S
H2024 C2008 0.931 . S
H2025 C2013 0.930 . S
H2026 C2014 0.956 . S
H2027 C2014 0.920 1_565 S
H2028 C2014 0.961 1_565 S
H2029 C2015 0.958 . S
H2030 C2015 0.961 . S
H2031 C2015 0.960 . S
C2032 C2033 1.391 . S
C2032 C2034 1.394 . S
C2032 H2048 0.931 . S
C2033 C2032 1.391 . S
C2033 C2037 1.376 . S
C2034 C2032 1.394 . S
C2034 C2035 1.369 . S
C2034 C2038 1.531 . S
C2035 C2034 1.369 . S
C2035 C2036 1.410 . S
C2035 C2043 1.503 . S
C2036 C2035 1.410 . S
C2036 C2037 1.392 . S
C2036 C2039 1.511 . S
C2037 C2033 1.376 . S
C2037 C2036 1.392 . S
C2037 H2049 0.929 . S
C2038 C2034 1.531 . S
C2038 H2050 0.960 . S
C2038 H2051 0.962 . S
C2038 H2052 0.960 . S
C2039 C2036 1.511 . S
C2039 H2053 0.961 . S
C2039 H2054 0.961 . S
C2039 H2055 0.961 . S
C2040 C2041 1.370 . S
C2040 C2042 1.363 . S
C2040 H2056 0.931 . S
C2041 C2040 1.370 . S
C2041 C2045 1.408 . S
C2042 C2040 1.363 . S
C2042 C2043 1.370 . S
C2042 C2046 1.524 . S
C2043 C2035 1.503 . S
C2043 C2042 1.370 . S
C2043 C2044 1.403 . S
C2044 C2043 1.403 . S
C2044 C2045 1.404 . S
C2044 C2047 1.539 . S
C2045 C2041 1.408 . S
C2045 C2044 1.404 . S
C2045 H2057 0.930 . S
C2046 C2042 1.524 . S
C2046 H2058 0.956 . S
C2046 H2059 0.961 . S
C2046 H2060 0.961 . S
C2047 C2044 1.539 . S
C2047 H2061 0.958 . S
C2047 H2062 0.961 . S
C2047 H2063 0.960 . S
H2048 C2032 0.931 . S
H2049 C2037 0.929 . S
H2050 C2038 0.960 . S
H2051 C2038 0.962 . S
H2052 C2038 0.960 . S
H2053 C2039 0.961 . S
H2054 C2039 0.961 . S
H2055 C2039 0.961 . S
H2056 C2040 0.931 . S
H2057 C2045 0.930 . S
H2058 C2046 0.956 . S
H2059 C2046 0.961 . S
H2060 C2046 0.961 . S
H2061 C2047 0.958 . S
H2062 C2047 0.961 . S
H2063 C2047 0.960 . S
C2064 C2065 1.391 1_455 S
C2064 C2066 1.394 . S
C2064 H2080 0.931 . S
C2065 C2064 1.391 1_655 S
C2065 C2069 1.376 . S
C2066 C2064 1.394 . S
C2066 C2067 1.369 . S
C2066 C2070 1.531 . S
C2067 C2066 1.369 . S
C2067 C2068 1.410 1_455 S
C2067 C2075 1.503 . S
C2068 C2067 1.410 1_655 S
C2068 C2069 1.392 . S
C2068 C2071 1.511 . S
C2069 C2065 1.376 . S
C2069 C2068 1.392 . S
C2069 H2081 0.929 . S
C2070 C2066 1.531 . S
C2070 H2082 0.960 . S
C2070 H2083 0.962 . S
C2070 H2084 0.960 . S
C2071 C2068 1.511 . S
C2071 H2085 0.961 . S
C2071 H2086 0.961 . S
C2071 H2087 0.961 . S
C2072 C2073 1.370 . S
C2072 C2074 1.363 . S
C2072 H2088 0.931 . S
C2073 C2072 1.370 . S
C2073 C2077 1.408 . S
C2074 C2072 1.363 . S
C2074 C2075 1.370 . S
C2074 C2078 1.524 . S
C2075 C2067 1.503 . S
C2075 C2074 1.370 . S
C2075 C2076 1.403 . S
C2076 C2075 1.403 . S
C2076 C2077 1.404 . S
C2076 C2079 1.539 . S
C2077 C2073 1.408 . S
C2077 C2076 1.404 . S
C2077 H2089 0.930 . S
C2078 C2074 1.524 . S
C2078 H2090 0.956 . S
C2078 H2091 0.961 . S
C2078 H2092 0.961 . S
C2079 C2076 1.539 . S
C2079 H2093 0.958 . S
C2079 H2094 0.961 . S
C2079 H2095 0.937 1_455 S
H2080 C2064 0.931 . S
H2081 C2069 0.929 . S
H2082 C2070 0.960 . S
H2083 C2070 0.962 . S
H2084 C2070 0.960 . S
H2085 C2071 0.961 . S
H2086 C2071 0.961 . S
H2087 C2071 0.961 . S
H2088 C2072 0.931 . S
H2089 C2077 0.930 . S
H2090 C2078 0.956 . S
H2091 C2078 0.961 . S
H2092 C2078 0.961 . S
H2093 C2079 0.958 . S
H2094 C2079 0.961 . S
H2095 C2079 0.937 1_655 S
C2096 C2097 1.391 . S
C2096 C2098 1.394 . S
C2096 H2112 0.931 . S
C2097 C2096 1.391 . S
C2097 C2101 1.376 . S
C2098 C2096 1.394 . S
C2098 C2099 1.369 . S
C2098 C2102 1.531 . S
C2099 C2098 1.369 . S
C2099 C2100 1.410 . S
C2099 C2107 1.503 . S
C2100 C2099 1.410 . S
C2100 C2101 1.392 . S
C2100 C2103 1.511 . S
C2101 C2097 1.376 . S
C2101 C2100 1.392 . S
C2101 H2113 0.929 . S
C2102 C2098 1.531 . S
C2102 H2114 0.960 . S
C2102 H2115 0.962 . S
C2102 H2116 0.960 . S
C2103 C2100 1.511 . S
C2103 H2117 0.961 . S
C2103 H2118 0.961 . S
C2103 H2119 0.961 . S
C2104 C2105 1.370 . S
C2104 C2106 1.363 . S
C2104 H2120 0.931 . S
C2105 C2104 1.370 . S
C2105 C2109 1.408 . S
C2106 C2104 1.363 . S
C2106 C2107 1.370 . S
C2106 C2110 1.524 . S
C2107 C2099 1.503 . S
C2107 C2106 1.370 . S
C2107 C2108 1.403 . S
C2108 C2107 1.403 . S
C2108 C2109 1.404 . S
C2108 C2111 1.539 . S
C2109 C2105 1.408 . S
C2109 C2108 1.404 . S
C2109 H2121 0.930 . S
C2110 C2106 1.524 . S
C2110 H2122 0.956 . S
C2110 H2123 0.961 . S
C2110 H2124 0.961 . S
C2111 C2108 1.539 . S
C2111 H2125 0.958 . S
C2111 H2126 0.961 . S
C2111 H2127 0.960 . S
H2112 C2096 0.931 . S
H2113 C2101 0.929 . S
H2114 C2102 0.960 . S
H2115 C2102 0.962 . S
H2116 C2102 0.960 . S
H2117 C2103 0.961 . S
H2118 C2103 0.961 . S
H2119 C2103 0.961 . S
H2120 C2104 0.931 . S
H2121 C2109 0.930 . S
H2122 C2110 0.956 . S
H2123 C2110 0.961 . S
H2124 C2110 0.961 . S
H2125 C2111 0.958 . S
H2126 C2111 0.961 . S
H2127 C2111 0.960 . S
C2128 C2129 1.391 . S
C2128 C2130 1.394 . S
C2128 H2144 0.931 . S
C2129 C2128 1.391 . S
C2129 C2133 1.376 . S
C2130 C2128 1.394 . S
C2130 C2131 1.369 . S
C2130 C2134 1.531 . S
C2131 C2130 1.369 . S
C2131 C2132 1.410 . S
C2131 C2139 1.503 . S
C2132 C2131 1.410 . S
C2132 C2133 1.392 . S
C2132 C2135 1.511 . S
C2133 C2129 1.376 . S
C2133 C2132 1.392 . S
C2133 H2145 0.929 . S
C2134 C2130 1.531 . S
C2134 H2146 0.960 . S
C2134 H2147 0.962 . S
C2134 H2148 0.960 . S
C2135 C2132 1.511 . S
C2135 H2149 0.961 . S
C2135 H2150 0.961 . S
C2135 H2151 0.961 . S
C2136 C2137 1.370 . S
C2136 C2138 1.363 . S
C2136 H2152 0.931 . S
C2137 C2136 1.370 . S
C2137 C2141 1.408 . S
C2138 C2136 1.363 . S
C2138 C2139 1.370 . S
C2138 C2142 1.524 . S
C2139 C2131 1.503 . S
C2139 C2138 1.370 . S
C2139 C2140 1.403 . S
C2140 C2139 1.403 . S
C2140 C2141 1.404 . S
C2140 C2143 1.539 . S
C2141 C2137 1.408 . S
C2141 C2140 1.404 . S
C2141 H2153 0.930 . S
C2142 C2138 1.524 . S
C2142 H2154 0.956 . S
C2142 H2155 0.961 . S
C2142 H2156 0.961 . S
C2143 C2140 1.539 . S
C2143 H2157 0.958 . S
C2143 H2158 0.961 . S
C2143 H2159 0.960 . S
H2144 C2128 0.931 . S
H2145 C2133 0.929 . S
H2146 C2134 0.960 . S
H2147 C2134 0.962 . S
H2148 C2134 0.960 . S
H2149 C2135 0.961 . S
H2150 C2135 0.961 . S
H2151 C2135 0.961 . S
H2152 C2136 0.931 . S
H2153 C2141 0.930 . S
H2154 C2142 0.956 . S
H2155 C2142 0.961 . S
H2156 C2142 0.961 . S
H2157 C2143 0.958 . S
H2158 C2143 0.961 . S
H2159 C2143 0.960 . S
C2160 C2161 1.391 . S
C2160 C2162 1.394 . S
C2160 H2176 0.931 . S
C2161 C2160 1.391 . S
C2161 C2165 1.376 . S
C2162 C2160 1.394 . S
C2162 C2163 1.369 . S
C2162 C2166 1.531 . S
C2163 C2162 1.369 . S
C2163 C2164 1.410 . S
C2163 C2171 1.503 . S
C2164 C2163 1.410 . S
C2164 C2165 1.392 . S
C2164 C2167 1.511 . S
C2165 C2161 1.376 . S
C2165 C2164 1.392 . S
C2165 H2177 0.929 . S
C2166 C2162 1.531 . S
C2166 H2178 0.960 . S
C2166 H2179 0.962 . S
C2166 H2180 0.960 . S
C2167 C2164 1.511 . S
C2167 H2181 0.961 . S
C2167 H2182 0.961 . S
C2167 H2183 0.961 . S
C2168 C2169 1.370 . S
C2168 C2170 1.363 . S
C2168 H2184 0.931 . S
C2169 C2168 1.370 . S
C2169 C2173 1.408 . S
C2170 C2168 1.363 . S
C2170 C2171 1.370 . S
C2170 C2174 1.524 . S
C2171 C2163 1.503 . S
C2171 C2170 1.370 . S
C2171 C2172 1.403 . S
C2172 C2171 1.403 . S
C2172 C2173 1.404 . S
C2172 C2175 1.539 . S
C2173 C2169 1.408 . S
C2173 C2172 1.404 . S
C2173 H2185 0.930 . S
C2174 C2170 1.524 . S
C2174 H2186 0.956 . S
C2174 H2187 0.961 . S
C2174 H2188 0.961 . S
C2175 C2172 1.539 . S
C2175 H2189 0.958 . S
C2175 H2190 0.961 . S
C2175 H2191 0.960 . S
H2176 C2160 0.931 . S
H2177 C2165 0.929 . S
H2178 C2166 0.960 . S
H2179 C2166 0.962 . S
H2180 C2166 0.960 . S
H2181 C2167 0.961 . S
H2182 C2167 0.961 . S
H2183 C2167 0.961 . S
H2184 C2168 0.931 . S
H2185 C2173 0.930 . S
H2186 C2174 0.956 . S
H2187 C2174 0.961 . S
H2188 C2174 0.961 . S
H2189 C2175 0.958 . S
H2190 C2175 0.961 . S
H2191 C2175 0.960 . S
C2192 C2193 1.391 . S
C2192 C2194 1.394 . S
C2192 H2208 0.931 . S
C2193 C2192 1.391 . S
C2193 C2197 1.376 . S
C2194 C2192 1.394 . S
C2194 C2195 1.369 . S
C2194 C2198 1.531 . S
C2195 C2194 1.369 . S
C2195 C2196 1.410 1_565 S
C2195 C2203 1.503 . S
C2196 C2195 1.410 1_545 S
C2196 C2197 1.392 1_545 S
C2196 C2199 1.511 . S
C2197 C2193 1.376 . S
C2197 C2196 1.392 1_565 S
C2197 H2209 0.929 1_565 S
C2198 C2194 1.531 . S
C2198 H2210 0.960 . S
C2198 H2211 0.962 . S
C2198 H2212 0.960 . S
C2199 C2196 1.511 . S
C2199 H2213 0.961 . S
C2199 H2214 0.961 . S
C2199 H2215 0.961 . S
C2200 C2201 1.370 . S
C2200 C2202 1.363 1_545 S
C2200 H2216 0.897 1_544 S
C2201 C2200 1.370 . S
C2201 C2205 1.408 . S
C2202 C2200 1.363 1_565 S
C2202 C2203 1.370 . S
C2202 C2206 1.524 1_554 S
C2203 C2195 1.503 . S
C2203 C2202 1.370 . S
C2203 C2204 1.403 1_565 S
C2204 C2203 1.403 1_545 S
C2204 C2205 1.404 . S
C2204 C2207 1.539 . S
C2205 C2201 1.408 . S
C2205 C2204 1.404 . S
C2205 H2217 0.930 . S
C2206 C2202 1.524 1_556 S
C2206 H2218 0.956 . S
C2206 H2219 0.961 . S
C2206 H2220 0.961 . S
C2207 C2204 1.539 . S
C2207 H2221 0.958 . S
C2207 H2222 0.961 . S
C2207 H2223 0.960 . S
H2208 C2192 0.931 . S
H2209 C2197 0.929 1_545 S
H2210 C2198 0.960 . S
H2211 C2198 0.962 . S
H2212 C2198 0.960 . S
H2213 C2199 0.961 . S
H2214 C2199 0.961 . S
H2215 C2199 0.961 . S
H2216 C2200 0.897 1_566 S
H2217 C2205 0.930 . S
H2218 C2206 0.956 . S
H2219 C2206 0.961 . S
H2220 C2206 0.961 . S
H2221 C2207 0.958 . S
H2222 C2207 0.961 . S
H2223 C2207 0.960 . S
C2224 C2225 1.391 1_554 S
C2224 C2226 1.394 . S
C2224 H2240 0.931 . S
C2225 C2224 1.391 1_556 S
C2225 C2229 1.376 . S
C2226 C2224 1.394 . S
C2226 C2227 1.369 1_554 S
C2226 C2230 1.531 . S
C2227 C2226 1.369 1_556 S
C2227 C2228 1.410 . S
C2227 C2235 1.503 . S
C2228 C2227 1.410 . S
C2228 C2229 1.392 . S
C2228 C2231 1.511 . S
C2229 C2225 1.376 . S
C2229 C2228 1.392 . S
C2229 H2241 0.929 . S
C2230 C2226 1.531 . S
C2230 H2242 0.960 . S
C2230 H2243 0.962 . S
C2230 H2244 0.960 . S
C2231 C2228 1.511 . S
C2231 H2245 0.961 . S
C2231 H2246 0.961 . S
C2231 H2247 0.961 . S
C2232 C2233 1.370 . S
C2232 C2234 1.363 . S
C2232 H2248 0.931 . S
C2233 C2232 1.370 . S
C2233 C2237 1.408 1_556 S
C2234 C2232 1.363 . S
C2234 C2235 1.370 . S
C2234 C2238 1.524 . S
C2235 C2227 1.503 . S
C2235 C2234 1.370 . S
C2235 C2236 1.403 1_556 S
C2236 C2235 1.403 1_554 S
C2236 C2237 1.404 . S
C2236 C2239 1.539 . S
C2237 C2233 1.408 1_554 S
C2237 C2236 1.404 . S
C2237 H2249 0.930 . S
C2238 C2234 1.524 . S
C2238 H2250 0.956 . S
C2238 H2251 0.961 . S
C2238 H2252 0.961 . S
C2239 C2236 1.539 . S
C2239 H2253 0.958 . S
C2239 H2254 0.961 . S
C2239 H2255 0.960 . S
H2240 C2224 0.931 . S
H2241 C2229 0.929 . S
H2242 C2230 0.960 . S
H2243 C2230 0.962 . S
H2244 C2230 0.960 . S
H2245 C2231 0.961 . S
H2246 C2231 0.961 . S
H2247 C2231 0.961 . S
H2248 C2232 0.931 . S
H2249 C2237 0.930 . S
H2250 C2238 0.956 . S
H2251 C2238 0.961 . S
H2252 C2238 0.961 . S
H2253 C2239 0.958 . S
H2254 C2239 0.961 . S
H2255 C2239 0.960 . S
C2256 C2257 1.391 . S
C2256 C2258 1.394 . S
C2256 H2272 0.931 . S
C2257 C2256 1.391 . S
C2257 C2261 1.376 . S
C2258 C2256 1.394 . S
C2258 C2259 1.369 . S
C2258 C2262 1.531 . S
C2259 C2258 1.369 . S
C2259 C2260 1.410 . S
C2259 C2267 1.503 . S
C2260 C2259 1.410 . S
C2260 C2261 1.392 . S
C2260 C2263 1.511 . S
C2261 C2257 1.376 . S
C2261 C2260 1.392 . S
C2261 H2273 0.929 . S
C2262 C2258 1.531 . S
C2262 H2274 0.960 . S
C2262 H2275 0.962 . S
C2262 H2276 0.960 . S
C2263 C2260 1.511 . S
C2263 H2277 0.961 . S
C2263 H2278 0.961 . S
C2263 H2279 0.961 . S
C2264 C2265 1.370 . S
C2264 C2266 1.363 . S
C2264 H2280 0.931 . S
C2265 C2264 1.370 . S
C2265 C2269 1.408 . S
C2266 C2264 1.363 . S
C2266 C2267 1.370 . S
C2266 C2270 1.524 . S
C2267 C2259 1.503 . S
C2267 C2266 1.370 . S
C2267 C2268 1.403 . S
C2268 C2267 1.403 . S
C2268 C2269 1.404 . S
C2268 C2271 1.539 . S
C2269 C2265 1.408 . S
C2269 C2268 1.404 . S
C2269 H2281 0.930 . S
C2270 C2266 1.524 . S
C2270 H2282 0.956 . S
C2270 H2283 0.961 . S
C2270 H2284 0.961 . S
C2271 C2268 1.539 . S
C2271 H2285 0.958 . S
C2271 H2286 0.961 . S
C2271 H2287 0.960 . S
H2272 C2256 0.931 . S
H2273 C2261 0.929 . S
H2274 C2262 0.960 . S
H2275 C2262 0.962 . S
H2276 C2262 0.960 . S
H2277 C2263 0.961 . S
H2278 C2263 0.961 . S
H2279 C2263 0.961 . S
H2280 C2264 0.931 . S
H2281 C2269 0.930 . S
H2282 C2270 0.956 . S
H2283 C2270 0.961 . S
H2284 C2270 0.961 . S
H2285 C2271 0.958 . S
H2286 C2271 0.961 . S
H2287 C2271 0.960 . S
C2288 C2289 1.391 . S
C2288 C2290 1.394 . S
C2288 H2304 0.931 . S
C2289 C2288 1.391 . S
C2289 C2293 1.376 . S
C2290 C2288 1.394 . S
C2290 C2291 1.369 . S
C2290 C2294 1.531 . S
C2291 C2290 1.369 . S
C2291 C2292 1.410 . S
C2291 C2299 1.503 . S
C2292 C2291 1.410 . S
C2292 C2293 1.392 . S
C2292 C2295 1.511 . S
C2293 C2289 1.376 . S
C2293 C2292 1.392 . S
C2293 H2305 0.929 . S
C2294 C2290 1.531 . S
C2294 H2306 0.960 . S
C2294 H2307 0.962 . S
C2294 H2308 0.960 . S
C2295 C2292 1.511 . S
C2295 H2309 0.961 . S
C2295 H2310 0.961 . S
C2295 H2311 0.961 . S
C2296 C2297 1.370 1_655 S
C2296 C2298 1.363 . S
C2296 H2312 0.931 1_655 S
C2297 C2296 1.370 1_455 S
C2297 C2301 1.408 1_455 S
C2298 C2296 1.363 . S
C2298 C2299 1.370 . S
C2298 C2302 1.524 . S
C2299 C2291 1.503 . S
C2299 C2298 1.370 . S
C2299 C2300 1.403 . S
C2300 C2299 1.403 . S
C2300 C2301 1.404 . S
C2300 C2303 1.539 . S
C2301 C2297 1.408 1_655 S
C2301 C2300 1.404 . S
C2301 H2313 0.930 . S
C2302 C2298 1.524 . S
C2302 H2314 0.956 . S
C2302 H2315 0.961 . S
C2302 H2316 0.961 . S
C2303 C2300 1.539 . S
C2303 H2317 0.958 . S
C2303 H2318 0.961 . S
C2303 H2319 0.960 . S
H2304 C2288 0.931 . S
H2305 C2293 0.929 . S
H2306 C2294 0.960 . S
H2307 C2294 0.962 . S
H2308 C2294 0.960 . S
H2309 C2295 0.961 . S
H2310 C2295 0.961 . S
H2311 C2295 0.961 . S
H2312 C2296 0.931 1_455 S
H2313 C2301 0.930 . S
H2314 C2302 0.956 . S
H2315 C2302 0.961 . S
H2316 C2302 0.961 . S
H2317 C2303 0.958 . S
H2318 C2303 0.961 . S
H2319 C2303 0.960 . S
C2320 C2321 1.391 . S
C2320 C2322 1.394 . S
C2320 H2336 0.931 . S
C2321 C2320 1.391 . S
C2321 C2325 1.376 . S
C2322 C2320 1.394 . S
C2322 C2323 1.369 . S
C2322 C2326 1.531 . S
C2323 C2322 1.369 . S
C2323 C2324 1.410 . S
C2323 C2331 1.503 . S
C2324 C2323 1.410 . S
C2324 C2325 1.392 . S
C2324 C2327 1.511 . S
C2325 C2321 1.376 . S
C2325 C2324 1.392 . S
C2325 H2337 0.929 . S
C2326 C2322 1.531 . S
C2326 H2338 0.960 . S
C2326 H2339 0.962 . S
C2326 H2340 0.960 . S
C2327 C2324 1.511 . S
C2327 H2341 0.961 . S
C2327 H2342 0.961 . S
C2327 H2343 0.961 . S
C2328 C2329 1.370 . S
C2328 C2330 1.363 . S
C2328 H2344 0.931 . S
C2329 C2328 1.370 . S
C2329 C2333 1.408 . S
C2330 C2328 1.363 . S
C2330 C2331 1.370 . S
C2330 C2334 1.524 . S
C2331 C2323 1.503 . S
C2331 C2330 1.370 . S
C2331 C2332 1.403 . S
C2332 C2331 1.403 . S
C2332 C2333 1.404 . S
C2332 C2335 1.539 . S
C2333 C2329 1.408 . S
C2333 C2332 1.404 . S
C2333 H2345 0.930 . S
C2334 C2330 1.524 . S
C2334 H2346 0.956 . S
C2334 H2347 0.961 . S
C2334 H2348 0.961 . S
C2335 C2332 1.539 . S
C2335 H2349 0.958 . S
C2335 H2350 0.961 . S
C2335 H2351 0.960 . S
H2336 C2320 0.931 . S
H2337 C2325 0.929 . S
H2338 C2326 0.960 . S
H2339 C2326 0.962 . S
H2340 C2326 0.960 . S
H2341 C2327 0.961 . S
H2342 C2327 0.961 . S
H2343 C2327 0.961 . S
H2344 C2328 0.931 . S
H2345 C2333 0.930 . S
H2346 C2334 0.956 . S
H2347 C2334 0.961 . S
H2348 C2334 0.961 . S
H2349 C2335 0.958 . S
H2350 C2335 0.961 . S
H2351 C2335 0.960 . S
C2352 C2353 1.391 . S
C2352 C2354 1.394 . S
C2352 H2368 0.931 . S
C2353 C2352 1.391 . S
C2353 C2357 1.376 . S
C2354 C2352 1.394 . S
C2354 C2355 1.369 . S
C2354 C2358 1.531 . S
C2355 C2354 1.369 . S
C2355 C2356 1.410 . S
C2355 C2363 1.503 . S
C2356 C2355 1.410 . S
C2356 C2357 1.392 . S
C2356 C2359 1.511 . S
C2357 C2353 1.376 . S
C2357 C2356 1.392 . S
C2357 H2369 0.929 . S
C2358 C2354 1.531 . S
C2358 H2370 0.960 . S
C2358 H2371 0.962 . S
C2358 H2372 0.960 . S
C2359 C2356 1.511 . S
C2359 H2373 0.961 . S
C2359 H2374 0.961 . S
C2359 H2375 0.961 . S
C2360 C2361 1.370 . S
C2360 C2362 1.363 . S
C2360 H2376 0.931 . S
C2361 C2360 1.370 . S
C2361 C2365 1.408 . S
C2362 C2360 1.363 . S
C2362 C2363 1.370 . S
C2362 C2366 1.524 . S
C2363 C2355 1.503 . S
C2363 C2362 1.370 . S
C2363 C2364 1.403 . S
C2364 C2363 1.403 . S
C2364 C2365 1.404 . S
C2364 C2367 1.539 . S
C2365 C2361 1.408 . S
C2365 C2364 1.404 . S
C2365 H2377 0.930 . S
C2366 C2362 1.524 . S
C2366 H2378 0.956 . S
C2366 H2379 0.961 . S
C2366 H2380 0.961 . S
C2367 C2364 1.539 . S
C2367 H2381 0.958 . S
C2367 H2382 0.961 . S
C2367 H2383 0.960 . S
H2368 C2352 0.931 . S
H2369 C2357 0.929 . S
H2370 C2358 0.960 . S
H2371 C2358 0.962 . S
H2372 C2358 0.960 . S
H2373 C2359 0.961 . S
H2374 C2359 0.961 . S
H2375 C2359 0.961 . S
H2376 C2360 0.931 . S
H2377 C2365 0.930 . S
H2378 C2366 0.956 . S
H2379 C2366 0.961 . S
H2380 C2366 0.961 . S
H2381 C2367 0.958 . S
H2382 C2367 0.961 . S
H2383 C2367 0.960 . S
C2384 C2385 1.391 . S
C2384 C2386 1.394 . S
C2384 H2400 0.931 . S
C2385 C2384 1.391 . S
C2385 C2389 1.376 . S
C2386 C2384 1.394 . S
C2386 C2387 1.369 . S
C2386 C2390 1.531 . S
C2387 C2386 1.369 . S
C2387 C2388 1.410 . S
C2387 C2395 1.503 . S
C2388 C2387 1.410 . S
C2388 C2389 1.392 . S
C2388 C2391 1.511 . S
C2389 C2385 1.376 . S
C2389 C2388 1.392 . S
C2389 H2401 0.929 . S
C2390 C2386 1.531 . S
C2390 H2402 0.960 . S
C2390 H2403 0.962 . S
C2390 H2404 0.960 . S
C2391 C2388 1.511 . S
C2391 H2405 0.961 . S
C2391 H2406 0.961 . S
C2391 H2407 0.961 . S
C2392 C2393 1.370 . S
C2392 C2394 1.363 . S
C2392 H2408 0.931 . S
C2393 C2392 1.370 . S
C2393 C2397 1.408 . S
C2394 C2392 1.363 . S
C2394 C2395 1.370 . S
C2394 C2398 1.524 . S
C2395 C2387 1.503 . S
C2395 C2394 1.370 . S
C2395 C2396 1.403 . S
C2396 C2395 1.403 . S
C2396 C2397 1.404 . S
C2396 C2399 1.539 . S
C2397 C2393 1.408 . S
C2397 C2396 1.404 . S
C2397 H2409 0.930 . S
C2398 C2394 1.524 . S
C2398 H2410 0.956 . S
C2398 H2411 0.961 . S
C2398 H2412 0.961 . S
C2399 C2396 1.539 . S
C2399 H2413 0.958 . S
C2399 H2414 0.961 . S
C2399 H2415 0.960 . S
H2400 C2384 0.931 . S
H2401 C2389 0.929 . S
H2402 C2390 0.960 . S
H2403 C2390 0.962 . S
H2404 C2390 0.960 . S
H2405 C2391 0.961 . S
H2406 C2391 0.961 . S
H2407 C2391 0.961 . S
H2408 C2392 0.931 . S
H2409 C2397 0.930 . S
H2410 C2398 0.956 . S
H2411 C2398 0.961 . S
H2412 C2398 0.961 . S
H2413 C2399 0.958 . S
H2414 C2399 0.961 . S
H2415 C2399 0.960 . S
C2416 C2417 1.391 . S
C2416 C2418 1.394 . S
C2416 H2432 0.931 . S
C2417 C2416 1.391 . S
C2417 C2421 1.376 . S
C2418 C2416 1.394 . S
C2418 C2419 1.369 . S
C2418 C2422 1.531 . S
C2419 C2418 1.369 . S
C2419 C2420 1.410 . S
C2419 C2427 1.503 . S
C2420 C2419 1.410 . S
C2420 C2421 1.392 . S
C2420 C2423 1.511 . S
C2421 C2417 1.376 . S
C2421 C2420 1.392 . S
C2421 H2433 0.929 . S
C2422 C2418 1.531 . S
C2422 H2434 0.960 . S
C2422 H2435 0.962 . S
C2422 H2436 0.960 . S
C2423 C2420 1.511 . S
C2423 H2437 0.961 . S
C2423 H2438 0.961 . S
C2423 H2439 0.961 . S
C2424 C2425 1.370 . S
C2424 C2426 1.363 . S
C2424 H2440 0.931 . S
C2425 C2424 1.370 . S
C2425 C2429 1.408 . S
C2426 C2424 1.363 . S
C2426 C2427 1.370 . S
C2426 C2430 1.524 . S
C2427 C2419 1.503 . S
C2427 C2426 1.370 . S
C2427 C2428 1.403 . S
C2428 C2427 1.403 . S
C2428 C2429 1.404 . S
C2428 C2431 1.539 . S
C2429 C2425 1.408 . S
C2429 C2428 1.404 . S
C2429 H2441 0.930 . S
C2430 C2426 1.524 . S
C2430 H2442 0.956 . S
C2430 H2443 0.961 . S
C2430 H2444 0.961 . S
C2431 C2428 1.539 . S
C2431 H2445 0.958 . S
C2431 H2446 0.961 . S
C2431 H2447 0.960 . S
H2432 C2416 0.931 . S
H2433 C2421 0.929 . S
H2434 C2422 0.960 . S
H2435 C2422 0.962 . S
H2436 C2422 0.960 . S
H2437 C2423 0.961 . S
H2438 C2423 0.961 . S
H2439 C2423 0.961 . S
H2440 C2424 0.931 . S
H2441 C2429 0.930 . S
H2442 C2430 0.956 . S
H2443 C2430 0.961 . S
H2444 C2430 0.961 . S
H2445 C2431 0.958 . S
H2446 C2431 0.961 . S
H2447 C2431 0.960 . S
C2448 C2449 1.391 . S
C2448 C2450 1.394 . S
C2448 H2464 0.931 . S
C2449 C2448 1.391 . S
C2449 C2453 1.376 . S
C2450 C2448 1.394 . S
C2450 C2451 1.369 . S
C2450 C2454 1.531 . S
C2451 C2450 1.369 . S
C2451 C2452 1.410 . S
C2451 C2459 1.503 . S
C2452 C2451 1.410 . S
C2452 C2453 1.392 . S
C2452 C2455 1.511 . S
C2453 C2449 1.376 . S
C2453 C2452 1.392 . S
C2453 H2465 0.929 . S
C2454 C2450 1.531 . S
C2454 H2466 0.960 . S
C2454 H2467 0.962 . S
C2454 H2468 0.960 . S
C2455 C2452 1.511 . S
C2455 H2469 0.961 . S
C2455 H2470 0.961 . S
C2455 H2471 0.961 . S
C2456 C2457 1.370 . S
C2456 C2458 1.363 . S
C2456 H2472 0.931 . S
C2457 C2456 1.370 . S
C2457 C2461 1.408 . S
C2458 C2456 1.363 . S
C2458 C2459 1.370 . S
C2458 C2462 1.524 . S
C2459 C2451 1.503 . S
C2459 C2458 1.370 . S
C2459 C2460 1.403 . S
C2460 C2459 1.403 . S
C2460 C2461 1.404 . S
C2460 C2463 1.539 . S
C2461 C2457 1.408 . S
C2461 C2460 1.404 . S
C2461 H2473 0.930 . S
C2462 C2458 1.524 . S
C2462 H2474 0.956 . S
C2462 H2475 0.961 . S
C2462 H2476 0.961 . S
C2463 C2460 1.539 . S
C2463 H2477 0.958 1_554 S
C2463 H2478 0.961 . S
C2463 H2479 0.960 . S
H2464 C2448 0.931 . S
H2465 C2453 0.929 . S
H2466 C2454 0.960 . S
H2467 C2454 0.962 . S
H2468 C2454 0.960 . S
H2469 C2455 0.961 . S
H2470 C2455 0.961 . S
H2471 C2455 0.961 . S
H2472 C2456 0.931 . S
H2473 C2461 0.930 . S
H2474 C2462 0.956 . S
H2475 C2462 0.961 . S
H2476 C2462 0.961 . S
H2477 C2463 0.958 1_556 S
H2478 C2463 0.961 . S
H2479 C2463 0.960 . S
C2480 C2481 1.391 . S
C2480 C2482 1.394 . S
C2480 H2496 0.931 . S
C2481 C2480 1.391 . S
C2481 C2485 1.376 . S
C2482 C2480 1.394 . S
C2482 C2483 1.369 . S
C2482 C2486 1.531 . S
C2483 C2482 1.369 . S
C2483 C2484 1.410 . S
C2483 C2491 1.503 . S
C2484 C2483 1.410 . S
C2484 C2485 1.392 . S
C2484 C2487 1.511 . S
C2485 C2481 1.376 . S
C2485 C2484 1.392 . S
C2485 H2497 0.929 . S
C2486 C2482 1.531 . S
C2486 H2498 0.960 . S
C2486 H2499 0.962 . S
C2486 H2500 0.960 . S
C2487 C2484 1.511 . S
C2487 H2501 0.961 . S
C2487 H2502 0.961 . S
C2487 H2503 0.961 . S
C2488 C2489 1.370 . S
C2488 C2490 1.363 . S
C2488 H2504 0.931 . S
C2489 C2488 1.370 . S
C2489 C2493 1.408 . S
C2490 C2488 1.363 . S
C2490 C2491 1.370 . S
C2490 C2494 1.524 . S
C2491 C2483 1.503 . S
C2491 C2490 1.370 . S
C2491 C2492 1.403 . S
C2492 C2491 1.403 . S
C2492 C2493 1.404 . S
C2492 C2495 1.539 . S
C2493 C2489 1.408 . S
C2493 C2492 1.404 . S
C2493 H2505 0.930 . S
C2494 C2490 1.524 . S
C2494 H2506 0.956 . S
C2494 H2507 0.961 . S
C2494 H2508 0.961 . S
C2495 C2492 1.539 . S
C2495 H2509 0.958 . S
C2495 H2510 0.961 . S
C2495 H2511 0.960 . S
H2496 C2480 0.931 . S
H2497 C2485 0.929 . S
H2498 C2486 0.960 . S
H2499 C2486 0.962 . S
H2500 C2486 0.960 . S
H2501 C2487 0.961 . S
H2502 C2487 0.961 . S
H2503 C2487 0.961 . S
H2504 C2488 0.931 . S
H2505 C2493 0.930 . S
H2506 C2494 0.956 . S
H2507 C2494 0.961 . S
H2508 C2494 0.961 . S
H2509 C2495 0.958 . S
H2510 C2495 0.961 . S
H2511 C2495 0.960 . S
C2512 C2513 1.391 . S
C2512 C2514 1.394 . S
C2512 H2528 0.931 . S
C2513 C2512 1.391 . S
C2513 C2517 1.376 . S
C2514 C2512 1.394 . S
C2514 C2515 1.369 . S
C2514 C2518 1.531 . S
C2515 C2514 1.369 . S
C2515 C2516 1.410 . S
C2515 C2523 1.503 . S
C2516 C2515 1.410 . S
C2516 C2517 1.392 . S
C2516 C2519 1.511 . S
C2517 C2513 1.376 . S
C2517 C2516 1.392 . S
C2517 H2529 0.929 . S
C2518 C2514 1.531 . S
C2518 H2530 0.960 . S
C2518 H2531 0.962 . S
C2518 H2532 0.960 . S
C2519 C2516 1.511 . S
C2519 H2533 0.961 . S
C2519 H2534 0.961 . S
C2519 H2535 0.961 . S
C2520 C2521 1.370 . S
C2520 C2522 1.363 . S
C2520 H2536 0.931 . S
C2521 C2520 1.370 . S
C2521 C2525 1.408 . S
C2522 C2520 1.363 . S
C2522 C2523 1.370 . S
C2522 C2526 1.524 . S
C2523 C2515 1.503 . S
C2523 C2522 1.370 . S
C2523 C2524 1.403 . S
C2524 C2523 1.403 . S
C2524 C2525 1.404 . S
C2524 C2527 1.539 . S
C2525 C2521 1.408 . S
C2525 C2524 1.404 . S
C2525 H2537 0.930 . S
C2526 C2522 1.524 . S
C2526 H2538 0.956 . S
C2526 H2539 0.961 . S
C2526 H2540 0.961 . S
C2527 C2524 1.539 . S
C2527 H2541 0.958 . S
C2527 H2542 0.961 . S
C2527 H2543 0.960 . S
H2528 C2512 0.931 . S
H2529 C2517 0.929 . S
H2530 C2518 0.960 . S
H2531 C2518 0.962 . S
H2532 C2518 0.960 . S
H2533 C2519 0.961 . S
H2534 C2519 0.961 . S
H2535 C2519 0.961 . S
H2536 C2520 0.931 . S
H2537 C2525 0.930 . S
H2538 C2526 0.956 . S
H2539 C2526 0.961 . S
H2540 C2526 0.961 . S
H2541 C2527 0.958 . S
H2542 C2527 0.961 . S
H2543 C2527 0.960 . S
C2544 C2545 1.391 . S
C2544 C2546 1.394 . S
C2544 H2560 0.931 . S
C2545 C2544 1.391 . S
C2545 C2549 1.376 . S
C2546 C2544 1.394 . S
C2546 C2547 1.369 . S
C2546 C2550 1.531 . S
C2547 C2546 1.369 . S
C2547 C2548 1.410 . S
C2547 C2555 1.503 . S
C2548 C2547 1.410 . S
C2548 C2549 1.392 . S
C2548 C2551 1.511 . S
C2549 C2545 1.376 . S
C2549 C2548 1.392 . S
C2549 H2561 0.929 . S
C2550 C2546 1.531 . S
C2550 H2562 0.960 . S
C2550 H2563 0.962 . S
C2550 H2564 0.960 . S
C2551 C2548 1.511 . S
C2551 H2565 0.961 . S
C2551 H2566 0.961 . S
C2551 H2567 0.961 . S
C2552 C2553 1.370 . S
C2552 C2554 1.363 . S
C2552 H2568 0.931 . S
C2553 C2552 1.370 . S
C2553 C2557 1.408 . S
C2554 C2552 1.363 . S
C2554 C2555 1.370 . S
C2554 C2558 1.524 . S
C2555 C2547 1.503 . S
C2555 C2554 1.370 . S
C2555 C2556 1.403 . S
C2556 C2555 1.403 . S
C2556 C2557 1.404 . S
C2556 C2559 1.539 . S
C2557 C2553 1.408 . S
C2557 C2556 1.404 . S
C2557 H2569 0.930 . S
C2558 C2554 1.524 . S
C2558 H2570 0.956 . S
C2558 H2571 0.961 . S
C2558 H2572 0.961 . S
C2559 C2556 1.539 . S
C2559 H2573 0.958 . S
C2559 H2574 0.961 . S
C2559 H2575 0.960 . S
H2560 C2544 0.931 . S
H2561 C2549 0.929 . S
H2562 C2550 0.960 . S
H2563 C2550 0.962 . S
H2564 C2550 0.960 . S
H2565 C2551 0.961 . S
H2566 C2551 0.961 . S
H2567 C2551 0.961 . S
H2568 C2552 0.931 . S
H2569 C2557 0.930 . S
H2570 C2558 0.956 . S
H2571 C2558 0.961 . S
H2572 C2558 0.961 . S
H2573 C2559 0.958 . S
H2574 C2559 0.961 . S
H2575 C2559 0.960 . S
C2576 C2577 1.391 . S
C2576 C2578 1.394 . S
C2576 H2592 0.931 . S
C2577 C2576 1.391 . S
C2577 C2581 1.376 . S
C2578 C2576 1.394 . S
C2578 C2579 1.369 . S
C2578 C2582 1.531 . S
C2579 C2578 1.369 . S
C2579 C2580 1.410 . S
C2579 C2587 1.503 . S
C2580 C2579 1.410 . S
C2580 C2581 1.392 . S
C2580 C2583 1.511 . S
C2581 C2577 1.376 . S
C2581 C2580 1.392 . S
C2581 H2593 0.929 . S
C2582 C2578 1.531 . S
C2582 H2594 0.960 . S
C2582 H2595 0.962 . S
C2582 H2596 0.960 . S
C2583 C2580 1.511 . S
C2583 H2597 0.961 . S
C2583 H2598 0.961 . S
C2583 H2599 0.961 . S
C2584 C2585 1.370 . S
C2584 C2586 1.363 . S
C2584 H2600 0.931 . S
C2585 C2584 1.370 . S
C2585 C2589 1.408 . S
C2586 C2584 1.363 . S
C2586 C2587 1.370 . S
C2586 C2590 1.524 . S
C2587 C2579 1.503 . S
C2587 C2586 1.370 . S
C2587 C2588 1.403 . S
C2588 C2587 1.403 . S
C2588 C2589 1.404 . S
C2588 C2591 1.539 . S
C2589 C2585 1.408 . S
C2589 C2588 1.404 . S
C2589 H2601 0.930 . S
C2590 C2586 1.524 . S
C2590 H2602 0.956 . S
C2590 H2603 0.961 . S
C2590 H2604 0.961 . S
C2591 C2588 1.539 . S
C2591 H2605 0.958 . S
C2591 H2606 0.961 . S
C2591 H2607 0.960 . S
H2592 C2576 0.931 . S
H2593 C2581 0.929 . S
H2594 C2582 0.960 . S
H2595 C2582 0.962 . S
H2596 C2582 0.960 . S
H2597 C2583 0.961 . S
H2598 C2583 0.961 . S
H2599 C2583 0.961 . S
H2600 C2584 0.931 . S
H2601 C2589 0.930 . S
H2602 C2590 0.956 . S
H2603 C2590 0.961 . S
H2604 C2590 0.961 . S
H2605 C2591 0.958 . S
H2606 C2591 0.961 . S
H2607 C2591 0.960 . S
C2608 C2609 1.391 . S
C2608 C2610 1.394 . S
C2608 H2624 0.931 . S
C2609 C2608 1.391 . S
C2609 C2613 1.376 . S
C2610 C2608 1.394 . S
C2610 C2611 1.369 . S
C2610 C2614 1.531 . S
C2611 C2610 1.369 . S
C2611 C2612 1.410 . S
C2611 C2619 1.503 . S
C2612 C2611 1.410 . S
C2612 C2613 1.392 . S
C2612 C2615 1.511 . S
C2613 C2609 1.376 . S
C2613 C2612 1.392 . S
C2613 H2625 0.929 . S
C2614 C2610 1.531 . S
C2614 H2626 0.960 . S
C2614 H2627 0.962 . S
C2614 H2628 0.960 . S
C2615 C2612 1.511 . S
C2615 H2629 0.961 . S
C2615 H2630 0.961 . S
C2615 H2631 0.961 . S
C2616 C2617 1.370 . S
C2616 C2618 1.363 . S
C2616 H2632 0.931 . S
C2617 C2616 1.370 . S
C2617 C2621 1.408 . S
C2618 C2616 1.363 . S
C2618 C2619 1.370 . S
C2618 C2622 1.524 . S
C2619 C2611 1.503 . S
C2619 C2618 1.370 . S
C2619 C2620 1.403 . S
C2620 C2619 1.403 . S
C2620 C2621 1.404 . S
C2620 C2623 1.539 . S
C2621 C2617 1.408 . S
C2621 C2620 1.404 . S
C2621 H2633 0.930 . S
C2622 C2618 1.524 . S
C2622 H2634 0.956 . S
C2622 H2635 0.961 . S
C2622 H2636 0.961 . S
C2623 C2620 1.539 . S
C2623 H2637 0.958 . S
C2623 H2638 0.961 . S
C2623 H2639 0.960 . S
H2624 C2608 0.931 . S
H2625 C2613 0.929 . S
H2626 C2614 0.960 . S
H2627 C2614 0.962 . S
H2628 C2614 0.960 . S
H2629 C2615 0.961 . S
H2630 C2615 0.961 . S
H2631 C2615 0.961 . S
H2632 C2616 0.931 . S
H2633 C2621 0.930 . S
H2634 C2622 0.956 . S
H2635 C2622 0.961 . S
H2636 C2622 0.961 . S
H2637 C2623 0.958 . S
H2638 C2623 0.961 . S
H2639 C2623 0.960 . S
C2640 C2641 1.391 . S
C2640 C2642 1.394 . S
C2640 H2656 0.931 . S
C2641 C2640 1.391 . S
C2641 C2645 1.376 . S
C2642 C2640 1.394 . S
C2642 C2643 1.369 . S
C2642 C2646 1.531 . S
C2643 C2642 1.369 . S
C2643 C2644 1.410 . S
C2643 C2651 1.503 . S
C2644 C2643 1.410 . S
C2644 C2645 1.392 . S
C2644 C2647 1.511 . S
C2645 C2641 1.376 . S
C2645 C2644 1.392 . S
C2645 H2657 0.929 . S
C2646 C2642 1.531 . S
C2646 H2658 0.960 . S
C2646 H2659 0.962 . S
C2646 H2660 0.960 . S
C2647 C2644 1.511 . S
C2647 H2661 0.961 . S
C2647 H2662 0.961 . S
C2647 H2663 0.961 . S
C2648 C2649 1.370 . S
C2648 C2650 1.363 . S
C2648 H2664 0.931 . S
C2649 C2648 1.370 . S
C2649 C2653 1.408 1_565 S
C2650 C2648 1.363 . S
C2650 C2651 1.370 . S
C2650 C2654 1.524 . S
C2651 C2643 1.503 . S
C2651 C2650 1.370 . S
C2651 C2652 1.403 . S
C2652 C2651 1.403 . S
C2652 C2653 1.397 1_565 S
C2652 C2655 1.539 . S
C2653 C2649 1.408 1_545 S
C2653 C2652 1.397 1_545 S
C2653 H2665 0.936 . S
C2654 C2650 1.524 . S
C2654 H2666 0.956 . S
C2654 H2667 0.961 . S
C2654 H2668 0.961 . S
C2655 C2652 1.539 . S
C2655 H2669 0.958 . S
C2655 H2670 0.961 1_565 S
C2655 H2671 0.960 . S
H2656 C2640 0.931 . S
H2657 C2645 0.929 . S
H2658 C2646 0.960 . S
H2659 C2646 0.962 . S
H2660 C2646 0.960 . S
H2661 C2647 0.961 . S
H2662 C2647 0.961 . S
H2663 C2647 0.961 . S
H2664 C2648 0.931 . S
H2665 C2653 0.936 . S
H2666 C2654 0.956 . S
H2667 C2654 0.961 . S
H2668 C2654 0.961 . S
H2669 C2655 0.958 . S
H2670 C2655 0.961 1_545 S
H2671 C2655 0.960 . S
C2672 C2673 1.391 . S
C2672 C2674 1.394 . S
C2672 H2688 0.931 . S
C2673 C2672 1.391 . S
C2673 C2677 1.376 . S
C2674 C2672 1.394 . S
C2674 C2675 1.369 . S
C2674 C2678 1.531 . S
C2675 C2674 1.369 . S
C2675 C2676 1.410 . S
C2675 C2683 1.503 . S
C2676 C2675 1.410 . S
C2676 C2677 1.392 . S
C2676 C2679 1.511 . S
C2677 C2673 1.376 . S
C2677 C2676 1.392 . S
C2677 H2689 0.929 . S
C2678 C2674 1.531 . S
C2678 H2690 0.960 . S
C2678 H2691 0.962 . S
C2678 H2692 0.960 . S
C2679 C2676 1.511 . S
C2679 H2693 0.961 . S
C2679 H2694 0.961 . S
C2679 H2695 0.961 . S
C2680 C2681 1.370 . S
C2680 C2682 1.363 . S
C2680 H2696 0.931 . S
C2681 C2680 1.370 . S
C2681 C2685 1.408 . S
C2682 C2680 1.363 . S
C2682 C2683 1.370 . S
C2682 C2686 1.524 . S
C2683 C2675 1.503 . S
C2683 C2682 1.370 . S
C2683 C2684 1.403 . S
C2684 C2683 1.403 . S
C2684 C2685 1.404 . S
C2684 C2687 1.539 . S
C2685 C2681 1.408 . S
C2685 C2684 1.404 . S
C2685 H2697 0.930 . S
C2686 C2682 1.524 . S
C2686 H2698 0.956 . S
C2686 H2699 0.961 . S
C2686 H2700 0.961 . S
C2687 C2684 1.539 . S
C2687 H2701 0.958 . S
C2687 H2702 0.961 . S
C2687 H2703 0.960 . S
H2688 C2672 0.931 . S
H2689 C2677 0.929 . S
H2690 C2678 0.960 . S
H2691 C2678 0.962 . S
H2692 C2678 0.960 . S
H2693 C2679 0.961 . S
H2694 C2679 0.961 . S
H2695 C2679 0.961 . S
H2696 C2680 0.931 . S
H2697 C2685 0.930 . S
H2698 C2686 0.956 . S
H2699 C2686 0.961 . S
H2700 C2686 0.961 . S
H2701 C2687 0.958 . S
H2702 C2687 0.961 . S
H2703 C2687 0.960 . S
C2704 C2705 1.391 . S
C2704 C2706 1.394 . S
C2704 H2720 0.931 . S
C2705 C2704 1.391 . S
C2705 C2709 1.379 . S
C2706 C2704 1.394 . S
C2706 C2707 1.369 . S
C2706 C2710 1.531 . S
C2707 C2706 1.369 . S
C2707 C2708 1.410 . S
C2707 C2715 1.503 . S
C2708 C2707 1.410 . S
C2708 C2709 1.394 . S
C2708 C2711 1.511 1_545 S
C2709 C2705 1.379 . S
C2709 C2708 1.394 . S
C2709 H2721 0.925 1_545 S
C2710 C2706 1.531 . S
C2710 H2722 0.960 . S
C2710 H2723 0.962 . S
C2710 H2724 0.960 . S
C2711 C2708 1.511 1_565 S
C2711 H2725 0.961 . S
C2711 H2726 0.961 . S
C2711 H2727 0.961 1_565 S
C2712 C2713 1.370 1_565 S
C2712 C2714 1.363 . S
C2712 H2728 0.931 . S
C2713 C2712 1.370 1_545 S
C2713 C2717 1.408 . S
C2714 C2712 1.363 . S
C2714 C2715 1.370 1_565 S
C2714 C2718 1.524 . S
C2715 C2707 1.503 . S
C2715 C2714 1.370 1_545 S
C2715 C2716 1.403 . S
C2716 C2715 1.403 . S
C2716 C2717 1.404 . S
C2716 C2719 1.539 . S
C2717 C2713 1.408 . S
C2717 C2716 1.404 . S
C2717 H2729 0.930 . S
C2718 C2714 1.524 . S
C2718 H2730 0.956 . S
C2718 H2731 0.961 . S
C2718 H2732 0.961 . S
C2719 C2716 1.539 . S
C2719 H2733 0.958 . S
C2719 H2734 0.961 . S
C2719 H2735 0.960 . S
H2720 C2704 0.931 . S
H2721 C2709 0.925 1_565 S
H2722 C2710 0.960 . S
H2723 C2710 0.962 . S
H2724 C2710 0.960 . S
H2725 C2711 0.961 . S
H2726 C2711 0.961 . S
H2727 C2711 0.961 1_545 S
H2728 C2712 0.931 . S
H2729 C2717 0.930 . S
H2730 C2718 0.956 . S
H2731 C2718 0.961 . S
H2732 C2718 0.961 . S
H2733 C2719 0.958 . S
H2734 C2719 0.961 . S
H2735 C2719 0.960 . S
C2736 C2737 1.391 . S
C2736 C2738 1.394 . S
C2736 H2752 0.931 . S
C2737 C2736 1.391 . S
C2737 C2741 1.376 . S
C2738 C2736 1.394 . S
C2738 C2739 1.369 . S
C2738 C2742 1.531 . S
C2739 C2738 1.369 . S
C2739 C2740 1.410 . S
C2739 C2747 1.503 . S
C2740 C2739 1.410 . S
C2740 C2741 1.392 . S
C2740 C2743 1.511 . S
C2741 C2737 1.376 . S
C2741 C2740 1.392 . S
C2741 H2753 0.929 . S
C2742 C2738 1.531 . S
C2742 H2754 0.960 . S
C2742 H2755 0.962 . S
C2742 H2756 0.960 . S
C2743 C2740 1.511 . S
C2743 H2757 0.961 . S
C2743 H2758 0.961 . S
C2743 H2759 0.961 . S
C2744 C2745 1.370 . S
C2744 C2746 1.363 . S
C2744 H2760 0.931 . S
C2745 C2744 1.370 . S
C2745 C2749 1.408 . S
C2746 C2744 1.363 . S
C2746 C2747 1.370 . S
C2746 C2750 1.524 . S
C2747 C2739 1.503 . S
C2747 C2746 1.370 . S
C2747 C2748 1.403 . S
C2748 C2747 1.403 . S
C2748 C2749 1.404 . S
C2748 C2751 1.539 . S
C2749 C2745 1.408 . S
C2749 C2748 1.404 . S
C2749 H2761 0.930 . S
C2750 C2746 1.524 . S
C2750 H2762 0.956 . S
C2750 H2763 0.961 . S
C2750 H2764 0.961 . S
C2751 C2748 1.539 . S
C2751 H2765 0.958 . S
C2751 H2766 0.961 . S
C2751 H2767 0.960 . S
H2752 C2736 0.931 . S
H2753 C2741 0.929 . S
H2754 C2742 0.960 . S
H2755 C2742 0.962 . S
H2756 C2742 0.960 . S
H2757 C2743 0.961 . S
H2758 C2743 0.961 . S
H2759 C2743 0.961 . S
H2760 C2744 0.931 . S
H2761 C2749 0.930 . S
H2762 C2750 0.956 . S
H2763 C2750 0.961 . S
H2764 C2750 0.961 . S
H2765 C2751 0.958 . S
H2766 C2751 0.961 . S
H2767 C2751 0.960 . S
C2768 C2769 1.391 . S
C2768 C2770 1.394 . S
C2768 H2784 0.913 1_545 S
C2769 C2768 1.391 . S
C2769 C2773 1.376 . S
C2770 C2768 1.394 . S
C2770 C2771 1.369 . S
C2770 C2774 1.531 1_545 S
C2771 C2770 1.369 . S
C2771 C2772 1.410 . S
C2771 C2779 1.503 . S
C2772 C2771 1.410 . S
C2772 C2773 1.392 . S
C2772 C2775 1.511 . S
C2773 C2769 1.376 . S
C2773 C2772 1.392 . S
C2773 H2785 0.929 . S
C2774 C2770 1.531 1_565 S
C2774 H2786 0.960 . S
C2774 H2787 0.962 1_565 S
C2774 H2788 0.960 . S
C2775 C2772 1.511 . S
C2775 H2789 0.961 . S
C2775 H2790 0.961 . S
C2775 H2791 0.961 . S
C2776 C2777 1.370 . S
C2776 C2778 1.363 . S
C2776 H2792 0.931 . S
C2777 C2776 1.370 . S
C2777 C2781 1.408 . S
C2778 C2776 1.363 . S
C2778 C2779 1.370 . S
C2778 C2782 1.524 . S
C2779 C2771 1.503 . S
C2779 C2778 1.370 . S
C2779 C2780 1.403 . S
C2780 C2779 1.403 . S
C2780 C2781 1.404 . S
C2780 C2783 1.539 . S
C2781 C2777 1.408 . S
C2781 C2780 1.404 . S
C2781 H2793 0.930 . S
C2782 C2778 1.524 . S
C2782 H2794 0.956 . S
C2782 H2795 0.961 . S
C2782 H2796 0.961 . S
C2783 C2780 1.539 . S
C2783 H2797 0.959 1_545 S
C2783 H2798 0.962 . S
C2783 H2799 0.959 . S
H2784 C2768 0.913 1_565 S
H2785 C2773 0.929 . S
H2786 C2774 0.960 . S
H2787 C2774 0.962 1_545 S
H2788 C2774 0.960 . S
H2789 C2775 0.961 . S
H2790 C2775 0.961 . S
H2791 C2775 0.961 . S
H2792 C2776 0.931 . S
H2793 C2781 0.930 . S
H2794 C2782 0.956 . S
H2795 C2782 0.961 . S
H2796 C2782 0.961 . S
H2797 C2783 0.959 1_565 S
H2798 C2783 0.962 . S
H2799 C2783 0.959 . S
C2800 C2801 1.391 . S
C2800 C2802 1.394 . S
C2800 H2816 0.931 . S
C2801 C2800 1.391 . S
C2801 C2805 1.376 . S
C2802 C2800 1.394 . S
C2802 C2803 1.369 . S
C2802 C2806 1.531 . S
C2803 C2802 1.369 . S
C2803 C2804 1.410 . S
C2803 C2811 1.503 . S
C2804 C2803 1.410 . S
C2804 C2805 1.392 . S
C2804 C2807 1.511 . S
C2805 C2801 1.376 . S
C2805 C2804 1.392 . S
C2805 H2817 0.929 . S
C2806 C2802 1.531 . S
C2806 H2818 0.960 . S
C2806 H2819 0.962 . S
C2806 H2820 0.960 . S
C2807 C2804 1.511 . S
C2807 H2821 0.961 . S
C2807 H2822 0.961 . S
C2807 H2823 0.961 . S
C2808 C2809 1.370 . S
C2808 C2810 1.363 . S
C2808 H2824 0.931 . S
C2809 C2808 1.370 . S
C2809 C2813 1.408 . S
C2810 C2808 1.363 . S
C2810 C2811 1.370 . S
C2810 C2814 1.524 . S
C2811 C2803 1.503 . S
C2811 C2810 1.370 . S
C2811 C2812 1.403 . S
C2812 C2811 1.403 . S
C2812 C2813 1.404 . S
C2812 C2815 1.539 . S
C2813 C2809 1.408 . S
C2813 C2812 1.404 . S
C2813 H2825 0.930 . S
C2814 C2810 1.524 . S
C2814 H2826 0.956 . S
C2814 H2827 0.961 . S
C2814 H2828 0.961 . S
C2815 C2812 1.539 . S
C2815 H2829 0.958 . S
C2815 H2830 0.961 . S
C2815 H2831 0.960 . S
H2816 C2800 0.931 . S
H2817 C2805 0.929 . S
H2818 C2806 0.960 . S
H2819 C2806 0.962 . S
H2820 C2806 0.960 . S
H2821 C2807 0.961 . S
H2822 C2807 0.961 . S
H2823 C2807 0.961 . S
H2824 C2808 0.931 . S
H2825 C2813 0.930 . S
H2826 C2814 0.956 . S
H2827 C2814 0.961 . S
H2828 C2814 0.961 . S
H2829 C2815 0.958 . S
H2830 C2815 0.961 . S
H2831 C2815 0.960 . S
C2832 C2833 1.391 1_545 S
C2832 C2834 1.394 . S
C2832 H2848 0.931 . S
C2833 C2832 1.391 1_565 S
C2833 C2837 1.376 . S
C2834 C2832 1.394 . S
C2834 C2835 1.369 . S
C2834 C2838 1.531 . S
C2835 C2834 1.369 . S
C2835 C2836 1.425 . S
C2835 C2843 1.503 . S
C2836 C2835 1.425 . S
C2836 C2837 1.380 1_545 S
C2836 C2839 1.508 1_545 S
C2837 C2833 1.376 . S
C2837 C2836 1.380 1_565 S
C2837 H2849 0.929 . S
C2838 C2834 1.531 . S
C2838 H2850 0.960 . S
C2838 H2851 0.962 . S
C2838 H2852 0.960 . S
C2839 C2836 1.508 1_565 S
C2839 H2853 0.961 . S
C2839 H2854 0.961 . S
C2839 H2855 0.961 1_565 S
C2840 C2841 1.370 . S
C2840 C2842 1.353 1_545 S
C2840 H2856 0.931 1_545 S
C2841 C2840 1.370 . S
C2841 C2845 1.408 . S
C2842 C2840 1.353 1_565 S
C2842 C2843 1.362 1_565 S
C2842 C2846 1.543 . S
C2843 C2835 1.503 . S
C2843 C2842 1.362 1_545 S
C2843 C2844 1.403 . S
C2844 C2843 1.403 . S
C2844 C2845 1.404 . S
C2844 C2847 1.539 . S
C2845 C2841 1.408 . S
C2845 C2844 1.404 . S
C2845 H2857 0.930 . S
C2846 C2842 1.543 . S
C2846 H2858 0.956 . S
C2846 H2859 0.961 . S
C2846 H2860 0.961 . S
C2847 C2844 1.539 . S
C2847 H2861 0.958 . S
C2847 H2862 0.961 . S
C2847 H2863 0.960 . S
H2848 C2832 0.931 . S
H2849 C2837 0.929 . S
H2850 C2838 0.960 . S
H2851 C2838 0.962 . S
H2852 C2838 0.960 . S
H2853 C2839 0.961 . S
H2854 C2839 0.961 . S
H2855 C2839 0.961 1_545 S
H2856 C2840 0.931 1_565 S
H2857 C2845 0.930 . S
H2858 C2846 0.956 . S
H2859 C2846 0.961 . S
H2860 C2846 0.961 . S
H2861 C2847 0.958 . S
H2862 C2847 0.961 . S
H2863 C2847 0.960 . S
C2864 C2865 1.391 . S
C2864 C2866 1.394 . S
C2864 H2880 0.931 . S
C2865 C2864 1.391 . S
C2865 C2869 1.376 . S
C2866 C2864 1.394 . S
C2866 C2867 1.369 . S
C2866 C2870 1.531 . S
C2867 C2866 1.369 . S
C2867 C2868 1.410 . S
C2867 C2875 1.503 . S
C2868 C2867 1.410 . S
C2868 C2869 1.392 . S
C2868 C2871 1.511 . S
C2869 C2865 1.376 . S
C2869 C2868 1.392 . S
C2869 H2881 0.929 . S
C2870 C2866 1.531 . S
C2870 H2882 0.960 . S
C2870 H2883 0.962 . S
C2870 H2884 0.960 . S
C2871 C2868 1.511 . S
C2871 H2885 0.961 . S
C2871 H2886 0.961 . S
C2871 H2887 0.961 . S
C2872 C2873 1.370 . S
C2872 C2874 1.363 . S
C2872 H2888 0.931 . S
C2873 C2872 1.370 . S
C2873 C2877 1.408 . S
C2874 C2872 1.363 . S
C2874 C2875 1.370 . S
C2874 C2878 1.524 . S
C2875 C2867 1.503 . S
C2875 C2874 1.370 . S
C2875 C2876 1.403 . S
C2876 C2875 1.403 . S
C2876 C2877 1.404 . S
C2876 C2879 1.539 . S
C2877 C2873 1.408 . S
C2877 C2876 1.404 . S
C2877 H2889 0.930 . S
C2878 C2874 1.524 . S
C2878 H2890 0.956 . S
C2878 H2891 0.961 . S
C2878 H2892 0.961 . S
C2879 C2876 1.539 . S
C2879 H2893 0.958 . S
C2879 H2894 0.961 . S
C2879 H2895 0.960 . S
H2880 C2864 0.931 . S
H2881 C2869 0.929 . S
H2882 C2870 0.960 . S
H2883 C2870 0.962 . S
H2884 C2870 0.960 . S
H2885 C2871 0.961 . S
H2886 C2871 0.961 . S
H2887 C2871 0.961 . S
H2888 C2872 0.931 . S
H2889 C2877 0.930 . S
H2890 C2878 0.956 . S
H2891 C2878 0.961 . S
H2892 C2878 0.961 . S
H2893 C2879 0.958 . S
H2894 C2879 0.961 . S
H2895 C2879 0.960 . S
C2896 C2897 1.391 . S
C2896 C2898 1.394 . S
C2896 H2912 0.931 1_545 S
C2897 C2896 1.391 . S
C2897 C2901 1.376 . S
C2898 C2896 1.394 . S
C2898 C2899 1.369 . S
C2898 C2902 1.531 1_545 S
C2899 C2898 1.369 . S
C2899 C2900 1.410 . S
C2899 C2907 1.503 . S
C2900 C2899 1.410 . S
C2900 C2901 1.392 . S
C2900 C2903 1.511 . S
C2901 C2897 1.376 . S
C2901 C2900 1.392 . S
C2901 H2913 0.929 . S
C2902 C2898 1.531 1_565 S
C2902 H2914 0.960 . S
C2902 H2915 0.963 1_565 S
C2902 H2916 0.960 . S
C2903 C2900 1.511 . S
C2903 H2917 0.961 . S
C2903 H2918 0.961 . S
C2903 H2919 0.961 . S
C2904 C2905 1.370 . S
C2904 C2906 1.363 . S
C2904 H2920 0.931 . S
C2905 C2904 1.370 . S
C2905 C2909 1.408 . S
C2906 C2904 1.363 . S
C2906 C2907 1.370 . S
C2906 C2910 1.524 . S
C2907 C2899 1.503 . S
C2907 C2906 1.370 . S
C2907 C2908 1.403 . S
C2908 C2907 1.403 . S
C2908 C2909 1.404 . S
C2908 C2911 1.539 1_545 S
C2909 C2905 1.408 . S
C2909 C2908 1.404 . S
C2909 H2921 0.930 1_545 S
C2910 C2906 1.524 . S
C2910 H2922 0.956 . S
C2910 H2923 0.961 . S
C2910 H2924 0.961 . S
C2911 C2908 1.539 1_565 S
C2911 H2925 0.958 . S
C2911 H2926 0.961 . S
C2911 H2927 0.960 . S
H2912 C2896 0.931 1_565 S
H2913 C2901 0.929 . S
H2914 C2902 0.960 . S
H2915 C2902 0.963 1_545 S
H2916 C2902 0.960 . S
H2917 C2903 0.961 . S
H2918 C2903 0.961 . S
H2919 C2903 0.961 . S
H2920 C2904 0.931 . S
H2921 C2909 0.930 1_565 S
H2922 C2910 0.956 . S
H2923 C2910 0.961 . S
H2924 C2910 0.961 . S
H2925 C2911 0.958 . S
H2926 C2911 0.961 . S
H2927 C2911 0.960 . S
C2928 C2929 1.391 . S
C2928 C2930 1.394 . S
C2928 H2944 0.931 . S
C2929 C2928 1.391 . S
C2929 C2933 1.376 . S
C2930 C2928 1.394 . S
C2930 C2931 1.369 . S
C2930 C2934 1.531 . S
C2931 C2930 1.369 . S
C2931 C2932 1.410 . S
C2931 C2939 1.503 . S
C2932 C2931 1.410 . S
C2932 C2933 1.392 . S
C2932 C2935 1.511 . S
C2933 C2929 1.376 . S
C2933 C2932 1.392 . S
C2933 H2945 0.929 . S
C2934 C2930 1.531 . S
C2934 H2946 0.960 . S
C2934 H2947 0.962 . S
C2934 H2948 0.960 . S
C2935 C2932 1.511 . S
C2935 H2949 0.961 . S
C2935 H2950 0.961 . S
C2935 H2951 0.961 . S
C2936 C2937 1.370 . S
C2936 C2938 1.363 . S
C2936 H2952 0.931 . S
C2937 C2936 1.370 . S
C2937 C2941 1.408 . S
C2938 C2936 1.363 . S
C2938 C2939 1.370 . S
C2938 C2942 1.524 . S
C2939 C2931 1.503 . S
C2939 C2938 1.370 . S
C2939 C2940 1.403 . S
C2940 C2939 1.403 . S
C2940 C2941 1.404 . S
C2940 C2943 1.539 . S
C2941 C2937 1.408 . S
C2941 C2940 1.404 . S
C2941 H2953 0.930 . S
C2942 C2938 1.524 . S
C2942 H2954 0.956 . S
C2942 H2955 0.961 . S
C2942 H2956 0.961 . S
C2943 C2940 1.539 . S
C2943 H2957 0.958 . S
C2943 H2958 0.961 . S
C2943 H2959 0.960 . S
H2944 C2928 0.931 . S
H2945 C2933 0.929 . S
H2946 C2934 0.960 . S
H2947 C2934 0.962 . S
H2948 C2934 0.960 . S
H2949 C2935 0.961 . S
H2950 C2935 0.961 . S
H2951 C2935 0.961 . S
H2952 C2936 0.931 . S
H2953 C2941 0.930 . S
H2954 C2942 0.956 . S
H2955 C2942 0.961 . S
H2956 C2942 0.961 . S
H2957 C2943 0.958 . S
H2958 C2943 0.961 . S
H2959 C2943 0.960 . S
C2960 C2961 1.391 . S
C2960 C2962 1.395 . S
C2960 H2976 0.931 1_554 S
C2961 C2960 1.391 . S
C2961 C2965 1.376 . S
C2962 C2960 1.395 . S
C2962 C2963 1.374 . S
C2962 C2966 1.525 1_554 S
C2963 C2962 1.374 . S
C2963 C2964 1.410 . S
C2963 C2971 1.503 . S
C2964 C2963 1.410 . S
C2964 C2965 1.392 . S
C2964 C2967 1.511 . S
C2965 C2961 1.376 . S
C2965 C2964 1.392 . S
C2965 H2977 0.929 . S
C2966 C2962 1.525 1_556 S
C2966 H2978 0.960 . S
C2966 H2979 0.962 . S
C2966 H2980 0.960 . S
C2967 C2964 1.511 . S
C2967 H2981 0.961 . S
C2967 H2982 0.961 . S
C2967 H2983 0.961 . S
C2968 C2969 1.370 . S
C2968 C2970 1.363 . S
C2968 H2984 0.931 . S
C2969 C2968 1.370 . S
C2969 C2973 1.408 . S
C2970 C2968 1.363 . S
C2970 C2971 1.370 . S
C2970 C2974 1.524 . S
C2971 C2963 1.503 . S
C2971 C2970 1.370 . S
C2971 C2972 1.403 . S
C2972 C2971 1.403 . S
C2972 C2973 1.404 . S
C2972 C2975 1.539 . S
C2973 C2969 1.408 . S
C2973 C2972 1.404 . S
C2973 H2985 0.932 1_554 S
C2974 C2970 1.524 . S
C2974 H2986 0.956 . S
C2974 H2987 0.961 . S
C2974 H2988 0.961 . S
C2975 C2972 1.539 . S
C2975 H2989 0.958 1_554 S
C2975 H2990 0.961 . S
C2975 H2991 0.960 . S
H2976 C2960 0.931 1_556 S
H2977 C2965 0.929 . S
H2978 C2966 0.960 . S
H2979 C2966 0.962 . S
H2980 C2966 0.960 . S
H2981 C2967 0.961 . S
H2982 C2967 0.961 . S
H2983 C2967 0.961 . S
H2984 C2968 0.931 . S
H2985 C2973 0.932 1_556 S
H2986 C2974 0.956 . S
H2987 C2974 0.961 . S
H2988 C2974 0.961 . S
H2989 C2975 0.958 1_556 S
H2990 C2975 0.961 . S
H2991 C2975 0.960 . S
C2992 C2993 1.391 . S
C2992 C2994 1.394 . S
C2992 H3008 0.931 . S
C2993 C2992 1.391 . S
C2993 C2997 1.376 . S
C2994 C2992 1.394 . S
C2994 C2995 1.369 . S
C2994 C2998 1.531 . S
C2995 C2994 1.369 . S
C2995 C2996 1.410 . S
C2995 C3003 1.503 . S
C2996 C2995 1.410 . S
C2996 C2997 1.392 . S
C2996 C2999 1.511 . S
C2997 C2993 1.376 . S
C2997 C2996 1.392 . S
C2997 H3009 0.929 . S
C2998 C2994 1.531 . S
C2998 H3010 0.960 . S
C2998 H3011 0.962 . S
C2998 H3012 0.960 . S
C2999 C2996 1.511 . S
C2999 H3013 0.961 . S
C2999 H3014 0.961 . S
C2999 H3015 0.961 . S
C3000 C3001 1.370 . S
C3000 C3002 1.363 . S
C3000 H3016 0.931 . S
C3001 C3000 1.370 . S
C3001 C3005 1.408 . S
C3002 C3000 1.363 . S
C3002 C3003 1.370 . S
C3002 C3006 1.532 . S
C3003 C2995 1.503 . S
C3003 C3002 1.370 . S
C3003 C3004 1.403 . S
C3004 C3003 1.403 . S
C3004 C3005 1.404 . S
C3004 C3007 1.539 . S
C3005 C3001 1.408 . S
C3005 C3004 1.404 . S
C3005 H3017 0.930 . S
C3006 C3002 1.532 . S
C3006 H3018 0.959 . S
C3006 H3019 0.960 1_554 S
C3006 H3020 0.950 1_554 S
C3007 C3004 1.539 . S
C3007 H3021 0.958 . S
C3007 H3022 0.961 . S
C3007 H3023 0.960 . S
H3008 C2992 0.931 . S
H3009 C2997 0.929 . S
H3010 C2998 0.960 . S
H3011 C2998 0.962 . S
H3012 C2998 0.960 . S
H3013 C2999 0.961 . S
H3014 C2999 0.961 . S
H3015 C2999 0.961 . S
H3016 C3000 0.931 . S
H3017 C3005 0.930 . S
H3018 C3006 0.959 . S
H3019 C3006 0.960 1_556 S
H3020 C3006 0.950 1_556 S
H3021 C3007 0.958 . S
H3022 C3007 0.961 . S
H3023 C3007 0.960 . S
C3024 C3025 1.391 . S
C3024 C3026 1.394 . S
C3024 H3040 0.931 . S
C3025 C3024 1.391 . S
C3025 C3029 1.376 . S
C3026 C3024 1.394 . S
C3026 C3027 1.369 . S
C3026 C3030 1.531 . S
C3027 C3026 1.369 . S
C3027 C3028 1.410 . S
C3027 C3035 1.503 . S
C3028 C3027 1.410 . S
C3028 C3029 1.392 . S
C3028 C3031 1.511 . S
C3029 C3025 1.376 . S
C3029 C3028 1.392 . S
C3029 H3041 0.929 . S
C3030 C3026 1.531 . S
C3030 H3042 0.960 . S
C3030 H3043 0.962 . S
C3030 H3044 0.960 . S
C3031 C3028 1.511 . S
C3031 H3045 0.961 . S
C3031 H3046 0.961 . S
C3031 H3047 0.961 . S
C3032 C3033 1.370 . S
C3032 C3034 1.363 . S
C3032 H3048 0.931 . S
C3033 C3032 1.370 . S
C3033 C3037 1.408 . S
C3034 C3032 1.363 . S
C3034 C3035 1.370 . S
C3034 C3038 1.524 . S
C3035 C3027 1.503 . S
C3035 C3034 1.370 . S
C3035 C3036 1.403 . S
C3036 C3035 1.403 . S
C3036 C3037 1.404 . S
C3036 C3039 1.539 . S
C3037 C3033 1.408 . S
C3037 C3036 1.404 . S
C3037 H3049 0.930 . S
C3038 C3034 1.524 . S
C3038 H3050 0.956 . S
C3038 H3051 0.961 . S
C3038 H3052 0.961 . S
C3039 C3036 1.539 . S
C3039 H3053 0.958 . S
C3039 H3054 0.961 . S
C3039 H3055 0.960 . S
H3040 C3024 0.931 . S
H3041 C3029 0.929 . S
H3042 C3030 0.960 . S
H3043 C3030 0.962 . S
H3044 C3030 0.960 . S
H3045 C3031 0.961 . S
H3046 C3031 0.961 . S
H3047 C3031 0.961 . S
H3048 C3032 0.931 . S
H3049 C3037 0.930 . S
H3050 C3038 0.956 . S
H3051 C3038 0.961 . S
H3052 C3038 0.961 . S
H3053 C3039 0.958 . S
H3054 C3039 0.961 . S
H3055 C3039 0.960 . S
C3056 C3057 1.391 . S
C3056 C3058 1.394 . S
C3056 H3072 0.931 . S
C3057 C3056 1.391 . S
C3057 C3061 1.376 . S
C3058 C3056 1.394 . S
C3058 C3059 1.369 . S
C3058 C3062 1.531 . S
C3059 C3058 1.369 . S
C3059 C3060 1.410 . S
C3059 C3067 1.503 . S
C3060 C3059 1.410 . S
C3060 C3061 1.392 . S
C3060 C3063 1.511 . S
C3061 C3057 1.376 . S
C3061 C3060 1.392 . S
C3061 H3073 0.929 . S
C3062 C3058 1.531 . S
C3062 H3074 0.960 . S
C3062 H3075 0.962 . S
C3062 H3076 0.960 . S
C3063 C3060 1.511 . S
C3063 H3077 0.961 . S
C3063 H3078 0.961 . S
C3063 H3079 0.961 . S
C3064 C3065 1.370 . S
C3064 C3066 1.363 . S
C3064 H3080 0.931 . S
C3065 C3064 1.370 . S
C3065 C3069 1.408 . S
C3066 C3064 1.363 . S
C3066 C3067 1.370 . S
C3066 C3070 1.524 . S
C3067 C3059 1.503 . S
C3067 C3066 1.370 . S
C3067 C3068 1.403 . S
C3068 C3067 1.403 . S
C3068 C3069 1.404 . S
C3068 C3071 1.539 . S
C3069 C3065 1.408 . S
C3069 C3068 1.404 . S
C3069 H3081 0.930 . S
C3070 C3066 1.524 . S
C3070 H3082 0.956 . S
C3070 H3083 0.961 . S
C3070 H3084 0.961 . S
C3071 C3068 1.539 . S
C3071 H3085 0.958 . S
C3071 H3086 0.961 . S
C3071 H3087 0.960 . S
H3072 C3056 0.931 . S
H3073 C3061 0.929 . S
H3074 C3062 0.960 . S
H3075 C3062 0.962 . S
H3076 C3062 0.960 . S
H3077 C3063 0.961 . S
H3078 C3063 0.961 . S
H3079 C3063 0.961 . S
H3080 C3064 0.931 . S
H3081 C3069 0.930 . S
H3082 C3070 0.956 . S
H3083 C3070 0.961 . S
H3084 C3070 0.961 . S
H3085 C3071 0.958 . S
H3086 C3071 0.961 . S
H3087 C3071 0.960 . S
C3088 C3089 1.391 . S
C3088 C3090 1.394 . S
C3088 H3104 0.909 1_565 S
C3089 C3088 1.391 . S
C3089 C3093 1.376 . S
C3090 C3088 1.394 . S
C3090 C3091 1.369 . S
C3090 C3094 1.531 . S
C3091 C3090 1.369 . S
C3091 C3092 1.410 . S
C3091 C3099 1.503 . S
C3092 C3091 1.410 . S
C3092 C3093 1.392 . S
C3092 C3095 1.511 . S
C3093 C3089 1.376 . S
C3093 C3092 1.392 . S
C3093 H3105 0.929 . S
C3094 C3090 1.531 . S
C3094 H3106 0.960 . S
C3094 H3107 0.962 . S
C3094 H3108 0.960 . S
C3095 C3092 1.511 . S
C3095 H3109 0.961 . S
C3095 H3110 0.961 . S
C3095 H3111 0.961 . S
C3096 C3097 1.370 . S
C3096 C3098 1.363 . S
C3096 H3112 0.931 . S
C3097 C3096 1.370 . S
C3097 C3101 1.408 . S
C3098 C3096 1.363 . S
C3098 C3099 1.370 . S
C3098 C3102 1.524 . S
C3099 C3091 1.503 . S
C3099 C3098 1.370 . S
C3099 C3100 1.403 . S
C3100 C3099 1.403 . S
C3100 C3101 1.404 . S
C3100 C3103 1.539 . S
C3101 C3097 1.408 . S
C3101 C3100 1.404 . S
C3101 H3113 0.930 . S
C3102 C3098 1.524 . S
C3102 H3114 0.956 . S
C3102 H3115 0.961 . S
C3102 H3116 0.961 . S
C3103 C3100 1.539 . S
C3103 H3117 0.958 . S
C3103 H3118 0.961 . S
C3103 H3119 0.960 . S
H3104 C3088 0.909 1_545 S
H3105 C3093 0.929 . S
H3106 C3094 0.960 . S
H3107 C3094 0.962 . S
H3108 C3094 0.960 . S
H3109 C3095 0.961 . S
H3110 C3095 0.961 . S
H3111 C3095 0.961 . S
H3112 C3096 0.931 . S
H3113 C3101 0.930 . S
H3114 C3102 0.956 . S
H3115 C3102 0.961 . S
H3116 C3102 0.961 . S
H3117 C3103 0.958 . S
H3118 C3103 0.961 . S
H3119 C3103 0.960 . S
C3120 C3121 1.391 . S
C3120 C3122 1.394 . S
C3120 H3136 0.931 . S
C3121 C3120 1.391 . S
C3121 C3125 1.376 . S
C3122 C3120 1.394 . S
C3122 C3123 1.369 . S
C3122 C3126 1.531 . S
C3123 C3122 1.369 . S
C3123 C3124 1.410 . S
C3123 C3131 1.503 . S
C3124 C3123 1.410 . S
C3124 C3125 1.392 . S
C3124 C3127 1.511 . S
C3125 C3121 1.376 . S
C3125 C3124 1.392 . S
C3125 H3137 0.929 . S
C3126 C3122 1.531 . S
C3126 H3138 0.960 . S
C3126 H3139 0.962 . S
C3126 H3140 0.960 . S
C3127 C3124 1.511 . S
C3127 H3141 0.961 . S
C3127 H3142 0.961 . S
C3127 H3143 0.961 . S
C3128 C3129 1.370 . S
C3128 C3130 1.363 . S
C3128 H3144 0.931 . S
C3129 C3128 1.370 . S
C3129 C3133 1.408 . S
C3130 C3128 1.363 . S
C3130 C3131 1.370 . S
C3130 C3134 1.524 . S
C3131 C3123 1.503 . S
C3131 C3130 1.370 . S
C3131 C3132 1.403 . S
C3132 C3131 1.403 . S
C3132 C3133 1.404 . S
C3132 C3135 1.539 . S
C3133 C3129 1.408 . S
C3133 C3132 1.404 . S
C3133 H3145 0.930 . S
C3134 C3130 1.524 . S
C3134 H3146 0.956 . S
C3134 H3147 0.961 . S
C3134 H3148 0.961 . S
C3135 C3132 1.539 . S
C3135 H3149 0.958 . S
C3135 H3150 0.961 . S
C3135 H3151 0.960 . S
H3136 C3120 0.931 . S
H3137 C3125 0.929 . S
H3138 C3126 0.960 . S
H3139 C3126 0.962 . S
H3140 C3126 0.960 . S
H3141 C3127 0.961 . S
H3142 C3127 0.961 . S
H3143 C3127 0.961 . S
H3144 C3128 0.931 . S
H3145 C3133 0.930 . S
H3146 C3134 0.956 . S
H3147 C3134 0.961 . S
H3148 C3134 0.961 . S
H3149 C3135 0.958 . S
H3150 C3135 0.961 . S
H3151 C3135 0.960 . S
C3152 C3153 1.391 . S
C3152 C3154 1.394 . S
C3152 H3168 0.931 . S
C3153 C3152 1.391 . S
C3153 C3157 1.376 . S
C3154 C3152 1.394 . S
C3154 C3155 1.369 . S
C3154 C3158 1.531 . S
C3155 C3154 1.369 . S
C3155 C3156 1.410 . S
C3155 C3163 1.503 . S
C3156 C3155 1.410 . S
C3156 C3157 1.392 . S
C3156 C3159 1.511 . S
C3157 C3153 1.376 . S
C3157 C3156 1.392 . S
C3157 H3169 0.929 . S
C3158 C3154 1.531 . S
C3158 H3170 0.960 . S
C3158 H3171 0.962 . S
C3158 H3172 0.960 . S
C3159 C3156 1.511 . S
C3159 H3173 0.961 . S
C3159 H3174 0.961 . S
C3159 H3175 0.961 . S
C3160 C3161 1.370 . S
C3160 C3162 1.363 . S
C3160 H3176 0.931 . S
C3161 C3160 1.370 . S
C3161 C3165 1.408 . S
C3162 C3160 1.363 . S
C3162 C3163 1.370 . S
C3162 C3166 1.524 . S
C3163 C3155 1.503 . S
C3163 C3162 1.370 . S
C3163 C3164 1.403 . S
C3164 C3163 1.403 . S
C3164 C3165 1.404 . S
C3164 C3167 1.539 . S
C3165 C3161 1.408 . S
C3165 C3164 1.404 . S
C3165 H3177 0.930 . S
C3166 C3162 1.524 . S
C3166 H3178 0.956 . S
C3166 H3179 0.961 . S
C3166 H3180 0.961 . S
C3167 C3164 1.539 . S
C3167 H3181 0.958 . S
C3167 H3182 0.961 . S
C3167 H3183 0.960 . S
H3168 C3152 0.931 . S
H3169 C3157 0.929 . S
H3170 C3158 0.960 . S
H3171 C3158 0.962 . S
H3172 C3158 0.960 . S
H3173 C3159 0.961 . S
H3174 C3159 0.961 . S
H3175 C3159 0.961 . S
H3176 C3160 0.931 . S
H3177 C3165 0.930 . S
H3178 C3166 0.956 . S
H3179 C3166 0.961 . S
H3180 C3166 0.961 . S
H3181 C3167 0.958 . S
H3182 C3167 0.961 . S
H3183 C3167 0.960 . S
C3184 C3185 1.391 . S
C3184 C3186 1.394 . S
C3184 H3200 0.931 . S
C3185 C3184 1.391 . S
C3185 C3189 1.376 . S
C3186 C3184 1.394 . S
C3186 C3187 1.369 . S
C3186 C3190 1.531 . S
C3187 C3186 1.369 . S
C3187 C3188 1.410 . S
C3187 C3195 1.503 . S
C3188 C3187 1.410 . S
C3188 C3189 1.392 . S
C3188 C3191 1.511 . S
C3189 C3185 1.376 . S
C3189 C3188 1.392 . S
C3189 H3201 0.929 . S
C3190 C3186 1.531 . S
C3190 H3202 0.960 . S
C3190 H3203 0.962 . S
C3190 H3204 0.960 . S
C3191 C3188 1.511 . S
C3191 H3205 0.961 . S
C3191 H3206 0.961 . S
C3191 H3207 0.961 . S
C3192 C3193 1.370 . S
C3192 C3194 1.363 . S
C3192 H3208 0.931 . S
C3193 C3192 1.370 . S
C3193 C3197 1.408 . S
C3194 C3192 1.363 . S
C3194 C3195 1.370 . S
C3194 C3198 1.524 . S
C3195 C3187 1.503 . S
C3195 C3194 1.370 . S
C3195 C3196 1.403 . S
C3196 C3195 1.403 . S
C3196 C3197 1.404 . S
C3196 C3199 1.539 . S
C3197 C3193 1.408 . S
C3197 C3196 1.404 . S
C3197 H3209 0.930 . S
C3198 C3194 1.524 . S
C3198 H3210 0.956 . S
C3198 H3211 0.961 . S
C3198 H3212 0.961 . S
C3199 C3196 1.539 . S
C3199 H3213 0.958 . S
C3199 H3214 0.961 . S
C3199 H3215 0.960 . S
H3200 C3184 0.931 . S
H3201 C3189 0.929 . S
H3202 C3190 0.960 . S
H3203 C3190 0.962 . S
H3204 C3190 0.960 . S
H3205 C3191 0.961 . S
H3206 C3191 0.961 . S
H3207 C3191 0.961 . S
H3208 C3192 0.931 . S
H3209 C3197 0.930 . S
H3210 C3198 0.956 . S
H3211 C3198 0.961 . S
H3212 C3198 0.961 . S
H3213 C3199 0.958 . S
H3214 C3199 0.961 . S
H3215 C3199 0.960 . S
C3216 C3217 1.391 . S
C3216 C3218 1.394 . S
C3216 H3232 0.931 . S
C3217 C3216 1.391 . S
C3217 C3221 1.376 . S
C3218 C3216 1.394 . S
C3218 C3219 1.369 . S
C3218 C3222 1.531 . S
C3219 C3218 1.369 . S
C3219 C3220 1.410 . S
C3219 C3227 1.503 . S
C3220 C3219 1.410 . S
C3220 C3221 1.392 . S
C3220 C3223 1.511 . S
C3221 C3217 1.376 . S
C3221 C3220 1.392 . S
C3221 H3233 0.929 . S
C3222 C3218 1.531 . S
C3222 H3234 0.960 . S
C3222 H3235 0.962 . S
C3222 H3236 0.960 . S
C3223 C3220 1.511 . S
C3223 H3237 0.961 . S
C3223 H3238 0.961 . S
C3223 H3239 0.961 . S
C3224 C3225 1.370 . S
C3224 C3226 1.363 . S
C3224 H3240 0.931 . S
C3225 C3224 1.370 . S
C3225 C3229 1.408 . S
C3226 C3224 1.363 . S
C3226 C3227 1.370 . S
C3226 C3230 1.524 . S
C3227 C3219 1.503 . S
C3227 C3226 1.370 . S
C3227 C3228 1.403 . S
C3228 C3227 1.403 . S
C3228 C3229 1.404 . S
C3228 C3231 1.539 . S
C3229 C3225 1.408 . S
C3229 C3228 1.404 . S
C3229 H3241 0.930 . S
C3230 C3226 1.524 . S
C3230 H3242 0.956 . S
C3230 H3243 0.961 . S
C3230 H3244 0.961 . S
C3231 C3228 1.539 . S
C3231 H3245 0.958 . S
C3231 H3246 0.961 . S
C3231 H3247 0.960 . S
H3232 C3216 0.931 . S
H3233 C3221 0.929 . S
H3234 C3222 0.960 . S
H3235 C3222 0.962 . S
H3236 C3222 0.960 . S
H3237 C3223 0.961 . S
H3238 C3223 0.961 . S
H3239 C3223 0.961 . S
H3240 C3224 0.931 . S
H3241 C3229 0.930 . S
H3242 C3230 0.956 . S
H3243 C3230 0.961 . S
H3244 C3230 0.961 . S
H3245 C3231 0.958 . S
H3246 C3231 0.961 . S
H3247 C3231 0.960 . S
C3248 C3249 1.391 . S
C3248 C3250 1.394 . S
C3248 H3264 0.931 . S
C3249 C3248 1.391 . S
C3249 C3253 1.376 . S
C3250 C3248 1.394 . S
C3250 C3251 1.369 . S
C3250 C3254 1.531 . S
C3251 C3250 1.369 . S
C3251 C3252 1.410 . S
C3251 C3259 1.503 . S
C3252 C3251 1.410 . S
C3252 C3253 1.392 . S
C3252 C3255 1.511 . S
C3253 C3249 1.376 . S
C3253 C3252 1.392 . S
C3253 H3265 0.929 . S
C3254 C3250 1.531 . S
C3254 H3266 0.960 . S
C3254 H3267 0.962 . S
C3254 H3268 0.960 . S
C3255 C3252 1.511 . S
C3255 H3269 0.961 . S
C3255 H3270 0.961 . S
C3255 H3271 0.961 . S
C3256 C3257 1.370 . S
C3256 C3258 1.363 . S
C3256 H3272 0.931 . S
C3257 C3256 1.370 . S
C3257 C3261 1.408 . S
C3258 C3256 1.363 . S
C3258 C3259 1.370 . S
C3258 C3262 1.524 . S
C3259 C3251 1.503 . S
C3259 C3258 1.370 . S
C3259 C3260 1.403 . S
C3260 C3259 1.403 . S
C3260 C3261 1.404 . S
C3260 C3263 1.539 . S
C3261 C3257 1.408 . S
C3261 C3260 1.404 . S
C3261 H3273 0.930 . S
C3262 C3258 1.524 . S
C3262 H3274 0.956 . S
C3262 H3275 0.961 . S
C3262 H3276 0.961 . S
C3263 C3260 1.539 . S
C3263 H3277 0.958 . S
C3263 H3278 0.961 . S
C3263 H3279 0.960 . S
H3264 C3248 0.931 . S
H3265 C3253 0.929 . S
H3266 C3254 0.960 . S
H3267 C3254 0.962 . S
H3268 C3254 0.960 . S
H3269 C3255 0.961 . S
H3270 C3255 0.961 . S
H3271 C3255 0.961 . S
H3272 C3256 0.931 . S
H3273 C3261 0.930 . S
H3274 C3262 0.956 . S
H3275 C3262 0.961 . S
H3276 C3262 0.961 . S
H3277 C3263 0.958 . S
H3278 C3263 0.961 . S
H3279 C3263 0.960 . S
C3280 C3281 1.391 . S
C3280 C3282 1.394 . S
C3280 H3296 0.931 1_455 S
C3281 C3280 1.391 . S
C3281 C3285 1.376 . S
C3282 C3280 1.394 . S
C3282 C3283 1.369 . S
C3282 C3286 1.527 1_456 S
C3283 C3282 1.369 . S
C3283 C3284 1.410 . S
C3283 C3291 1.503 1_556 S
C3284 C3283 1.410 . S
C3284 C3285 1.392 . S
C3284 C3287 1.511 . S
C3285 C3281 1.376 . S
C3285 C3284 1.392 . S
C3285 H3297 0.929 . S
C3286 C3282 1.527 1_654 S
C3286 H3298 0.968 1_655 S
C3286 H3299 0.947 1_554 S
C3286 H3300 0.970 . S
C3287 C3284 1.511 . S
C3287 H3301 0.961 . S
C3287 H3302 0.961 . S
C3287 H3303 0.961 1_556 S
C3288 C3289 1.370 1_556 S
C3288 C3290 1.363 . S
C3288 H3304 0.931 . S
C3289 C3288 1.370 1_554 S
C3289 C3293 1.408 . S
C3290 C3288 1.363 . S
C3290 C3291 1.370 1_556 S
C3290 C3294 1.524 . S
C3291 C3283 1.503 1_554 S
C3291 C3290 1.370 1_554 S
C3291 C3292 1.403 . S
C3292 C3291 1.403 . S
C3292 C3293 1.404 . S
C3292 C3295 1.539 . S
C3293 C3289 1.408 . S
C3293 C3292 1.404 . S
C3293 H3305 0.930 . S
C3294 C3290 1.524 . S
C3294 H3306 0.956 . S
C3294 H3307 0.961 . S
C3294 H3308 0.961 . S
C3295 C3292 1.539 . S
C3295 H3309 0.958 . S
C3295 H3310 0.961 . S
C3295 H3311 0.960 . S
H3296 C3280 0.931 1_655 S
H3297 C3285 0.929 . S
H3298 C3286 0.968 1_455 S
H3299 C3286 0.947 1_556 S
H3300 C3286 0.970 . S
H3301 C3287 0.961 . S
H3302 C3287 0.961 . S
H3303 C3287 0.961 1_554 S
H3304 C3288 0.931 . S
H3305 C3293 0.930 . S
H3306 C3294 0.956 . S
H3307 C3294 0.961 . S
H3308 C3294 0.961 . S
H3309 C3295 0.958 . S
H3310 C3295 0.961 . S
H3311 C3295 0.960 . S
C3312 C3313 1.391 . S
C3312 C3314 1.394 1_455 S
C3312 H3328 0.931 . S
C3313 C3312 1.391 . S
C3313 C3317 1.376 . S
C3314 C3312 1.394 1_655 S
C3314 C3315 1.369 . S
C3314 C3318 1.531 . S
C3315 C3314 1.369 . S
C3315 C3316 1.410 1_655 S
C3315 C3323 1.503 . S
C3316 C3315 1.410 1_455 S
C3316 C3317 1.392 . S
C3316 C3319 1.511 . S
C3317 C3313 1.376 . S
C3317 C3316 1.392 . S
C3317 H3329 0.929 . S
C3318 C3314 1.531 . S
C3318 H3330 0.960 . S
C3318 H3331 0.962 . S
C3318 H3332 0.960 . S
C3319 C3316 1.511 . S
C3319 H3333 0.961 . S
C3319 H3334 0.961 . S
C3319 H3335 0.961 . S
C3320 C3321 1.370 . S
C3320 C3322 1.363 . S
C3320 H3336 0.931 . S
C3321 C3320 1.370 . S
C3321 C3325 1.408 . S
C3322 C3320 1.363 . S
C3322 C3323 1.370 . S
C3322 C3326 1.522 . S
C3323 C3315 1.503 . S
C3323 C3322 1.370 . S
C3323 C3324 1.403 . S
C3324 C3323 1.403 . S
C3324 C3325 1.404 . S
C3324 C3327 1.539 . S
C3325 C3321 1.408 . S
C3325 C3324 1.404 . S
C3325 H3337 0.930 . S
C3326 C3322 1.522 . S
C3326 H3338 0.958 1_655 S
C3326 H3339 0.964 1_655 S
C3326 H3340 0.960 . S
C3327 C3324 1.539 . S
C3327 H3341 0.958 . S
C3327 H3342 0.961 . S
C3327 H3343 0.960 . S
H3328 C3312 0.931 . S
H3329 C3317 0.929 . S
H3330 C3318 0.960 . S
H3331 C3318 0.962 . S
H3332 C3318 0.960 . S
H3333 C3319 0.961 . S
H3334 C3319 0.961 . S
H3335 C3319 0.961 . S
H3336 C3320 0.931 . S
H3337 C3325 0.930 . S
H3338 C3326 0.958 1_455 S
H3339 C3326 0.964 1_455 S
H3340 C3326 0.960 . S
H3341 C3327 0.958 . S
H3342 C3327 0.961 . S
H3343 C3327 0.960 . S
C3344 C3345 1.391 . S
C3344 C3346 1.394 . S
C3344 H3360 0.931 . S
C3345 C3344 1.391 . S
C3345 C3349 1.376 . S
C3346 C3344 1.394 . S
C3346 C3347 1.369 . S
C3346 C3350 1.531 . S
C3347 C3346 1.369 . S
C3347 C3348 1.410 . S
C3347 C3355 1.503 . S
C3348 C3347 1.410 . S
C3348 C3349 1.392 . S
C3348 C3351 1.511 . S
C3349 C3345 1.376 . S
C3349 C3348 1.392 . S
C3349 H3361 0.929 . S
C3350 C3346 1.531 . S
C3350 H3362 0.960 . S
C3350 H3363 0.962 . S
C3350 H3364 0.960 . S
C3351 C3348 1.511 . S
C3351 H3365 0.961 . S
C3351 H3366 0.961 . S
C3351 H3367 0.961 . S
C3352 C3353 1.370 . S
C3352 C3354 1.363 . S
C3352 H3368 0.931 . S
C3353 C3352 1.370 . S
C3353 C3357 1.408 . S
C3354 C3352 1.363 . S
C3354 C3355 1.370 . S
C3354 C3358 1.524 . S
C3355 C3347 1.503 . S
C3355 C3354 1.370 . S
C3355 C3356 1.403 . S
C3356 C3355 1.403 . S
C3356 C3357 1.404 . S
C3356 C3359 1.539 . S
C3357 C3353 1.408 . S
C3357 C3356 1.404 . S
C3357 H3369 0.930 . S
C3358 C3354 1.524 . S
C3358 H3370 0.956 . S
C3358 H3371 0.961 . S
C3358 H3372 0.961 . S
C3359 C3356 1.539 . S
C3359 H3373 0.958 . S
C3359 H3374 0.961 . S
C3359 H3375 0.960 . S
H3360 C3344 0.931 . S
H3361 C3349 0.929 . S
H3362 C3350 0.960 . S
H3363 C3350 0.962 . S
H3364 C3350 0.960 . S
H3365 C3351 0.961 . S
H3366 C3351 0.961 . S
H3367 C3351 0.961 . S
H3368 C3352 0.931 . S
H3369 C3357 0.930 . S
H3370 C3358 0.956 . S
H3371 C3358 0.961 . S
H3372 C3358 0.961 . S
H3373 C3359 0.958 . S
H3374 C3359 0.961 . S
H3375 C3359 0.960 . S
C3376 C3377 1.391 . S
C3376 C3378 1.394 . S
C3376 H3392 0.931 . S
C3377 C3376 1.391 . S
C3377 C3381 1.376 . S
C3378 C3376 1.394 . S
C3378 C3379 1.369 . S
C3378 C3382 1.531 . S
C3379 C3378 1.369 . S
C3379 C3380 1.410 . S
C3379 C3387 1.503 . S
C3380 C3379 1.410 . S
C3380 C3381 1.392 . S
C3380 C3383 1.511 . S
C3381 C3377 1.376 . S
C3381 C3380 1.392 . S
C3381 H3393 0.929 . S
C3382 C3378 1.531 . S
C3382 H3394 0.960 . S
C3382 H3395 0.962 . S
C3382 H3396 0.960 . S
C3383 C3380 1.511 . S
C3383 H3397 0.961 . S
C3383 H3398 0.961 . S
C3383 H3399 0.961 . S
C3384 C3385 1.370 . S
C3384 C3386 1.363 . S
C3384 H3400 0.931 . S
C3385 C3384 1.370 . S
C3385 C3389 1.408 . S
C3386 C3384 1.363 . S
C3386 C3387 1.370 1_655 S
C3386 C3390 1.524 . S
C3387 C3379 1.503 . S
C3387 C3386 1.370 1_455 S
C3387 C3388 1.403 1_455 S
C3388 C3387 1.403 1_655 S
C3388 C3389 1.404 . S
C3388 C3391 1.539 1_655 S
C3389 C3385 1.408 . S
C3389 C3388 1.404 . S
C3389 H3401 0.930 . S
C3390 C3386 1.524 . S
C3390 H3402 0.956 . S
C3390 H3403 0.961 1_655 S
C3390 H3404 0.961 . S
C3391 C3388 1.539 1_455 S
C3391 H3405 0.958 . S
C3391 H3406 0.961 . S
C3391 H3407 0.960 . S
H3392 C3376 0.931 . S
H3393 C3381 0.929 . S
H3394 C3382 0.960 . S
H3395 C3382 0.962 . S
H3396 C3382 0.960 . S
H3397 C3383 0.961 . S
H3398 C3383 0.961 . S
H3399 C3383 0.961 . S
H3400 C3384 0.931 . S
H3401 C3389 0.930 . S
H3402 C3390 0.956 . S
H3403 C3390 0.961 1_455 S
H3404 C3390 0.961 . S
H3405 C3391 0.958 . S
H3406 C3391 0.961 . S
H3407 C3391 0.960 . S
C3408 C3409 1.391 1_455 S
C3408 C3410 1.394 . S
C3408 H3424 0.931 . S
C3409 C3408 1.391 1_655 S
C3409 C3413 1.376 . S
C3410 C3408 1.394 . S
C3410 C3411 1.369 . S
C3410 C3414 1.531 . S
C3411 C3410 1.369 . S
C3411 C3412 1.410 . S
C3411 C3419 1.503 . S
C3412 C3411 1.410 . S
C3412 C3413 1.392 1_455 S
C3412 C3415 1.511 . S
C3413 C3409 1.376 . S
C3413 C3412 1.392 1_655 S
C3413 H3425 0.929 . S
C3414 C3410 1.531 . S
C3414 H3426 0.960 . S
C3414 H3427 0.962 . S
C3414 H3428 0.960 . S
C3415 C3412 1.511 . S
C3415 H3429 0.961 1_455 S
C3415 H3430 0.961 . S
C3415 H3431 0.961 . S
C3416 C3417 1.370 . S
C3416 C3418 1.363 . S
C3416 H3432 0.931 . S
C3417 C3416 1.370 . S
C3417 C3421 1.408 . S
C3418 C3416 1.363 . S
C3418 C3419 1.370 . S
C3418 C3422 1.524 1_455 S
C3419 C3411 1.503 . S
C3419 C3418 1.370 . S
C3419 C3420 1.403 . S
C3420 C3419 1.403 . S
C3420 C3421 1.404 . S
C3420 C3423 1.539 . S
C3421 C3417 1.408 . S
C3421 C3420 1.404 . S
C3421 H3433 0.930 . S
C3422 C3418 1.524 1_655 S
C3422 H3434 0.956 . S
C3422 H3435 0.961 . S
C3422 H3436 0.961 . S
C3423 C3420 1.539 . S
C3423 H3437 0.958 . S
C3423 H3438 0.961 . S
C3423 H3439 0.960 . S
H3424 C3408 0.931 . S
H3425 C3413 0.929 . S
H3426 C3414 0.960 . S
H3427 C3414 0.962 . S
H3428 C3414 0.960 . S
H3429 C3415 0.961 1_655 S
H3430 C3415 0.961 . S
H3431 C3415 0.961 . S
H3432 C3416 0.931 . S
H3433 C3421 0.930 . S
H3434 C3422 0.956 . S
H3435 C3422 0.961 . S
H3436 C3422 0.961 . S
H3437 C3423 0.958 . S
H3438 C3423 0.961 . S
H3439 C3423 0.960 . S
C3440 C3441 1.391 . S
C3440 C3442 1.394 . S
C3440 H3456 0.931 . S
C3441 C3440 1.391 . S
C3441 C3445 1.376 . S
C3442 C3440 1.394 . S
C3442 C3443 1.369 . S
C3442 C3446 1.531 . S
C3443 C3442 1.369 . S
C3443 C3444 1.410 . S
C3443 C3451 1.503 . S
C3444 C3443 1.410 . S
C3444 C3445 1.392 . S
C3444 C3447 1.511 . S
C3445 C3441 1.376 . S
C3445 C3444 1.392 . S
C3445 H3457 0.929 . S
C3446 C3442 1.531 . S
C3446 H3458 0.960 . S
C3446 H3459 0.962 . S
C3446 H3460 0.960 . S
C3447 C3444 1.511 . S
C3447 H3461 0.961 . S
C3447 H3462 0.961 . S
C3447 H3463 0.961 . S
C3448 C3449 1.370 . S
C3448 C3450 1.363 . S
C3448 H3464 0.931 . S
C3449 C3448 1.370 . S
C3449 C3453 1.408 . S
C3450 C3448 1.363 . S
C3450 C3451 1.370 . S
C3450 C3454 1.524 . S
C3451 C3443 1.503 . S
C3451 C3450 1.370 . S
C3451 C3452 1.403 . S
C3452 C3451 1.403 . S
C3452 C3453 1.404 . S
C3452 C3455 1.539 . S
C3453 C3449 1.408 . S
C3453 C3452 1.404 . S
C3453 H3465 0.930 . S
C3454 C3450 1.524 . S
C3454 H3466 0.956 . S
C3454 H3467 0.961 . S
C3454 H3468 0.961 . S
C3455 C3452 1.539 . S
C3455 H3469 0.958 . S
C3455 H3470 0.961 . S
C3455 H3471 0.960 . S
H3456 C3440 0.931 . S
H3457 C3445 0.929 . S
H3458 C3446 0.960 . S
H3459 C3446 0.962 . S
H3460 C3446 0.960 . S
H3461 C3447 0.961 . S
H3462 C3447 0.961 . S
H3463 C3447 0.961 . S
H3464 C3448 0.931 . S
H3465 C3453 0.930 . S
H3466 C3454 0.956 . S
H3467 C3454 0.961 . S
H3468 C3454 0.961 . S
H3469 C3455 0.958 . S
H3470 C3455 0.961 . S
H3471 C3455 0.960 . S
C3472 C3473 1.391 . S
C3472 C3474 1.394 . S
C3472 H3488 0.931 . S
C3473 C3472 1.391 . S
C3473 C3477 1.376 . S
C3474 C3472 1.394 . S
C3474 C3475 1.369 . S
C3474 C3478 1.531 . S
C3475 C3474 1.369 . S
C3475 C3476 1.410 . S
C3475 C3483 1.503 . S
C3476 C3475 1.410 . S
C3476 C3477 1.392 . S
C3476 C3479 1.511 . S
C3477 C3473 1.376 . S
C3477 C3476 1.392 . S
C3477 H3489 0.929 . S
C3478 C3474 1.531 . S
C3478 H3490 0.960 . S
C3478 H3491 0.962 . S
C3478 H3492 0.960 . S
C3479 C3476 1.511 . S
C3479 H3493 0.961 . S
C3479 H3494 0.961 . S
C3479 H3495 0.961 . S
C3480 C3481 1.370 . S
C3480 C3482 1.363 . S
C3480 H3496 0.931 . S
C3481 C3480 1.370 . S
C3481 C3485 1.408 . S
C3482 C3480 1.363 . S
C3482 C3483 1.370 . S
C3482 C3486 1.524 . S
C3483 C3475 1.503 . S
C3483 C3482 1.370 . S
C3483 C3484 1.403 . S
C3484 C3483 1.403 . S
C3484 C3485 1.404 . S
C3484 C3487 1.539 . S
C3485 C3481 1.408 . S
C3485 C3484 1.404 . S
C3485 H3497 0.930 . S
C3486 C3482 1.524 . S
C3486 H3498 0.956 . S
C3486 H3499 0.961 . S
C3486 H3500 0.961 . S
C3487 C3484 1.539 . S
C3487 H3501 0.958 . S
C3487 H3502 0.961 . S
C3487 H3503 0.960 . S
H3488 C3472 0.931 . S
H3489 C3477 0.929 . S
H3490 C3478 0.960 . S
H3491 C3478 0.962 . S
H3492 C3478 0.960 . S
H3493 C3479 0.961 . S
H3494 C3479 0.961 . S
H3495 C3479 0.961 . S
H3496 C3480 0.931 . S
H3497 C3485 0.930 . S
H3498 C3486 0.956 . S
H3499 C3486 0.961 . S
H3500 C3486 0.961 . S
H3501 C3487 0.958 . S
H3502 C3487 0.961 . S
H3503 C3487 0.960 . S
C3504 C3505 1.391 . S
C3504 C3506 1.394 . S
C3504 H3520 0.931 . S
C3505 C3504 1.391 . S
C3505 C3509 1.376 . S
C3506 C3504 1.394 . S
C3506 C3507 1.369 . S
C3506 C3510 1.531 . S
C3507 C3506 1.369 . S
C3507 C3508 1.410 . S
C3507 C3515 1.503 . S
C3508 C3507 1.410 . S
C3508 C3509 1.392 . S
C3508 C3511 1.511 . S
C3509 C3505 1.376 . S
C3509 C3508 1.392 . S
C3509 H3521 0.933 1_556 S
C3510 C3506 1.531 . S
C3510 H3522 0.960 . S
C3510 H3523 0.962 . S
C3510 H3524 0.960 . S
C3511 C3508 1.511 . S
C3511 H3525 0.961 . S
C3511 H3526 0.961 . S
C3511 H3527 0.961 . S
C3512 C3513 1.370 . S
C3512 C3514 1.363 . S
C3512 H3528 0.931 . S
C3513 C3512 1.370 . S
C3513 C3517 1.408 . S
C3514 C3512 1.363 . S
C3514 C3515 1.370 . S
C3514 C3518 1.524 . S
C3515 C3507 1.503 . S
C3515 C3514 1.370 . S
C3515 C3516 1.403 . S
C3516 C3515 1.403 . S
C3516 C3517 1.404 . S
C3516 C3519 1.539 . S
C3517 C3513 1.408 . S
C3517 C3516 1.404 . S
C3517 H3529 0.930 . S
C3518 C3514 1.524 . S
C3518 H3530 0.956 . S
C3518 H3531 0.961 . S
C3518 H3532 0.961 . S
C3519 C3516 1.539 . S
C3519 H3533 0.958 . S
C3519 H3534 0.961 . S
C3519 H3535 0.960 . S
H3520 C3504 0.931 . S
H3521 C3509 0.933 1_554 S
H3522 C3510 0.960 . S
H3523 C3510 0.962 . S
H3524 C3510 0.960 . S
H3525 C3511 0.961 . S
H3526 C3511 0.961 . S
H3527 C3511 0.961 . S
H3528 C3512 0.931 . S
H3529 C3517 0.930 . S
H3530 C3518 0.956 . S
H3531 C3518 0.961 . S
H3532 C3518 0.961 . S
H3533 C3519 0.958 . S
H3534 C3519 0.961 . S
H3535 C3519 0.960 . S
C3536 C3537 1.391 . S
C3536 C3538 1.394 . S
C3536 H3552 0.931 . S
C3537 C3536 1.391 . S
C3537 C3541 1.376 . S
C3538 C3536 1.394 . S
C3538 C3539 1.369 . S
C3538 C3542 1.531 . S
C3539 C3538 1.369 . S
C3539 C3540 1.410 . S
C3539 C3547 1.503 . S
C3540 C3539 1.410 . S
C3540 C3541 1.392 . S
C3540 C3543 1.511 . S
C3541 C3537 1.376 . S
C3541 C3540 1.392 . S
C3541 H3553 0.929 . S
C3542 C3538 1.531 . S
C3542 H3554 0.960 . S
C3542 H3555 0.962 . S
C3542 H3556 0.960 . S
C3543 C3540 1.511 . S
C3543 H3557 0.961 . S
C3543 H3558 0.961 . S
C3543 H3559 0.961 . S
C3544 C3545 1.370 . S
C3544 C3546 1.363 . S
C3544 H3560 0.931 . S
C3545 C3544 1.370 . S
C3545 C3549 1.408 . S
C3546 C3544 1.363 . S
C3546 C3547 1.370 . S
C3546 C3550 1.524 . S
C3547 C3539 1.503 . S
C3547 C3546 1.370 . S
C3547 C3548 1.403 . S
C3548 C3547 1.403 . S
C3548 C3549 1.404 . S
C3548 C3551 1.539 . S
C3549 C3545 1.408 . S
C3549 C3548 1.404 . S
C3549 H3561 0.930 . S
C3550 C3546 1.524 . S
C3550 H3562 0.956 . S
C3550 H3563 0.961 . S
C3550 H3564 0.961 . S
C3551 C3548 1.539 . S
C3551 H3565 0.958 . S
C3551 H3566 0.961 . S
C3551 H3567 0.960 . S
H3552 C3536 0.931 . S
H3553 C3541 0.929 . S
H3554 C3542 0.960 . S
H3555 C3542 0.962 . S
H3556 C3542 0.960 . S
H3557 C3543 0.961 . S
H3558 C3543 0.961 . S
H3559 C3543 0.961 . S
H3560 C3544 0.931 . S
H3561 C3549 0.930 . S
H3562 C3550 0.956 . S
H3563 C3550 0.961 . S
H3564 C3550 0.961 . S
H3565 C3551 0.958 . S
H3566 C3551 0.961 . S
H3567 C3551 0.960 . S
C3568 C3569 1.391 . S
C3568 C3570 1.394 . S
C3568 H3584 0.931 . S
C3569 C3568 1.391 . S
C3569 C3573 1.376 . S
C3570 C3568 1.394 . S
C3570 C3571 1.369 . S
C3570 C3574 1.531 . S
C3571 C3570 1.369 . S
C3571 C3572 1.410 . S
C3571 C3579 1.503 . S
C3572 C3571 1.410 . S
C3572 C3573 1.392 . S
C3572 C3575 1.511 . S
C3573 C3569 1.376 . S
C3573 C3572 1.392 . S
C3573 H3585 0.929 . S
C3574 C3570 1.531 . S
C3574 H3586 0.960 . S
C3574 H3587 0.962 . S
C3574 H3588 0.960 . S
C3575 C3572 1.511 . S
C3575 H3589 0.961 . S
C3575 H3590 0.961 . S
C3575 H3591 0.961 . S
C3576 C3577 1.370 . S
C3576 C3578 1.363 . S
C3576 H3592 0.931 . S
C3577 C3576 1.370 . S
C3577 C3581 1.408 . S
C3578 C3576 1.363 . S
C3578 C3579 1.370 . S
C3578 C3582 1.524 . S
C3579 C3571 1.503 . S
C3579 C3578 1.370 . S
C3579 C3580 1.403 . S
C3580 C3579 1.403 . S
C3580 C3581 1.404 . S
C3580 C3583 1.539 . S
C3581 C3577 1.408 . S
C3581 C3580 1.404 . S
C3581 H3593 0.930 . S
C3582 C3578 1.524 . S
C3582 H3594 0.956 . S
C3582 H3595 0.961 . S
C3582 H3596 0.961 . S
C3583 C3580 1.539 . S
C3583 H3597 0.958 . S
C3583 H3598 0.961 . S
C3583 H3599 0.960 . S
H3584 C3568 0.931 . S
H3585 C3573 0.929 . S
H3586 C3574 0.960 . S
H3587 C3574 0.962 . S
H3588 C3574 0.960 . S
H3589 C3575 0.961 . S
H3590 C3575 0.961 . S
H3591 C3575 0.961 . S
H3592 C3576 0.931 . S
H3593 C3581 0.930 . S
H3594 C3582 0.956 . S
H3595 C3582 0.961 . S
H3596 C3582 0.961 . S
H3597 C3583 0.958 . S
H3598 C3583 0.961 . S
H3599 C3583 0.960 . S
C3600 C3601 1.391 . S
C3600 C3602 1.394 . S
C3600 H3616 0.931 . S
C3601 C3600 1.391 . S
C3601 C3605 1.376 . S
C3602 C3600 1.394 . S
C3602 C3603 1.369 . S
C3602 C3606 1.531 . S
C3603 C3602 1.369 . S
C3603 C3604 1.410 . S
C3603 C3611 1.503 . S
C3604 C3603 1.410 . S
C3604 C3605 1.392 . S
C3604 C3607 1.511 . S
C3605 C3601 1.376 . S
C3605 C3604 1.392 . S
C3605 H3617 0.929 . S
C3606 C3602 1.531 . S
C3606 H3618 0.960 . S
C3606 H3619 0.962 . S
C3606 H3620 0.960 . S
C3607 C3604 1.511 . S
C3607 H3621 0.961 . S
C3607 H3622 0.961 . S
C3607 H3623 0.961 . S
C3608 C3609 1.370 . S
C3608 C3610 1.363 . S
C3608 H3624 0.931 . S
C3609 C3608 1.370 . S
C3609 C3613 1.408 . S
C3610 C3608 1.363 . S
C3610 C3611 1.370 . S
C3610 C3614 1.524 . S
C3611 C3603 1.503 . S
C3611 C3610 1.370 . S
C3611 C3612 1.403 . S
C3612 C3611 1.403 . S
C3612 C3613 1.404 . S
C3612 C3615 1.539 . S
C3613 C3609 1.408 . S
C3613 C3612 1.404 . S
C3613 H3625 0.930 . S
C3614 C3610 1.524 . S
C3614 H3626 0.956 . S
C3614 H3627 0.961 . S
C3614 H3628 0.961 . S
C3615 C3612 1.539 . S
C3615 H3629 0.958 . S
C3615 H3630 0.961 . S
C3615 H3631 0.960 . S
H3616 C3600 0.931 . S
H3617 C3605 0.929 . S
H3618 C3606 0.960 . S
H3619 C3606 0.962 . S
H3620 C3606 0.960 . S
H3621 C3607 0.961 . S
H3622 C3607 0.961 . S
H3623 C3607 0.961 . S
H3624 C3608 0.931 . S
H3625 C3613 0.930 . S
H3626 C3614 0.956 . S
H3627 C3614 0.961 . S
H3628 C3614 0.961 . S
H3629 C3615 0.958 . S
H3630 C3615 0.961 . S
H3631 C3615 0.960 . S
C3632 C3633 1.391 . S
C3632 C3634 1.394 . S
C3632 H3648 0.931 . S
C3633 C3632 1.391 . S
C3633 C3637 1.376 . S
C3634 C3632 1.394 . S
C3634 C3635 1.369 . S
C3634 C3638 1.531 . S
C3635 C3634 1.369 . S
C3635 C3636 1.410 . S
C3635 C3643 1.503 . S
C3636 C3635 1.410 . S
C3636 C3637 1.392 . S
C3636 C3639 1.511 . S
C3637 C3633 1.376 . S
C3637 C3636 1.392 . S
C3637 H3649 0.929 . S
C3638 C3634 1.531 . S
C3638 H3650 0.960 . S
C3638 H3651 0.962 . S
C3638 H3652 0.960 . S
C3639 C3636 1.511 . S
C3639 H3653 0.961 . S
C3639 H3654 0.961 . S
C3639 H3655 0.961 . S
C3640 C3641 1.370 . S
C3640 C3642 1.363 . S
C3640 H3656 0.931 . S
C3641 C3640 1.370 . S
C3641 C3645 1.408 . S
C3642 C3640 1.363 . S
C3642 C3643 1.370 . S
C3642 C3646 1.524 . S
C3643 C3635 1.503 . S
C3643 C3642 1.370 . S
C3643 C3644 1.403 . S
C3644 C3643 1.403 . S
C3644 C3645 1.404 . S
C3644 C3647 1.539 . S
C3645 C3641 1.408 . S
C3645 C3644 1.404 . S
C3645 H3657 0.930 . S
C3646 C3642 1.524 . S
C3646 H3658 0.956 . S
C3646 H3659 0.961 . S
C3646 H3660 0.961 . S
C3647 C3644 1.539 . S
C3647 H3661 0.958 . S
C3647 H3662 0.961 . S
C3647 H3663 0.960 . S
H3648 C3632 0.931 . S
H3649 C3637 0.929 . S
H3650 C3638 0.960 . S
H3651 C3638 0.962 . S
H3652 C3638 0.960 . S
H3653 C3639 0.961 . S
H3654 C3639 0.961 . S
H3655 C3639 0.961 . S
H3656 C3640 0.931 . S
H3657 C3645 0.930 . S
H3658 C3646 0.956 . S
H3659 C3646 0.961 . S
H3660 C3646 0.961 . S
H3661 C3647 0.958 . S
H3662 C3647 0.961 . S
H3663 C3647 0.960 . S
C3664 C3665 1.391 . S
C3664 C3666 1.394 . S
C3664 H3680 0.931 . S
C3665 C3664 1.391 . S
C3665 C3669 1.376 . S
C3666 C3664 1.394 . S
C3666 C3667 1.369 . S
C3666 C3670 1.531 . S
C3667 C3666 1.369 . S
C3667 C3668 1.410 . S
C3667 C3675 1.503 . S
C3668 C3667 1.410 . S
C3668 C3669 1.392 . S
C3668 C3671 1.511 . S
C3669 C3665 1.376 . S
C3669 C3668 1.392 . S
C3669 H3681 0.929 . S
C3670 C3666 1.531 . S
C3670 H3682 0.960 . S
C3670 H3683 0.962 . S
C3670 H3684 0.960 . S
C3671 C3668 1.511 . S
C3671 H3685 0.961 . S
C3671 H3686 0.961 . S
C3671 H3687 0.961 . S
C3672 C3673 1.370 . S
C3672 C3674 1.363 . S
C3672 H3688 0.931 . S
C3673 C3672 1.370 . S
C3673 C3677 1.408 . S
C3674 C3672 1.363 . S
C3674 C3675 1.370 . S
C3674 C3678 1.524 . S
C3675 C3667 1.503 . S
C3675 C3674 1.370 . S
C3675 C3676 1.403 . S
C3676 C3675 1.403 . S
C3676 C3677 1.404 . S
C3676 C3679 1.539 . S
C3677 C3673 1.408 . S
C3677 C3676 1.404 . S
C3677 H3689 0.930 . S
C3678 C3674 1.524 . S
C3678 H3690 0.956 . S
C3678 H3691 0.961 . S
C3678 H3692 0.961 . S
C3679 C3676 1.539 . S
C3679 H3693 0.958 . S
C3679 H3694 0.961 . S
C3679 H3695 0.960 . S
H3680 C3664 0.931 . S
H3681 C3669 0.929 . S
H3682 C3670 0.960 . S
H3683 C3670 0.962 . S
H3684 C3670 0.960 . S
H3685 C3671 0.961 . S
H3686 C3671 0.961 . S
H3687 C3671 0.961 . S
H3688 C3672 0.931 . S
H3689 C3677 0.930 . S
H3690 C3678 0.956 . S
H3691 C3678 0.961 . S
H3692 C3678 0.961 . S
H3693 C3679 0.958 . S
H3694 C3679 0.961 . S
H3695 C3679 0.960 . S
C3696 C3697 1.391 . S
C3696 C3698 1.394 . S
C3696 H3712 0.931 . S
C3697 C3696 1.391 . S
C3697 C3701 1.376 . S
C3698 C3696 1.394 . S
C3698 C3699 1.369 . S
C3698 C3702 1.531 . S
C3699 C3698 1.369 . S
C3699 C3700 1.410 . S
C3699 C3707 1.503 . S
C3700 C3699 1.410 . S
C3700 C3701 1.392 . S
C3700 C3703 1.511 . S
C3701 C3697 1.376 . S
C3701 C3700 1.392 . S
C3701 H3713 0.929 . S
C3702 C3698 1.531 . S
C3702 H3714 0.960 . S
C3702 H3715 0.962 . S
C3702 H3716 0.960 . S
C3703 C3700 1.511 . S
C3703 H3717 0.961 . S
C3703 H3718 0.961 . S
C3703 H3719 0.961 . S
C3704 C3705 1.370 . S
C3704 C3706 1.363 . S
C3704 H3720 0.931 . S
C3705 C3704 1.370 . S
C3705 C3709 1.408 . S
C3706 C3704 1.363 . S
C3706 C3707 1.370 . S
C3706 C3710 1.524 . S
C3707 C3699 1.503 . S
C3707 C3706 1.370 . S
C3707 C3708 1.403 . S
C3708 C3707 1.403 . S
C3708 C3709 1.404 . S
C3708 C3711 1.539 . S
C3709 C3705 1.408 . S
C3709 C3708 1.404 . S
C3709 H3721 0.930 . S
C3710 C3706 1.524 . S
C3710 H3722 0.956 . S
C3710 H3723 0.961 . S
C3710 H3724 0.961 . S
C3711 C3708 1.539 . S
C3711 H3725 0.958 . S
C3711 H3726 0.961 . S
C3711 H3727 0.960 . S
H3712 C3696 0.931 . S
H3713 C3701 0.929 . S
H3714 C3702 0.960 . S
H3715 C3702 0.962 . S
H3716 C3702 0.960 . S
H3717 C3703 0.961 . S
H3718 C3703 0.961 . S
H3719 C3703 0.961 . S
H3720 C3704 0.931 . S
H3721 C3709 0.930 . S
H3722 C3710 0.956 . S
H3723 C3710 0.961 . S
H3724 C3710 0.961 . S
H3725 C3711 0.958 . S
H3726 C3711 0.961 . S
H3727 C3711 0.960 . S
C3728 C3729 1.391 . S
C3728 C3730 1.394 . S
C3728 H3744 0.931 . S
C3729 C3728 1.391 . S
C3729 C3733 1.376 . S
C3730 C3728 1.394 . S
C3730 C3731 1.369 . S
C3730 C3734 1.531 . S
C3731 C3730 1.369 . S
C3731 C3732 1.410 . S
C3731 C3739 1.503 . S
C3732 C3731 1.410 . S
C3732 C3733 1.392 . S
C3732 C3735 1.511 . S
C3733 C3729 1.376 . S
C3733 C3732 1.392 . S
C3733 H3745 0.929 . S
C3734 C3730 1.531 . S
C3734 H3746 0.960 . S
C3734 H3747 0.962 . S
C3734 H3748 0.960 . S
C3735 C3732 1.511 . S
C3735 H3749 0.961 . S
C3735 H3750 0.961 . S
C3735 H3751 0.961 . S
C3736 C3737 1.370 . S
C3736 C3738 1.363 . S
C3736 H3752 0.931 . S
C3737 C3736 1.370 . S
C3737 C3741 1.408 . S
C3738 C3736 1.363 . S
C3738 C3739 1.370 . S
C3738 C3742 1.524 . S
C3739 C3731 1.503 . S
C3739 C3738 1.370 . S
C3739 C3740 1.403 . S
C3740 C3739 1.403 . S
C3740 C3741 1.404 . S
C3740 C3743 1.539 . S
C3741 C3737 1.408 . S
C3741 C3740 1.404 . S
C3741 H3753 0.930 . S
C3742 C3738 1.524 . S
C3742 H3754 0.956 . S
C3742 H3755 0.961 . S
C3742 H3756 0.961 . S
C3743 C3740 1.539 . S
C3743 H3757 0.958 . S
C3743 H3758 0.961 . S
C3743 H3759 0.960 . S
H3744 C3728 0.931 . S
H3745 C3733 0.929 . S
H3746 C3734 0.960 . S
H3747 C3734 0.962 . S
H3748 C3734 0.960 . S
H3749 C3735 0.961 . S
H3750 C3735 0.961 . S
H3751 C3735 0.961 . S
H3752 C3736 0.931 . S
H3753 C3741 0.930 . S
H3754 C3742 0.956 . S
H3755 C3742 0.961 . S
H3756 C3742 0.961 . S
H3757 C3743 0.958 . S
H3758 C3743 0.961 . S
H3759 C3743 0.960 . S
C3760 C3761 1.391 . S
C3760 C3762 1.394 . S
C3760 H3776 0.931 . S
C3761 C3760 1.391 . S
C3761 C3765 1.376 . S
C3762 C3760 1.394 . S
C3762 C3763 1.369 . S
C3762 C3766 1.531 . S
C3763 C3762 1.369 . S
C3763 C3764 1.410 . S
C3763 C3771 1.503 . S
C3764 C3763 1.410 . S
C3764 C3765 1.392 . S
C3764 C3767 1.511 . S
C3765 C3761 1.376 . S
C3765 C3764 1.392 . S
C3765 H3777 0.929 . S
C3766 C3762 1.531 . S
C3766 H3778 0.960 . S
C3766 H3779 0.962 . S
C3766 H3780 0.960 . S
C3767 C3764 1.511 . S
C3767 H3781 0.961 . S
C3767 H3782 0.961 . S
C3767 H3783 0.961 . S
C3768 C3769 1.370 . S
C3768 C3770 1.363 . S
C3768 H3784 0.931 . S
C3769 C3768 1.370 . S
C3769 C3773 1.408 . S
C3770 C3768 1.363 . S
C3770 C3771 1.370 . S
C3770 C3774 1.524 . S
C3771 C3763 1.503 . S
C3771 C3770 1.370 . S
C3771 C3772 1.403 . S
C3772 C3771 1.403 . S
C3772 C3773 1.404 . S
C3772 C3775 1.539 . S
C3773 C3769 1.408 . S
C3773 C3772 1.404 . S
C3773 H3785 0.930 . S
C3774 C3770 1.524 . S
C3774 H3786 0.956 . S
C3774 H3787 0.961 . S
C3774 H3788 0.961 . S
C3775 C3772 1.539 . S
C3775 H3789 0.958 . S
C3775 H3790 0.961 . S
C3775 H3791 0.960 . S
H3776 C3760 0.931 . S
H3777 C3765 0.929 . S
H3778 C3766 0.960 . S
H3779 C3766 0.962 . S
H3780 C3766 0.960 . S
H3781 C3767 0.961 . S
H3782 C3767 0.961 . S
H3783 C3767 0.961 . S
H3784 C3768 0.931 . S
H3785 C3773 0.930 . S
H3786 C3774 0.956 . S
H3787 C3774 0.961 . S
H3788 C3774 0.961 . S
H3789 C3775 0.958 . S
H3790 C3775 0.961 . S
H3791 C3775 0.960 . S
C3792 C3793 1.391 . S
C3792 C3794 1.394 . S
C3792 H3808 0.931 . S
C3793 C3792 1.391 . S
C3793 C3797 1.376 . S
C3794 C3792 1.394 . S
C3794 C3795 1.369 . S
C3794 C3798 1.531 . S
C3795 C3794 1.369 . S
C3795 C3796 1.410 . S
C3795 C3803 1.503 . S
C3796 C3795 1.410 . S
C3796 C3797 1.392 . S
C3796 C3799 1.511 . S
C3797 C3793 1.376 . S
C3797 C3796 1.392 . S
C3797 H3809 0.929 . S
C3798 C3794 1.531 . S
C3798 H3810 0.960 . S
C3798 H3811 0.962 . S
C3798 H3812 0.960 . S
C3799 C3796 1.511 . S
C3799 H3813 0.961 . S
C3799 H3814 0.961 . S
C3799 H3815 0.961 . S
C3800 C3801 1.370 . S
C3800 C3802 1.363 . S
C3800 H3816 0.931 . S
C3801 C3800 1.370 . S
C3801 C3805 1.408 . S
C3802 C3800 1.363 . S
C3802 C3803 1.370 . S
C3802 C3806 1.524 . S
C3803 C3795 1.503 . S
C3803 C3802 1.370 . S
C3803 C3804 1.403 . S
C3804 C3803 1.403 . S
C3804 C3805 1.404 . S
C3804 C3807 1.539 . S
C3805 C3801 1.408 . S
C3805 C3804 1.404 . S
C3805 H3817 0.930 . S
C3806 C3802 1.524 . S
C3806 H3818 0.956 . S
C3806 H3819 0.961 . S
C3806 H3820 0.961 . S
C3807 C3804 1.539 . S
C3807 H3821 0.958 . S
C3807 H3822 0.961 . S
C3807 H3823 0.960 . S
H3808 C3792 0.931 . S
H3809 C3797 0.929 . S
H3810 C3798 0.960 . S
H3811 C3798 0.962 . S
H3812 C3798 0.960 . S
H3813 C3799 0.961 . S
H3814 C3799 0.961 . S
H3815 C3799 0.961 . S
H3816 C3800 0.931 . S
H3817 C3805 0.930 . S
H3818 C3806 0.956 . S
H3819 C3806 0.961 . S
H3820 C3806 0.961 . S
H3821 C3807 0.958 . S
H3822 C3807 0.961 . S
H3823 C3807 0.960 . S
C3824 C3825 1.391 . S
C3824 C3826 1.394 . S
C3824 H3840 0.931 . S
C3825 C3824 1.391 . S
C3825 C3829 1.376 . S
C3826 C3824 1.394 . S
C3826 C3827 1.369 . S
C3826 C3830 1.531 . S
C3827 C3826 1.369 . S
C3827 C3828 1.410 . S
C3827 C3835 1.503 . S
C3828 C3827 1.410 . S
C3828 C3829 1.392 . S
C3828 C3831 1.511 1_564 S
C3829 C3825 1.376 . S
C3829 C3828 1.392 . S
C3829 H3841 0.929 1_554 S
C3830 C3826 1.531 . S
C3830 H3842 0.960 . S
C3830 H3843 0.962 . S
C3830 H3844 0.960 . S
C3831 C3828 1.511 1_546 S
C3831 H3845 0.961 . S
C3831 H3846 0.961 . S
C3831 H3847 0.961 . S
C3832 C3833 1.370 . S
C3832 C3834 1.363 . S
C3832 H3848 0.931 . S
C3833 C3832 1.370 . S
C3833 C3837 1.408 1_554 S
C3834 C3832 1.363 . S
C3834 C3835 1.370 1_545 S
C3834 C3838 1.524 . S
C3835 C3827 1.503 . S
C3835 C3834 1.370 1_565 S
C3835 C3836 1.403 1_554 S
C3836 C3835 1.403 1_556 S
C3836 C3837 1.404 1_565 S
C3836 C3839 1.539 . S
C3837 C3833 1.408 1_556 S
C3837 C3836 1.404 1_545 S
C3837 H3849 0.930 . S
C3838 C3834 1.524 . S
C3838 H3850 0.956 . S
C3838 H3851 0.961 . S
C3838 H3852 0.961 . S
C3839 C3836 1.539 . S
C3839 H3853 0.958 . S
C3839 H3854 0.961 . S
C3839 H3855 0.960 . S
H3840 C3824 0.931 . S
H3841 C3829 0.929 1_556 S
H3842 C3830 0.960 . S
H3843 C3830 0.962 . S
H3844 C3830 0.960 . S
H3845 C3831 0.961 . S
H3846 C3831 0.961 . S
H3847 C3831 0.961 . S
H3848 C3832 0.931 . S
H3849 C3837 0.930 . S
H3850 C3838 0.956 . S
H3851 C3838 0.961 . S
H3852 C3838 0.961 . S
H3853 C3839 0.958 . S
H3854 C3839 0.961 . S
H3855 C3839 0.960 . S
C3856 C3857 1.391 . S
C3856 C3858 1.394 . S
C3856 H3872 0.931 . S
C3857 C3856 1.391 . S
C3857 C3861 1.376 . S
C3858 C3856 1.394 . S
C3858 C3859 1.369 . S
C3858 C3862 1.531 . S
C3859 C3858 1.369 . S
C3859 C3860 1.410 . S
C3859 C3867 1.503 . S
C3860 C3859 1.410 . S
C3860 C3861 1.392 . S
C3860 C3863 1.511 . S
C3861 C3857 1.376 . S
C3861 C3860 1.392 . S
C3861 H3873 0.929 . S
C3862 C3858 1.531 . S
C3862 H3874 0.960 . S
C3862 H3875 0.962 . S
C3862 H3876 0.960 . S
C3863 C3860 1.511 . S
C3863 H3877 0.961 . S
C3863 H3878 0.961 . S
C3863 H3879 0.961 . S
C3864 C3865 1.370 . S
C3864 C3866 1.363 . S
C3864 H3880 0.931 . S
C3865 C3864 1.370 . S
C3865 C3869 1.408 . S
C3866 C3864 1.363 . S
C3866 C3867 1.370 . S
C3866 C3870 1.524 . S
C3867 C3859 1.503 . S
C3867 C3866 1.370 . S
C3867 C3868 1.403 . S
C3868 C3867 1.403 . S
C3868 C3869 1.404 . S
C3868 C3871 1.539 . S
C3869 C3865 1.408 . S
C3869 C3868 1.404 . S
C3869 H3881 0.930 . S
C3870 C3866 1.524 . S
C3870 H3882 0.956 . S
C3870 H3883 0.961 . S
C3870 H3884 0.961 . S
C3871 C3868 1.539 . S
C3871 H3885 0.958 . S
C3871 H3886 0.961 . S
C3871 H3887 0.960 . S
H3872 C3856 0.931 . S
H3873 C3861 0.929 . S
H3874 C3862 0.960 . S
H3875 C3862 0.962 . S
H3876 C3862 0.960 . S
H3877 C3863 0.961 . S
H3878 C3863 0.961 . S
H3879 C3863 0.961 . S
H3880 C3864 0.931 . S
H3881 C3869 0.930 . S
H3882 C3870 0.956 . S
H3883 C3870 0.961 . S
H3884 C3870 0.961 . S
H3885 C3871 0.958 . S
H3886 C3871 0.961 . S
H3887 C3871 0.960 . S
C3888 C3889 1.391 . S
C3888 C3890 1.394 . S
C3888 H3904 0.931 . S
C3889 C3888 1.391 . S
C3889 C3893 1.376 1_554 S
C3890 C3888 1.394 . S
C3890 C3891 1.369 . S
C3890 C3894 1.531 . S
C3891 C3890 1.369 . S
C3891 C3892 1.424 . S
C3891 C3899 1.503 . S
C3892 C3891 1.424 . S
C3892 C3893 1.382 1_554 S
C3892 C3895 1.507 1_554 S
C3893 C3889 1.376 1_556 S
C3893 C3892 1.382 1_556 S
C3893 H3905 0.929 . S
C3894 C3890 1.531 . S
C3894 H3906 0.960 . S
C3894 H3907 0.962 . S
C3894 H3908 0.960 . S
C3895 C3892 1.507 1_556 S
C3895 H3909 0.961 . S
C3895 H3910 0.961 . S
C3895 H3911 0.961 1_556 S
C3896 C3897 1.370 . S
C3896 C3898 1.363 . S
C3896 H3912 0.931 . S
C3897 C3896 1.370 . S
C3897 C3901 1.408 . S
C3898 C3896 1.363 . S
C3898 C3899 1.370 . S
C3898 C3902 1.524 1_554 S
C3899 C3891 1.503 . S
C3899 C3898 1.370 . S
C3899 C3900 1.403 . S
C3900 C3899 1.403 . S
C3900 C3901 1.404 . S
C3900 C3903 1.539 . S
C3901 C3897 1.408 . S
C3901 C3900 1.404 . S
C3901 H3913 0.930 . S
C3902 C3898 1.524 1_556 S
C3902 H3914 0.956 . S
C3902 H3915 0.961 . S
C3902 H3916 0.961 . S
C3903 C3900 1.539 . S
C3903 H3917 0.958 . S
C3903 H3918 0.961 . S
C3903 H3919 0.960 . S
H3904 C3888 0.931 . S
H3905 C3893 0.929 . S
H3906 C3894 0.960 . S
H3907 C3894 0.962 . S
H3908 C3894 0.960 . S
H3909 C3895 0.961 . S
H3910 C3895 0.961 . S
H3911 C3895 0.961 1_554 S
H3912 C3896 0.931 . S
H3913 C3901 0.930 . S
H3914 C3902 0.956 . S
H3915 C3902 0.961 . S
H3916 C3902 0.961 . S
H3917 C3903 0.958 . S
H3918 C3903 0.961 . S
H3919 C3903 0.960 . S
C3920 C3921 1.391 . S
C3920 C3922 1.394 . S
C3920 H3936 0.931 . S
C3921 C3920 1.391 . S
C3921 C3925 1.376 . S
C3922 C3920 1.394 . S
C3922 C3923 1.369 . S
C3922 C3926 1.531 . S
C3923 C3922 1.369 . S
C3923 C3924 1.410 . S
C3923 C3931 1.503 . S
C3924 C3923 1.410 . S
C3924 C3925 1.392 . S
C3924 C3927 1.511 . S
C3925 C3921 1.376 . S
C3925 C3924 1.392 . S
C3925 H3937 0.929 . S
C3926 C3922 1.531 . S
C3926 H3938 0.960 . S
C3926 H3939 0.962 . S
C3926 H3940 0.960 . S
C3927 C3924 1.511 . S
C3927 H3941 0.961 . S
C3927 H3942 0.961 . S
C3927 H3943 0.961 . S
C3928 C3929 1.370 . S
C3928 C3930 1.363 . S
C3928 H3944 0.931 . S
C3929 C3928 1.370 . S
C3929 C3933 1.408 . S
C3930 C3928 1.363 . S
C3930 C3931 1.370 . S
C3930 C3934 1.524 . S
C3931 C3923 1.503 . S
C3931 C3930 1.370 . S
C3931 C3932 1.403 . S
C3932 C3931 1.403 . S
C3932 C3933 1.404 . S
C3932 C3935 1.539 . S
C3933 C3929 1.408 . S
C3933 C3932 1.404 . S
C3933 H3945 0.930 . S
C3934 C3930 1.524 . S
C3934 H3946 0.956 . S
C3934 H3947 0.961 . S
C3934 H3948 0.961 . S
C3935 C3932 1.539 . S
C3935 H3949 0.958 . S
C3935 H3950 0.961 . S
C3935 H3951 0.960 . S
H3936 C3920 0.931 . S
H3937 C3925 0.929 . S
H3938 C3926 0.960 . S
H3939 C3926 0.962 . S
H3940 C3926 0.960 . S
H3941 C3927 0.961 . S
H3942 C3927 0.961 . S
H3943 C3927 0.961 . S
H3944 C3928 0.931 . S
H3945 C3933 0.930 . S
H3946 C3934 0.956 . S
H3947 C3934 0.961 . S
H3948 C3934 0.961 . S
H3949 C3935 0.958 . S
H3950 C3935 0.961 . S
H3951 C3935 0.960 . S
C3952 C3953 1.391 . S
C3952 C3954 1.394 . S
C3952 H3968 0.931 . S
C3953 C3952 1.391 . S
C3953 C3957 1.376 . S
C3954 C3952 1.394 . S
C3954 C3955 1.369 . S
C3954 C3958 1.531 . S
C3955 C3954 1.369 . S
C3955 C3956 1.410 . S
C3955 C3963 1.503 . S
C3956 C3955 1.410 . S
C3956 C3957 1.392 . S
C3956 C3959 1.511 . S
C3957 C3953 1.376 . S
C3957 C3956 1.392 . S
C3957 H3969 0.929 . S
C3958 C3954 1.531 . S
C3958 H3970 0.960 . S
C3958 H3971 0.962 . S
C3958 H3972 0.960 . S
C3959 C3956 1.511 . S
C3959 H3973 0.961 . S
C3959 H3974 0.961 . S
C3959 H3975 0.961 . S
C3960 C3961 1.370 . S
C3960 C3962 1.363 . S
C3960 H3976 0.931 . S
C3961 C3960 1.370 . S
C3961 C3965 1.408 . S
C3962 C3960 1.363 . S
C3962 C3963 1.370 . S
C3962 C3966 1.524 . S
C3963 C3955 1.503 . S
C3963 C3962 1.370 . S
C3963 C3964 1.403 . S
C3964 C3963 1.403 . S
C3964 C3965 1.404 . S
C3964 C3967 1.539 . S
C3965 C3961 1.408 . S
C3965 C3964 1.404 . S
C3965 H3977 0.930 . S
C3966 C3962 1.524 . S
C3966 H3978 0.956 . S
C3966 H3979 0.961 . S
C3966 H3980 0.961 . S
C3967 C3964 1.539 . S
C3967 H3981 0.958 . S
C3967 H3982 0.961 . S
C3967 H3983 0.960 . S
H3968 C3952 0.931 . S
H3969 C3957 0.929 . S
H3970 C3958 0.960 . S
H3971 C3958 0.962 . S
H3972 C3958 0.960 . S
H3973 C3959 0.961 . S
H3974 C3959 0.961 . S
H3975 C3959 0.961 . S
H3976 C3960 0.931 . S
H3977 C3965 0.930 . S
H3978 C3966 0.956 . S
H3979 C3966 0.961 . S
H3980 C3966 0.961 . S
H3981 C3967 0.958 . S
H3982 C3967 0.961 . S
H3983 C3967 0.960 . S
C3984 C3985 1.391 . S
C3984 C3986 1.394 . S
C3984 H4000 0.931 . S
C3985 C3984 1.391 . S
C3985 C3989 1.376 . S
C3986 C3984 1.394 . S
C3986 C3987 1.369 . S
C3986 C3990 1.531 . S
C3987 C3986 1.369 . S
C3987 C3988 1.410 . S
C3987 C3995 1.503 . S
C3988 C3987 1.410 . S
C3988 C3989 1.392 . S
C3988 C3991 1.511 . S
C3989 C3985 1.376 . S
C3989 C3988 1.392 . S
C3989 H4001 0.929 . S
C3990 C3986 1.531 . S
C3990 H4002 0.960 . S
C3990 H4003 0.962 . S
C3990 H4004 0.960 . S
C3991 C3988 1.511 . S
C3991 H4005 0.961 . S
C3991 H4006 0.961 . S
C3991 H4007 0.961 . S
C3992 C3993 1.370 . S
C3992 C3994 1.363 . S
C3992 H4008 0.931 . S
C3993 C3992 1.370 . S
C3993 C3997 1.408 . S
C3994 C3992 1.363 . S
C3994 C3995 1.370 . S
C3994 C3998 1.524 . S
C3995 C3987 1.503 . S
C3995 C3994 1.370 . S
C3995 C3996 1.403 . S
C3996 C3995 1.403 . S
C3996 C3997 1.404 . S
C3996 C3999 1.539 . S
C3997 C3993 1.408 . S
C3997 C3996 1.404 . S
C3997 H4009 0.930 . S
C3998 C3994 1.524 . S
C3998 H4010 0.956 . S
C3998 H4011 0.961 . S
C3998 H4012 0.961 . S
C3999 C3996 1.539 . S
C3999 H4013 0.958 . S
C3999 H4014 0.961 . S
C3999 H4015 0.960 . S
H4000 C3984 0.931 . S
H4001 C3989 0.929 . S
H4002 C3990 0.960 . S
H4003 C3990 0.962 . S
H4004 C3990 0.960 . S
H4005 C3991 0.961 . S
H4006 C3991 0.961 . S
H4007 C3991 0.961 . S
H4008 C3992 0.931 . S
H4009 C3997 0.930 . S
H4010 C3998 0.956 . S
H4011 C3998 0.961 . S
H4012 C3998 0.961 . S
H4013 C3999 0.958 . S
H4014 C3999 0.961 . S
H4015 C3999 0.960 . S
C4016 C4017 1.391 . S
C4016 C4018 1.394 . S
C4016 H4032 0.931 . S
C4017 C4016 1.391 . S
C4017 C4021 1.376 . S
C4018 C4016 1.394 . S
C4018 C4019 1.369 . S
C4018 C4022 1.531 . S
C4019 C4018 1.369 . S
C4019 C4020 1.410 . S
C4019 C4027 1.503 . S
C4020 C4019 1.410 . S
C4020 C4021 1.392 . S
C4020 C4023 1.511 . S
C4021 C4017 1.376 . S
C4021 C4020 1.392 . S
C4021 H4033 0.929 . S
C4022 C4018 1.531 . S
C4022 H4034 0.960 . S
C4022 H4035 0.962 . S
C4022 H4036 0.960 . S
C4023 C4020 1.511 . S
C4023 H4037 0.961 . S
C4023 H4038 0.961 . S
C4023 H4039 0.961 . S
C4024 C4025 1.370 . S
C4024 C4026 1.363 . S
C4024 H4040 0.931 . S
C4025 C4024 1.370 . S
C4025 C4029 1.408 . S
C4026 C4024 1.363 . S
C4026 C4027 1.370 . S
C4026 C4030 1.524 . S
C4027 C4019 1.503 . S
C4027 C4026 1.370 . S
C4027 C4028 1.403 . S
C4028 C4027 1.403 . S
C4028 C4029 1.404 . S
C4028 C4031 1.539 . S
C4029 C4025 1.408 . S
C4029 C4028 1.404 . S
C4029 H4041 0.930 . S
C4030 C4026 1.524 . S
C4030 H4042 0.956 . S
C4030 H4043 0.961 . S
C4030 H4044 0.961 . S
C4031 C4028 1.539 . S
C4031 H4045 0.958 . S
C4031 H4046 0.961 . S
C4031 H4047 0.960 . S
H4032 C4016 0.931 . S
H4033 C4021 0.929 . S
H4034 C4022 0.960 . S
H4035 C4022 0.962 . S
H4036 C4022 0.960 . S
H4037 C4023 0.961 . S
H4038 C4023 0.961 . S
H4039 C4023 0.961 . S
H4040 C4024 0.931 . S
H4041 C4029 0.930 . S
H4042 C4030 0.956 . S
H4043 C4030 0.961 . S
H4044 C4030 0.961 . S
H4045 C4031 0.958 . S
H4046 C4031 0.961 . S
H4047 C4031 0.960 . S
C4048 C4049 1.391 . S
C4048 C4050 1.394 . S
C4048 H4064 0.931 . S
C4049 C4048 1.391 . S
C4049 C4053 1.376 . S
C4050 C4048 1.394 . S
C4050 C4051 1.369 . S
C4050 C4054 1.531 . S
C4051 C4050 1.369 . S
C4051 C4052 1.410 . S
C4051 C4059 1.503 . S
C4052 C4051 1.410 . S
C4052 C4053 1.392 . S
C4052 C4055 1.511 . S
C4053 C4049 1.376 . S
C4053 C4052 1.392 . S
C4053 H4065 0.929 . S
C4054 C4050 1.531 . S
C4054 H4066 0.960 . S
C4054 H4067 0.962 . S
C4054 H4068 0.960 . S
C4055 C4052 1.511 . S
C4055 H4069 0.961 . S
C4055 H4070 0.961 . S
C4055 H4071 0.961 . S
C4056 C4057 1.370 . S
C4056 C4058 1.363 . S
C4056 H4072 0.931 . S
C4057 C4056 1.370 . S
C4057 C4061 1.408 . S
C4058 C4056 1.363 . S
C4058 C4059 1.370 . S
C4058 C4062 1.524 . S
C4059 C4051 1.503 . S
C4059 C4058 1.370 . S
C4059 C4060 1.403 . S
C4060 C4059 1.403 . S
C4060 C4061 1.404 . S
C4060 C4063 1.539 1_554 S
C4061 C4057 1.408 . S
C4061 C4060 1.404 . S
C4061 H4073 0.930 1_554 S
C4062 C4058 1.524 . S
C4062 H4074 0.956 . S
C4062 H4075 0.961 . S
C4062 H4076 0.961 . S
C4063 C4060 1.539 1_556 S
C4063 H4077 0.958 1_556 S
C4063 H4078 0.961 . S
C4063 H4079 0.957 . S
H4064 C4048 0.931 . S
H4065 C4053 0.929 . S
H4066 C4054 0.960 . S
H4067 C4054 0.962 . S
H4068 C4054 0.960 . S
H4069 C4055 0.961 . S
H4070 C4055 0.961 . S
H4071 C4055 0.961 . S
H4072 C4056 0.931 . S
H4073 C4061 0.930 1_556 S
H4074 C4062 0.956 . S
H4075 C4062 0.961 . S
H4076 C4062 0.961 . S
H4077 C4063 0.958 1_554 S
H4078 C4063 0.961 . S
H4079 C4063 0.957 . S
C4080 C4081 1.391 . S
C4080 C4082 1.394 . S
C4080 H4096 0.931 . S
C4081 C4080 1.391 . S
C4081 C4085 1.376 . S
C4082 C4080 1.394 . S
C4082 C4083 1.369 . S
C4082 C4086 1.531 . S
C4083 C4082 1.369 . S
C4083 C4084 1.410 . S
C4083 C4091 1.503 . S
C4084 C4083 1.410 . S
C4084 C4085 1.392 . S
C4084 C4087 1.511 . S
C4085 C4081 1.376 . S
C4085 C4084 1.392 . S
C4085 H4097 0.929 . S
C4086 C4082 1.531 . S
C4086 H4098 0.960 . S
C4086 H4099 0.962 . S
C4086 H4100 0.960 . S
C4087 C4084 1.511 . S
C4087 H4101 0.961 . S
C4087 H4102 0.961 . S
C4087 H4103 0.961 . S
C4088 C4089 1.370 . S
C4088 C4090 1.363 . S
C4088 H4104 0.931 . S
C4089 C4088 1.370 . S
C4089 C4093 1.408 . S
C4090 C4088 1.363 . S
C4090 C4091 1.370 . S
C4090 C4094 1.524 . S
C4091 C4083 1.503 . S
C4091 C4090 1.370 . S
C4091 C4092 1.403 . S
C4092 C4091 1.403 . S
C4092 C4093 1.404 . S
C4092 C4095 1.539 . S
C4093 C4089 1.408 . S
C4093 C4092 1.404 . S
C4093 H4105 0.930 . S
C4094 C4090 1.524 . S
C4094 H4106 0.956 . S
C4094 H4107 0.961 . S
C4094 H4108 0.961 . S
C4095 C4092 1.539 . S
C4095 H4109 0.958 . S
C4095 H4110 0.961 . S
C4095 H4111 0.960 . S
H4096 C4080 0.931 . S
H4097 C4085 0.929 . S
H4098 C4086 0.960 . S
H4099 C4086 0.962 . S
H4100 C4086 0.960 . S
H4101 C4087 0.961 . S
H4102 C4087 0.961 . S
H4103 C4087 0.961 . S
H4104 C4088 0.931 . S
H4105 C4093 0.930 . S
H4106 C4094 0.956 . S
H4107 C4094 0.961 . S
H4108 C4094 0.961 . S
H4109 C4095 0.958 . S
H4110 C4095 0.961 . S
H4111 C4095 0.960 . S
C4112 C4113 1.391 . S
C4112 C4114 1.394 . S
C4112 H4128 0.931 . S
C4113 C4112 1.391 . S
C4113 C4117 1.376 . S
C4114 C4112 1.394 . S
C4114 C4115 1.369 . S
C4114 C4118 1.531 . S
C4115 C4114 1.369 . S
C4115 C4116 1.410 . S
C4115 C4123 1.503 . S
C4116 C4115 1.410 . S
C4116 C4117 1.392 . S
C4116 C4119 1.511 . S
C4117 C4113 1.376 . S
C4117 C4116 1.392 . S
C4117 H4129 0.929 . S
C4118 C4114 1.531 . S
C4118 H4130 0.960 . S
C4118 H4131 0.962 . S
C4118 H4132 0.960 . S
C4119 C4116 1.511 . S
C4119 H4133 0.961 . S
C4119 H4134 0.961 . S
C4119 H4135 0.961 . S
C4120 C4121 1.370 . S
C4120 C4122 1.363 . S
C4120 H4136 0.931 . S
C4121 C4120 1.370 . S
C4121 C4125 1.408 . S
C4122 C4120 1.363 . S
C4122 C4123 1.370 . S
C4122 C4126 1.524 . S
C4123 C4115 1.503 . S
C4123 C4122 1.370 . S
C4123 C4124 1.403 . S
C4124 C4123 1.403 . S
C4124 C4125 1.404 . S
C4124 C4127 1.539 . S
C4125 C4121 1.408 . S
C4125 C4124 1.404 . S
C4125 H4137 0.930 . S
C4126 C4122 1.524 . S
C4126 H4138 0.956 . S
C4126 H4139 0.961 . S
C4126 H4140 0.961 . S
C4127 C4124 1.539 . S
C4127 H4141 0.958 . S
C4127 H4142 0.961 . S
C4127 H4143 0.960 . S
H4128 C4112 0.931 . S
H4129 C4117 0.929 . S
H4130 C4118 0.960 . S
H4131 C4118 0.962 . S
H4132 C4118 0.960 . S
H4133 C4119 0.961 . S
H4134 C4119 0.961 . S
H4135 C4119 0.961 . S
H4136 C4120 0.931 . S
H4137 C4125 0.930 . S
H4138 C4126 0.956 . S
H4139 C4126 0.961 . S
H4140 C4126 0.961 . S
H4141 C4127 0.958 . S
H4142 C4127 0.961 . S
H4143 C4127 0.960 . S
C4144 C4145 1.391 . S
C4144 C4146 1.394 . S
C4144 H4160 0.931 . S
C4145 C4144 1.391 . S
C4145 C4149 1.376 . S
C4146 C4144 1.394 . S
C4146 C4147 1.369 . S
C4146 C4150 1.531 . S
C4147 C4146 1.369 . S
C4147 C4148 1.410 . S
C4147 C4155 1.503 . S
C4148 C4147 1.410 . S
C4148 C4149 1.392 . S
C4148 C4151 1.511 . S
C4149 C4145 1.376 . S
C4149 C4148 1.392 . S
C4149 H4161 0.929 . S
C4150 C4146 1.531 . S
C4150 H4162 0.960 . S
C4150 H4163 0.962 . S
C4150 H4164 0.960 . S
C4151 C4148 1.511 . S
C4151 H4165 0.961 . S
C4151 H4166 0.961 . S
C4151 H4167 0.961 . S
C4152 C4153 1.370 . S
C4152 C4154 1.363 . S
C4152 H4168 0.931 . S
C4153 C4152 1.370 . S
C4153 C4157 1.408 . S
C4154 C4152 1.363 . S
C4154 C4155 1.370 . S
C4154 C4158 1.524 . S
C4155 C4147 1.503 . S
C4155 C4154 1.370 . S
C4155 C4156 1.403 . S
C4156 C4155 1.403 . S
C4156 C4157 1.404 . S
C4156 C4159 1.539 . S
C4157 C4153 1.408 . S
C4157 C4156 1.404 . S
C4157 H4169 0.930 . S
C4158 C4154 1.524 . S
C4158 H4170 0.956 . S
C4158 H4171 0.961 . S
C4158 H4172 0.961 . S
C4159 C4156 1.539 . S
C4159 H4173 0.958 . S
C4159 H4174 0.961 . S
C4159 H4175 0.960 . S
H4160 C4144 0.931 . S
H4161 C4149 0.929 . S
H4162 C4150 0.960 . S
H4163 C4150 0.962 . S
H4164 C4150 0.960 . S
H4165 C4151 0.961 . S
H4166 C4151 0.961 . S
H4167 C4151 0.961 . S
H4168 C4152 0.931 . S
H4169 C4157 0.930 . S
H4170 C4158 0.956 . S
H4171 C4158 0.961 . S
H4172 C4158 0.961 . S
H4173 C4159 0.958 . S
H4174 C4159 0.961 . S
H4175 C4159 0.960 . S
C4176 C4177 1.391 . S
C4176 C4178 1.394 . S
C4176 H4192 0.931 . S
C4177 C4176 1.391 . S
C4177 C4181 1.376 . S
C4178 C4176 1.394 . S
C4178 C4179 1.369 . S
C4178 C4182 1.531 . S
C4179 C4178 1.369 . S
C4179 C4180 1.410 . S
C4179 C4187 1.503 . S
C4180 C4179 1.410 . S
C4180 C4181 1.392 . S
C4180 C4183 1.511 . S
C4181 C4177 1.376 . S
C4181 C4180 1.392 . S
C4181 H4193 0.929 . S
C4182 C4178 1.531 . S
C4182 H4194 0.960 . S
C4182 H4195 0.962 . S
C4182 H4196 0.960 . S
C4183 C4180 1.511 . S
C4183 H4197 0.961 . S
C4183 H4198 0.961 . S
C4183 H4199 0.961 . S
C4184 C4185 1.370 . S
C4184 C4186 1.363 . S
C4184 H4200 0.931 . S
C4185 C4184 1.370 . S
C4185 C4189 1.408 . S
C4186 C4184 1.363 . S
C4186 C4187 1.370 . S
C4186 C4190 1.524 . S
C4187 C4179 1.503 . S
C4187 C4186 1.370 . S
C4187 C4188 1.403 . S
C4188 C4187 1.403 . S
C4188 C4189 1.404 . S
C4188 C4191 1.539 . S
C4189 C4185 1.408 . S
C4189 C4188 1.404 . S
C4189 H4201 0.930 . S
C4190 C4186 1.524 . S
C4190 H4202 0.956 . S
C4190 H4203 0.961 . S
C4190 H4204 0.961 . S
C4191 C4188 1.539 . S
C4191 H4205 0.958 . S
C4191 H4206 0.961 . S
C4191 H4207 0.960 . S
H4192 C4176 0.931 . S
H4193 C4181 0.929 . S
H4194 C4182 0.960 . S
H4195 C4182 0.962 . S
H4196 C4182 0.960 . S
H4197 C4183 0.961 . S
H4198 C4183 0.961 . S
H4199 C4183 0.961 . S
H4200 C4184 0.931 . S
H4201 C4189 0.930 . S
H4202 C4190 0.956 . S
H4203 C4190 0.961 . S
H4204 C4190 0.961 . S
H4205 C4191 0.958 . S
H4206 C4191 0.961 . S
H4207 C4191 0.960 . S
C4208 C4209 1.391 . S
C4208 C4210 1.394 . S
C4208 H4224 0.931 . S
C4209 C4208 1.391 . S
C4209 C4213 1.376 . S
C4210 C4208 1.394 . S
C4210 C4211 1.369 . S
C4210 C4214 1.531 . S
C4211 C4210 1.369 . S
C4211 C4212 1.410 . S
C4211 C4219 1.503 . S
C4212 C4211 1.410 . S
C4212 C4213 1.392 . S
C4212 C4215 1.511 . S
C4213 C4209 1.376 . S
C4213 C4212 1.392 . S
C4213 H4225 0.929 . S
C4214 C4210 1.531 . S
C4214 H4226 0.960 . S
C4214 H4227 0.962 . S
C4214 H4228 0.960 . S
C4215 C4212 1.511 . S
C4215 H4229 0.961 . S
C4215 H4230 0.961 . S
C4215 H4231 0.961 . S
C4216 C4217 1.370 . S
C4216 C4218 1.363 . S
C4216 H4232 0.931 . S
C4217 C4216 1.370 . S
C4217 C4221 1.408 . S
C4218 C4216 1.363 . S
C4218 C4219 1.370 . S
C4218 C4222 1.524 . S
C4219 C4211 1.503 . S
C4219 C4218 1.370 . S
C4219 C4220 1.403 . S
C4220 C4219 1.403 . S
C4220 C4221 1.404 . S
C4220 C4223 1.539 . S
C4221 C4217 1.408 . S
C4221 C4220 1.404 . S
C4221 H4233 0.930 . S
C4222 C4218 1.524 . S
C4222 H4234 0.956 . S
C4222 H4235 0.961 . S
C4222 H4236 0.961 . S
C4223 C4220 1.539 . S
C4223 H4237 0.958 . S
C4223 H4238 0.961 . S
C4223 H4239 0.960 . S
H4224 C4208 0.931 . S
H4225 C4213 0.929 . S
H4226 C4214 0.960 . S
H4227 C4214 0.962 . S
H4228 C4214 0.960 . S
H4229 C4215 0.961 . S
H4230 C4215 0.961 . S
H4231 C4215 0.961 . S
H4232 C4216 0.931 . S
H4233 C4221 0.930 . S
H4234 C4222 0.956 . S
H4235 C4222 0.961 . S
H4236 C4222 0.961 . S
H4237 C4223 0.958 . S
H4238 C4223 0.961 . S
H4239 C4223 0.960 . S
C4240 C4241 1.391 . S
C4240 C4242 1.394 . S
C4240 H4256 0.931 . S
C4241 C4240 1.391 . S
C4241 C4245 1.376 . S
C4242 C4240 1.394 . S
C4242 C4243 1.369 . S
C4242 C4246 1.531 . S
C4243 C4242 1.369 . S
C4243 C4244 1.410 . S
C4243 C4251 1.503 . S
C4244 C4243 1.410 . S
C4244 C4245 1.392 . S
C4244 C4247 1.511 . S
C4245 C4241 1.376 . S
C4245 C4244 1.392 . S
C4245 H4257 0.929 . S
C4246 C4242 1.531 . S
C4246 H4258 0.960 . S
C4246 H4259 0.962 . S
C4246 H4260 0.960 . S
C4247 C4244 1.511 . S
C4247 H4261 0.961 . S
C4247 H4262 0.961 . S
C4247 H4263 0.961 . S
C4248 C4249 1.370 . S
C4248 C4250 1.363 . S
C4248 H4264 0.931 . S
C4249 C4248 1.370 . S
C4249 C4253 1.408 . S
C4250 C4248 1.363 . S
C4250 C4251 1.370 . S
C4250 C4254 1.524 . S
C4251 C4243 1.503 . S
C4251 C4250 1.370 . S
C4251 C4252 1.403 . S
C4252 C4251 1.403 . S
C4252 C4253 1.404 . S
C4252 C4255 1.539 . S
C4253 C4249 1.408 . S
C4253 C4252 1.404 . S
C4253 H4265 0.930 . S
C4254 C4250 1.524 . S
C4254 H4266 0.956 . S
C4254 H4267 0.961 . S
C4254 H4268 0.961 . S
C4255 C4252 1.539 . S
C4255 H4269 0.958 . S
C4255 H4270 0.961 . S
C4255 H4271 0.960 . S
H4256 C4240 0.931 . S
H4257 C4245 0.929 . S
H4258 C4246 0.960 . S
H4259 C4246 0.962 . S
H4260 C4246 0.960 . S
H4261 C4247 0.961 . S
H4262 C4247 0.961 . S
H4263 C4247 0.961 . S
H4264 C4248 0.931 . S
H4265 C4253 0.930 . S
H4266 C4254 0.956 . S
H4267 C4254 0.961 . S
H4268 C4254 0.961 . S
H4269 C4255 0.958 . S
H4270 C4255 0.961 . S
H4271 C4255 0.960 . S
C4272 C4273 1.391 . S
C4272 C4274 1.394 . S
C4272 H4288 0.931 . S
C4273 C4272 1.391 . S
C4273 C4277 1.376 . S
C4274 C4272 1.394 . S
C4274 C4275 1.369 . S
C4274 C4278 1.531 . S
C4275 C4274 1.369 . S
C4275 C4276 1.410 . S
C4275 C4283 1.503 . S
C4276 C4275 1.410 . S
C4276 C4277 1.392 . S
C4276 C4279 1.511 . S
C4277 C4273 1.376 . S
C4277 C4276 1.392 . S
C4277 H4289 0.929 . S
C4278 C4274 1.531 . S
C4278 H4290 0.960 . S
C4278 H4291 0.962 . S
C4278 H4292 0.960 . S
C4279 C4276 1.511 . S
C4279 H4293 0.961 . S
C4279 H4294 0.961 . S
C4279 H4295 0.961 . S
C4280 C4281 1.370 . S
C4280 C4282 1.363 . S
C4280 H4296 0.931 . S
C4281 C4280 1.370 . S
C4281 C4285 1.408 . S
C4282 C4280 1.363 . S
C4282 C4283 1.370 . S
C4282 C4286 1.524 . S
C4283 C4275 1.503 . S
C4283 C4282 1.370 . S
C4283 C4284 1.403 . S
C4284 C4283 1.403 . S
C4284 C4285 1.404 . S
C4284 C4287 1.539 . S
C4285 C4281 1.408 . S
C4285 C4284 1.404 . S
C4285 H4297 0.930 . S
C4286 C4282 1.524 . S
C4286 H4298 0.956 . S
C4286 H4299 0.961 . S
C4286 H4300 0.961 . S
C4287 C4284 1.539 . S
C4287 H4301 0.958 . S
C4287 H4302 0.961 . S
C4287 H4303 0.960 . S
H4288 C4272 0.931 . S
H4289 C4277 0.929 . S
H4290 C4278 0.960 . S
H4291 C4278 0.962 . S
H4292 C4278 0.960 . S
H4293 C4279 0.961 . S
H4294 C4279 0.961 . S
H4295 C4279 0.961 . S
H4296 C4280 0.931 . S
H4297 C4285 0.930 . S
H4298 C4286 0.956 . S
H4299 C4286 0.961 . S
H4300 C4286 0.961 . S
H4301 C4287 0.958 . S
H4302 C4287 0.961 . S
H4303 C4287 0.960 . S
C4304 C4305 1.391 . S
C4304 C4306 1.394 . S
C4304 H4320 0.931 . S
C4305 C4304 1.391 . S
C4305 C4309 1.376 . S
C4306 C4304 1.394 . S
C4306 C4307 1.369 . S
C4306 C4310 1.531 . S
C4307 C4306 1.369 . S
C4307 C4308 1.410 . S
C4307 C4315 1.503 . S
C4308 C4307 1.410 . S
C4308 C4309 1.392 . S
C4308 C4311 1.511 1_655 S
C4309 C4305 1.376 . S
C4309 C4308 1.392 . S
C4309 H4321 0.929 . S
C4310 C4306 1.531 . S
C4310 H4322 0.960 . S
C4310 H4323 0.962 . S
C4310 H4324 0.960 . S
C4311 C4308 1.511 1_455 S
C4311 H4325 0.961 . S
C4311 H4326 0.961 . S
C4311 H4327 0.961 . S
C4312 C4313 1.370 . S
C4312 C4314 1.363 . S
C4312 H4328 0.931 . S
C4313 C4312 1.370 . S
C4313 C4317 1.408 . S
C4314 C4312 1.363 . S
C4314 C4315 1.370 1_455 S
C4314 C4318 1.524 . S
C4315 C4307 1.503 . S
C4315 C4314 1.370 1_655 S
C4315 C4316 1.403 . S
C4316 C4315 1.403 . S
C4316 C4317 1.404 1_655 S
C4316 C4319 1.539 . S
C4317 C4313 1.408 . S
C4317 C4316 1.404 1_455 S
C4317 H4329 0.930 . S
C4318 C4314 1.524 . S
C4318 H4330 0.956 1_455 S
C4318 H4331 0.961 . S
C4318 H4332 0.961 . S
C4319 C4316 1.539 . S
C4319 H4333 0.958 . S
C4319 H4334 0.961 . S
C4319 H4335 0.960 . S
H4320 C4304 0.931 . S
H4321 C4309 0.929 . S
H4322 C4310 0.960 . S
H4323 C4310 0.962 . S
H4324 C4310 0.960 . S
H4325 C4311 0.961 . S
H4326 C4311 0.961 . S
H4327 C4311 0.961 . S
H4328 C4312 0.931 . S
H4329 C4317 0.930 . S
H4330 C4318 0.956 1_655 S
H4331 C4318 0.961 . S
H4332 C4318 0.961 . S
H4333 C4319 0.958 . S
H4334 C4319 0.961 . S
H4335 C4319 0.960 . S
C4336 C4337 1.391 . S
C4336 C4338 1.394 . S
C4336 H4352 0.931 . S
C4337 C4336 1.391 . S
C4337 C4341 1.376 . S
C4338 C4336 1.394 . S
C4338 C4339 1.369 . S
C4338 C4342 1.531 . S
C4339 C4338 1.369 . S
C4339 C4340 1.410 . S
C4339 C4347 1.503 . S
C4340 C4339 1.410 . S
C4340 C4341 1.392 . S
C4340 C4343 1.511 . S
C4341 C4337 1.376 . S
C4341 C4340 1.392 . S
C4341 H4353 0.929 . S
C4342 C4338 1.531 . S
C4342 H4354 0.960 . S
C4342 H4355 0.962 . S
C4342 H4356 0.960 . S
C4343 C4340 1.511 . S
C4343 H4357 0.961 . S
C4343 H4358 0.961 . S
C4343 H4359 0.961 . S
C4344 C4345 1.370 . S
C4344 C4346 1.363 . S
C4344 H4360 0.931 . S
C4345 C4344 1.370 . S
C4345 C4349 1.408 . S
C4346 C4344 1.363 . S
C4346 C4347 1.370 . S
C4346 C4350 1.524 . S
C4347 C4339 1.503 . S
C4347 C4346 1.370 . S
C4347 C4348 1.403 . S
C4348 C4347 1.403 . S
C4348 C4349 1.404 . S
C4348 C4351 1.539 . S
C4349 C4345 1.408 . S
C4349 C4348 1.404 . S
C4349 H4361 0.930 . S
C4350 C4346 1.524 . S
C4350 H4362 0.956 . S
C4350 H4363 0.961 . S
C4350 H4364 0.961 . S
C4351 C4348 1.539 . S
C4351 H4365 0.958 . S
C4351 H4366 0.961 . S
C4351 H4367 0.960 . S
H4352 C4336 0.931 . S
H4353 C4341 0.929 . S
H4354 C4342 0.960 . S
H4355 C4342 0.962 . S
H4356 C4342 0.960 . S
H4357 C4343 0.961 . S
H4358 C4343 0.961 . S
H4359 C4343 0.961 . S
H4360 C4344 0.931 . S
H4361 C4349 0.930 . S
H4362 C4350 0.956 . S
H4363 C4350 0.961 . S
H4364 C4350 0.961 . S
H4365 C4351 0.958 . S
H4366 C4351 0.961 . S
H4367 C4351 0.960 . S
C4368 C4369 1.391 . S
C4368 C4370 1.394 . S
C4368 H4384 0.931 . S
C4369 C4368 1.391 . S
C4369 C4373 1.376 . S
C4370 C4368 1.394 . S
C4370 C4371 1.369 . S
C4370 C4374 1.531 . S
C4371 C4370 1.369 . S
C4371 C4372 1.410 . S
C4371 C4379 1.503 . S
C4372 C4371 1.410 . S
C4372 C4373 1.392 . S
C4372 C4375 1.511 . S
C4373 C4369 1.376 . S
C4373 C4372 1.392 . S
C4373 H4385 0.929 . S
C4374 C4370 1.531 . S
C4374 H4386 0.960 . S
C4374 H4387 0.962 . S
C4374 H4388 0.960 . S
C4375 C4372 1.511 . S
C4375 H4389 0.961 . S
C4375 H4390 0.961 . S
C4375 H4391 0.961 . S
C4376 C4377 1.370 . S
C4376 C4378 1.363 . S
C4376 H4392 0.931 . S
C4377 C4376 1.370 . S
C4377 C4381 1.408 . S
C4378 C4376 1.363 . S
C4378 C4379 1.370 . S
C4378 C4382 1.524 . S
C4379 C4371 1.503 . S
C4379 C4378 1.370 . S
C4379 C4380 1.403 . S
C4380 C4379 1.403 . S
C4380 C4381 1.404 . S
C4380 C4383 1.539 . S
C4381 C4377 1.408 . S
C4381 C4380 1.404 . S
C4381 H4393 0.930 . S
C4382 C4378 1.524 . S
C4382 H4394 0.956 . S
C4382 H4395 0.961 . S
C4382 H4396 0.961 . S
C4383 C4380 1.539 . S
C4383 H4397 0.958 . S
C4383 H4398 0.961 . S
C4383 H4399 0.960 . S
H4384 C4368 0.931 . S
H4385 C4373 0.929 . S
H4386 C4374 0.960 . S
H4387 C4374 0.962 . S
H4388 C4374 0.960 . S
H4389 C4375 0.961 . S
H4390 C4375 0.961 . S
H4391 C4375 0.961 . S
H4392 C4376 0.931 . S
H4393 C4381 0.930 . S
H4394 C4382 0.956 . S
H4395 C4382 0.961 . S
H4396 C4382 0.961 . S
H4397 C4383 0.958 . S
H4398 C4383 0.961 . S
H4399 C4383 0.960 . S
C4400 C4401 1.391 . S
C4400 C4402 1.394 . S
C4400 H4416 0.931 . S
C4401 C4400 1.391 . S
C4401 C4405 1.376 . S
C4402 C4400 1.394 . S
C4402 C4403 1.369 . S
C4402 C4406 1.531 . S
C4403 C4402 1.369 . S
C4403 C4404 1.410 . S
C4403 C4411 1.503 . S
C4404 C4403 1.410 . S
C4404 C4405 1.392 . S
C4404 C4407 1.511 . S
C4405 C4401 1.376 . S
C4405 C4404 1.392 . S
C4405 H4417 0.929 . S
C4406 C4402 1.531 . S
C4406 H4418 0.960 . S
C4406 H4419 0.962 . S
C4406 H4420 0.960 . S
C4407 C4404 1.511 . S
C4407 H4421 0.961 . S
C4407 H4422 0.961 . S
C4407 H4423 0.961 . S
C4408 C4409 1.370 . S
C4408 C4410 1.363 . S
C4408 H4424 0.931 . S
C4409 C4408 1.370 . S
C4409 C4413 1.408 . S
C4410 C4408 1.363 . S
C4410 C4411 1.370 . S
C4410 C4414 1.524 . S
C4411 C4403 1.503 . S
C4411 C4410 1.370 . S
C4411 C4412 1.403 . S
C4412 C4411 1.403 . S
C4412 C4413 1.404 . S
C4412 C4415 1.539 . S
C4413 C4409 1.408 . S
C4413 C4412 1.404 . S
C4413 H4425 0.930 . S
C4414 C4410 1.524 . S
C4414 H4426 0.956 . S
C4414 H4427 0.961 . S
C4414 H4428 0.961 . S
C4415 C4412 1.539 . S
C4415 H4429 0.958 . S
C4415 H4430 0.961 . S
C4415 H4431 0.960 . S
H4416 C4400 0.931 . S
H4417 C4405 0.929 . S
H4418 C4406 0.960 . S
H4419 C4406 0.962 . S
H4420 C4406 0.960 . S
H4421 C4407 0.961 . S
H4422 C4407 0.961 . S
H4423 C4407 0.961 . S
H4424 C4408 0.931 . S
H4425 C4413 0.930 . S
H4426 C4414 0.956 . S
H4427 C4414 0.961 . S
H4428 C4414 0.961 . S
H4429 C4415 0.958 . S
H4430 C4415 0.961 . S
H4431 C4415 0.960 . S
C4432 C4433 1.391 . S
C4432 C4434 1.394 . S
C4432 H4448 0.931 . S
C4433 C4432 1.391 . S
C4433 C4437 1.376 . S
C4434 C4432 1.394 . S
C4434 C4435 1.369 . S
C4434 C4438 1.531 . S
C4435 C4434 1.369 . S
C4435 C4436 1.410 . S
C4435 C4443 1.503 . S
C4436 C4435 1.410 . S
C4436 C4437 1.392 . S
C4436 C4439 1.548 . S
C4437 C4433 1.376 . S
C4437 C4436 1.392 . S
C4437 H4449 0.929 . S
C4438 C4434 1.531 . S
C4438 H4450 0.960 . S
C4438 H4451 0.962 . S
C4438 H4452 0.960 . S
C4439 C4436 1.548 . S
C4439 H4453 0.957 . S
C4439 H4454 0.957 . S
C4439 H4455 0.936 1_655 S
C4440 C4441 1.370 . S
C4440 C4442 1.363 . S
C4440 H4456 0.931 . S
C4441 C4440 1.370 . S
C4441 C4445 1.408 1_655 S
C4442 C4440 1.363 . S
C4442 C4443 1.370 . S
C4442 C4446 1.524 . S
C4443 C4435 1.503 . S
C4443 C4442 1.370 . S
C4443 C4444 1.403 . S
C4444 C4443 1.403 . S
C4444 C4445 1.404 1_655 S
C4444 C4447 1.539 1_655 S
C4445 C4441 1.408 1_455 S
C4445 C4444 1.404 1_455 S
C4445 H4457 0.930 . S
C4446 C4442 1.524 . S
C4446 H4458 0.956 . S
C4446 H4459 0.961 . S
C4446 H4460 0.961 . S
C4447 C4444 1.539 1_455 S
C4447 H4461 0.958 . S
C4447 H4462 0.961 . S
C4447 H4463 0.960 . S
H4448 C4432 0.931 . S
H4449 C4437 0.929 . S
H4450 C4438 0.960 . S
H4451 C4438 0.962 . S
H4452 C4438 0.960 . S
H4453 C4439 0.957 . S
H4454 C4439 0.957 . S
H4455 C4439 0.936 1_455 S
H4456 C4440 0.931 . S
H4457 C4445 0.930 . S
H4458 C4446 0.956 . S
H4459 C4446 0.961 . S
H4460 C4446 0.961 . S
H4461 C4447 0.958 . S
H4462 C4447 0.961 . S
H4463 C4447 0.960 . S
C4464 C4465 1.391 . S
C4464 C4466 1.394 . S
C4464 H4480 0.931 . S
C4465 C4464 1.391 . S
C4465 C4469 1.376 . S
C4466 C4464 1.394 . S
C4466 C4467 1.369 . S
C4466 C4470 1.531 . S
C4467 C4466 1.369 . S
C4467 C4468 1.410 . S
C4467 C4475 1.503 . S
C4468 C4467 1.410 . S
C4468 C4469 1.392 . S
C4468 C4471 1.511 . S
C4469 C4465 1.376 . S
C4469 C4468 1.392 . S
C4469 H4481 0.929 . S
C4470 C4466 1.531 . S
C4470 H4482 0.960 . S
C4470 H4483 0.962 . S
C4470 H4484 0.960 . S
C4471 C4468 1.511 . S
C4471 H4485 0.961 . S
C4471 H4486 0.961 . S
C4471 H4487 0.961 . S
C4472 C4473 1.370 . S
C4472 C4474 1.363 . S
C4472 H4488 0.931 . S
C4473 C4472 1.370 . S
C4473 C4477 1.408 . S
C4474 C4472 1.363 . S
C4474 C4475 1.370 . S
C4474 C4478 1.524 . S
C4475 C4467 1.503 . S
C4475 C4474 1.370 . S
C4475 C4476 1.403 . S
C4476 C4475 1.403 . S
C4476 C4477 1.404 . S
C4476 C4479 1.539 . S
C4477 C4473 1.408 . S
C4477 C4476 1.404 . S
C4477 H4489 0.930 . S
C4478 C4474 1.524 . S
C4478 H4490 0.956 . S
C4478 H4491 0.961 . S
C4478 H4492 0.961 . S
C4479 C4476 1.539 . S
C4479 H4493 0.958 . S
C4479 H4494 0.961 . S
C4479 H4495 0.960 . S
H4480 C4464 0.931 . S
H4481 C4469 0.929 . S
H4482 C4470 0.960 . S
H4483 C4470 0.962 . S
H4484 C4470 0.960 . S
H4485 C4471 0.961 . S
H4486 C4471 0.961 . S
H4487 C4471 0.961 . S
H4488 C4472 0.931 . S
H4489 C4477 0.930 . S
H4490 C4478 0.956 . S
H4491 C4478 0.961 . S
H4492 C4478 0.961 . S
H4493 C4479 0.958 . S
H4494 C4479 0.961 . S
H4495 C4479 0.960 . S
C4496 C4497 1.391 . S
C4496 C4498 1.394 . S
C4496 H4512 0.931 . S
C4497 C4496 1.391 . S
C4497 C4501 1.376 . S
C4498 C4496 1.394 . S
C4498 C4499 1.369 . S
C4498 C4502 1.531 . S
C4499 C4498 1.369 . S
C4499 C4500 1.410 . S
C4499 C4507 1.503 . S
C4500 C4499 1.410 . S
C4500 C4501 1.392 . S
C4500 C4503 1.511 . S
C4501 C4497 1.376 . S
C4501 C4500 1.392 . S
C4501 H4513 0.929 . S
C4502 C4498 1.531 . S
C4502 H4514 0.960 . S
C4502 H4515 0.962 . S
C4502 H4516 0.960 . S
C4503 C4500 1.511 . S
C4503 H4517 0.961 . S
C4503 H4518 0.961 . S
C4503 H4519 0.961 . S
C4504 C4505 1.370 . S
C4504 C4506 1.363 . S
C4504 H4520 0.931 . S
C4505 C4504 1.370 . S
C4505 C4509 1.408 . S
C4506 C4504 1.363 . S
C4506 C4507 1.370 . S
C4506 C4510 1.524 . S
C4507 C4499 1.503 . S
C4507 C4506 1.370 . S
C4507 C4508 1.403 . S
C4508 C4507 1.403 . S
C4508 C4509 1.404 . S
C4508 C4511 1.539 . S
C4509 C4505 1.408 . S
C4509 C4508 1.404 . S
C4509 H4521 0.930 . S
C4510 C4506 1.524 . S
C4510 H4522 0.956 . S
C4510 H4523 0.961 . S
C4510 H4524 0.961 . S
C4511 C4508 1.539 . S
C4511 H4525 0.958 . S
C4511 H4526 0.961 . S
C4511 H4527 0.960 . S
H4512 C4496 0.931 . S
H4513 C4501 0.929 . S
H4514 C4502 0.960 . S
H4515 C4502 0.962 . S
H4516 C4502 0.960 . S
H4517 C4503 0.961 . S
H4518 C4503 0.961 . S
H4519 C4503 0.961 . S
H4520 C4504 0.931 . S
H4521 C4509 0.930 . S
H4522 C4510 0.956 . S
H4523 C4510 0.961 . S
H4524 C4510 0.961 . S
H4525 C4511 0.958 . S
H4526 C4511 0.961 . S
H4527 C4511 0.960 . S
C4528 C4529 1.391 . S
C4528 C4530 1.394 . S
C4528 H4544 0.931 . S
C4529 C4528 1.391 . S
C4529 C4533 1.376 . S
C4530 C4528 1.394 . S
C4530 C4531 1.369 . S
C4530 C4534 1.531 . S
C4531 C4530 1.369 . S
C4531 C4532 1.410 . S
C4531 C4539 1.503 . S
C4532 C4531 1.410 . S
C4532 C4533 1.392 . S
C4532 C4535 1.511 . S
C4533 C4529 1.376 . S
C4533 C4532 1.392 . S
C4533 H4545 0.929 . S
C4534 C4530 1.531 . S
C4534 H4546 0.966 . S
C4534 H4547 0.962 . S
C4534 H4548 0.960 . S
C4535 C4532 1.511 . S
C4535 H4549 0.961 . S
C4535 H4550 0.961 . S
C4535 H4551 0.961 . S
C4536 C4537 1.370 . S
C4536 C4538 1.363 . S
C4536 H4552 0.931 . S
C4537 C4536 1.370 . S
C4537 C4541 1.408 . S
C4538 C4536 1.363 . S
C4538 C4539 1.370 . S
C4538 C4542 1.524 . S
C4539 C4531 1.503 . S
C4539 C4538 1.370 . S
C4539 C4540 1.403 . S
C4540 C4539 1.403 . S
C4540 C4541 1.404 . S
C4540 C4543 1.539 . S
C4541 C4537 1.408 . S
C4541 C4540 1.404 . S
C4541 H4553 0.930 . S
C4542 C4538 1.524 . S
C4542 H4554 0.956 . S
C4542 H4555 0.961 . S
C4542 H4556 0.961 . S
C4543 C4540 1.539 . S
C4543 H4557 0.958 . S
C4543 H4558 0.961 . S
C4543 H4559 0.960 . S
H4544 C4528 0.931 . S
H4545 C4533 0.929 . S
H4546 C4534 0.966 . S
H4547 C4534 0.962 . S
H4548 C4534 0.960 . S
H4549 C4535 0.961 . S
H4550 C4535 0.961 . S
H4551 C4535 0.961 . S
H4552 C4536 0.931 . S
H4553 C4541 0.930 . S
H4554 C4542 0.956 . S
H4555 C4542 0.961 . S
H4556 C4542 0.961 . S
H4557 C4543 0.958 . S
H4558 C4543 0.961 . S
H4559 C4543 0.960 . S
C4560 C4561 1.391 . S
C4560 C4562 1.394 . S
C4560 H4576 0.931 . S
C4561 C4560 1.391 . S
C4561 C4565 1.376 . S
C4562 C4560 1.394 . S
C4562 C4563 1.369 . S
C4562 C4566 1.531 . S
C4563 C4562 1.369 . S
C4563 C4564 1.410 . S
C4563 C4571 1.503 . S
C4564 C4563 1.410 . S
C4564 C4565 1.392 . S
C4564 C4567 1.511 . S
C4565 C4561 1.376 . S
C4565 C4564 1.392 . S
C4565 H4577 0.929 . S
C4566 C4562 1.531 . S
C4566 H4578 0.960 . S
C4566 H4579 0.962 . S
C4566 H4580 0.960 . S
C4567 C4564 1.511 . S
C4567 H4581 0.961 . S
C4567 H4582 0.961 . S
C4567 H4583 0.961 . S
C4568 C4569 1.370 . S
C4568 C4570 1.363 . S
C4568 H4584 0.931 . S
C4569 C4568 1.370 . S
C4569 C4573 1.408 . S
C4570 C4568 1.363 . S
C4570 C4571 1.370 . S
C4570 C4574 1.524 . S
C4571 C4563 1.503 . S
C4571 C4570 1.370 . S
C4571 C4572 1.403 . S
C4572 C4571 1.403 . S
C4572 C4573 1.404 . S
C4572 C4575 1.539 . S
C4573 C4569 1.408 . S
C4573 C4572 1.404 . S
C4573 H4585 0.930 . S
C4574 C4570 1.524 . S
C4574 H4586 0.956 . S
C4574 H4587 0.961 . S
C4574 H4588 0.961 . S
C4575 C4572 1.539 . S
C4575 H4589 0.958 . S
C4575 H4590 0.961 . S
C4575 H4591 0.960 . S
H4576 C4560 0.931 . S
H4577 C4565 0.929 . S
H4578 C4566 0.960 . S
H4579 C4566 0.962 . S
H4580 C4566 0.960 . S
H4581 C4567 0.961 . S
H4582 C4567 0.961 . S
H4583 C4567 0.961 . S
H4584 C4568 0.931 . S
H4585 C4573 0.930 . S
H4586 C4574 0.956 . S
H4587 C4574 0.961 . S
H4588 C4574 0.961 . S
H4589 C4575 0.958 . S
H4590 C4575 0.961 . S
H4591 C4575 0.960 . S
C4592 C4593 1.394 . S
C4592 C4594 1.397 1_554 S
C4592 H4608 0.927 1_554 S
C4593 C4592 1.394 . S
C4593 C4597 1.376 . S
C4594 C4592 1.397 1_556 S
C4594 C4595 1.348 1_556 S
C4594 C4598 1.549 . S
C4595 C4594 1.348 1_554 S
C4595 C4596 1.410 . S
C4595 C4603 1.503 . S
C4596 C4595 1.410 . S
C4596 C4597 1.392 . S
C4596 C4599 1.511 . S
C4597 C4593 1.376 . S
C4597 C4596 1.392 . S
C4597 H4609 0.929 . S
C4598 C4594 1.549 . S
C4598 H4610 0.960 . S
C4598 H4611 0.962 . S
C4598 H4612 0.960 . S
C4599 C4596 1.511 . S
C4599 H4613 0.961 . S
C4599 H4614 0.961 . S
C4599 H4615 0.961 . S
C4600 C4601 1.370 . S
C4600 C4602 1.363 . S
C4600 H4616 0.931 . S
C4601 C4600 1.370 . S
C4601 C4605 1.408 . S
C4602 C4600 1.363 . S
C4602 C4603 1.370 . S
C4602 C4606 1.524 . S
C4603 C4595 1.503 . S
C4603 C4602 1.370 . S
C4603 C4604 1.403 . S
C4604 C4603 1.403 . S
C4604 C4605 1.404 . S
C4604 C4607 1.539 . S
C4605 C4601 1.408 . S
C4605 C4604 1.404 . S
C4605 H4617 0.930 . S
C4606 C4602 1.524 . S
C4606 H4618 0.956 1_554 S
C4606 H4619 0.961 . S
C4606 H4620 0.961 . S
C4607 C4604 1.539 . S
C4607 H4621 0.958 . S
C4607 H4622 0.961 . S
C4607 H4623 0.960 . S
H4608 C4592 0.927 1_556 S
H4609 C4597 0.929 . S
H4610 C4598 0.960 . S
H4611 C4598 0.962 . S
H4612 C4598 0.960 . S
H4613 C4599 0.961 . S
H4614 C4599 0.961 . S
H4615 C4599 0.961 . S
H4616 C4600 0.931 . S
H4617 C4605 0.930 . S
H4618 C4606 0.956 1_556 S
H4619 C4606 0.961 . S
H4620 C4606 0.961 . S
H4621 C4607 0.958 . S
H4622 C4607 0.961 . S
H4623 C4607 0.960 . S
C4624 C4625 1.391 . S
C4624 C4626 1.394 . S
C4624 H4640 0.931 . S
C4625 C4624 1.391 . S
C4625 C4629 1.376 . S
C4626 C4624 1.394 . S
C4626 C4627 1.369 . S
C4626 C4630 1.531 . S
C4627 C4626 1.369 . S
C4627 C4628 1.410 . S
C4627 C4635 1.503 . S
C4628 C4627 1.410 . S
C4628 C4629 1.392 . S
C4628 C4631 1.511 . S
C4629 C4625 1.376 . S
C4629 C4628 1.392 . S
C4629 H4641 0.929 . S
C4630 C4626 1.531 . S
C4630 H4642 0.960 . S
C4630 H4643 0.962 . S
C4630 H4644 0.960 . S
C4631 C4628 1.511 . S
C4631 H4645 0.961 . S
C4631 H4646 0.961 . S
C4631 H4647 0.961 . S
C4632 C4633 1.370 . S
C4632 C4634 1.363 . S
C4632 H4648 0.931 . S
C4633 C4632 1.370 . S
C4633 C4637 1.408 . S
C4634 C4632 1.363 . S
C4634 C4635 1.370 . S
C4634 C4638 1.524 . S
C4635 C4627 1.503 . S
C4635 C4634 1.370 . S
C4635 C4636 1.403 . S
C4636 C4635 1.403 . S
C4636 C4637 1.404 . S
C4636 C4639 1.539 . S
C4637 C4633 1.408 . S
C4637 C4636 1.404 . S
C4637 H4649 0.930 . S
C4638 C4634 1.524 . S
C4638 H4650 0.956 . S
C4638 H4651 0.961 . S
C4638 H4652 0.961 . S
C4639 C4636 1.539 . S
C4639 H4653 0.958 . S
C4639 H4654 0.961 . S
C4639 H4655 0.960 . S
H4640 C4624 0.931 . S
H4641 C4629 0.929 . S
H4642 C4630 0.960 . S
H4643 C4630 0.962 . S
H4644 C4630 0.960 . S
H4645 C4631 0.961 . S
H4646 C4631 0.961 . S
H4647 C4631 0.961 . S
H4648 C4632 0.931 . S
H4649 C4637 0.930 . S
H4650 C4638 0.956 . S
H4651 C4638 0.961 . S
H4652 C4638 0.961 . S
H4653 C4639 0.958 . S
H4654 C4639 0.961 . S
H4655 C4639 0.960 . S
C4656 C4657 1.391 . S
C4656 C4658 1.394 . S
C4656 H4672 0.931 . S
C4657 C4656 1.391 . S
C4657 C4661 1.376 . S
C4658 C4656 1.394 . S
C4658 C4659 1.369 . S
C4658 C4662 1.531 . S
C4659 C4658 1.369 . S
C4659 C4660 1.410 . S
C4659 C4667 1.503 . S
C4660 C4659 1.410 . S
C4660 C4661 1.392 . S
C4660 C4663 1.511 . S
C4661 C4657 1.376 . S
C4661 C4660 1.392 . S
C4661 H4673 0.929 . S
C4662 C4658 1.531 . S
C4662 H4674 0.960 . S
C4662 H4675 0.962 . S
C4662 H4676 0.960 . S
C4663 C4660 1.511 . S
C4663 H4677 0.961 . S
C4663 H4678 0.961 . S
C4663 H4679 0.961 1_554 S
C4664 C4665 1.370 . S
C4664 C4666 1.363 . S
C4664 H4680 0.931 . S
C4665 C4664 1.370 . S
C4665 C4669 1.408 1_554 S
C4666 C4664 1.363 . S
C4666 C4667 1.370 . S
C4666 C4670 1.524 . S
C4667 C4659 1.503 . S
C4667 C4666 1.370 . S
C4667 C4668 1.403 1_554 S
C4668 C4667 1.403 1_556 S
C4668 C4669 1.404 . S
C4668 C4671 1.539 . S
C4669 C4665 1.408 1_556 S
C4669 C4668 1.404 . S
C4669 H4681 0.930 . S
C4670 C4666 1.524 . S
C4670 H4682 0.956 . S
C4670 H4683 0.961 . S
C4670 H4684 0.961 . S
C4671 C4668 1.539 . S
C4671 H4685 0.958 . S
C4671 H4686 0.961 . S
C4671 H4687 0.960 . S
H4672 C4656 0.931 . S
H4673 C4661 0.929 . S
H4674 C4662 0.960 . S
H4675 C4662 0.962 . S
H4676 C4662 0.960 . S
H4677 C4663 0.961 . S
H4678 C4663 0.961 . S
H4679 C4663 0.961 1_556 S
H4680 C4664 0.931 . S
H4681 C4669 0.930 . S
H4682 C4670 0.956 . S
H4683 C4670 0.961 . S
H4684 C4670 0.961 . S
H4685 C4671 0.958 . S
H4686 C4671 0.961 . S
H4687 C4671 0.960 . S
C4688 C4689 1.391 . S
C4688 C4690 1.394 . S
C4688 H4704 0.931 . S
C4689 C4688 1.391 . S
C4689 C4693 1.376 . S
C4690 C4688 1.394 . S
C4690 C4691 1.369 . S
C4690 C4694 1.531 . S
C4691 C4690 1.369 . S
C4691 C4692 1.410 . S
C4691 C4699 1.503 . S
C4692 C4691 1.410 . S
C4692 C4693 1.392 . S
C4692 C4695 1.511 . S
C4693 C4689 1.376 . S
C4693 C4692 1.392 . S
C4693 H4705 0.929 . S
C4694 C4690 1.531 . S
C4694 H4706 0.960 . S
C4694 H4707 0.962 . S
C4694 H4708 0.960 . S
C4695 C4692 1.511 . S
C4695 H4709 0.961 . S
C4695 H4710 0.961 . S
C4695 H4711 0.961 . S
C4696 C4697 1.370 . S
C4696 C4698 1.363 . S
C4696 H4712 0.931 . S
C4697 C4696 1.370 . S
C4697 C4701 1.408 . S
C4698 C4696 1.363 . S
C4698 C4699 1.370 . S
C4698 C4702 1.524 . S
C4699 C4691 1.503 . S
C4699 C4698 1.370 . S
C4699 C4700 1.403 . S
C4700 C4699 1.403 . S
C4700 C4701 1.404 . S
C4700 C4703 1.539 . S
C4701 C4697 1.408 . S
C4701 C4700 1.404 . S
C4701 H4713 0.930 . S
C4702 C4698 1.524 . S
C4702 H4714 0.956 . S
C4702 H4715 0.961 . S
C4702 H4716 0.961 . S
C4703 C4700 1.539 . S
C4703 H4717 0.958 . S
C4703 H4718 0.961 . S
C4703 H4719 0.960 . S
H4704 C4688 0.931 . S
H4705 C4693 0.929 . S
H4706 C4694 0.960 . S
H4707 C4694 0.962 . S
H4708 C4694 0.960 . S
H4709 C4695 0.961 . S
H4710 C4695 0.961 . S
H4711 C4695 0.961 . S
H4712 C4696 0.931 . S
H4713 C4701 0.930 . S
H4714 C4702 0.956 . S
H4715 C4702 0.961 . S
H4716 C4702 0.961 . S
H4717 C4703 0.958 . S
H4718 C4703 0.961 . S
H4719 C4703 0.960 . S
C4720 C4721 1.391 . S
C4720 C4722 1.394 . S
C4720 H4736 0.931 . S
C4721 C4720 1.391 . S
C4721 C4725 1.376 . S
C4722 C4720 1.394 . S
C4722 C4723 1.369 . S
C4722 C4726 1.531 . S
C4723 C4722 1.369 . S
C4723 C4724 1.410 . S
C4723 C4731 1.503 . S
C4724 C4723 1.410 . S
C4724 C4725 1.392 . S
C4724 C4727 1.511 . S
C4725 C4721 1.376 . S
C4725 C4724 1.392 . S
C4725 H4737 0.929 . S
C4726 C4722 1.531 . S
C4726 H4738 0.960 . S
C4726 H4739 0.962 . S
C4726 H4740 0.960 . S
C4727 C4724 1.511 . S
C4727 H4741 0.961 . S
C4727 H4742 0.961 . S
C4727 H4743 0.961 . S
C4728 C4729 1.370 . S
C4728 C4730 1.363 . S
C4728 H4744 0.931 . S
C4729 C4728 1.370 . S
C4729 C4733 1.408 . S
C4730 C4728 1.363 . S
C4730 C4731 1.370 . S
C4730 C4734 1.524 . S
C4731 C4723 1.503 . S
C4731 C4730 1.370 . S
C4731 C4732 1.403 . S
C4732 C4731 1.403 . S
C4732 C4733 1.404 . S
C4732 C4735 1.539 . S
C4733 C4729 1.408 . S
C4733 C4732 1.404 . S
C4733 H4745 0.930 . S
C4734 C4730 1.524 . S
C4734 H4746 0.956 . S
C4734 H4747 0.961 . S
C4734 H4748 0.961 . S
C4735 C4732 1.539 . S
C4735 H4749 0.958 . S
C4735 H4750 0.961 . S
C4735 H4751 0.960 . S
H4736 C4720 0.931 . S
H4737 C4725 0.929 . S
H4738 C4726 0.960 . S
H4739 C4726 0.962 . S
H4740 C4726 0.960 . S
H4741 C4727 0.961 . S
H4742 C4727 0.961 . S
H4743 C4727 0.961 . S
H4744 C4728 0.931 . S
H4745 C4733 0.930 . S
H4746 C4734 0.956 . S
H4747 C4734 0.961 . S
H4748 C4734 0.961 . S
H4749 C4735 0.958 . S
H4750 C4735 0.961 . S
H4751 C4735 0.960 . S
C1681 C111 1.757 . S
C1689 C392 1.634 . S
C1713 C64 2.164 . S
C1721 C483 2.203 . S
C1745 C77 1.511 . S
C1753 C560 1.424 . S
C1785 C658 1.300 . S
C1777 C95 1.401 . S
C1809 C25 1.373 . S
C1817 C742 1.311 . S
C1849 C814 0.978 . S
C1841 C36 0.957 . S
C1881 C903 0.905 . S
C1873 C50 0.831 . S
C1905 C11 1.445 . S
C1913 C980 1.219 . S
C1945 C399 1.960 . S
C1937 C237 1.961 . S
C1969 C245 0.668 . S
C1977 C490 0.663 . S
C2009 C567 1.046 . S
C2001 C279 1.033 . S
C2041 C644 1.511 . S
C2033 C175 1.578 . S
C2065 C231 1.979 . S
C2073 C728 1.816 . S
C2105 C830 1.031 . S
C2097 C251 1.116 . S
C2137 C910 0.717 . S
C2129 C273 0.732 . S
C2169 C987 1.432 . S
C2161 C181 1.516 . S
C2201 C406 1.286 . S
C2193 C165 1.389 . S
C2225 C288 1.858 . S
C2233 C1071 1.877 1_556 S
C2265 C1159 2.183 . S
C2257 C333 2.351 . S
C2297 C1232 0.552 . S
C2289 C316 0.551 . S
C2321 C123 0.833 . S
C2329 C994 0.842 . S
C2353 C137 1.373 . S
C2361 C574 1.322 . S
C2385 C330 2.154 . S
C2393 C1323 2.180 . S
C2425 C1400 0.758 . S
C2417 C302 0.773 . S
C2457 C403 1.817 . S
C2449 C63 1.894 . S
C2489 C1418 2.240 . S
C2481 C106 2.280 . S
C2513 C97 1.581 . S
C2521 C571 1.508 . S
C2545 C81 1.453 . S
C2553 C1318 1.331 . S
C2585 C730 1.394 . S
C2577 C13 1.294 . S
C2609 C55 1.016 . S
C2617 C1162 0.966 . S
C2649 C914 0.955 1_565 S
C2641 C35 0.990 . S
C2681 C1495 1.417 . S
C2673 C21 1.599 . S
C2713 C410 2.066 . S
C2705 C147 2.179 . S
C2745 C1402 0.648 . S
C2737 C321 0.595 . S
C2769 C119 1.102 . S
C2777 C578 1.085 . S
C2801 C293 1.656 . S
C2809 C1327 1.610 . S
C2833 C153 1.932 . S
C2841 C739 2.003 . S
C2873 C1155 1.094 . S
C2865 C315 1.153 . S
C2897 C125 0.769 . S
C2905 C898 0.767 . S
C2929 C287 1.707 . S
C2937 C1502 1.587 . S
C2961 C193 1.394 . S
C2969 C394 1.358 . S
C2993 C176 1.934 . S
C3001 C1082 1.916 . S
C3025 C263 2.297 . S
C3033 C812 2.141 . S
C3057 C246 0.631 . S
C3065 C1243 0.665 . S
C3097 C1486 0.869 . S
C3089 C277 0.858 1_565 S
C3121 C221 1.347 . S
C3129 C562 1.312 . S
C3161 C662 2.245 . S
C3153 C260 2.237 . S
C3193 C487 0.848 . S
C3185 C204 0.897 . S
C3217 C83 1.789 . S
C3225 C1568 1.637 . S
C3257 C1407 2.209 . S
C3249 C92 2.167 . S
C3281 C105 1.516 . S
C3289 C1652 1.438 . S
C3313 C67 1.413 . S
C3321 C1330 1.271 . S
C3345 C53 1.373 . S
C3353 C1078 1.314 . S
C3385 C1150 0.942 . S
C3377 C8 1.022 . S
C3417 C1239 0.892 . S
C3409 C22 0.783 . S
C3449 C1484 1.222 . S
C3441 C39 1.438 . S
C3481 C1575 1.966 . S
C3473 C265 1.973 . S
C3505 C189 0.659 . S
C3513 C1414 0.651 . S
C3545 C1659 1.075 . S
C3537 C209 1.052 . S
C3577 C1316 1.496 . S
C3569 C217 1.579 . S
C3609 C1064 1.846 . S
C3601 C259 1.941 . S
C3633 C195 1.001 . S
C3641 C1166 1.078 . S
C3673 C1246 0.737 . S
C3665 C203 0.760 . S
C3697 C223 1.568 . S
C3705 C1491 1.466 . S
C3737 C1582 1.305 . S
C3729 C319 1.371 . S
C3761 C134 1.902 . S
C3769 C735 1.895 . S
C3801 C823 2.183 . S
C3793 C151 2.356 . S
C3833 C896 0.553 . S
C3825 C162 0.461 . S
C3865 C1498 0.844 . S
C3857 C305 0.838 . S
C3889 C291 1.362 1_554 S
C3897 C1666 1.294 . S
C3929 C651 2.190 . S
C3921 C148 2.195 . S
C3961 C476 0.686 . S
C3953 C120 0.656 . S
C3985 C91 1.906 . S
C3993 C1579 1.756 . S
C4025 C494 2.237 . S
C4017 C78 2.274 . S
C4049 C69 1.561 . S
C4057 C1663 1.526 . S
C4081 C109 1.481 . S
C4089 C646 1.342 . S
C4113 C41 1.286 . S
C4121 C1066 1.391 . S
C4153 C826 0.948 . S
C4145 C27 1.029 . S
C4177 C7 0.966 . S
C4185 C1250 0.967 . S
C4209 C49 1.582 . S
C4217 C991 1.449 . S
C4249 C1586 2.075 . S
C4241 C329 2.184 . S
C4273 C167 0.591 . S
C4281 C478 0.645 . S
C4313 C1670 1.076 . S
C4305 C301 1.116 . S
C4337 C139 1.661 . S
C4345 C655 1.627 . S
C4369 C335 1.984 . S
C4377 C1075 1.994 . S
C4409 C819 1.077 . S
C4401 C161 1.165 . S
C4433 C307 0.776 . S
C4441 C1234 0.764 1_655 S
C4473 C998 1.558 . S
C4465 C133 1.712 . S
C4505 C1570 1.355 . S
C4497 C249 1.438 . S
C4537 C746 1.917 1_665 S
C4529 C218 1.939 . S
C4561 C235 2.302 . S
C4569 C1148 2.121 . S
C4601 C907 0.663 . S
C4593 C190 0.707 . S
C4625 C207 0.839 . S
C4633 C982 0.834 . S
C4657 C179 1.327 . S
C4665 C1654 1.314 1_554 S
C4697 C1334 2.248 . S
C4689 C232 2.247 1_565 S
C4729 C1411 0.855 . S
C4721 C274 0.899 . S
