# Generated by pormake.
# Topology gar, (4,6)-cn, num edge types: 1
# Building blocks:
#     Node 0, Type 0, BuildingBlock: NAHDIM_clean_sbu_0, # of connection points: 4
#     Node 1, Type 0, BuildingBlock: NAHDIM_clean_sbu_0, # of connection points: 4
#     Node 2, Type 0, BuildingBlock: NAHDIM_clean_sbu_0, # of connection points: 4
#     Node 3, Type 0, BuildingBlock: NAHDIM_clean_sbu_0, # of connection points: 4
#     Node 4, Type 0, BuildingBlock: NAHDIM_clean_sbu_0, # of connection points: 4
#     Node 5, Type 0, BuildingBlock: NAHDIM_clean_sbu_0, # of connection points: 4
#     Node 6, Type 0, BuildingBlock: NAHDIM_clean_sbu_0, # of connection points: 4
#     Node 7, Type 0, BuildingBlock: NAHDIM_clean_sbu_0, # of connection points: 4
#     Node 8, Type 0, BuildingBlock: NAHDIM_clean_sbu_0, # of connection points: 4
#     Node 9, Type 0, BuildingBlock: NAHDIM_clean_sbu_0, # of connection points: 4
#     Node 10, Type 0, BuildingBlock: NAHDIM_clean_sbu_0, # of connection points: 4
#     Node 11, Type 0, BuildingBlock: NAHDIM_clean_sbu_0, # of connection points: 4
#     Node 12, Type 0, BuildingBlock: NAHDIM_clean_sbu_0, # of connection points: 4
#     Node 13, Type 0, BuildingBlock: NAHDIM_clean_sbu_0, # of connection points: 4
#     Node 14, Type 0, BuildingBlock: NAHDIM_clean_sbu_0, # of connection points: 4
#     Node 15, Type 0, BuildingBlock: NAHDIM_clean_sbu_0, # of connection points: 4
#     Node 16, Type 0, BuildingBlock: NAHDIM_clean_sbu_0, # of connection points: 4
#     Node 17, Type 0, BuildingBlock: NAHDIM_clean_sbu_0, # of connection points: 4
#     Node 18, Type 0, BuildingBlock: NAHDIM_clean_sbu_0, # of connection points: 4
#     Node 19, Type 0, BuildingBlock: NAHDIM_clean_sbu_0, # of connection points: 4
#     Node 20, Type 0, BuildingBlock: NAHDIM_clean_sbu_0, # of connection points: 4
#     Node 21, Type 0, BuildingBlock: NAHDIM_clean_sbu_0, # of connection points: 4
#     Node 22, Type 0, BuildingBlock: NAHDIM_clean_sbu_0, # of connection points: 4
#     Node 23, Type 0, BuildingBlock: NAHDIM_clean_sbu_0, # of connection points: 4
#     Node 24, Type 1, BuildingBlock: BETDAH_clean_sbu_0, # of connection points: 6
#     Node 25, Type 1, BuildingBlock: BETDAH_clean_sbu_0, # of connection points: 6
#     Node 26, Type 1, BuildingBlock: BETDAH_clean_sbu_0, # of connection points: 6
#     Node 27, Type 1, BuildingBlock: BETDAH_clean_sbu_0, # of connection points: 6
#     Node 28, Type 1, BuildingBlock: BETDAH_clean_sbu_0, # of connection points: 6
#     Node 29, Type 1, BuildingBlock: BETDAH_clean_sbu_0, # of connection points: 6
#     Node 30, Type 1, BuildingBlock: BETDAH_clean_sbu_0, # of connection points: 6
#     Node 31, Type 1, BuildingBlock: BETDAH_clean_sbu_0, # of connection points: 6
#     Node 32, Type 1, BuildingBlock: BETDAH_clean_sbu_0, # of connection points: 6
#     Node 33, Type 1, BuildingBlock: BETDAH_clean_sbu_0, # of connection points: 6
#     Node 34, Type 1, BuildingBlock: BETDAH_clean_sbu_0, # of connection points: 6
#     Node 35, Type 1, BuildingBlock: BETDAH_clean_sbu_0, # of connection points: 6
#     Node 36, Type 1, BuildingBlock: BETDAH_clean_sbu_0, # of connection points: 6
#     Node 37, Type 1, BuildingBlock: BETDAH_clean_sbu_0, # of connection points: 6
#     Node 38, Type 1, BuildingBlock: BETDAH_clean_sbu_0, # of connection points: 6
#     Node 39, Type 1, BuildingBlock: BETDAH_clean_sbu_0, # of connection points: 6
#     Edge 40, Type (0, 1), BuildingBlock: XIVTED_clean_linker_0, # of connection points: 2
#     Edge 41, Type (0, 1), BuildingBlock: XIVTED_clean_linker_0, # of connection points: 2
#     Edge 42, Type (0, 1), BuildingBlock: XIVTED_clean_linker_0, # of connection points: 2
#     Edge 43, Type (0, 1), BuildingBlock: XIVTED_clean_linker_0, # of connection points: 2
#     Edge 44, Type (0, 1), BuildingBlock: XIVTED_clean_linker_0, # of connection points: 2
#     Edge 45, Type (0, 1), BuildingBlock: XIVTED_clean_linker_0, # of connection points: 2
#     Edge 46, Type (0, 1), BuildingBlock: XIVTED_clean_linker_0, # of connection points: 2
#     Edge 47, Type (0, 1), BuildingBlock: XIVTED_clean_linker_0, # of connection points: 2
#     Edge 48, Type (0, 1), BuildingBlock: XIVTED_clean_linker_0, # of connection points: 2
#     Edge 49, Type (0, 1), BuildingBlock: XIVTED_clean_linker_0, # of connection points: 2
#     Edge 50, Type (0, 1), BuildingBlock: XIVTED_clean_linker_0, # of connection points: 2
#     Edge 51, Type (0, 1), BuildingBlock: XIVTED_clean_linker_0, # of connection points: 2
#     Edge 52, Type (0, 1), BuildingBlock: XIVTED_clean_linker_0, # of connection points: 2
#     Edge 53, Type (0, 1), BuildingBlock: XIVTED_clean_linker_0, # of connection points: 2
#     Edge 54, Type (0, 1), BuildingBlock: XIVTED_clean_linker_0, # of connection points: 2
#     Edge 55, Type (0, 1), BuildingBlock: XIVTED_clean_linker_0, # of connection points: 2
#     Edge 56, Type (0, 1), BuildingBlock: XIVTED_clean_linker_0, # of connection points: 2
#     Edge 57, Type (0, 1), BuildingBlock: XIVTED_clean_linker_0, # of connection points: 2
#     Edge 58, Type (0, 1), BuildingBlock: XIVTED_clean_linker_0, # of connection points: 2
#     Edge 59, Type (0, 1), BuildingBlock: XIVTED_clean_linker_0, # of connection points: 2
#     Edge 60, Type (0, 1), BuildingBlock: XIVTED_clean_linker_0, # of connection points: 2
#     Edge 61, Type (0, 1), BuildingBlock: XIVTED_clean_linker_0, # of connection points: 2
#     Edge 62, Type (0, 1), BuildingBlock: XIVTED_clean_linker_0, # of connection points: 2
#     Edge 63, Type (0, 1), BuildingBlock: XIVTED_clean_linker_0, # of connection points: 2
#     Edge 64, Type (0, 1), BuildingBlock: XIVTED_clean_linker_0, # of connection points: 2
#     Edge 65, Type (0, 1), BuildingBlock: XIVTED_clean_linker_0, # of connection points: 2
#     Edge 66, Type (0, 1), BuildingBlock: XIVTED_clean_linker_0, # of connection points: 2
#     Edge 67, Type (0, 1), BuildingBlock: XIVTED_clean_linker_0, # of connection points: 2
#     Edge 68, Type (0, 1), BuildingBlock: XIVTED_clean_linker_0, # of connection points: 2
#     Edge 69, Type (0, 1), BuildingBlock: XIVTED_clean_linker_0, # of connection points: 2
#     Edge 70, Type (0, 1), BuildingBlock: XIVTED_clean_linker_0, # of connection points: 2
#     Edge 71, Type (0, 1), BuildingBlock: XIVTED_clean_linker_0, # of connection points: 2
#     Edge 72, Type (0, 1), BuildingBlock: XIVTED_clean_linker_0, # of connection points: 2
#     Edge 73, Type (0, 1), BuildingBlock: XIVTED_clean_linker_0, # of connection points: 2
#     Edge 74, Type (0, 1), BuildingBlock: XIVTED_clean_linker_0, # of connection points: 2
#     Edge 75, Type (0, 1), BuildingBlock: XIVTED_clean_linker_0, # of connection points: 2
#     Edge 76, Type (0, 1), BuildingBlock: XIVTED_clean_linker_0, # of connection points: 2
#     Edge 77, Type (0, 1), BuildingBlock: XIVTED_clean_linker_0, # of connection points: 2
#     Edge 78, Type (0, 1), BuildingBlock: XIVTED_clean_linker_0, # of connection points: 2
#     Edge 79, Type (0, 1), BuildingBlock: XIVTED_clean_linker_0, # of connection points: 2
#     Edge 80, Type (0, 1), BuildingBlock: XIVTED_clean_linker_0, # of connection points: 2
#     Edge 81, Type (0, 1), BuildingBlock: XIVTED_clean_linker_0, # of connection points: 2
#     Edge 82, Type (0, 1), BuildingBlock: XIVTED_clean_linker_0, # of connection points: 2
#     Edge 83, Type (0, 1), BuildingBlock: XIVTED_clean_linker_0, # of connection points: 2
#     Edge 84, Type (0, 1), BuildingBlock: XIVTED_clean_linker_0, # of connection points: 2
#     Edge 85, Type (0, 1), BuildingBlock: XIVTED_clean_linker_0, # of connection points: 2
#     Edge 86, Type (0, 1), BuildingBlock: XIVTED_clean_linker_0, # of connection points: 2
#     Edge 87, Type (0, 1), BuildingBlock: XIVTED_clean_linker_0, # of connection points: 2
#     Edge 88, Type (0, 1), BuildingBlock: XIVTED_clean_linker_0, # of connection points: 2
#     Edge 89, Type (0, 1), BuildingBlock: XIVTED_clean_linker_0, # of connection points: 2
#     Edge 90, Type (0, 1), BuildingBlock: XIVTED_clean_linker_0, # of connection points: 2
#     Edge 91, Type (0, 1), BuildingBlock: XIVTED_clean_linker_0, # of connection points: 2
#     Edge 92, Type (0, 1), BuildingBlock: XIVTED_clean_linker_0, # of connection points: 2
#     Edge 93, Type (0, 1), BuildingBlock: XIVTED_clean_linker_0, # of connection points: 2
#     Edge 94, Type (0, 1), BuildingBlock: XIVTED_clean_linker_0, # of connection points: 2
#     Edge 95, Type (0, 1), BuildingBlock: XIVTED_clean_linker_0, # of connection points: 2
#     Edge 96, Type (0, 1), BuildingBlock: XIVTED_clean_linker_0, # of connection points: 2
#     Edge 97, Type (0, 1), BuildingBlock: XIVTED_clean_linker_0, # of connection points: 2
#     Edge 98, Type (0, 1), BuildingBlock: XIVTED_clean_linker_0, # of connection points: 2
#     Edge 99, Type (0, 1), BuildingBlock: XIVTED_clean_linker_0, # of connection points: 2
#     Edge 100, Type (0, 1), BuildingBlock: XIVTED_clean_linker_0, # of connection points: 2
#     Edge 101, Type (0, 1), BuildingBlock: XIVTED_clean_linker_0, # of connection points: 2
#     Edge 102, Type (0, 1), BuildingBlock: XIVTED_clean_linker_0, # of connection points: 2
#     Edge 103, Type (0, 1), BuildingBlock: XIVTED_clean_linker_0, # of connection points: 2
#     Edge 104, Type (0, 1), BuildingBlock: XIVTED_clean_linker_0, # of connection points: 2
#     Edge 105, Type (0, 1), BuildingBlock: XIVTED_clean_linker_0, # of connection points: 2
#     Edge 106, Type (0, 1), BuildingBlock: XIVTED_clean_linker_0, # of connection points: 2
#     Edge 107, Type (0, 1), BuildingBlock: XIVTED_clean_linker_0, # of connection points: 2
#     Edge 108, Type (0, 1), BuildingBlock: XIVTED_clean_linker_0, # of connection points: 2
#     Edge 109, Type (0, 1), BuildingBlock: XIVTED_clean_linker_0, # of connection points: 2
#     Edge 110, Type (0, 1), BuildingBlock: XIVTED_clean_linker_0, # of connection points: 2
#     Edge 111, Type (0, 1), BuildingBlock: XIVTED_clean_linker_0, # of connection points: 2
#     Edge 112, Type (0, 1), BuildingBlock: XIVTED_clean_linker_0, # of connection points: 2
#     Edge 113, Type (0, 1), BuildingBlock: XIVTED_clean_linker_0, # of connection points: 2
#     Edge 114, Type (0, 1), BuildingBlock: XIVTED_clean_linker_0, # of connection points: 2
#     Edge 115, Type (0, 1), BuildingBlock: XIVTED_clean_linker_0, # of connection points: 2
#     Edge 116, Type (0, 1), BuildingBlock: XIVTED_clean_linker_0, # of connection points: 2
#     Edge 117, Type (0, 1), BuildingBlock: XIVTED_clean_linker_0, # of connection points: 2
#     Edge 118, Type (0, 1), BuildingBlock: XIVTED_clean_linker_0, # of connection points: 2
#     Edge 119, Type (0, 1), BuildingBlock: XIVTED_clean_linker_0, # of connection points: 2
#     Edge 120, Type (0, 1), BuildingBlock: XIVTED_clean_linker_0, # of connection points: 2
#     Edge 121, Type (0, 1), BuildingBlock: XIVTED_clean_linker_0, # of connection points: 2
#     Edge 122, Type (0, 1), BuildingBlock: XIVTED_clean_linker_0, # of connection points: 2
#     Edge 123, Type (0, 1), BuildingBlock: XIVTED_clean_linker_0, # of connection points: 2
#     Edge 124, Type (0, 1), BuildingBlock: XIVTED_clean_linker_0, # of connection points: 2
#     Edge 125, Type (0, 1), BuildingBlock: XIVTED_clean_linker_0, # of connection points: 2
#     Edge 126, Type (0, 1), BuildingBlock: XIVTED_clean_linker_0, # of connection points: 2
#     Edge 127, Type (0, 1), BuildingBlock: XIVTED_clean_linker_0, # of connection points: 2
#     Edge 128, Type (0, 1), BuildingBlock: XIVTED_clean_linker_0, # of connection points: 2
#     Edge 129, Type (0, 1), BuildingBlock: XIVTED_clean_linker_0, # of connection points: 2
#     Edge 130, Type (0, 1), BuildingBlock: XIVTED_clean_linker_0, # of connection points: 2
#     Edge 131, Type (0, 1), BuildingBlock: XIVTED_clean_linker_0, # of connection points: 2
#     Edge 132, Type (0, 1), BuildingBlock: XIVTED_clean_linker_0, # of connection points: 2
#     Edge 133, Type (0, 1), BuildingBlock: XIVTED_clean_linker_0, # of connection points: 2
#     Edge 134, Type (0, 1), BuildingBlock: XIVTED_clean_linker_0, # of connection points: 2
#     Edge 135, Type (0, 1), BuildingBlock: XIVTED_clean_linker_0, # of connection points: 2
# Relax obj value: 0.206
# Max RMSD: 0.302
# Mean RMSD: 0.183
data_MOF--net-gar--node1-NAHDIM_clean_sbu_0--node2-BETDAH_clean_sbu_0--edge1-XIVTED_clean_linker_0
_symmetry_space_group_name_H-M    P1
_symmetry_Int_Tables_number       1
_symmetry_cell_setting            triclinic
loop_
_symmetry_equiv_pos_as_xyz
'x, y, z'
_cell_length_a     63.849094
_cell_length_b     57.078887
_cell_length_c     56.188418
_cell_angle_alpha  99.439334
_cell_angle_beta   95.745044
_cell_angle_gamma 103.66774
loop_
_atom_site_label
_atom_site_type_symbol
_atom_site_fract_x
_atom_site_fract_y
_atom_site_fract_z
_atom_type_partial_charge
C0 C 0.1547 0.33453 0.36858 0.0
O1 O 0.15605 0.32996 0.39078 0.0
O2 O 0.10962 0.30594 0.39405 0.0
Zn3 Zn 0.11198 0.33307 0.37527 0.0
O4 O 0.11412 0.36484 0.39686 0.0
C5 C 0.06901 0.3081 0.35232 0.0
O6 O 0.07078 0.29459 0.36881 0.0
O7 O 0.13697 0.33667 0.35822 0.0
C8 C 0.09593 0.36788 0.40181 0.0
O9 O 0.07819 0.35006 0.39391 0.0
C10 C 0.10717 0.30921 0.41636 0.0
O11 O 0.11031 0.33165 0.42874 0.0
O12 O 0.0852 0.32524 0.35055 0.0
C13 C 0.95636 0.74194 0.67322 0.0
O14 O 0.95272 0.71966 0.66025 0.0
O15 O 0.99059 0.71777 0.63644 0.0
Zn16 Zn 0.99621 0.75189 0.65403 0.0
O17 O 1.0012 0.77458 0.63152 0.0
C18 C 0.03214 0.74358 0.68209 0.0
O19 O 0.02293 0.72042 0.67237 0.0
O20 O 0.97345 0.75809 0.67236 0.0
C21 C 0.02035 0.78061 0.62635 0.0
O22 O 0.03534 0.7707 0.63498 0.0
C23 C 0.98577 0.71239 0.61347 0.0
O24 O 0.98123 0.72897 0.60155 0.0
O25 O 0.02308 0.76009 0.67744 0.0
C26 C 0.65217 0.83734 0.87136 0.0
O27 O 0.65493 0.83674 0.89472 0.0
O28 O 0.60657 0.80551 0.89707 0.0
Zn29 Zn 0.60929 0.83262 0.8789 0.0
O30 O 0.61312 0.86394 0.90165 0.0
C31 C 0.56754 0.80606 0.85033 0.0
O32 O 0.5704 0.78674 0.85878 0.0
O33 O 0.63341 0.83545 0.86044 0.0
C34 C 0.60445 0.87977 0.89437 0.0
O35 O 0.59472 0.87547 0.87179 0.0
C36 C 0.59533 0.80718 0.91434 0.0
O37 O 0.58846 0.82706 0.92003 0.0
O38 O 0.58209 0.82624 0.85618 0.0
C39 C 0.45154 0.23816 0.16796 0.0
O40 O 0.4448 0.22184 0.14758 0.0
O41 O 0.48797 0.21517 0.13149 0.0
Zn42 Zn 0.49353 0.24822 0.15239 0.0
O43 O 0.49804 0.27463 0.13323 0.0
C44 C 0.53159 0.23889 0.17534 0.0
O45 O 0.52458 0.21743 0.16056 0.0
O46 O 0.47105 0.25091 0.17263 0.0
C47 C 0.51709 0.28202 0.12805 0.0
O48 O 0.5323 0.27138 0.13453 0.0
C49 C 0.48943 0.2131 0.10896 0.0
O50 O 0.49047 0.23231 0.09866 0.0
O51 O 0.52059 0.25463 0.17531 0.0
C52 C 0.04798 0.80395 0.13285 0.0
O53 O 0.04576 0.80055 0.10894 0.0
O54 O 0.08514 0.78473 0.09989 0.0
Zn55 Zn 0.09283 0.81626 0.12502 0.0
O56 O 0.0921 0.84685 0.10938 0.0
C57 C 0.13003 0.79903 0.14615 0.0
O58 O 0.11809 0.77806 0.13302 0.0
O59 O 0.0672 0.81132 0.14486 0.0
C60 C 0.08271 0.84572 0.08785 0.0
O61 O 0.07427 0.82405 0.07378 0.0
C62 C 0.09347 0.77805 0.08114 0.0
O63 O 0.10947 0.79369 0.07463 0.0
O64 O 0.12289 0.81825 0.1461 0.0
C65 C 0.56042 0.79322 0.40492 0.0
O66 O 0.56153 0.80765 0.42602 0.0
O67 O 0.5161 0.73902 0.42706 0.0
Zn68 Zn 0.51629 0.77107 0.414 0.0
O69 O 0.52175 0.80127 0.44098 0.0
C70 C 0.46908 0.76052 0.38995 0.0
O71 O 0.46414 0.74593 0.40551 0.0
O72 O 0.54285 0.7767 0.39614 0.0
C73 C 0.50656 0.81141 0.44583 0.0
O74 O 0.48647 0.80008 0.43585 0.0
C75 C 0.51602 0.73642 0.4492 0.0
O76 O 0.51386 0.75464 0.46556 0.0
O77 O 0.48907 0.77125 0.39005 0.0
C78 C 0.54696 0.30477 0.63225 0.0
O79 O 0.54462 0.30217 0.60841 0.0
O80 O 0.58384 0.2844 0.59888 0.0
Zn81 Zn 0.59176 0.31587 0.62404 0.0
O82 O 0.59192 0.34657 0.60844 0.0
C83 C 0.63233 0.30134 0.63939 0.0
O84 O 0.62495 0.28442 0.6196 0.0
O85 O 0.56622 0.31122 0.6441 0.0
C86 C 0.58049 0.34522 0.58799 0.0
O87 O 0.5696 0.32347 0.57555 0.0
C88 C 0.59057 0.27851 0.57877 0.0
O89 O 0.60458 0.29508 0.57066 0.0
O90 O 0.62144 0.31716 0.64508 0.0
C91 C 0.05966 0.27753 0.90606 0.0
O92 O 0.06091 0.27396 0.92861 0.0
O93 O 0.01376 0.23849 0.92636 0.0
Zn94 Zn 0.01466 0.27031 0.91249 0.0
O95 O 0.02181 0.30111 0.93907 0.0
C96 C 0.96688 0.26321 0.89138 0.0
O97 O 0.96199 0.25249 0.90981 0.0
O98 O 0.04106 0.27616 0.89447 0.0
C99 C 0.00685 0.31093 0.94547 0.0
O100 O 0.98648 0.29912 0.93742 0.0
C101 C 0.02107 0.23883 0.94849 0.0
O102 O 0.02769 0.26008 0.96371 0.0
O103 O 0.98696 0.27051 0.88887 0.0
C104 C 0.41732 0.08102 0.29461 0.0
O105 O 0.4383 0.08637 0.29343 0.0
O106 O 0.44787 0.04421 0.27497 0.0
Zn107 Zn 0.42357 0.0348 0.29369 0.0
O108 O 0.43326 0.02787 0.32507 0.0
C109 C 0.40858 0.99167 0.25583 0.0
O110 O 0.42865 0.99619 0.25107 0.0
O111 O 0.40781 0.05996 0.29783 0.0
C112 C 0.43909 1.00836 0.32632 0.0
O113 O 0.43747 0.99195 0.30643 0.0
C114 C 0.46557 0.03788 0.27741 0.0
O115 O 0.47132 0.03009 0.2971 0.0
O116 O 0.4034 1.00536 0.27323 0.0
C117 C 0.32521 0.17733 0.51687 0.0
O118 O 0.32724 0.19908 0.53029 0.0
O119 O 0.28649 0.20669 0.53068 0.0
Zn120 Zn 0.28404 0.18542 0.49809 0.0
O121 O 0.29087 0.20607 0.47193 0.0
C122 C 0.23712 0.16915 0.49951 0.0
O123 O 0.24012 0.19278 0.50776 0.0
O124 O 0.30796 0.16737 0.50156 0.0
C125 C 0.27689 0.21159 0.45759 0.0
O126 O 0.25614 0.20411 0.45949 0.0
C127 C 0.28875 0.22955 0.53774 0.0
O128 O 0.28957 0.24408 0.5218 0.0
O129 O 0.25325 0.16144 0.49274 0.0
C130 C 0.19055 0.96695 0.77245 0.0
O131 O 0.1698 0.95661 0.77205 0.0
O132 O 0.15608 0.01804 0.74094 0.0
Zn133 Zn 0.17581 0.02012 0.77671 0.0
O134 O 0.15727 0.01808 0.80953 0.0
C135 C 0.19865 0.07183 0.76556 0.0
O136 O 0.18739 0.06179 0.74393 0.0
O137 O 0.19611 0.99082 0.77384 0.0
C138 C 0.14255 0.0289 0.8167 0.0
O139 O 0.13612 0.04297 0.80275 0.0
C140 C 0.13585 0.01685 0.73394 0.0
O141 O 0.12236 0.01436 0.75009 0.0
O142 O 0.19711 0.05846 0.78222 0.0
C143 C 0.27495 0.95327 0.01212 0.0
O144 O 0.27352 0.93021 0.01354 0.0
O145 O 0.31662 0.92863 0.02462 0.0
Zn146 Zn 0.3152 0.95026 1.00088 0.0
O147 O 0.31128 0.9294 0.96846 0.0
C148 C 0.35259 0.98124 0.03039 0.0
O149 O 0.3415 0.97552 0.04799 0.0
O150 O 0.29171 0.96584 0.00555 0.0
C151 C 0.32776 0.92897 0.95774 0.0
O152 O 0.34642 0.94513 0.96646 0.0
C153 C 0.32983 0.91521 0.02267 0.0
O154 O 0.34024 0.91395 1.00373 0.0
O155 O 0.34347 0.97468 0.0084 0.0
C156 C 0.27815 0.40789 0.02767 0.0
O157 O 0.27477 0.38396 0.02121 0.0
O158 O 0.31989 0.38732 0.07155 0.0
Zn159 Zn 0.32146 0.4032 0.04092 0.0
O160 O 0.31704 0.3806 0.00763 0.0
C161 C 0.36601 0.42165 0.03193 0.0
O162 O 0.36125 0.39972 0.01799 0.0
O163 O 0.29713 0.42066 0.0377 0.0
C164 C 0.3181 0.35884 0.9994 0.0
O165 O 0.32297 0.34495 0.01443 0.0
C166 C 0.31066 0.36525 0.07277 0.0
O167 O 0.30058 0.34972 0.05277 0.0
O168 O 0.35165 0.42772 0.04417 0.0
C169 C 0.82712 0.1295 0.03245 0.0
O170 O 0.83138 0.15309 0.04168 0.0
O171 O 0.79298 0.15746 0.06805 0.0
Zn172 Zn 0.78868 0.13826 0.0345 0.0
O173 O 0.79262 0.15954 0.0102 0.0
C174 C 0.74684 0.13765 0.02574 0.0
O175 O 0.75654 0.16115 0.03287 0.0
O176 O 0.8077 0.11646 0.02914 0.0
C177 C 0.78691 0.14732 0.98862 0.0
O178 O 0.78386 0.12334 0.98472 0.0
C179 C 0.7999 0.1806 0.07116 0.0
O180 O 0.80682 0.19066 0.05304 0.0
O181 O 0.75787 0.12183 0.02608 0.0
C182 C 0.18797 0.50752 0.23846 0.0
O183 O 0.16679 0.5022 0.23808 0.0
O184 O 0.16772 0.55468 0.20593 0.0
Zn185 Zn 0.18298 0.55392 0.23673 0.0
O186 O 0.16309 0.55108 0.26132 0.0
C187 C 0.19746 0.6036 0.25126 0.0
O188 O 0.18101 0.60356 0.23524 0.0
O189 O 0.19798 0.52824 0.23488 0.0
C190 C 0.15012 0.56475 0.26418 0.0
O191 O 0.14653 0.57795 0.24794 0.0
C192 C 0.14882 0.54035 0.20101 0.0
O193 O 0.14157 0.52588 0.21591 0.0
O194 O 0.20394 0.58437 0.25126 0.0
C195 C 0.77989 0.90763 0.52434 0.0
O196 O 0.77715 0.8849 0.51285 0.0
O197 O 0.82317 0.88481 0.56883 0.0
Zn198 Zn 0.82343 0.90235 0.53945 0.0
O199 O 0.82037 0.88064 0.50636 0.0
C200 C 0.86928 0.91961 0.53673 0.0
O201 O 0.86678 0.89575 0.53105 0.0
O202 O 0.79814 0.91882 0.53747 0.0
C203 C 0.82096 0.85848 0.49979 0.0
O204 O 0.82385 0.84508 0.5161 0.0
C205 C 0.80825 0.86637 0.57111 0.0
O206 O 0.79206 0.85674 0.55319 0.0
O207 O 0.85292 0.92754 0.54214 0.0
C208 C 0.9116 0.11843 0.27236 0.0
O209 O 0.92857 0.12541 0.28954 0.0
O210 O 0.94648 0.06697 0.22422 0.0
Zn211 Zn 0.92839 0.06728 0.2578 0.0
O212 O 0.94804 0.07152 0.29415 0.0
C213 C 0.91084 0.00957 0.25229 0.0
O214 O 0.93035 0.00929 0.24696 0.0
O215 O 0.90865 0.09682 0.25844 0.0
C216 C 0.96384 0.06236 0.30111 0.0
O217 O 0.97196 0.04978 0.28438 0.0
C218 C 0.96118 0.05602 0.21714 0.0
O219 O 0.96823 0.04292 0.23177 0.0
O220 O 0.90615 0.03061 0.25613 0.0
C221 C 0.33258 0.63891 0.5195 0.0
O222 O 0.3311 0.65856 0.51083 0.0
O223 O 0.29384 0.66351 0.56339 0.0
Zn224 Zn 0.29161 0.64046 0.53251 0.0
O225 O 0.28663 0.65741 0.50502 0.0
C226 C 0.25714 0.60802 0.54835 0.0
O227 O 0.26772 0.61884 0.57013 0.0
O228 O 0.31775 0.62876 0.53064 0.0
C229 C 0.26722 0.65319 0.49454 0.0
O230 O 0.2514 0.63832 0.50208 0.0
C231 C 0.28134 0.67782 0.565 0.0
O232 O 0.26784 0.67794 0.54585 0.0
O233 O 0.2661 0.61202 0.5298 0.0
C234 C 0.41547 0.62128 0.76789 0.0
O235 O 0.43644 0.63096 0.77483 0.0
O236 O 0.44673 0.56894 0.72552 0.0
Zn237 Zn 0.42932 0.56837 0.75929 0.0
O238 O 0.4509 0.57385 0.79439 0.0
C239 C 0.41071 0.50992 0.7514 0.0
O240 O 0.42845 0.509 0.7417 0.0
O241 O 0.40921 0.59737 0.76127 0.0
C242 C 0.46068 0.55796 0.80091 0.0
O243 O 0.45929 0.53811 0.78465 0.0
C244 C 0.46105 0.55819 0.71693 0.0
O245 O 0.46844 0.54382 0.72975 0.0
O246 O 0.40746 0.5314 0.7584 0.0
C247 C 0.68232 1.00079 0.74655 0.0
O248 O 0.66538 1.00216 0.75764 0.0
O249 O 0.66102 0.04782 0.7092 0.0
Zn250 Zn 0.67879 0.04569 0.73773 0.0
O251 O 0.66315 0.04954 0.76629 0.0
C252 C 0.70198 0.09312 0.74071 0.0
O253 O 0.68614 0.09293 0.72381 0.0
O254 O 0.68875 0.01608 0.73327 0.0
C255 C 0.65728 0.06928 0.77149 0.0
O256 O 0.65942 0.08508 0.75686 0.0
C257 C 0.64087 0.03828 0.70737 0.0
O258 O 0.63303 0.02549 0.72337 0.0
O259 O 0.70429 0.07325 0.74625 0.0
C260 C 0.82787 0.67911 0.0074 0.0
O261 O 0.83207 0.70302 0.00887 0.0
O262 O 0.79061 0.70863 0.03042 0.0
Zn263 Zn 0.7851 0.68529 0.99822 0.0
O264 O 0.79134 0.70439 0.97076 0.0
C265 C 0.73926 0.66867 0.00549 0.0
O266 O 0.74413 0.69065 0.01929 0.0
O267 O 0.80814 0.66637 1.002 0.0
C268 C 0.7767 0.70931 0.9568 0.0
O269 O 0.75626 0.70203 0.96003 0.0
C270 C 0.78553 0.72881 0.0363 0.0
O271 O 0.77505 0.73738 0.01981 0.0
O272 O 0.75381 0.66215 0.99386 0.0
C273 C 0.90502 0.56729 0.79633 0.0
O274 O 0.9256 0.57518 0.80618 0.0
O275 O 0.93731 0.53974 0.76221 0.0
Zn276 Zn 0.92039 0.52838 0.78748 0.0
O277 O 0.93723 0.53422 0.81981 0.0
C278 C 0.91804 0.47885 0.76394 0.0
O279 O 0.93627 0.48694 0.75563 0.0
O280 O 0.897 0.54449 0.78873 0.0
C281 C 0.94932 0.52004 0.82285 0.0
O282 O 0.95081 0.50319 0.8047 0.0
C283 C 0.95753 0.5416 0.76314 0.0
O284 O 0.96946 0.54489 0.78444 0.0
O285 O 0.90907 0.49317 0.7766 0.0
C286 C 0.77729 0.45317 0.50728 0.0
O287 O 0.77449 0.43002 0.4971 0.0
O288 O 0.82013 0.42891 0.52672 0.0
Zn289 Zn 0.81934 0.45221 0.5047 0.0
O290 O 0.81456 0.43149 0.47154 0.0
C291 C 0.85663 0.48311 0.5346 0.0
O292 O 0.84625 0.4747 0.55173 0.0
O293 O 0.7961 0.46763 0.51161 0.0
C294 C 0.83052 0.42994 0.46018 0.0
O295 O 0.8497 0.44527 0.46834 0.0
C296 C 0.83632 0.41969 0.52641 0.0
O297 O 0.85046 0.42549 0.51155 0.0
O298 O 0.84747 0.47714 0.51258 0.0
C299 C 0.69135 0.4675 0.26509 0.0
O300 O 0.67324 0.46019 0.24953 0.0
O301 O 0.65666 0.51555 0.24219 0.0
Zn302 Zn 0.67628 0.51966 0.27849 0.0
O303 O 0.65772 0.51889 0.31135 0.0
C304 C 0.6945 0.57392 0.27023 0.0
O305 O 0.67618 0.56791 0.25511 0.0
O306 O 0.69572 0.48986 0.27781 0.0
C307 C 0.64254 0.52923 0.31791 0.0
O308 O 0.63562 0.54241 0.30327 0.0
C309 C 0.6379 0.51909 0.2351 0.0
O310 O 0.62589 0.52468 0.25169 0.0
O311 O 0.69841 0.55745 0.28226 0.0
Ho312 Ho 0.03043 0.02587 0.9988 0.0
Ho313 Ho 0.07 0.05508 0.03262 0.0
C314 C 0.04506 0.08568 1.00323 0.0
C315 C 0.98955 0.00937 0.98192 0.0
C316 C 0.97327 0.02348 0.98266 0.0
C317 C 0.97943 0.04764 0.99589 0.0
C318 C 0.96507 0.06235 0.99582 0.0
C319 C 0.94362 0.05267 0.98386 0.0
C320 C 0.93747 0.02852 0.97013 0.0
C321 C 0.95238 0.01406 0.9693 0.0
C322 C 0.06316 0.0267 0.97021 0.0
C323 C 0.05649 0.99539 0.02733 0.0
C324 C 0.11038 0.07248 0.05074 0.0
C325 C 0.12785 0.06007 0.05119 0.0
C326 C 0.12644 0.03915 0.03339 0.0
C327 C 0.14216 0.02604 0.035 0.0
C328 C 0.15931 0.03372 0.05442 0.0
C329 C 0.16048 0.05424 0.07248 0.0
C330 C 0.14467 0.06728 0.07096 0.0
C331 C 0.03687 0.05428 0.06092 0.0
O332 O 0.03082 0.06451 0.99384 0.0
O333 O 0.06214 0.08717 0.01911 0.0
O334 O 1.00441 0.01653 0.96851 0.0
O335 O 0.99792 1.0065 1.00313 0.0
O336 O 0.04303 0.01447 0.96395 0.0
O337 O 0.06564 0.03704 0.99296 0.0
O338 O 0.07114 0.01649 0.03583 0.0
O339 O 0.0387 0.99397 0.01251 0.0
O340 O 0.0953 0.06423 0.06348 0.0
O341 O 0.10244 0.07543 0.02935 0.0
O342 O 0.05698 0.06629 0.06755 0.0
O343 O 0.03486 0.04408 0.03823 0.0
H344 H 0.9953 0.05511 0.00669 0.0
H345 H 0.97057 0.08106 0.00599 0.0
H346 H 0.921 0.0205 0.96084 0.0
H347 H 0.94753 0.99549 0.95873 0.0
H348 H 0.1132 0.03298 0.0183 0.0
H349 H 0.14134 0.01042 0.02074 0.0
H350 H 0.17382 0.06036 0.08744 0.0
H351 H 0.14553 0.08295 0.08517 0.0
Ho352 Ho 0.31496 0.7887 0.24163 0.0
Ho353 Ho 0.30025 0.79112 0.2852 0.0
C354 C 0.31843 0.84056 0.27505 0.0
C355 C 0.32789 0.79468 0.20061 0.0
C356 C 0.34452 0.81335 0.19325 0.0
C357 C 0.34736 0.83843 0.20271 0.0
C358 C 0.35816 0.85592 0.19049 0.0
C359 C 0.36585 0.84824 0.16878 0.0
C360 C 0.36667 0.82373 0.16225 0.0
C361 C 0.35571 0.80619 0.17432 0.0
C362 C 0.34648 0.78697 0.2775 0.0
C363 C 0.29674 0.7397 0.25349 0.0
C364 C 0.28726 0.78264 0.32561 0.0
C365 C 0.26944 0.76481 0.33246 0.0
C366 C 0.26896 0.73973 0.32906 0.0
C367 C 0.25552 0.72438 0.34128 0.0
C368 C 0.24279 0.73414 0.35722 0.0
C369 C 0.24073 0.75809 0.35747 0.0
C370 C 0.25416 0.77345 0.34525 0.0
C371 C 0.26866 0.7937 0.24946 0.0
O372 O 0.3137 0.82788 0.25263 0.0
O373 O 0.31969 0.82936 0.29335 0.0
O374 O 0.33501 0.7809 0.21403 0.0
O375 O 0.31124 0.80175 0.20802 0.0
O376 O 0.34095 0.77215 0.25668 0.0
O377 O 0.33457 0.80182 0.27914 0.0
O378 O 0.30433 0.75323 0.27506 0.0
O379 O 0.29443 0.75067 0.23516 0.0
O380 O 0.28176 0.79896 0.31437 0.0
O381 O 0.30263 0.77419 0.31657 0.0
O382 O 0.27405 0.8076 0.27075 0.0
O383 O 0.2804 0.77857 0.24756 0.0
H384 H 0.33936 0.84437 0.21785 0.0
H385 H 0.35741 0.87482 0.19575 0.0
H386 H 0.37257 0.81755 0.14552 0.0
H387 H 0.35411 0.7869 0.1673 0.0
H388 H 0.28028 0.73247 0.31882 0.0
H389 H 0.25734 0.7059 0.3408 0.0
H390 H 0.23084 0.76582 0.36956 0.0
H391 H 0.25397 0.79262 0.34764 0.0
Ho392 Ho 0.57943 0.04745 0.50854 0.0
Ho393 Ho 0.53009 0.04396 0.51516 0.0
C394 C 0.54413 0.9938 0.50425 0.0
C395 C 0.61882 0.0426 0.51149 0.0
C396 C 0.63062 0.023 0.50837 0.0
C397 C 0.63417 0.01053 0.52739 0.0
C398 C 0.64815 0.995 0.52598 0.0
C399 C 0.65877 0.99142 0.5055 0.0
C400 C 0.65427 1.00262 0.48581 0.0
C401 C 0.64044 0.01843 0.48731 0.0
C402 C 0.55163 0.04499 0.46893 0.0
C403 C 0.56513 0.09753 0.51997 0.0
C404 C 0.49064 0.04838 0.51349 0.0
C405 C 0.47875 0.0676 0.51854 0.0
C406 C 0.47654 0.08301 0.50184 0.0
C407 C 0.46226 0.09807 0.50442 0.0
C408 C 0.4499 0.09812 0.52374 0.0
C409 C 0.45326 0.08414 0.54146 0.0
C410 C 0.46746 0.06888 0.53879 0.0
C411 C 0.55677 0.0437 0.55399 0.0
O412 O 0.56484 1.00693 0.50904 0.0
O413 O 0.52768 1.00418 0.50221 0.0
O414 O 0.6084 0.04646 0.49183 0.0
O415 O 0.60822 0.04444 0.53026 0.0
O416 O 0.57195 0.05709 0.47157 0.0
O417 O 0.54805 0.03395 0.48606 0.0
O418 O 0.54459 0.08427 0.51633 0.0
O419 O 0.58197 0.08767 0.5201 0.0
O420 O 0.50102 0.04288 0.53224 0.0
O421 O 0.50139 0.04863 0.49482 0.0
O422 O 0.53644 0.03158 0.55003 0.0
O423 O 0.5615 0.05666 0.53837 0.0
H424 H 0.62692 0.01355 0.54388 0.0
H425 H 0.65133 0.98646 0.54135 0.0
H426 H 0.66241 1.00027 0.4699 0.0
H427 H 0.63816 0.02787 0.4724 0.0
H428 H 0.48506 0.08265 0.48611 0.0
H429 H 0.46018 0.10895 0.49069 0.0
H430 H 0.44389 0.08382 0.55651 0.0
H431 H 0.46882 0.0572 0.55194 0.0
Ho432 Ho 0.27819 0.30144 0.76773 0.0
Ho433 Ho 0.32556 0.28873 0.76844 0.0
C434 C 0.30871 0.30664 0.81893 0.0
C435 C 0.23742 0.29882 0.77024 0.0
C436 C 0.223 0.30166 0.7891 0.0
C437 C 0.21618 0.28306 0.80234 0.0
C438 C 0.2009 0.28491 0.81829 0.0
C439 C 0.192 0.30537 0.8214 0.0
C440 C 0.19941 0.32436 0.80877 0.0
C441 C 0.21467 0.32248 0.79276 0.0
C442 C 0.31141 0.34306 0.76737 0.0
C443 C 0.29424 0.28207 0.71711 0.0
C444 C 0.36627 0.29324 0.76379 0.0
C445 C 0.38025 0.28739 0.7451 0.0
C446 C 0.3842 0.30153 0.72692 0.0
C447 C 0.39993 0.29857 0.71181 0.0
C448 C 0.41227 0.28148 0.71448 0.0
C449 C 0.40754 0.26648 0.73183 0.0
C450 C 0.39178 0.26945 0.74698 0.0
C451 C 0.29242 0.24719 0.76928 0.0
O452 O 0.28883 0.30353 0.80737 0.0
O453 O 0.32585 0.3046 0.80793 0.0
O454 O 0.25145 0.31872 0.7678 0.0
O455 O 0.24553 0.27966 0.76812 0.0
O456 O 0.29105 0.3425 0.76805 0.0
O457 O 0.31241 0.32098 0.76737 0.0
O458 O 0.3133 0.28198 0.72872 0.0
O459 O 0.27815 0.28808 0.72784 0.0
O460 O 0.35463 0.27514 0.7723 0.0
O461 O 0.35591 0.31 0.76081 0.0
O462 O 0.31285 0.24766 0.76885 0.0
O463 O 0.29138 0.2692 0.76891 0.0
H464 H 0.22215 0.2667 0.79992 0.0
H465 H 0.19541 0.26975 0.82741 0.0
H466 H 0.19318 0.34054 0.81095 0.0
H467 H 0.21956 0.33711 0.78279 0.0
H468 H 0.37577 0.31563 0.72493 0.0
H469 H 0.40318 0.31063 0.69887 0.0
H470 H 0.41642 0.25283 0.73414 0.0
H471 H 0.38917 0.25828 0.76078 0.0
Ho472 Ho 0.05073 0.07327 0.53018 0.0
Ho473 Ho 0.05416 0.01867 0.50696 0.0
C474 C 0.03365 0.04981 0.47087 0.0
C475 C 0.05585 0.11986 0.53923 0.0
C476 C 0.05307 0.13617 0.52219 0.0
C477 C 0.06262 0.13495 0.50072 0.0
C478 C 0.0597 0.15034 0.48457 0.0
C479 C 0.04681 0.16694 0.48936 0.0
C480 C 0.0359 0.16674 0.50989 0.0
C481 C 0.03916 0.1516 0.52627 0.0
C482 C 0.01387 0.03803 0.53269 0.0
C483 C 0.07049 0.04154 0.56632 0.0
C484 C 0.04925 0.97222 0.49671 0.0
C485 C 0.05006 0.95522 0.51334 0.0
C486 C 0.03958 0.95681 0.53416 0.0
C487 C 0.041 0.94096 0.55022 0.0
C488 C 0.0533 0.92385 0.54587 0.0
C489 C 0.06484 0.92319 0.52598 0.0
C490 C 0.06323 0.93887 0.50975 0.0
C491 C 0.09104 0.05414 0.50485 0.0
O492 O 0.04013 0.06962 0.48891 0.0
O493 O 0.03597 0.02781 0.47397 0.0
O494 O 0.03783 0.10435 0.54138 0.0
O495 O 0.07229 0.10985 0.53778 0.0
O496 O 0.01702 0.06131 0.54097 0.0
O497 O 0.03107 0.03543 0.52453 0.0
O498 O 0.06365 0.02175 0.5483 0.0
O499 O 0.06885 0.0638 0.56315 0.0
O500 O 0.06787 0.98801 0.4973 0.0
O501 O 0.03269 0.98213 0.49632 0.0
O502 O 0.08815 0.03089 0.49671 0.0
O503 O 0.07363 0.05645 0.51255 0.0
H504 H 0.07262 0.12239 0.49651 0.0
H505 H 0.06846 0.15006 0.46903 0.0
H506 H 0.02544 0.1789 0.51373 0.0
H507 H 0.03094 0.15207 0.54224 0.0
H508 H 0.0301 0.97003 0.53792 0.0
H509 H 0.03177 0.94131 0.5654 0.0
H510 H 0.07419 0.90975 0.52241 0.0
H511 H 0.07202 0.93803 0.49423 0.0
Ho512 Ho 0.32145 0.81112 0.76916 0.0
Ho513 Ho 0.28031 0.77272 0.7714 0.0
C514 C 0.32433 0.75299 0.77262 0.0
C515 C 0.36058 0.83859 0.77887 0.0
C516 C 0.38181 0.83281 0.78214 0.0
C517 C 0.38821 0.82361 0.8027 0.0
C518 C 0.40806 0.81758 0.80536 0.0
C519 C 0.42188 0.82085 0.78769 0.0
C520 C 0.41559 0.8299 0.76713 0.0
C521 C 0.39561 0.83576 0.76431 0.0
C522 C 0.29971 0.78513 0.72639 0.0
C523 C 0.27758 0.83119 0.76816 0.0
C524 C 0.24146 0.74535 0.7592 0.0
C525 C 0.22042 0.7517 0.75802 0.0
C526 C 0.21131 0.757 0.73636 0.0
C527 C 0.19205 0.76436 0.73544 0.0
C528 C 0.18141 0.7663 0.75607 0.0
C529 C 0.19058 0.76127 0.7778 0.0
C530 C 0.20992 0.75397 0.77877 0.0
C531 C 0.30159 0.79773 0.8146 0.0
O532 O 0.33469 0.77687 0.77471 0.0
O533 O 0.30261 0.74645 0.76961 0.0
O534 O 0.34976 0.83204 0.75676 0.0
O535 O 0.34821 0.83377 0.79556 0.0
O536 O 0.30949 0.80835 0.72938 0.0
O537 O 0.30308 0.77732 0.74557 0.0
O538 O 0.26727 0.80759 0.76785 0.0
O539 O 0.29922 0.83748 0.76952 0.0
O540 O 0.25239 0.7485 0.78103 0.0
O541 O 0.25377 0.75305 0.74327 0.0
O542 O 0.29075 0.7748 0.81128 0.0
O543 O 0.29892 0.80618 0.79556 0.0
H544 H 0.37798 0.82112 0.81682 0.0
H545 H 0.41291 0.81101 0.82156 0.0
H546 H 0.42622 0.83258 0.75339 0.0
H547 H 0.39097 0.84267 0.74827 0.0
H548 H 0.21899 0.75537 0.72004 0.0
H549 H 0.18503 0.76753 0.71827 0.0
H550 H 0.18257 0.76255 0.7939 0.0
H551 H 0.21659 0.75008 0.79574 0.0
Ho552 Ho 0.55562 0.03276 0.05091 0.0
Ho553 Ho 0.54945 0.03731 0.99901 0.0
C554 C 0.50821 0.01374 0.01715 0.0
C555 C 0.54878 0.02515 0.09315 0.0
C556 C 0.53142 1.00548 0.0982 0.0
C557 C 0.50966 1.00166 0.08755 0.0
C558 C 0.49306 0.98533 0.09525 0.0
C559 C 0.49816 0.97509 0.11541 0.0
C560 C 0.51971 0.97383 0.1213 0.0
C561 C 0.53648 0.98976 0.11329 0.0
C562 C 0.56366 0.99617 0.02011 0.0
C563 C 0.59651 0.05741 0.032 0.0
C564 C 0.5567 0.04338 0.95627 0.0
C565 C 0.57375 0.06218 0.94923 0.0
C566 C 0.59518 0.05972 0.94945 0.0
C567 C 0.6102 0.07559 0.93922 0.0
C568 C 0.60378 0.09372 0.92841 0.0
C569 C 0.5837 0.09869 0.93185 0.0
C570 C 0.56861 0.08275 0.94187 0.0
C571 C 0.54151 0.07402 0.03021 0.0
O572 O 0.5197 0.02436 0.03862 0.0
O573 O 0.51725 0.01166 0.99722 0.0
O574 O 0.56379 0.01762 0.08233 0.0
O575 O 0.5426 0.04256 0.08406 0.0
O576 O 0.57509 1.00593 0.04116 0.0
O577 O 0.54803 1.00566 0.01648 0.0
O578 O 0.58531 0.04601 0.01064 0.0
O579 O 0.58726 0.05953 0.05186 0.0
O580 O 0.54175 0.05143 0.96681 0.0
O581 O 0.56316 0.02686 0.96655 0.0
O582 O 0.53065 0.06509 0.00874 0.0
O583 O 0.55716 0.06462 0.03374 0.0
H584 H 0.50515 0.01276 0.0751 0.0
H585 H 0.47638 0.98561 0.08966 0.0
H586 H 0.5239 0.96473 0.13588 0.0
H587 H 0.55324 0.99124 0.12044 0.0
H588 H 0.59992 0.04459 0.95589 0.0
H589 H 0.62569 0.07151 0.93682 0.0
H590 H 0.57857 0.11273 0.92368 0.0
H591 H 0.55244 0.08558 0.94225 0.0
Ho592 Ho 0.31869 0.32717 0.2872 0.0
Ho593 Ho 0.2994 0.27214 0.264 0.0
C594 C 0.26643 0.30463 0.27251 0.0
C595 C 0.32794 0.37369 0.30314 0.0
C596 C 0.31391 0.39023 0.30202 0.0
C597 C 0.29737 0.3853 0.28214 0.0
C598 C 0.28129 0.39784 0.28291 0.0
C599 C 0.28147 0.41536 0.30361 0.0
C600 C 0.29832 0.42081 0.32328 0.0
C601 C 0.31446 0.40813 0.32253 0.0
C602 C 0.31625 0.29483 0.31765 0.0
C603 C 0.35059 0.29698 0.26891 0.0
C604 C 0.28887 0.2254 0.25931 0.0
C605 C 0.30043 0.2076 0.24954 0.0
C606 C 0.3229 0.21187 0.25697 0.0
C607 C 0.33369 0.19441 0.24877 0.0
C608 C 0.32222 0.17245 0.23301 0.0
C609 C 0.30009 0.16877 0.22437 0.0
C610 C 0.28924 0.18642 0.23252 0.0
C611 C 0.30546 0.29762 0.22733 0.0
O612 O 0.28304 0.32448 0.27674 0.0
O613 O 0.26891 0.28218 0.26953 0.0
O614 O 0.32189 0.35756 0.31675 0.0
O615 O 0.33275 0.36404 0.28224 0.0
O616 O 0.333 0.31317 0.31881 0.0
O617 O 0.30206 0.2945 0.30027 0.0
O618 O 0.3355 0.27701 0.26986 0.0
O619 O 0.34719 0.31899 0.27189 0.0
O620 O 0.28089 0.23658 0.24342 0.0
O621 O 0.29858 0.24022 0.27982 0.0
O622 O 0.29814 0.274 0.22421 0.0
O623 O 0.30958 0.30628 0.24996 0.0
H624 H 0.29644 0.37121 0.26631 0.0
H625 H 0.26873 0.39385 0.26726 0.0
H626 H 0.29873 0.43446 0.33929 0.0
H627 H 0.3269 0.41165 0.33821 0.0
H628 H 0.33204 0.22826 0.26982 0.0
H629 H 0.35067 0.19736 0.25612 0.0
H630 H 0.29105 0.1518 0.2123 0.0
H631 H 0.27202 0.18318 0.22619 0.0
Ho632 Ho 0.54935 0.56867 0.03056 0.0
Ho633 Ho 0.55564 0.52242 0.00853 0.0
C634 C 0.53473 0.54964 0.97073 0.0
C635 C 0.54825 0.61389 0.03967 0.0
C636 C 0.54771 0.63073 0.0227 0.0
C637 C 0.56164 0.63189 1.00484 0.0
C638 C 0.56092 0.64769 0.98857 0.0
C639 C 0.54607 0.66235 0.98964 0.0
C640 C 0.53136 0.66015 0.00667 0.0
C641 C 0.53226 0.64451 0.02317 0.0
C642 C 0.51643 0.53055 0.03493 0.0
C643 C 0.56958 0.54084 0.06819 0.0
C644 C 0.557 0.47729 0.99915 0.0
C645 C 0.55512 0.45949 0.01526 0.0
C646 C 0.54086 0.45966 0.03274 0.0
C647 C 0.53904 0.44272 0.04806 0.0
C648 C 0.55161 0.42559 0.04629 0.0
C649 C 0.56671 0.42627 0.02973 0.0
C650 C 0.5684 0.44314 0.01421 0.0
C651 C 0.58864 0.56053 1.00423 0.0
O652 O 0.54009 0.56845 0.98958 0.0
O653 O 0.53797 0.52821 0.97382 0.0
O654 O 0.53083 0.59575 0.03687 0.0
O655 O 0.56625 0.60692 0.04283 0.0
O656 O 0.52504 0.54964 0.05203 0.0
O657 O 0.52557 0.53277 0.01616 0.0
O658 O 0.56295 0.52191 0.04953 0.0
O659 O 0.56772 0.56275 0.06491 0.0
O660 O 0.57449 0.4955 1.00489 0.0
O661 O 0.53939 0.48441 0.99374 0.0
O662 O 0.58014 0.54133 0.98728 0.0
O663 O 0.57945 0.55836 0.02297 0.0
H664 H 0.57333 0.62089 1.00363 0.0
H665 H 0.57264 0.64913 0.97587 0.0
H666 H 0.51948 0.6709 0.00759 0.0
H667 H 0.52099 0.64327 0.03638 0.0
H668 H 0.53094 0.47269 0.03438 0.0
H669 H 0.52752 0.44268 0.06098 0.0
H670 H 0.57653 0.41315 0.02812 0.0
H671 H 0.57985 0.44325 1.00121 0.0
Ho672 Ho 0.82126 0.31104 0.26951 0.0
Ho673 Ho 0.77984 0.27329 0.27034 0.0
C674 C 0.8233 0.25277 0.27175 0.0
C675 C 0.86051 0.33811 0.27782 0.0
C676 C 0.8813 0.33177 0.28192 0.0
C677 C 0.88394 0.31549 0.29753 0.0
C678 C 0.90395 0.3103 0.30219 0.0
C679 C 0.9216 0.32123 0.29129 0.0
C680 C 0.91864 0.33634 0.27456 0.0
C681 C 0.89855 0.34165 0.26995 0.0
C682 C 0.79908 0.28774 0.22589 0.0
C683 C 0.77793 0.33189 0.26842 0.0
C684 C 0.74059 0.24674 0.25931 0.0
C685 C 0.71979 0.2536 0.25884 0.0
C686 C 0.71206 0.26333 0.23931 0.0
C687 C 0.69225 0.26952 0.2388 0.0
C688 C 0.67978 0.26591 0.25767 0.0
C689 C 0.68792 0.25729 0.27773 0.0
C690 C 0.70776 0.25109 0.27827 0.0
C691 C 0.80074 0.29801 0.31436 0.0
O692 O 0.83377 0.27676 0.27627 0.0
O693 O 0.80163 0.24639 0.26665 0.0
O694 O 0.8497 0.33003 0.25583 0.0
O695 O 0.84818 0.33506 0.29487 0.0
O696 O 0.8091 0.31095 0.23058 0.0
O697 O 0.8023 0.27823 0.24408 0.0
O698 O 0.76724 0.30797 0.26487 0.0
O699 O 0.79964 0.33809 0.27275 0.0
O700 O 0.75192 0.24984 0.28087 0.0
O701 O 0.75258 0.25389 0.24295 0.0
O702 O 0.79006 0.27502 0.31053 0.0
O703 O 0.79834 0.30643 0.29534 0.0
H704 H 0.87071 0.30714 0.30656 0.0
H705 H 0.9058 0.29822 0.31482 0.0
H706 H 0.93208 0.34491 0.26593 0.0
H707 H 0.8966 0.35384 0.25749 0.0
H708 H 0.721 0.26566 0.2241 0.0
H709 H 0.68611 0.2757 0.2229 0.0
H710 H 0.67848 0.25435 0.29245 0.0
H711 H 0.71346 0.24389 0.29366 0.0
Ho712 Ho 0.05778 0.53796 0.54602 0.0
Ho713 Ho 0.0475 0.54261 0.49449 0.0
C714 C 0.01017 0.50952 0.51402 0.0
C715 C 0.05474 0.53257 0.58987 0.0
C716 C 0.0384 0.5146 0.5988 0.0
C717 C 0.01746 0.51789 0.60046 0.0
C718 C 1.00267 0.50186 0.61066 0.0
C719 C 0.00862 0.48237 0.61962 0.0
C720 C 0.02856 0.47742 0.6153 0.0
C721 C 0.04345 0.49357 0.60518 0.0
C722 C 0.07078 0.50676 0.51363 0.0
C723 C 0.09551 0.56833 0.52556 0.0
C724 C 0.04974 0.55076 0.45138 0.0
C725 C 0.06912 0.56357 0.44263 0.0
C726 C 0.08933 0.55943 0.45006 0.0
C727 C 0.10801 0.57209 0.44252 0.0
C728 C 0.10638 0.58746 0.42574 0.0
C729 C 0.08664 0.59377 0.42057 0.0
C730 C 0.06805 0.58188 0.42914 0.0
C731 C 0.0331 0.57252 0.52661 0.0
O732 O 0.02213 0.5186 0.53562 0.0
O733 O 0.01755 0.51347 0.49361 0.0
O734 O 0.06794 0.52345 0.57706 0.0
O735 O 0.04782 0.54948 0.58064 0.0
O736 O 0.08201 0.51706 0.53478 0.0
O737 O 0.05294 0.51241 0.51122 0.0
O738 O 0.08398 0.55691 0.50424 0.0
O739 O 0.08687 0.56792 0.5458 0.0
O740 O 0.04296 0.56485 0.46792 0.0
O741 O 0.04999 0.52935 0.45687 0.0
O742 O 0.02206 0.56056 0.50587 0.0
O743 O 0.05166 0.5684 0.52955 0.0
H744 H 0.01278 0.5335 0.59502 0.0
H745 H 0.98748 0.50636 0.61373 0.0
H746 H 0.03341 0.46233 0.62173 0.0
H747 H 0.05926 0.49018 0.60335 0.0
H748 H 0.09057 0.54558 0.46075 0.0
H749 H 0.12318 0.56734 0.44715 0.0
H750 H 0.08494 0.6058 0.40788 0.0
H751 H 0.05269 0.5861 0.42425 0.0
Ho752 Ho 0.77902 0.8002 0.26673 0.0
Ho753 Ho 0.82656 0.78832 0.26898 0.0
C754 C 0.80909 0.80669 0.31879 0.0
C755 C 0.73818 0.79737 0.26876 0.0
C756 C 0.72375 0.80022 0.28754 0.0
C757 C 0.71922 0.78326 0.30305 0.0
C758 C 0.70356 0.78454 0.31858 0.0
C759 C 0.69214 0.80284 0.31904 0.0
C760 C 0.69757 0.82066 0.30459 0.0
C761 C 0.71313 0.81926 0.28889 0.0
C762 C 0.81199 0.84219 0.26688 0.0
C763 C 0.79627 0.78171 0.21668 0.0
C764 C 0.86731 0.79259 0.26468 0.0
C765 C 0.88126 0.78673 0.24601 0.0
C766 C 0.88362 0.79912 0.22633 0.0
C767 C 0.8994 0.79627 0.21119 0.0
C768 C 0.91329 0.78109 0.21542 0.0
C769 C 0.91001 0.76763 0.23421 0.0
C770 C 0.89423 0.77046 0.24932 0.0
C771 C 0.79381 0.74644 0.27022 0.0
O772 O 0.7893 0.80307 0.3067 0.0
O773 O 0.82643 0.80475 0.30813 0.0
O774 O 0.75214 0.81731 0.26629 0.0
O775 O 0.74639 0.77829 0.26683 0.0
O776 O 0.79149 0.84128 0.26677 0.0
O777 O 0.81323 0.82027 0.26728 0.0
O778 O 0.81515 0.78198 0.22902 0.0
O779 O 0.77967 0.7869 0.22698 0.0
O780 O 0.85538 0.77434 0.27266 0.0
O781 O 0.85725 0.80968 0.26206 0.0
O782 O 0.81456 0.7479 0.27198 0.0
O783 O 0.7923 0.768 0.2682 0.0
H784 H 0.72726 0.76851 0.30269 0.0
H785 H 0.69995 0.77078 0.32981 0.0
H786 H 0.689 0.83492 0.30448 0.0
H787 H 0.71632 0.83261 0.27716 0.0
H788 H 0.87391 0.81181 0.22316 0.0
H789 H 0.90148 0.80702 0.19699 0.0
H790 H 0.9201 0.75541 0.2377 0.0
H791 H 0.89277 0.76061 0.26424 0.0
Ho792 Ho 0.81207 0.28815 0.74305 0.0
Ho793 Ho 0.7962 0.29512 0.78747 0.0
C794 C 0.81181 0.34238 0.76983 0.0
C795 C 0.82442 0.28864 0.70087 0.0
C796 C 0.83993 0.30651 0.69114 0.0
C797 C 0.84042 0.3316 0.69603 0.0
C798 C 0.85151 0.34731 0.6823 0.0
C799 C 0.86204 0.33792 0.66366 0.0
C800 C 0.86427 0.31384 0.6614 0.0
C801 C 0.85311 0.2981 0.67505 0.0
C802 C 0.84281 0.28938 0.78088 0.0
C803 C 0.7942 0.24216 0.76188 0.0
C804 C 0.78178 0.29263 0.82842 0.0
C805 C 0.77282 0.27251 0.84031 0.0
C806 C 0.78155 0.2521 0.83934 0.0
C807 C 0.77228 0.23291 0.85045 0.0
C808 C 0.75412 0.23388 0.86245 0.0
C809 C 0.74472 0.2537 0.86213 0.0
C810 C 0.75407 0.27294 0.85113 0.0
C811 C 0.7664 0.29595 0.7496 0.0
O812 O 0.81132 0.32767 0.74901 0.0
O813 O 0.81084 0.33418 0.79016 0.0
O814 O 0.83281 0.27825 0.71701 0.0
O815 O 0.80693 0.29493 0.70658 0.0
O816 O 0.83887 0.27437 0.76021 0.0
O817 O 0.8305 0.30393 0.78085 0.0
O818 O 0.80117 0.25757 0.78252 0.0
O819 O 0.79209 0.25055 0.74173 0.0
O820 O 0.76972 0.29275 0.80844 0.0
O821 O 0.8025 0.29716 0.82643 0.0
O822 O 0.77154 0.31122 0.77012 0.0
O823 O 0.77766 0.28024 0.74941 0.0
H824 H 0.8308 0.33861 0.70892 0.0
H825 H 0.84951 0.36584 0.68415 0.0
H826 H 0.87235 0.3064 0.647 0.0
H827 H 0.85332 0.27892 0.67156 0.0
H828 H 0.79572 0.2512 0.83045 0.0
H829 H 0.78005 0.21798 0.85076 0.0
H830 H 0.73065 0.25471 0.87116 0.0
H831 H 0.74681 0.28831 0.8513 0.0
Ho832 Ho 0.81567 0.82117 0.78261 0.0
Ho833 Ho 0.79453 0.77089 0.75887 0.0
C834 C 0.763 0.80118 0.77459 0.0
C835 C 0.82717 0.86807 0.79796 0.0
C836 C 0.81416 0.88588 0.80097 0.0
C837 C 0.79449 0.88173 0.78544 0.0
C838 C 0.78218 0.89874 0.78798 0.0
C839 C 0.78944 0.92009 0.80599 0.0
C840 C 0.80857 0.92391 0.8222 0.0
C841 C 0.82089 0.90667 0.81977 0.0
C842 C 0.81291 0.7896 0.81396 0.0
C843 C 0.84611 0.7884 0.76831 0.0
C844 C 0.78424 0.72442 0.74189 0.0
C845 C 0.79793 0.70727 0.74097 0.0
C846 C 0.81403 0.70942 0.7607 0.0
C847 C 0.82903 0.69543 0.75855 0.0
C848 C 0.82811 0.67903 0.73671 0.0
C849 C 0.81195 0.67675 0.71703 0.0
C850 C 0.79697 0.69093 0.71913 0.0
C851 C 0.79621 0.80275 0.72792 0.0
O852 O 0.77982 0.82031 0.77605 0.0
O853 O 0.76516 0.77871 0.77099 0.0
O854 O 0.82431 0.8524 0.81251 0.0
O855 O 0.82731 0.85766 0.77547 0.0
O856 O 0.82996 0.80726 0.81411 0.0
O857 O 0.79818 0.78949 0.79715 0.0
O858 O 0.82905 0.7708 0.76957 0.0
O859 O 0.8448 0.81119 0.77009 0.0
O860 O 0.78926 0.74083 0.72836 0.0
O861 O 0.78086 0.73381 0.76356 0.0
O862 O 0.77931 0.78544 0.72893 0.0
O863 O 0.81165 0.80287 0.74399 0.0
H864 H 0.78892 0.86571 0.77093 0.0
H865 H 0.76744 0.89577 0.77525 0.0
H866 H 0.81427 0.94049 0.83605 0.0
H867 H 0.83585 0.9098 0.83214 0.0
H868 H 0.81538 0.72231 0.77758 0.0
H869 H 0.84109 0.6971 0.77418 0.0
H870 H 0.81091 0.664 0.70013 0.0
H871 H 0.78487 0.68945 0.70362 0.0
Ho872 Ho 0.53154 0.52763 0.50168 0.0
Ho873 Ho 0.57187 0.55689 0.53401 0.0
C874 C 0.54506 0.58686 0.50654 0.0
C875 C 0.49145 0.50931 0.48253 0.0
C876 C 0.47306 0.52027 0.48282 0.0
C877 C 0.47366 0.54017 0.50143 0.0
C878 C 0.45718 0.55224 0.50058 0.0
C879 C 0.44015 0.54471 0.48102 0.0
C880 C 0.43979 0.52533 0.46205 0.0
C881 C 0.4563 0.51312 0.46294 0.0
C882 C 0.56399 0.52828 0.47205 0.0
C883 C 0.55757 0.49739 0.53031 0.0
C884 C 0.61263 0.57343 0.55114 0.0
C885 C 0.62911 0.55962 0.5496 0.0
C886 C 0.62356 0.53631 0.53453 0.0
C887 C 0.63793 0.52155 0.53438 0.0
C888 C 0.6587 0.53037 0.54825 0.0
C889 C 0.66419 0.55367 0.56367 0.0
C890 C 0.6493 0.56813 0.56454 0.0
C891 C 0.53969 0.55754 0.5635 0.0
O892 O 0.52898 0.56663 0.5022 0.0
O893 O 0.56457 0.58739 0.51703 0.0
O894 O 0.50643 0.51997 0.47088 0.0
O895 O 0.49945 0.50516 0.50337 0.0
O896 O 0.54372 0.51685 0.46614 0.0
O897 O 0.56652 0.53854 0.49472 0.0
O898 O 0.57275 0.51825 0.53729 0.0
O899 O 0.53912 0.49621 0.51686 0.0
O900 O 0.59782 0.56524 0.56421 0.0
O901 O 0.60423 0.57731 0.53039 0.0
O902 O 0.5597 0.57034 0.56869 0.0
O903 O 0.53674 0.54664 0.54095 0.0
H904 H 0.4869 0.54642 0.51651 0.0
H905 H 0.45753 0.56724 0.51534 0.0
H906 H 0.42658 0.51937 0.44695 0.0
H907 H 0.45608 0.49826 0.44812 0.0
H908 H 0.6081 0.52948 0.52273 0.0
H909 H 0.63293 0.50345 0.52282 0.0
H910 H 0.68014 0.56105 0.57445 0.0
H911 H 0.6536 0.58595 0.57659 0.0
Ho912 Ho 0.07884 0.54676 0.01181 0.0
Ho913 Ho 0.02878 0.54333 0.01341 0.0
C914 C 0.04321 0.49323 1.0044 0.0
C915 C 0.11823 0.54212 0.01768 0.0
C916 C 0.13038 0.52329 0.01141 0.0
C917 C 0.13 0.50428 0.02458 0.0
C918 C 0.14385 0.48875 0.02064 0.0
C919 C 0.1585 0.49204 1.00365 0.0
C920 C 0.15803 0.51015 0.98956 0.0
C921 C 0.14412 0.52559 0.99339 0.0
C922 C 0.05428 0.54422 0.96978 0.0
C923 C 0.06442 0.59695 0.02083 0.0
C924 C 0.98935 0.54785 0.00836 0.0
C925 C 0.97742 0.56658 0.01582 0.0
C926 C 0.97653 0.58509 1.00233 0.0
C927 C 0.96308 0.60078 0.00749 0.0
C928 C 0.95009 0.59831 0.02618 0.0
C929 C 0.95179 0.5806 0.04046 0.0
C930 C 0.96527 0.56487 0.0353 0.0
C931 C 0.05279 0.54427 0.05484 0.0
O932 O 0.06376 0.50627 0.01144 0.0
O933 O 0.02712 0.50373 1.0001 0.0
O934 O 0.11028 0.55073 0.99957 0.0
O935 O 0.10513 0.53909 0.03412 0.0
O936 O 0.07469 0.55599 0.97435 0.0
O937 O 0.04882 0.53318 0.98645 0.0
O938 O 0.04382 0.58381 0.01543 0.0
O939 O 0.08103 0.5869 0.02341 0.0
O940 O 0.99724 0.53808 0.0256 0.0
O941 O 1.00254 0.55205 0.9922 0.0
O942 O 0.03256 0.53197 0.04946 0.0
O943 O 0.05867 0.55653 0.03908 0.0
H944 H 0.11963 0.50196 0.03859 0.0
H945 H 0.14396 0.47506 0.03189 0.0
H946 H 0.16897 0.51292 0.97614 0.0
H947 H 0.14475 0.53998 0.98288 0.0
H948 H 0.9856 0.58692 0.98716 0.0
H949 H 0.96202 0.61401 0.99593 0.0
H950 H 0.94224 0.57844 0.05522 0.0
H951 H 0.96561 0.55083 0.04608 0.0
H952 H 0.03291 0.2331 0.99511 0.0
H953 H 0.02589 0.08932 0.95879 0.0
H954 H 0.0161 0.19251 0.92103 0.0
H955 H 0.05681 0.13346 0.02884 0.0
H956 H 0.0202 0.1263 0.94528 0.0
H957 H 0.03922 0.19633 0.00846 0.0
C958 C 0.03047 0.21645 0.98159 0.0
C959 C 0.02384 0.21602 0.95683 0.0
C960 C 0.02818 0.12795 0.96363 0.0
C961 C 0.03123 0.17362 0.97215 0.0
C962 C 0.03136 0.1068 0.9714 0.0
C963 C 0.04175 0.10824 0.99504 0.0
C964 C 0.03502 0.1508 0.97973 0.0
C965 C 0.04878 0.13148 0.01045 0.0
C966 C 0.03418 0.19544 0.98928 0.0
C967 C 0.02099 0.19377 0.9403 0.0
N968 N 0.04512 0.15178 1.00262 0.0
N969 N 0.02468 0.17355 0.94824 0.0
H970 H 0.15931 0.83752 0.17897 0.0
H971 H 0.24439 0.75789 0.21005 0.0
H972 H 0.14961 0.76114 0.14655 0.0
H973 H 0.2481 0.83031 0.24998 0.0
H974 H 0.21122 0.75955 0.18437 0.0
H975 H 0.19339 0.83626 0.20285 0.0
C976 C 0.16429 0.82052 0.17679 0.0
C977 C 0.15131 0.79941 0.16068 0.0
C978 C 0.21937 0.77512 0.19869 0.0
C979 C 0.19061 0.7978 0.18807 0.0
C980 C 0.23838 0.77419 0.21331 0.0
C981 C 0.24913 0.79396 0.2323 0.0
C982 C 0.21112 0.79611 0.20285 0.0
C983 C 0.24038 0.81455 0.23567 0.0
C984 C 0.1838 0.81977 0.19048 0.0
C985 C 0.15886 0.77793 0.15873 0.0
N986 N 0.22208 0.81509 0.2212 0.0
N987 N 0.17784 0.77769 0.17214 0.0
H988 H 0.47898 0.84122 0.45026 0.0
H989 H 0.57195 0.96405 0.50956 0.0
H990 H 0.54613 0.8412 0.46971 0.0
H991 H 0.50477 0.96142 0.48617 0.0
H992 H 0.56294 0.91903 0.49816 0.0
H993 H 0.48821 0.88509 0.46659 0.0
C994 C 0.49564 0.85036 0.45833 0.0
C995 C 0.51178 0.83742 0.45859 0.0
C996 C 0.5502 0.92837 0.49564 0.0
C997 C 0.52259 0.88807 0.47729 0.0
C998 C 0.55532 0.95406 0.50213 0.0
C999 C 0.53911 0.9666 0.49878 0.0
C1000 C 0.52875 0.9152 0.48567 0.0
C1001 C 0.51783 0.95266 0.48918 0.0
C1002 C 0.50095 0.87553 0.46757 0.0
C1003 C 0.53315 0.85044 0.4691 0.0
N1004 N 0.51334 0.92783 0.48289 0.0
N1005 N 0.53797 0.87509 0.47796 0.0
H1006 H 0.54394 0.29887 0.67971 0.0
H1007 H 0.4152 0.28589 0.66663 0.0
H1008 H 0.50468 0.29876 0.61255 0.0
H1009 H 0.45261 0.27615 0.73093 0.0
H1010 H 0.44762 0.28974 0.64626 0.0
H1011 H 0.51068 0.29003 0.69873 0.0
C1012 C 0.52838 0.2971 0.669 0.0
C1013 C 0.5272 0.29975 0.64453 0.0
C1014 C 0.44871 0.28657 0.66477 0.0
C1015 C 0.48899 0.28963 0.66618 0.0
C1016 C 0.43018 0.28445 0.67647 0.0
C1017 C 0.4311 0.2809 0.7007 0.0
C1018 C 0.46849 0.28538 0.67738 0.0
C1019 C 0.45097 0.27873 0.71225 0.0
C1020 C 0.50936 0.29192 0.67982 0.0
C1021 C 0.50648 0.29695 0.63148 0.0
N1022 N 0.46885 0.28123 0.7006 0.0
N1023 N 0.4883 0.29221 0.64246 0.0
H1024 H 0.99383 0.793 0.59278 0.0
H1025 H 0.07717 0.91911 0.58729 0.0
H1026 H 0.0595 0.81389 0.63118 0.0
H1027 H 0.02172 0.8826 0.53252 0.0
H1028 H 0.06978 0.88324 0.60735 0.0
H1029 H 1.00256 0.82873 0.57365 0.0
C1030 C 0.01015 0.80509 0.59697 0.0
C1031 C 0.02608 0.80061 0.61326 0.0
C1032 C 0.05937 0.88313 0.59086 0.0
C1033 C 0.03607 0.84144 0.59192 0.0
C1034 C 0.06355 0.90344 0.57959 0.0
C1035 C 0.04996 0.90331 0.55844 0.0
C1036 C 0.04148 0.86309 0.58074 0.0
C1037 C 0.03244 0.88303 0.54889 0.0
C1038 C 0.01513 0.82541 0.58611 0.0
C1039 C 0.04695 0.81671 0.61832 0.0
N1040 N 0.02864 0.86365 0.56017 0.0
N1041 N 0.05137 0.83669 0.60776 0.0
H1042 H 0.53085 0.76764 0.83657 0.0
H1043 H 0.46018 0.85465 0.79195 0.0
H1044 H 0.55665 0.84393 0.83301 0.0
H1045 H 0.43255 0.77857 0.79413 0.0
H1046 H 0.49641 0.84961 0.80373 0.0
H1047 H 0.49526 0.76958 0.81739 0.0
C1048 C 0.52909 0.78467 0.83154 0.0
C1049 C 0.54664 0.80569 0.83654 0.0
C1050 C 0.48252 0.83385 0.80127 0.0
C1051 C 0.50623 0.80808 0.8149 0.0
C1052 C 0.46192 0.83674 0.79444 0.0
C1053 C 0.44366 0.81694 0.79201 0.0
C1054 C 0.48477 0.81094 0.8056 0.0
C1055 C 0.44646 0.7942 0.79591 0.0
C1056 C 0.50881 0.78579 0.82066 0.0
C1057 C 0.54355 0.82729 0.82962 0.0
N1058 N 0.46674 0.79179 0.80261 0.0
N1059 N 0.52369 0.82795 0.81934 0.0
H1060 H 0.50745 0.2088 0.06706 0.0
H1061 H 0.52181 0.07471 0.07055 0.0
H1062 H 0.48732 0.16946 0.12381 0.0
H1063 H 0.55239 0.12076 0.02364 0.0
H1064 H 0.50971 0.10927 0.09139 0.0
H1065 H 0.52339 0.17602 0.05057 0.0
C1066 C 0.50605 0.19305 0.07581 0.0
C1067 C 0.49593 0.19174 0.09672 0.0
C1068 C 0.51946 0.11199 0.07689 0.0
C1069 C 0.51446 0.15438 0.07821 0.0
C1070 C 0.52654 0.09242 0.06527 0.0
C1071 C 0.53828 0.09535 0.04581 0.0
C1072 C 0.52395 0.1343 0.06855 0.0
C1073 C 0.54346 0.11814 0.03881 0.0
C1074 C 0.51542 0.1745 0.06658 0.0
C1075 C 0.4949 0.1711 0.10755 0.0
N1076 N 0.53611 0.13681 0.0501 0.0
N1077 N 0.50407 0.15316 0.09814 0.0
H1078 H 0.17941 0.30208 0.36884 0.0
H1079 H 0.25166 0.34613 0.27432 0.0
H1080 H 0.16652 0.35981 0.33331 0.0
H1081 H 0.23208 0.26966 0.28014 0.0
H1082 H 0.221 0.35322 0.29479 0.0
H1083 H 0.20209 0.29241 0.33798 0.0
C1084 C 0.1818 0.31302 0.35482 0.0
C1085 C 0.17144 0.33183 0.3535 0.0
C1086 C 0.22324 0.33482 0.29099 0.0
C1087 C 0.19662 0.32069 0.31822 0.0
C1088 C 0.24063 0.33077 0.27932 0.0
C1089 C 0.24483 0.30756 0.27645 0.0
C1090 C 0.21061 0.31563 0.30013 0.0
C1091 C 0.22978 0.28805 0.2826 0.0
C1092 C 0.19427 0.3072 0.33699 0.0
C1093 C 0.1745 0.34523 0.33478 0.0
N1094 N 0.21365 0.2927 0.29492 0.0
N1095 N 0.18703 0.33951 0.31781 0.0
H1096 H 0.98732 0.02806 0.19748 0.0
H1097 H 0.01055 0.08505 0.07633 0.0
H1098 H 0.95759 0.08446 0.17957 0.0
H1099 H 0.02893 0.02081 0.09172 0.0
H1100 H 0.99175 0.0864 0.11285 0.0
H1101 H 1.00306 0.02694 0.15968 0.0
C1102 C 0.98391 0.04036 0.18573 0.0
C1103 C 0.97059 0.05631 0.19257 0.0
C1104 C 0.99945 0.07164 0.10805 0.0
C1105 C 0.98953 0.05507 0.14745 0.0
C1106 C 0.01004 0.07063 0.08677 0.0
C1107 C 0.02066 0.05197 0.07959 0.0
C1108 C 0.99972 0.05425 0.12331 0.0
C1109 C 0.02031 0.03493 0.09535 0.0
C1110 C 0.99309 0.03961 0.16373 0.0
C1111 C 0.96741 0.07162 0.17567 0.0
N1112 N 0.01025 0.03651 0.11601 0.0
N1113 N 0.97674 0.07066 0.1543 0.0
H1114 H 0.29104 0.69614 0.48497 0.0
H1115 H 0.22115 0.68699 0.35919 0.0
H1116 H 0.2317 0.6386 0.45995 0.0
H1117 H 0.25781 0.75642 0.4037 0.0
H1118 H 0.22523 0.6674 0.39458 0.0
H1119 H 0.28099 0.7172 0.45269 0.0
C1120 C 0.27596 0.68796 0.47262 0.0
C1121 C 0.26208 0.66573 0.47497 0.0
C1122 C 0.23186 0.68704 0.39664 0.0
C1123 C 0.25058 0.68947 0.43844 0.0
C1124 C 0.22936 0.69815 0.37661 0.0
C1125 C 0.23892 0.72327 0.37876 0.0
C1126 C 0.24453 0.70114 0.41843 0.0
C1127 C 0.24984 0.73705 0.40149 0.0
C1128 C 0.27014 0.70004 0.45444 0.0
C1129 C 0.2427 0.65584 0.4587 0.0
N1130 N 0.25275 0.72569 0.42038 0.0
N1131 N 0.23755 0.66772 0.44091 0.0
H1132 H 0.60772 1.0021 0.68086 0.0
H1133 H 0.59267 0.07888 0.57702 0.0
H1134 H 0.64441 0.07693 0.68494 0.0
H1135 H 0.55523 1.00487 0.57532 0.0
H1136 H 0.61478 0.07752 0.61473 0.0
H1137 H 0.58964 1.00219 0.64061 0.0
C1138 C 0.6115 0.01869 0.67338 0.0
C1139 C 0.62728 0.03951 0.68581 0.0
C1140 C 0.60188 0.0615 0.60593 0.0
C1141 C 0.60726 0.03981 0.64021 0.0
C1142 C 0.58945 0.06226 0.58451 0.0
C1143 C 0.57205 0.04213 0.57386 0.0
C1144 C 0.59669 0.04039 0.61622 0.0
C1145 C 0.56829 0.0209 0.58367 0.0
C1146 C 0.6015 0.01869 0.65038 0.0
C1147 C 0.63221 0.06052 0.67552 0.0
N1148 N 0.58049 0.02062 0.60455 0.0
N1149 N 0.62215 0.06018 0.65312 0.0
H1150 H 0.30398 0.31164 0.97325 0.0
H1151 H 0.33709 0.34654 0.84822 0.0
H1152 H 0.3273 0.3868 0.96497 0.0
H1153 H 0.28615 0.28228 0.84978 0.0
H1154 H 0.33879 0.35947 0.8925 0.0
H1155 H 0.30174 0.29825 0.92898 0.0
C1156 C 0.30867 0.32527 0.96212 0.0
C1157 C 0.31591 0.35032 0.97275 0.0
C1158 C 0.32738 0.34244 0.88315 0.0
C1159 C 0.31383 0.33518 0.92245 0.0
C1160 C 0.32659 0.33498 0.85804 0.0
C1161 C 0.31162 0.31328 0.84563 0.0
C1162 C 0.31347 0.32772 0.89587 0.0
C1163 C 0.29797 0.29911 0.8589 0.0
C1164 C 0.30732 0.31766 0.93693 0.0
C1165 C 0.32159 0.3673 0.9575 0.0
N1166 N 0.29932 0.30646 0.8834 0.0
N1167 N 0.32067 0.3594 0.93315 0.0
H1168 H 0.94257 0.04638 0.33889 0.0
H1169 H 0.04774 0.08514 0.44336 0.0
H1170 H 0.00639 0.08 0.32402 0.0
H1171 H 0.9958 0.02082 0.44118 0.0
H1172 H 0.03089 0.08923 0.40323 0.0
H1173 H 0.95912 0.04295 0.37954 0.0
C1174 C 0.95997 0.0537 0.34432 0.0
C1175 C 0.97288 0.06409 0.3278 0.0
C1176 C 0.02307 0.07426 0.41152 0.0
C1177 C 0.99224 0.06002 0.37495 0.0
C1178 C 0.03272 0.07192 0.43459 0.0
C1179 C 0.02338 0.05253 0.44602 0.0
C1180 C 1.00328 0.05767 0.39972 0.0
C1181 C 1.00383 0.036 0.43329 0.0
C1182 C 0.9695 0.05142 0.36754 0.0
C1183 C 0.99555 0.07232 0.33601 0.0
N1184 N 0.99441 0.03911 0.41126 0.0
N1185 N 1.00434 0.07038 0.35877 0.0
H1186 H 0.26185 0.71556 0.57434 0.0
H1187 H 0.29967 0.73736 0.71712 0.0
H1188 H 0.30045 0.67449 0.60919 0.0
H1189 H 0.28475 0.79489 0.6826 0.0
H1190 H 0.29194 0.70996 0.67774 0.0
H1191 H 0.26272 0.74103 0.6143 0.0
C1192 C 0.27045 0.7119 0.59037 0.0
C1193 C 0.28132 0.69314 0.58855 0.0
C1194 C 0.29013 0.72848 0.67874 0.0
C1195 C 0.28209 0.72171 0.63377 0.0
C1196 C 0.29445 0.74412 0.7012 0.0
C1197 C 0.29303 0.76843 0.70286 0.0
C1198 C 0.28415 0.73715 0.65785 0.0
C1199 C 0.28627 0.77629 0.68178 0.0
C1200 C 0.27093 0.72639 0.61303 0.0
C1201 C 0.29209 0.68897 0.60977 0.0
N1202 N 0.28209 0.7606 0.6599 0.0
N1203 N 0.29221 0.70318 0.63153 0.0
H1204 H 0.63069 0.03854 0.7938 0.0
H1205 H 0.64579 0.11669 0.92281 0.0
H1206 H 0.66818 0.1137 0.80196 0.0
H1207 H 0.5818 0.07924 0.88361 0.0
H1208 H 0.66037 0.11368 0.88351 0.0
H1209 H 0.6187 0.04922 0.83331 0.0
C1210 C 0.63637 0.05723 0.80403 0.0
C1211 C 0.65002 0.07543 0.79481 0.0
C1212 C 0.64308 0.10678 0.88376 0.0
C1213 C 0.63706 0.08747 0.83961 0.0
C1214 C 0.63482 0.10863 0.90593 0.0
C1215 C 0.61259 0.09863 0.90616 0.0
C1216 C 0.629 0.09402 0.8624 0.0
C1217 C 0.59895 0.08772 0.88405 0.0
C1218 C 0.6296 0.06329 0.82637 0.0
C1219 C 0.65724 0.09941 0.80857 0.0
N1220 N 0.60746 0.08523 0.86308 0.0
N1221 N 0.65074 0.10483 0.83061 0.0
H1222 H 0.3109 0.3194 0.08018 0.0
H1223 H 0.30754 0.34652 0.22478 0.0
H1224 H 0.31239 0.39155 0.11915 0.0
H1225 H 0.31095 0.27769 0.18246 0.0
H1226 H 0.30982 0.36453 0.18758 0.0
H1227 H 0.31146 0.30475 0.11853 0.0
C1228 C 0.31126 0.33216 0.09687 0.0
C1229 C 0.31156 0.35671 0.09641 0.0
C1230 C 0.31029 0.34556 0.1866 0.0
C1231 C 0.31195 0.33996 0.1408 0.0
C1232 C 0.30911 0.33537 0.20782 0.0
C1233 C 0.30907 0.31059 0.20667 0.0
C1234 C 0.31157 0.33082 0.1643 0.0
C1235 C 0.3108 0.29682 0.1842 0.0
C1236 C 0.31163 0.32381 0.11887 0.0
C1237 C 0.31229 0.37249 0.11872 0.0
N1238 N 0.31194 0.30706 0.16407 0.0
N1239 N 0.31228 0.36382 0.14 0.0
H1240 H 0.2732 0.99986 0.00988 0.0
H1241 H 0.16105 0.98839 0.06288 0.0
H1242 H 0.23974 0.93446 0.03349 0.0
H1243 H 0.19837 0.054 0.0433 0.0
H1244 H 0.19099 0.96894 0.05592 0.0
H1245 H 0.24676 0.02058 0.02482 0.0
C1246 C 0.26021 0.98983 0.01819 0.0
C1247 C 0.25847 0.96536 0.02028 0.0
C1248 C 0.19269 0.98768 0.05341 0.0
C1249 C 0.22816 0.98901 0.03753 0.0
C1250 C 0.17573 0.99868 0.05743 0.0
C1251 C 0.17761 0.02265 0.05365 0.0
C1252 C 0.21116 1.00076 0.04511 0.0
C1253 C 0.19664 0.03549 0.04655 0.0
C1254 C 0.24517 1.00172 0.02684 0.0
C1255 C 0.24143 0.95328 0.0313 0.0
N1256 N 0.21265 0.02426 0.04224 0.0
N1257 N 0.22678 0.96525 0.03947 0.0
H1258 H 0.72262 0.62025 0.98139 0.0
H1259 H 0.60861 0.60492 0.0344 0.0
H1260 H 0.70548 0.67878 0.0279 0.0
H1261 H 0.61931 0.55256 0.97534 0.0
H1262 H 0.64538 0.6308 0.03478 0.0
H1263 H 0.68619 0.59358 0.98141 0.0
C1264 C 0.71123 0.62755 0.9915 0.0
C1265 C 0.71721 0.65191 1.00455 0.0
C1266 C 0.63969 0.61365 0.02172 0.0
C1267 C 0.67548 0.62142 1.00479 0.0
C1268 C 0.61869 0.59888 0.02153 0.0
C1269 C 0.61077 0.57667 1.00468 0.0
C1270 C 0.65308 0.60598 0.00521 0.0
C1271 C 0.62462 0.5697 0.98846 0.0
C1272 C 0.69043 0.61231 0.99153 0.0
C1273 C 0.70173 0.66021 0.01751 0.0
N1274 N 0.64507 0.58419 0.9892 0.0
N1275 N 0.68172 0.64506 0.01731 0.0
H1276 H 0.68376 0.42042 0.23811 0.0
H1277 H 0.79152 0.38174 0.29079 0.0
H1278 H 0.73151 0.46957 0.29534 0.0
H1279 H 0.7354 0.32998 0.24683 0.0
H1280 H 0.77191 0.41426 0.29123 0.0
H1281 H 0.70388 0.3891 0.23937 0.0
C1282 C 0.6985 0.42496 0.25112 0.0
C1283 C 0.7054 0.44852 0.26669 0.0
C1284 C 0.7638 0.39587 0.2814 0.0
C1285 C 0.72952 0.41101 0.26808 0.0
C1286 C 0.77512 0.37701 0.28104 0.0
C1287 C 0.7655 0.35241 0.26869 0.0
C1288 C 0.7424 0.39089 0.26886 0.0
C1289 C 0.7439 0.34823 0.25673 0.0
C1290 C 0.71012 0.40662 0.25179 0.0
C1291 C 0.72505 0.45218 0.28281 0.0
N1292 N 0.73345 0.36695 0.25697 0.0
N1293 N 0.7362 0.43395 0.28299 0.0
H1294 H 0.88483 0.46382 0.55937 0.0
H1295 H 0.97865 0.52192 0.48727 0.0
H1296 H 0.88147 0.51976 0.51711 0.0
H1297 H 0.98946 0.47935 0.54188 0.0
H1298 H 0.94159 0.51817 0.49605 0.0
H1299 H 0.923 0.46841 0.5537 0.0
C1300 C 0.89246 0.47779 0.54977 0.0
C1301 C 0.88026 0.49151 0.53863 0.0
C1302 C 0.9519 0.50925 0.50584 0.0
C1303 C 0.92323 0.49624 0.53144 0.0
C1304 C 0.97286 0.51092 0.50044 0.0
C1305 C 0.98683 0.50066 0.51374 0.0
C1306 C 0.94488 0.49694 0.52443 0.0
C1307 C 0.97892 0.48732 0.5312 0.0
C1308 C 0.91407 0.48012 0.54621 0.0
C1309 C 0.89052 0.50889 0.52587 0.0
N1310 N 0.95835 0.48586 0.53613 0.0
N1311 N 0.91143 0.5106 0.52237 0.0
H1312 H 0.42647 0.10867 0.26024 0.0
H1313 H 0.30729 0.12878 0.24576 0.0
H1314 H 0.37661 0.08243 0.30311 0.0
H1315 H 0.36079 0.17085 0.2168 0.0
H1316 H 0.33003 0.10245 0.25707 0.0
H1317 H 0.40061 0.12454 0.23669 0.0
C1318 C 0.41025 0.10689 0.2651 0.0
C1319 C 0.40368 0.09481 0.28391 0.0
C1320 C 0.3366 0.11697 0.24757 0.0
C1321 C 0.37405 0.11203 0.25672 0.0
C1322 C 0.32352 0.1317 0.24074 0.0
C1323 C 0.33237 0.15195 0.23053 0.0
C1324 C 0.35855 0.12275 0.24413 0.0
C1325 C 0.35357 0.15537 0.22479 0.0
C1326 C 0.39543 0.11549 0.25139 0.0
C1327 C 0.38229 0.09201 0.28892 0.0
N1328 N 0.36619 0.14114 0.23213 0.0
N1329 N 0.36818 0.10065 0.27539 0.0
H1330 H 0.36043 0.18955 0.55285 0.0
H1331 H 0.41863 0.09371 0.48578 0.0
H1332 H 0.33119 0.1375 0.48631 0.0
H1333 H 0.4395 0.1293 0.56113 0.0
H1334 H 0.38806 0.11242 0.48488 0.0
H1335 H 0.39079 0.17025 0.55563 0.0
C1336 C 0.36035 0.17403 0.53884 0.0
C1337 C 0.34321 0.16514 0.51925 0.0
C1338 C 0.39929 0.11622 0.50164 0.0
C1339 C 0.37803 0.14316 0.52228 0.0
C1340 C 0.41686 0.10571 0.5021 0.0
C1341 C 0.43173 0.11019 0.52348 0.0
C1342 C 0.39656 0.13158 0.52265 0.0
C1343 C 0.42839 0.12544 0.54427 0.0
C1344 C 0.37767 0.163 0.54051 0.0
C1345 C 0.34398 0.14494 0.50173 0.0
N1346 N 0.4112 0.13577 0.5433 0.0
N1347 N 0.36115 0.13476 0.50358 0.0
H1348 H 0.73491 0.59855 0.30011 0.0
H1349 H 0.74964 0.72661 0.24849 0.0
H1350 H 0.68881 0.60965 0.24437 0.0
H1351 H 0.79971 0.7114 0.29616 0.0
H1352 H 0.72592 0.68554 0.2492 0.0
H1353 H 0.75753 0.64057 0.30129 0.0
C1354 C 0.72943 0.60959 0.2881 0.0
C1355 C 0.70959 0.59985 0.27211 0.0
C1356 C 0.74202 0.69128 0.25978 0.0
C1357 C 0.73583 0.64897 0.27344 0.0
C1358 C 0.75557 0.71502 0.25955 0.0
C1359 C 0.77692 0.72308 0.2725 0.0
C1360 C 0.74952 0.67515 0.27327 0.0
C1361 C 0.7835 0.70642 0.28591 0.0
C1362 C 0.74244 0.63381 0.28877 0.0
C1363 C 0.70376 0.61579 0.25714 0.0
N1364 N 0.77009 0.68372 0.286 0.0
N1365 N 0.71657 0.63908 0.25819 0.0
H1366 H 0.91774 0.45172 0.79835 0.0
H1367 H 0.80683 0.36516 0.73158 0.0
H1368 H 0.89388 0.44955 0.72337 0.0
H1369 H 0.8264 0.3794 0.8094 0.0
H1370 H 0.83418 0.40186 0.72901 0.0
H1371 H 0.88331 0.42443 0.8022 0.0
C1372 C 0.90558 0.44424 0.78229 0.0
C1373 C 0.90802 0.45309 0.76071 0.0
C1374 C 0.83209 0.39741 0.74678 0.0
C1375 C 0.86867 0.42339 0.76513 0.0
C1376 C 0.81634 0.37666 0.74827 0.0
C1377 C 0.8162 0.36847 0.7704 0.0
C1378 C 0.84713 0.40935 0.76763 0.0
C1379 C 0.82739 0.38449 0.79173 0.0
C1380 C 0.88564 0.4296 0.78475 0.0
C1381 C 0.89215 0.44317 0.74037 0.0
N1382 N 0.8434 0.40393 0.78976 0.0
N1383 N 0.87266 0.42917 0.7432 0.0
H1384 H 0.09081 0.89312 0.11397 0.0
H1385 H 0.04133 0.94692 1.00377 0.0
H1386 H 0.0674 0.8498 0.04163 0.0
H1387 H 0.07959 0.99263 0.06995 0.0
H1388 H 0.04788 0.91052 0.01826 0.0
H1389 H 0.08402 0.92917 0.09922 0.0
C1390 C 0.08444 0.89119 0.09495 0.0
C1391 C 0.0798 0.86829 0.07906 0.0
C1392 C 0.05484 0.92853 0.0296 0.0
C1393 C 0.0718 0.90965 0.06201 0.0
C1394 C 0.05105 0.9493 0.02135 0.0
C1395 C 0.06008 0.97292 0.03555 0.0
C1396 C 0.06739 0.93129 0.05246 0.0
C1397 C 0.07255 0.97485 0.05822 0.0
C1398 C 0.0805 0.91181 0.08653 0.0
C1399 C 0.07125 0.86699 0.05462 0.0
N1400 N 0.07572 0.9544 0.06599 0.0
N1401 N 0.06752 0.88728 0.0469 0.0
H1402 H 0.96984 0.28422 0.85032 0.0
H1403 H 0.84254 0.28247 0.82804 0.0
H1404 H 0.92328 0.25492 0.89541 0.0
H1405 H 0.88565 0.29735 0.77508 0.0
H1406 H 0.87295 0.27703 0.85535 0.0
H1407 H 0.94037 0.29334 0.82474 0.0
C1408 C 0.95346 0.27962 0.85485 0.0
C1409 C 0.94917 0.26856 0.87507 0.0
C1410 C 0.8759 0.28194 0.83795 0.0
C1411 C 0.91519 0.27933 0.84587 0.0
C1412 C 0.85858 0.28538 0.82251 0.0
C1413 C 0.86168 0.29097 0.79951 0.0
C1414 C 0.89661 0.28426 0.83045 0.0
C1415 C 0.88264 0.29347 0.79284 0.0
C1416 C 0.9366 0.28489 0.84022 0.0
C1417 C 0.92751 0.26327 0.88 0.0
N1418 N 0.89925 0.2902 0.80819 0.0
N1419 N 0.91146 0.26871 0.86562 0.0
H1420 H 0.60504 0.25685 0.53822 0.0
H1421 H 0.54289 0.121 0.54975 0.0
H1422 H 0.56449 0.23998 0.59342 0.0
H1423 H 0.59588 0.13459 0.50769 0.0
H1424 H 0.5482 0.16509 0.56251 0.0
H1425 H 0.59889 0.21258 0.52271 0.0
C1426 C 0.59475 0.24391 0.54696 0.0
C1427 C 0.58538 0.25218 0.56724 0.0
C1428 C 0.55865 0.15855 0.55039 0.0
C1429 C 0.57848 0.20174 0.54976 0.0
C1430 C 0.55557 0.13338 0.54303 0.0
C1431 C 0.56888 0.12427 0.52752 0.0
C1432 C 0.57498 0.17487 0.54189 0.0
C1433 C 0.58533 0.14102 0.51971 0.0
C1434 C 0.59137 0.21869 0.53819 0.0
C1435 C 0.57212 0.23457 0.57779 0.0
N1436 N 0.58784 0.16565 0.52684 0.0
N1437 N 0.56916 0.21027 0.56899 0.0
H1438 H 0.59742 0.83119 0.41395 0.0
H1439 H 0.65936 0.76273 0.31962 0.0
H1440 H 0.56772 0.76087 0.36683 0.0
H1441 H 0.68159 0.84056 0.34887 0.0
H1442 H 0.62741 0.76089 0.34036 0.0
H1443 H 0.6298 0.8343 0.39344 0.0
C1444 C 0.59768 0.81642 0.39927 0.0
C1445 C 0.57979 0.79572 0.39209 0.0
C1446 C 0.63926 0.77839 0.34231 0.0
C1447 C 0.6169 0.79909 0.36876 0.0
C1448 C 0.65763 0.77941 0.33066 0.0
C1449 C 0.67324 0.8018 0.33264 0.0
C1450 C 0.63647 0.79986 0.35633 0.0
C1451 C 0.6699 0.82293 0.34681 0.0
C1452 C 0.61616 0.81826 0.38755 0.0
C1453 C 0.58105 0.7772 0.37292 0.0
N1454 N 0.65191 0.82143 0.35824 0.0
N1455 N 0.59932 0.77926 0.36206 0.0
H1456 H 0.09595 0.30955 0.46198 0.0
H1457 H 0.04737 0.16464 0.43999 0.0
H1458 H 0.09296 0.26095 0.39342 0.0
H1459 H 0.04933 0.21498 0.5071 0.0
H1460 H 0.05905 0.1998 0.42036 0.0
H1461 H 0.07521 0.27502 0.47722 0.0
C1462 C 0.09108 0.29157 0.45019 0.0
C1463 C 0.09643 0.28808 0.42652 0.0
C1464 C 0.05652 0.20306 0.43926 0.0
C1465 C 0.07237 0.24849 0.44369 0.0
C1466 C 0.04985 0.18303 0.45046 0.0
C1467 C 0.04785 0.18688 0.47538 0.0
C1468 C 0.06125 0.22697 0.45317 0.0
C1469 C 0.05069 0.21103 0.4879 0.0
C1470 C 0.07904 0.27189 0.4588 0.0
C1471 C 0.08944 0.26441 0.41193 0.0
N1472 N 0.05759 0.23015 0.47676 0.0
N1473 N 0.07782 0.24546 0.4208 0.0
H1474 H 0.55611 0.28457 0.19801 0.0
H1475 H 0.64518 0.23041 0.26273 0.0
H1476 H 0.55445 0.20745 0.18853 0.0
H1477 H 0.6624 0.30168 0.24277 0.0
H1478 H 0.60734 0.22596 0.24678 0.0
H1479 H 0.59148 0.29439 0.22398 0.0
C1480 C 0.5631 0.26972 0.2016 0.0
C1481 C 0.55245 0.24513 0.19126 0.0
C1482 C 0.61934 0.2428 0.24638 0.0
C1483 C 0.59225 0.25623 0.22094 0.0
C1484 C 0.64085 0.24551 0.25575 0.0
C1485 C 0.65683 0.26639 0.25391 0.0
C1486 C 0.61381 0.26111 0.23518 0.0
C1487 C 0.65044 0.28521 0.24425 0.0
C1488 C 0.58318 0.27537 0.21631 0.0
C1489 C 0.56217 0.22661 0.19617 0.0
N1490 N 0.62929 0.28202 0.2349 0.0
N1491 N 0.58157 0.23256 0.21077 0.0
H1492 H 0.58398 0.91506 0.88598 0.0
H1493 H 0.59688 0.97502 0.02664 0.0
H1494 H 0.61967 0.89153 0.94308 0.0
H1495 H 0.54659 0.98063 0.97212 0.0
H1496 H 0.61019 0.94963 0.99539 0.0
H1497 H 0.57595 0.94589 0.9167 0.0
C1498 C 0.59035 0.91659 0.90493 0.0
C1499 C 0.60227 0.9006 0.91207 0.0
C1500 C 0.59631 0.95652 0.99027 0.0
C1501 C 0.59294 0.9354 0.94709 0.0
C1502 C 0.58868 0.97088 0.00803 0.0
C1503 C 0.57072 0.97987 1.00172 0.0
C1504 C 0.58597 0.95141 0.96611 0.0
C1505 C 0.56057 0.97406 0.97754 0.0
C1506 C 0.58567 0.93406 0.92241 0.0
C1507 C 0.61027 0.90342 0.93683 0.0
N1508 N 0.56843 0.9602 0.96047 0.0
N1509 N 0.60527 0.9204 0.95356 0.0
H1510 H 0.9633 0.78388 0.70709 0.0
H1511 H 0.84739 0.74276 0.74829 0.0
H1512 H 0.91578 0.715 0.67683 0.0
H1513 H 0.88704 0.81756 0.76786 0.0
H1514 H 0.87559 0.73078 0.72787 0.0
H1515 H 0.93832 0.79505 0.73419 0.0
C1516 C 0.94757 0.7711 0.70612 0.0
C1517 C 0.94144 0.74849 0.68963 0.0
C1518 C 0.87838 0.74975 0.73693 0.0
C1519 C 0.91309 0.76116 0.72061 0.0
C1520 C 0.86236 0.75657 0.74899 0.0
C1521 C 0.86497 0.78113 0.76001 0.0
C1522 C 0.89723 0.76764 0.7358 0.0
C1523 C 0.88447 0.79841 0.75954 0.0
C1524 C 0.93341 0.77752 0.72163 0.0
C1525 C 0.92108 0.73256 0.68929 0.0
N1526 N 0.89996 0.79132 0.74737 0.0
N1527 N 0.90754 0.73929 0.70456 0.0
H1528 H 0.15345 0.00864 0.85845 0.0
H1529 H 0.05483 0.04211 0.92769 0.0
H1530 H 0.10738 0.04527 0.83052 0.0
H1531 H 0.1048 0.01728 0.96552 0.0
H1532 H 0.07402 0.04167 0.8921 0.0
H1533 H 0.13637 0.00914 0.89639 0.0
C1534 C 0.13979 0.0167 0.85999 0.0
C1535 C 0.13223 0.027 0.84052 0.0
C1536 C 0.08116 0.03658 0.90815 0.0
C1537 C 0.11221 0.02769 0.88491 0.0
C1538 C 0.07017 0.03706 0.92886 0.0
C1539 C 0.07823 0.03054 0.95054 0.0
C1540 C 0.10062 0.02891 0.90803 0.0
C1541 C 0.09802 0.02332 0.9499 0.0
C1542 C 0.13001 0.01709 0.88195 0.0
C1543 C 0.11427 0.03711 0.84447 0.0
N1544 N 0.10832 0.0226 0.92924 0.0
N1545 N 0.10514 0.03712 0.86565 0.0
H1546 H 0.80731 0.39383 0.55085 0.0
H1547 H 0.88738 0.38246 0.65819 0.0
H1548 H 0.87583 0.41509 0.54461 0.0
H1549 H 0.83633 0.3191 0.62128 0.0
H1550 H 0.88227 0.40226 0.62278 0.0
H1551 H 0.81594 0.37336 0.58425 0.0
C1552 C 0.82411 0.39405 0.55645 0.0
C1553 C 0.84093 0.4059 0.54504 0.0
C1554 C 0.87259 0.38383 0.62249 0.0
C1555 C 0.85075 0.38341 0.58311 0.0
C1556 C 0.87555 0.37263 0.64242 0.0
C1557 C 0.8626 0.34905 0.64207 0.0
C1558 C 0.85609 0.37154 0.60302 0.0
C1559 C 0.84696 0.33709 0.62175 0.0
C1560 C 0.82897 0.38247 0.57538 0.0
C1561 C 0.86246 0.40587 0.55292 0.0
N1562 N 0.84387 0.34865 0.60309 0.0
N1563 N 0.86686 0.39496 0.57182 0.0
H1564 H 0.4797 1.00166 0.32701 0.0
H1565 H 0.51059 0.01738 0.4634 0.0
H1566 H 0.43351 0.0199 0.37326 0.0
H1567 H 0.5551 0.06391 0.42707 0.0
H1568 H 0.48226 0.01055 0.42928 0.0
H1569 H 0.50853 0.01592 0.36234 0.0
C1570 C 0.47557 1.00801 0.34473 0.0
C1571 C 0.45434 0.00946 0.34759 0.0
C1572 C 0.49814 0.02253 0.42897 0.0
C1573 C 0.48676 0.02569 0.3872 0.0
C1574 C 0.5143 0.02664 0.44844 0.0
C1575 C 0.53499 0.04179 0.44822 0.0
C1576 C 0.50306 0.0326 0.40864 0.0
C1577 C 0.5392 0.0523 0.42783 0.0
C1578 C 0.492 0.0166 0.36456 0.0
C1579 C 0.44972 0.01823 0.37066 0.0
N1580 N 0.52328 0.04712 0.40837 0.0
N1581 N 0.46587 0.02584 0.38984 0.0
H1582 H 0.81536 0.72415 0.07189 0.0
H1583 H 0.76437 0.7864 0.18202 0.0
H1584 H 0.7631 0.75889 0.06 0.0
H1585 H 0.82358 0.7624 0.18997 0.0
H1586 H 0.76257 0.77613 0.1375 0.0
H1587 H 0.81809 0.7384 0.11555 0.0
C1588 C 0.80457 0.73501 0.07851 0.0
C1589 C 0.78892 0.74028 0.06235 0.0
C1590 C 0.77595 0.77325 0.1491 0.0
C1591 C 0.79172 0.75643 0.1125 0.0
C1592 C 0.77692 0.77895 0.17447 0.0
C1593 C 0.79414 0.77527 0.1898 0.0
C1594 C 0.79221 0.76364 0.13915 0.0
C1595 C 0.81002 0.76568 0.17901 0.0
C1596 C 0.80611 0.74314 0.10348 0.0
C1597 C 0.77544 0.75453 0.0719 0.0
N1598 N 0.80861 0.76017 0.15445 0.0
N1599 N 0.77698 0.76192 0.09646 0.0
H1600 H 0.09304 1.0053 0.71218 0.0
H1601 H 0.11265 0.06164 0.59063 0.0
H1602 H 0.15762 0.03479 0.69649 0.0
H1603 H 0.05173 0.01413 0.59892 0.0
H1604 H 0.12908 0.05516 0.62999 0.0
H1605 H 0.07777 0.01126 0.67256 0.0
C1606 C 0.10418 0.01295 0.70046 0.0
C1607 C 0.12692 0.01933 0.70826 0.0
C1608 C 0.1121 0.04619 0.62333 0.0
C1609 C 0.10896 0.02675 0.66178 0.0
C1610 C 0.10261 0.04999 0.60077 0.0
C1611 C 0.08061 0.03848 0.59109 0.0
C1612 C 0.09952 0.03111 0.63705 0.0
C1613 C 0.0687 0.0234 0.60531 0.0
C1614 C 0.09529 0.01638 0.67758 0.0
C1615 C 0.14008 0.0293 0.69165 0.0
N1616 N 0.07814 0.0204 0.62736 0.0
N1617 N 0.13099 0.03281 0.66956 0.0
H1618 H 0.85764 0.4248 0.42632 0.0
H1619 H 0.79402 0.28836 0.35996 0.0
H1620 H 0.79874 0.38672 0.44969 0.0
H1621 H 0.82308 0.34543 0.32266 0.0
H1622 H 0.80355 0.31898 0.39854 0.0
H1623 H 0.85348 0.38945 0.3934 0.0
C1624 C 0.84387 0.40901 0.42453 0.0
C1625 C 0.82822 0.40888 0.44029 0.0
C1626 C 0.80825 0.3244 0.38185 0.0
C1627 C 0.82373 0.36839 0.4033 0.0
C1628 C 0.80295 0.30704 0.36 0.0
C1629 C 0.80829 0.31433 0.33825 0.0
C1630 C 0.81935 0.34875 0.38167 0.0
C1631 C 0.81938 0.33881 0.33906 0.0
C1632 C 0.84159 0.38887 0.40591 0.0
C1633 C 0.81087 0.38776 0.43748 0.0
N1634 N 0.82463 0.35509 0.3604 0.0
N1635 N 0.80901 0.36828 0.41919 0.0
H1636 H 0.48193 0.99807 0.26542 0.0
H1637 H 0.49738 0.02058 0.13457 0.0
H1638 H 0.46457 0.05804 0.23732 0.0
H1639 H 0.47848 0.94589 0.14593 0.0
H1640 H 0.48947 0.03516 0.17436 0.0
H1641 H 0.48546 0.97935 0.22387 0.0
C1642 C 0.47957 1.00766 0.25066 0.0
C1643 C 0.47348 0.02993 0.25473 0.0
C1644 C 0.48625 0.0155 0.16794 0.0
C1645 C 0.47666 1.00834 0.20774 0.0
C1646 C 0.4905 1.00708 0.14505 0.0
C1647 C 0.48781 0.98186 0.13667 0.0
C1648 C 0.47937 0.99873 0.18283 0.0
C1649 C 0.48025 0.96538 0.15172 0.0
C1650 C 0.48099 0.99665 0.22702 0.0
C1651 C 0.46974 0.04115 0.23496 0.0
N1652 N 0.47633 0.97417 0.17442 0.0
N1653 N 0.4714 0.03021 0.2123 0.0
H1654 H 0.74963 0.71019 0.91642 0.0
H1655 H 0.83979 0.79643 0.85723 0.0
H1656 H 0.81669 0.73709 0.95025 0.0
H1657 H 0.77637 0.75568 0.81898 0.0
H1658 H 0.83153 0.77767 0.89269 0.0
H1659 H 0.75891 0.72969 0.88205 0.0
C1660 C 0.76632 0.72033 0.9167 0.0
C1661 C 0.78239 0.72189 0.93626 0.0
C1662 C 0.8195 0.77271 0.87648 0.0
C1663 C 0.79319 0.74449 0.89674 0.0
C1664 C 0.82421 0.78337 0.85622 0.0
C1665 C 0.80876 0.77749 0.83506 0.0
C1666 C 0.79916 0.75612 0.87559 0.0
C1667 C 0.78876 0.76069 0.83486 0.0
C1668 C 0.77164 0.7314 0.89697 0.0
C1669 C 0.80379 0.73524 0.93547 0.0
N1670 N 0.78455 0.75067 0.85478 0.0
N1671 N 0.80857 0.7461 0.91608 0.0
H1672 H 0.82297 0.09263 0.99344 0.0
H1673 H 0.94138 0.08143 0.02659 0.0
H1674 H 0.8699 0.14408 0.05021 0.0
H1675 H 0.90837 0.05535 0.9525 0.0
H1676 H 0.91401 0.10275 0.03578 0.0
H1677 H 0.85253 0.07655 0.97814 0.0
C1678 C 0.8395 0.10034 1.00274 0.0
C1679 C 0.84421 0.11926 0.02336 0.0
C1680 C 0.91288 0.09271 0.01738 0.0
C1681 C 0.87758 0.10135 0.00604 0.0
C1682 C 0.92864 0.08061 0.012 0.0
C1683 C 0.92738 0.06678 0.98858 0.0
C1684 C 0.89532 0.09056 0.99948 0.0
C1685 C 0.90985 0.06565 0.97084 0.0
C1686 C 0.85627 0.09145 0.99383 0.0
C1687 C 0.86574 0.12927 0.03442 0.0
N1688 N 0.89424 0.07725 0.97674 0.0
N1689 N 0.88167 0.11996 0.02577 0.0
H1690 H 0.38585 0.46522 0.06428 0.0
H1691 H 0.49352 0.49142 0.99936 0.0
H1692 H 0.39608 0.41688 1.00147 0.0
H1693 H 0.4892 0.53231 0.06958 0.0
H1694 H 0.45675 0.46554 0.99857 0.0
H1695 H 0.42248 0.49187 0.06526 0.0
C1696 C 0.39572 0.46024 0.05067 0.0
C1697 C 0.38784 0.43868 0.03284 0.0
C1698 C 0.46385 0.48013 0.01421 0.0
C1699 C 0.42975 0.46914 0.03377 0.0
C1700 C 0.48487 0.49488 0.01466 0.0
C1701 C 0.49452 0.51399 0.0346 0.0
C1702 C 0.45222 0.48457 0.03376 0.0
C1703 C 0.48246 0.5177 0.05388 0.0
C1704 C 0.41667 0.47542 0.05127 0.0
C1705 C 0.40144 0.43319 0.01567 0.0
N1706 N 0.46197 0.50322 0.05295 0.0
N1707 N 0.42159 0.44827 0.01654 0.0
H1708 H 0.42765 0.67201 0.77932 0.0
H1709 H 0.3088 0.70153 0.76423 0.0
H1710 H 0.36874 0.61373 0.75738 0.0
H1711 H 0.36964 0.75716 0.77976 0.0
H1712 H 0.32912 0.66961 0.76272 0.0
H1713 H 0.40618 0.70218 0.78051 0.0
C1714 C 0.41014 0.6652 0.77467 0.0
C1715 C 0.40054 0.63947 0.76814 0.0
C1716 C 0.33813 0.68875 0.76649 0.0
C1717 C 0.37485 0.67564 0.76966 0.0
C1718 C 0.32643 0.7073 0.76744 0.0
C1719 C 0.33712 0.73279 0.77222 0.0
C1720 C 0.36117 0.69509 0.77043 0.0
C1721 C 0.36021 0.73819 0.77603 0.0
C1722 C 0.39773 0.68287 0.77539 0.0
C1723 C 0.37742 0.63295 0.76249 0.0
N1724 N 0.37115 0.71987 0.77511 0.0
N1725 N 0.36563 0.65064 0.76342 0.0
H1726 H 0.23054 0.60468 0.58345 0.0
H1727 H 0.1206 0.55732 0.49104 0.0
H1728 H 0.22943 0.59029 0.50531 0.0
H1729 H 0.12461 0.59759 0.56413 0.0
H1730 H 0.16006 0.56624 0.49593 0.0
H1731 H 0.19092 0.59678 0.57707 0.0
C1732 C 0.22197 0.59952 0.56498 0.0
C1733 C 0.23332 0.59834 0.54492 0.0
C1734 C 0.15232 0.57346 0.51075 0.0
C1735 C 0.18818 0.58982 0.53756 0.0
C1736 C 0.12975 0.56866 0.50787 0.0
C1737 C 0.11927 0.57697 0.52712 0.0
C1738 C 0.16445 0.58629 0.5332 0.0
C1739 C 0.13205 0.59081 0.54886 0.0
C1740 C 0.19941 0.59535 0.56137 0.0
C1741 C 0.22135 0.59152 0.52135 0.0
N1742 N 0.15404 0.59487 0.55141 0.0
N1743 N 0.1994 0.58767 0.51831 0.0
H1744 H 0.71869 0.99488 0.72777 0.0
H1745 H 0.75734 0.92964 0.83142 0.0
H1746 H 0.68298 0.98126 0.78766 0.0
H1747 H 0.79585 0.95268 0.77665 0.0
H1748 H 0.73221 0.95365 0.81963 0.0
H1749 H 0.74859 0.98242 0.74771 0.0
C1750 C 0.71701 0.98884 0.74495 0.0
C1751 C 0.69824 0.98875 0.75597 0.0
C1752 C 0.74646 0.95395 0.81061 0.0
C1753 C 0.73251 0.97488 0.77908 0.0
C1754 C 0.76081 0.94052 0.81751 0.0
C1755 C 0.77844 0.9395 0.8049 0.0
C1756 C 0.74971 0.96564 0.79063 0.0
C1757 C 0.78235 0.95335 0.78675 0.0
C1758 C 0.73421 0.98209 0.75651 0.0
C1759 C 0.69701 0.98112 0.77835 0.0
N1760 N 0.76782 0.96558 0.77981 0.0
N1761 N 0.71398 0.97442 0.78921 0.0
H1762 H 0.7787 0.95369 0.54679 0.0
H1763 H 0.66247 0.95014 0.47458 0.0
H1764 H 0.74062 0.89032 0.49418 0.0
H1765 H 0.69545 1.00429 0.53821 0.0
H1766 H 0.69218 0.92943 0.47817 0.0
H1767 H 0.74958 0.97413 0.54068 0.0
C1768 C 0.76422 0.94404 0.53397 0.0
C1769 C 0.76215 0.9202 0.52108 0.0
C1770 C 0.69289 0.94587 0.4913 0.0
C1771 C 0.72861 0.94361 0.51387 0.0
C1772 C 0.67601 0.95767 0.4892 0.0
C1773 C 0.6765 0.97874 0.50632 0.0
C1774 C 0.71045 0.95555 0.51039 0.0
C1775 C 0.69437 0.98788 0.52488 0.0
C1776 C 0.74755 0.95573 0.53047 0.0
C1777 C 0.74294 0.90868 0.50462 0.0
N1778 N 0.71059 0.9763 0.52638 0.0
N1779 N 0.72694 0.92048 0.50146 0.0
H1780 H 0.37414 0.50082 0.7763 0.0
H1781 H 0.35112 0.35128 0.74744 0.0
H1782 H 0.41286 0.46247 0.73407 0.0
H1783 H 0.31059 0.38997 0.78598 0.0
H1784 H 0.37504 0.39133 0.74421 0.0
H1785 H 0.35178 0.46075 0.78146 0.0
C1786 C 0.37797 0.48414 0.76794 0.0
C1787 C 0.39564 0.48561 0.75454 0.0
C1788 C 0.36103 0.3911 0.75364 0.0
C1789 C 0.36975 0.43879 0.76061 0.0
C1790 C 0.34743 0.36803 0.75574 0.0
C1791 C 0.32869 0.36678 0.76734 0.0
C1792 C 0.35613 0.41345 0.76322 0.0
C1793 C 0.32474 0.38962 0.77694 0.0
C1794 C 0.36515 0.46106 0.77098 0.0
C1795 C 0.39956 0.4628 0.74453 0.0
N1796 N 0.33811 0.4116 0.77471 0.0
N1797 N 0.38692 0.44075 0.74771 0.0
H1798 H 0.1854 0.64658 0.26124 0.0
H1799 H 0.30749 0.70333 0.27266 0.0
H1800 H 0.23461 0.61076 0.28296 0.0
H1801 H 0.25404 0.72662 0.2394 0.0
H1802 H 0.28206 0.67714 0.29311 0.0
H1803 H 0.21071 0.68618 0.27893 0.0
C1804 C 0.20145 0.64708 0.26999 0.0
C1805 C 0.20899 0.62588 0.26843 0.0
C1806 C 0.27594 0.68797 0.28129 0.0
C1807 C 0.23775 0.67025 0.28685 0.0
C1808 C 0.29021 0.70193 0.26885 0.0
C1809 C 0.28254 0.71635 0.25395 0.0
C1810 C 0.25396 0.68838 0.27838 0.0
C1811 C 0.26034 0.71501 0.25015 0.0
C1812 C 0.21577 0.66958 0.28039 0.0
C1813 C 0.22903 0.6271 0.28185 0.0
N1814 N 0.24681 0.70143 0.26255 0.0
N1815 N 0.24328 0.64926 0.2899 0.0
H1816 H 0.53674 0.70347 0.42688 0.0
H1817 H 0.51234 0.6087 0.51655 0.0
H1818 H 0.50493 0.71822 0.48977 0.0
H1819 H 0.56862 0.61589 0.4793 0.0
H1820 H 0.50558 0.6455 0.50304 0.0
H1821 H 0.54467 0.66771 0.44148 0.0
C1822 C 0.53121 0.69907 0.4436 0.0
C1823 C 0.51999 0.71385 0.45701 0.0
C1824 C 0.51941 0.63903 0.49783 0.0
C1825 C 0.5289 0.67278 0.47372 0.0
C1826 C 0.52323 0.61804 0.50548 0.0
C1827 C 0.54109 0.60937 0.49908 0.0
C1828 C 0.53312 0.65096 0.48296 0.0
C1829 C 0.55476 0.62215 0.48476 0.0
C1830 C 0.5359 0.67876 0.45202 0.0
C1831 C 0.51354 0.70737 0.47878 0.0
N1832 N 0.55035 0.64211 0.47692 0.0
N1833 N 0.5179 0.68726 0.48631 0.0
H1834 H 0.65903 0.2707 0.63001 0.0
H1835 H 0.74037 0.32674 0.75522 0.0
H1836 H 0.65243 0.33054 0.68409 0.0
H1837 H 0.74797 0.26514 0.70416 0.0
H1838 H 0.70871 0.32818 0.72854 0.0
H1839 H 0.6916 0.26858 0.65557 0.0
C1840 C 0.66439 0.28349 0.64726 0.0
C1841 C 0.65274 0.30086 0.65483 0.0
C1842 C 0.71716 0.31429 0.72298 0.0
C1843 C 0.69038 0.29836 0.68439 0.0
C1844 C 0.7354 0.31339 0.7383 0.0
C1845 C 0.74701 0.29569 0.73211 0.0
C1846 C 0.71013 0.29745 0.70087 0.0
C1847 C 0.73956 0.27904 0.70979 0.0
C1848 C 0.68308 0.28219 0.66186 0.0
C1849 C 0.66073 0.31687 0.67737 0.0
N1850 N 0.72159 0.28034 0.69497 0.0
N1851 N 0.67894 0.31519 0.69128 0.0
H1852 H 0.98338 0.34302 0.93702 0.0
H1853 H 0.06872 0.46299 0.01686 0.0
H1854 H 0.0428 0.33899 0.9781 0.0
H1855 H 0.00658 0.46167 0.9777 0.0
H1856 H 0.06027 0.41802 1.00416 0.0
H1857 H 0.99256 0.38695 0.95245 0.0
C1858 C 0.99821 0.35137 0.94974 0.0
C1859 C 0.01218 0.33731 0.95658 0.0
C1860 C 0.04853 0.42766 0.99846 0.0
C1861 C 0.02294 0.38798 0.9745 0.0
C1862 C 0.05332 0.45327 0.00567 0.0
C1863 C 0.03833 0.46612 0.9983 0.0
C1864 C 0.02872 0.41497 0.98364 0.0
C1865 C 0.0186 0.45263 0.98396 0.0
C1866 C 1.00354 0.37657 0.95848 0.0
C1867 C 0.03155 0.34926 0.97251 0.0
N1868 N 0.01447 0.42792 0.97704 0.0
N1869 N 0.03635 0.374 0.98107 0.0
H1870 H 0.04541 0.80587 0.18182 0.0
H1871 H 0.91527 0.78056 0.16639 0.0
H1872 H 0.00516 0.79051 0.11182 0.0
H1873 H 0.95499 0.78221 0.23374 0.0
H1874 H 0.94776 0.78443 0.1459 0.0
H1875 H 0.01236 0.79786 0.20117 0.0
C1876 C 0.02967 0.80083 0.17051 0.0
C1877 C 0.02818 0.79903 0.14515 0.0
C1878 C 0.94933 0.78377 0.16513 0.0
C1879 C 0.99013 0.78982 0.16722 0.0
C1880 C 0.93077 0.78163 0.17686 0.0
C1881 C 0.93233 0.78111 0.2019 0.0
C1882 C 0.9697 0.78575 0.17856 0.0
C1883 C 0.95288 0.78228 0.2144 0.0
C1884 C 0.01077 0.79616 0.18155 0.0
C1885 C 0.00721 0.79227 0.13144 0.0
N1886 N 0.9707 0.78475 0.2027 0.0
N1887 N 0.98909 0.78805 0.14263 0.0
H1888 H 0.48852 0.30122 0.10338 0.0
H1889 H 0.58106 0.40941 0.07388 0.0
H1890 H 0.55726 0.31003 0.12464 0.0
H1891 H 0.51238 0.39607 0.04891 0.0
H1892 H 0.57297 0.37408 0.09421 0.0
H1893 H 0.49723 0.33687 0.08419 0.0
C1894 C 0.50546 0.31071 0.10399 0.0
C1895 C 0.52221 0.3028 0.1156 0.0
C1896 C 0.5597 0.37895 0.08431 0.0
C1897 C 0.53232 0.34362 0.09388 0.0
C1898 C 0.56431 0.39902 0.07278 0.0
C1899 C 0.54731 0.40553 0.0599 0.0
C1900 C 0.53798 0.36536 0.08264 0.0
C1901 C 0.52588 0.39176 0.059 0.0
C1902 C 0.51044 0.33104 0.09305 0.0
C1903 C 0.54389 0.31555 0.11575 0.0
N1904 N 0.52182 0.37224 0.07016 0.0
N1905 N 0.54835 0.33549 0.1051 0.0
H1906 H 0.05702 0.31695 0.30722 0.0
H1907 H 0.94059 0.32706 0.33778 0.0
H1908 H 0.03235 0.30053 0.37299 0.0
H1909 H 0.95228 0.31077 0.26326 0.0
H1910 H 0.97684 0.32357 0.35171 0.0
H1911 H 0.02069 0.32005 0.291 0.0
C1912 C 0.04387 0.31377 0.31805 0.0
C1913 C 0.04735 0.30806 0.34118 0.0
C1914 C 0.97143 0.32054 0.33229 0.0
C1915 C 0.00657 0.31228 0.32336 0.0
C1916 C 0.95076 0.32243 0.32436 0.0
C1917 C 0.94345 0.3188 0.29937 0.0
C1918 C 0.9849 0.31504 0.31513 0.0
C1919 C 0.95745 0.31364 0.28269 0.0
C1920 C 0.0233 0.31556 0.30887 0.0
C1921 C 0.03009 0.3044 0.35481 0.0
N1922 N 0.97765 0.31185 0.29089 0.0
N1923 N 0.01045 0.3068 0.34576 0.0
H1924 H 0.98086 0.69619 0.56428 0.0
H1925 H 0.04779 0.59604 0.57399 0.0
H1926 H 1.00209 0.67865 0.63318 0.0
H1927 H 0.00509 0.59633 0.50946 0.0
H1928 H 0.03557 0.63025 0.59591 0.0
H1929 H 0.9937 0.66255 0.54329 0.0
C1930 C 0.98793 0.68507 0.57496 0.0
C1931 C 0.99038 0.69016 0.60045 0.0
C1932 C 0.02895 0.6227 0.57694 0.0
C1933 C 0.00538 0.65211 0.5767 0.0
C1934 C 0.03592 0.60335 0.56454 0.0
C1935 C 0.02713 0.59334 0.54017 0.0
C1936 C 0.01354 0.63209 0.56452 0.0
C1937 C 0.01198 0.60339 0.52842 0.0
C1938 C 0.99535 0.66599 0.56301 0.0
C1939 C 0.99985 0.6753 0.61346 0.0
N1940 N 0.0057 0.62231 0.54071 0.0
N1941 N 0.00718 0.65699 0.60141 0.0
H1942 H 0.65896 0.8564 0.83091 0.0
H1943 H 0.7321 0.76869 0.79052 0.0
H1944 H 0.68316 0.81287 0.87778 0.0
H1945 H 0.74769 0.84216 0.77519 0.0
H1946 H 0.7034 0.77844 0.81242 0.0
H1947 H 0.68341 0.84638 0.80198 0.0
C1948 C 0.6697 0.84508 0.83521 0.0
C1949 C 0.66933 0.83547 0.85663 0.0
C1950 C 0.71287 0.7922 0.80382 0.0
C1951 C 0.69611 0.82338 0.82365 0.0
C1952 C 0.7291 0.78667 0.79115 0.0
C1953 C 0.74256 0.80498 0.78164 0.0
C1954 C 0.70996 0.81594 0.80651 0.0
C1955 C 0.73788 0.82785 0.78284 0.0
C1956 C 0.68339 0.83931 0.81873 0.0
C1957 C 0.68326 0.82079 0.86153 0.0
N1958 N 0.72194 0.83288 0.79544 0.0
N1959 N 0.69597 0.81484 0.84487 0.0
H1960 H 0.48293 0.59903 0.69839 0.0
H1961 H 0.50406 0.52025 0.57144 0.0
H1962 H 0.45959 0.52038 0.67863 0.0
H1963 H 0.5405 0.59459 0.60182 0.0
H1964 H 0.48403 0.52079 0.60713 0.0
H1965 H 0.50022 0.59887 0.66082 0.0
C1966 C 0.48082 0.58174 0.68596 0.0
C1967 C 0.46901 0.55972 0.69195 0.0
C1968 C 0.49621 0.53716 0.60587 0.0
C1969 C 0.48943 0.55933 0.64798 0.0
C1970 C 0.50758 0.53691 0.58514 0.0
C1971 C 0.52405 0.55755 0.58284 0.0
C1972 C 0.50082 0.55831 0.62476 0.0
C1973 C 0.52794 0.57822 0.60217 0.0
C1974 C 0.49101 0.58161 0.66441 0.0
C1975 C 0.46799 0.53796 0.67499 0.0
N1976 N 0.51659 0.57808 0.62178 0.0
N1977 N 0.47773 0.53834 0.65413 0.0
H1978 H 0.772 0.18844 0.99529 0.0
H1979 H 0.74784 0.18393 0.85336 0.0
H1980 H 0.78034 0.13092 0.93959 0.0
H1981 H 0.74701 0.24536 0.90915 0.0
H1982 H 0.74948 0.15908 0.88469 0.0
H1983 H 0.75442 0.20511 0.96395 0.0
C1984 C 0.77038 0.17952 0.97639 0.0
C1985 C 0.77803 0.15862 0.96982 0.0
C1986 C 0.74841 0.17783 0.88996 0.0
C1987 C 0.7577 0.17732 0.93404 0.0
C1988 C 0.74738 0.19191 0.87212 0.0
C1989 C 0.74783 0.21678 0.87887 0.0
C1990 C 0.75018 0.18894 0.91455 0.0
C1991 C 0.7468 0.22626 0.90323 0.0
C1992 C 0.76007 0.18883 0.95857 0.0
C1993 C 0.7749 0.14729 0.94525 0.0
N1994 N 0.74855 0.21246 0.92035 0.0
N1995 N 0.76516 0.15697 0.92814 0.0
H1996 H 0.15195 0.57788 0.17689 0.0
H1997 H 0.04961 0.50593 0.07782 0.0
H1998 H 0.11434 0.50415 0.1766 0.0
H1999 H 0.0892 0.57832 0.07683 0.0
H2000 H 0.07421 0.50397 0.11317 0.0
H2001 H 0.12924 0.57814 0.13967 0.0
C2002 C 0.13895 0.56169 0.16878 0.0
C2003 C 0.13496 0.54083 0.17934 0.0
C2004 C 0.07747 0.5203 0.10526 0.0
C2005 C 0.10919 0.54092 0.13715 0.0
C2006 C 0.06346 0.52142 0.0853 0.0
C2007 C 0.06744 0.54248 0.07515 0.0
C2008 C 0.09516 0.54059 0.11503 0.0
C2009 C 0.08571 0.5619 0.08461 0.0
C2010 C 0.12603 0.56182 0.14762 0.0
C2011 C 0.11778 0.5205 0.16874 0.0
N2012 N 0.09891 0.56061 0.10436 0.0
N2013 N 0.10545 0.521 0.14797 0.0
H2014 H 0.78844 0.82276 0.47027 0.0
H2015 H 0.84584 0.83274 0.35037 0.0
H2016 H 0.85037 0.87318 0.47022 0.0
H2017 H 0.77818 0.79598 0.34836 0.0
H2018 H 0.84917 0.84468 0.39479 0.0
H2019 H 0.78558 0.80953 0.42589 0.0
C2020 C 0.80157 0.83067 0.46087 0.0
C2021 C 0.81978 0.84875 0.47369 0.0
C2022 C 0.83362 0.83392 0.38462 0.0
C2023 C 0.81673 0.83392 0.42328 0.0
C2024 C 0.83175 0.82701 0.3593 0.0
C2025 C 0.81172 0.81335 0.34568 0.0
C2026 C 0.81541 0.82678 0.39643 0.0
C2027 C 0.79391 0.80664 0.35815 0.0
C2028 C 0.7999 0.82331 0.43561 0.0
C2029 C 0.83618 0.859 0.46082 0.0
N2030 N 0.79619 0.81333 0.38281 0.0
N2031 N 0.83434 0.85135 0.43631 0.0
H2032 H 0.46286 0.59086 0.84549 0.0
H2033 H 0.52979 0.51878 0.92583 0.0
H2034 H 0.48644 0.52913 0.81567 0.0
H2035 H 0.51642 0.58669 0.95768 0.0
H2036 H 0.51302 0.52247 0.88589 0.0
H2037 H 0.48107 0.5901 0.88639 0.0
C2038 C 0.47193 0.57729 0.8473 0.0
C2039 C 0.47284 0.56003 0.82652 0.0
C2040 C 0.51368 0.53666 0.90152 0.0
C2041 C 0.49385 0.55889 0.87402 0.0
C2042 C 0.52334 0.53453 0.92458 0.0
C2043 C 0.52475 0.5524 0.94568 0.0
C2044 C 0.50481 0.5567 0.89892 0.0
C2045 C 0.51594 0.57238 0.94223 0.0
C2046 C 0.48234 0.57681 0.87084 0.0
C2047 C 0.48492 0.54286 0.83069 0.0
N2048 N 0.50634 0.57388 0.9196 0.0
N2049 N 0.49466 0.54271 0.85353 0.0
H2050 H 0.77921 0.16592 0.10857 0.0
H2051 H 0.80239 0.30317 0.18271 0.0
H2052 H 0.81279 0.23045 0.08368 0.0
H2053 H 0.78053 0.23873 0.21356 0.0
H2054 H 0.79806 0.27668 0.14274 0.0
H2055 H 0.77267 0.19243 0.14427 0.0
C2056 C 0.78534 0.18565 0.11071 0.0
C2057 C 0.79685 0.19607 0.09338 0.0
C2058 C 0.79386 0.26839 0.1582 0.0
C2059 C 0.78913 0.22632 0.13378 0.0
C2060 C 0.79621 0.28349 0.18092 0.0
C2061 C 0.79216 0.27298 0.20133 0.0
C2062 C 0.78748 0.24276 0.15614 0.0
C2063 C 0.78406 0.24745 0.19819 0.0
C2064 C 0.78142 0.20074 0.13094 0.0
C2065 C 0.80404 0.22169 0.09675 0.0
N2066 N 0.78227 0.23311 0.176 0.0
N2067 N 0.80015 0.23597 0.11667 0.0
H2068 H 0.14489 0.60816 0.28824 0.0
H2069 H 0.12201 0.5505 0.40488 0.0
H2070 H 0.14247 0.53331 0.29485 0.0
H2071 H 0.12315 0.62636 0.40375 0.0
H2072 H 0.1353 0.54699 0.3666 0.0
H2073 H 0.14011 0.61741 0.33132 0.0
C2074 C 0.14284 0.59359 0.29866 0.0
C2075 C 0.14368 0.56983 0.28816 0.0
C2076 C 0.13326 0.56469 0.37483 0.0
C2077 C 0.13907 0.58039 0.33695 0.0
C2078 C 0.12602 0.56691 0.39714 0.0
C2079 C 0.1214 0.58884 0.40758 0.0
C2080 C 0.13577 0.58443 0.36259 0.0
C2081 C 0.1263 0.60907 0.39606 0.0
C2082 C 0.14052 0.59898 0.32321 0.0
C2083 C 0.14171 0.55177 0.30235 0.0
N2084 N 0.1329 0.60627 0.37375 0.0
N2085 N 0.13948 0.55745 0.32603 0.0
H2086 H 0.83793 0.88288 0.61341 0.0
H2087 H 0.76698 0.79172 0.68669 0.0
H2088 H 0.77854 0.82773 0.58181 0.0
H2089 H 0.83137 0.83661 0.71745 0.0
H2090 H 0.77104 0.80636 0.64878 0.0
H2091 H 0.83613 0.86767 0.65183 0.0
C2092 C 0.82458 0.86751 0.61445 0.0
C2093 C 0.8083 0.85668 0.59424 0.0
C2094 C 0.78434 0.81314 0.66374 0.0
C2095 C 0.80611 0.8393 0.63831 0.0
C2096 C 0.78199 0.80484 0.68554 0.0
C2097 C 0.79884 0.813 0.7054 0.0
C2098 C 0.80363 0.83008 0.66157 0.0
C2099 C 0.81795 0.8299 0.70263 0.0
C2100 C 0.82358 0.85886 0.63642 0.0
C2101 C 0.79143 0.83681 0.59679 0.0
N2102 N 0.81981 0.83798 0.68113 0.0
N2103 N 0.79074 0.82891 0.61834 0.0
H2104 H 0.73775 0.44438 0.48061 0.0
H2105 H 0.69112 0.52515 0.58181 0.0
H2106 H 0.77597 0.48273 0.54967 0.0
H2107 H 0.66415 0.50428 0.50536 0.0
H2108 H 0.71993 0.5046 0.57299 0.0
H2109 H 0.70764 0.46131 0.49205 0.0
C2110 C 0.73956 0.45613 0.49832 0.0
C2111 C 0.75901 0.46227 0.51431 0.0
C2112 C 0.7075 0.50443 0.55831 0.0
C2113 C 0.72501 0.48138 0.52765 0.0
C2114 C 0.69115 0.51617 0.56328 0.0
C2115 C 0.67517 0.51641 0.54432 0.0
C2116 C 0.7076 0.49279 0.5343 0.0
C2117 C 0.67579 0.50419 0.5207 0.0
C2118 C 0.72253 0.46584 0.50483 0.0
C2119 C 0.76102 0.47782 0.53692 0.0
N2120 N 0.69175 0.49294 0.5164 0.0
N2121 N 0.74409 0.48686 0.54305 0.0
H2122 H 0.22702 0.11889 0.49656 0.0
H2123 H 0.10003 0.10487 0.50849 0.0
H2124 H 0.19804 0.18024 0.50414 0.0
H2125 H 0.13073 0.04515 0.50454 0.0
H2126 H 0.13557 0.13318 0.50778 0.0
H2127 H 0.19178 0.09176 0.49972 0.0
C2128 C 0.21322 0.12664 0.49862 0.0
C2129 C 0.21556 0.15192 0.49991 0.0
C2130 C 0.13455 0.11389 0.50727 0.0
C2131 C 0.17495 0.12086 0.50366 0.0
C2132 C 0.11423 0.0978 0.50786 0.0
C2133 C 0.1123 0.07263 0.50658 0.0
C2134 C 0.15312 0.10472 0.50545 0.0
C2135 C 0.13134 0.06439 0.50536 0.0
C2136 C 0.19307 0.11114 0.50059 0.0
C2137 C 0.19707 0.16089 0.50301 0.0
N2138 N 0.15081 0.08027 0.50479 0.0
N2139 N 0.17762 0.14544 0.50469 0.0
H2140 H 0.22871 0.96509 0.74947 0.0
H2141 H 0.23788 0.8336 0.78492 0.0
H2142 H 0.18785 0.927 0.79483 0.0
H2143 H 0.28766 0.87621 0.75182 0.0
H2144 H 0.21881 0.86661 0.78639 0.0
H2145 H 0.2494 0.93311 0.74777 0.0
C2146 C 0.22423 0.9505 0.75957 0.0
C2147 C 0.20627 0.94964 0.77273 0.0
C2148 C 0.23384 0.86886 0.77863 0.0
C2149 C 0.2303 0.91169 0.77043 0.0
C2150 C 0.24485 0.84969 0.77769 0.0
C2151 C 0.26479 0.85143 0.7682 0.0
C2152 C 0.24216 0.89048 0.76957 0.0
C2153 C 0.27257 0.8735 0.75946 0.0
C2154 C 0.23609 0.93188 0.7584 0.0
C2155 C 0.20138 0.92915 0.7845 0.0
N2156 N 0.26138 0.89165 0.7602 0.0
N2157 N 0.21302 0.91153 0.78309 0.0
H2158 H 0.37428 0.94713 0.01934 0.0
H2159 H 0.48655 0.04705 0.03031 0.0
H2160 H 0.38361 0.02395 0.04911 0.0
H2161 H 0.47797 0.96978 1.00301 0.0
H2162 H 0.44882 0.0388 0.03769 0.0
H2163 H 0.4128 0.9544 0.01608 0.0
C2164 C 0.38466 0.96547 0.02567 0.0
C2165 C 0.37602 0.98508 0.03421 0.0
C2166 C 0.45504 0.02362 0.02991 0.0
C2167 C 0.4198 0.99372 0.0301 0.0
C2168 C 0.47638 0.02836 0.02542 0.0
C2169 C 0.48489 0.00899 0.01589 0.0
C2170 C 0.44231 0.9993 0.02495 0.0
C2171 C 0.47158 0.98509 0.01004 0.0
C2172 C 0.40659 0.96966 0.02367 0.0
C2173 C 0.38989 0.0085 0.04231 0.0
N2174 N 0.45077 0.98082 0.01483 0.0
N2175 N 0.41126 0.01229 0.03978 0.0
H2176 H 0.92055 0.61673 0.80123 0.0
H2177 H 0.81589 0.62962 0.72163 0.0
H2178 H 0.86487 0.55614 0.76934 0.0
H2179 H 0.872 0.69023 0.75118 0.0
H2180 H 0.83649 0.60124 0.7326 0.0
H2181 H 0.90473 0.64337 0.77946 0.0
C2182 C 0.90486 0.60913 0.7899 0.0
C2183 C 0.89395 0.58428 0.7871 0.0
C2184 C 0.84449 0.6207 0.73624 0.0
C2185 C 0.87606 0.61438 0.76181 0.0
C2186 C 0.83282 0.63685 0.72968 0.0
C2187 C 0.84221 0.66219 0.73606 0.0
C2188 C 0.8655 0.63014 0.74945 0.0
C2189 C 0.86413 0.67074 0.74655 0.0
C2190 C 0.896 0.62423 0.77721 0.0
C2191 C 0.87377 0.57527 0.77208 0.0
N2192 N 0.87497 0.6547 0.75344 0.0
N2193 N 0.86546 0.59036 0.75994 0.0
H2194 H 0.82529 0.6322 0.01499 0.0
H2195 H 0.95369 0.64682 0.02362 0.0
H2196 H 0.8717 0.69999 0.01239 0.0
H2197 H 0.90804 0.5818 0.03448 0.0
H2198 H 0.92423 0.66743 0.02178 0.0
H2199 H 0.85556 0.61397 0.02389 0.0
C2200 C 0.84183 0.64323 0.01621 0.0
C2201 C 0.84592 0.66759 0.01271 0.0
C2202 C 0.92069 0.64874 0.02483 0.0
C2203 C 0.8807 0.64685 0.02293 0.0
C2204 C 0.93751 0.63694 0.02583 0.0
C2205 C 0.93332 0.61241 0.02891 0.0
C2206 C 0.89943 0.63589 0.02673 0.0
C2207 C 0.9121 0.60072 0.03214 0.0
C2208 C 0.85912 0.63286 0.02143 0.0
C2209 C 0.86773 0.6811 0.01484 0.0
N2210 N 0.89593 0.61245 0.03067 0.0
N2211 N 0.88426 0.67051 0.01963 0.0
H2212 H 0.21298 0.11062 0.80729 0.0
H2213 H 0.28001 0.20671 0.73255 0.0
H2214 H 0.21664 0.09455 0.73046 0.0
H2215 H 0.26628 0.23192 0.80426 0.0
H2216 H 0.25768 0.16546 0.73292 0.0
H2217 H 0.23337 0.15382 0.80855 0.0
C2218 C 0.21824 0.11587 0.79076 0.0
C2219 C 0.21297 0.09825 0.76874 0.0
C2220 C 0.25916 0.17993 0.74855 0.0
C2221 C 0.23655 0.14843 0.77003 0.0
C2222 C 0.27185 0.2038 0.74822 0.0
C2223 C 0.27471 0.2235 0.76802 0.0
C2224 C 0.24938 0.17478 0.76921 0.0
C2225 C 0.26416 0.21779 0.78816 0.0
C2226 C 0.22978 0.14078 0.79144 0.0
C2227 C 0.22012 0.10694 0.74797 0.0
N2228 N 0.25222 0.19419 0.7883 0.0
N2229 N 0.23139 0.13086 0.74919 0.0
H2230 H 0.41914 0.94812 0.25026 0.0
H2231 H 0.29995 0.87253 0.2565 0.0
H2232 H 0.36501 0.98089 0.2433 0.0
H2233 H 0.35807 0.86552 0.29777 0.0
H2234 H 0.32158 0.90872 0.24391 0.0
H2235 H 0.39406 0.91008 0.25484 0.0
C2236 C 0.40184 0.94687 0.24853 0.0
C2237 C 0.39394 0.96752 0.24703 0.0
C2238 C 0.32943 0.89949 0.25611 0.0
C2239 C 0.36582 0.92514 0.25306 0.0
C2240 C 0.31712 0.87942 0.26372 0.0
C2241 C 0.32753 0.86648 0.278 0.0
C2242 C 0.35206 0.9059 0.26264 0.0
C2243 C 0.34967 0.87542 0.28684 0.0
C2244 C 0.38768 0.92546 0.25166 0.0
C2245 C 0.37151 0.96523 0.2449 0.0
N2246 N 0.36148 0.89444 0.27845 0.0
N2247 N 0.3581 0.94441 0.24856 0.0
H2248 H 0.55368 0.34771 0.54778 0.0
H2249 H 0.59146 0.49409 0.5626 0.0
H2250 H 0.60118 0.39408 0.60716 0.0
H2251 H 0.53281 0.44932 0.5165 0.0
H2252 H 0.59748 0.45747 0.57643 0.0
H2253 H 0.54825 0.3843 0.53351 0.0
C2254 C 0.56309 0.36558 0.55782 0.0
C2255 C 0.57796 0.36768 0.5788 0.0
C2256 C 0.58329 0.45564 0.5633 0.0
C2257 C 0.57173 0.40994 0.56233 0.0
C2258 C 0.57984 0.47657 0.55529 0.0
C2259 C 0.56154 0.47493 0.53831 0.0
C2260 C 0.56851 0.43266 0.55413 0.0
C2261 C 0.54711 0.45159 0.5296 0.0
C2262 C 0.55987 0.38652 0.54965 0.0
C2263 C 0.58957 0.39147 0.59094 0.0
N2264 N 0.55095 0.43143 0.53754 0.0
N2265 N 0.58625 0.41161 0.58251 0.0
H2266 H 0.47092 0.79868 0.36481 0.0
H2267 H 0.3493 0.7461 0.29457 0.0
H2268 H 0.42632 0.73425 0.37826 0.0
H2269 H 0.38262 0.82257 0.30299 0.0
H2270 H 0.37887 0.74055 0.3226 0.0
H2271 H 0.44077 0.80686 0.33928 0.0
C2272 C 0.45487 0.78616 0.36231 0.0
C2273 C 0.45128 0.7656 0.37367 0.0
C2274 C 0.37974 0.75863 0.31854 0.0
C2275 C 0.41665 0.77489 0.34436 0.0
C2276 C 0.36281 0.7618 0.30257 0.0
C2277 C 0.36337 0.78487 0.2967 0.0
C2278 C 0.39788 0.7785 0.32828 0.0
C2279 C 0.3814 0.80456 0.30738 0.0
C2280 C 0.43762 0.79097 0.34787 0.0
C2281 C 0.43 0.75026 0.3699 0.0
N2282 N 0.39809 0.80088 0.32242 0.0
N2283 N 0.41366 0.75509 0.35551 0.0
H2284 H 0.06325 0.74098 0.09304 0.0
H2285 H 0.09616 0.63264 0.00845 0.0
H2286 H 0.10917 0.75496 0.04236 0.0
H2287 H 0.04162 0.62196 0.0485 0.0
H2288 H 0.1019 0.67744 0.02053 0.0
H2289 H 0.05559 0.69724 0.07677 0.0
C2290 C 0.07158 0.7349 0.07826 0.0
C2291 C 0.08705 0.75175 0.0692 0.0
C2292 C 0.08867 0.66525 0.02661 0.0
C2293 C 0.07834 0.70132 0.05046 0.0
C2294 C 0.08549 0.6398 0.01983 0.0
C2295 C 0.06838 0.62379 0.02748 0.0
C2296 C 0.07493 0.67455 0.04157 0.0
C2297 C 0.05485 0.63378 0.04203 0.0
C2298 C 0.06719 0.70982 0.06898 0.0
C2299 C 0.09726 0.74263 0.05002 0.0
N2300 N 0.05853 0.65849 0.04877 0.0
N2301 N 0.09285 0.71798 0.04139 0.0
H2302 H 0.09953 0.27099 0.92115 0.0
H2303 H 0.1555 0.322 0.81202 0.0
H2304 H 0.06596 0.29842 0.86567 0.0
H2305 H 0.18717 0.28977 0.86486 0.0
H2306 H 0.12417 0.31811 0.83411 0.0
H2307 H 0.13279 0.28125 0.90283 0.0
C2308 C 0.09916 0.27924 0.90513 0.0
C2309 C 0.07984 0.28363 0.89481 0.0
C2310 C 0.13802 0.31199 0.84093 0.0
C2311 C 0.11807 0.29569 0.87379 0.0
C2312 C 0.15605 0.31441 0.82844 0.0
C2313 C 0.17398 0.30587 0.83633 0.0
C2314 C 0.13781 0.3009 0.86148 0.0
C2315 C 0.17355 0.29606 0.8577 0.0
C2316 C 0.1182 0.28513 0.89468 0.0
C2317 C 0.08039 0.29439 0.87404 0.0
N2318 N 0.15573 0.29368 0.86938 0.0
N2319 N 0.09918 0.30004 0.86422 0.0
H2320 H 0.57447 0.80572 0.95417 0.0
H2321 H 0.55409 0.66055 0.94225 0.0
H2322 H 0.59701 0.75988 0.89861 0.0
H2323 H 0.54296 0.70909 1.00452 0.0
H2324 H 0.56441 0.69574 0.92234 0.0
H2325 H 0.55825 0.76936 0.96993 0.0
C2326 C 0.57609 0.788 0.94538 0.0
C2327 C 0.58716 0.78575 0.92518 0.0
C2328 C 0.55943 0.69855 0.94024 0.0
C2329 C 0.56846 0.74414 0.94286 0.0
C2330 C 0.55354 0.67852 0.95159 0.0
C2331 C 0.54796 0.68197 0.97522 0.0
C2332 C 0.55965 0.72206 0.95265 0.0
C2333 C 0.54703 0.70551 0.98627 0.0
C2334 C 0.56675 0.76726 0.95429 0.0
C2335 C 0.58876 0.76239 0.9144 0.0
N2336 N 0.55306 0.72471 0.97497 0.0
N2337 N 0.57946 0.74241 0.92338 0.0
H2338 H 0.06177 0.78819 0.69129 0.0
H2339 H 0.14611 0.74033 0.77198 0.0
H2340 H 0.05073 0.71502 0.70698 0.0
H2341 H 0.16646 0.79974 0.7338 0.0
H2342 H 0.10831 0.73902 0.75898 0.0
H2343 H 0.09789 0.79913 0.71579 0.0
C2344 C 0.06686 0.77456 0.70018 0.0
C2345 C 0.05338 0.75068 0.69729 0.0
C2346 C 0.12106 0.75266 0.75385 0.0
C2347 C 0.09411 0.76315 0.72531 0.0
C2348 C 0.14262 0.75363 0.76149 0.0
C2349 C 0.15933 0.76991 0.75358 0.0
C2350 C 0.11626 0.76797 0.73814 0.0
C2351 C 0.15391 0.78658 0.7398 0.0
C2352 C 0.08738 0.78083 0.71407 0.0
C2353 C 0.06071 0.73359 0.70878 0.0
N2354 N 0.1327 0.78493 0.73211 0.0
N2355 N 0.08065 0.74019 0.72235 0.0
H2356 H 0.06164 0.38751 0.39853 0.0
H2357 H 0.10838 0.49195 0.51601 0.0
H2358 H 0.12685 0.40083 0.43631 0.0
H2359 H 0.04786 0.48346 0.46968 0.0
H2360 H 0.11726 0.46088 0.48592 0.0
H2361 H 0.0579 0.42499 0.42314 0.0
C2362 C 0.07517 0.39845 0.41209 0.0
C2363 C 0.09443 0.39112 0.41576 0.0
C2364 C 0.10219 0.46609 0.48225 0.0
C2365 C 0.09031 0.43384 0.44413 0.0
C2366 C 0.09711 0.48366 0.49939 0.0
C2367 C 0.07727 0.48983 0.49529 0.0
C2368 C 0.08721 0.45477 0.46112 0.0
C2369 C 0.06324 0.47897 0.47353 0.0
C2370 C 0.07312 0.41991 0.42604 0.0
C2371 C 0.11171 0.40601 0.43314 0.0
N2372 N 0.06842 0.46178 0.45732 0.0
N2373 N 0.10913 0.42665 0.44706 0.0
H2374 H 0.40733 0.2291 0.15791 0.0
H2375 H 0.38898 0.28983 0.2882 0.0
H2376 H 0.46186 0.26138 0.21526 0.0
H2377 H 0.3515 0.29399 0.22154 0.0
H2378 H 0.41487 0.27449 0.26405 0.0
H2379 H 0.38375 0.2456 0.18421 0.0
C2380 C 0.41422 0.23932 0.17612 0.0
C2381 C 0.43648 0.2442 0.18441 0.0
C2382 C 0.40109 0.2791 0.25486 0.0
C2383 C 0.41 0.2631 0.21413 0.0
C2384 C 0.38659 0.28794 0.26855 0.0
C2385 C 0.36852 0.29311 0.25653 0.0
C2386 C 0.39668 0.27479 0.2293 0.0
C2387 C 0.36553 0.29025 0.23117 0.0
C2388 C 0.40091 0.24892 0.19094 0.0
C2389 C 0.44474 0.25752 0.20816 0.0
N2390 N 0.37937 0.28087 0.21824 0.0
N2391 N 0.43146 0.26665 0.22227 0.0
H2392 H 0.6051 0.54173 0.329 0.0
H2393 H 0.60694 0.52196 0.46963 0.0
H2394 H 0.65518 0.51336 0.36207 0.0
H2395 H 0.55464 0.53921 0.42736 0.0
H2396 H 0.6264 0.52067 0.43334 0.0
H2397 H 0.58836 0.5423 0.36609 0.0
C2398 C 0.61278 0.53551 0.34398 0.0
C2399 C 0.632 0.52752 0.34159 0.0
C2400 C 0.6108 0.52507 0.43208 0.0
C2401 C 0.61217 0.52845 0.38599 0.0
C2402 C 0.59971 0.52615 0.45309 0.0
C2403 C 0.57905 0.53137 0.45228 0.0
C2404 C 0.60144 0.52937 0.40971 0.0
C2405 C 0.57054 0.53555 0.42953 0.0
C2406 C 0.60299 0.53588 0.36552 0.0
C2407 C 0.6405 0.51968 0.36241 0.0
N2408 N 0.58158 0.5346 0.40973 0.0
N2409 N 0.63073 0.52047 0.38346 0.0
H2410 H 0.36747 0.90192 0.03392 0.0
H2411 H 0.32724 0.84882 0.14732 0.0
H2412 H 0.30624 0.9054 0.05888 0.0
H2413 H 0.39591 0.8738 0.14388 0.0
H2414 H 0.31903 0.86476 0.11106 0.0
H2415 H 0.3781 0.88721 0.07085 0.0
C2416 C 0.3562 0.89928 0.04702 0.0
C2417 C 0.33586 0.90453 0.04338 0.0
C2418 C 0.33593 0.8673 0.11844 0.0
C2419 C 0.34792 0.88817 0.0852 0.0
C2420 C 0.34061 0.85836 0.13915 0.0
C2421 C 0.36225 0.8608 0.14875 0.0
C2422 C 0.35304 0.87875 0.10718 0.0
C2423 C 0.37905 0.87217 0.13706 0.0
C2424 C 0.36238 0.89123 0.06811 0.0
C2425 C 0.322 0.90138 0.06099 0.0
N2426 N 0.37408 0.8809 0.11666 0.0
N2427 N 0.32827 0.89328 0.08112 0.0
H2428 H 0.94014 0.52947 0.86883 0.0
H2429 H 0.06263 0.5662 0.93099 0.0
H2430 H 0.99207 0.52295 0.8266 0.0
H2431 H 0.01198 0.51951 0.96019 0.0
H2432 H 0.03615 0.56314 0.89492 0.0
H2433 H 0.96644 0.53883 0.90637 0.0
C2434 C 0.9571 0.53017 0.86763 0.0
C2435 C 0.96426 0.52525 0.8451 0.0
C2436 C 0.031 0.55398 0.90958 0.0
C2437 C 0.99384 0.53663 0.88687 0.0
C2438 C 0.04594 0.55565 0.9299 0.0
C2439 C 0.03923 0.54334 0.94844 0.0
C2440 C 0.00944 0.5404 0.90845 0.0
C2441 C 0.01758 0.52968 0.9464 0.0
C2442 C 0.97193 0.53553 0.88878 0.0
C2443 C 0.98618 0.52633 0.84394 0.0
N2444 N 1.00329 0.52867 0.9267 0.0
N2445 N 1.00041 0.53209 0.86474 0.0
H2446 H 0.28622 0.27519 0.56095 0.0
H2447 H 0.30283 0.24163 0.6929 0.0
H2448 H 0.29414 0.20523 0.57452 0.0
H2449 H 0.27899 0.30416 0.68157 0.0
H2450 H 0.30162 0.22965 0.64909 0.0
H2451 H 0.28625 0.28846 0.60494 0.0
C2452 C 0.28801 0.26269 0.57312 0.0
C2453 C 0.28995 0.239 0.56404 0.0
C2454 C 0.29651 0.24594 0.65603 0.0
C2455 C 0.28995 0.25391 0.61394 0.0
C2456 C 0.29718 0.25272 0.68101 0.0
C2457 C 0.29096 0.27381 0.69062 0.0
C2458 C 0.28991 0.2606 0.64049 0.0
C2459 C 0.2837 0.28761 0.67462 0.0
C2460 C 0.28789 0.2702 0.59812 0.0
C2461 C 0.29234 0.22356 0.58059 0.0
N2462 N 0.28357 0.28089 0.65019 0.0
N2463 N 0.29225 0.23129 0.60463 0.0
H2464 H 0.61632 0.48211 0.1953 0.0
H2465 H 0.59006 0.57618 0.10938 0.0
H2466 H 0.64021 0.56068 0.21567 0.0
H2467 H 0.57236 0.49769 0.08428 0.0
H2468 H 0.60724 0.57057 0.14847 0.0
H2469 H 0.5996 0.48691 0.15532 0.0
C2470 C 0.61858 0.50036 0.19122 0.0
C2471 C 0.63047 0.52096 0.20895 0.0
C2472 C 0.5996 0.55449 0.13449 0.0
C2473 C 0.61046 0.52677 0.16286 0.0
C2474 C 0.58963 0.55769 0.11197 0.0
C2475 C 0.57957 0.53745 0.09296 0.0
C2476 C 0.59963 0.53077 0.13868 0.0
C2477 C 0.57985 0.51401 0.09801 0.0
C2478 C 0.60878 0.50313 0.16834 0.0
C2479 C 0.63181 0.54416 0.2026 0.0
N2480 N 0.58956 0.51138 0.1201 0.0
N2481 N 0.62208 0.54638 0.18041 0.0
H2482 H 0.35725 0.92407 0.9267 0.0
H2483 H 0.29613 0.78737 0.85996 0.0
H2484 H 0.29692 0.88524 0.9468 0.0
H2485 H 0.32359 0.84534 0.82285 0.0
H2486 H 0.30601 0.81752 0.89874 0.0
H2487 H 0.35518 0.88828 0.895 0.0
C2488 C 0.34364 0.90803 0.92447 0.0
C2489 C 0.32692 0.90777 0.93879 0.0
C2490 C 0.31045 0.82317 0.88205 0.0
C2491 C 0.32489 0.86696 0.90346 0.0
C2492 C 0.3049 0.80613 0.86009 0.0
C2493 C 0.30964 0.81385 0.83836 0.0
C2494 C 0.32125 0.8476 0.88195 0.0
C2495 C 0.32049 0.8384 0.83924 0.0
C2496 C 0.34259 0.88766 0.90663 0.0
C2497 C 0.30984 0.88636 0.9356 0.0
N2498 N 0.32602 0.85441 0.86072 0.0
N2499 N 0.30916 0.86674 0.91806 0.0
H2500 H 0.93348 0.52346 0.7181 0.0
H2501 H 0.02777 0.47705 0.66312 0.0
H2502 H 0.99688 0.53136 0.75844 0.0
H2503 H 0.96461 0.46825 0.62208 0.0
H2504 H 0.01292 0.48535 0.70055 0.0
H2505 H 0.94202 0.49597 0.68497 0.0
C2506 C 0.94944 0.51988 0.71981 0.0
C2507 C 0.9646 0.52992 0.74111 0.0
C2508 C 1.00208 0.48087 0.68342 0.0
C2509 C 0.97432 0.49813 0.70313 0.0
C2510 C 0.01046 0.47561 0.66189 0.0
C2511 C 0.99761 0.47321 0.6394 0.0
C2512 C 0.98083 0.48374 0.68224 0.0
C2513 C 0.97526 0.47113 0.63914 0.0
C2514 C 0.95411 0.50376 0.70101 0.0
C2515 C 0.98479 0.52423 0.74233 0.0
N2516 N 0.96769 0.47743 0.66032 0.0
N2517 N 0.98911 0.50876 0.72352 0.0
H2518 H 0.31741 0.24038 0.45418 0.0
H2519 H 0.2798 0.25943 0.31964 0.0
H2520 H 0.25196 0.21243 0.41559 0.0
H2521 H 0.34197 0.2997 0.36138 0.0
H2522 H 0.27094 0.23932 0.35378 0.0
H2523 H 0.32805 0.26041 0.42007 0.0
C2524 C 0.3053 0.23842 0.43855 0.0
C2525 C 0.28373 0.22466 0.43773 0.0
C2526 C 0.28656 0.25251 0.35555 0.0
C2527 C 0.29587 0.24719 0.39857 0.0
C2528 C 0.29168 0.26389 0.33596 0.0
C2529 C 0.31167 0.28122 0.33764 0.0
C2530 C 0.30148 0.25848 0.37714 0.0
C2531 C 0.32639 0.28637 0.35931 0.0
C2532 C 0.31138 0.24987 0.41911 0.0
C2533 C 0.26871 0.22292 0.41711 0.0
N2534 N 0.32099 0.2751 0.37827 0.0
N2535 N 0.27508 0.23387 0.39837 0.0
H2536 H 0.35853 0.64509 0.48391 0.0
H2537 H 0.40941 0.53522 0.50952 0.0
H2538 H 0.34323 0.60271 0.53982 0.0
H2539 H 0.42979 0.57861 0.45603 0.0
H2540 H 0.38158 0.55711 0.51694 0.0
H2541 H 0.3826 0.6194 0.47059 0.0
C2542 C 0.36048 0.63062 0.49356 0.0
C2543 C 0.34903 0.626 0.51302 0.0
C2544 C 0.39192 0.56179 0.50337 0.0
C2545 C 0.37598 0.59658 0.49776 0.0
C2546 C 0.40765 0.54921 0.4991 0.0
C2547 C 0.42164 0.55538 0.4823 0.0
C2548 C 0.39052 0.58094 0.49098 0.0
C2549 C 0.41908 0.57355 0.46915 0.0
C2550 C 0.37399 0.61585 0.4858 0.0
C2551 C 0.35178 0.60687 0.52471 0.0
N2552 N 0.40384 0.58602 0.47397 0.0
N2553 N 0.36497 0.59285 0.51687 0.0
H2554 H 0.90717 0.90789 0.52676 0.0
H2555 H 0.97581 0.04792 0.54185 0.0
H2556 H 0.88044 0.97028 0.54421 0.0
H2557 H 1.00311 0.98666 0.52167 0.0
H2558 H 0.94086 0.01946 0.54214 0.0
H2559 H 0.94214 0.93584 0.52455 0.0
C2560 C 0.90861 0.92748 0.53018 0.0
C2561 C 0.89073 0.93668 0.53582 0.0
C2562 C 0.95443 0.01209 0.53763 0.0
C2563 C 0.93099 0.96893 0.53317 0.0
C2564 C 0.97451 0.02838 0.53746 0.0
C2565 C 0.99265 0.01972 0.53182 0.0
C2566 C 0.95222 0.98667 0.53228 0.0
C2567 C 0.98972 0.99418 0.52612 0.0
C2568 C 0.92865 0.94344 0.52885 0.0
C2569 C 0.89372 0.96228 0.53995 0.0
N2570 N 0.96996 0.97855 0.52661 0.0
N2571 N 0.91339 0.97743 0.53857 0.0
H2572 H 0.8729 0.11608 0.23971 0.0
H2573 H 0.86468 0.25505 0.29606 0.0
H2574 H 0.91642 0.16427 0.30109 0.0
H2575 H 0.81177 0.20338 0.24688 0.0
H2576 H 0.88451 0.22278 0.2956 0.0
H2577 H 0.8516 0.14735 0.2392 0.0
C2578 C 0.87814 0.133 0.25313 0.0
C2579 C 0.89697 0.13679 0.27048 0.0
C2580 C 0.86859 0.21834 0.28476 0.0
C2581 C 0.87208 0.17376 0.26989 0.0
C2582 C 0.85711 0.23703 0.28501 0.0
C2583 C 0.8361 0.23256 0.27159 0.0
C2584 C 0.85965 0.19441 0.27052 0.0
C2585 C 0.82768 0.20822 0.2578 0.0
C2586 C 0.86581 0.15109 0.25284 0.0
C2587 C 0.90234 0.15976 0.28716 0.0
N2588 N 0.83933 0.19052 0.2575 0.0
N2589 N 0.89031 0.17686 0.28635 0.0
H2590 H 0.71737 0.16251 0.04009 0.0
H2591 H 0.62425 0.03833 0.00767 0.0
H2592 H 0.72312 0.09486 0.99724 0.0
H2593 H 0.61837 0.10403 0.05386 0.0
H2594 H 0.65871 0.06102 0.99852 0.0
H2595 H 0.67835 0.14449 0.0378 0.0
C2596 C 0.71028 0.14404 0.02978 0.0
C2597 C 0.72332 0.12959 0.01973 0.0
C2598 C 0.65005 0.07055 0.01079 0.0
C2599 C 0.67936 0.10907 0.01728 0.0
C2600 C 0.63064 0.05752 0.01631 0.0
C2601 C 0.61902 0.06943 0.03187 0.0
C2602 C 0.65789 0.0956 0.02111 0.0
C2603 C 0.62742 0.09426 0.04233 0.0
C2604 C 0.68811 0.13377 0.02857 0.0
C2605 C 0.71355 0.1061 0.00607 0.0
N2606 N 0.64655 0.10669 0.03672 0.0
N2607 N 0.69207 0.09634 0.00559 0.0
H2608 H 0.22652 0.52652 0.26763 0.0
H2609 H 0.23766 0.39696 0.29118 0.0
H2610 H 0.1773 0.45861 0.23919 0.0
H2611 H 0.28789 0.46475 0.31486 0.0
H2612 H 0.21198 0.42031 0.28006 0.0
H2613 H 0.2463 0.50502 0.29162 0.0
C2614 C 0.22008 0.5069 0.26615 0.0
C2615 C 0.20057 0.49401 0.25105 0.0
C2616 C 0.22849 0.4301 0.2882 0.0
C2617 C 0.22297 0.46944 0.27865 0.0
C2618 C 0.24305 0.41684 0.29458 0.0
C2619 C 0.26486 0.42908 0.30342 0.0
C2620 C 0.23602 0.45562 0.29056 0.0
C2621 C 0.27117 0.45473 0.30795 0.0
C2622 C 0.23122 0.49473 0.28013 0.0
C2623 C 0.19249 0.46893 0.25044 0.0
N2624 N 0.25685 0.46721 0.30098 0.0
N2625 N 0.20394 0.45728 0.26391 0.0
H2626 H 0.23552 0.3854 0.00844 0.0
H2627 H 0.20196 0.51142 1.00485 0.0
H2628 H 0.27988 0.45714 0.0341 0.0
H2629 H 0.15469 0.44255 1.00108 0.0
H2630 H 0.23112 0.49057 0.00842 0.0
H2631 H 0.20626 0.40501 0.99929 0.0
C2632 C 0.23914 0.40528 0.01222 0.0
C2633 C 0.26023 0.41964 0.0223 0.0
C2634 C 0.21437 0.47995 0.00662 0.0
C2635 C 0.22675 0.44216 0.01158 0.0
C2636 C 0.1977 0.49179 1.00435 0.0
C2637 C 0.17587 0.47871 1.00278 0.0
C2638 C 0.20924 0.45474 0.00711 0.0
C2639 C 0.17133 0.45335 1.00252 0.0
C2640 C 0.2224 0.41643 0.00695 0.0
C2641 C 0.2639 0.44531 0.02655 0.0
N2642 N 0.18788 0.44218 1.00471 0.0
N2643 N 0.24735 0.45572 0.02115 0.0
H2644 H 0.87361 1.00009 0.27587 0.0
H2645 H 0.85137 0.85069 0.24652 0.0
H2646 H 0.91311 0.96238 0.23429 0.0
H2647 H 0.81118 0.88895 0.28618 0.0
H2648 H 0.875 0.89088 0.24319 0.0
H2649 H 0.85134 0.95987 0.28073 0.0
C2650 C 0.87753 0.98349 0.26748 0.0
C2651 C 0.89544 0.98515 0.25445 0.0
C2652 C 0.86115 0.89053 0.2529 0.0
C2653 C 0.86968 0.93819 0.26015 0.0
C2654 C 0.84772 0.86739 0.25505 0.0
C2655 C 0.82917 0.866 0.26698 0.0
C2656 C 0.85624 0.91279 0.26277 0.0
C2657 C 0.82521 0.88875 0.27689 0.0
C2658 C 0.86481 0.96033 0.27039 0.0
C2659 C 0.89961 0.96248 0.2445 0.0
N2660 N 0.83841 0.9108 0.2746 0.0
N2661 N 0.88701 0.94034 0.24748 0.0
H2662 H 0.68698 0.13365 0.7522 0.0
H2663 H 0.8066 0.20645 0.78097 0.0
H2664 H 0.74057 0.10261 0.7701 0.0
H2665 H 0.75133 0.22952 0.75215 0.0
H2666 H 0.78181 0.17354 0.79524 0.0
H2667 H 0.70821 0.17335 0.77559 0.0
C2668 C 0.7033 0.13531 0.761 0.0
C2669 C 0.71305 0.11575 0.75751 0.0
C2670 C 0.77516 0.18595 0.78595 0.0
C2671 C 0.73732 0.16065 0.78309 0.0
C2672 C 0.78915 0.20395 0.77712 0.0
C2673 C 0.78057 0.21916 0.76406 0.0
C2674 C 0.75263 0.18356 0.78165 0.0
C2675 C 0.75822 0.21682 0.76075 0.0
C2676 C 0.71522 0.15774 0.77476 0.0
C2677 C 0.7333 0.118 0.77094 0.0
N2678 N 0.74495 0.1992 0.76944 0.0
N2679 N 0.74526 0.1405 0.78258 0.0
loop_
_geom_bond_atom_site_label_1
_geom_bond_atom_site_label_2
_geom_bond_distance
_geom_bond_site_symmetry_2
_ccdc_geom_bond_type
C0 O1 1.160 . S
C0 O7 1.185 . S
O1 C0 1.160 . S
O2 Zn3 1.899 . S
O2 C10 1.284 . S
Zn3 O2 1.899 . S
Zn3 O4 2.032 . S
Zn3 O7 2.086 . S
Zn3 O12 1.977 . S
O4 Zn3 2.032 . S
O4 C8 1.278 . S
C5 O6 1.203 . S
C5 O12 1.267 . S
O6 C5 1.203 . S
O7 C0 1.185 . S
O7 Zn3 2.086 . S
C8 O4 1.278 . S
C8 O9 1.211 . S
O9 C8 1.211 . S
C10 O2 1.284 . S
C10 O11 1.273 . S
O11 C10 1.273 . S
O12 Zn3 1.977 . S
O12 C5 1.267 . S
C13 O14 1.160 . S
C13 O20 1.185 . S
O14 C13 1.160 . S
O15 Zn16 1.899 . S
O15 C23 1.284 . S
Zn16 O15 1.899 . S
Zn16 O17 2.032 . S
Zn16 O20 2.086 . S
Zn16 O25 1.977 1_655 S
O17 Zn16 2.032 . S
O17 C21 1.278 1_655 S
C18 O19 1.203 . S
C18 O25 1.267 . S
O19 C18 1.203 . S
O20 C13 1.185 . S
O20 Zn16 2.086 . S
C21 O17 1.278 1_455 S
C21 O22 1.211 . S
O22 C21 1.211 . S
C23 O15 1.284 . S
C23 O24 1.273 1_655 S
O24 C23 1.273 1_455 S
O25 Zn16 1.977 1_455 S
O25 C18 1.267 . S
C26 O27 1.160 . S
C26 O33 1.185 . S
O27 C26 1.160 . S
O28 Zn29 1.899 . S
O28 C36 1.284 . S
Zn29 O28 1.899 . S
Zn29 O30 2.032 . S
Zn29 O33 2.086 . S
Zn29 O38 1.977 . S
O30 Zn29 2.032 . S
O30 C34 1.278 . S
C31 O32 1.203 . S
C31 O38 1.267 . S
O32 C31 1.203 . S
O33 C26 1.185 . S
O33 Zn29 2.086 . S
C34 O30 1.278 . S
C34 O35 1.211 . S
O35 C34 1.211 . S
C36 O28 1.284 . S
C36 O37 1.273 . S
O37 C36 1.273 . S
O38 Zn29 1.977 . S
O38 C31 1.267 . S
C39 O40 1.160 . S
C39 O46 1.185 . S
O40 C39 1.160 . S
O41 Zn42 1.899 . S
O41 C49 1.284 . S
Zn42 O41 1.899 . S
Zn42 O43 2.032 . S
Zn42 O46 2.086 . S
Zn42 O51 1.977 . S
O43 Zn42 2.032 . S
O43 C47 1.278 . S
C44 O45 1.203 . S
C44 O51 1.267 . S
O45 C44 1.203 . S
O46 C39 1.185 . S
O46 Zn42 2.086 . S
C47 O43 1.278 . S
C47 O48 1.211 . S
O48 C47 1.211 . S
C49 O41 1.284 . S
C49 O50 1.273 . S
O50 C49 1.273 . S
O51 Zn42 1.977 . S
O51 C44 1.267 . S
C52 O53 1.160 . S
C52 O59 1.185 . S
O53 C52 1.160 . S
O54 Zn55 1.899 . S
O54 C62 1.284 . S
Zn55 O54 1.899 . S
Zn55 O56 2.032 . S
Zn55 O59 2.086 . S
Zn55 O64 1.977 . S
O56 Zn55 2.032 . S
O56 C60 1.278 . S
C57 O58 1.203 . S
C57 O64 1.267 . S
O58 C57 1.203 . S
O59 C52 1.185 . S
O59 Zn55 2.086 . S
C60 O56 1.278 . S
C60 O61 1.211 . S
O61 C60 1.211 . S
C62 O54 1.284 . S
C62 O63 1.273 . S
O63 C62 1.273 . S
O64 Zn55 1.977 . S
O64 C57 1.267 . S
C65 O66 1.160 . S
C65 O72 1.185 . S
O66 C65 1.160 . S
O67 Zn68 1.899 . S
O67 C75 1.284 . S
Zn68 O67 1.899 . S
Zn68 O69 2.032 . S
Zn68 O72 2.086 . S
Zn68 O77 1.977 . S
O69 Zn68 2.032 . S
O69 C73 1.278 . S
C70 O71 1.203 . S
C70 O77 1.267 . S
O71 C70 1.203 . S
O72 C65 1.185 . S
O72 Zn68 2.086 . S
C73 O69 1.278 . S
C73 O74 1.211 . S
O74 C73 1.211 . S
C75 O67 1.284 . S
C75 O76 1.273 . S
O76 C75 1.273 . S
O77 Zn68 1.977 . S
O77 C70 1.267 . S
C78 O79 1.160 . S
C78 O85 1.185 . S
O79 C78 1.160 . S
O80 Zn81 1.899 . S
O80 C88 1.284 . S
Zn81 O80 1.899 . S
Zn81 O82 2.032 . S
Zn81 O85 2.086 . S
Zn81 O90 1.977 . S
O82 Zn81 2.032 . S
O82 C86 1.278 . S
C83 O84 1.203 . S
C83 O90 1.267 . S
O84 C83 1.203 . S
O85 C78 1.185 . S
O85 Zn81 2.086 . S
C86 O82 1.278 . S
C86 O87 1.211 . S
O87 C86 1.211 . S
C88 O80 1.284 . S
C88 O89 1.273 . S
O89 C88 1.273 . S
O90 Zn81 1.977 . S
O90 C83 1.267 . S
C91 O92 1.160 . S
C91 O98 1.185 . S
O92 C91 1.160 . S
O93 Zn94 1.899 . S
O93 C101 1.284 . S
Zn94 O93 1.899 . S
Zn94 O95 2.032 . S
Zn94 O98 2.086 . S
Zn94 O103 1.977 1_455 S
O95 Zn94 2.032 . S
O95 C99 1.278 . S
C96 O97 1.203 . S
C96 O103 1.267 . S
O97 C96 1.203 . S
O98 C91 1.185 . S
O98 Zn94 2.086 . S
C99 O95 1.278 . S
C99 O100 1.211 . S
O100 C99 1.211 . S
C101 O93 1.284 . S
C101 O102 1.273 . S
O102 C101 1.273 . S
O103 Zn94 1.977 1_655 S
O103 C96 1.267 . S
C104 O105 1.160 . S
C104 O111 1.185 . S
O105 C104 1.160 . S
O106 Zn107 1.897 . S
O106 C114 1.272 1_545 S
Zn107 O106 1.897 . S
Zn107 O108 2.032 . S
Zn107 O111 2.086 . S
Zn107 O116 1.977 1_545 S
O108 Zn107 2.032 . S
O108 C112 1.278 . S
C109 O110 1.203 . S
C109 O116 1.267 . S
O110 C109 1.203 . S
O111 C104 1.185 . S
O111 Zn107 2.086 . S
C112 O108 1.278 . S
C112 O113 1.211 1_545 S
O113 C112 1.211 1_565 S
C114 O106 1.272 1_565 S
C114 O115 1.273 . S
O115 C114 1.273 . S
O116 Zn107 1.977 1_565 S
O116 C109 1.267 . S
C117 O118 1.160 . S
C117 O124 1.185 . S
O118 C117 1.160 . S
O119 Zn120 1.899 . S
O119 C127 1.284 . S
Zn120 O119 1.899 . S
Zn120 O121 2.032 . S
Zn120 O124 2.086 . S
Zn120 O129 1.977 . S
O121 Zn120 2.032 . S
O121 C125 1.278 . S
C122 O123 1.203 . S
C122 O129 1.267 . S
O123 C122 1.203 . S
O124 C117 1.185 . S
O124 Zn120 2.086 . S
C125 O121 1.278 . S
C125 O126 1.211 . S
O126 C125 1.211 . S
C127 O119 1.284 . S
C127 O128 1.273 . S
O128 C127 1.273 . S
O129 Zn120 1.977 . S
O129 C122 1.267 . S
C130 O131 1.160 . S
C130 O137 1.185 . S
O131 C130 1.160 . S
O132 Zn133 1.899 1_565 S
O132 C140 1.284 . S
Zn133 O132 1.899 1_545 S
Zn133 O134 2.032 1_545 S
Zn133 O137 2.086 1_545 S
Zn133 O142 1.977 . S
O134 Zn133 2.032 1_565 S
O134 C138 1.278 1_565 S
C135 O136 1.203 . S
C135 O142 1.267 . S
O136 C135 1.203 . S
O137 C130 1.185 . S
O137 Zn133 2.086 1_565 S
C138 O134 1.278 1_545 S
C138 O139 1.211 . S
O139 C138 1.211 . S
C140 O132 1.284 . S
C140 O141 1.273 1_565 S
O141 C140 1.273 1_545 S
O142 Zn133 1.977 . S
O142 C135 1.267 . S
C143 O144 1.160 . S
C143 O150 1.185 . S
O144 C143 1.160 . S
O145 Zn146 1.899 . S
O145 C153 1.284 . S
Zn146 O145 1.899 . S
Zn146 O147 2.032 1_554 S
Zn146 O150 2.086 . S
Zn146 O155 1.977 . S
O147 Zn146 2.032 1_556 S
O147 C151 1.278 . S
C148 O149 1.203 . S
C148 O155 1.267 . S
O149 C148 1.203 . S
O150 C143 1.185 . S
O150 Zn146 2.086 . S
C151 O147 1.278 . S
C151 O152 1.211 . S
O152 C151 1.211 . S
C153 O145 1.284 . S
C153 O154 1.273 . S
O154 C153 1.273 . S
O155 Zn146 1.977 . S
O155 C148 1.267 . S
C156 O157 1.160 . S
C156 O163 1.185 . S
O157 C156 1.160 . S
O158 Zn159 1.899 . S
O158 C166 1.284 . S
Zn159 O158 1.899 . S
Zn159 O160 2.032 1_554 S
Zn159 O163 2.086 . S
Zn159 O168 1.977 . S
O160 Zn159 2.032 1_556 S
O160 C164 1.278 . S
C161 O162 1.203 . S
C161 O168 1.267 . S
O162 C161 1.203 . S
O163 C156 1.185 . S
O163 Zn159 2.086 . S
C164 O160 1.278 . S
C164 O165 1.211 . S
O165 C164 1.211 . S
C166 O158 1.284 . S
C166 O167 1.273 . S
O167 C166 1.273 . S
O168 Zn159 1.977 . S
O168 C161 1.267 . S
C169 O170 1.160 . S
C169 O176 1.185 . S
O170 C169 1.160 . S
O171 Zn172 1.899 . S
O171 C179 1.284 . S
Zn172 O171 1.899 . S
Zn172 O173 2.032 1_554 S
Zn172 O176 2.086 . S
Zn172 O181 1.977 . S
O173 Zn172 2.032 1_556 S
O173 C177 1.278 . S
C174 O175 1.203 . S
C174 O181 1.267 . S
O175 C174 1.203 . S
O176 C169 1.185 . S
O176 Zn172 2.086 . S
C177 O173 1.278 . S
C177 O178 1.211 . S
O178 C177 1.211 . S
C179 O171 1.284 . S
C179 O180 1.273 . S
O180 C179 1.273 . S
O181 Zn172 1.977 . S
O181 C174 1.267 . S
C182 O183 1.160 . S
C182 O189 1.185 . S
O183 C182 1.160 . S
O184 Zn185 1.899 . S
O184 C192 1.284 . S
Zn185 O184 1.899 . S
Zn185 O186 2.032 . S
Zn185 O189 2.086 . S
Zn185 O194 1.977 . S
O186 Zn185 2.032 . S
O186 C190 1.278 . S
C187 O188 1.203 . S
C187 O194 1.267 . S
O188 C187 1.203 . S
O189 C182 1.185 . S
O189 Zn185 2.086 . S
C190 O186 1.278 . S
C190 O191 1.211 . S
O191 C190 1.211 . S
C192 O184 1.284 . S
C192 O193 1.273 . S
O193 C192 1.273 . S
O194 Zn185 1.977 . S
O194 C187 1.267 . S
C195 O196 1.160 . S
C195 O202 1.185 . S
O196 C195 1.160 . S
O197 Zn198 1.899 . S
O197 C205 1.284 . S
Zn198 O197 1.899 . S
Zn198 O199 2.032 . S
Zn198 O202 2.086 . S
Zn198 O207 1.977 . S
O199 Zn198 2.032 . S
O199 C203 1.278 . S
C200 O201 1.203 . S
C200 O207 1.267 . S
O201 C200 1.203 . S
O202 C195 1.185 . S
O202 Zn198 2.086 . S
C203 O199 1.278 . S
C203 O204 1.211 . S
O204 C203 1.211 . S
C205 O197 1.284 . S
C205 O206 1.273 . S
O206 C205 1.273 . S
O207 Zn198 1.977 . S
O207 C200 1.267 . S
C208 O209 1.160 . S
C208 O215 1.185 . S
O209 C208 1.160 . S
O210 Zn211 1.899 . S
O210 C218 1.284 . S
Zn211 O210 1.899 . S
Zn211 O212 2.032 . S
Zn211 O215 2.086 . S
Zn211 O220 1.977 . S
O212 Zn211 2.032 . S
O212 C216 1.278 . S
C213 O214 1.203 . S
C213 O220 1.267 . S
O214 C213 1.203 . S
O215 C208 1.185 . S
O215 Zn211 2.086 . S
C216 O212 1.278 . S
C216 O217 1.211 . S
O217 C216 1.211 . S
C218 O210 1.284 . S
C218 O219 1.273 . S
O219 C218 1.273 . S
O220 Zn211 1.977 . S
O220 C213 1.267 . S
C221 O222 1.160 . S
C221 O228 1.185 . S
O222 C221 1.160 . S
O223 Zn224 1.899 . S
O223 C231 1.284 . S
Zn224 O223 1.899 . S
Zn224 O225 2.032 . S
Zn224 O228 2.086 . S
Zn224 O233 1.977 . S
O225 Zn224 2.032 . S
O225 C229 1.278 . S
C226 O227 1.203 . S
C226 O233 1.267 . S
O227 C226 1.203 . S
O228 C221 1.185 . S
O228 Zn224 2.086 . S
C229 O225 1.278 . S
C229 O230 1.211 . S
O230 C229 1.211 . S
C231 O223 1.284 . S
C231 O232 1.273 . S
O232 C231 1.273 . S
O233 Zn224 1.977 . S
O233 C226 1.267 . S
C234 O235 1.160 . S
C234 O241 1.185 . S
O235 C234 1.160 . S
O236 Zn237 1.899 . S
O236 C244 1.284 . S
Zn237 O236 1.899 . S
Zn237 O238 2.032 . S
Zn237 O241 2.086 . S
Zn237 O246 1.977 . S
O238 Zn237 2.032 . S
O238 C242 1.278 . S
C239 O240 1.203 . S
C239 O246 1.267 . S
O240 C239 1.203 . S
O241 C234 1.185 . S
O241 Zn237 2.086 . S
C242 O238 1.278 . S
C242 O243 1.211 . S
O243 C242 1.211 . S
C244 O236 1.284 . S
C244 O245 1.273 . S
O245 C244 1.273 . S
O246 Zn237 1.977 . S
O246 C239 1.267 . S
C247 O248 1.160 . S
C247 O254 1.185 . S
O248 C247 1.160 . S
O249 Zn250 1.899 . S
O249 C257 1.284 . S
Zn250 O249 1.899 . S
Zn250 O251 2.032 . S
Zn250 O254 2.086 . S
Zn250 O259 1.977 . S
O251 Zn250 2.032 . S
O251 C255 1.278 . S
C252 O253 1.203 . S
C252 O259 1.267 . S
O253 C252 1.203 . S
O254 C247 1.185 . S
O254 Zn250 2.086 . S
C255 O251 1.278 . S
C255 O256 1.211 . S
O256 C255 1.211 . S
C257 O249 1.284 . S
C257 O258 1.273 . S
O258 C257 1.273 . S
O259 Zn250 1.977 . S
O259 C252 1.267 . S
C260 O261 1.160 . S
C260 O267 1.196 . S
O261 C260 1.160 . S
O262 Zn263 1.899 . S
O262 C270 1.284 . S
Zn263 O262 1.899 . S
Zn263 O264 2.032 1_554 S
Zn263 O267 2.094 . S
Zn263 O272 1.977 1_554 S
O264 Zn263 2.032 1_556 S
O264 C268 1.278 . S
C265 O266 1.203 . S
C265 O272 1.267 1_554 S
O266 C265 1.203 . S
O267 C260 1.196 . S
O267 Zn263 2.094 . S
C268 O264 1.278 . S
C268 O269 1.211 . S
O269 C268 1.211 . S
C270 O262 1.284 . S
C270 O271 1.273 . S
O271 C270 1.273 . S
O272 Zn263 1.977 1_556 S
O272 C265 1.267 1_556 S
C273 O274 1.160 . S
C273 O280 1.185 . S
O274 C273 1.160 . S
O275 Zn276 1.899 . S
O275 C283 1.284 . S
Zn276 O275 1.899 . S
Zn276 O277 2.032 . S
Zn276 O280 2.086 . S
Zn276 O285 1.977 . S
O277 Zn276 2.032 . S
O277 C281 1.278 . S
C278 O279 1.203 . S
C278 O285 1.267 . S
O279 C278 1.203 . S
O280 C273 1.185 . S
O280 Zn276 2.086 . S
C281 O277 1.278 . S
C281 O282 1.211 . S
O282 C281 1.211 . S
C283 O275 1.284 . S
C283 O284 1.273 . S
O284 C283 1.273 . S
O285 Zn276 1.977 . S
O285 C278 1.267 . S
C286 O287 1.160 . S
C286 O293 1.185 . S
O287 C286 1.160 . S
O288 Zn289 1.899 . S
O288 C296 1.284 . S
Zn289 O288 1.899 . S
Zn289 O290 2.032 . S
Zn289 O293 2.086 . S
Zn289 O298 1.977 . S
O290 Zn289 2.032 . S
O290 C294 1.278 . S
C291 O292 1.203 . S
C291 O298 1.267 . S
O292 C291 1.203 . S
O293 C286 1.185 . S
O293 Zn289 2.086 . S
C294 O290 1.278 . S
C294 O295 1.211 . S
O295 C294 1.211 . S
C296 O288 1.284 . S
C296 O297 1.273 . S
O297 C296 1.273 . S
O298 Zn289 1.977 . S
O298 C291 1.267 . S
C299 O300 1.160 . S
C299 O306 1.185 . S
O300 C299 1.160 . S
O301 Zn302 1.899 . S
O301 C309 1.284 . S
Zn302 O301 1.899 . S
Zn302 O303 2.032 . S
Zn302 O306 2.086 . S
Zn302 O311 1.977 . S
O303 Zn302 2.032 . S
O303 C307 1.278 . S
C304 O305 1.203 . S
C304 O311 1.267 . S
O305 C304 1.203 . S
O306 C299 1.185 . S
O306 Zn302 2.086 . S
C307 O303 1.278 . S
C307 O308 1.211 . S
O308 C307 1.211 . S
C309 O301 1.284 . S
C309 O310 1.273 . S
O310 C309 1.273 . S
O311 Zn302 1.977 . S
O311 C304 1.267 . S
Ho312 C315 2.811 1_455 S
Ho312 O332 2.322 . S
Ho312 O334 2.378 1_455 S
Ho312 O335 2.524 1_456 S
Ho312 O336 2.381 . S
Ho312 O337 2.669 . S
Ho312 O339 2.346 1_546 S
Ho312 O343 2.305 1_556 S
Ho313 C324 2.811 . S
Ho313 O333 2.346 . S
Ho313 O337 2.305 1_554 S
Ho313 O338 2.322 . S
Ho313 O340 2.378 . S
Ho313 O341 2.524 . S
Ho313 O342 2.381 . S
Ho313 O343 2.669 . S
C314 O332 1.259 1_554 S
C314 O333 1.268 . S
C315 Ho312 2.811 1_655 S
C315 C316 1.488 . S
C315 O334 1.215 . S
C315 O335 1.289 1_556 S
C316 C315 1.488 . S
C316 C317 1.348 . S
C316 C321 1.413 . S
C317 C316 1.348 . S
C317 C318 1.442 . S
C317 H344 0.930 1_556 S
C318 C317 1.442 . S
C318 C319 1.381 . S
C318 H345 0.931 1_556 S
C319 C318 1.381 . S
C319 C320 1.321 . S
C320 C319 1.321 . S
C320 C321 1.403 . S
C320 H346 0.934 . S
C321 C316 1.413 . S
C321 C320 1.403 . S
C321 H347 0.930 . S
C322 O336 1.275 . S
C322 O337 1.256 . S
C323 O338 1.259 1_565 S
C323 O339 1.268 . S
C324 Ho313 2.811 . S
C324 C325 1.488 . S
C324 O340 1.215 . S
C324 O341 1.289 . S
C325 C324 1.488 . S
C325 C326 1.348 . S
C325 C330 1.413 . S
C326 C325 1.348 . S
C326 C327 1.442 1_545 S
C326 H348 0.930 1_545 S
C327 C326 1.442 1_565 S
C327 C328 1.381 1_565 S
C327 H349 0.931 . S
C328 C327 1.381 1_545 S
C328 C329 1.321 . S
C329 C328 1.321 . S
C329 C330 1.403 . S
C329 H350 0.934 . S
C330 C325 1.413 . S
C330 C329 1.403 . S
C330 H351 0.930 . S
C331 O342 1.275 . S
C331 O343 1.256 . S
O332 Ho312 2.322 . S
O332 C314 1.259 1_556 S
O333 Ho313 2.346 . S
O333 C314 1.268 . S
O334 Ho312 2.378 1_655 S
O334 C315 1.215 . S
O335 Ho312 2.524 1_654 S
O335 C315 1.289 1_554 S
O336 Ho312 2.381 . S
O336 C322 1.275 . S
O337 Ho312 2.669 . S
O337 Ho313 2.305 1_556 S
O337 C322 1.256 . S
O338 Ho313 2.322 . S
O338 C323 1.259 1_545 S
O339 Ho312 2.346 1_564 S
O339 C323 1.268 . S
O340 Ho313 2.378 . S
O340 C324 1.215 . S
O341 Ho313 2.524 . S
O341 C324 1.289 . S
O342 Ho313 2.381 . S
O342 C331 1.275 . S
O343 Ho312 2.305 1_554 S
O343 Ho313 2.669 . S
O343 C331 1.256 . S
H344 C317 0.930 1_554 S
H345 C318 0.931 1_554 S
H346 C320 0.934 . S
H347 C321 0.930 . S
H348 C326 0.930 1_565 S
H349 C327 0.931 . S
H350 C329 0.934 . S
H351 C330 0.930 . S
Ho352 C355 2.811 . S
Ho352 O372 2.322 . S
Ho352 O374 2.378 . S
Ho352 O375 2.524 . S
Ho352 O376 2.381 . S
Ho352 O377 2.669 . S
Ho352 O379 2.346 . S
Ho352 O383 2.305 . S
Ho353 C364 2.811 . S
Ho353 O373 2.346 . S
Ho353 O377 2.305 . S
Ho353 O378 2.322 . S
Ho353 O380 2.378 . S
Ho353 O381 2.524 . S
Ho353 O382 2.381 . S
Ho353 O383 2.669 . S
C354 O372 1.259 . S
C354 O373 1.268 . S
C355 Ho352 2.811 . S
C355 C356 1.488 . S
C355 O374 1.215 . S
C355 O375 1.289 . S
C356 C355 1.488 . S
C356 C357 1.348 . S
C356 C361 1.413 . S
C357 C356 1.348 . S
C357 C358 1.442 . S
C357 H384 0.930 . S
C358 C357 1.442 . S
C358 C359 1.381 . S
C358 H385 0.931 . S
C359 C358 1.381 . S
C359 C360 1.321 . S
C360 C359 1.321 . S
C360 C361 1.403 . S
C360 H386 0.934 . S
C361 C356 1.413 . S
C361 C360 1.403 . S
C361 H387 0.930 . S
C362 O376 1.275 . S
C362 O377 1.256 . S
C363 O378 1.259 . S
C363 O379 1.268 . S
C364 Ho353 2.811 . S
C364 C365 1.488 . S
C364 O380 1.215 . S
C364 O381 1.289 . S
C365 C364 1.488 . S
C365 C366 1.348 . S
C365 C370 1.413 . S
C366 C365 1.348 . S
C366 C367 1.442 . S
C366 H388 0.930 . S
C367 C366 1.442 . S
C367 C368 1.381 . S
C367 H389 0.931 . S
C368 C367 1.381 . S
C368 C369 1.321 . S
C369 C368 1.321 . S
C369 C370 1.403 . S
C369 H390 0.934 . S
C370 C365 1.413 . S
C370 C369 1.403 . S
C370 H391 0.930 . S
C371 O382 1.275 . S
C371 O383 1.256 . S
O372 Ho352 2.322 . S
O372 C354 1.259 . S
O373 Ho353 2.346 . S
O373 C354 1.268 . S
O374 Ho352 2.378 . S
O374 C355 1.215 . S
O375 Ho352 2.524 . S
O375 C355 1.289 . S
O376 Ho352 2.381 . S
O376 C362 1.275 . S
O377 Ho352 2.669 . S
O377 Ho353 2.305 . S
O377 C362 1.256 . S
O378 Ho353 2.322 . S
O378 C363 1.259 . S
O379 Ho352 2.346 . S
O379 C363 1.268 . S
O380 Ho353 2.378 . S
O380 C364 1.215 . S
O381 Ho353 2.524 . S
O381 C364 1.289 . S
O382 Ho353 2.381 . S
O382 C371 1.275 . S
O383 Ho352 2.305 . S
O383 Ho353 2.669 . S
O383 C371 1.256 . S
H384 C357 0.930 . S
H385 C358 0.931 . S
H386 C360 0.934 . S
H387 C361 0.930 . S
H388 C366 0.930 . S
H389 C367 0.931 . S
H390 C369 0.934 . S
H391 C370 0.930 . S
Ho392 C395 2.811 . S
Ho392 O412 2.354 . S
Ho392 O414 2.378 . S
Ho392 O415 2.524 . S
Ho392 O416 2.381 . S
Ho392 O417 2.669 . S
Ho392 O419 2.346 . S
Ho392 O423 2.305 . S
Ho393 C404 2.811 . S
Ho393 O413 2.346 1_545 S
Ho393 O417 2.305 . S
Ho393 O418 2.322 . S
Ho393 O420 2.378 . S
Ho393 O421 2.524 . S
Ho393 O422 2.381 . S
Ho393 O423 2.669 . S
C394 O412 1.240 1_565 S
C394 O413 1.268 . S
C395 Ho392 2.811 . S
C395 C396 1.488 1_545 S
C395 O414 1.215 . S
C395 O415 1.289 . S
C396 C395 1.488 1_565 S
C396 C397 1.348 . S
C396 C401 1.413 . S
C397 C396 1.348 . S
C397 C398 1.442 . S
C397 H424 0.930 . S
C398 C397 1.442 . S
C398 C399 1.381 . S
C398 H425 0.931 . S
C399 C398 1.381 . S
C399 C400 1.321 . S
C400 C399 1.321 . S
C400 C401 1.403 . S
C400 H426 0.934 . S
C401 C396 1.413 . S
C401 C400 1.403 . S
C401 H427 0.927 . S
C402 O416 1.275 . S
C402 O417 1.256 . S
C403 O418 1.259 . S
C403 O419 1.268 . S
C404 Ho393 2.811 . S
C404 C405 1.488 . S
C404 O420 1.215 . S
C404 O421 1.289 . S
C405 C404 1.488 . S
C405 C406 1.348 . S
C405 C410 1.413 . S
C406 C405 1.348 . S
C406 C407 1.442 . S
C406 H428 0.930 . S
C407 C406 1.442 . S
C407 C408 1.381 . S
C407 H429 0.931 . S
C408 C407 1.381 . S
C408 C409 1.321 . S
C409 C408 1.321 . S
C409 C410 1.403 . S
C409 H430 0.934 . S
C410 C405 1.413 . S
C410 C409 1.403 . S
C410 H431 0.930 . S
C411 O422 1.275 . S
C411 O423 1.256 . S
O412 Ho392 2.354 . S
O412 C394 1.240 1_545 S
O413 Ho393 2.346 1_565 S
O413 C394 1.268 . S
O414 Ho392 2.378 . S
O414 C395 1.215 . S
O415 Ho392 2.524 . S
O415 C395 1.289 . S
O416 Ho392 2.381 . S
O416 C402 1.275 . S
O417 Ho392 2.669 . S
O417 Ho393 2.305 . S
O417 C402 1.256 . S
O418 Ho393 2.322 . S
O418 C403 1.259 . S
O419 Ho392 2.346 . S
O419 C403 1.268 . S
O420 Ho393 2.378 . S
O420 C404 1.215 . S
O421 Ho393 2.524 . S
O421 C404 1.289 . S
O422 Ho393 2.381 . S
O422 C411 1.275 . S
O423 Ho392 2.305 . S
O423 Ho393 2.669 . S
O423 C411 1.256 . S
H424 C397 0.930 . S
H425 C398 0.931 . S
H426 C400 0.934 . S
H427 C401 0.927 . S
H428 C406 0.930 . S
H429 C407 0.931 . S
H430 C409 0.934 . S
H431 C410 0.930 . S
Ho432 C435 2.811 . S
Ho432 O452 2.322 . S
Ho432 O454 2.378 . S
Ho432 O455 2.524 . S
Ho432 O456 2.381 . S
Ho432 O457 2.669 . S
Ho432 O459 2.346 . S
Ho432 O463 2.305 . S
Ho433 C444 2.811 . S
Ho433 O453 2.346 . S
Ho433 O457 2.305 . S
Ho433 O458 2.322 . S
Ho433 O460 2.378 . S
Ho433 O461 2.524 . S
Ho433 O462 2.381 . S
Ho433 O463 2.669 . S
C434 O452 1.259 . S
C434 O453 1.268 . S
C435 Ho432 2.811 . S
C435 C436 1.488 . S
C435 O454 1.215 . S
C435 O455 1.289 . S
C436 C435 1.488 . S
C436 C437 1.348 . S
C436 C441 1.413 . S
C437 C436 1.348 . S
C437 C438 1.442 . S
C437 H464 0.930 . S
C438 C437 1.442 . S
C438 C439 1.381 . S
C438 H465 0.931 . S
C439 C438 1.381 . S
C439 C440 1.321 . S
C440 C439 1.321 . S
C440 C441 1.403 . S
C440 H466 0.934 . S
C441 C436 1.413 . S
C441 C440 1.403 . S
C441 H467 0.930 . S
C442 O456 1.275 . S
C442 O457 1.256 . S
C443 O458 1.259 . S
C443 O459 1.268 . S
C444 Ho433 2.811 . S
C444 C445 1.488 . S
C444 O460 1.215 . S
C444 O461 1.289 . S
C445 C444 1.488 . S
C445 C446 1.348 . S
C445 C450 1.413 . S
C446 C445 1.348 . S
C446 C447 1.442 . S
C446 H468 0.930 . S
C447 C446 1.442 . S
C447 C448 1.381 . S
C447 H469 0.931 . S
C448 C447 1.381 . S
C448 C449 1.321 . S
C449 C448 1.321 . S
C449 C450 1.403 . S
C449 H470 0.934 . S
C450 C445 1.413 . S
C450 C449 1.403 . S
C450 H471 0.930 . S
C451 O462 1.275 . S
C451 O463 1.256 . S
O452 Ho432 2.322 . S
O452 C434 1.259 . S
O453 Ho433 2.346 . S
O453 C434 1.268 . S
O454 Ho432 2.378 . S
O454 C435 1.215 . S
O455 Ho432 2.524 . S
O455 C435 1.289 . S
O456 Ho432 2.381 . S
O456 C442 1.275 . S
O457 Ho432 2.669 . S
O457 Ho433 2.305 . S
O457 C442 1.256 . S
O458 Ho433 2.322 . S
O458 C443 1.259 . S
O459 Ho432 2.346 . S
O459 C443 1.268 . S
O460 Ho433 2.378 . S
O460 C444 1.215 . S
O461 Ho433 2.524 . S
O461 C444 1.289 . S
O462 Ho433 2.381 . S
O462 C451 1.275 . S
O463 Ho432 2.305 . S
O463 Ho433 2.669 . S
O463 C451 1.256 . S
H464 C437 0.930 . S
H465 C438 0.931 . S
H466 C440 0.934 . S
H467 C441 0.930 . S
H468 C446 0.930 . S
H469 C447 0.931 . S
H470 C449 0.934 . S
H471 C450 0.930 . S
Ho472 C475 2.811 . S
Ho472 O492 2.322 . S
Ho472 O494 2.378 . S
Ho472 O495 2.524 . S
Ho472 O496 2.381 . S
Ho472 O497 2.669 . S
Ho472 O499 2.346 . S
Ho472 O503 2.305 . S
Ho473 C484 2.811 1_545 S
Ho473 O493 2.346 . S
Ho473 O497 2.305 . S
Ho473 O498 2.322 . S
Ho473 O500 2.378 1_545 S
Ho473 O501 2.524 1_545 S
Ho473 O502 2.381 . S
Ho473 O503 2.669 . S
C474 O492 1.259 . S
C474 O493 1.268 . S
C475 Ho472 2.811 . S
C475 C476 1.488 . S
C475 O494 1.215 . S
C475 O495 1.289 . S
C476 C475 1.488 . S
C476 C477 1.348 . S
C476 C481 1.413 . S
C477 C476 1.348 . S
C477 C478 1.442 . S
C477 H504 0.930 . S
C478 C477 1.442 . S
C478 C479 1.381 . S
C478 H505 0.931 . S
C479 C478 1.381 . S
C479 C480 1.321 . S
C480 C479 1.321 . S
C480 C481 1.403 . S
C480 H506 0.934 . S
C481 C476 1.413 . S
C481 C480 1.403 . S
C481 H507 0.930 . S
C482 O496 1.275 . S
C482 O497 1.256 . S
C483 O498 1.259 . S
C483 O499 1.268 . S
C484 Ho473 2.811 1_565 S
C484 C485 1.488 . S
C484 O500 1.215 . S
C484 O501 1.289 . S
C485 C484 1.488 . S
C485 C486 1.348 . S
C485 C490 1.413 . S
C486 C485 1.348 . S
C486 C487 1.442 . S
C486 H508 0.930 . S
C487 C486 1.442 . S
C487 C488 1.381 . S
C487 H509 0.931 . S
C488 C487 1.381 . S
C488 C489 1.321 . S
C489 C488 1.321 . S
C489 C490 1.403 . S
C489 H510 0.934 . S
C490 C485 1.413 . S
C490 C489 1.403 . S
C490 H511 0.930 . S
C491 O502 1.275 . S
C491 O503 1.256 . S
O492 Ho472 2.322 . S
O492 C474 1.259 . S
O493 Ho473 2.346 . S
O493 C474 1.268 . S
O494 Ho472 2.378 . S
O494 C475 1.215 . S
O495 Ho472 2.524 . S
O495 C475 1.289 . S
O496 Ho472 2.381 . S
O496 C482 1.275 . S
O497 Ho472 2.669 . S
O497 Ho473 2.305 . S
O497 C482 1.256 . S
O498 Ho473 2.322 . S
O498 C483 1.259 . S
O499 Ho472 2.346 . S
O499 C483 1.268 . S
O500 Ho473 2.378 1_565 S
O500 C484 1.215 . S
O501 Ho473 2.524 1_565 S
O501 C484 1.289 . S
O502 Ho473 2.381 . S
O502 C491 1.275 . S
O503 Ho472 2.305 . S
O503 Ho473 2.669 . S
O503 C491 1.256 . S
H504 C477 0.930 . S
H505 C478 0.931 . S
H506 C480 0.934 . S
H507 C481 0.930 . S
H508 C486 0.930 . S
H509 C487 0.931 . S
H510 C489 0.934 . S
H511 C490 0.930 . S
Ho512 C515 2.811 . S
Ho512 O532 2.322 . S
Ho512 O534 2.378 . S
Ho512 O535 2.524 . S
Ho512 O536 2.381 . S
Ho512 O537 2.669 . S
Ho512 O539 2.346 . S
Ho512 O543 2.305 . S
Ho513 C524 2.811 . S
Ho513 O533 2.346 . S
Ho513 O537 2.305 . S
Ho513 O538 2.322 . S
Ho513 O540 2.378 . S
Ho513 O541 2.524 . S
Ho513 O542 2.381 . S
Ho513 O543 2.669 . S
C514 O532 1.259 . S
C514 O533 1.268 . S
C515 Ho512 2.811 . S
C515 C516 1.488 . S
C515 O534 1.215 . S
C515 O535 1.289 . S
C516 C515 1.488 . S
C516 C517 1.348 . S
C516 C521 1.413 . S
C517 C516 1.348 . S
C517 C518 1.442 . S
C517 H544 0.930 . S
C518 C517 1.442 . S
C518 C519 1.381 . S
C518 H545 0.931 . S
C519 C518 1.381 . S
C519 C520 1.321 . S
C520 C519 1.321 . S
C520 C521 1.403 . S
C520 H546 0.934 . S
C521 C516 1.413 . S
C521 C520 1.403 . S
C521 H547 0.930 . S
C522 O536 1.275 . S
C522 O537 1.256 . S
C523 O538 1.259 . S
C523 O539 1.268 . S
C524 Ho513 2.811 . S
C524 C525 1.488 . S
C524 O540 1.215 . S
C524 O541 1.289 . S
C525 C524 1.488 . S
C525 C526 1.348 . S
C525 C530 1.413 . S
C526 C525 1.348 . S
C526 C527 1.442 . S
C526 H548 0.930 . S
C527 C526 1.442 . S
C527 C528 1.381 . S
C527 H549 0.931 . S
C528 C527 1.381 . S
C528 C529 1.321 . S
C529 C528 1.321 . S
C529 C530 1.403 . S
C529 H550 0.934 . S
C530 C525 1.413 . S
C530 C529 1.403 . S
C530 H551 0.930 . S
C531 O542 1.275 . S
C531 O543 1.256 . S
O532 Ho512 2.322 . S
O532 C514 1.259 . S
O533 Ho513 2.346 . S
O533 C514 1.268 . S
O534 Ho512 2.378 . S
O534 C515 1.215 . S
O535 Ho512 2.524 . S
O535 C515 1.289 . S
O536 Ho512 2.381 . S
O536 C522 1.275 . S
O537 Ho512 2.669 . S
O537 Ho513 2.305 . S
O537 C522 1.256 . S
O538 Ho513 2.322 . S
O538 C523 1.259 . S
O539 Ho512 2.346 . S
O539 C523 1.268 . S
O540 Ho513 2.378 . S
O540 C524 1.215 . S
O541 Ho513 2.524 . S
O541 C524 1.289 . S
O542 Ho513 2.381 . S
O542 C531 1.275 . S
O543 Ho512 2.305 . S
O543 Ho513 2.669 . S
O543 C531 1.256 . S
H544 C517 0.930 . S
H545 C518 0.931 . S
H546 C520 0.934 . S
H547 C521 0.930 . S
H548 C526 0.930 . S
H549 C527 0.931 . S
H550 C529 0.934 . S
H551 C530 0.930 . S
Ho552 C555 2.811 . S
Ho552 O572 2.322 . S
Ho552 O574 2.378 1_545 S
Ho552 O575 2.524 . S
Ho552 O576 2.381 1_545 S
Ho552 O577 2.629 1_554 S
Ho552 O579 2.346 . S
Ho552 O583 2.305 . S
Ho553 C564 2.811 . S
Ho553 O573 2.346 . S
Ho553 O577 2.326 . S
Ho553 O578 2.322 1_556 S
Ho553 O580 2.378 . S
Ho553 O581 2.524 . S
Ho553 O582 2.381 1_556 S
Ho553 O583 2.669 1_556 S
C554 O572 1.259 . S
C554 O573 1.268 1_554 S
C555 Ho552 2.811 . S
C555 C556 1.497 . S
C555 O574 1.215 1_545 S
C555 O575 1.289 . S
C556 C555 1.497 . S
C556 C557 1.367 . S
C556 C561 1.384 1_545 S
C557 C556 1.367 . S
C557 C558 1.442 . S
C557 H584 0.930 . S
C558 C557 1.442 . S
C558 C559 1.381 1_545 S
C558 H585 0.931 . S
C559 C558 1.381 1_565 S
C559 C560 1.321 . S
C560 C559 1.321 . S
C560 C561 1.403 . S
C560 H586 0.934 . S
C561 C556 1.384 1_565 S
C561 C560 1.403 . S
C561 H587 0.930 . S
C562 O576 1.275 . S
C562 O577 1.243 1_564 S
C563 O578 1.259 . S
C563 O579 1.268 . S
C564 Ho553 2.811 . S
C564 C565 1.488 . S
C564 O580 1.215 . S
C564 O581 1.289 . S
C565 C564 1.488 . S
C565 C566 1.348 . S
C565 C570 1.413 . S
C566 C565 1.348 . S
C566 C567 1.442 . S
C566 H588 0.930 . S
C567 C566 1.442 . S
C567 C568 1.381 . S
C567 H589 0.931 . S
C568 C567 1.381 . S
C568 C569 1.321 . S
C569 C568 1.321 . S
C569 C570 1.403 . S
C569 H590 0.934 . S
C570 C565 1.413 . S
C570 C569 1.403 . S
C570 H591 0.930 . S
C571 O582 1.275 . S
C571 O583 1.256 . S
O572 Ho552 2.322 . S
O572 C554 1.259 . S
O573 Ho553 2.346 . S
O573 C554 1.268 1_556 S
O574 Ho552 2.378 1_565 S
O574 C555 1.215 1_565 S
O575 Ho552 2.524 . S
O575 C555 1.289 . S
O576 Ho552 2.381 1_565 S
O576 C562 1.275 . S
O577 Ho552 2.629 1_556 S
O577 Ho553 2.326 . S
O577 C562 1.243 1_546 S
O578 Ho553 2.322 1_554 S
O578 C563 1.259 . S
O579 Ho552 2.346 . S
O579 C563 1.268 . S
O580 Ho553 2.378 . S
O580 C564 1.215 . S
O581 Ho553 2.524 . S
O581 C564 1.289 . S
O582 Ho553 2.381 1_554 S
O582 C571 1.275 . S
O583 Ho552 2.305 . S
O583 Ho553 2.669 1_554 S
O583 C571 1.256 . S
H584 C557 0.930 . S
H585 C558 0.931 . S
H586 C560 0.934 . S
H587 C561 0.930 . S
H588 C566 0.930 . S
H589 C567 0.931 . S
H590 C569 0.934 . S
H591 C570 0.930 . S
Ho592 C595 2.811 . S
Ho592 O612 2.322 . S
Ho592 O614 2.378 . S
Ho592 O615 2.524 . S
Ho592 O616 2.381 . S
Ho592 O617 2.669 . S
Ho592 O619 2.346 . S
Ho592 O623 2.305 . S
Ho593 C604 2.811 . S
Ho593 O613 2.346 . S
Ho593 O617 2.305 . S
Ho593 O618 2.322 . S
Ho593 O620 2.378 . S
Ho593 O621 2.524 . S
Ho593 O622 2.381 . S
Ho593 O623 2.669 . S
C594 O612 1.259 . S
C594 O613 1.268 . S
C595 Ho592 2.811 . S
C595 C596 1.488 . S
C595 O614 1.215 . S
C595 O615 1.289 . S
C596 C595 1.488 . S
C596 C597 1.348 . S
C596 C601 1.413 . S
C597 C596 1.348 . S
C597 C598 1.442 . S
C597 H624 0.930 . S
C598 C597 1.442 . S
C598 C599 1.381 . S
C598 H625 0.931 . S
C599 C598 1.381 . S
C599 C600 1.321 . S
C600 C599 1.321 . S
C600 C601 1.403 . S
C600 H626 0.934 . S
C601 C596 1.413 . S
C601 C600 1.403 . S
C601 H627 0.930 . S
C602 O616 1.275 . S
C602 O617 1.256 . S
C603 O618 1.259 . S
C603 O619 1.268 . S
C604 Ho593 2.811 . S
C604 C605 1.488 . S
C604 O620 1.215 . S
C604 O621 1.289 . S
C605 C604 1.488 . S
C605 C606 1.348 . S
C605 C610 1.413 . S
C606 C605 1.348 . S
C606 C607 1.442 . S
C606 H628 0.930 . S
C607 C606 1.442 . S
C607 C608 1.381 . S
C607 H629 0.931 . S
C608 C607 1.381 . S
C608 C609 1.321 . S
C609 C608 1.321 . S
C609 C610 1.403 . S
C609 H630 0.934 . S
C610 C605 1.413 . S
C610 C609 1.403 . S
C610 H631 0.930 . S
C611 O622 1.275 . S
C611 O623 1.256 . S
O612 Ho592 2.322 . S
O612 C594 1.259 . S
O613 Ho593 2.346 . S
O613 C594 1.268 . S
O614 Ho592 2.378 . S
O614 C595 1.215 . S
O615 Ho592 2.524 . S
O615 C595 1.289 . S
O616 Ho592 2.381 . S
O616 C602 1.275 . S
O617 Ho592 2.669 . S
O617 Ho593 2.305 . S
O617 C602 1.256 . S
O618 Ho593 2.322 . S
O618 C603 1.259 . S
O619 Ho592 2.346 . S
O619 C603 1.268 . S
O620 Ho593 2.378 . S
O620 C604 1.215 . S
O621 Ho593 2.524 . S
O621 C604 1.289 . S
O622 Ho593 2.381 . S
O622 C611 1.275 . S
O623 Ho592 2.305 . S
O623 Ho593 2.669 . S
O623 C611 1.256 . S
H624 C597 0.930 . S
H625 C598 0.931 . S
H626 C600 0.934 . S
H627 C601 0.930 . S
H628 C606 0.930 . S
H629 C607 0.931 . S
H630 C609 0.934 . S
H631 C610 0.930 . S
Ho632 C635 2.811 . S
Ho632 O652 2.322 1_554 S
Ho632 O654 2.378 . S
Ho632 O655 2.524 . S
Ho632 O656 2.381 . S
Ho632 O657 2.669 . S
Ho632 O659 2.346 . S
Ho632 O663 2.305 . S
Ho633 C644 2.811 . S
Ho633 O653 2.346 1_554 S
Ho633 O657 2.305 . S
Ho633 O658 2.322 . S
Ho633 O660 2.378 . S
Ho633 O661 2.524 . S
Ho633 O662 2.381 . S
Ho633 O663 2.669 . S
C634 O652 1.259 . S
C634 O653 1.268 . S
C635 Ho632 2.811 . S
C635 C636 1.488 1_554 S
C635 O654 1.215 . S
C635 O655 1.289 . S
C636 C635 1.488 1_556 S
C636 C637 1.348 . S
C636 C641 1.413 . S
C637 C636 1.348 . S
C637 C638 1.442 . S
C637 H664 0.930 . S
C638 C637 1.442 . S
C638 C639 1.381 . S
C638 H665 0.931 . S
C639 C638 1.381 . S
C639 C640 1.321 . S
C640 C639 1.321 . S
C640 C641 1.403 . S
C640 H666 0.934 . S
C641 C636 1.413 . S
C641 C640 1.403 . S
C641 H667 0.930 1_556 S
C642 O656 1.275 . S
C642 O657 1.256 . S
C643 O658 1.259 . S
C643 O659 1.268 . S
C644 Ho633 2.811 . S
C644 C645 1.488 . S
C644 O660 1.215 . S
C644 O661 1.289 . S
C645 C644 1.488 . S
C645 C646 1.348 . S
C645 C650 1.413 . S
C646 C645 1.348 . S
C646 C647 1.442 . S
C646 H668 0.930 . S
C647 C646 1.442 . S
C647 C648 1.381 . S
C647 H669 0.931 . S
C648 C647 1.381 . S
C648 C649 1.321 . S
C649 C648 1.321 . S
C649 C650 1.403 . S
C649 H670 0.934 . S
C650 C645 1.413 . S
C650 C649 1.403 . S
C650 H671 0.930 . S
C651 O662 1.275 . S
C651 O663 1.256 . S
O652 Ho632 2.322 1_556 S
O652 C634 1.259 . S
O653 Ho633 2.346 1_556 S
O653 C634 1.268 . S
O654 Ho632 2.378 . S
O654 C635 1.215 . S
O655 Ho632 2.524 . S
O655 C635 1.289 . S
O656 Ho632 2.381 . S
O656 C642 1.275 . S
O657 Ho632 2.669 . S
O657 Ho633 2.305 . S
O657 C642 1.256 . S
O658 Ho633 2.322 . S
O658 C643 1.259 . S
O659 Ho632 2.346 . S
O659 C643 1.268 . S
O660 Ho633 2.378 . S
O660 C644 1.215 . S
O661 Ho633 2.524 . S
O661 C644 1.289 . S
O662 Ho633 2.381 . S
O662 C651 1.275 . S
O663 Ho632 2.305 . S
O663 Ho633 2.669 . S
O663 C651 1.256 . S
H664 C637 0.930 . S
H665 C638 0.931 . S
H666 C640 0.934 . S
H667 C641 0.930 1_554 S
H668 C646 0.930 . S
H669 C647 0.931 . S
H670 C649 0.934 . S
H671 C650 0.930 . S
Ho672 C675 2.811 . S
Ho672 O692 2.322 . S
Ho672 O694 2.378 . S
Ho672 O695 2.524 . S
Ho672 O696 2.381 . S
Ho672 O697 2.669 . S
Ho672 O699 2.346 . S
Ho672 O703 2.305 . S
Ho673 C684 2.811 . S
Ho673 O693 2.346 . S
Ho673 O697 2.305 . S
Ho673 O698 2.322 . S
Ho673 O700 2.378 . S
Ho673 O701 2.524 . S
Ho673 O702 2.381 . S
Ho673 O703 2.669 . S
C674 O692 1.259 . S
C674 O693 1.268 . S
C675 Ho672 2.811 . S
C675 C676 1.488 . S
C675 O694 1.215 . S
C675 O695 1.289 . S
C676 C675 1.488 . S
C676 C677 1.348 . S
C676 C681 1.413 . S
C677 C676 1.348 . S
C677 C678 1.442 . S
C677 H704 0.930 . S
C678 C677 1.442 . S
C678 C679 1.381 . S
C678 H705 0.931 . S
C679 C678 1.381 . S
C679 C680 1.321 . S
C680 C679 1.321 . S
C680 C681 1.403 . S
C680 H706 0.934 . S
C681 C676 1.413 . S
C681 C680 1.403 . S
C681 H707 0.930 . S
C682 O696 1.275 . S
C682 O697 1.256 . S
C683 O698 1.259 . S
C683 O699 1.268 . S
C684 Ho673 2.811 . S
C684 C685 1.488 . S
C684 O700 1.215 . S
C684 O701 1.289 . S
C685 C684 1.488 . S
C685 C686 1.348 . S
C685 C690 1.413 . S
C686 C685 1.348 . S
C686 C687 1.442 . S
C686 H708 0.930 . S
C687 C686 1.442 . S
C687 C688 1.381 . S
C687 H709 0.931 . S
C688 C687 1.381 . S
C688 C689 1.321 . S
C689 C688 1.321 . S
C689 C690 1.403 . S
C689 H710 0.934 . S
C690 C685 1.413 . S
C690 C689 1.403 . S
C690 H711 0.930 . S
C691 O702 1.275 . S
C691 O703 1.256 . S
O692 Ho672 2.322 . S
O692 C674 1.259 . S
O693 Ho673 2.346 . S
O693 C674 1.268 . S
O694 Ho672 2.378 . S
O694 C675 1.215 . S
O695 Ho672 2.524 . S
O695 C675 1.289 . S
O696 Ho672 2.381 . S
O696 C682 1.275 . S
O697 Ho672 2.669 . S
O697 Ho673 2.305 . S
O697 C682 1.256 . S
O698 Ho673 2.322 . S
O698 C683 1.259 . S
O699 Ho672 2.346 . S
O699 C683 1.268 . S
O700 Ho673 2.378 . S
O700 C684 1.215 . S
O701 Ho673 2.524 . S
O701 C684 1.289 . S
O702 Ho673 2.381 . S
O702 C691 1.275 . S
O703 Ho672 2.305 . S
O703 Ho673 2.669 . S
O703 C691 1.256 . S
H704 C677 0.930 . S
H705 C678 0.931 . S
H706 C680 0.934 . S
H707 C681 0.930 . S
H708 C686 0.930 . S
H709 C687 0.931 . S
H710 C689 0.934 . S
H711 C690 0.930 . S
Ho712 C715 2.811 . S
Ho712 O732 2.322 . S
Ho712 O734 2.378 . S
Ho712 O735 2.524 . S
Ho712 O736 2.381 . S
Ho712 O737 2.669 . S
Ho712 O739 2.346 . S
Ho712 O743 2.305 . S
Ho713 C724 2.811 . S
Ho713 O733 2.346 . S
Ho713 O737 2.305 . S
Ho713 O738 2.322 . S
Ho713 O740 2.378 . S
Ho713 O741 2.524 . S
Ho713 O742 2.381 . S
Ho713 O743 2.669 . S
C714 O732 1.259 . S
C714 O733 1.268 . S
C715 Ho712 2.811 . S
C715 C716 1.488 . S
C715 O734 1.215 . S
C715 O735 1.289 . S
C716 C715 1.488 . S
C716 C717 1.348 . S
C716 C721 1.413 . S
C717 C716 1.348 . S
C717 C718 1.442 1_455 S
C717 H744 0.930 . S
C718 C717 1.442 1_655 S
C718 C719 1.381 . S
C718 H745 0.931 . S
C719 C718 1.381 . S
C719 C720 1.321 1_655 S
C720 C719 1.321 1_455 S
C720 C721 1.403 . S
C720 H746 0.934 . S
C721 C716 1.413 . S
C721 C720 1.403 . S
C721 H747 0.930 . S
C722 O736 1.275 . S
C722 O737 1.256 . S
C723 O738 1.259 . S
C723 O739 1.268 . S
C724 Ho713 2.811 . S
C724 C725 1.488 . S
C724 O740 1.215 . S
C724 O741 1.289 . S
C725 C724 1.488 . S
C725 C726 1.348 . S
C725 C730 1.413 . S
C726 C725 1.348 . S
C726 C727 1.442 . S
C726 H748 0.930 . S
C727 C726 1.442 . S
C727 C728 1.381 . S
C727 H749 0.931 . S
C728 C727 1.381 . S
C728 C729 1.321 . S
C729 C728 1.321 . S
C729 C730 1.403 . S
C729 H750 0.934 . S
C730 C725 1.413 . S
C730 C729 1.403 . S
C730 H751 0.930 . S
C731 O742 1.275 . S
C731 O743 1.256 . S
O732 Ho712 2.322 . S
O732 C714 1.259 . S
O733 Ho713 2.346 . S
O733 C714 1.268 . S
O734 Ho712 2.378 . S
O734 C715 1.215 . S
O735 Ho712 2.524 . S
O735 C715 1.289 . S
O736 Ho712 2.381 . S
O736 C722 1.275 . S
O737 Ho712 2.669 . S
O737 Ho713 2.305 . S
O737 C722 1.256 . S
O738 Ho713 2.322 . S
O738 C723 1.259 . S
O739 Ho712 2.346 . S
O739 C723 1.268 . S
O740 Ho713 2.378 . S
O740 C724 1.215 . S
O741 Ho713 2.524 . S
O741 C724 1.289 . S
O742 Ho713 2.381 . S
O742 C731 1.275 . S
O743 Ho712 2.305 . S
O743 Ho713 2.669 . S
O743 C731 1.256 . S
H744 C717 0.930 . S
H745 C718 0.931 . S
H746 C720 0.934 . S
H747 C721 0.930 . S
H748 C726 0.930 . S
H749 C727 0.931 . S
H750 C729 0.934 . S
H751 C730 0.930 . S
Ho752 C755 2.811 . S
Ho752 O772 2.322 . S
Ho752 O774 2.378 . S
Ho752 O775 2.524 . S
Ho752 O776 2.381 . S
Ho752 O777 2.669 . S
Ho752 O779 2.346 . S
Ho752 O783 2.305 . S
Ho753 C764 2.811 . S
Ho753 O773 2.346 . S
Ho753 O777 2.305 . S
Ho753 O778 2.322 . S
Ho753 O780 2.378 . S
Ho753 O781 2.524 . S
Ho753 O782 2.381 . S
Ho753 O783 2.669 . S
C754 O772 1.259 . S
C754 O773 1.268 . S
C755 Ho752 2.811 . S
C755 C756 1.488 . S
C755 O774 1.215 . S
C755 O775 1.289 . S
C756 C755 1.488 . S
C756 C757 1.348 . S
C756 C761 1.413 . S
C757 C756 1.348 . S
C757 C758 1.442 . S
C757 H784 0.930 . S
C758 C757 1.442 . S
C758 C759 1.381 . S
C758 H785 0.931 . S
C759 C758 1.381 . S
C759 C760 1.321 . S
C760 C759 1.321 . S
C760 C761 1.403 . S
C760 H786 0.934 . S
C761 C756 1.413 . S
C761 C760 1.403 . S
C761 H787 0.930 . S
C762 O776 1.275 . S
C762 O777 1.256 . S
C763 O778 1.259 . S
C763 O779 1.268 . S
C764 Ho753 2.811 . S
C764 C765 1.488 . S
C764 O780 1.215 . S
C764 O781 1.289 . S
C765 C764 1.488 . S
C765 C766 1.348 . S
C765 C770 1.413 . S
C766 C765 1.348 . S
C766 C767 1.442 . S
C766 H788 0.930 . S
C767 C766 1.442 . S
C767 C768 1.381 . S
C767 H789 0.931 . S
C768 C767 1.381 . S
C768 C769 1.321 . S
C769 C768 1.321 . S
C769 C770 1.403 . S
C769 H790 0.934 . S
C770 C765 1.413 . S
C770 C769 1.403 . S
C770 H791 0.930 . S
C771 O782 1.275 . S
C771 O783 1.256 . S
O772 Ho752 2.322 . S
O772 C754 1.259 . S
O773 Ho753 2.346 . S
O773 C754 1.268 . S
O774 Ho752 2.378 . S
O774 C755 1.215 . S
O775 Ho752 2.524 . S
O775 C755 1.289 . S
O776 Ho752 2.381 . S
O776 C762 1.275 . S
O777 Ho752 2.669 . S
O777 Ho753 2.305 . S
O777 C762 1.256 . S
O778 Ho753 2.322 . S
O778 C763 1.259 . S
O779 Ho752 2.346 . S
O779 C763 1.268 . S
O780 Ho753 2.378 . S
O780 C764 1.215 . S
O781 Ho753 2.524 . S
O781 C764 1.289 . S
O782 Ho753 2.381 . S
O782 C771 1.275 . S
O783 Ho752 2.305 . S
O783 Ho753 2.669 . S
O783 C771 1.256 . S
H784 C757 0.930 . S
H785 C758 0.931 . S
H786 C760 0.934 . S
H787 C761 0.930 . S
H788 C766 0.930 . S
H789 C767 0.931 . S
H790 C769 0.934 . S
H791 C770 0.930 . S
Ho792 C795 2.811 . S
Ho792 O812 2.322 . S
Ho792 O814 2.378 . S
Ho792 O815 2.524 . S
Ho792 O816 2.381 . S
Ho792 O817 2.669 . S
Ho792 O819 2.346 . S
Ho792 O823 2.305 . S
Ho793 C804 2.811 . S
Ho793 O813 2.346 . S
Ho793 O817 2.305 . S
Ho793 O818 2.322 . S
Ho793 O820 2.378 . S
Ho793 O821 2.524 . S
Ho793 O822 2.381 . S
Ho793 O823 2.669 . S
C794 O812 1.259 . S
C794 O813 1.268 . S
C795 Ho792 2.811 . S
C795 C796 1.488 . S
C795 O814 1.215 . S
C795 O815 1.289 . S
C796 C795 1.488 . S
C796 C797 1.348 . S
C796 C801 1.413 . S
C797 C796 1.348 . S
C797 C798 1.442 . S
C797 H824 0.930 . S
C798 C797 1.442 . S
C798 C799 1.381 . S
C798 H825 0.931 . S
C799 C798 1.381 . S
C799 C800 1.321 . S
C800 C799 1.321 . S
C800 C801 1.403 . S
C800 H826 0.934 . S
C801 C796 1.413 . S
C801 C800 1.403 . S
C801 H827 0.930 . S
C802 O816 1.275 . S
C802 O817 1.256 . S
C803 O818 1.259 . S
C803 O819 1.268 . S
C804 Ho793 2.811 . S
C804 C805 1.488 . S
C804 O820 1.215 . S
C804 O821 1.289 . S
C805 C804 1.488 . S
C805 C806 1.348 . S
C805 C810 1.413 . S
C806 C805 1.348 . S
C806 C807 1.442 . S
C806 H828 0.930 . S
C807 C806 1.442 . S
C807 C808 1.381 . S
C807 H829 0.931 . S
C808 C807 1.381 . S
C808 C809 1.321 . S
C809 C808 1.321 . S
C809 C810 1.403 . S
C809 H830 0.934 . S
C810 C805 1.413 . S
C810 C809 1.403 . S
C810 H831 0.930 . S
C811 O822 1.275 . S
C811 O823 1.256 . S
O812 Ho792 2.322 . S
O812 C794 1.259 . S
O813 Ho793 2.346 . S
O813 C794 1.268 . S
O814 Ho792 2.378 . S
O814 C795 1.215 . S
O815 Ho792 2.524 . S
O815 C795 1.289 . S
O816 Ho792 2.381 . S
O816 C802 1.275 . S
O817 Ho792 2.669 . S
O817 Ho793 2.305 . S
O817 C802 1.256 . S
O818 Ho793 2.322 . S
O818 C803 1.259 . S
O819 Ho792 2.346 . S
O819 C803 1.268 . S
O820 Ho793 2.378 . S
O820 C804 1.215 . S
O821 Ho793 2.524 . S
O821 C804 1.289 . S
O822 Ho793 2.381 . S
O822 C811 1.275 . S
O823 Ho792 2.305 . S
O823 Ho793 2.669 . S
O823 C811 1.256 . S
H824 C797 0.930 . S
H825 C798 0.931 . S
H826 C800 0.934 . S
H827 C801 0.930 . S
H828 C806 0.930 . S
H829 C807 0.931 . S
H830 C809 0.934 . S
H831 C810 0.930 . S
Ho832 C835 2.811 . S
Ho832 O852 2.322 . S
Ho832 O854 2.378 . S
Ho832 O855 2.524 . S
Ho832 O856 2.381 . S
Ho832 O857 2.669 . S
Ho832 O859 2.346 . S
Ho832 O863 2.305 . S
Ho833 C844 2.811 . S
Ho833 O853 2.346 . S
Ho833 O857 2.305 . S
Ho833 O858 2.322 . S
Ho833 O860 2.378 . S
Ho833 O861 2.524 . S
Ho833 O862 2.381 . S
Ho833 O863 2.669 . S
C834 O852 1.259 . S
C834 O853 1.268 . S
C835 Ho832 2.811 . S
C835 C836 1.488 . S
C835 O854 1.215 . S
C835 O855 1.289 . S
C836 C835 1.488 . S
C836 C837 1.348 . S
C836 C841 1.413 . S
C837 C836 1.348 . S
C837 C838 1.442 . S
C837 H864 0.930 . S
C838 C837 1.442 . S
C838 C839 1.381 . S
C838 H865 0.931 . S
C839 C838 1.381 . S
C839 C840 1.321 . S
C840 C839 1.321 . S
C840 C841 1.403 . S
C840 H866 0.934 . S
C841 C836 1.413 . S
C841 C840 1.403 . S
C841 H867 0.930 . S
C842 O856 1.275 . S
C842 O857 1.256 . S
C843 O858 1.259 . S
C843 O859 1.268 . S
C844 Ho833 2.811 . S
C844 C845 1.488 . S
C844 O860 1.215 . S
C844 O861 1.289 . S
C845 C844 1.488 . S
C845 C846 1.348 . S
C845 C850 1.413 . S
C846 C845 1.348 . S
C846 C847 1.442 . S
C846 H868 0.930 . S
C847 C846 1.442 . S
C847 C848 1.381 . S
C847 H869 0.931 . S
C848 C847 1.381 . S
C848 C849 1.321 . S
C849 C848 1.321 . S
C849 C850 1.403 . S
C849 H870 0.934 . S
C850 C845 1.413 . S
C850 C849 1.403 . S
C850 H871 0.930 . S
C851 O862 1.275 . S
C851 O863 1.256 . S
O852 Ho832 2.322 . S
O852 C834 1.259 . S
O853 Ho833 2.346 . S
O853 C834 1.268 . S
O854 Ho832 2.378 . S
O854 C835 1.215 . S
O855 Ho832 2.524 . S
O855 C835 1.289 . S
O856 Ho832 2.381 . S
O856 C842 1.275 . S
O857 Ho832 2.669 . S
O857 Ho833 2.305 . S
O857 C842 1.256 . S
O858 Ho833 2.322 . S
O858 C843 1.259 . S
O859 Ho832 2.346 . S
O859 C843 1.268 . S
O860 Ho833 2.378 . S
O860 C844 1.215 . S
O861 Ho833 2.524 . S
O861 C844 1.289 . S
O862 Ho833 2.381 . S
O862 C851 1.275 . S
O863 Ho832 2.305 . S
O863 Ho833 2.669 . S
O863 C851 1.256 . S
H864 C837 0.930 . S
H865 C838 0.931 . S
H866 C840 0.934 . S
H867 C841 0.930 . S
H868 C846 0.930 . S
H869 C847 0.931 . S
H870 C849 0.934 . S
H871 C850 0.930 . S
Ho872 C875 2.811 . S
Ho872 O892 2.322 . S
Ho872 O894 2.378 . S
Ho872 O895 2.524 . S
Ho872 O896 2.381 . S
Ho872 O897 2.669 . S
Ho872 O899 2.346 . S
Ho872 O903 2.305 . S
Ho873 C884 2.811 . S
Ho873 O893 2.346 . S
Ho873 O897 2.305 . S
Ho873 O898 2.322 . S
Ho873 O900 2.378 . S
Ho873 O901 2.524 . S
Ho873 O902 2.381 . S
Ho873 O903 2.669 . S
C874 O892 1.259 . S
C874 O893 1.268 . S
C875 Ho872 2.811 . S
C875 C876 1.488 . S
C875 O894 1.215 . S
C875 O895 1.289 . S
C876 C875 1.488 . S
C876 C877 1.348 . S
C876 C881 1.413 . S
C877 C876 1.348 . S
C877 C878 1.442 . S
C877 H904 0.930 . S
C878 C877 1.442 . S
C878 C879 1.381 . S
C878 H905 0.931 . S
C879 C878 1.381 . S
C879 C880 1.321 . S
C880 C879 1.321 . S
C880 C881 1.403 . S
C880 H906 0.934 . S
C881 C876 1.413 . S
C881 C880 1.403 . S
C881 H907 0.930 . S
C882 O896 1.275 . S
C882 O897 1.256 . S
C883 O898 1.259 . S
C883 O899 1.268 . S
C884 Ho873 2.811 . S
C884 C885 1.488 . S
C884 O900 1.215 . S
C884 O901 1.289 . S
C885 C884 1.488 . S
C885 C886 1.348 . S
C885 C890 1.413 . S
C886 C885 1.348 . S
C886 C887 1.442 . S
C886 H908 0.930 . S
C887 C886 1.442 . S
C887 C888 1.381 . S
C887 H909 0.931 . S
C888 C887 1.381 . S
C888 C889 1.321 . S
C889 C888 1.321 . S
C889 C890 1.403 . S
C889 H910 0.934 . S
C890 C885 1.413 . S
C890 C889 1.403 . S
C890 H911 0.930 . S
C891 O902 1.275 . S
C891 O903 1.256 . S
O892 Ho872 2.322 . S
O892 C874 1.259 . S
O893 Ho873 2.346 . S
O893 C874 1.268 . S
O894 Ho872 2.378 . S
O894 C875 1.215 . S
O895 Ho872 2.524 . S
O895 C875 1.289 . S
O896 Ho872 2.381 . S
O896 C882 1.275 . S
O897 Ho872 2.669 . S
O897 Ho873 2.305 . S
O897 C882 1.256 . S
O898 Ho873 2.322 . S
O898 C883 1.259 . S
O899 Ho872 2.346 . S
O899 C883 1.268 . S
O900 Ho873 2.378 . S
O900 C884 1.215 . S
O901 Ho873 2.524 . S
O901 C884 1.289 . S
O902 Ho873 2.381 . S
O902 C891 1.275 . S
O903 Ho872 2.305 . S
O903 Ho873 2.669 . S
O903 C891 1.256 . S
H904 C877 0.930 . S
H905 C878 0.931 . S
H906 C880 0.934 . S
H907 C881 0.930 . S
H908 C886 0.930 . S
H909 C887 0.931 . S
H910 C889 0.934 . S
H911 C890 0.930 . S
Ho912 C915 2.811 . S
Ho912 O932 2.322 . S
Ho912 O934 2.378 . S
Ho912 O935 2.524 1_556 S
Ho912 O936 2.381 . S
Ho912 O937 2.669 . S
Ho912 O939 2.346 1_556 S
Ho912 O943 2.305 1_556 S
Ho913 C924 2.811 1_455 S
Ho913 O933 2.346 . S
Ho913 O937 2.305 1_554 S
Ho913 O938 2.322 . S
Ho913 O940 2.378 1_455 S
Ho913 O941 2.524 1_455 S
Ho913 O942 2.381 . S
Ho913 O943 2.669 . S
C914 O932 1.259 . S
C914 O933 1.268 1_556 S
C915 Ho912 2.811 . S
C915 C916 1.488 . S
C915 O934 1.215 . S
C915 O935 1.289 1_556 S
C916 C915 1.488 . S
C916 C917 1.348 1_556 S
C916 C921 1.413 . S
C917 C916 1.348 1_554 S
C917 C918 1.442 1_554 S
C917 H944 0.930 . S
C918 C917 1.442 1_556 S
C918 C919 1.381 . S
C918 H945 0.931 1_556 S
C919 C918 1.381 . S
C919 C920 1.321 . S
C920 C919 1.321 . S
C920 C921 1.403 . S
C920 H946 0.934 . S
C921 C916 1.413 . S
C921 C920 1.403 . S
C921 H947 0.930 . S
C922 O936 1.275 . S
C922 O937 1.256 . S
C923 O938 1.259 . S
C923 O939 1.268 . S
C924 Ho913 2.811 1_655 S
C924 C925 1.488 . S
C924 O940 1.215 . S
C924 O941 1.289 . S
C925 C924 1.488 . S
C925 C926 1.348 . S
C925 C930 1.413 . S
C926 C925 1.348 . S
C926 C927 1.442 . S
C926 H948 0.932 . S
C927 C926 1.442 . S
C927 C928 1.381 . S
C927 H949 0.931 . S
C928 C927 1.381 . S
C928 C929 1.321 . S
C929 C928 1.321 . S
C929 C930 1.403 . S
C929 H950 0.934 . S
C930 C925 1.413 . S
C930 C929 1.403 . S
C930 H951 0.930 . S
C931 O942 1.275 . S
C931 O943 1.256 . S
O932 Ho912 2.322 . S
O932 C914 1.259 . S
O933 Ho913 2.346 . S
O933 C914 1.268 1_554 S
O934 Ho912 2.378 . S
O934 C915 1.215 . S
O935 Ho912 2.524 1_554 S
O935 C915 1.289 1_554 S
O936 Ho912 2.381 . S
O936 C922 1.275 . S
O937 Ho912 2.669 . S
O937 Ho913 2.305 1_556 S
O937 C922 1.256 . S
O938 Ho913 2.322 . S
O938 C923 1.259 . S
O939 Ho912 2.346 1_554 S
O939 C923 1.268 . S
O940 Ho913 2.378 1_655 S
O940 C924 1.215 . S
O941 Ho913 2.524 1_655 S
O941 C924 1.289 . S
O942 Ho913 2.381 . S
O942 C931 1.275 . S
O943 Ho912 2.305 1_554 S
O943 Ho913 2.669 . S
O943 C931 1.256 . S
H944 C917 0.930 . S
H945 C918 0.931 1_554 S
H946 C920 0.934 . S
H947 C921 0.930 . S
H948 C926 0.932 . S
H949 C927 0.931 . S
H950 C929 0.934 . S
H951 C930 0.930 . S
H952 C958 0.930 . S
H953 C962 0.930 . S
H954 C967 0.929 . S
H955 C965 0.929 . S
H956 C960 0.929 . S
H957 C966 0.929 1_554 S
C958 H952 0.930 . S
C958 C959 1.367 . S
C958 C966 1.378 . S
C959 C958 1.367 . S
C959 C967 1.433 . S
C960 H956 0.929 . S
C960 C962 1.378 . S
C960 C964 1.350 . S
C961 C964 1.463 . S
C961 C966 1.350 . S
C961 N969 1.427 . S
C962 H953 0.930 . S
C962 C960 1.378 . S
C962 C963 1.367 . S
C963 C962 1.367 . S
C963 C965 1.433 1_556 S
C964 C960 1.350 . S
C964 C961 1.463 . S
C964 N968 1.427 1_556 S
C965 H955 0.929 . S
C965 C963 1.433 1_554 S
C965 N968 1.384 . S
C966 H957 0.929 1_556 S
C966 C958 1.378 . S
C966 C961 1.350 . S
C967 H954 0.929 . S
C967 C959 1.433 . S
C967 N969 1.384 . S
N968 C964 1.427 1_554 S
N968 C965 1.384 . S
N969 C961 1.427 . S
N969 C967 1.384 . S
H970 C976 0.930 . S
H971 C980 0.930 . S
H972 C985 0.929 . S
H973 C983 0.929 . S
H974 C978 0.929 . S
H975 C984 0.929 . S
C976 H970 0.930 . S
C976 C977 1.367 . S
C976 C984 1.378 . S
C977 C976 1.367 . S
C977 C985 1.433 . S
C978 H974 0.929 . S
C978 C980 1.378 . S
C978 C982 1.350 . S
C979 C982 1.463 . S
C979 C984 1.350 . S
C979 N987 1.427 . S
C980 H971 0.930 . S
C980 C978 1.378 . S
C980 C981 1.367 . S
C981 C980 1.367 . S
C981 C983 1.433 . S
C982 C978 1.350 . S
C982 C979 1.463 . S
C982 N986 1.427 . S
C983 H973 0.929 . S
C983 C981 1.433 . S
C983 N986 1.384 . S
C984 H975 0.929 . S
C984 C976 1.378 . S
C984 C979 1.350 . S
C985 H972 0.929 . S
C985 C977 1.433 . S
C985 N987 1.384 . S
N986 C982 1.427 . S
N986 C983 1.384 . S
N987 C979 1.427 . S
N987 C985 1.384 . S
H988 C994 0.930 . S
H989 C998 0.930 . S
H990 C1003 0.929 . S
H991 C1001 0.929 . S
H992 C996 0.929 . S
H993 C1002 0.929 . S
C994 H988 0.930 . S
C994 C995 1.367 . S
C994 C1002 1.378 . S
C995 C994 1.367 . S
C995 C1003 1.433 . S
C996 H992 0.929 . S
C996 C998 1.378 . S
C996 C1000 1.350 . S
C997 C1000 1.463 . S
C997 C1002 1.350 . S
C997 N1005 1.427 . S
C998 H989 0.930 . S
C998 C996 1.378 . S
C998 C999 1.367 . S
C999 C998 1.367 . S
C999 C1001 1.433 . S
C1000 C996 1.350 . S
C1000 C997 1.463 . S
C1000 N1004 1.427 . S
C1001 H991 0.929 . S
C1001 C999 1.433 . S
C1001 N1004 1.384 . S
C1002 H993 0.929 . S
C1002 C994 1.378 . S
C1002 C997 1.350 . S
C1003 H990 0.929 . S
C1003 C995 1.433 . S
C1003 N1005 1.384 . S
N1004 C1000 1.427 . S
N1004 C1001 1.384 . S
N1005 C997 1.427 . S
N1005 C1003 1.384 . S
H1006 C1012 0.930 . S
H1007 C1016 0.930 . S
H1008 C1021 0.929 . S
H1009 C1019 0.929 . S
H1010 C1014 0.929 . S
H1011 C1020 0.929 . S
C1012 H1006 0.930 . S
C1012 C1013 1.367 . S
C1012 C1020 1.378 . S
C1013 C1012 1.367 . S
C1013 C1021 1.433 . S
C1014 H1010 0.929 . S
C1014 C1016 1.378 . S
C1014 C1018 1.350 . S
C1015 C1018 1.463 . S
C1015 C1020 1.350 . S
C1015 N1023 1.427 . S
C1016 H1007 0.930 . S
C1016 C1014 1.378 . S
C1016 C1017 1.367 . S
C1017 C1016 1.367 . S
C1017 C1019 1.433 . S
C1018 C1014 1.350 . S
C1018 C1015 1.463 . S
C1018 N1022 1.427 . S
C1019 H1009 0.929 . S
C1019 C1017 1.433 . S
C1019 N1022 1.384 . S
C1020 H1011 0.929 . S
C1020 C1012 1.378 . S
C1020 C1015 1.350 . S
C1021 H1008 0.929 . S
C1021 C1013 1.433 . S
C1021 N1023 1.384 . S
N1022 C1018 1.427 . S
N1022 C1019 1.384 . S
N1023 C1015 1.427 . S
N1023 C1021 1.384 . S
H1024 C1030 0.930 . S
H1025 C1034 0.930 . S
H1026 C1039 0.929 . S
H1027 C1037 0.929 . S
H1028 C1032 0.929 . S
H1029 C1038 0.951 . S
C1030 H1024 0.930 . S
C1030 C1031 1.367 1_655 S
C1030 C1038 1.378 1_655 S
C1031 C1030 1.367 1_455 S
C1031 C1039 1.433 . S
C1032 H1028 0.929 . S
C1032 C1034 1.378 . S
C1032 C1036 1.350 . S
C1033 C1036 1.463 . S
C1033 C1038 1.350 . S
C1033 N1041 1.427 . S
C1034 H1025 0.930 . S
C1034 C1032 1.378 . S
C1034 C1035 1.367 . S
C1035 C1034 1.367 . S
C1035 C1037 1.433 . S
C1036 C1032 1.350 . S
C1036 C1033 1.463 . S
C1036 N1040 1.427 . S
C1037 H1027 0.929 . S
C1037 C1035 1.433 . S
C1037 N1040 1.384 . S
C1038 H1029 0.951 . S
C1038 C1030 1.378 1_455 S
C1038 C1033 1.350 . S
C1039 H1026 0.929 . S
C1039 C1031 1.433 . S
C1039 N1041 1.384 . S
N1040 C1036 1.427 . S
N1040 C1037 1.384 . S
N1041 C1033 1.427 . S
N1041 C1039 1.384 . S
H1042 C1048 0.930 . S
H1043 C1052 0.930 . S
H1044 C1057 0.929 . S
H1045 C1055 0.929 . S
H1046 C1050 0.929 . S
H1047 C1056 0.929 . S
C1048 H1042 0.930 . S
C1048 C1049 1.367 . S
C1048 C1056 1.378 . S
C1049 C1048 1.367 . S
C1049 C1057 1.433 . S
C1050 H1046 0.929 . S
C1050 C1052 1.378 . S
C1050 C1054 1.350 . S
C1051 C1054 1.463 . S
C1051 C1056 1.350 . S
C1051 N1059 1.427 . S
C1052 H1043 0.930 . S
C1052 C1050 1.378 . S
C1052 C1053 1.367 . S
C1053 C1052 1.367 . S
C1053 C1055 1.433 . S
C1054 C1050 1.350 . S
C1054 C1051 1.463 . S
C1054 N1058 1.427 . S
C1055 H1045 0.929 . S
C1055 C1053 1.433 . S
C1055 N1058 1.384 . S
C1056 H1047 0.929 . S
C1056 C1048 1.378 . S
C1056 C1051 1.350 . S
C1057 H1044 0.929 . S
C1057 C1049 1.433 . S
C1057 N1059 1.384 . S
N1058 C1054 1.427 . S
N1058 C1055 1.384 . S
N1059 C1051 1.427 . S
N1059 C1057 1.384 . S
H1060 C1066 0.930 . S
H1061 C1070 0.930 . S
H1062 C1075 0.929 . S
H1063 C1073 0.929 . S
H1064 C1068 0.929 . S
H1065 C1074 0.929 . S
C1066 H1060 0.930 . S
C1066 C1067 1.367 . S
C1066 C1074 1.378 . S
C1067 C1066 1.367 . S
C1067 C1075 1.433 . S
C1068 H1064 0.929 . S
C1068 C1070 1.378 . S
C1068 C1072 1.350 . S
C1069 C1072 1.463 . S
C1069 C1074 1.350 . S
C1069 N1077 1.427 . S
C1070 H1061 0.930 . S
C1070 C1068 1.378 . S
C1070 C1071 1.367 . S
C1071 C1070 1.367 . S
C1071 C1073 1.433 . S
C1072 C1068 1.350 . S
C1072 C1069 1.463 . S
C1072 N1076 1.427 . S
C1073 H1063 0.929 . S
C1073 C1071 1.433 . S
C1073 N1076 1.384 . S
C1074 H1065 0.929 . S
C1074 C1066 1.378 . S
C1074 C1069 1.350 . S
C1075 H1062 0.929 . S
C1075 C1067 1.433 . S
C1075 N1077 1.384 . S
N1076 C1072 1.427 . S
N1076 C1073 1.384 . S
N1077 C1069 1.427 . S
N1077 C1075 1.384 . S
H1078 C1084 0.930 . S
H1079 C1088 0.930 . S
H1080 C1093 0.929 . S
H1081 C1091 0.929 . S
H1082 C1086 0.929 . S
H1083 C1092 0.929 . S
C1084 H1078 0.930 . S
C1084 C1085 1.367 . S
C1084 C1092 1.378 . S
C1085 C1084 1.367 . S
C1085 C1093 1.433 . S
C1086 H1082 0.929 . S
C1086 C1088 1.378 . S
C1086 C1090 1.350 . S
C1087 C1090 1.463 . S
C1087 C1092 1.350 . S
C1087 N1095 1.427 . S
C1088 H1079 0.930 . S
C1088 C1086 1.378 . S
C1088 C1089 1.367 . S
C1089 C1088 1.367 . S
C1089 C1091 1.433 . S
C1090 C1086 1.350 . S
C1090 C1087 1.463 . S
C1090 N1094 1.427 . S
C1091 H1081 0.929 . S
C1091 C1089 1.433 . S
C1091 N1094 1.384 . S
C1092 H1083 0.929 . S
C1092 C1084 1.378 . S
C1092 C1087 1.350 . S
C1093 H1080 0.929 . S
C1093 C1085 1.433 . S
C1093 N1095 1.384 . S
N1094 C1090 1.427 . S
N1094 C1091 1.384 . S
N1095 C1087 1.427 . S
N1095 C1093 1.384 . S
H1096 C1102 0.930 . S
H1097 C1106 0.930 . S
H1098 C1111 0.929 . S
H1099 C1109 0.929 . S
H1100 C1104 0.929 . S
H1101 C1110 0.897 1_455 S
C1102 H1096 0.930 . S
C1102 C1103 1.367 . S
C1102 C1110 1.378 . S
C1103 C1102 1.367 . S
C1103 C1111 1.433 . S
C1104 H1100 0.929 . S
C1104 C1106 1.378 . S
C1104 C1108 1.350 . S
C1105 C1108 1.463 1_655 S
C1105 C1110 1.350 . S
C1105 N1113 1.427 . S
C1106 H1097 0.930 . S
C1106 C1104 1.378 . S
C1106 C1107 1.367 . S
C1107 C1106 1.367 . S
C1107 C1109 1.433 . S
C1108 C1104 1.350 . S
C1108 C1105 1.463 1_455 S
C1108 N1112 1.427 . S
C1109 H1099 0.929 . S
C1109 C1107 1.433 . S
C1109 N1112 1.384 . S
C1110 H1101 0.897 1_655 S
C1110 C1102 1.378 . S
C1110 C1105 1.350 . S
C1111 H1098 0.929 . S
C1111 C1103 1.433 . S
C1111 N1113 1.384 . S
N1112 C1108 1.427 . S
N1112 C1109 1.384 . S
N1113 C1105 1.427 . S
N1113 C1111 1.384 . S
H1114 C1120 0.930 . S
H1115 C1124 0.930 . S
H1116 C1129 0.929 . S
H1117 C1127 0.929 . S
H1118 C1122 0.929 . S
H1119 C1128 0.929 . S
C1120 H1114 0.930 . S
C1120 C1121 1.367 . S
C1120 C1128 1.378 . S
C1121 C1120 1.367 . S
C1121 C1129 1.433 . S
C1122 H1118 0.929 . S
C1122 C1124 1.378 . S
C1122 C1126 1.350 . S
C1123 C1126 1.463 . S
C1123 C1128 1.350 . S
C1123 N1131 1.427 . S
C1124 H1115 0.930 . S
C1124 C1122 1.378 . S
C1124 C1125 1.367 . S
C1125 C1124 1.367 . S
C1125 C1127 1.433 . S
C1126 C1122 1.350 . S
C1126 C1123 1.463 . S
C1126 N1130 1.427 . S
C1127 H1117 0.929 . S
C1127 C1125 1.433 . S
C1127 N1130 1.384 . S
C1128 H1119 0.929 . S
C1128 C1120 1.378 . S
C1128 C1123 1.350 . S
C1129 H1116 0.929 . S
C1129 C1121 1.433 . S
C1129 N1131 1.384 . S
N1130 C1126 1.427 . S
N1130 C1127 1.384 . S
N1131 C1123 1.427 . S
N1131 C1129 1.384 . S
H1132 C1138 0.930 . S
H1133 C1142 0.930 . S
H1134 C1147 0.929 . S
H1135 C1145 0.929 . S
H1136 C1140 0.929 . S
H1137 C1146 0.929 . S
C1138 H1132 0.930 . S
C1138 C1139 1.367 . S
C1138 C1146 1.378 . S
C1139 C1138 1.367 . S
C1139 C1147 1.433 . S
C1140 H1136 0.929 . S
C1140 C1142 1.378 . S
C1140 C1144 1.350 . S
C1141 C1144 1.463 . S
C1141 C1146 1.350 . S
C1141 N1149 1.427 . S
C1142 H1133 0.930 . S
C1142 C1140 1.378 . S
C1142 C1143 1.367 . S
C1143 C1142 1.367 . S
C1143 C1145 1.433 . S
C1144 C1140 1.350 . S
C1144 C1141 1.463 . S
C1144 N1148 1.427 . S
C1145 H1135 0.929 . S
C1145 C1143 1.433 . S
C1145 N1148 1.384 . S
C1146 H1137 0.929 . S
C1146 C1138 1.378 . S
C1146 C1141 1.350 . S
C1147 H1134 0.929 . S
C1147 C1139 1.433 . S
C1147 N1149 1.384 . S
N1148 C1144 1.427 . S
N1148 C1145 1.384 . S
N1149 C1141 1.427 . S
N1149 C1147 1.384 . S
H1150 C1156 0.930 . S
H1151 C1160 0.930 . S
H1152 C1165 0.929 . S
H1153 C1163 0.929 . S
H1154 C1158 0.929 . S
H1155 C1164 0.929 . S
C1156 H1150 0.930 . S
C1156 C1157 1.367 . S
C1156 C1164 1.378 . S
C1157 C1156 1.367 . S
C1157 C1165 1.433 . S
C1158 H1154 0.929 . S
C1158 C1160 1.378 . S
C1158 C1162 1.350 . S
C1159 C1162 1.463 . S
C1159 C1164 1.350 . S
C1159 N1167 1.427 . S
C1160 H1151 0.930 . S
C1160 C1158 1.378 . S
C1160 C1161 1.367 . S
C1161 C1160 1.367 . S
C1161 C1163 1.433 . S
C1162 C1158 1.350 . S
C1162 C1159 1.463 . S
C1162 N1166 1.427 . S
C1163 H1153 0.929 . S
C1163 C1161 1.433 . S
C1163 N1166 1.384 . S
C1164 H1155 0.929 . S
C1164 C1156 1.378 . S
C1164 C1159 1.350 . S
C1165 H1152 0.929 . S
C1165 C1157 1.433 . S
C1165 N1167 1.384 . S
N1166 C1162 1.427 . S
N1166 C1163 1.384 . S
N1167 C1159 1.427 . S
N1167 C1165 1.384 . S
H1168 C1174 0.930 . S
H1169 C1178 0.930 . S
H1170 C1183 0.929 . S
H1171 C1181 0.929 1_655 S
H1172 C1176 0.929 . S
H1173 C1182 0.929 . S
C1174 H1168 0.930 . S
C1174 C1175 1.367 . S
C1174 C1182 1.378 . S
C1175 C1174 1.367 . S
C1175 C1183 1.433 1_655 S
C1176 H1172 0.929 . S
C1176 C1178 1.378 . S
C1176 C1180 1.350 . S
C1177 C1180 1.463 1_655 S
C1177 C1182 1.350 . S
C1177 N1185 1.427 1_655 S
C1178 H1169 0.930 . S
C1178 C1176 1.378 . S
C1178 C1179 1.367 . S
C1179 C1178 1.367 . S
C1179 C1181 1.433 . S
C1180 C1176 1.350 . S
C1180 C1177 1.463 1_455 S
C1180 N1184 1.427 1_455 S
C1181 H1171 0.929 1_455 S
C1181 C1179 1.433 . S
C1181 N1184 1.384 1_455 S
C1182 H1173 0.929 . S
C1182 C1174 1.378 . S
C1182 C1177 1.350 . S
C1183 H1170 0.929 . S
C1183 C1175 1.433 1_455 S
C1183 N1185 1.384 . S
N1184 C1180 1.427 1_655 S
N1184 C1181 1.384 1_655 S
N1185 C1177 1.427 1_455 S
N1185 C1183 1.384 . S
H1186 C1192 0.930 . S
H1187 C1196 0.930 . S
H1188 C1201 0.929 . S
H1189 C1199 0.929 . S
H1190 C1194 0.929 . S
H1191 C1200 0.929 . S
C1192 H1186 0.930 . S
C1192 C1193 1.367 . S
C1192 C1200 1.378 . S
C1193 C1192 1.367 . S
C1193 C1201 1.433 . S
C1194 H1190 0.929 . S
C1194 C1196 1.378 . S
C1194 C1198 1.350 . S
C1195 C1198 1.463 . S
C1195 C1200 1.350 . S
C1195 N1203 1.427 . S
C1196 H1187 0.930 . S
C1196 C1194 1.378 . S
C1196 C1197 1.367 . S
C1197 C1196 1.367 . S
C1197 C1199 1.433 . S
C1198 C1194 1.350 . S
C1198 C1195 1.463 . S
C1198 N1202 1.427 . S
C1199 H1189 0.929 . S
C1199 C1197 1.433 . S
C1199 N1202 1.384 . S
C1200 H1191 0.929 . S
C1200 C1192 1.378 . S
C1200 C1195 1.350 . S
C1201 H1188 0.929 . S
C1201 C1193 1.433 . S
C1201 N1203 1.384 . S
N1202 C1198 1.427 . S
N1202 C1199 1.384 . S
N1203 C1195 1.427 . S
N1203 C1201 1.384 . S
H1204 C1210 0.930 . S
H1205 C1214 0.930 . S
H1206 C1219 0.929 . S
H1207 C1217 0.929 . S
H1208 C1212 0.929 . S
H1209 C1218 0.929 . S
C1210 H1204 0.930 . S
C1210 C1211 1.367 . S
C1210 C1218 1.378 . S
C1211 C1210 1.367 . S
C1211 C1219 1.433 . S
C1212 H1208 0.929 . S
C1212 C1214 1.378 . S
C1212 C1216 1.350 . S
C1213 C1216 1.463 . S
C1213 C1218 1.350 . S
C1213 N1221 1.427 . S
C1214 H1205 0.930 . S
C1214 C1212 1.378 . S
C1214 C1215 1.367 . S
C1215 C1214 1.367 . S
C1215 C1217 1.433 . S
C1216 C1212 1.350 . S
C1216 C1213 1.463 . S
C1216 N1220 1.427 . S
C1217 H1207 0.929 . S
C1217 C1215 1.433 . S
C1217 N1220 1.384 . S
C1218 H1209 0.929 . S
C1218 C1210 1.378 . S
C1218 C1213 1.350 . S
C1219 H1206 0.929 . S
C1219 C1211 1.433 . S
C1219 N1221 1.384 . S
N1220 C1216 1.427 . S
N1220 C1217 1.384 . S
N1221 C1213 1.427 . S
N1221 C1219 1.384 . S
H1222 C1228 0.930 . S
H1223 C1232 0.930 . S
H1224 C1237 0.929 . S
H1225 C1235 0.929 . S
H1226 C1230 0.929 . S
H1227 C1236 0.929 . S
C1228 H1222 0.930 . S
C1228 C1229 1.367 . S
C1228 C1236 1.378 . S
C1229 C1228 1.367 . S
C1229 C1237 1.433 . S
C1230 H1226 0.929 . S
C1230 C1232 1.378 . S
C1230 C1234 1.350 . S
C1231 C1234 1.463 . S
C1231 C1236 1.350 . S
C1231 N1239 1.427 . S
C1232 H1223 0.930 . S
C1232 C1230 1.378 . S
C1232 C1233 1.367 . S
C1233 C1232 1.367 . S
C1233 C1235 1.433 . S
C1234 C1230 1.350 . S
C1234 C1231 1.463 . S
C1234 N1238 1.427 . S
C1235 H1225 0.929 . S
C1235 C1233 1.433 . S
C1235 N1238 1.384 . S
C1236 H1227 0.929 . S
C1236 C1228 1.378 . S
C1236 C1231 1.350 . S
C1237 H1224 0.929 . S
C1237 C1229 1.433 . S
C1237 N1239 1.384 . S
N1238 C1234 1.427 . S
N1238 C1235 1.384 . S
N1239 C1231 1.427 . S
N1239 C1237 1.384 . S
H1240 C1246 0.930 1_556 S
H1241 C1250 0.930 . S
H1242 C1255 0.929 . S
H1243 C1253 0.929 . S
H1244 C1248 0.929 . S
H1245 C1254 0.929 1_545 S
C1246 H1240 0.930 1_554 S
C1246 C1247 1.367 . S
C1246 C1254 1.378 . S
C1247 C1246 1.367 . S
C1247 C1255 1.433 . S
C1248 H1244 0.929 . S
C1248 C1250 1.378 . S
C1248 C1252 1.350 . S
C1249 C1252 1.463 . S
C1249 C1254 1.350 . S
C1249 N1257 1.427 . S
C1250 H1241 0.930 . S
C1250 C1248 1.378 . S
C1250 C1251 1.367 . S
C1251 C1250 1.367 . S
C1251 C1253 1.433 1_565 S
C1252 C1248 1.350 . S
C1252 C1249 1.463 . S
C1252 N1256 1.427 1_565 S
C1253 H1243 0.929 . S
C1253 C1251 1.433 1_545 S
C1253 N1256 1.384 . S
C1254 H1245 0.929 1_565 S
C1254 C1246 1.378 . S
C1254 C1249 1.350 . S
C1255 H1242 0.929 . S
C1255 C1247 1.433 . S
C1255 N1257 1.384 . S
N1256 C1252 1.427 1_545 S
N1256 C1253 1.384 . S
N1257 C1249 1.427 . S
N1257 C1255 1.384 . S
H1258 C1264 0.930 . S
H1259 C1268 0.930 . S
H1260 C1273 0.929 . S
H1261 C1271 0.929 . S
H1262 C1266 0.929 . S
H1263 C1272 0.929 . S
C1264 H1258 0.930 . S
C1264 C1265 1.361 1_556 S
C1264 C1272 1.378 . S
C1265 C1264 1.361 1_554 S
C1265 C1273 1.450 . S
C1266 H1262 0.929 . S
C1266 C1268 1.378 . S
C1266 C1270 1.350 . S
C1267 C1270 1.463 . S
C1267 C1272 1.350 1_554 S
C1267 N1275 1.427 . S
C1268 H1259 0.930 . S
C1268 C1266 1.378 . S
C1268 C1269 1.367 . S
C1269 C1268 1.367 . S
C1269 C1271 1.433 1_554 S
C1270 C1266 1.350 . S
C1270 C1267 1.463 . S
C1270 N1274 1.427 1_554 S
C1271 H1261 0.929 . S
C1271 C1269 1.433 1_556 S
C1271 N1274 1.384 . S
C1272 H1263 0.929 . S
C1272 C1264 1.378 . S
C1272 C1267 1.350 1_556 S
C1273 H1260 0.929 . S
C1273 C1265 1.450 . S
C1273 N1275 1.384 . S
N1274 C1270 1.427 1_556 S
N1274 C1271 1.384 . S
N1275 C1267 1.427 . S
N1275 C1273 1.384 . S
H1276 C1282 0.930 . S
H1277 C1286 0.930 . S
H1278 C1291 0.929 . S
H1279 C1289 0.929 . S
H1280 C1284 0.929 . S
H1281 C1290 0.929 . S
C1282 H1276 0.930 . S
C1282 C1283 1.367 . S
C1282 C1290 1.378 . S
C1283 C1282 1.367 . S
C1283 C1291 1.433 . S
C1284 H1280 0.929 . S
C1284 C1286 1.378 . S
C1284 C1288 1.350 . S
C1285 C1288 1.463 . S
C1285 C1290 1.350 . S
C1285 N1293 1.427 . S
C1286 H1277 0.930 . S
C1286 C1284 1.378 . S
C1286 C1287 1.367 . S
C1287 C1286 1.367 . S
C1287 C1289 1.433 . S
C1288 C1284 1.350 . S
C1288 C1285 1.463 . S
C1288 N1292 1.427 . S
C1289 H1279 0.929 . S
C1289 C1287 1.433 . S
C1289 N1292 1.384 . S
C1290 H1281 0.929 . S
C1290 C1282 1.378 . S
C1290 C1285 1.350 . S
C1291 H1278 0.929 . S
C1291 C1283 1.433 . S
C1291 N1293 1.384 . S
N1292 C1288 1.427 . S
N1292 C1289 1.384 . S
N1293 C1285 1.427 . S
N1293 C1291 1.384 . S
H1294 C1300 0.930 . S
H1295 C1304 0.930 . S
H1296 C1309 0.929 . S
H1297 C1307 0.929 . S
H1298 C1302 0.929 . S
H1299 C1308 0.929 . S
C1300 H1294 0.930 . S
C1300 C1301 1.367 . S
C1300 C1308 1.378 . S
C1301 C1300 1.367 . S
C1301 C1309 1.433 . S
C1302 H1298 0.929 . S
C1302 C1304 1.378 . S
C1302 C1306 1.350 . S
C1303 C1306 1.463 . S
C1303 C1308 1.350 . S
C1303 N1311 1.427 . S
C1304 H1295 0.930 . S
C1304 C1302 1.378 . S
C1304 C1305 1.367 . S
C1305 C1304 1.367 . S
C1305 C1307 1.433 . S
C1306 C1302 1.350 . S
C1306 C1303 1.463 . S
C1306 N1310 1.427 . S
C1307 H1297 0.929 . S
C1307 C1305 1.433 . S
C1307 N1310 1.384 . S
C1308 H1299 0.929 . S
C1308 C1300 1.378 . S
C1308 C1303 1.350 . S
C1309 H1296 0.929 . S
C1309 C1301 1.433 . S
C1309 N1311 1.384 . S
N1310 C1306 1.427 . S
N1310 C1307 1.384 . S
N1311 C1303 1.427 . S
N1311 C1309 1.384 . S
H1312 C1318 0.930 . S
H1313 C1322 0.930 . S
H1314 C1327 0.929 . S
H1315 C1325 0.929 . S
H1316 C1320 0.929 . S
H1317 C1326 0.929 . S
C1318 H1312 0.930 . S
C1318 C1319 1.367 . S
C1318 C1326 1.378 . S
C1319 C1318 1.367 . S
C1319 C1327 1.433 . S
C1320 H1316 0.929 . S
C1320 C1322 1.378 . S
C1320 C1324 1.350 . S
C1321 C1324 1.463 . S
C1321 C1326 1.350 . S
C1321 N1329 1.427 . S
C1322 H1313 0.930 . S
C1322 C1320 1.378 . S
C1322 C1323 1.367 . S
C1323 C1322 1.367 . S
C1323 C1325 1.433 . S
C1324 C1320 1.350 . S
C1324 C1321 1.463 . S
C1324 N1328 1.427 . S
C1325 H1315 0.929 . S
C1325 C1323 1.433 . S
C1325 N1328 1.384 . S
C1326 H1317 0.929 . S
C1326 C1318 1.378 . S
C1326 C1321 1.350 . S
C1327 H1314 0.929 . S
C1327 C1319 1.433 . S
C1327 N1329 1.384 . S
N1328 C1324 1.427 . S
N1328 C1325 1.384 . S
N1329 C1321 1.427 . S
N1329 C1327 1.384 . S
H1330 C1336 0.930 . S
H1331 C1340 0.930 . S
H1332 C1345 0.929 . S
H1333 C1343 0.929 . S
H1334 C1338 0.929 . S
H1335 C1344 0.929 . S
C1336 H1330 0.930 . S
C1336 C1337 1.367 . S
C1336 C1344 1.378 . S
C1337 C1336 1.367 . S
C1337 C1345 1.433 . S
C1338 H1334 0.929 . S
C1338 C1340 1.378 . S
C1338 C1342 1.350 . S
C1339 C1342 1.463 . S
C1339 C1344 1.350 . S
C1339 N1347 1.427 . S
C1340 H1331 0.930 . S
C1340 C1338 1.378 . S
C1340 C1341 1.367 . S
C1341 C1340 1.367 . S
C1341 C1343 1.433 . S
C1342 C1338 1.350 . S
C1342 C1339 1.463 . S
C1342 N1346 1.427 . S
C1343 H1333 0.929 . S
C1343 C1341 1.433 . S
C1343 N1346 1.384 . S
C1344 H1335 0.929 . S
C1344 C1336 1.378 . S
C1344 C1339 1.350 . S
C1345 H1332 0.929 . S
C1345 C1337 1.433 . S
C1345 N1347 1.384 . S
N1346 C1342 1.427 . S
N1346 C1343 1.384 . S
N1347 C1339 1.427 . S
N1347 C1345 1.384 . S
H1348 C1354 0.930 . S
H1349 C1358 0.930 . S
H1350 C1363 0.929 . S
H1351 C1361 0.929 . S
H1352 C1356 0.929 . S
H1353 C1362 0.929 . S
C1354 H1348 0.930 . S
C1354 C1355 1.367 . S
C1354 C1362 1.378 . S
C1355 C1354 1.367 . S
C1355 C1363 1.433 . S
C1356 H1352 0.929 . S
C1356 C1358 1.378 . S
C1356 C1360 1.350 . S
C1357 C1360 1.463 . S
C1357 C1362 1.350 . S
C1357 N1365 1.427 . S
C1358 H1349 0.930 . S
C1358 C1356 1.378 . S
C1358 C1359 1.367 . S
C1359 C1358 1.367 . S
C1359 C1361 1.433 . S
C1360 C1356 1.350 . S
C1360 C1357 1.463 . S
C1360 N1364 1.427 . S
C1361 H1351 0.929 . S
C1361 C1359 1.433 . S
C1361 N1364 1.384 . S
C1362 H1353 0.929 . S
C1362 C1354 1.378 . S
C1362 C1357 1.350 . S
C1363 H1350 0.929 . S
C1363 C1355 1.433 . S
C1363 N1365 1.384 . S
N1364 C1360 1.427 . S
N1364 C1361 1.384 . S
N1365 C1357 1.427 . S
N1365 C1363 1.384 . S
H1366 C1372 0.930 . S
H1367 C1376 0.930 . S
H1368 C1381 0.929 . S
H1369 C1379 0.929 . S
H1370 C1374 0.929 . S
H1371 C1380 0.929 . S
C1372 H1366 0.930 . S
C1372 C1373 1.367 . S
C1372 C1380 1.378 . S
C1373 C1372 1.367 . S
C1373 C1381 1.433 . S
C1374 H1370 0.929 . S
C1374 C1376 1.378 . S
C1374 C1378 1.350 . S
C1375 C1378 1.463 . S
C1375 C1380 1.350 . S
C1375 N1383 1.427 . S
C1376 H1367 0.930 . S
C1376 C1374 1.378 . S
C1376 C1377 1.367 . S
C1377 C1376 1.367 . S
C1377 C1379 1.433 . S
C1378 C1374 1.350 . S
C1378 C1375 1.463 . S
C1378 N1382 1.427 . S
C1379 H1369 0.929 . S
C1379 C1377 1.433 . S
C1379 N1382 1.384 . S
C1380 H1371 0.929 . S
C1380 C1372 1.378 . S
C1380 C1375 1.350 . S
C1381 H1368 0.929 . S
C1381 C1373 1.433 . S
C1381 N1383 1.384 . S
N1382 C1378 1.427 . S
N1382 C1379 1.384 . S
N1383 C1375 1.427 . S
N1383 C1381 1.384 . S
H1384 C1390 0.930 . S
H1385 C1394 0.930 1_556 S
H1386 C1399 0.929 . S
H1387 C1397 0.929 . S
H1388 C1392 0.929 . S
H1389 C1398 0.929 . S
C1390 H1384 0.930 . S
C1390 C1391 1.367 . S
C1390 C1398 1.378 . S
C1391 C1390 1.367 . S
C1391 C1399 1.433 . S
C1392 H1388 0.929 . S
C1392 C1394 1.378 . S
C1392 C1396 1.350 . S
C1393 C1396 1.463 . S
C1393 C1398 1.350 . S
C1393 N1401 1.427 . S
C1394 H1385 0.930 1_554 S
C1394 C1392 1.378 . S
C1394 C1395 1.367 . S
C1395 C1394 1.367 . S
C1395 C1397 1.433 . S
C1396 C1392 1.350 . S
C1396 C1393 1.463 . S
C1396 N1400 1.427 . S
C1397 H1387 0.929 . S
C1397 C1395 1.433 . S
C1397 N1400 1.384 . S
C1398 H1389 0.929 . S
C1398 C1390 1.378 . S
C1398 C1393 1.350 . S
C1399 H1386 0.929 . S
C1399 C1391 1.433 . S
C1399 N1401 1.384 . S
N1400 C1396 1.427 . S
N1400 C1397 1.384 . S
N1401 C1393 1.427 . S
N1401 C1399 1.384 . S
H1402 C1408 0.930 . S
H1403 C1412 0.930 . S
H1404 C1417 0.929 . S
H1405 C1415 0.929 . S
H1406 C1410 0.929 . S
H1407 C1416 0.929 . S
C1408 H1402 0.930 . S
C1408 C1409 1.367 . S
C1408 C1416 1.378 . S
C1409 C1408 1.367 . S
C1409 C1417 1.433 . S
C1410 H1406 0.929 . S
C1410 C1412 1.378 . S
C1410 C1414 1.350 . S
C1411 C1414 1.463 . S
C1411 C1416 1.350 . S
C1411 N1419 1.427 . S
C1412 H1403 0.930 . S
C1412 C1410 1.378 . S
C1412 C1413 1.367 . S
C1413 C1412 1.367 . S
C1413 C1415 1.433 . S
C1414 C1410 1.350 . S
C1414 C1411 1.463 . S
C1414 N1418 1.427 . S
C1415 H1405 0.929 . S
C1415 C1413 1.433 . S
C1415 N1418 1.384 . S
C1416 H1407 0.929 . S
C1416 C1408 1.378 . S
C1416 C1411 1.350 . S
C1417 H1404 0.929 . S
C1417 C1409 1.433 . S
C1417 N1419 1.384 . S
N1418 C1414 1.427 . S
N1418 C1415 1.384 . S
N1419 C1411 1.427 . S
N1419 C1417 1.384 . S
H1420 C1426 0.930 . S
H1421 C1430 0.930 . S
H1422 C1435 0.929 . S
H1423 C1433 0.929 . S
H1424 C1428 0.929 . S
H1425 C1434 0.929 . S
C1426 H1420 0.930 . S
C1426 C1427 1.367 . S
C1426 C1434 1.378 . S
C1427 C1426 1.367 . S
C1427 C1435 1.433 . S
C1428 H1424 0.929 . S
C1428 C1430 1.378 . S
C1428 C1432 1.350 . S
C1429 C1432 1.463 . S
C1429 C1434 1.350 . S
C1429 N1437 1.427 . S
C1430 H1421 0.930 . S
C1430 C1428 1.378 . S
C1430 C1431 1.367 . S
C1431 C1430 1.367 . S
C1431 C1433 1.433 . S
C1432 C1428 1.350 . S
C1432 C1429 1.463 . S
C1432 N1436 1.427 . S
C1433 H1423 0.929 . S
C1433 C1431 1.433 . S
C1433 N1436 1.384 . S
C1434 H1425 0.929 . S
C1434 C1426 1.378 . S
C1434 C1429 1.350 . S
C1435 H1422 0.929 . S
C1435 C1427 1.433 . S
C1435 N1437 1.384 . S
N1436 C1432 1.427 . S
N1436 C1433 1.384 . S
N1437 C1429 1.427 . S
N1437 C1435 1.384 . S
H1438 C1444 0.930 . S
H1439 C1448 0.930 . S
H1440 C1453 0.929 . S
H1441 C1451 0.929 . S
H1442 C1446 0.929 . S
H1443 C1452 0.929 . S
C1444 H1438 0.930 . S
C1444 C1445 1.367 . S
C1444 C1452 1.378 . S
C1445 C1444 1.367 . S
C1445 C1453 1.433 . S
C1446 H1442 0.929 . S
C1446 C1448 1.378 . S
C1446 C1450 1.350 . S
C1447 C1450 1.463 . S
C1447 C1452 1.350 . S
C1447 N1455 1.427 . S
C1448 H1439 0.930 . S
C1448 C1446 1.378 . S
C1448 C1449 1.367 . S
C1449 C1448 1.367 . S
C1449 C1451 1.433 . S
C1450 C1446 1.350 . S
C1450 C1447 1.463 . S
C1450 N1454 1.427 . S
C1451 H1441 0.929 . S
C1451 C1449 1.433 . S
C1451 N1454 1.384 . S
C1452 H1443 0.929 . S
C1452 C1444 1.378 . S
C1452 C1447 1.350 . S
C1453 H1440 0.929 . S
C1453 C1445 1.433 . S
C1453 N1455 1.384 . S
N1454 C1450 1.427 . S
N1454 C1451 1.384 . S
N1455 C1447 1.427 . S
N1455 C1453 1.384 . S
H1456 C1462 0.930 . S
H1457 C1466 0.930 . S
H1458 C1471 0.929 . S
H1459 C1469 0.929 . S
H1460 C1464 0.929 . S
H1461 C1470 0.929 . S
C1462 H1456 0.930 . S
C1462 C1463 1.367 . S
C1462 C1470 1.378 . S
C1463 C1462 1.367 . S
C1463 C1471 1.433 . S
C1464 H1460 0.929 . S
C1464 C1466 1.378 . S
C1464 C1468 1.350 . S
C1465 C1468 1.463 . S
C1465 C1470 1.350 . S
C1465 N1473 1.427 . S
C1466 H1457 0.930 . S
C1466 C1464 1.378 . S
C1466 C1467 1.367 . S
C1467 C1466 1.367 . S
C1467 C1469 1.433 . S
C1468 C1464 1.350 . S
C1468 C1465 1.463 . S
C1468 N1472 1.427 . S
C1469 H1459 0.929 . S
C1469 C1467 1.433 . S
C1469 N1472 1.384 . S
C1470 H1461 0.929 . S
C1470 C1462 1.378 . S
C1470 C1465 1.350 . S
C1471 H1458 0.929 . S
C1471 C1463 1.433 . S
C1471 N1473 1.384 . S
N1472 C1468 1.427 . S
N1472 C1469 1.384 . S
N1473 C1465 1.427 . S
N1473 C1471 1.384 . S
H1474 C1480 0.930 . S
H1475 C1484 0.930 . S
H1476 C1489 0.929 . S
H1477 C1487 0.929 . S
H1478 C1482 0.929 . S
H1479 C1488 0.929 . S
C1480 H1474 0.930 . S
C1480 C1481 1.367 . S
C1480 C1488 1.378 . S
C1481 C1480 1.367 . S
C1481 C1489 1.433 . S
C1482 H1478 0.929 . S
C1482 C1484 1.378 . S
C1482 C1486 1.350 . S
C1483 C1486 1.463 . S
C1483 C1488 1.350 . S
C1483 N1491 1.427 . S
C1484 H1475 0.930 . S
C1484 C1482 1.378 . S
C1484 C1485 1.367 . S
C1485 C1484 1.367 . S
C1485 C1487 1.433 . S
C1486 C1482 1.350 . S
C1486 C1483 1.463 . S
C1486 N1490 1.427 . S
C1487 H1477 0.929 . S
C1487 C1485 1.433 . S
C1487 N1490 1.384 . S
C1488 H1479 0.929 . S
C1488 C1480 1.378 . S
C1488 C1483 1.350 . S
C1489 H1476 0.929 . S
C1489 C1481 1.433 . S
C1489 N1491 1.384 . S
N1490 C1486 1.427 . S
N1490 C1487 1.384 . S
N1491 C1483 1.427 . S
N1491 C1489 1.384 . S
H1492 C1498 0.930 . S
H1493 C1502 0.930 1_554 S
H1494 C1507 0.929 . S
H1495 C1505 0.929 . S
H1496 C1500 0.929 . S
H1497 C1506 0.929 . S
C1498 H1492 0.930 . S
C1498 C1499 1.367 . S
C1498 C1506 1.378 . S
C1499 C1498 1.367 . S
C1499 C1507 1.433 . S
C1500 H1496 0.929 . S
C1500 C1502 1.378 . S
C1500 C1504 1.350 . S
C1501 C1504 1.463 . S
C1501 C1506 1.350 . S
C1501 N1509 1.427 . S
C1502 H1493 0.930 1_556 S
C1502 C1500 1.378 . S
C1502 C1503 1.367 . S
C1503 C1502 1.367 . S
C1503 C1505 1.433 . S
C1504 C1500 1.350 . S
C1504 C1501 1.463 . S
C1504 N1508 1.427 . S
C1505 H1495 0.929 . S
C1505 C1503 1.433 . S
C1505 N1508 1.384 . S
C1506 H1497 0.929 . S
C1506 C1498 1.378 . S
C1506 C1501 1.350 . S
C1507 H1494 0.929 . S
C1507 C1499 1.433 . S
C1507 N1509 1.384 . S
N1508 C1504 1.427 . S
N1508 C1505 1.384 . S
N1509 C1501 1.427 . S
N1509 C1507 1.384 . S
H1510 C1516 0.930 . S
H1511 C1520 0.930 . S
H1512 C1525 0.929 . S
H1513 C1523 0.929 . S
H1514 C1518 0.929 . S
H1515 C1524 0.929 . S
C1516 H1510 0.930 . S
C1516 C1517 1.367 . S
C1516 C1524 1.378 . S
C1517 C1516 1.367 . S
C1517 C1525 1.433 . S
C1518 H1514 0.929 . S
C1518 C1520 1.378 . S
C1518 C1522 1.350 . S
C1519 C1522 1.463 . S
C1519 C1524 1.350 . S
C1519 N1527 1.427 . S
C1520 H1511 0.930 . S
C1520 C1518 1.378 . S
C1520 C1521 1.367 . S
C1521 C1520 1.367 . S
C1521 C1523 1.433 . S
C1522 C1518 1.350 . S
C1522 C1519 1.463 . S
C1522 N1526 1.427 . S
C1523 H1513 0.929 . S
C1523 C1521 1.433 . S
C1523 N1526 1.384 . S
C1524 H1515 0.929 . S
C1524 C1516 1.378 . S
C1524 C1519 1.350 . S
C1525 H1512 0.929 . S
C1525 C1517 1.433 . S
C1525 N1527 1.384 . S
N1526 C1522 1.427 . S
N1526 C1523 1.384 . S
N1527 C1519 1.427 . S
N1527 C1525 1.384 . S
H1528 C1534 0.930 . S
H1529 C1538 0.930 . S
H1530 C1543 0.929 . S
H1531 C1541 0.929 1_565 S
H1532 C1536 0.929 . S
H1533 C1542 0.929 . S
C1534 H1528 0.930 . S
C1534 C1535 1.367 1_565 S
C1534 C1542 1.378 . S
C1535 C1534 1.367 1_545 S
C1535 C1543 1.433 . S
C1536 H1532 0.929 . S
C1536 C1538 1.378 . S
C1536 C1540 1.350 . S
C1537 C1540 1.463 . S
C1537 C1542 1.350 1_545 S
C1537 N1545 1.427 . S
C1538 H1529 0.930 . S
C1538 C1536 1.378 . S
C1538 C1539 1.367 . S
C1539 C1538 1.367 . S
C1539 C1541 1.433 . S
C1540 C1536 1.350 . S
C1540 C1537 1.463 . S
C1540 N1544 1.461 . S
C1541 H1531 0.929 1_545 S
C1541 C1539 1.433 . S
C1541 N1544 1.386 . S
C1542 H1533 0.929 . S
C1542 C1534 1.378 . S
C1542 C1537 1.350 1_565 S
C1543 H1530 0.929 . S
C1543 C1535 1.433 . S
C1543 N1545 1.384 . S
N1544 C1540 1.461 . S
N1544 C1541 1.386 . S
N1545 C1537 1.427 . S
N1545 C1543 1.384 . S
H1546 C1552 0.930 . S
H1547 C1556 0.930 . S
H1548 C1561 0.929 . S
H1549 C1559 0.929 . S
H1550 C1554 0.929 . S
H1551 C1560 0.929 . S
C1552 H1546 0.930 . S
C1552 C1553 1.367 . S
C1552 C1560 1.378 . S
C1553 C1552 1.367 . S
C1553 C1561 1.433 . S
C1554 H1550 0.929 . S
C1554 C1556 1.378 . S
C1554 C1558 1.350 . S
C1555 C1558 1.463 . S
C1555 C1560 1.350 . S
C1555 N1563 1.427 . S
C1556 H1547 0.930 . S
C1556 C1554 1.378 . S
C1556 C1557 1.367 . S
C1557 C1556 1.367 . S
C1557 C1559 1.433 . S
C1558 C1554 1.350 . S
C1558 C1555 1.463 . S
C1558 N1562 1.427 . S
C1559 H1549 0.929 . S
C1559 C1557 1.433 . S
C1559 N1562 1.384 . S
C1560 H1551 0.929 . S
C1560 C1552 1.378 . S
C1560 C1555 1.350 . S
C1561 H1548 0.929 . S
C1561 C1553 1.433 . S
C1561 N1563 1.384 . S
N1562 C1558 1.427 . S
N1562 C1559 1.384 . S
N1563 C1555 1.427 . S
N1563 C1561 1.384 . S
H1564 C1570 0.930 . S
H1565 C1574 0.930 . S
H1566 C1579 0.929 . S
H1567 C1577 0.929 . S
H1568 C1572 0.929 . S
H1569 C1578 0.929 . S
C1570 H1564 0.930 . S
C1570 C1571 1.367 . S
C1570 C1578 1.378 . S
C1571 C1570 1.367 . S
C1571 C1579 1.433 . S
C1572 H1568 0.929 . S
C1572 C1574 1.378 . S
C1572 C1576 1.350 . S
C1573 C1576 1.463 . S
C1573 C1578 1.350 . S
C1573 N1581 1.427 . S
C1574 H1565 0.930 . S
C1574 C1572 1.378 . S
C1574 C1575 1.367 . S
C1575 C1574 1.367 . S
C1575 C1577 1.433 . S
C1576 C1572 1.350 . S
C1576 C1573 1.463 . S
C1576 N1580 1.427 . S
C1577 H1567 0.929 . S
C1577 C1575 1.433 . S
C1577 N1580 1.384 . S
C1578 H1569 0.929 . S
C1578 C1570 1.378 . S
C1578 C1573 1.350 . S
C1579 H1566 0.929 . S
C1579 C1571 1.433 . S
C1579 N1581 1.384 . S
N1580 C1576 1.427 . S
N1580 C1577 1.384 . S
N1581 C1573 1.427 . S
N1581 C1579 1.384 . S
H1582 C1588 0.930 . S
H1583 C1592 0.930 . S
H1584 C1597 0.929 . S
H1585 C1595 0.929 . S
H1586 C1590 0.929 . S
H1587 C1596 0.929 . S
C1588 H1582 0.930 . S
C1588 C1589 1.367 . S
C1588 C1596 1.378 . S
C1589 C1588 1.367 . S
C1589 C1597 1.433 . S
C1590 H1586 0.929 . S
C1590 C1592 1.378 . S
C1590 C1594 1.350 . S
C1591 C1594 1.463 . S
C1591 C1596 1.350 . S
C1591 N1599 1.427 . S
C1592 H1583 0.930 . S
C1592 C1590 1.378 . S
C1592 C1593 1.367 . S
C1593 C1592 1.367 . S
C1593 C1595 1.433 . S
C1594 C1590 1.350 . S
C1594 C1591 1.463 . S
C1594 N1598 1.427 . S
C1595 H1585 0.929 . S
C1595 C1593 1.433 . S
C1595 N1598 1.384 . S
C1596 H1587 0.929 . S
C1596 C1588 1.378 . S
C1596 C1591 1.350 . S
C1597 H1584 0.929 . S
C1597 C1589 1.433 . S
C1597 N1599 1.384 . S
N1598 C1594 1.427 . S
N1598 C1595 1.384 . S
N1599 C1591 1.427 . S
N1599 C1597 1.384 . S
H1600 C1606 0.930 . S
H1601 C1610 0.930 . S
H1602 C1615 0.929 . S
H1603 C1613 0.929 . S
H1604 C1608 0.929 . S
H1605 C1614 0.928 . S
C1606 H1600 0.930 . S
C1606 C1607 1.368 1_565 S
C1606 C1614 1.385 . S
C1607 C1606 1.368 1_545 S
C1607 C1615 1.442 . S
C1608 H1604 0.929 . S
C1608 C1610 1.378 . S
C1608 C1612 1.350 . S
C1609 C1612 1.463 . S
C1609 C1614 1.344 1_545 S
C1609 N1617 1.427 . S
C1610 H1601 0.930 . S
C1610 C1608 1.378 . S
C1610 C1611 1.367 . S
C1611 C1610 1.367 . S
C1611 C1613 1.433 . S
C1612 C1608 1.350 . S
C1612 C1609 1.463 . S
C1612 N1616 1.427 . S
C1613 H1603 0.929 . S
C1613 C1611 1.433 . S
C1613 N1616 1.384 . S
C1614 H1605 0.928 . S
C1614 C1606 1.385 . S
C1614 C1609 1.344 1_565 S
C1615 H1602 0.929 . S
C1615 C1607 1.442 . S
C1615 N1617 1.384 . S
N1616 C1612 1.427 . S
N1616 C1613 1.384 . S
N1617 C1609 1.427 . S
N1617 C1615 1.384 . S
H1618 C1624 0.930 . S
H1619 C1628 0.930 . S
H1620 C1633 0.929 . S
H1621 C1631 0.929 . S
H1622 C1626 0.929 . S
H1623 C1632 0.929 . S
C1624 H1618 0.930 . S
C1624 C1625 1.367 . S
C1624 C1632 1.378 . S
C1625 C1624 1.367 . S
C1625 C1633 1.433 . S
C1626 H1622 0.929 . S
C1626 C1628 1.378 . S
C1626 C1630 1.350 . S
C1627 C1630 1.463 . S
C1627 C1632 1.350 . S
C1627 N1635 1.427 . S
C1628 H1619 0.930 . S
C1628 C1626 1.378 . S
C1628 C1629 1.367 . S
C1629 C1628 1.367 . S
C1629 C1631 1.433 . S
C1630 C1626 1.350 . S
C1630 C1627 1.463 . S
C1630 N1634 1.427 . S
C1631 H1621 0.929 . S
C1631 C1629 1.433 . S
C1631 N1634 1.384 . S
C1632 H1623 0.929 . S
C1632 C1624 1.378 . S
C1632 C1627 1.350 . S
C1633 H1620 0.929 . S
C1633 C1625 1.433 . S
C1633 N1635 1.384 . S
N1634 C1630 1.427 . S
N1634 C1631 1.384 . S
N1635 C1627 1.427 . S
N1635 C1633 1.384 . S
H1636 C1642 0.930 . S
H1637 C1646 0.930 . S
H1638 C1651 0.929 . S
H1639 C1649 0.929 . S
H1640 C1644 0.929 . S
H1641 C1650 0.929 . S
C1642 H1636 0.930 . S
C1642 C1643 1.398 . S
C1642 C1650 1.378 . S
C1643 C1642 1.398 . S
C1643 C1651 1.406 1_565 S
C1644 H1640 0.929 . S
C1644 C1646 1.378 . S
C1644 C1648 1.350 1_545 S
C1645 C1648 1.463 . S
C1645 C1650 1.350 . S
C1645 N1653 1.427 1_565 S
C1646 H1637 0.930 . S
C1646 C1644 1.378 . S
C1646 C1647 1.367 1_545 S
C1647 C1646 1.367 1_565 S
C1647 C1649 1.433 . S
C1648 C1644 1.350 1_565 S
C1648 C1645 1.463 . S
C1648 N1652 1.427 . S
C1649 H1639 0.929 . S
C1649 C1647 1.433 . S
C1649 N1652 1.384 . S
C1650 H1641 0.929 . S
C1650 C1642 1.378 . S
C1650 C1645 1.350 . S
C1651 H1638 0.929 . S
C1651 C1643 1.406 1_545 S
C1651 N1653 1.384 . S
N1652 C1648 1.427 . S
N1652 C1649 1.384 . S
N1653 C1645 1.427 1_545 S
N1653 C1651 1.384 . S
H1654 C1660 0.930 . S
H1655 C1664 0.930 . S
H1656 C1669 0.929 . S
H1657 C1667 0.929 . S
H1658 C1662 0.929 . S
H1659 C1668 0.929 . S
C1660 H1654 0.930 . S
C1660 C1661 1.367 . S
C1660 C1668 1.378 . S
C1661 C1660 1.367 . S
C1661 C1669 1.433 . S
C1662 H1658 0.929 . S
C1662 C1664 1.378 . S
C1662 C1666 1.350 . S
C1663 C1666 1.463 . S
C1663 C1668 1.350 . S
C1663 N1671 1.427 . S
C1664 H1655 0.930 . S
C1664 C1662 1.378 . S
C1664 C1665 1.367 . S
C1665 C1664 1.367 . S
C1665 C1667 1.433 . S
C1666 C1662 1.350 . S
C1666 C1663 1.463 . S
C1666 N1670 1.427 . S
C1667 H1657 0.929 . S
C1667 C1665 1.433 . S
C1667 N1670 1.384 . S
C1668 H1659 0.929 . S
C1668 C1660 1.378 . S
C1668 C1663 1.350 . S
C1669 H1656 0.929 . S
C1669 C1661 1.433 . S
C1669 N1671 1.384 . S
N1670 C1666 1.427 . S
N1670 C1667 1.384 . S
N1671 C1663 1.427 . S
N1671 C1669 1.384 . S
H1672 C1678 0.930 . S
H1673 C1682 0.930 1_554 S
H1674 C1687 0.929 . S
H1675 C1685 0.929 . S
H1676 C1680 0.929 . S
H1677 C1686 0.929 . S
C1678 H1672 0.930 . S
C1678 C1679 1.367 1_556 S
C1678 C1686 1.378 . S
C1679 C1678 1.367 1_554 S
C1679 C1687 1.433 . S
C1680 H1676 0.929 . S
C1680 C1682 1.378 1_554 S
C1680 C1684 1.350 1_554 S
C1681 C1684 1.463 . S
C1681 C1686 1.350 . S
C1681 N1689 1.427 1_556 S
C1682 H1673 0.930 1_556 S
C1682 C1680 1.378 1_556 S
C1682 C1683 1.367 . S
C1683 C1682 1.367 . S
C1683 C1685 1.433 . S
C1684 C1680 1.350 1_556 S
C1684 C1681 1.463 . S
C1684 N1688 1.427 . S
C1685 H1675 0.929 . S
C1685 C1683 1.433 . S
C1685 N1688 1.384 . S
C1686 H1677 0.929 . S
C1686 C1678 1.378 . S
C1686 C1681 1.350 . S
C1687 H1674 0.929 . S
C1687 C1679 1.433 . S
C1687 N1689 1.384 . S
N1688 C1684 1.427 . S
N1688 C1685 1.384 . S
N1689 C1681 1.427 1_554 S
N1689 C1687 1.384 . S
H1690 C1696 0.930 . S
H1691 C1700 0.930 1_556 S
H1692 C1705 0.929 1_556 S
H1693 C1703 0.929 . S
H1694 C1698 0.929 1_556 S
H1695 C1704 0.929 . S
C1696 H1690 0.930 . S
C1696 C1697 1.367 . S
C1696 C1704 1.378 . S
C1697 C1696 1.367 . S
C1697 C1705 1.433 . S
C1698 H1694 0.929 1_554 S
C1698 C1700 1.378 . S
C1698 C1702 1.350 . S
C1699 C1702 1.463 . S
C1699 C1704 1.350 . S
C1699 N1707 1.427 . S
C1700 H1691 0.930 1_554 S
C1700 C1698 1.378 . S
C1700 C1701 1.367 . S
C1701 C1700 1.367 . S
C1701 C1703 1.433 . S
C1702 C1698 1.350 . S
C1702 C1699 1.463 . S
C1702 N1706 1.427 . S
C1703 H1693 0.929 . S
C1703 C1701 1.433 . S
C1703 N1706 1.384 . S
C1704 H1695 0.929 . S
C1704 C1696 1.378 . S
C1704 C1699 1.350 . S
C1705 H1692 0.929 1_554 S
C1705 C1697 1.433 . S
C1705 N1707 1.384 . S
N1706 C1702 1.427 . S
N1706 C1703 1.384 . S
N1707 C1699 1.427 . S
N1707 C1705 1.384 . S
H1708 C1714 0.930 . S
H1709 C1718 0.930 . S
H1710 C1723 0.929 . S
H1711 C1721 0.929 . S
H1712 C1716 0.929 . S
H1713 C1722 0.929 . S
C1714 H1708 0.930 . S
C1714 C1715 1.367 . S
C1714 C1722 1.378 . S
C1715 C1714 1.367 . S
C1715 C1723 1.433 . S
C1716 H1712 0.929 . S
C1716 C1718 1.378 . S
C1716 C1720 1.350 . S
C1717 C1720 1.463 . S
C1717 C1722 1.350 . S
C1717 N1725 1.427 . S
C1718 H1709 0.930 . S
C1718 C1716 1.378 . S
C1718 C1719 1.367 . S
C1719 C1718 1.367 . S
C1719 C1721 1.433 . S
C1720 C1716 1.350 . S
C1720 C1717 1.463 . S
C1720 N1724 1.427 . S
C1721 H1711 0.929 . S
C1721 C1719 1.433 . S
C1721 N1724 1.384 . S
C1722 H1713 0.929 . S
C1722 C1714 1.378 . S
C1722 C1717 1.350 . S
C1723 H1710 0.929 . S
C1723 C1715 1.433 . S
C1723 N1725 1.384 . S
N1724 C1720 1.427 . S
N1724 C1721 1.384 . S
N1725 C1717 1.427 . S
N1725 C1723 1.384 . S
H1726 C1732 0.930 . S
H1727 C1736 0.930 . S
H1728 C1741 0.929 . S
H1729 C1739 0.929 . S
H1730 C1734 0.929 . S
H1731 C1740 0.929 . S
C1732 H1726 0.930 . S
C1732 C1733 1.367 . S
C1732 C1740 1.378 . S
C1733 C1732 1.367 . S
C1733 C1741 1.433 . S
C1734 H1730 0.929 . S
C1734 C1736 1.378 . S
C1734 C1738 1.350 . S
C1735 C1738 1.463 . S
C1735 C1740 1.350 . S
C1735 N1743 1.427 . S
C1736 H1727 0.930 . S
C1736 C1734 1.378 . S
C1736 C1737 1.367 . S
C1737 C1736 1.367 . S
C1737 C1739 1.433 . S
C1738 C1734 1.350 . S
C1738 C1735 1.463 . S
C1738 N1742 1.427 . S
C1739 H1729 0.929 . S
C1739 C1737 1.433 . S
C1739 N1742 1.384 . S
C1740 H1731 0.929 . S
C1740 C1732 1.378 . S
C1740 C1735 1.350 . S
C1741 H1728 0.929 . S
C1741 C1733 1.433 . S
C1741 N1743 1.384 . S
N1742 C1738 1.427 . S
N1742 C1739 1.384 . S
N1743 C1735 1.427 . S
N1743 C1741 1.384 . S
H1744 C1750 0.930 . S
H1745 C1754 0.930 . S
H1746 C1759 0.929 . S
H1747 C1757 0.929 . S
H1748 C1752 0.929 . S
H1749 C1758 0.929 . S
C1750 H1744 0.930 . S
C1750 C1751 1.367 1_565 S
C1750 C1758 1.378 . S
C1751 C1750 1.367 1_545 S
C1751 C1759 1.433 . S
C1752 H1748 0.929 . S
C1752 C1754 1.378 . S
C1752 C1756 1.350 . S
C1753 C1756 1.463 . S
C1753 C1758 1.350 . S
C1753 N1761 1.427 . S
C1754 H1745 0.930 . S
C1754 C1752 1.378 . S
C1754 C1755 1.367 . S
C1755 C1754 1.367 . S
C1755 C1757 1.433 . S
C1756 C1752 1.350 . S
C1756 C1753 1.463 . S
C1756 N1760 1.427 . S
C1757 H1747 0.929 . S
C1757 C1755 1.433 . S
C1757 N1760 1.384 . S
C1758 H1749 0.929 . S
C1758 C1750 1.378 . S
C1758 C1753 1.350 . S
C1759 H1746 0.929 . S
C1759 C1751 1.433 . S
C1759 N1761 1.384 1_545 S
N1760 C1756 1.427 . S
N1760 C1757 1.384 . S
N1761 C1753 1.427 . S
N1761 C1759 1.384 1_565 S
H1762 C1768 0.930 . S
H1763 C1772 0.930 . S
H1764 C1777 0.929 . S
H1765 C1775 0.929 . S
H1766 C1770 0.929 . S
H1767 C1776 0.929 . S
C1768 H1762 0.930 . S
C1768 C1769 1.367 . S
C1768 C1776 1.378 . S
C1769 C1768 1.367 . S
C1769 C1777 1.433 . S
C1770 H1766 0.929 . S
C1770 C1772 1.378 . S
C1770 C1774 1.350 . S
C1771 C1774 1.463 . S
C1771 C1776 1.350 . S
C1771 N1779 1.427 . S
C1772 H1763 0.930 . S
C1772 C1770 1.378 . S
C1772 C1773 1.367 . S
C1773 C1772 1.367 . S
C1773 C1775 1.433 . S
C1774 C1770 1.350 . S
C1774 C1771 1.463 . S
C1774 N1778 1.427 . S
C1775 H1765 0.929 . S
C1775 C1773 1.433 . S
C1775 N1778 1.384 . S
C1776 H1767 0.929 . S
C1776 C1768 1.378 . S
C1776 C1771 1.350 . S
C1777 H1764 0.929 . S
C1777 C1769 1.433 . S
C1777 N1779 1.384 . S
N1778 C1774 1.427 . S
N1778 C1775 1.384 . S
N1779 C1771 1.427 . S
N1779 C1777 1.384 . S
H1780 C1786 0.930 . S
H1781 C1790 0.930 . S
H1782 C1795 0.929 . S
H1783 C1793 0.929 . S
H1784 C1788 0.929 . S
H1785 C1794 0.929 . S
C1786 H1780 0.930 . S
C1786 C1787 1.367 . S
C1786 C1794 1.378 . S
C1787 C1786 1.367 . S
C1787 C1795 1.433 . S
C1788 H1784 0.929 . S
C1788 C1790 1.378 . S
C1788 C1792 1.350 . S
C1789 C1792 1.463 . S
C1789 C1794 1.350 . S
C1789 N1797 1.427 . S
C1790 H1781 0.930 . S
C1790 C1788 1.378 . S
C1790 C1791 1.367 . S
C1791 C1790 1.367 . S
C1791 C1793 1.433 . S
C1792 C1788 1.350 . S
C1792 C1789 1.463 . S
C1792 N1796 1.427 . S
C1793 H1783 0.929 . S
C1793 C1791 1.433 . S
C1793 N1796 1.384 . S
C1794 H1785 0.929 . S
C1794 C1786 1.378 . S
C1794 C1789 1.350 . S
C1795 H1782 0.929 . S
C1795 C1787 1.433 . S
C1795 N1797 1.384 . S
N1796 C1792 1.427 . S
N1796 C1793 1.384 . S
N1797 C1789 1.427 . S
N1797 C1795 1.384 . S
H1798 C1804 0.930 . S
H1799 C1808 0.930 . S
H1800 C1813 0.929 . S
H1801 C1811 0.929 . S
H1802 C1806 0.929 . S
H1803 C1812 0.929 . S
C1804 H1798 0.930 . S
C1804 C1805 1.367 . S
C1804 C1812 1.378 . S
C1805 C1804 1.367 . S
C1805 C1813 1.433 . S
C1806 H1802 0.929 . S
C1806 C1808 1.378 . S
C1806 C1810 1.350 . S
C1807 C1810 1.463 . S
C1807 C1812 1.350 . S
C1807 N1815 1.427 . S
C1808 H1799 0.930 . S
C1808 C1806 1.378 . S
C1808 C1809 1.367 . S
C1809 C1808 1.367 . S
C1809 C1811 1.433 . S
C1810 C1806 1.350 . S
C1810 C1807 1.463 . S
C1810 N1814 1.427 . S
C1811 H1801 0.929 . S
C1811 C1809 1.433 . S
C1811 N1814 1.384 . S
C1812 H1803 0.929 . S
C1812 C1804 1.378 . S
C1812 C1807 1.350 . S
C1813 H1800 0.929 . S
C1813 C1805 1.433 . S
C1813 N1815 1.384 . S
N1814 C1810 1.427 . S
N1814 C1811 1.384 . S
N1815 C1807 1.427 . S
N1815 C1813 1.384 . S
H1816 C1822 0.930 . S
H1817 C1826 0.930 . S
H1818 C1831 0.929 . S
H1819 C1829 0.929 . S
H1820 C1824 0.929 . S
H1821 C1830 0.929 . S
C1822 H1816 0.930 . S
C1822 C1823 1.367 . S
C1822 C1830 1.378 . S
C1823 C1822 1.367 . S
C1823 C1831 1.433 . S
C1824 H1820 0.929 . S
C1824 C1826 1.378 . S
C1824 C1828 1.350 . S
C1825 C1828 1.463 . S
C1825 C1830 1.350 . S
C1825 N1833 1.427 . S
C1826 H1817 0.930 . S
C1826 C1824 1.378 . S
C1826 C1827 1.367 . S
C1827 C1826 1.367 . S
C1827 C1829 1.433 . S
C1828 C1824 1.350 . S
C1828 C1825 1.463 . S
C1828 N1832 1.427 . S
C1829 H1819 0.929 . S
C1829 C1827 1.433 . S
C1829 N1832 1.384 . S
C1830 H1821 0.929 . S
C1830 C1822 1.378 . S
C1830 C1825 1.350 . S
C1831 H1818 0.929 . S
C1831 C1823 1.433 . S
C1831 N1833 1.384 . S
N1832 C1828 1.427 . S
N1832 C1829 1.384 . S
N1833 C1825 1.427 . S
N1833 C1831 1.384 . S
H1834 C1840 0.930 . S
H1835 C1844 0.930 . S
H1836 C1849 0.929 . S
H1837 C1847 0.929 . S
H1838 C1842 0.929 . S
H1839 C1848 0.929 . S
C1840 H1834 0.930 . S
C1840 C1841 1.367 . S
C1840 C1848 1.378 . S
C1841 C1840 1.367 . S
C1841 C1849 1.433 . S
C1842 H1838 0.929 . S
C1842 C1844 1.378 . S
C1842 C1846 1.350 . S
C1843 C1846 1.463 . S
C1843 C1848 1.350 . S
C1843 N1851 1.427 . S
C1844 H1835 0.930 . S
C1844 C1842 1.378 . S
C1844 C1845 1.367 . S
C1845 C1844 1.367 . S
C1845 C1847 1.433 . S
C1846 C1842 1.350 . S
C1846 C1843 1.463 . S
C1846 N1850 1.427 . S
C1847 H1837 0.929 . S
C1847 C1845 1.433 . S
C1847 N1850 1.384 . S
C1848 H1839 0.929 . S
C1848 C1840 1.378 . S
C1848 C1843 1.350 . S
C1849 H1836 0.929 . S
C1849 C1841 1.433 . S
C1849 N1851 1.384 . S
N1850 C1846 1.427 . S
N1850 C1847 1.384 . S
N1851 C1843 1.427 . S
N1851 C1849 1.384 . S
H1852 C1858 0.930 . S
H1853 C1862 0.930 . S
H1854 C1867 0.929 . S
H1855 C1865 0.929 . S
H1856 C1860 0.929 . S
H1857 C1866 0.929 . S
C1858 H1852 0.930 . S
C1858 C1859 1.367 . S
C1858 C1866 1.378 . S
C1859 C1858 1.367 . S
C1859 C1867 1.433 . S
C1860 H1856 0.929 . S
C1860 C1862 1.378 . S
C1860 C1864 1.350 1_554 S
C1861 C1864 1.463 . S
C1861 C1866 1.350 . S
C1861 N1869 1.427 . S
C1862 H1853 0.930 . S
C1862 C1860 1.378 . S
C1862 C1863 1.367 1_554 S
C1863 C1862 1.367 1_556 S
C1863 C1865 1.433 . S
C1864 C1860 1.350 1_556 S
C1864 C1861 1.463 . S
C1864 N1868 1.427 . S
C1865 H1855 0.929 . S
C1865 C1863 1.433 . S
C1865 N1868 1.384 . S
C1866 H1857 0.929 . S
C1866 C1858 1.378 . S
C1866 C1861 1.350 . S
C1867 H1854 0.929 . S
C1867 C1859 1.433 . S
C1867 N1869 1.384 . S
N1868 C1864 1.427 . S
N1868 C1865 1.384 . S
N1869 C1861 1.427 . S
N1869 C1867 1.384 . S
H1870 C1876 0.930 . S
H1871 C1880 0.930 . S
H1872 C1885 0.929 . S
H1873 C1883 0.929 . S
H1874 C1878 0.929 . S
H1875 C1884 0.930 . S
C1876 H1870 0.930 . S
C1876 C1877 1.367 . S
C1876 C1884 1.393 . S
C1877 C1876 1.367 . S
C1877 C1885 1.404 1_455 S
C1878 H1874 0.929 . S
C1878 C1880 1.378 . S
C1878 C1882 1.350 . S
C1879 C1882 1.463 . S
C1879 C1884 1.337 1_655 S
C1879 N1887 1.427 . S
C1880 H1871 0.930 . S
C1880 C1878 1.378 . S
C1880 C1881 1.367 . S
C1881 C1880 1.367 . S
C1881 C1883 1.433 . S
C1882 C1878 1.350 . S
C1882 C1879 1.463 . S
C1882 N1886 1.427 . S
C1883 H1873 0.929 . S
C1883 C1881 1.433 . S
C1883 N1886 1.384 . S
C1884 H1875 0.930 . S
C1884 C1876 1.393 . S
C1884 C1879 1.337 1_455 S
C1885 H1872 0.929 . S
C1885 C1877 1.404 1_655 S
C1885 N1887 1.418 . S
N1886 C1882 1.427 . S
N1886 C1883 1.384 . S
N1887 C1879 1.427 . S
N1887 C1885 1.418 . S
H1888 C1894 0.930 . S
H1889 C1898 0.930 . S
H1890 C1903 0.929 . S
H1891 C1901 0.929 . S
H1892 C1896 0.929 . S
H1893 C1902 0.929 . S
C1894 H1888 0.930 . S
C1894 C1895 1.367 . S
C1894 C1902 1.378 . S
C1895 C1894 1.367 . S
C1895 C1903 1.433 . S
C1896 H1892 0.929 . S
C1896 C1898 1.378 . S
C1896 C1900 1.350 . S
C1897 C1900 1.463 . S
C1897 C1902 1.350 . S
C1897 N1905 1.427 . S
C1898 H1889 0.930 . S
C1898 C1896 1.378 . S
C1898 C1899 1.367 . S
C1899 C1898 1.367 . S
C1899 C1901 1.433 . S
C1900 C1896 1.350 . S
C1900 C1897 1.463 . S
C1900 N1904 1.427 . S
C1901 H1891 0.929 . S
C1901 C1899 1.433 . S
C1901 N1904 1.384 . S
C1902 H1893 0.929 . S
C1902 C1894 1.378 . S
C1902 C1897 1.350 . S
C1903 H1890 0.929 . S
C1903 C1895 1.433 . S
C1903 N1905 1.384 . S
N1904 C1900 1.427 . S
N1904 C1901 1.384 . S
N1905 C1897 1.427 . S
N1905 C1903 1.384 . S
H1906 C1912 0.930 . S
H1907 C1916 0.930 . S
H1908 C1921 0.929 . S
H1909 C1919 0.929 . S
H1910 C1914 0.929 . S
H1911 C1920 0.929 . S
C1912 H1906 0.930 . S
C1912 C1913 1.367 . S
C1912 C1920 1.378 . S
C1913 C1912 1.367 . S
C1913 C1921 1.433 . S
C1914 H1910 0.929 . S
C1914 C1916 1.378 . S
C1914 C1918 1.350 . S
C1915 C1918 1.463 1_455 S
C1915 C1920 1.350 . S
C1915 N1923 1.427 . S
C1916 H1907 0.930 . S
C1916 C1914 1.378 . S
C1916 C1917 1.367 . S
C1917 C1916 1.367 . S
C1917 C1919 1.433 . S
C1918 C1914 1.350 . S
C1918 C1915 1.463 1_655 S
C1918 N1922 1.427 . S
C1919 H1909 0.929 . S
C1919 C1917 1.433 . S
C1919 N1922 1.384 . S
C1920 H1911 0.929 . S
C1920 C1912 1.378 . S
C1920 C1915 1.350 . S
C1921 H1908 0.929 . S
C1921 C1913 1.433 . S
C1921 N1923 1.384 . S
N1922 C1918 1.427 . S
N1922 C1919 1.384 . S
N1923 C1915 1.427 . S
N1923 C1921 1.384 . S
H1924 C1930 0.930 . S
H1925 C1934 0.930 . S
H1926 C1939 0.929 . S
H1927 C1937 0.929 . S
H1928 C1932 0.929 . S
H1929 C1938 0.929 . S
C1930 H1924 0.930 . S
C1930 C1931 1.367 . S
C1930 C1938 1.378 1_655 S
C1931 C1930 1.367 . S
C1931 C1939 1.433 1_655 S
C1932 H1928 0.929 . S
C1932 C1934 1.378 . S
C1932 C1936 1.350 . S
C1933 C1936 1.463 . S
C1933 C1938 1.350 . S
C1933 N1941 1.427 . S
C1934 H1925 0.930 . S
C1934 C1932 1.378 . S
C1934 C1935 1.367 . S
C1935 C1934 1.367 . S
C1935 C1937 1.433 . S
C1936 C1932 1.350 . S
C1936 C1933 1.463 . S
C1936 N1940 1.427 . S
C1937 H1927 0.929 . S
C1937 C1935 1.433 . S
C1937 N1940 1.384 . S
C1938 H1929 0.929 . S
C1938 C1930 1.378 1_455 S
C1938 C1933 1.350 . S
C1939 H1926 0.929 . S
C1939 C1931 1.433 1_455 S
C1939 N1941 1.384 . S
N1940 C1936 1.427 . S
N1940 C1937 1.384 . S
N1941 C1933 1.427 . S
N1941 C1939 1.384 . S
H1942 C1948 0.930 . S
H1943 C1952 0.930 . S
H1944 C1957 0.929 . S
H1945 C1955 0.929 . S
H1946 C1950 0.929 . S
H1947 C1956 0.929 . S
C1948 H1942 0.930 . S
C1948 C1949 1.367 . S
C1948 C1956 1.378 . S
C1949 C1948 1.367 . S
C1949 C1957 1.433 . S
C1950 H1946 0.929 . S
C1950 C1952 1.378 . S
C1950 C1954 1.350 . S
C1951 C1954 1.463 . S
C1951 C1956 1.350 . S
C1951 N1959 1.427 . S
C1952 H1943 0.930 . S
C1952 C1950 1.378 . S
C1952 C1953 1.367 . S
C1953 C1952 1.367 . S
C1953 C1955 1.433 . S
C1954 C1950 1.350 . S
C1954 C1951 1.463 . S
C1954 N1958 1.427 . S
C1955 H1945 0.929 . S
C1955 C1953 1.433 . S
C1955 N1958 1.384 . S
C1956 H1947 0.929 . S
C1956 C1948 1.378 . S
C1956 C1951 1.350 . S
C1957 H1944 0.929 . S
C1957 C1949 1.433 . S
C1957 N1959 1.384 . S
N1958 C1954 1.427 . S
N1958 C1955 1.384 . S
N1959 C1951 1.427 . S
N1959 C1957 1.384 . S
H1960 C1966 0.930 . S
H1961 C1970 0.930 . S
H1962 C1975 0.929 . S
H1963 C1973 0.929 . S
H1964 C1968 0.929 . S
H1965 C1974 0.929 . S
C1966 H1960 0.930 . S
C1966 C1967 1.367 . S
C1966 C1974 1.378 . S
C1967 C1966 1.367 . S
C1967 C1975 1.433 . S
C1968 H1964 0.929 . S
C1968 C1970 1.378 . S
C1968 C1972 1.350 . S
C1969 C1972 1.463 . S
C1969 C1974 1.350 . S
C1969 N1977 1.427 . S
C1970 H1961 0.930 . S
C1970 C1968 1.378 . S
C1970 C1971 1.367 . S
C1971 C1970 1.367 . S
C1971 C1973 1.433 . S
C1972 C1968 1.350 . S
C1972 C1969 1.463 . S
C1972 N1976 1.427 . S
C1973 H1963 0.929 . S
C1973 C1971 1.433 . S
C1973 N1976 1.384 . S
C1974 H1965 0.929 . S
C1974 C1966 1.378 . S
C1974 C1969 1.350 . S
C1975 H1962 0.929 . S
C1975 C1967 1.433 . S
C1975 N1977 1.384 . S
N1976 C1972 1.427 . S
N1976 C1973 1.384 . S
N1977 C1969 1.427 . S
N1977 C1975 1.384 . S
H1978 C1984 0.930 . S
H1979 C1988 0.930 . S
H1980 C1993 0.929 . S
H1981 C1991 0.929 . S
H1982 C1986 0.929 . S
H1983 C1992 0.929 . S
C1984 H1978 0.930 . S
C1984 C1985 1.367 . S
C1984 C1992 1.378 . S
C1985 C1984 1.367 . S
C1985 C1993 1.433 . S
C1986 H1982 0.929 . S
C1986 C1988 1.378 . S
C1986 C1990 1.350 . S
C1987 C1990 1.463 . S
C1987 C1992 1.350 . S
C1987 N1995 1.427 . S
C1988 H1979 0.930 . S
C1988 C1986 1.378 . S
C1988 C1989 1.367 . S
C1989 C1988 1.367 . S
C1989 C1991 1.433 . S
C1990 C1986 1.350 . S
C1990 C1987 1.463 . S
C1990 N1994 1.427 . S
C1991 H1981 0.929 . S
C1991 C1989 1.433 . S
C1991 N1994 1.384 . S
C1992 H1983 0.929 . S
C1992 C1984 1.378 . S
C1992 C1987 1.350 . S
C1993 H1980 0.929 . S
C1993 C1985 1.433 . S
C1993 N1995 1.384 . S
N1994 C1990 1.427 . S
N1994 C1991 1.384 . S
N1995 C1987 1.427 . S
N1995 C1993 1.384 . S
H1996 C2002 0.930 . S
H1997 C2006 0.930 . S
H1998 C2011 0.929 . S
H1999 C2009 0.929 . S
H2000 C2004 0.929 . S
H2001 C2010 0.929 . S
C2002 H1996 0.930 . S
C2002 C2003 1.367 . S
C2002 C2010 1.378 . S
C2003 C2002 1.367 . S
C2003 C2011 1.433 . S
C2004 H2000 0.929 . S
C2004 C2006 1.378 . S
C2004 C2008 1.350 . S
C2005 C2008 1.463 . S
C2005 C2010 1.350 . S
C2005 N2013 1.427 . S
C2006 H1997 0.930 . S
C2006 C2004 1.378 . S
C2006 C2007 1.367 . S
C2007 C2006 1.367 . S
C2007 C2009 1.433 . S
C2008 C2004 1.350 . S
C2008 C2005 1.463 . S
C2008 N2012 1.427 . S
C2009 H1999 0.929 . S
C2009 C2007 1.433 . S
C2009 N2012 1.384 . S
C2010 H2001 0.929 . S
C2010 C2002 1.378 . S
C2010 C2005 1.350 . S
C2011 H1998 0.929 . S
C2011 C2003 1.433 . S
C2011 N2013 1.384 . S
N2012 C2008 1.427 . S
N2012 C2009 1.384 . S
N2013 C2005 1.427 . S
N2013 C2011 1.384 . S
H2014 C2020 0.930 . S
H2015 C2024 0.930 . S
H2016 C2029 0.929 . S
H2017 C2027 0.929 . S
H2018 C2022 0.929 . S
H2019 C2028 0.929 . S
C2020 H2014 0.930 . S
C2020 C2021 1.367 . S
C2020 C2028 1.378 . S
C2021 C2020 1.367 . S
C2021 C2029 1.433 . S
C2022 H2018 0.929 . S
C2022 C2024 1.378 . S
C2022 C2026 1.350 . S
C2023 C2026 1.463 . S
C2023 C2028 1.350 . S
C2023 N2031 1.427 . S
C2024 H2015 0.930 . S
C2024 C2022 1.378 . S
C2024 C2025 1.367 . S
C2025 C2024 1.367 . S
C2025 C2027 1.433 . S
C2026 C2022 1.350 . S
C2026 C2023 1.463 . S
C2026 N2030 1.427 . S
C2027 H2017 0.929 . S
C2027 C2025 1.433 . S
C2027 N2030 1.384 . S
C2028 H2019 0.929 . S
C2028 C2020 1.378 . S
C2028 C2023 1.350 . S
C2029 H2016 0.929 . S
C2029 C2021 1.433 . S
C2029 N2031 1.384 . S
N2030 C2026 1.427 . S
N2030 C2027 1.384 . S
N2031 C2023 1.427 . S
N2031 C2029 1.384 . S
H2032 C2038 0.930 . S
H2033 C2042 0.930 . S
H2034 C2047 0.929 . S
H2035 C2045 0.929 . S
H2036 C2040 0.929 . S
H2037 C2046 0.929 . S
C2038 H2032 0.930 . S
C2038 C2039 1.367 . S
C2038 C2046 1.378 . S
C2039 C2038 1.367 . S
C2039 C2047 1.433 . S
C2040 H2036 0.929 . S
C2040 C2042 1.378 . S
C2040 C2044 1.350 . S
C2041 C2044 1.463 . S
C2041 C2046 1.350 . S
C2041 N2049 1.427 . S
C2042 H2033 0.930 . S
C2042 C2040 1.378 . S
C2042 C2043 1.367 . S
C2043 C2042 1.367 . S
C2043 C2045 1.433 . S
C2044 C2040 1.350 . S
C2044 C2041 1.463 . S
C2044 N2048 1.427 . S
C2045 H2035 0.929 . S
C2045 C2043 1.433 . S
C2045 N2048 1.384 . S
C2046 H2037 0.929 . S
C2046 C2038 1.378 . S
C2046 C2041 1.350 . S
C2047 H2034 0.929 . S
C2047 C2039 1.433 . S
C2047 N2049 1.384 . S
N2048 C2044 1.427 . S
N2048 C2045 1.384 . S
N2049 C2041 1.427 . S
N2049 C2047 1.384 . S
H2050 C2056 0.930 . S
H2051 C2060 0.930 . S
H2052 C2065 0.929 . S
H2053 C2063 0.929 . S
H2054 C2058 0.929 . S
H2055 C2064 0.929 . S
C2056 H2050 0.930 . S
C2056 C2057 1.367 . S
C2056 C2064 1.378 . S
C2057 C2056 1.367 . S
C2057 C2065 1.433 . S
C2058 H2054 0.929 . S
C2058 C2060 1.378 . S
C2058 C2062 1.350 . S
C2059 C2062 1.463 . S
C2059 C2064 1.350 . S
C2059 N2067 1.427 . S
C2060 H2051 0.930 . S
C2060 C2058 1.378 . S
C2060 C2061 1.367 . S
C2061 C2060 1.367 . S
C2061 C2063 1.433 . S
C2062 C2058 1.350 . S
C2062 C2059 1.463 . S
C2062 N2066 1.427 . S
C2063 H2053 0.929 . S
C2063 C2061 1.433 . S
C2063 N2066 1.384 . S
C2064 H2055 0.929 . S
C2064 C2056 1.378 . S
C2064 C2059 1.350 . S
C2065 H2052 0.929 . S
C2065 C2057 1.433 . S
C2065 N2067 1.384 . S
N2066 C2062 1.427 . S
N2066 C2063 1.384 . S
N2067 C2059 1.427 . S
N2067 C2065 1.384 . S
H2068 C2074 0.930 . S
H2069 C2078 0.930 . S
H2070 C2083 0.929 . S
H2071 C2081 0.929 . S
H2072 C2076 0.929 . S
H2073 C2082 0.929 . S
C2074 H2068 0.930 . S
C2074 C2075 1.367 . S
C2074 C2082 1.378 . S
C2075 C2074 1.367 . S
C2075 C2083 1.433 . S
C2076 H2072 0.929 . S
C2076 C2078 1.378 . S
C2076 C2080 1.350 . S
C2077 C2080 1.463 . S
C2077 C2082 1.350 . S
C2077 N2085 1.427 . S
C2078 H2069 0.930 . S
C2078 C2076 1.378 . S
C2078 C2079 1.367 . S
C2079 C2078 1.367 . S
C2079 C2081 1.433 . S
C2080 C2076 1.350 . S
C2080 C2077 1.463 . S
C2080 N2084 1.427 . S
C2081 H2071 0.929 . S
C2081 C2079 1.433 . S
C2081 N2084 1.384 . S
C2082 H2073 0.929 . S
C2082 C2074 1.378 . S
C2082 C2077 1.350 . S
C2083 H2070 0.929 . S
C2083 C2075 1.433 . S
C2083 N2085 1.384 . S
N2084 C2080 1.427 . S
N2084 C2081 1.384 . S
N2085 C2077 1.427 . S
N2085 C2083 1.384 . S
H2086 C2092 0.930 . S
H2087 C2096 0.930 . S
H2088 C2101 0.929 . S
H2089 C2099 0.929 . S
H2090 C2094 0.929 . S
H2091 C2100 0.929 . S
C2092 H2086 0.930 . S
C2092 C2093 1.367 . S
C2092 C2100 1.378 . S
C2093 C2092 1.367 . S
C2093 C2101 1.433 . S
C2094 H2090 0.929 . S
C2094 C2096 1.378 . S
C2094 C2098 1.350 . S
C2095 C2098 1.463 . S
C2095 C2100 1.350 . S
C2095 N2103 1.427 . S
C2096 H2087 0.930 . S
C2096 C2094 1.378 . S
C2096 C2097 1.367 . S
C2097 C2096 1.367 . S
C2097 C2099 1.433 . S
C2098 C2094 1.350 . S
C2098 C2095 1.463 . S
C2098 N2102 1.427 . S
C2099 H2089 0.929 . S
C2099 C2097 1.433 . S
C2099 N2102 1.384 . S
C2100 H2091 0.929 . S
C2100 C2092 1.378 . S
C2100 C2095 1.350 . S
C2101 H2088 0.929 . S
C2101 C2093 1.433 . S
C2101 N2103 1.384 . S
N2102 C2098 1.427 . S
N2102 C2099 1.384 . S
N2103 C2095 1.427 . S
N2103 C2101 1.384 . S
H2104 C2110 0.930 . S
H2105 C2114 0.930 . S
H2106 C2119 0.929 . S
H2107 C2117 0.929 . S
H2108 C2112 0.929 . S
H2109 C2118 0.929 . S
C2110 H2104 0.930 . S
C2110 C2111 1.367 . S
C2110 C2118 1.378 . S
C2111 C2110 1.367 . S
C2111 C2119 1.433 . S
C2112 H2108 0.929 . S
C2112 C2114 1.378 . S
C2112 C2116 1.350 . S
C2113 C2116 1.463 . S
C2113 C2118 1.350 . S
C2113 N2121 1.427 . S
C2114 H2105 0.930 . S
C2114 C2112 1.378 . S
C2114 C2115 1.367 . S
C2115 C2114 1.367 . S
C2115 C2117 1.433 . S
C2116 C2112 1.350 . S
C2116 C2113 1.463 . S
C2116 N2120 1.427 . S
C2117 H2107 0.929 . S
C2117 C2115 1.433 . S
C2117 N2120 1.384 . S
C2118 H2109 0.929 . S
C2118 C2110 1.378 . S
C2118 C2113 1.350 . S
C2119 H2106 0.929 . S
C2119 C2111 1.433 . S
C2119 N2121 1.384 . S
N2120 C2116 1.427 . S
N2120 C2117 1.384 . S
N2121 C2113 1.427 . S
N2121 C2119 1.384 . S
H2122 C2128 0.930 . S
H2123 C2132 0.930 . S
H2124 C2137 0.929 . S
H2125 C2135 0.929 . S
H2126 C2130 0.929 . S
H2127 C2136 0.929 . S
C2128 H2122 0.930 . S
C2128 C2129 1.367 . S
C2128 C2136 1.378 . S
C2129 C2128 1.367 . S
C2129 C2137 1.433 . S
C2130 H2126 0.929 . S
C2130 C2132 1.378 . S
C2130 C2134 1.350 . S
C2131 C2134 1.463 . S
C2131 C2136 1.350 . S
C2131 N2139 1.427 . S
C2132 H2123 0.930 . S
C2132 C2130 1.378 . S
C2132 C2133 1.367 . S
C2133 C2132 1.367 . S
C2133 C2135 1.433 . S
C2134 C2130 1.350 . S
C2134 C2131 1.463 . S
C2134 N2138 1.427 . S
C2135 H2125 0.929 . S
C2135 C2133 1.433 . S
C2135 N2138 1.384 . S
C2136 H2127 0.929 . S
C2136 C2128 1.378 . S
C2136 C2131 1.350 . S
C2137 H2124 0.929 . S
C2137 C2129 1.433 . S
C2137 N2139 1.384 . S
N2138 C2134 1.427 . S
N2138 C2135 1.384 . S
N2139 C2131 1.427 . S
N2139 C2137 1.384 . S
H2140 C2146 0.930 . S
H2141 C2150 0.930 . S
H2142 C2155 0.929 . S
H2143 C2153 0.929 . S
H2144 C2148 0.929 . S
H2145 C2154 0.929 . S
C2146 H2140 0.930 . S
C2146 C2147 1.367 . S
C2146 C2154 1.378 . S
C2147 C2146 1.367 . S
C2147 C2155 1.433 . S
C2148 H2144 0.929 . S
C2148 C2150 1.378 . S
C2148 C2152 1.350 . S
C2149 C2152 1.463 . S
C2149 C2154 1.350 . S
C2149 N2157 1.427 . S
C2150 H2141 0.930 . S
C2150 C2148 1.378 . S
C2150 C2151 1.367 . S
C2151 C2150 1.367 . S
C2151 C2153 1.433 . S
C2152 C2148 1.350 . S
C2152 C2149 1.463 . S
C2152 N2156 1.427 . S
C2153 H2143 0.929 . S
C2153 C2151 1.433 . S
C2153 N2156 1.384 . S
C2154 H2145 0.929 . S
C2154 C2146 1.378 . S
C2154 C2149 1.350 . S
C2155 H2142 0.929 . S
C2155 C2147 1.433 . S
C2155 N2157 1.384 . S
N2156 C2152 1.427 . S
N2156 C2153 1.384 . S
N2157 C2149 1.427 . S
N2157 C2155 1.384 . S
H2158 C2164 0.924 1_556 S
H2159 C2168 0.930 . S
H2160 C2173 0.929 1_545 S
H2161 C2171 0.929 1_556 S
H2162 C2166 0.929 . S
H2163 C2172 0.929 1_556 S
C2164 H2158 0.924 1_554 S
C2164 C2165 1.367 . S
C2164 C2172 1.378 . S
C2165 C2164 1.367 . S
C2165 C2173 1.433 . S
C2166 H2162 0.929 . S
C2166 C2168 1.378 . S
C2166 C2170 1.350 1_545 S
C2167 C2170 1.463 . S
C2167 C2172 1.350 . S
C2167 N2175 1.427 1_565 S
C2168 H2159 0.930 . S
C2168 C2166 1.378 . S
C2168 C2169 1.367 . S
C2169 C2168 1.367 . S
C2169 C2171 1.433 1_545 S
C2170 C2166 1.350 1_565 S
C2170 C2167 1.463 . S
C2170 N2174 1.427 . S
C2171 H2161 0.929 1_554 S
C2171 C2169 1.433 1_565 S
C2171 N2174 1.384 . S
C2172 H2163 0.929 1_554 S
C2172 C2164 1.378 . S
C2172 C2167 1.350 . S
C2173 H2160 0.929 1_565 S
C2173 C2165 1.433 . S
C2173 N2175 1.384 1_565 S
N2174 C2170 1.427 . S
N2174 C2171 1.384 . S
N2175 C2167 1.427 1_545 S
N2175 C2173 1.384 1_545 S
H2176 C2182 0.930 . S
H2177 C2186 0.930 . S
H2178 C2191 0.929 . S
H2179 C2189 0.929 . S
H2180 C2184 0.929 . S
H2181 C2190 0.929 . S
C2182 H2176 0.930 . S
C2182 C2183 1.367 . S
C2182 C2190 1.378 . S
C2183 C2182 1.367 . S
C2183 C2191 1.433 . S
C2184 H2180 0.929 . S
C2184 C2186 1.378 . S
C2184 C2188 1.350 . S
C2185 C2188 1.463 . S
C2185 C2190 1.350 . S
C2185 N2193 1.427 . S
C2186 H2177 0.930 . S
C2186 C2184 1.378 . S
C2186 C2187 1.367 . S
C2187 C2186 1.367 . S
C2187 C2189 1.433 . S
C2188 C2184 1.350 . S
C2188 C2185 1.463 . S
C2188 N2192 1.427 . S
C2189 H2179 0.929 . S
C2189 C2187 1.433 . S
C2189 N2192 1.384 . S
C2190 H2181 0.929 . S
C2190 C2182 1.378 . S
C2190 C2185 1.350 . S
C2191 H2178 0.929 . S
C2191 C2183 1.433 . S
C2191 N2193 1.384 . S
N2192 C2188 1.427 . S
N2192 C2189 1.384 . S
N2193 C2185 1.427 . S
N2193 C2191 1.384 . S
H2194 C2200 0.930 . S
H2195 C2204 0.930 . S
H2196 C2209 0.931 . S
H2197 C2207 0.929 . S
H2198 C2202 0.929 . S
H2199 C2208 0.929 . S
C2200 H2194 0.930 . S
C2200 C2201 1.367 . S
C2200 C2208 1.378 . S
C2201 C2200 1.367 . S
C2201 C2209 1.433 . S
C2202 H2198 0.929 . S
C2202 C2204 1.378 . S
C2202 C2206 1.350 . S
C2203 C2206 1.463 . S
C2203 C2208 1.350 . S
C2203 N2211 1.427 . S
C2204 H2195 0.930 . S
C2204 C2202 1.378 . S
C2204 C2205 1.367 . S
C2205 C2204 1.367 . S
C2205 C2207 1.433 . S
C2206 C2202 1.350 . S
C2206 C2203 1.463 . S
C2206 N2210 1.427 . S
C2207 H2197 0.929 . S
C2207 C2205 1.433 . S
C2207 N2210 1.384 . S
C2208 H2199 0.929 . S
C2208 C2200 1.378 . S
C2208 C2203 1.350 . S
C2209 H2196 0.931 . S
C2209 C2201 1.433 . S
C2209 N2211 1.384 . S
N2210 C2206 1.427 . S
N2210 C2207 1.384 . S
N2211 C2203 1.427 . S
N2211 C2209 1.384 . S
H2212 C2218 0.930 . S
H2213 C2222 0.930 . S
H2214 C2227 0.929 . S
H2215 C2225 0.929 . S
H2216 C2220 0.929 . S
H2217 C2226 0.929 . S
C2218 H2212 0.930 . S
C2218 C2219 1.367 . S
C2218 C2226 1.378 . S
C2219 C2218 1.367 . S
C2219 C2227 1.433 . S
C2220 H2216 0.929 . S
C2220 C2222 1.378 . S
C2220 C2224 1.350 . S
C2221 C2224 1.463 . S
C2221 C2226 1.350 . S
C2221 N2229 1.427 . S
C2222 H2213 0.930 . S
C2222 C2220 1.378 . S
C2222 C2223 1.367 . S
C2223 C2222 1.367 . S
C2223 C2225 1.433 . S
C2224 C2220 1.350 . S
C2224 C2221 1.463 . S
C2224 N2228 1.427 . S
C2225 H2215 0.929 . S
C2225 C2223 1.433 . S
C2225 N2228 1.384 . S
C2226 H2217 0.929 . S
C2226 C2218 1.378 . S
C2226 C2221 1.350 . S
C2227 H2214 0.929 . S
C2227 C2219 1.433 . S
C2227 N2229 1.384 . S
N2228 C2224 1.427 . S
N2228 C2225 1.384 . S
N2229 C2221 1.427 . S
N2229 C2227 1.384 . S
H2230 C2236 0.930 . S
H2231 C2240 0.930 . S
H2232 C2245 0.929 . S
H2233 C2243 0.929 . S
H2234 C2238 0.929 . S
H2235 C2244 0.929 . S
C2236 H2230 0.930 . S
C2236 C2237 1.367 . S
C2236 C2244 1.378 . S
C2237 C2236 1.367 . S
C2237 C2245 1.433 . S
C2238 H2234 0.929 . S
C2238 C2240 1.378 . S
C2238 C2242 1.350 . S
C2239 C2242 1.463 . S
C2239 C2244 1.350 . S
C2239 N2247 1.427 . S
C2240 H2231 0.930 . S
C2240 C2238 1.378 . S
C2240 C2241 1.367 . S
C2241 C2240 1.367 . S
C2241 C2243 1.433 . S
C2242 C2238 1.350 . S
C2242 C2239 1.463 . S
C2242 N2246 1.427 . S
C2243 H2233 0.929 . S
C2243 C2241 1.433 . S
C2243 N2246 1.384 . S
C2244 H2235 0.929 . S
C2244 C2236 1.378 . S
C2244 C2239 1.350 . S
C2245 H2232 0.929 . S
C2245 C2237 1.433 . S
C2245 N2247 1.384 . S
N2246 C2242 1.427 . S
N2246 C2243 1.384 . S
N2247 C2239 1.427 . S
N2247 C2245 1.384 . S
H2248 C2254 0.930 . S
H2249 C2258 0.930 . S
H2250 C2263 0.929 . S
H2251 C2261 0.929 . S
H2252 C2256 0.929 . S
H2253 C2262 0.929 . S
C2254 H2248 0.930 . S
C2254 C2255 1.367 . S
C2254 C2262 1.378 . S
C2255 C2254 1.367 . S
C2255 C2263 1.433 . S
C2256 H2252 0.929 . S
C2256 C2258 1.378 . S
C2256 C2260 1.350 . S
C2257 C2260 1.463 . S
C2257 C2262 1.350 . S
C2257 N2265 1.427 . S
C2258 H2249 0.930 . S
C2258 C2256 1.378 . S
C2258 C2259 1.367 . S
C2259 C2258 1.367 . S
C2259 C2261 1.433 . S
C2260 C2256 1.350 . S
C2260 C2257 1.463 . S
C2260 N2264 1.427 . S
C2261 H2251 0.929 . S
C2261 C2259 1.433 . S
C2261 N2264 1.384 . S
C2262 H2253 0.929 . S
C2262 C2254 1.378 . S
C2262 C2257 1.350 . S
C2263 H2250 0.929 . S
C2263 C2255 1.433 . S
C2263 N2265 1.384 . S
N2264 C2260 1.427 . S
N2264 C2261 1.384 . S
N2265 C2257 1.427 . S
N2265 C2263 1.384 . S
H2266 C2272 0.930 . S
H2267 C2276 0.930 . S
H2268 C2281 0.929 . S
H2269 C2279 0.929 . S
H2270 C2274 0.929 . S
H2271 C2280 0.929 . S
C2272 H2266 0.930 . S
C2272 C2273 1.367 . S
C2272 C2280 1.378 . S
C2273 C2272 1.367 . S
C2273 C2281 1.433 . S
C2274 H2270 0.929 . S
C2274 C2276 1.378 . S
C2274 C2278 1.350 . S
C2275 C2278 1.463 . S
C2275 C2280 1.350 . S
C2275 N2283 1.427 . S
C2276 H2267 0.930 . S
C2276 C2274 1.378 . S
C2276 C2277 1.367 . S
C2277 C2276 1.367 . S
C2277 C2279 1.433 . S
C2278 C2274 1.350 . S
C2278 C2275 1.463 . S
C2278 N2282 1.427 . S
C2279 H2269 0.929 . S
C2279 C2277 1.433 . S
C2279 N2282 1.384 . S
C2280 H2271 0.929 . S
C2280 C2272 1.378 . S
C2280 C2275 1.350 . S
C2281 H2268 0.929 . S
C2281 C2273 1.433 . S
C2281 N2283 1.384 . S
N2282 C2278 1.427 . S
N2282 C2279 1.384 . S
N2283 C2275 1.427 . S
N2283 C2281 1.384 . S
H2284 C2290 0.930 . S
H2285 C2294 0.930 1_556 S
H2286 C2299 0.929 . S
H2287 C2297 0.929 . S
H2288 C2292 0.929 . S
H2289 C2298 0.929 . S
C2290 H2284 0.930 . S
C2290 C2291 1.367 . S
C2290 C2298 1.378 . S
C2291 C2290 1.367 . S
C2291 C2299 1.433 . S
C2292 H2288 0.929 . S
C2292 C2294 1.378 . S
C2292 C2296 1.350 . S
C2293 C2296 1.463 . S
C2293 C2298 1.350 . S
C2293 N2301 1.427 . S
C2294 H2285 0.930 1_554 S
C2294 C2292 1.378 . S
C2294 C2295 1.367 . S
C2295 C2294 1.367 . S
C2295 C2297 1.433 . S
C2296 C2292 1.350 . S
C2296 C2293 1.463 . S
C2296 N2300 1.427 . S
C2297 H2287 0.929 . S
C2297 C2295 1.433 . S
C2297 N2300 1.384 . S
C2298 H2289 0.929 . S
C2298 C2290 1.378 . S
C2298 C2293 1.350 . S
C2299 H2286 0.929 . S
C2299 C2291 1.433 . S
C2299 N2301 1.384 . S
N2300 C2296 1.427 . S
N2300 C2297 1.384 . S
N2301 C2293 1.427 . S
N2301 C2299 1.384 . S
H2302 C2308 0.930 . S
H2303 C2312 0.930 . S
H2304 C2317 0.929 . S
H2305 C2315 0.929 . S
H2306 C2310 0.929 . S
H2307 C2316 0.929 . S
C2308 H2302 0.930 . S
C2308 C2309 1.367 . S
C2308 C2316 1.378 . S
C2309 C2308 1.367 . S
C2309 C2317 1.433 . S
C2310 H2306 0.929 . S
C2310 C2312 1.378 . S
C2310 C2314 1.350 . S
C2311 C2314 1.463 . S
C2311 C2316 1.350 . S
C2311 N2319 1.427 . S
C2312 H2303 0.930 . S
C2312 C2310 1.378 . S
C2312 C2313 1.367 . S
C2313 C2312 1.367 . S
C2313 C2315 1.433 . S
C2314 C2310 1.350 . S
C2314 C2311 1.463 . S
C2314 N2318 1.427 . S
C2315 H2305 0.929 . S
C2315 C2313 1.433 . S
C2315 N2318 1.384 . S
C2316 H2307 0.929 . S
C2316 C2308 1.378 . S
C2316 C2311 1.350 . S
C2317 H2304 0.929 . S
C2317 C2309 1.433 . S
C2317 N2319 1.384 . S
N2318 C2314 1.427 . S
N2318 C2315 1.384 . S
N2319 C2311 1.427 . S
N2319 C2317 1.384 . S
H2320 C2326 0.930 . S
H2321 C2330 0.930 . S
H2322 C2335 0.929 . S
H2323 C2333 0.929 . S
H2324 C2328 0.929 . S
H2325 C2334 0.929 . S
C2326 H2320 0.930 . S
C2326 C2327 1.367 . S
C2326 C2334 1.378 . S
C2327 C2326 1.367 . S
C2327 C2335 1.433 . S
C2328 H2324 0.929 . S
C2328 C2330 1.378 . S
C2328 C2332 1.350 . S
C2329 C2332 1.463 . S
C2329 C2334 1.350 . S
C2329 N2337 1.427 . S
C2330 H2321 0.930 . S
C2330 C2328 1.378 . S
C2330 C2331 1.367 . S
C2331 C2330 1.367 . S
C2331 C2333 1.433 . S
C2332 C2328 1.350 . S
C2332 C2329 1.463 . S
C2332 N2336 1.427 . S
C2333 H2323 0.929 . S
C2333 C2331 1.433 . S
C2333 N2336 1.384 . S
C2334 H2325 0.929 . S
C2334 C2326 1.378 . S
C2334 C2329 1.350 . S
C2335 H2322 0.929 . S
C2335 C2327 1.433 . S
C2335 N2337 1.384 . S
N2336 C2332 1.427 . S
N2336 C2333 1.384 . S
N2337 C2329 1.427 . S
N2337 C2335 1.384 . S
H2338 C2344 0.930 . S
H2339 C2348 0.930 . S
H2340 C2353 0.929 . S
H2341 C2351 0.929 . S
H2342 C2346 0.929 . S
H2343 C2352 0.929 . S
C2344 H2338 0.930 . S
C2344 C2345 1.367 . S
C2344 C2352 1.378 . S
C2345 C2344 1.367 . S
C2345 C2353 1.433 . S
C2346 H2342 0.929 . S
C2346 C2348 1.378 . S
C2346 C2350 1.350 . S
C2347 C2350 1.463 . S
C2347 C2352 1.350 . S
C2347 N2355 1.427 . S
C2348 H2339 0.930 . S
C2348 C2346 1.378 . S
C2348 C2349 1.367 . S
C2349 C2348 1.367 . S
C2349 C2351 1.433 . S
C2350 C2346 1.350 . S
C2350 C2347 1.463 . S
C2350 N2354 1.427 . S
C2351 H2341 0.929 . S
C2351 C2349 1.433 . S
C2351 N2354 1.384 . S
C2352 H2343 0.929 . S
C2352 C2344 1.378 . S
C2352 C2347 1.350 . S
C2353 H2340 0.929 . S
C2353 C2345 1.433 . S
C2353 N2355 1.384 . S
N2354 C2350 1.427 . S
N2354 C2351 1.384 . S
N2355 C2347 1.427 . S
N2355 C2353 1.384 . S
H2356 C2362 0.930 . S
H2357 C2366 0.930 . S
H2358 C2371 0.929 . S
H2359 C2369 0.929 . S
H2360 C2364 0.929 . S
H2361 C2370 0.929 . S
C2362 H2356 0.930 . S
C2362 C2363 1.367 . S
C2362 C2370 1.378 . S
C2363 C2362 1.367 . S
C2363 C2371 1.433 . S
C2364 H2360 0.929 . S
C2364 C2366 1.378 . S
C2364 C2368 1.350 . S
C2365 C2368 1.463 . S
C2365 C2370 1.350 . S
C2365 N2373 1.427 . S
C2366 H2357 0.930 . S
C2366 C2364 1.378 . S
C2366 C2367 1.367 . S
C2367 C2366 1.367 . S
C2367 C2369 1.433 . S
C2368 C2364 1.350 . S
C2368 C2365 1.463 . S
C2368 N2372 1.427 . S
C2369 H2359 0.929 . S
C2369 C2367 1.433 . S
C2369 N2372 1.384 . S
C2370 H2361 0.929 . S
C2370 C2362 1.378 . S
C2370 C2365 1.350 . S
C2371 H2358 0.929 . S
C2371 C2363 1.433 . S
C2371 N2373 1.384 . S
N2372 C2368 1.427 . S
N2372 C2369 1.384 . S
N2373 C2365 1.427 . S
N2373 C2371 1.384 . S
H2374 C2380 0.930 . S
H2375 C2384 0.930 . S
H2376 C2389 0.929 . S
H2377 C2387 0.929 . S
H2378 C2382 0.929 . S
H2379 C2388 0.929 . S
C2380 H2374 0.930 . S
C2380 C2381 1.367 . S
C2380 C2388 1.378 . S
C2381 C2380 1.367 . S
C2381 C2389 1.433 . S
C2382 H2378 0.929 . S
C2382 C2384 1.378 . S
C2382 C2386 1.350 . S
C2383 C2386 1.463 . S
C2383 C2388 1.350 . S
C2383 N2391 1.427 . S
C2384 H2375 0.930 . S
C2384 C2382 1.378 . S
C2384 C2385 1.367 . S
C2385 C2384 1.367 . S
C2385 C2387 1.433 . S
C2386 C2382 1.350 . S
C2386 C2383 1.463 . S
C2386 N2390 1.427 . S
C2387 H2377 0.929 . S
C2387 C2385 1.433 . S
C2387 N2390 1.384 . S
C2388 H2379 0.929 . S
C2388 C2380 1.378 . S
C2388 C2383 1.350 . S
C2389 H2376 0.929 . S
C2389 C2381 1.433 . S
C2389 N2391 1.384 . S
N2390 C2386 1.427 . S
N2390 C2387 1.384 . S
N2391 C2383 1.427 . S
N2391 C2389 1.384 . S
H2392 C2398 0.930 . S
H2393 C2402 0.930 . S
H2394 C2407 0.929 . S
H2395 C2405 0.929 . S
H2396 C2400 0.929 . S
H2397 C2406 0.929 . S
C2398 H2392 0.930 . S
C2398 C2399 1.367 . S
C2398 C2406 1.378 . S
C2399 C2398 1.367 . S
C2399 C2407 1.433 . S
C2400 H2396 0.929 . S
C2400 C2402 1.378 . S
C2400 C2404 1.350 . S
C2401 C2404 1.463 . S
C2401 C2406 1.350 . S
C2401 N2409 1.427 . S
C2402 H2393 0.930 . S
C2402 C2400 1.378 . S
C2402 C2403 1.367 . S
C2403 C2402 1.367 . S
C2403 C2405 1.433 . S
C2404 C2400 1.350 . S
C2404 C2401 1.463 . S
C2404 N2408 1.427 . S
C2405 H2395 0.929 . S
C2405 C2403 1.433 . S
C2405 N2408 1.384 . S
C2406 H2397 0.929 . S
C2406 C2398 1.378 . S
C2406 C2401 1.350 . S
C2407 H2394 0.929 . S
C2407 C2399 1.433 . S
C2407 N2409 1.384 . S
N2408 C2404 1.427 . S
N2408 C2405 1.384 . S
N2409 C2401 1.427 . S
N2409 C2407 1.384 . S
H2410 C2416 0.930 . S
H2411 C2420 0.930 . S
H2412 C2425 0.929 . S
H2413 C2423 0.929 . S
H2414 C2418 0.929 . S
H2415 C2424 0.929 . S
C2416 H2410 0.930 . S
C2416 C2417 1.367 . S
C2416 C2424 1.378 . S
C2417 C2416 1.367 . S
C2417 C2425 1.433 . S
C2418 H2414 0.929 . S
C2418 C2420 1.378 . S
C2418 C2422 1.350 . S
C2419 C2422 1.463 . S
C2419 C2424 1.350 . S
C2419 N2427 1.427 . S
C2420 H2411 0.930 . S
C2420 C2418 1.378 . S
C2420 C2421 1.367 . S
C2421 C2420 1.367 . S
C2421 C2423 1.433 . S
C2422 C2418 1.350 . S
C2422 C2419 1.463 . S
C2422 N2426 1.427 . S
C2423 H2413 0.929 . S
C2423 C2421 1.433 . S
C2423 N2426 1.384 . S
C2424 H2415 0.929 . S
C2424 C2416 1.378 . S
C2424 C2419 1.350 . S
C2425 H2412 0.929 . S
C2425 C2417 1.433 . S
C2425 N2427 1.384 . S
N2426 C2422 1.427 . S
N2426 C2423 1.384 . S
N2427 C2419 1.427 . S
N2427 C2425 1.384 . S
H2428 C2434 0.930 . S
H2429 C2438 0.930 . S
H2430 C2443 0.929 . S
H2431 C2441 0.929 1_655 S
H2432 C2436 0.929 . S
H2433 C2442 0.929 . S
C2434 H2428 0.930 . S
C2434 C2435 1.367 . S
C2434 C2442 1.378 . S
C2435 C2434 1.367 . S
C2435 C2443 1.433 . S
C2436 H2432 0.929 . S
C2436 C2438 1.378 . S
C2436 C2440 1.361 . S
C2437 C2440 1.457 1_655 S
C2437 C2442 1.350 . S
C2437 N2445 1.427 . S
C2438 H2429 0.930 . S
C2438 C2436 1.378 . S
C2438 C2439 1.367 . S
C2439 C2438 1.367 . S
C2439 C2441 1.433 . S
C2440 C2436 1.361 . S
C2440 C2437 1.457 1_455 S
C2440 N2444 1.421 1_455 S
C2441 H2431 0.929 1_455 S
C2441 C2439 1.433 . S
C2441 N2444 1.384 1_455 S
C2442 H2433 0.929 . S
C2442 C2434 1.378 . S
C2442 C2437 1.350 . S
C2443 H2430 0.929 . S
C2443 C2435 1.433 . S
C2443 N2445 1.384 . S
N2444 C2440 1.421 1_655 S
N2444 C2441 1.384 1_655 S
N2445 C2437 1.427 . S
N2445 C2443 1.384 . S
H2446 C2452 0.930 . S
H2447 C2456 0.930 . S
H2448 C2461 0.929 . S
H2449 C2459 0.929 . S
H2450 C2454 0.929 . S
H2451 C2460 0.929 . S
C2452 H2446 0.930 . S
C2452 C2453 1.367 . S
C2452 C2460 1.378 . S
C2453 C2452 1.367 . S
C2453 C2461 1.433 . S
C2454 H2450 0.929 . S
C2454 C2456 1.378 . S
C2454 C2458 1.350 . S
C2455 C2458 1.463 . S
C2455 C2460 1.350 . S
C2455 N2463 1.427 . S
C2456 H2447 0.930 . S
C2456 C2454 1.378 . S
C2456 C2457 1.367 . S
C2457 C2456 1.367 . S
C2457 C2459 1.433 . S
C2458 C2454 1.350 . S
C2458 C2455 1.463 . S
C2458 N2462 1.427 . S
C2459 H2449 0.929 . S
C2459 C2457 1.433 . S
C2459 N2462 1.384 . S
C2460 H2451 0.929 . S
C2460 C2452 1.378 . S
C2460 C2455 1.350 . S
C2461 H2448 0.929 . S
C2461 C2453 1.433 . S
C2461 N2463 1.384 . S
N2462 C2458 1.427 . S
N2462 C2459 1.384 . S
N2463 C2455 1.427 . S
N2463 C2461 1.384 . S
H2464 C2470 0.930 . S
H2465 C2474 0.930 . S
H2466 C2479 0.929 . S
H2467 C2477 0.929 . S
H2468 C2472 0.929 . S
H2469 C2478 0.929 . S
C2470 H2464 0.930 . S
C2470 C2471 1.367 . S
C2470 C2478 1.378 . S
C2471 C2470 1.367 . S
C2471 C2479 1.433 . S
C2472 H2468 0.929 . S
C2472 C2474 1.378 . S
C2472 C2476 1.350 . S
C2473 C2476 1.463 . S
C2473 C2478 1.350 . S
C2473 N2481 1.427 . S
C2474 H2465 0.930 . S
C2474 C2472 1.378 . S
C2474 C2475 1.367 . S
C2475 C2474 1.367 . S
C2475 C2477 1.433 . S
C2476 C2472 1.350 . S
C2476 C2473 1.463 . S
C2476 N2480 1.427 . S
C2477 H2467 0.929 . S
C2477 C2475 1.433 . S
C2477 N2480 1.384 . S
C2478 H2469 0.929 . S
C2478 C2470 1.378 . S
C2478 C2473 1.350 . S
C2479 H2466 0.929 . S
C2479 C2471 1.433 . S
C2479 N2481 1.384 . S
N2480 C2476 1.427 . S
N2480 C2477 1.384 . S
N2481 C2473 1.427 . S
N2481 C2479 1.384 . S
H2482 C2488 0.930 . S
H2483 C2492 0.930 . S
H2484 C2497 0.929 . S
H2485 C2495 0.929 . S
H2486 C2490 0.929 . S
H2487 C2496 0.929 . S
C2488 H2482 0.930 . S
C2488 C2489 1.367 . S
C2488 C2496 1.378 . S
C2489 C2488 1.367 . S
C2489 C2497 1.433 . S
C2490 H2486 0.929 . S
C2490 C2492 1.378 . S
C2490 C2494 1.350 . S
C2491 C2494 1.463 . S
C2491 C2496 1.350 . S
C2491 N2499 1.427 . S
C2492 H2483 0.930 . S
C2492 C2490 1.378 . S
C2492 C2493 1.367 . S
C2493 C2492 1.367 . S
C2493 C2495 1.433 . S
C2494 C2490 1.350 . S
C2494 C2491 1.463 . S
C2494 N2498 1.427 . S
C2495 H2485 0.929 . S
C2495 C2493 1.433 . S
C2495 N2498 1.384 . S
C2496 H2487 0.929 . S
C2496 C2488 1.378 . S
C2496 C2491 1.350 . S
C2497 H2484 0.929 . S
C2497 C2489 1.433 . S
C2497 N2499 1.384 . S
N2498 C2494 1.427 . S
N2498 C2495 1.384 . S
N2499 C2491 1.427 . S
N2499 C2497 1.384 . S
H2500 C2506 0.930 . S
H2501 C2510 0.930 . S
H2502 C2515 0.929 . S
H2503 C2513 0.929 . S
H2504 C2508 0.929 1_455 S
H2505 C2514 0.929 . S
C2506 H2500 0.930 . S
C2506 C2507 1.367 . S
C2506 C2514 1.378 . S
C2507 C2506 1.367 . S
C2507 C2515 1.433 . S
C2508 H2504 0.929 1_655 S
C2508 C2510 1.378 1_655 S
C2508 C2512 1.350 . S
C2509 C2512 1.463 . S
C2509 C2514 1.350 . S
C2509 N2517 1.427 . S
C2510 H2501 0.930 . S
C2510 C2508 1.378 1_455 S
C2510 C2511 1.367 1_455 S
C2511 C2510 1.367 1_655 S
C2511 C2513 1.433 . S
C2512 C2508 1.350 . S
C2512 C2509 1.463 . S
C2512 N2516 1.427 . S
C2513 H2503 0.929 . S
C2513 C2511 1.433 . S
C2513 N2516 1.384 . S
C2514 H2505 0.929 . S
C2514 C2506 1.378 . S
C2514 C2509 1.350 . S
C2515 H2502 0.929 . S
C2515 C2507 1.433 . S
C2515 N2517 1.384 . S
N2516 C2512 1.427 . S
N2516 C2513 1.384 . S
N2517 C2509 1.427 . S
N2517 C2515 1.384 . S
H2518 C2524 0.930 . S
H2519 C2528 0.930 . S
H2520 C2533 0.929 . S
H2521 C2531 0.929 . S
H2522 C2526 0.929 . S
H2523 C2532 0.929 . S
C2524 H2518 0.930 . S
C2524 C2525 1.367 . S
C2524 C2532 1.378 . S
C2525 C2524 1.367 . S
C2525 C2533 1.433 . S
C2526 H2522 0.929 . S
C2526 C2528 1.378 . S
C2526 C2530 1.350 . S
C2527 C2530 1.463 . S
C2527 C2532 1.350 . S
C2527 N2535 1.427 . S
C2528 H2519 0.930 . S
C2528 C2526 1.378 . S
C2528 C2529 1.367 . S
C2529 C2528 1.367 . S
C2529 C2531 1.433 . S
C2530 C2526 1.350 . S
C2530 C2527 1.463 . S
C2530 N2534 1.427 . S
C2531 H2521 0.929 . S
C2531 C2529 1.433 . S
C2531 N2534 1.384 . S
C2532 H2523 0.929 . S
C2532 C2524 1.378 . S
C2532 C2527 1.350 . S
C2533 H2520 0.929 . S
C2533 C2525 1.433 . S
C2533 N2535 1.384 . S
N2534 C2530 1.427 . S
N2534 C2531 1.384 . S
N2535 C2527 1.427 . S
N2535 C2533 1.384 . S
H2536 C2542 0.930 . S
H2537 C2546 0.930 . S
H2538 C2551 0.929 . S
H2539 C2549 0.929 . S
H2540 C2544 0.929 . S
H2541 C2550 0.929 . S
C2542 H2536 0.930 . S
C2542 C2543 1.367 . S
C2542 C2550 1.378 . S
C2543 C2542 1.367 . S
C2543 C2551 1.433 . S
C2544 H2540 0.929 . S
C2544 C2546 1.378 . S
C2544 C2548 1.350 . S
C2545 C2548 1.463 . S
C2545 C2550 1.350 . S
C2545 N2553 1.427 . S
C2546 H2537 0.930 . S
C2546 C2544 1.378 . S
C2546 C2547 1.367 . S
C2547 C2546 1.367 . S
C2547 C2549 1.433 . S
C2548 C2544 1.350 . S
C2548 C2545 1.463 . S
C2548 N2552 1.427 . S
C2549 H2539 0.929 . S
C2549 C2547 1.433 . S
C2549 N2552 1.384 . S
C2550 H2541 0.929 . S
C2550 C2542 1.378 . S
C2550 C2545 1.350 . S
C2551 H2538 0.929 . S
C2551 C2543 1.433 . S
C2551 N2553 1.384 . S
N2552 C2548 1.427 . S
N2552 C2549 1.384 . S
N2553 C2545 1.427 . S
N2553 C2551 1.384 . S
H2554 C2560 0.930 . S
H2555 C2564 0.930 . S
H2556 C2569 0.929 . S
H2557 C2567 0.929 . S
H2558 C2562 0.929 1_545 S
H2559 C2568 0.929 . S
C2560 H2554 0.930 . S
C2560 C2561 1.367 . S
C2560 C2568 1.378 . S
C2561 C2560 1.367 . S
C2561 C2569 1.433 . S
C2562 H2558 0.929 1_565 S
C2562 C2564 1.378 1_565 S
C2562 C2566 1.350 . S
C2563 C2566 1.463 . S
C2563 C2568 1.350 . S
C2563 N2571 1.427 . S
C2564 H2555 0.930 . S
C2564 C2562 1.378 1_545 S
C2564 C2565 1.367 . S
C2565 C2564 1.367 . S
C2565 C2567 1.433 1_545 S
C2566 C2562 1.350 . S
C2566 C2563 1.463 . S
C2566 N2570 1.427 . S
C2567 H2557 0.929 . S
C2567 C2565 1.433 1_565 S
C2567 N2570 1.384 . S
C2568 H2559 0.929 . S
C2568 C2560 1.378 . S
C2568 C2563 1.350 . S
C2569 H2556 0.929 . S
C2569 C2561 1.433 . S
C2569 N2571 1.384 . S
N2570 C2566 1.427 . S
N2570 C2567 1.384 . S
N2571 C2563 1.427 . S
N2571 C2569 1.384 . S
H2572 C2578 0.930 . S
H2573 C2582 0.930 . S
H2574 C2587 0.929 . S
H2575 C2585 0.929 . S
H2576 C2580 0.929 . S
H2577 C2586 0.929 . S
C2578 H2572 0.930 . S
C2578 C2579 1.367 . S
C2578 C2586 1.378 . S
C2579 C2578 1.367 . S
C2579 C2587 1.433 . S
C2580 H2576 0.929 . S
C2580 C2582 1.378 . S
C2580 C2584 1.350 . S
C2581 C2584 1.463 . S
C2581 C2586 1.350 . S
C2581 N2589 1.427 . S
C2582 H2573 0.930 . S
C2582 C2580 1.378 . S
C2582 C2583 1.367 . S
C2583 C2582 1.367 . S
C2583 C2585 1.433 . S
C2584 C2580 1.350 . S
C2584 C2581 1.463 . S
C2584 N2588 1.427 . S
C2585 H2575 0.929 . S
C2585 C2583 1.433 . S
C2585 N2588 1.384 . S
C2586 H2577 0.929 . S
C2586 C2578 1.378 . S
C2586 C2581 1.350 . S
C2587 H2574 0.929 . S
C2587 C2579 1.433 . S
C2587 N2589 1.384 . S
N2588 C2584 1.427 . S
N2588 C2585 1.384 . S
N2589 C2581 1.427 . S
N2589 C2587 1.384 . S
H2590 C2596 0.930 . S
H2591 C2600 0.930 . S
H2592 C2605 0.929 . S
H2593 C2603 0.929 . S
H2594 C2598 0.929 . S
H2595 C2604 0.929 . S
C2596 H2590 0.930 . S
C2596 C2597 1.367 . S
C2596 C2604 1.378 . S
C2597 C2596 1.367 . S
C2597 C2605 1.433 1_554 S
C2598 H2594 0.929 . S
C2598 C2600 1.378 . S
C2598 C2602 1.350 1_556 S
C2599 C2602 1.463 . S
C2599 C2604 1.350 . S
C2599 N2607 1.427 1_554 S
C2600 H2591 0.930 . S
C2600 C2598 1.378 . S
C2600 C2601 1.367 1_556 S
C2601 C2600 1.367 1_554 S
C2601 C2603 1.433 . S
C2602 C2598 1.350 1_554 S
C2602 C2599 1.463 . S
C2602 N2606 1.427 . S
C2603 H2593 0.929 . S
C2603 C2601 1.433 . S
C2603 N2606 1.384 . S
C2604 H2595 0.929 . S
C2604 C2596 1.378 . S
C2604 C2599 1.350 . S
C2605 H2592 0.929 . S
C2605 C2597 1.433 1_556 S
C2605 N2607 1.384 . S
N2606 C2602 1.427 . S
N2606 C2603 1.384 . S
N2607 C2599 1.427 1_556 S
N2607 C2605 1.384 . S
H2608 C2614 0.930 . S
H2609 C2618 0.930 . S
H2610 C2623 0.929 . S
H2611 C2621 0.929 . S
H2612 C2616 0.929 . S
H2613 C2622 0.929 . S
C2614 H2608 0.930 . S
C2614 C2615 1.367 . S
C2614 C2622 1.378 . S
C2615 C2614 1.367 . S
C2615 C2623 1.433 . S
C2616 H2612 0.929 . S
C2616 C2618 1.378 . S
C2616 C2620 1.350 . S
C2617 C2620 1.463 . S
C2617 C2622 1.350 . S
C2617 N2625 1.427 . S
C2618 H2609 0.930 . S
C2618 C2616 1.378 . S
C2618 C2619 1.367 . S
C2619 C2618 1.367 . S
C2619 C2621 1.433 . S
C2620 C2616 1.350 . S
C2620 C2617 1.463 . S
C2620 N2624 1.427 . S
C2621 H2611 0.929 . S
C2621 C2619 1.433 . S
C2621 N2624 1.384 . S
C2622 H2613 0.929 . S
C2622 C2614 1.378 . S
C2622 C2617 1.350 . S
C2623 H2610 0.929 . S
C2623 C2615 1.433 . S
C2623 N2625 1.384 . S
N2624 C2620 1.427 . S
N2624 C2621 1.384 . S
N2625 C2617 1.427 . S
N2625 C2623 1.384 . S
H2626 C2632 0.931 1_556 S
H2627 C2636 0.930 . S
H2628 C2641 0.929 . S
H2629 C2639 0.929 . S
H2630 C2634 0.929 1_554 S
H2631 C2640 0.929 . S
C2632 H2626 0.931 1_554 S
C2632 C2633 1.384 . S
C2632 C2640 1.363 1_554 S
C2633 C2632 1.384 . S
C2633 C2641 1.433 . S
C2634 H2630 0.929 1_556 S
C2634 C2636 1.378 . S
C2634 C2638 1.350 . S
C2635 C2638 1.463 . S
C2635 C2640 1.350 . S
C2635 N2643 1.427 1_556 S
C2636 H2627 0.930 . S
C2636 C2634 1.378 . S
C2636 C2637 1.367 . S
C2637 C2636 1.367 . S
C2637 C2639 1.433 . S
C2638 C2634 1.350 . S
C2638 C2635 1.463 . S
C2638 N2642 1.427 . S
C2639 H2629 0.929 . S
C2639 C2637 1.433 . S
C2639 N2642 1.384 . S
C2640 H2631 0.929 . S
C2640 C2632 1.363 1_556 S
C2640 C2635 1.350 . S
C2641 H2628 0.929 . S
C2641 C2633 1.433 . S
C2641 N2643 1.384 . S
N2642 C2638 1.427 . S
N2642 C2639 1.384 . S
N2643 C2635 1.427 1_554 S
N2643 C2641 1.384 . S
H2644 C2650 0.930 . S
H2645 C2654 0.930 . S
H2646 C2659 0.929 . S
H2647 C2657 0.929 . S
H2648 C2652 0.929 . S
H2649 C2658 0.929 . S
C2650 H2644 0.930 . S
C2650 C2651 1.367 . S
C2650 C2658 1.378 . S
C2651 C2650 1.367 . S
C2651 C2659 1.433 . S
C2652 H2648 0.929 . S
C2652 C2654 1.378 . S
C2652 C2656 1.350 . S
C2653 C2656 1.463 . S
C2653 C2658 1.350 . S
C2653 N2661 1.427 . S
C2654 H2645 0.930 . S
C2654 C2652 1.378 . S
C2654 C2655 1.367 . S
C2655 C2654 1.367 . S
C2655 C2657 1.433 . S
C2656 C2652 1.350 . S
C2656 C2653 1.463 . S
C2656 N2660 1.427 . S
C2657 H2647 0.929 . S
C2657 C2655 1.433 . S
C2657 N2660 1.384 . S
C2658 H2649 0.929 . S
C2658 C2650 1.378 . S
C2658 C2653 1.350 . S
C2659 H2646 0.929 . S
C2659 C2651 1.433 . S
C2659 N2661 1.384 . S
N2660 C2656 1.427 . S
N2660 C2657 1.384 . S
N2661 C2653 1.427 . S
N2661 C2659 1.384 . S
H2662 C2668 0.930 . S
H2663 C2672 0.930 . S
H2664 C2677 0.929 . S
H2665 C2675 0.929 . S
H2666 C2670 0.929 . S
H2667 C2676 0.929 . S
C2668 H2662 0.930 . S
C2668 C2669 1.367 . S
C2668 C2676 1.378 . S
C2669 C2668 1.367 . S
C2669 C2677 1.433 . S
C2670 H2666 0.929 . S
C2670 C2672 1.378 . S
C2670 C2674 1.350 . S
C2671 C2674 1.463 . S
C2671 C2676 1.350 . S
C2671 N2679 1.427 . S
C2672 H2663 0.930 . S
C2672 C2670 1.378 . S
C2672 C2673 1.367 . S
C2673 C2672 1.367 . S
C2673 C2675 1.433 . S
C2674 C2670 1.350 . S
C2674 C2671 1.463 . S
C2674 N2678 1.427 . S
C2675 H2665 0.929 . S
C2675 C2673 1.433 . S
C2675 N2678 1.384 . S
C2676 H2667 0.929 . S
C2676 C2668 1.378 . S
C2676 C2671 1.350 . S
C2677 H2664 0.929 . S
C2677 C2669 1.433 . S
C2677 N2679 1.384 . S
N2678 C2674 1.427 . S
N2678 C2675 1.384 . S
N2679 C2671 1.427 . S
N2679 C2677 1.384 . S
C959 C101 2.316 . S
C963 C314 2.298 1_556 S
C977 C57 2.112 . S
C981 C371 2.149 . S
C995 C73 1.251 . S
C999 C394 1.307 . S
C1017 C448 1.366 . S
C1013 C78 1.330 . S
C1031 C21 1.285 . S
C1035 C488 1.326 . S
C1053 C519 0.487 . S
C1049 C31 0.519 . S
C1071 C571 1.377 . S
C1067 C49 1.338 . S
C1085 C0 1.672 . S
C1089 C594 1.725 . S
C1107 C331 2.479 . S
C1103 C218 2.486 . S
C1121 C229 0.558 . S
C1125 C368 0.534 . S
C1143 C411 1.305 . S
C1139 C257 1.314 . S
C1161 C434 1.364 . S
C1157 C164 1.314 . S
C1175 C216 1.767 . S
C1179 C474 1.885 . S
C1197 C522 1.454 . S
C1193 C231 1.474 . S
C1215 C568 0.406 . S
C1211 C255 0.464 . S
C1233 C611 2.058 . S
C1229 C166 2.080 . S
C1251 C328 1.472 1_565 S
C1247 C143 1.414 . S
C1265 C265 1.953 . S
C1269 C651 1.993 . S
C1287 C683 2.540 . S
C1283 C299 2.567 . S
C1305 C714 0.703 1_655 S
C1301 C291 0.694 . S
C1319 C104 1.278 . S
C1323 C608 1.332 . S
C1337 C117 1.460 . S
C1341 C408 1.515 . S
C1355 C304 2.191 . S
C1359 C771 2.222 . S
C1377 C794 0.484 . S
C1373 C278 0.440 . S
C1395 C323 2.271 . S
C1391 C60 2.279 . S
C1413 C802 2.065 . S
C1409 C96 2.062 . S
C1427 C88 1.206 . S
C1431 C403 1.181 . S
C1445 C65 1.305 . S
C1449 C759 1.295 . S
C1467 C479 1.286 . S
C1463 C10 1.316 . S
C1481 C44 0.498 . S
C1485 C688 0.452 . S
C1503 C562 1.250 1_556 S
C1499 C34 1.142 . S
C1521 C843 1.692 . S
C1517 C13 1.779 . S
C1539 C322 2.425 . S
C1535 C138 2.380 . S
C1557 C799 0.528 . S
C1553 C296 0.467 . S
C1571 C112 1.213 . S
C1575 C402 1.230 . S
C1589 C270 1.281 . S
C1593 C763 1.267 . S
C1607 C140 1.798 1_545 S
C1611 C483 1.794 . S
C1629 C691 1.416 . S
C1625 C294 1.412 . S
C1643 C114 0.252 . S
C1647 C559 0.340 . S
C1661 C268 1.990 . S
C1665 C842 2.003 . S
C1679 C169 1.480 . S
C1683 C319 1.431 . S
C1697 C161 1.909 . S
C1701 C642 1.919 . S
C1715 C234 2.534 . S
C1719 C514 2.495 . S
C1733 C226 0.577 . S
C1737 C723 0.548 . S
C1755 C839 1.372 . S
C1751 C247 1.444 . S
C1769 C195 1.543 . S
C1773 C399 1.506 . S
C1791 C442 2.142 . S
C1787 C239 2.132 . S
C1809 C363 0.485 . S
C1805 C187 0.356 . S
C1823 C75 2.314 . S
C1827 C874 2.304 . S
C1845 C811 2.147 . S
C1841 C83 2.103 . S
C1859 C99 1.250 . S
C1863 C914 1.308 . S
C1877 C52 1.333 . S
C1881 C768 1.368 . S
C1895 C47 1.286 . S
C1899 C648 1.328 . S
C1917 C679 0.476 . S
C1913 C5 0.540 . S
C1935 C731 1.380 . S
C1931 C23 1.341 . S
C1953 C834 1.717 . S
C1949 C26 1.687 . S
C1971 C891 2.479 . S
C1967 C244 2.487 . S
C1985 C177 0.531 . S
C1989 C808 0.508 . S
C2007 C931 1.306 . S
C2003 C192 1.314 . S
C2025 C754 1.364 . S
C2021 C203 1.315 . S
C2043 C634 1.883 . S
C2039 C242 1.777 . S
C2057 C179 1.478 . S
C2061 C682 1.454 . S
C2079 C728 0.362 . S
C2075 C190 0.415 . S
C2093 C205 2.080 . S
C2097 C851 2.054 . S
C2115 C888 1.474 . S
C2111 C286 1.410 . S
C2129 C122 1.956 . S
C2133 C491 1.993 . S
C2151 C523 2.540 . S
C2147 C130 2.567 . S
C2169 C554 0.705 . S
C2165 C148 0.696 . S
C2187 C848 1.344 . S
C2183 C273 1.293 . S
C2201 C260 1.469 . S
C2205 C928 1.519 . S
C2223 C451 2.219 . S
C2219 C135 2.188 . S
C2241 C354 0.501 . S
C2237 C109 0.421 . S
C2255 C86 2.285 . S
C2259 C883 2.266 . S
C2277 C362 2.064 . S
C2273 C70 2.061 . S
C2291 C62 1.203 . S
C2295 C923 1.187 . S
C2309 C91 1.298 . S
C2313 C439 1.305 . S
C2327 C36 1.313 . S
C2331 C639 1.281 . S
C2349 C528 0.458 . S
C2345 C18 0.486 . S
C2363 C8 1.135 . S
C2367 C722 1.249 . S
C2381 C39 1.770 . S
C2385 C603 1.703 . S
C2403 C882 2.428 . S
C2399 C307 2.377 . S
C2417 C153 0.447 . S
C2421 C359 0.485 . S
C2439 C922 1.223 . S
C2435 C281 1.208 . S
C2453 C127 1.282 . S
C2457 C443 1.265 . S
C2471 C309 1.810 . S
C2475 C643 1.798 . S
C2493 C531 1.415 . S
C2489 C151 1.411 . S
C2507 C283 0.256 . S
C2511 C719 0.350 . S
C2529 C602 2.003 . S
C2525 C125 1.997 . S
C2547 C879 1.431 . S
C2543 C221 1.476 . S
C2565 C482 1.916 1_655 S
C2561 C200 1.905 . S
C2579 C208 2.532 . S
C2583 C674 2.500 . S
C2601 C563 0.549 . S
C2597 C174 0.570 . S
C2615 C182 1.442 . S
C2619 C599 1.355 . S
C2633 C156 1.539 . S
C2637 C919 1.499 . S
C2655 C762 2.142 . S
C2651 C213 2.132 1_565 S
C2673 C803 0.486 . S
C2669 C252 0.356 . S
