# Generated by pormake.
# Topology gar, (4,6)-cn, num edge types: 1
# Building blocks:
#     Node 0, Type 0, BuildingBlock: NAHDIM_clean_sbu_0, # of connection points: 4
#     Node 1, Type 0, BuildingBlock: NAHDIM_clean_sbu_0, # of connection points: 4
#     Node 2, Type 0, BuildingBlock: NAHDIM_clean_sbu_0, # of connection points: 4
#     Node 3, Type 0, BuildingBlock: NAHDIM_clean_sbu_0, # of connection points: 4
#     Node 4, Type 0, BuildingBlock: NAHDIM_clean_sbu_0, # of connection points: 4
#     Node 5, Type 0, BuildingBlock: NAHDIM_clean_sbu_0, # of connection points: 4
#     Node 6, Type 0, BuildingBlock: NAHDIM_clean_sbu_0, # of connection points: 4
#     Node 7, Type 0, BuildingBlock: NAHDIM_clean_sbu_0, # of connection points: 4
#     Node 8, Type 0, BuildingBlock: NAHDIM_clean_sbu_0, # of connection points: 4
#     Node 9, Type 0, BuildingBlock: NAHDIM_clean_sbu_0, # of connection points: 4
#     Node 10, Type 0, BuildingBlock: NAHDIM_clean_sbu_0, # of connection points: 4
#     Node 11, Type 0, BuildingBlock: NAHDIM_clean_sbu_0, # of connection points: 4
#     Node 12, Type 0, BuildingBlock: NAHDIM_clean_sbu_0, # of connection points: 4
#     Node 13, Type 0, BuildingBlock: NAHDIM_clean_sbu_0, # of connection points: 4
#     Node 14, Type 0, BuildingBlock: NAHDIM_clean_sbu_0, # of connection points: 4
#     Node 15, Type 0, BuildingBlock: NAHDIM_clean_sbu_0, # of connection points: 4
#     Node 16, Type 0, BuildingBlock: NAHDIM_clean_sbu_0, # of connection points: 4
#     Node 17, Type 0, BuildingBlock: NAHDIM_clean_sbu_0, # of connection points: 4
#     Node 18, Type 0, BuildingBlock: NAHDIM_clean_sbu_0, # of connection points: 4
#     Node 19, Type 0, BuildingBlock: NAHDIM_clean_sbu_0, # of connection points: 4
#     Node 20, Type 0, BuildingBlock: NAHDIM_clean_sbu_0, # of connection points: 4
#     Node 21, Type 0, BuildingBlock: NAHDIM_clean_sbu_0, # of connection points: 4
#     Node 22, Type 0, BuildingBlock: NAHDIM_clean_sbu_0, # of connection points: 4
#     Node 23, Type 0, BuildingBlock: NAHDIM_clean_sbu_0, # of connection points: 4
#     Node 24, Type 1, BuildingBlock: BETGAK_clean_sbu_0, # of connection points: 6
#     Node 25, Type 1, BuildingBlock: BETGAK_clean_sbu_0, # of connection points: 6
#     Node 26, Type 1, BuildingBlock: BETGAK_clean_sbu_0, # of connection points: 6
#     Node 27, Type 1, BuildingBlock: BETGAK_clean_sbu_0, # of connection points: 6
#     Node 28, Type 1, BuildingBlock: BETGAK_clean_sbu_0, # of connection points: 6
#     Node 29, Type 1, BuildingBlock: BETGAK_clean_sbu_0, # of connection points: 6
#     Node 30, Type 1, BuildingBlock: BETGAK_clean_sbu_0, # of connection points: 6
#     Node 31, Type 1, BuildingBlock: BETGAK_clean_sbu_0, # of connection points: 6
#     Node 32, Type 1, BuildingBlock: BETGAK_clean_sbu_0, # of connection points: 6
#     Node 33, Type 1, BuildingBlock: BETGAK_clean_sbu_0, # of connection points: 6
#     Node 34, Type 1, BuildingBlock: BETGAK_clean_sbu_0, # of connection points: 6
#     Node 35, Type 1, BuildingBlock: BETGAK_clean_sbu_0, # of connection points: 6
#     Node 36, Type 1, BuildingBlock: BETGAK_clean_sbu_0, # of connection points: 6
#     Node 37, Type 1, BuildingBlock: BETGAK_clean_sbu_0, # of connection points: 6
#     Node 38, Type 1, BuildingBlock: BETGAK_clean_sbu_0, # of connection points: 6
#     Node 39, Type 1, BuildingBlock: BETGAK_clean_sbu_0, # of connection points: 6
#     Edge 40, Type (0, 1), BuildingBlock: UVAHIK_clean_linker_0, # of connection points: 2
#     Edge 41, Type (0, 1), BuildingBlock: UVAHIK_clean_linker_0, # of connection points: 2
#     Edge 42, Type (0, 1), BuildingBlock: UVAHIK_clean_linker_0, # of connection points: 2
#     Edge 43, Type (0, 1), BuildingBlock: UVAHIK_clean_linker_0, # of connection points: 2
#     Edge 44, Type (0, 1), BuildingBlock: UVAHIK_clean_linker_0, # of connection points: 2
#     Edge 45, Type (0, 1), BuildingBlock: UVAHIK_clean_linker_0, # of connection points: 2
#     Edge 46, Type (0, 1), BuildingBlock: UVAHIK_clean_linker_0, # of connection points: 2
#     Edge 47, Type (0, 1), BuildingBlock: UVAHIK_clean_linker_0, # of connection points: 2
#     Edge 48, Type (0, 1), BuildingBlock: UVAHIK_clean_linker_0, # of connection points: 2
#     Edge 49, Type (0, 1), BuildingBlock: UVAHIK_clean_linker_0, # of connection points: 2
#     Edge 50, Type (0, 1), BuildingBlock: UVAHIK_clean_linker_0, # of connection points: 2
#     Edge 51, Type (0, 1), BuildingBlock: UVAHIK_clean_linker_0, # of connection points: 2
#     Edge 52, Type (0, 1), BuildingBlock: UVAHIK_clean_linker_0, # of connection points: 2
#     Edge 53, Type (0, 1), BuildingBlock: UVAHIK_clean_linker_0, # of connection points: 2
#     Edge 54, Type (0, 1), BuildingBlock: UVAHIK_clean_linker_0, # of connection points: 2
#     Edge 55, Type (0, 1), BuildingBlock: UVAHIK_clean_linker_0, # of connection points: 2
#     Edge 56, Type (0, 1), BuildingBlock: UVAHIK_clean_linker_0, # of connection points: 2
#     Edge 57, Type (0, 1), BuildingBlock: UVAHIK_clean_linker_0, # of connection points: 2
#     Edge 58, Type (0, 1), BuildingBlock: UVAHIK_clean_linker_0, # of connection points: 2
#     Edge 59, Type (0, 1), BuildingBlock: UVAHIK_clean_linker_0, # of connection points: 2
#     Edge 60, Type (0, 1), BuildingBlock: UVAHIK_clean_linker_0, # of connection points: 2
#     Edge 61, Type (0, 1), BuildingBlock: UVAHIK_clean_linker_0, # of connection points: 2
#     Edge 62, Type (0, 1), BuildingBlock: UVAHIK_clean_linker_0, # of connection points: 2
#     Edge 63, Type (0, 1), BuildingBlock: UVAHIK_clean_linker_0, # of connection points: 2
#     Edge 64, Type (0, 1), BuildingBlock: UVAHIK_clean_linker_0, # of connection points: 2
#     Edge 65, Type (0, 1), BuildingBlock: UVAHIK_clean_linker_0, # of connection points: 2
#     Edge 66, Type (0, 1), BuildingBlock: UVAHIK_clean_linker_0, # of connection points: 2
#     Edge 67, Type (0, 1), BuildingBlock: UVAHIK_clean_linker_0, # of connection points: 2
#     Edge 68, Type (0, 1), BuildingBlock: UVAHIK_clean_linker_0, # of connection points: 2
#     Edge 69, Type (0, 1), BuildingBlock: UVAHIK_clean_linker_0, # of connection points: 2
#     Edge 70, Type (0, 1), BuildingBlock: UVAHIK_clean_linker_0, # of connection points: 2
#     Edge 71, Type (0, 1), BuildingBlock: UVAHIK_clean_linker_0, # of connection points: 2
#     Edge 72, Type (0, 1), BuildingBlock: UVAHIK_clean_linker_0, # of connection points: 2
#     Edge 73, Type (0, 1), BuildingBlock: UVAHIK_clean_linker_0, # of connection points: 2
#     Edge 74, Type (0, 1), BuildingBlock: UVAHIK_clean_linker_0, # of connection points: 2
#     Edge 75, Type (0, 1), BuildingBlock: UVAHIK_clean_linker_0, # of connection points: 2
#     Edge 76, Type (0, 1), BuildingBlock: UVAHIK_clean_linker_0, # of connection points: 2
#     Edge 77, Type (0, 1), BuildingBlock: UVAHIK_clean_linker_0, # of connection points: 2
#     Edge 78, Type (0, 1), BuildingBlock: UVAHIK_clean_linker_0, # of connection points: 2
#     Edge 79, Type (0, 1), BuildingBlock: UVAHIK_clean_linker_0, # of connection points: 2
#     Edge 80, Type (0, 1), BuildingBlock: UVAHIK_clean_linker_0, # of connection points: 2
#     Edge 81, Type (0, 1), BuildingBlock: UVAHIK_clean_linker_0, # of connection points: 2
#     Edge 82, Type (0, 1), BuildingBlock: UVAHIK_clean_linker_0, # of connection points: 2
#     Edge 83, Type (0, 1), BuildingBlock: UVAHIK_clean_linker_0, # of connection points: 2
#     Edge 84, Type (0, 1), BuildingBlock: UVAHIK_clean_linker_0, # of connection points: 2
#     Edge 85, Type (0, 1), BuildingBlock: UVAHIK_clean_linker_0, # of connection points: 2
#     Edge 86, Type (0, 1), BuildingBlock: UVAHIK_clean_linker_0, # of connection points: 2
#     Edge 87, Type (0, 1), BuildingBlock: UVAHIK_clean_linker_0, # of connection points: 2
#     Edge 88, Type (0, 1), BuildingBlock: UVAHIK_clean_linker_0, # of connection points: 2
#     Edge 89, Type (0, 1), BuildingBlock: UVAHIK_clean_linker_0, # of connection points: 2
#     Edge 90, Type (0, 1), BuildingBlock: UVAHIK_clean_linker_0, # of connection points: 2
#     Edge 91, Type (0, 1), BuildingBlock: UVAHIK_clean_linker_0, # of connection points: 2
#     Edge 92, Type (0, 1), BuildingBlock: UVAHIK_clean_linker_0, # of connection points: 2
#     Edge 93, Type (0, 1), BuildingBlock: UVAHIK_clean_linker_0, # of connection points: 2
#     Edge 94, Type (0, 1), BuildingBlock: UVAHIK_clean_linker_0, # of connection points: 2
#     Edge 95, Type (0, 1), BuildingBlock: UVAHIK_clean_linker_0, # of connection points: 2
#     Edge 96, Type (0, 1), BuildingBlock: UVAHIK_clean_linker_0, # of connection points: 2
#     Edge 97, Type (0, 1), BuildingBlock: UVAHIK_clean_linker_0, # of connection points: 2
#     Edge 98, Type (0, 1), BuildingBlock: UVAHIK_clean_linker_0, # of connection points: 2
#     Edge 99, Type (0, 1), BuildingBlock: UVAHIK_clean_linker_0, # of connection points: 2
#     Edge 100, Type (0, 1), BuildingBlock: UVAHIK_clean_linker_0, # of connection points: 2
#     Edge 101, Type (0, 1), BuildingBlock: UVAHIK_clean_linker_0, # of connection points: 2
#     Edge 102, Type (0, 1), BuildingBlock: UVAHIK_clean_linker_0, # of connection points: 2
#     Edge 103, Type (0, 1), BuildingBlock: UVAHIK_clean_linker_0, # of connection points: 2
#     Edge 104, Type (0, 1), BuildingBlock: UVAHIK_clean_linker_0, # of connection points: 2
#     Edge 105, Type (0, 1), BuildingBlock: UVAHIK_clean_linker_0, # of connection points: 2
#     Edge 106, Type (0, 1), BuildingBlock: UVAHIK_clean_linker_0, # of connection points: 2
#     Edge 107, Type (0, 1), BuildingBlock: UVAHIK_clean_linker_0, # of connection points: 2
#     Edge 108, Type (0, 1), BuildingBlock: UVAHIK_clean_linker_0, # of connection points: 2
#     Edge 109, Type (0, 1), BuildingBlock: UVAHIK_clean_linker_0, # of connection points: 2
#     Edge 110, Type (0, 1), BuildingBlock: UVAHIK_clean_linker_0, # of connection points: 2
#     Edge 111, Type (0, 1), BuildingBlock: UVAHIK_clean_linker_0, # of connection points: 2
#     Edge 112, Type (0, 1), BuildingBlock: UVAHIK_clean_linker_0, # of connection points: 2
#     Edge 113, Type (0, 1), BuildingBlock: UVAHIK_clean_linker_0, # of connection points: 2
#     Edge 114, Type (0, 1), BuildingBlock: UVAHIK_clean_linker_0, # of connection points: 2
#     Edge 115, Type (0, 1), BuildingBlock: UVAHIK_clean_linker_0, # of connection points: 2
#     Edge 116, Type (0, 1), BuildingBlock: UVAHIK_clean_linker_0, # of connection points: 2
#     Edge 117, Type (0, 1), BuildingBlock: UVAHIK_clean_linker_0, # of connection points: 2
#     Edge 118, Type (0, 1), BuildingBlock: UVAHIK_clean_linker_0, # of connection points: 2
#     Edge 119, Type (0, 1), BuildingBlock: UVAHIK_clean_linker_0, # of connection points: 2
#     Edge 120, Type (0, 1), BuildingBlock: UVAHIK_clean_linker_0, # of connection points: 2
#     Edge 121, Type (0, 1), BuildingBlock: UVAHIK_clean_linker_0, # of connection points: 2
#     Edge 122, Type (0, 1), BuildingBlock: UVAHIK_clean_linker_0, # of connection points: 2
#     Edge 123, Type (0, 1), BuildingBlock: UVAHIK_clean_linker_0, # of connection points: 2
#     Edge 124, Type (0, 1), BuildingBlock: UVAHIK_clean_linker_0, # of connection points: 2
#     Edge 125, Type (0, 1), BuildingBlock: UVAHIK_clean_linker_0, # of connection points: 2
#     Edge 126, Type (0, 1), BuildingBlock: UVAHIK_clean_linker_0, # of connection points: 2
#     Edge 127, Type (0, 1), BuildingBlock: UVAHIK_clean_linker_0, # of connection points: 2
#     Edge 128, Type (0, 1), BuildingBlock: UVAHIK_clean_linker_0, # of connection points: 2
#     Edge 129, Type (0, 1), BuildingBlock: UVAHIK_clean_linker_0, # of connection points: 2
#     Edge 130, Type (0, 1), BuildingBlock: UVAHIK_clean_linker_0, # of connection points: 2
#     Edge 131, Type (0, 1), BuildingBlock: UVAHIK_clean_linker_0, # of connection points: 2
#     Edge 132, Type (0, 1), BuildingBlock: UVAHIK_clean_linker_0, # of connection points: 2
#     Edge 133, Type (0, 1), BuildingBlock: UVAHIK_clean_linker_0, # of connection points: 2
#     Edge 134, Type (0, 1), BuildingBlock: UVAHIK_clean_linker_0, # of connection points: 2
#     Edge 135, Type (0, 1), BuildingBlock: UVAHIK_clean_linker_0, # of connection points: 2
# Relax obj value: 0.181
# Max RMSD: 0.283
# Mean RMSD: 0.177
data_MOF--net-gar--node1-NAHDIM_clean_sbu_0--node2-BETGAK_clean_sbu_0--edge1-UVAHIK_clean_linker_0
_symmetry_space_group_name_H-M    P1
_symmetry_Int_Tables_number       1
_symmetry_cell_setting            triclinic
loop_
_symmetry_equiv_pos_as_xyz
'x, y, z'
_cell_length_a     79.252594
_cell_length_b     72.463148
_cell_length_c     71.37943
_cell_angle_alpha  98.468566
_cell_angle_beta   95.188646
_cell_angle_gamma 102.7493
loop_
_atom_site_label
_atom_site_type_symbol
_atom_site_fract_x
_atom_site_fract_y
_atom_site_fract_z
_atom_type_partial_charge
C0 C 0.10939 0.32092 0.3516 0.0
O1 O 0.10985 0.3246 0.37024 0.0
O2 O 0.07395 0.28226 0.36724 0.0
Zn3 Zn 0.0732 0.30387 0.35264 0.0
O4 O 0.06993 0.32643 0.37049 0.0
C5 C 0.04607 0.27873 0.32425 0.0
O6 O 0.05143 0.26473 0.33085 0.0
O7 O 0.09525 0.31182 0.34134 0.0
C8 C 0.07336 0.34332 0.36666 0.0
O9 O 0.07871 0.34613 0.35018 0.0
C10 C 0.0798 0.28591 0.3849 0.0
O11 O 0.08581 0.30388 0.39328 0.0
O12 O 0.05339 0.29605 0.33151 0.0
C13 C 0.96679 0.72965 0.6681 0.0
O14 O 0.96918 0.7128 0.6609 0.0
O15 O 1.00338 0.72072 0.64382 0.0
Zn16 Zn 1.00135 0.74613 0.65775 0.0
O17 O 1.00498 0.76608 0.64071 0.0
C18 C 0.02063 0.74298 0.69231 0.0
O19 O 0.00806 0.7274 0.69077 0.0
O20 O 0.97843 0.74476 0.66782 0.0
C21 C 0.01069 0.78364 0.64829 0.0
O22 O 0.01387 0.78822 0.66699 0.0
C23 C 0.01757 0.7209 0.6368 0.0
O24 O 0.02899 0.73737 0.63814 0.0
O25 O 0.02034 0.75376 0.67984 0.0
C26 C 0.62062 0.82867 0.86221 0.0
O27 O 0.62117 0.82926 0.88074 0.0
O28 O 0.58128 0.79609 0.87695 0.0
Zn29 Zn 0.58366 0.81874 0.86315 0.0
O30 O 0.58311 0.84236 0.88128 0.0
C31 C 0.55632 0.79721 0.83315 0.0
O32 O 0.56187 0.78229 0.83722 0.0
O33 O 0.60597 0.82394 0.8518 0.0
C34 C 0.56905 0.84399 0.88781 0.0
O35 O 0.55498 0.82997 0.88258 0.0
C36 C 0.58566 0.79837 0.89487 0.0
O37 O 0.59243 0.81577 0.90444 0.0
O38 O 0.56375 0.81385 0.84231 0.0
C39 C 0.46479 0.23732 0.17109 0.0
O40 O 0.46418 0.22047 0.16093 0.0
O41 O 0.49517 0.2242 0.14114 0.0
Zn42 Zn 0.49759 0.25039 0.15624 0.0
O43 O 0.50019 0.27047 0.13948 0.0
C44 C 0.53384 0.26104 0.17003 0.0
O45 O 0.53508 0.26167 0.15189 0.0
O46 O 0.47739 0.25146 0.17068 0.0
C47 C 0.50507 0.28797 0.14745 0.0
O48 O 0.5078 0.29217 0.16619 0.0
C49 C 0.49084 0.22002 0.12318 0.0
O50 O 0.48739 0.23327 0.11373 0.0
O51 O 0.51886 0.25635 0.17534 0.0
C52 C 0.03952 0.80622 0.13835 0.0
O53 O 0.03695 0.80434 0.11965 0.0
O54 O 0.06767 0.78252 0.1113 0.0
Zn55 Zn 0.07397 0.80867 0.1288 0.0
O56 O 0.07323 0.83026 0.11318 0.0
C57 C 0.10125 0.79747 0.15112 0.0
O58 O 0.08856 0.78199 0.14955 0.0
O59 O 0.05502 0.8085 0.14645 0.0
C60 C 0.08361 0.84687 0.11708 0.0
O61 O 0.09616 0.85042 0.13139 0.0
C62 C 0.07911 0.7753 0.10348 0.0
O63 O 0.09529 0.78551 0.10577 0.0
O64 O 0.09817 0.81164 0.14385 0.0
C65 C 0.54339 0.75734 0.3876 0.0
O66 O 0.54359 0.75019 0.40348 0.0
O67 O 0.5085 0.736 0.41003 0.0
Zn68 Zn 0.509 0.75958 0.39706 0.0
O69 O 0.51203 0.7846 0.416 0.0
C70 C 0.47392 0.76327 0.38585 0.0
O71 O 0.47636 0.77213 0.40365 0.0
O72 O 0.52976 0.76242 0.38156 0.0
C73 C 0.52658 0.79594 0.42326 0.0
O74 O 0.54109 0.79097 0.41974 0.0
C75 C 0.50475 0.73395 0.4267 0.0
O76 O 0.50014 0.74795 0.43733 0.0
O77 O 0.48601 0.75605 0.37948 0.0
C78 C 0.54154 0.3096 0.63648 0.0
O79 O 0.53948 0.30857 0.61785 0.0
O80 O 0.56915 0.28168 0.61216 0.0
Zn81 Zn 0.5761 0.30867 0.62826 0.0
O82 O 0.57667 0.32961 0.61155 0.0
C83 C 0.61419 0.31364 0.63973 0.0
O84 O 0.61551 0.31554 0.62187 0.0
O85 O 0.5566 0.31013 0.64482 0.0
C86 C 0.58549 0.34689 0.61682 0.0
O87 O 0.5957 0.35143 0.63318 0.0
C88 C 0.57772 0.27504 0.59963 0.0
O89 O 0.59192 0.28627 0.59576 0.0
O90 O 0.59921 0.31141 0.64549 0.0
C91 C 0.04342 0.26843 0.88865 0.0
O92 O 0.04589 0.27354 0.90732 0.0
O93 O 0.00719 0.23625 0.90951 0.0
Zn94 Zn 0.00808 0.26019 0.89695 0.0
O95 O 0.01423 0.28535 0.91594 0.0
C96 C 0.97006 0.25221 0.88471 0.0
O97 O 0.96879 0.24413 0.9 0.0
O98 O 0.02787 0.26183 0.88033 0.0
C99 C 1.00366 0.29219 0.9257 0.0
O100 O 0.98762 0.28199 0.92488 0.0
C101 C 1.00463 0.23466 0.92664 0.0
O102 O 1.00164 0.24932 0.9379 0.0
O103 O 0.98517 0.25922 0.88049 0.0
C104 C 0.41839 0.0806 0.26514 0.0
O105 O 0.43551 0.08514 0.26836 0.0
O106 O 0.44151 0.04291 0.26978 0.0
Zn107 Zn 0.42127 0.04793 0.28299 0.0
O108 O 0.42971 0.05872 0.31059 0.0
C109 C 0.40954 0.00799 0.28285 0.0
O110 O 0.42628 0.00993 0.28793 0.0
O111 O 0.40992 0.06563 0.27038 0.0
C112 C 0.42193 0.05252 0.32401 0.0
O113 O 0.40688 0.03986 0.31982 0.0
C114 C 0.45657 0.04474 0.27871 0.0
O115 O 0.45952 0.05114 0.29719 0.0
O116 O 0.40401 0.02269 0.28027 0.0
C117 C 0.31184 0.16403 0.4959 0.0
O118 O 0.316 0.18285 0.49767 0.0
O119 O 0.28266 0.19033 0.51864 0.0
Zn120 Zn 0.27786 0.17158 0.49344 0.0
O121 O 0.28014 0.18508 0.47033 0.0
C122 C 0.24674 0.14921 0.5055 0.0
O123 O 0.25645 0.15398 0.52219 0.0
O124 O 0.29578 0.15539 0.49382 0.0
C125 C 0.28343 0.20317 0.47087 0.0
O126 O 0.2855 0.21458 0.48743 0.0
C127 C 0.27133 0.1988 0.52496 0.0
O128 O 0.25631 0.19632 0.51435 0.0
O129 O 0.25321 0.15467 0.49097 0.0
C130 C 0.17668 0.9733 0.77442 0.0
O131 O 0.15968 0.96664 0.77237 0.0
O132 O 0.14964 0.01341 0.75334 0.0
Zn133 Zn 0.16764 0.01517 0.77915 0.0
O134 O 0.15495 0.01749 0.80591 0.0
C135 C 0.18114 0.05662 0.77311 0.0
O136 O 0.16507 0.05329 0.76468 0.0
O137 O 0.18248 0.99182 0.77713 0.0
C138 C 0.14013 0.00807 0.8097 0.0
O139 O 0.1306 0.99467 0.79606 0.0
C140 C 0.15116 1.0066 0.73598 0.0
O141 O 0.16399 0.99814 0.73318 0.0
O142 O 0.18565 0.04296 0.78053 0.0
C143 C 0.27476 0.95228 0.98792 0.0
O144 O 0.27157 0.93347 0.98591 0.0
O145 O 0.30326 0.93037 0.01321 0.0
Zn146 Zn 0.30911 0.94789 0.99428 0.0
O147 O 0.31101 0.93184 0.9696 0.0
C148 C 0.33535 0.97162 0.02278 0.0
O149 O 0.32323 0.96672 0.03371 0.0
O150 O 0.29045 0.96201 0.99119 0.0
C151 C 0.32386 0.9241 0.96829 0.0
O152 O 0.33633 0.92797 0.98274 0.0
C153 C 0.29696 0.91237 0.00869 0.0
O154 O 0.29343 0.9044 0.99059 0.0
O155 O 0.33196 0.96597 1.00483 0.0
C156 C 0.27548 0.40963 0.02733 0.0
O157 O 0.2731 0.3926 0.01677 0.0
O158 O 0.30891 0.38855 0.06026 0.0
Zn159 Zn 0.30948 0.4025 0.03737 0.0
O160 O 0.30573 0.38412 0.01198 0.0
C161 C 0.34683 0.41811 0.04775 0.0
O162 O 0.34536 0.40296 0.05612 0.0
O163 O 0.29017 0.41708 0.03746 0.0
C164 C 0.31813 0.37845 1.0046 0.0
O165 O 0.33383 0.38353 0.01423 0.0
C166 C 0.29465 0.37975 0.06511 0.0
O167 O 0.27994 0.37893 0.05457 0.0
O168 O 0.33317 0.42122 0.0392 0.0
C169 C 0.80749 0.12721 0.01348 0.0
O170 O 0.81149 0.14582 0.01362 0.0
O171 O 0.77776 0.14847 0.04697 0.0
Zn172 Zn 0.77483 0.13523 0.01965 0.0
O173 O 0.77791 0.15565 1.00322 0.0
C174 C 0.73904 0.12986 0.01474 0.0
O175 O 0.74454 0.14837 0.02127 0.0
O176 O 0.79207 0.11906 0.01574 0.0
C177 C 0.76905 0.15367 0.98702 0.0
O178 O 0.7585 0.13699 0.97962 0.0
C179 C 0.78631 0.16586 0.05158 0.0
O180 O 0.79422 0.17443 0.0387 0.0
O181 O 0.7502 0.11975 0.01299 0.0
C182 C 0.15617 0.49156 0.26798 0.0
O183 O 0.14094 0.48996 0.27429 0.0
O184 O 0.12828 0.50554 0.22347 0.0
Zn185 Zn 0.14528 0.51885 0.24655 0.0
O186 O 0.13355 0.52929 0.26805 0.0
C187 C 0.15526 0.55592 0.23678 0.0
O188 O 0.13847 0.55477 0.23677 0.0
O189 O 0.16015 0.50231 0.25574 0.0
C190 C 0.14305 0.54234 0.28098 0.0
O191 O 0.15992 0.5474 0.28021 0.0
C192 C 0.11247 0.50671 0.2223 0.0
O193 O 0.10691 0.51553 0.23709 0.0
O194 O 0.16122 0.54156 0.23966 0.0
C195 C 0.77248 0.91138 0.53557 0.0
O196 O 0.76892 0.89259 0.53408 0.0
O197 O 0.80397 0.89188 0.56228 0.0
Zn198 Zn 0.80663 0.90479 0.53871 0.0
O199 O 0.80151 0.88585 0.51368 0.0
C200 C 0.84464 0.91869 0.54836 0.0
O201 O 0.84291 0.90401 0.55742 0.0
O202 O 0.7884 0.92058 0.53782 0.0
C203 C 0.81208 0.8764 0.50712 0.0
O204 O 0.8271 0.87788 0.51734 0.0
C205 C 0.80922 0.87717 0.56567 0.0
O206 O 0.81719 0.86847 0.55302 0.0
O207 O 0.83106 0.92207 0.53991 0.0
C208 C 0.90883 0.10051 0.25848 0.0
O209 O 0.92564 0.10684 0.25808 0.0
O210 O 0.93207 0.05759 0.2312 0.0
Zn211 Zn 0.91865 0.05957 0.25732 0.0
O212 O 0.9356 0.06324 0.28452 0.0
C213 C 0.89752 0.02255 0.26916 0.0
O214 O 0.90276 0.03232 0.28651 0.0
O215 O 0.90318 0.08223 0.25823 0.0
C216 C 0.94226 0.0499 0.29007 0.0
O217 O 0.93991 0.03378 0.27792 0.0
C218 C 0.94555 0.06862 0.22634 0.0
O219 O 0.95352 0.08414 0.23862 0.0
O220 O 0.90164 0.03108 0.25503 0.0
C221 C 0.32552 0.65097 0.50816 0.0
O222 O 0.32867 0.66921 0.51584 0.0
O223 O 0.29434 0.66542 0.54043 0.0
Zn224 Zn 0.28926 0.64938 0.51425 0.0
O225 O 0.27911 0.66333 0.49563 0.0
C226 C 0.26994 0.6178 0.52958 0.0
O227 O 0.28202 0.62427 0.54439 0.0
O228 O 0.31006 0.64067 0.50604 0.0
C229 C 0.26662 0.67069 0.50029 0.0
O230 O 0.26145 0.66955 0.51715 0.0
C231 C 0.29872 0.68366 0.54352 0.0
O232 O 0.30135 0.69283 0.52908 0.0
O233 O 0.27075 0.62613 0.51513 0.0
C234 C 0.4079 0.59924 0.75801 0.0
O235 O 0.42492 0.60584 0.76074 0.0
O236 O 0.43054 0.55474 0.729 0.0
Zn237 Zn 0.4172 0.55772 0.75519 0.0
O238 O 0.43446 0.56224 0.78242 0.0
C239 C 0.4026 0.5136 0.74862 0.0
O240 O 0.41701 0.51381 0.74078 0.0
O241 O 0.40205 0.58073 0.75545 0.0
C242 C 0.43821 0.54829 0.79006 0.0
O243 O 0.43225 0.53085 0.78033 0.0
C244 C 0.44354 0.56626 0.7238 0.0
O245 O 0.45058 0.58247 0.7355 0.0
O246 O 0.39941 0.52993 0.75493 0.0
C247 C 0.68034 0.99673 0.75711 0.0
O248 O 0.66407 0.98937 0.75927 0.0
O249 O 0.655 0.01945 0.71719 0.0
Zn250 Zn 0.66584 0.02628 0.74437 0.0
O251 O 0.64779 0.02177 0.76207 0.0
C252 C 0.67087 0.06655 0.74305 0.0
O253 O 0.65657 0.06086 0.73082 0.0
O254 O 0.68398 0.01202 0.75009 0.0
C255 C 0.65282 0.02947 0.77941 0.0
O256 O 0.66903 0.03939 0.78432 0.0
C257 C 0.64185 1.00559 0.71111 0.0
O258 O 0.63547 0.99426 0.72283 0.0
O259 O 0.67732 0.05419 0.75015 0.0
C260 C 0.80498 0.65085 0.00858 0.0
O261 O 0.79998 0.65563 0.0253 0.0
O262 O 0.78551 0.68843 0.02288 0.0
Zn263 Zn 0.78013 0.67216 0.99628 0.0
O264 O 0.78278 0.68846 0.97525 0.0
C265 C 0.74423 0.66052 1.00327 0.0
O266 O 0.74878 0.67711 0.01488 0.0
O267 O 0.79791 0.6558 0.99399 0.0
C268 C 0.77054 0.68737 0.96197 0.0
O269 O 0.75517 0.67606 0.96227 0.0
C270 C 0.78482 0.70587 0.02747 0.0
O271 O 0.78071 0.7153 0.01405 0.0
O272 O 0.75545 0.6551 0.99344 0.0
C273 C 0.90599 0.59163 0.78285 0.0
O274 O 0.9218 0.5914 0.77883 0.0
O275 O 0.92319 0.55244 0.77921 0.0
Zn276 Zn 0.91015 0.55993 0.80053 0.0
O277 O 0.92671 0.56745 0.82501 0.0
C278 C 0.88211 0.52909 0.78426 0.0
O279 O 0.88356 0.53891 0.77017 0.0
O280 O 0.89893 0.58041 0.79353 0.0
C281 C 0.92679 0.55493 0.83572 0.0
O282 O 0.91511 0.53849 0.83132 0.0
C283 C 0.93108 0.53903 0.77969 0.0
O284 O 0.93179 0.53106 0.79502 0.0
O285 O 0.89163 0.5361 0.80012 0.0
C286 C 0.77359 0.4568 0.48402 0.0
O287 O 0.76975 0.43794 0.48112 0.0
O288 O 0.79967 0.43639 0.51739 0.0
Zn289 Zn 0.80654 0.45084 0.49632 0.0
O290 O 0.80787 0.43145 0.4739 0.0
C291 C 0.83744 0.47209 0.52157 0.0
O292 O 0.82813 0.46699 0.53509 0.0
O293 O 0.78915 0.46595 0.49024 0.0
C294 C 0.81721 0.43507 0.46076 0.0
O295 O 0.8258 0.4528 0.46081 0.0
C296 C 0.79154 0.41881 0.51388 0.0
O297 O 0.78673 0.41018 0.49608 0.0
O298 O 0.83047 0.46765 0.50427 0.0
C299 C 0.67749 0.47421 0.27463 0.0
O300 O 0.6605 0.46746 0.27252 0.0
O301 O 0.65288 0.5136 0.24942 0.0
Zn302 Zn 0.66799 0.51576 0.27751 0.0
O303 O 0.65377 0.51815 0.30316 0.0
C304 C 0.68148 0.55744 0.27269 0.0
O305 O 0.66552 0.55406 0.26395 0.0
O306 O 0.68318 0.49273 0.27689 0.0
C307 C 0.64112 0.5064 0.30866 0.0
O308 O 0.6346 0.48978 0.29744 0.0
C309 C 0.6369 0.51382 0.24424 0.0
O310 O 0.62639 0.51409 0.25744 0.0
O311 O 0.68597 0.5437 0.27997 0.0
La312 La 0.0239 0.02465 0.00747 0.0
La313 La 0.05947 0.05027 0.02765 0.0
C314 C 0.992 0.00824 1.0014 0.0
C315 C 0.97633 0.01482 0.0054 0.0
C316 C 0.96003 1.0045 0.99579 0.0
C317 C 0.94536 0.01202 0.99763 0.0
C318 C 0.94686 0.03001 0.00905 0.0
C319 C 0.96314 0.03992 0.01924 0.0
C320 C 0.97778 0.03241 0.01737 0.0
C321 C 0.0484 0.02411 0.98298 0.0
C322 C 0.03322 0.06953 0.00621 0.0
C323 C 0.09138 0.06639 0.03365 0.0
C324 C 0.1064 0.05958 0.0277 0.0
C325 C 0.12335 0.06943 0.03571 0.0
C326 C 0.13751 0.06188 0.03109 0.0
C327 C 0.13482 0.04438 0.01839 0.0
C328 C 0.11779 0.03486 0.01007 0.0
C329 C 0.1037 0.04233 0.0148 0.0
C330 C 0.03505 0.05102 0.05209 0.0
C331 C 0.05033 1.00518 0.02827 0.0
O332 O 1.00054 0.01665 0.98889 0.0
O333 O 1.00239 1.00706 0.01633 0.0
O334 O 0.03227 0.01449 0.97975 0.0
O335 O 0.05006 0.03288 1.00016 0.0
O336 O 0.02081 0.05358 1.00486 0.0
O337 O 0.04951 0.07092 0.01343 0.0
O338 O 0.08313 0.05681 0.04562 0.0
O339 O 0.08068 0.06917 0.0198 0.0
O340 O 0.05116 0.06066 0.05529 0.0
O341 O 0.03334 0.04213 0.03496 0.0
O342 O 0.06257 0.02132 0.02999 0.0
O343 O 0.03404 1.00361 0.02095 0.0
H344 H 0.95878 0.99098 0.98636 0.0
H345 H 0.93303 1.00415 0.98947 0.0
H346 H 0.96464 0.05368 0.02834 0.0
H347 H 0.99033 0.04061 0.0248 0.0
H348 H 0.12557 0.08268 0.04585 0.0
H349 H 0.15047 0.06942 0.03787 0.0
H350 H 0.11531 0.02153 1.00001 0.0
H351 H 0.09063 0.03445 0.00867 0.0
La352 La 0.29503 0.7733 0.23975 0.0
La353 La 0.28808 0.78396 0.28151 0.0
C354 C 0.29849 0.77002 0.20487 0.0
C355 C 0.29702 0.78122 0.18965 0.0
C356 C 0.30252 0.77547 0.17212 0.0
C357 C 0.30107 0.78584 0.15732 0.0
C358 C 0.29409 0.80213 0.15988 0.0
C359 C 0.28867 0.80791 0.17759 0.0
C360 C 0.29011 0.7975 0.19239 0.0
C361 C 0.31663 0.76583 0.26674 0.0
C362 C 0.30578 0.81648 0.2606 0.0
C363 C 0.29047 0.78837 0.31721 0.0
C364 C 0.27823 0.78227 0.33051 0.0
C365 C 0.26264 0.76838 0.3239 0.0
C366 C 0.25164 0.76149 0.33682 0.0
C367 C 0.25605 0.7685 0.35649 0.0
C368 C 0.27128 0.7831 0.36291 0.0
C369 C 0.28231 0.7899 0.34998 0.0
C370 C 0.26138 0.78684 0.25737 0.0
C371 C 0.27159 0.74209 0.25801 0.0
O372 O 0.31144 0.77747 0.21854 0.0
O373 O 0.28389 0.76309 0.21138 0.0
O374 O 0.31176 0.75548 0.24994 0.0
O375 O 0.31011 0.78022 0.26751 0.0
O376 O 0.30049 0.80462 0.24412 0.0
O377 O 0.30464 0.81061 0.27721 0.0
O378 O 0.2866 0.80112 0.30736 0.0
O379 O 0.29522 0.77442 0.30665 0.0
O380 O 0.2622 0.79017 0.2758 0.0
O381 O 0.27516 0.78198 0.25376 0.0
O382 O 0.27693 0.75293 0.27508 0.0
O383 O 0.27547 0.74814 0.242 0.0
H384 H 0.30793 0.76295 0.16987 0.0
H385 H 0.3056 0.78122 0.14394 0.0
H386 H 0.28309 0.8203 0.17991 0.0
H387 H 0.28577 0.80206 0.2059 0.0
H388 H 0.25923 0.7625 0.30882 0.0
H389 H 0.23995 0.75031 0.33149 0.0
H390 H 0.27512 0.78857 0.37801 0.0
H391 H 0.29428 0.8007 0.35525 0.0
La392 La 0.55899 0.03738 0.51231 0.0
La393 La 0.51942 0.029 0.51327 0.0
C394 C 0.59123 0.0388 0.51718 0.0
C395 C 0.6037 0.0267 0.52004 0.0
C396 C 0.60219 0.00889 0.50831 0.0
C397 C 0.61524 0.99876 0.51032 0.0
C398 C 0.63004 1.00626 0.52407 0.0
C399 C 0.6311 0.02375 0.5362 0.0
C400 C 0.61811 0.03384 0.53417 0.0
C401 C 0.54013 0.04226 0.4821 0.0
C402 C 0.53567 0.99412 0.50165 0.0
C403 C 0.48717 0.02763 0.50821 0.0
C404 C 0.47482 0.04021 0.50799 0.0
C405 C 0.45954 0.03532 0.51646 0.0
C406 C 0.44686 0.04594 0.51536 0.0
C407 C 0.44912 0.0617 0.50566 0.0
C408 C 0.46469 0.06688 0.49755 0.0
C409 C 0.47742 0.05622 0.49868 0.0
C410 C 0.53796 0.02339 0.54324 0.0
C411 C 0.54304 0.07241 0.52422 0.0
O412 O 0.58199 0.03584 0.50038 0.0
O413 O 0.58212 0.04222 0.53115 0.0
O414 O 0.55568 0.05272 0.48837 0.0
O415 O 0.53631 0.02929 0.49191 0.0
O416 O 0.55119 1.00579 0.50822 0.0
O417 O 0.52128 1.00057 0.50009 0.0
O418 O 0.49569 0.02749 0.52476 0.0
O419 O 0.497 0.02722 0.49445 0.0
O420 O 0.52232 0.01327 0.53678 0.0
O421 O 0.54208 0.03671 0.53382 0.0
O422 O 0.52729 0.06074 0.51896 0.0
O423 O 0.55747 0.06604 0.52454 0.0
H424 H 0.59118 1.00302 0.49732 0.0
H425 H 0.61402 0.98539 0.50068 0.0
H426 H 0.64209 0.02977 0.54719 0.0
H427 H 0.61951 0.04751 0.54342 0.0
H428 H 0.45727 0.02304 0.52372 0.0
H429 H 0.43523 0.04174 0.5221 0.0
H430 H 0.46683 0.07885 0.48988 0.0
H431 H 0.48912 0.06029 0.492 0.0
La432 La 0.27451 0.28714 0.76328 0.0
La433 La 0.31213 0.2823 0.76695 0.0
C434 C 0.24191 0.27847 0.76353 0.0
C435 C 0.22767 0.28333 0.77391 0.0
C436 C 0.21258 0.28553 0.76347 0.0
C437 C 0.19778 0.28701 0.77238 0.0
C438 C 0.19766 0.28614 0.79196 0.0
C439 C 0.21309 0.28477 0.80255 0.0
C440 C 0.22792 0.2834 0.79365 0.0
C441 C 0.29671 0.32142 0.76331 0.0
C442 C 0.29752 0.29783 0.80399 0.0
C443 C 0.34394 0.2825 0.76578 0.0
C444 C 0.35838 0.28538 0.75401 0.0
C445 C 0.37136 0.27528 0.75652 0.0
C446 C 0.38595 0.27841 0.74676 0.0
C447 C 0.38795 0.29178 0.73421 0.0
C448 C 0.37466 0.30157 0.7313 0.0
C449 C 0.36 0.29843 0.74117 0.0
C450 C 0.28769 0.25227 0.77294 0.0
C451 C 0.29085 0.27694 0.72571 0.0
O452 O 0.24967 0.29063 0.75328 0.0
O453 O 0.25284 0.27054 0.77252 0.0
O454 O 0.27985 0.3184 0.76242 0.0
O455 O 0.30007 0.30527 0.76448 0.0
O456 O 0.28171 0.29298 0.79423 0.0
O457 O 0.31167 0.29667 0.79581 0.0
O458 O 0.33121 0.26718 0.76017 0.0
O459 O 0.33837 0.29756 0.77258 0.0
O460 O 0.30331 0.25823 0.78208 0.0
O461 O 0.28644 0.263 0.76057 0.0
O462 O 0.30633 0.28069 0.73609 0.0
O463 O 0.27631 0.27686 0.73352 0.0
H464 H 0.21202 0.28544 0.74823 0.0
H465 H 0.18631 0.28846 0.76381 0.0
H466 H 0.21352 0.28389 0.81759 0.0
H467 H 0.23934 0.28166 0.8021 0.0
H468 H 0.37035 0.26511 0.76632 0.0
H469 H 0.3957 0.27033 0.74907 0.0
H470 H 0.3758 0.312 0.7218 0.0
H471 H 0.35012 0.30639 0.73901 0.0
La472 La 0.04354 0.05553 0.52608 0.0
La473 La 0.04324 0.01545 0.50911 0.0
C474 C 0.04924 0.09161 0.53271 0.0
C475 C 0.05099 0.10655 0.52072 0.0
C476 C 0.04853 0.12467 0.52794 0.0
C477 C 0.05064 0.13915 0.51681 0.0
C478 C 0.05525 0.1357 0.49825 0.0
C479 C 0.05751 0.1174 0.49101 0.0
C480 C 0.0554 0.10295 0.50215 0.0
C481 C 0.01681 0.0296 0.53255 0.0
C482 C 0.02852 0.03948 0.48099 0.0
C483 C 0.03822 0.9794 0.50227 0.0
C484 C 0.03794 0.96427 0.51393 0.0
C485 C 0.04146 0.94685 0.50609 0.0
C486 C 0.04073 0.93211 0.51682 0.0
C487 C 0.03642 0.93455 0.53558 0.0
C488 C 0.03315 0.9522 0.54346 0.0
C489 C 0.03392 0.96694 0.53274 0.0
C490 C 0.07 0.04177 0.50309 0.0
C491 C 0.05813 0.03131 0.55422 0.0
O492 O 0.0337 0.08023 0.53132 0.0
O493 O 0.06153 0.08217 0.53264 0.0
O494 O 0.02429 0.04518 0.54451 0.0
O495 O 0.02362 0.02971 0.51726 0.0
O496 O 0.03481 0.05453 0.49499 0.0
O497 O 0.02924 0.02196 0.48383 0.0
O498 O 0.05339 0.99113 0.50247 0.0
O499 O 0.02571 0.98848 0.50378 0.0
O500 O 0.06257 0.02643 0.49078 0.0
O501 O 0.06302 0.04117 0.51819 0.0
O502 O 0.05224 0.01637 0.54003 0.0
O503 O 0.05706 0.04881 0.55163 0.0
H504 H 0.04506 0.12764 0.54223 0.0
H505 H 0.04858 0.15301 0.52269 0.0
H506 H 0.06128 0.11434 0.47688 0.0
H507 H 0.05745 0.08905 0.49635 0.0
H508 H 0.04468 0.94461 0.49163 0.0
H509 H 0.04358 0.91881 0.51043 0.0
H510 H 0.02958 0.95449 0.55777 0.0
H511 H 0.03114 0.9803 0.53905 0.0
La512 La 0.30919 0.80077 0.76291 0.0
La513 La 0.27653 0.7725 0.7646 0.0
C514 C 0.34007 0.82063 0.76947 0.0
C515 C 0.35718 0.81602 0.76838 0.0
C516 C 0.36932 0.82643 0.7584 0.0
C517 C 0.38542 0.82187 0.75676 0.0
C518 C 0.38966 0.8068 0.76511 0.0
C519 C 0.37741 0.79634 0.77504 0.0
C520 C 0.36134 0.80089 0.77666 0.0
C521 C 0.29159 0.78444 0.7294 0.0
C522 C 0.31022 0.75559 0.76334 0.0
C523 C 0.24587 0.752 0.75777 0.0
C524 C 0.22813 0.75475 0.75965 0.0
C525 C 0.21941 0.74845 0.77466 0.0
C526 C 0.20236 0.75021 0.77615 0.0
C527 C 0.1936 0.75814 0.76253 0.0
C528 C 0.20243 0.76464 0.74763 0.0
C529 C 0.21949 0.76298 0.7462 0.0
C530 C 0.29436 0.78919 0.79792 0.0
C531 C 0.27539 0.81767 0.7644 0.0
O532 O 0.33027 0.81822 0.75313 0.0
O533 O 0.3312 0.81414 0.78273 0.0
O534 O 0.30021 0.80223 0.73355 0.0
O535 O 0.29373 0.77637 0.7436 0.0
O536 O 0.31895 0.77403 0.76571 0.0
O537 O 0.29287 0.75134 0.76068 0.0
O538 O 0.25607 0.75363 0.77371 0.0
O539 O 0.25418 0.76015 0.74492 0.0
O540 O 0.28529 0.77157 0.79447 0.0
O541 O 0.29201 0.79684 0.78357 0.0
O542 O 0.26666 0.79923 0.76223 0.0
O543 O 0.29278 0.82194 0.76672 0.0
H544 H 0.3663 0.83806 0.75179 0.0
H545 H 0.39451 0.83009 0.74887 0.0
H546 H 0.38037 0.78486 0.78192 0.0
H547 H 0.35223 0.79258 0.78444 0.0
H548 H 0.22571 0.74196 0.78518 0.0
H549 H 0.19602 0.74524 0.78791 0.0
H550 H 0.19597 0.77048 0.73668 0.0
H551 H 0.22577 0.76784 0.73436 0.0
La552 La 0.55023 0.03372 0.04496 0.0
La553 La 0.52722 0.01334 0.0084 0.0
C554 C 0.56323 0.0514 0.0779 0.0
C555 C 0.5597 0.04784 0.0971 0.0
C556 C 0.57339 0.04654 0.11037 0.0
C557 C 0.57002 0.04141 0.12803 0.0
C558 C 0.55288 0.03754 0.1327 0.0
C559 C 0.53926 0.03926 0.11949 0.0
C560 C 0.54261 0.04424 0.10184 0.0
C561 C 0.55749 1.00194 0.02834 0.0
C562 C 0.51311 1.00561 0.0461 0.0
C563 C 0.51608 0.99498 0.9753 0.0
C564 C 0.52508 0.99267 0.95833 0.0
C565 C 0.51688 0.99395 0.9405 0.0
C566 C 0.52633 0.9951 0.92493 0.0
C567 C 0.54413 0.99503 0.92704 0.0
C568 C 0.55204 0.99274 0.9447 0.0
C569 C 0.54263 0.99168 0.96023 0.0
C570 C 0.51924 0.04445 0.02505 0.0
C571 C 0.56338 0.04254 0.00766 0.0
O572 O 0.56984 0.03861 0.06816 0.0
O573 O 0.55097 0.0562 0.06745 0.0
O574 O 0.56922 0.01698 0.03675 0.0
O575 O 0.54268 1.00499 0.02991 0.0
O576 O 0.52587 0.02017 0.05505 0.0
O577 O 0.51227 0.99847 0.02781 0.0
O578 O 0.51462 0.01249 0.98103 0.0
O579 O 0.52103 0.98704 0.98952 0.0
O580 O 0.50778 0.02954 0.01574 0.0
O581 O 0.53434 0.04205 0.02372 0.0
O582 O 0.55258 0.02604 0.99949 0.0
O583 O 0.56255 0.05054 0.02529 0.0
H584 H 0.58664 0.04909 0.10689 0.0
H585 H 0.58078 0.04012 0.13785 0.0
H586 H 0.52596 0.03682 0.12281 0.0
H587 H 0.53176 0.04504 0.09186 0.0
H588 H 0.5034 0.99494 0.93884 0.0
H589 H 0.51992 0.99699 0.91153 0.0
H590 H 0.56566 0.99232 0.94668 0.0
H591 H 0.54931 0.99088 0.97389 0.0
La592 La 0.30415 0.31415 0.27751 0.0
La593 La 0.28199 0.27484 0.26262 0.0
C594 C 0.31601 0.34996 0.28433 0.0
C595 C 0.3069 0.36559 0.28645 0.0
C596 C 0.31294 0.38137 0.30132 0.0
C597 C 0.30272 0.39457 0.30544 0.0
C598 C 0.28633 0.39189 0.29485 0.0
C599 C 0.28067 0.37665 0.27947 0.0
C600 C 0.2909 0.36363 0.27524 0.0
C601 C 0.30275 0.29005 0.30191 0.0
C602 C 0.26257 0.30511 0.27735 0.0
C603 C 0.27087 0.239 0.25597 0.0
C604 C 0.28089 0.22413 0.25446 0.0
C605 C 0.27676 0.20909 0.23876 0.0
C606 C 0.28812 0.19703 0.23533 0.0
C607 C 0.3038 0.2 0.24749 0.0
C608 C 0.30744 0.21448 0.2637 0.0
C609 C 0.29611 0.22643 0.26716 0.0
C610 C 0.28331 0.29888 0.23817 0.0
C611 C 0.32343 0.28378 0.26254 0.0
O612 O 0.3143 0.33932 0.29764 0.0
O613 O 0.31386 0.3396 0.26724 0.0
O614 O 0.31649 0.30321 0.30081 0.0
O615 O 0.2903 0.29148 0.29036 0.0
O616 O 0.27734 0.31799 0.27744 0.0
O617 O 0.26162 0.28651 0.27393 0.0
O618 O 0.27238 0.24952 0.24255 0.0
O619 O 0.27222 0.24942 0.27292 0.0
O620 O 0.26961 0.28568 0.23935 0.0
O621 O 0.29581 0.29749 0.24971 0.0
O622 O 0.30869 0.27097 0.26258 0.0
O623 O 0.32449 0.3024 0.26611 0.0
H624 H 0.3252 0.38302 0.3102 0.0
H625 H 0.30724 0.40633 0.31734 0.0
H626 H 0.26807 0.37449 0.2711 0.0
H627 H 0.2859 0.35157 0.26372 0.0
H628 H 0.26518 0.20722 0.22871 0.0
H629 H 0.28503 0.18597 0.22272 0.0
H630 H 0.31929 0.21687 0.27348 0.0
H631 H 0.2997 0.23798 0.27934 0.0
La632 La 0.5435 0.55968 0.02545 0.0
La633 La 0.54354 0.51966 0.00888 0.0
C634 C 0.54812 0.59571 0.03204 0.0
C635 C 0.54895 0.61082 0.02029 0.0
C636 C 0.54571 0.62845 0.02792 0.0
C637 C 0.54716 0.64324 0.0172 0.0
C638 C 0.5519 0.64065 0.99863 0.0
C639 C 0.5548 0.62277 0.9909 0.0
C640 C 0.55333 0.60798 1.00163 0.0
C641 C 0.51708 0.53352 0.03226 0.0
C642 C 0.52841 0.54317 0.98051 0.0
C643 C 0.53918 0.48371 1.00202 0.0
C644 C 0.5382 0.46862 0.01376 0.0
C645 C 0.54239 0.45138 0.0066 0.0
C646 C 0.54118 0.43673 0.01749 0.0
C647 C 0.53573 0.43913 0.03573 0.0
C648 C 0.53178 0.45661 0.04295 0.0
C649 C 0.53302 0.47124 0.03206 0.0
C650 C 0.57017 0.54602 1.00251 0.0
C651 C 0.55826 0.53579 0.05383 0.0
O652 O 0.53291 0.58382 0.0311 0.0
O653 O 0.56078 0.58681 0.0314 0.0
O654 O 0.52456 0.54912 0.04417 0.0
O655 O 0.52377 0.53366 0.01691 0.0
O656 O 0.5348 0.5584 0.9943 0.0
O657 O 0.5292 0.52576 0.98362 0.0
O658 O 0.55439 0.49572 1.00344 0.0
O659 O 0.52639 0.49246 1.00229 0.0
O660 O 0.56278 0.5305 0.99045 0.0
O661 O 0.56322 0.54559 0.01765 0.0
O662 O 0.55158 0.52066 0.04005 0.0
O663 O 0.55791 0.55335 0.05072 0.0
H664 H 0.54222 0.63083 0.04226 0.0
H665 H 0.54457 0.65673 0.02345 0.0
H666 H 0.55866 0.62035 0.97674 0.0
H667 H 0.55592 0.59445 0.99549 0.0
H668 H 0.54652 0.44921 0.99254 0.0
H669 H 0.54457 0.42356 0.01165 0.0
H670 H 0.52733 0.45883 0.05683 0.0
H671 H 0.52973 0.48449 0.03784 0.0
La672 La 0.80949 0.30112 0.26243 0.0
La673 La 0.77771 0.27395 0.26906 0.0
C674 C 0.84054 0.31989 0.26509 0.0
C675 C 0.85686 0.31349 0.26379 0.0
C676 C 0.8678 0.31953 0.25037 0.0
C677 C 0.88248 0.31216 0.24782 0.0
C678 C 0.8864 0.29858 0.25864 0.0
C679 C 0.87559 0.29284 0.27232 0.0
C680 C 0.86098 0.30019 0.27486 0.0
C681 C 0.78906 0.28265 0.23122 0.0
C682 C 0.81092 0.25652 0.26586 0.0
C683 C 0.74711 0.25369 0.26614 0.0
C684 C 0.72974 0.25762 0.26642 0.0
C685 C 0.71707 0.246 0.27483 0.0
C686 C 0.70034 0.24928 0.27475 0.0
C687 C 0.6961 0.26429 0.2663 0.0
C688 C 0.709 0.27618 0.2583 0.0
C689 C 0.72565 0.27284 0.25832 0.0
C690 C 0.79854 0.29226 0.30002 0.0
C691 C 0.77631 0.31864 0.26596 0.0
O692 O 0.82975 0.31586 0.24925 0.0
O693 O 0.83249 0.31632 0.27988 0.0
O694 O 0.79784 0.30035 0.23339 0.0
O695 O 0.79261 0.27587 0.24594 0.0
O696 O 0.81949 0.27468 0.26591 0.0
O697 O 0.79368 0.25243 0.26554 0.0
O698 O 0.75749 0.2592 0.28227 0.0
O699 O 0.75513 0.25784 0.25148 0.0
O700 O 0.78956 0.27467 0.29817 0.0
O701 O 0.79468 0.29901 0.28543 0.0
O702 O 0.7677 0.30042 0.26566 0.0
O703 O 0.79359 0.32274 0.26635 0.0
H704 H 0.8648 0.32968 0.2416 0.0
H705 H 0.89057 0.31682 0.23716 0.0
H706 H 0.87848 0.28271 0.28116 0.0
H707 H 0.85278 0.29518 0.2853 0.0
H708 H 0.72005 0.23426 0.28125 0.0
H709 H 0.69068 0.23996 0.28111 0.0
H710 H 0.70605 0.28764 0.25139 0.0
H711 H 0.7352 0.28194 0.25165 0.0
La712 La 0.06155 0.51135 0.55302 0.0
La713 La 0.05485 0.52445 0.5157 0.0
C714 C 0.06255 0.50375 0.58617 0.0
C715 C 0.05015 0.50267 0.60018 0.0
C716 C 0.04948 0.48898 0.6122 0.0
C717 C 0.03689 0.48686 0.62469 0.0
C718 C 0.02481 0.49848 0.62536 0.0
C719 C 0.02559 0.51222 0.61324 0.0
C720 C 0.03808 0.5142 0.60066 0.0
C721 C 0.06607 0.4886 0.52253 0.0
C722 C 0.0226 0.50544 0.53496 0.0
C723 C 0.04617 0.5289 0.48226 0.0
C724 C 0.05273 0.54173 0.46911 0.0
C725 C 0.04083 0.54647 0.45601 0.0
C726 C 0.04678 0.55742 0.44235 0.0
C727 C 0.06476 0.56368 0.44151 0.0
C728 C 0.07665 0.55968 0.45534 0.0
C729 C 0.07068 0.54885 0.46908 0.0
C730 C 0.06148 0.5519 0.54606 0.0
C731 C 0.09315 0.53098 0.53453 0.0
O732 O 0.05764 0.49065 0.57075 0.0
O733 O 0.06908 0.52091 0.58237 0.0
O734 O 0.07567 0.49165 0.53879 0.0
O735 O 0.05421 0.49746 0.52396 0.0
O736 O 0.03322 0.50594 0.55046 0.0
O737 O 0.02844 0.51043 0.51925 0.0
O738 O 0.04034 0.53685 0.49723 0.0
O739 O 0.05564 0.51695 0.48641 0.0
O740 O 0.06651 0.55407 0.5296 0.0
O741 O 0.05254 0.53501 0.54478 0.0
O742 O 0.08286 0.5268 0.51805 0.0
O743 O 0.08685 0.52934 0.5509 0.0
H744 H 0.05854 0.47974 0.61172 0.0
H745 H 0.03649 0.47598 0.63365 0.0
H746 H 0.0167 0.52163 0.61359 0.0
H747 H 0.03823 0.52465 0.59126 0.0
H748 H 0.02692 0.54128 0.45603 0.0
H749 H 0.0373 0.56051 0.4321 0.0
H750 H 0.09058 0.56406 0.45498 0.0
H751 H 0.08008 0.54552 0.47926 0.0
La752 La 0.77726 0.79052 0.26479 0.0
La753 La 0.81193 0.78431 0.2709 0.0
C754 C 0.74536 0.79109 0.26453 0.0
C755 C 0.73102 0.7892 0.2766 0.0
C756 C 0.7209 0.80286 0.27751 0.0
C757 C 0.70618 0.80063 0.28718 0.0
C758 C 0.70113 0.78457 0.29613 0.0
C759 C 0.71159 0.77114 0.29566 0.0
C760 C 0.72637 0.77341 0.28599 0.0
C761 C 0.80217 0.82071 0.26 0.0
C762 C 0.79627 0.79721 0.30706 0.0
C763 C 0.84384 0.7836 0.27154 0.0
C764 C 0.85818 0.78504 0.25957 0.0
C765 C 0.87198 0.77665 0.26425 0.0
C766 C 0.88642 0.77875 0.25417 0.0
C767 C 0.88745 0.78937 0.23914 0.0
C768 C 0.87335 0.79741 0.23415 0.0
C769 C 0.85885 0.79529 0.2443 0.0
C770 C 0.78696 0.75421 0.27592 0.0
C771 C 0.79325 0.77819 0.22854 0.0
O772 O 0.75819 0.80638 0.26921 0.0
O773 O 0.75089 0.77575 0.25882 0.0
O774 O 0.78712 0.81431 0.2497 0.0
O775 O 0.80277 0.81032 0.2728 0.0
O776 O 0.78117 0.79185 0.29593 0.0
O777 O 0.81102 0.79767 0.29982 0.0
O778 O 0.83099 0.76832 0.26713 0.0
O779 O 0.83831 0.79911 0.27643 0.0
O780 O 0.80207 0.76064 0.28611 0.0
O781 O 0.78637 0.7645 0.26303 0.0
O782 O 0.80822 0.78299 0.23987 0.0
O783 O 0.77842 0.77796 0.23557 0.0
H784 H 0.72419 0.81514 0.27038 0.0
H785 H 0.6987 0.81147 0.28753 0.0
H786 H 0.70806 0.75853 0.30226 0.0
H787 H 0.7339 0.7626 0.2855 0.0
H788 H 0.8717 0.76864 0.27594 0.0
H789 H 0.8968 0.77202 0.25818 0.0
H790 H 0.87371 0.80577 0.22274 0.0
H791 H 0.84833 0.80189 0.24044 0.0
La792 La 0.79526 0.28411 0.74618 0.0
La793 La 0.79251 0.30008 0.78873 0.0
C794 C 0.7955 0.27711 0.7107 0.0
C795 C 0.79397 0.28775 0.69502 0.0
C796 C 0.79677 0.28 0.67675 0.0
C797 C 0.79568 0.29025 0.66176 0.0
C798 C 0.79177 0.30838 0.66491 0.0
C799 C 0.78884 0.31598 0.68329 0.0
C800 C 0.78997 0.30575 0.69824 0.0
C801 C 0.81709 0.27649 0.77274 0.0
C802 C 0.81057 0.32813 0.76332 0.0
C803 C 0.79841 0.30871 0.82439 0.0
C804 C 0.78875 0.30423 0.84037 0.0
C805 C 0.79169 0.31762 0.8573 0.0
C806 C 0.78427 0.31258 0.87341 0.0
C807 C 0.77399 0.29394 0.87287 0.0
C808 C 0.7702 0.28102 0.85541 0.0
C809 C 0.77741 0.28617 0.83929 0.0
C810 C 0.76515 0.30262 0.76506 0.0
C811 C 0.77163 0.2582 0.76968 0.0
O812 O 0.80966 0.28376 0.72298 0.0
O813 O 0.78143 0.27267 0.71904 0.0
O814 O 0.81047 0.26506 0.75682 0.0
O815 O 0.81213 0.29184 0.77283 0.0
O816 O 0.80345 0.31529 0.74785 0.0
O817 O 0.81003 0.32414 0.78076 0.0
O818 O 0.79247 0.31962 0.81357 0.0
O819 O 0.80287 0.29416 0.81447 0.0
O820 O 0.76672 0.30725 0.78351 0.0
O821 O 0.77857 0.29703 0.76159 0.0
O822 O 0.77951 0.26973 0.78573 0.0
O823 O 0.77422 0.26221 0.7525 0.0
H824 H 0.79994 0.26612 0.67411 0.0
H825 H 0.79821 0.28414 0.64781 0.0
H826 H 0.78558 0.3298 0.68609 0.0
H827 H 0.78777 0.31192 0.71229 0.0
H828 H 0.80024 0.33174 0.85826 0.0
H829 H 0.78718 0.32302 0.88649 0.0
H830 H 0.76256 0.26647 0.85438 0.0
H831 H 0.77478 0.27568 0.82625 0.0
La832 La 0.80858 0.80659 0.77722 0.0
La833 La 0.78252 0.77104 0.75887 0.0
C834 C 0.82463 0.84118 0.78743 0.0
C835 C 0.81784 0.85853 0.78942 0.0
C836 C 0.8254 0.87419 0.804 0.0
C837 C 0.81744 0.8896 0.80737 0.0
C838 C 0.80171 0.88922 0.79639 0.0
C839 C 0.79451 0.87382 0.78146 0.0
C840 C 0.80255 0.85866 0.77793 0.0
C841 C 0.80407 0.77924 0.79819 0.0
C842 C 0.76781 0.80336 0.77865 0.0
C843 C 0.76618 0.73677 0.74732 0.0
C844 C 0.77278 0.71961 0.74174 0.0
C845 C 0.76622 0.70756 0.7241 0.0
C846 C 0.77439 0.6931 0.71729 0.0
C847 C 0.78915 0.6907 0.72811 0.0
C848 C 0.79531 0.70224 0.74599 0.0
C849 C 0.78722 0.71662 0.75276 0.0
C850 C 0.78708 0.79879 0.73834 0.0
C851 C 0.82326 0.77401 0.75723 0.0
O852 O 0.81972 0.8297 0.79946 0.0
O853 O 0.82313 0.83182 0.76997 0.0
O854 O 0.81888 0.79109 0.79784 0.0
O855 O 0.79236 0.78364 0.78778 0.0
O856 O 0.78346 0.81464 0.77884 0.0
O857 O 0.76475 0.7846 0.77346 0.0
O858 O 0.76914 0.74954 0.73611 0.0
O859 O 0.76967 0.74465 0.76541 0.0
O860 O 0.77216 0.7873 0.73897 0.0
O861 O 0.79875 0.79395 0.74835 0.0
O862 O 0.80745 0.76281 0.75628 0.0
O863 O 0.82661 0.79265 0.76348 0.0
H864 H 0.83714 0.87424 0.81306 0.0
H865 H 0.8232 0.90143 0.81891 0.0
H866 H 0.78252 0.87339 0.77263 0.0
H867 H 0.79649 0.84678 0.76654 0.0
H868 H 0.75522 0.70982 0.71532 0.0
H869 H 0.76953 0.68421 0.70345 0.0
H870 H 0.80672 0.70049 0.75446 0.0
H871 H 0.79273 0.72584 0.76629 0.0
La872 La 0.52492 0.52362 0.50641 0.0
La873 La 0.56037 0.54932 0.52681 0.0
C874 C 0.49281 0.50869 0.49997 0.0
C875 C 0.47814 0.51763 0.50284 0.0
C876 C 0.46294 0.51168 0.48973 0.0
C877 C 0.45045 0.52261 0.48993 0.0
C878 C 0.45302 0.53968 0.50325 0.0
C879 C 0.46789 0.54501 0.51698 0.0
C880 C 0.4804 0.53417 0.51667 0.0
C881 C 0.54945 0.52351 0.48195 0.0
C882 C 0.53417 0.56847 0.50518 0.0
C883 C 0.59205 0.56658 0.53299 0.0
C884 C 0.60768 0.56239 0.5257 0.0
C885 C 0.62411 0.57424 0.53304 0.0
C886 C 0.63911 0.5696 0.52683 0.0
C887 C 0.63779 0.55312 0.51311 0.0
C888 C 0.62122 0.5416 0.50542 0.0
C889 C 0.60627 0.54614 0.51178 0.0
C890 C 0.53584 0.54955 0.55124 0.0
C891 C 0.55141 0.50405 0.5268 0.0
O892 O 0.50209 0.51507 0.48699 0.0
O893 O 0.50258 0.50761 0.51543 0.0
O894 O 0.53342 0.51358 0.47876 0.0
O895 O 0.5511 0.53224 0.49915 0.0
O896 O 0.52182 0.55251 0.50375 0.0
O897 O 0.55044 0.56984 0.51236 0.0
O898 O 0.58459 0.55466 0.54358 0.0
O899 O 0.58076 0.57029 0.52037 0.0
O900 O 0.55195 0.55918 0.5546 0.0
O901 O 0.53428 0.54089 0.53404 0.0
O902 O 0.56361 0.52026 0.5285 0.0
O903 O 0.53504 0.50242 0.51964 0.0
H904 H 0.46116 0.49915 0.47873 0.0
H905 H 0.43924 0.51821 0.47904 0.0
H906 H 0.47013 0.55788 0.52763 0.0
H907 H 0.49222 0.53924 0.52669 0.0
H908 H 0.62535 0.58684 0.5438 0.0
H909 H 0.65175 0.57873 0.53292 0.0
H910 H 0.61984 0.52865 0.49507 0.0
H911 H 0.59363 0.53675 0.50615 0.0
La912 La 0.06221 0.53675 0.01818 0.0
La913 La 0.02287 0.53122 0.0085 0.0
C914 C 0.09257 0.53548 0.03123 0.0
C915 C 0.10476 0.52272 0.03095 0.0
C916 C 0.10707 0.51153 0.01398 0.0
C917 C 0.12016 0.50129 0.0139 0.0
C918 C 0.13117 0.50205 0.03078 0.0
C919 C 0.12831 0.5127 0.04784 0.0
C920 C 0.11528 0.52293 0.0479 0.0
C921 C 0.05121 0.5429 0.9843 0.0
C922 C 0.03804 0.49502 1.00017 0.0
C923 C 0.99303 0.5333 0.99458 0.0
C924 C 0.9801 0.54514 0.99747 0.0
C925 C 0.96802 0.54156 0.01055 0.0
C926 C 0.95473 0.55139 0.01186 0.0
C927 C 0.95309 0.56501 1.00008 0.0
C928 C 0.96536 0.56884 0.98723 0.0
C929 C 0.97866 0.55897 0.98589 0.0
C930 C 0.03316 0.52454 0.04225 0.0
C931 C 0.04711 0.57306 0.02701 0.0
O932 O 0.08887 0.5417 0.01541 0.0
O933 O 0.0789 0.53105 0.04016 0.0
O934 O 0.06573 0.55273 0.99425 0.0
O935 O 0.04417 0.53 0.99291 0.0
O936 O 0.0528 0.50516 0.01066 0.0
O937 O 0.02547 0.50328 0.99484 0.0
O938 O 0.9957 0.52288 0.00758 0.0
O939 O 0.00755 0.54108 0.98835 0.0
O940 O 0.01826 0.51581 0.03241 0.0
O941 O 0.0408 0.5375 0.03395 0.0
O942 O 0.03188 0.56265 0.01778 0.0
O943 O 0.06035 0.56525 0.03095 0.0
H944 H 0.0991 0.51111 1.0007 0.0
H945 H 0.12204 0.49334 1.00048 0.0
H946 H 0.13628 0.5133 0.06118 0.0
H947 H 0.11369 0.53142 0.06116 0.0
H948 H 0.96854 0.53078 0.01947 0.0
H949 H 0.94537 0.54782 0.0217 0.0
H950 H 0.96464 0.57938 0.97808 0.0
H951 H 0.98762 0.56192 0.97551 0.0
C952 C 1.00216 0.21462 0.95273 0.0
C953 C 0.00582 0.21676 0.93413 0.0
C954 C 1.00394 0.19814 0.9601 0.0
C955 C 0.0269 0.15879 0.95396 0.0
H956 H 0.99424 0.1353 0.98585 0.0
C957 C 0.04234 0.10272 0.99837 0.0
C958 C 0.02898 0.08641 0.99881 0.0
C959 C 0.03877 0.11822 0.99044 0.0
C960 C 1.00343 0.1416 0.97688 0.0
H961 H 0.01399 0.20293 0.90861 0.0
H962 H 0.0171 0.17426 0.92144 0.0
H963 H 0.98906 0.16259 0.97162 0.0
H964 H 1.00121 0.07397 0.9915 0.0
H965 H 0.99499 0.10111 0.97769 0.0
H966 H 0.04124 0.13782 0.95912 0.0
C967 C 0.01298 0.18541 0.93042 0.0
C968 C 1.00055 0.15738 0.96885 0.0
C969 C 0.01109 0.20184 0.92301 0.0
C970 C 0.01185 0.08625 0.99142 0.0
C971 C 0.00826 0.10186 0.98356 0.0
C972 C 0.02984 0.14313 0.96207 0.0
C973 C 0.00955 0.18338 0.94912 0.0
C974 C 0.01228 0.16623 0.95732 0.0
C975 C 0.02172 0.11796 0.98275 0.0
C976 C 0.01821 0.13436 0.97373 0.0
H977 H 0.99807 0.22578 0.96174 0.0
H978 H 1.00135 0.19721 0.97461 0.0
H979 H 0.03632 0.1653 0.94533 0.0
H980 H 0.05569 0.10349 1.00392 0.0
H981 H 0.04943 0.13048 0.99038 0.0
C982 C 0.13275 0.81423 0.16318 0.0
C983 C 0.11899 0.79767 0.16028 0.0
C984 C 0.1494 0.81402 0.1717 0.0
C985 C 0.17743 0.78081 0.18273 0.0
H986 H 0.20199 0.82331 0.22219 0.0
C987 C 0.24553 0.78354 0.22409 0.0
C988 C 0.24675 0.78898 0.24398 0.0
C989 C 0.23113 0.78548 0.21208 0.0
C990 C 0.19534 0.81132 0.21117 0.0
H991 H 0.11215 0.76785 0.16398 0.0
H992 H 0.14092 0.76753 0.17876 0.0
H993 H 0.17456 0.82486 0.20473 0.0
H994 H 0.23398 0.80091 0.26683 0.0
H995 H 0.20922 0.80434 0.24615 0.0
H996 H 0.19802 0.76706 0.1896 0.0
C997 C 0.13897 0.78066 0.17433 0.0
C998 C 0.17965 0.81229 0.20102 0.0
C999 C 0.12237 0.78091 0.16598 0.0
C1000 C 0.23347 0.79659 0.25156 0.0
C1001 C 0.21929 0.7987 0.23966 0.0
C1002 C 0.1932 0.7799 0.1928 0.0
C1003 C 0.15274 0.79719 0.17735 0.0
C1004 C 0.17028 0.79689 0.18692 0.0
C1005 C 0.21784 0.79315 0.21976 0.0
C1006 C 0.20218 0.79497 0.20745 0.0
H1007 H 0.13067 0.82738 0.15891 0.0
H1008 H 0.15971 0.827 0.17368 0.0
H1009 H 0.17071 0.76878 0.17179 0.0
H1010 H 0.25558 0.77766 0.21785 0.0
H1011 H 0.23046 0.78112 0.1968 0.0
C1012 C 0.51195 0.82213 0.43521 0.0
C1013 C 0.52722 0.81539 0.43394 0.0
C1014 C 0.51279 0.84103 0.44386 0.0
C1015 C 0.54373 0.88894 0.45652 0.0
H1016 H 0.5081 0.90193 0.48625 0.0
C1017 C 0.54968 0.96615 0.4962 0.0
C1018 C 0.53456 0.97333 0.49535 0.0
C1019 C 0.54876 0.94672 0.48967 0.0
C1020 C 0.51808 0.89857 0.47784 0.0
H1021 H 0.55532 0.82316 0.44143 0.0
H1022 H 0.55676 0.85589 0.45677 0.0
H1023 H 0.50655 0.86835 0.47351 0.0
H1024 H 0.50654 0.96545 0.48712 0.0
H1025 H 0.50497 0.93162 0.47565 0.0
H1026 H 0.55523 0.91913 0.4608 0.0
C1027 C 0.54413 0.84673 0.45072 0.0
C1028 C 0.51719 0.87929 0.47051 0.0
C1029 C 0.54329 0.82786 0.44203 0.0
C1030 C 0.51846 0.96047 0.48803 0.0
C1031 C 0.51754 0.94101 0.48154 0.0
C1032 C 0.54463 0.90819 0.46388 0.0
C1033 C 0.52893 0.85369 0.4515 0.0
C1034 C 0.52999 0.8742 0.45972 0.0
C1035 C 0.53269 0.93389 0.48214 0.0
C1036 C 0.53181 0.91329 0.4746 0.0
H1037 H 0.49934 0.81296 0.42908 0.0
H1038 H 0.50082 0.84589 0.444 0.0
H1039 H 0.55364 0.88568 0.44797 0.0
H1040 H 0.56231 0.97556 0.50181 0.0
H1041 H 0.56066 0.94172 0.49061 0.0
C1042 C 0.5278 0.30906 0.667 0.0
C1043 C 0.52632 0.30945 0.64729 0.0
C1044 C 0.51319 0.30827 0.67685 0.0
C1045 C 0.4685 0.3169 0.67344 0.0
H1046 H 0.46135 0.28283 0.71057 0.0
C1047 C 0.40314 0.2976 0.70523 0.0
C1048 C 0.40402 0.29553 0.72456 0.0
C1049 C 0.41824 0.30021 0.6961 0.0
C1050 C 0.46323 0.29262 0.70043 0.0
H1051 H 0.50827 0.30954 0.62257 0.0
H1052 H 0.48293 0.30803 0.63964 0.0
H1053 H 0.48741 0.28592 0.69449 0.0
H1054 H 0.42166 0.29549 0.74962 0.0
H1055 H 0.44784 0.3001 0.73381 0.0
H1056 H 0.44426 0.32354 0.67934 0.0
C1057 C 0.49538 0.30854 0.64758 0.0
C1058 C 0.47822 0.2944 0.6912 0.0
C1059 C 0.50994 0.30928 0.63775 0.0
C1060 C 0.42042 0.29661 0.73461 0.0
C1061 C 0.43547 0.29924 0.72552 0.0
C1062 C 0.4535 0.31514 0.68269 0.0
C1063 C 0.49676 0.30791 0.66725 0.0
C1064 C 0.48104 0.30651 0.67753 0.0
C1065 C 0.43459 0.30087 0.70609 0.0
C1066 C 0.45063 0.30294 0.69629 0.0
H1067 H 0.54022 0.30922 0.67481 0.0
H1068 H 0.5148 0.30803 0.69204 0.0
H1069 H 0.47034 0.32658 0.6632 0.0
H1070 H 0.39073 0.29669 0.69701 0.0
H1071 H 0.417 0.30121 0.68108 0.0
C1072 C 0.00933 0.79418 0.61637 0.0
C1073 C 0.01383 0.79875 0.63629 0.0
C1074 C 0.01226 0.80853 0.60511 0.0
C1075 C 0.03848 0.8573 0.60499 0.0
H1076 H 1.0022 0.8585 0.56524 0.0
C1077 C 0.04086 0.92229 0.56638 0.0
C1078 C 0.03489 0.9186 0.54673 0.0
C1079 C 0.03884 0.90736 0.57696 0.0
C1080 C 0.01257 0.85823 0.57609 0.0
H1081 H 0.02499 0.82197 0.66 0.0
H1082 H 0.03006 0.84697 0.64034 0.0
H1083 H 0.99764 0.83292 0.58424 0.0
H1084 H 0.02213 0.89627 0.5228 0.0
H1085 H 0.01903 0.87019 0.54115 0.0
H1086 H 0.05344 0.88257 0.59684 0.0
C1087 C 0.02439 0.83227 0.63343 0.0
C1088 C 0.00993 0.84358 0.587 0.0
C1089 C 0.02138 0.81795 0.64469 0.0
C1090 C 0.02705 0.8996 0.53787 0.0
C1091 C 0.02507 0.88467 0.54844 0.0
C1092 C 0.04115 0.87191 0.59404 0.0
C1093 C 0.01983 0.82772 0.61352 0.0
C1094 C 0.02282 0.84301 0.60163 0.0
C1095 C 0.03082 0.88839 0.56814 0.0
C1096 C 0.02819 0.8726 0.57951 0.0
H1097 H 1.00352 0.77952 0.60945 0.0
H1098 H 0.00876 0.80456 0.58979 0.0
H1099 H 0.04875 0.85709 0.61599 0.0
H1100 H 0.04714 0.93673 0.5736 0.0
H1101 H 0.04327 0.91077 0.59214 0.0
C1102 C 0.53027 0.77634 0.81151 0.0
C1103 C 0.5408 0.79471 0.81905 0.0
C1104 C 0.51466 0.77428 0.7997 0.0
C1105 C 0.48937 0.80073 0.77155 0.0
H1106 H 0.44935 0.76963 0.78882 0.0
C1107 C 0.42214 0.81758 0.76718 0.0
C1108 C 0.40707 0.80253 0.76433 0.0
C1109 C 0.43864 0.8137 0.76846 0.0
C1110 C 0.46035 0.77803 0.78346 0.0
H1111 H 0.54374 0.82524 0.81928 0.0
H1112 H 0.51658 0.82166 0.79891 0.0
H1113 H 0.47857 0.76782 0.80072 0.0
H1114 H 0.39748 0.77154 0.75938 0.0
H1115 H 0.42639 0.76479 0.76181 0.0
H1116 H 0.4711 0.81161 0.75498 0.0
C1117 C 0.52036 0.80883 0.80195 0.0
C1118 C 0.47713 0.77698 0.79028 0.0
C1119 C 0.53587 0.81088 0.8138 0.0
C1120 C 0.40886 0.78346 0.76194 0.0
C1121 C 0.42539 0.77959 0.76327 0.0
C1122 C 0.47259 0.80178 0.76473 0.0
C1123 C 0.50939 0.79054 0.79511 0.0
C1124 C 0.49181 0.78884 0.78494 0.0
C1125 C 0.44045 0.7947 0.76694 0.0
C1126 C 0.45794 0.79095 0.77115 0.0
H1127 H 0.53377 0.76359 0.81523 0.0
H1128 H 0.50652 0.76 0.7945 0.0
H1129 H 0.50045 0.80979 0.76692 0.0
H1130 H 0.42123 0.83242 0.76933 0.0
H1131 H 0.44998 0.82569 0.77162 0.0
C1132 C 0.48873 0.19662 0.09299 0.0
C1133 C 0.49092 0.20075 0.11304 0.0
C1134 C 0.49021 0.17884 0.08353 0.0
C1135 C 0.51088 0.13955 0.09127 0.0
H1136 H 0.48131 0.11216 0.0448 0.0
C1137 C 0.49792 0.06222 0.03759 0.0
C1138 C 0.51522 0.0618 0.03519 0.0
C1139 C 0.49412 0.07874 0.04722 0.0
C1140 C 0.48958 0.11958 0.05785 0.0
H1141 H 0.49557 0.18917 0.13889 0.0
H1142 H 0.49796 0.15818 0.1224 0.0
H1143 H 0.47537 0.14155 0.06153 0.0
H1144 H 0.54209 0.0782 0.04066 0.0
H1145 H 0.53549 0.10706 0.0575 0.0
H1146 H 0.52503 0.1176 0.08771 0.0
C1147 C 0.49544 0.16878 0.11399 0.0
C1148 C 0.48628 0.13648 0.06731 0.0
C1149 C 0.49399 0.18652 0.12342 0.0
C1150 C 0.52866 0.07812 0.04251 0.0
C1151 C 0.52488 0.0946 0.05218 0.0
C1152 C 0.5142 0.12273 0.0818 0.0
C1153 C 0.49389 0.16488 0.09397 0.0
C1154 C 0.49694 0.14666 0.0841 0.0
C1155 C 0.50757 0.09508 0.05464 0.0
C1156 C 0.50365 0.11263 0.06494 0.0
H1157 H 0.48634 0.20729 0.08459 0.0
H1158 H 0.48907 0.17629 0.06808 0.0
H1159 H 0.51946 0.14719 0.10405 0.0
H1160 H 0.48735 0.04975 0.03212 0.0
H1161 H 0.48069 0.07865 0.04909 0.0
C1162 C 0.1239 0.32798 0.32304 0.0
C1163 C 0.12524 0.32674 0.34254 0.0
C1164 C 0.13884 0.33179 0.31398 0.0
C1165 C 0.1876 0.34505 0.32259 0.0
H1166 H 0.18272 0.31005 0.27473 0.0
C1167 C 0.24739 0.33124 0.28718 0.0
C1168 C 0.24673 0.31165 0.28147 0.0
C1169 C 0.23243 0.33715 0.29183 0.0
C1170 C 0.1843 0.31997 0.28804 0.0
H1171 H 0.14319 0.32948 0.36811 0.0
H1172 H 0.16926 0.33524 0.35218 0.0
H1173 H 0.15691 0.31391 0.28912 0.0
H1174 H 0.22978 0.28295 0.27584 0.0
H1175 H 0.20398 0.29314 0.28441 0.0
H1176 H 0.21517 0.34989 0.32213 0.0
C1177 C 0.15675 0.3338 0.34391 0.0
C1178 C 0.16947 0.32241 0.2962 0.0
C1179 C 0.1418 0.3303 0.35304 0.0
C1180 C 0.23077 0.29815 0.28018 0.0
C1181 C 0.2159 0.30404 0.2849 0.0
C1182 C 0.20249 0.34246 0.31449 0.0
C1183 C 0.15542 0.33409 0.32415 0.0
C1184 C 0.17096 0.33445 0.31393 0.0
C1185 C 0.21657 0.32357 0.29093 0.0
C1186 C 0.20098 0.32929 0.29752 0.0
H1187 H 0.11127 0.32566 0.31469 0.0
H1188 H 0.13736 0.33237 0.29886 0.0
H1189 H 0.18918 0.35475 0.33605 0.0
H1190 H 0.2595 0.34197 0.28841 0.0
H1191 H 0.23329 0.3523 0.29631 0.0
C1192 C 0.96768 0.07774 0.20332 0.0
C1193 C 0.95273 0.06478 0.20716 0.0
C1194 C 0.9748 0.07514 0.1859 0.0
C1195 C 0.97468 0.03921 0.14068 0.0
H1196 H 0.99877 0.08513 0.12374 0.0
C1197 C 0.00684 0.03759 0.06721 0.0
C1198 C 0.0226 0.05138 0.06734 0.0
C1199 C 0.99698 0.0382 0.08308 0.0
C1200 C 0.99236 0.07197 0.12816 0.0
H1201 H 0.93387 0.03839 0.19457 0.0
H1202 H 0.94616 0.03386 0.16415 0.0
H1203 H 0.98479 0.08784 0.15248 0.0
H1204 H 0.03983 0.07664 0.08486 0.0
H1205 H 0.02316 0.07774 0.11158 0.0
H1206 H 0.98231 0.02343 0.11596 0.0
C1207 C 0.95253 0.04619 0.1749 0.0
C1208 C 0.9842 0.07355 0.145 0.0
C1209 C 0.94532 0.04883 0.19251 0.0
C1210 C 0.0278 0.06576 0.0838 0.0
C1211 C 0.01802 0.06647 0.09937 0.0
C1212 C 0.98288 0.03763 0.12368 0.0
C1213 C 0.96742 0.05941 0.17105 0.0
C1214 C 0.97535 0.05726 0.15201 0.0
C1215 C 1.00236 0.05275 0.09961 0.0
C1216 C 0.99221 0.054 0.11712 0.0
H1217 H 0.97411 0.09017 0.21394 0.0
H1218 H 0.98642 0.08557 0.18429 0.0
H1219 H 0.96819 0.02614 0.14519 0.0
H1220 H 1.00231 0.02609 0.05509 0.0
H1221 H 0.98505 0.02728 0.08231 0.0
C1222 C 0.25831 0.67547 0.46718 0.0
C1223 C 0.25792 0.6803 0.48688 0.0
C1224 C 0.25042 0.68481 0.45444 0.0
C1225 C 0.24361 0.73066 0.45033 0.0
H1226 H 0.21525 0.7044 0.40275 0.0
C1227 C 0.24261 0.76975 0.38704 0.0
C1228 C 0.24619 0.75898 0.37048 0.0
C1229 C 0.23648 0.76064 0.4019 0.0
C1230 C 0.22312 0.712 0.41598 0.0
H1231 H 0.24881 0.69844 0.50876 0.0
H1232 H 0.23562 0.71545 0.48633 0.0
H1233 H 0.21944 0.68652 0.42856 0.0
H1234 H 0.24509 0.73022 0.35592 0.0
H1235 H 0.23497 0.71445 0.38176 0.0
H1236 H 0.24884 0.75565 0.43738 0.0
C1237 C 0.24171 0.70413 0.48086 0.0
C1238 C 0.2254 0.70177 0.43075 0.0
C1239 C 0.24927 0.69445 0.49361 0.0
C1240 C 0.2423 0.73889 0.36844 0.0
C1241 C 0.23638 0.72982 0.38332 0.0
C1242 C 0.24162 0.74082 0.43545 0.0
C1243 C 0.2423 0.6994 0.46118 0.0
C1244 C 0.23627 0.71087 0.4477 0.0
C1245 C 0.23408 0.74064 0.40056 0.0
C1246 C 0.23206 0.73137 0.41775 0.0
H1247 H 0.26478 0.66451 0.46162 0.0
H1248 H 0.25127 0.68115 0.43933 0.0
H1249 H 0.25213 0.73794 0.46328 0.0
H1250 H 0.24527 0.78527 0.38882 0.0
H1251 H 0.23447 0.76938 0.41479 0.0
C1252 C 0.63859 0.01773 0.68039 0.0
C1253 C 0.63255 1.0041 0.69186 0.0
C1254 C 0.62873 0.01813 0.66335 0.0
C1255 C 0.59362 0.99106 0.6262 0.0
H1256 H 0.58573 0.04138 0.62218 0.0
C1257 C 0.54411 1.00341 0.56738 0.0
C1258 C 0.5489 0.02022 0.55962 0.0
C1259 C 0.5544 1.00048 0.5831 0.0
C1260 C 0.58799 0.02729 0.62289 0.0
H1261 H 0.61193 0.97945 0.69386 0.0
H1262 H 0.5947 0.98012 0.66383 0.0
H1263 H 0.60402 0.03736 0.64978 0.0
H1264 H 0.56787 0.04731 0.56225 0.0
H1265 H 0.58628 0.04191 0.5891 0.0
H1266 H 0.57778 0.98103 0.59912 0.0
C1267 C 0.60706 0.99051 0.66819 0.0
C1268 C 0.59843 0.02499 0.63874 0.0
C1269 C 0.6169 0.99018 0.68537 0.0
C1270 C 0.5641 0.03405 0.56776 0.0
C1271 C 0.57448 0.03106 0.58332 0.0
C1272 C 0.58328 0.99339 0.61018 0.0
C1273 C 0.61269 1.00485 0.65734 0.0
C1274 C 0.60142 1.0069 0.64049 0.0
C1275 C 0.56969 0.01431 0.59128 0.0
C1276 C 0.58044 0.01158 0.60832 0.0
H1277 H 0.65066 0.02857 0.68486 0.0
H1278 H 0.63348 0.02914 0.65506 0.0
H1279 H 0.59579 0.97698 0.62724 0.0
H1280 H 0.53237 0.99256 0.56136 0.0
H1281 H 0.55021 0.98755 0.58904 0.0
C1282 C 0.29887 0.36331 0.97368 0.0
C1283 C 0.31535 0.36782 0.98468 0.0
C1284 C 0.29667 0.35461 0.95446 0.0
C1285 C 0.32166 0.34883 0.91363 0.0
H1286 H 0.28086 0.30883 0.89084 0.0
C1287 C 0.31577 0.30923 0.83604 0.0
C1288 C 0.2994 0.30496 0.82487 0.0
C1289 C 0.31756 0.31617 0.85566 0.0
C1290 C 0.29224 0.32015 0.89692 0.0
H1291 H 0.34231 0.36615 0.98416 0.0
H1292 H 0.33843 0.35091 0.9508 0.0
H1293 H 0.28411 0.32198 0.92484 0.0
H1294 H 0.27202 0.30464 0.82575 0.0
H1295 H 0.27521 0.317 0.85982 0.0
H1296 H 0.32973 0.34723 0.88576 0.0
C1297 C 0.32725 0.35435 0.95693 0.0
C1298 C 0.29411 0.32766 0.91643 0.0
C1299 C 0.32945 0.36298 0.97613 0.0
C1300 C 0.28484 0.30771 0.83387 0.0
C1301 C 0.28664 0.3147 0.85348 0.0
C1302 C 0.31977 0.34138 0.89413 0.0
C1303 C 0.3109 0.35028 0.94577 0.0
C1304 C 0.30886 0.34209 0.92504 0.0
C1305 C 0.30304 0.31909 0.86464 0.0
C1306 C 0.30504 0.32692 0.88549 0.0
H1307 H 0.28773 0.36686 0.9798 0.0
H1308 H 0.28391 0.3518 0.94626 0.0
H1309 H 0.33303 0.36018 0.9197 0.0
H1310 H 0.32726 0.3072 0.82966 0.0
H1311 H 0.33034 0.31908 0.86382 0.0
C1312 C 0.95702 0.03492 0.31505 0.0
C1313 C 0.95167 0.05115 0.31011 0.0
C1314 C 0.96543 0.03494 0.33336 0.0
C1315 C 0.97602 0.06212 0.38476 0.0
H1316 H 0.00695 0.0279 0.38864 0.0
C1317 C 0.01745 0.05998 0.45809 0.0
C1318 C 0.02024 0.04211 0.46163 0.0
C1319 C 0.0094 0.06204 0.44011 0.0
C1320 C 0.99822 0.03743 0.38809 0.0
H1321 H 0.95133 0.08038 0.3217 0.0
H1322 H 0.96632 0.08064 0.35356 0.0
H1323 H 0.99317 0.0301 0.35758 0.0
H1324 H 0.0164 0.01241 0.4482 0.0
H1325 H 1.0027 0.01592 0.41738 0.0
H1326 H 0.98149 0.06962 0.41547 0.0
C1327 C 0.96376 0.0676 0.34312 0.0
C1328 C 0.99012 0.03869 0.36996 0.0
C1329 C 0.95518 0.06754 0.32462 0.0
C1330 C 0.01469 0.02647 0.44634 0.0
C1331 C 0.00681 0.02855 0.42839 0.0
C1332 C 0.98427 0.06094 0.40297 0.0
C1333 C 0.96919 0.05127 0.34794 0.0
C1334 C 0.97858 0.05086 0.36774 0.0
C1335 C 1.00394 0.04636 0.42475 0.0
C1336 C 0.99543 0.04837 0.40512 0.0
H1337 H 0.95455 0.02181 0.30469 0.0
H1338 H 0.9687 0.02177 0.33606 0.0
H1339 H 0.96727 0.07162 0.38416 0.0
H1340 H 0.02144 0.07248 0.46927 0.0
H1341 H 0.00772 0.07609 0.43819 0.0
C1342 C 0.30121 0.71436 0.56612 0.0
C1343 C 0.29864 0.69427 0.56283 0.0
C1344 C 0.29954 0.72412 0.58401 0.0
C1345 C 0.29934 0.71903 0.63472 0.0
H1346 H 0.27424 0.75944 0.63708 0.0
C1347 C 0.28315 0.75372 0.70614 0.0
C1348 C 0.28758 0.77388 0.70966 0.0
C1349 C 0.28244 0.74366 0.68772 0.0
C1350 C 0.28134 0.74824 0.63663 0.0
H1351 H 0.2927 0.66873 0.57587 0.0
H1352 H 0.28971 0.68572 0.60692 0.0
H1353 H 0.27841 0.74293 0.60607 0.0
H1354 H 0.29349 0.79936 0.69661 0.0
H1355 H 0.29233 0.7818 0.66444 0.0
H1356 H 0.30238 0.72436 0.66523 0.0
C1357 C 0.29315 0.69397 0.59577 0.0
C1358 C 0.2838 0.73886 0.61889 0.0
C1359 C 0.29481 0.68422 0.57792 0.0
C1360 C 0.29011 0.7838 0.69428 0.0
C1361 C 0.28939 0.77374 0.67585 0.0
C1362 C 0.29686 0.72837 0.65242 0.0
C1363 C 0.29531 0.71399 0.59896 0.0
C1364 C 0.29286 0.72417 0.61776 0.0
C1365 C 0.2861 0.75359 0.6725 0.0
C1366 C 0.28785 0.74309 0.65358 0.0
H1367 H 0.30419 0.72252 0.55479 0.0
H1368 H 0.30154 0.7396 0.58612 0.0
H1369 H 0.3066 0.70797 0.63434 0.0
H1370 H 0.28099 0.74573 0.71774 0.0
H1371 H 0.27953 0.72812 0.68549 0.0
C1372 C 0.64643 0.03607 0.813 0.0
C1373 C 0.64085 0.02695 0.79399 0.0
C1374 C 0.63542 0.03321 0.827 0.0
C1375 C 0.58944 0.01678 0.83438 0.0
H1376 H 0.6098 0.00766 0.88264 0.0
C1377 C 0.54833 0.99003 0.89236 0.0
C1378 C 0.55475 0.99868 0.91135 0.0
C1379 C 0.55843 0.99379 0.87768 0.0
C1380 C 0.60396 0.01039 0.86932 0.0
H1381 H 0.61921 0.008 0.77463 0.0
H1382 H 0.6 1.00283 0.7992 0.0
H1383 H 0.62811 0.01399 0.85764 0.0
H1384 H 0.57648 0.01858 0.92978 0.0
H1385 H 0.59408 0.02503 0.90423 0.0
H1386 H 0.56522 0.01307 0.84614 0.0
C1387 C 0.61285 0.01233 0.80321 0.0
C1388 C 0.61445 0.01403 0.85501 0.0
C1389 C 0.62388 0.01521 0.78918 0.0
C1390 C 0.57135 0.01133 0.91534 0.0
C1391 C 0.58141 0.01507 0.90071 0.0
C1392 C 0.57891 0.01311 0.84873 0.0
C1393 C 0.61859 0.02114 0.8223 0.0
C1394 C 0.60732 0.01732 0.83742 0.0
C1395 C 0.57511 1.00627 0.88174 0.0
C1396 C 0.5861 0.00994 0.86636 0.0
H1397 H 0.65938 0.04533 0.81714 0.0
H1398 H 0.64009 0.04045 0.84154 0.0
H1399 H 0.58363 0.01946 0.82102 0.0
H1400 H 0.53561 0.98016 0.88889 0.0
H1401 H 0.55331 0.98666 0.8632 0.0
C1402 C 0.27855 0.36164 0.08801 0.0
C1403 C 0.29442 0.37129 0.08287 0.0
C1404 C 0.27809 0.35415 0.10498 0.0
C1405 C 0.30305 0.35848 0.15253 0.0
H1406 H 0.27168 0.30924 0.1528 0.0
C1407 C 0.30157 0.31917 0.21826 0.0
C1408 C 0.28515 0.30925 0.2218 0.0
C1409 C 0.30327 0.32744 0.20174 0.0
C1410 C 0.28036 0.32313 0.15306 0.0
H1411 H 0.32233 0.38053 0.09163 0.0
H1412 H 0.32155 0.36729 0.12122 0.0
H1413 H 0.27378 0.32178 0.12308 0.0
H1414 H 0.25757 0.3009 0.21132 0.0
H1415 H 0.26044 0.31548 0.18275 0.0
H1416 H 0.30958 0.35978 0.1826 0.0
C1417 C 0.30941 0.3657 0.11217 0.0
C1418 C 0.28159 0.33032 0.13598 0.0
C1419 C 0.30987 0.37317 0.09513 0.0
C1420 C 0.27042 0.30831 0.20888 0.0
C1421 C 0.27209 0.31656 0.19243 0.0
C1422 C 0.30182 0.35127 0.16967 0.0
C1423 C 0.2935 0.35609 0.11732 0.0
C1424 C 0.29282 0.34817 0.13548 0.0
C1425 C 0.28857 0.32594 0.18843 0.0
C1426 C 0.29033 0.33357 0.17019 0.0
H1427 H 0.26638 0.35997 0.07899 0.0
H1428 H 0.26557 0.3471 0.10858 0.0
H1429 H 0.3117 0.37237 0.15273 0.0
H1430 H 0.31316 0.32008 0.22797 0.0
H1431 H 0.31616 0.33446 0.1991 0.0
C1432 C 0.24317 0.95161 0.98819 0.0
C1433 C 0.26032 0.96207 0.9881 0.0
C1434 C 0.2297 0.96106 0.98993 0.0
C1435 C 0.22218 0.00848 0.00768 0.0
H1436 H 0.17577 0.98613 0.98066 0.0
C1437 C 0.16566 0.04698 0.01143 0.0
C1438 C 0.14958 0.03563 0.0143 0.0
C1439 C 0.17944 0.03853 0.0074 0.0
C1440 C 0.18866 0.99247 0.98836 0.0
H1441 H 0.27676 0.99051 0.98903 0.0
H1442 H 0.25317 1.00697 0.99167 0.0
H1443 H 0.19934 0.97035 0.97433 0.0
H1444 H 0.13553 1.00667 0.0158 0.0
H1445 H 0.1595 0.99196 0.00854 0.0
H1446 H 0.21142 0.03058 0.02172 0.0
C1447 C 0.25019 0.99152 0.99082 0.0
C1448 C 0.20213 0.98344 0.98477 0.0
C1449 C 0.26368 0.98208 0.98919 0.0
C1450 C 0.14762 0.01573 0.01323 0.0
C1451 C 0.16134 1.00731 0.00911 0.0
C1452 C 0.20871 0.01756 0.0112 0.0
C1453 C 0.23311 0.98114 0.9915 0.0
C1454 C 0.219 0.99125 0.99452 0.0
C1455 C 0.17734 0.0186 0.00609 0.0
C1456 C 0.1918 0.00953 1.00171 0.0
H1457 H 0.24018 0.93617 0.98745 0.0
H1458 H 0.21672 0.95268 0.99064 0.0
H1459 H 0.23497 0.01468 0.01566 0.0
H1460 H 0.16749 0.06232 0.012 0.0
H1461 H 0.19163 0.04753 1.00499 0.0
C1462 C 0.71979 0.63243 0.98741 0.0
C1463 C 0.72632 0.64835 1.00208 0.0
C1464 C 0.70278 0.62118 0.98651 0.0
C1465 C 0.66849 0.60767 0.01671 0.0
H1466 H 0.63661 0.59409 0.96966 0.0
C1467 C 0.59587 0.57287 0.01663 0.0
C1468 C 0.58733 0.55857 1.00116 0.0
C1469 C 0.61258 0.58395 0.01594 0.0
C1470 C 0.64539 0.5975 0.98287 0.0
H1471 H 0.72009 0.66487 0.02733 0.0
H1472 H 0.69069 0.64518 0.02588 0.0
H1473 H 0.66649 0.61246 0.96985 0.0
H1474 H 0.5895 0.54475 0.97274 0.0
H1475 H 0.6189 0.56367 0.97169 0.0
H1476 H 0.64774 0.5925 0.02975 0.0
C1477 C 0.69866 0.64138 0.01507 0.0
C1478 C 0.66251 0.60807 0.98297 0.0
C1479 C 0.71551 0.65272 0.01583 0.0
C1480 C 0.59575 0.55574 0.98486 0.0
C1481 C 0.61258 0.56668 0.98423 0.0
C1482 C 0.65149 0.59695 0.01659 0.0
C1483 C 0.6921 0.62548 1.00043 0.0
C1484 C 0.67418 0.61344 0.99994 0.0
C1485 C 0.62132 0.58081 0.99987 0.0
C1486 C 0.6396 0.59189 0.99973 0.0
H1487 H 0.72777 0.62872 0.97657 0.0
H1488 H 0.69809 0.60895 0.97511 0.0
H1489 H 0.67727 0.61133 0.02996 0.0
H1490 H 0.58981 0.57529 0.02947 0.0
H1491 H 0.61867 0.59493 0.02812 0.0
C1492 C 0.68121 0.4397 0.27247 0.0
C1493 C 0.6891 0.45955 0.2742 0.0
C1494 C 0.69096 0.42542 0.27182 0.0
C1495 C 0.73589 0.41553 0.26476 0.0
H1496 H 0.71663 0.36861 0.28311 0.0
C1497 C 0.77536 0.35439 0.26756 0.0
C1498 C 0.76652 0.33496 0.26673 0.0
C1499 C 0.76646 0.36955 0.26854 0.0
C1500 C 0.72233 0.38136 0.27757 0.0
H1501 H 0.7144 0.47918 0.27647 0.0
H1502 H 0.73144 0.45444 0.27541 0.0
H1503 H 0.70124 0.39416 0.28488 0.0
H1504 H 0.74067 0.31706 0.2663 0.0
H1505 H 0.72532 0.34288 0.26763 0.0
H1506 H 0.75703 0.40265 0.25747 0.0
C1507 C 0.71739 0.44985 0.27444 0.0
C1508 C 0.7133 0.39637 0.27861 0.0
C1509 C 0.70753 0.46428 0.27517 0.0
C1510 C 0.74825 0.33157 0.26689 0.0
C1511 C 0.73933 0.34671 0.26784 0.0
C1512 C 0.74494 0.40046 0.26368 0.0
C1513 C 0.70937 0.42993 0.27283 0.0
C1514 C 0.7197 0.41392 0.27215 0.0
C1515 C 0.74814 0.36624 0.26874 0.0
C1516 C 0.73841 0.38282 0.26998 0.0
H1517 H 0.66717 0.43494 0.27154 0.0
H1518 H 0.6838 0.41061 0.27016 0.0
H1519 H 0.74155 0.42838 0.25935 0.0
H1520 H 0.78937 0.35803 0.26758 0.0
H1521 H 0.7742 0.38403 0.26945 0.0
C1522 C 0.86638 0.48398 0.51099 0.0
C1523 C 0.85652 0.47952 0.52581 0.0
C1524 C 0.8845 0.48753 0.51393 0.0
C1525 C 0.92335 0.49945 0.5494 0.0
H1526 H 0.94153 0.46937 0.50998 0.0
C1527 C 0.99652 0.49813 0.55248 0.0
C1528 C 1.00357 0.50027 0.53532 0.0
C1529 C 0.97848 0.49469 0.55282 0.0
C1530 C 0.93668 0.47794 0.52105 0.0
H1531 H 0.85797 0.47678 0.55576 0.0
H1532 H 0.88981 0.48309 0.56088 0.0
H1533 H 0.91032 0.46708 0.50798 0.0
H1534 H 0.99724 0.50012 0.50504 0.0
H1535 H 0.96603 0.49433 0.5057 0.0
H1536 H 0.94987 0.51061 0.56224 0.0
C1537 C 0.88342 0.48371 0.54699 0.0
C1538 C 0.91883 0.47666 0.51988 0.0
C1539 C 0.86522 0.48009 0.54403 0.0
C1540 C 0.99226 0.49851 0.5185 0.0
C1541 C 0.97432 0.49507 0.51884 0.0
C1542 C 0.94131 0.50083 0.55052 0.0
C1543 C 0.89313 0.48676 0.53175 0.0
C1544 C 0.91203 0.48767 0.53382 0.0
C1545 C 0.96723 0.49324 0.536 0.0
C1546 C 0.94816 0.49035 0.53613 0.0
H1547 H 0.8601 0.4839 0.49684 0.0
H1548 H 0.89174 0.49028 0.50207 0.0
H1549 H 0.91838 0.50803 0.56035 0.0
H1550 H 1.00491 0.49947 0.5657 0.0
H1551 H 0.97334 0.4932 0.56622 0.0
C1552 C 0.41736 0.11185 0.25456 0.0
C1553 C 0.40882 0.09319 0.25647 0.0
C1554 C 0.40781 0.12431 0.24818 0.0
C1555 C 0.36455 0.12669 0.22538 0.0
H1556 H 0.37286 0.17476 0.26068 0.0
C1557 C 0.3117 0.16863 0.23775 0.0
C1558 C 0.31677 0.18868 0.24304 0.0
C1559 C 0.32426 0.15799 0.23499 0.0
C1560 C 0.37055 0.16164 0.25036 0.0
H1561 H 0.3838 0.0725 0.25204 0.0
H1562 H 0.36722 0.0942 0.24107 0.0
H1563 H 0.39308 0.15424 0.26299 0.0
H1564 H 0.33873 0.21343 0.24844 0.0
H1565 H 0.36059 0.19501 0.24308 0.0
H1566 H 0.34169 0.13387 0.21311 0.0
C1567 C 0.38125 0.09924 0.24441 0.0
C1568 C 0.38218 0.14987 0.2517 0.0
C1569 C 0.39075 0.08687 0.25089 0.0
C1570 C 0.3345 0.19796 0.24461 0.0
C1571 C 0.34701 0.1874 0.24161 0.0
C1572 C 0.35294 0.13854 0.22395 0.0
C1573 C 0.38961 0.11822 0.24344 0.0
C1574 C 0.37903 0.13203 0.2396 0.0
C1575 C 0.34209 0.16725 0.23725 0.0
C1576 C 0.35555 0.15589 0.2368 0.0
H1577 H 0.4313 0.11708 0.25864 0.0
H1578 H 0.41459 0.13885 0.24743 0.0
H1579 H 0.36193 0.11309 0.21572 0.0
H1580 H 0.29811 0.16112 0.23652 0.0
H1581 H 0.32002 0.14247 0.2319 0.0
C1582 C 0.34342 0.16314 0.49899 0.0
C1583 C 0.32576 0.15325 0.4964 0.0
C1584 C 0.35664 0.15316 0.49954 0.0
C1585 C 0.36537 0.10663 0.50778 0.0
H1586 H 0.40665 0.12324 0.48355 0.0
C1587 C 0.41744 0.0623 0.50037 0.0
C1588 C 0.43509 0.07232 0.50378 0.0
C1589 C 0.40417 0.07214 0.49907 0.0
C1590 C 0.3953 0.11853 0.49057 0.0
H1591 H 0.30818 0.12502 0.49228 0.0
H1592 H 0.33126 0.10759 0.49305 0.0
H1593 H 0.38331 0.14019 0.48191 0.0
H1594 H 0.45254 0.10065 0.50838 0.0
H1595 H 0.42936 0.11784 0.50609 0.0
H1596 H 0.37735 0.08498 0.51644 0.0
C1597 C 0.3349 0.12311 0.4949 0.0
C1598 C 0.3819 0.12826 0.48963 0.0
C1599 C 0.32165 0.1331 0.49435 0.0
C1600 C 0.43911 0.09245 0.50556 0.0
C1601 C 0.4258 0.10231 0.50424 0.0
C1602 C 0.37876 0.09689 0.5087 0.0
C1603 C 0.35258 0.13302 0.4975 0.0
C1604 C 0.36675 0.12246 0.49825 0.0
C1605 C 0.40815 0.09228 0.50111 0.0
C1606 C 0.39391 0.10272 0.50011 0.0
H1607 H 0.3471 0.17865 0.50068 0.0
H1608 H 0.37009 0.16131 0.50186 0.0
H1609 H 0.35405 0.10194 0.51486 0.0
H1610 H 0.41383 0.04678 0.49851 0.0
H1611 H 0.39075 0.06391 0.49627 0.0
C1612 C 0.7098 0.58383 0.28491 0.0
C1613 C 0.6935 0.57717 0.27339 0.0
C1614 C 0.72018 0.60268 0.28542 0.0
C1615 C 0.72591 0.64435 0.25791 0.0
H1616 H 0.75173 0.6745 0.3052 0.0
C1617 C 0.76049 0.72618 0.26266 0.0
C1618 C 0.77571 0.73427 0.27569 0.0
C1619 C 0.75059 0.70724 0.2625 0.0
C1620 C 0.74487 0.66637 0.29169 0.0
H1621 H 0.67579 0.58575 0.25322 0.0
H1622 H 0.69351 0.61779 0.25406 0.0
H1623 H 0.73549 0.64162 0.30462 0.0
H1624 H 0.79216 0.7283 0.29884 0.0
H1625 H 0.77549 0.69572 0.29833 0.0
H1626 H 0.73537 0.66887 0.24486 0.0
C1627 C 0.69852 0.60862 0.26269 0.0
C1628 C 0.73543 0.64726 0.29139 0.0
C1629 C 0.68817 0.59002 0.26232 0.0
C1630 C 0.78054 0.72277 0.28859 0.0
C1631 C 0.77077 0.7039 0.28838 0.0
C1632 C 0.73544 0.66338 0.25816 0.0
C1633 C 0.71475 0.61548 0.27424 0.0
C1634 C 0.72562 0.63583 0.27452 0.0
C1635 C 0.75554 0.69557 0.27533 0.0
C1636 C 0.74513 0.67495 0.27507 0.0
H1637 H 0.71449 0.57458 0.29369 0.0
H1638 H 0.73259 0.60713 0.29446 0.0
H1639 H 0.7189 0.63619 0.24446 0.0
H1640 H 0.75622 0.73447 0.25252 0.0
H1641 H 0.73891 0.70187 0.25235 0.0
C1642 C 0.86282 0.50045 0.76255 0.0
C1643 C 0.87224 0.50882 0.78059 0.0
C1644 C 0.85575 0.48063 0.75814 0.0
C1645 C 0.86363 0.43635 0.77162 0.0
H1646 H 0.81636 0.41221 0.74795 0.0
C1647 C 0.83043 0.35978 0.77707 0.0
C1648 C 0.81926 0.34786 0.76147 0.0
C1649 C 0.83769 0.37891 0.77632 0.0
C1650 C 0.82971 0.41876 0.75419 0.0
H1651 H 0.88076 0.50315 0.80849 0.0
H1652 H 0.86838 0.46867 0.80079 0.0
H1653 H 0.82652 0.44727 0.75326 0.0
H1654 H 0.80728 0.34649 0.73258 0.0
H1655 H 0.82005 0.38031 0.73131 0.0
H1656 H 0.86684 0.40803 0.77287 0.0
C1657 C 0.86671 0.47739 0.78998 0.0
C1658 C 0.83547 0.43878 0.75732 0.0
C1659 C 0.87366 0.49715 0.79443 0.0
C1660 C 0.81587 0.35536 0.74482 0.0
C1661 C 0.82308 0.37469 0.74413 0.0
C1662 C 0.85794 0.41642 0.76842 0.0
C1663 C 0.85809 0.46889 0.77165 0.0
C1664 C 0.85232 0.44774 0.76659 0.0
C1665 C 0.83395 0.38666 0.75997 0.0
C1666 C 0.84076 0.40744 0.76022 0.0
H1667 H 0.86146 0.50907 0.75159 0.0
H1668 H 0.84912 0.47442 0.74392 0.0
H1669 H 0.87684 0.44289 0.77835 0.0
H1670 H 0.83339 0.35443 0.79008 0.0
H1671 H 0.8458 0.38781 0.78886 0.0
C1672 C 0.09342 0.88017 0.10961 0.0
C1673 C 0.08107 0.86244 0.10633 0.0
C1674 C 0.09078 0.89518 0.10022 0.0
C1675 C 0.06413 0.9061 0.05903 0.0
H1676 H 0.07876 0.95816 0.0872 0.0
C1677 C 0.04257 0.97054 0.03264 0.0
C1678 C 0.05488 0.9883 0.03542 0.0
C1679 C 0.04638 0.95499 0.04035 0.0
C1680 C 0.07478 0.94374 0.07902 0.0
H1681 H 0.05622 0.84665 0.0904 0.0
H1682 H 0.05141 0.87288 0.07433 0.0
H1683 H 0.08397 0.93161 0.10237 0.0
H1684 H 0.08107 1.00337 0.04833 0.0
H1685 H 0.08769 0.97628 0.06178 0.0
H1686 H 0.05463 0.91832 0.0358 0.0
C1687 C 0.06336 0.87513 0.08391 0.0
C1688 C 0.0778 0.92845 0.08773 0.0
C1689 C 0.06607 0.86006 0.09322 0.0
C1690 C 0.07123 0.98996 0.04588 0.0
C1691 C 0.075 0.97444 0.05372 0.0
C1692 C 0.06101 0.9214 0.05036 0.0
C1693 C 0.07562 0.893 0.08736 0.0
C1694 C 0.07252 0.90936 0.0779 0.0
C1695 C 0.06257 0.95678 0.0512 0.0
C1696 C 0.06627 0.94045 0.06024 0.0
H1697 H 0.10519 0.88253 0.11951 0.0
H1698 H 0.10072 0.90851 0.10303 0.0
H1699 H 0.06012 0.89171 0.05082 0.0
H1700 H 0.02983 0.96865 0.02469 0.0
H1701 H 0.03643 0.94171 0.03825 0.0
C1702 C 0.93742 0.24661 0.87814 0.0
C1703 C 0.95405 0.25413 0.87322 0.0
C1704 C 0.92235 0.24897 0.86784 0.0
C1705 C 0.90707 0.27908 0.83513 0.0
H1706 H 0.86548 0.23744 0.8243 0.0
C1707 C 0.84114 0.2888 0.80025 0.0
C1708 C 0.83157 0.27375 0.78593 0.0
C1709 C 0.85563 0.28646 0.81168 0.0
C1710 C 0.87699 0.24921 0.82711 0.0
H1711 H 0.96775 0.26994 0.85339 0.0
H1712 H 0.94149 0.27389 0.83532 0.0
H1713 H 0.89175 0.23307 0.84186 0.0
H1714 H 0.82947 0.24434 0.77265 0.0
H1715 H 0.85468 0.24023 0.79243 0.0
H1716 H 0.8924 0.29508 0.82002 0.0
C1717 C 0.9401 0.26636 0.84733 0.0
C1718 C 0.89204 0.24677 0.83738 0.0
C1719 C 0.95519 0.26396 0.85761 0.0
C1720 C 0.83656 0.2562 0.78359 0.0
C1721 C 0.85098 0.25382 0.79502 0.0
C1722 C 0.89199 0.28155 0.82491 0.0
C1723 C 0.92346 0.25895 0.85233 0.0
C1724 C 0.90734 0.26163 0.84147 0.0
C1725 C 0.86086 0.26897 0.8091 0.0
C1726 C 0.87675 0.26661 0.82066 0.0
H1727 H 0.936 0.23902 0.8901 0.0
H1728 H 0.90982 0.24326 0.87229 0.0
H1729 H 0.9185 0.29094 0.83819 0.0
H1730 H 0.83763 0.30252 0.80238 0.0
H1731 H 0.86276 0.29836 0.82253 0.0
C1732 C 0.55617 0.24283 0.59243 0.0
C1733 C 0.57232 0.25453 0.59024 0.0
C1734 C 0.55145 0.22334 0.58406 0.0
C1735 C 0.56367 0.18748 0.54751 0.0
H1736 H 0.53827 0.15044 0.57515 0.0
C1737 C 0.56093 0.10636 0.53098 0.0
C1738 C 0.54474 0.09334 0.53025 0.0
C1739 C 0.56288 0.12604 0.5371 0.0
C1740 C 0.54519 0.16063 0.56715 0.0
H1741 H 0.59618 0.25482 0.5775 0.0
H1742 H 0.58827 0.22097 0.56346 0.0
H1743 H 0.54446 0.18466 0.58819 0.0
H1744 H 0.51783 0.09091 0.53532 0.0
H1745 H 0.52136 0.12539 0.5464 0.0
H1746 H 0.56492 0.1633 0.52686 0.0
C1747 C 0.57896 0.22682 0.57119 0.0
C1748 C 0.54872 0.18031 0.5746 0.0
C1749 C 0.58358 0.2463 0.57938 0.0
C1750 C 0.53048 0.10053 0.5357 0.0
C1751 C 0.53251 0.12026 0.54213 0.0
C1752 C 0.56033 0.16782 0.54022 0.0
C1753 C 0.56283 0.215 0.57341 0.0
C1754 C 0.55818 0.19404 0.56499 0.0
C1755 C 0.54875 0.13323 0.54289 0.0
C1756 C 0.55121 0.15416 0.55004 0.0
H1757 H 0.54714 0.24871 0.60062 0.0
H1758 H 0.53882 0.21487 0.58587 0.0
H1759 H 0.5706 0.19752 0.5394 0.0
H1760 H 0.57219 0.10137 0.52682 0.0
H1761 H 0.57559 0.13562 0.53768 0.0
C1762 C 0.5742 0.75488 0.38501 0.0
C1763 C 0.55918 0.76 0.37751 0.0
C1764 C 0.58929 0.75763 0.37599 0.0
C1765 C 0.60538 0.76463 0.32979 0.0
H1766 H 0.65029 0.78332 0.3611 0.0
C1767 C 0.66975 0.78625 0.29709 0.0
C1768 C 0.68477 0.78168 0.30541 0.0
C1769 C 0.6544 0.78365 0.3057 0.0
C1770 C 0.63789 0.77786 0.35212 0.0
H1771 H 0.54831 0.77195 0.35443 0.0
H1772 H 0.57473 0.77682 0.33866 0.0
H1773 H 0.62367 0.77891 0.37622 0.0
H1774 H 0.69524 0.77074 0.32947 0.0
H1775 H 0.66841 0.76582 0.34428 0.0
H1776 H 0.61962 0.76349 0.30569 0.0
C1777 C 0.57475 0.77053 0.35151 0.0
C1778 C 0.62258 0.77535 0.36081 0.0
C1779 C 0.55961 0.76781 0.3606 0.0
C1780 C 0.68394 0.7743 0.32256 0.0
C1781 C 0.66857 0.77169 0.33118 0.0
C1782 C 0.62071 0.7671 0.3211 0.0
C1783 C 0.58983 0.76556 0.35917 0.0
C1784 C 0.60611 0.76864 0.34978 0.0
C1785 C 0.65358 0.77635 0.32289 0.0
C1786 C 0.6372 0.77371 0.33214 0.0
H1787 H 0.57437 0.74875 0.39796 0.0
H1788 H 0.60051 0.75333 0.38215 0.0
H1789 H 0.59296 0.75919 0.32085 0.0
H1790 H 0.66975 0.7917 0.28375 0.0
H1791 H 0.64323 0.7876 0.29897 0.0
C1792 C 0.08524 0.27437 0.41573 0.0
C1793 C 0.07884 0.27025 0.39619 0.0
C1794 C 0.08348 0.25977 0.42669 0.0
C1795 C 0.07496 0.20703 0.42328 0.0
H1796 H 0.06047 0.21745 0.47345 0.0
C1797 C 0.05202 0.14725 0.46694 0.0
C1798 C 0.05801 0.15121 0.48659 0.0
C1799 C 0.05493 0.16178 0.45591 0.0
C1800 C 0.0647 0.21438 0.45956 0.0
H1801 H 0.06586 0.24748 0.37274 0.0
H1802 H 0.06262 0.22203 0.39192 0.0
H1803 H 0.06528 0.24274 0.45413 0.0
H1804 H 0.07192 0.1735 0.51002 0.0
H1805 H 0.07691 0.19888 0.49079 0.0
H1806 H 0.07425 0.1786 0.42869 0.0
C1807 C 0.06918 0.23653 0.39873 0.0
C1808 C 0.06749 0.22888 0.4485 0.0
C1809 C 0.07096 0.25114 0.38775 0.0
C1810 C 0.06689 0.17005 0.49499 0.0
C1811 C 0.06977 0.18458 0.48396 0.0
C1812 C 0.07215 0.19252 0.43434 0.0
C1813 C 0.07526 0.24072 0.41837 0.0
C1814 C 0.07263 0.22536 0.43022 0.0
C1815 C 0.06386 0.1806 0.4643 0.0
C1816 C 0.06696 0.19603 0.45259 0.0
H1817 H 0.09148 0.28893 0.42266 0.0
H1818 H 0.08856 0.26342 0.44172 0.0
H1819 H 0.07915 0.20395 0.40937 0.0
H1820 H 0.04491 0.13295 0.4601 0.0
H1821 H 0.04997 0.15833 0.44086 0.0
C1822 C 0.54824 0.26469 0.20347 0.0
C1823 C 0.54963 0.26535 0.18407 0.0
C1824 C 0.56318 0.26794 0.21661 0.0
C1825 C 0.61105 0.28739 0.22321 0.0
H1826 H 0.6114 0.24998 0.25683 0.0
C1827 C 0.66405 0.25048 0.25807 0.0
C1828 C 0.67797 0.26662 0.26427 0.0
C1829 C 0.64728 0.25273 0.25314 0.0
C1830 C 0.61147 0.26061 0.24762 0.0
H1831 H 0.56776 0.27043 0.16331 0.0
H1832 H 0.5938 0.27579 0.18616 0.0
H1833 H 0.58426 0.24995 0.2378 0.0
H1834 H 0.68505 0.29769 0.27167 0.0
H1835 H 0.65566 0.30163 0.26308 0.0
H1836 H 0.63843 0.29729 0.2321 0.0
C1837 C 0.58118 0.27304 0.19129 0.0
C1838 C 0.5959 0.26072 0.23685 0.0
C1839 C 0.56625 0.2698 0.17815 0.0
C1840 C 0.67459 0.28501 0.26661 0.0
C1841 C 0.6578 0.28726 0.26171 0.0
C1842 C 0.62661 0.28727 0.23394 0.0
C1843 C 0.5798 0.27194 0.21061 0.0
C1844 C 0.59565 0.27373 0.2241 0.0
C1845 C 0.64409 0.27116 0.25434 0.0
C1846 C 0.62709 0.27349 0.24581 0.0
H1847 H 0.53561 0.26144 0.2085 0.0
H1848 H 0.56172 0.26719 0.23144 0.0
H1849 H 0.61118 0.29779 0.21373 0.0
H1850 H 0.66627 0.23614 0.2559 0.0
H1851 H 0.63707 0.24003 0.24726 0.0
C1852 C 0.58368 0.87638 0.90676 0.0
C1853 C 0.56864 0.86135 0.90134 0.0
C1854 C 0.58339 0.89266 0.91978 0.0
C1855 C 0.55329 0.91943 0.94136 0.0
H1856 H 0.59172 0.93956 0.98213 0.0
C1857 C 0.54718 0.96941 0.0089 0.0
C1858 C 0.56063 0.98597 0.01499 0.0
C1859 C 0.54913 0.95504 0.99458 0.0
C1860 C 0.58102 0.93423 0.97068 0.0
H1861 H 0.54147 0.85166 0.90523 0.0
H1862 H 0.54101 0.87995 0.92812 0.0
H1863 H 0.59308 0.91291 0.95744 0.0
H1864 H 0.58698 1.00028 0.01175 0.0
H1865 H 0.59055 0.97485 0.9867 0.0
H1866 H 0.5411 0.94052 0.95484 0.0
C1867 C 0.55298 0.87928 0.9221 0.0
C1868 C 0.58178 0.91901 0.95654 0.0
C1869 C 0.55326 0.863 0.90908 0.0
C1870 C 0.57644 0.98758 0.00724 0.0
C1871 C 0.57845 0.9731 0.99293 0.0
C1872 C 0.55251 0.93458 0.95552 0.0
C1873 C 0.56805 0.89426 0.92764 0.0
C1874 C 0.5678 0.91126 0.9419 0.0
C1875 C 0.56466 0.95689 0.98623 0.0
C1876 C 0.56622 0.94189 0.97048 0.0
H1877 H 0.59573 0.87557 0.90099 0.0
H1878 H 0.59515 0.90406 0.92359 0.0
H1879 H 0.54248 0.91405 0.93004 0.0
H1880 H 0.53498 0.96775 0.01493 0.0
H1881 H 0.53844 0.9425 0.98996 0.0
C1882 C 0.93689 0.71525 0.67593 0.0
C1883 C 0.95081 0.73133 0.67673 0.0
C1884 C 0.92176 0.71729 0.68394 0.0
C1885 C 0.89802 0.75441 0.69849 0.0
H1886 H 0.87597 0.71987 0.73061 0.0
C1887 C 0.85409 0.77777 0.75076 0.0
C1888 C 0.83733 0.76584 0.74973 0.0
C1889 C 0.86691 0.77109 0.74163 0.0
C1890 C 0.88192 0.72947 0.72149 0.0
H1891 H 0.95995 0.762 0.68701 0.0
H1892 H 0.9339 0.76544 0.70107 0.0
H1893 H 0.90035 0.71272 0.71426 0.0
H1894 H 0.82122 0.73713 0.73924 0.0
H1895 H 0.84395 0.72537 0.72338 0.0
H1896 H 0.88009 0.77147 0.70611 0.0
C1897 C 0.93442 0.75134 0.69392 0.0
C1898 C 0.8958 0.72538 0.71211 0.0
C1899 C 0.94942 0.74934 0.68593 0.0
C1900 C 0.83399 0.74669 0.74026 0.0
C1901 C 0.84696 0.73994 0.7312 0.0
C1902 C 0.88434 0.75854 0.70792 0.0
C1903 C 0.92033 0.73542 0.69283 0.0
C1904 C 0.90429 0.73814 0.70095 0.0
C1905 C 0.86334 0.75231 0.73134 0.0
C1906 C 0.87649 0.74642 0.7199 0.0
H1907 H 0.93761 0.70117 0.66897 0.0
H1908 H 0.91109 0.70477 0.68287 0.0
H1909 H 0.90396 0.76423 0.68956 0.0
H1910 H 0.85721 0.79252 0.7581 0.0
H1911 H 0.87957 0.78079 0.74224 0.0
C1912 C 0.11668 0.99999 0.83157 0.0
C1913 C 0.1329 0.01158 0.82895 0.0
C1914 C 0.10914 1.00261 0.84872 0.0
C1915 C 0.11771 0.02691 0.90138 0.0
H1916 H 0.06731 0.01253 0.89683 0.0
C1917 C 0.07681 0.03757 0.96809 0.0
C1918 C 0.06084 0.024 0.96766 0.0
C1919 C 0.08673 0.03716 0.95223 0.0
C1920 C 0.08142 0.01642 0.89871 0.0
H1921 H 0.15376 0.03529 0.84364 0.0
H1922 H 0.14061 0.04 0.87352 0.0
H1923 H 0.08181 0.01004 0.86847 0.0
H1924 H 0.04344 0.99917 0.94966 0.0
H1925 H 0.06023 0.99834 0.92303 0.0
H1926 H 0.11705 0.03352 0.93188 0.0
C1927 C 0.13368 0.0286 0.86208 0.0
C1928 C 0.08993 0.01494 0.8821 0.0
C1929 C 0.14131 0.02595 0.84471 0.0
C1930 C 0.05551 0.01002 0.95089 0.0
C1931 C 0.06523 0.00965 0.93523 0.0
C1932 C 0.10913 0.02844 0.91815 0.0
C1933 C 0.11725 0.01708 0.86449 0.0
C1934 C 0.10833 0.01983 0.88286 0.0
C1935 C 0.08098 0.02332 0.9352 0.0
C1936 C 0.0907 0.02293 0.91729 0.0
H1937 H 0.10957 0.9886 0.8202 0.0
H1938 H 0.09684 0.9929 0.84957 0.0
H1939 H 0.13182 0.03089 0.90309 0.0
H1940 H 0.08144 0.04882 0.9804 0.0
H1941 H 0.09867 0.0481 0.95316 0.0
C1942 C 0.79581 0.41656 0.5485 0.0
C1943 C 0.78919 0.40773 0.5296 0.0
C1944 C 0.79508 0.40573 0.56314 0.0
C1945 C 0.77345 0.35993 0.57628 0.0
H1946 H 0.81593 0.36876 0.61129 0.0
C1947 C 0.78296 0.31041 0.63079 0.0
C1948 C 0.79103 0.3195 0.64918 0.0
C1949 C 0.78232 0.32098 0.616 0.0
C1950 C 0.80391 0.36627 0.60177 0.0
H1951 H 0.77603 0.38075 0.51133 0.0
H1952 H 0.77482 0.36184 0.53696 0.0
H1953 H 0.81498 0.38786 0.58605 0.0
H1954 H 0.80494 0.34673 0.66646 0.0
H1955 H 0.80348 0.36524 0.6408 0.0
H1956 H 0.76239 0.33833 0.59207 0.0
C1957 C 0.7805 0.37715 0.54042 0.0
C1958 C 0.80336 0.37721 0.58733 0.0
C1959 C 0.78126 0.38798 0.52575 0.0
C1960 C 0.79845 0.33936 0.65249 0.0
C1961 C 0.7978 0.34991 0.63774 0.0
C1962 C 0.77399 0.34899 0.59077 0.0
C1963 C 0.78768 0.38587 0.55919 0.0
C1964 C 0.78811 0.37421 0.5745 0.0
C1965 C 0.78975 0.34084 0.61934 0.0
C1966 C 0.78921 0.35212 0.60371 0.0
H1967 H 0.80192 0.43177 0.55195 0.0
H1968 H 0.80046 0.41288 0.57754 0.0
H1969 H 0.76148 0.35742 0.56666 0.0
H1970 H 0.77699 0.29515 0.62786 0.0
H1971 H 0.77617 0.31357 0.60192 0.0
C1972 C 0.42643 0.04404 0.35643 0.0
C1973 C 0.43156 0.05632 0.34341 0.0
C1974 C 0.43749 0.04489 0.37305 0.0
C1975 C 0.47535 0.07253 0.40629 0.0
H1976 H 0.48675 0.0232 0.4066 0.0
C1977 C 0.53151 0.06221 0.4588 0.0
C1978 C 0.52838 0.04504 0.46618 0.0
C1979 C 0.51973 0.06481 0.44414 0.0
C1980 C 0.48355 0.03701 0.40699 0.0
H1981 H 0.45148 0.08029 0.33841 0.0
H1982 H 0.47067 0.08194 0.36774 0.0
H1983 H 0.46475 0.02646 0.38214 0.0
H1984 H 0.51105 0.0169 0.46374 0.0
H1985 H 0.49016 0.0217 0.43905 0.0
H1986 H 0.49389 0.083 0.43145 0.0
C1987 C 0.4582 0.07157 0.36492 0.0
C1988 C 0.47096 0.03886 0.39293 0.0
C1989 C 0.44724 0.07056 0.34814 0.0
C1990 C 0.51358 0.03043 0.45852 0.0
C1991 C 0.50173 0.0331 0.44415 0.0
C1992 C 0.48779 0.07062 0.42064 0.0
C1993 C 0.4537 0.05822 0.37707 0.0
C1994 C 0.4667 0.05658 0.3925 0.0
C1995 C 0.50465 0.05029 0.43671 0.0
C1996 C 0.49196 0.05277 0.42119 0.0
H1997 H 0.41441 0.03296 0.35323 0.0
H1998 H 0.43372 0.03456 0.38236 0.0
H1999 H 0.47229 0.08636 0.40613 0.0
H2000 H 0.54292 0.07365 0.46446 0.0
H2001 H 0.52252 0.07811 0.43855 0.0
C2002 C 0.79081 0.70432 0.06228 0.0
C2003 C 0.78738 0.71488 0.04793 0.0
C2004 C 0.7924 0.7124 0.08158 0.0
C2005 C 0.78028 0.75082 0.11397 0.0
H2006 H 0.81374 0.73942 0.15097 0.0
C2007 C 0.77737 0.76641 0.19535 0.0
C2008 C 0.79317 0.77274 0.20763 0.0
C2009 C 0.77727 0.76055 0.17575 0.0
C2010 C 0.80443 0.74294 0.14083 0.0
H2011 H 0.78325 0.74239 0.04275 0.0
H2012 H 0.78623 0.75657 0.07645 0.0
H2013 H 0.81305 0.72742 0.11712 0.0
H2014 H 0.82133 0.77822 0.20877 0.0
H2015 H 0.82116 0.76825 0.17461 0.0
H2016 H 0.77181 0.76654 0.13767 0.0
C2017 C 0.78744 0.74192 0.07274 0.0
C2018 C 0.80389 0.73584 0.12141 0.0
C2019 C 0.78584 0.73383 0.0534 0.0
C2020 C 0.8089 0.77334 0.19977 0.0
C2021 C 0.8088 0.76751 0.18017 0.0
C2022 C 0.78082 0.75792 0.1334 0.0
C2023 C 0.79063 0.73126 0.0871 0.0
C2024 C 0.79172 0.73955 0.10772 0.0
C2025 C 0.79298 0.76089 0.1679 0.0
C2026 C 0.79282 0.75396 0.14712 0.0
H2027 H 0.79202 0.68967 0.05862 0.0
H2028 H 0.79461 0.70366 0.0922 0.0
H2029 H 0.77061 0.75382 0.10388 0.0
H2030 H 0.76501 0.76569 0.20089 0.0
H2031 H 0.76483 0.75531 0.16682 0.0
C2032 C 0.13825 0.9961 0.70104 0.0
C2033 C 0.13945 0.00859 0.71853 0.0
C2034 C 0.12884 0.99836 0.68407 0.0
C2035 C 0.0975 0.02652 0.66398 0.0
H2036 H 0.1102 1.00499 0.61581 0.0
C2037 C 0.07055 0.04325 0.58955 0.0
C2038 C 0.06655 0.02845 0.57339 0.0
C2039 C 0.07873 0.04082 0.60725 0.0
C2040 C 0.10624 0.011 0.62904 0.0
H2041 H 0.13121 0.03359 0.73124 0.0
H2042 H 0.11531 0.03802 0.70176 0.0
H2043 H 0.12545 1.00139 0.64559 0.0
H2044 H 0.06836 0.99922 0.56391 0.0
H2045 H 0.08275 0.99511 0.59436 0.0
H2046 H 0.07865 0.0367 0.64705 0.0
C2047 C 0.12131 0.02596 0.70111 0.0
C2048 C 0.11506 0.00883 0.64648 0.0
C2049 C 0.13055 0.02345 0.71828 0.0
C2050 C 0.07111 0.01107 0.57579 0.0
C2051 C 0.07954 0.00874 0.5934 0.0
C2052 C 0.08885 0.02894 0.64648 0.0
C2053 C 0.12035 0.01357 0.68343 0.0
C2054 C 0.11087 0.01636 0.66451 0.0
C2055 C 0.08358 0.02356 0.60959 0.0
C2056 C 0.09293 0.02112 0.62856 0.0
H2057 H 0.14471 0.98436 0.70039 0.0
H2058 H 0.12829 0.98792 0.67141 0.0
H2059 H 0.09338 0.03247 0.6771 0.0
H2060 H 0.06737 0.05689 0.58857 0.0
H2061 H 0.0816 0.05273 0.61905 0.0
C2062 C 0.81366 0.40009 0.44917 0.0
C2063 C 0.819 0.41915 0.44622 0.0
C2064 C 0.81517 0.38489 0.4355 0.0
C2065 C 0.83552 0.37316 0.39165 0.0
H2066 H 0.79571 0.32936 0.38074 0.0
C2067 C 0.81381 0.32407 0.319 0.0
C2068 C 0.80669 0.30441 0.31835 0.0
C2069 C 0.81929 0.33634 0.33647 0.0
C2070 C 0.80711 0.34127 0.38388 0.0
H2071 H 0.83034 0.43728 0.4268 0.0
H2072 H 0.83236 0.41068 0.40251 0.0
H2073 H 0.79714 0.35459 0.4077 0.0
H2074 H 0.80056 0.2819 0.33528 0.0
H2075 H 0.8099 0.30355 0.36604 0.0
H2076 H 0.84491 0.36016 0.36701 0.0
C2077 C 0.82742 0.40748 0.41562 0.0
C2078 C 0.80794 0.35578 0.39934 0.0
C2079 C 0.82612 0.42273 0.42944 0.0
C2080 C 0.80597 0.29703 0.33544 0.0
C2081 C 0.81128 0.30938 0.35298 0.0
C2082 C 0.83459 0.3587 0.37605 0.0
C2083 C 0.82183 0.38837 0.41843 0.0
C2084 C 0.82197 0.3721 0.40318 0.0
C2085 C 0.81756 0.32921 0.35363 0.0
C2086 C 0.82019 0.34284 0.3718 0.0
H2087 H 0.80836 0.39687 0.46211 0.0
H2088 H 0.81105 0.37039 0.43831 0.0
H2089 H 0.84668 0.38535 0.39445 0.0
H2090 H 0.81438 0.33017 0.30604 0.0
H2091 H 0.82386 0.35158 0.33653 0.0
C2092 C 0.46631 0.0279 0.25015 0.0
C2093 C 0.4705 0.03928 0.26839 0.0
C2094 C 0.47944 0.02332 0.23995 0.0
C2095 C 0.52323 0.04415 0.23313 0.0
H2096 H 0.51884 0.99533 0.20013 0.0
C2097 C 0.55998 0.04148 0.1683 0.0
C2098 C 0.54907 0.03213 0.15139 0.0
C2099 C 0.55499 0.0383 0.18606 0.0
C2100 C 0.52032 0.00905 0.2093 0.0
H2101 H 0.49164 0.05423 0.2906 0.0
H2102 H 0.51473 0.04665 0.27241 0.0
H2103 H 0.50054 0.99737 0.22575 0.0
H2104 H 0.52529 0.01065 0.13978 0.0
H2105 H 0.51616 1.00584 0.17052 0.0
H2106 H 0.54182 0.0563 0.21588 0.0
C2107 C 0.50124 0.04115 0.26617 0.0
C2108 C 0.5099 0.01016 0.224 0.0
C2109 C 0.48805 0.04551 0.27651 0.0
C2110 C 0.53375 0.01848 0.15257 0.0
C2111 C 0.52868 0.01544 0.17026 0.0
C2112 C 0.53347 0.04311 0.2183 0.0
C2113 C 0.49703 0.03022 0.24771 0.0
C2114 C 0.51076 0.0279 0.23549 0.0
C2115 C 0.53892 0.02583 0.18724 0.0
C2116 C 0.53154 0.02573 0.20565 0.0
H2117 H 0.45288 0.02273 0.24361 0.0
H2118 H 0.47585 0.01511 0.22563 0.0
H2119 H 0.52406 0.05804 0.24171 0.0
H2120 H 0.57192 0.05203 0.16789 0.0
H2121 H 0.56334 0.04626 0.19885 0.0
C2122 C 0.76017 0.69683 0.93128 0.0
C2123 C 0.77387 0.69757 0.94557 0.0
C2124 C 0.76337 0.70548 0.91526 0.0
C2125 C 0.79617 0.74133 0.89693 0.0
H2126 H 0.77125 0.7152 0.84752 0.0
C2127 C 0.81447 0.76696 0.82699 0.0
C2128 C 0.80066 0.76779 0.81359 0.0
C2129 C 0.81121 0.75776 0.84265 0.0
C2130 C 0.77821 0.72277 0.86123 0.0
H2131 H 0.80169 0.70823 0.95423 0.0
H2132 H 0.80732 0.72308 0.9262 0.0
H2133 H 0.76558 0.70092 0.87589 0.0
H2134 H 0.77264 0.75913 0.80574 0.0
H2135 H 0.76693 0.74294 0.83307 0.0
H2136 H 0.80889 0.76311 0.88221 0.0
C2137 C 0.79403 0.71604 0.92749 0.0
C2138 C 0.77493 0.71461 0.87754 0.0
C2139 C 0.79081 0.70745 0.94356 0.0
C2140 C 0.78356 0.75866 0.81581 0.0
C2141 C 0.78029 0.74937 0.83146 0.0
C2142 C 0.7995 0.74944 0.88061 0.0
C2143 C 0.78037 0.71506 0.91303 0.0
C2144 C 0.78385 0.72379 0.89563 0.0
C2145 C 0.79407 0.74908 0.84525 0.0
C2146 C 0.79057 0.74027 0.86255 0.0
H2147 H 0.74694 0.68943 0.93239 0.0
H2148 H 0.75247 0.70471 0.90464 0.0
H2149 H 0.80308 0.74901 0.91061 0.0
H2150 H 0.8278 0.77378 0.8256 0.0
H2151 H 0.82215 0.75752 0.85281 0.0
C2152 C 0.81681 0.09623 0.01184 0.0
C2153 C 0.82088 0.11602 0.01131 0.0
C2154 C 0.82965 0.08582 0.01042 0.0
C2155 C 0.87301 0.08733 0.99483 0.0
H2156 H 0.87642 0.05208 0.03019 0.0
C2157 C 0.93413 0.05851 0.00789 0.0
C2158 C 0.93179 0.039 0.00932 0.0
C2159 C 0.91995 0.06697 0.00737 0.0
C2160 C 0.87549 0.06167 0.02005 0.0
H2161 H 0.84153 0.14035 0.0086 0.0
H2162 H 0.86394 0.12222 0.00629 0.0
H2163 H 0.85265 0.0685 0.03025 0.0
H2164 H 0.91279 0.01308 0.01152 0.0
H2165 H 0.88789 0.02787 0.01044 0.0
H2166 H 0.89596 0.08068 0.98479 0.0
C2167 C 0.85079 0.11471 0.0076 0.0
C2168 C 0.86188 0.07106 0.02008 0.0
C2169 C 0.83797 0.12512 0.00904 0.0
C2170 C 0.91496 0.02813 0.01032 0.0
C2171 C 0.90075 0.03662 0.00985 0.0
C2172 C 0.88661 0.07795 0.99481 0.0
C2173 C 0.8468 0.09497 0.0084 0.0
C2174 C 0.86063 0.08416 0.00761 0.0
C2175 C 0.9031 0.0561 0.00825 0.0
C2176 C 0.88811 0.0652 0.00759 0.0
H2177 H 0.80374 0.08878 0.0135 0.0
H2178 H 0.82615 0.07058 0.01086 0.0
H2179 H 0.8722 0.09708 0.98483 0.0
H2180 H 0.9469 0.06721 0.00682 0.0
H2181 H 0.92221 0.08207 0.00639 0.0
C2182 C 0.36628 0.44644 0.03771 0.0
C2183 C 0.36434 0.43051 0.04714 0.0
C2184 C 0.3829 0.45755 0.03649 0.0
C2185 C 0.42922 0.46862 0.05833 0.0
H2186 H 0.43841 0.487 0.01107 0.0
C2187 C 0.49318 0.52279 0.05166 0.0
C2188 C 0.50037 0.52058 0.03444 0.0
C2189 C 0.47685 0.51141 0.05343 0.0
C2190 C 0.43614 0.48184 0.02432 0.0
H2191 H 0.37843 0.4139 0.06279 0.0
H2192 H 0.40728 0.43304 0.06047 0.0
H2193 H 0.40948 0.46816 0.01375 0.0
H2194 H 0.49627 0.50452 0.00564 0.0
H2195 H 0.46795 0.48436 0.00881 0.0
H2196 H 0.45599 0.48192 0.06875 0.0
C2197 C 0.39599 0.43717 0.05424 0.0
C2198 C 0.41944 0.47124 0.02595 0.0
C2199 C 0.3794 0.4261 0.05548 0.0
C2200 C 0.49108 0.5065 0.01912 0.0
C2201 C 0.47476 0.49509 0.02089 0.0
C2202 C 0.44592 0.47919 0.05669 0.0
C2203 C 0.39799 0.45299 0.04465 0.0
C2204 C 0.41574 0.46449 0.04299 0.0
C2205 C 0.46734 0.49753 0.03801 0.0
C2206 C 0.44961 0.48596 0.03967 0.0
H2207 H 0.35497 0.45028 0.03116 0.0
H2208 H 0.38391 0.46979 0.02924 0.0
H2209 H 0.42684 0.46384 0.07174 0.0
H2210 H 0.50004 0.53355 0.0637 0.0
H2211 H 0.4715 0.51387 0.06676 0.0
C2212 C 0.40455 0.63391 0.76072 0.0
C2213 C 0.39646 0.61404 0.75817 0.0
C2214 C 0.39496 0.64832 0.76123 0.0
C2215 C 0.3492 0.65727 0.75069 0.0
H2216 H 0.3715 0.70796 0.77897 0.0
C2217 C 0.31091 0.71969 0.76009 0.0
C2218 C 0.31996 0.73926 0.76282 0.0
C2219 C 0.31973 0.7045 0.7595 0.0
C2220 C 0.36492 0.69408 0.77069 0.0
H2221 H 0.37095 0.59451 0.75403 0.0
H2222 H 0.35419 0.61948 0.75503 0.0
H2223 H 0.38671 0.68229 0.77821 0.0
H2224 H 0.34612 0.75738 0.76689 0.0
H2225 H 0.36134 0.73141 0.76578 0.0
H2226 H 0.32733 0.66917 0.7433 0.0
C2227 C 0.36827 0.62398 0.75652 0.0
C2228 C 0.37385 0.679 0.77022 0.0
C2229 C 0.37798 0.60942 0.75602 0.0
C2230 C 0.33839 0.74277 0.7649 0.0
C2231 C 0.34724 0.72758 0.76435 0.0
C2232 C 0.34024 0.6724 0.75117 0.0
C2233 C 0.37651 0.64394 0.75927 0.0
C2234 C 0.36636 0.66012 0.76011 0.0
C2235 C 0.3382 0.70792 0.76164 0.0
C2236 C 0.34785 0.69133 0.76113 0.0
H2237 H 0.41864 0.63858 0.76233 0.0
H2238 H 0.40227 0.66308 0.7629 0.0
H2239 H 0.34266 0.64334 0.74249 0.0
H2240 H 0.29679 0.71597 0.75842 0.0
H2241 H 0.31188 0.68996 0.75764 0.0
C2242 C 0.24209 0.59518 0.51414 0.0
C2243 C 0.25429 0.60274 0.53051 0.0
C2244 C 0.22602 0.58322 0.51544 0.0
C2245 C 0.19528 0.57617 0.54985 0.0
H2246 H 0.16926 0.5347 0.51005 0.0
C2247 C 0.1195 0.53916 0.51774 0.0
C2248 C 0.11221 0.53692 0.53473 0.0
C2249 C 0.13757 0.5445 0.51801 0.0
C2250 C 0.17637 0.54631 0.52123 0.0
H2251 H 0.25976 0.60262 0.56082 0.0
H2252 H 0.23156 0.58163 0.56308 0.0
H2253 H 0.20037 0.54757 0.50933 0.0
H2254 H 0.11817 0.53827 0.56528 0.0
H2255 H 0.14963 0.54744 0.56568 0.0
H2256 H 0.17125 0.57543 0.56141 0.0
C2257 C 0.23442 0.58518 0.5493 0.0
C2258 C 0.19415 0.5536 0.52086 0.0
C2259 C 0.25057 0.59711 0.54798 0.0
C2260 C 0.12335 0.54001 0.55195 0.0
C2261 C 0.14139 0.5453 0.5522 0.0
C2262 C 0.17752 0.56891 0.5502 0.0
C2263 C 0.2218 0.5786 0.53314 0.0
C2264 C 0.2037 0.56886 0.53497 0.0
C2265 C 0.14869 0.54767 0.53526 0.0
C2266 C 0.16781 0.55417 0.53569 0.0
H2267 H 0.24464 0.59914 0.50043 0.0
H2268 H 0.21653 0.57851 0.50277 0.0
H2269 H 0.20221 0.58817 0.56073 0.0
H2270 H 0.11127 0.53689 0.50424 0.0
H2271 H 0.14281 0.54651 0.50476 0.0
C2272 C 0.69066 0.97127 0.7718 0.0
C2273 C 0.69449 0.98834 0.76428 0.0
C2274 C 0.7041 0.96378 0.77924 0.0
C2275 C 0.75037 0.96473 0.77667 0.0
H2276 H 0.74552 0.93906 0.82057 0.0
C2277 C 0.80035 0.92366 0.79984 0.0
C2278 C 0.79233 0.90449 0.80041 0.0
C2279 C 0.7904 0.93739 0.80015 0.0
C2280 C 0.74709 0.94631 0.80838 0.0
H2281 H 0.71541 0.01108 0.75881 0.0
H2282 H 0.73881 0.99809 0.77193 0.0
H2283 H 0.7238 0.95627 0.81106 0.0
H2284 H 0.76823 0.88478 0.80333 0.0
H2285 H 0.75086 0.90865 0.80393 0.0
H2286 H 0.77335 0.9543 0.77364 0.0
C2287 C 0.72544 0.99036 0.77187 0.0
C2288 C 0.73462 0.95604 0.80286 0.0
C2289 C 0.71202 0.99779 0.76436 0.0
C2290 C 0.77461 0.8995 0.80275 0.0
C2291 C 0.76473 0.9132 0.80324 0.0
C2292 C 0.76286 0.95508 0.78224 0.0
C2293 C 0.72164 0.97326 0.77938 0.0
C2294 C 0.73587 0.96489 0.78662 0.0
C2295 C 0.77238 0.93211 0.80126 0.0
C2296 C 0.76108 0.94532 0.79781 0.0
H2297 H 0.67729 0.96365 0.77194 0.0
H2298 H 0.70074 0.95038 0.78459 0.0
H2299 H 0.75162 0.97123 0.76398 0.0
H2300 H 0.81402 0.92775 0.79802 0.0
H2301 H 0.79661 0.95192 0.79874 0.0
C2302 C 0.74061 0.91083 0.53161 0.0
C2303 C 0.75806 0.92143 0.53452 0.0
C2304 C 0.7269 0.92006 0.5305 0.0
C2305 C 0.71619 0.96714 0.54338 0.0
H2306 H 0.67554 0.94444 0.50592 0.0
C2307 C 0.66206 1.00703 0.52852 0.0
C2308 C 0.64462 0.99634 0.52538 0.0
C2309 C 0.67583 0.99789 0.52971 0.0
C2310 C 0.68669 0.95087 0.51663 0.0
H2311 H 0.77475 0.95014 0.53857 0.0
H2312 H 0.75078 0.96628 0.53651 0.0
H2313 H 0.69974 0.92878 0.50773 0.0
H2314 H 0.62808 0.96754 0.52115 0.0
H2315 H 0.65212 0.95156 0.52323 0.0
H2316 H 0.70313 0.98922 0.55229 0.0
C2317 C 0.74771 0.9508 0.53527 0.0
C2318 C 0.7006 0.94189 0.51765 0.0
C2319 C 0.76146 0.94154 0.53635 0.0
C2320 C 0.64133 0.97622 0.52336 0.0
C2321 C 0.65514 0.96705 0.52455 0.0
C2322 C 0.70228 0.97612 0.54236 0.0
C2323 C 0.73024 0.94016 0.53228 0.0
C2324 C 0.71553 0.9499 0.53105 0.0
C2325 C 0.67257 0.97778 0.52776 0.0
C2326 C 0.68733 0.9681 0.52897 0.0
H2327 H 0.73747 0.89532 0.5302 0.0
H2328 H 0.71364 0.91142 0.52848 0.0
H2329 H 0.72735 0.97356 0.55407 0.0
H2330 H 0.66512 0.02252 0.52975 0.0
H2331 H 0.68907 1.00661 0.53182 0.0
C2332 C 0.37477 0.49195 0.7573 0.0
C2333 C 0.39128 0.49425 0.7508 0.0
C2334 C 0.36475 0.47352 0.75902 0.0
C2335 C 0.36247 0.41962 0.74482 0.0
H2336 H 0.32936 0.41414 0.78144 0.0
C2337 C 0.32642 0.34339 0.76006 0.0
C2338 C 0.30877 0.34082 0.7631 0.0
C2339 C 0.33676 0.36185 0.75894 0.0
C2340 C 0.33844 0.41526 0.77098 0.0
H2341 H 0.41001 0.47824 0.74144 0.0
H2342 H 0.39326 0.44701 0.7449 0.0
H2343 H 0.34592 0.44602 0.77871 0.0
H2344 H 0.28849 0.35616 0.76747 0.0
H2345 H 0.30622 0.38775 0.76579 0.0
H2346 H 0.35508 0.38876 0.73732 0.0
C2347 C 0.38751 0.45914 0.74816 0.0
C2348 C 0.34803 0.43381 0.76933 0.0
C2349 C 0.39736 0.4774 0.74631 0.0
C2350 C 0.302 0.35737 0.76521 0.0
C2351 C 0.3123 0.37571 0.76433 0.0
C2352 C 0.353 0.40107 0.7466 0.0
C2353 C 0.37089 0.45659 0.75444 0.0
C2354 C 0.3603 0.43652 0.75618 0.0
C2355 C 0.3299 0.37845 0.76107 0.0
C2356 C 0.34069 0.39843 0.75966 0.0
H2357 H 0.36947 0.50438 0.76094 0.0
H2358 H 0.35204 0.4726 0.76371 0.0
H2359 H 0.37132 0.42058 0.73413 0.0
H2360 H 0.33218 0.33112 0.75824 0.0
H2361 H 0.35023 0.36311 0.75653 0.0
C2362 C 0.1855 0.57605 0.23843 0.0
C2363 C 0.16741 0.57451 0.23657 0.0
C2364 C 0.19712 0.59395 0.24048 0.0
C2365 C 0.2185 0.63253 0.23506 0.0
H2366 H 0.20873 0.67505 0.26865 0.0
C2367 C 0.25596 0.71048 0.23852 0.0
C2368 C 0.26057 0.72249 0.25645 0.0
C2369 C 0.24516 0.69218 0.23663 0.0
C2370 C 0.21171 0.66326 0.25939 0.0
H2371 H 0.14731 0.59044 0.23463 0.0
H2372 H 0.16765 0.6217 0.23791 0.0
H2373 H 0.18853 0.6435 0.26355 0.0
H2374 H 0.25755 0.72458 0.28656 0.0
H2375 H 0.23865 0.69234 0.28323 0.0
H2376 H 0.24179 0.6522 0.2311 0.0
C2377 C 0.17281 0.60907 0.23815 0.0
C2378 C 0.20004 0.64528 0.25626 0.0
C2379 C 0.16117 0.59116 0.2361 0.0
C2380 C 0.25424 0.71568 0.27254 0.0
C2381 C 0.24335 0.69729 0.27063 0.0
C2382 C 0.23016 0.6505 0.23818 0.0
C2383 C 0.1909 0.61068 0.24068 0.0
C2384 C 0.20327 0.62976 0.24397 0.0
C2385 C 0.23869 0.68539 0.25263 0.0
C2386 C 0.22682 0.66608 0.25027 0.0
H2387 H 0.19073 0.56349 0.23888 0.0
H2388 H 0.21098 0.59473 0.24253 0.0
H2389 H 0.2213 0.62087 0.22544 0.0
H2390 H 0.26056 0.71523 0.22579 0.0
H2391 H 0.24159 0.68347 0.22254 0.0
C2392 C 0.51246 0.70179 0.42356 0.0
C2393 C 0.50623 0.71618 0.4343 0.0
C2394 C 0.51446 0.68541 0.43097 0.0
C2395 C 0.50104 0.65639 0.46845 0.0
H2396 H 0.54261 0.63813 0.45997 0.0
C2397 C 0.51277 0.58517 0.4904 0.0
C2398 C 0.52988 0.58543 0.49797 0.0
C2399 C 0.50915 0.6009 0.48279 0.0
C2400 C 0.53096 0.64307 0.4626 0.0
H2401 H 0.49696 0.72435 0.46126 0.0
H2402 H 0.50052 0.69587 0.47419 0.0
H2403 H 0.53769 0.66574 0.44651 0.0
H2404 H 0.55647 0.6028 0.50379 0.0
H2405 H 0.55014 0.63 0.49074 0.0
H2406 H 0.49451 0.63383 0.48485 0.0
C2407 C 0.50373 0.69716 0.45994 0.0
C2408 C 0.52803 0.65881 0.45465 0.0
C2409 C 0.50179 0.71359 0.45255 0.0
C2410 C 0.54315 0.60195 0.49803 0.0
C2411 C 0.53954 0.61757 0.49038 0.0
C2412 C 0.50394 0.64054 0.47634 0.0
C2413 C 0.51024 0.68291 0.44933 0.0
C2414 C 0.51307 0.66578 0.45752 0.0
C2415 C 0.52254 0.61723 0.48246 0.0
C2416 C 0.51903 0.63375 0.47364 0.0
H2417 H 0.51597 0.70322 0.40944 0.0
H2418 H 0.51927 0.67465 0.42225 0.0
H2419 H 0.48928 0.66121 0.47082 0.0
H2420 H 0.5022 0.57274 0.49013 0.0
H2421 H 0.49591 0.60006 0.47673 0.0
C2422 C 0.62936 0.3131 0.67229 0.0
C2423 C 0.6299 0.31303 0.65263 0.0
C2424 C 0.64411 0.31204 0.68419 0.0
C2425 C 0.68561 0.29644 0.68337 0.0
H2426 H 0.69849 0.32915 0.73298 0.0
C2427 C 0.75012 0.30004 0.73171 0.0
C2428 C 0.74982 0.30281 0.75155 0.0
C2429 C 0.73568 0.30117 0.71932 0.0
C2430 C 0.695 0.31966 0.7193 0.0
H2431 H 0.64652 0.31175 0.63016 0.0
H2432 H 0.67208 0.3098 0.65084 0.0
H2433 H 0.67298 0.3312 0.71241 0.0
H2434 H 0.73405 0.3085 0.77396 0.0
H2435 H 0.70882 0.30986 0.75259 0.0
H2436 H 0.70745 0.28464 0.69034 0.0
C2437 C 0.66024 0.31061 0.65706 0.0
C2438 C 0.68033 0.3209 0.70746 0.0
C2439 C 0.64558 0.31188 0.64522 0.0
C2440 C 0.73472 0.30641 0.75872 0.0
C2441 C 0.72027 0.30736 0.74642 0.0
C2442 C 0.70022 0.29506 0.69529 0.0
C2443 C 0.65973 0.31066 0.67672 0.0
C2444 C 0.67541 0.3093 0.68933 0.0
C2445 C 0.72054 0.30497 0.72651 0.0
C2446 C 0.70513 0.30661 0.7135 0.0
H2447 H 0.61752 0.31393 0.67851 0.0
H2448 H 0.64317 0.31196 0.69922 0.0
H2449 H 0.68211 0.28713 0.66958 0.0
H2450 H 0.76161 0.29738 0.7258 0.0
H2451 H 0.73656 0.29946 0.70414 0.0
C2452 C 0.99804 0.31919 0.94877 0.0
C2453 C 0.00883 0.31223 0.93629 0.0
C2454 C 1.00213 0.33851 0.95749 0.0
C2455 C 0.00666 0.38158 0.96349 0.0
H2456 H 0.05426 0.41175 0.97702 0.0
C2457 C 0.02205 0.46414 0.97918 0.0
C2458 C 0.03572 0.47411 0.99349 0.0
C2459 C 0.01942 0.44437 0.97311 0.0
C2460 C 0.04087 0.40353 0.97354 0.0
H2461 H 0.03265 0.32012 0.92356 0.0
H2462 H 0.0395 0.35384 0.93825 0.0
H2463 H 0.04872 0.37723 0.96612 0.0
H2464 H 0.05743 0.47104 0.01258 0.0
H2465 H 0.05259 0.4364 1.00231 0.0
H2466 H 0.99876 0.40768 0.97143 0.0
C2467 C 0.02806 0.34435 0.94169 0.0
C2468 C 0.03768 0.38371 0.96701 0.0
C2469 C 0.02407 0.32496 0.93315 0.0
C2470 C 0.04681 0.46382 1.00147 0.0
C2471 C 0.04407 0.44394 0.9955 0.0
C2472 C 0.00983 0.40132 0.97015 0.0
C2473 C 0.017 0.35149 0.95377 0.0
C2474 C 0.02052 0.37246 0.96171 0.0
C2475 C 0.03025 0.43391 0.9813 0.0
C2476 C 0.02698 0.41266 0.97504 0.0
H2477 H 0.98628 0.30974 0.95165 0.0
H2478 H 0.99349 0.3433 0.96703 0.0
H2479 H 0.99326 0.37357 0.95934 0.0
H2480 H 0.01335 0.47161 0.97256 0.0
H2481 H 0.00891 0.43733 0.96183 0.0
C2482 C 0.00755 0.803 0.13995 0.0
C2483 C 0.02443 0.80543 0.14947 0.0
C2484 C 0.99316 0.80204 0.15008 0.0
C2485 C 0.97804 0.79204 0.19603 0.0
H2486 H 0.94122 0.81612 0.18036 0.0
C2487 C 0.92004 0.79543 0.23929 0.0
C2488 C 0.90333 0.79222 0.22904 0.0
C2489 C 0.93495 0.79764 0.22992 0.0
C2490 C 0.95127 0.80913 0.18481 0.0
H2491 H 0.03936 0.80883 0.17726 0.0
H2492 H 0.01421 0.8073 0.19502 0.0
H2493 H 0.96702 0.81909 0.16381 0.0
H2494 H 0.88934 0.7889 0.20075 0.0
H2495 H 0.91534 0.79276 0.18439 0.0
H2496 H 0.96225 0.78202 0.21699 0.0
C2497 C 0.0121 0.80593 0.17963 0.0
C2498 C 0.96611 0.81084 0.17531 0.0
C2499 C 0.02655 0.80692 0.16946 0.0
C2500 C 0.90198 0.79156 0.20915 0.0
C2501 C 0.91692 0.79378 0.19976 0.0
C2502 C 0.96319 0.79033 0.20553 0.0
C2503 C 0.99519 0.80349 0.17006 0.0
C2504 C 0.97967 0.80223 0.1807 0.0
C2505 C 0.93362 0.79675 0.21001 0.0
C2506 C 0.94955 0.79878 0.20001 0.0
H2507 H 1.00536 0.80172 0.12457 0.0
H2508 H 0.98036 0.79983 0.14215 0.0
H2509 H 0.98805 0.78498 0.20042 0.0
H2510 H 0.92167 0.79644 0.25466 0.0
H2511 H 0.94758 0.80027 0.23836 0.0
C2512 C 0.51521 0.32255 0.14463 0.0
C2513 C 0.50823 0.30336 0.13583 0.0
C2514 C 0.51857 0.33707 0.13364 0.0
C2515 C 0.50628 0.34865 0.0867 0.0
H2516 H 0.54972 0.3877 0.09861 0.0
C2517 C 0.52634 0.40424 0.03801 0.0
C2518 C 0.53371 0.4233 0.04699 0.0
C2519 C 0.52379 0.38941 0.04867 0.0
C2520 C 0.53745 0.37702 0.09523 0.0
H2521 H 0.49923 0.28434 0.10861 0.0
H2522 H 0.5051 0.30972 0.08944 0.0
H2523 H 0.54392 0.36222 0.11768 0.0
H2524 H 0.54457 0.44167 0.07416 0.0
H2525 H 0.53971 0.41585 0.09285 0.0
H2526 H 0.49968 0.36352 0.0644 0.0
C2527 C 0.50786 0.31353 0.10484 0.0
C2528 C 0.53414 0.36243 0.10614 0.0
C2529 C 0.50458 0.299 0.11582 0.0
C2530 C 0.53867 0.42717 0.06685 0.0
C2531 C 0.53608 0.41234 0.07752 0.0
C2532 C 0.50955 0.36328 0.07584 0.0
C2533 C 0.51495 0.3327 0.11364 0.0
C2534 C 0.51852 0.34811 0.10199 0.0
C2535 C 0.52849 0.39331 0.06857 0.0
C2536 C 0.52516 0.37763 0.07998 0.0
H2537 H 0.51816 0.32639 0.16001 0.0
H2538 H 0.52384 0.35175 0.14082 0.0
H2539 H 0.49401 0.33796 0.08334 0.0
H2540 H 0.52221 0.4008 0.02277 0.0
H2541 H 0.51812 0.37487 0.04131 0.0
C2542 C 0.02706 0.28947 0.30047 0.0
C2543 C 0.03088 0.27461 0.30943 0.0
C2544 C 0.01171 0.28638 0.28808 0.0
C2545 C 0.96736 0.25816 0.28218 0.0
H2546 H 0.96249 0.28556 0.24 0.0
C2547 C 0.90121 0.27127 0.25671 0.0
C2548 C 0.902 0.29079 0.25628 0.0
C2549 C 0.91637 0.26445 0.25698 0.0
C2550 C 0.96363 0.27771 0.25166 0.0
H2551 H 0.02215 0.24453 0.31155 0.0
H2552 H 0.99508 0.23917 0.28994 0.0
H2553 H 0.99123 0.28178 0.25177 0.0
H2554 H 0.91911 0.31821 0.25478 0.0
H2555 H 0.94555 0.3064 0.2554 0.0
H2556 H 0.94002 0.25507 0.28291 0.0
C2557 C 1.004 0.25322 0.2926 0.0
C2558 C 0.98005 0.27552 0.25837 0.0
C2559 C 0.01949 0.25628 0.30493 0.0
C2560 C 0.91807 0.30308 0.25497 0.0
C2561 C 0.93322 0.29627 0.25525 0.0
C2562 C 0.95095 0.26036 0.27549 0.0
C2563 C 0.99978 0.26839 0.28442 0.0
C2564 C 0.98218 0.26648 0.27425 0.0
C2565 C 0.93261 0.27701 0.25681 0.0
C2566 C 0.94905 0.2709 0.26073 0.0
H2567 H 0.03565 0.30371 0.30351 0.0
H2568 H 0.00875 0.29844 0.28223 0.0
H2569 H 0.96858 0.25127 0.29455 0.0
H2570 H 0.88892 0.26138 0.25733 0.0
H2571 H 0.91546 0.24949 0.25792 0.0
C2572 C 0.01155 0.68493 0.63053 0.0
C2573 C 0.02187 0.70282 0.62855 0.0
C2574 C 0.01632 0.66795 0.62372 0.0
C2575 C 0.0544 0.64999 0.60914 0.0
H2576 H 0.01918 0.60502 0.58372 0.0
C2577 C 0.06917 0.58681 0.5595 0.0
C2578 C 0.05961 0.56818 0.56004 0.0
C2579 C 0.06556 0.60266 0.57063 0.0
C2580 C 0.02915 0.61736 0.59107 0.0
H2581 H 0.04501 0.7169 0.61747 0.0
H2582 H 0.05305 0.68735 0.60517 0.0
H2583 H 0.01039 0.6339 0.59696 0.0
H2584 H 0.03935 0.55133 0.57319 0.0
H2585 H 0.03302 0.57907 0.59271 0.0
H2586 H 0.07318 0.63357 0.60266 0.0
C2587 C 0.04154 0.6864 0.61242 0.0
C2588 C 0.02411 0.63392 0.59865 0.0
C2589 C 0.03684 0.70335 0.61932 0.0
C2590 C 0.04696 0.56556 0.57258 0.0
C2591 C 0.04323 0.58142 0.5836 0.0
C2592 C 0.05944 0.63347 0.60144 0.0
C2593 C 0.03145 0.6685 0.6147 0.0
C2594 C 0.03669 0.65053 0.60756 0.0
C2595 C 0.05222 0.60015 0.58239 0.0
C2596 C 0.04688 0.61707 0.59213 0.0
H2597 H 0.99999 0.68405 0.63768 0.0
H2598 H 0.00833 0.65443 0.62587 0.0
H2599 H 0.06441 0.66238 0.61628 0.0
H2600 H 0.079 0.58918 0.54993 0.0
H2601 H 0.07262 0.61692 0.56929 0.0
C2602 C 0.63632 0.83793 0.83501 0.0
C2603 C 0.63681 0.83322 0.85341 0.0
C2604 C 0.6514 0.84106 0.8261 0.0
C2605 C 0.69968 0.84653 0.83408 0.0
H2606 H 0.692 0.82003 0.78163 0.0
C2607 C 0.75639 0.83111 0.7933 0.0
C2608 C 0.75339 0.81176 0.78457 0.0
C2609 C 0.74267 0.83844 0.79991 0.0
C2610 C 0.69437 0.82761 0.79623 0.0
H2611 H 0.65355 0.82882 0.87725 0.0
H2612 H 0.67974 0.83338 0.86142 0.0
H2613 H 0.66721 0.82458 0.79773 0.0
H2614 H 0.73359 0.78516 0.77534 0.0
H2615 H 0.70995 0.79778 0.78697 0.0
H2616 H 0.72685 0.84816 0.83287 0.0
C2617 C 0.66785 0.83521 0.854 0.0
C2618 C 0.68015 0.83044 0.80543 0.0
C2619 C 0.6528 0.8324 0.86303 0.0
C2620 C 0.73639 0.8001 0.78206 0.0
C2621 C 0.72276 0.80741 0.78855 0.0
C2622 C 0.71393 0.84354 0.82488 0.0
C2623 C 0.66725 0.83919 0.83527 0.0
C2624 C 0.68257 0.83933 0.82469 0.0
C2625 C 0.72575 0.82657 0.79773 0.0
C2626 C 0.71132 0.83337 0.80611 0.0
H2627 H 0.62421 0.83901 0.82738 0.0
H2628 H 0.65054 0.84451 0.81185 0.0
H2629 H 0.70202 0.85381 0.84879 0.0
H2630 H 0.76936 0.84046 0.79543 0.0
H2631 H 0.74532 0.85329 0.80688 0.0
C2632 C 0.44447 0.54592 0.69051 0.0
C2633 C 0.45116 0.5623 0.70489 0.0
C2634 C 0.45202 0.54332 0.6731 0.0
C2635 C 0.48335 0.57128 0.64315 0.0
H2636 H 0.48321 0.52128 0.61505 0.0
C2637 C 0.52794 0.56441 0.58261 0.0
C2638 C 0.52322 0.54973 0.56635 0.0
C2639 C 0.51799 0.56498 0.59807 0.0
C2640 C 0.4833 0.53544 0.6225 0.0
H2641 H 0.47168 0.58849 0.7114 0.0
H2642 H 0.48459 0.58396 0.68217 0.0
H2643 H 0.46864 0.52379 0.64396 0.0
H2644 H 0.50369 0.52369 0.55445 0.0
H2645 H 0.48614 0.52465 0.58141 0.0
H2646 H 0.49791 0.58301 0.62194 0.0
C2647 C 0.47325 0.57314 0.68379 0.0
C2648 C 0.47483 0.53692 0.63933 0.0
C2649 C 0.46578 0.5757 0.70099 0.0
C2650 C 0.50781 0.53547 0.56636 0.0
C2651 C 0.49779 0.53594 0.58211 0.0
C2652 C 0.49179 0.56981 0.62649 0.0
C2653 C 0.46657 0.557 0.66919 0.0
C2654 C 0.47485 0.55493 0.65033 0.0
C2655 C 0.50265 0.5508 0.59841 0.0
C2656 C 0.49228 0.55189 0.61578 0.0
H2657 H 0.4333 0.53512 0.69262 0.0
H2658 H 0.44618 0.53065 0.66255 0.0
H2659 H 0.48344 0.58553 0.65034 0.0
H2660 H 0.5397 0.57564 0.58358 0.0
H2661 H 0.52275 0.57653 0.61011 0.0
C2662 C 0.75628 0.16985 0.96257 0.0
C2663 C 0.76893 0.17069 0.97798 0.0
C2664 C 0.7554 0.18635 0.95496 0.0
C2665 C 0.7823 0.23241 0.94957 0.0
H2666 H 0.73806 0.24451 0.93548 0.0
C2667 C 0.78151 0.29235 0.90735 0.0
C2668 C 0.76937 0.28691 0.89072 0.0
C2669 C 0.77948 0.28216 0.92244 0.0
C2670 C 0.75051 0.24133 0.93934 0.0
H2671 H 0.79065 0.18942 0.99746 0.0
H2672 H 0.78923 0.21812 0.98393 0.0
H2673 H 0.73883 0.2177 0.95246 0.0
H2674 H 0.74431 0.26828 0.87814 0.0
H2675 H 0.74129 0.24982 0.90389 0.0
H2676 H 0.79399 0.25515 0.93569 0.0
C2677 C 0.77999 0.20473 0.97781 0.0
C2678 C 0.75093 0.22599 0.94902 0.0
C2679 C 0.78079 0.18829 0.9855 0.0
C2680 C 0.7542 0.27244 0.89047 0.0
C2681 C 0.75234 0.26201 0.90541 0.0
C2682 C 0.78187 0.24759 0.93977 0.0
C2683 C 0.76724 0.20393 0.96252 0.0
C2684 C 0.76681 0.22118 0.95388 0.0
C2685 C 0.76547 0.26609 0.92109 0.0
C2686 C 0.76594 0.25202 0.93418 0.0
H2687 H 0.7469 0.15655 0.95654 0.0
H2688 H 0.74561 0.18529 0.94297 0.0
H2689 H 0.79469 0.22889 0.95296 0.0
H2690 H 0.79334 0.30344 0.90819 0.0
H2691 H 0.78954 0.28608 0.93461 0.0
C2692 C 0.08546 0.50649 0.20118 0.0
C2693 C 0.1015 0.50133 0.20357 0.0
C2694 C 0.07657 0.50458 0.18294 0.0
C2695 C 0.08664 0.50529 0.13411 0.0
H2696 H 0.03642 0.49518 0.12191 0.0
C2697 C 0.05476 0.53225 0.07154 0.0
C2698 C 0.04013 0.51979 0.06024 0.0
C2699 C 0.06165 0.52747 0.08835 0.0
C2700 C 0.05046 0.49782 0.12502 0.0
H2701 H 0.12003 0.48854 0.18887 0.0
H2702 H 0.10437 0.48494 0.15706 0.0
H2703 H 0.04887 0.48921 0.15238 0.0
H2704 H 0.02099 0.49279 0.05761 0.0
H2705 H 0.03305 0.48439 0.08708 0.0
H2706 H 0.08828 0.514 0.10685 0.0
C2707 C 0.09889 0.49091 0.16925 0.0
C2708 C 0.05758 0.49455 0.14252 0.0
C2709 C 0.10781 0.49288 0.18749 0.0
C2710 C 0.03229 0.50264 0.06614 0.0
C2711 C 0.03917 0.49786 0.08299 0.0
C2712 C 0.07954 0.50857 0.11666 0.0
C2713 C 0.08351 0.49738 0.16674 0.0
C2714 C 0.07576 0.49856 0.14737 0.0
C2715 C 0.05399 0.51018 0.09421 0.0
C2716 C 0.06139 0.50523 0.11209 0.0
H2717 H 0.08021 0.51298 0.21329 0.0
H2718 H 0.06481 0.50981 0.1815 0.0
H2719 H 0.10071 0.50876 0.13748 0.0
H2720 H 0.06084 0.54571 0.06742 0.0
H2721 H 0.07288 0.53744 0.09689 0.0
C2722 C 0.79633 0.86948 0.47384 0.0
C2723 C 0.80824 0.86527 0.48744 0.0
C2724 C 0.79391 0.86024 0.4548 0.0
C2725 C 0.78568 0.83426 0.41617 0.0
H2726 H 0.82596 0.82113 0.39571 0.0
C2727 C 0.78197 0.79822 0.33714 0.0
C2728 C 0.79682 0.80326 0.32791 0.0
C2729 C 0.78268 0.80418 0.35686 0.0
C2730 C 0.81459 0.82489 0.40104 0.0
H2731 H 0.82628 0.84738 0.49196 0.0
H2732 H 0.82147 0.83055 0.45909 0.0
H2733 H 0.82827 0.83475 0.42912 0.0
H2734 H 0.82393 0.81888 0.33204 0.0
H2735 H 0.82501 0.82991 0.36597 0.0
H2736 H 0.77236 0.82554 0.38773 0.0
C2737 C 0.81448 0.84155 0.46282 0.0
C2738 C 0.81582 0.83241 0.42045 0.0
C2739 C 0.81715 0.85108 0.48176 0.0
C2740 C 0.81231 0.81452 0.33875 0.0
C2741 C 0.81295 0.82075 0.35833 0.0
C2742 C 0.78454 0.82705 0.39665 0.0
C2743 C 0.8031 0.84627 0.44893 0.0
C2744 C 0.80143 0.83733 0.42833 0.0
C2745 C 0.79818 0.81561 0.36776 0.0
C2746 C 0.79903 0.82242 0.38875 0.0
H2747 H 0.78934 0.88045 0.47773 0.0
H2748 H 0.78526 0.86458 0.44462 0.0
H2749 H 0.77418 0.8375 0.42165 0.0
H2750 H 0.76984 0.78949 0.32918 0.0
H2751 H 0.77109 0.79965 0.36355 0.0
C2752 C 0.45415 0.56789 0.82298 0.0
C2753 C 0.44854 0.55048 0.80981 0.0
C2754 C 0.46296 0.56857 0.84154 0.0
C2755 C 0.47095 0.53559 0.8769 0.0
H2756 H 0.5073 0.57893 0.90317 0.0
C2757 C 0.51298 0.52929 0.94664 0.0
C2758 C 0.51983 0.54542 0.96116 0.0
C2759 C 0.50459 0.53093 0.92879 0.0
C2760 C 0.49706 0.56668 0.89627 0.0
H2761 H 0.44862 0.52022 0.80655 0.0
H2762 H 0.46367 0.52145 0.83783 0.0
H2763 H 0.49244 0.58026 0.87192 0.0
H2764 H 0.52299 0.57625 0.96743 0.0
H2765 H 0.50832 0.57912 0.93658 0.0
H2766 H 0.47529 0.522 0.90105 0.0
C2767 C 0.46106 0.53466 0.8343 0.0
C2768 C 0.48843 0.56746 0.87811 0.0
C2769 C 0.4524 0.534 0.81597 0.0
C2770 C 0.51801 0.56338 0.95685 0.0
C2771 C 0.50957 0.56504 0.9389 0.0
C2772 C 0.4795 0.53481 0.89495 0.0
C2773 C 0.46642 0.55184 0.84773 0.0
C2774 C 0.47529 0.5518 0.86783 0.0
C2775 C 0.50251 0.5488 0.92443 0.0
C2776 C 0.49295 0.55021 0.90508 0.0
H2777 H 0.45153 0.58097 0.81909 0.0
H2778 H 0.46671 0.58219 0.8512 0.0
H2779 H 0.46067 0.52331 0.87011 0.0
H2780 H 0.51406 0.51516 0.94903 0.0
H2781 H 0.49989 0.51797 0.91828 0.0
C2782 C 0.77818 0.16778 0.08481 0.0
C2783 C 0.78574 0.17695 0.07051 0.0
C2784 C 0.77655 0.17852 0.1022 0.0
C2785 C 0.77373 0.22671 0.12364 0.0
H2786 H 0.78828 0.21227 0.17161 0.0
C2787 C 0.78588 0.27821 0.19566 0.0
C2788 C 0.78319 0.27046 0.21234 0.0
C2789 C 0.78336 0.26613 0.17799 0.0
C2790 C 0.78379 0.21631 0.15836 0.0
H2791 H 0.79778 0.20454 0.06337 0.0
H2792 H 0.79488 0.22323 0.0937 0.0
H2793 H 0.79009 0.19228 0.14164 0.0
H2794 H 0.77451 0.24425 0.22357 0.0
H2795 H 0.7695 0.22318 0.19265 0.0
H2796 H 0.7674 0.25072 0.14028 0.0
C2797 C 0.79011 0.20776 0.09137 0.0
C2798 C 0.78493 0.20489 0.1412 0.0
C2799 C 0.79189 0.19703 0.07408 0.0
C2800 C 0.77677 0.25058 0.21092 0.0
C2801 C 0.77408 0.23851 0.19323 0.0
C2802 C 0.77242 0.23804 0.1408 0.0
C2803 C 0.78229 0.19863 0.10553 0.0
C2804 C 0.78016 0.21014 0.1237 0.0
C2805 C 0.77793 0.24608 0.17665 0.0
C2806 C 0.77768 0.23314 0.15838 0.0
H2807 H 0.77331 0.15232 0.08248 0.0
H2808 H 0.77044 0.17115 0.11288 0.0
H2809 H 0.7697 0.2309 0.1103 0.0
H2810 H 0.79084 0.2935 0.19637 0.0
H2811 H 0.78659 0.27247 0.16556 0.0
C2812 C 0.11728 0.54641 0.29749 0.0
C2813 C 0.13524 0.55204 0.2964 0.0
C2814 C 0.11001 0.55521 0.31241 0.0
C2815 C 0.12215 0.57917 0.36187 0.0
H2816 H 0.07467 0.58534 0.35638 0.0
C2817 C 0.08673 0.58649 0.42735 0.0
C2818 C 0.07112 0.57221 0.42504 0.0
C2819 C 0.09444 0.5916 0.41142 0.0
C2820 C 0.08801 0.58388 0.35813 0.0
H2821 H 0.15954 0.57186 0.30959 0.0
H2822 H 0.1468 0.58721 0.33566 0.0
H2823 H 0.08908 0.57957 0.32798 0.0
H2824 H 0.05072 0.55316 0.40416 0.0
H2825 H 0.06405 0.56204 0.37659 0.0
H2826 H 0.12083 0.58236 0.39186 0.0
C2827 C 0.1384 0.57586 0.32509 0.0
C2828 C 0.09623 0.58052 0.34189 0.0
C2829 C 0.14568 0.56705 0.31017 0.0
C2830 C 0.06265 0.56435 0.4065 0.0
C2831 C 0.07031 0.56949 0.39062 0.0
C2832 C 0.11395 0.58252 0.37808 0.0
C2833 C 0.12053 0.56984 0.32652 0.0
C2834 C 0.11312 0.57732 0.34358 0.0
C2835 C 0.08664 0.58255 0.39291 0.0
C2836 C 0.09654 0.58408 0.37633 0.0
H2837 H 0.10887 0.53495 0.28704 0.0
H2838 H 0.09624 0.55001 0.31328 0.0
H2839 H 0.13512 0.57663 0.36367 0.0
H2840 H 0.09338 0.5931 0.44147 0.0
H2841 H 0.10691 0.60194 0.4136 0.0
C2842 C 0.7942 0.87507 0.59508 0.0
C2843 C 0.80705 0.87041 0.58414 0.0
C2844 C 0.79218 0.86864 0.6125 0.0
C2845 C 0.81538 0.85426 0.65219 0.0
H2846 H 0.77016 0.825 0.66003 0.0
C2847 C 0.80655 0.81373 0.71615 0.0
C2848 C 0.79032 0.81035 0.72306 0.0
C2849 C 0.80886 0.82257 0.70008 0.0
C2850 C 0.78283 0.83351 0.65838 0.0
H2851 H 0.82803 0.85563 0.58306 0.0
H2852 H 0.82478 0.84486 0.61376 0.0
H2853 H 0.77356 0.83769 0.6305 0.0
H2854 H 0.76412 0.81456 0.71944 0.0
H2855 H 0.76833 0.83097 0.69217 0.0
H2856 H 0.82466 0.85072 0.68019 0.0
C2857 C 0.81618 0.85332 0.60871 0.0
C2858 C 0.78476 0.84065 0.64132 0.0
C2859 C 0.81795 0.85938 0.5911 0.0
C2860 C 0.77672 0.81683 0.71424 0.0
C2861 C 0.77912 0.82605 0.69845 0.0
C2862 C 0.8134 0.84748 0.66945 0.0
C2863 C 0.80322 0.85779 0.61953 0.0
C2864 C 0.80108 0.85091 0.63797 0.0
C2865 C 0.79509 0.82862 0.69077 0.0
C2866 C 0.79711 0.8368 0.67276 0.0
H2867 H 0.78558 0.88352 0.59008 0.0
H2868 H 0.78212 0.87232 0.6206 0.0
H2869 H 0.82809 0.86232 0.65003 0.0
H2870 H 0.81724 0.80877 0.72263 0.0
H2871 H 0.82129 0.82397 0.69459 0.0
C2872 C 0.74212 0.45738 0.48109 0.0
C2873 C 0.75967 0.46722 0.48232 0.0
C2874 C 0.72906 0.46749 0.48193 0.0
C2875 C 0.71782 0.51292 0.47667 0.0
H2876 H 0.68881 0.50188 0.51653 0.0
C2877 C 0.65511 0.54002 0.48895 0.0
C2878 C 0.65359 0.54693 0.50803 0.0
C2879 C 0.66903 0.53195 0.48454 0.0
C2880 C 0.69687 0.50515 0.50541 0.0
H2881 H 0.77723 0.49521 0.4842 0.0
H2882 H 0.75428 0.51287 0.48542 0.0
H2883 H 0.71063 0.48359 0.50988 0.0
H2884 H 0.66565 0.55142 0.53737 0.0
H2885 H 0.68991 0.53725 0.52964 0.0
H2886 H 0.70385 0.53447 0.47221 0.0
C2887 C 0.75071 0.49736 0.48393 0.0
C2888 C 0.70919 0.49457 0.50147 0.0
C2889 C 0.76382 0.48726 0.48333 0.0
C2890 C 0.66658 0.54635 0.52253 0.0
C2891 C 0.68036 0.53811 0.51814 0.0
C2892 C 0.70525 0.52335 0.48043 0.0
C2893 C 0.7333 0.48758 0.48376 0.0
C2894 C 0.71981 0.4984 0.48714 0.0
C2895 C 0.68148 0.53047 0.49918 0.0
C2896 C 0.6948 0.51963 0.49495 0.0
H2897 H 0.73851 0.44194 0.48026 0.0
H2898 H 0.71568 0.45966 0.48162 0.0
H2899 H 0.72589 0.51609 0.46555 0.0
H2900 H 0.6453 0.54043 0.47752 0.0
H2901 H 0.66962 0.52609 0.46982 0.0
C2902 C 0.22019 0.13638 0.52053 0.0
C2903 C 0.22823 0.13854 0.50395 0.0
C2904 C 0.20263 0.12684 0.51926 0.0
C2905 C 0.16738 0.09098 0.48819 0.0
H2906 H 0.13729 0.11324 0.51997 0.0
C2907 C 0.09409 0.05423 0.48444 0.0
C2908 C 0.08702 0.05463 0.50179 0.0
C2909 C 0.11073 0.06551 0.48357 0.0
C2910 C 0.14552 0.10666 0.51115 0.0
H2911 H 0.22411 0.13213 0.473 0.0
H2912 H 0.19345 0.11514 0.47082 0.0
H2913 H 0.16753 0.13045 0.52076 0.0
H2914 H 0.09169 0.06727 0.53179 0.0
H2915 H 0.12074 0.08654 0.53046 0.0
H2916 H 0.14562 0.06691 0.47901 0.0
C2917 C 0.20078 0.12094 0.48479 0.0
C2918 C 0.16287 0.11659 0.51157 0.0
C2919 C 0.21832 0.13072 0.48605 0.0
C2920 C 0.09675 0.06678 0.51817 0.0
C2921 C 0.11341 0.07792 0.51736 0.0
C2922 C 0.15007 0.08092 0.48792 0.0
C2923 C 0.19271 0.11901 0.5014 0.0
C2924 C 0.17405 0.1088 0.50022 0.0
C2925 C 0.12074 0.07734 0.50008 0.0
C2926 C 0.13892 0.08854 0.49953 0.0
H2927 H 0.2274 0.14225 0.53455 0.0
H2928 H 0.19686 0.1254 0.53232 0.0
H2929 H 0.17572 0.08451 0.47941 0.0
H2930 H 0.08683 0.04506 0.47156 0.0
H2931 H 0.11575 0.06491 0.46994 0.0
C2932 C 0.20669 0.96332 0.77577 0.0
C2933 C 0.1882 0.95855 0.77352 0.0
C2934 C 0.21651 0.94884 0.77491 0.0
C2935 C 0.21157 0.89456 0.77587 0.0
H2936 H 0.25727 0.90272 0.75911 0.0
C2937 C 0.24716 0.83033 0.76337 0.0
C2938 C 0.26559 0.83396 0.76525 0.0
C2939 C 0.23821 0.84546 0.76442 0.0
C2940 C 0.2446 0.89999 0.76407 0.0
H2941 H 0.16613 0.93384 0.7683 0.0
H2942 H 0.18268 0.90946 0.7666 0.0
H2943 H 0.24176 0.92843 0.76109 0.0
H2944 H 0.28867 0.85738 0.76979 0.0
H2945 H 0.27342 0.88331 0.77176 0.0
H2946 H 0.21434 0.86624 0.77895 0.0
C2947 C 0.18991 0.9243 0.76945 0.0
C2948 C 0.23554 0.91504 0.76522 0.0
C2949 C 0.18021 0.93862 0.77029 0.0
C2950 C 0.27455 0.85357 0.76817 0.0
C2951 C 0.26562 0.8687 0.7692 0.0
C2952 C 0.2206 0.87955 0.77473 0.0
C2953 C 0.20837 0.92884 0.77183 0.0
C2954 C 0.21866 0.91278 0.77105 0.0
C2955 C 0.24715 0.86517 0.7674 0.0
C2956 C 0.23739 0.8817 0.76871 0.0
H2957 H 0.21364 0.97828 0.77829 0.0
H2958 H 0.23059 0.95347 0.77698 0.0
H2959 H 0.19894 0.89179 0.78092 0.0
H2960 H 0.23949 0.81565 0.76106 0.0
H2961 H 0.22411 0.84151 0.7626 0.0
C2962 C 0.3661 0.98689 0.01969 0.0
C2963 C 0.35359 0.97999 0.03127 0.0
C2964 C 0.38379 0.99091 0.02641 0.0
C2965 C 0.41679 0.99694 0.06817 0.0
H2966 H 0.4405 0.97266 0.02997 0.0
C2967 C 0.49095 0.01342 0.06626 0.0
C2968 C 0.49762 0.99948 0.0555 0.0
C2969 C 0.47343 0.00929 0.06925 0.0
C2970 C 0.43408 0.97917 0.04103 0.0
H2971 H 0.34967 0.97357 0.05955 0.0
H2972 H 0.38074 0.98032 0.07117 0.0
H2973 H 0.40989 0.97151 0.02284 0.0
H2974 H 0.49238 0.96967 0.04206 0.0
H2975 H 0.46207 0.96209 0.04822 0.0
H2976 H 0.44127 1.00465 0.08634 0.0
C2977 C 0.37682 0.98268 0.05695 0.0
C2978 C 0.41657 0.97886 0.03675 0.0
C2979 C 0.35905 0.97879 0.05027 0.0
C2980 C 0.48739 0.98068 0.05018 0.0
C2981 C 0.47003 0.97643 0.05358 0.0
C2982 C 0.43448 0.99729 0.07249 0.0
C2983 C 0.38932 0.98792 0.04476 0.0
C2984 C 0.40782 0.98806 0.05007 0.0
C2985 C 0.46253 0.99108 0.06177 0.0
C2986 C 0.44334 0.98858 0.05884 0.0
H2987 H 0.36225 0.98826 1.0051 0.0
H2988 H 0.39319 0.99544 0.01688 0.0
H2989 H 0.41028 1.00403 0.07874 0.0
H2990 H 0.49862 0.02806 0.07045 0.0
H2991 H 0.46811 0.0209 0.07565 0.0
C2992 C 0.90275 0.61449 0.76037 0.0
C2993 C 0.89533 0.60204 0.77237 0.0
C2994 C 0.8922 0.62274 0.74899 0.0
C2995 C 0.84682 0.61584 0.72755 0.0
H2996 H 0.8572 0.67127 0.7323 0.0
C2997 C 0.79501 0.65839 0.72577 0.0
C2998 C 0.79888 0.67674 0.72095 0.0
C2999 C 0.80712 0.64709 0.72429 0.0
C3000 C 0.85428 0.65573 0.73025 0.0
H3001 H 0.8711 0.58873 0.78208 0.0
H3002 H 0.85283 0.60314 0.76235 0.0
H3003 H 0.87879 0.65606 0.74577 0.0
H3004 H 0.81745 0.69735 0.70948 0.0
H3005 H 0.83864 0.67744 0.70648 0.0
H3006 H 0.82203 0.61552 0.71272 0.0
C3007 C 0.86674 0.60632 0.76154 0.0
C3008 C 0.86666 0.64705 0.73808 0.0
C3009 C 0.87725 0.59827 0.77303 0.0
C3010 C 0.81427 0.68309 0.7131 0.0
C3011 C 0.82639 0.67178 0.71156 0.0
C3012 C 0.8345 0.62449 0.71958 0.0
C3013 C 0.87407 0.61844 0.74928 0.0
C3014 C 0.86269 0.62713 0.73756 0.0
C3015 C 0.82332 0.65408 0.71806 0.0
C3016 C 0.83777 0.64459 0.72166 0.0
H3017 H 0.91664 0.61763 0.75954 0.0
H3018 H 0.89815 0.63217 0.73973 0.0
H3019 H 0.84363 0.60038 0.72665 0.0
H3020 H 0.78329 0.65347 0.73213 0.0
H3021 H 0.80439 0.63365 0.72965 0.0
C3022 C 0.82802 0.6368 0.0235 0.0
C3023 C 0.81944 0.64091 0.00705 0.0
C3024 C 0.84219 0.62829 0.02233 0.0
C3025 C 0.87607 0.62061 0.99144 0.0
H3026 H 0.88219 0.58293 0.02319 0.0
C3027 C 0.92948 0.57762 0.98382 0.0
C3028 C 0.93825 0.57459 1.00073 0.0
C3029 C 0.91506 0.5858 0.98435 0.0
C3030 C 0.88078 0.59359 0.01437 0.0
H3031 H 0.81892 0.63897 0.97639 0.0
H3032 H 0.84348 0.62384 0.97429 0.0
H3033 H 0.85661 0.59635 0.02426 0.0
H3034 H 0.93894 0.57842 0.03153 0.0
H3035 H 0.91378 0.5926 0.03243 0.0
H3036 H 0.90024 0.61775 0.98152 0.0
C3037 C 0.83942 0.62749 0.98817 0.0
C3038 C 0.86609 0.60129 0.01498 0.0
C3039 C 0.82524 0.63605 0.98935 0.0
C3040 C 0.93234 0.58022 0.0182 0.0
C3041 C 0.9179 0.58835 0.01872 0.0
C3042 C 0.89074 0.61285 0.99079 0.0
C3043 C 0.84816 0.6236 1.00467 0.0
C3044 C 0.86357 0.61498 1.00359 0.0
C3045 C 0.909 0.59113 1.00179 0.0
C3046 C 0.89332 0.59931 1.00232 0.0
H3047 H 0.82397 0.64042 0.0374 0.0
H3048 H 0.84872 0.62577 0.03538 0.0
H3049 H 0.87472 0.63133 0.98269 0.0
H3050 H 0.93346 0.57319 0.97008 0.0
H3051 H 0.90839 0.58752 0.97102 0.0
C3052 C 0.18773 0.08908 0.76244 0.0
C3053 C 0.19323 0.07624 0.77341 0.0
C3054 C 0.19812 0.10759 0.76248 0.0
C3055 C 0.23585 0.14605 0.79015 0.0
H3056 H 0.23449 0.16755 0.74359 0.0
C3057 C 0.28127 0.22096 0.78582 0.0
C3058 C 0.27616 0.23257 0.77319 0.0
C3059 C 0.27135 0.20222 0.78593 0.0
C3060 C 0.23494 0.16209 0.7569 0.0
H3061 H 0.21457 0.07361 0.7932 0.0
H3062 H 0.23276 0.10598 0.79339 0.0
H3063 H 0.21791 0.13501 0.74366 0.0
H3064 H 0.25606 0.23305 0.75079 0.0
H3065 H 0.23852 0.20068 0.7512 0.0
H3066 H 0.25268 0.17317 0.80348 0.0
C3067 C 0.22018 0.1016 0.78468 0.0
C3068 C 0.22534 0.14314 0.75692 0.0
C3069 C 0.20975 0.08284 0.7845 0.0
C3070 C 0.26053 0.2247 0.76075 0.0
C3071 C 0.2505 0.20589 0.76091 0.0
C3072 C 0.24538 0.16506 0.79016 0.0
C3073 C 0.21458 0.11438 0.7736 0.0
C3074 C 0.22551 0.13465 0.77355 0.0
C3075 C 0.25571 0.19411 0.77347 0.0
C3076 C 0.24518 0.1736 0.77353 0.0
H3077 H 0.17518 0.08486 0.75366 0.0
H3078 H 0.19297 0.11675 0.75396 0.0
H3079 H 0.23629 0.14045 0.80339 0.0
H3080 H 0.29322 0.22629 0.7956 0.0
H3081 H 0.27629 0.19395 0.79565 0.0
C3082 C 0.37942 0.98681 0.27472 0.0
C3083 C 0.39743 0.98883 0.27935 0.0
C3084 C 0.36805 0.96862 0.27087 0.0
C3085 C 0.36688 0.91749 0.25614 0.0
H3086 H 0.32449 0.9086 0.28014 0.0
C3087 C 0.3184 0.84331 0.24371 0.0
C3088 C 0.31372 0.83691 0.2606 0.0
C3089 C 0.32691 0.86247 0.24414 0.0
C3090 C 0.33625 0.91091 0.27329 0.0
H3091 H 0.41763 0.97341 0.28369 0.0
H3092 H 0.39776 0.94169 0.27708 0.0
H3093 H 0.34326 0.94096 0.28477 0.0
H3094 H 0.31368 0.84573 0.29103 0.0
H3095 H 0.32851 0.879 0.29172 0.0
H3096 H 0.36016 0.88734 0.24516 0.0
C3097 C 0.39247 0.95416 0.27621 0.0
C3098 C 0.34691 0.92942 0.27582 0.0
C3099 C 0.40383 0.97233 0.28014 0.0
C3100 C 0.31719 0.85015 0.27777 0.0
C3101 C 0.32556 0.86927 0.27816 0.0
C3102 C 0.35617 0.899 0.25353 0.0
C3103 C 0.37448 0.95212 0.27149 0.0
C3104 C 0.36249 0.93282 0.26757 0.0
C3105 C 0.33071 0.87557 0.26142 0.0
C3106 C 0.34093 0.89547 0.26238 0.0
H3107 H 0.37409 0.99926 0.27397 0.0
H3108 H 0.35424 0.96744 0.26718 0.0
H3109 H 0.37871 0.91977 0.24942 0.0
H3110 H 0.31584 0.83346 0.23024 0.0
H3111 H 0.33064 0.86701 0.231 0.0
C3112 C 0.59478 0.38044 0.60989 0.0
C3113 C 0.58329 0.36215 0.60552 0.0
C3114 C 0.59216 0.39528 0.60023 0.0
C3115 C 0.56716 0.40544 0.55721 0.0
H3116 H 0.57839 0.4571 0.58633 0.0
C3117 C 0.54424 0.46913 0.53035 0.0
C3118 C 0.55614 0.48721 0.53384 0.0
C3119 C 0.5482 0.45362 0.53804 0.0
C3120 C 0.57536 0.44281 0.5779 0.0
H3121 H 0.56004 0.34515 0.5873 0.0
H3122 H 0.55518 0.37108 0.5708 0.0
H3123 H 0.58383 0.43074 0.60162 0.0
H3124 H 0.58175 0.50289 0.54802 0.0
H3125 H 0.58858 0.47591 0.56147 0.0
H3126 H 0.55825 0.41762 0.53363 0.0
C3127 C 0.56649 0.37393 0.58143 0.0
C3128 C 0.57853 0.4276 0.58667 0.0
C3129 C 0.56924 0.35901 0.59097 0.0
C3130 C 0.57224 0.48922 0.54498 0.0
C3131 C 0.57612 0.47376 0.55283 0.0
C3132 C 0.56383 0.42065 0.54849 0.0
C3133 C 0.57782 0.39239 0.58604 0.0
C3134 C 0.57452 0.40865 0.57649 0.0
C3135 C 0.5641 0.45578 0.5496 0.0
C3136 C 0.5679 0.43955 0.55871 0.0
H3137 H 0.60583 0.38338 0.6209 0.0
H3138 H 0.60145 0.40906 0.60396 0.0
H3139 H 0.56413 0.39119 0.54872 0.0
H3140 H 0.53171 0.46697 0.52186 0.0
H3141 H 0.53857 0.44005 0.53536 0.0
C3142 C 0.45307 0.75094 0.35528 0.0
C3143 C 0.45752 0.76254 0.37346 0.0
C3144 C 0.43756 0.75059 0.34386 0.0
C3145 C 0.40528 0.77951 0.33642 0.0
H3146 H 0.37459 0.73142 0.3106 0.0
C3147 C 0.33753 0.77747 0.29703 0.0
C3148 C 0.3316 0.76426 0.27999 0.0
C3149 C 0.35243 0.77666 0.3088 0.0
C3150 C 0.38308 0.74504 0.31746 0.0
H3151 H 0.44906 0.78291 0.39377 0.0
H3152 H 0.42232 0.78243 0.37386 0.0
H3153 H 0.40174 0.73123 0.32957 0.0
H3154 H 0.33653 0.73967 0.26204 0.0
H3155 H 0.36267 0.73854 0.28212 0.0
H3156 H 0.38698 0.79343 0.32409 0.0
C3157 C 0.43078 0.77361 0.3684 0.0
C3158 C 0.39867 0.74489 0.32839 0.0
C3159 C 0.44611 0.77378 0.37987 0.0
C3160 C 0.34072 0.75002 0.27513 0.0
C3161 C 0.3557 0.74932 0.28677 0.0
C3162 C 0.38981 0.77969 0.32534 0.0
C3163 C 0.42628 0.76204 0.35024 0.0
C3164 C 0.40993 0.76212 0.3381 0.0
C3165 C 0.36191 0.76272 0.30372 0.0
C3166 C 0.3784 0.76245 0.31573 0.0
H3167 H 0.46154 0.74209 0.3499 0.0
H3168 H 0.43453 0.7416 0.32988 0.0
H3169 H 0.41376 0.79307 0.34349 0.0
H3170 H 0.33077 0.7886 0.30117 0.0
H3171 H 0.35651 0.78701 0.32188 0.0
C3172 C 0.05728 0.74427 0.08954 0.0
C3173 C 0.07467 0.75504 0.09344 0.0
C3174 C 0.05333 0.72487 0.08095 0.0
C3175 C 0.07271 0.68784 0.05428 0.0
H3176 H 0.03573 0.65193 0.07127 0.0
C3177 C 0.06602 0.60588 0.04003 0.0
C3178 C 0.04929 0.59396 0.03373 0.0
C3179 C 0.06827 0.6256 0.0462 0.0
C3180 C 0.04598 0.66182 0.06623 0.0
H3181 H 0.10153 0.75377 0.09129 0.0
H3182 H 0.09475 0.72007 0.07688 0.0
H3183 H 0.04123 0.68618 0.08397 0.0
H3184 H 0.02176 0.59353 0.0291 0.0
H3185 H 0.02571 0.62801 0.04021 0.0
H3186 H 0.07777 0.66334 0.03701 0.0
C3187 C 0.08405 0.7266 0.07996 0.0
C3188 C 0.04912 0.6815 0.07346 0.0
C3189 C 0.08797 0.74599 0.08837 0.0
C3190 C 0.03484 0.60227 0.03385 0.0
C3191 C 0.03708 0.62201 0.04029 0.0
C3192 C 0.06969 0.66818 0.04724 0.0
C3193 C 0.06667 0.7157 0.07618 0.0
C3194 C 0.06265 0.6948 0.06773 0.0
C3195 C 0.05384 0.63391 0.04645 0.0
C3196 C 0.0564 0.65491 0.05325 0.0
H3197 H 0.0467 0.75079 0.09321 0.0
H3198 H 0.03978 0.71709 0.07802 0.0
H3199 H 0.08297 0.69759 0.04914 0.0
H3200 H 0.07747 0.60002 0.04008 0.0
H3201 H 0.08134 0.63433 0.05105 0.0
C3202 C 0.05673 0.26353 0.85801 0.0
C3203 C 0.05865 0.27065 0.87771 0.0
C3204 C 0.07129 0.26564 0.84799 0.0
C3205 C 0.11652 0.29465 0.85046 0.0
H3206 H 0.12263 0.25158 0.81476 0.0
C3207 C 0.18184 0.29467 0.82001 0.0
C3208 C 0.1813 0.28564 0.80103 0.0
C3209 C 0.16656 0.29335 0.82872 0.0
C3210 C 0.12105 0.26388 0.82445 0.0
H3211 H 0.07741 0.28566 0.90225 0.0
H3212 H 0.10259 0.2893 0.8848 0.0
H3213 H 0.09648 0.24837 0.83075 0.0
H3214 H 0.16403 0.26809 0.77642 0.0
H3215 H 0.13747 0.26639 0.79135 0.0
H3216 H 0.141 0.31023 0.84417 0.0
C3217 C 0.08989 0.28222 0.87705 0.0
C3218 C 0.10602 0.262 0.83365 0.0
C3219 C 0.0754 0.27999 0.88707 0.0
C3220 C 0.16501 0.27549 0.79096 0.0
C3221 C 0.14974 0.27424 0.79964 0.0
C3222 C 0.13149 0.29658 0.8412 0.0
C3223 C 0.08804 0.27506 0.85738 0.0
C3224 C 0.10364 0.27731 0.8469 0.0
C3225 C 0.1503 0.28303 0.8187 0.0
C3226 C 0.13405 0.28117 0.82816 0.0
H3227 H 0.04404 0.25629 0.85036 0.0
H3228 H 0.06939 0.26008 0.8328 0.0
H3229 H 0.11498 0.30685 0.86037 0.0
H3230 H 0.19407 0.30277 0.82819 0.0
H3231 H 0.1676 0.30015 0.84348 0.0
C3232 C 0.58708 0.78438 0.92484 0.0
C3233 C 0.58239 0.78177 0.905 0.0
C3234 C 0.58342 0.76888 0.93458 0.0
C3235 C 0.57303 0.71587 0.92759 0.0
H3236 H 0.556 0.72371 0.9767 0.0
C3237 C 0.54882 0.65336 0.96786 0.0
C3238 C 0.55436 0.65671 0.98761 0.0
C3239 C 0.55164 0.66844 0.95747 0.0
C3240 C 0.56089 0.72133 0.96308 0.0
H3241 H 0.5703 0.76078 0.87979 0.0
H3242 H 0.56378 0.73376 0.89684 0.0
H3243 H 0.56232 0.7503 0.95911 0.0
H3244 H 0.56738 0.67853 0.01184 0.0
H3245 H 0.57218 0.70479 0.99375 0.0
H3246 H 0.57161 0.68689 0.93161 0.0
C3247 C 0.57046 0.74776 0.90483 0.0
C3248 C 0.56453 0.73657 0.95301 0.0
C3249 C 0.57413 0.76327 0.89508 0.0
C3250 C 0.56266 0.6755 0.99673 0.0
C3251 C 0.56544 0.69056 0.98635 0.0
C3252 C 0.56936 0.70061 0.93766 0.0
C3253 C 0.57496 0.75042 0.92472 0.0
C3254 C 0.57076 0.73406 0.9352 0.0
C3255 C 0.56002 0.6872 0.9666 0.0
C3256 C 0.56335 0.70321 0.95558 0.0
H3257 H 0.59352 0.79842 0.93292 0.0
H3258 H 0.58732 0.77136 0.94985 0.0
H3259 H 0.578 0.71352 0.91402 0.0
H3260 H 0.54218 0.63911 0.96045 0.0
H3261 H 0.54711 0.66544 0.94231 0.0
C3262 C 0.04945 0.76333 0.70838 0.0
C3263 C 0.03598 0.74673 0.70692 0.0
C3264 C 0.06497 0.76571 0.72037 0.0
C3265 C 0.09184 0.73627 0.7389 0.0
H3266 H 0.12047 0.78517 0.76572 0.0
C3267 C 0.16309 0.74296 0.76769 0.0
C3268 C 0.17501 0.75861 0.76311 0.0
C3269 C 0.14529 0.74237 0.76611 0.0
C3270 C 0.11263 0.77141 0.75828 0.0
H3271 H 0.02774 0.72022 0.71787 0.0
H3272 H 0.05489 0.72438 0.73881 0.0
H3273 H 0.09009 0.78271 0.75348 0.0
H3274 H 0.17767 0.78652 0.75456 0.0
H3275 H 0.14659 0.78517 0.75107 0.0
H3276 H 0.11443 0.72512 0.74274 0.0
C3277 C 0.05349 0.73544 0.7305 0.0
C3278 C 0.09525 0.77 0.75133 0.0
C3279 C 0.03793 0.73309 0.71855 0.0
C3280 C 0.1688 0.77409 0.75784 0.0
C3281 C 0.15098 0.77344 0.75613 0.0
C3282 C 0.1092 0.73769 0.74574 0.0
C3283 C 0.06734 0.75151 0.73113 0.0
C3284 C 0.08481 0.75251 0.74116 0.0
C3285 C 0.13897 0.75735 0.75977 0.0
C3286 C 0.11994 0.75538 0.7551 0.0
H3287 H 0.04831 0.77418 0.69969 0.0
H3288 H 0.07545 0.77816 0.72041 0.0
H3289 H 0.08423 0.72266 0.73087 0.0
H3290 H 0.16738 0.73073 0.77169 0.0
H3291 H 0.13641 0.72991 0.76931 0.0
C3292 C 0.06659 0.35637 0.3987 0.0
C3293 C 0.07248 0.35968 0.38123 0.0
C3294 C 0.0667 0.37171 0.41302 0.0
C3295 C 0.06809 0.42334 0.42239 0.0
H3296 H 0.08346 0.41847 0.47419 0.0
C3297 C 0.0557 0.47155 0.48915 0.0
C3298 C 0.0685 0.47642 0.50512 0.0
C3299 C 0.05757 0.45905 0.47304 0.0
C3300 C 0.07936 0.42021 0.4598 0.0
H3301 H 0.08273 0.3817 0.36492 0.0
H3302 H 0.08303 0.4086 0.39012 0.0
H3303 H 0.08398 0.39323 0.44793 0.0
H3304 H 0.09361 0.47291 0.51664 0.0
H3305 H 0.09705 0.45124 0.4884 0.0
H3306 H 0.06359 0.45047 0.43436 0.0
C3307 C 0.07823 0.39409 0.39262 0.0
C3308 C 0.07943 0.40561 0.44477 0.0
C3309 C 0.07811 0.3787 0.37823 0.0
C3310 C 0.08347 0.46916 0.50454 0.0
C3311 C 0.0854 0.45674 0.48841 0.0
C3312 C 0.06803 0.43801 0.43747 0.0
C3313 C 0.07274 0.39073 0.41025 0.0
C3314 C 0.07355 0.40687 0.42594 0.0
C3315 C 0.07231 0.45125 0.47263 0.0
C3316 C 0.07349 0.43648 0.45637 0.0
H3317 H 0.06206 0.3419 0.40143 0.0
H3318 H 0.06205 0.36866 0.42631 0.0
H3319 H 0.06343 0.42467 0.40802 0.0
H3320 H 0.04402 0.47699 0.48931 0.0
H3321 H 0.04717 0.45494 0.46121 0.0
C3322 C 0.43534 0.22601 0.18132 0.0
C3323 C 0.45097 0.24012 0.18296 0.0
C3324 C 0.42202 0.22939 0.19196 0.0
C3325 C 0.40632 0.26975 0.21539 0.0
H3326 H 0.37756 0.23152 0.23916 0.0
C3327 C 0.35541 0.28957 0.26099 0.0
C3328 C 0.33879 0.27704 0.25708 0.0
C3329 C 0.36969 0.2839 0.25406 0.0
C3330 C 0.38547 0.24228 0.23251 0.0
H3331 H 0.4653 0.26839 0.19774 0.0
H3332 H 0.44228 0.2741 0.21639 0.0
H3333 H 0.40149 0.22349 0.22271 0.0
H3334 H 0.32413 0.24851 0.24344 0.0
H3335 H 0.34904 0.23891 0.23074 0.0
H3336 H 0.39033 0.28847 0.22487 0.0
C3337 C 0.44009 0.26064 0.20658 0.0
C3338 C 0.39911 0.23768 0.22309 0.0
C3339 C 0.4533 0.25733 0.19592 0.0
C3340 C 0.33682 0.25845 0.24677 0.0
C3341 C 0.35108 0.25288 0.2396 0.0
C3342 C 0.39278 0.27433 0.22478 0.0
C3343 C 0.42419 0.2469 0.20445 0.0
C3344 C 0.40969 0.25143 0.2145 0.0
C3345 C 0.36758 0.26569 0.24289 0.0
C3346 C 0.38224 0.26069 0.23349 0.0
H3347 H 0.43322 0.21258 0.17148 0.0
H3348 H 0.40984 0.21859 0.18996 0.0
H3349 H 0.41398 0.2805 0.20852 0.0
H3350 H 0.35733 0.3039 0.26911 0.0
H3351 H 0.38233 0.29395 0.25708 0.0
C3352 C 0.6401 0.52693 0.34184 0.0
C3353 C 0.63332 0.51058 0.32745 0.0
C3354 C 0.63242 0.52974 0.35915 0.0
C3355 C 0.59041 0.51194 0.38086 0.0
H3356 H 0.61721 0.5368 0.42961 0.0
C3357 C 0.55735 0.50838 0.45069 0.0
C3358 C 0.56196 0.52332 0.46671 0.0
C3359 C 0.56692 0.50797 0.43491 0.0
C3360 C 0.60935 0.52994 0.41616 0.0
H3361 H 0.61274 0.48444 0.321 0.0
H3362 H 0.59981 0.48916 0.35024 0.0
H3363 H 0.63174 0.5343 0.40063 0.0
H3364 H 0.58111 0.54986 0.47798 0.0
H3365 H 0.59802 0.54918 0.4505 0.0
H3366 H 0.56806 0.50772 0.39596 0.0
C3367 C 0.61091 0.50015 0.34835 0.0
C3368 C 0.6178 0.52848 0.3993 0.0
C3369 C 0.61856 0.49733 0.3313 0.0
C3370 C 0.57709 0.53785 0.46628 0.0
C3371 C 0.58681 0.53746 0.45027 0.0
C3372 C 0.58202 0.51342 0.39756 0.0
C3373 C 0.61749 0.51644 0.36281 0.0
C3374 C 0.60858 0.51916 0.38118 0.0
C3375 C 0.58175 0.52263 0.43393 0.0
C3376 C 0.59121 0.52217 0.41581 0.0
H3377 H 0.65141 0.53758 0.33981 0.0
H3378 H 0.63811 0.54257 0.36956 0.0
H3379 H 0.58239 0.50517 0.36748 0.0
H3380 H 0.54594 0.49679 0.45016 0.0
H3381 H 0.56252 0.49587 0.42336 0.0
C3382 C 0.2986 0.90918 0.04311 0.0
C3383 C 0.29442 0.90052 0.02379 0.0
C3384 C 0.29697 0.898 0.05744 0.0
C3385 C 0.29625 0.84923 0.066 0.0
H3386 H 0.27853 0.8662 0.11282 0.0
C3387 C 0.28672 0.80335 0.12532 0.0
C3388 C 0.29256 0.81306 0.14411 0.0
C3389 C 0.28573 0.81361 0.11035 0.0
C3390 C 0.28363 0.86136 0.09988 0.0
H3391 H 0.28495 0.8734 1.00436 0.0
H3392 H 0.28196 0.85385 0.0295 0.0
H3393 H 0.27867 0.88478 0.08695 0.0
H3394 H 0.30195 0.84108 0.16199 0.0
H3395 H 0.30021 0.85902 0.13581 0.0
H3396 H 0.30138 0.82593 0.079 0.0
C3397 C 0.28669 0.86928 0.03349 0.0
C3398 C 0.28369 0.87198 0.08508 0.0
C3399 C 0.28831 0.88048 0.01911 0.0
C3400 C 0.29718 0.83323 0.14768 0.0
C3401 C 0.29618 0.84349 0.1327 0.0
C3402 C 0.29618 0.83861 0.0808 0.0
C3403 C 0.29111 0.87793 0.05279 0.0
C3404 C 0.29014 0.86611 0.06806 0.0
C3405 C 0.29054 0.83378 0.11388 0.0
C3406 C 0.28999 0.84465 0.09793 0.0
H3407 H 0.30339 0.92459 0.04719 0.0
H3408 H 0.3007 0.90505 0.07218 0.0
H3409 H 0.30154 0.84451 0.05316 0.0
H3410 H 0.2828 0.78781 0.12219 0.0
H3411 H 0.28109 0.80576 0.09602 0.0
C3412 C 0.94304 0.54187 0.86009 0.0
C3413 C 0.9413 0.55747 0.85112 0.0
C3414 C 0.95767 0.54325 0.87305 0.0
C3415 C 0.99221 0.57536 0.90671 0.0
H3416 H 0.01444 0.53267 0.89895 0.0
C3417 C 0.04699 0.56521 0.96152 0.0
C3418 C 0.04297 0.54688 0.96656 0.0
C3419 C 0.03755 0.56902 0.94554 0.0
C3420 C 0.00845 0.54475 0.90125 0.0
H3421 H 0.95319 0.58706 0.84935 0.0
H3422 H 0.97878 0.58954 0.87252 0.0
H3423 H 0.99141 0.53499 0.87497 0.0
H3424 H 0.0266 0.51803 0.95876 0.0
H3425 H 0.01034 0.52453 0.93101 0.0
H3426 H 0.00868 0.58454 0.93354 0.0
C3427 C 0.96881 0.57622 0.86922 0.0
C3428 C 0.99529 0.54606 0.88756 0.0
C3429 C 0.9542 0.57478 0.85601 0.0
C3430 C 0.02994 0.53228 0.95513 0.0
C3431 C 0.02071 0.53599 0.93917 0.0
C3432 C 1.00538 0.57399 0.92053 0.0
C3433 C 0.97083 0.56029 0.87748 0.0
C3434 C 0.98662 0.56096 0.8905 0.0
C3435 C 0.02424 0.55442 0.93431 0.0
C3436 C 0.01314 0.55826 0.91821 0.0
H3437 H 0.93335 0.52835 0.85672 0.0
H3438 H 0.95879 0.53087 0.87951 0.0
H3439 H 0.9857 0.58699 0.90925 0.0
H3440 H 0.05696 0.5767 0.97025 0.0
H3441 H 0.04052 0.58335 0.94208 0.0
C3442 C 0.2903 0.21236 0.55635 0.0
C3443 C 0.27432 0.2097 0.54477 0.0
C3444 C 0.29258 0.22138 0.57547 0.0
C3445 C 0.26729 0.23087 0.61513 0.0
H3446 H 0.31011 0.2671 0.6391 0.0
C3447 C 0.27372 0.26934 0.69302 0.0
C3448 C 0.28962 0.27165 0.70462 0.0
C3449 C 0.27222 0.26322 0.67329 0.0
C3450 C 0.29813 0.25685 0.6327 0.0
H3451 H 0.24837 0.21495 0.54417 0.0
H3452 H 0.25238 0.23065 0.57743 0.0
H3453 H 0.30695 0.25385 0.60511 0.0
H3454 H 0.31652 0.26965 0.70439 0.0
H3455 H 0.3138 0.25862 0.67007 0.0
H3456 H 0.25855 0.23346 0.64265 0.0
C3457 C 0.26309 0.22559 0.57178 0.0
C3458 C 0.29632 0.24929 0.61319 0.0
C3459 C 0.26084 0.21669 0.55265 0.0
C3460 C 0.30408 0.26808 0.69591 0.0
C3461 C 0.30254 0.26183 0.67617 0.0
C3462 C 0.26914 0.23832 0.63462 0.0
C3463 C 0.2789 0.22783 0.5835 0.0
C3464 C 0.28086 0.23621 0.60417 0.0
C3465 C 0.28653 0.2591 0.6646 0.0
C3466 C 0.28457 0.25143 0.6437 0.0
H3467 H 0.30096 0.20716 0.55075 0.0
H3468 H 0.30488 0.22275 0.58413 0.0
H3469 H 0.25534 0.22056 0.60874 0.0
H3470 H 0.26234 0.27211 0.69918 0.0
H3471 H 0.25978 0.26169 0.66484 0.0
C3472 C 0.61164 0.51082 0.21818 0.0
C3473 C 0.62984 0.51467 0.22376 0.0
C3474 C 0.60455 0.51249 0.19975 0.0
C3475 C 0.6151 0.53527 0.15637 0.0
H3476 H 0.57149 0.50058 0.13243 0.0
C3477 C 0.57593 0.54884 0.08701 0.0
C3478 C 0.56656 0.53303 0.07314 0.0
C3479 C 0.58393 0.54636 0.10479 0.0
C3480 C 0.58373 0.51043 0.13869 0.0
H3481 H 0.65469 0.52355 0.21339 0.0
H3482 H 0.64241 0.52665 0.18137 0.0
H3483 H 0.58484 0.49652 0.16327 0.0
H3484 H 0.55855 0.50195 0.06791 0.0
H3485 H 0.57219 0.49765 0.09864 0.0
H3486 H 0.61395 0.5492 0.13176 0.0
C3487 C 0.63352 0.52223 0.19141 0.0
C3488 C 0.5914 0.50819 0.15671 0.0
C3489 C 0.64065 0.52028 0.20988 0.0
C3490 C 0.56551 0.51461 0.07798 0.0
C3491 C 0.57336 0.51213 0.09585 0.0
C3492 C 0.6073 0.53766 0.13842 0.0
C3493 C 0.61525 0.51837 0.18588 0.0
C3494 C 0.60728 0.52056 0.16607 0.0
C3495 C 0.58284 0.52795 0.10972 0.0
C3496 C 0.59139 0.5253 0.1291 0.0
H3497 H 0.60268 0.50654 0.22821 0.0
H3498 H 0.5905 0.50956 0.19656 0.0
H3499 H 0.62718 0.54529 0.16282 0.0
H3500 H 0.5772 0.5633 0.08412 0.0
H3501 H 0.5908 0.55906 0.11484 0.0
C3502 C 0.33829 0.90151 0.94929 0.0
C3503 C 0.32367 0.90921 0.95171 0.0
C3504 C 0.33763 0.88657 0.93419 0.0
C3505 C 0.30661 0.84747 0.90145 0.0
H3506 H 0.34218 0.85173 0.86737 0.0
C3507 C 0.30063 0.79165 0.83332 0.0
C3508 C 0.30192 0.80022 0.81694 0.0
C3509 C 0.30622 0.80286 0.85145 0.0
C3510 C 0.33226 0.85026 0.8769 0.0
H3511 H 0.29695 0.9074 0.94014 0.0
H3512 H 0.29582 0.88139 0.91391 0.0
H3513 H 0.34577 0.8759 0.89618 0.0
H3514 H 0.31053 0.82695 0.80653 0.0
H3515 H 0.3205 0.84635 0.83799 0.0
H3516 H 0.29274 0.82232 0.88185 0.0
C3517 C 0.30774 0.88679 0.92375 0.0
C3518 C 0.33435 0.86401 0.89339 0.0
C3519 C 0.30846 0.90182 0.93866 0.0
C3520 C 0.30955 0.81993 0.8189 0.0
C3521 C 0.31532 0.83104 0.83693 0.0
C3522 C 0.30459 0.83365 0.88508 0.0
C3523 C 0.32226 0.87894 0.92144 0.0
C3524 C 0.32128 0.86305 0.90548 0.0
C3525 C 0.31338 0.82272 0.8534 0.0
C3526 C 0.31714 0.83524 0.87235 0.0
H3527 H 0.3502 0.90691 0.95913 0.0
H3528 H 0.349 0.88075 0.93269 0.0
H3529 H 0.29644 0.84629 0.9107 0.0
H3530 H 0.29479 0.77647 0.83216 0.0
H3531 H 0.30462 0.79611 0.86395 0.0
C3532 C 0.95099 0.52104 0.76404 0.0
C3533 C 0.93825 0.53165 0.76261 0.0
C3534 C 0.95784 0.51426 0.74776 0.0
C3535 C 0.96275 0.52351 0.69875 0.0
H3536 H 0.97881 0.47639 0.69367 0.0
C3537 C 0.99494 0.49912 0.63396 0.0
C3538 C 0.01182 0.49683 0.63907 0.0
C3539 C 0.9834 0.49983 0.64754 0.0
C3540 C 0.97427 0.48951 0.69491 0.0
H3541 H 0.92205 0.54274 0.74307 0.0
H3542 H 0.9335 0.53038 0.71463 0.0
H3543 H 0.96312 0.48463 0.72046 0.0
H3544 H 0.02947 0.49249 0.66222 0.0
H3545 H 0.00915 0.49334 0.68579 0.0
H3546 H 0.97392 0.52837 0.67324 0.0
C3547 C 0.93871 0.52784 0.72832 0.0
C3548 C 0.96542 0.49432 0.71028 0.0
C3549 C 0.93211 0.5349 0.74461 0.0
C3550 C 0.01652 0.49409 0.65775 0.0
C3551 C 1.0049 0.49458 0.67126 0.0
C3552 C 0.97135 0.51856 0.68329 0.0
C3553 C 0.95185 0.51769 0.72972 0.0
C3554 C 0.95987 0.51158 0.71258 0.0
C3555 C 0.98845 0.49799 0.66639 0.0
C3556 C 0.97746 0.50172 0.68143 0.0
H3557 H 0.95594 0.51834 0.77777 0.0
H3558 H 0.96814 0.50677 0.74942 0.0
H3559 H 0.95899 0.53708 0.70021 0.0
H3560 H 0.99076 0.5008 0.61956 0.0
H3561 H 0.97069 0.50229 0.64344 0.0
C3562 C 0.28411 0.19932 0.43533 0.0
C3563 C 0.28512 0.21132 0.45299 0.0
C3564 C 0.28596 0.20707 0.41856 0.0
C3565 C 0.30326 0.25277 0.40151 0.0
H3566 H 0.27507 0.22639 0.35388 0.0
C3567 C 0.31553 0.2791 0.33039 0.0
C3568 C 0.30086 0.27895 0.31773 0.0
C3569 C 0.31372 0.26985 0.34623 0.0
C3570 C 0.28298 0.23402 0.36707 0.0
H3571 H 0.28865 0.2409 0.46675 0.0
H3572 H 0.29159 0.25435 0.43755 0.0
H3573 H 0.27129 0.21273 0.38291 0.0
H3574 H 0.2728 0.26863 0.31144 0.0
H3575 H 0.26955 0.25265 0.3392 0.0
H3576 H 0.31461 0.27433 0.38586 0.0
C3577 C 0.28969 0.23896 0.43667 0.0
C3578 C 0.28095 0.22606 0.38371 0.0
C3579 C 0.2879 0.23123 0.45343 0.0
C3580 C 0.28436 0.26892 0.32093 0.0
C3581 C 0.28253 0.2597 0.33682 0.0
C3582 C 0.30527 0.26074 0.38491 0.0
C3583 C 0.28883 0.22701 0.419 0.0
C3584 C 0.29104 0.23535 0.40118 0.0
C3585 C 0.29716 0.26028 0.34985 0.0
C3586 C 0.29515 0.2515 0.36745 0.0
H3587 H 0.28204 0.18392 0.43445 0.0
H3588 H 0.28543 0.19742 0.40529 0.0
H3589 H 0.31143 0.26024 0.4146 0.0
H3590 H 0.32843 0.2866 0.3282 0.0
H3591 H 0.32533 0.27028 0.35569 0.0
C3592 C 0.35738 0.65227 0.5075 0.0
C3593 C 0.33991 0.64181 0.50361 0.0
C3594 C 0.37091 0.64298 0.50481 0.0
C3595 C 0.38011 0.59704 0.48245 0.0
H3596 H 0.41798 0.60933 0.52403 0.0
C3597 C 0.42279 0.54486 0.4977 0.0
C3598 C 0.44086 0.5525 0.5021 0.0
C3599 C 0.41147 0.557 0.49614 0.0
C3600 C 0.40761 0.60591 0.51219 0.0
H3601 H 0.32292 0.61355 0.4931 0.0
H3602 H 0.34634 0.59741 0.48881 0.0
H3603 H 0.3966 0.62888 0.52363 0.0
H3604 H 0.46124 0.57889 0.50787 0.0
H3605 H 0.44139 0.60004 0.5056 0.0
H3606 H 0.39082 0.5736 0.47144 0.0
C3607 C 0.3497 0.6128 0.49366 0.0
C3608 C 0.39541 0.61716 0.5119 0.0
C3609 C 0.33623 0.62206 0.49629 0.0
C3610 C 0.44735 0.57254 0.5049 0.0
C3611 C 0.43602 0.58467 0.50349 0.0
C3612 C 0.39223 0.58571 0.48283 0.0
C3613 C 0.36719 0.62306 0.49819 0.0
C3614 C 0.38132 0.61262 0.49721 0.0
C3615 C 0.41798 0.57701 0.49906 0.0
C3616 C 0.40591 0.58985 0.49788 0.0
H3617 H 0.36063 0.66754 0.51305 0.0
H3618 H 0.38426 0.65133 0.50818 0.0
H3619 H 0.36961 0.59339 0.47074 0.0
H3620 H 0.41735 0.52952 0.49566 0.0
H3621 H 0.39757 0.55074 0.49298 0.0
C3622 C 0.86462 0.94619 0.53755 0.0
C3623 C 0.86233 0.93045 0.54726 0.0
C3624 C 0.8814 0.95679 0.53611 0.0
C3625 C 0.92764 0.9668 0.55799 0.0
H3626 H 0.93746 0.98486 0.51073 0.0
C3627 C 0.99256 0.01939 0.55168 0.0
C3628 C 0.99983 0.01702 0.53452 0.0
C3629 C 0.97602 0.00844 0.5533 0.0
C3630 C 0.93501 0.97977 0.52398 0.0
H3631 H 0.87597 0.91356 0.56305 0.0
H3632 H 0.90506 0.93178 0.56033 0.0
H3633 H 0.90822 0.96672 0.51337 0.0
H3634 H 0.99559 1.00112 0.50564 0.0
H3635 H 0.96686 0.98165 0.50855 0.0
H3636 H 0.9545 0.97945 0.56846 0.0
C3637 C 0.89394 0.93619 0.55408 0.0
C3638 C 0.91814 0.96959 0.52559 0.0
C3639 C 0.87721 0.92565 0.55556 0.0
C3640 C 0.99036 1.0032 0.51909 0.0
C3641 C 0.9738 0.9922 0.52071 0.0
C3642 C 0.9445 0.97695 0.55638 0.0
C3643 C 0.89629 0.95189 0.54431 0.0
C3644 C 0.91422 0.96296 0.54262 0.0
C3645 C 0.96633 0.99479 0.53779 0.0
C3646 C 0.94842 0.98361 0.53936 0.0
H3647 H 0.85345 0.95032 0.53101 0.0
H3648 H 0.88268 0.96894 0.5287 0.0
H3649 H 0.9251 0.96213 0.57141 0.0
H3650 H 0.99955 0.02997 0.5638 0.0
H3651 H 0.97065 0.01103 0.56659 0.0
C3652 C 0.87918 0.11096 0.2601 0.0
C3653 C 0.8974 0.11531 0.25924 0.0
C3654 C 0.86946 0.12551 0.26092 0.0
C3655 C 0.87558 0.18078 0.26991 0.0
H3656 H 0.82677 0.1693 0.24976 0.0
C3657 C 0.83889 0.2435 0.26461 0.0
C3658 C 0.82069 0.24024 0.26534 0.0
C3659 C 0.84779 0.22836 0.26399 0.0
C3660 C 0.84036 0.17302 0.25573 0.0
H3661 H 0.91907 0.13931 0.25839 0.0
H3662 H 0.90264 0.16378 0.25951 0.0
H3663 H 0.84219 0.14355 0.24872 0.0
H3664 H 0.79797 0.21745 0.2659 0.0
H3665 H 0.81317 0.19152 0.26502 0.0
H3666 H 0.87384 0.21017 0.27698 0.0
C3667 C 0.89562 0.14929 0.25998 0.0
C3668 C 0.84937 0.15794 0.25511 0.0
C3669 C 0.90522 0.13489 0.25916 0.0
C3670 C 0.8119 0.22096 0.26534 0.0
C3671 C 0.82077 0.20581 0.26469 0.0
C3672 C 0.86661 0.19582 0.27052 0.0
C3673 C 0.87745 0.14519 0.261 0.0
C3674 C 0.86731 0.16136 0.26209 0.0
C3675 C 0.83901 0.209 0.26401 0.0
C3676 C 0.84872 0.19248 0.26338 0.0
H3677 H 0.87238 0.09628 0.26021 0.0
H3678 H 0.85563 0.12126 0.26179 0.0
H3679 H 0.88915 0.18456 0.27598 0.0
H3680 H 0.84636 0.25786 0.26438 0.0
H3681 H 0.86166 0.23196 0.26316 0.0
C3682 C 0.71405 0.1015 1.00217 0.0
C3683 C 0.72028 0.12132 0.00882 0.0
C3684 C 0.69617 0.09357 0.99707 0.0
C3685 C 0.65468 0.10308 0.00841 0.0
H3686 H 0.63407 0.0626 0.96532 0.0
C3687 C 0.58245 0.0717 1.00032 0.0
C3688 C 0.5777 0.05164 0.99801 0.0
C3689 C 0.59858 0.08094 0.99594 0.0
C3690 C 0.63967 0.07389 0.9774 0.0
H3691 H 0.71279 0.14847 0.01454 0.0
H3692 H 0.68174 0.13466 0.00564 0.0
H3693 H 0.66547 0.07727 0.9693 0.0
H3694 H 0.58504 0.02527 0.98771 0.0
H3695 H 0.61376 0.04143 0.98086 0.0
H3696 H 0.62938 0.09942 0.01711 0.0
C3697 C 0.6906 0.12521 1.00461 0.0
C3698 C 0.6576 0.08224 0.97968 0.0
C3699 C 0.7084 0.13311 0.00972 0.0
C3700 C 0.58853 0.04081 0.98958 0.0
C3701 C 0.60494 0.05009 0.98563 0.0
C3702 C 0.63691 0.09474 0.0062 0.0
C3703 C 0.68427 0.10533 0.99855 0.0
C3704 C 0.66525 0.09687 0.99528 0.0
C3705 C 0.61047 0.07026 0.98979 0.0
C3706 C 0.62915 0.08001 0.99072 0.0
H3707 H 0.72292 0.09207 1.00121 0.0
H3708 H 0.69163 0.07817 0.9926 0.0
H3709 H 0.66025 0.114 0.02081 0.0
H3710 H 0.57412 0.08028 0.00659 0.0
H3711 H 0.60221 0.0965 0.99867 0.0
C3712 C 0.18663 0.48759 0.2725 0.0
C3713 C 0.16917 0.48201 0.27582 0.0
C3714 C 0.19911 0.47888 0.27993 0.0
C3715 C 0.20402 0.4341 0.29339 0.0
H3716 H 0.25051 0.4637 0.31493 0.0
C3717 C 0.25889 0.39622 0.30697 0.0
C3718 C 0.27446 0.40416 0.30021 0.0
C3719 C 0.24622 0.40671 0.30933 0.0
C3720 C 0.2376 0.45523 0.30892 0.0
H3721 H 0.15111 0.46302 0.28966 0.0
H3722 H 0.17305 0.44739 0.30235 0.0
H3723 H 0.22738 0.48022 0.30875 0.0
H3724 H 0.28962 0.4293 0.29138 0.0
H3725 H 0.26733 0.44765 0.29497 0.0
H3726 H 0.2143 0.40919 0.29248 0.0
C3727 C 0.17698 0.45865 0.29409 0.0
C3728 C 0.22438 0.46468 0.30546 0.0
C3729 C 0.16447 0.46757 0.28683 0.0
C3730 C 0.27768 0.42305 0.29673 0.0
C3731 C 0.26493 0.43352 0.29889 0.0
C3732 C 0.21726 0.42465 0.29669 0.0
C3733 C 0.19441 0.46426 0.29069 0.0
C3734 C 0.2076 0.45422 0.29719 0.0
C3735 C 0.24885 0.42526 0.30471 0.0
C3736 C 0.23433 0.43514 0.30401 0.0
H3737 H 0.1907 0.49875 0.26416 0.0
H3738 H 0.2124 0.48326 0.27683 0.0
H3739 H 0.19123 0.42571 0.28684 0.0
H3740 H 0.25633 0.38166 0.30987 0.0
H3741 H 0.23416 0.40006 0.31419 0.0
C3742 C 0.24482 0.41093 0.01665 0.0
C3743 C 0.26102 0.41965 0.02766 0.0
C3744 C 0.23102 0.42007 0.01699 0.0
C3745 C 0.21485 0.45775 0.0459 0.0
H3746 H 0.18473 0.45459 0.99902 0.0
C3747 C 0.16222 0.50156 0.04136 0.0
C3748 C 0.146 0.49243 0.03054 0.0
C3749 C 0.17625 0.49276 0.04105 0.0
C3750 C 0.19288 0.45543 0.01228 0.0
H3751 H 0.27539 0.44493 0.04763 0.0
H3752 H 0.25132 0.461 0.04807 0.0
H3753 H 0.20934 0.43952 0.99833 0.0
H3754 H 0.13187 0.46669 0.01104 0.0
H3755 H 0.15636 0.45134 0.01048 0.0
H3756 H 0.19838 0.47368 0.05984 0.0
C3757 C 0.24924 0.44695 0.03934 0.0
C3758 C 0.20702 0.44679 0.01189 0.0
C3759 C 0.26308 0.43779 0.039 0.0
C3760 C 0.14421 0.47425 0.01936 0.0
C3761 C 0.15827 0.46545 0.01904 0.0
C3762 C 0.20071 0.46641 0.04629 0.0
C3763 C 0.23302 0.43819 0.02833 0.0
C3764 C 0.21817 0.44778 0.02871 0.0
C3765 C 0.17448 0.4746 0.02988 0.0
C3766 C 0.18952 0.46533 0.02948 0.0
H3767 H 0.24271 0.39694 0.0078 0.0
H3768 H 0.21866 0.41274 0.00855 0.0
H3769 H 0.22298 0.45855 0.05918 0.0
H3770 H 0.16421 0.51572 0.04983 0.0
H3771 H 0.18861 0.50038 0.04932 0.0
C3772 C 0.87912 0.99045 0.24936 0.0
C3773 C 0.88787 1.00154 0.26688 0.0
C3774 C 0.87012 0.97093 0.24811 0.0
C3775 C 0.85348 0.93382 0.2796 0.0
H3776 H 0.84673 0.89752 0.23245 0.0
C3777 C 0.8254 0.85078 0.27637 0.0
C3778 C 0.81334 0.84071 0.26045 0.0
C3779 C 0.83471 0.87001 0.27692 0.0
C3780 C 0.84836 0.90741 0.24578 0.0
H3781 H 0.89414 0.99991 0.29671 0.0
H3782 H 0.87941 0.96657 0.2945 0.0
H3783 H 0.86194 0.93092 0.23355 0.0
H3784 H 0.80212 0.8433 0.23244 0.0
H3785 H 0.81839 0.87631 0.2332 0.0
H3786 H 0.84015 0.91017 0.29186 0.0
C3787 C 0.87873 0.9728 0.28167 0.0
C3788 C 0.85712 0.92684 0.24641 0.0
C3789 C 0.88746 0.99221 0.28293 0.0
C3790 C 0.81127 0.85043 0.24497 0.0
C3791 C 0.82072 0.86949 0.24538 0.0
C3792 C 0.84494 0.91438 0.27901 0.0
C3793 C 0.86965 0.96162 0.2643 0.0
C3794 C 0.85994 0.94059 0.26336 0.0
C3795 C 0.83253 0.87983 0.26144 0.0
C3796 C 0.84214 0.90072 0.2621 0.0
H3797 H 0.87903 0.99691 0.23661 0.0
H3798 H 0.8633 0.96327 0.2344 0.0
H3799 H 0.85471 0.9436 0.29292 0.0
H3800 H 0.8274 0.84392 0.28862 0.0
H3801 H 0.84374 0.87718 0.28951 0.0
C3802 C 0.67535 0.10065 0.7381 0.0
C3803 C 0.67932 0.08711 0.74889 0.0
C3804 C 0.68388 0.12002 0.7434 0.0
C3805 C 0.72415 0.15123 0.77145 0.0
H3806 H 0.70136 0.19173 0.76194 0.0
C3807 C 0.76025 0.23135 0.787 0.0
C3808 C 0.75922 0.24012 0.77078 0.0
C3809 C 0.74909 0.21356 0.78731 0.0
C3810 C 0.70782 0.18053 0.76476 0.0
H3811 H 0.69473 0.08326 0.77411 0.0
H3812 H 0.7092 0.11707 0.78364 0.0
H3813 H 0.68426 0.15856 0.75698 0.0
H3814 H 0.74521 0.23777 0.74264 0.0
H3815 H 0.72566 0.20688 0.7433 0.0
H3816 H 0.74772 0.17327 0.7791 0.0
C3817 C 0.69992 0.11273 0.77079 0.0
C3818 C 0.6981 0.16155 0.7618 0.0
C3819 C 0.69158 0.09335 0.76535 0.0
C3820 C 0.74642 0.23123 0.75525 0.0
C3821 C 0.73512 0.21366 0.75569 0.0
C3822 C 0.73381 0.17023 0.77462 0.0
C3823 C 0.69636 0.12626 0.75974 0.0
C3824 C 0.70624 0.14663 0.76468 0.0
C3825 C 0.73654 0.20452 0.77157 0.0
C3826 C 0.72581 0.18496 0.77089 0.0
H3827 H 0.66598 0.09622 0.72532 0.0
H3828 H 0.68101 0.13001 0.73438 0.0
H3829 H 0.73092 0.1401 0.77354 0.0
H3830 H 0.76999 0.23794 0.79918 0.0
H3831 H 0.75037 0.20675 0.79972 0.0
loop_
_geom_bond_atom_site_label_1
_geom_bond_atom_site_label_2
_geom_bond_distance
_geom_bond_site_symmetry_2
_ccdc_geom_bond_type
C0 O1 1.160 . S
C0 O7 1.185 . S
O1 C0 1.160 . S
O2 Zn3 1.899 . S
O2 C10 1.284 . S
Zn3 O2 1.899 . S
Zn3 O4 2.032 . S
Zn3 O7 2.086 . S
Zn3 O12 1.977 . S
O4 Zn3 2.032 . S
O4 C8 1.278 . S
C5 O6 1.203 . S
C5 O12 1.267 . S
O6 C5 1.203 . S
O7 C0 1.185 . S
O7 Zn3 2.086 . S
C8 O4 1.278 . S
C8 O9 1.211 . S
O9 C8 1.211 . S
C10 O2 1.284 . S
C10 O11 1.273 . S
O11 C10 1.273 . S
O12 Zn3 1.977 . S
O12 C5 1.267 . S
C13 O14 1.160 . S
C13 O20 1.185 . S
O14 C13 1.160 . S
O15 Zn16 1.899 . S
O15 C23 1.284 . S
Zn16 O15 1.899 . S
Zn16 O17 2.032 . S
Zn16 O20 2.086 . S
Zn16 O25 1.977 1_655 S
O17 Zn16 2.032 . S
O17 C21 1.278 1_655 S
C18 O19 1.203 . S
C18 O25 1.267 . S
O19 C18 1.203 . S
O20 C13 1.185 . S
O20 Zn16 2.086 . S
C21 O17 1.278 1_455 S
C21 O22 1.211 . S
O22 C21 1.211 . S
C23 O15 1.284 . S
C23 O24 1.273 1_655 S
O24 C23 1.273 1_455 S
O25 Zn16 1.977 1_455 S
O25 C18 1.267 . S
C26 O27 1.160 . S
C26 O33 1.185 . S
O27 C26 1.160 . S
O28 Zn29 1.899 . S
O28 C36 1.284 . S
Zn29 O28 1.899 . S
Zn29 O30 2.032 . S
Zn29 O33 2.086 . S
Zn29 O38 1.977 . S
O30 Zn29 2.032 . S
O30 C34 1.278 . S
C31 O32 1.203 . S
C31 O38 1.267 . S
O32 C31 1.203 . S
O33 C26 1.185 . S
O33 Zn29 2.086 . S
C34 O30 1.278 . S
C34 O35 1.211 . S
O35 C34 1.211 . S
C36 O28 1.284 . S
C36 O37 1.273 . S
O37 C36 1.273 . S
O38 Zn29 1.977 . S
O38 C31 1.267 . S
C39 O40 1.160 . S
C39 O46 1.185 . S
O40 C39 1.160 . S
O41 Zn42 1.899 . S
O41 C49 1.284 . S
Zn42 O41 1.899 . S
Zn42 O43 2.032 . S
Zn42 O46 2.086 . S
Zn42 O51 1.977 . S
O43 Zn42 2.032 . S
O43 C47 1.278 . S
C44 O45 1.203 . S
C44 O51 1.267 . S
O45 C44 1.203 . S
O46 C39 1.185 . S
O46 Zn42 2.086 . S
C47 O43 1.278 . S
C47 O48 1.211 . S
O48 C47 1.211 . S
C49 O41 1.284 . S
C49 O50 1.273 . S
O50 C49 1.273 . S
O51 Zn42 1.977 . S
O51 C44 1.267 . S
C52 O53 1.160 . S
C52 O59 1.185 . S
O53 C52 1.160 . S
O54 Zn55 1.899 . S
O54 C62 1.284 . S
Zn55 O54 1.899 . S
Zn55 O56 2.032 . S
Zn55 O59 2.086 . S
Zn55 O64 1.977 . S
O56 Zn55 2.032 . S
O56 C60 1.278 . S
C57 O58 1.203 . S
C57 O64 1.267 . S
O58 C57 1.203 . S
O59 C52 1.185 . S
O59 Zn55 2.086 . S
C60 O56 1.278 . S
C60 O61 1.211 . S
O61 C60 1.211 . S
C62 O54 1.284 . S
C62 O63 1.273 . S
O63 C62 1.273 . S
O64 Zn55 1.977 . S
O64 C57 1.267 . S
C65 O66 1.160 . S
C65 O72 1.185 . S
O66 C65 1.160 . S
O67 Zn68 1.899 . S
O67 C75 1.284 . S
Zn68 O67 1.899 . S
Zn68 O69 2.032 . S
Zn68 O72 2.086 . S
Zn68 O77 1.977 . S
O69 Zn68 2.032 . S
O69 C73 1.278 . S
C70 O71 1.203 . S
C70 O77 1.267 . S
O71 C70 1.203 . S
O72 C65 1.185 . S
O72 Zn68 2.086 . S
C73 O69 1.278 . S
C73 O74 1.211 . S
O74 C73 1.211 . S
C75 O67 1.284 . S
C75 O76 1.273 . S
O76 C75 1.273 . S
O77 Zn68 1.977 . S
O77 C70 1.267 . S
C78 O79 1.160 . S
C78 O85 1.185 . S
O79 C78 1.160 . S
O80 Zn81 1.899 . S
O80 C88 1.284 . S
Zn81 O80 1.899 . S
Zn81 O82 2.032 . S
Zn81 O85 2.086 . S
Zn81 O90 1.977 . S
O82 Zn81 2.032 . S
O82 C86 1.278 . S
C83 O84 1.203 . S
C83 O90 1.267 . S
O84 C83 1.203 . S
O85 C78 1.185 . S
O85 Zn81 2.086 . S
C86 O82 1.278 . S
C86 O87 1.211 . S
O87 C86 1.211 . S
C88 O80 1.284 . S
C88 O89 1.273 . S
O89 C88 1.273 . S
O90 Zn81 1.977 . S
O90 C83 1.267 . S
C91 O92 1.160 . S
C91 O98 1.185 . S
O92 C91 1.160 . S
O93 Zn94 1.899 . S
O93 C101 1.284 . S
Zn94 O93 1.899 . S
Zn94 O95 2.032 . S
Zn94 O98 2.086 . S
Zn94 O103 1.977 1_455 S
O95 Zn94 2.032 . S
O95 C99 1.278 . S
C96 O97 1.203 . S
C96 O103 1.267 . S
O97 C96 1.203 . S
O98 C91 1.185 . S
O98 Zn94 2.086 . S
C99 O95 1.278 . S
C99 O100 1.172 1_455 S
O100 C99 1.172 1_655 S
C101 O93 1.284 . S
C101 O102 1.273 . S
O102 C101 1.273 . S
O103 Zn94 1.977 1_655 S
O103 C96 1.267 . S
C104 O105 1.160 . S
C104 O111 1.185 . S
O105 C104 1.160 . S
O106 Zn107 1.899 . S
O106 C114 1.284 . S
Zn107 O106 1.899 . S
Zn107 O108 2.032 . S
Zn107 O111 2.086 . S
Zn107 O116 1.977 1_545 S
O108 Zn107 2.032 . S
O108 C112 1.278 . S
C109 O110 1.203 . S
C109 O116 1.267 . S
O110 C109 1.203 . S
O111 C104 1.185 . S
O111 Zn107 2.086 . S
C112 O108 1.278 . S
C112 O113 1.211 1_545 S
O113 C112 1.211 1_565 S
C114 O106 1.284 . S
C114 O115 1.246 1_545 S
O115 C114 1.246 1_565 S
O116 Zn107 1.977 1_565 S
O116 C109 1.267 . S
C117 O118 1.160 . S
C117 O124 1.185 . S
O118 C117 1.160 . S
O119 Zn120 1.899 . S
O119 C127 1.284 . S
Zn120 O119 1.899 . S
Zn120 O121 2.032 . S
Zn120 O124 2.086 . S
Zn120 O129 1.977 . S
O121 Zn120 2.032 . S
O121 C125 1.278 . S
C122 O123 1.203 . S
C122 O129 1.267 . S
O123 C122 1.203 . S
O124 C117 1.185 . S
O124 Zn120 2.086 . S
C125 O121 1.278 . S
C125 O126 1.211 . S
O126 C125 1.211 . S
C127 O119 1.284 . S
C127 O128 1.273 . S
O128 C127 1.273 . S
O129 Zn120 1.977 . S
O129 C122 1.267 . S
C130 O131 1.160 . S
C130 O137 1.185 . S
O131 C130 1.160 . S
O132 Zn133 1.895 . S
O132 C140 1.284 . S
Zn133 O132 1.895 . S
Zn133 O134 2.049 . S
Zn133 O137 2.134 . S
Zn133 O142 1.936 1_565 S
O134 Zn133 2.049 . S
O134 C138 1.278 1_565 S
C135 O136 1.203 . S
C135 O142 1.267 . S
O136 C135 1.203 . S
O137 C130 1.185 . S
O137 Zn133 2.134 . S
C138 O134 1.278 1_545 S
C138 O139 1.211 . S
O139 C138 1.211 . S
C140 O132 1.284 . S
C140 O141 1.273 1_565 S
O141 C140 1.273 1_545 S
O142 Zn133 1.936 1_545 S
O142 C135 1.267 . S
C143 O144 1.160 . S
C143 O150 1.185 . S
O144 C143 1.160 . S
O145 Zn146 1.899 . S
O145 C153 1.284 . S
Zn146 O145 1.899 . S
Zn146 O147 2.032 1_554 S
Zn146 O150 2.086 . S
Zn146 O155 1.977 . S
O147 Zn146 2.032 1_556 S
O147 C151 1.278 . S
C148 O149 1.203 . S
C148 O155 1.267 . S
O149 C148 1.203 . S
O150 C143 1.185 . S
O150 Zn146 2.086 . S
C151 O147 1.278 . S
C151 O152 1.211 . S
O152 C151 1.211 . S
C153 O145 1.284 . S
C153 O154 1.273 . S
O154 C153 1.273 . S
O155 Zn146 1.977 . S
O155 C148 1.267 . S
C156 O157 1.160 . S
C156 O163 1.185 . S
O157 C156 1.160 . S
O158 Zn159 1.899 . S
O158 C166 1.284 . S
Zn159 O158 1.899 . S
Zn159 O160 2.032 1_554 S
Zn159 O163 2.086 . S
Zn159 O168 1.977 . S
O160 Zn159 2.032 1_556 S
O160 C164 1.278 . S
C161 O162 1.203 . S
C161 O168 1.267 . S
O162 C161 1.203 . S
O163 C156 1.185 . S
O163 Zn159 2.086 . S
C164 O160 1.278 . S
C164 O165 1.211 . S
O165 C164 1.211 . S
C166 O158 1.284 . S
C166 O167 1.273 . S
O167 C166 1.273 . S
O168 Zn159 1.977 . S
O168 C161 1.267 . S
C169 O170 1.160 . S
C169 O176 1.185 . S
O170 C169 1.160 . S
O171 Zn172 1.899 . S
O171 C179 1.284 . S
Zn172 O171 1.899 . S
Zn172 O173 2.032 1_554 S
Zn172 O176 2.086 . S
Zn172 O181 1.977 . S
O173 Zn172 2.032 1_556 S
O173 C177 1.278 . S
C174 O175 1.203 . S
C174 O181 1.267 . S
O175 C174 1.203 . S
O176 C169 1.185 . S
O176 Zn172 2.086 . S
C177 O173 1.278 . S
C177 O178 1.211 . S
O178 C177 1.211 . S
C179 O171 1.284 . S
C179 O180 1.273 . S
O180 C179 1.273 . S
O181 Zn172 1.977 . S
O181 C174 1.267 . S
C182 O183 1.160 . S
C182 O189 1.185 . S
O183 C182 1.160 . S
O184 Zn185 1.899 . S
O184 C192 1.284 . S
Zn185 O184 1.899 . S
Zn185 O186 2.032 . S
Zn185 O189 2.086 . S
Zn185 O194 1.977 . S
O186 Zn185 2.032 . S
O186 C190 1.278 . S
C187 O188 1.203 . S
C187 O194 1.267 . S
O188 C187 1.203 . S
O189 C182 1.185 . S
O189 Zn185 2.086 . S
C190 O186 1.278 . S
C190 O191 1.211 . S
O191 C190 1.211 . S
C192 O184 1.284 . S
C192 O193 1.273 . S
O193 C192 1.273 . S
O194 Zn185 1.977 . S
O194 C187 1.267 . S
C195 O196 1.160 . S
C195 O202 1.185 . S
O196 C195 1.160 . S
O197 Zn198 1.899 . S
O197 C205 1.284 . S
Zn198 O197 1.899 . S
Zn198 O199 2.032 . S
Zn198 O202 2.086 . S
Zn198 O207 1.977 . S
O199 Zn198 2.032 . S
O199 C203 1.278 . S
C200 O201 1.203 . S
C200 O207 1.267 . S
O201 C200 1.203 . S
O202 C195 1.185 . S
O202 Zn198 2.086 . S
C203 O199 1.278 . S
C203 O204 1.211 . S
O204 C203 1.211 . S
C205 O197 1.284 . S
C205 O206 1.273 . S
O206 C205 1.273 . S
O207 Zn198 1.977 . S
O207 C200 1.267 . S
C208 O209 1.160 . S
C208 O215 1.185 . S
O209 C208 1.160 . S
O210 Zn211 1.899 . S
O210 C218 1.284 . S
Zn211 O210 1.899 . S
Zn211 O212 2.032 . S
Zn211 O215 2.086 . S
Zn211 O220 1.977 . S
O212 Zn211 2.032 . S
O212 C216 1.278 . S
C213 O214 1.203 . S
C213 O220 1.267 . S
O214 C213 1.203 . S
O215 C208 1.185 . S
O215 Zn211 2.086 . S
C216 O212 1.278 . S
C216 O217 1.211 . S
O217 C216 1.211 . S
C218 O210 1.284 . S
C218 O219 1.273 . S
O219 C218 1.273 . S
O220 Zn211 1.977 . S
O220 C213 1.267 . S
C221 O222 1.160 . S
C221 O228 1.185 . S
O222 C221 1.160 . S
O223 Zn224 1.899 . S
O223 C231 1.284 . S
Zn224 O223 1.899 . S
Zn224 O225 2.032 . S
Zn224 O228 2.086 . S
Zn224 O233 1.977 . S
O225 Zn224 2.032 . S
O225 C229 1.278 . S
C226 O227 1.203 . S
C226 O233 1.267 . S
O227 C226 1.203 . S
O228 C221 1.185 . S
O228 Zn224 2.086 . S
C229 O225 1.278 . S
C229 O230 1.211 . S
O230 C229 1.211 . S
C231 O223 1.284 . S
C231 O232 1.273 . S
O232 C231 1.273 . S
O233 Zn224 1.977 . S
O233 C226 1.267 . S
C234 O235 1.160 . S
C234 O241 1.185 . S
O235 C234 1.160 . S
O236 Zn237 1.899 . S
O236 C244 1.284 . S
Zn237 O236 1.899 . S
Zn237 O238 2.032 . S
Zn237 O241 2.086 . S
Zn237 O246 1.977 . S
O238 Zn237 2.032 . S
O238 C242 1.278 . S
C239 O240 1.203 . S
C239 O246 1.267 . S
O240 C239 1.203 . S
O241 C234 1.185 . S
O241 Zn237 2.086 . S
C242 O238 1.278 . S
C242 O243 1.211 . S
O243 C242 1.211 . S
C244 O236 1.284 . S
C244 O245 1.273 . S
O245 C244 1.273 . S
O246 Zn237 1.977 . S
O246 C239 1.267 . S
C247 O248 1.160 . S
C247 O254 1.185 . S
O248 C247 1.160 . S
O249 Zn250 1.899 . S
O249 C257 1.284 . S
Zn250 O249 1.899 . S
Zn250 O251 2.032 . S
Zn250 O254 2.086 . S
Zn250 O259 1.977 . S
O251 Zn250 2.032 . S
O251 C255 1.278 . S
C252 O253 1.203 . S
C252 O259 1.267 . S
O253 C252 1.203 . S
O254 C247 1.185 . S
O254 Zn250 2.086 . S
C255 O251 1.278 . S
C255 O256 1.211 . S
O256 C255 1.211 . S
C257 O249 1.284 . S
C257 O258 1.273 . S
O258 C257 1.273 . S
O259 Zn250 1.977 . S
O259 C252 1.267 . S
C260 O261 1.160 . S
C260 O267 1.185 . S
O261 C260 1.160 . S
O262 Zn263 1.899 . S
O262 C270 1.284 . S
Zn263 O262 1.899 . S
Zn263 O264 2.032 1_554 S
Zn263 O267 2.086 . S
Zn263 O272 1.981 . S
O264 Zn263 2.032 1_556 S
O264 C268 1.278 . S
C265 O266 1.203 . S
C265 O272 1.277 . S
O266 C265 1.203 . S
O267 C260 1.185 . S
O267 Zn263 2.086 . S
C268 O264 1.278 . S
C268 O269 1.211 . S
O269 C268 1.211 . S
C270 O262 1.284 . S
C270 O271 1.273 . S
O271 C270 1.273 . S
O272 Zn263 1.981 . S
O272 C265 1.277 . S
C273 O274 1.160 . S
C273 O280 1.185 . S
O274 C273 1.160 . S
O275 Zn276 1.899 . S
O275 C283 1.284 . S
Zn276 O275 1.899 . S
Zn276 O277 2.032 . S
Zn276 O280 2.086 . S
Zn276 O285 1.977 . S
O277 Zn276 2.032 . S
O277 C281 1.278 . S
C278 O279 1.203 . S
C278 O285 1.267 . S
O279 C278 1.203 . S
O280 C273 1.185 . S
O280 Zn276 2.086 . S
C281 O277 1.278 . S
C281 O282 1.211 . S
O282 C281 1.211 . S
C283 O275 1.284 . S
C283 O284 1.273 . S
O284 C283 1.273 . S
O285 Zn276 1.977 . S
O285 C278 1.267 . S
C286 O287 1.160 . S
C286 O293 1.185 . S
O287 C286 1.160 . S
O288 Zn289 1.899 . S
O288 C296 1.284 . S
Zn289 O288 1.899 . S
Zn289 O290 2.032 . S
Zn289 O293 2.086 . S
Zn289 O298 1.977 . S
O290 Zn289 2.032 . S
O290 C294 1.278 . S
C291 O292 1.203 . S
C291 O298 1.267 . S
O292 C291 1.203 . S
O293 C286 1.185 . S
O293 Zn289 2.086 . S
C294 O290 1.278 . S
C294 O295 1.211 . S
O295 C294 1.211 . S
C296 O288 1.284 . S
C296 O297 1.273 . S
O297 C296 1.273 . S
O298 Zn289 1.977 . S
O298 C291 1.267 . S
C299 O300 1.160 . S
C299 O306 1.185 . S
O300 C299 1.160 . S
O301 Zn302 1.899 . S
O301 C309 1.284 . S
Zn302 O301 1.899 . S
Zn302 O303 2.032 . S
Zn302 O306 2.086 . S
Zn302 O311 1.977 . S
O303 Zn302 2.032 . S
O303 C307 1.278 . S
C304 O305 1.203 . S
C304 O311 1.267 . S
O305 C304 1.203 . S
O306 C299 1.185 . S
O306 Zn302 2.086 . S
C307 O303 1.278 . S
C307 O308 1.211 . S
O308 C307 1.211 . S
C309 O301 1.284 . S
C309 O310 1.273 . S
O310 C309 1.273 . S
O311 Zn302 1.977 . S
O311 C304 1.267 . S
La312 C314 2.928 1_455 S
La312 O332 2.521 1_455 S
La312 O333 2.628 1_456 S
La312 O334 2.554 . S
La312 O335 2.757 . S
La312 O336 2.470 . S
La312 O341 2.482 1_556 S
La312 O343 2.503 1_546 S
La313 C323 2.928 . S
La313 O335 2.482 1_554 S
La313 O337 2.503 . S
La313 O338 2.521 . S
La313 O339 2.628 . S
La313 O340 2.554 . S
La313 O341 2.757 . S
La313 O342 2.470 . S
C314 La312 2.928 1_655 S
C314 C315 1.503 . S
C314 O332 1.261 . S
C314 O333 1.243 1_556 S
C315 C314 1.503 . S
C315 C316 1.394 . S
C315 C320 1.373 . S
C316 C315 1.394 . S
C316 C317 1.380 . S
C316 H344 0.930 . S
C317 C316 1.380 . S
C317 C318 1.376 . S
C317 H345 0.930 . S
C318 C317 1.376 . S
C318 C319 1.370 . S
C319 C318 1.370 . S
C319 C320 1.396 . S
C319 H346 0.929 1_556 S
C320 C315 1.373 . S
C320 C319 1.396 . S
C320 H347 0.929 1_556 S
C321 O334 1.240 . S
C321 O335 1.289 . S
C322 O336 1.258 1_554 S
C322 O337 1.256 . S
C323 La313 2.928 . S
C323 C324 1.503 . S
C323 O338 1.261 . S
C323 O339 1.243 . S
C324 C323 1.503 . S
C324 C325 1.394 . S
C324 C329 1.391 . S
C325 C324 1.394 . S
C325 C326 1.380 . S
C325 H348 0.930 . S
C326 C325 1.380 . S
C326 C327 1.341 1_545 S
C326 H349 0.930 . S
C327 C326 1.341 1_565 S
C327 C328 1.373 . S
C328 C327 1.373 . S
C328 C329 1.380 1_565 S
C328 H350 0.929 . S
C329 C324 1.391 . S
C329 C328 1.380 1_545 S
C329 H351 0.928 1_545 S
C330 O340 1.240 . S
C330 O341 1.289 . S
C331 O342 1.258 1_565 S
C331 O343 1.256 . S
O332 La312 2.521 1_655 S
O332 C314 1.261 . S
O333 La312 2.628 1_654 S
O333 C314 1.243 1_554 S
O334 La312 2.554 . S
O334 C321 1.240 . S
O335 La312 2.757 . S
O335 La313 2.482 1_556 S
O335 C321 1.289 . S
O336 La312 2.470 . S
O336 C322 1.258 1_556 S
O337 La313 2.503 . S
O337 C322 1.256 . S
O338 La313 2.521 . S
O338 C323 1.261 . S
O339 La313 2.628 . S
O339 C323 1.243 . S
O340 La313 2.554 . S
O340 C330 1.240 . S
O341 La312 2.482 1_554 S
O341 La313 2.757 . S
O341 C330 1.289 . S
O342 La313 2.470 . S
O342 C331 1.258 1_545 S
O343 La312 2.503 1_564 S
O343 C331 1.256 . S
H344 C316 0.930 . S
H345 C317 0.930 . S
H346 C319 0.929 1_554 S
H347 C320 0.929 1_554 S
H348 C325 0.930 . S
H349 C326 0.930 . S
H350 C328 0.929 . S
H351 C329 0.928 1_565 S
La352 C354 2.928 . S
La352 O372 2.521 . S
La352 O373 2.628 . S
La352 O374 2.554 . S
La352 O375 2.757 . S
La352 O376 2.470 . S
La352 O381 2.482 . S
La352 O383 2.503 . S
La353 C363 2.928 . S
La353 O375 2.482 . S
La353 O377 2.503 . S
La353 O378 2.521 . S
La353 O379 2.628 . S
La353 O380 2.554 . S
La353 O381 2.757 . S
La353 O382 2.470 . S
C354 La352 2.928 . S
C354 C355 1.503 . S
C354 O372 1.261 . S
C354 O373 1.243 . S
C355 C354 1.503 . S
C355 C356 1.394 . S
C355 C360 1.373 . S
C356 C355 1.394 . S
C356 C357 1.380 . S
C356 H384 0.930 . S
C357 C356 1.380 . S
C357 C358 1.376 . S
C357 H385 0.930 . S
C358 C357 1.376 . S
C358 C359 1.370 . S
C359 C358 1.370 . S
C359 C360 1.396 . S
C359 H386 0.929 . S
C360 C355 1.373 . S
C360 C359 1.396 . S
C360 H387 0.929 . S
C361 O374 1.240 . S
C361 O375 1.289 . S
C362 O376 1.258 . S
C362 O377 1.256 . S
C363 La353 2.928 . S
C363 C364 1.503 . S
C363 O378 1.261 . S
C363 O379 1.243 . S
C364 C363 1.503 . S
C364 C365 1.394 . S
C364 C369 1.373 . S
C365 C364 1.394 . S
C365 C366 1.380 . S
C365 H388 0.930 . S
C366 C365 1.380 . S
C366 C367 1.376 . S
C366 H389 0.930 . S
C367 C366 1.376 . S
C367 C368 1.370 . S
C368 C367 1.370 . S
C368 C369 1.396 . S
C368 H390 0.929 . S
C369 C364 1.373 . S
C369 C368 1.396 . S
C369 H391 0.929 . S
C370 O380 1.240 . S
C370 O381 1.289 . S
C371 O382 1.258 . S
C371 O383 1.256 . S
O372 La352 2.521 . S
O372 C354 1.261 . S
O373 La352 2.628 . S
O373 C354 1.243 . S
O374 La352 2.554 . S
O374 C361 1.240 . S
O375 La352 2.757 . S
O375 La353 2.482 . S
O375 C361 1.289 . S
O376 La352 2.470 . S
O376 C362 1.258 . S
O377 La353 2.503 . S
O377 C362 1.256 . S
O378 La353 2.521 . S
O378 C363 1.261 . S
O379 La353 2.628 . S
O379 C363 1.243 . S
O380 La353 2.554 . S
O380 C370 1.240 . S
O381 La352 2.482 . S
O381 La353 2.757 . S
O381 C370 1.289 . S
O382 La353 2.470 . S
O382 C371 1.258 . S
O383 La352 2.503 . S
O383 C371 1.256 . S
H384 C356 0.930 . S
H385 C357 0.930 . S
H386 C359 0.929 . S
H387 C360 0.929 . S
H388 C365 0.930 . S
H389 C366 0.930 . S
H390 C368 0.929 . S
H391 C369 0.929 . S
La392 C394 2.928 . S
La392 O412 2.521 . S
La392 O413 2.628 . S
La392 O414 2.554 . S
La392 O415 2.757 . S
La392 O416 2.470 . S
La392 O421 2.482 . S
La392 O423 2.503 . S
La393 C403 2.928 . S
La393 O415 2.482 . S
La393 O417 2.503 1_545 S
La393 O418 2.521 . S
La393 O419 2.628 . S
La393 O420 2.554 . S
La393 O421 2.757 . S
La393 O422 2.470 . S
C394 La392 2.928 . S
C394 C395 1.503 . S
C394 O412 1.261 . S
C394 O413 1.243 . S
C395 C394 1.503 . S
C395 C396 1.393 . S
C395 C400 1.373 1_545 S
C396 C395 1.393 . S
C396 C397 1.348 1_545 S
C396 H424 0.965 . S
C397 C396 1.348 1_565 S
C397 C398 1.376 . S
C397 H425 0.930 . S
C398 C397 1.376 . S
C398 C399 1.370 . S
C399 C398 1.370 . S
C399 C400 1.396 . S
C399 H426 0.929 . S
C400 C395 1.373 1_565 S
C400 C399 1.396 . S
C400 H427 0.929 . S
C401 O414 1.240 . S
C401 O415 1.289 . S
C402 O416 1.258 1_565 S
C402 O417 1.256 . S
C403 La393 2.928 . S
C403 C404 1.503 . S
C403 O418 1.261 . S
C403 O419 1.243 . S
C404 C403 1.503 . S
C404 C405 1.394 . S
C404 C409 1.373 . S
C405 C404 1.394 . S
C405 C406 1.380 . S
C405 H428 0.930 . S
C406 C405 1.380 . S
C406 C407 1.376 . S
C406 H429 0.930 . S
C407 C406 1.376 . S
C407 C408 1.370 . S
C408 C407 1.370 . S
C408 C409 1.396 . S
C408 H430 0.929 . S
C409 C404 1.373 . S
C409 C408 1.396 . S
C409 H431 0.929 . S
C410 O420 1.240 . S
C410 O421 1.289 . S
C411 O422 1.258 . S
C411 O423 1.256 . S
O412 La392 2.521 . S
O412 C394 1.261 . S
O413 La392 2.628 . S
O413 C394 1.243 . S
O414 La392 2.554 . S
O414 C401 1.240 . S
O415 La392 2.757 . S
O415 La393 2.482 . S
O415 C401 1.289 . S
O416 La392 2.470 . S
O416 C402 1.258 1_545 S
O417 La393 2.503 1_565 S
O417 C402 1.256 . S
O418 La393 2.521 . S
O418 C403 1.261 . S
O419 La393 2.628 . S
O419 C403 1.243 . S
O420 La393 2.554 . S
O420 C410 1.240 . S
O421 La392 2.482 . S
O421 La393 2.757 . S
O421 C410 1.289 . S
O422 La393 2.470 . S
O422 C411 1.258 . S
O423 La392 2.503 . S
O423 C411 1.256 . S
H424 C396 0.965 . S
H425 C397 0.930 . S
H426 C399 0.929 . S
H427 C400 0.929 . S
H428 C405 0.930 . S
H429 C406 0.930 . S
H430 C408 0.929 . S
H431 C409 0.929 . S
La432 C434 2.928 . S
La432 O452 2.521 . S
La432 O453 2.628 . S
La432 O454 2.554 . S
La432 O455 2.757 . S
La432 O456 2.470 . S
La432 O461 2.482 . S
La432 O463 2.503 . S
La433 C443 2.928 . S
La433 O455 2.482 . S
La433 O457 2.503 . S
La433 O458 2.521 . S
La433 O459 2.628 . S
La433 O460 2.554 . S
La433 O461 2.757 . S
La433 O462 2.470 . S
C434 La432 2.928 . S
C434 C435 1.503 . S
C434 O452 1.261 . S
C434 O453 1.243 . S
C435 C434 1.503 . S
C435 C436 1.394 . S
C435 C440 1.373 . S
C436 C435 1.394 . S
C436 C437 1.380 . S
C436 H464 0.930 . S
C437 C436 1.380 . S
C437 C438 1.376 . S
C437 H465 0.930 . S
C438 C437 1.376 . S
C438 C439 1.370 . S
C439 C438 1.370 . S
C439 C440 1.396 . S
C439 H466 0.929 . S
C440 C435 1.373 . S
C440 C439 1.396 . S
C440 H467 0.929 . S
C441 O454 1.240 . S
C441 O455 1.289 . S
C442 O456 1.258 . S
C442 O457 1.256 . S
C443 La433 2.928 . S
C443 C444 1.503 . S
C443 O458 1.261 . S
C443 O459 1.243 . S
C444 C443 1.503 . S
C444 C445 1.394 . S
C444 C449 1.373 . S
C445 C444 1.394 . S
C445 C446 1.380 . S
C445 H468 0.930 . S
C446 C445 1.380 . S
C446 C447 1.376 . S
C446 H469 0.930 . S
C447 C446 1.376 . S
C447 C448 1.370 . S
C448 C447 1.370 . S
C448 C449 1.396 . S
C448 H470 0.929 . S
C449 C444 1.373 . S
C449 C448 1.396 . S
C449 H471 0.929 . S
C450 O460 1.240 . S
C450 O461 1.289 . S
C451 O462 1.258 . S
C451 O463 1.256 . S
O452 La432 2.521 . S
O452 C434 1.261 . S
O453 La432 2.628 . S
O453 C434 1.243 . S
O454 La432 2.554 . S
O454 C441 1.240 . S
O455 La432 2.757 . S
O455 La433 2.482 . S
O455 C441 1.289 . S
O456 La432 2.470 . S
O456 C442 1.258 . S
O457 La433 2.503 . S
O457 C442 1.256 . S
O458 La433 2.521 . S
O458 C443 1.261 . S
O459 La433 2.628 . S
O459 C443 1.243 . S
O460 La433 2.554 . S
O460 C450 1.240 . S
O461 La432 2.482 . S
O461 La433 2.757 . S
O461 C450 1.289 . S
O462 La433 2.470 . S
O462 C451 1.258 . S
O463 La432 2.503 . S
O463 C451 1.256 . S
H464 C436 0.930 . S
H465 C437 0.930 . S
H466 C439 0.929 . S
H467 C440 0.929 . S
H468 C445 0.930 . S
H469 C446 0.930 . S
H470 C448 0.929 . S
H471 C449 0.929 . S
La472 C474 2.928 . S
La472 O492 2.521 . S
La472 O493 2.628 . S
La472 O494 2.500 1_455 S
La472 O495 2.757 . S
La472 O496 2.470 . S
La472 O501 2.482 . S
La472 O503 2.503 . S
La473 C483 2.928 1_545 S
La473 O495 2.482 . S
La473 O497 2.503 . S
La473 O498 2.521 1_545 S
La473 O499 2.628 1_545 S
La473 O500 2.554 . S
La473 O501 2.757 . S
La473 O502 2.470 . S
C474 La472 2.928 . S
C474 C475 1.503 . S
C474 O492 1.261 . S
C474 O493 1.243 . S
C475 C474 1.503 . S
C475 C476 1.394 . S
C475 C480 1.373 . S
C476 C475 1.394 . S
C476 C477 1.380 . S
C476 H504 0.930 . S
C477 C476 1.380 . S
C477 C478 1.376 . S
C477 H505 0.930 1_455 S
C478 C477 1.376 . S
C478 C479 1.370 . S
C479 C478 1.370 . S
C479 C480 1.396 . S
C479 H506 0.929 . S
C480 C475 1.373 . S
C480 C479 1.396 . S
C480 H507 0.929 . S
C481 O494 1.202 1_455 S
C481 O495 1.350 . S
C482 O496 1.258 . S
C482 O497 1.256 . S
C483 La473 2.928 1_565 S
C483 C484 1.503 . S
C483 O498 1.261 . S
C483 O499 1.243 . S
C484 C483 1.503 . S
C484 C485 1.394 . S
C484 C489 1.373 . S
C485 C484 1.394 . S
C485 C486 1.380 . S
C485 H508 0.930 . S
C486 C485 1.380 . S
C486 C487 1.376 . S
C486 H509 0.930 . S
C487 C486 1.376 . S
C487 C488 1.370 . S
C488 C487 1.370 . S
C488 C489 1.396 . S
C488 H510 0.929 . S
C489 C484 1.373 . S
C489 C488 1.396 . S
C489 H511 0.929 . S
C490 O500 1.240 . S
C490 O501 1.289 . S
C491 O502 1.258 . S
C491 O503 1.256 . S
O492 La472 2.521 . S
O492 C474 1.261 . S
O493 La472 2.628 . S
O493 C474 1.243 . S
O494 La472 2.500 1_655 S
O494 C481 1.202 1_655 S
O495 La472 2.757 . S
O495 La473 2.482 . S
O495 C481 1.350 . S
O496 La472 2.470 . S
O496 C482 1.258 . S
O497 La473 2.503 . S
O497 C482 1.256 . S
O498 La473 2.521 1_565 S
O498 C483 1.261 . S
O499 La473 2.628 1_565 S
O499 C483 1.243 . S
O500 La473 2.554 . S
O500 C490 1.240 . S
O501 La472 2.482 . S
O501 La473 2.757 . S
O501 C490 1.289 . S
O502 La473 2.470 . S
O502 C491 1.258 . S
O503 La472 2.503 . S
O503 C491 1.256 . S
H504 C476 0.930 . S
H505 C477 0.930 1_655 S
H506 C479 0.929 . S
H507 C480 0.929 . S
H508 C485 0.930 . S
H509 C486 0.930 . S
H510 C488 0.929 . S
H511 C489 0.929 . S
La512 C514 2.928 . S
La512 O532 2.521 . S
La512 O533 2.628 . S
La512 O534 2.554 . S
La512 O535 2.757 . S
La512 O536 2.470 . S
La512 O541 2.482 . S
La512 O543 2.503 . S
La513 C523 2.928 . S
La513 O535 2.482 . S
La513 O537 2.503 . S
La513 O538 2.521 . S
La513 O539 2.628 . S
La513 O540 2.554 . S
La513 O541 2.757 . S
La513 O542 2.470 . S
C514 La512 2.928 . S
C514 C515 1.503 . S
C514 O532 1.261 . S
C514 O533 1.243 . S
C515 C514 1.503 . S
C515 C516 1.394 . S
C515 C520 1.373 . S
C516 C515 1.394 . S
C516 C517 1.380 . S
C516 H544 0.930 . S
C517 C516 1.380 . S
C517 C518 1.376 . S
C517 H545 0.930 . S
C518 C517 1.376 . S
C518 C519 1.370 . S
C519 C518 1.370 . S
C519 C520 1.396 . S
C519 H546 0.929 . S
C520 C515 1.373 . S
C520 C519 1.396 . S
C520 H547 0.929 . S
C521 O534 1.240 . S
C521 O535 1.289 . S
C522 O536 1.258 . S
C522 O537 1.256 . S
C523 La513 2.928 . S
C523 C524 1.503 . S
C523 O538 1.261 . S
C523 O539 1.243 . S
C524 C523 1.503 . S
C524 C525 1.394 . S
C524 C529 1.373 . S
C525 C524 1.394 . S
C525 C526 1.380 . S
C525 H548 0.930 . S
C526 C525 1.380 . S
C526 C527 1.376 . S
C526 H549 0.930 . S
C527 C526 1.376 . S
C527 C528 1.370 . S
C528 C527 1.370 . S
C528 C529 1.396 . S
C528 H550 0.929 . S
C529 C524 1.373 . S
C529 C528 1.396 . S
C529 H551 0.929 . S
C530 O540 1.240 . S
C530 O541 1.289 . S
C531 O542 1.258 . S
C531 O543 1.256 . S
O532 La512 2.521 . S
O532 C514 1.261 . S
O533 La512 2.628 . S
O533 C514 1.243 . S
O534 La512 2.554 . S
O534 C521 1.240 . S
O535 La512 2.757 . S
O535 La513 2.482 . S
O535 C521 1.289 . S
O536 La512 2.470 . S
O536 C522 1.258 . S
O537 La513 2.503 . S
O537 C522 1.256 . S
O538 La513 2.521 . S
O538 C523 1.261 . S
O539 La513 2.628 . S
O539 C523 1.243 . S
O540 La513 2.554 . S
O540 C530 1.240 . S
O541 La512 2.482 . S
O541 La513 2.757 . S
O541 C530 1.289 . S
O542 La513 2.470 . S
O542 C531 1.258 . S
O543 La512 2.503 . S
O543 C531 1.256 . S
H544 C516 0.930 . S
H545 C517 0.930 . S
H546 C519 0.929 . S
H547 C520 0.929 . S
H548 C525 0.930 . S
H549 C526 0.930 . S
H550 C528 0.929 . S
H551 C529 0.929 . S
La552 C554 2.928 . S
La552 O572 2.521 1_545 S
La552 O573 2.628 . S
La552 O574 2.554 1_545 S
La552 O575 2.757 . S
La552 O576 2.470 . S
La552 O581 2.482 . S
La552 O583 2.503 . S
La553 C563 2.928 . S
La553 O575 2.482 1_556 S
La553 O577 2.503 . S
La553 O578 2.521 . S
La553 O579 2.628 . S
La553 O580 2.554 1_556 S
La553 O581 2.757 1_556 S
La553 O582 2.470 1_556 S
C554 La552 2.928 . S
C554 C555 1.503 . S
C554 O572 1.261 1_545 S
C554 O573 1.243 . S
C555 C554 1.503 . S
C555 C556 1.394 1_545 S
C555 C560 1.373 . S
C556 C555 1.394 1_565 S
C556 C557 1.380 . S
C556 H584 0.930 . S
C557 C556 1.380 . S
C557 C558 1.376 . S
C557 H585 0.930 . S
C558 C557 1.376 . S
C558 C559 1.370 1_565 S
C559 C558 1.370 1_545 S
C559 C560 1.396 . S
C559 H586 0.929 . S
C560 C555 1.373 . S
C560 C559 1.396 . S
C560 H587 0.929 . S
C561 O574 1.240 . S
C561 O575 1.289 1_565 S
C562 O576 1.258 . S
C562 O577 1.256 1_554 S
C563 La553 2.928 . S
C563 C564 1.503 . S
C563 O578 1.261 . S
C563 O579 1.243 . S
C564 C563 1.503 . S
C564 C565 1.394 . S
C564 C569 1.373 . S
C565 C564 1.394 . S
C565 C566 1.380 . S
C565 H588 0.930 . S
C566 C565 1.380 . S
C566 C567 1.376 . S
C566 H589 0.930 . S
C567 C566 1.376 . S
C567 C568 1.370 . S
C568 C567 1.370 . S
C568 C569 1.396 . S
C568 H590 0.929 . S
C569 C564 1.373 . S
C569 C568 1.396 . S
C569 H591 0.929 . S
C570 O580 1.240 . S
C570 O581 1.289 . S
C571 O582 1.258 . S
C571 O583 1.256 . S
O572 La552 2.521 1_565 S
O572 C554 1.261 1_565 S
O573 La552 2.628 . S
O573 C554 1.243 . S
O574 La552 2.554 1_565 S
O574 C561 1.240 . S
O575 La552 2.757 . S
O575 La553 2.482 1_554 S
O575 C561 1.289 1_545 S
O576 La552 2.470 . S
O576 C562 1.258 . S
O577 La553 2.503 . S
O577 C562 1.256 1_556 S
O578 La553 2.521 . S
O578 C563 1.261 . S
O579 La553 2.628 . S
O579 C563 1.243 . S
O580 La553 2.554 1_554 S
O580 C570 1.240 . S
O581 La552 2.482 . S
O581 La553 2.757 1_554 S
O581 C570 1.289 . S
O582 La553 2.470 1_554 S
O582 C571 1.258 . S
O583 La552 2.503 . S
O583 C571 1.256 . S
H584 C556 0.930 . S
H585 C557 0.930 . S
H586 C559 0.929 . S
H587 C560 0.929 . S
H588 C565 0.930 . S
H589 C566 0.930 . S
H590 C568 0.929 . S
H591 C569 0.929 . S
La592 C594 2.928 . S
La592 O612 2.521 . S
La592 O613 2.628 . S
La592 O614 2.554 . S
La592 O615 2.757 . S
La592 O616 2.470 . S
La592 O621 2.482 . S
La592 O623 2.503 . S
La593 C603 2.928 . S
La593 O615 2.482 . S
La593 O617 2.503 . S
La593 O618 2.521 . S
La593 O619 2.628 . S
La593 O620 2.554 . S
La593 O621 2.757 . S
La593 O622 2.470 . S
C594 La592 2.928 . S
C594 C595 1.503 . S
C594 O612 1.261 . S
C594 O613 1.243 . S
C595 C594 1.503 . S
C595 C596 1.394 . S
C595 C600 1.373 . S
C596 C595 1.394 . S
C596 C597 1.380 . S
C596 H624 0.930 . S
C597 C596 1.380 . S
C597 C598 1.376 . S
C597 H625 0.930 . S
C598 C597 1.376 . S
C598 C599 1.370 . S
C599 C598 1.370 . S
C599 C600 1.396 . S
C599 H626 0.929 . S
C600 C595 1.373 . S
C600 C599 1.396 . S
C600 H627 0.929 . S
C601 O614 1.240 . S
C601 O615 1.289 . S
C602 O616 1.258 . S
C602 O617 1.256 . S
C603 La593 2.928 . S
C603 C604 1.503 . S
C603 O618 1.261 . S
C603 O619 1.243 . S
C604 C603 1.503 . S
C604 C605 1.394 . S
C604 C609 1.373 . S
C605 C604 1.394 . S
C605 C606 1.380 . S
C605 H628 0.930 . S
C606 C605 1.380 . S
C606 C607 1.376 . S
C606 H629 0.930 . S
C607 C606 1.376 . S
C607 C608 1.370 . S
C608 C607 1.370 . S
C608 C609 1.396 . S
C608 H630 0.929 . S
C609 C604 1.373 . S
C609 C608 1.396 . S
C609 H631 0.929 . S
C610 O620 1.240 . S
C610 O621 1.289 . S
C611 O622 1.258 . S
C611 O623 1.256 . S
O612 La592 2.521 . S
O612 C594 1.261 . S
O613 La592 2.628 . S
O613 C594 1.243 . S
O614 La592 2.554 . S
O614 C601 1.240 . S
O615 La592 2.757 . S
O615 La593 2.482 . S
O615 C601 1.289 . S
O616 La592 2.470 . S
O616 C602 1.258 . S
O617 La593 2.503 . S
O617 C602 1.256 . S
O618 La593 2.521 . S
O618 C603 1.261 . S
O619 La593 2.628 . S
O619 C603 1.243 . S
O620 La593 2.554 . S
O620 C610 1.240 . S
O621 La592 2.482 . S
O621 La593 2.757 . S
O621 C610 1.289 . S
O622 La593 2.470 . S
O622 C611 1.258 . S
O623 La592 2.503 . S
O623 C611 1.256 . S
H624 C596 0.930 . S
H625 C597 0.930 . S
H626 C599 0.929 . S
H627 C600 0.929 . S
H628 C605 0.930 . S
H629 C606 0.930 . S
H630 C608 0.929 . S
H631 C609 0.929 . S
La632 C634 2.928 . S
La632 O652 2.521 . S
La632 O653 2.650 . S
La632 O654 2.554 . S
La632 O655 2.757 . S
La632 O656 2.470 1_554 S
La632 O661 2.482 . S
La632 O663 2.503 . S
La633 C643 2.928 . S
La633 O655 2.482 . S
La633 O657 2.503 1_554 S
La633 O658 2.521 . S
La633 O659 2.628 . S
La633 O660 2.554 . S
La633 O661 2.757 . S
La633 O662 2.470 . S
C634 La632 2.928 . S
C634 C635 1.503 1_554 S
C634 O652 1.261 . S
C634 O653 1.248 . S
C635 C634 1.503 1_556 S
C635 C636 1.394 . S
C635 C640 1.373 . S
C636 C635 1.394 . S
C636 C637 1.380 . S
C636 H664 0.930 1_556 S
C637 C636 1.380 . S
C637 C638 1.376 . S
C637 H665 0.930 . S
C638 C637 1.376 . S
C638 C639 1.370 . S
C639 C638 1.370 . S
C639 C640 1.396 . S
C639 H666 0.929 . S
C640 C635 1.373 . S
C640 C639 1.396 . S
C640 H667 0.929 . S
C641 O654 1.240 . S
C641 O655 1.289 . S
C642 O656 1.258 . S
C642 O657 1.256 . S
C643 La633 2.928 . S
C643 C644 1.503 . S
C643 O658 1.261 . S
C643 O659 1.243 . S
C644 C643 1.503 . S
C644 C645 1.394 . S
C644 C649 1.373 . S
C645 C644 1.394 . S
C645 C646 1.380 . S
C645 H668 0.930 . S
C646 C645 1.380 . S
C646 C647 1.376 . S
C646 H669 0.930 . S
C647 C646 1.376 . S
C647 C648 1.370 . S
C648 C647 1.370 . S
C648 C649 1.396 . S
C648 H670 0.929 . S
C649 C644 1.373 . S
C649 C648 1.396 . S
C649 H671 0.929 . S
C650 O660 1.240 . S
C650 O661 1.289 . S
C651 O662 1.258 . S
C651 O663 1.256 . S
O652 La632 2.521 . S
O652 C634 1.261 . S
O653 La632 2.650 . S
O653 C634 1.248 . S
O654 La632 2.554 . S
O654 C641 1.240 . S
O655 La632 2.757 . S
O655 La633 2.482 . S
O655 C641 1.289 . S
O656 La632 2.470 1_556 S
O656 C642 1.258 . S
O657 La633 2.503 1_556 S
O657 C642 1.256 . S
O658 La633 2.521 . S
O658 C643 1.261 . S
O659 La633 2.628 . S
O659 C643 1.243 . S
O660 La633 2.554 . S
O660 C650 1.240 . S
O661 La632 2.482 . S
O661 La633 2.757 . S
O661 C650 1.289 . S
O662 La633 2.470 . S
O662 C651 1.258 . S
O663 La632 2.503 . S
O663 C651 1.256 . S
H664 C636 0.930 1_554 S
H665 C637 0.930 . S
H666 C639 0.929 . S
H667 C640 0.929 . S
H668 C645 0.930 . S
H669 C646 0.930 . S
H670 C648 0.929 . S
H671 C649 0.929 . S
La672 C674 2.928 . S
La672 O692 2.521 . S
La672 O693 2.628 . S
La672 O694 2.554 . S
La672 O695 2.757 . S
La672 O696 2.470 . S
La672 O701 2.482 . S
La672 O703 2.503 . S
La673 C683 2.928 . S
La673 O695 2.482 . S
La673 O697 2.503 . S
La673 O698 2.521 . S
La673 O699 2.628 . S
La673 O700 2.554 . S
La673 O701 2.757 . S
La673 O702 2.470 . S
C674 La672 2.928 . S
C674 C675 1.503 . S
C674 O692 1.261 . S
C674 O693 1.243 . S
C675 C674 1.503 . S
C675 C676 1.394 . S
C675 C680 1.373 . S
C676 C675 1.394 . S
C676 C677 1.380 . S
C676 H704 0.930 . S
C677 C676 1.380 . S
C677 C678 1.376 . S
C677 H705 0.930 . S
C678 C677 1.376 . S
C678 C679 1.370 . S
C679 C678 1.370 . S
C679 C680 1.396 . S
C679 H706 0.929 . S
C680 C675 1.373 . S
C680 C679 1.396 . S
C680 H707 0.929 . S
C681 O694 1.240 . S
C681 O695 1.289 . S
C682 O696 1.258 . S
C682 O697 1.256 . S
C683 La673 2.928 . S
C683 C684 1.503 . S
C683 O698 1.261 . S
C683 O699 1.243 . S
C684 C683 1.503 . S
C684 C685 1.394 . S
C684 C689 1.373 . S
C685 C684 1.394 . S
C685 C686 1.380 . S
C685 H708 0.930 . S
C686 C685 1.380 . S
C686 C687 1.376 . S
C686 H709 0.930 . S
C687 C686 1.376 . S
C687 C688 1.370 . S
C688 C687 1.370 . S
C688 C689 1.396 . S
C688 H710 0.929 . S
C689 C684 1.373 . S
C689 C688 1.396 . S
C689 H711 0.929 . S
C690 O700 1.240 . S
C690 O701 1.289 . S
C691 O702 1.258 . S
C691 O703 1.256 . S
O692 La672 2.521 . S
O692 C674 1.261 . S
O693 La672 2.628 . S
O693 C674 1.243 . S
O694 La672 2.554 . S
O694 C681 1.240 . S
O695 La672 2.757 . S
O695 La673 2.482 . S
O695 C681 1.289 . S
O696 La672 2.470 . S
O696 C682 1.258 . S
O697 La673 2.503 . S
O697 C682 1.256 . S
O698 La673 2.521 . S
O698 C683 1.261 . S
O699 La673 2.628 . S
O699 C683 1.243 . S
O700 La673 2.554 . S
O700 C690 1.240 . S
O701 La672 2.482 . S
O701 La673 2.757 . S
O701 C690 1.289 . S
O702 La673 2.470 . S
O702 C691 1.258 . S
O703 La672 2.503 . S
O703 C691 1.256 . S
H704 C676 0.930 . S
H705 C677 0.930 . S
H706 C679 0.929 . S
H707 C680 0.929 . S
H708 C685 0.930 . S
H709 C686 0.930 . S
H710 C688 0.929 . S
H711 C689 0.929 . S
La712 C714 2.928 . S
La712 O732 2.521 . S
La712 O733 2.628 . S
La712 O734 2.554 . S
La712 O735 2.757 . S
La712 O736 2.470 . S
La712 O741 2.482 . S
La712 O743 2.503 . S
La713 C723 2.928 . S
La713 O735 2.482 . S
La713 O737 2.503 . S
La713 O738 2.521 . S
La713 O739 2.628 . S
La713 O740 2.554 . S
La713 O741 2.757 . S
La713 O742 2.470 . S
C714 La712 2.928 . S
C714 C715 1.503 . S
C714 O732 1.261 . S
C714 O733 1.243 . S
C715 C714 1.503 . S
C715 C716 1.394 . S
C715 C720 1.373 . S
C716 C715 1.394 . S
C716 C717 1.380 . S
C716 H744 0.930 . S
C717 C716 1.380 . S
C717 C718 1.376 1_455 S
C717 H745 0.930 . S
C718 C717 1.376 1_655 S
C718 C719 1.370 . S
C719 C718 1.370 . S
C719 C720 1.396 1_655 S
C719 H746 0.929 . S
C720 C715 1.373 . S
C720 C719 1.396 1_455 S
C720 H747 0.933 . S
C721 O734 1.240 . S
C721 O735 1.289 . S
C722 O736 1.258 . S
C722 O737 1.256 . S
C723 La713 2.928 . S
C723 C724 1.503 . S
C723 O738 1.261 . S
C723 O739 1.243 . S
C724 C723 1.503 . S
C724 C725 1.394 . S
C724 C729 1.373 . S
C725 C724 1.394 . S
C725 C726 1.380 . S
C725 H748 0.930 . S
C726 C725 1.380 . S
C726 C727 1.376 . S
C726 H749 0.930 . S
C727 C726 1.376 . S
C727 C728 1.370 . S
C728 C727 1.370 . S
C728 C729 1.396 . S
C728 H750 0.929 . S
C729 C724 1.373 . S
C729 C728 1.396 . S
C729 H751 0.929 . S
C730 O740 1.240 . S
C730 O741 1.289 . S
C731 O742 1.258 . S
C731 O743 1.256 . S
O732 La712 2.521 . S
O732 C714 1.261 . S
O733 La712 2.628 . S
O733 C714 1.243 . S
O734 La712 2.554 . S
O734 C721 1.240 . S
O735 La712 2.757 . S
O735 La713 2.482 . S
O735 C721 1.289 . S
O736 La712 2.470 . S
O736 C722 1.258 . S
O737 La713 2.503 . S
O737 C722 1.256 . S
O738 La713 2.521 . S
O738 C723 1.261 . S
O739 La713 2.628 . S
O739 C723 1.243 . S
O740 La713 2.554 . S
O740 C730 1.240 . S
O741 La712 2.482 . S
O741 La713 2.757 . S
O741 C730 1.289 . S
O742 La713 2.470 . S
O742 C731 1.258 . S
O743 La712 2.503 . S
O743 C731 1.256 . S
H744 C716 0.930 . S
H745 C717 0.930 . S
H746 C719 0.929 . S
H747 C720 0.933 . S
H748 C725 0.930 . S
H749 C726 0.930 . S
H750 C728 0.929 . S
H751 C729 0.929 . S
La752 C754 2.928 . S
La752 O772 2.521 . S
La752 O773 2.628 . S
La752 O774 2.554 . S
La752 O775 2.757 . S
La752 O776 2.470 . S
La752 O781 2.482 . S
La752 O783 2.503 . S
La753 C763 2.928 . S
La753 O775 2.482 . S
La753 O777 2.503 . S
La753 O778 2.521 . S
La753 O779 2.628 . S
La753 O780 2.554 . S
La753 O781 2.757 . S
La753 O782 2.470 . S
C754 La752 2.928 . S
C754 C755 1.503 . S
C754 O772 1.261 . S
C754 O773 1.243 . S
C755 C754 1.503 . S
C755 C756 1.394 . S
C755 C760 1.373 . S
C756 C755 1.394 . S
C756 C757 1.380 . S
C756 H784 0.930 . S
C757 C756 1.380 . S
C757 C758 1.376 . S
C757 H785 0.930 . S
C758 C757 1.376 . S
C758 C759 1.370 . S
C759 C758 1.370 . S
C759 C760 1.396 . S
C759 H786 0.929 . S
C760 C755 1.373 . S
C760 C759 1.396 . S
C760 H787 0.929 . S
C761 O774 1.240 . S
C761 O775 1.289 . S
C762 O776 1.258 . S
C762 O777 1.256 . S
C763 La753 2.928 . S
C763 C764 1.503 . S
C763 O778 1.261 . S
C763 O779 1.243 . S
C764 C763 1.503 . S
C764 C765 1.394 . S
C764 C769 1.373 . S
C765 C764 1.394 . S
C765 C766 1.380 . S
C765 H788 0.930 . S
C766 C765 1.380 . S
C766 C767 1.376 . S
C766 H789 0.930 . S
C767 C766 1.376 . S
C767 C768 1.370 . S
C768 C767 1.370 . S
C768 C769 1.396 . S
C768 H790 0.929 . S
C769 C764 1.373 . S
C769 C768 1.396 . S
C769 H791 0.929 . S
C770 O780 1.240 . S
C770 O781 1.289 . S
C771 O782 1.258 . S
C771 O783 1.256 . S
O772 La752 2.521 . S
O772 C754 1.261 . S
O773 La752 2.628 . S
O773 C754 1.243 . S
O774 La752 2.554 . S
O774 C761 1.240 . S
O775 La752 2.757 . S
O775 La753 2.482 . S
O775 C761 1.289 . S
O776 La752 2.470 . S
O776 C762 1.258 . S
O777 La753 2.503 . S
O777 C762 1.256 . S
O778 La753 2.521 . S
O778 C763 1.261 . S
O779 La753 2.628 . S
O779 C763 1.243 . S
O780 La753 2.554 . S
O780 C770 1.240 . S
O781 La752 2.482 . S
O781 La753 2.757 . S
O781 C770 1.289 . S
O782 La753 2.470 . S
O782 C771 1.258 . S
O783 La752 2.503 . S
O783 C771 1.256 . S
H784 C756 0.930 . S
H785 C757 0.930 . S
H786 C759 0.929 . S
H787 C760 0.929 . S
H788 C765 0.930 . S
H789 C766 0.930 . S
H790 C768 0.929 . S
H791 C769 0.929 . S
La792 C794 2.928 . S
La792 O812 2.521 . S
La792 O813 2.628 . S
La792 O814 2.554 . S
La792 O815 2.757 . S
La792 O816 2.470 . S
La792 O821 2.482 . S
La792 O823 2.503 . S
La793 C803 2.928 . S
La793 O815 2.482 . S
La793 O817 2.503 . S
La793 O818 2.521 . S
La793 O819 2.628 . S
La793 O820 2.554 . S
La793 O821 2.757 . S
La793 O822 2.470 . S
C794 La792 2.928 . S
C794 C795 1.503 . S
C794 O812 1.261 . S
C794 O813 1.243 . S
C795 C794 1.503 . S
C795 C796 1.394 . S
C795 C800 1.373 . S
C796 C795 1.394 . S
C796 C797 1.380 . S
C796 H824 0.930 . S
C797 C796 1.380 . S
C797 C798 1.376 . S
C797 H825 0.930 . S
C798 C797 1.376 . S
C798 C799 1.370 . S
C799 C798 1.370 . S
C799 C800 1.396 . S
C799 H826 0.929 . S
C800 C795 1.373 . S
C800 C799 1.396 . S
C800 H827 0.929 . S
C801 O814 1.240 . S
C801 O815 1.289 . S
C802 O816 1.258 . S
C802 O817 1.256 . S
C803 La793 2.928 . S
C803 C804 1.503 . S
C803 O818 1.261 . S
C803 O819 1.243 . S
C804 C803 1.503 . S
C804 C805 1.394 . S
C804 C809 1.373 . S
C805 C804 1.394 . S
C805 C806 1.380 . S
C805 H828 0.930 . S
C806 C805 1.380 . S
C806 C807 1.376 . S
C806 H829 0.930 . S
C807 C806 1.376 . S
C807 C808 1.370 . S
C808 C807 1.370 . S
C808 C809 1.396 . S
C808 H830 0.929 . S
C809 C804 1.373 . S
C809 C808 1.396 . S
C809 H831 0.929 . S
C810 O820 1.240 . S
C810 O821 1.289 . S
C811 O822 1.258 . S
C811 O823 1.256 . S
O812 La792 2.521 . S
O812 C794 1.261 . S
O813 La792 2.628 . S
O813 C794 1.243 . S
O814 La792 2.554 . S
O814 C801 1.240 . S
O815 La792 2.757 . S
O815 La793 2.482 . S
O815 C801 1.289 . S
O816 La792 2.470 . S
O816 C802 1.258 . S
O817 La793 2.503 . S
O817 C802 1.256 . S
O818 La793 2.521 . S
O818 C803 1.261 . S
O819 La793 2.628 . S
O819 C803 1.243 . S
O820 La793 2.554 . S
O820 C810 1.240 . S
O821 La792 2.482 . S
O821 La793 2.757 . S
O821 C810 1.289 . S
O822 La793 2.470 . S
O822 C811 1.258 . S
O823 La792 2.503 . S
O823 C811 1.256 . S
H824 C796 0.930 . S
H825 C797 0.930 . S
H826 C799 0.929 . S
H827 C800 0.929 . S
H828 C805 0.930 . S
H829 C806 0.930 . S
H830 C808 0.929 . S
H831 C809 0.929 . S
La832 C834 2.928 . S
La832 O852 2.521 . S
La832 O853 2.628 . S
La832 O854 2.554 . S
La832 O855 2.757 . S
La832 O856 2.470 . S
La832 O861 2.482 . S
La832 O863 2.503 . S
La833 C843 2.928 . S
La833 O855 2.482 . S
La833 O857 2.503 . S
La833 O858 2.521 . S
La833 O859 2.628 . S
La833 O860 2.554 . S
La833 O861 2.757 . S
La833 O862 2.470 . S
C834 La832 2.928 . S
C834 C835 1.503 . S
C834 O852 1.261 . S
C834 O853 1.243 . S
C835 C834 1.503 . S
C835 C836 1.394 . S
C835 C840 1.373 . S
C836 C835 1.394 . S
C836 C837 1.380 . S
C836 H864 0.930 . S
C837 C836 1.380 . S
C837 C838 1.376 . S
C837 H865 0.930 . S
C838 C837 1.376 . S
C838 C839 1.370 . S
C839 C838 1.370 . S
C839 C840 1.396 . S
C839 H866 0.929 . S
C840 C835 1.373 . S
C840 C839 1.396 . S
C840 H867 0.929 . S
C841 O854 1.240 . S
C841 O855 1.289 . S
C842 O856 1.258 . S
C842 O857 1.256 . S
C843 La833 2.928 . S
C843 C844 1.503 . S
C843 O858 1.261 . S
C843 O859 1.243 . S
C844 C843 1.503 . S
C844 C845 1.394 . S
C844 C849 1.373 . S
C845 C844 1.394 . S
C845 C846 1.380 . S
C845 H868 0.930 . S
C846 C845 1.380 . S
C846 C847 1.376 . S
C846 H869 0.930 . S
C847 C846 1.376 . S
C847 C848 1.370 . S
C848 C847 1.370 . S
C848 C849 1.396 . S
C848 H870 0.929 . S
C849 C844 1.373 . S
C849 C848 1.396 . S
C849 H871 0.929 . S
C850 O860 1.240 . S
C850 O861 1.289 . S
C851 O862 1.258 . S
C851 O863 1.256 . S
O852 La832 2.521 . S
O852 C834 1.261 . S
O853 La832 2.628 . S
O853 C834 1.243 . S
O854 La832 2.554 . S
O854 C841 1.240 . S
O855 La832 2.757 . S
O855 La833 2.482 . S
O855 C841 1.289 . S
O856 La832 2.470 . S
O856 C842 1.258 . S
O857 La833 2.503 . S
O857 C842 1.256 . S
O858 La833 2.521 . S
O858 C843 1.261 . S
O859 La833 2.628 . S
O859 C843 1.243 . S
O860 La833 2.554 . S
O860 C850 1.240 . S
O861 La832 2.482 . S
O861 La833 2.757 . S
O861 C850 1.289 . S
O862 La833 2.470 . S
O862 C851 1.258 . S
O863 La832 2.503 . S
O863 C851 1.256 . S
H864 C836 0.930 . S
H865 C837 0.930 . S
H866 C839 0.929 . S
H867 C840 0.929 . S
H868 C845 0.930 . S
H869 C846 0.930 . S
H870 C848 0.929 . S
H871 C849 0.929 . S
La872 C874 2.928 . S
La872 O892 2.521 . S
La872 O893 2.628 . S
La872 O894 2.554 . S
La872 O895 2.757 . S
La872 O896 2.470 . S
La872 O901 2.482 . S
La872 O903 2.503 . S
La873 C883 2.928 . S
La873 O895 2.482 . S
La873 O897 2.503 . S
La873 O898 2.521 . S
La873 O899 2.628 . S
La873 O900 2.554 . S
La873 O901 2.757 . S
La873 O902 2.470 . S
C874 La872 2.928 . S
C874 C875 1.503 . S
C874 O892 1.261 . S
C874 O893 1.243 . S
C875 C874 1.503 . S
C875 C876 1.394 . S
C875 C880 1.373 . S
C876 C875 1.394 . S
C876 C877 1.380 . S
C876 H904 0.930 . S
C877 C876 1.380 . S
C877 C878 1.376 . S
C877 H905 0.930 . S
C878 C877 1.376 . S
C878 C879 1.370 . S
C879 C878 1.370 . S
C879 C880 1.396 . S
C879 H906 0.929 . S
C880 C875 1.373 . S
C880 C879 1.396 . S
C880 H907 0.929 . S
C881 O894 1.240 . S
C881 O895 1.289 . S
C882 O896 1.258 . S
C882 O897 1.256 . S
C883 La873 2.928 . S
C883 C884 1.503 . S
C883 O898 1.261 . S
C883 O899 1.243 . S
C884 C883 1.503 . S
C884 C885 1.394 . S
C884 C889 1.373 . S
C885 C884 1.394 . S
C885 C886 1.380 . S
C885 H908 0.930 . S
C886 C885 1.380 . S
C886 C887 1.376 . S
C886 H909 0.930 . S
C887 C886 1.376 . S
C887 C888 1.370 . S
C888 C887 1.370 . S
C888 C889 1.396 . S
C888 H910 0.929 . S
C889 C884 1.373 . S
C889 C888 1.396 . S
C889 H911 0.929 . S
C890 O900 1.240 . S
C890 O901 1.289 . S
C891 O902 1.258 . S
C891 O903 1.256 . S
O892 La872 2.521 . S
O892 C874 1.261 . S
O893 La872 2.628 . S
O893 C874 1.243 . S
O894 La872 2.554 . S
O894 C881 1.240 . S
O895 La872 2.757 . S
O895 La873 2.482 . S
O895 C881 1.289 . S
O896 La872 2.470 . S
O896 C882 1.258 . S
O897 La873 2.503 . S
O897 C882 1.256 . S
O898 La873 2.521 . S
O898 C883 1.261 . S
O899 La873 2.628 . S
O899 C883 1.243 . S
O900 La873 2.554 . S
O900 C890 1.240 . S
O901 La872 2.482 . S
O901 La873 2.757 . S
O901 C890 1.289 . S
O902 La873 2.470 . S
O902 C891 1.258 . S
O903 La872 2.503 . S
O903 C891 1.256 . S
H904 C876 0.930 . S
H905 C877 0.930 . S
H906 C879 0.929 . S
H907 C880 0.929 . S
H908 C885 0.930 . S
H909 C886 0.930 . S
H910 C888 0.929 . S
H911 C889 0.929 . S
La912 C914 2.928 . S
La912 O932 2.521 . S
La912 O933 2.628 1_556 S
La912 O934 2.554 . S
La912 O935 2.757 . S
La912 O936 2.470 . S
La912 O941 2.482 1_556 S
La912 O943 2.503 1_556 S
La913 C923 2.928 1_455 S
La913 O935 2.482 1_554 S
La913 O937 2.503 . S
La913 O938 2.521 1_455 S
La913 O939 2.628 1_455 S
La913 O940 2.554 . S
La913 O941 2.757 . S
La913 O942 2.470 . S
C914 La912 2.928 . S
C914 C915 1.503 . S
C914 O932 1.261 . S
C914 O933 1.243 1_556 S
C915 C914 1.503 . S
C915 C916 1.394 . S
C915 C920 1.333 1_556 S
C916 C915 1.394 . S
C916 C917 1.380 . S
C916 H944 0.930 . S
C917 C916 1.380 . S
C917 C918 1.376 . S
C917 H945 0.930 . S
C918 C917 1.376 . S
C918 C919 1.370 . S
C919 C918 1.370 . S
C919 C920 1.386 1_556 S
C919 H946 0.929 1_556 S
C920 C915 1.333 1_554 S
C920 C919 1.386 1_554 S
C920 H947 0.981 . S
C921 O934 1.240 . S
C921 O935 1.289 . S
C922 O936 1.258 . S
C922 O937 1.256 1_556 S
C923 La913 2.928 1_655 S
C923 C924 1.503 . S
C923 O938 1.261 . S
C923 O939 1.243 . S
C924 C923 1.503 . S
C924 C925 1.394 . S
C924 C929 1.373 . S
C925 C924 1.394 . S
C925 C926 1.380 . S
C925 H948 0.930 . S
C926 C925 1.380 . S
C926 C927 1.376 . S
C926 H949 0.930 . S
C927 C926 1.376 . S
C927 C928 1.370 . S
C928 C927 1.370 . S
C928 C929 1.396 . S
C928 H950 0.929 . S
C929 C924 1.373 . S
C929 C928 1.396 . S
C929 H951 0.929 . S
C930 O940 1.240 . S
C930 O941 1.289 . S
C931 O942 1.258 . S
C931 O943 1.256 . S
O932 La912 2.521 . S
O932 C914 1.261 . S
O933 La912 2.628 1_554 S
O933 C914 1.243 1_554 S
O934 La912 2.554 . S
O934 C921 1.240 . S
O935 La912 2.757 . S
O935 La913 2.482 1_556 S
O935 C921 1.289 . S
O936 La912 2.470 . S
O936 C922 1.258 . S
O937 La913 2.503 . S
O937 C922 1.256 1_554 S
O938 La913 2.521 1_655 S
O938 C923 1.261 . S
O939 La913 2.628 1_655 S
O939 C923 1.243 . S
O940 La913 2.554 . S
O940 C930 1.240 . S
O941 La912 2.482 1_554 S
O941 La913 2.757 . S
O941 C930 1.289 . S
O942 La913 2.470 . S
O942 C931 1.258 . S
O943 La912 2.503 1_554 S
O943 C931 1.256 . S
H944 C916 0.930 . S
H945 C917 0.930 . S
H946 C919 0.929 1_554 S
H947 C920 0.981 . S
H948 C925 0.930 . S
H949 C926 0.930 . S
H950 C928 0.929 . S
H951 C929 0.929 . S
C952 C953 1.349 . S
C952 C954 1.327 . S
C952 H977 0.950 1_455 S
C953 C952 1.349 . S
C953 C969 1.349 . S
C954 C952 1.327 . S
C954 C973 1.429 . S
C954 H978 0.950 1_455 S
C955 C972 1.574 . S
C955 C974 1.368 . S
C955 H979 0.949 . S
H956 C960 0.949 . S
C957 C958 1.349 . S
C957 C959 1.327 . S
C957 H980 0.950 . S
C958 C957 1.349 . S
C958 C970 1.349 1_556 S
C959 C957 1.327 . S
C959 C975 1.429 . S
C959 H981 0.950 . S
C960 H956 0.949 . S
C960 C968 1.574 . S
C960 C976 1.368 . S
H961 C969 0.950 . S
H962 C967 0.950 . S
H963 C968 0.953 . S
H964 C970 0.950 . S
H965 C971 0.950 1_554 S
H966 C972 0.949 . S
C967 H962 0.950 . S
C967 C969 1.327 . S
C967 C973 1.429 . S
C968 C960 1.574 . S
C968 H963 0.953 . S
C968 C974 1.368 . S
C969 C953 1.349 . S
C969 H961 0.950 . S
C969 C967 1.327 . S
C970 C958 1.349 1_554 S
C970 H964 0.950 . S
C970 C971 1.327 1_554 S
C971 H965 0.950 1_556 S
C971 C970 1.327 1_556 S
C971 C975 1.429 . S
C972 C955 1.574 . S
C972 H966 0.949 . S
C972 C976 1.368 . S
C973 C954 1.429 . S
C973 C967 1.429 . S
C973 C974 1.523 . S
C974 C955 1.368 . S
C974 C968 1.368 . S
C974 C973 1.523 . S
C975 C959 1.429 . S
C975 C971 1.429 . S
C975 C976 1.523 . S
C976 C960 1.368 . S
C976 C972 1.368 . S
C976 C975 1.523 . S
H977 C952 0.950 1_655 S
H978 C954 0.950 1_655 S
H979 C955 0.949 . S
H980 C957 0.950 . S
H981 C959 0.950 . S
C982 C983 1.349 . S
C982 C984 1.327 . S
C982 H1007 0.950 . S
C983 C982 1.349 . S
C983 C999 1.349 . S
C984 C982 1.327 . S
C984 C1003 1.429 . S
C984 H1008 0.950 . S
C985 C1002 1.574 . S
C985 C1004 1.368 . S
C985 H1009 0.949 . S
H986 C990 0.949 . S
C987 C988 1.349 . S
C987 C989 1.327 . S
C987 H1010 0.950 . S
C988 C987 1.349 . S
C988 C1000 1.349 . S
C989 C987 1.327 . S
C989 C1005 1.429 . S
C989 H1011 0.950 . S
C990 H986 0.949 . S
C990 C998 1.574 . S
C990 C1006 1.368 . S
H991 C999 0.950 . S
H992 C997 0.950 . S
H993 C998 0.949 . S
H994 C1000 0.950 . S
H995 C1001 0.950 . S
H996 C1002 0.949 . S
C997 H992 0.950 . S
C997 C999 1.327 . S
C997 C1003 1.429 . S
C998 C990 1.574 . S
C998 H993 0.949 . S
C998 C1004 1.368 . S
C999 C983 1.349 . S
C999 H991 0.950 . S
C999 C997 1.327 . S
C1000 C988 1.349 . S
C1000 H994 0.950 . S
C1000 C1001 1.327 . S
C1001 H995 0.950 . S
C1001 C1000 1.327 . S
C1001 C1005 1.429 . S
C1002 C985 1.574 . S
C1002 H996 0.949 . S
C1002 C1006 1.368 . S
C1003 C984 1.429 . S
C1003 C997 1.429 . S
C1003 C1004 1.523 . S
C1004 C985 1.368 . S
C1004 C998 1.368 . S
C1004 C1003 1.523 . S
C1005 C989 1.429 . S
C1005 C1001 1.429 . S
C1005 C1006 1.523 . S
C1006 C990 1.368 . S
C1006 C1002 1.368 . S
C1006 C1005 1.523 . S
H1007 C982 0.950 . S
H1008 C984 0.950 . S
H1009 C985 0.949 . S
H1010 C987 0.950 . S
H1011 C989 0.950 . S
C1012 C1013 1.349 . S
C1012 C1014 1.327 . S
C1012 H1037 0.950 . S
C1013 C1012 1.349 . S
C1013 C1029 1.349 . S
C1014 C1012 1.327 . S
C1014 C1033 1.429 . S
C1014 H1038 0.950 . S
C1015 C1032 1.574 . S
C1015 C1034 1.368 . S
C1015 H1039 0.949 . S
H1016 C1020 0.949 . S
C1017 C1018 1.349 . S
C1017 C1019 1.327 . S
C1017 H1040 0.950 . S
C1018 C1017 1.349 . S
C1018 C1030 1.349 . S
C1019 C1017 1.327 . S
C1019 C1035 1.429 . S
C1019 H1041 0.950 . S
C1020 H1016 0.949 . S
C1020 C1028 1.574 . S
C1020 C1036 1.368 . S
H1021 C1029 0.950 . S
H1022 C1027 0.950 . S
H1023 C1028 0.949 . S
H1024 C1030 0.950 . S
H1025 C1031 0.950 . S
H1026 C1032 0.949 . S
C1027 H1022 0.950 . S
C1027 C1029 1.327 . S
C1027 C1033 1.429 . S
C1028 C1020 1.574 . S
C1028 H1023 0.949 . S
C1028 C1034 1.368 . S
C1029 C1013 1.349 . S
C1029 H1021 0.950 . S
C1029 C1027 1.327 . S
C1030 C1018 1.349 . S
C1030 H1024 0.950 . S
C1030 C1031 1.327 . S
C1031 H1025 0.950 . S
C1031 C1030 1.327 . S
C1031 C1035 1.429 . S
C1032 C1015 1.574 . S
C1032 H1026 0.949 . S
C1032 C1036 1.368 . S
C1033 C1014 1.429 . S
C1033 C1027 1.429 . S
C1033 C1034 1.523 . S
C1034 C1015 1.368 . S
C1034 C1028 1.368 . S
C1034 C1033 1.523 . S
C1035 C1019 1.429 . S
C1035 C1031 1.429 . S
C1035 C1036 1.523 . S
C1036 C1020 1.368 . S
C1036 C1032 1.368 . S
C1036 C1035 1.523 . S
H1037 C1012 0.950 . S
H1038 C1014 0.950 . S
H1039 C1015 0.949 . S
H1040 C1017 0.950 . S
H1041 C1019 0.950 . S
C1042 C1043 1.349 . S
C1042 C1044 1.327 . S
C1042 H1067 0.950 . S
C1043 C1042 1.349 . S
C1043 C1059 1.349 . S
C1044 C1042 1.327 . S
C1044 C1063 1.429 . S
C1044 H1068 0.950 . S
C1045 C1062 1.574 . S
C1045 C1064 1.368 . S
C1045 H1069 0.949 . S
H1046 C1050 0.949 . S
C1047 C1048 1.349 . S
C1047 C1049 1.327 . S
C1047 H1070 0.950 . S
C1048 C1047 1.349 . S
C1048 C1060 1.349 . S
C1049 C1047 1.327 . S
C1049 C1065 1.429 . S
C1049 H1071 0.950 . S
C1050 H1046 0.949 . S
C1050 C1058 1.574 . S
C1050 C1066 1.368 . S
H1051 C1059 0.950 . S
H1052 C1057 0.950 . S
H1053 C1058 0.949 . S
H1054 C1060 0.950 . S
H1055 C1061 0.950 . S
H1056 C1062 0.949 . S
C1057 H1052 0.950 . S
C1057 C1059 1.327 . S
C1057 C1063 1.429 . S
C1058 C1050 1.574 . S
C1058 H1053 0.949 . S
C1058 C1064 1.368 . S
C1059 C1043 1.349 . S
C1059 H1051 0.950 . S
C1059 C1057 1.327 . S
C1060 C1048 1.349 . S
C1060 H1054 0.950 . S
C1060 C1061 1.327 . S
C1061 H1055 0.950 . S
C1061 C1060 1.327 . S
C1061 C1065 1.429 . S
C1062 C1045 1.574 . S
C1062 H1056 0.949 . S
C1062 C1066 1.368 . S
C1063 C1044 1.429 . S
C1063 C1057 1.429 . S
C1063 C1064 1.523 . S
C1064 C1045 1.368 . S
C1064 C1058 1.368 . S
C1064 C1063 1.523 . S
C1065 C1049 1.429 . S
C1065 C1061 1.429 . S
C1065 C1066 1.523 . S
C1066 C1050 1.368 . S
C1066 C1062 1.368 . S
C1066 C1065 1.523 . S
H1067 C1042 0.950 . S
H1068 C1044 0.950 . S
H1069 C1045 0.949 . S
H1070 C1047 0.950 . S
H1071 C1049 0.950 . S
C1072 C1073 1.349 . S
C1072 C1074 1.327 . S
C1072 H1097 0.950 1_455 S
C1073 C1072 1.349 . S
C1073 C1089 1.349 . S
C1074 C1072 1.327 . S
C1074 C1093 1.429 . S
C1074 H1098 0.950 . S
C1075 C1092 1.574 . S
C1075 C1094 1.368 . S
C1075 H1099 0.949 . S
H1076 C1080 0.949 . S
C1077 C1078 1.349 . S
C1077 C1079 1.327 . S
C1077 H1100 0.950 . S
C1078 C1077 1.349 . S
C1078 C1090 1.349 . S
C1079 C1077 1.327 . S
C1079 C1095 1.429 . S
C1079 H1101 0.950 . S
C1080 H1076 0.949 . S
C1080 C1088 1.574 . S
C1080 C1096 1.368 . S
H1081 C1089 0.950 . S
H1082 C1087 0.950 . S
H1083 C1088 0.949 . S
H1084 C1090 0.950 . S
H1085 C1091 0.950 . S
H1086 C1092 0.949 . S
C1087 H1082 0.950 . S
C1087 C1089 1.327 . S
C1087 C1093 1.429 . S
C1088 C1080 1.574 . S
C1088 H1083 0.949 . S
C1088 C1094 1.368 . S
C1089 C1073 1.349 . S
C1089 H1081 0.950 . S
C1089 C1087 1.327 . S
C1090 C1078 1.349 . S
C1090 H1084 0.950 . S
C1090 C1091 1.327 . S
C1091 H1085 0.950 . S
C1091 C1090 1.327 . S
C1091 C1095 1.429 . S
C1092 C1075 1.574 . S
C1092 H1086 0.949 . S
C1092 C1096 1.368 . S
C1093 C1074 1.429 . S
C1093 C1087 1.429 . S
C1093 C1094 1.523 . S
C1094 C1075 1.368 . S
C1094 C1088 1.368 . S
C1094 C1093 1.523 . S
C1095 C1079 1.429 . S
C1095 C1091 1.429 . S
C1095 C1096 1.523 . S
C1096 C1080 1.368 . S
C1096 C1092 1.368 . S
C1096 C1095 1.523 . S
H1097 C1072 0.950 1_655 S
H1098 C1074 0.950 . S
H1099 C1075 0.949 . S
H1100 C1077 0.950 . S
H1101 C1079 0.950 . S
C1102 C1103 1.349 . S
C1102 C1104 1.327 . S
C1102 H1127 0.950 . S
C1103 C1102 1.349 . S
C1103 C1119 1.349 . S
C1104 C1102 1.327 . S
C1104 C1123 1.429 . S
C1104 H1128 0.950 . S
C1105 C1122 1.574 . S
C1105 C1124 1.368 . S
C1105 H1129 0.949 . S
H1106 C1110 0.949 . S
C1107 C1108 1.349 . S
C1107 C1109 1.327 . S
C1107 H1130 0.950 . S
C1108 C1107 1.349 . S
C1108 C1120 1.349 . S
C1109 C1107 1.327 . S
C1109 C1125 1.429 . S
C1109 H1131 0.950 . S
C1110 H1106 0.949 . S
C1110 C1118 1.574 . S
C1110 C1126 1.368 . S
H1111 C1119 0.950 . S
H1112 C1117 0.950 . S
H1113 C1118 0.949 . S
H1114 C1120 0.950 . S
H1115 C1121 0.950 . S
H1116 C1122 0.949 . S
C1117 H1112 0.950 . S
C1117 C1119 1.327 . S
C1117 C1123 1.429 . S
C1118 C1110 1.574 . S
C1118 H1113 0.949 . S
C1118 C1124 1.368 . S
C1119 C1103 1.349 . S
C1119 H1111 0.950 . S
C1119 C1117 1.327 . S
C1120 C1108 1.349 . S
C1120 H1114 0.950 . S
C1120 C1121 1.327 . S
C1121 H1115 0.950 . S
C1121 C1120 1.327 . S
C1121 C1125 1.429 . S
C1122 C1105 1.574 . S
C1122 H1116 0.949 . S
C1122 C1126 1.368 . S
C1123 C1104 1.429 . S
C1123 C1117 1.429 . S
C1123 C1124 1.523 . S
C1124 C1105 1.368 . S
C1124 C1118 1.368 . S
C1124 C1123 1.523 . S
C1125 C1109 1.429 . S
C1125 C1121 1.429 . S
C1125 C1126 1.523 . S
C1126 C1110 1.368 . S
C1126 C1122 1.368 . S
C1126 C1125 1.523 . S
H1127 C1102 0.950 . S
H1128 C1104 0.950 . S
H1129 C1105 0.949 . S
H1130 C1107 0.950 . S
H1131 C1109 0.950 . S
C1132 C1133 1.349 . S
C1132 C1134 1.327 . S
C1132 H1157 0.950 . S
C1133 C1132 1.349 . S
C1133 C1149 1.349 . S
C1134 C1132 1.327 . S
C1134 C1153 1.429 . S
C1134 H1158 0.950 . S
C1135 C1152 1.574 . S
C1135 C1154 1.368 . S
C1135 H1159 0.949 . S
H1136 C1140 0.949 . S
C1137 C1138 1.349 . S
C1137 C1139 1.327 . S
C1137 H1160 0.950 . S
C1138 C1137 1.349 . S
C1138 C1150 1.349 . S
C1139 C1137 1.327 . S
C1139 C1155 1.429 . S
C1139 H1161 0.950 . S
C1140 H1136 0.949 . S
C1140 C1148 1.574 . S
C1140 C1156 1.368 . S
H1141 C1149 0.950 . S
H1142 C1147 0.950 . S
H1143 C1148 0.949 . S
H1144 C1150 0.950 . S
H1145 C1151 0.950 . S
H1146 C1152 0.949 . S
C1147 H1142 0.950 . S
C1147 C1149 1.327 . S
C1147 C1153 1.429 . S
C1148 C1140 1.574 . S
C1148 H1143 0.949 . S
C1148 C1154 1.368 . S
C1149 C1133 1.349 . S
C1149 H1141 0.950 . S
C1149 C1147 1.327 . S
C1150 C1138 1.349 . S
C1150 H1144 0.950 . S
C1150 C1151 1.327 . S
C1151 H1145 0.950 . S
C1151 C1150 1.327 . S
C1151 C1155 1.429 . S
C1152 C1135 1.574 . S
C1152 H1146 0.949 . S
C1152 C1156 1.368 . S
C1153 C1134 1.429 . S
C1153 C1147 1.429 . S
C1153 C1154 1.523 . S
C1154 C1135 1.368 . S
C1154 C1148 1.368 . S
C1154 C1153 1.523 . S
C1155 C1139 1.429 . S
C1155 C1151 1.429 . S
C1155 C1156 1.523 . S
C1156 C1140 1.368 . S
C1156 C1152 1.368 . S
C1156 C1155 1.523 . S
H1157 C1132 0.950 . S
H1158 C1134 0.950 . S
H1159 C1135 0.949 . S
H1160 C1137 0.950 . S
H1161 C1139 0.950 . S
C1162 C1163 1.349 . S
C1162 C1164 1.327 . S
C1162 H1187 0.950 . S
C1163 C1162 1.349 . S
C1163 C1179 1.349 . S
C1164 C1162 1.327 . S
C1164 C1183 1.429 . S
C1164 H1188 0.950 . S
C1165 C1182 1.574 . S
C1165 C1184 1.368 . S
C1165 H1189 0.949 . S
H1166 C1170 0.949 . S
C1167 C1168 1.349 . S
C1167 C1169 1.327 . S
C1167 H1190 0.950 . S
C1168 C1167 1.349 . S
C1168 C1180 1.349 . S
C1169 C1167 1.327 . S
C1169 C1185 1.429 . S
C1169 H1191 0.950 . S
C1170 H1166 0.949 . S
C1170 C1178 1.574 . S
C1170 C1186 1.368 . S
H1171 C1179 0.950 . S
H1172 C1177 0.950 . S
H1173 C1178 0.949 . S
H1174 C1180 0.950 . S
H1175 C1181 0.950 . S
H1176 C1182 0.949 . S
C1177 H1172 0.950 . S
C1177 C1179 1.327 . S
C1177 C1183 1.429 . S
C1178 C1170 1.574 . S
C1178 H1173 0.949 . S
C1178 C1184 1.368 . S
C1179 C1163 1.349 . S
C1179 H1171 0.950 . S
C1179 C1177 1.327 . S
C1180 C1168 1.349 . S
C1180 H1174 0.950 . S
C1180 C1181 1.327 . S
C1181 H1175 0.950 . S
C1181 C1180 1.327 . S
C1181 C1185 1.429 . S
C1182 C1165 1.574 . S
C1182 H1176 0.949 . S
C1182 C1186 1.368 . S
C1183 C1164 1.429 . S
C1183 C1177 1.429 . S
C1183 C1184 1.523 . S
C1184 C1165 1.368 . S
C1184 C1178 1.368 . S
C1184 C1183 1.523 . S
C1185 C1169 1.429 . S
C1185 C1181 1.429 . S
C1185 C1186 1.523 . S
C1186 C1170 1.368 . S
C1186 C1182 1.368 . S
C1186 C1185 1.523 . S
H1187 C1162 0.950 . S
H1188 C1164 0.950 . S
H1189 C1165 0.949 . S
H1190 C1167 0.950 . S
H1191 C1169 0.950 . S
C1192 C1193 1.349 . S
C1192 C1194 1.327 . S
C1192 H1217 0.950 . S
C1193 C1192 1.349 . S
C1193 C1209 1.349 . S
C1194 C1192 1.327 . S
C1194 C1213 1.429 . S
C1194 H1218 0.950 . S
C1195 C1212 1.574 . S
C1195 C1214 1.368 . S
C1195 H1219 0.949 . S
H1196 C1200 0.949 . S
C1197 C1198 1.349 . S
C1197 C1199 1.327 1_455 S
C1197 H1220 0.945 1_455 S
C1198 C1197 1.349 . S
C1198 C1210 1.349 . S
C1199 C1197 1.327 1_655 S
C1199 C1215 1.429 1_655 S
C1199 H1221 0.950 . S
C1200 H1196 0.949 . S
C1200 C1208 1.574 1_455 S
C1200 C1216 1.368 1_455 S
H1201 C1209 0.950 . S
H1202 C1207 0.950 . S
H1203 C1208 0.949 . S
H1204 C1210 0.950 . S
H1205 C1211 0.950 . S
H1206 C1212 0.949 . S
C1207 H1202 0.950 . S
C1207 C1209 1.327 . S
C1207 C1213 1.429 . S
C1208 C1200 1.574 1_655 S
C1208 H1203 0.949 . S
C1208 C1214 1.368 . S
C1209 C1193 1.349 . S
C1209 H1201 0.950 . S
C1209 C1207 1.327 . S
C1210 C1198 1.349 . S
C1210 H1204 0.950 . S
C1210 C1211 1.327 . S
C1211 H1205 0.950 . S
C1211 C1210 1.327 . S
C1211 C1215 1.429 . S
C1212 C1195 1.574 . S
C1212 H1206 0.949 . S
C1212 C1216 1.368 . S
C1213 C1194 1.429 . S
C1213 C1207 1.429 . S
C1213 C1214 1.523 . S
C1214 C1195 1.368 . S
C1214 C1208 1.368 . S
C1214 C1213 1.523 . S
C1215 C1199 1.429 1_455 S
C1215 C1211 1.429 . S
C1215 C1216 1.523 1_455 S
C1216 C1200 1.368 1_655 S
C1216 C1212 1.368 . S
C1216 C1215 1.523 1_655 S
H1217 C1192 0.950 . S
H1218 C1194 0.950 . S
H1219 C1195 0.949 . S
H1220 C1197 0.945 1_655 S
H1221 C1199 0.950 . S
C1222 C1223 1.349 . S
C1222 C1224 1.327 . S
C1222 H1247 0.950 . S
C1223 C1222 1.349 . S
C1223 C1239 1.349 . S
C1224 C1222 1.327 . S
C1224 C1243 1.429 . S
C1224 H1248 0.950 . S
C1225 C1242 1.574 . S
C1225 C1244 1.368 . S
C1225 H1249 0.949 . S
H1226 C1230 0.949 . S
C1227 C1228 1.349 . S
C1227 C1229 1.327 . S
C1227 H1250 0.950 . S
C1228 C1227 1.349 . S
C1228 C1240 1.349 . S
C1229 C1227 1.327 . S
C1229 C1245 1.429 . S
C1229 H1251 0.950 . S
C1230 H1226 0.949 . S
C1230 C1238 1.574 . S
C1230 C1246 1.368 . S
H1231 C1239 0.950 . S
H1232 C1237 0.950 . S
H1233 C1238 0.949 . S
H1234 C1240 0.950 . S
H1235 C1241 0.950 . S
H1236 C1242 0.949 . S
C1237 H1232 0.950 . S
C1237 C1239 1.327 . S
C1237 C1243 1.429 . S
C1238 C1230 1.574 . S
C1238 H1233 0.949 . S
C1238 C1244 1.368 . S
C1239 C1223 1.349 . S
C1239 H1231 0.950 . S
C1239 C1237 1.327 . S
C1240 C1228 1.349 . S
C1240 H1234 0.950 . S
C1240 C1241 1.327 . S
C1241 H1235 0.950 . S
C1241 C1240 1.327 . S
C1241 C1245 1.429 . S
C1242 C1225 1.574 . S
C1242 H1236 0.949 . S
C1242 C1246 1.368 . S
C1243 C1224 1.429 . S
C1243 C1237 1.429 . S
C1243 C1244 1.523 . S
C1244 C1225 1.368 . S
C1244 C1238 1.368 . S
C1244 C1243 1.523 . S
C1245 C1229 1.429 . S
C1245 C1241 1.429 . S
C1245 C1246 1.523 . S
C1246 C1230 1.368 . S
C1246 C1242 1.368 . S
C1246 C1245 1.523 . S
H1247 C1222 0.950 . S
H1248 C1224 0.950 . S
H1249 C1225 0.949 . S
H1250 C1227 0.950 . S
H1251 C1229 0.950 . S
C1252 C1253 1.349 . S
C1252 C1254 1.327 . S
C1252 H1277 0.950 . S
C1253 C1252 1.349 . S
C1253 C1269 1.349 . S
C1254 C1252 1.327 . S
C1254 C1273 1.429 . S
C1254 H1278 0.950 . S
C1255 C1272 1.574 . S
C1255 C1274 1.368 . S
C1255 H1279 0.949 . S
H1256 C1260 0.949 . S
C1257 C1258 1.349 . S
C1257 C1259 1.327 . S
C1257 H1280 0.950 . S
C1258 C1257 1.349 . S
C1258 C1270 1.349 . S
C1259 C1257 1.327 . S
C1259 C1275 1.429 . S
C1259 H1281 0.950 . S
C1260 H1256 0.949 . S
C1260 C1268 1.574 . S
C1260 C1276 1.368 . S
H1261 C1269 0.950 . S
H1262 C1267 0.950 . S
H1263 C1268 0.949 . S
H1264 C1270 0.950 . S
H1265 C1271 0.950 . S
H1266 C1272 0.949 . S
C1267 H1262 0.950 . S
C1267 C1269 1.327 . S
C1267 C1273 1.429 . S
C1268 C1260 1.574 . S
C1268 H1263 0.949 . S
C1268 C1274 1.368 . S
C1269 C1253 1.349 . S
C1269 H1261 0.950 . S
C1269 C1267 1.327 . S
C1270 C1258 1.349 . S
C1270 H1264 0.950 . S
C1270 C1271 1.327 . S
C1271 H1265 0.950 . S
C1271 C1270 1.327 . S
C1271 C1275 1.429 . S
C1272 C1255 1.574 . S
C1272 H1266 0.949 . S
C1272 C1276 1.368 . S
C1273 C1254 1.429 . S
C1273 C1267 1.429 . S
C1273 C1274 1.523 . S
C1274 C1255 1.368 . S
C1274 C1268 1.368 . S
C1274 C1273 1.523 . S
C1275 C1259 1.429 . S
C1275 C1271 1.429 . S
C1275 C1276 1.523 . S
C1276 C1260 1.368 . S
C1276 C1272 1.368 . S
C1276 C1275 1.523 . S
H1277 C1252 0.950 . S
H1278 C1254 0.950 . S
H1279 C1255 0.949 . S
H1280 C1257 0.950 . S
H1281 C1259 0.950 . S
C1282 C1283 1.349 . S
C1282 C1284 1.327 . S
C1282 H1307 0.950 . S
C1283 C1282 1.349 . S
C1283 C1299 1.349 . S
C1284 C1282 1.327 . S
C1284 C1303 1.429 . S
C1284 H1308 0.950 . S
C1285 C1302 1.574 . S
C1285 C1304 1.368 . S
C1285 H1309 0.949 . S
H1286 C1290 0.949 . S
C1287 C1288 1.349 . S
C1287 C1289 1.327 . S
C1287 H1310 0.950 . S
C1288 C1287 1.349 . S
C1288 C1300 1.349 . S
C1289 C1287 1.327 . S
C1289 C1305 1.429 . S
C1289 H1311 0.950 . S
C1290 H1286 0.949 . S
C1290 C1298 1.574 . S
C1290 C1306 1.368 . S
H1291 C1299 0.950 . S
H1292 C1297 0.950 . S
H1293 C1298 0.949 . S
H1294 C1300 0.950 . S
H1295 C1301 0.950 . S
H1296 C1302 0.949 . S
C1297 H1292 0.950 . S
C1297 C1299 1.327 . S
C1297 C1303 1.429 . S
C1298 C1290 1.574 . S
C1298 H1293 0.949 . S
C1298 C1304 1.368 . S
C1299 C1283 1.349 . S
C1299 H1291 0.950 . S
C1299 C1297 1.327 . S
C1300 C1288 1.349 . S
C1300 H1294 0.950 . S
C1300 C1301 1.327 . S
C1301 H1295 0.950 . S
C1301 C1300 1.327 . S
C1301 C1305 1.429 . S
C1302 C1285 1.574 . S
C1302 H1296 0.949 . S
C1302 C1306 1.368 . S
C1303 C1284 1.429 . S
C1303 C1297 1.429 . S
C1303 C1304 1.523 . S
C1304 C1285 1.368 . S
C1304 C1298 1.368 . S
C1304 C1303 1.523 . S
C1305 C1289 1.429 . S
C1305 C1301 1.429 . S
C1305 C1306 1.523 . S
C1306 C1290 1.368 . S
C1306 C1302 1.368 . S
C1306 C1305 1.523 . S
H1307 C1282 0.950 . S
H1308 C1284 0.950 . S
H1309 C1285 0.949 . S
H1310 C1287 0.950 . S
H1311 C1289 0.950 . S
C1312 C1313 1.349 . S
C1312 C1314 1.327 . S
C1312 H1337 0.950 . S
C1313 C1312 1.349 . S
C1313 C1329 1.349 . S
C1314 C1312 1.327 . S
C1314 C1333 1.429 . S
C1314 H1338 0.950 . S
C1315 C1332 1.574 . S
C1315 C1334 1.368 . S
C1315 H1339 0.949 . S
H1316 C1320 0.949 . S
C1317 C1318 1.349 . S
C1317 C1319 1.327 1_455 S
C1317 H1340 0.942 1_455 S
C1318 C1317 1.349 . S
C1318 C1330 1.349 . S
C1319 C1317 1.327 1_655 S
C1319 C1335 1.429 1_655 S
C1319 H1341 0.950 . S
C1320 H1316 0.949 . S
C1320 C1328 1.574 1_455 S
C1320 C1336 1.368 1_455 S
H1321 C1329 0.950 . S
H1322 C1327 0.950 . S
H1323 C1328 0.971 . S
H1324 C1330 0.950 . S
H1325 C1331 0.950 . S
H1326 C1332 0.949 . S
C1327 H1322 0.950 . S
C1327 C1329 1.327 . S
C1327 C1333 1.429 . S
C1328 C1320 1.574 1_655 S
C1328 H1323 0.971 . S
C1328 C1334 1.368 . S
C1329 C1313 1.349 . S
C1329 H1321 0.950 . S
C1329 C1327 1.327 . S
C1330 C1318 1.349 . S
C1330 H1324 0.950 . S
C1330 C1331 1.327 . S
C1331 H1325 0.950 . S
C1331 C1330 1.327 . S
C1331 C1335 1.429 . S
C1332 C1315 1.574 . S
C1332 H1326 0.949 . S
C1332 C1336 1.368 . S
C1333 C1314 1.429 . S
C1333 C1327 1.429 . S
C1333 C1334 1.523 . S
C1334 C1315 1.368 . S
C1334 C1328 1.368 . S
C1334 C1333 1.523 . S
C1335 C1319 1.429 1_455 S
C1335 C1331 1.429 . S
C1335 C1336 1.523 1_455 S
C1336 C1320 1.368 1_655 S
C1336 C1332 1.368 . S
C1336 C1335 1.523 1_655 S
H1337 C1312 0.950 . S
H1338 C1314 0.950 . S
H1339 C1315 0.949 . S
H1340 C1317 0.942 1_655 S
H1341 C1319 0.950 . S
C1342 C1343 1.349 . S
C1342 C1344 1.327 . S
C1342 H1367 0.950 . S
C1343 C1342 1.349 . S
C1343 C1359 1.349 . S
C1344 C1342 1.327 . S
C1344 C1363 1.429 . S
C1344 H1368 0.950 . S
C1345 C1362 1.574 . S
C1345 C1364 1.368 . S
C1345 H1369 0.949 . S
H1346 C1350 0.949 . S
C1347 C1348 1.349 . S
C1347 C1349 1.327 . S
C1347 H1370 0.950 . S
C1348 C1347 1.349 . S
C1348 C1360 1.349 . S
C1349 C1347 1.327 . S
C1349 C1365 1.429 . S
C1349 H1371 0.950 . S
C1350 H1346 0.949 . S
C1350 C1358 1.574 . S
C1350 C1366 1.368 . S
H1351 C1359 0.950 . S
H1352 C1357 0.950 . S
H1353 C1358 0.949 . S
H1354 C1360 0.950 . S
H1355 C1361 0.950 . S
H1356 C1362 0.949 . S
C1357 H1352 0.950 . S
C1357 C1359 1.327 . S
C1357 C1363 1.429 . S
C1358 C1350 1.574 . S
C1358 H1353 0.949 . S
C1358 C1364 1.368 . S
C1359 C1343 1.349 . S
C1359 H1351 0.950 . S
C1359 C1357 1.327 . S
C1360 C1348 1.349 . S
C1360 H1354 0.950 . S
C1360 C1361 1.327 . S
C1361 H1355 0.950 . S
C1361 C1360 1.327 . S
C1361 C1365 1.429 . S
C1362 C1345 1.574 . S
C1362 H1356 0.949 . S
C1362 C1366 1.368 . S
C1363 C1344 1.429 . S
C1363 C1357 1.429 . S
C1363 C1364 1.523 . S
C1364 C1345 1.368 . S
C1364 C1358 1.368 . S
C1364 C1363 1.523 . S
C1365 C1349 1.429 . S
C1365 C1361 1.429 . S
C1365 C1366 1.523 . S
C1366 C1350 1.368 . S
C1366 C1362 1.368 . S
C1366 C1365 1.523 . S
H1367 C1342 0.950 . S
H1368 C1344 0.950 . S
H1369 C1345 0.949 . S
H1370 C1347 0.950 . S
H1371 C1349 0.950 . S
C1372 C1373 1.349 . S
C1372 C1374 1.327 . S
C1372 H1397 0.950 . S
C1373 C1372 1.349 . S
C1373 C1389 1.349 . S
C1374 C1372 1.327 . S
C1374 C1393 1.429 . S
C1374 H1398 0.950 . S
C1375 C1392 1.574 . S
C1375 C1394 1.368 . S
C1375 H1399 0.949 . S
H1376 C1380 0.949 . S
C1377 C1378 1.349 . S
C1377 C1379 1.327 . S
C1377 H1400 0.950 . S
C1378 C1377 1.349 . S
C1378 C1390 1.349 . S
C1379 C1377 1.327 . S
C1379 C1395 1.429 . S
C1379 H1401 0.950 . S
C1380 H1376 0.949 . S
C1380 C1388 1.574 . S
C1380 C1396 1.368 . S
H1381 C1389 0.950 . S
H1382 C1387 0.950 . S
H1383 C1388 0.949 . S
H1384 C1390 0.950 . S
H1385 C1391 0.950 . S
H1386 C1392 0.949 . S
C1387 H1382 0.950 . S
C1387 C1389 1.327 . S
C1387 C1393 1.429 . S
C1388 C1380 1.574 . S
C1388 H1383 0.949 . S
C1388 C1394 1.368 . S
C1389 C1373 1.349 . S
C1389 H1381 0.950 . S
C1389 C1387 1.327 . S
C1390 C1378 1.349 . S
C1390 H1384 0.950 . S
C1390 C1391 1.327 . S
C1391 H1385 0.950 . S
C1391 C1390 1.327 . S
C1391 C1395 1.429 . S
C1392 C1375 1.574 . S
C1392 H1386 0.949 . S
C1392 C1396 1.368 . S
C1393 C1374 1.429 . S
C1393 C1387 1.429 . S
C1393 C1394 1.523 . S
C1394 C1375 1.368 . S
C1394 C1388 1.368 . S
C1394 C1393 1.523 . S
C1395 C1379 1.429 . S
C1395 C1391 1.429 . S
C1395 C1396 1.523 . S
C1396 C1380 1.368 . S
C1396 C1392 1.368 . S
C1396 C1395 1.523 . S
H1397 C1372 0.950 . S
H1398 C1374 0.950 . S
H1399 C1375 0.949 . S
H1400 C1377 0.950 . S
H1401 C1379 0.950 . S
C1402 C1403 1.349 . S
C1402 C1404 1.327 . S
C1402 H1427 0.950 . S
C1403 C1402 1.349 . S
C1403 C1419 1.349 . S
C1404 C1402 1.327 . S
C1404 C1423 1.429 . S
C1404 H1428 0.950 . S
C1405 C1422 1.574 . S
C1405 C1424 1.368 . S
C1405 H1429 0.949 . S
H1406 C1410 0.949 . S
C1407 C1408 1.349 . S
C1407 C1409 1.327 . S
C1407 H1430 0.950 . S
C1408 C1407 1.349 . S
C1408 C1420 1.349 . S
C1409 C1407 1.327 . S
C1409 C1425 1.429 . S
C1409 H1431 0.950 . S
C1410 H1406 0.949 . S
C1410 C1418 1.574 . S
C1410 C1426 1.368 . S
H1411 C1419 0.950 . S
H1412 C1417 0.950 . S
H1413 C1418 0.949 . S
H1414 C1420 0.950 . S
H1415 C1421 0.950 . S
H1416 C1422 0.949 . S
C1417 H1412 0.950 . S
C1417 C1419 1.327 . S
C1417 C1423 1.429 . S
C1418 C1410 1.574 . S
C1418 H1413 0.949 . S
C1418 C1424 1.368 . S
C1419 C1403 1.349 . S
C1419 H1411 0.950 . S
C1419 C1417 1.327 . S
C1420 C1408 1.349 . S
C1420 H1414 0.950 . S
C1420 C1421 1.327 . S
C1421 H1415 0.950 . S
C1421 C1420 1.327 . S
C1421 C1425 1.429 . S
C1422 C1405 1.574 . S
C1422 H1416 0.949 . S
C1422 C1426 1.368 . S
C1423 C1404 1.429 . S
C1423 C1417 1.429 . S
C1423 C1424 1.523 . S
C1424 C1405 1.368 . S
C1424 C1418 1.368 . S
C1424 C1423 1.523 . S
C1425 C1409 1.429 . S
C1425 C1421 1.429 . S
C1425 C1426 1.523 . S
C1426 C1410 1.368 . S
C1426 C1422 1.368 . S
C1426 C1425 1.523 . S
H1427 C1402 0.950 . S
H1428 C1404 0.950 . S
H1429 C1405 0.949 . S
H1430 C1407 0.950 . S
H1431 C1409 0.950 . S
C1432 C1433 1.342 1_556 S
C1432 C1434 1.324 1_556 S
C1432 H1457 0.960 . S
C1433 C1432 1.342 1_554 S
C1433 C1449 1.349 . S
C1434 C1432 1.324 1_554 S
C1434 C1453 1.429 . S
C1434 H1458 0.950 1_554 S
C1435 C1452 1.574 . S
C1435 C1454 1.368 . S
C1435 H1459 0.949 . S
H1436 C1440 0.949 . S
C1437 C1438 1.350 . S
C1437 C1439 1.341 . S
C1437 H1460 0.935 1_565 S
C1438 C1437 1.350 . S
C1438 C1450 1.349 . S
C1439 C1437 1.341 . S
C1439 C1455 1.429 . S
C1439 H1461 0.950 . S
C1440 H1436 0.949 . S
C1440 C1448 1.574 . S
C1440 C1456 1.368 . S
H1441 C1449 0.950 . S
H1442 C1447 0.950 . S
H1443 C1448 0.949 1_556 S
H1444 C1450 0.950 . S
H1445 C1451 0.950 . S
H1446 C1452 0.949 . S
C1447 H1442 0.950 . S
C1447 C1449 1.327 . S
C1447 C1453 1.429 . S
C1448 C1440 1.574 . S
C1448 H1443 0.949 1_554 S
C1448 C1454 1.368 . S
C1449 C1433 1.349 . S
C1449 H1441 0.950 . S
C1449 C1447 1.327 . S
C1450 C1438 1.349 . S
C1450 H1444 0.950 . S
C1450 C1451 1.327 . S
C1451 H1445 0.950 . S
C1451 C1450 1.327 . S
C1451 C1455 1.429 . S
C1452 C1435 1.574 . S
C1452 H1446 0.949 . S
C1452 C1456 1.368 . S
C1453 C1434 1.429 . S
C1453 C1447 1.429 . S
C1453 C1454 1.523 . S
C1454 C1435 1.368 . S
C1454 C1448 1.368 . S
C1454 C1453 1.523 . S
C1455 C1439 1.429 . S
C1455 C1451 1.429 . S
C1455 C1456 1.523 . S
C1456 C1440 1.368 . S
C1456 C1452 1.368 . S
C1456 C1455 1.523 . S
H1457 C1432 0.960 . S
H1458 C1434 0.950 1_556 S
H1459 C1435 0.949 . S
H1460 C1437 0.935 1_545 S
H1461 C1439 0.950 . S
C1462 C1463 1.349 1_556 S
C1462 C1464 1.327 . S
C1462 H1487 0.950 . S
C1463 C1462 1.349 1_554 S
C1463 C1479 1.349 . S
C1464 C1462 1.327 . S
C1464 C1483 1.429 1_556 S
C1464 H1488 0.950 . S
C1465 C1482 1.574 . S
C1465 C1484 1.368 . S
C1465 H1489 0.949 . S
H1466 C1470 0.949 . S
C1467 C1468 1.349 . S
C1467 C1469 1.327 . S
C1467 H1490 0.950 . S
C1468 C1467 1.349 . S
C1468 C1480 1.349 1_554 S
C1469 C1467 1.327 . S
C1469 C1485 1.429 . S
C1469 H1491 0.950 . S
C1470 H1466 0.949 . S
C1470 C1478 1.574 . S
C1470 C1486 1.368 1_556 S
H1471 C1479 0.950 . S
H1472 C1477 0.950 . S
H1473 C1478 0.949 . S
H1474 C1480 0.950 . S
H1475 C1481 0.950 . S
H1476 C1482 0.949 . S
C1477 H1472 0.950 . S
C1477 C1479 1.327 . S
C1477 C1483 1.429 . S
C1478 C1470 1.574 . S
C1478 H1473 0.949 . S
C1478 C1484 1.368 1_556 S
C1479 C1463 1.349 . S
C1479 H1471 0.950 . S
C1479 C1477 1.327 . S
C1480 C1468 1.349 1_556 S
C1480 H1474 0.950 . S
C1480 C1481 1.327 . S
C1481 H1475 0.950 . S
C1481 C1480 1.327 . S
C1481 C1485 1.429 1_556 S
C1482 C1465 1.574 . S
C1482 H1476 0.949 . S
C1482 C1486 1.368 . S
C1483 C1464 1.429 1_554 S
C1483 C1477 1.429 . S
C1483 C1484 1.523 . S
C1484 C1465 1.368 . S
C1484 C1478 1.368 1_554 S
C1484 C1483 1.523 . S
C1485 C1469 1.429 . S
C1485 C1481 1.429 1_554 S
C1485 C1486 1.523 . S
C1486 C1470 1.368 1_554 S
C1486 C1482 1.368 . S
C1486 C1485 1.523 . S
H1487 C1462 0.950 . S
H1488 C1464 0.950 . S
H1489 C1465 0.949 . S
H1490 C1467 0.950 . S
H1491 C1469 0.950 . S
C1492 C1493 1.349 . S
C1492 C1494 1.327 . S
C1492 H1517 0.950 . S
C1493 C1492 1.349 . S
C1493 C1509 1.349 . S
C1494 C1492 1.327 . S
C1494 C1513 1.429 . S
C1494 H1518 0.950 . S
C1495 C1512 1.574 . S
C1495 C1514 1.368 . S
C1495 H1519 0.949 . S
H1496 C1500 0.949 . S
C1497 C1498 1.349 . S
C1497 C1499 1.327 . S
C1497 H1520 0.950 . S
C1498 C1497 1.349 . S
C1498 C1510 1.349 . S
C1499 C1497 1.327 . S
C1499 C1515 1.429 . S
C1499 H1521 0.950 . S
C1500 H1496 0.949 . S
C1500 C1508 1.574 . S
C1500 C1516 1.368 . S
H1501 C1509 0.950 . S
H1502 C1507 0.950 . S
H1503 C1508 0.949 . S
H1504 C1510 0.950 . S
H1505 C1511 0.950 . S
H1506 C1512 0.949 . S
C1507 H1502 0.950 . S
C1507 C1509 1.327 . S
C1507 C1513 1.429 . S
C1508 C1500 1.574 . S
C1508 H1503 0.949 . S
C1508 C1514 1.368 . S
C1509 C1493 1.349 . S
C1509 H1501 0.950 . S
C1509 C1507 1.327 . S
C1510 C1498 1.349 . S
C1510 H1504 0.950 . S
C1510 C1511 1.327 . S
C1511 H1505 0.950 . S
C1511 C1510 1.327 . S
C1511 C1515 1.429 . S
C1512 C1495 1.574 . S
C1512 H1506 0.949 . S
C1512 C1516 1.368 . S
C1513 C1494 1.429 . S
C1513 C1507 1.429 . S
C1513 C1514 1.523 . S
C1514 C1495 1.368 . S
C1514 C1508 1.368 . S
C1514 C1513 1.523 . S
C1515 C1499 1.429 . S
C1515 C1511 1.429 . S
C1515 C1516 1.523 . S
C1516 C1500 1.368 . S
C1516 C1512 1.368 . S
C1516 C1515 1.523 . S
H1517 C1492 0.950 . S
H1518 C1494 0.950 . S
H1519 C1495 0.949 . S
H1520 C1497 0.950 . S
H1521 C1499 0.950 . S
C1522 C1523 1.349 . S
C1522 C1524 1.327 . S
C1522 H1547 0.950 . S
C1523 C1522 1.349 . S
C1523 C1539 1.349 . S
C1524 C1522 1.327 . S
C1524 C1543 1.429 . S
C1524 H1548 0.950 . S
C1525 C1542 1.574 . S
C1525 C1544 1.368 . S
C1525 H1549 0.949 . S
H1526 C1530 0.949 . S
C1527 C1528 1.349 . S
C1527 C1529 1.327 . S
C1527 H1550 0.932 1_655 S
C1528 C1527 1.349 . S
C1528 C1540 1.349 . S
C1529 C1527 1.327 . S
C1529 C1545 1.429 . S
C1529 H1551 0.950 . S
C1530 H1526 0.949 . S
C1530 C1538 1.574 . S
C1530 C1546 1.368 . S
H1531 C1539 0.950 . S
H1532 C1537 0.950 . S
H1533 C1538 0.949 . S
H1534 C1540 0.950 . S
H1535 C1541 0.950 . S
H1536 C1542 0.949 . S
C1537 H1532 0.950 . S
C1537 C1539 1.327 . S
C1537 C1543 1.429 . S
C1538 C1530 1.574 . S
C1538 H1533 0.949 . S
C1538 C1544 1.368 . S
C1539 C1523 1.349 . S
C1539 H1531 0.950 . S
C1539 C1537 1.327 . S
C1540 C1528 1.349 . S
C1540 H1534 0.950 . S
C1540 C1541 1.327 . S
C1541 H1535 0.950 . S
C1541 C1540 1.327 . S
C1541 C1545 1.429 . S
C1542 C1525 1.574 . S
C1542 H1536 0.949 . S
C1542 C1546 1.368 . S
C1543 C1524 1.429 . S
C1543 C1537 1.429 . S
C1543 C1544 1.523 . S
C1544 C1525 1.368 . S
C1544 C1538 1.368 . S
C1544 C1543 1.523 . S
C1545 C1529 1.429 . S
C1545 C1541 1.429 . S
C1545 C1546 1.523 . S
C1546 C1530 1.368 . S
C1546 C1542 1.368 . S
C1546 C1545 1.523 . S
H1547 C1522 0.950 . S
H1548 C1524 0.950 . S
H1549 C1525 0.949 . S
H1550 C1527 0.932 1_455 S
H1551 C1529 0.950 . S
C1552 C1553 1.349 . S
C1552 C1554 1.327 . S
C1552 H1577 0.950 . S
C1553 C1552 1.349 . S
C1553 C1569 1.349 . S
C1554 C1552 1.327 . S
C1554 C1573 1.429 . S
C1554 H1578 0.950 . S
C1555 C1572 1.574 . S
C1555 C1574 1.368 . S
C1555 H1579 0.949 . S
H1556 C1560 0.949 . S
C1557 C1558 1.349 . S
C1557 C1559 1.327 . S
C1557 H1580 0.950 . S
C1558 C1557 1.349 . S
C1558 C1570 1.349 . S
C1559 C1557 1.327 . S
C1559 C1575 1.429 . S
C1559 H1581 0.950 . S
C1560 H1556 0.949 . S
C1560 C1568 1.574 . S
C1560 C1576 1.368 . S
H1561 C1569 0.950 . S
H1562 C1567 0.950 . S
H1563 C1568 0.949 . S
H1564 C1570 0.950 . S
H1565 C1571 0.950 . S
H1566 C1572 0.949 . S
C1567 H1562 0.950 . S
C1567 C1569 1.327 . S
C1567 C1573 1.429 . S
C1568 C1560 1.574 . S
C1568 H1563 0.949 . S
C1568 C1574 1.368 . S
C1569 C1553 1.349 . S
C1569 H1561 0.950 . S
C1569 C1567 1.327 . S
C1570 C1558 1.349 . S
C1570 H1564 0.950 . S
C1570 C1571 1.327 . S
C1571 H1565 0.950 . S
C1571 C1570 1.327 . S
C1571 C1575 1.429 . S
C1572 C1555 1.574 . S
C1572 H1566 0.949 . S
C1572 C1576 1.368 . S
C1573 C1554 1.429 . S
C1573 C1567 1.429 . S
C1573 C1574 1.523 . S
C1574 C1555 1.368 . S
C1574 C1568 1.368 . S
C1574 C1573 1.523 . S
C1575 C1559 1.429 . S
C1575 C1571 1.429 . S
C1575 C1576 1.523 . S
C1576 C1560 1.368 . S
C1576 C1572 1.368 . S
C1576 C1575 1.523 . S
H1577 C1552 0.950 . S
H1578 C1554 0.950 . S
H1579 C1555 0.949 . S
H1580 C1557 0.950 . S
H1581 C1559 0.950 . S
C1582 C1583 1.349 . S
C1582 C1584 1.327 . S
C1582 H1607 0.950 . S
C1583 C1582 1.349 . S
C1583 C1599 1.349 . S
C1584 C1582 1.327 . S
C1584 C1603 1.429 . S
C1584 H1608 0.950 . S
C1585 C1602 1.574 . S
C1585 C1604 1.368 . S
C1585 H1609 0.949 . S
H1586 C1590 0.949 . S
C1587 C1588 1.349 . S
C1587 C1589 1.327 . S
C1587 H1610 0.950 . S
C1588 C1587 1.349 . S
C1588 C1600 1.349 . S
C1589 C1587 1.327 . S
C1589 C1605 1.429 . S
C1589 H1611 0.950 . S
C1590 H1586 0.949 . S
C1590 C1598 1.574 . S
C1590 C1606 1.368 . S
H1591 C1599 0.950 . S
H1592 C1597 0.950 . S
H1593 C1598 0.949 . S
H1594 C1600 0.950 . S
H1595 C1601 0.950 . S
H1596 C1602 0.949 . S
C1597 H1592 0.950 . S
C1597 C1599 1.327 . S
C1597 C1603 1.429 . S
C1598 C1590 1.574 . S
C1598 H1593 0.949 . S
C1598 C1604 1.368 . S
C1599 C1583 1.349 . S
C1599 H1591 0.950 . S
C1599 C1597 1.327 . S
C1600 C1588 1.349 . S
C1600 H1594 0.950 . S
C1600 C1601 1.327 . S
C1601 H1595 0.950 . S
C1601 C1600 1.327 . S
C1601 C1605 1.429 . S
C1602 C1585 1.574 . S
C1602 H1596 0.949 . S
C1602 C1606 1.368 . S
C1603 C1584 1.429 . S
C1603 C1597 1.429 . S
C1603 C1604 1.523 . S
C1604 C1585 1.368 . S
C1604 C1598 1.368 . S
C1604 C1603 1.523 . S
C1605 C1589 1.429 . S
C1605 C1601 1.429 . S
C1605 C1606 1.523 . S
C1606 C1590 1.368 . S
C1606 C1602 1.368 . S
C1606 C1605 1.523 . S
H1607 C1582 0.950 . S
H1608 C1584 0.950 . S
H1609 C1585 0.949 . S
H1610 C1587 0.950 . S
H1611 C1589 0.950 . S
C1612 C1613 1.349 . S
C1612 C1614 1.327 . S
C1612 H1637 0.950 . S
C1613 C1612 1.349 . S
C1613 C1629 1.349 . S
C1614 C1612 1.327 . S
C1614 C1633 1.429 . S
C1614 H1638 0.950 . S
C1615 C1632 1.574 . S
C1615 C1634 1.368 . S
C1615 H1639 0.949 . S
H1616 C1620 0.949 . S
C1617 C1618 1.349 . S
C1617 C1619 1.327 . S
C1617 H1640 0.950 . S
C1618 C1617 1.349 . S
C1618 C1630 1.349 . S
C1619 C1617 1.327 . S
C1619 C1635 1.429 . S
C1619 H1641 0.950 . S
C1620 H1616 0.949 . S
C1620 C1628 1.574 . S
C1620 C1636 1.368 . S
H1621 C1629 0.950 . S
H1622 C1627 0.950 . S
H1623 C1628 0.949 . S
H1624 C1630 0.950 . S
H1625 C1631 0.950 . S
H1626 C1632 0.949 . S
C1627 H1622 0.950 . S
C1627 C1629 1.327 . S
C1627 C1633 1.429 . S
C1628 C1620 1.574 . S
C1628 H1623 0.949 . S
C1628 C1634 1.368 . S
C1629 C1613 1.349 . S
C1629 H1621 0.950 . S
C1629 C1627 1.327 . S
C1630 C1618 1.349 . S
C1630 H1624 0.950 . S
C1630 C1631 1.327 . S
C1631 H1625 0.950 . S
C1631 C1630 1.327 . S
C1631 C1635 1.429 . S
C1632 C1615 1.574 . S
C1632 H1626 0.949 . S
C1632 C1636 1.368 . S
C1633 C1614 1.429 . S
C1633 C1627 1.429 . S
C1633 C1634 1.523 . S
C1634 C1615 1.368 . S
C1634 C1628 1.368 . S
C1634 C1633 1.523 . S
C1635 C1619 1.429 . S
C1635 C1631 1.429 . S
C1635 C1636 1.523 . S
C1636 C1620 1.368 . S
C1636 C1632 1.368 . S
C1636 C1635 1.523 . S
H1637 C1612 0.950 . S
H1638 C1614 0.950 . S
H1639 C1615 0.949 . S
H1640 C1617 0.950 . S
H1641 C1619 0.950 . S
C1642 C1643 1.349 . S
C1642 C1644 1.327 . S
C1642 H1667 0.950 . S
C1643 C1642 1.349 . S
C1643 C1659 1.349 . S
C1644 C1642 1.327 . S
C1644 C1663 1.429 . S
C1644 H1668 0.950 . S
C1645 C1662 1.574 . S
C1645 C1664 1.368 . S
C1645 H1669 0.949 . S
H1646 C1650 0.949 . S
C1647 C1648 1.349 . S
C1647 C1649 1.327 . S
C1647 H1670 0.950 . S
C1648 C1647 1.349 . S
C1648 C1660 1.349 . S
C1649 C1647 1.327 . S
C1649 C1665 1.429 . S
C1649 H1671 0.950 . S
C1650 H1646 0.949 . S
C1650 C1658 1.574 . S
C1650 C1666 1.368 . S
H1651 C1659 0.950 . S
H1652 C1657 0.950 . S
H1653 C1658 0.949 . S
H1654 C1660 0.950 . S
H1655 C1661 0.950 . S
H1656 C1662 0.949 . S
C1657 H1652 0.950 . S
C1657 C1659 1.327 . S
C1657 C1663 1.429 . S
C1658 C1650 1.574 . S
C1658 H1653 0.949 . S
C1658 C1664 1.368 . S
C1659 C1643 1.349 . S
C1659 H1651 0.950 . S
C1659 C1657 1.327 . S
C1660 C1648 1.349 . S
C1660 H1654 0.950 . S
C1660 C1661 1.327 . S
C1661 H1655 0.950 . S
C1661 C1660 1.327 . S
C1661 C1665 1.429 . S
C1662 C1645 1.574 . S
C1662 H1656 0.949 . S
C1662 C1666 1.368 . S
C1663 C1644 1.429 . S
C1663 C1657 1.429 . S
C1663 C1664 1.523 . S
C1664 C1645 1.368 . S
C1664 C1658 1.368 . S
C1664 C1663 1.523 . S
C1665 C1649 1.429 . S
C1665 C1661 1.429 . S
C1665 C1666 1.523 . S
C1666 C1650 1.368 . S
C1666 C1662 1.368 . S
C1666 C1665 1.523 . S
H1667 C1642 0.950 . S
H1668 C1644 0.950 . S
H1669 C1645 0.949 . S
H1670 C1647 0.950 . S
H1671 C1649 0.950 . S
C1672 C1673 1.349 . S
C1672 C1674 1.327 . S
C1672 H1697 0.950 . S
C1673 C1672 1.349 . S
C1673 C1689 1.349 . S
C1674 C1672 1.327 . S
C1674 C1693 1.429 . S
C1674 H1698 0.950 . S
C1675 C1692 1.574 . S
C1675 C1694 1.368 . S
C1675 H1699 0.949 . S
H1676 C1680 0.949 . S
C1677 C1678 1.349 . S
C1677 C1679 1.327 . S
C1677 H1700 0.950 . S
C1678 C1677 1.349 . S
C1678 C1690 1.349 . S
C1679 C1677 1.327 . S
C1679 C1695 1.429 . S
C1679 H1701 0.950 . S
C1680 H1676 0.949 . S
C1680 C1688 1.574 . S
C1680 C1696 1.368 . S
H1681 C1689 0.950 . S
H1682 C1687 0.950 . S
H1683 C1688 0.949 . S
H1684 C1690 0.950 . S
H1685 C1691 0.950 . S
H1686 C1692 0.949 . S
C1687 H1682 0.950 . S
C1687 C1689 1.327 . S
C1687 C1693 1.429 . S
C1688 C1680 1.574 . S
C1688 H1683 0.949 . S
C1688 C1694 1.368 . S
C1689 C1673 1.349 . S
C1689 H1681 0.950 . S
C1689 C1687 1.327 . S
C1690 C1678 1.349 . S
C1690 H1684 0.950 . S
C1690 C1691 1.327 . S
C1691 H1685 0.950 . S
C1691 C1690 1.327 . S
C1691 C1695 1.429 . S
C1692 C1675 1.574 . S
C1692 H1686 0.949 . S
C1692 C1696 1.368 . S
C1693 C1674 1.429 . S
C1693 C1687 1.429 . S
C1693 C1694 1.523 . S
C1694 C1675 1.368 . S
C1694 C1688 1.368 . S
C1694 C1693 1.523 . S
C1695 C1679 1.429 . S
C1695 C1691 1.429 . S
C1695 C1696 1.523 . S
C1696 C1680 1.368 . S
C1696 C1692 1.368 . S
C1696 C1695 1.523 . S
H1697 C1672 0.950 . S
H1698 C1674 0.950 . S
H1699 C1675 0.949 . S
H1700 C1677 0.950 . S
H1701 C1679 0.950 . S
C1702 C1703 1.349 . S
C1702 C1704 1.327 . S
C1702 H1727 0.950 . S
C1703 C1702 1.349 . S
C1703 C1719 1.349 . S
C1704 C1702 1.327 . S
C1704 C1723 1.429 . S
C1704 H1728 0.950 . S
C1705 C1722 1.574 . S
C1705 C1724 1.368 . S
C1705 H1729 0.949 . S
H1706 C1710 0.949 . S
C1707 C1708 1.349 . S
C1707 C1709 1.327 . S
C1707 H1730 0.950 . S
C1708 C1707 1.349 . S
C1708 C1720 1.349 . S
C1709 C1707 1.327 . S
C1709 C1725 1.429 . S
C1709 H1731 0.950 . S
C1710 H1706 0.949 . S
C1710 C1718 1.574 . S
C1710 C1726 1.368 . S
H1711 C1719 0.950 . S
H1712 C1717 0.950 . S
H1713 C1718 0.949 . S
H1714 C1720 0.950 . S
H1715 C1721 0.950 . S
H1716 C1722 0.949 . S
C1717 H1712 0.950 . S
C1717 C1719 1.327 . S
C1717 C1723 1.429 . S
C1718 C1710 1.574 . S
C1718 H1713 0.949 . S
C1718 C1724 1.368 . S
C1719 C1703 1.349 . S
C1719 H1711 0.950 . S
C1719 C1717 1.327 . S
C1720 C1708 1.349 . S
C1720 H1714 0.950 . S
C1720 C1721 1.327 . S
C1721 H1715 0.950 . S
C1721 C1720 1.327 . S
C1721 C1725 1.429 . S
C1722 C1705 1.574 . S
C1722 H1716 0.949 . S
C1722 C1726 1.368 . S
C1723 C1704 1.429 . S
C1723 C1717 1.429 . S
C1723 C1724 1.523 . S
C1724 C1705 1.368 . S
C1724 C1718 1.368 . S
C1724 C1723 1.523 . S
C1725 C1709 1.429 . S
C1725 C1721 1.429 . S
C1725 C1726 1.523 . S
C1726 C1710 1.368 . S
C1726 C1722 1.368 . S
C1726 C1725 1.523 . S
H1727 C1702 0.950 . S
H1728 C1704 0.950 . S
H1729 C1705 0.949 . S
H1730 C1707 0.950 . S
H1731 C1709 0.950 . S
C1732 C1733 1.349 . S
C1732 C1734 1.327 . S
C1732 H1757 0.950 . S
C1733 C1732 1.349 . S
C1733 C1749 1.349 . S
C1734 C1732 1.327 . S
C1734 C1753 1.429 . S
C1734 H1758 0.950 . S
C1735 C1752 1.574 . S
C1735 C1754 1.368 . S
C1735 H1759 0.949 . S
H1736 C1740 0.949 . S
C1737 C1738 1.349 . S
C1737 C1739 1.327 . S
C1737 H1760 0.950 . S
C1738 C1737 1.349 . S
C1738 C1750 1.349 . S
C1739 C1737 1.327 . S
C1739 C1755 1.429 . S
C1739 H1761 0.950 . S
C1740 H1736 0.949 . S
C1740 C1748 1.574 . S
C1740 C1756 1.368 . S
H1741 C1749 0.950 . S
H1742 C1747 0.950 . S
H1743 C1748 0.949 . S
H1744 C1750 0.950 . S
H1745 C1751 0.950 . S
H1746 C1752 0.949 . S
C1747 H1742 0.950 . S
C1747 C1749 1.327 . S
C1747 C1753 1.429 . S
C1748 C1740 1.574 . S
C1748 H1743 0.949 . S
C1748 C1754 1.368 . S
C1749 C1733 1.349 . S
C1749 H1741 0.950 . S
C1749 C1747 1.327 . S
C1750 C1738 1.349 . S
C1750 H1744 0.950 . S
C1750 C1751 1.327 . S
C1751 H1745 0.950 . S
C1751 C1750 1.327 . S
C1751 C1755 1.429 . S
C1752 C1735 1.574 . S
C1752 H1746 0.949 . S
C1752 C1756 1.368 . S
C1753 C1734 1.429 . S
C1753 C1747 1.429 . S
C1753 C1754 1.523 . S
C1754 C1735 1.368 . S
C1754 C1748 1.368 . S
C1754 C1753 1.523 . S
C1755 C1739 1.429 . S
C1755 C1751 1.429 . S
C1755 C1756 1.523 . S
C1756 C1740 1.368 . S
C1756 C1752 1.368 . S
C1756 C1755 1.523 . S
H1757 C1732 0.950 . S
H1758 C1734 0.950 . S
H1759 C1735 0.949 . S
H1760 C1737 0.950 . S
H1761 C1739 0.950 . S
C1762 C1763 1.349 . S
C1762 C1764 1.327 . S
C1762 H1787 0.950 . S
C1763 C1762 1.349 . S
C1763 C1779 1.349 . S
C1764 C1762 1.327 . S
C1764 C1783 1.429 . S
C1764 H1788 0.950 . S
C1765 C1782 1.574 . S
C1765 C1784 1.368 . S
C1765 H1789 0.949 . S
H1766 C1770 0.949 . S
C1767 C1768 1.349 . S
C1767 C1769 1.327 . S
C1767 H1790 0.950 . S
C1768 C1767 1.349 . S
C1768 C1780 1.349 . S
C1769 C1767 1.327 . S
C1769 C1785 1.429 . S
C1769 H1791 0.950 . S
C1770 H1766 0.949 . S
C1770 C1778 1.574 . S
C1770 C1786 1.368 . S
H1771 C1779 0.950 . S
H1772 C1777 0.950 . S
H1773 C1778 0.949 . S
H1774 C1780 0.950 . S
H1775 C1781 0.950 . S
H1776 C1782 0.949 . S
C1777 H1772 0.950 . S
C1777 C1779 1.327 . S
C1777 C1783 1.429 . S
C1778 C1770 1.574 . S
C1778 H1773 0.949 . S
C1778 C1784 1.368 . S
C1779 C1763 1.349 . S
C1779 H1771 0.950 . S
C1779 C1777 1.327 . S
C1780 C1768 1.349 . S
C1780 H1774 0.950 . S
C1780 C1781 1.327 . S
C1781 H1775 0.950 . S
C1781 C1780 1.327 . S
C1781 C1785 1.429 . S
C1782 C1765 1.574 . S
C1782 H1776 0.949 . S
C1782 C1786 1.368 . S
C1783 C1764 1.429 . S
C1783 C1777 1.429 . S
C1783 C1784 1.523 . S
C1784 C1765 1.368 . S
C1784 C1778 1.368 . S
C1784 C1783 1.523 . S
C1785 C1769 1.429 . S
C1785 C1781 1.429 . S
C1785 C1786 1.523 . S
C1786 C1770 1.368 . S
C1786 C1782 1.368 . S
C1786 C1785 1.523 . S
H1787 C1762 0.950 . S
H1788 C1764 0.950 . S
H1789 C1765 0.949 . S
H1790 C1767 0.950 . S
H1791 C1769 0.950 . S
C1792 C1793 1.349 . S
C1792 C1794 1.327 . S
C1792 H1817 0.950 . S
C1793 C1792 1.349 . S
C1793 C1809 1.349 . S
C1794 C1792 1.327 . S
C1794 C1813 1.429 . S
C1794 H1818 0.950 . S
C1795 C1812 1.574 . S
C1795 C1814 1.368 . S
C1795 H1819 0.949 . S
H1796 C1800 0.949 . S
C1797 C1798 1.349 . S
C1797 C1799 1.327 . S
C1797 H1820 0.950 . S
C1798 C1797 1.349 . S
C1798 C1810 1.349 . S
C1799 C1797 1.327 . S
C1799 C1815 1.429 . S
C1799 H1821 0.950 . S
C1800 H1796 0.949 . S
C1800 C1808 1.574 . S
C1800 C1816 1.368 . S
H1801 C1809 0.950 . S
H1802 C1807 0.950 . S
H1803 C1808 0.949 . S
H1804 C1810 0.950 . S
H1805 C1811 0.950 . S
H1806 C1812 0.949 . S
C1807 H1802 0.950 . S
C1807 C1809 1.327 . S
C1807 C1813 1.429 . S
C1808 C1800 1.574 . S
C1808 H1803 0.949 . S
C1808 C1814 1.368 . S
C1809 C1793 1.349 . S
C1809 H1801 0.950 . S
C1809 C1807 1.327 . S
C1810 C1798 1.349 . S
C1810 H1804 0.950 . S
C1810 C1811 1.327 . S
C1811 H1805 0.950 . S
C1811 C1810 1.327 . S
C1811 C1815 1.429 . S
C1812 C1795 1.574 . S
C1812 H1806 0.949 . S
C1812 C1816 1.368 . S
C1813 C1794 1.429 . S
C1813 C1807 1.429 . S
C1813 C1814 1.523 . S
C1814 C1795 1.368 . S
C1814 C1808 1.368 . S
C1814 C1813 1.523 . S
C1815 C1799 1.429 . S
C1815 C1811 1.429 . S
C1815 C1816 1.523 . S
C1816 C1800 1.368 . S
C1816 C1812 1.368 . S
C1816 C1815 1.523 . S
H1817 C1792 0.950 . S
H1818 C1794 0.950 . S
H1819 C1795 0.949 . S
H1820 C1797 0.950 . S
H1821 C1799 0.950 . S
C1822 C1823 1.349 . S
C1822 C1824 1.327 . S
C1822 H1847 0.950 . S
C1823 C1822 1.349 . S
C1823 C1839 1.349 . S
C1824 C1822 1.327 . S
C1824 C1843 1.429 . S
C1824 H1848 0.950 . S
C1825 C1842 1.574 . S
C1825 C1844 1.368 . S
C1825 H1849 0.949 . S
H1826 C1830 0.949 . S
C1827 C1828 1.349 . S
C1827 C1829 1.327 . S
C1827 H1850 0.950 . S
C1828 C1827 1.349 . S
C1828 C1840 1.349 . S
C1829 C1827 1.327 . S
C1829 C1845 1.429 . S
C1829 H1851 0.950 . S
C1830 H1826 0.949 . S
C1830 C1838 1.574 . S
C1830 C1846 1.368 . S
H1831 C1839 0.950 . S
H1832 C1837 0.950 . S
H1833 C1838 0.949 . S
H1834 C1840 0.950 . S
H1835 C1841 0.950 . S
H1836 C1842 0.949 . S
C1837 H1832 0.950 . S
C1837 C1839 1.327 . S
C1837 C1843 1.429 . S
C1838 C1830 1.574 . S
C1838 H1833 0.949 . S
C1838 C1844 1.368 . S
C1839 C1823 1.349 . S
C1839 H1831 0.950 . S
C1839 C1837 1.327 . S
C1840 C1828 1.349 . S
C1840 H1834 0.950 . S
C1840 C1841 1.327 . S
C1841 H1835 0.950 . S
C1841 C1840 1.327 . S
C1841 C1845 1.429 . S
C1842 C1825 1.574 . S
C1842 H1836 0.949 . S
C1842 C1846 1.368 . S
C1843 C1824 1.429 . S
C1843 C1837 1.429 . S
C1843 C1844 1.523 . S
C1844 C1825 1.368 . S
C1844 C1838 1.368 . S
C1844 C1843 1.523 . S
C1845 C1829 1.429 . S
C1845 C1841 1.429 . S
C1845 C1846 1.523 . S
C1846 C1830 1.368 . S
C1846 C1842 1.368 . S
C1846 C1845 1.523 . S
H1847 C1822 0.950 . S
H1848 C1824 0.950 . S
H1849 C1825 0.949 . S
H1850 C1827 0.950 . S
H1851 C1829 0.950 . S
C1852 C1853 1.349 . S
C1852 C1854 1.327 . S
C1852 H1877 0.950 . S
C1853 C1852 1.349 . S
C1853 C1869 1.349 . S
C1854 C1852 1.327 . S
C1854 C1873 1.429 . S
C1854 H1878 0.950 . S
C1855 C1872 1.574 . S
C1855 C1874 1.368 . S
C1855 H1879 0.949 . S
H1856 C1860 0.949 . S
C1857 C1858 1.349 . S
C1857 C1859 1.327 . S
C1857 H1880 0.950 . S
C1858 C1857 1.349 . S
C1858 C1870 1.349 1_556 S
C1859 C1857 1.327 . S
C1859 C1875 1.429 . S
C1859 H1881 0.950 . S
C1860 H1856 0.949 . S
C1860 C1868 1.574 . S
C1860 C1876 1.368 . S
H1861 C1869 0.950 . S
H1862 C1867 0.950 . S
H1863 C1868 0.949 . S
H1864 C1870 0.950 . S
H1865 C1871 0.950 . S
H1866 C1872 0.949 . S
C1867 H1862 0.950 . S
C1867 C1869 1.327 . S
C1867 C1873 1.429 . S
C1868 C1860 1.574 . S
C1868 H1863 0.949 . S
C1868 C1874 1.368 . S
C1869 C1853 1.349 . S
C1869 H1861 0.950 . S
C1869 C1867 1.327 . S
C1870 C1858 1.349 1_554 S
C1870 H1864 0.950 . S
C1870 C1871 1.327 1_554 S
C1871 H1865 0.950 . S
C1871 C1870 1.327 1_556 S
C1871 C1875 1.429 . S
C1872 C1855 1.574 . S
C1872 H1866 0.949 . S
C1872 C1876 1.368 . S
C1873 C1854 1.429 . S
C1873 C1867 1.429 . S
C1873 C1874 1.523 . S
C1874 C1855 1.368 . S
C1874 C1868 1.368 . S
C1874 C1873 1.523 . S
C1875 C1859 1.429 . S
C1875 C1871 1.429 . S
C1875 C1876 1.523 . S
C1876 C1860 1.368 . S
C1876 C1872 1.368 . S
C1876 C1875 1.523 . S
H1877 C1852 0.950 . S
H1878 C1854 0.950 . S
H1879 C1855 0.949 . S
H1880 C1857 0.950 . S
H1881 C1859 0.950 . S
C1882 C1883 1.349 . S
C1882 C1884 1.327 . S
C1882 H1907 0.950 . S
C1883 C1882 1.349 . S
C1883 C1899 1.349 . S
C1884 C1882 1.327 . S
C1884 C1903 1.429 . S
C1884 H1908 0.950 . S
C1885 C1902 1.574 . S
C1885 C1904 1.368 . S
C1885 H1909 0.949 . S
H1886 C1890 0.949 . S
C1887 C1888 1.349 . S
C1887 C1889 1.327 . S
C1887 H1910 0.950 . S
C1888 C1887 1.349 . S
C1888 C1900 1.349 . S
C1889 C1887 1.327 . S
C1889 C1905 1.429 . S
C1889 H1911 0.950 . S
C1890 H1886 0.949 . S
C1890 C1898 1.574 . S
C1890 C1906 1.368 . S
H1891 C1899 0.950 . S
H1892 C1897 0.950 . S
H1893 C1898 0.949 . S
H1894 C1900 0.950 . S
H1895 C1901 0.950 . S
H1896 C1902 0.949 . S
C1897 H1892 0.950 . S
C1897 C1899 1.327 . S
C1897 C1903 1.429 . S
C1898 C1890 1.574 . S
C1898 H1893 0.949 . S
C1898 C1904 1.368 . S
C1899 C1883 1.349 . S
C1899 H1891 0.950 . S
C1899 C1897 1.327 . S
C1900 C1888 1.349 . S
C1900 H1894 0.950 . S
C1900 C1901 1.327 . S
C1901 H1895 0.950 . S
C1901 C1900 1.327 . S
C1901 C1905 1.429 . S
C1902 C1885 1.574 . S
C1902 H1896 0.949 . S
C1902 C1906 1.368 . S
C1903 C1884 1.429 . S
C1903 C1897 1.429 . S
C1903 C1904 1.523 . S
C1904 C1885 1.368 . S
C1904 C1898 1.368 . S
C1904 C1903 1.523 . S
C1905 C1889 1.429 . S
C1905 C1901 1.429 . S
C1905 C1906 1.523 . S
C1906 C1890 1.368 . S
C1906 C1902 1.368 . S
C1906 C1905 1.523 . S
H1907 C1882 0.950 . S
H1908 C1884 0.950 . S
H1909 C1885 0.949 . S
H1910 C1887 0.950 . S
H1911 C1889 0.950 . S
C1912 C1913 1.349 . S
C1912 C1914 1.327 . S
C1912 H1937 0.950 . S
C1913 C1912 1.349 . S
C1913 C1929 1.349 1_545 S
C1914 C1912 1.327 . S
C1914 C1933 1.429 . S
C1914 H1938 0.950 . S
C1915 C1932 1.574 . S
C1915 C1934 1.368 1_565 S
C1915 H1939 0.949 . S
H1916 C1920 0.949 . S
C1917 C1918 1.396 . S
C1917 C1919 1.324 1_545 S
C1917 H1940 0.907 1_545 S
C1918 C1917 1.396 . S
C1918 C1930 1.349 . S
C1919 C1917 1.324 1_565 S
C1919 C1935 1.391 1_565 S
C1919 H1941 0.993 . S
C1920 H1916 0.949 . S
C1920 C1928 1.574 . S
C1920 C1936 1.368 . S
H1921 C1929 0.950 . S
H1922 C1927 0.950 . S
H1923 C1928 0.949 . S
H1924 C1930 0.950 . S
H1925 C1931 0.950 . S
H1926 C1932 0.949 . S
C1927 H1922 0.950 . S
C1927 C1929 1.327 . S
C1927 C1933 1.429 1_565 S
C1928 C1920 1.574 . S
C1928 H1923 0.949 . S
C1928 C1934 1.368 . S
C1929 C1913 1.349 1_565 S
C1929 H1921 0.950 . S
C1929 C1927 1.327 . S
C1930 C1918 1.349 . S
C1930 H1924 0.950 . S
C1930 C1931 1.327 . S
C1931 H1925 0.950 . S
C1931 C1930 1.327 . S
C1931 C1935 1.429 . S
C1932 C1915 1.574 . S
C1932 H1926 0.949 . S
C1932 C1936 1.368 1_565 S
C1933 C1914 1.429 . S
C1933 C1927 1.429 1_545 S
C1933 C1934 1.523 . S
C1934 C1915 1.368 1_545 S
C1934 C1928 1.368 . S
C1934 C1933 1.523 . S
C1935 C1919 1.391 1_545 S
C1935 C1931 1.429 . S
C1935 C1936 1.523 . S
C1936 C1920 1.368 . S
C1936 C1932 1.368 1_545 S
C1936 C1935 1.523 . S
H1937 C1912 0.950 . S
H1938 C1914 0.950 . S
H1939 C1915 0.949 . S
H1940 C1917 0.907 1_565 S
H1941 C1919 0.993 . S
C1942 C1943 1.349 . S
C1942 C1944 1.327 . S
C1942 H1967 0.950 . S
C1943 C1942 1.349 . S
C1943 C1959 1.349 . S
C1944 C1942 1.327 . S
C1944 C1963 1.429 . S
C1944 H1968 0.950 . S
C1945 C1962 1.574 . S
C1945 C1964 1.368 . S
C1945 H1969 0.949 . S
H1946 C1950 0.949 . S
C1947 C1948 1.349 . S
C1947 C1949 1.327 . S
C1947 H1970 0.950 . S
C1948 C1947 1.349 . S
C1948 C1960 1.349 . S
C1949 C1947 1.327 . S
C1949 C1965 1.429 . S
C1949 H1971 0.950 . S
C1950 H1946 0.949 . S
C1950 C1958 1.574 . S
C1950 C1966 1.368 . S
H1951 C1959 0.950 . S
H1952 C1957 0.950 . S
H1953 C1958 0.949 . S
H1954 C1960 0.950 . S
H1955 C1961 0.950 . S
H1956 C1962 0.949 . S
C1957 H1952 0.950 . S
C1957 C1959 1.327 . S
C1957 C1963 1.429 . S
C1958 C1950 1.574 . S
C1958 H1953 0.949 . S
C1958 C1964 1.368 . S
C1959 C1943 1.349 . S
C1959 H1951 0.950 . S
C1959 C1957 1.327 . S
C1960 C1948 1.349 . S
C1960 H1954 0.950 . S
C1960 C1961 1.327 . S
C1961 H1955 0.950 . S
C1961 C1960 1.327 . S
C1961 C1965 1.429 . S
C1962 C1945 1.574 . S
C1962 H1956 0.949 . S
C1962 C1966 1.368 . S
C1963 C1944 1.429 . S
C1963 C1957 1.429 . S
C1963 C1964 1.523 . S
C1964 C1945 1.368 . S
C1964 C1958 1.368 . S
C1964 C1963 1.523 . S
C1965 C1949 1.429 . S
C1965 C1961 1.429 . S
C1965 C1966 1.523 . S
C1966 C1950 1.368 . S
C1966 C1962 1.368 . S
C1966 C1965 1.523 . S
H1967 C1942 0.950 . S
H1968 C1944 0.950 . S
H1969 C1945 0.949 . S
H1970 C1947 0.950 . S
H1971 C1949 0.950 . S
C1972 C1973 1.389 . S
C1972 C1974 1.319 . S
C1972 H1997 0.919 1_545 S
C1973 C1972 1.389 . S
C1973 C1989 1.349 . S
C1974 C1972 1.319 . S
C1974 C1993 1.429 . S
C1974 H1998 0.950 1_545 S
C1975 C1992 1.574 . S
C1975 C1994 1.368 . S
C1975 H1999 0.949 . S
H1976 C1980 0.949 . S
C1977 C1978 1.349 . S
C1977 C1979 1.327 . S
C1977 H2000 0.950 . S
C1978 C1977 1.349 . S
C1978 C1990 1.349 . S
C1979 C1977 1.327 . S
C1979 C1995 1.429 . S
C1979 H2001 0.950 . S
C1980 H1976 0.949 . S
C1980 C1988 1.574 . S
C1980 C1996 1.368 . S
H1981 C1989 0.950 . S
H1982 C1987 0.950 . S
H1983 C1988 0.949 1_565 S
H1984 C1990 0.950 . S
H1985 C1991 0.950 . S
H1986 C1992 0.949 . S
C1987 H1982 0.950 . S
C1987 C1989 1.327 . S
C1987 C1993 1.429 . S
C1988 C1980 1.574 . S
C1988 H1983 0.949 1_545 S
C1988 C1994 1.368 . S
C1989 C1973 1.349 . S
C1989 H1981 0.950 . S
C1989 C1987 1.327 . S
C1990 C1978 1.349 . S
C1990 H1984 0.950 . S
C1990 C1991 1.327 . S
C1991 H1985 0.950 . S
C1991 C1990 1.327 . S
C1991 C1995 1.429 . S
C1992 C1975 1.574 . S
C1992 H1986 0.949 . S
C1992 C1996 1.368 . S
C1993 C1974 1.429 . S
C1993 C1987 1.429 . S
C1993 C1994 1.523 . S
C1994 C1975 1.368 . S
C1994 C1988 1.368 . S
C1994 C1993 1.523 . S
C1995 C1979 1.429 . S
C1995 C1991 1.429 . S
C1995 C1996 1.523 . S
C1996 C1980 1.368 . S
C1996 C1992 1.368 . S
C1996 C1995 1.523 . S
H1997 C1972 0.919 1_565 S
H1998 C1974 0.950 1_565 S
H1999 C1975 0.949 . S
H2000 C1977 0.950 . S
H2001 C1979 0.950 . S
C2002 C2003 1.349 . S
C2002 C2004 1.327 . S
C2002 H2027 0.950 . S
C2003 C2002 1.349 . S
C2003 C2019 1.349 . S
C2004 C2002 1.327 . S
C2004 C2023 1.429 . S
C2004 H2028 0.950 . S
C2005 C2022 1.574 . S
C2005 C2024 1.368 . S
C2005 H2029 0.949 . S
H2006 C2010 0.949 . S
C2007 C2008 1.349 . S
C2007 C2009 1.327 . S
C2007 H2030 0.950 . S
C2008 C2007 1.349 . S
C2008 C2020 1.349 . S
C2009 C2007 1.327 . S
C2009 C2025 1.429 . S
C2009 H2031 0.950 . S
C2010 H2006 0.949 . S
C2010 C2018 1.574 . S
C2010 C2026 1.368 . S
H2011 C2019 0.950 . S
H2012 C2017 0.950 . S
H2013 C2018 0.949 . S
H2014 C2020 0.950 . S
H2015 C2021 0.950 . S
H2016 C2022 0.949 . S
C2017 H2012 0.950 . S
C2017 C2019 1.327 . S
C2017 C2023 1.429 . S
C2018 C2010 1.574 . S
C2018 H2013 0.949 . S
C2018 C2024 1.368 . S
C2019 C2003 1.349 . S
C2019 H2011 0.950 . S
C2019 C2017 1.327 . S
C2020 C2008 1.349 . S
C2020 H2014 0.950 . S
C2020 C2021 1.327 . S
C2021 H2015 0.950 . S
C2021 C2020 1.327 . S
C2021 C2025 1.429 . S
C2022 C2005 1.574 . S
C2022 H2016 0.949 . S
C2022 C2026 1.368 . S
C2023 C2004 1.429 . S
C2023 C2017 1.429 . S
C2023 C2024 1.523 . S
C2024 C2005 1.368 . S
C2024 C2018 1.368 . S
C2024 C2023 1.523 . S
C2025 C2009 1.429 . S
C2025 C2021 1.429 . S
C2025 C2026 1.523 . S
C2026 C2010 1.368 . S
C2026 C2022 1.368 . S
C2026 C2025 1.523 . S
H2027 C2002 0.950 . S
H2028 C2004 0.950 . S
H2029 C2005 0.949 . S
H2030 C2007 0.950 . S
H2031 C2009 0.950 . S
C2032 C2033 1.349 . S
C2032 C2034 1.327 . S
C2032 H2057 0.950 . S
C2033 C2032 1.349 . S
C2033 C2049 1.349 1_565 S
C2034 C2032 1.327 . S
C2034 C2053 1.429 1_565 S
C2034 H2058 0.950 . S
C2035 C2052 1.574 . S
C2035 C2054 1.368 . S
C2035 H2059 0.949 . S
H2036 C2040 0.949 . S
C2037 C2038 1.349 . S
C2037 C2039 1.327 . S
C2037 H2060 0.950 . S
C2038 C2037 1.349 . S
C2038 C2050 1.349 . S
C2039 C2037 1.327 . S
C2039 C2055 1.429 . S
C2039 H2061 0.950 . S
C2040 H2036 0.949 . S
C2040 C2048 1.574 . S
C2040 C2056 1.368 1_565 S
H2041 C2049 0.950 . S
H2042 C2047 0.950 . S
H2043 C2048 0.949 . S
H2044 C2050 0.950 1_565 S
H2045 C2051 0.950 1_565 S
H2046 C2052 0.949 . S
C2047 H2042 0.950 . S
C2047 C2049 1.327 . S
C2047 C2053 1.429 . S
C2048 C2040 1.574 . S
C2048 H2043 0.949 . S
C2048 C2054 1.368 1_565 S
C2049 C2033 1.349 1_545 S
C2049 H2041 0.950 . S
C2049 C2047 1.327 . S
C2050 C2038 1.349 . S
C2050 H2044 0.950 1_545 S
C2050 C2051 1.327 . S
C2051 H2045 0.950 1_545 S
C2051 C2050 1.327 . S
C2051 C2055 1.429 . S
C2052 C2035 1.574 . S
C2052 H2046 0.949 . S
C2052 C2056 1.368 . S
C2053 C2034 1.429 1_545 S
C2053 C2047 1.429 . S
C2053 C2054 1.523 . S
C2054 C2035 1.368 . S
C2054 C2048 1.368 1_545 S
C2054 C2053 1.523 . S
C2055 C2039 1.429 . S
C2055 C2051 1.429 . S
C2055 C2056 1.523 . S
C2056 C2040 1.368 1_545 S
C2056 C2052 1.368 . S
C2056 C2055 1.523 . S
H2057 C2032 0.950 . S
H2058 C2034 0.950 . S
H2059 C2035 0.949 . S
H2060 C2037 0.950 . S
H2061 C2039 0.950 . S
C2062 C2063 1.349 . S
C2062 C2064 1.327 . S
C2062 H2087 0.950 . S
C2063 C2062 1.349 . S
C2063 C2079 1.349 . S
C2064 C2062 1.327 . S
C2064 C2083 1.429 . S
C2064 H2088 0.950 . S
C2065 C2082 1.574 . S
C2065 C2084 1.368 . S
C2065 H2089 0.949 . S
H2066 C2070 0.949 . S
C2067 C2068 1.349 . S
C2067 C2069 1.327 . S
C2067 H2090 0.950 . S
C2068 C2067 1.349 . S
C2068 C2080 1.349 . S
C2069 C2067 1.327 . S
C2069 C2085 1.429 . S
C2069 H2091 0.950 . S
C2070 H2066 0.949 . S
C2070 C2078 1.574 . S
C2070 C2086 1.368 . S
H2071 C2079 0.950 . S
H2072 C2077 0.950 . S
H2073 C2078 0.949 . S
H2074 C2080 0.950 . S
H2075 C2081 0.950 . S
H2076 C2082 0.949 . S
C2077 H2072 0.950 . S
C2077 C2079 1.327 . S
C2077 C2083 1.429 . S
C2078 C2070 1.574 . S
C2078 H2073 0.949 . S
C2078 C2084 1.368 . S
C2079 C2063 1.349 . S
C2079 H2071 0.950 . S
C2079 C2077 1.327 . S
C2080 C2068 1.349 . S
C2080 H2074 0.950 . S
C2080 C2081 1.327 . S
C2081 H2075 0.950 . S
C2081 C2080 1.327 . S
C2081 C2085 1.429 . S
C2082 C2065 1.574 . S
C2082 H2076 0.949 . S
C2082 C2086 1.368 . S
C2083 C2064 1.429 . S
C2083 C2077 1.429 . S
C2083 C2084 1.523 . S
C2084 C2065 1.368 . S
C2084 C2078 1.368 . S
C2084 C2083 1.523 . S
C2085 C2069 1.429 . S
C2085 C2081 1.429 . S
C2085 C2086 1.523 . S
C2086 C2070 1.368 . S
C2086 C2082 1.368 . S
C2086 C2085 1.523 . S
H2087 C2062 0.950 . S
H2088 C2064 0.950 . S
H2089 C2065 0.949 . S
H2090 C2067 0.950 . S
H2091 C2069 0.950 . S
C2092 C2093 1.349 1_565 S
C2092 C2094 1.327 . S
C2092 H2117 0.950 . S
C2093 C2092 1.349 1_545 S
C2093 C2109 1.349 . S
C2094 C2092 1.327 . S
C2094 C2113 1.429 . S
C2094 H2118 0.950 . S
C2095 C2112 1.574 . S
C2095 C2114 1.368 1_545 S
C2095 H2119 0.949 . S
H2096 C2100 0.949 . S
C2097 C2098 1.349 1_545 S
C2097 C2099 1.327 . S
C2097 H2120 0.950 . S
C2098 C2097 1.349 1_565 S
C2098 C2110 1.349 . S
C2099 C2097 1.327 . S
C2099 C2115 1.429 1_545 S
C2099 H2121 0.950 . S
C2100 H2096 0.949 . S
C2100 C2108 1.574 . S
C2100 C2116 1.368 . S
H2101 C2109 0.950 . S
H2102 C2107 0.950 . S
H2103 C2108 0.949 . S
H2104 C2110 0.950 . S
H2105 C2111 0.950 . S
H2106 C2112 0.949 . S
C2107 H2102 0.950 . S
C2107 C2109 1.327 . S
C2107 C2113 1.429 1_545 S
C2108 C2100 1.574 . S
C2108 H2103 0.949 . S
C2108 C2114 1.368 . S
C2109 C2093 1.349 . S
C2109 H2101 0.950 . S
C2109 C2107 1.327 . S
C2110 C2098 1.349 . S
C2110 H2104 0.950 . S
C2110 C2111 1.327 . S
C2111 H2105 0.950 . S
C2111 C2110 1.327 . S
C2111 C2115 1.429 . S
C2112 C2095 1.574 . S
C2112 H2106 0.949 . S
C2112 C2116 1.368 1_545 S
C2113 C2094 1.429 . S
C2113 C2107 1.429 1_565 S
C2113 C2114 1.523 . S
C2114 C2095 1.368 1_565 S
C2114 C2108 1.368 . S
C2114 C2113 1.523 . S
C2115 C2099 1.429 1_565 S
C2115 C2111 1.429 . S
C2115 C2116 1.523 . S
C2116 C2100 1.368 . S
C2116 C2112 1.368 1_565 S
C2116 C2115 1.523 . S
H2117 C2092 0.950 . S
H2118 C2094 0.950 . S
H2119 C2095 0.949 . S
H2120 C2097 0.950 . S
H2121 C2099 0.950 . S
C2122 C2123 1.349 . S
C2122 C2124 1.327 . S
C2122 H2147 0.950 . S
C2123 C2122 1.349 . S
C2123 C2139 1.349 . S
C2124 C2122 1.327 . S
C2124 C2143 1.429 . S
C2124 H2148 0.950 . S
C2125 C2142 1.574 . S
C2125 C2144 1.368 . S
C2125 H2149 0.949 . S
H2126 C2130 0.949 . S
C2127 C2128 1.349 . S
C2127 C2129 1.327 . S
C2127 H2150 0.950 . S
C2128 C2127 1.349 . S
C2128 C2140 1.349 . S
C2129 C2127 1.327 . S
C2129 C2145 1.429 . S
C2129 H2151 0.950 . S
C2130 H2126 0.949 . S
C2130 C2138 1.574 . S
C2130 C2146 1.368 . S
H2131 C2139 0.950 . S
H2132 C2137 0.950 . S
H2133 C2138 0.949 . S
H2134 C2140 0.950 . S
H2135 C2141 0.950 . S
H2136 C2142 0.949 . S
C2137 H2132 0.950 . S
C2137 C2139 1.327 . S
C2137 C2143 1.429 . S
C2138 C2130 1.574 . S
C2138 H2133 0.949 . S
C2138 C2144 1.368 . S
C2139 C2123 1.349 . S
C2139 H2131 0.950 . S
C2139 C2137 1.327 . S
C2140 C2128 1.349 . S
C2140 H2134 0.950 . S
C2140 C2141 1.327 . S
C2141 H2135 0.950 . S
C2141 C2140 1.327 . S
C2141 C2145 1.429 . S
C2142 C2125 1.574 . S
C2142 H2136 0.949 . S
C2142 C2146 1.368 . S
C2143 C2124 1.429 . S
C2143 C2137 1.429 . S
C2143 C2144 1.523 . S
C2144 C2125 1.368 . S
C2144 C2138 1.368 . S
C2144 C2143 1.523 . S
C2145 C2129 1.429 . S
C2145 C2141 1.429 . S
C2145 C2146 1.523 . S
C2146 C2130 1.368 . S
C2146 C2142 1.368 . S
C2146 C2145 1.523 . S
H2147 C2122 0.950 . S
H2148 C2124 0.950 . S
H2149 C2125 0.949 . S
H2150 C2127 0.950 . S
H2151 C2129 0.950 . S
C2152 C2153 1.349 . S
C2152 C2154 1.327 . S
C2152 H2177 0.950 . S
C2153 C2152 1.349 . S
C2153 C2169 1.349 1_554 S
C2154 C2152 1.327 . S
C2154 C2173 1.429 1_554 S
C2154 H2178 0.950 . S
C2155 C2172 1.574 . S
C2155 C2174 1.368 . S
C2155 H2179 0.949 . S
H2156 C2160 0.949 1_554 S
C2157 C2158 1.349 . S
C2157 C2159 1.327 . S
C2157 H2180 0.950 . S
C2158 C2157 1.349 . S
C2158 C2170 1.349 . S
C2159 C2157 1.327 . S
C2159 C2175 1.429 . S
C2159 H2181 0.950 . S
C2160 H2156 0.949 1_556 S
C2160 C2168 1.574 1_556 S
C2160 C2176 1.368 . S
H2161 C2169 0.950 . S
H2162 C2167 0.950 . S
H2163 C2168 0.949 . S
H2164 C2170 0.950 . S
H2165 C2171 0.950 . S
H2166 C2172 0.949 . S
C2167 H2162 0.950 . S
C2167 C2169 1.327 . S
C2167 C2173 1.429 . S
C2168 C2160 1.574 1_554 S
C2168 H2163 0.949 . S
C2168 C2174 1.368 1_554 S
C2169 C2153 1.349 1_556 S
C2169 H2161 0.950 . S
C2169 C2167 1.327 . S
C2170 C2158 1.349 . S
C2170 H2164 0.950 . S
C2170 C2171 1.327 . S
C2171 H2165 0.950 . S
C2171 C2170 1.327 . S
C2171 C2175 1.429 . S
C2172 C2155 1.574 . S
C2172 H2166 0.949 . S
C2172 C2176 1.368 . S
C2173 C2154 1.429 1_556 S
C2173 C2167 1.429 . S
C2173 C2174 1.523 . S
C2174 C2155 1.368 . S
C2174 C2168 1.368 1_556 S
C2174 C2173 1.523 . S
C2175 C2159 1.429 . S
C2175 C2171 1.429 . S
C2175 C2176 1.523 . S
C2176 C2160 1.368 . S
C2176 C2172 1.368 . S
C2176 C2175 1.523 . S
H2177 C2152 0.950 . S
H2178 C2154 0.950 . S
H2179 C2155 0.949 . S
H2180 C2157 0.950 . S
H2181 C2159 0.950 . S
C2182 C2183 1.349 . S
C2182 C2184 1.327 . S
C2182 H2207 0.950 1_554 S
C2183 C2182 1.349 . S
C2183 C2199 1.349 . S
C2184 C2182 1.327 . S
C2184 C2203 1.429 . S
C2184 H2208 0.950 1_554 S
C2185 C2202 1.574 . S
C2185 C2204 1.368 . S
C2185 H2209 0.949 . S
H2186 C2190 0.949 1_556 S
C2187 C2188 1.349 . S
C2187 C2189 1.327 . S
C2187 H2210 0.950 . S
C2188 C2187 1.349 . S
C2188 C2200 1.349 . S
C2189 C2187 1.327 . S
C2189 C2205 1.429 . S
C2189 H2211 0.950 . S
C2190 H2186 0.949 1_554 S
C2190 C2198 1.574 . S
C2190 C2206 1.368 . S
H2191 C2199 0.950 . S
H2192 C2197 0.950 . S
H2193 C2198 0.949 1_556 S
H2194 C2200 0.950 1_556 S
H2195 C2201 0.950 1_556 S
H2196 C2202 0.949 . S
C2197 H2192 0.950 . S
C2197 C2199 1.327 . S
C2197 C2203 1.429 . S
C2198 C2190 1.574 . S
C2198 H2193 0.949 1_554 S
C2198 C2204 1.368 . S
C2199 C2183 1.349 . S
C2199 H2191 0.950 . S
C2199 C2197 1.327 . S
C2200 C2188 1.349 . S
C2200 H2194 0.950 1_554 S
C2200 C2201 1.327 . S
C2201 H2195 0.950 1_554 S
C2201 C2200 1.327 . S
C2201 C2205 1.429 . S
C2202 C2185 1.574 . S
C2202 H2196 0.949 . S
C2202 C2206 1.368 . S
C2203 C2184 1.429 . S
C2203 C2197 1.429 . S
C2203 C2204 1.523 . S
C2204 C2185 1.368 . S
C2204 C2198 1.368 . S
C2204 C2203 1.523 . S
C2205 C2189 1.429 . S
C2205 C2201 1.429 . S
C2205 C2206 1.523 . S
C2206 C2190 1.368 . S
C2206 C2202 1.368 . S
C2206 C2205 1.523 . S
H2207 C2182 0.950 1_556 S
H2208 C2184 0.950 1_556 S
H2209 C2185 0.949 . S
H2210 C2187 0.950 . S
H2211 C2189 0.950 . S
C2212 C2213 1.349 . S
C2212 C2214 1.327 . S
C2212 H2237 0.950 . S
C2213 C2212 1.349 . S
C2213 C2229 1.349 . S
C2214 C2212 1.327 . S
C2214 C2233 1.429 . S
C2214 H2238 0.950 . S
C2215 C2232 1.574 . S
C2215 C2234 1.368 . S
C2215 H2239 0.949 . S
H2216 C2220 0.949 . S
C2217 C2218 1.349 . S
C2217 C2219 1.327 . S
C2217 H2240 0.950 . S
C2218 C2217 1.349 . S
C2218 C2230 1.349 . S
C2219 C2217 1.327 . S
C2219 C2235 1.429 . S
C2219 H2241 0.950 . S
C2220 H2216 0.949 . S
C2220 C2228 1.574 . S
C2220 C2236 1.368 . S
H2221 C2229 0.950 . S
H2222 C2227 0.950 . S
H2223 C2228 0.949 . S
H2224 C2230 0.950 . S
H2225 C2231 0.950 . S
H2226 C2232 0.949 . S
C2227 H2222 0.950 . S
C2227 C2229 1.327 . S
C2227 C2233 1.429 . S
C2228 C2220 1.574 . S
C2228 H2223 0.949 . S
C2228 C2234 1.368 . S
C2229 C2213 1.349 . S
C2229 H2221 0.950 . S
C2229 C2227 1.327 . S
C2230 C2218 1.349 . S
C2230 H2224 0.950 . S
C2230 C2231 1.327 . S
C2231 H2225 0.950 . S
C2231 C2230 1.327 . S
C2231 C2235 1.429 . S
C2232 C2215 1.574 . S
C2232 H2226 0.949 . S
C2232 C2236 1.368 . S
C2233 C2214 1.429 . S
C2233 C2227 1.429 . S
C2233 C2234 1.523 . S
C2234 C2215 1.368 . S
C2234 C2228 1.368 . S
C2234 C2233 1.523 . S
C2235 C2219 1.429 . S
C2235 C2231 1.429 . S
C2235 C2236 1.523 . S
C2236 C2220 1.368 . S
C2236 C2232 1.368 . S
C2236 C2235 1.523 . S
H2237 C2212 0.950 . S
H2238 C2214 0.950 . S
H2239 C2215 0.949 . S
H2240 C2217 0.950 . S
H2241 C2219 0.950 . S
C2242 C2243 1.349 . S
C2242 C2244 1.327 . S
C2242 H2267 0.950 . S
C2243 C2242 1.349 . S
C2243 C2259 1.349 . S
C2244 C2242 1.327 . S
C2244 C2263 1.429 . S
C2244 H2268 0.950 . S
C2245 C2262 1.574 . S
C2245 C2264 1.368 . S
C2245 H2269 0.949 . S
H2246 C2250 0.949 . S
C2247 C2248 1.349 . S
C2247 C2249 1.327 . S
C2247 H2270 0.950 . S
C2248 C2247 1.349 . S
C2248 C2260 1.349 . S
C2249 C2247 1.327 . S
C2249 C2265 1.429 . S
C2249 H2271 0.950 . S
C2250 H2246 0.949 . S
C2250 C2258 1.574 . S
C2250 C2266 1.368 . S
H2251 C2259 0.950 . S
H2252 C2257 0.950 . S
H2253 C2258 0.949 . S
H2254 C2260 0.950 . S
H2255 C2261 0.950 . S
H2256 C2262 0.949 . S
C2257 H2252 0.950 . S
C2257 C2259 1.327 . S
C2257 C2263 1.429 . S
C2258 C2250 1.574 . S
C2258 H2253 0.949 . S
C2258 C2264 1.368 . S
C2259 C2243 1.349 . S
C2259 H2251 0.950 . S
C2259 C2257 1.327 . S
C2260 C2248 1.349 . S
C2260 H2254 0.950 . S
C2260 C2261 1.327 . S
C2261 H2255 0.950 . S
C2261 C2260 1.327 . S
C2261 C2265 1.429 . S
C2262 C2245 1.574 . S
C2262 H2256 0.949 . S
C2262 C2266 1.368 . S
C2263 C2244 1.429 . S
C2263 C2257 1.429 . S
C2263 C2264 1.523 . S
C2264 C2245 1.368 . S
C2264 C2258 1.368 . S
C2264 C2263 1.523 . S
C2265 C2249 1.429 . S
C2265 C2261 1.429 . S
C2265 C2266 1.523 . S
C2266 C2250 1.368 . S
C2266 C2262 1.368 . S
C2266 C2265 1.523 . S
H2267 C2242 0.950 . S
H2268 C2244 0.950 . S
H2269 C2245 0.949 . S
H2270 C2247 0.950 . S
H2271 C2249 0.950 . S
C2272 C2273 1.349 1_565 S
C2272 C2274 1.327 . S
C2272 H2297 0.950 . S
C2273 C2272 1.349 1_545 S
C2273 C2289 1.349 . S
C2274 C2272 1.327 . S
C2274 C2293 1.429 . S
C2274 H2298 0.950 . S
C2275 C2292 1.574 . S
C2275 C2294 1.368 . S
C2275 H2299 0.949 . S
H2276 C2280 0.949 . S
C2277 C2278 1.349 . S
C2277 C2279 1.327 . S
C2277 H2300 0.950 . S
C2278 C2277 1.349 . S
C2278 C2290 1.349 . S
C2279 C2277 1.327 . S
C2279 C2295 1.429 . S
C2279 H2301 0.950 . S
C2280 H2276 0.949 . S
C2280 C2288 1.574 . S
C2280 C2296 1.368 . S
H2281 C2289 0.950 . S
H2282 C2287 0.950 . S
H2283 C2288 0.949 . S
H2284 C2290 0.950 . S
H2285 C2291 0.950 . S
H2286 C2292 0.949 . S
C2287 H2282 0.950 . S
C2287 C2289 1.327 1_565 S
C2287 C2293 1.429 . S
C2288 C2280 1.574 . S
C2288 H2283 0.949 . S
C2288 C2294 1.368 . S
C2289 C2273 1.349 . S
C2289 H2281 0.950 . S
C2289 C2287 1.327 1_545 S
C2290 C2278 1.349 . S
C2290 H2284 0.950 . S
C2290 C2291 1.327 . S
C2291 H2285 0.950 . S
C2291 C2290 1.327 . S
C2291 C2295 1.429 . S
C2292 C2275 1.574 . S
C2292 H2286 0.949 . S
C2292 C2296 1.368 . S
C2293 C2274 1.429 . S
C2293 C2287 1.429 . S
C2293 C2294 1.523 . S
C2294 C2275 1.368 . S
C2294 C2288 1.368 . S
C2294 C2293 1.523 . S
C2295 C2279 1.429 . S
C2295 C2291 1.429 . S
C2295 C2296 1.523 . S
C2296 C2280 1.368 . S
C2296 C2292 1.368 . S
C2296 C2295 1.523 . S
H2297 C2272 0.950 . S
H2298 C2274 0.950 . S
H2299 C2275 0.949 . S
H2300 C2277 0.950 . S
H2301 C2279 0.950 . S
C2302 C2303 1.349 . S
C2302 C2304 1.327 . S
C2302 H2327 0.950 . S
C2303 C2302 1.349 . S
C2303 C2319 1.349 . S
C2304 C2302 1.327 . S
C2304 C2323 1.429 . S
C2304 H2328 0.950 . S
C2305 C2322 1.574 . S
C2305 C2324 1.368 . S
C2305 H2329 0.949 . S
H2306 C2310 0.949 . S
C2307 C2308 1.349 . S
C2307 C2309 1.327 . S
C2307 H2330 0.950 . S
C2308 C2307 1.349 . S
C2308 C2320 1.349 . S
C2309 C2307 1.327 . S
C2309 C2325 1.429 . S
C2309 H2331 0.950 . S
C2310 H2306 0.949 . S
C2310 C2318 1.574 . S
C2310 C2326 1.368 . S
H2311 C2319 0.950 . S
H2312 C2317 0.950 . S
H2313 C2318 0.949 . S
H2314 C2320 0.950 . S
H2315 C2321 0.950 . S
H2316 C2322 0.949 . S
C2317 H2312 0.950 . S
C2317 C2319 1.327 . S
C2317 C2323 1.429 . S
C2318 C2310 1.574 . S
C2318 H2313 0.949 . S
C2318 C2324 1.368 . S
C2319 C2303 1.349 . S
C2319 H2311 0.950 . S
C2319 C2317 1.327 . S
C2320 C2308 1.349 . S
C2320 H2314 0.950 . S
C2320 C2321 1.327 . S
C2321 H2315 0.950 . S
C2321 C2320 1.327 . S
C2321 C2325 1.429 . S
C2322 C2305 1.574 . S
C2322 H2316 0.949 . S
C2322 C2326 1.368 . S
C2323 C2304 1.429 . S
C2323 C2317 1.429 . S
C2323 C2324 1.523 . S
C2324 C2305 1.368 . S
C2324 C2318 1.368 . S
C2324 C2323 1.523 . S
C2325 C2309 1.429 . S
C2325 C2321 1.429 . S
C2325 C2326 1.523 . S
C2326 C2310 1.368 . S
C2326 C2322 1.368 . S
C2326 C2325 1.523 . S
H2327 C2302 0.950 . S
H2328 C2304 0.950 . S
H2329 C2305 0.949 . S
H2330 C2307 0.950 . S
H2331 C2309 0.950 . S
C2332 C2333 1.349 . S
C2332 C2334 1.327 . S
C2332 H2357 0.950 . S
C2333 C2332 1.349 . S
C2333 C2349 1.349 . S
C2334 C2332 1.327 . S
C2334 C2353 1.429 . S
C2334 H2358 0.950 . S
C2335 C2352 1.574 . S
C2335 C2354 1.368 . S
C2335 H2359 0.949 . S
H2336 C2340 0.949 . S
C2337 C2338 1.349 . S
C2337 C2339 1.327 . S
C2337 H2360 0.950 . S
C2338 C2337 1.349 . S
C2338 C2350 1.349 . S
C2339 C2337 1.327 . S
C2339 C2355 1.429 . S
C2339 H2361 0.950 . S
C2340 H2336 0.949 . S
C2340 C2348 1.574 . S
C2340 C2356 1.368 . S
H2341 C2349 0.950 . S
H2342 C2347 0.950 . S
H2343 C2348 0.949 . S
H2344 C2350 0.950 . S
H2345 C2351 0.950 . S
H2346 C2352 0.949 . S
C2347 H2342 0.950 . S
C2347 C2349 1.327 . S
C2347 C2353 1.429 . S
C2348 C2340 1.574 . S
C2348 H2343 0.949 . S
C2348 C2354 1.368 . S
C2349 C2333 1.349 . S
C2349 H2341 0.950 . S
C2349 C2347 1.327 . S
C2350 C2338 1.349 . S
C2350 H2344 0.950 . S
C2350 C2351 1.327 . S
C2351 H2345 0.950 . S
C2351 C2350 1.327 . S
C2351 C2355 1.429 . S
C2352 C2335 1.574 . S
C2352 H2346 0.949 . S
C2352 C2356 1.368 . S
C2353 C2334 1.429 . S
C2353 C2347 1.429 . S
C2353 C2354 1.523 . S
C2354 C2335 1.368 . S
C2354 C2348 1.368 . S
C2354 C2353 1.523 . S
C2355 C2339 1.429 . S
C2355 C2351 1.429 . S
C2355 C2356 1.523 . S
C2356 C2340 1.368 . S
C2356 C2352 1.368 . S
C2356 C2355 1.523 . S
H2357 C2332 0.950 . S
H2358 C2334 0.950 . S
H2359 C2335 0.949 . S
H2360 C2337 0.950 . S
H2361 C2339 0.950 . S
C2362 C2363 1.349 . S
C2362 C2364 1.327 . S
C2362 H2387 0.950 . S
C2363 C2362 1.349 . S
C2363 C2379 1.349 . S
C2364 C2362 1.327 . S
C2364 C2383 1.429 . S
C2364 H2388 0.950 . S
C2365 C2382 1.574 . S
C2365 C2384 1.368 . S
C2365 H2389 0.949 . S
H2366 C2370 0.949 . S
C2367 C2368 1.349 . S
C2367 C2369 1.327 . S
C2367 H2390 0.950 . S
C2368 C2367 1.349 . S
C2368 C2380 1.349 . S
C2369 C2367 1.327 . S
C2369 C2385 1.429 . S
C2369 H2391 0.950 . S
C2370 H2366 0.949 . S
C2370 C2378 1.574 . S
C2370 C2386 1.368 . S
H2371 C2379 0.950 . S
H2372 C2377 0.950 . S
H2373 C2378 0.949 . S
H2374 C2380 0.950 . S
H2375 C2381 0.950 . S
H2376 C2382 0.949 . S
C2377 H2372 0.950 . S
C2377 C2379 1.327 . S
C2377 C2383 1.429 . S
C2378 C2370 1.574 . S
C2378 H2373 0.949 . S
C2378 C2384 1.368 . S
C2379 C2363 1.349 . S
C2379 H2371 0.950 . S
C2379 C2377 1.327 . S
C2380 C2368 1.349 . S
C2380 H2374 0.950 . S
C2380 C2381 1.327 . S
C2381 H2375 0.950 . S
C2381 C2380 1.327 . S
C2381 C2385 1.429 . S
C2382 C2365 1.574 . S
C2382 H2376 0.949 . S
C2382 C2386 1.368 . S
C2383 C2364 1.429 . S
C2383 C2377 1.429 . S
C2383 C2384 1.523 . S
C2384 C2365 1.368 . S
C2384 C2378 1.368 . S
C2384 C2383 1.523 . S
C2385 C2369 1.429 . S
C2385 C2381 1.429 . S
C2385 C2386 1.523 . S
C2386 C2370 1.368 . S
C2386 C2382 1.368 . S
C2386 C2385 1.523 . S
H2387 C2362 0.950 . S
H2388 C2364 0.950 . S
H2389 C2365 0.949 . S
H2390 C2367 0.950 . S
H2391 C2369 0.950 . S
C2392 C2393 1.349 . S
C2392 C2394 1.327 . S
C2392 H2417 0.950 . S
C2393 C2392 1.349 . S
C2393 C2409 1.349 . S
C2394 C2392 1.327 . S
C2394 C2413 1.429 . S
C2394 H2418 0.950 . S
C2395 C2412 1.574 . S
C2395 C2414 1.368 . S
C2395 H2419 0.949 . S
H2396 C2400 0.949 . S
C2397 C2398 1.349 . S
C2397 C2399 1.327 . S
C2397 H2420 0.950 . S
C2398 C2397 1.349 . S
C2398 C2410 1.349 . S
C2399 C2397 1.327 . S
C2399 C2415 1.429 . S
C2399 H2421 0.950 . S
C2400 H2396 0.949 . S
C2400 C2408 1.574 . S
C2400 C2416 1.368 . S
H2401 C2409 0.950 . S
H2402 C2407 0.950 . S
H2403 C2408 0.949 . S
H2404 C2410 0.950 . S
H2405 C2411 0.950 . S
H2406 C2412 0.949 . S
C2407 H2402 0.950 . S
C2407 C2409 1.327 . S
C2407 C2413 1.429 . S
C2408 C2400 1.574 . S
C2408 H2403 0.949 . S
C2408 C2414 1.368 . S
C2409 C2393 1.349 . S
C2409 H2401 0.950 . S
C2409 C2407 1.327 . S
C2410 C2398 1.349 . S
C2410 H2404 0.950 . S
C2410 C2411 1.327 . S
C2411 H2405 0.950 . S
C2411 C2410 1.327 . S
C2411 C2415 1.429 . S
C2412 C2395 1.574 . S
C2412 H2406 0.949 . S
C2412 C2416 1.368 . S
C2413 C2394 1.429 . S
C2413 C2407 1.429 . S
C2413 C2414 1.523 . S
C2414 C2395 1.368 . S
C2414 C2408 1.368 . S
C2414 C2413 1.523 . S
C2415 C2399 1.429 . S
C2415 C2411 1.429 . S
C2415 C2416 1.523 . S
C2416 C2400 1.368 . S
C2416 C2412 1.368 . S
C2416 C2415 1.523 . S
H2417 C2392 0.950 . S
H2418 C2394 0.950 . S
H2419 C2395 0.949 . S
H2420 C2397 0.950 . S
H2421 C2399 0.950 . S
C2422 C2423 1.349 . S
C2422 C2424 1.327 . S
C2422 H2447 0.950 . S
C2423 C2422 1.349 . S
C2423 C2439 1.349 . S
C2424 C2422 1.327 . S
C2424 C2443 1.429 . S
C2424 H2448 0.950 . S
C2425 C2442 1.574 . S
C2425 C2444 1.368 . S
C2425 H2449 0.949 . S
H2426 C2430 0.949 . S
C2427 C2428 1.349 . S
C2427 C2429 1.327 . S
C2427 H2450 0.950 . S
C2428 C2427 1.349 . S
C2428 C2440 1.349 . S
C2429 C2427 1.327 . S
C2429 C2445 1.429 . S
C2429 H2451 0.950 . S
C2430 H2426 0.949 . S
C2430 C2438 1.574 . S
C2430 C2446 1.368 . S
H2431 C2439 0.950 . S
H2432 C2437 0.950 . S
H2433 C2438 0.949 . S
H2434 C2440 0.950 . S
H2435 C2441 0.950 . S
H2436 C2442 0.949 . S
C2437 H2432 0.950 . S
C2437 C2439 1.327 . S
C2437 C2443 1.429 . S
C2438 C2430 1.574 . S
C2438 H2433 0.949 . S
C2438 C2444 1.368 . S
C2439 C2423 1.349 . S
C2439 H2431 0.950 . S
C2439 C2437 1.327 . S
C2440 C2428 1.349 . S
C2440 H2434 0.950 . S
C2440 C2441 1.327 . S
C2441 H2435 0.950 . S
C2441 C2440 1.327 . S
C2441 C2445 1.429 . S
C2442 C2425 1.574 . S
C2442 H2436 0.949 . S
C2442 C2446 1.368 . S
C2443 C2424 1.429 . S
C2443 C2437 1.429 . S
C2443 C2444 1.523 . S
C2444 C2425 1.368 . S
C2444 C2438 1.368 . S
C2444 C2443 1.523 . S
C2445 C2429 1.429 . S
C2445 C2441 1.429 . S
C2445 C2446 1.523 . S
C2446 C2430 1.368 . S
C2446 C2442 1.368 . S
C2446 C2445 1.523 . S
H2447 C2422 0.950 . S
H2448 C2424 0.950 . S
H2449 C2425 0.949 . S
H2450 C2427 0.950 . S
H2451 C2429 0.950 . S
C2452 C2453 1.349 . S
C2452 C2454 1.327 . S
C2452 H2477 0.950 . S
C2453 C2452 1.349 . S
C2453 C2469 1.349 . S
C2454 C2452 1.327 . S
C2454 C2473 1.429 . S
C2454 H2478 0.950 . S
C2455 C2472 1.574 . S
C2455 C2474 1.368 . S
C2455 H2479 0.949 . S
H2456 C2460 0.949 1_554 S
C2457 C2458 1.349 . S
C2457 C2459 1.327 . S
C2457 H2480 0.950 . S
C2458 C2457 1.349 . S
C2458 C2470 1.349 1_556 S
C2459 C2457 1.327 . S
C2459 C2475 1.429 . S
C2459 H2481 0.950 . S
C2460 H2456 0.949 1_556 S
C2460 C2468 1.574 . S
C2460 C2476 1.368 . S
H2461 C2469 0.950 . S
H2462 C2467 0.950 . S
H2463 C2468 0.949 . S
H2464 C2470 0.950 . S
H2465 C2471 0.950 . S
H2466 C2472 0.949 . S
C2467 H2462 0.950 . S
C2467 C2469 1.327 . S
C2467 C2473 1.429 . S
C2468 C2460 1.574 . S
C2468 H2463 0.949 . S
C2468 C2474 1.368 . S
C2469 C2453 1.349 . S
C2469 H2461 0.950 . S
C2469 C2467 1.327 . S
C2470 C2458 1.349 1_554 S
C2470 H2464 0.950 . S
C2470 C2471 1.327 . S
C2471 H2465 0.950 . S
C2471 C2470 1.327 . S
C2471 C2475 1.429 1_554 S
C2472 C2455 1.574 . S
C2472 H2466 0.949 . S
C2472 C2476 1.368 . S
C2473 C2454 1.429 . S
C2473 C2467 1.429 . S
C2473 C2474 1.523 . S
C2474 C2455 1.368 . S
C2474 C2468 1.368 . S
C2474 C2473 1.523 . S
C2475 C2459 1.429 . S
C2475 C2471 1.429 1_556 S
C2475 C2476 1.523 . S
C2476 C2460 1.368 . S
C2476 C2472 1.368 . S
C2476 C2475 1.523 . S
H2477 C2452 0.950 . S
H2478 C2454 0.950 . S
H2479 C2455 0.949 . S
H2480 C2457 0.950 . S
H2481 C2459 0.950 . S
C2482 C2483 1.349 . S
C2482 C2484 1.327 1_455 S
C2482 H2507 0.950 . S
C2483 C2482 1.349 . S
C2483 C2499 1.349 . S
C2484 C2482 1.327 1_655 S
C2484 C2503 1.429 . S
C2484 H2508 0.950 . S
C2485 C2502 1.574 . S
C2485 C2504 1.368 . S
C2485 H2509 0.949 . S
H2486 C2490 0.949 . S
C2487 C2488 1.349 . S
C2487 C2489 1.327 . S
C2487 H2510 0.950 . S
C2488 C2487 1.349 . S
C2488 C2500 1.349 . S
C2489 C2487 1.327 . S
C2489 C2505 1.429 . S
C2489 H2511 0.950 . S
C2490 H2486 0.949 . S
C2490 C2498 1.574 . S
C2490 C2506 1.368 . S
H2491 C2499 0.950 . S
H2492 C2497 0.950 . S
H2493 C2498 0.949 . S
H2494 C2500 0.950 . S
H2495 C2501 0.950 . S
H2496 C2502 0.949 . S
C2497 H2492 0.950 . S
C2497 C2499 1.327 1_655 S
C2497 C2503 1.429 . S
C2498 C2490 1.574 . S
C2498 H2493 0.949 . S
C2498 C2504 1.368 . S
C2499 C2483 1.349 . S
C2499 H2491 0.950 . S
C2499 C2497 1.327 1_455 S
C2500 C2488 1.349 . S
C2500 H2494 0.950 . S
C2500 C2501 1.327 . S
C2501 H2495 0.950 . S
C2501 C2500 1.327 . S
C2501 C2505 1.429 . S
C2502 C2485 1.574 . S
C2502 H2496 0.949 . S
C2502 C2506 1.368 . S
C2503 C2484 1.429 . S
C2503 C2497 1.429 . S
C2503 C2504 1.523 . S
C2504 C2485 1.368 . S
C2504 C2498 1.368 . S
C2504 C2503 1.523 . S
C2505 C2489 1.429 . S
C2505 C2501 1.429 . S
C2505 C2506 1.523 . S
C2506 C2490 1.368 . S
C2506 C2502 1.368 . S
C2506 C2505 1.523 . S
H2507 C2482 0.950 . S
H2508 C2484 0.950 . S
H2509 C2485 0.949 . S
H2510 C2487 0.950 . S
H2511 C2489 0.950 . S
C2512 C2513 1.349 . S
C2512 C2514 1.327 . S
C2512 H2537 0.950 . S
C2513 C2512 1.349 . S
C2513 C2529 1.349 . S
C2514 C2512 1.327 . S
C2514 C2533 1.429 . S
C2514 H2538 0.950 . S
C2515 C2532 1.574 . S
C2515 C2534 1.368 . S
C2515 H2539 0.949 . S
H2516 C2520 0.949 . S
C2517 C2518 1.349 . S
C2517 C2519 1.327 . S
C2517 H2540 0.950 . S
C2518 C2517 1.349 . S
C2518 C2530 1.349 . S
C2519 C2517 1.327 . S
C2519 C2535 1.429 . S
C2519 H2541 0.950 . S
C2520 H2516 0.949 . S
C2520 C2528 1.574 . S
C2520 C2536 1.368 . S
H2521 C2529 0.950 . S
H2522 C2527 0.950 . S
H2523 C2528 0.949 . S
H2524 C2530 0.950 . S
H2525 C2531 0.950 . S
H2526 C2532 0.949 . S
C2527 H2522 0.950 . S
C2527 C2529 1.327 . S
C2527 C2533 1.429 . S
C2528 C2520 1.574 . S
C2528 H2523 0.949 . S
C2528 C2534 1.368 . S
C2529 C2513 1.349 . S
C2529 H2521 0.950 . S
C2529 C2527 1.327 . S
C2530 C2518 1.349 . S
C2530 H2524 0.950 . S
C2530 C2531 1.327 . S
C2531 H2525 0.950 . S
C2531 C2530 1.327 . S
C2531 C2535 1.429 . S
C2532 C2515 1.574 . S
C2532 H2526 0.949 . S
C2532 C2536 1.368 . S
C2533 C2514 1.429 . S
C2533 C2527 1.429 . S
C2533 C2534 1.523 . S
C2534 C2515 1.368 . S
C2534 C2528 1.368 . S
C2534 C2533 1.523 . S
C2535 C2519 1.429 . S
C2535 C2531 1.429 . S
C2535 C2536 1.523 . S
C2536 C2520 1.368 . S
C2536 C2532 1.368 . S
C2536 C2535 1.523 . S
H2537 C2512 0.950 . S
H2538 C2514 0.950 . S
H2539 C2515 0.949 . S
H2540 C2517 0.950 . S
H2541 C2519 0.950 . S
C2542 C2543 1.349 . S
C2542 C2544 1.327 . S
C2542 H2567 0.950 . S
C2543 C2542 1.349 . S
C2543 C2559 1.349 . S
C2544 C2542 1.327 . S
C2544 C2563 1.429 . S
C2544 H2568 0.950 . S
C2545 C2562 1.574 . S
C2545 C2564 1.368 . S
C2545 H2569 0.949 . S
H2546 C2550 0.949 . S
C2547 C2548 1.349 . S
C2547 C2549 1.327 . S
C2547 H2570 0.950 . S
C2548 C2547 1.349 . S
C2548 C2560 1.349 . S
C2549 C2547 1.327 . S
C2549 C2565 1.429 . S
C2549 H2571 0.950 . S
C2550 H2546 0.949 . S
C2550 C2558 1.574 . S
C2550 C2566 1.368 . S
H2551 C2559 0.950 . S
H2552 C2557 0.902 1_655 S
H2553 C2558 0.949 . S
H2554 C2560 0.950 . S
H2555 C2561 0.950 . S
H2556 C2562 0.949 . S
C2557 H2552 0.902 1_455 S
C2557 C2559 1.327 . S
C2557 C2563 1.429 . S
C2558 C2550 1.574 . S
C2558 H2553 0.949 . S
C2558 C2564 1.368 . S
C2559 C2543 1.349 . S
C2559 H2551 0.950 . S
C2559 C2557 1.327 . S
C2560 C2548 1.349 . S
C2560 H2554 0.950 . S
C2560 C2561 1.327 . S
C2561 H2555 0.950 . S
C2561 C2560 1.327 . S
C2561 C2565 1.429 . S
C2562 C2545 1.574 . S
C2562 H2556 0.949 . S
C2562 C2566 1.368 . S
C2563 C2544 1.429 . S
C2563 C2557 1.429 . S
C2563 C2564 1.523 1_455 S
C2564 C2545 1.368 . S
C2564 C2558 1.368 . S
C2564 C2563 1.523 1_655 S
C2565 C2549 1.429 . S
C2565 C2561 1.429 . S
C2565 C2566 1.523 . S
C2566 C2550 1.368 . S
C2566 C2562 1.368 . S
C2566 C2565 1.523 . S
H2567 C2542 0.950 . S
H2568 C2544 0.950 . S
H2569 C2545 0.949 . S
H2570 C2547 0.950 . S
H2571 C2549 0.950 . S
C2572 C2573 1.349 . S
C2572 C2574 1.327 . S
C2572 H2597 0.950 . S
C2573 C2572 1.349 . S
C2573 C2589 1.349 1_655 S
C2574 C2572 1.327 . S
C2574 C2593 1.429 1_655 S
C2574 H2598 0.950 . S
C2575 C2592 1.574 . S
C2575 C2594 1.368 . S
C2575 H2599 0.949 . S
H2576 C2580 0.949 1_655 S
C2577 C2578 1.349 . S
C2577 C2579 1.327 . S
C2577 H2600 0.950 . S
C2578 C2577 1.349 . S
C2578 C2590 1.349 . S
C2579 C2577 1.327 . S
C2579 C2595 1.429 . S
C2579 H2601 0.950 . S
C2580 H2576 0.949 1_455 S
C2580 C2588 1.574 1_455 S
C2580 C2596 1.368 . S
H2581 C2589 0.950 . S
H2582 C2587 0.950 . S
H2583 C2588 0.949 . S
H2584 C2590 0.950 . S
H2585 C2591 0.931 1_655 S
H2586 C2592 0.949 . S
C2587 H2582 0.950 . S
C2587 C2589 1.327 . S
C2587 C2593 1.429 . S
C2588 C2580 1.574 1_655 S
C2588 H2583 0.949 . S
C2588 C2594 1.368 1_655 S
C2589 C2573 1.349 1_455 S
C2589 H2581 0.950 . S
C2589 C2587 1.327 . S
C2590 C2578 1.349 . S
C2590 H2584 0.950 . S
C2590 C2591 1.327 . S
C2591 H2585 0.931 1_455 S
C2591 C2590 1.327 . S
C2591 C2595 1.429 . S
C2592 C2575 1.574 . S
C2592 H2586 0.949 . S
C2592 C2596 1.368 . S
C2593 C2574 1.429 1_455 S
C2593 C2587 1.429 . S
C2593 C2594 1.523 . S
C2594 C2575 1.368 . S
C2594 C2588 1.368 1_455 S
C2594 C2593 1.523 . S
C2595 C2579 1.429 . S
C2595 C2591 1.429 . S
C2595 C2596 1.523 . S
C2596 C2580 1.368 . S
C2596 C2592 1.368 . S
C2596 C2595 1.523 . S
H2597 C2572 0.950 . S
H2598 C2574 0.950 . S
H2599 C2575 0.949 . S
H2600 C2577 0.950 . S
H2601 C2579 0.950 . S
C2602 C2603 1.349 . S
C2602 C2604 1.327 . S
C2602 H2627 0.950 . S
C2603 C2602 1.349 . S
C2603 C2619 1.349 . S
C2604 C2602 1.327 . S
C2604 C2623 1.429 . S
C2604 H2628 0.950 . S
C2605 C2622 1.574 . S
C2605 C2624 1.368 . S
C2605 H2629 0.949 . S
H2606 C2610 0.949 . S
C2607 C2608 1.349 . S
C2607 C2609 1.327 . S
C2607 H2630 0.950 . S
C2608 C2607 1.349 . S
C2608 C2620 1.349 . S
C2609 C2607 1.327 . S
C2609 C2625 1.429 . S
C2609 H2631 0.950 . S
C2610 H2606 0.949 . S
C2610 C2618 1.574 . S
C2610 C2626 1.368 . S
H2611 C2619 0.950 . S
H2612 C2617 0.950 . S
H2613 C2618 0.949 . S
H2614 C2620 0.950 . S
H2615 C2621 0.950 . S
H2616 C2622 0.949 . S
C2617 H2612 0.950 . S
C2617 C2619 1.327 . S
C2617 C2623 1.429 . S
C2618 C2610 1.574 . S
C2618 H2613 0.949 . S
C2618 C2624 1.368 . S
C2619 C2603 1.349 . S
C2619 H2611 0.950 . S
C2619 C2617 1.327 . S
C2620 C2608 1.349 . S
C2620 H2614 0.950 . S
C2620 C2621 1.327 . S
C2621 H2615 0.950 . S
C2621 C2620 1.327 . S
C2621 C2625 1.429 . S
C2622 C2605 1.574 . S
C2622 H2616 0.949 . S
C2622 C2626 1.368 . S
C2623 C2604 1.429 . S
C2623 C2617 1.429 . S
C2623 C2624 1.523 . S
C2624 C2605 1.368 . S
C2624 C2618 1.368 . S
C2624 C2623 1.523 . S
C2625 C2609 1.429 . S
C2625 C2621 1.429 . S
C2625 C2626 1.523 . S
C2626 C2610 1.368 . S
C2626 C2622 1.368 . S
C2626 C2625 1.523 . S
H2627 C2602 0.950 . S
H2628 C2604 0.950 . S
H2629 C2605 0.949 . S
H2630 C2607 0.950 . S
H2631 C2609 0.950 . S
C2632 C2633 1.349 . S
C2632 C2634 1.327 . S
C2632 H2657 0.950 . S
C2633 C2632 1.349 . S
C2633 C2649 1.349 . S
C2634 C2632 1.327 . S
C2634 C2653 1.429 . S
C2634 H2658 0.950 . S
C2635 C2652 1.574 . S
C2635 C2654 1.368 . S
C2635 H2659 0.949 . S
H2636 C2640 0.949 . S
C2637 C2638 1.349 . S
C2637 C2639 1.327 . S
C2637 H2660 0.950 . S
C2638 C2637 1.349 . S
C2638 C2650 1.349 . S
C2639 C2637 1.327 . S
C2639 C2655 1.429 . S
C2639 H2661 0.950 . S
C2640 H2636 0.949 . S
C2640 C2648 1.574 . S
C2640 C2656 1.368 . S
H2641 C2649 0.950 . S
H2642 C2647 0.950 . S
H2643 C2648 0.949 . S
H2644 C2650 0.950 . S
H2645 C2651 0.950 . S
H2646 C2652 0.949 . S
C2647 H2642 0.950 . S
C2647 C2649 1.327 . S
C2647 C2653 1.429 . S
C2648 C2640 1.574 . S
C2648 H2643 0.949 . S
C2648 C2654 1.368 . S
C2649 C2633 1.349 . S
C2649 H2641 0.950 . S
C2649 C2647 1.327 . S
C2650 C2638 1.349 . S
C2650 H2644 0.950 . S
C2650 C2651 1.327 . S
C2651 H2645 0.950 . S
C2651 C2650 1.327 . S
C2651 C2655 1.429 . S
C2652 C2635 1.574 . S
C2652 H2646 0.949 . S
C2652 C2656 1.368 . S
C2653 C2634 1.429 . S
C2653 C2647 1.429 . S
C2653 C2654 1.523 . S
C2654 C2635 1.368 . S
C2654 C2648 1.368 . S
C2654 C2653 1.523 . S
C2655 C2639 1.429 . S
C2655 C2651 1.429 . S
C2655 C2656 1.523 . S
C2656 C2640 1.368 . S
C2656 C2652 1.368 . S
C2656 C2655 1.523 . S
H2657 C2632 0.950 . S
H2658 C2634 0.950 . S
H2659 C2635 0.949 . S
H2660 C2637 0.950 . S
H2661 C2639 0.950 . S
C2662 C2663 1.349 . S
C2662 C2664 1.327 . S
C2662 H2687 0.950 . S
C2663 C2662 1.349 . S
C2663 C2679 1.349 . S
C2664 C2662 1.327 . S
C2664 C2683 1.429 . S
C2664 H2688 0.950 . S
C2665 C2682 1.574 . S
C2665 C2684 1.368 . S
C2665 H2689 0.949 . S
H2666 C2670 0.949 . S
C2667 C2668 1.349 . S
C2667 C2669 1.327 . S
C2667 H2690 0.950 . S
C2668 C2667 1.349 . S
C2668 C2680 1.349 . S
C2669 C2667 1.327 . S
C2669 C2685 1.429 . S
C2669 H2691 0.950 . S
C2670 H2666 0.949 . S
C2670 C2678 1.574 . S
C2670 C2686 1.368 . S
H2671 C2679 0.950 . S
H2672 C2677 0.950 . S
H2673 C2678 0.949 . S
H2674 C2680 0.950 . S
H2675 C2681 0.950 . S
H2676 C2682 0.949 . S
C2677 H2672 0.950 . S
C2677 C2679 1.327 . S
C2677 C2683 1.429 . S
C2678 C2670 1.574 . S
C2678 H2673 0.949 . S
C2678 C2684 1.368 . S
C2679 C2663 1.349 . S
C2679 H2671 0.950 . S
C2679 C2677 1.327 . S
C2680 C2668 1.349 . S
C2680 H2674 0.950 . S
C2680 C2681 1.327 . S
C2681 H2675 0.950 . S
C2681 C2680 1.327 . S
C2681 C2685 1.429 . S
C2682 C2665 1.574 . S
C2682 H2676 0.949 . S
C2682 C2686 1.368 . S
C2683 C2664 1.429 . S
C2683 C2677 1.429 . S
C2683 C2684 1.523 . S
C2684 C2665 1.368 . S
C2684 C2678 1.368 . S
C2684 C2683 1.523 . S
C2685 C2669 1.429 . S
C2685 C2681 1.429 . S
C2685 C2686 1.523 . S
C2686 C2670 1.368 . S
C2686 C2682 1.368 . S
C2686 C2685 1.523 . S
H2687 C2662 0.950 . S
H2688 C2664 0.950 . S
H2689 C2665 0.949 . S
H2690 C2667 0.950 . S
H2691 C2669 0.950 . S
C2692 C2693 1.349 . S
C2692 C2694 1.327 . S
C2692 H2717 0.950 . S
C2693 C2692 1.349 . S
C2693 C2709 1.349 . S
C2694 C2692 1.327 . S
C2694 C2713 1.429 . S
C2694 H2718 0.950 . S
C2695 C2712 1.574 . S
C2695 C2714 1.368 . S
C2695 H2719 0.949 . S
H2696 C2700 0.949 . S
C2697 C2698 1.349 . S
C2697 C2699 1.327 . S
C2697 H2720 0.950 . S
C2698 C2697 1.349 . S
C2698 C2710 1.349 . S
C2699 C2697 1.327 . S
C2699 C2715 1.429 . S
C2699 H2721 0.950 . S
C2700 H2696 0.949 . S
C2700 C2708 1.574 . S
C2700 C2716 1.368 . S
H2701 C2709 0.950 . S
H2702 C2707 0.950 . S
H2703 C2708 0.949 . S
H2704 C2710 0.950 . S
H2705 C2711 0.950 . S
H2706 C2712 0.949 . S
C2707 H2702 0.950 . S
C2707 C2709 1.327 . S
C2707 C2713 1.429 . S
C2708 C2700 1.574 . S
C2708 H2703 0.949 . S
C2708 C2714 1.368 . S
C2709 C2693 1.349 . S
C2709 H2701 0.950 . S
C2709 C2707 1.327 . S
C2710 C2698 1.349 . S
C2710 H2704 0.950 . S
C2710 C2711 1.327 . S
C2711 H2705 0.950 . S
C2711 C2710 1.327 . S
C2711 C2715 1.429 . S
C2712 C2695 1.574 . S
C2712 H2706 0.949 . S
C2712 C2716 1.368 . S
C2713 C2694 1.429 . S
C2713 C2707 1.429 . S
C2713 C2714 1.523 . S
C2714 C2695 1.368 . S
C2714 C2708 1.368 . S
C2714 C2713 1.523 . S
C2715 C2699 1.429 . S
C2715 C2711 1.429 . S
C2715 C2716 1.523 . S
C2716 C2700 1.368 . S
C2716 C2712 1.368 . S
C2716 C2715 1.523 . S
H2717 C2692 0.950 . S
H2718 C2694 0.950 . S
H2719 C2695 0.949 . S
H2720 C2697 0.950 . S
H2721 C2699 0.950 . S
C2722 C2723 1.349 . S
C2722 C2724 1.327 . S
C2722 H2747 0.950 . S
C2723 C2722 1.349 . S
C2723 C2739 1.349 . S
C2724 C2722 1.327 . S
C2724 C2743 1.429 . S
C2724 H2748 0.950 . S
C2725 C2742 1.574 . S
C2725 C2744 1.368 . S
C2725 H2749 0.949 . S
H2726 C2730 0.949 . S
C2727 C2728 1.349 . S
C2727 C2729 1.327 . S
C2727 H2750 0.950 . S
C2728 C2727 1.349 . S
C2728 C2740 1.349 . S
C2729 C2727 1.327 . S
C2729 C2745 1.429 . S
C2729 H2751 0.950 . S
C2730 H2726 0.949 . S
C2730 C2738 1.574 . S
C2730 C2746 1.368 . S
H2731 C2739 0.950 . S
H2732 C2737 0.950 . S
H2733 C2738 0.949 . S
H2734 C2740 0.950 . S
H2735 C2741 0.950 . S
H2736 C2742 0.949 . S
C2737 H2732 0.950 . S
C2737 C2739 1.327 . S
C2737 C2743 1.429 . S
C2738 C2730 1.574 . S
C2738 H2733 0.949 . S
C2738 C2744 1.368 . S
C2739 C2723 1.349 . S
C2739 H2731 0.950 . S
C2739 C2737 1.327 . S
C2740 C2728 1.349 . S
C2740 H2734 0.950 . S
C2740 C2741 1.327 . S
C2741 H2735 0.950 . S
C2741 C2740 1.327 . S
C2741 C2745 1.429 . S
C2742 C2725 1.574 . S
C2742 H2736 0.949 . S
C2742 C2746 1.368 . S
C2743 C2724 1.429 . S
C2743 C2737 1.429 . S
C2743 C2744 1.523 . S
C2744 C2725 1.368 . S
C2744 C2738 1.368 . S
C2744 C2743 1.523 . S
C2745 C2729 1.429 . S
C2745 C2741 1.429 . S
C2745 C2746 1.523 . S
C2746 C2730 1.368 . S
C2746 C2742 1.368 . S
C2746 C2745 1.523 . S
H2747 C2722 0.950 . S
H2748 C2724 0.950 . S
H2749 C2725 0.949 . S
H2750 C2727 0.950 . S
H2751 C2729 0.950 . S
C2752 C2753 1.349 . S
C2752 C2754 1.327 . S
C2752 H2777 0.950 . S
C2753 C2752 1.349 . S
C2753 C2769 1.349 . S
C2754 C2752 1.327 . S
C2754 C2773 1.429 . S
C2754 H2778 0.950 . S
C2755 C2772 1.574 . S
C2755 C2774 1.368 . S
C2755 H2779 0.949 . S
H2756 C2760 0.949 . S
C2757 C2758 1.349 . S
C2757 C2759 1.327 . S
C2757 H2780 0.950 . S
C2758 C2757 1.349 . S
C2758 C2770 1.349 . S
C2759 C2757 1.327 . S
C2759 C2775 1.429 . S
C2759 H2781 0.950 . S
C2760 H2756 0.949 . S
C2760 C2768 1.574 . S
C2760 C2776 1.368 . S
H2761 C2769 0.950 . S
H2762 C2767 0.950 . S
H2763 C2768 0.949 . S
H2764 C2770 0.950 . S
H2765 C2771 0.950 . S
H2766 C2772 0.949 . S
C2767 H2762 0.950 . S
C2767 C2769 1.327 . S
C2767 C2773 1.429 . S
C2768 C2760 1.574 . S
C2768 H2763 0.949 . S
C2768 C2774 1.368 . S
C2769 C2753 1.349 . S
C2769 H2761 0.950 . S
C2769 C2767 1.327 . S
C2770 C2758 1.349 . S
C2770 H2764 0.950 . S
C2770 C2771 1.327 . S
C2771 H2765 0.950 . S
C2771 C2770 1.327 . S
C2771 C2775 1.429 . S
C2772 C2755 1.574 . S
C2772 H2766 0.949 . S
C2772 C2776 1.368 . S
C2773 C2754 1.429 . S
C2773 C2767 1.429 . S
C2773 C2774 1.523 . S
C2774 C2755 1.368 . S
C2774 C2768 1.368 . S
C2774 C2773 1.523 . S
C2775 C2759 1.429 . S
C2775 C2771 1.429 . S
C2775 C2776 1.523 . S
C2776 C2760 1.368 . S
C2776 C2772 1.368 . S
C2776 C2775 1.523 . S
H2777 C2752 0.950 . S
H2778 C2754 0.950 . S
H2779 C2755 0.949 . S
H2780 C2757 0.950 . S
H2781 C2759 0.950 . S
C2782 C2783 1.349 . S
C2782 C2784 1.327 . S
C2782 H2807 0.950 . S
C2783 C2782 1.349 . S
C2783 C2799 1.349 . S
C2784 C2782 1.327 . S
C2784 C2803 1.429 . S
C2784 H2808 0.950 . S
C2785 C2802 1.574 . S
C2785 C2804 1.368 . S
C2785 H2809 0.949 . S
H2786 C2790 0.949 . S
C2787 C2788 1.349 . S
C2787 C2789 1.327 . S
C2787 H2810 0.950 . S
C2788 C2787 1.349 . S
C2788 C2800 1.349 . S
C2789 C2787 1.327 . S
C2789 C2805 1.429 . S
C2789 H2811 0.950 . S
C2790 H2786 0.949 . S
C2790 C2798 1.574 . S
C2790 C2806 1.368 . S
H2791 C2799 0.950 . S
H2792 C2797 0.950 . S
H2793 C2798 0.949 . S
H2794 C2800 0.950 . S
H2795 C2801 0.950 . S
H2796 C2802 0.949 . S
C2797 H2792 0.950 . S
C2797 C2799 1.327 . S
C2797 C2803 1.429 . S
C2798 C2790 1.574 . S
C2798 H2793 0.949 . S
C2798 C2804 1.368 . S
C2799 C2783 1.349 . S
C2799 H2791 0.950 . S
C2799 C2797 1.327 . S
C2800 C2788 1.349 . S
C2800 H2794 0.950 . S
C2800 C2801 1.327 . S
C2801 H2795 0.950 . S
C2801 C2800 1.327 . S
C2801 C2805 1.429 . S
C2802 C2785 1.574 . S
C2802 H2796 0.949 . S
C2802 C2806 1.368 . S
C2803 C2784 1.429 . S
C2803 C2797 1.429 . S
C2803 C2804 1.523 . S
C2804 C2785 1.368 . S
C2804 C2798 1.368 . S
C2804 C2803 1.523 . S
C2805 C2789 1.429 . S
C2805 C2801 1.429 . S
C2805 C2806 1.523 . S
C2806 C2790 1.368 . S
C2806 C2802 1.368 . S
C2806 C2805 1.523 . S
H2807 C2782 0.950 . S
H2808 C2784 0.950 . S
H2809 C2785 0.949 . S
H2810 C2787 0.950 . S
H2811 C2789 0.950 . S
C2812 C2813 1.349 . S
C2812 C2814 1.327 . S
C2812 H2837 0.950 . S
C2813 C2812 1.349 . S
C2813 C2829 1.349 . S
C2814 C2812 1.327 . S
C2814 C2833 1.429 . S
C2814 H2838 0.950 . S
C2815 C2832 1.574 . S
C2815 C2834 1.368 . S
C2815 H2839 0.949 . S
H2816 C2820 0.949 . S
C2817 C2818 1.349 . S
C2817 C2819 1.327 . S
C2817 H2840 0.950 . S
C2818 C2817 1.349 . S
C2818 C2830 1.349 . S
C2819 C2817 1.327 . S
C2819 C2835 1.429 . S
C2819 H2841 0.950 . S
C2820 H2816 0.949 . S
C2820 C2828 1.574 . S
C2820 C2836 1.368 . S
H2821 C2829 0.950 . S
H2822 C2827 0.950 . S
H2823 C2828 0.949 . S
H2824 C2830 0.950 . S
H2825 C2831 0.950 . S
H2826 C2832 0.949 . S
C2827 H2822 0.950 . S
C2827 C2829 1.327 . S
C2827 C2833 1.429 . S
C2828 C2820 1.574 . S
C2828 H2823 0.949 . S
C2828 C2834 1.368 . S
C2829 C2813 1.349 . S
C2829 H2821 0.950 . S
C2829 C2827 1.327 . S
C2830 C2818 1.349 . S
C2830 H2824 0.950 . S
C2830 C2831 1.327 . S
C2831 H2825 0.950 . S
C2831 C2830 1.327 . S
C2831 C2835 1.429 . S
C2832 C2815 1.574 . S
C2832 H2826 0.949 . S
C2832 C2836 1.368 . S
C2833 C2814 1.429 . S
C2833 C2827 1.429 . S
C2833 C2834 1.523 . S
C2834 C2815 1.368 . S
C2834 C2828 1.368 . S
C2834 C2833 1.523 . S
C2835 C2819 1.429 . S
C2835 C2831 1.429 . S
C2835 C2836 1.523 . S
C2836 C2820 1.368 . S
C2836 C2832 1.368 . S
C2836 C2835 1.523 . S
H2837 C2812 0.950 . S
H2838 C2814 0.950 . S
H2839 C2815 0.949 . S
H2840 C2817 0.950 . S
H2841 C2819 0.950 . S
C2842 C2843 1.349 . S
C2842 C2844 1.327 . S
C2842 H2867 0.950 . S
C2843 C2842 1.349 . S
C2843 C2859 1.349 . S
C2844 C2842 1.327 . S
C2844 C2863 1.429 . S
C2844 H2868 0.950 . S
C2845 C2862 1.574 . S
C2845 C2864 1.368 . S
C2845 H2869 0.949 . S
H2846 C2850 0.949 . S
C2847 C2848 1.349 . S
C2847 C2849 1.327 . S
C2847 H2870 0.950 . S
C2848 C2847 1.349 . S
C2848 C2860 1.349 . S
C2849 C2847 1.327 . S
C2849 C2865 1.429 . S
C2849 H2871 0.950 . S
C2850 H2846 0.949 . S
C2850 C2858 1.574 . S
C2850 C2866 1.368 . S
H2851 C2859 0.950 . S
H2852 C2857 0.950 . S
H2853 C2858 0.949 . S
H2854 C2860 0.950 . S
H2855 C2861 0.950 . S
H2856 C2862 0.949 . S
C2857 H2852 0.950 . S
C2857 C2859 1.327 . S
C2857 C2863 1.429 . S
C2858 C2850 1.574 . S
C2858 H2853 0.949 . S
C2858 C2864 1.368 . S
C2859 C2843 1.349 . S
C2859 H2851 0.950 . S
C2859 C2857 1.327 . S
C2860 C2848 1.349 . S
C2860 H2854 0.950 . S
C2860 C2861 1.327 . S
C2861 H2855 0.950 . S
C2861 C2860 1.327 . S
C2861 C2865 1.429 . S
C2862 C2845 1.574 . S
C2862 H2856 0.949 . S
C2862 C2866 1.368 . S
C2863 C2844 1.429 . S
C2863 C2857 1.429 . S
C2863 C2864 1.523 . S
C2864 C2845 1.368 . S
C2864 C2858 1.368 . S
C2864 C2863 1.523 . S
C2865 C2849 1.429 . S
C2865 C2861 1.429 . S
C2865 C2866 1.523 . S
C2866 C2850 1.368 . S
C2866 C2862 1.368 . S
C2866 C2865 1.523 . S
H2867 C2842 0.950 . S
H2868 C2844 0.950 . S
H2869 C2845 0.949 . S
H2870 C2847 0.950 . S
H2871 C2849 0.950 . S
C2872 C2873 1.349 . S
C2872 C2874 1.327 . S
C2872 H2897 0.950 . S
C2873 C2872 1.349 . S
C2873 C2889 1.349 . S
C2874 C2872 1.327 . S
C2874 C2893 1.429 . S
C2874 H2898 0.950 . S
C2875 C2892 1.574 . S
C2875 C2894 1.368 . S
C2875 H2899 0.949 . S
H2876 C2880 0.949 . S
C2877 C2878 1.349 . S
C2877 C2879 1.327 . S
C2877 H2900 0.950 . S
C2878 C2877 1.349 . S
C2878 C2890 1.349 . S
C2879 C2877 1.327 . S
C2879 C2895 1.429 . S
C2879 H2901 0.950 . S
C2880 H2876 0.949 . S
C2880 C2888 1.574 . S
C2880 C2896 1.368 . S
H2881 C2889 0.950 . S
H2882 C2887 0.950 . S
H2883 C2888 0.949 . S
H2884 C2890 0.950 . S
H2885 C2891 0.950 . S
H2886 C2892 0.949 . S
C2887 H2882 0.950 . S
C2887 C2889 1.327 . S
C2887 C2893 1.429 . S
C2888 C2880 1.574 . S
C2888 H2883 0.949 . S
C2888 C2894 1.368 . S
C2889 C2873 1.349 . S
C2889 H2881 0.950 . S
C2889 C2887 1.327 . S
C2890 C2878 1.349 . S
C2890 H2884 0.950 . S
C2890 C2891 1.327 . S
C2891 H2885 0.950 . S
C2891 C2890 1.327 . S
C2891 C2895 1.429 . S
C2892 C2875 1.574 . S
C2892 H2886 0.949 . S
C2892 C2896 1.368 . S
C2893 C2874 1.429 . S
C2893 C2887 1.429 . S
C2893 C2894 1.523 . S
C2894 C2875 1.368 . S
C2894 C2888 1.368 . S
C2894 C2893 1.523 . S
C2895 C2879 1.429 . S
C2895 C2891 1.429 . S
C2895 C2896 1.523 . S
C2896 C2880 1.368 . S
C2896 C2892 1.368 . S
C2896 C2895 1.523 . S
H2897 C2872 0.950 . S
H2898 C2874 0.950 . S
H2899 C2875 0.949 . S
H2900 C2877 0.950 . S
H2901 C2879 0.950 . S
C2902 C2903 1.349 . S
C2902 C2904 1.327 . S
C2902 H2927 0.950 . S
C2903 C2902 1.349 . S
C2903 C2919 1.349 . S
C2904 C2902 1.327 . S
C2904 C2923 1.429 . S
C2904 H2928 0.950 . S
C2905 C2922 1.574 . S
C2905 C2924 1.368 . S
C2905 H2929 0.949 . S
H2906 C2910 0.949 . S
C2907 C2908 1.349 . S
C2907 C2909 1.327 . S
C2907 H2930 0.950 . S
C2908 C2907 1.349 . S
C2908 C2920 1.349 . S
C2909 C2907 1.327 . S
C2909 C2925 1.429 . S
C2909 H2931 0.950 . S
C2910 H2906 0.949 . S
C2910 C2918 1.574 . S
C2910 C2926 1.368 . S
H2911 C2919 0.950 . S
H2912 C2917 0.950 . S
H2913 C2918 0.949 . S
H2914 C2920 0.950 . S
H2915 C2921 0.950 . S
H2916 C2922 0.949 . S
C2917 H2912 0.950 . S
C2917 C2919 1.327 . S
C2917 C2923 1.429 . S
C2918 C2910 1.574 . S
C2918 H2913 0.949 . S
C2918 C2924 1.368 . S
C2919 C2903 1.349 . S
C2919 H2911 0.950 . S
C2919 C2917 1.327 . S
C2920 C2908 1.349 . S
C2920 H2914 0.950 . S
C2920 C2921 1.327 . S
C2921 H2915 0.950 . S
C2921 C2920 1.327 . S
C2921 C2925 1.429 . S
C2922 C2905 1.574 . S
C2922 H2916 0.949 . S
C2922 C2926 1.368 . S
C2923 C2904 1.429 . S
C2923 C2917 1.429 . S
C2923 C2924 1.523 . S
C2924 C2905 1.368 . S
C2924 C2918 1.368 . S
C2924 C2923 1.523 . S
C2925 C2909 1.429 . S
C2925 C2921 1.429 . S
C2925 C2926 1.523 . S
C2926 C2910 1.368 . S
C2926 C2922 1.368 . S
C2926 C2925 1.523 . S
H2927 C2902 0.950 . S
H2928 C2904 0.950 . S
H2929 C2905 0.949 . S
H2930 C2907 0.950 . S
H2931 C2909 0.950 . S
C2932 C2933 1.349 . S
C2932 C2934 1.327 . S
C2932 H2957 0.950 . S
C2933 C2932 1.349 . S
C2933 C2949 1.349 . S
C2934 C2932 1.327 . S
C2934 C2953 1.429 . S
C2934 H2958 0.950 . S
C2935 C2952 1.574 . S
C2935 C2954 1.368 . S
C2935 H2959 0.949 . S
H2936 C2940 0.949 . S
C2937 C2938 1.349 . S
C2937 C2939 1.327 . S
C2937 H2960 0.950 . S
C2938 C2937 1.349 . S
C2938 C2950 1.349 . S
C2939 C2937 1.327 . S
C2939 C2955 1.429 . S
C2939 H2961 0.950 . S
C2940 H2936 0.949 . S
C2940 C2948 1.574 . S
C2940 C2956 1.368 . S
H2941 C2949 0.950 . S
H2942 C2947 0.950 . S
H2943 C2948 0.949 . S
H2944 C2950 0.950 . S
H2945 C2951 0.950 . S
H2946 C2952 0.949 . S
C2947 H2942 0.950 . S
C2947 C2949 1.327 . S
C2947 C2953 1.429 . S
C2948 C2940 1.574 . S
C2948 H2943 0.949 . S
C2948 C2954 1.368 . S
C2949 C2933 1.349 . S
C2949 H2941 0.950 . S
C2949 C2947 1.327 . S
C2950 C2938 1.349 . S
C2950 H2944 0.950 . S
C2950 C2951 1.327 . S
C2951 H2945 0.950 . S
C2951 C2950 1.327 . S
C2951 C2955 1.429 . S
C2952 C2935 1.574 . S
C2952 H2946 0.949 . S
C2952 C2956 1.368 . S
C2953 C2934 1.429 . S
C2953 C2947 1.429 . S
C2953 C2954 1.523 . S
C2954 C2935 1.368 . S
C2954 C2948 1.368 . S
C2954 C2953 1.523 . S
C2955 C2939 1.429 . S
C2955 C2951 1.429 . S
C2955 C2956 1.523 . S
C2956 C2940 1.368 . S
C2956 C2952 1.368 . S
C2956 C2955 1.523 . S
H2957 C2932 0.950 . S
H2958 C2934 0.950 . S
H2959 C2935 0.949 . S
H2960 C2937 0.950 . S
H2961 C2939 0.950 . S
C2962 C2963 1.349 . S
C2962 C2964 1.327 . S
C2962 H2987 0.950 1_554 S
C2963 C2962 1.349 . S
C2963 C2979 1.349 . S
C2964 C2962 1.327 . S
C2964 C2983 1.429 . S
C2964 H2988 0.950 1_554 S
C2965 C2982 1.574 . S
C2965 C2984 1.368 . S
C2965 H2989 0.949 . S
H2966 C2970 0.943 . S
C2967 C2968 1.349 . S
C2967 C2969 1.327 1_545 S
C2967 H2990 0.950 . S
C2968 C2967 1.349 . S
C2968 C2980 1.335 1_554 S
C2969 C2967 1.327 1_565 S
C2969 C2985 1.429 . S
C2969 H2991 0.950 . S
C2970 H2966 0.943 . S
C2970 C2978 1.569 1_556 S
C2970 C2986 1.374 1_556 S
H2971 C2979 0.950 . S
H2972 C2977 0.950 . S
H2973 C2978 0.926 1_556 S
H2974 C2980 0.967 . S
H2975 C2981 0.958 . S
H2976 C2982 0.949 . S
C2977 H2972 0.950 . S
C2977 C2979 1.327 . S
C2977 C2983 1.429 . S
C2978 C2970 1.569 1_554 S
C2978 H2973 0.926 1_554 S
C2978 C2984 1.401 . S
C2979 C2963 1.349 . S
C2979 H2971 0.950 . S
C2979 C2977 1.327 . S
C2980 C2968 1.335 1_556 S
C2980 H2974 0.967 . S
C2980 C2981 1.326 . S
C2981 H2975 0.958 . S
C2981 C2980 1.326 . S
C2981 C2985 1.418 1_546 S
C2982 C2965 1.574 . S
C2982 H2976 0.949 . S
C2982 C2986 1.368 . S
C2983 C2964 1.429 . S
C2983 C2977 1.429 . S
C2983 C2984 1.523 . S
C2984 C2965 1.368 . S
C2984 C2978 1.401 . S
C2984 C2983 1.523 . S
C2985 C2969 1.429 . S
C2985 C2981 1.418 1_564 S
C2985 C2986 1.523 . S
C2986 C2970 1.374 1_554 S
C2986 C2982 1.368 . S
C2986 C2985 1.523 . S
H2987 C2962 0.950 1_556 S
H2988 C2964 0.950 1_556 S
H2989 C2965 0.949 . S
H2990 C2967 0.950 . S
H2991 C2969 0.950 . S
C2992 C2993 1.349 . S
C2992 C2994 1.327 . S
C2992 H3017 0.950 . S
C2993 C2992 1.349 . S
C2993 C3009 1.349 . S
C2994 C2992 1.327 . S
C2994 C3013 1.429 . S
C2994 H3018 0.950 . S
C2995 C3012 1.574 . S
C2995 C3014 1.368 . S
C2995 H3019 0.949 . S
H2996 C3000 0.949 . S
C2997 C2998 1.349 . S
C2997 C2999 1.327 . S
C2997 H3020 0.950 . S
C2998 C2997 1.349 . S
C2998 C3010 1.349 . S
C2999 C2997 1.327 . S
C2999 C3015 1.429 . S
C2999 H3021 0.950 . S
C3000 H2996 0.949 . S
C3000 C3008 1.574 . S
C3000 C3016 1.368 . S
H3001 C3009 0.950 . S
H3002 C3007 0.950 . S
H3003 C3008 0.949 . S
H3004 C3010 0.950 . S
H3005 C3011 0.950 . S
H3006 C3012 0.949 . S
C3007 H3002 0.950 . S
C3007 C3009 1.327 . S
C3007 C3013 1.429 . S
C3008 C3000 1.574 . S
C3008 H3003 0.949 . S
C3008 C3014 1.368 . S
C3009 C2993 1.349 . S
C3009 H3001 0.950 . S
C3009 C3007 1.327 . S
C3010 C2998 1.349 . S
C3010 H3004 0.950 . S
C3010 C3011 1.327 . S
C3011 H3005 0.950 . S
C3011 C3010 1.327 . S
C3011 C3015 1.429 . S
C3012 C2995 1.574 . S
C3012 H3006 0.949 . S
C3012 C3016 1.368 . S
C3013 C2994 1.429 . S
C3013 C3007 1.429 . S
C3013 C3014 1.523 . S
C3014 C2995 1.368 . S
C3014 C3008 1.368 . S
C3014 C3013 1.523 . S
C3015 C2999 1.429 . S
C3015 C3011 1.429 . S
C3015 C3016 1.523 . S
C3016 C3000 1.368 . S
C3016 C3012 1.368 . S
C3016 C3015 1.523 . S
H3017 C2992 0.950 . S
H3018 C2994 0.950 . S
H3019 C2995 0.949 . S
H3020 C2997 0.950 . S
H3021 C2999 0.950 . S
C3022 C3023 1.349 . S
C3022 C3024 1.327 . S
C3022 H3047 0.950 . S
C3023 C3022 1.349 . S
C3023 C3039 1.349 1_554 S
C3024 C3022 1.327 . S
C3024 C3043 1.429 . S
C3024 H3048 0.950 . S
C3025 C3042 1.574 . S
C3025 C3044 1.368 . S
C3025 H3049 0.949 1_554 S
H3026 C3030 0.949 . S
C3027 C3028 1.349 . S
C3027 C3029 1.327 . S
C3027 H3050 0.950 . S
C3028 C3027 1.349 . S
C3028 C3040 1.349 . S
C3029 C3027 1.327 . S
C3029 C3045 1.429 . S
C3029 H3051 0.950 . S
C3030 H3026 0.949 . S
C3030 C3038 1.574 . S
C3030 C3046 1.368 . S
H3031 C3039 0.950 . S
H3032 C3037 0.950 . S
H3033 C3038 0.949 . S
H3034 C3040 0.950 . S
H3035 C3041 0.950 . S
H3036 C3042 0.949 1_556 S
C3037 H3032 0.950 . S
C3037 C3039 1.327 . S
C3037 C3043 1.429 1_556 S
C3038 C3030 1.574 . S
C3038 H3033 0.949 . S
C3038 C3044 1.368 . S
C3039 C3023 1.349 1_556 S
C3039 H3031 0.950 . S
C3039 C3037 1.327 . S
C3040 C3028 1.349 . S
C3040 H3034 0.950 . S
C3040 C3041 1.327 . S
C3041 H3035 0.950 . S
C3041 C3040 1.327 . S
C3041 C3045 1.429 . S
C3042 C3025 1.574 . S
C3042 H3036 0.949 1_554 S
C3042 C3046 1.368 . S
C3043 C3024 1.429 . S
C3043 C3037 1.429 1_554 S
C3043 C3044 1.523 . S
C3044 C3025 1.368 . S
C3044 C3038 1.368 . S
C3044 C3043 1.523 . S
C3045 C3029 1.429 . S
C3045 C3041 1.429 . S
C3045 C3046 1.523 . S
C3046 C3030 1.368 . S
C3046 C3042 1.368 . S
C3046 C3045 1.523 . S
H3047 C3022 0.950 . S
H3048 C3024 0.950 . S
H3049 C3025 0.949 1_556 S
H3050 C3027 0.950 . S
H3051 C3029 0.950 . S
C3052 C3053 1.349 . S
C3052 C3054 1.327 . S
C3052 H3077 0.950 . S
C3053 C3052 1.349 . S
C3053 C3069 1.349 . S
C3054 C3052 1.327 . S
C3054 C3073 1.429 . S
C3054 H3078 0.950 . S
C3055 C3072 1.574 . S
C3055 C3074 1.368 . S
C3055 H3079 0.949 . S
H3056 C3060 0.949 . S
C3057 C3058 1.349 . S
C3057 C3059 1.327 . S
C3057 H3080 0.950 . S
C3058 C3057 1.349 . S
C3058 C3070 1.349 . S
C3059 C3057 1.327 . S
C3059 C3075 1.429 . S
C3059 H3081 0.950 . S
C3060 H3056 0.949 . S
C3060 C3068 1.574 . S
C3060 C3076 1.368 . S
H3061 C3069 0.950 . S
H3062 C3067 0.950 . S
H3063 C3068 0.949 . S
H3064 C3070 0.950 . S
H3065 C3071 0.950 . S
H3066 C3072 0.949 . S
C3067 H3062 0.950 . S
C3067 C3069 1.327 . S
C3067 C3073 1.429 . S
C3068 C3060 1.574 . S
C3068 H3063 0.949 . S
C3068 C3074 1.368 . S
C3069 C3053 1.349 . S
C3069 H3061 0.950 . S
C3069 C3067 1.327 . S
C3070 C3058 1.349 . S
C3070 H3064 0.950 . S
C3070 C3071 1.327 . S
C3071 H3065 0.950 . S
C3071 C3070 1.327 . S
C3071 C3075 1.429 . S
C3072 C3055 1.574 . S
C3072 H3066 0.949 . S
C3072 C3076 1.368 . S
C3073 C3054 1.429 . S
C3073 C3067 1.429 . S
C3073 C3074 1.523 . S
C3074 C3055 1.368 . S
C3074 C3068 1.368 . S
C3074 C3073 1.523 . S
C3075 C3059 1.429 . S
C3075 C3071 1.429 . S
C3075 C3076 1.523 . S
C3076 C3060 1.368 . S
C3076 C3072 1.368 . S
C3076 C3075 1.523 . S
H3077 C3052 0.950 . S
H3078 C3054 0.950 . S
H3079 C3055 0.949 . S
H3080 C3057 0.950 . S
H3081 C3059 0.950 . S
C3082 C3083 1.349 . S
C3082 C3084 1.327 . S
C3082 H3107 0.950 . S
C3083 C3082 1.349 . S
C3083 C3099 1.349 . S
C3084 C3082 1.327 . S
C3084 C3103 1.429 . S
C3084 H3108 0.950 . S
C3085 C3102 1.574 . S
C3085 C3104 1.368 . S
C3085 H3109 0.949 . S
H3086 C3090 0.949 . S
C3087 C3088 1.349 . S
C3087 C3089 1.327 . S
C3087 H3110 0.950 . S
C3088 C3087 1.349 . S
C3088 C3100 1.349 . S
C3089 C3087 1.327 . S
C3089 C3105 1.429 . S
C3089 H3111 0.950 . S
C3090 H3086 0.949 . S
C3090 C3098 1.574 . S
C3090 C3106 1.368 . S
H3091 C3099 0.950 . S
H3092 C3097 0.950 . S
H3093 C3098 0.949 . S
H3094 C3100 0.950 . S
H3095 C3101 0.950 . S
H3096 C3102 0.949 . S
C3097 H3092 0.950 . S
C3097 C3099 1.327 . S
C3097 C3103 1.429 . S
C3098 C3090 1.574 . S
C3098 H3093 0.949 . S
C3098 C3104 1.368 . S
C3099 C3083 1.349 . S
C3099 H3091 0.950 . S
C3099 C3097 1.327 . S
C3100 C3088 1.349 . S
C3100 H3094 0.950 . S
C3100 C3101 1.327 . S
C3101 H3095 0.950 . S
C3101 C3100 1.327 . S
C3101 C3105 1.429 . S
C3102 C3085 1.574 . S
C3102 H3096 0.949 . S
C3102 C3106 1.368 . S
C3103 C3084 1.429 . S
C3103 C3097 1.429 . S
C3103 C3104 1.523 . S
C3104 C3085 1.368 . S
C3104 C3098 1.368 . S
C3104 C3103 1.523 . S
C3105 C3089 1.429 . S
C3105 C3101 1.429 . S
C3105 C3106 1.523 . S
C3106 C3090 1.368 . S
C3106 C3102 1.368 . S
C3106 C3105 1.523 . S
H3107 C3082 0.950 . S
H3108 C3084 0.950 . S
H3109 C3085 0.949 . S
H3110 C3087 0.950 . S
H3111 C3089 0.950 . S
C3112 C3113 1.349 . S
C3112 C3114 1.327 . S
C3112 H3137 0.950 . S
C3113 C3112 1.349 . S
C3113 C3129 1.349 . S
C3114 C3112 1.327 . S
C3114 C3133 1.429 . S
C3114 H3138 0.950 . S
C3115 C3132 1.574 . S
C3115 C3134 1.368 . S
C3115 H3139 0.949 . S
H3116 C3120 0.949 . S
C3117 C3118 1.349 . S
C3117 C3119 1.327 . S
C3117 H3140 0.950 . S
C3118 C3117 1.349 . S
C3118 C3130 1.349 . S
C3119 C3117 1.327 . S
C3119 C3135 1.429 . S
C3119 H3141 0.950 . S
C3120 H3116 0.949 . S
C3120 C3128 1.574 . S
C3120 C3136 1.368 . S
H3121 C3129 0.950 . S
H3122 C3127 0.950 . S
H3123 C3128 0.949 . S
H3124 C3130 0.950 . S
H3125 C3131 0.950 . S
H3126 C3132 0.949 . S
C3127 H3122 0.950 . S
C3127 C3129 1.327 . S
C3127 C3133 1.429 . S
C3128 C3120 1.574 . S
C3128 H3123 0.949 . S
C3128 C3134 1.368 . S
C3129 C3113 1.349 . S
C3129 H3121 0.950 . S
C3129 C3127 1.327 . S
C3130 C3118 1.349 . S
C3130 H3124 0.950 . S
C3130 C3131 1.327 . S
C3131 H3125 0.950 . S
C3131 C3130 1.327 . S
C3131 C3135 1.429 . S
C3132 C3115 1.574 . S
C3132 H3126 0.949 . S
C3132 C3136 1.368 . S
C3133 C3114 1.429 . S
C3133 C3127 1.429 . S
C3133 C3134 1.523 . S
C3134 C3115 1.368 . S
C3134 C3128 1.368 . S
C3134 C3133 1.523 . S
C3135 C3119 1.429 . S
C3135 C3131 1.429 . S
C3135 C3136 1.523 . S
C3136 C3120 1.368 . S
C3136 C3132 1.368 . S
C3136 C3135 1.523 . S
H3137 C3112 0.950 . S
H3138 C3114 0.950 . S
H3139 C3115 0.949 . S
H3140 C3117 0.950 . S
H3141 C3119 0.950 . S
C3142 C3143 1.349 . S
C3142 C3144 1.327 . S
C3142 H3167 0.950 . S
C3143 C3142 1.349 . S
C3143 C3159 1.349 . S
C3144 C3142 1.327 . S
C3144 C3163 1.429 . S
C3144 H3168 0.950 . S
C3145 C3162 1.574 . S
C3145 C3164 1.368 . S
C3145 H3169 0.949 . S
H3146 C3150 0.949 . S
C3147 C3148 1.349 . S
C3147 C3149 1.327 . S
C3147 H3170 0.950 . S
C3148 C3147 1.349 . S
C3148 C3160 1.349 . S
C3149 C3147 1.327 . S
C3149 C3165 1.429 . S
C3149 H3171 0.950 . S
C3150 H3146 0.949 . S
C3150 C3158 1.574 . S
C3150 C3166 1.368 . S
H3151 C3159 0.950 . S
H3152 C3157 0.950 . S
H3153 C3158 0.949 . S
H3154 C3160 0.950 . S
H3155 C3161 0.950 . S
H3156 C3162 0.949 . S
C3157 H3152 0.950 . S
C3157 C3159 1.327 . S
C3157 C3163 1.429 . S
C3158 C3150 1.574 . S
C3158 H3153 0.949 . S
C3158 C3164 1.368 . S
C3159 C3143 1.349 . S
C3159 H3151 0.950 . S
C3159 C3157 1.327 . S
C3160 C3148 1.349 . S
C3160 H3154 0.950 . S
C3160 C3161 1.327 . S
C3161 H3155 0.950 . S
C3161 C3160 1.327 . S
C3161 C3165 1.429 . S
C3162 C3145 1.574 . S
C3162 H3156 0.949 . S
C3162 C3166 1.368 . S
C3163 C3144 1.429 . S
C3163 C3157 1.429 . S
C3163 C3164 1.523 . S
C3164 C3145 1.368 . S
C3164 C3158 1.368 . S
C3164 C3163 1.523 . S
C3165 C3149 1.429 . S
C3165 C3161 1.429 . S
C3165 C3166 1.523 . S
C3166 C3150 1.368 . S
C3166 C3162 1.368 . S
C3166 C3165 1.523 . S
H3167 C3142 0.950 . S
H3168 C3144 0.950 . S
H3169 C3145 0.949 . S
H3170 C3147 0.950 . S
H3171 C3149 0.950 . S
C3172 C3173 1.349 . S
C3172 C3174 1.327 . S
C3172 H3197 0.950 . S
C3173 C3172 1.349 . S
C3173 C3189 1.349 . S
C3174 C3172 1.327 . S
C3174 C3193 1.429 . S
C3174 H3198 0.950 . S
C3175 C3192 1.574 . S
C3175 C3194 1.368 . S
C3175 H3199 0.949 . S
H3176 C3180 0.949 . S
C3177 C3178 1.349 . S
C3177 C3179 1.327 . S
C3177 H3200 0.950 1_554 S
C3178 C3177 1.349 . S
C3178 C3190 1.349 . S
C3179 C3177 1.327 . S
C3179 C3195 1.429 . S
C3179 H3201 0.950 . S
C3180 H3176 0.949 . S
C3180 C3188 1.574 . S
C3180 C3196 1.368 . S
H3181 C3189 0.950 . S
H3182 C3187 0.950 . S
H3183 C3188 0.949 . S
H3184 C3190 0.950 . S
H3185 C3191 0.950 . S
H3186 C3192 0.949 . S
C3187 H3182 0.950 . S
C3187 C3189 1.327 . S
C3187 C3193 1.429 . S
C3188 C3180 1.574 . S
C3188 H3183 0.949 . S
C3188 C3194 1.368 . S
C3189 C3173 1.349 . S
C3189 H3181 0.950 . S
C3189 C3187 1.327 . S
C3190 C3178 1.349 . S
C3190 H3184 0.950 . S
C3190 C3191 1.327 . S
C3191 H3185 0.950 . S
C3191 C3190 1.327 . S
C3191 C3195 1.429 . S
C3192 C3175 1.574 . S
C3192 H3186 0.949 . S
C3192 C3196 1.368 . S
C3193 C3174 1.429 . S
C3193 C3187 1.429 . S
C3193 C3194 1.523 . S
C3194 C3175 1.368 . S
C3194 C3188 1.368 . S
C3194 C3193 1.523 . S
C3195 C3179 1.429 . S
C3195 C3191 1.429 . S
C3195 C3196 1.523 . S
C3196 C3180 1.368 . S
C3196 C3192 1.368 . S
C3196 C3195 1.523 . S
H3197 C3172 0.950 . S
H3198 C3174 0.950 . S
H3199 C3175 0.949 . S
H3200 C3177 0.950 1_556 S
H3201 C3179 0.950 . S
C3202 C3203 1.349 . S
C3202 C3204 1.327 . S
C3202 H3227 0.950 . S
C3203 C3202 1.349 . S
C3203 C3219 1.349 . S
C3204 C3202 1.327 . S
C3204 C3223 1.429 . S
C3204 H3228 0.950 . S
C3205 C3222 1.574 . S
C3205 C3224 1.368 . S
C3205 H3229 0.949 . S
H3206 C3210 0.949 . S
C3207 C3208 1.349 . S
C3207 C3209 1.327 . S
C3207 H3230 0.950 . S
C3208 C3207 1.349 . S
C3208 C3220 1.349 . S
C3209 C3207 1.327 . S
C3209 C3225 1.429 . S
C3209 H3231 0.950 . S
C3210 H3206 0.949 . S
C3210 C3218 1.574 . S
C3210 C3226 1.368 . S
H3211 C3219 0.950 . S
H3212 C3217 0.950 . S
H3213 C3218 0.949 . S
H3214 C3220 0.950 . S
H3215 C3221 0.950 . S
H3216 C3222 0.949 . S
C3217 H3212 0.950 . S
C3217 C3219 1.327 . S
C3217 C3223 1.429 . S
C3218 C3210 1.574 . S
C3218 H3213 0.949 . S
C3218 C3224 1.368 . S
C3219 C3203 1.349 . S
C3219 H3211 0.950 . S
C3219 C3217 1.327 . S
C3220 C3208 1.349 . S
C3220 H3214 0.950 . S
C3220 C3221 1.327 . S
C3221 H3215 0.950 . S
C3221 C3220 1.327 . S
C3221 C3225 1.429 . S
C3222 C3205 1.574 . S
C3222 H3216 0.949 . S
C3222 C3226 1.368 . S
C3223 C3204 1.429 . S
C3223 C3217 1.429 . S
C3223 C3224 1.523 . S
C3224 C3205 1.368 . S
C3224 C3218 1.368 . S
C3224 C3223 1.523 . S
C3225 C3209 1.429 . S
C3225 C3221 1.429 . S
C3225 C3226 1.523 . S
C3226 C3210 1.368 . S
C3226 C3222 1.368 . S
C3226 C3225 1.523 . S
H3227 C3202 0.950 . S
H3228 C3204 0.950 . S
H3229 C3205 0.949 . S
H3230 C3207 0.950 . S
H3231 C3209 0.950 . S
C3232 C3233 1.349 . S
C3232 C3234 1.327 . S
C3232 H3257 0.950 . S
C3233 C3232 1.349 . S
C3233 C3249 1.349 . S
C3234 C3232 1.327 . S
C3234 C3253 1.429 . S
C3234 H3258 0.950 . S
C3235 C3252 1.574 . S
C3235 C3254 1.368 . S
C3235 H3259 0.949 . S
H3236 C3240 0.949 . S
C3237 C3238 1.349 . S
C3237 C3239 1.327 . S
C3237 H3260 0.950 . S
C3238 C3237 1.349 . S
C3238 C3250 1.349 . S
C3239 C3237 1.327 . S
C3239 C3255 1.429 . S
C3239 H3261 0.950 . S
C3240 H3236 0.949 . S
C3240 C3248 1.574 . S
C3240 C3256 1.368 . S
H3241 C3249 0.950 . S
H3242 C3247 0.950 . S
H3243 C3248 0.949 . S
H3244 C3250 0.950 . S
H3245 C3251 0.950 . S
H3246 C3252 0.949 . S
C3247 H3242 0.950 . S
C3247 C3249 1.327 . S
C3247 C3253 1.429 . S
C3248 C3240 1.574 . S
C3248 H3243 0.949 . S
C3248 C3254 1.368 . S
C3249 C3233 1.349 . S
C3249 H3241 0.950 . S
C3249 C3247 1.327 . S
C3250 C3238 1.349 . S
C3250 H3244 0.950 . S
C3250 C3251 1.327 . S
C3251 H3245 0.950 . S
C3251 C3250 1.327 . S
C3251 C3255 1.429 . S
C3252 C3235 1.574 . S
C3252 H3246 0.949 . S
C3252 C3256 1.368 . S
C3253 C3234 1.429 . S
C3253 C3247 1.429 . S
C3253 C3254 1.523 . S
C3254 C3235 1.368 . S
C3254 C3248 1.368 . S
C3254 C3253 1.523 . S
C3255 C3239 1.429 . S
C3255 C3251 1.429 . S
C3255 C3256 1.523 . S
C3256 C3240 1.368 . S
C3256 C3252 1.368 . S
C3256 C3255 1.523 . S
H3257 C3232 0.950 . S
H3258 C3234 0.950 . S
H3259 C3235 0.949 . S
H3260 C3237 0.950 . S
H3261 C3239 0.950 . S
C3262 C3263 1.349 . S
C3262 C3264 1.327 . S
C3262 H3287 0.950 . S
C3263 C3262 1.349 . S
C3263 C3279 1.349 . S
C3264 C3262 1.327 . S
C3264 C3283 1.429 . S
C3264 H3288 0.950 . S
C3265 C3282 1.574 . S
C3265 C3284 1.368 . S
C3265 H3289 0.949 . S
H3266 C3270 0.949 . S
C3267 C3268 1.349 . S
C3267 C3269 1.327 . S
C3267 H3290 0.950 . S
C3268 C3267 1.349 . S
C3268 C3280 1.349 . S
C3269 C3267 1.327 . S
C3269 C3285 1.429 . S
C3269 H3291 0.950 . S
C3270 H3266 0.949 . S
C3270 C3278 1.574 . S
C3270 C3286 1.368 . S
H3271 C3279 0.950 . S
H3272 C3277 0.950 . S
H3273 C3278 0.949 . S
H3274 C3280 0.950 . S
H3275 C3281 0.950 . S
H3276 C3282 0.949 . S
C3277 H3272 0.950 . S
C3277 C3279 1.327 . S
C3277 C3283 1.429 . S
C3278 C3270 1.574 . S
C3278 H3273 0.949 . S
C3278 C3284 1.368 . S
C3279 C3263 1.349 . S
C3279 H3271 0.950 . S
C3279 C3277 1.327 . S
C3280 C3268 1.349 . S
C3280 H3274 0.950 . S
C3280 C3281 1.327 . S
C3281 H3275 0.950 . S
C3281 C3280 1.327 . S
C3281 C3285 1.429 . S
C3282 C3265 1.574 . S
C3282 H3276 0.949 . S
C3282 C3286 1.368 . S
C3283 C3264 1.429 . S
C3283 C3277 1.429 . S
C3283 C3284 1.523 . S
C3284 C3265 1.368 . S
C3284 C3278 1.368 . S
C3284 C3283 1.523 . S
C3285 C3269 1.429 . S
C3285 C3281 1.429 . S
C3285 C3286 1.523 . S
C3286 C3270 1.368 . S
C3286 C3282 1.368 . S
C3286 C3285 1.523 . S
H3287 C3262 0.950 . S
H3288 C3264 0.950 . S
H3289 C3265 0.949 . S
H3290 C3267 0.950 . S
H3291 C3269 0.950 . S
C3292 C3293 1.349 . S
C3292 C3294 1.327 . S
C3292 H3317 0.950 . S
C3293 C3292 1.349 . S
C3293 C3309 1.349 . S
C3294 C3292 1.327 . S
C3294 C3313 1.429 . S
C3294 H3318 0.950 . S
C3295 C3312 1.574 . S
C3295 C3314 1.368 . S
C3295 H3319 0.949 . S
H3296 C3300 0.949 . S
C3297 C3298 1.349 . S
C3297 C3299 1.327 . S
C3297 H3320 0.950 . S
C3298 C3297 1.349 . S
C3298 C3310 1.349 . S
C3299 C3297 1.327 . S
C3299 C3315 1.429 . S
C3299 H3321 0.950 . S
C3300 H3296 0.949 . S
C3300 C3308 1.574 . S
C3300 C3316 1.368 . S
H3301 C3309 0.950 . S
H3302 C3307 0.950 . S
H3303 C3308 0.949 . S
H3304 C3310 0.950 . S
H3305 C3311 0.950 . S
H3306 C3312 0.949 . S
C3307 H3302 0.950 . S
C3307 C3309 1.327 . S
C3307 C3313 1.429 . S
C3308 C3300 1.574 . S
C3308 H3303 0.949 . S
C3308 C3314 1.368 . S
C3309 C3293 1.349 . S
C3309 H3301 0.950 . S
C3309 C3307 1.327 . S
C3310 C3298 1.349 . S
C3310 H3304 0.950 . S
C3310 C3311 1.327 . S
C3311 H3305 0.950 . S
C3311 C3310 1.327 . S
C3311 C3315 1.429 . S
C3312 C3295 1.574 . S
C3312 H3306 0.949 . S
C3312 C3316 1.368 . S
C3313 C3294 1.429 . S
C3313 C3307 1.429 . S
C3313 C3314 1.523 . S
C3314 C3295 1.368 . S
C3314 C3308 1.368 . S
C3314 C3313 1.523 . S
C3315 C3299 1.429 . S
C3315 C3311 1.429 . S
C3315 C3316 1.523 . S
C3316 C3300 1.368 . S
C3316 C3312 1.368 . S
C3316 C3315 1.523 . S
H3317 C3292 0.950 . S
H3318 C3294 0.950 . S
H3319 C3295 0.949 . S
H3320 C3297 0.950 . S
H3321 C3299 0.950 . S
C3322 C3323 1.349 . S
C3322 C3324 1.327 . S
C3322 H3347 0.950 . S
C3323 C3322 1.349 . S
C3323 C3339 1.349 . S
C3324 C3322 1.327 . S
C3324 C3343 1.429 . S
C3324 H3348 0.950 . S
C3325 C3342 1.574 . S
C3325 C3344 1.368 . S
C3325 H3349 0.949 . S
H3326 C3330 0.949 . S
C3327 C3328 1.349 . S
C3327 C3329 1.327 . S
C3327 H3350 0.950 . S
C3328 C3327 1.349 . S
C3328 C3340 1.349 . S
C3329 C3327 1.327 . S
C3329 C3345 1.429 . S
C3329 H3351 0.950 . S
C3330 H3326 0.949 . S
C3330 C3338 1.574 . S
C3330 C3346 1.368 . S
H3331 C3339 0.950 . S
H3332 C3337 0.950 . S
H3333 C3338 0.949 . S
H3334 C3340 0.950 . S
H3335 C3341 0.950 . S
H3336 C3342 0.949 . S
C3337 H3332 0.950 . S
C3337 C3339 1.327 . S
C3337 C3343 1.429 . S
C3338 C3330 1.574 . S
C3338 H3333 0.949 . S
C3338 C3344 1.368 . S
C3339 C3323 1.349 . S
C3339 H3331 0.950 . S
C3339 C3337 1.327 . S
C3340 C3328 1.349 . S
C3340 H3334 0.950 . S
C3340 C3341 1.327 . S
C3341 H3335 0.950 . S
C3341 C3340 1.327 . S
C3341 C3345 1.429 . S
C3342 C3325 1.574 . S
C3342 H3336 0.949 . S
C3342 C3346 1.368 . S
C3343 C3324 1.429 . S
C3343 C3337 1.429 . S
C3343 C3344 1.523 . S
C3344 C3325 1.368 . S
C3344 C3338 1.368 . S
C3344 C3343 1.523 . S
C3345 C3329 1.429 . S
C3345 C3341 1.429 . S
C3345 C3346 1.523 . S
C3346 C3330 1.368 . S
C3346 C3342 1.368 . S
C3346 C3345 1.523 . S
H3347 C3322 0.950 . S
H3348 C3324 0.950 . S
H3349 C3325 0.949 . S
H3350 C3327 0.950 . S
H3351 C3329 0.950 . S
C3352 C3353 1.349 . S
C3352 C3354 1.327 . S
C3352 H3377 0.950 . S
C3353 C3352 1.349 . S
C3353 C3369 1.349 . S
C3354 C3352 1.327 . S
C3354 C3373 1.429 . S
C3354 H3378 0.950 . S
C3355 C3372 1.574 . S
C3355 C3374 1.368 . S
C3355 H3379 0.949 . S
H3356 C3360 0.949 . S
C3357 C3358 1.349 . S
C3357 C3359 1.327 . S
C3357 H3380 0.950 . S
C3358 C3357 1.349 . S
C3358 C3370 1.349 . S
C3359 C3357 1.327 . S
C3359 C3375 1.429 . S
C3359 H3381 0.950 . S
C3360 H3356 0.949 . S
C3360 C3368 1.574 . S
C3360 C3376 1.368 . S
H3361 C3369 0.950 . S
H3362 C3367 0.950 . S
H3363 C3368 0.949 . S
H3364 C3370 0.950 . S
H3365 C3371 0.950 . S
H3366 C3372 0.949 . S
C3367 H3362 0.950 . S
C3367 C3369 1.327 . S
C3367 C3373 1.429 . S
C3368 C3360 1.574 . S
C3368 H3363 0.949 . S
C3368 C3374 1.368 . S
C3369 C3353 1.349 . S
C3369 H3361 0.950 . S
C3369 C3367 1.327 . S
C3370 C3358 1.349 . S
C3370 H3364 0.950 . S
C3370 C3371 1.327 . S
C3371 H3365 0.950 . S
C3371 C3370 1.327 . S
C3371 C3375 1.429 . S
C3372 C3355 1.574 . S
C3372 H3366 0.949 . S
C3372 C3376 1.368 . S
C3373 C3354 1.429 . S
C3373 C3367 1.429 . S
C3373 C3374 1.523 . S
C3374 C3355 1.368 . S
C3374 C3368 1.368 . S
C3374 C3373 1.523 . S
C3375 C3359 1.429 . S
C3375 C3371 1.429 . S
C3375 C3376 1.523 . S
C3376 C3360 1.368 . S
C3376 C3372 1.368 . S
C3376 C3375 1.523 . S
H3377 C3352 0.950 . S
H3378 C3354 0.950 . S
H3379 C3355 0.949 . S
H3380 C3357 0.950 . S
H3381 C3359 0.950 . S
C3382 C3383 1.349 . S
C3382 C3384 1.327 . S
C3382 H3407 0.950 . S
C3383 C3382 1.349 . S
C3383 C3399 1.349 . S
C3384 C3382 1.327 . S
C3384 C3403 1.429 . S
C3384 H3408 0.950 . S
C3385 C3402 1.574 . S
C3385 C3404 1.368 . S
C3385 H3409 0.949 . S
H3386 C3390 0.949 . S
C3387 C3388 1.349 . S
C3387 C3389 1.327 . S
C3387 H3410 0.950 . S
C3388 C3387 1.349 . S
C3388 C3400 1.349 . S
C3389 C3387 1.327 . S
C3389 C3405 1.429 . S
C3389 H3411 0.950 . S
C3390 H3386 0.949 . S
C3390 C3398 1.574 . S
C3390 C3406 1.368 . S
H3391 C3399 0.950 . S
H3392 C3397 0.950 . S
H3393 C3398 0.949 . S
H3394 C3400 0.950 . S
H3395 C3401 0.950 . S
H3396 C3402 0.949 . S
C3397 H3392 0.950 . S
C3397 C3399 1.327 . S
C3397 C3403 1.429 . S
C3398 C3390 1.574 . S
C3398 H3393 0.949 . S
C3398 C3404 1.368 . S
C3399 C3383 1.349 . S
C3399 H3391 0.950 . S
C3399 C3397 1.327 . S
C3400 C3388 1.349 . S
C3400 H3394 0.950 . S
C3400 C3401 1.327 . S
C3401 H3395 0.950 . S
C3401 C3400 1.327 . S
C3401 C3405 1.429 . S
C3402 C3385 1.574 . S
C3402 H3396 0.949 . S
C3402 C3406 1.368 . S
C3403 C3384 1.429 . S
C3403 C3397 1.429 . S
C3403 C3404 1.523 . S
C3404 C3385 1.368 . S
C3404 C3398 1.368 . S
C3404 C3403 1.523 . S
C3405 C3389 1.429 . S
C3405 C3401 1.429 . S
C3405 C3406 1.523 . S
C3406 C3390 1.368 . S
C3406 C3402 1.368 . S
C3406 C3405 1.523 . S
H3407 C3382 0.950 . S
H3408 C3384 0.950 . S
H3409 C3385 0.949 . S
H3410 C3387 0.950 . S
H3411 C3389 0.950 . S
C3412 C3413 1.349 . S
C3412 C3414 1.327 . S
C3412 H3437 0.950 . S
C3413 C3412 1.349 . S
C3413 C3429 1.349 . S
C3414 C3412 1.327 . S
C3414 C3433 1.429 . S
C3414 H3438 0.950 . S
C3415 C3432 1.574 . S
C3415 C3434 1.368 . S
C3415 H3439 0.949 . S
H3416 C3420 0.970 . S
C3417 C3418 1.349 . S
C3417 C3419 1.352 . S
C3417 H3440 0.950 . S
C3418 C3417 1.349 . S
C3418 C3430 1.349 . S
C3419 C3417 1.352 . S
C3419 C3435 1.427 . S
C3419 H3441 0.912 1_455 S
C3420 H3416 0.970 . S
C3420 C3428 1.574 . S
C3420 C3436 1.368 . S
H3421 C3429 0.950 . S
H3422 C3427 0.950 . S
H3423 C3428 0.949 . S
H3424 C3430 0.950 . S
H3425 C3431 0.950 . S
H3426 C3432 0.949 . S
C3427 H3422 0.950 . S
C3427 C3429 1.327 . S
C3427 C3433 1.429 . S
C3428 C3420 1.574 . S
C3428 H3423 0.949 . S
C3428 C3434 1.368 . S
C3429 C3413 1.349 . S
C3429 H3421 0.950 . S
C3429 C3427 1.327 . S
C3430 C3418 1.349 . S
C3430 H3424 0.950 . S
C3430 C3431 1.327 . S
C3431 H3425 0.950 . S
C3431 C3430 1.327 . S
C3431 C3435 1.472 . S
C3432 C3415 1.574 . S
C3432 H3426 0.949 . S
C3432 C3436 1.368 . S
C3433 C3414 1.429 . S
C3433 C3427 1.429 . S
C3433 C3434 1.523 . S
C3434 C3415 1.368 . S
C3434 C3428 1.368 . S
C3434 C3433 1.523 . S
C3435 C3419 1.427 . S
C3435 C3431 1.472 . S
C3435 C3436 1.497 1_455 S
C3436 C3420 1.368 . S
C3436 C3432 1.368 . S
C3436 C3435 1.497 1_655 S
H3437 C3412 0.950 . S
H3438 C3414 0.950 . S
H3439 C3415 0.949 . S
H3440 C3417 0.950 . S
H3441 C3419 0.912 1_655 S
C3442 C3443 1.349 . S
C3442 C3444 1.327 . S
C3442 H3467 0.950 . S
C3443 C3442 1.349 . S
C3443 C3459 1.349 . S
C3444 C3442 1.327 . S
C3444 C3463 1.429 . S
C3444 H3468 0.950 . S
C3445 C3462 1.574 . S
C3445 C3464 1.368 . S
C3445 H3469 0.949 . S
H3446 C3450 0.949 . S
C3447 C3448 1.349 . S
C3447 C3449 1.327 . S
C3447 H3470 0.950 . S
C3448 C3447 1.349 . S
C3448 C3460 1.349 . S
C3449 C3447 1.327 . S
C3449 C3465 1.429 . S
C3449 H3471 0.950 . S
C3450 H3446 0.949 . S
C3450 C3458 1.574 . S
C3450 C3466 1.368 . S
H3451 C3459 0.950 . S
H3452 C3457 0.950 . S
H3453 C3458 0.949 . S
H3454 C3460 0.950 . S
H3455 C3461 0.950 . S
H3456 C3462 0.949 . S
C3457 H3452 0.950 . S
C3457 C3459 1.327 . S
C3457 C3463 1.429 . S
C3458 C3450 1.574 . S
C3458 H3453 0.949 . S
C3458 C3464 1.368 . S
C3459 C3443 1.349 . S
C3459 H3451 0.950 . S
C3459 C3457 1.327 . S
C3460 C3448 1.349 . S
C3460 H3454 0.950 . S
C3460 C3461 1.327 . S
C3461 H3455 0.950 . S
C3461 C3460 1.327 . S
C3461 C3465 1.429 . S
C3462 C3445 1.574 . S
C3462 H3456 0.949 . S
C3462 C3466 1.368 . S
C3463 C3444 1.429 . S
C3463 C3457 1.429 . S
C3463 C3464 1.523 . S
C3464 C3445 1.368 . S
C3464 C3458 1.368 . S
C3464 C3463 1.523 . S
C3465 C3449 1.429 . S
C3465 C3461 1.429 . S
C3465 C3466 1.523 . S
C3466 C3450 1.368 . S
C3466 C3462 1.368 . S
C3466 C3465 1.523 . S
H3467 C3442 0.950 . S
H3468 C3444 0.950 . S
H3469 C3445 0.949 . S
H3470 C3447 0.950 . S
H3471 C3449 0.950 . S
C3472 C3473 1.349 . S
C3472 C3474 1.327 . S
C3472 H3497 0.950 . S
C3473 C3472 1.349 . S
C3473 C3489 1.349 . S
C3474 C3472 1.327 . S
C3474 C3493 1.429 . S
C3474 H3498 0.950 . S
C3475 C3492 1.574 . S
C3475 C3494 1.368 . S
C3475 H3499 0.949 . S
H3476 C3480 0.949 . S
C3477 C3478 1.349 . S
C3477 C3479 1.327 . S
C3477 H3500 0.950 . S
C3478 C3477 1.349 . S
C3478 C3490 1.349 . S
C3479 C3477 1.327 . S
C3479 C3495 1.429 . S
C3479 H3501 0.950 . S
C3480 H3476 0.949 . S
C3480 C3488 1.574 . S
C3480 C3496 1.368 . S
H3481 C3489 0.950 . S
H3482 C3487 0.950 . S
H3483 C3488 0.949 . S
H3484 C3490 0.950 . S
H3485 C3491 0.950 . S
H3486 C3492 0.949 . S
C3487 H3482 0.950 . S
C3487 C3489 1.327 . S
C3487 C3493 1.429 . S
C3488 C3480 1.574 . S
C3488 H3483 0.949 . S
C3488 C3494 1.368 . S
C3489 C3473 1.349 . S
C3489 H3481 0.950 . S
C3489 C3487 1.327 . S
C3490 C3478 1.349 . S
C3490 H3484 0.950 . S
C3490 C3491 1.327 . S
C3491 H3485 0.950 . S
C3491 C3490 1.327 . S
C3491 C3495 1.429 . S
C3492 C3475 1.574 . S
C3492 H3486 0.949 . S
C3492 C3496 1.368 . S
C3493 C3474 1.429 . S
C3493 C3487 1.429 . S
C3493 C3494 1.523 . S
C3494 C3475 1.368 . S
C3494 C3488 1.368 . S
C3494 C3493 1.523 . S
C3495 C3479 1.429 . S
C3495 C3491 1.429 . S
C3495 C3496 1.523 . S
C3496 C3480 1.368 . S
C3496 C3492 1.368 . S
C3496 C3495 1.523 . S
H3497 C3472 0.950 . S
H3498 C3474 0.950 . S
H3499 C3475 0.949 . S
H3500 C3477 0.950 . S
H3501 C3479 0.950 . S
C3502 C3503 1.349 . S
C3502 C3504 1.327 . S
C3502 H3527 0.950 . S
C3503 C3502 1.349 . S
C3503 C3519 1.349 . S
C3504 C3502 1.327 . S
C3504 C3523 1.429 . S
C3504 H3528 0.950 . S
C3505 C3522 1.574 . S
C3505 C3524 1.368 . S
C3505 H3529 0.949 . S
H3506 C3510 0.949 . S
C3507 C3508 1.349 . S
C3507 C3509 1.327 . S
C3507 H3530 0.950 . S
C3508 C3507 1.349 . S
C3508 C3520 1.349 . S
C3509 C3507 1.327 . S
C3509 C3525 1.429 . S
C3509 H3531 0.950 . S
C3510 H3506 0.949 . S
C3510 C3518 1.574 . S
C3510 C3526 1.368 . S
H3511 C3519 0.950 . S
H3512 C3517 0.950 . S
H3513 C3518 0.949 . S
H3514 C3520 0.950 . S
H3515 C3521 0.950 . S
H3516 C3522 0.949 . S
C3517 H3512 0.950 . S
C3517 C3519 1.327 . S
C3517 C3523 1.429 . S
C3518 C3510 1.574 . S
C3518 H3513 0.949 . S
C3518 C3524 1.368 . S
C3519 C3503 1.349 . S
C3519 H3511 0.950 . S
C3519 C3517 1.327 . S
C3520 C3508 1.349 . S
C3520 H3514 0.950 . S
C3520 C3521 1.327 . S
C3521 H3515 0.950 . S
C3521 C3520 1.327 . S
C3521 C3525 1.429 . S
C3522 C3505 1.574 . S
C3522 H3516 0.949 . S
C3522 C3526 1.368 . S
C3523 C3504 1.429 . S
C3523 C3517 1.429 . S
C3523 C3524 1.523 . S
C3524 C3505 1.368 . S
C3524 C3518 1.368 . S
C3524 C3523 1.523 . S
C3525 C3509 1.429 . S
C3525 C3521 1.429 . S
C3525 C3526 1.523 . S
C3526 C3510 1.368 . S
C3526 C3522 1.368 . S
C3526 C3525 1.523 . S
H3527 C3502 0.950 . S
H3528 C3504 0.950 . S
H3529 C3505 0.949 . S
H3530 C3507 0.950 . S
H3531 C3509 0.950 . S
C3532 C3533 1.349 . S
C3532 C3534 1.327 . S
C3532 H3557 0.950 . S
C3533 C3532 1.349 . S
C3533 C3549 1.349 . S
C3534 C3532 1.327 . S
C3534 C3553 1.429 . S
C3534 H3558 0.950 . S
C3535 C3552 1.574 . S
C3535 C3554 1.368 . S
C3535 H3559 0.949 . S
H3536 C3540 0.949 . S
C3537 C3538 1.349 . S
C3537 C3539 1.327 . S
C3537 H3560 0.950 . S
C3538 C3537 1.349 . S
C3538 C3550 1.349 . S
C3539 C3537 1.327 . S
C3539 C3555 1.429 . S
C3539 H3561 0.950 . S
C3540 H3536 0.949 . S
C3540 C3548 1.574 . S
C3540 C3556 1.368 . S
H3541 C3549 0.950 . S
H3542 C3547 0.950 . S
H3543 C3548 0.949 . S
H3544 C3550 0.950 1_455 S
H3545 C3551 0.950 . S
H3546 C3552 0.949 . S
C3547 H3542 0.950 . S
C3547 C3549 1.327 . S
C3547 C3553 1.429 . S
C3548 C3540 1.574 . S
C3548 H3543 0.949 . S
C3548 C3554 1.368 . S
C3549 C3533 1.349 . S
C3549 H3541 0.950 . S
C3549 C3547 1.327 . S
C3550 C3538 1.349 . S
C3550 H3544 0.950 1_655 S
C3550 C3551 1.327 . S
C3551 H3545 0.950 . S
C3551 C3550 1.327 . S
C3551 C3555 1.429 . S
C3552 C3535 1.574 . S
C3552 H3546 0.949 . S
C3552 C3556 1.368 . S
C3553 C3534 1.429 . S
C3553 C3547 1.429 . S
C3553 C3554 1.523 . S
C3554 C3535 1.368 . S
C3554 C3548 1.368 . S
C3554 C3553 1.523 . S
C3555 C3539 1.429 . S
C3555 C3551 1.429 . S
C3555 C3556 1.523 . S
C3556 C3540 1.368 . S
C3556 C3552 1.368 . S
C3556 C3555 1.523 . S
H3557 C3532 0.950 . S
H3558 C3534 0.950 . S
H3559 C3535 0.949 . S
H3560 C3537 0.950 . S
H3561 C3539 0.950 . S
C3562 C3563 1.349 . S
C3562 C3564 1.327 . S
C3562 H3587 0.950 . S
C3563 C3562 1.349 . S
C3563 C3579 1.349 . S
C3564 C3562 1.327 . S
C3564 C3583 1.429 . S
C3564 H3588 0.950 . S
C3565 C3582 1.574 . S
C3565 C3584 1.368 . S
C3565 H3589 0.949 . S
H3566 C3570 0.949 . S
C3567 C3568 1.349 . S
C3567 C3569 1.327 . S
C3567 H3590 0.950 . S
C3568 C3567 1.349 . S
C3568 C3580 1.349 . S
C3569 C3567 1.327 . S
C3569 C3585 1.429 . S
C3569 H3591 0.950 . S
C3570 H3566 0.949 . S
C3570 C3578 1.574 . S
C3570 C3586 1.368 . S
H3571 C3579 0.950 . S
H3572 C3577 0.950 . S
H3573 C3578 0.949 . S
H3574 C3580 0.950 . S
H3575 C3581 0.950 . S
H3576 C3582 0.949 . S
C3577 H3572 0.950 . S
C3577 C3579 1.327 . S
C3577 C3583 1.429 . S
C3578 C3570 1.574 . S
C3578 H3573 0.949 . S
C3578 C3584 1.368 . S
C3579 C3563 1.349 . S
C3579 H3571 0.950 . S
C3579 C3577 1.327 . S
C3580 C3568 1.349 . S
C3580 H3574 0.950 . S
C3580 C3581 1.327 . S
C3581 H3575 0.950 . S
C3581 C3580 1.327 . S
C3581 C3585 1.429 . S
C3582 C3565 1.574 . S
C3582 H3576 0.949 . S
C3582 C3586 1.368 . S
C3583 C3564 1.429 . S
C3583 C3577 1.429 . S
C3583 C3584 1.523 . S
C3584 C3565 1.368 . S
C3584 C3578 1.368 . S
C3584 C3583 1.523 . S
C3585 C3569 1.429 . S
C3585 C3581 1.429 . S
C3585 C3586 1.523 . S
C3586 C3570 1.368 . S
C3586 C3582 1.368 . S
C3586 C3585 1.523 . S
H3587 C3562 0.950 . S
H3588 C3564 0.950 . S
H3589 C3565 0.949 . S
H3590 C3567 0.950 . S
H3591 C3569 0.950 . S
C3592 C3593 1.349 . S
C3592 C3594 1.327 . S
C3592 H3617 0.950 . S
C3593 C3592 1.349 . S
C3593 C3609 1.349 . S
C3594 C3592 1.327 . S
C3594 C3613 1.429 . S
C3594 H3618 0.950 . S
C3595 C3612 1.574 . S
C3595 C3614 1.368 . S
C3595 H3619 0.949 . S
H3596 C3600 0.949 . S
C3597 C3598 1.349 . S
C3597 C3599 1.327 . S
C3597 H3620 0.950 . S
C3598 C3597 1.349 . S
C3598 C3610 1.349 . S
C3599 C3597 1.327 . S
C3599 C3615 1.429 . S
C3599 H3621 0.950 . S
C3600 H3596 0.949 . S
C3600 C3608 1.574 . S
C3600 C3616 1.368 . S
H3601 C3609 0.950 . S
H3602 C3607 0.950 . S
H3603 C3608 0.949 . S
H3604 C3610 0.950 . S
H3605 C3611 0.950 . S
H3606 C3612 0.949 . S
C3607 H3602 0.950 . S
C3607 C3609 1.327 . S
C3607 C3613 1.429 . S
C3608 C3600 1.574 . S
C3608 H3603 0.949 . S
C3608 C3614 1.368 . S
C3609 C3593 1.349 . S
C3609 H3601 0.950 . S
C3609 C3607 1.327 . S
C3610 C3598 1.349 . S
C3610 H3604 0.950 . S
C3610 C3611 1.327 . S
C3611 H3605 0.950 . S
C3611 C3610 1.327 . S
C3611 C3615 1.429 . S
C3612 C3595 1.574 . S
C3612 H3606 0.949 . S
C3612 C3616 1.368 . S
C3613 C3594 1.429 . S
C3613 C3607 1.429 . S
C3613 C3614 1.523 . S
C3614 C3595 1.368 . S
C3614 C3608 1.368 . S
C3614 C3613 1.523 . S
C3615 C3599 1.429 . S
C3615 C3611 1.429 . S
C3615 C3616 1.523 . S
C3616 C3600 1.368 . S
C3616 C3612 1.368 . S
C3616 C3615 1.523 . S
H3617 C3592 0.950 . S
H3618 C3594 0.950 . S
H3619 C3595 0.949 . S
H3620 C3597 0.950 . S
H3621 C3599 0.950 . S
C3622 C3623 1.349 . S
C3622 C3624 1.327 . S
C3622 H3647 0.950 . S
C3623 C3622 1.349 . S
C3623 C3639 1.349 . S
C3624 C3622 1.327 . S
C3624 C3643 1.429 . S
C3624 H3648 0.950 . S
C3625 C3642 1.574 . S
C3625 C3644 1.368 . S
C3625 H3649 0.949 . S
H3626 C3630 0.949 . S
C3627 C3628 1.349 1_565 S
C3627 C3629 1.327 . S
C3627 H3650 0.950 . S
C3628 C3627 1.349 1_545 S
C3628 C3640 1.349 . S
C3629 C3627 1.327 . S
C3629 C3645 1.429 . S
C3629 H3651 0.950 . S
C3630 H3626 0.949 . S
C3630 C3638 1.574 . S
C3630 C3646 1.368 . S
H3631 C3639 0.950 . S
H3632 C3637 0.950 . S
H3633 C3638 0.949 . S
H3634 C3640 0.950 . S
H3635 C3641 0.950 . S
H3636 C3642 0.949 . S
C3637 H3632 0.950 . S
C3637 C3639 1.327 . S
C3637 C3643 1.429 . S
C3638 C3630 1.574 . S
C3638 H3633 0.949 . S
C3638 C3644 1.368 . S
C3639 C3623 1.349 . S
C3639 H3631 0.950 . S
C3639 C3637 1.327 . S
C3640 C3628 1.349 . S
C3640 H3634 0.950 . S
C3640 C3641 1.327 1_545 S
C3641 H3635 0.950 . S
C3641 C3640 1.327 1_565 S
C3641 C3645 1.429 . S
C3642 C3625 1.574 . S
C3642 H3636 0.949 . S
C3642 C3646 1.368 . S
C3643 C3624 1.429 . S
C3643 C3637 1.429 . S
C3643 C3644 1.523 . S
C3644 C3625 1.368 . S
C3644 C3638 1.368 . S
C3644 C3643 1.523 . S
C3645 C3629 1.429 . S
C3645 C3641 1.429 . S
C3645 C3646 1.523 . S
C3646 C3630 1.368 . S
C3646 C3642 1.368 . S
C3646 C3645 1.523 . S
H3647 C3622 0.950 . S
H3648 C3624 0.950 . S
H3649 C3625 0.949 . S
H3650 C3627 0.950 . S
H3651 C3629 0.950 . S
C3652 C3653 1.349 . S
C3652 C3654 1.327 . S
C3652 H3677 0.950 . S
C3653 C3652 1.349 . S
C3653 C3669 1.349 . S
C3654 C3652 1.327 . S
C3654 C3673 1.429 . S
C3654 H3678 0.950 . S
C3655 C3672 1.574 . S
C3655 C3674 1.368 . S
C3655 H3679 0.949 . S
H3656 C3660 0.949 . S
C3657 C3658 1.349 . S
C3657 C3659 1.327 . S
C3657 H3680 0.950 . S
C3658 C3657 1.349 . S
C3658 C3670 1.349 . S
C3659 C3657 1.327 . S
C3659 C3675 1.429 . S
C3659 H3681 0.950 . S
C3660 H3656 0.949 . S
C3660 C3668 1.574 . S
C3660 C3676 1.368 . S
H3661 C3669 0.950 . S
H3662 C3667 0.950 . S
H3663 C3668 0.949 . S
H3664 C3670 0.950 . S
H3665 C3671 0.950 . S
H3666 C3672 0.949 . S
C3667 H3662 0.950 . S
C3667 C3669 1.327 . S
C3667 C3673 1.429 . S
C3668 C3660 1.574 . S
C3668 H3663 0.949 . S
C3668 C3674 1.368 . S
C3669 C3653 1.349 . S
C3669 H3661 0.950 . S
C3669 C3667 1.327 . S
C3670 C3658 1.349 . S
C3670 H3664 0.950 . S
C3670 C3671 1.327 . S
C3671 H3665 0.950 . S
C3671 C3670 1.327 . S
C3671 C3675 1.429 . S
C3672 C3655 1.574 . S
C3672 H3666 0.949 . S
C3672 C3676 1.368 . S
C3673 C3654 1.429 . S
C3673 C3667 1.429 . S
C3673 C3674 1.523 . S
C3674 C3655 1.368 . S
C3674 C3668 1.368 . S
C3674 C3673 1.523 . S
C3675 C3659 1.429 . S
C3675 C3671 1.429 . S
C3675 C3676 1.523 . S
C3676 C3660 1.368 . S
C3676 C3672 1.368 . S
C3676 C3675 1.523 . S
H3677 C3652 0.950 . S
H3678 C3654 0.950 . S
H3679 C3655 0.949 . S
H3680 C3657 0.950 . S
H3681 C3659 0.950 . S
C3682 C3683 1.349 1_556 S
C3682 C3684 1.327 . S
C3682 H3707 0.950 . S
C3683 C3682 1.349 1_554 S
C3683 C3699 1.349 . S
C3684 C3682 1.327 . S
C3684 C3703 1.429 1_556 S
C3684 H3708 0.950 . S
C3685 C3702 1.574 . S
C3685 C3704 1.368 . S
C3685 H3709 0.949 . S
H3686 C3690 0.949 . S
C3687 C3688 1.349 . S
C3687 C3689 1.327 . S
C3687 H3710 0.950 . S
C3688 C3687 1.349 . S
C3688 C3700 1.349 . S
C3689 C3687 1.327 . S
C3689 C3705 1.429 . S
C3689 H3711 0.950 . S
C3690 H3686 0.949 . S
C3690 C3698 1.574 . S
C3690 C3706 1.368 1_556 S
H3691 C3699 0.950 . S
H3692 C3697 0.950 . S
H3693 C3698 0.949 . S
H3694 C3700 0.950 1_556 S
H3695 C3701 0.931 1_556 S
H3696 C3702 0.949 . S
C3697 H3692 0.950 . S
C3697 C3699 1.327 . S
C3697 C3703 1.429 . S
C3698 C3690 1.574 . S
C3698 H3693 0.949 . S
C3698 C3704 1.368 1_556 S
C3699 C3683 1.349 . S
C3699 H3691 0.950 . S
C3699 C3697 1.327 . S
C3700 C3688 1.349 . S
C3700 H3694 0.950 1_554 S
C3700 C3701 1.335 . S
C3701 H3695 0.931 1_554 S
C3701 C3700 1.335 . S
C3701 C3705 1.440 . S
C3702 C3685 1.574 . S
C3702 H3696 0.949 . S
C3702 C3706 1.368 . S
C3703 C3684 1.429 1_554 S
C3703 C3697 1.429 . S
C3703 C3704 1.523 . S
C3704 C3685 1.368 . S
C3704 C3698 1.368 1_554 S
C3704 C3703 1.523 . S
C3705 C3689 1.429 . S
C3705 C3701 1.440 . S
C3705 C3706 1.523 . S
C3706 C3690 1.368 1_554 S
C3706 C3702 1.368 . S
C3706 C3705 1.523 . S
H3707 C3682 0.950 . S
H3708 C3684 0.950 . S
H3709 C3685 0.949 . S
H3710 C3687 0.950 . S
H3711 C3689 0.950 . S
C3712 C3713 1.349 . S
C3712 C3714 1.327 . S
C3712 H3737 0.950 . S
C3713 C3712 1.349 . S
C3713 C3729 1.349 . S
C3714 C3712 1.327 . S
C3714 C3733 1.429 . S
C3714 H3738 0.950 . S
C3715 C3732 1.574 . S
C3715 C3734 1.368 . S
C3715 H3739 0.949 . S
H3716 C3720 0.949 . S
C3717 C3718 1.349 . S
C3717 C3719 1.327 . S
C3717 H3740 0.950 . S
C3718 C3717 1.349 . S
C3718 C3730 1.349 . S
C3719 C3717 1.327 . S
C3719 C3735 1.429 . S
C3719 H3741 0.950 . S
C3720 H3716 0.949 . S
C3720 C3728 1.574 . S
C3720 C3736 1.368 . S
H3721 C3729 0.950 . S
H3722 C3727 0.950 . S
H3723 C3728 0.949 . S
H3724 C3730 0.950 . S
H3725 C3731 0.950 . S
H3726 C3732 0.949 . S
C3727 H3722 0.950 . S
C3727 C3729 1.327 . S
C3727 C3733 1.429 . S
C3728 C3720 1.574 . S
C3728 H3723 0.949 . S
C3728 C3734 1.368 . S
C3729 C3713 1.349 . S
C3729 H3721 0.950 . S
C3729 C3727 1.327 . S
C3730 C3718 1.349 . S
C3730 H3724 0.950 . S
C3730 C3731 1.327 . S
C3731 H3725 0.950 . S
C3731 C3730 1.327 . S
C3731 C3735 1.429 . S
C3732 C3715 1.574 . S
C3732 H3726 0.949 . S
C3732 C3736 1.368 . S
C3733 C3714 1.429 . S
C3733 C3727 1.429 . S
C3733 C3734 1.523 . S
C3734 C3715 1.368 . S
C3734 C3728 1.368 . S
C3734 C3733 1.523 . S
C3735 C3719 1.429 . S
C3735 C3731 1.429 . S
C3735 C3736 1.523 . S
C3736 C3720 1.368 . S
C3736 C3732 1.368 . S
C3736 C3735 1.523 . S
H3737 C3712 0.950 . S
H3738 C3714 0.950 . S
H3739 C3715 0.949 . S
H3740 C3717 0.950 . S
H3741 C3719 0.950 . S
C3742 C3743 1.349 1_556 S
C3742 C3744 1.327 . S
C3742 H3767 0.950 . S
C3743 C3742 1.349 1_554 S
C3743 C3759 1.349 . S
C3744 C3742 1.327 . S
C3744 C3763 1.429 1_556 S
C3744 H3768 0.950 . S
C3745 C3762 1.574 . S
C3745 C3764 1.368 . S
C3745 H3769 0.949 . S
H3746 C3750 0.949 . S
C3747 C3748 1.349 . S
C3747 C3749 1.327 1_556 S
C3747 H3770 0.950 1_556 S
C3748 C3747 1.349 . S
C3748 C3760 1.349 . S
C3749 C3747 1.327 1_554 S
C3749 C3765 1.429 1_554 S
C3749 H3771 0.950 . S
C3750 H3746 0.949 . S
C3750 C3758 1.574 . S
C3750 C3766 1.368 . S
H3751 C3759 0.950 . S
H3752 C3757 0.950 . S
H3753 C3758 0.949 . S
H3754 C3760 0.950 . S
H3755 C3761 0.950 . S
H3756 C3762 0.949 . S
C3757 H3752 0.950 . S
C3757 C3759 1.327 . S
C3757 C3763 1.429 . S
C3758 C3750 1.574 . S
C3758 H3753 0.949 . S
C3758 C3764 1.369 1_556 S
C3759 C3743 1.349 . S
C3759 H3751 0.950 . S
C3759 C3757 1.327 . S
C3760 C3748 1.349 . S
C3760 H3754 0.950 . S
C3760 C3761 1.327 . S
C3761 H3755 0.950 . S
C3761 C3760 1.327 . S
C3761 C3765 1.429 . S
C3762 C3745 1.574 . S
C3762 H3756 0.949 . S
C3762 C3766 1.368 1_554 S
C3763 C3744 1.429 1_554 S
C3763 C3757 1.429 . S
C3763 C3764 1.523 . S
C3764 C3745 1.368 . S
C3764 C3758 1.369 1_554 S
C3764 C3763 1.523 . S
C3765 C3749 1.429 1_556 S
C3765 C3761 1.429 . S
C3765 C3766 1.523 . S
C3766 C3750 1.368 . S
C3766 C3762 1.368 1_556 S
C3766 C3765 1.523 . S
H3767 C3742 0.950 . S
H3768 C3744 0.950 . S
H3769 C3745 0.949 . S
H3770 C3747 0.950 1_554 S
H3771 C3749 0.950 . S
C3772 C3773 1.349 . S
C3772 C3774 1.327 . S
C3772 H3797 0.950 . S
C3773 C3772 1.349 . S
C3773 C3789 1.349 . S
C3774 C3772 1.327 . S
C3774 C3793 1.429 . S
C3774 H3798 0.950 . S
C3775 C3792 1.574 . S
C3775 C3794 1.368 . S
C3775 H3799 0.949 . S
H3776 C3780 0.949 . S
C3777 C3778 1.349 . S
C3777 C3779 1.327 . S
C3777 H3800 0.950 . S
C3778 C3777 1.349 . S
C3778 C3790 1.349 . S
C3779 C3777 1.327 . S
C3779 C3795 1.429 . S
C3779 H3801 0.950 . S
C3780 H3776 0.949 . S
C3780 C3788 1.574 . S
C3780 C3796 1.368 . S
H3781 C3789 0.950 . S
H3782 C3787 0.950 . S
H3783 C3788 0.949 . S
H3784 C3790 0.950 . S
H3785 C3791 0.950 . S
H3786 C3792 0.949 . S
C3787 H3782 0.950 . S
C3787 C3789 1.327 . S
C3787 C3793 1.429 . S
C3788 C3780 1.574 . S
C3788 H3783 0.949 . S
C3788 C3794 1.368 . S
C3789 C3773 1.349 . S
C3789 H3781 0.950 . S
C3789 C3787 1.327 . S
C3790 C3778 1.349 . S
C3790 H3784 0.950 . S
C3790 C3791 1.327 . S
C3791 H3785 0.950 . S
C3791 C3790 1.327 . S
C3791 C3795 1.429 . S
C3792 C3775 1.574 . S
C3792 H3786 0.949 . S
C3792 C3796 1.368 . S
C3793 C3774 1.429 . S
C3793 C3787 1.429 . S
C3793 C3794 1.523 . S
C3794 C3775 1.368 . S
C3794 C3788 1.368 . S
C3794 C3793 1.523 . S
C3795 C3779 1.429 . S
C3795 C3791 1.429 . S
C3795 C3796 1.523 . S
C3796 C3780 1.368 . S
C3796 C3792 1.368 . S
C3796 C3795 1.523 . S
H3797 C3772 0.950 . S
H3798 C3774 0.950 . S
H3799 C3775 0.949 . S
H3800 C3777 0.950 . S
H3801 C3779 0.950 . S
C3802 C3803 1.349 . S
C3802 C3804 1.327 . S
C3802 H3827 0.950 . S
C3803 C3802 1.349 . S
C3803 C3819 1.349 . S
C3804 C3802 1.327 . S
C3804 C3823 1.429 . S
C3804 H3828 0.950 . S
C3805 C3822 1.574 . S
C3805 C3824 1.368 . S
C3805 H3829 0.949 . S
H3806 C3810 0.949 . S
C3807 C3808 1.349 . S
C3807 C3809 1.327 . S
C3807 H3830 0.950 . S
C3808 C3807 1.349 . S
C3808 C3820 1.349 . S
C3809 C3807 1.327 . S
C3809 C3825 1.429 . S
C3809 H3831 0.950 . S
C3810 H3806 0.949 . S
C3810 C3818 1.574 . S
C3810 C3826 1.368 . S
H3811 C3819 0.950 . S
H3812 C3817 0.950 . S
H3813 C3818 0.949 . S
H3814 C3820 0.950 . S
H3815 C3821 0.950 . S
H3816 C3822 0.949 . S
C3817 H3812 0.950 . S
C3817 C3819 1.327 . S
C3817 C3823 1.429 . S
C3818 C3810 1.574 . S
C3818 H3813 0.949 . S
C3818 C3824 1.368 . S
C3819 C3803 1.349 . S
C3819 H3811 0.950 . S
C3819 C3817 1.327 . S
C3820 C3808 1.349 . S
C3820 H3814 0.950 . S
C3820 C3821 1.327 . S
C3821 H3815 0.950 . S
C3821 C3820 1.327 . S
C3821 C3825 1.429 . S
C3822 C3805 1.574 . S
C3822 H3816 0.949 . S
C3822 C3826 1.368 . S
C3823 C3804 1.429 . S
C3823 C3817 1.429 . S
C3823 C3824 1.523 . S
C3824 C3805 1.368 . S
C3824 C3818 1.368 . S
C3824 C3823 1.523 . S
C3825 C3809 1.429 . S
C3825 C3821 1.429 . S
C3825 C3826 1.523 . S
C3826 C3810 1.368 . S
C3826 C3822 1.368 . S
C3826 C3825 1.523 . S
H3827 C3802 0.950 . S
H3828 C3804 0.950 . S
H3829 C3805 0.949 . S
H3830 C3807 0.950 . S
H3831 C3809 0.950 . S
C953 C101 2.259 . S
C958 C322 2.219 1_556 S
C983 C57 2.050 . S
C988 C370 2.078 . S
C1013 C73 1.071 . S
C1018 C402 1.091 . S
C1048 C447 1.360 . S
C1043 C78 1.330 . S
C1073 C21 1.165 . S
C1078 C487 1.195 . S
C1108 C518 0.274 . S
C1103 C31 0.386 . S
C1138 C570 1.229 . S
C1133 C49 1.223 . S
C1163 C0 1.597 . S
C1168 C602 1.614 . S
C1198 C330 2.438 . S
C1193 C218 2.457 . S
C1223 C229 0.392 . S
C1228 C367 0.339 . S
C1258 C410 1.344 . S
C1253 C257 1.360 . S
C1288 C442 1.162 . S
C1283 C164 1.125 . S
C1313 C216 1.633 . S
C1318 C482 1.706 . S
C1348 C521 1.457 . S
C1343 C231 1.486 . S
C1378 C567 0.271 . S
C1373 C255 0.368 . S
C1408 C610 1.970 . S
C1403 C166 1.999 . S
C1438 C327 1.411 . S
C1433 C143 1.337 . S
C1463 C265 1.984 . S
C1468 C650 2.012 . S
C1498 C691 2.489 . S
C1493 C299 2.530 . S
C1528 C722 0.586 1_655 S
C1523 C291 0.609 . S
C1553 C104 1.145 . S
C1558 C607 1.176 . S
C1583 C117 1.428 . S
C1588 C407 1.467 . S
C1613 C304 2.225 . S
C1618 C770 2.246 . S
C1648 C802 0.417 . S
C1643 C278 0.344 . S
C1678 C331 2.176 . S
C1673 C60 2.207 . S
C1708 C801 1.969 . S
C1703 C96 1.970 . S
C1733 C88 0.976 . S
C1738 C411 0.957 . S
C1763 C65 1.275 . S
C1768 C758 1.280 . S
C1798 C478 1.144 . S
C1793 C10 1.163 . S
C1823 C44 0.371 . S
C1828 C687 0.240 . S
C1858 C561 1.090 1_556 S
C1853 C34 1.035 . S
C1888 C851 1.567 . S
C1883 C13 1.639 . S
C1918 C321 2.368 . S
C1913 C138 2.327 . S
C1948 C798 0.346 . S
C1943 C296 0.238 . S
C1973 C112 1.235 . S
C1978 C401 1.251 . S
C2003 C270 1.059 . S
C2008 C771 1.042 . S
C2033 C140 1.629 . S
C2038 C491 1.604 . S
C2068 C690 1.403 . S
C2063 C294 1.401 . S
C2093 C114 0.157 . S
C2098 C558 0.314 . S
C2123 C268 1.886 . S
C2128 C841 1.901 . S
C2153 C169 1.359 . S
C2158 C318 1.344 . S
C2183 C161 1.911 . S
C2188 C641 1.918 . S
C2213 C234 2.473 . S
C2218 C522 2.425 . S
C2243 C226 0.492 . S
C2248 C731 0.434 . S
C2278 C838 1.176 . S
C2273 C247 1.211 . S
C2303 C195 1.454 . S
C2308 C398 1.432 . S
C2338 C441 2.145 . S
C2333 C239 2.141 . S
C2368 C371 0.412 . S
C2363 C187 0.282 . S
C2393 C75 2.259 . S
C2398 C882 2.219 . S
C2428 C810 2.078 . S
C2423 C83 2.050 . S
C2453 C99 1.071 . S
C2458 C922 1.091 . S
C2483 C52 1.330 . S
C2488 C767 1.360 . S
C2513 C47 1.165 . S
C2518 C647 1.194 . S
C2548 C678 0.274 . S
C2543 C5 0.386 . S
C2578 C730 1.228 . S
C2573 C23 1.220 . S
C2608 C842 1.614 . S
C2603 C26 1.597 . S
C2638 C890 2.438 . S
C2633 C244 2.457 . S
C2663 C177 0.392 . S
C2668 C807 0.339 . S
C2698 C930 1.343 . S
C2693 C192 1.359 . S
C2728 C762 1.162 . S
C2723 C203 1.125 . S
C2758 C642 1.706 . S
C2753 C242 1.633 . S
C2783 C179 1.485 . S
C2788 C681 1.457 . S
C2818 C727 0.271 . S
C2813 C190 0.368 . S
C2843 C205 1.999 . S
C2848 C850 1.970 . S
C2878 C887 1.382 . S
C2873 C286 1.337 . S
C2903 C122 1.984 . S
C2908 C490 2.012 . S
C2938 C531 2.489 . S
C2933 C130 2.530 . S
C2968 C562 0.587 . S
C2963 C148 0.609 . S
C2998 C847 1.176 . S
C2993 C273 1.145 . S
C3023 C260 1.429 . S
C3028 C927 1.467 . S
C3058 C450 2.246 . S
C3053 C135 2.225 . S
C3088 C362 0.417 . S
C3083 C109 0.344 . S
C3113 C86 2.207 . S
C3118 C891 2.176 . S
C3148 C361 1.969 . S
C3143 C70 1.970 . S
C3173 C62 0.976 . S
C3178 C931 0.957 . S
C3203 C91 1.275 . S
C3208 C438 1.280 . S
C3233 C36 1.163 . S
C3238 C638 1.144 . S
C3268 C527 0.241 . S
C3263 C18 0.373 . S
C3293 C8 1.035 . S
C3298 C721 1.090 . S
C3323 C39 1.632 . S
C3328 C611 1.567 . S
C3358 C881 2.368 . S
C3353 C307 2.327 . S
C3383 C153 0.238 . S
C3388 C358 0.346 . S
C3418 C921 1.251 . S
C3413 C281 1.235 . S
C3443 C127 1.059 . S
C3448 C451 1.042 . S
C3473 C309 1.629 . S
C3478 C651 1.604 . S
C3508 C530 1.403 . S
C3503 C151 1.400 . S
C3533 C283 0.157 . S
C3538 C718 0.314 . S
C3568 C601 1.901 . S
C3563 C125 1.886 . S
C3598 C878 1.344 . S
C3593 C221 1.360 . S
C3628 C481 1.872 1_655 S
C3623 C200 1.911 . S
C3653 C208 2.473 . S
C3658 C682 2.425 . S
C3688 C571 0.434 . S
C3683 C174 0.492 . S
C3713 C182 1.211 . S
C3718 C598 1.176 . S
C3743 C156 1.454 . S
C3748 C918 1.432 . S
C3778 C761 2.145 . S
C3773 C213 2.141 1_565 S
C3808 C811 0.412 . S
C3803 C252 0.282 . S
