# Generated by pormake.
# Topology gar, (4,6)-cn, num edge types: 1
# Building blocks:
#     Node 0, Type 0, BuildingBlock: TATPOV_clean_sbu_0, # of connection points: 4
#     Node 1, Type 0, BuildingBlock: TATPOV_clean_sbu_0, # of connection points: 4
#     Node 2, Type 0, BuildingBlock: TATPOV_clean_sbu_0, # of connection points: 4
#     Node 3, Type 0, BuildingBlock: TATPOV_clean_sbu_0, # of connection points: 4
#     Node 4, Type 0, BuildingBlock: TATPOV_clean_sbu_0, # of connection points: 4
#     Node 5, Type 0, BuildingBlock: TATPOV_clean_sbu_0, # of connection points: 4
#     Node 6, Type 0, BuildingBlock: TATPOV_clean_sbu_0, # of connection points: 4
#     Node 7, Type 0, BuildingBlock: TATPOV_clean_sbu_0, # of connection points: 4
#     Node 8, Type 0, BuildingBlock: TATPOV_clean_sbu_0, # of connection points: 4
#     Node 9, Type 0, BuildingBlock: TATPOV_clean_sbu_0, # of connection points: 4
#     Node 10, Type 0, BuildingBlock: TATPOV_clean_sbu_0, # of connection points: 4
#     Node 11, Type 0, BuildingBlock: TATPOV_clean_sbu_0, # of connection points: 4
#     Node 12, Type 0, BuildingBlock: TATPOV_clean_sbu_0, # of connection points: 4
#     Node 13, Type 0, BuildingBlock: TATPOV_clean_sbu_0, # of connection points: 4
#     Node 14, Type 0, BuildingBlock: TATPOV_clean_sbu_0, # of connection points: 4
#     Node 15, Type 0, BuildingBlock: TATPOV_clean_sbu_0, # of connection points: 4
#     Node 16, Type 0, BuildingBlock: TATPOV_clean_sbu_0, # of connection points: 4
#     Node 17, Type 0, BuildingBlock: TATPOV_clean_sbu_0, # of connection points: 4
#     Node 18, Type 0, BuildingBlock: TATPOV_clean_sbu_0, # of connection points: 4
#     Node 19, Type 0, BuildingBlock: TATPOV_clean_sbu_0, # of connection points: 4
#     Node 20, Type 0, BuildingBlock: TATPOV_clean_sbu_0, # of connection points: 4
#     Node 21, Type 0, BuildingBlock: TATPOV_clean_sbu_0, # of connection points: 4
#     Node 22, Type 0, BuildingBlock: TATPOV_clean_sbu_0, # of connection points: 4
#     Node 23, Type 0, BuildingBlock: TATPOV_clean_sbu_0, # of connection points: 4
#     Node 24, Type 1, BuildingBlock: KUMBUR_clean_sbu_0, # of connection points: 6
#     Node 25, Type 1, BuildingBlock: KUMBUR_clean_sbu_0, # of connection points: 6
#     Node 26, Type 1, BuildingBlock: KUMBUR_clean_sbu_0, # of connection points: 6
#     Node 27, Type 1, BuildingBlock: KUMBUR_clean_sbu_0, # of connection points: 6
#     Node 28, Type 1, BuildingBlock: KUMBUR_clean_sbu_0, # of connection points: 6
#     Node 29, Type 1, BuildingBlock: KUMBUR_clean_sbu_0, # of connection points: 6
#     Node 30, Type 1, BuildingBlock: KUMBUR_clean_sbu_0, # of connection points: 6
#     Node 31, Type 1, BuildingBlock: KUMBUR_clean_sbu_0, # of connection points: 6
#     Node 32, Type 1, BuildingBlock: KUMBUR_clean_sbu_0, # of connection points: 6
#     Node 33, Type 1, BuildingBlock: KUMBUR_clean_sbu_0, # of connection points: 6
#     Node 34, Type 1, BuildingBlock: KUMBUR_clean_sbu_0, # of connection points: 6
#     Node 35, Type 1, BuildingBlock: KUMBUR_clean_sbu_0, # of connection points: 6
#     Node 36, Type 1, BuildingBlock: KUMBUR_clean_sbu_0, # of connection points: 6
#     Node 37, Type 1, BuildingBlock: KUMBUR_clean_sbu_0, # of connection points: 6
#     Node 38, Type 1, BuildingBlock: KUMBUR_clean_sbu_0, # of connection points: 6
#     Node 39, Type 1, BuildingBlock: KUMBUR_clean_sbu_0, # of connection points: 6
#     Edge 40, Type (0, 1), BuildingBlock: KIFKEQ_clean_linker_1, # of connection points: 2
#     Edge 41, Type (0, 1), BuildingBlock: KIFKEQ_clean_linker_1, # of connection points: 2
#     Edge 42, Type (0, 1), BuildingBlock: KIFKEQ_clean_linker_1, # of connection points: 2
#     Edge 43, Type (0, 1), BuildingBlock: KIFKEQ_clean_linker_1, # of connection points: 2
#     Edge 44, Type (0, 1), BuildingBlock: KIFKEQ_clean_linker_1, # of connection points: 2
#     Edge 45, Type (0, 1), BuildingBlock: KIFKEQ_clean_linker_1, # of connection points: 2
#     Edge 46, Type (0, 1), BuildingBlock: KIFKEQ_clean_linker_1, # of connection points: 2
#     Edge 47, Type (0, 1), BuildingBlock: KIFKEQ_clean_linker_1, # of connection points: 2
#     Edge 48, Type (0, 1), BuildingBlock: KIFKEQ_clean_linker_1, # of connection points: 2
#     Edge 49, Type (0, 1), BuildingBlock: KIFKEQ_clean_linker_1, # of connection points: 2
#     Edge 50, Type (0, 1), BuildingBlock: KIFKEQ_clean_linker_1, # of connection points: 2
#     Edge 51, Type (0, 1), BuildingBlock: KIFKEQ_clean_linker_1, # of connection points: 2
#     Edge 52, Type (0, 1), BuildingBlock: KIFKEQ_clean_linker_1, # of connection points: 2
#     Edge 53, Type (0, 1), BuildingBlock: KIFKEQ_clean_linker_1, # of connection points: 2
#     Edge 54, Type (0, 1), BuildingBlock: KIFKEQ_clean_linker_1, # of connection points: 2
#     Edge 55, Type (0, 1), BuildingBlock: KIFKEQ_clean_linker_1, # of connection points: 2
#     Edge 56, Type (0, 1), BuildingBlock: KIFKEQ_clean_linker_1, # of connection points: 2
#     Edge 57, Type (0, 1), BuildingBlock: KIFKEQ_clean_linker_1, # of connection points: 2
#     Edge 58, Type (0, 1), BuildingBlock: KIFKEQ_clean_linker_1, # of connection points: 2
#     Edge 59, Type (0, 1), BuildingBlock: KIFKEQ_clean_linker_1, # of connection points: 2
#     Edge 60, Type (0, 1), BuildingBlock: KIFKEQ_clean_linker_1, # of connection points: 2
#     Edge 61, Type (0, 1), BuildingBlock: KIFKEQ_clean_linker_1, # of connection points: 2
#     Edge 62, Type (0, 1), BuildingBlock: KIFKEQ_clean_linker_1, # of connection points: 2
#     Edge 63, Type (0, 1), BuildingBlock: KIFKEQ_clean_linker_1, # of connection points: 2
#     Edge 64, Type (0, 1), BuildingBlock: KIFKEQ_clean_linker_1, # of connection points: 2
#     Edge 65, Type (0, 1), BuildingBlock: KIFKEQ_clean_linker_1, # of connection points: 2
#     Edge 66, Type (0, 1), BuildingBlock: KIFKEQ_clean_linker_1, # of connection points: 2
#     Edge 67, Type (0, 1), BuildingBlock: KIFKEQ_clean_linker_1, # of connection points: 2
#     Edge 68, Type (0, 1), BuildingBlock: KIFKEQ_clean_linker_1, # of connection points: 2
#     Edge 69, Type (0, 1), BuildingBlock: KIFKEQ_clean_linker_1, # of connection points: 2
#     Edge 70, Type (0, 1), BuildingBlock: KIFKEQ_clean_linker_1, # of connection points: 2
#     Edge 71, Type (0, 1), BuildingBlock: KIFKEQ_clean_linker_1, # of connection points: 2
#     Edge 72, Type (0, 1), BuildingBlock: KIFKEQ_clean_linker_1, # of connection points: 2
#     Edge 73, Type (0, 1), BuildingBlock: KIFKEQ_clean_linker_1, # of connection points: 2
#     Edge 74, Type (0, 1), BuildingBlock: KIFKEQ_clean_linker_1, # of connection points: 2
#     Edge 75, Type (0, 1), BuildingBlock: KIFKEQ_clean_linker_1, # of connection points: 2
#     Edge 76, Type (0, 1), BuildingBlock: KIFKEQ_clean_linker_1, # of connection points: 2
#     Edge 77, Type (0, 1), BuildingBlock: KIFKEQ_clean_linker_1, # of connection points: 2
#     Edge 78, Type (0, 1), BuildingBlock: KIFKEQ_clean_linker_1, # of connection points: 2
#     Edge 79, Type (0, 1), BuildingBlock: KIFKEQ_clean_linker_1, # of connection points: 2
#     Edge 80, Type (0, 1), BuildingBlock: KIFKEQ_clean_linker_1, # of connection points: 2
#     Edge 81, Type (0, 1), BuildingBlock: KIFKEQ_clean_linker_1, # of connection points: 2
#     Edge 82, Type (0, 1), BuildingBlock: KIFKEQ_clean_linker_1, # of connection points: 2
#     Edge 83, Type (0, 1), BuildingBlock: KIFKEQ_clean_linker_1, # of connection points: 2
#     Edge 84, Type (0, 1), BuildingBlock: KIFKEQ_clean_linker_1, # of connection points: 2
#     Edge 85, Type (0, 1), BuildingBlock: KIFKEQ_clean_linker_1, # of connection points: 2
#     Edge 86, Type (0, 1), BuildingBlock: KIFKEQ_clean_linker_1, # of connection points: 2
#     Edge 87, Type (0, 1), BuildingBlock: KIFKEQ_clean_linker_1, # of connection points: 2
#     Edge 88, Type (0, 1), BuildingBlock: KIFKEQ_clean_linker_1, # of connection points: 2
#     Edge 89, Type (0, 1), BuildingBlock: KIFKEQ_clean_linker_1, # of connection points: 2
#     Edge 90, Type (0, 1), BuildingBlock: KIFKEQ_clean_linker_1, # of connection points: 2
#     Edge 91, Type (0, 1), BuildingBlock: KIFKEQ_clean_linker_1, # of connection points: 2
#     Edge 92, Type (0, 1), BuildingBlock: KIFKEQ_clean_linker_1, # of connection points: 2
#     Edge 93, Type (0, 1), BuildingBlock: KIFKEQ_clean_linker_1, # of connection points: 2
#     Edge 94, Type (0, 1), BuildingBlock: KIFKEQ_clean_linker_1, # of connection points: 2
#     Edge 95, Type (0, 1), BuildingBlock: KIFKEQ_clean_linker_1, # of connection points: 2
#     Edge 96, Type (0, 1), BuildingBlock: KIFKEQ_clean_linker_1, # of connection points: 2
#     Edge 97, Type (0, 1), BuildingBlock: KIFKEQ_clean_linker_1, # of connection points: 2
#     Edge 98, Type (0, 1), BuildingBlock: KIFKEQ_clean_linker_1, # of connection points: 2
#     Edge 99, Type (0, 1), BuildingBlock: KIFKEQ_clean_linker_1, # of connection points: 2
#     Edge 100, Type (0, 1), BuildingBlock: KIFKEQ_clean_linker_1, # of connection points: 2
#     Edge 101, Type (0, 1), BuildingBlock: KIFKEQ_clean_linker_1, # of connection points: 2
#     Edge 102, Type (0, 1), BuildingBlock: KIFKEQ_clean_linker_1, # of connection points: 2
#     Edge 103, Type (0, 1), BuildingBlock: KIFKEQ_clean_linker_1, # of connection points: 2
#     Edge 104, Type (0, 1), BuildingBlock: KIFKEQ_clean_linker_1, # of connection points: 2
#     Edge 105, Type (0, 1), BuildingBlock: KIFKEQ_clean_linker_1, # of connection points: 2
#     Edge 106, Type (0, 1), BuildingBlock: KIFKEQ_clean_linker_1, # of connection points: 2
#     Edge 107, Type (0, 1), BuildingBlock: KIFKEQ_clean_linker_1, # of connection points: 2
#     Edge 108, Type (0, 1), BuildingBlock: KIFKEQ_clean_linker_1, # of connection points: 2
#     Edge 109, Type (0, 1), BuildingBlock: KIFKEQ_clean_linker_1, # of connection points: 2
#     Edge 110, Type (0, 1), BuildingBlock: KIFKEQ_clean_linker_1, # of connection points: 2
#     Edge 111, Type (0, 1), BuildingBlock: KIFKEQ_clean_linker_1, # of connection points: 2
#     Edge 112, Type (0, 1), BuildingBlock: KIFKEQ_clean_linker_1, # of connection points: 2
#     Edge 113, Type (0, 1), BuildingBlock: KIFKEQ_clean_linker_1, # of connection points: 2
#     Edge 114, Type (0, 1), BuildingBlock: KIFKEQ_clean_linker_1, # of connection points: 2
#     Edge 115, Type (0, 1), BuildingBlock: KIFKEQ_clean_linker_1, # of connection points: 2
#     Edge 116, Type (0, 1), BuildingBlock: KIFKEQ_clean_linker_1, # of connection points: 2
#     Edge 117, Type (0, 1), BuildingBlock: KIFKEQ_clean_linker_1, # of connection points: 2
#     Edge 118, Type (0, 1), BuildingBlock: KIFKEQ_clean_linker_1, # of connection points: 2
#     Edge 119, Type (0, 1), BuildingBlock: KIFKEQ_clean_linker_1, # of connection points: 2
#     Edge 120, Type (0, 1), BuildingBlock: KIFKEQ_clean_linker_1, # of connection points: 2
#     Edge 121, Type (0, 1), BuildingBlock: KIFKEQ_clean_linker_1, # of connection points: 2
#     Edge 122, Type (0, 1), BuildingBlock: KIFKEQ_clean_linker_1, # of connection points: 2
#     Edge 123, Type (0, 1), BuildingBlock: KIFKEQ_clean_linker_1, # of connection points: 2
#     Edge 124, Type (0, 1), BuildingBlock: KIFKEQ_clean_linker_1, # of connection points: 2
#     Edge 125, Type (0, 1), BuildingBlock: KIFKEQ_clean_linker_1, # of connection points: 2
#     Edge 126, Type (0, 1), BuildingBlock: KIFKEQ_clean_linker_1, # of connection points: 2
#     Edge 127, Type (0, 1), BuildingBlock: KIFKEQ_clean_linker_1, # of connection points: 2
#     Edge 128, Type (0, 1), BuildingBlock: KIFKEQ_clean_linker_1, # of connection points: 2
#     Edge 129, Type (0, 1), BuildingBlock: KIFKEQ_clean_linker_1, # of connection points: 2
#     Edge 130, Type (0, 1), BuildingBlock: KIFKEQ_clean_linker_1, # of connection points: 2
#     Edge 131, Type (0, 1), BuildingBlock: KIFKEQ_clean_linker_1, # of connection points: 2
#     Edge 132, Type (0, 1), BuildingBlock: KIFKEQ_clean_linker_1, # of connection points: 2
#     Edge 133, Type (0, 1), BuildingBlock: KIFKEQ_clean_linker_1, # of connection points: 2
#     Edge 134, Type (0, 1), BuildingBlock: KIFKEQ_clean_linker_1, # of connection points: 2
#     Edge 135, Type (0, 1), BuildingBlock: KIFKEQ_clean_linker_1, # of connection points: 2
# Relax obj value: 0.136
# Max RMSD: 0.330
# Mean RMSD: 0.171
data_MOF--net-gar--node1-TATPOV_clean_sbu_0--node2-KUMBUR_clean_sbu_0--edge1-KIFKEQ_clean_linker_1
_symmetry_space_group_name_H-M    P1
_symmetry_Int_Tables_number       1
_symmetry_cell_setting            triclinic
loop_
_symmetry_equiv_pos_as_xyz
'x, y, z'
_cell_length_a     62.016483
_cell_length_b     56.501875
_cell_length_c     57.21057
_cell_angle_alpha  100.21865
_cell_angle_beta   94.262997
_cell_angle_gamma 103.83331
loop_
_atom_site_label
_atom_site_type_symbol
_atom_site_fract_x
_atom_site_fract_y
_atom_site_fract_z
_atom_type_partial_charge
Zn0 Zn 0.10644 0.34718 0.42807 0.0
Zn1 Zn 0.12836 0.34324 0.3954 0.0
O2 O 0.14369 0.37862 0.41268 0.0
O3 O 0.1181 0.38333 0.4364 0.0
O4 O 0.14893 0.33696 0.37308 0.0
O5 O 0.11896 0.32682 0.44731 0.0
O6 O 0.12642 0.3135 0.41131 0.0
C7 C 0.1359 0.3922 0.42812 0.0
C8 C 0.08052 0.33431 0.38244 0.0
O9 O 0.09959 0.34089 0.37543 0.0
O10 O 0.0791 0.33225 0.40399 0.0
C11 C 0.15648 0.35032 0.35852 0.0
O12 O 0.1491 0.36982 0.3562 0.0
C13 C 0.12451 0.31063 0.43259 0.0
Zn14 Zn 0.99786 0.72372 0.68761 0.0
Zn15 Zn 0.00609 0.76252 0.6642 0.0
O16 O 0.98344 0.77161 0.68503 0.0
O17 O 0.9779 0.74092 0.70487 0.0
O18 O 0.01392 0.78866 0.64536 0.0
O19 O 0.03068 0.73183 0.69799 0.0
O20 O 0.03644 0.76351 0.67971 0.0
C21 C 0.97369 0.76053 0.70027 0.0
C22 C 0.98527 0.70928 0.63746 0.0
O23 O 0.99332 0.73234 0.63831 0.0
O24 O 0.9849 0.70064 0.6564 0.0
C25 C 0.99984 0.79718 0.63454 0.0
O26 O 0.9785 0.78981 0.63684 0.0
C27 C 0.04388 0.74993 0.69197 0.0
Zn28 Zn 0.61374 0.85495 0.9342 0.0
Zn29 Zn 0.62916 0.84286 0.89437 0.0
O30 O 0.64147 0.8796 0.90713 0.0
O31 O 0.63915 0.88544 0.9454 0.0
O32 O 0.6478 0.83664 0.86936 0.0
O33 O 0.61574 0.82457 0.94539 0.0
O34 O 0.63034 0.81509 0.91217 0.0
C35 C 0.64518 0.8941 0.92739 0.0
C36 C 0.58317 0.84543 0.88905 0.0
O37 O 0.59852 0.83812 0.87872 0.0
O38 O 0.58614 0.85429 0.91142 0.0
C39 C 0.65525 0.85072 0.85525 0.0
O40 O 0.64888 0.87121 0.85483 0.0
C41 C 0.62416 0.81008 0.93175 0.0
Zn42 Zn 0.49525 0.22081 0.17992 0.0
Zn43 Zn 0.50581 0.2647 0.16357 0.0
O44 O 0.48247 0.26966 0.18504 0.0
O45 O 0.47474 0.23494 0.19907 0.0
O46 O 0.51308 0.29474 0.14959 0.0
O47 O 0.5279 0.22888 0.19175 0.0
O48 O 0.53557 0.26441 0.1793 0.0
C49 C 0.47174 0.25606 0.19796 0.0
C50 C 0.48614 0.21455 0.12969 0.0
O51 O 0.49519 0.23775 0.13421 0.0
O52 O 0.48343 0.20261 0.14642 0.0
C53 C 0.50012 0.29652 0.13215 0.0
O54 O 0.48117 0.2794 0.12506 0.0
C55 C 0.54178 0.24854 0.18946 0.0
Zn56 Zn 0.13196 0.82179 0.08485 0.0
Zn57 Zn 0.10046 0.8181 0.11372 0.0
O58 O 0.09791 0.84862 0.09711 0.0
O59 O 0.12352 0.85091 0.07252 0.0
O60 O 0.07377 0.8145 0.1335 0.0
O61 O 0.11926 0.78492 0.0683 0.0
O62 O 0.09287 0.78226 0.09199 0.0
C63 C 0.108 0.85919 0.08144 0.0
C64 C 0.15058 0.82699 0.13442 0.0
O65 O 0.1299 0.8231 0.13785 0.0
O66 O 0.15585 0.82859 0.11363 0.0
C67 C 0.06509 0.83203 0.14199 0.0
O68 O 0.07439 0.85479 0.13957 0.0
C69 C 0.10231 0.7719 0.07541 0.0
Zn70 Zn 0.49331 0.769 0.46186 0.0
Zn71 Zn 0.52548 0.77343 0.43351 0.0
O72 O 0.53286 0.8096 0.45432 0.0
O73 O 0.50619 0.80572 0.47781 0.0
O74 O 0.5518 0.77331 0.41295 0.0
O75 O 0.50097 0.73952 0.47411 0.0
O76 O 0.52851 0.74444 0.45195 0.0
C77 C 0.52274 0.81932 0.47062 0.0
C78 C 0.47496 0.76602 0.41343 0.0
O79 O 0.49559 0.76902 0.40988 0.0
O80 O 0.4694 0.76413 0.43401 0.0
C81 C 0.56447 0.79285 0.40829 0.0
O82 O 0.55989 0.81432 0.41545 0.0
C83 C 0.5179 0.73306 0.46679 0.0
Zn84 Zn 0.63044 0.32091 0.58433 0.0
Zn85 Zn 0.59928 0.31895 0.61403 0.0
O86 O 0.59604 0.34829 0.59617 0.0
O87 O 0.62317 0.35152 0.57342 0.0
O88 O 0.57265 0.3152 0.63387 0.0
O89 O 0.61652 0.28465 0.56678 0.0
O90 O 0.59265 0.28278 0.59333 0.0
C91 C 0.60688 0.35917 0.58117 0.0
C92 C 0.64869 0.32562 0.6344 0.0
O93 O 0.62855 0.3251 0.63855 0.0
O94 O 0.65355 0.32439 0.61313 0.0
C95 C 0.56191 0.33159 0.63965 0.0
O96 O 0.56872 0.35346 0.63395 0.0
C97 C 0.60071 0.27195 0.57576 0.0
Zn98 Zn 0.99512 0.27046 0.96473 0.0
Zn99 Zn 0.02393 0.27256 0.93227 0.0
O100 O 0.03187 0.30919 0.95239 0.0
O101 O 0.00839 0.30724 0.97949 0.0
O102 O 0.04997 0.27149 0.91154 0.0
O103 O 0.00492 0.24274 0.97848 0.0
O104 O 0.02628 0.24285 0.94957 0.0
C105 C 0.02392 0.31987 0.97014 0.0
C106 C 0.97359 0.26516 0.91535 0.0
O107 O 0.99365 0.2679 0.90993 0.0
O108 O 0.96996 0.26392 0.93675 0.0
C109 C 0.06211 0.28989 0.90453 0.0
O110 O 0.05731 0.31153 0.9091 0.0
C111 C 0.01883 0.23362 0.96716 0.0
Zn112 Zn 0.45581 0.99951 0.31308 0.0
Zn113 Zn 0.43578 0.05046 0.30499 0.0
O114 O 0.44004 0.05987 0.34069 0.0
O115 O 0.4382 0.0212 0.3301 0.0
O116 O 0.42731 0.07774 0.29436 0.0
O117 O 0.46685 1.0086 0.2822 0.0
O118 O 0.46534 0.04696 0.29539 0.0
C119 C 0.4459 0.04119 0.3451 0.0
C120 C 0.40619 0.99759 0.29442 0.0
O121 O 0.41012 0.02016 0.29216 0.0
O122 O 0.42091 0.98855 0.30398 0.0
C123 C 0.41188 0.08318 0.30586 0.0
O124 O 0.40476 0.07101 0.32251 0.0
C125 C 0.46724 0.03018 0.2784 0.0
Zn126 Zn 0.27929 0.2348 0.51271 0.0
Zn127 Zn 0.30369 0.20365 0.51281 0.0
O128 O 0.31132 0.22006 0.48321 0.0
O129 O 0.29276 0.24882 0.48569 0.0
O130 O 0.32721 0.18457 0.51539 0.0
O131 O 0.28924 0.25249 0.54701 0.0
O132 O 0.30919 0.22529 0.54756 0.0
C133 C 0.30589 0.23778 0.47512 0.0
C134 C 0.25352 0.18242 0.50371 0.0
O135 O 0.27262 0.17781 0.50662 0.0
O136 O 0.25236 0.20474 0.50507 0.0
C137 C 0.33503 0.17329 0.49806 0.0
O138 O 0.32661 0.17207 0.47599 0.0
C139 C 0.30244 0.24345 0.55846 0.0
Zn140 Zn 0.15482 0.04151 0.77397 0.0
Zn141 Zn 0.18097 0.01334 0.77083 0.0
O142 O 0.16306 1.01193 0.80565 0.0
O143 O 0.14052 0.03626 0.80366 0.0
O144 O 0.20081 0.98253 0.76714 0.0
O145 O 0.13619 0.03267 0.74201 0.0
O146 O 0.16104 1.01159 0.73337 0.0
C147 C 0.14813 0.02228 0.81519 0.0
C148 C 0.20078 0.07136 0.77698 0.0
O149 O 0.20544 0.05009 0.77599 0.0
O150 O 0.1805 0.07203 0.77666 0.0
C151 C 0.20954 0.97286 0.78353 0.0
O152 O 0.20689 0.98141 0.80574 0.0
C153 C 0.14459 0.02047 0.72606 0.0
Zn154 Zn 0.3739 0.93778 0.02886 0.0
Zn155 Zn 0.33501 0.94788 0.01872 0.0
O156 O 0.33724 0.92692 0.98834 0.0
O157 O 0.37357 0.93079 0.99308 0.0
O158 O 0.30604 0.95506 0.01465 0.0
O159 O 0.3584 0.91052 0.04449 0.0
O160 O 0.33277 0.93167 0.04591 0.0
C161 C 0.35503 0.92448 0.97981 0.0
C162 C 0.376 0.98774 0.03591 0.0
O163 O 0.35734 0.98006 0.02303 0.0
O164 O 0.38256 0.97332 0.04773 0.0
C165 C 0.30498 0.97213 1.00341 0.0
O166 O 0.3225 0.98284 0.99403 0.0
C167 C 0.34118 0.91536 0.05254 0.0
Zn168 Zn 0.34624 0.36429 0.03382 0.0
Zn169 Zn 0.3192 0.39229 0.0355 0.0
O170 O 0.31438 0.37242 1.00028 0.0
O171 O 0.33305 0.344 1.00131 0.0
O172 O 0.29403 0.40941 0.03675 0.0
O173 O 0.33837 0.35245 0.0636 0.0
O174 O 0.31254 0.37309 0.06306 0.0
C175 C 0.32029 0.35348 0.98982 0.0
C176 C 0.36907 0.41652 0.03947 0.0
O177 O 0.34961 0.42002 0.0416 0.0
O178 O 0.37156 0.39463 0.03543 0.0
C179 C 0.29259 0.42613 0.02502 0.0
O180 O 0.30835 0.43323 0.01173 0.0
C181 C 0.32208 0.35885 0.07247 0.0
Zn182 Zn 0.76097 0.1593 0.03302 0.0
Zn183 Zn 0.79311 0.14516 0.03895 0.0
O184 O 0.80033 0.16334 0.01252 0.0
O185 O 0.76533 0.14884 0.99806 0.0
O186 O 0.81842 0.13164 0.04487 0.0
O187 O 0.77575 0.19334 0.05124 0.0
O188 O 0.79156 0.16915 0.06888 0.0
C189 C 0.78515 0.15898 0.99515 0.0
C190 C 0.74981 0.11487 0.03997 0.0
O191 O 0.76609 0.11539 0.02789 0.0
O192 O 0.7498 0.13464 0.05407 0.0
C193 C 0.82015 0.11718 0.02595 0.0
O194 O 0.80547 0.11344 0.007 0.0
C195 C 0.78576 0.1894 0.06966 0.0
Zn196 Zn 0.19258 0.59756 0.23561 0.0
Zn197 Zn 0.20273 0.55395 0.23278 0.0
O198 O 0.18388 0.55199 0.2591 0.0
O199 O 0.18153 0.5908 0.26678 0.0
O200 O 0.21058 0.52253 0.22768 0.0
O201 O 0.1738 0.58556 0.20466 0.0
O202 O 0.18932 0.55411 0.20106 0.0
C203 C 0.17838 0.56954 0.27219 0.0
C204 C 0.23886 0.59915 0.23828 0.0
O205 O 0.23254 0.57752 0.24227 0.0
O206 O 0.2248 0.61082 0.23294 0.0
C207 C 0.22355 0.52234 0.24564 0.0
O208 O 0.227 0.54006 0.26483 0.0
C209 C 0.17806 0.56686 0.19207 0.0
Zn210 Zn 0.84788 0.86306 0.53479 0.0
Zn211 Zn 0.81991 0.89139 0.53527 0.0
O212 O 0.81406 0.87121 0.50032 0.0
O213 O 0.83594 0.8458 0.50073 0.0
O214 O 0.79562 0.90993 0.5375 0.0
O215 O 0.83698 0.8486 0.56234 0.0
O216 O 0.81315 0.87189 0.56267 0.0
C217 C 0.8217 0.85376 0.4895 0.0
C218 C 0.87045 0.91555 0.54312 0.0
O219 O 0.8506 0.91839 0.54095 0.0
O220 O 0.8735 0.89397 0.54159 0.0
C221 C 0.79011 0.92014 0.52074 0.0
O222 O 0.801 0.9194 0.50189 0.0
C223 C 0.8212 0.85609 0.57132 0.0
Zn224 Zn 0.97403 0.05556 0.27197 0.0
Zn225 Zn 0.94662 0.08318 0.27508 0.0
O226 O 0.96563 0.08543 0.31256 0.0
O227 O 0.99098 0.06461 0.30504 0.0
O228 O 0.92864 0.11538 0.2756 0.0
O229 O 0.99007 0.0628 0.24358 0.0
O230 O 0.96509 0.08423 0.24087 0.0
C231 C 0.98202 0.07682 0.32041 0.0
C232 C 0.92735 0.02489 0.26723 0.0
O233 O 0.92236 0.04615 0.27001 0.0
O234 O 0.94775 0.02476 0.26678 0.0
C235 C 0.91185 0.12144 0.28559 0.0
O236 O 0.90207 0.10694 0.29938 0.0
C237 C 0.98117 0.07569 0.23183 0.0
Zn238 Zn 0.25508 0.65293 0.53182 0.0
Zn239 Zn 0.28829 0.64094 0.54012 0.0
O240 O 0.29536 0.66209 0.51598 0.0
O241 O 0.26151 0.64824 0.49716 0.0
O242 O 0.31568 0.6306 0.54613 0.0
O243 O 0.26762 0.68592 0.55289 0.0
O244 O 0.28402 0.66229 0.57071 0.0
C245 C 0.28194 0.65887 0.49729 0.0
C246 C 0.24708 0.60608 0.53719 0.0
O247 O 0.26438 0.60894 0.5266 0.0
O248 O 0.24323 0.6252 0.54924 0.0
C249 C 0.32168 0.62152 0.52658 0.0
O250 O 0.30899 0.61905 0.5064 0.0
C251 C 0.2776 0.68217 0.5714 0.0
Zn252 Zn 0.47165 0.55252 0.76989 0.0
Zn253 Zn 0.44581 0.58209 0.7745 0.0
O254 O 0.46567 0.58469 0.81178 0.0
O255 O 0.48905 0.56171 0.80262 0.0
O256 O 0.42495 0.6116 0.77482 0.0
O257 O 0.48695 0.55944 0.74082 0.0
O258 O 0.46409 0.58373 0.7403 0.0
C259 C 0.48155 0.57483 0.81871 0.0
C260 C 0.42562 0.52351 0.76762 0.0
O261 O 0.42159 0.5452 0.76978 0.0
O262 O 0.4456 0.52201 0.76665 0.0
C263 C 0.42685 0.63387 0.78745 0.0
O264 O 0.4436 0.6424 0.80471 0.0
C265 C 0.47915 0.57401 0.73029 0.0
Zn266 Zn 0.67445 0.08929 0.73967 0.0
Zn267 Zn 0.69404 0.04907 0.73025 0.0
O268 O 0.68008 0.04383 0.75906 0.0
O269 O 0.68643 0.08363 0.77305 0.0
O270 O 0.71154 0.02489 0.72674 0.0
O271 O 0.67748 0.07925 0.70349 0.0
O272 O 0.6729 0.0395 0.70286 0.0
C273 C 0.68258 0.06158 0.77658 0.0
C274 C 0.72099 0.09926 0.74873 0.0
O275 O 0.71753 0.08111 0.73123 0.0
O276 O 0.70498 0.10337 0.7601 0.0
C277 C 0.72652 0.03161 0.74452 0.0
O278 O 0.72752 0.05188 0.76034 0.0
C279 C 0.67416 0.0571 0.69193 0.0
Zn280 Zn 0.7768 0.73336 0.0122 0.0
Zn281 Zn 0.80411 0.70414 0.01138 0.0
O282 O 0.81125 0.72133 0.98229 0.0
O283 O 0.78794 0.74522 0.98299 0.0
O284 O 0.82656 0.68354 0.01246 0.0
O285 O 0.78939 0.75178 0.04614 0.0
O286 O 0.80998 0.7251 0.04625 0.0
C287 C 0.803 0.7368 0.97329 0.0
C288 C 0.75343 0.68107 0.00477 0.0
O289 O 0.77322 0.67808 0.00578 0.0
O290 O 0.75041 0.70273 0.00717 0.0
C291 C 0.84347 0.68455 1.00096 0.0
O292 O 0.84732 0.69982 0.98602 0.0
C293 C 0.80309 0.74307 0.0573 0.0
Zn294 Zn 0.95152 0.50265 0.8115 0.0
Zn295 Zn 0.9281 0.55203 0.81049 0.0
O296 O 0.9418 0.56315 0.84423 0.0
O297 O 0.93722 0.5239 0.83335 0.0
O298 O 0.91838 0.57949 0.80255 0.0
O299 O 0.9702 0.51863 0.78775 0.0
O300 O 0.94975 0.5459 0.7884 0.0
C301 C 0.94766 0.54397 0.84699 0.0
C302 C 0.90096 0.49954 0.79663 0.0
O303 O 0.90204 0.52253 0.80333 0.0
O304 O 0.91792 0.49042 0.79796 0.0
C305 C 0.90507 0.58647 0.81623 0.0
O306 O 0.89929 0.5747 0.83356 0.0
C307 C 0.9644 0.53601 0.77964 0.0
Zn308 Zn 0.87001 0.43864 0.52362 0.0
Zn309 Zn 0.83397 0.44629 0.51648 0.0
O310 O 0.83465 0.4242 0.48543 0.0
O311 O 0.87126 0.43395 0.48813 0.0
O312 O 0.80481 0.45364 0.5135 0.0
O313 O 0.85913 0.41 0.53862 0.0
O314 O 0.83363 0.43059 0.5454 0.0
C315 C 0.85241 0.42448 0.47572 0.0
C316 C 0.87377 0.4874 0.53519 0.0
O317 O 0.85649 0.47958 0.51995 0.0
O318 O 0.88027 0.47203 0.54564 0.0
C319 C 0.8032 0.47005 0.50155 0.0
O320 O 0.82022 0.48005 0.49105 0.0
C321 C 0.84371 0.41472 0.5504 0.0
Zn322 Zn 0.65573 0.54192 0.27447 0.0
Zn323 Zn 0.68171 0.51399 0.27069 0.0
O324 O 0.66375 0.5123 0.30561 0.0
O325 O 0.64027 0.53547 0.30305 0.0
O326 O 0.7023 0.48398 0.2671 0.0
O327 O 0.63814 0.5346 0.24213 0.0
O328 O 0.66163 0.51181 0.23324 0.0
C329 C 0.64832 0.52202 0.31485 0.0
C330 C 0.70136 0.5724 0.2793 0.0
O331 O 0.70595 0.55097 0.27602 0.0
O332 O 0.68112 0.57292 0.27993 0.0
C333 C 0.70625 0.46972 0.28175 0.0
O334 O 0.69746 0.47223 0.30195 0.0
C335 C 0.64576 0.5216 0.22609 0.0
Tb336 Tb 0.03883 0.03419 0.00942 0.0
C337 C 0.11374 0.11914 0.06515 0.0
C338 C 0.12402 0.14318 0.03482 0.0
C339 C 0.1323 0.16341 0.07669 0.0
C340 C 0.11425 0.12035 0.04139 0.0
C341 C 0.12335 0.14054 0.08314 0.0
C342 C 0.13255 0.16474 0.05255 0.0
C343 C 0.11713 0.11472 0.11254 0.0
N344 N 0.10549 0.09662 0.0707 0.0
C345 C 0.108 0.09406 0.09411 0.0
C346 C 0.12462 0.13814 0.10705 0.0
Tb347 Tb 0.09242 0.06296 0.03935 0.0
N348 N 0.10663 0.0989 0.02484 0.0
C349 C 0.10955 0.09927 1.00127 0.0
C350 C 0.12585 0.14354 0.01073 0.0
C351 C 0.11883 0.12142 0.99394 0.0
H352 H 0.10273 0.07591 0.0986 0.0
H353 H 0.12041 0.12136 0.97521 0.0
H354 H 0.14004 0.18236 0.0478 0.0
H355 H 0.11866 0.11249 0.13094 0.0
H356 H 0.10398 0.08303 0.9873 0.0
H357 H 0.00607 0.98252 0.07685 0.0
H358 H 0.13317 0.16066 0.00499 0.0
H359 H 0.02984 0.01839 0.95049 0.0
H360 H 0.03007 0.01632 0.06336 0.0
H361 H 0.01216 0.98142 0.91925 0.0
H362 H 0.13965 0.18002 0.09024 0.0
H363 H 0.98546 0.94451 0.048 0.0
H364 H 0.97662 0.92092 0.00574 0.0
H365 H 0.13201 0.15408 0.12133 0.0
H366 H 0.9796 0.91991 0.96299 0.0
N367 N 0.0219 1.00038 0.02571 0.0
C368 C 0.02034 1.00125 0.04974 0.0
C369 C 0.99551 0.95998 0.0416 0.0
C370 C 0.99752 0.95858 0.01729 0.0
C371 C 0.007 0.98143 0.05788 0.0
C372 C 0.01072 0.97938 0.00981 0.0
H373 H 0.99297 0.94222 0.93061 0.0
N374 N 0.02387 0.99967 0.97948 0.0
C375 C 0.01242 0.98019 0.93793 0.0
C376 C 0.01227 0.97881 0.98592 0.0
C377 C 0.02295 1.00096 0.95573 0.0
C378 C 1.00154 0.95818 0.94441 0.0
C379 C 1.00085 0.95746 0.96863 0.0
O380 O 0.01878 0.04664 0.98573 0.0
O381 O 0.06251 0.0699 0.02342 0.0
O382 O 0.07021 0.07224 0.0669 0.0
O383 O 0.035 0.0507 0.04735 0.0
O384 O 0.04971 0.06183 0.98795 0.0
O385 O 0.0087 0.04094 0.01997 0.0
O386 O 0.11467 0.05174 0.06169 0.0
O387 O 0.069 0.02688 0.02476 0.0
O388 O 0.06129 0.02437 0.98226 0.0
O389 O 0.09643 0.04734 1.00113 0.0
O390 O 0.08233 0.03324 0.05921 0.0
O391 O 0.12336 0.06037 0.02775 0.0
C392 C 0.06138 0.07926 0.00485 0.0
C393 C 0.98021 0.03706 0.98874 0.0
C394 C 0.94171 0.03844 0.9906 0.0
C395 C 0.96377 0.04442 1.00137 0.0
C396 C 0.93591 0.02423 0.9672 0.0
C397 C 0.97441 0.02313 0.96522 0.0
C398 C 0.95225 0.01651 0.95463 0.0
C399 C 0.04821 0.06414 0.06713 0.0
C400 C 1.00337 0.0469 0.99977 0.0
C401 C 0.98839 0.93647 0.97599 0.0
C402 C 0.98663 0.93708 1.00029 0.0
C403 C 0.07051 0.01589 0.04223 0.0
C404 C 0.15301 0.06325 0.05743 0.0
C405 C 0.16817 0.05091 0.04767 0.0
C406 C 0.19036 0.05764 0.05795 0.0
C407 C 0.19766 0.07695 0.07808 0.0
C408 C 0.16018 0.08263 0.07761 0.0
C409 C 0.1825 0.0894 0.08792 0.0
C410 C 0.08317 0.03334 0.98157 0.0
C411 C 0.12971 0.05349 0.04708 0.0
H412 H 0.96833 0.05559 0.01936 0.0
H413 H 0.91897 0.01985 0.95837 0.0
H414 H 0.9869 0.01801 0.95471 0.0
H415 H 0.94787 1.00603 0.93643 0.0
H416 H 0.16263 0.03576 0.03219 0.0
H417 H 0.21489 0.08212 0.08623 0.0
H418 H 0.14872 0.09231 0.08556 0.0
H419 H 0.188 0.10416 0.10362 0.0
Tb420 Tb 0.32313 0.7902 0.25558 0.0
C421 C 0.28967 0.8631 0.33128 0.0
C422 C 0.32452 0.88831 0.35409 0.0
C423 C 0.29052 0.902 0.35818 0.0
C424 C 0.31223 0.8666 0.33776 0.0
C425 C 0.27849 0.88068 0.34156 0.0
C426 C 0.31352 0.90585 0.36436 0.0
C427 C 0.24395 0.85387 0.31998 0.0
N428 N 0.27852 0.84204 0.31554 0.0
C429 C 0.2557 0.83686 0.31063 0.0
C430 C 0.25541 0.87596 0.33547 0.0
Tb431 Tb 0.29769 0.81204 0.30675 0.0
N432 N 0.32209 0.84874 0.32814 0.0
C433 C 0.34478 0.85248 0.33344 0.0
C434 C 0.34747 0.89171 0.35978 0.0
C435 C 0.35768 0.87386 0.34913 0.0
H436 H 0.24629 0.81898 0.30033 0.0
H437 H 0.37553 0.87647 0.35309 0.0
H438 H 0.32263 0.9224 0.37718 0.0
H439 H 0.22595 0.84952 0.31583 0.0
H440 H 0.3536 0.83954 0.32539 0.0
H441 H 0.24459 0.72742 0.20903 0.0
H442 H 0.35748 0.90811 0.37219 0.0
H443 H 0.37398 0.7811 0.26279 0.0
H444 H 0.26705 0.76323 0.23792 0.0
H445 H 0.39395 0.75137 0.24458 0.0
H446 H 0.28218 0.91554 0.36645 0.0
H447 H 0.26225 0.69662 0.18752 0.0
H448 H 0.29696 0.68251 0.18053 0.0
H449 H 0.24621 0.88889 0.34313 0.0
H450 H 0.33745 0.68873 0.19053 0.0
N451 N 0.29837 0.75416 0.23335 0.0
C452 C 0.27563 0.75062 0.22877 0.0
C453 C 0.27246 0.71251 0.2004 0.0
C454 C 0.29545 0.71567 0.20541 0.0
C455 C 0.26247 0.72989 0.21242 0.0
C456 C 0.30799 0.73667 0.22243 0.0
H457 H 0.37357 0.71398 0.21468 0.0
N458 N 0.34173 0.75986 0.24532 0.0
C459 C 0.37602 0.74761 0.24013 0.0
C460 C 0.33049 0.73971 0.22854 0.0
C461 C 0.36445 0.76423 0.25076 0.0
C462 C 0.3645 0.72662 0.22321 0.0
C463 C 0.34147 0.72247 0.21714 0.0
O464 O 0.35324 0.80744 0.24415 0.0
O465 O 0.31557 0.82125 0.2779 0.0
O466 O 0.27797 0.81885 0.27566 0.0
O467 O 0.29314 0.80172 0.24221 0.0
O468 O 0.34801 0.82448 0.27158 0.0
O469 O 0.32112 0.79643 0.22062 0.0
O470 O 0.26872 0.79488 0.31946 0.0
O471 O 0.30522 0.78157 0.28425 0.0
O472 O 0.34249 0.78306 0.28617 0.0
O473 O 0.32829 0.80105 0.31988 0.0
O474 O 0.2734 0.77606 0.29304 0.0
O475 O 0.30087 0.80819 0.34297 0.0
C476 C 0.33434 0.83634 0.28055 0.0
C477 C 0.35428 0.81475 0.20439 0.0
C478 C 0.35577 0.84147 0.17618 0.0
C479 C 0.3443 0.82888 0.19197 0.0
C480 C 0.37748 0.83961 0.17235 0.0
C481 C 0.37596 0.81265 0.20098 0.0
C482 C 0.38749 0.82496 0.18469 0.0
C483 C 0.27772 0.81197 0.25204 0.0
C484 C 0.34281 0.80572 0.22321 0.0
C485 C 0.32926 0.70199 0.19966 0.0
C486 C 0.30625 0.69851 0.1939 0.0
C487 C 0.28718 0.76554 0.28245 0.0
C488 C 0.26704 0.79086 0.3599 0.0
C489 C 0.27612 0.77818 0.37504 0.0
C490 C 0.26335 0.76768 0.39131 0.0
C491 C 0.24166 0.77052 0.39318 0.0
C492 C 0.24536 0.79396 0.36159 0.0
C493 C 0.23278 0.78398 0.37846 0.0
C494 C 0.34322 0.79013 0.3097 0.0
C495 C 0.2793 0.7981 0.34068 0.0
H496 H 0.32787 0.83118 0.19557 0.0
H497 H 0.3865 0.84927 0.15987 0.0
H498 H 0.38398 0.80196 0.21112 0.0
H499 H 0.40422 0.82347 0.18191 0.0
H500 H 0.29265 0.77523 0.37325 0.0
H501 H 0.23166 0.76219 0.40579 0.0
H502 H 0.23809 0.80367 0.34967 0.0
H503 H 0.21602 0.78619 0.37973 0.0
Tb504 Tb 0.58513 0.04764 0.51401 0.0
C505 C 0.50323 1.00049 0.55965 0.0
C506 C 0.48164 0.96704 0.52803 0.0
C507 C 0.47906 0.96391 0.56961 0.0
C508 C 0.49721 0.99042 0.5356 0.0
C509 C 0.49395 0.98761 0.57698 0.0
C510 C 0.47294 0.95362 0.54516 0.0
C511 C 0.51371 0.0232 0.60745 0.0
N512 N 0.51771 0.02338 0.56604 0.0
C513 C 0.52247 0.03524 0.58957 0.0
C514 C 0.49957 0.99917 0.60115 0.0
Tb515 Tb 0.53109 0.04148 0.53547 0.0
N516 N 0.50578 1.00411 0.51965 0.0
C517 C 0.49827 0.99605 0.49577 0.0
C518 C 0.47479 0.9582 0.50353 0.0
C519 C 0.48289 0.97296 0.48737 0.0
H520 H 0.53334 0.05383 0.59458 0.0
H521 H 0.47737 0.96654 0.46841 0.0
H522 H 0.46108 0.93555 0.5397 0.0
H523 H 0.51781 0.03247 0.62606 0.0
H524 H 0.50427 1.00706 0.48288 0.0
H525 H 0.63594 0.12375 0.58227 0.0
H526 H 0.46288 0.94033 0.49698 0.0
H527 H 0.58511 0.03482 0.4553 0.0
H528 H 0.6098 0.08295 0.56732 0.0
H529 H 0.60315 0.05519 0.4244 0.0
H530 H 0.47186 0.9536 0.58265 0.0
H531 H 0.65237 0.14926 0.55395 0.0
H532 H 0.65682 0.15303 0.51136 0.0
H533 H 0.49274 0.98991 0.61503 0.0
H534 H 0.64818 0.13425 0.46839 0.0
N535 N 0.61014 0.08516 0.5304 0.0
C536 C 0.61649 0.09366 0.55449 0.0
C537 C 0.64067 0.13129 0.54716 0.0
C538 C 0.63517 0.12194 0.52256 0.0
C539 C 0.63146 0.11694 0.56318 0.0
C540 C 0.61971 0.09852 0.51467 0.0
H541 H 0.62854 0.09755 0.43584 0.0
N542 N 0.59994 0.06546 0.48392 0.0
C543 C 0.60637 0.06478 0.44294 0.0
C544 C 0.61459 0.08821 0.49059 0.0
C545 C 0.59613 0.05331 0.46049 0.0
C546 C 0.62067 0.08869 0.44946 0.0
C547 C 0.62509 0.10065 0.47356 0.0
O548 O 0.59682 0.01694 0.49944 0.0
O549 O 0.55385 0.02296 0.51785 0.0
O550 O 0.54877 0.02235 0.55649 0.0
O551 O 0.58447 0.04415 0.55133 0.0
O552 O 0.56642 0.01501 0.48679 0.0
O553 O 0.61507 0.04286 0.53064 0.0
O554 O 0.51903 0.071 0.55206 0.0
O555 O 0.56208 0.06654 0.5308 0.0
O556 O 0.5668 0.06485 0.49118 0.0
O557 O 0.53079 0.04571 0.49834 0.0
O558 O 0.54993 0.07421 0.56232 0.0
O559 O 0.50125 0.04675 0.51943 0.0
C560 C 0.55039 1.00677 0.49871 0.0
C561 C 0.63554 0.02116 0.5049 0.0
C562 C 0.66964 1.0068 0.5055 0.0
C563 C 0.65044 1.01003 0.516 0.0
C564 C 0.67352 0.01427 0.48371 0.0
C565 C 0.63996 0.02865 0.48324 0.0
C566 C 0.65874 0.0251 0.47267 0.0
C567 C 0.57056 0.02923 0.56205 0.0
C568 C 0.61461 0.02301 0.51489 0.0
C569 C 0.64006 0.12428 0.48121 0.0
C570 C 0.645 0.13496 0.50567 0.0
C571 C 0.56527 0.0829 0.54981 0.0
C572 C 0.48061 0.06769 0.54544 0.0
C573 C 0.46777 0.08142 0.53518 0.0
C574 C 0.44913 0.08632 0.54554 0.0
C575 C 0.44325 0.07734 0.56613 0.0
C576 C 0.47441 0.05846 0.56586 0.0
C577 C 0.4558 0.06333 0.57615 0.0
C578 C 0.54478 0.05898 0.48625 0.0
C579 C 0.50165 0.06584 0.53614 0.0
H580 H 0.64714 1.00395 0.53263 0.0
H581 H 0.68797 1.01154 0.4751 0.0
H582 H 0.62875 0.03678 0.47416 0.0
H583 H 0.66176 0.03063 0.45578 0.0
H584 H 0.4726 0.08882 0.51955 0.0
H585 H 0.42895 0.08116 0.5744 0.0
H586 H 0.48417 0.04803 0.57414 0.0
H587 H 0.45124 0.05647 0.59208 0.0
Tb588 Tb 0.28711 0.30426 0.77198 0.0
C589 C 0.3637 0.27266 0.82048 0.0
C590 C 0.37924 0.3083 0.85253 0.0
C591 C 0.38282 0.26749 0.85721 0.0
C592 C 0.3673 0.29767 0.82957 0.0
C593 C 0.37208 0.25738 0.83383 0.0
C594 C 0.38635 0.29294 0.86657 0.0
C595 C 0.36166 0.22432 0.79879 0.0
N596 N 0.35384 0.2638 0.79765 0.0
C597 C 0.35385 0.24033 0.78624 0.0
C598 C 0.37046 0.23274 0.82284 0.0
Tb599 Tb 0.34144 0.29107 0.77814 0.0
N600 N 0.36081 0.3119 0.81509 0.0
C601 C 0.36743 0.33736 0.82209 0.0
C602 C 0.38464 0.33412 0.86021 0.0
C603 C 0.37906 0.34873 0.84473 0.0
H604 H 0.34717 0.23378 0.76758 0.0
H605 H 0.38362 0.3688 0.85022 0.0
H606 H 0.39538 0.30073 0.88429 0.0
H607 H 0.36098 0.20554 0.78987 0.0
H608 H 0.36329 0.34941 0.81092 0.0
H609 H 0.24613 0.22583 0.70003 0.0
H610 H 0.39378 0.34299 0.87769 0.0
H611 H 0.28287 0.36238 0.78129 0.0
H612 H 0.26569 0.24548 0.73957 0.0
H613 H 0.2692 0.39015 0.75826 0.0
H614 H 0.38919 0.25601 0.86784 0.0
H615 H 0.23596 0.25133 0.67225 0.0
H616 H 0.23409 0.29335 0.66525 0.0
H617 H 0.37673 0.2204 0.83246 0.0
H618 H 0.2402 0.33816 0.68114 0.0
N619 N 0.26784 0.28291 0.7352 0.0
C620 C 0.2616 0.25743 0.72826 0.0
C621 C 0.24476 0.26034 0.68985 0.0
C622 C 0.24979 0.28616 0.69745 0.0
C623 C 0.25037 0.2459 0.70549 0.0
C624 C 0.26136 0.29698 0.72053 0.0
H625 H 0.25284 0.3743 0.71595 0.0
N626 N 0.27503 0.33143 0.75204 0.0
C627 C 0.26808 0.37111 0.74981 0.0
C628 C 0.265 0.32212 0.72931 0.0
C629 C 0.27582 0.35537 0.76277 0.0
C630 C 0.25892 0.36212 0.72593 0.0
C631 C 0.25692 0.33723 0.7155 0.0
O632 O 0.27156 0.31729 0.80144 0.0
O633 O 0.3146 0.30146 0.79599 0.0
O634 O 0.31829 0.25826 0.78743 0.0
O635 O 0.28357 0.26528 0.77672 0.0
O636 O 0.30279 0.33279 0.80319 0.0
O637 O 0.25392 0.28508 0.77591 0.0
O638 O 0.35814 0.27685 0.75026 0.0
O639 O 0.31395 0.29378 0.75411 0.0
O640 O 0.31041 0.33666 0.762 0.0
O641 O 0.34516 0.33017 0.77354 0.0
O642 O 0.3263 0.26305 0.74628 0.0
O643 O 0.37332 0.3121 0.77301 0.0
C644 C 0.31648 0.3213 0.81118 0.0
C645 C 0.23212 0.30804 0.79936 0.0
C646 C 0.19669 0.30493 0.817 0.0
C647 C 0.21554 0.29558 0.81205 0.0
C648 C 0.19503 0.32693 0.80966 0.0
C649 C 0.22953 0.32976 0.79217 0.0
C650 C 0.21129 0.33919 0.7974 0.0
C651 C 0.29601 0.25073 0.78318 0.0
C652 C 0.25305 0.29998 0.79573 0.0
C653 C 0.24633 0.32681 0.69211 0.0
C654 C 0.24284 0.30131 0.68307 0.0
C655 C 0.3124 0.27435 0.73848 0.0
C656 C 0.39754 0.28985 0.75389 0.0
C657 C 0.41127 0.29742 0.73648 0.0
C658 C 0.43116 0.28969 0.73384 0.0
C659 C 0.43707 0.27439 0.74868 0.0
C660 C 0.40431 0.27528 0.769 0.0
C661 C 0.42383 0.26744 0.76626 0.0
C662 C 0.33269 0.34446 0.76652 0.0
C663 C 0.37556 0.29572 0.75493 0.0
H664 H 0.21727 0.27887 0.81798 0.0
H665 H 0.181 0.3347 0.81347 0.0
H666 H 0.24183 0.33984 0.7829 0.0
H667 H 0.20979 0.35619 0.79197 0.0
H668 H 0.40633 0.30883 0.72478 0.0
H669 H 0.45219 0.26814 0.74692 0.0
H670 H 0.39447 0.26975 0.7828 0.0
H671 H 0.42872 0.25589 0.7778 0.0
Tb672 Tb 0.05793 0.07403 0.53467 0.0
C673 C 0.07712 0.99661 0.45699 0.0
C674 C 0.04226 0.98351 0.4306 0.0
C675 C 0.07657 0.97839 0.415 0.0
C676 C 0.05443 0.99427 0.45343 0.0
C677 C 0.08839 0.98814 0.43795 0.0
C678 C 0.05353 0.97611 0.41133 0.0
C679 C 0.12158 0.99692 0.46619 0.0
N680 N 0.08786 1.00557 0.47947 0.0
C681 C 0.1096 1.0048 0.48449 0.0
C682 C 0.111 0.98883 0.44274 0.0
Tb683 Tb 0.0669 0.01723 0.50867 0.0
N684 N 0.04407 1.00092 0.47267 0.0
C685 C 0.02111 0.99577 0.47025 0.0
C686 C 0.01903 0.97957 0.42798 0.0
C687 C 0.00841 0.98545 0.44797 0.0
H688 H 0.11782 1.01077 0.50266 0.0
H689 H 0.99037 0.98205 0.44628 0.0
H690 H 0.04447 0.9679 0.39369 0.0
H691 H 0.13891 0.99692 0.47021 0.0
H692 H 0.0121 1.00012 0.48508 0.0
H693 H 0.13513 0.10883 0.59613 0.0
H694 H 0.0091 0.97136 0.41078 0.0
H695 H 0.00728 0.08095 0.541 0.0
H696 H 0.11289 0.08958 0.55792 0.0
H697 H 0.98679 0.09647 0.57325 0.0
H698 H 0.08495 0.9719 0.40014 0.0
H699 H 0.11715 0.12244 0.63136 0.0
H700 H 0.08234 0.12822 0.64841 0.0
H701 H 0.12023 0.98245 0.42862 0.0
H702 H 0.04196 0.12483 0.64228 0.0
N703 N 0.08123 0.09086 0.57034 0.0
C704 C 0.10414 0.09514 0.5726 0.0
C705 C 0.10696 0.11366 0.61441 0.0
C706 C 0.08381 0.11046 0.61195 0.0
C707 C 0.11716 0.10611 0.59457 0.0
C708 C 0.07128 0.09885 0.58947 0.0
H709 H 0.00624 0.11309 0.61435 0.0
N710 N 0.03751 0.08678 0.56394 0.0
C711 C 1.00412 0.09642 0.57721 0.0
C712 C 0.04863 0.09679 0.58612 0.0
C713 C 0.01572 0.08744 0.55904 0.0
C714 C 0.01515 0.10578 0.60036 0.0
C715 C 0.03778 0.10647 0.60498 0.0
O716 O 0.04192 0.0968 0.51872 0.0
O717 O 0.05673 0.04943 0.50015 0.0
O718 O 0.09371 0.04413 0.49698 0.0
O719 O 0.09096 0.08008 0.52201 0.0
O720 O 0.02917 0.0619 0.5065 0.0
O721 O 0.07685 0.10996 0.53326 0.0
O722 O 0.08224 0.9941 0.52485 0.0
O723 O 0.06812 0.04178 0.54334 0.0
O724 O 0.0312 0.04764 0.54623 0.0
O725 O 0.03363 1.01126 0.52147 0.0
O726 O 0.09562 0.02917 0.53676 0.0
O727 O 0.04799 0.98063 0.50823 0.0
C728 C 0.03777 0.05004 0.4899 0.0
C729 C 0.05713 0.13987 0.52722 0.0
C730 C 0.06343 0.1792 0.51475 0.0
C731 C 0.06773 0.15603 0.51349 0.0
C732 C 0.04865 0.18662 0.53013 0.0
C733 C 0.04229 0.14703 0.54272 0.0
C734 C 0.0381 0.17048 0.54416 0.0
C735 C 0.10166 0.06796 0.50693 0.0
C736 C 0.05993 0.11481 0.52199 0.0
C737 C 0.05001 0.11733 0.62757 0.0
C738 C 0.07299 0.11928 0.63105 0.0
C739 C 0.08712 0.04101 0.55349 0.0
C740 C 0.06808 0.95078 0.51439 0.0
C741 C 0.05637 0.93313 0.52616 0.0
C742 C 0.06263 0.91096 0.52664 0.0
C743 C 0.08012 0.90607 0.51379 0.0
C744 C 0.0853 0.94564 0.50142 0.0
C745 C 0.09113 0.9232 0.50096 0.0
C746 C 0.02304 0.02393 0.53627 0.0
C747 C 0.06451 0.97563 0.52008 0.0
H748 H 0.07893 0.15029 0.50118 0.0
H749 H 0.04512 0.20461 0.53102 0.0
H750 H 0.03367 0.13452 0.55322 0.0
H751 H 0.02646 0.17598 0.55585 0.0
H752 H 0.04294 0.93732 0.53592 0.0
H753 H 0.08575 0.8894 0.51416 0.0
H754 H 0.0947 0.95914 0.49238 0.0
H755 H 0.10472 0.91946 0.49134 0.0
Tb756 Tb 0.34198 0.81733 0.77235 0.0
C757 C 0.28588 0.73887 0.81059 0.0
C758 C 0.28804 0.70128 0.78388 0.0
C759 C 0.28108 0.69987 0.82478 0.0
C760 C 0.28924 0.72707 0.78824 0.0
C761 C 0.28079 0.72497 0.82871 0.0
C762 C 0.28475 0.68806 0.80243 0.0
C763 C 0.271 0.75996 0.85173 0.0
N764 N 0.28488 0.76298 0.81372 0.0
C765 C 0.27596 0.77286 0.83334 0.0
C766 C 0.27394 0.7361 0.84967 0.0
Tb767 Tb 0.29077 0.78148 0.78099 0.0
N768 N 0.29128 0.74002 0.77021 0.0
C769 C 0.2907 0.7274 0.74715 0.0
C770 C 0.28872 0.68899 0.76065 0.0
C771 C 0.28961 0.70201 0.74219 0.0
H772 H 0.27302 0.79117 0.83532 0.0
H773 H 0.28942 0.69248 0.72397 0.0
H774 H 0.28392 0.66836 0.79933 0.0
H775 H 0.26464 0.76837 0.86735 0.0
H776 H 0.2911 0.73618 0.73197 0.0
H777 H 0.33449 0.90421 0.82361 0.0
H778 H 0.28765 0.66924 0.75663 0.0
H779 H 0.36348 0.80503 0.72157 0.0
H780 H 0.33416 0.85969 0.8166 0.0
H781 H 0.37386 0.82589 0.68806 0.0
H782 H 0.27739 0.68909 0.83855 0.0
H783 H 0.34135 0.92761 0.79105 0.0
H784 H 0.35117 0.92834 0.74929 0.0
H785 H 0.2697 0.72596 0.8638 0.0
H786 H 0.36154 0.90686 0.71218 0.0
N787 N 0.33998 0.85773 0.78025 0.0
C788 C 0.33693 0.86967 0.80222 0.0
C789 C 0.34099 0.90803 0.78781 0.0
C790 C 0.34505 0.89594 0.76565 0.0
C791 C 0.3372 0.89491 0.80626 0.0
C792 C 0.34446 0.87045 0.7624 0.0
H793 H 0.36998 0.86862 0.68912 0.0
N794 N 0.3512 0.83438 0.73988 0.0
C795 C 0.36692 0.83509 0.70278 0.0
C796 C 0.35022 0.85837 0.74147 0.0
C797 C 0.36072 0.82318 0.72159 0.0
C798 C 0.3647 0.85922 0.70346 0.0
C799 C 0.35685 0.87142 0.72326 0.0
O800 O 0.37342 0.81004 0.76989 0.0
O801 O 0.32611 0.78086 0.78035 0.0
O802 O 0.30723 0.80273 0.81615 0.0
O803 O 0.34401 0.81375 0.80911 0.0
O804 O 0.34564 0.78123 0.75332 0.0
O805 O 0.37004 0.84216 0.79433 0.0
O806 O 0.2625 0.79111 0.79409 0.0
O807 O 0.30859 0.82076 0.78238 0.0
O808 O 0.32195 0.80965 0.73832 0.0
O809 O 0.29317 0.77668 0.743 0.0
O810 O 0.27791 0.8073 0.76273 0.0
O811 O 0.25948 0.75785 0.76593 0.0
C812 C 0.33499 0.76665 0.766 0.0
C813 C 0.40556 0.84318 0.78113 0.0
C814 C 0.44583 0.85174 0.7895 0.0
C815 C 0.42444 0.84129 0.79483 0.0
C816 C 0.44844 0.86413 0.77035 0.0
C817 C 0.4082 0.85619 0.76237 0.0
C818 C 0.4296 0.86648 0.75691 0.0
C819 C 0.32877 0.8111 0.82367 0.0
C820 C 0.3837 0.82953 0.78593 0.0
C821 C 0.35653 0.89652 0.72598 0.0
C822 C 0.35065 0.90876 0.74713 0.0
C823 C 0.29335 0.8275 0.77016 0.0
C824 C 0.22542 0.76526 0.77924 0.0
C825 C 0.21256 0.76338 0.75762 0.0
C826 C 0.18937 0.75768 0.75653 0.0
C827 C 0.17898 0.75337 0.77692 0.0
C828 C 0.21519 0.76135 0.79976 0.0
C829 C 0.19191 0.7552 0.7985 0.0
C830 C 0.3048 0.79071 0.72992 0.0
C831 C 0.24951 0.77121 0.78025 0.0
H832 H 0.42253 0.83128 0.8094 0.0
H833 H 0.46498 0.87213 0.766 0.0
H834 H 0.39395 0.85832 0.75186 0.0
H835 H 0.43158 0.87621 0.74221 0.0
H836 H 0.22054 0.76684 0.74186 0.0
H837 H 0.16092 0.74909 0.77619 0.0
H838 H 0.22517 0.76284 0.81657 0.0
H839 H 0.18392 0.75208 0.81426 0.0
Tb840 Tb 0.56313 0.04291 0.04797 0.0
C841 C 0.50841 0.07086 0.96527 0.0
C842 C 0.48561 0.03084 0.944 0.0
C843 C 0.47289 0.06799 0.94234 0.0
C844 C 0.50521 0.04558 0.95877 0.0
C845 C 0.49253 0.08251 0.95678 0.0
C846 C 0.46941 0.04216 0.936 0.0
C847 C 0.51749 0.12212 0.97571 0.0
N848 N 0.52752 0.08418 0.97927 0.0
C849 C 0.53278 0.10966 0.98338 0.0
C850 C 0.49711 0.10846 0.96258 0.0
Tb851 Tb 0.55223 0.06281 0.99128 0.0
N852 N 0.52127 0.03544 0.96702 0.0
C853 C 0.5187 1.01023 0.96016 0.0
C854 C 0.48287 1.0052 0.93762 0.0
C855 C 0.49955 0.99489 0.94567 0.0
H856 H 0.54885 0.12039 0.9928 0.0
H857 H 0.4976 0.97501 0.94092 0.0
H858 H 0.45427 0.03114 0.9247 0.0
H859 H 0.52158 0.14225 0.97967 0.0
H860 H 0.53061 1.00106 0.96639 0.0
H861 H 0.61445 0.13334 0.09614 0.0
H862 H 0.46803 0.99324 0.92645 0.0
H863 H 0.56998 0.98681 0.04973 0.0
H864 H 0.58034 0.1043 0.07513 0.0
H865 H 0.60067 0.96823 0.0605 0.0
H866 H 0.46046 0.07657 0.93572 0.0
H867 H 0.64844 0.11904 0.1039 0.0
H868 H 0.66665 0.08371 0.10139 0.0
H869 H 0.48535 0.11812 0.95643 0.0
H870 H 0.66305 0.03863 0.09137 0.0
N871 N 0.59391 0.07241 0.07012 0.0
C872 C 0.59453 0.09699 0.07819 0.0
C873 C 0.63329 0.10585 0.09454 0.0
C874 C 0.63246 0.08069 0.08726 0.0
C875 C 0.61413 0.11394 0.09027 0.0
C876 C 0.61227 0.06426 0.07513 0.0
H877 H 0.63837 0.99535 0.0765 0.0
N878 N 0.59029 0.02407 0.05886 0.0
C879 C 0.60369 0.98823 0.06292 0.0
C880 C 0.61038 0.03915 0.06925 0.0
C881 C 0.58634 0.99884 0.05696 0.0
C882 C 0.62497 1.00358 0.07183 0.0
C883 C 0.62841 0.02941 0.07566 0.0
O884 O 0.54384 0.01538 0.06302 0.0
O885 O 0.5404 0.04389 0.01856 0.0
O886 O 0.53993 0.08618 0.01775 0.0
O887 O 0.54937 0.07562 0.05451 0.0
O888 O 0.53415 1.01182 0.03116 0.0
O889 O 0.55266 0.05437 0.08137 0.0
O890 O 0.57367 0.08965 0.97728 0.0
O891 O 0.57507 0.06189 0.02063 0.0
O892 O 0.57652 0.02003 0.02135 0.0
O893 O 0.56281 0.02827 0.98508 0.0
O894 O 0.58001 0.09438 0.00903 0.0
O895 O 0.56485 0.05076 0.95957 0.0
C896 C 0.52667 0.02323 0.01607 0.0
C897 C 0.53821 0.02344 0.10365 0.0
C898 C 0.51492 0.02249 0.13545 0.0
C899 C 0.52341 0.03333 0.11702 0.0
C900 C 0.52191 1.00219 0.14135 0.0
C901 C 0.54554 1.00331 0.10953 0.0
C902 C 0.53746 0.99285 0.12857 0.0
C903 C 0.54156 0.08944 0.04121 0.0
C904 C 0.5416 0.03157 0.08127 0.0
C905 C 0.64891 0.04571 0.08659 0.0
C906 C 0.65095 0.07135 0.09235 0.0
C907 C 0.58846 0.08291 0.02336 0.0
C908 C 0.57444 0.0809 0.93611 0.0
C909 C 0.58749 0.07179 0.92002 0.0
C910 C 0.59047 0.08106 0.89936 0.0
C911 C 0.57988 0.09912 0.89411 0.0
C912 C 0.56342 0.09881 0.93111 0.0
C913 C 0.56609 0.10779 0.90998 0.0
C914 C 0.57262 0.0154 0.99771 0.0
C915 C 0.57552 0.07345 0.95895 0.0
H916 H 0.51747 0.04863 0.11222 0.0
H917 H 0.51539 0.99372 0.15581 0.0
H918 H 0.55676 0.99523 0.09899 0.0
H919 H 0.54282 0.97715 0.13305 0.0
H920 H 0.59628 0.05824 0.92412 0.0
H921 H 0.58241 0.10651 0.87802 0.0
H922 H 0.55341 0.10632 0.94364 0.0
H923 H 0.55791 0.12184 0.90619 0.0
Tb924 Tb 0.32025 0.31883 0.27786 0.0
C925 C 0.237 0.24078 0.23864 0.0
C926 C 0.21739 0.23504 0.27316 0.0
C927 C 0.19661 0.22263 0.23352 0.0
C928 C 0.23754 0.2424 0.26314 0.0
C929 C 0.21645 0.23033 0.22357 0.0
C930 C 0.19705 0.22516 0.25825 0.0
C931 C 0.23657 0.23266 0.18943 0.0
N932 N 0.2566 0.24771 0.22941 0.0
C933 C 0.25643 0.24247 0.20484 0.0
C934 C 0.21644 0.22671 0.19881 0.0
Tb935 Tb 0.2887 0.2557 0.25635 0.0
N936 N 0.25768 0.25066 0.27711 0.0
C937 C 0.25818 0.25348 0.30152 0.0
C938 C 0.21818 0.23746 0.2979 0.0
C939 C 0.23863 0.24707 0.31213 0.0
H940 H 0.27172 0.24469 0.19658 0.0
H941 H 0.2394 0.24951 0.3314 0.0
H942 H 0.18157 0.21907 0.26567 0.0
H943 H 0.23692 0.22883 0.17026 0.0
H944 H 0.27323 0.26139 0.31355 0.0
H945 H 0.37537 0.3271 0.20753 0.0
H946 H 0.20309 0.23214 0.30621 0.0
H947 H 0.33183 0.33832 0.33664 0.0
H948 H 0.34056 0.31273 0.22287 0.0
H949 H 0.36433 0.35954 0.3662 0.0
H950 H 0.18084 0.21438 0.22218 0.0
H951 H 0.40968 0.3487 0.23503 0.0
H952 H 0.42817 0.36541 0.27678 0.0
H953 H 0.20109 0.21844 0.18677 0.0
H954 H 0.42543 0.37323 0.31991 0.0
N955 N 0.35315 0.32703 0.25999 0.0
C956 C 0.35449 0.32297 0.23578 0.0
C957 C 0.39404 0.34272 0.24219 0.0
C958 C 0.39301 0.34664 0.26678 0.0
C959 C 0.37471 0.33072 0.22666 0.0
C960 C 0.37219 0.33833 0.27526 0.0
H961 H 0.40191 0.37086 0.35332 0.0
N962 N 0.35058 0.33432 0.30705 0.0
C963 C 0.36658 0.35428 0.34758 0.0
C964 C 0.37086 0.342 0.29953 0.0
C965 C 0.34817 0.34173 0.33066 0.0
C966 C 0.38769 0.3607 0.34025 0.0
C967 C 0.39 0.35506 0.31594 0.0
O968 O 0.30782 0.34175 0.30355 0.0
O969 O 0.28901 0.29097 0.27672 0.0
O970 O 0.29077 0.27696 0.22732 0.0
O971 O 0.31 0.31869 0.24089 0.0
O972 O 0.28738 0.32315 0.26646 0.0
O973 O 0.32661 0.35638 0.2758 0.0
O974 O 0.29439 0.23121 0.22678 0.0
O975 O 0.31971 0.28307 0.25769 0.0
O976 O 0.32209 0.2974 0.30694 0.0
O977 O 0.30232 0.25535 0.29266 0.0
O978 O 0.32144 0.24871 0.26342 0.0
O979 O 0.27614 0.2175 0.25493 0.0
C980 C 0.27553 0.30252 0.27006 0.0
C981 C 0.32024 0.38607 0.30811 0.0
C982 C 0.31258 0.42553 0.3059 0.0
C983 C 0.31744 0.40371 0.29496 0.0
C984 C 0.3146 0.43177 0.33101 0.0
C985 C 0.32181 0.39181 0.33316 0.0
C986 C 0.31988 0.41514 0.34461 0.0
C987 C 0.29819 0.29998 0.22415 0.0
C988 C 0.31571 0.36093 0.29409 0.0
C989 C 0.41064 0.36317 0.30757 0.0
C990 C 0.41216 0.35886 0.28304 0.0
C991 C 0.33309 0.27063 0.26251 0.0
C992 C 0.28541 0.18789 0.22513 0.0
C993 C 0.29964 0.17872 0.23882 0.0
C994 C 0.30312 0.1555 0.23016 0.0
C995 C 0.29235 0.14126 0.20794 0.0
C996 C 0.2745 0.17385 0.20283 0.0
C997 C 0.27793 0.15047 0.1943 0.0
C998 C 0.31468 0.2739 0.30972 0.0
C999 C 0.28185 0.21215 0.23345 0.0
H1000 H 0.31643 0.39909 0.27558 0.0
H1001 H 0.31103 0.44869 0.34002 0.0
H1002 H 0.32358 0.37818 0.34375 0.0
H1003 H 0.32097 0.41966 0.36392 0.0
H1004 H 0.30841 0.18985 0.25584 0.0
H1005 H 0.29545 0.12339 0.20108 0.0
H1006 H 0.26346 0.18105 0.19203 0.0
H1007 H 0.26965 0.13969 0.17704 0.0
Tb1008 Tb 0.55913 0.57488 0.0357 0.0
C1009 C 0.57725 0.49707 0.95653 0.0
C1010 C 0.54259 0.48382 0.92979 0.0
C1011 C 0.57695 0.47786 0.91488 0.0
C1012 C 0.55457 0.49477 0.95268 0.0
C1013 C 0.58867 0.48829 0.93779 0.0
C1014 C 0.55395 0.47569 0.91088 0.0
C1015 C 0.62205 0.49898 0.9661 0.0
N1016 N 0.58794 0.50688 0.97894 0.0
C1017 C 0.60995 0.5072 0.98413 0.0
C1018 C 0.6114 0.48961 0.94278 0.0
Tb1019 Tb 0.56658 0.51828 0.00775 0.0
N1020 N 0.54409 0.50221 0.97157 0.0
C1021 C 0.52123 0.49818 0.96867 0.0
C1022 C 0.51946 0.48076 0.9267 0.0
C1023 C 0.50874 0.48787 0.94628 0.0
H1024 H 0.61826 0.51419 1.00219 0.0
H1025 H 0.49079 0.4853 0.94419 0.0
H1026 H 0.54502 0.46725 0.89322 0.0
H1027 H 0.63953 0.49967 0.97025 0.0
H1028 H 0.51214 0.50336 0.98319 0.0
H1029 H 0.63371 0.60806 0.10096 0.0
H1030 H 0.50969 0.47252 0.90942 0.0
H1031 H 0.50794 0.5812 0.03906 0.0
H1032 H 0.61294 0.58856 0.062 0.0
H1033 H 0.48637 0.59796 0.06948 0.0
H1034 H 0.58543 0.47104 0.90025 0.0
H1035 H 0.61443 0.62333 0.13445 0.0
H1036 H 0.57906 0.63056 0.14906 0.0
H1037 H 0.62075 0.48301 0.92888 0.0
H1038 H 0.53896 0.62776 0.14059 0.0
N1039 N 0.58083 0.59105 0.07238 0.0
C1040 C 0.60363 0.5946 0.07597 0.0
C1041 C 0.60488 0.61433 0.1172 0.0
C1042 C 0.58186 0.61174 0.11339 0.0
C1043 C 0.61581 0.60581 0.09835 0.0
C1044 C 0.57018 0.59986 0.09055 0.0
H1045 H 0.50429 0.61563 0.11103 0.0
N1046 N 0.53741 0.58775 0.06343 0.0
C1047 C 0.50356 0.59798 0.07441 0.0
C1048 C 0.54769 0.59817 0.08589 0.0
C1049 C 0.51583 0.58839 0.05725 0.0
C1050 C 0.51372 0.6079 0.09783 0.0
C1051 C 0.53615 0.60847 0.10375 0.0
O1052 O 0.54547 0.59862 0.01873 0.0
O1053 O 0.55698 0.55105 1.0004 0.0
O1054 O 0.59159 0.54551 0.99459 0.0
O1055 O 0.59311 0.57928 0.02482 0.0
O1056 O 0.53015 0.56425 0.00781 0.0
O1057 O 0.5794 0.61096 0.03652 0.0
O1058 O 0.58179 0.49437 0.02283 0.0
O1059 O 0.56865 0.54196 0.04314 0.0
O1060 O 0.53252 0.54822 0.0478 0.0
O1061 O 0.53323 0.5133 0.01985 0.0
O1062 O 0.5956 0.52897 0.03548 0.0
O1063 O 0.54697 0.48218 0.00773 0.0
C1064 C 0.5381 0.55239 0.99061 0.0
C1065 C 0.56065 0.64144 0.02882 0.0
C1066 C 0.56532 0.67937 0.01373 0.0
C1067 C 0.57108 0.65718 0.01468 0.0
C1068 C 0.54913 0.68612 0.02754 0.0
C1069 C 0.54479 0.64824 0.04306 0.0
C1070 C 0.53913 0.67067 0.04245 0.0
C1071 C 0.6017 0.56797 0.00697 0.0
C1072 C 0.56362 0.61644 0.02391 0.0
C1073 C 0.54753 0.61975 0.12665 0.0
C1074 C 0.57035 0.62136 0.13146 0.0
C1075 C 0.58756 0.54048 0.05284 0.0
C1076 C 0.56613 0.45144 0.01305 0.0
C1077 C 0.55698 0.43525 0.02756 0.0
C1078 C 0.56139 0.41194 0.02543 0.0
C1079 C 0.57482 0.4046 0.00829 0.0
C1080 C 0.57971 0.4443 0.99602 0.0
C1081 C 0.58397 0.42083 0.99364 0.0
C1082 C 0.52345 0.525 0.03637 0.0
C1083 C 0.56353 0.4766 0.01895 0.0
H1084 H 0.58282 0.65139 1.00315 0.0
H1085 H 0.54439 0.70326 0.02688 0.0
H1086 H 0.53632 0.63601 0.0539 0.0
H1087 H 0.52664 0.6758 0.05311 0.0
H1088 H 0.54681 0.44105 0.04102 0.0
H1089 H 0.57853 0.38664 0.0066 0.0
H1090 H 0.58732 0.45693 0.98504 0.0
H1091 H 0.59466 0.41536 0.98072 0.0
Tb1092 Tb 0.84243 0.32149 0.27299 0.0
C1093 C 0.77882 0.24 0.31117 0.0
C1094 C 0.7816 0.20156 0.28659 0.0
C1095 C 0.76763 0.20112 0.3251 0.0
C1096 C 0.78435 0.22755 0.29042 0.0
C1097 C 0.77003 0.2269 0.3286 0.0
C1098 C 0.77346 0.18849 0.30416 0.0
C1099 C 0.76484 0.26532 0.35066 0.0
N1100 N 0.78101 0.26481 0.31374 0.0
C1101 C 0.77348 0.27743 0.33278 0.0
C1102 C 0.76326 0.23996 0.34866 0.0
Tb1103 Tb 0.79271 0.28242 0.28238 0.0
N1104 N 0.7916 0.24074 0.27361 0.0
C1105 C 0.79572 0.22861 0.25208 0.0
C1106 C 0.78659 0.18938 0.26499 0.0
C1107 C 0.7936 0.20298 0.24764 0.0
H1108 H 0.77429 0.29696 0.33433 0.0
H1109 H 0.79723 0.19371 0.23071 0.0
H1110 H 0.77122 0.16854 0.30151 0.0
H1111 H 0.75923 0.2755 0.36586 0.0
H1112 H 0.80097 0.23838 0.23811 0.0
H1113 H 0.83463 0.4105 0.32061 0.0
H1114 H 0.78474 0.16947 0.26138 0.0
H1115 H 0.86756 0.30907 0.22523 0.0
H1116 H 0.83506 0.36684 0.31614 0.0
H1117 H 0.87888 0.32832 0.19108 0.0
H1118 H 0.76092 0.19073 0.33829 0.0
H1119 H 0.8417 0.43216 0.28695 0.0
H1120 H 0.85227 0.43113 0.24538 0.0
H1121 H 0.75635 0.23056 0.3624 0.0
H1122 H 0.86383 0.40849 0.20967 0.0
N1123 N 0.84098 0.36246 0.27941 0.0
C1124 C 0.83775 0.37551 0.30091 0.0
C1125 C 0.8415 0.41265 0.28462 0.0
C1126 C 0.846 0.39972 0.26312 0.0
C1127 C 0.83758 0.40053 0.30367 0.0
C1128 C 0.84558 0.37434 0.26104 0.0
H1129 H 0.87378 0.37006 0.18917 0.0
N1130 N 0.85344 0.33806 0.24082 0.0
C1131 C 0.87099 0.33775 0.20478 0.0
C1132 C 0.85188 0.36162 0.24091 0.0
C1133 C 0.86424 0.32672 0.22396 0.0
C1134 C 0.86805 0.3613 0.20375 0.0
C1135 C 0.85908 0.37389 0.22236 0.0
O1136 O 0.87388 0.31355 0.27438 0.0
O1137 O 0.82827 0.28429 0.28035 0.0
O1138 O 0.81449 0.28806 0.31567 0.0
O1139 O 0.83664 0.32519 0.31023 0.0
O1140 O 0.84881 0.28638 0.25471 0.0
O1141 O 0.86922 0.34598 0.297 0.0
O1142 O 0.76169 0.29028 0.28594 0.0
O1143 O 0.80663 0.31937 0.27429 0.0
O1144 O 0.82264 0.31303 0.23857 0.0
O1145 O 0.79619 0.27842 0.24441 0.0
O1146 O 0.78773 0.31786 0.30142 0.0
O1147 O 0.76557 0.26258 0.25634 0.0
C1148 C 0.83818 0.27083 0.26652 0.0
C1149 C 0.90524 0.34734 0.28535 0.0
C1150 C 0.94554 0.35467 0.29093 0.0
C1151 C 0.92449 0.34349 0.29667 0.0
C1152 C 0.94745 0.36964 0.27376 0.0
C1153 C 0.90726 0.3629 0.26861 0.0
C1154 C 0.92828 0.37378 0.26266 0.0
C1155 C 0.83041 0.30868 0.32362 0.0
C1156 C 0.88345 0.33346 0.29018 0.0
C1157 C 0.85844 0.39877 0.22377 0.0
C1158 C 0.8519 0.41167 0.24413 0.0
C1159 C 0.797 0.33289 0.28842 0.0
C1160 C 0.72949 0.25923 0.26838 0.0
C1161 C 0.71298 0.25695 0.24961 0.0
C1162 C 0.69069 0.24581 0.25135 0.0
C1163 C 0.68491 0.23662 0.27192 0.0
C1164 C 0.72368 0.25005 0.28894 0.0
C1165 C 0.70141 0.23874 0.29064 0.0
C1166 C 0.80607 0.29307 0.23072 0.0
C1167 C 0.7519 0.27396 0.26688 0.0
H1168 H 0.92311 0.33158 0.30973 0.0
H1169 H 0.96372 0.3782 0.26913 0.0
H1170 H 0.89279 0.36666 0.2601 0.0
H1171 H 0.92971 0.38545 0.24946 0.0
H1172 H 0.71735 0.26461 0.23397 0.0
H1173 H 0.66757 0.22859 0.2738 0.0
H1174 H 0.73607 0.25208 0.30384 0.0
H1175 H 0.69688 0.23212 0.30669 0.0
Tb1176 Tb 0.0621 0.54318 0.54134 0.0
C1177 C 1.00118 0.56294 0.46563 0.0
C1178 C 0.98259 0.52087 0.44518 0.0
C1179 C 0.96266 0.5531 0.44693 0.0
C1180 C 1.00162 0.53845 0.45855 0.0
C1181 C 0.98197 0.57073 0.45905 0.0
C1182 C 0.96297 0.52819 0.44002 0.0
C1183 C 1.00357 0.61319 0.47264 0.0
N1184 N 0.02026 0.57957 0.47682 0.0
C1185 C 0.02217 0.60452 0.47834 0.0
C1186 C 0.98317 0.59618 0.46349 0.0
Tb1187 Tb 0.05019 0.56385 0.48571 0.0
N1188 N 0.02102 0.53212 0.4636 0.0
C1189 C 0.02235 0.50828 0.45504 0.0
C1190 C 0.98393 0.49655 0.43694 0.0
C1191 C 1.00395 0.4903 0.44176 0.0
H1192 H 0.03807 0.6179 0.48451 0.0
H1193 H 0.00524 0.47155 0.43529 0.0
H1194 H 0.94817 0.51488 0.43002 0.0
H1195 H 0.00509 0.63297 0.47493 0.0
H1196 H 0.0373 0.50239 0.45814 0.0
H1197 H 0.11949 0.63197 0.58593 0.0
H1198 H 0.96972 0.48256 0.42661 0.0
H1199 H 0.06537 0.4858 0.54054 0.0
H1200 H 0.08598 0.60563 0.56161 0.0
H1201 H 0.09198 0.46411 0.55559 0.0
H1202 H 0.94771 0.55871 0.44198 0.0
H1203 H 0.14831 0.61375 0.60213 0.0
H1204 H 0.16107 0.57574 0.60623 0.0
H1205 H 0.96883 0.6029 0.45865 0.0
H1206 H 0.15385 0.53012 0.59768 0.0
N1207 N 0.09401 0.571 0.56377 0.0
C1208 C 0.09747 0.59646 0.56877 0.0
C1209 C 0.13318 0.60165 0.59158 0.0
C1210 C 0.1297 0.57585 0.58686 0.0
C1211 C 0.11695 0.61197 0.58252 0.0
C1212 C 0.10971 0.56091 0.57292 0.0
H1213 H 0.12817 0.48837 0.57881 0.0
N1214 N 0.08669 0.52204 0.55401 0.0
C1215 C 0.09625 0.48423 0.55895 0.0
C1216 C 0.10589 0.5355 0.56781 0.0
C1217 C 0.0813 0.49661 0.55031 0.0
C1218 C 0.11661 0.49797 0.5721 0.0
C1219 C 0.12159 0.52394 0.57689 0.0
O1220 O 0.04102 0.51682 0.55622 0.0
O1221 O 0.03853 0.54533 0.51322 0.0
O1222 O 0.03843 0.58696 0.51328 0.0
O1223 O 0.05216 0.57822 0.54922 0.0
O1224 O 0.03308 0.51269 0.52416 0.0
O1225 O 0.05032 0.55582 0.57352 0.0
O1226 O 0.06529 0.59473 0.47183 0.0
O1227 O 0.07392 0.56168 0.51366 0.0
O1228 O 0.07203 0.51797 0.51342 0.0
O1229 O 0.06692 0.5337 0.47843 0.0
O1230 O 0.08155 0.5927 0.49992 0.0
O1231 O 0.05731 0.55634 0.4504 0.0
C1232 C 0.02441 0.52485 0.5107 0.0
C1233 C 0.03876 0.5261 0.5972 0.0
C1234 C 0.02101 0.5267 0.63303 0.0
C1235 C 0.02554 0.5361 0.61266 0.0
C1236 C 0.03019 0.50765 0.63854 0.0
C1237 C 0.04833 0.50724 0.60261 0.0
C1238 C 0.04406 0.49811 0.6234 0.0
C1239 C 0.04294 0.59172 0.53676 0.0
C1240 C 0.03908 0.53337 0.57422 0.0
C1241 C 0.14154 0.53863 0.59066 0.0
C1242 C 0.14562 0.56458 0.59558 0.0
C1243 C 0.08909 0.58104 0.51469 0.0
C1244 C 0.07409 0.58993 0.43148 0.0
C1245 C 0.08529 0.57597 0.41679 0.0
C1246 C 0.09632 0.58596 0.39925 0.0
C1247 C 0.09571 0.60974 0.39568 0.0
C1248 C 0.07338 0.6138 0.42828 0.0
C1249 C 0.08405 0.62359 0.41016 0.0
C1250 C 0.07312 0.51775 0.49034 0.0
C1251 C 0.0653 0.58022 0.45146 0.0
H1252 H 0.01799 0.55053 0.60838 0.0
H1253 H 0.02674 0.50039 0.65456 0.0
H1254 H 0.05845 0.49912 0.59058 0.0
H1255 H 0.05117 0.48341 0.62756 0.0
H1256 H 0.08631 0.55774 0.41965 0.0
H1257 H 0.10437 0.61755 0.38194 0.0
H1258 H 0.06484 0.62486 0.43988 0.0
H1259 H 0.08361 0.64201 0.40761 0.0
Tb1260 Tb 0.78749 0.80486 0.27199 0.0
C1261 C 0.86343 0.77389 0.3199 0.0
C1262 C 0.87883 0.81002 0.35144 0.0
C1263 C 0.88127 0.76928 0.35758 0.0
C1264 C 0.86729 0.79904 0.32838 0.0
C1265 C 0.87114 0.75881 0.33403 0.0
C1266 C 0.88509 0.79489 0.36629 0.0
C1267 C 0.86145 0.72522 0.29944 0.0
N1268 N 0.85408 0.76466 0.29694 0.0
C1269 C 0.85423 0.74102 0.28614 0.0
C1270 C 0.8695 0.734 0.32365 0.0
Tb1271 Tb 0.84175 0.79145 0.27659 0.0
N1272 N 0.86151 0.81299 0.3132 0.0
C1273 C 0.86862 0.83848 0.31957 0.0
C1274 C 0.88476 0.83592 0.35844 0.0
C1275 C 0.88006 0.85021 0.34222 0.0
H1276 H 0.84799 0.73415 0.26739 0.0
H1277 H 0.88509 0.87032 0.34716 0.0
H1278 H 0.89372 0.80295 0.38415 0.0
H1279 H 0.86082 0.7063 0.29099 0.0
H1280 H 0.86525 0.85035 0.30784 0.0
H1281 H 0.74435 0.72586 0.20142 0.0
H1282 H 0.89367 0.84508 0.37596 0.0
H1283 H 0.78066 0.86171 0.28164 0.0
H1284 H 0.76458 0.74588 0.24049 0.0
H1285 H 0.76706 0.88945 0.25853 0.0
H1286 H 0.88704 0.75795 0.36883 0.0
H1287 H 0.73488 0.75102 0.17295 0.0
H1288 H 0.73403 0.79308 0.16509 0.0
H1289 H 0.87526 0.72181 0.33387 0.0
H1290 H 0.74027 0.83799 0.18067 0.0
N1291 N 0.7676 0.78325 0.23544 0.0
C1292 C 0.76077 0.75775 0.22897 0.0
C1293 C 0.74395 0.76021 0.19039 0.0
C1294 C 0.7496 0.7861 0.19748 0.0
C1295 C 0.74914 0.74597 0.20643 0.0
C1296 C 0.76137 0.79712 0.22044 0.0
H1297 H 0.75211 0.87404 0.21576 0.0
N1298 N 0.77447 0.83136 0.25193 0.0
C1299 C 0.76655 0.87062 0.24992 0.0
C1300 C 0.76497 0.82218 0.22904 0.0
C1301 C 0.77418 0.85486 0.26295 0.0
C1302 C 0.75822 0.86189 0.22577 0.0
C1303 C 0.75679 0.83719 0.21519 0.0
O1304 O 0.77064 0.82028 0.2992 0.0
O1305 O 0.81529 0.8017 0.2953 0.0
O1306 O 0.81871 0.75828 0.28543 0.0
O1307 O 0.78392 0.76592 0.27674 0.0
O1308 O 0.8034 0.83273 0.30362 0.0
O1309 O 0.75687 0.78329 0.27956 0.0
O1310 O 0.85799 0.77621 0.24881 0.0
O1311 O 0.81406 0.79488 0.25318 0.0
O1312 O 0.81057 0.83831 0.26351 0.0
O1313 O 0.84542 0.83046 0.27163 0.0
O1314 O 0.82588 0.7638 0.24473 0.0
O1315 O 0.87354 0.81191 0.27053 0.0
C1316 C 0.81729 0.8212 0.31096 0.0
C1317 C 0.73135 0.80483 0.29659 0.0
C1318 C 0.69688 0.80385 0.31553 0.0
C1319 C 0.71809 0.79864 0.3149 0.0
C1320 C 0.68932 0.81534 0.29788 0.0
C1321 C 0.72305 0.81589 0.27902 0.0
C1322 C 0.70226 0.82122 0.27977 0.0
C1323 C 0.79642 0.75101 0.28211 0.0
C1324 C 0.75405 0.80063 0.29637 0.0
C1325 C 0.74642 0.82671 0.19173 0.0
C1326 C 0.74285 0.80116 0.18286 0.0
C1327 C 0.81208 0.77544 0.23737 0.0
C1328 C 0.89741 0.78907 0.25146 0.0
C1329 C 0.9115 0.79766 0.23469 0.0
C1330 C 0.93157 0.79031 0.23209 0.0
C1331 C 0.93722 0.77419 0.24612 0.0
C1332 C 0.9039 0.77361 0.26575 0.0
C1333 C 0.92353 0.76601 0.26289 0.0
C1334 C 0.8329 0.84551 0.26654 0.0
C1335 C 0.87545 0.795 0.25275 0.0
H1336 H 0.7243 0.79014 0.32864 0.0
H1337 H 0.67325 0.81976 0.29812 0.0
H1338 H 0.73268 0.82054 0.26475 0.0
H1339 H 0.69616 0.83003 0.26627 0.0
H1340 H 0.90682 0.8098 0.22366 0.0
H1341 H 0.95247 0.76821 0.24432 0.0
H1342 H 0.89381 0.76727 0.27905 0.0
H1343 H 0.92818 0.75378 0.27379 0.0
Tb1344 Tb 0.82418 0.28856 0.7494 0.0
C1345 C 0.78795 0.35669 0.82559 0.0
C1346 C 0.82208 0.38394 0.84808 0.0
C1347 C 0.78709 0.39577 0.85103 0.0
C1348 C 0.81054 0.36159 0.83225 0.0
C1349 C 0.7758 0.37353 0.83515 0.0
C1350 C 0.81023 0.40101 0.85741 0.0
C1351 C 0.74209 0.34421 0.81429 0.0
N1352 N 0.77772 0.33487 0.81051 0.0
C1353 C 0.75488 0.32803 0.80559 0.0
C1354 C 0.75261 0.36715 0.82906 0.0
Tb1355 Tb 0.79883 0.30689 0.80157 0.0
N1356 N 0.82117 0.34428 0.8233 0.0
C1357 C 0.84384 0.34878 0.82915 0.0
C1358 C 0.84511 0.38833 0.85427 0.0
C1359 C 0.85605 0.37072 0.84462 0.0
H1360 H 0.74643 0.3098 0.79514 0.0
H1361 H 0.87395 0.37407 0.84895 0.0
H1362 H 0.81876 0.41818 0.86974 0.0
H1363 H 0.72407 0.33871 0.81005 0.0
H1364 H 0.85308 0.33616 0.82137 0.0
H1365 H 0.74322 0.22873 0.70186 0.0
H1366 H 0.85459 0.40526 0.86634 0.0
H1367 H 0.8729 0.27454 0.75597 0.0
H1368 H 0.7661 0.26178 0.73254 0.0
H1369 H 0.89091 0.24331 0.73741 0.0
H1370 H 0.77805 0.40889 0.85865 0.0
H1371 H 0.76001 0.19922 0.67715 0.0
H1372 H 0.79372 0.18392 0.66887 0.0
H1373 H 0.74265 0.37948 0.83614 0.0
H1374 H 0.83358 0.18703 0.67938 0.0
N1375 N 0.79767 0.25431 0.72493 0.0
C1376 C 0.77472 0.2505 0.72167 0.0
C1377 C 0.7706 0.21432 0.69059 0.0
C1378 C 0.79345 0.21656 0.69517 0.0
C1379 C 0.76112 0.23099 0.70437 0.0
C1380 C 0.80654 0.23654 0.713 0.0
H1381 H 0.86959 0.20845 0.7054 0.0
N1382 N 0.84037 0.25642 0.7373 0.0
C1383 C 0.87326 0.24116 0.73244 0.0
C1384 C 0.82862 0.23764 0.71945 0.0
C1385 C 0.86265 0.25852 0.74352 0.0
C1386 C 0.86124 0.22167 0.71429 0.0
C1387 C 0.83868 0.21973 0.70752 0.0
O1388 O 0.85748 0.30987 0.75146 0.0
O1389 O 0.82367 0.31735 0.77918 0.0
O1390 O 0.77914 0.31468 0.77076 0.0
O1391 O 0.79357 0.2986 0.73587 0.0
O1392 O 0.82364 0.32608 0.7454 0.0
O1393 O 0.83804 0.29018 0.71749 0.0
O1394 O 0.77202 0.28525 0.81474 0.0
O1395 O 0.80694 0.27742 0.77762 0.0
O1396 O 0.84375 0.28127 0.78074 0.0
O1397 O 0.82898 0.29648 0.815 0.0
O1398 O 0.77421 0.27307 0.78335 0.0
O1399 O 0.80406 0.30121 0.83663 0.0
C1400 C 0.8241 0.33453 0.76789 0.0
C1401 C 0.86651 0.32571 0.71706 0.0
C1402 C 0.86162 0.35244 0.68982 0.0
C1403 C 0.85248 0.33527 0.70328 0.0
C1404 C 0.8849 0.36057 0.69028 0.0
C1405 C 0.8898 0.33389 0.71781 0.0
C1406 C 0.89898 0.3514 0.70445 0.0
C1407 C 0.77842 0.30856 0.74692 0.0
C1408 C 0.85701 0.30508 0.72825 0.0
C1409 C 0.82606 0.20071 0.68895 0.0
C1410 C 0.80344 0.19904 0.68287 0.0
C1411 C 0.78836 0.26205 0.77411 0.0
C1412 C 0.77217 0.28958 0.85628 0.0
C1413 C 0.7792 0.27799 0.87364 0.0
C1414 C 0.76654 0.27353 0.89207 0.0
C1415 C 0.74728 0.2822 0.89433 0.0
C1416 C 0.75271 0.2981 0.85793 0.0
C1417 C 0.74049 0.29474 0.87726 0.0
C1418 C 0.84434 0.28694 0.80452 0.0
C1419 C 0.78364 0.28771 0.83517 0.0
H1420 H 0.83444 0.32847 0.70194 0.0
H1421 H 0.89206 0.37328 0.67911 0.0
H1422 H 0.90079 0.32618 0.7281 0.0
H1423 H 0.91693 0.3573 0.70454 0.0
H1424 H 0.79391 0.2708 0.87194 0.0
H1425 H 0.73727 0.27859 0.90866 0.0
H1426 H 0.7466 0.30648 0.84414 0.0
H1427 H 0.72537 0.30103 0.87853 0.0
Tb1428 Tb 0.81982 0.81577 0.77992 0.0
C1429 C 0.73478 0.74303 0.74125 0.0
C1430 C 0.71797 0.72803 0.77446 0.0
C1431 C 0.69416 0.73019 0.73978 0.0
C1432 C 0.73724 0.7376 0.7638 0.0
C1433 C 0.71315 0.73765 0.72842 0.0
C1434 C 0.69657 0.72561 0.76288 0.0
C1435 C 0.73023 0.73962 0.69224 0.0
N1436 N 0.75338 0.74893 0.73022 0.0
C1437 C 0.75105 0.74434 0.70564 0.0
C1438 C 0.71117 0.73715 0.70383 0.0
Tb1439 Tb 0.78722 0.75378 0.75242 0.0
N1440 N 0.75817 0.73839 0.77375 0.0
C1441 C 0.76006 0.72649 0.79256 0.0
C1442 C 0.72058 0.71939 0.79561 0.0
C1443 C 0.74167 0.71807 0.80436 0.0
H1444 H 0.76529 0.74361 0.69607 0.0
H1445 H 0.74369 0.70971 0.81973 0.0
H1446 H 0.68172 0.71848 0.77094 0.0
H1447 H 0.72889 0.7369 0.67292 0.0
H1448 H 0.77548 0.72247 0.7985 0.0
H1449 H 0.87305 0.82799 0.70958 0.0
H1450 H 0.70625 0.71209 0.80435 0.0
H1451 H 0.83131 0.82981 0.83871 0.0
H1452 H 0.83866 0.81156 0.7259 0.0
H1453 H 0.86344 0.85341 0.86873 0.0
H1454 H 0.67752 0.72626 0.73027 0.0
H1455 H 0.90723 0.8517 0.73666 0.0
H1456 H 0.9258 0.86994 0.77865 0.0
H1457 H 0.69491 0.73261 0.69333 0.0
H1458 H 0.92324 0.87676 0.82196 0.0
N1459 N 0.85234 0.82581 0.76251 0.0
C1460 C 0.85299 0.82221 0.73827 0.0
C1461 C 0.89199 0.84457 0.74407 0.0
C1462 C 0.89133 0.84843 0.76879 0.0
C1463 C 0.87273 0.83132 0.72876 0.0
C1464 C 0.87107 0.83853 0.7775 0.0
H1465 H 0.90009 0.8706 0.85569 0.0
N1466 N 0.84997 0.83187 0.80903 0.0
C1467 C 0.86558 0.84994 0.84993 0.0
C1468 C 0.86982 0.84174 0.80167 0.0
C1469 C 0.84749 0.83631 0.83289 0.0
C1470 C 0.88621 0.8597 0.84251 0.0
C1471 C 0.88853 0.85575 0.81811 0.0
O1472 O 0.8085 0.84264 0.80224 0.0
O1473 O 0.78671 0.79049 0.76863 0.0
O1474 O 0.78702 0.7782 0.72597 0.0
O1475 O 0.80698 0.81836 0.74457 0.0
O1476 O 0.79389 0.8095 0.80335 0.0
O1477 O 0.82071 0.84947 0.76893 0.0
O1478 O 0.79634 0.735 0.72084 0.0
O1479 O 0.81849 0.7812 0.75641 0.0
O1480 O 0.82854 0.7924 0.80375 0.0
O1481 O 0.79907 0.75633 0.79083 0.0
O1482 O 0.81948 0.74556 0.75907 0.0
O1483 O 0.77434 0.71535 0.74269 0.0
C1484 C 0.77836 0.79462 0.78771 0.0
C1485 C 0.82151 0.88435 0.79878 0.0
C1486 C 0.8165 0.92523 0.79838 0.0
C1487 C 0.81372 0.90062 0.78703 0.0
C1488 C 0.82914 0.93427 0.821 0.0
C1489 C 0.834 0.89311 0.82148 0.0
C1490 C 0.83817 0.91823 0.83234 0.0
C1491 C 0.79511 0.80215 0.72593 0.0
C1492 C 0.81268 0.85819 0.78801 0.0
C1493 C 0.90871 0.86586 0.80963 0.0
C1494 C 0.91015 0.86206 0.78499 0.0
C1495 C 0.83148 0.76771 0.75947 0.0
C1496 C 0.79096 0.69138 0.71583 0.0
C1497 C 0.80498 0.68434 0.73186 0.0
C1498 C 0.80899 0.66083 0.72654 0.0
C1499 C 0.79906 0.64434 0.70502 0.0
C1500 C 0.78126 0.67514 0.69414 0.0
C1501 C 0.78536 0.65165 0.68873 0.0
C1502 C 0.81568 0.77118 0.80694 0.0
C1503 C 0.78353 0.71374 0.72293 0.0
H1504 H 0.80412 0.89361 0.76944 0.0
H1505 H 0.83134 0.95334 0.83019 0.0
H1506 H 0.83987 0.88063 0.83107 0.0
H1507 H 0.84759 0.92502 0.84994 0.0
H1508 H 0.81196 0.69665 0.74892 0.0
H1509 H 0.80202 0.62601 0.70081 0.0
H1510 H 0.76997 0.68033 0.68178 0.0
H1511 H 0.77764 0.63898 0.67213 0.0
Tb1512 Tb 0.53939 0.53189 0.50982 0.0
C1513 C 0.6155 0.62026 0.56381 0.0
C1514 C 0.62578 0.64376 0.53311 0.0
C1515 C 0.63657 0.66373 0.57491 0.0
C1516 C 0.61541 0.62132 0.53997 0.0
C1517 C 0.62634 0.64137 0.58161 0.0
C1518 C 0.63623 0.66494 0.55069 0.0
C1519 C 0.61774 0.6163 0.61134 0.0
N1520 N 0.6058 0.59825 0.56957 0.0
C1521 C 0.60749 0.59586 0.59305 0.0
C1522 C 0.62714 0.63922 0.60561 0.0
Tb1523 Tb 0.59225 0.56458 0.53852 0.0
N1524 N 0.60549 0.6003 0.52353 0.0
C1525 C 0.60596 0.60079 0.49961 0.0
C1526 C 0.62569 0.64422 0.50879 0.0
C1527 C 0.61571 0.62262 0.492 0.0
H1528 H 0.601 0.57797 0.59769 0.0
H1529 H 0.61558 0.62269 0.47307 0.0
H1530 H 0.64434 0.68225 0.54572 0.0
H1531 H 0.61875 0.61423 0.62981 0.0
H1532 H 0.59834 0.58479 0.48578 0.0
H1533 H 0.51527 0.47534 0.57651 0.0
H1534 H 0.63342 0.66106 0.50282 0.0
H1535 H 0.52995 0.51753 0.45091 0.0
H1536 H 0.53525 0.51157 0.56308 0.0
H1537 H 0.51031 0.48171 0.41927 0.0
H1538 H 0.64501 0.6801 0.58831 0.0
H1539 H 0.49311 0.43829 0.54747 0.0
H1540 H 0.47961 0.41739 0.50485 0.0
H1541 H 0.6354 0.65495 0.61977 0.0
H1542 H 0.47884 0.41874 0.46208 0.0
N1543 N 0.52499 0.49673 0.52545 0.0
C1544 C 0.52568 0.49627 0.54947 0.0
C1545 C 0.50196 0.45446 0.54113 0.0
C1546 C 0.50119 0.45467 0.51675 0.0
C1547 C 0.51439 0.47531 0.55754 0.0
C1548 C 0.51302 0.47624 0.50941 0.0
H1549 H 0.49064 0.44235 0.43003 0.0
N1550 N 0.52407 0.49801 0.4794 0.0
C1551 C 0.51113 0.47989 0.43781 0.0
C1552 C 0.5128 0.47683 0.48553 0.0
C1553 C 0.52271 0.50001 0.45581 0.0
C1554 C 0.49998 0.45779 0.44395 0.0
C1555 C 0.50045 0.45614 0.46806 0.0
O1556 O 0.51676 0.54209 0.48697 0.0
O1557 O 0.56124 0.56915 0.52258 0.0
O1558 O 0.56929 0.57438 0.56532 0.0
O1559 O 0.53566 0.54638 0.54817 0.0
O1560 O 0.54884 0.55864 0.48723 0.0
O1561 O 0.51042 0.53934 0.52303 0.0
O1562 O 0.61467 0.55358 0.56084 0.0
O1563 O 0.57061 0.52722 0.52519 0.0
O1564 O 0.56207 0.52274 0.48259 0.0
O1565 O 0.59636 0.54928 0.50025 0.0
O1566 O 0.5833 0.53685 0.56039 0.0
O1567 O 0.62332 0.56221 0.52695 0.0
C1568 C 0.55889 0.57757 0.50359 0.0
C1569 C 0.47938 0.53454 0.49464 0.0
C1570 C 0.44268 0.5416 0.49657 0.0
C1571 C 0.46535 0.54815 0.505 0.0
C1572 C 0.43379 0.52114 0.47774 0.0
C1573 C 0.47063 0.51411 0.47568 0.0
C1574 C 0.44782 0.50742 0.4673 0.0
C1575 C 0.54807 0.56288 0.56684 0.0
C1576 C 0.50317 0.544 0.50287 0.0
C1577 C 0.48852 0.43473 0.4752 0.0
C1578 C 0.48891 0.434 0.49953 0.0
C1579 C 0.57306 0.51819 0.5438 0.0
C1580 C 0.65294 0.5646 0.55668 0.0
C1581 C 0.6681 0.55201 0.54728 0.0
C1582 C 0.69023 0.55849 0.55793 0.0
C1583 C 0.69733 0.5778 0.57812 0.0
C1584 C 0.66 0.5839 0.57695 0.0
C1585 C 0.68217 0.59042 0.58764 0.0
C1586 C 0.58355 0.53346 0.48132 0.0
C1587 C 0.62963 0.55506 0.54616 0.0
H1588 H 0.47218 0.56427 0.51933 0.0
H1589 H 0.41621 0.51621 0.47083 0.0
H1590 H 0.4813 0.50363 0.46711 0.0
H1591 H 0.4411 0.49188 0.4525 0.0
H1592 H 0.66264 0.53692 0.53175 0.0
H1593 H 0.71445 0.58283 0.58661 0.0
H1594 H 0.64852 0.59366 0.58471 0.0
H1595 H 0.68755 0.60511 0.6034 0.0
Tb1596 Tb 0.08485 0.54702 0.01282 0.0
C1597 C 1.00371 0.50215 0.05984 0.0
C1598 C 0.98284 0.46829 0.02819 0.0
C1599 C 0.98023 0.46514 0.06977 0.0
C1600 C 0.99785 0.49202 0.03579 0.0
C1601 C 0.99461 0.48913 0.07715 0.0
C1602 C 0.97443 0.45468 0.04531 0.0
C1603 C 0.01356 0.52514 0.10757 0.0
N1604 N 0.01792 0.52519 0.06623 0.0
C1605 C 0.02229 0.53723 0.08969 0.0
C1606 C 0.9999 0.50086 0.1013 0.0
Tb1607 Tb 0.03164 0.54325 0.03576 0.0
N1608 N 0.00611 0.50592 0.01988 0.0
C1609 C 0.99864 0.49775 0.99599 0.0
C1610 C 0.97629 0.45925 1.00367 0.0
C1611 C 0.98398 0.47422 0.98753 0.0
H1612 H 0.03279 0.55603 0.09459 0.0
H1613 H 0.97869 0.46763 0.96854 0.0
H1614 H 0.96302 0.43634 0.03983 0.0
H1615 H 0.01737 0.53456 0.12615 0.0
H1616 H 1.00438 0.50883 0.98309 0.0
H1617 H 0.14538 0.61316 0.08155 0.0
H1618 H 0.9649 0.44105 0.99708 0.0
H1619 H 0.08359 0.53715 0.95414 0.0
H1620 H 0.11482 0.57602 0.06589 0.0
H1621 H 0.10098 0.55911 0.92383 0.0
H1622 H 0.97321 0.4547 0.08279 0.0
H1623 H 0.16084 0.64123 0.0549 0.0
H1624 H 0.16164 0.64978 0.01332 0.0
H1625 H 0.99317 0.49154 0.11517 0.0
H1626 H 0.14954 0.635 0.97012 0.0
N1627 N 0.11242 0.58232 0.0301 0.0
C1628 C 0.12115 0.58778 0.05372 0.0
C1629 C 0.14732 0.6248 0.04777 0.0
C1630 C 0.13908 0.61861 0.02346 0.0
C1631 C 0.13869 0.60896 0.06283 0.0
C1632 C 0.12168 0.59679 0.01505 0.0
H1633 H 0.12743 0.60077 0.93651 0.0
N1634 N 0.09966 0.56633 0.98359 0.0
C1635 C 0.10496 0.56768 0.94263 0.0
C1636 C 0.11505 0.58847 0.99088 0.0
C1637 C 0.09514 0.5553 0.95983 0.0
C1638 C 0.11981 0.59123 0.94985 0.0
C1639 C 0.12537 0.60172 0.97426 0.0
O1640 O 0.09553 0.51761 0.99354 0.0
O1641 O 0.05338 0.52334 0.01757 0.0
O1642 O 0.04846 0.52372 0.0568 0.0
O1643 O 0.08482 0.54165 0.04982 0.0
O1644 O 0.06462 0.51558 0.98556 0.0
O1645 O 0.11243 0.53687 0.02837 0.0
O1646 O 0.02002 0.57289 0.05292 0.0
O1647 O 0.06311 0.56682 0.03063 0.0
O1648 O 0.06685 0.56648 0.99191 0.0
O1649 O 0.03087 0.54734 0.99873 0.0
O1650 O 0.05188 0.57618 0.06186 0.0
O1651 O 1.00218 0.54944 0.01991 0.0
C1652 C 0.04931 0.50735 0.99826 0.0
C1653 C 0.13361 0.51862 1.00099 0.0
C1654 C 0.1676 0.50432 1.00328 0.0
C1655 C 0.1476 0.50668 0.0123 0.0
C1656 C 0.1734 0.51367 0.98283 0.0
C1657 C 0.13975 0.52795 0.98058 0.0
C1658 C 0.1595 0.52538 0.97153 0.0
C1659 C 0.07023 0.52802 0.06107 0.0
C1660 C 0.11209 0.51973 0.00975 0.0
C1661 C 0.1416 0.62437 0.98258 0.0
C1662 C 0.14847 0.63279 0.00717 0.0
C1663 C 0.06754 0.58373 0.04925 0.0
C1664 C 0.98136 0.56897 0.0467 0.0
C1665 C 0.9674 0.58143 0.03626 0.0
C1666 C 0.94788 0.58433 0.04611 0.0
C1667 C 0.94261 0.57479 0.06667 0.0
C1668 C 0.97565 0.55927 0.067 0.0
C1669 C 0.95643 0.56229 0.07698 0.0
C1670 C 0.04484 0.56055 0.98667 0.0
C1671 C 1.00252 0.56803 0.03716 0.0
H1672 H 0.14297 0.49927 0.02798 0.0
H1673 H 0.1887 0.51181 0.97557 0.0
H1674 H 0.12922 0.53691 0.9714 0.0
H1675 H 0.164 0.53241 0.95567 0.0
H1676 H 0.97178 0.58889 0.02054 0.0
H1677 H 0.92794 0.57727 0.07495 0.0
H1678 H 0.98613 0.54974 0.0754 0.0
H1679 H 0.95232 0.55512 0.09287 0.0
H1680 H 0.02538 0.22358 0.01221 0.0
H1681 H 0.02877 0.19475 0.9381 0.0
H1682 H 0.03849 0.18936 0.02363 0.0
H1683 H 0.03965 0.15937 0.94872 0.0
H1684 H 0.07114 0.1026 0.96853 0.0
H1685 H 0.06355 0.14064 0.96123 0.0
H1686 H 0.037 0.15089 0.02917 0.0
H1687 H 0.04726 0.11366 0.0373 0.0
C1688 C 0.02873 0.20971 0.99828 0.0
C1689 C 0.02628 0.21218 0.97422 0.0
C1690 C 0.03616 0.18975 0.0048 0.0
C1691 C 0.04077 0.17105 0.98739 0.0
C1692 C 0.03749 0.1734 0.96319 0.0
C1693 C 0.03086 0.19377 0.95684 0.0
C1694 C 0.06446 0.11352 0.98233 0.0
C1695 C 0.06042 0.1053 0.00375 0.0
C1696 C 0.05937 0.13527 0.97785 0.0
C1697 C 0.04869 0.1492 0.99403 0.0
C1698 C 0.04522 0.14127 0.01599 0.0
C1699 C 0.0512 0.11979 0.02086 0.0
H1700 H 0.14699 0.80883 0.1763 0.0
H1701 H 0.19571 0.84622 0.13609 0.0
H1702 H 0.17726 0.80556 0.20456 0.0
H1703 H 0.22583 0.84393 0.16458 0.0
H1704 H 0.27648 0.81338 0.20399 0.0
H1705 H 0.24604 0.8178 0.17698 0.0
H1706 H 0.20629 0.82392 0.23557 0.0
H1707 H 0.23638 0.81865 0.2621 0.0
C1708 C 0.16413 0.81683 0.17373 0.0
C1709 C 0.16873 0.82775 0.15376 0.0
C1710 C 0.18165 0.81497 0.19001 0.0
C1711 C 0.20438 0.82421 0.18701 0.0
C1712 C 0.2088 0.83592 0.16744 0.0
C1713 C 0.19136 0.83751 0.1511 0.0
C1714 C 0.26128 0.81572 0.21118 0.0
C1715 C 0.25928 0.81593 0.23558 0.0
C1716 C 0.24371 0.81848 0.19563 0.0
C1717 C 0.22335 0.82141 0.20381 0.0
C1718 C 0.2214 0.82153 0.22823 0.0
C1719 C 0.239 0.81887 0.24375 0.0
H1720 H 0.5633 0.85507 0.47854 0.0
H1721 H 0.49224 0.84612 0.4787 0.0
H1722 H 0.56921 0.90071 0.48789 0.0
H1723 H 0.49809 0.89131 0.48685 0.0
H1724 H 0.52626 0.97082 0.46152 0.0
H1725 H 0.51957 0.92547 0.45698 0.0
H1726 H 0.55537 0.9356 0.52702 0.0
H1727 H 0.5605 0.98077 0.53214 0.0
C1728 C 0.54901 0.8628 0.48071 0.0
C1729 C 0.52733 0.84693 0.4781 0.0
C1730 C 0.55238 0.88887 0.48606 0.0
C1731 C 0.53406 0.89952 0.48804 0.0
C1732 C 0.51248 0.88364 0.48549 0.0
C1733 C 0.5092 0.85775 0.48095 0.0
C1734 C 0.53208 0.9633 0.47622 0.0
C1735 C 0.5433 0.97939 0.49753 0.0
C1736 C 0.52848 0.9374 0.47353 0.0
C1737 C 0.53711 0.92701 0.49157 0.0
C1738 C 0.54852 0.94305 0.51282 0.0
C1739 C 0.55126 0.9689 0.51587 0.0
H1740 H 0.53624 0.36297 0.65589 0.0
H1741 H 0.54077 0.2872 0.65089 0.0
H1742 H 0.50247 0.35369 0.67538 0.0
H1743 H 0.50739 0.27804 0.67101 0.0
H1744 H 0.43847 0.2611 0.69311 0.0
H1745 H 0.46834 0.27165 0.6682 0.0
H1746 H 0.48963 0.34591 0.71168 0.0
H1747 H 0.45905 0.33541 0.73571 0.0
C1748 C 0.53011 0.34432 0.65903 0.0
C1749 C 0.5414 0.32588 0.6519 0.0
C1750 C 0.51071 0.339 0.67036 0.0
C1751 C 0.50199 0.31507 0.67492 0.0
C1752 C 0.51324 0.2966 0.66756 0.0
C1753 C 0.53263 0.30192 0.65622 0.0
C1754 C 0.44924 0.27985 0.69685 0.0
C1755 C 0.44637 0.29752 0.71616 0.0
C1756 C 0.46659 0.28585 0.68282 0.0
C1757 C 0.48183 0.30957 0.68804 0.0
C1758 C 0.47824 0.32755 0.70682 0.0
C1759 C 0.46068 0.32159 0.72065 0.0
H1760 H 0.97918 0.82977 0.61813 0.0
H1761 H 0.03812 0.80169 0.61387 0.0
H1762 H 0.99301 0.85745 0.59088 0.0
H1763 H 0.05153 0.82888 0.58659 0.0
H1764 H 0.05262 0.86004 0.5173 0.0
H1765 H 0.03604 0.83219 0.54294 0.0
H1766 H 0.03036 0.8951 0.59495 0.0
H1767 H 0.04813 0.92319 0.5703 0.0
C1768 C 0.99495 0.82945 0.61129 0.0
C1769 C 0.00763 0.81374 0.61812 0.0
C1770 C 1.00283 0.84523 0.59584 0.0
C1771 C 0.02318 0.84499 0.58668 0.0
C1772 C 0.03568 0.82911 0.5933 0.0
C1773 C 0.02806 0.81374 0.60902 0.0
C1774 C 0.04806 0.868 0.53428 0.0
C1775 C 0.05171 0.89386 0.54164 0.0
C1776 C 0.0384 0.85206 0.54878 0.0
C1777 C 0.03186 0.86166 0.57067 0.0
C1778 C 0.03499 0.88736 0.5779 0.0
C1779 C 0.04508 0.90336 0.56367 0.0
H1780 H 0.57447 0.83602 0.84051 0.0
H1781 H 0.54443 0.85228 0.90534 0.0
H1782 H 0.54043 0.83622 0.81679 0.0
H1783 H 0.50998 0.85158 0.88149 0.0
H1784 H 0.46459 0.88027 0.83242 0.0
H1785 H 0.49723 0.87707 0.85716 0.0
H1786 H 0.50213 0.81387 0.80459 0.0
H1787 H 0.46997 0.81796 0.77956 0.0
C1788 C 0.56047 0.8393 0.84968 0.0
C1789 C 0.56211 0.84425 0.87478 0.0
C1790 C 0.5409 0.83925 0.83607 0.0
C1791 C 0.52253 0.84392 0.84727 0.0
C1792 C 0.524 0.84831 0.87237 0.0
C1793 C 0.54367 0.84859 0.88601 0.0
C1794 C 0.47286 0.86586 0.82627 0.0
C1795 C 0.46534 0.84962 0.80415 0.0
C1796 C 0.4913 0.8638 0.84045 0.0
C1797 C 0.50227 0.84524 0.83278 0.0
C1798 C 0.49427 0.82863 0.81076 0.0
C1799 C 0.47594 0.83088 0.79648 0.0
H1800 H 0.45613 0.17115 0.10748 0.0
H1801 H 0.51478 0.22609 0.09812 0.0
H1802 H 0.46589 0.14016 0.07772 0.0
H1803 H 0.52607 0.19525 0.07123 0.0
H1804 H 0.55132 0.1357 0.03367 0.0
H1805 H 0.52969 0.16565 0.04265 0.0
H1806 H 0.49101 0.11839 0.08505 0.0
H1807 H 0.51086 0.08686 0.0726 0.0
C1808 C 0.47067 0.17672 0.0984 0.0
C1809 C 0.48517 0.20055 0.10552 0.0
C1810 C 0.47659 0.15893 0.08181 0.0
C1811 C 0.49755 0.16464 0.07331 0.0
C1812 C 0.50995 0.18969 0.07746 0.0
C1813 C 0.50345 0.20765 0.09307 0.0
C1814 C 0.53796 0.1318 0.04468 0.0
C1815 C 0.53252 0.10927 0.05247 0.0
C1816 C 0.52562 0.14901 0.05004 0.0
C1817 C 0.50839 0.14466 0.06457 0.0
C1818 C 0.50364 0.12226 0.0732 0.0
C1819 C 0.51548 0.10451 0.06691 0.0
H1820 H 0.18297 0.32205 0.37065 0.0
H1821 H 0.16974 0.36369 0.31701 0.0
H1822 H 0.20962 0.30684 0.34775 0.0
H1823 H 0.19782 0.34928 0.29433 0.0
H1824 H 0.23402 0.29976 0.24951 0.0
H1825 H 0.20382 0.31102 0.27089 0.0
H1826 H 0.24558 0.32296 0.33822 0.0
H1827 H 0.2745 0.31023 0.31708 0.0
C1828 C 0.18587 0.32805 0.35391 0.0
C1829 C 0.17409 0.3437 0.34529 0.0
C1830 C 0.20128 0.31946 0.34091 0.0
C1831 C 0.2056 0.32676 0.31923 0.0
C1832 C 0.19436 0.34304 0.31083 0.0
C1833 C 0.17862 0.35153 0.32387 0.0
C1834 C 0.23613 0.30406 0.2689 0.0
C1835 C 0.25602 0.30379 0.28188 0.0
C1836 C 0.21921 0.31084 0.28105 0.0
C1837 C 0.22251 0.31798 0.30613 0.0
C1838 C 0.24239 0.31712 0.31893 0.0
C1839 C 0.25894 0.30988 0.30688 0.0
H1840 H 0.02447 0.08238 0.22147 0.0
H1841 H 0.95885 0.07511 0.18626 0.0
H1842 H 0.03962 0.08086 0.18348 0.0
H1843 H 0.97407 0.07382 0.14759 0.0
H1844 H 1.00363 0.04943 0.07645 0.0
H1845 H 0.98761 0.05426 0.11431 0.0
H1846 H 0.05277 0.09469 0.151 0.0
H1847 H 0.06858 0.08946 0.11336 0.0
C1848 C 0.01314 0.08097 0.20563 0.0
C1849 C 0.99021 0.07933 0.20778 0.0
C1850 C 0.02202 0.08009 0.18333 0.0
C1851 C 0.00853 0.07712 0.16133 0.0
C1852 C 0.98551 0.07588 0.16347 0.0
C1853 C 0.97662 0.07705 0.18604 0.0
C1854 C 0.01468 0.05953 0.0925 0.0
C1855 C 0.03781 0.06892 0.09097 0.0
C1856 C 0.0053 0.06243 0.11466 0.0
C1857 C 0.01845 0.07484 0.13683 0.0
C1858 C 0.04155 0.08454 0.13512 0.0
C1859 C 0.05086 0.08168 0.11299 0.0
H1860 H 0.2831 0.70661 0.50663 0.0
H1861 H 0.29327 0.64823 0.45222 0.0
H1862 H 0.28697 0.73461 0.47883 0.0
H1863 H 0.29801 0.67676 0.42397 0.0
H1864 H 0.25352 0.71776 0.38221 0.0
H1865 H 0.26772 0.69171 0.40605 0.0
H1866 H 0.3096 0.7578 0.45336 0.0
H1867 H 0.29484 0.78369 0.42954 0.0
C1868 C 0.2869 0.70019 0.48877 0.0
C1869 C 0.28769 0.67557 0.48111 0.0
C1870 C 0.28944 0.71624 0.47296 0.0
C1871 C 0.29292 0.70783 0.4493 0.0
C1872 C 0.29525 0.68352 0.44215 0.0
C1873 C 0.29248 0.66729 0.45807 0.0
C1874 C 0.26578 0.72648 0.39773 0.0
C1875 C 0.27252 0.75236 0.40502 0.0
C1876 C 0.27431 0.71172 0.41099 0.0
C1877 C 0.28958 0.72285 0.43163 0.0
C1878 C 0.29765 0.74887 0.43763 0.0
C1879 C 0.28909 0.7636 0.42434 0.0
H1880 H 0.67372 0.08942 0.66186 0.0
H1881 H 0.66476 1.01135 0.66353 0.0
H1882 H 0.65135 0.07783 0.62284 0.0
H1883 H 0.64173 1.00006 0.62551 0.0
H1884 H 0.59036 0.99211 0.56099 0.0
H1885 H 0.62632 0.9999 0.58482 0.0
H1886 H 0.61137 0.06166 0.6313 0.0
H1887 H 0.57575 0.05419 0.60688 0.0
C1888 C 0.66768 0.0699 0.65352 0.0
C1889 C 0.66932 0.05121 0.66613 0.0
C1890 C 0.65511 0.06329 0.63123 0.0
C1891 C 0.64389 0.03822 0.62235 0.0
C1892 C 0.64979 0.01956 0.63248 0.0
C1893 C 0.66266 0.0261 0.65448 0.0
C1894 C 0.59426 1.00638 0.57711 0.0
C1895 C 0.58065 0.02266 0.58232 0.0
C1896 C 0.6151 1.01137 0.59014 0.0
C1897 C 0.62194 0.03224 0.60874 0.0
C1898 C 0.60681 0.04623 0.61608 0.0
C1899 C 0.58605 0.04128 0.60294 0.0
H1900 H 0.35121 0.37336 0.96427 0.0
H1901 H 0.28703 0.32038 0.95687 0.0
H1902 H 0.35219 0.36333 0.92121 0.0
H1903 H 0.28772 0.31038 0.91313 0.0
H1904 H 0.31073 0.28476 0.838 0.0
H1905 H 0.31081 0.29121 0.88177 0.0
H1906 H 0.3303 0.37072 0.88636 0.0
H1907 H 0.32985 0.36425 0.84311 0.0
C1908 C 0.33717 0.35973 0.95322 0.0
C1909 C 0.31891 0.3479 0.96361 0.0
C1910 C 0.33775 0.35392 0.92863 0.0
C1911 C 0.32004 0.3361 0.91378 0.0
C1912 C 0.3017 0.32402 0.92421 0.0
C1913 C 0.30114 0.32991 0.94906 0.0
C1914 C 0.31554 0.30353 0.84856 0.0
C1915 C 0.32072 0.32407 0.83736 0.0
C1916 C 0.31526 0.30723 0.87347 0.0
C1917 C 0.32051 0.33148 0.88746 0.0
C1918 C 0.32635 0.35183 0.87615 0.0
C1919 C 0.32619 0.34816 0.85141 0.0
H1920 H 0.95843 0.0716 0.36052 0.0
H1921 H 0.02501 0.08225 0.34067 0.0
H1922 H 0.97194 0.06497 0.39951 0.0
H1923 H 0.03864 0.0751 0.37895 0.0
H1924 H 0.06399 0.06751 0.45487 0.0
H1925 H 0.05129 0.07663 0.41666 0.0
H1926 H 0.98275 0.04613 0.42729 0.0
H1927 H 0.9957 0.03861 0.46571 0.0
C1928 C 0.97612 0.07321 0.36456 0.0
C1929 C 0.99044 0.0781 0.3469 0.0
C1930 C 0.98407 0.06878 0.38717 0.0
C1931 C 0.00685 0.06886 0.39354 0.0
C1932 C 0.02114 0.07466 0.37596 0.0
C1933 C 0.01318 0.07897 0.35348 0.0
C1934 C 0.04622 0.06233 0.44885 0.0
C1935 C 0.03108 0.05174 0.46378 0.0
C1936 C 0.03864 0.06773 0.42655 0.0
C1937 C 0.01546 0.06264 0.4177 0.0
C1938 C 1.00059 0.05131 0.43261 0.0
C1939 C 0.00814 0.04645 0.45496 0.0
H1940 H 0.27028 0.72837 0.57783 0.0
H1941 H 0.29159 0.67606 0.61531 0.0
H1942 H 0.27645 0.75859 0.61554 0.0
H1943 H 0.29739 0.70609 0.6527 0.0
H1944 H 0.33359 0.77219 0.70554 0.0
H1945 H 0.32654 0.74831 0.665 0.0
H1946 H 0.26049 0.76093 0.65786 0.0
H1947 H 0.2681 0.7859 0.69889 0.0
C1948 C 0.27616 0.72333 0.5941 0.0
C1949 C 0.2808 0.70012 0.59377 0.0
C1950 C 0.27953 0.7405 0.6155 0.0
C1951 C 0.28759 0.7345 0.63655 0.0
C1952 C 0.29153 0.71107 0.63637 0.0
C1953 C 0.28825 0.69399 0.61506 0.0
C1954 C 0.31812 0.77105 0.69487 0.0
C1955 C 0.3016 0.78128 0.7046 0.0
C1956 C 0.31391 0.75703 0.67194 0.0
C1957 C 0.29298 0.75284 0.65875 0.0
C1958 C 0.27678 0.76422 0.66795 0.0
C1959 C 0.28105 0.77833 0.69113 0.0
H1960 H 0.70101 0.06107 0.82143 0.0
H1961 H 0.63913 0.05098 0.77651 0.0
H1962 H 0.68001 0.05653 0.85609 0.0
H1963 H 0.61846 0.04708 0.81028 0.0
H1964 H 0.58098 0.03871 0.86652 0.0
H1965 H 0.60681 0.02334 0.84121 0.0
H1966 H 0.66019 0.08757 0.87542 0.0
H1967 H 0.63435 0.10225 0.90118 0.0
C1968 C 0.68294 0.0574 0.81908 0.0
C1969 C 0.67134 0.05638 0.79685 0.0
C1970 C 0.67102 0.05467 0.83861 0.0
C1971 C 0.64767 0.05105 0.83567 0.0
C1972 C 0.63632 0.04894 0.81295 0.0
C1973 C 0.6481 0.05153 0.7937 0.0
C1974 C 0.5983 0.04928 0.8685 0.0
C1975 C 0.60574 0.07224 0.8843 0.0
C1976 C 0.61309 0.04032 0.85458 0.0
C1977 C 0.63526 0.05457 0.85616 0.0
C1978 C 0.64316 0.0763 0.87385 0.0
C1979 C 0.62836 0.0851 0.88796 0.0
H1980 H 0.27979 0.34653 0.08615 0.0
H1981 H 0.34942 0.35331 0.10861 0.0
H1982 H 0.26958 0.32968 0.12192 0.0
H1983 H 0.33936 0.33705 0.144 0.0
H1984 H 0.31438 0.27894 0.18573 0.0
H1985 H 0.31699 0.29271 0.14762 0.0
H1986 H 0.27876 0.3455 0.17019 0.0
H1987 H 0.27679 0.3321 0.2088 0.0
C1988 C 0.29285 0.34466 0.09883 0.0
C1989 C 0.31535 0.35074 0.09452 0.0
C1990 C 0.28703 0.33505 0.11915 0.0
C1991 C 0.30369 0.33158 0.13528 0.0
C1992 C 0.32617 0.33883 0.13143 0.0
C1993 C 0.33192 0.34818 0.11123 0.0
C1994 C 0.30604 0.29298 0.18221 0.0
C1995 C 0.29549 0.30464 0.19993 0.0
C1996 C 0.3076 0.30093 0.16056 0.0
C1997 C 0.29823 0.32028 0.15617 0.0
C1998 C 0.28611 0.33056 0.17322 0.0
C1999 C 0.28504 0.32301 0.19519 0.0
H2000 H 0.26091 0.94908 0.99934 0.0
H2001 H 0.30869 0.02091 0.01673 0.0
H2002 H 0.23075 0.9688 0.00915 0.0
H2003 H 0.27929 0.04049 0.02826 0.0
H2004 H 0.22267 0.07434 0.03165 0.0
H2005 H 0.24811 0.05176 0.01339 0.0
H2006 H 0.21748 0.98811 0.04295 0.0
H2007 H 0.19109 1.01041 0.05966 0.0
C2008 C 0.26475 0.96914 0.00496 0.0
C2009 C 0.2867 0.98377 0.0066 0.0
C2010 C 0.24767 0.98038 0.01085 0.0
C2011 C 0.25259 1.00626 0.01917 0.0
C2012 C 0.27476 0.02067 0.02101 0.0
C2013 C 0.29162 1.00953 0.01446 0.0
C2014 C 0.22154 0.05552 0.0341 0.0
C2015 C 0.20569 0.04415 0.04745 0.0
C2016 C 0.236 0.0426 0.02375 0.0
C2017 C 0.23513 0.01837 0.02719 0.0
C2018 C 0.21854 1.0067 0.03988 0.0
C2019 C 0.20372 0.01949 0.04976 0.0
H2020 H 0.72484 0.6557 0.96483 0.0
H2021 H 0.73708 0.65987 0.04068 0.0
H2022 H 0.68927 0.62473 0.96295 0.0
H2023 H 0.70116 0.63024 0.03949 0.0
H2024 H 0.64002 0.56785 0.03263 0.0
H2025 H 0.67804 0.59109 0.03003 0.0
H2026 H 0.65297 0.62019 0.9715 0.0
H2027 H 0.61516 0.59562 0.97356 0.0
C2028 C 0.71996 0.64964 0.98104 0.0
C2029 C 0.73374 0.65978 1.00283 0.0
C2030 C 0.69939 0.63215 0.98011 0.0
C2031 C 0.6919 0.62481 1.00109 0.0
C2032 C 0.70622 0.63476 0.02278 0.0
C2033 C 0.72688 0.6519 0.02358 0.0
C2034 C 0.64284 0.57887 0.01892 0.0
C2035 C 0.62479 0.57987 1.00319 0.0
C2036 C 0.66463 0.59252 0.01757 0.0
C2037 C 0.66892 0.60803 1.00075 0.0
C2038 C 0.65069 0.60835 0.98453 0.0
C2039 C 0.62891 0.59437 0.98571 0.0
H2040 H 0.69972 0.42664 0.29901 0.0
H2041 H 0.74389 0.46497 0.25549 0.0
H2042 H 0.72069 0.39567 0.29804 0.0
H2043 H 0.76601 0.43368 0.25512 0.0
H2044 H 0.7968 0.36137 0.25061 0.0
H2045 H 0.77626 0.39339 0.24656 0.0
H2046 H 0.75024 0.38459 0.31314 0.0
H2047 H 0.77037 0.35367 0.31702 0.0
C2048 C 0.71406 0.42873 0.28912 0.0
C2049 C 0.71952 0.44919 0.27746 0.0
C2050 C 0.72664 0.41064 0.28882 0.0
C2051 C 0.74618 0.41158 0.27717 0.0
C2052 C 0.75142 0.43158 0.2646 0.0
C2053 C 0.73848 0.44984 0.26472 0.0
C2054 C 0.78687 0.36639 0.26452 0.0
C2055 C 0.78584 0.35424 0.28436 0.0
C2056 C 0.77478 0.38502 0.26216 0.0
C2057 C 0.76056 0.39221 0.2792 0.0
C2058 C 0.75999 0.38003 0.29891 0.0
C2059 C 0.77208 0.36195 0.30135 0.0
H2060 H 0.88137 0.50503 0.49478 0.0
H2061 H 0.90588 0.51673 0.5697 0.0
H2062 H 0.91941 0.5202 0.48584 0.0
H2063 H 0.94369 0.53205 0.56086 0.0
H2064 H 0.00954 0.55717 0.54106 0.0
H2065 H 0.97189 0.56057 0.54374 0.0
H2066 H 0.94775 0.4927 0.49045 0.0
H2067 H 0.98656 0.49061 0.48671 0.0
C2068 C 0.89465 0.51244 0.50956 0.0
C2069 C 0.89097 0.50918 0.53287 0.0
C2070 C 0.91641 0.52063 0.50431 0.0
C2071 C 0.9343 0.52646 0.52254 0.0
C2072 C 0.9301 0.52753 0.54645 0.0
C2073 C 0.90842 0.51908 0.55162 0.0
C2074 C 0.99647 0.54409 0.52864 0.0
C2075 C 1.00104 0.52501 0.51209 0.0
C2076 C 0.97481 0.54569 0.53058 0.0
C2077 C 0.95705 0.5274 0.51677 0.0
C2078 C 0.96136 0.50763 0.5006 0.0
C2079 C 0.98338 0.50626 0.49855 0.0
H2080 H 0.38688 0.10888 0.33156 0.0
H2081 H 0.40781 0.09215 0.26138 0.0
H2082 H 0.36152 0.13103 0.31577 0.0
H2083 H 0.38207 0.11308 0.24552 0.0
H2084 H 0.3464 0.1654 0.22466 0.0
H2085 H 0.37574 0.15371 0.24726 0.0
H2086 H 0.32661 0.11714 0.28805 0.0
H2087 H 0.29747 0.13002 0.26592 0.0
C2088 C 0.38622 0.1103 0.31289 0.0
C2089 C 0.39924 0.09918 0.29761 0.0
C2090 C 0.37173 0.12275 0.3039 0.0
C2091 C 0.37007 0.12381 0.27955 0.0
C2092 C 0.38354 0.11311 0.26451 0.0
C2093 C 0.39822 0.1011 0.27355 0.0
C2094 C 0.3421 0.15487 0.23851 0.0
C2095 C 0.32001 0.14772 0.24335 0.0
C2096 C 0.35872 0.14834 0.25144 0.0
C2097 C 0.35326 0.13431 0.26907 0.0
C2098 C 0.33117 0.12809 0.27458 0.0
C2099 C 0.31454 0.13495 0.26177 0.0
H2100 H 0.36103 0.18013 0.54052 0.0
H2101 H 0.35214 0.14207 0.46661 0.0
H2102 H 0.39114 0.16116 0.54925 0.0
H2103 H 0.38278 0.12341 0.47525 0.0
H2104 H 0.41465 0.06916 0.51006 0.0
H2105 H 0.38908 0.09208 0.49626 0.0
H2106 H 0.42854 0.15946 0.5436 0.0
H2107 H 0.45357 0.13602 0.55783 0.0
C2108 C 0.36558 0.16778 0.52608 0.0
C2109 C 0.35395 0.16234 0.50293 0.0
C2110 C 0.38308 0.15713 0.53102 0.0
C2111 C 0.38942 0.14071 0.51297 0.0
C2112 C 0.37816 0.13574 0.48965 0.0
C2113 C 0.36064 0.14649 0.48467 0.0
C2114 C 0.41788 0.08894 0.51718 0.0
C2115 C 0.43574 0.10093 0.53506 0.0
C2116 C 0.40339 0.10214 0.50922 0.0
C2117 C 0.40659 0.12759 0.51899 0.0
C2118 C 0.42531 0.13978 0.53604 0.0
C2119 C 0.43971 0.1265 0.5441 0.0
H2120 H 0.69596 0.61778 0.29867 0.0
H2121 H 0.74511 0.58498 0.26574 0.0
H2122 H 0.71923 0.65887 0.30005 0.0
H2123 H 0.76883 0.62713 0.26665 0.0
H2124 H 0.81324 0.71001 0.28748 0.0
H2125 H 0.79255 0.66719 0.2873 0.0
H2126 H 0.73049 0.6881 0.27745 0.0
H2127 H 0.75099 0.7305 0.27843 0.0
C2128 C 0.71188 0.61921 0.29165 0.0
C2129 C 0.71832 0.59748 0.282 0.0
C2130 C 0.72532 0.64321 0.29222 0.0
C2131 C 0.74605 0.64706 0.283 0.0
C2132 C 0.75308 0.62537 0.27401 0.0
C2133 C 0.73944 0.60099 0.27351 0.0
C2134 C 0.79522 0.70563 0.28553 0.0
C2135 C 0.78414 0.72442 0.2832 0.0
C2136 C 0.78319 0.68073 0.28519 0.0
C2137 C 0.75952 0.67354 0.28261 0.0
C2138 C 0.74857 0.69239 0.28011 0.0
C2139 C 0.76052 0.7171 0.2805 0.0
H2140 H 0.88623 0.46712 0.75514 0.0
H2141 H 0.86843 0.49253 0.825 0.0
H2142 H 0.85764 0.42813 0.75098 0.0
H2143 H 0.84052 0.45276 0.82137 0.0
H2144 H 0.79437 0.36306 0.76957 0.0
H2145 H 0.80448 0.40885 0.77825 0.0
H2146 H 0.87351 0.40943 0.79615 0.0
H2147 H 0.86362 0.36412 0.78681 0.0
C2148 C 0.87526 0.46479 0.76893 0.0
C2149 C 0.87925 0.48223 0.79038 0.0
C2150 C 0.85894 0.44271 0.76656 0.0
C2151 C 0.84723 0.43788 0.78596 0.0
C2152 C 0.84926 0.45657 0.8062 0.0
C2153 C 0.86519 0.47907 0.80827 0.0
C2154 C 0.81151 0.37316 0.77612 0.0
C2155 C 0.82833 0.36063 0.77801 0.0
C2156 C 0.81716 0.39907 0.78117 0.0
C2157 C 0.83958 0.41206 0.78778 0.0
C2158 C 0.85605 0.39941 0.79129 0.0
C2159 C 0.85048 0.37373 0.78594 0.0
H2160 H 0.07223 0.87925 0.09144 0.0
H2161 H 0.13052 0.88987 0.05393 0.0
H2162 H 0.06327 0.91536 0.07891 0.0
H2163 H 0.12149 0.92565 0.04118 0.0
H2164 H 0.1114 1.00491 0.04434 0.0
H2165 H 0.12048 0.96772 0.05327 0.0
H2166 H 0.05014 0.93123 0.04617 0.0
H2167 H 0.04147 0.96816 0.03752 0.0
C2168 C 0.08313 0.88918 0.08046 0.0
C2169 C 0.10212 0.88134 0.07375 0.0
C2170 C 0.0779 0.90992 0.07306 0.0
C2171 C 0.09154 0.92372 0.05881 0.0
C2172 C 0.11058 0.9159 0.05226 0.0
C2173 C 0.11571 0.8951 0.0595 0.0
C2174 C 0.09775 0.989 0.04436 0.0
C2175 C 0.0754 0.99056 0.0406 0.0
C2176 C 0.10303 0.96736 0.04951 0.0
C2177 C 0.0861 0.94625 0.05117 0.0
C2178 C 0.06382 0.94717 0.04592 0.0
C2179 C 0.05868 0.96877 0.04067 0.0
H2180 H 0.97441 0.27477 0.86941 0.0
H2181 H 0.92917 0.25815 0.92151 0.0
H2182 H 0.94371 0.28 0.84302 0.0
H2183 H 0.89855 0.26274 0.89512 0.0
H2184 H 0.85199 0.2969 0.85386 0.0
H2185 H 0.88273 0.29132 0.87957 0.0
H2186 H 0.91003 0.26097 0.81725 0.0
H2187 H 0.87935 0.26647 0.79177 0.0
C2188 C 0.95789 0.27182 0.87514 0.0
C2189 C 0.9545 0.26588 0.89772 0.0
C2190 C 0.94013 0.27481 0.85992 0.0
C2191 C 0.91834 0.27198 0.86674 0.0
C2192 C 0.91498 0.26562 0.88917 0.0
C2193 C 0.93266 0.26267 0.90432 0.0
C2194 C 0.86446 0.28894 0.84552 0.0
C2195 C 0.86294 0.28239 0.82037 0.0
C2196 C 0.88222 0.28562 0.8604 0.0
C2197 C 0.89925 0.27567 0.85075 0.0
C2198 C 0.89766 0.26907 0.82562 0.0
C2199 C 0.87982 0.27222 0.81079 0.0
H2200 H 0.56636 0.2387 0.58964 0.0
H2201 H 0.61929 0.2417 0.54447 0.0
H2202 H 0.55823 0.19339 0.58143 0.0
H2203 H 0.61135 0.19627 0.53655 0.0
H2204 H 0.57663 0.11029 0.51433 0.0
H2205 H 0.58446 0.15554 0.5182 0.0
H2206 H 0.57673 0.16327 0.5933 0.0
H2207 H 0.56958 0.11841 0.58953 0.0
C2208 C 0.57617 0.22975 0.57777 0.0
C2209 C 0.59362 0.24411 0.56793 0.0
C2210 C 0.57161 0.20366 0.5732 0.0
C2211 C 0.58439 0.19098 0.55866 0.0
C2212 C 0.60111 0.20524 0.5478 0.0
C2213 C 0.60568 0.2314 0.55239 0.0
C2214 C 0.57715 0.12165 0.53176 0.0
C2215 C 0.57282 0.11054 0.55171 0.0
C2216 C 0.58147 0.1477 0.53397 0.0
C2217 C 0.58094 0.16325 0.55603 0.0
C2218 C 0.5769 0.15204 0.57592 0.0
C2219 C 0.57302 0.12622 0.5738 0.0
H2220 H 0.59094 0.83013 0.39109 0.0
H2221 H 0.58452 0.7539 0.39768 0.0
H2222 H 0.62474 0.83033 0.37231 0.0
H2223 H 0.619 0.75421 0.379 0.0
H2224 H 0.6656 0.76071 0.31617 0.0
H2225 H 0.63453 0.75602 0.3406 0.0
H2226 H 0.66323 0.83068 0.38102 0.0
H2227 H 0.69384 0.83531 0.35625 0.0
C2228 C 0.59679 0.81337 0.38867 0.0
C2229 C 0.58486 0.79202 0.39599 0.0
C2230 C 0.61643 0.81356 0.37803 0.0
C2231 C 0.625 0.79243 0.37438 0.0
C2232 C 0.61296 0.77085 0.38144 0.0
C2233 C 0.59315 0.77066 0.39215 0.0
C2234 C 0.66558 0.77575 0.33082 0.0
C2235 C 0.68222 0.79831 0.33443 0.0
C2236 C 0.64771 0.77314 0.3448 0.0
C2237 C 0.64596 0.79317 0.36251 0.0
C2238 C 0.66362 0.81504 0.36719 0.0
C2239 C 0.6814 0.81762 0.35325 0.0
H2240 H 0.15235 0.28837 0.45453 0.0
H2241 H 0.08498 0.27839 0.4219 0.0
H2242 H 0.14013 0.25002 0.4699 0.0
H2243 H 0.0724 0.24131 0.43805 0.0
H2244 H 0.05299 0.17384 0.46718 0.0
H2245 H 0.07214 0.19972 0.44106 0.0
H2246 H 0.11806 0.2449 0.50226 0.0
H2247 H 0.09916 0.2185 0.52791 0.0
C2248 C 0.13513 0.27746 0.45016 0.0
C2249 C 0.11949 0.28573 0.43713 0.0
C2250 C 0.12808 0.25578 0.45899 0.0
C2251 C 0.1053 0.24284 0.45531 0.0
C2252 C 0.09011 0.25049 0.44079 0.0
C2253 C 0.09723 0.27176 0.43168 0.0
C2254 C 0.06721 0.18938 0.4748 0.0
C2255 C 0.07434 0.19509 0.49941 0.0
C2256 C 0.07824 0.20396 0.45996 0.0
C2257 C 0.09651 0.22436 0.46967 0.0
C2258 C 0.1042 0.22916 0.49421 0.0
C2259 C 0.09316 0.21454 0.50899 0.0
H2260 H 0.55966 0.22814 0.22273 0.0
H2261 H 0.57721 0.27552 0.17175 0.0
H2262 H 0.59847 0.22754 0.23032 0.0
H2263 H 0.61645 0.27457 0.1792 0.0
H2264 H 0.68325 0.28611 0.23578 0.0
H2265 H 0.64805 0.28818 0.21497 0.0
H2266 H 0.62385 0.20826 0.20468 0.0
H2267 H 0.65869 0.20636 0.22617 0.0
C2268 C 0.57188 0.23846 0.2132 0.0
C2269 C 0.56553 0.25156 0.19647 0.0
C2270 C 0.594 0.23788 0.2173 0.0
C2271 C 0.61013 0.25021 0.20458 0.0
C2272 C 0.60412 0.26457 0.18882 0.0
C2273 C 0.58183 0.26526 0.18477 0.0
C2274 C 0.67064 0.26897 0.22828 0.0
C2275 C 0.67309 0.24613 0.23302 0.0
C2276 C 0.65064 0.27014 0.21632 0.0
C2277 C 0.6332 0.24845 0.20903 0.0
C2278 C 0.63701 0.22527 0.21078 0.0
C2279 C 0.65679 0.22414 0.22301 0.0
H2280 H 0.61315 0.90529 0.90173 0.0
H2281 H 0.67051 0.93796 0.95508 0.0
H2282 H 0.59628 0.93798 0.91649 0.0
H2283 H 0.65502 0.97333 0.96802 0.0
H2284 H 0.60606 0.99735 0.01504 0.0
H2285 H 0.62781 0.97371 0.99259 0.0
H2286 H 0.58947 0.97553 0.92671 0.0
H2287 H 0.56614 0.997 0.94964 0.0
C2288 C 0.62301 0.92068 0.91544 0.0
C2289 C 0.64301 0.91914 0.92754 0.0
C2290 C 0.61321 0.93956 0.92404 0.0
C2291 C 0.6239 0.95793 0.94411 0.0
C2292 C 0.64586 0.95872 0.9533 0.0
C2293 C 0.6551 0.93894 0.94555 0.0
C2294 C 0.60171 0.99194 0.99588 0.0
C2295 C 0.58405 0.99858 0.98423 0.0
C2296 C 0.61478 0.9791 0.9828 0.0
C2297 C 0.61085 0.97313 0.95767 0.0
C2298 C 0.59301 0.97966 0.94601 0.0
C2299 C 0.57958 0.99198 0.95919 0.0
H2300 H 0.93473 0.72771 0.69785 0.0
H2301 H 0.96754 0.8062 0.71924 0.0
H2302 H 0.90041 0.73526 0.71126 0.0
H2303 H 0.93258 0.81381 0.73345 0.0
H2304 H 0.87249 0.78526 0.78565 0.0
H2305 H 0.90869 0.7907 0.76942 0.0
H2306 H 0.87387 0.76405 0.69779 0.0
H2307 H 0.83809 0.75878 0.71387 0.0
C2308 C 0.93452 0.7466 0.70564 0.0
C2309 C 0.95363 0.76639 0.7082 0.0
C2310 C 0.91493 0.75091 0.71302 0.0
C2311 C 0.91422 0.77503 0.72328 0.0
C2312 C 0.93313 0.79509 0.72554 0.0
C2313 C 0.95287 0.7908 0.71756 0.0
C2314 C 0.87284 0.78085 0.76649 0.0
C2315 C 0.853 0.77148 0.7508 0.0
C2316 C 0.89329 0.78438 0.75727 0.0
C2317 C 0.89367 0.77809 0.73249 0.0
C2318 C 0.87371 0.76932 0.71692 0.0
C2319 C 0.85344 0.76588 0.72608 0.0
H2320 H 0.16437 1.00581 0.85648 0.0
H2321 H 0.11071 0.03449 0.8309 0.0
H2322 H 0.14964 1.00708 0.89563 0.0
H2323 H 0.09657 0.03618 0.86915 0.0
H2324 H 0.06208 0.02273 0.93458 0.0
H2325 H 0.07719 0.01773 0.89664 0.0
H2326 H 0.14308 0.02986 0.93389 0.0
H2327 H 0.12753 0.03473 0.97234 0.0
C2328 C 0.14937 1.01213 0.85882 0.0
C2329 C 0.139 0.01986 0.83958 0.0
C2330 C 0.14088 0.01315 0.88169 0.0
C2331 C 0.12146 0.02171 0.88651 0.0
C2332 C 0.11114 0.02899 0.86703 0.0
C2333 C 0.11958 0.02812 0.84456 0.0
C2334 C 0.07972 0.02397 0.93507 0.0
C2335 C 0.0931 0.02886 0.95742 0.0
C2336 C 0.08872 0.02143 0.91278 0.0
C2337 C 0.11182 0.02342 0.91116 0.0
C2338 C 0.12526 0.02791 0.93354 0.0
C2339 C 0.11623 0.03083 0.95597 0.0
H2340 H 0.80828 0.41489 0.57589 0.0
H2341 H 0.87049 0.39287 0.57352 0.0
H2342 H 0.80223 0.39816 0.6124 0.0
H2343 H 0.8644 0.37661 0.60959 0.0
H2344 H 0.84076 0.32311 0.64839 0.0
H2345 H 0.82576 0.33735 0.61436 0.0
H2346 H 0.83489 0.41031 0.65834 0.0
H2347 H 0.84982 0.39589 0.69264 0.0
C2348 C 0.82044 0.40626 0.58301 0.0
C2349 C 0.83944 0.4043 0.57159 0.0
C2350 C 0.81698 0.39688 0.60374 0.0
C2351 C 0.83249 0.38555 0.61289 0.0
C2352 C 0.85189 0.38457 0.60206 0.0
C2353 C 0.8553 0.39376 0.58147 0.0
C2354 C 0.83845 0.34178 0.65099 0.0
C2355 C 0.84686 0.35885 0.67249 0.0
C2356 C 0.82963 0.34976 0.63176 0.0
C2357 C 0.82956 0.37484 0.63403 0.0
C2358 C 0.83485 0.39087 0.65649 0.0
C2359 C 0.84369 0.38285 0.67582 0.0
H2360 H 0.46034 1.00637 0.36346 0.0
H2361 H 0.47834 0.08443 0.35984 0.0
H2362 H 0.49163 0.0141 0.39468 0.0
H2363 H 0.5095 0.09194 0.39111 0.0
H2364 H 0.56574 0.07654 0.44964 0.0
H2365 H 0.54738 0.07158 0.40896 0.0
H2366 H 0.483 0.0504 0.43413 0.0
H2367 H 0.5009 0.05424 0.47397 0.0
C2368 C 0.47144 0.02491 0.36879 0.0
C2369 C 0.46673 0.04497 0.36011 0.0
C2370 C 0.48939 0.02922 0.38624 0.0
C2371 C 0.50256 0.05355 0.39487 0.0
C2372 C 0.49946 0.07308 0.38429 0.0
C2373 C 0.48144 0.06882 0.3669 0.0
C2374 C 0.54776 0.07055 0.44634 0.0
C2375 C 0.53481 0.06387 0.46438 0.0
C2376 C 0.53738 0.06799 0.4233 0.0
C2377 C 0.51412 0.05943 0.41879 0.0
C2378 C 0.50113 0.05601 0.43742 0.0
C2379 C 0.51141 0.05834 0.46015 0.0
H2380 H 0.81899 0.71876 0.08942 0.0
H2381 H 0.79822 0.78572 0.08529 0.0
H2382 H 0.82089 0.72848 0.13283 0.0
H2383 H 0.79952 0.79521 0.12875 0.0
H2384 H 0.81911 0.81255 0.21122 0.0
H2385 H 0.81971 0.80685 0.16776 0.0
H2386 H 0.79566 0.72729 0.16135 0.0
H2387 H 0.79651 0.73311 0.20458 0.0
C2388 C 0.81517 0.73579 0.09779 0.0
C2389 C 0.80823 0.75132 0.08378 0.0
C2390 C 0.8159 0.74122 0.12275 0.0
C2391 C 0.80975 0.76235 0.13447 0.0
C2392 C 0.80426 0.77872 0.12052 0.0
C2393 C 0.80344 0.77323 0.09552 0.0
C2394 C 0.81349 0.79396 0.20034 0.0
C2395 C 0.80745 0.77327 0.21118 0.0
C2396 C 0.81394 0.79061 0.17543 0.0
C2397 C 0.80816 0.76651 0.16087 0.0
C2398 C 0.80098 0.74606 0.17185 0.0
C2399 C 0.80104 0.74939 0.19663 0.0
H2400 H 0.10534 0.03012 0.7096 0.0
H2401 H 0.16264 1.0106 0.6816 0.0
H2402 H 0.09188 0.03598 0.67091 0.0
H2403 H 0.14865 0.01549 0.64193 0.0
H2404 H 0.12837 0.04001 0.57292 0.0
H2405 H 0.14146 0.03384 0.6118 0.0
H2406 H 0.07594 0.03148 0.63361 0.0
H2407 H 0.06319 0.03846 0.59434 0.0
C2408 C 0.11514 0.02659 0.69508 0.0
C2409 C 0.13541 0.01966 0.6997 0.0
C2410 C 0.10713 0.02999 0.67223 0.0
C2411 C 0.11874 0.02667 0.65198 0.0
C2412 C 0.13882 0.01896 0.65636 0.0
C2413 C 0.14694 0.01565 0.67949 0.0
C2414 C 0.11664 0.03844 0.58603 0.0
C2415 C 0.09452 0.03997 0.57976 0.0
C2416 C 0.12423 0.03449 0.60878 0.0
C2417 C 0.11019 0.03154 0.62708 0.0
C2418 C 0.08797 0.03361 0.62093 0.0
C2419 C 0.08038 0.03773 0.59798 0.0
H2420 H 0.81503 0.40167 0.4441 0.0
H2421 H 0.88713 0.4151 0.45284 0.0
H2422 H 0.81267 0.37016 0.40838 0.0
H2423 H 0.88471 0.38263 0.41836 0.0
H2424 H 0.87102 0.33793 0.3418 0.0
H2425 H 0.87744 0.36881 0.37813 0.0
H2426 H 0.81633 0.32873 0.40043 0.0
H2427 H 0.80931 0.29869 0.36283 0.0
C2428 C 0.83036 0.39798 0.43828 0.0
C2429 C 0.85121 0.41015 0.45157 0.0
C2430 C 0.82899 0.37966 0.41812 0.0
C2431 C 0.84842 0.37309 0.41128 0.0
C2432 C 0.86939 0.38695 0.42334 0.0
C2433 C 0.87078 0.40558 0.44316 0.0
C2434 C 0.85922 0.3354 0.35475 0.0
C2435 C 0.83884 0.31711 0.34893 0.0
C2436 C 0.86291 0.35313 0.37565 0.0
C2437 C 0.84677 0.35191 0.39159 0.0
C2438 C 0.8284 0.33088 0.38772 0.0
C2439 C 0.82449 0.31342 0.36639 0.0
H2440 H 0.4711 0.07421 0.26336 0.0
H2441 H 0.45707 0.9947 0.23782 0.0
H2442 H 0.47064 0.08031 0.22207 0.0
H2443 H 0.45685 1.0006 0.19724 0.0
H2444 H 0.47006 1.00307 0.1316 0.0
H2445 H 0.44589 0.01374 0.1615 0.0
H2446 H 0.50052 0.07514 0.19865 0.0
H2447 H 0.52389 0.06514 0.16813 0.0
C2448 C 0.46764 0.05806 0.24892 0.0
C2449 C 0.46507 0.03405 0.25373 0.0
C2450 C 0.46708 0.06154 0.22535 0.0
C2451 C 0.46394 0.04104 0.20635 0.0
C2452 C 0.45913 0.01691 0.21128 0.0
C2453 C 0.45983 0.01349 0.23469 0.0
C2454 C 0.47639 0.0194 0.14573 0.0
C2455 C 0.4989 0.03263 0.14871 0.0
C2456 C 0.46259 0.02571 0.16262 0.0
C2457 C 0.47175 0.04431 0.1831 0.0
C2458 C 0.49304 0.0603 0.18341 0.0
C2459 C 0.50664 0.05435 0.16623 0.0
H2460 H 0.77212 0.73178 0.93649 0.0
H2461 H 0.8436 0.75165 0.95569 0.0
H2462 H 0.77705 0.73957 0.89688 0.0
H2463 H 0.84889 0.76167 0.91595 0.0
H2464 H 0.848 0.75719 0.83306 0.0
H2465 H 0.84706 0.7491 0.87393 0.0
H2466 H 0.78517 0.77155 0.87755 0.0
H2467 H 0.78539 0.77726 0.83663 0.0
C2468 C 0.78899 0.7383 0.93224 0.0
C2469 C 0.80742 0.7415 0.94925 0.0
C2470 C 0.7919 0.74309 0.9095 0.0
C2471 C 0.81339 0.75216 0.90315 0.0
C2472 C 0.83206 0.75479 0.92007 0.0
C2473 C 0.82908 0.7492 0.94287 0.0
C2474 C 0.83412 0.75991 0.8427 0.0
C2475 C 0.81632 0.76687 0.83158 0.0
C2476 C 0.83365 0.7556 0.86618 0.0
C2477 C 0.81562 0.75881 0.87903 0.0
C2478 C 0.79876 0.76755 0.86808 0.0
C2479 C 0.79892 0.77106 0.8446 0.0
H2480 H 0.82591 0.08277 0.98942 0.0
H2481 H 0.85563 0.12474 0.06005 0.0
H2482 H 0.85641 0.06285 0.98704 0.0
H2483 H 0.88637 0.10443 0.05754 0.0
H2484 H 0.94697 0.08619 0.01399 0.0
H2485 H 0.91757 0.1048 0.02854 0.0
H2486 H 0.8701 0.03269 0.00967 0.0
H2487 H 0.89944 0.01402 0.99509 0.0
C2488 C 0.83886 0.08756 0.00452 0.0
C2489 C 0.8384 0.10508 0.02497 0.0
C2490 C 0.85617 0.07603 1.00323 0.0
C2491 C 0.87327 0.08182 0.02236 0.0
C2492 C 0.87309 0.09957 0.04277 0.0
C2493 C 0.85559 0.11108 0.04415 0.0
C2494 C 0.9304 0.07422 0.01364 0.0
C2495 C 0.92518 0.04878 1.00305 0.0
C2496 C 0.91369 0.08485 0.02206 0.0
C2497 C 0.89174 0.07007 0.01984 0.0
C2498 C 0.887 0.04433 0.01121 0.0
C2499 C 0.90363 0.03374 1.00276 0.0
H2500 H 0.39549 0.41878 0.00465 0.0
H2501 H 0.38782 0.45979 0.07324 0.0
H2502 H 0.43183 0.44704 0.00525 0.0
H2503 H 0.42517 0.48803 0.07451 0.0
H2504 H 0.48998 0.54294 0.05779 0.0
H2505 H 0.45132 0.51975 0.0586 0.0
H2506 H 0.46725 0.45205 0.02593 0.0
H2507 H 0.50507 0.47509 0.02425 0.0
C2508 C 0.40158 0.43414 0.0198 0.0
C2509 C 0.38889 0.43704 0.03891 0.0
C2510 C 0.4226 0.45022 0.02033 0.0
C2511 C 0.43193 0.46946 0.04028 0.0
C2512 C 0.41863 0.47337 0.05889 0.0
C2513 C 0.39722 0.45729 0.05818 0.0
C2514 C 0.48525 0.52315 0.05083 0.0
C2515 C 0.50073 0.51115 0.04048 0.0
C2516 C 0.46302 0.50978 0.05138 0.0
C2517 C 0.45583 0.48404 0.04174 0.0
C2518 C 0.47176 0.47196 0.03272 0.0
C2519 C 0.49369 0.48525 0.03196 0.0
H2520 H 0.38594 0.62669 0.75651 0.0
H2521 H 0.43206 0.68287 0.80992 0.0
H2522 H 0.36305 0.65632 0.75262 0.0
H2523 H 0.40982 0.71217 0.80585 0.0
H2524 H 0.35978 0.7614 0.80733 0.0
H2525 H 0.38026 0.73 0.81218 0.0
H2526 H 0.35492 0.6911 0.73987 0.0
H2527 H 0.33543 0.72311 0.735 0.0
C2528 C 0.39146 0.64524 0.76745 0.0
C2529 C 0.41141 0.65158 0.78364 0.0
C2530 C 0.37815 0.66267 0.76517 0.0
C2531 C 0.38389 0.68752 0.77894 0.0
C2532 C 0.40386 0.69362 0.795 0.0
C2533 C 0.41702 0.67638 0.79724 0.0
C2534 C 0.35801 0.74582 0.79261 0.0
C2535 C 0.3447 0.74479 0.77103 0.0
C2536 C 0.37025 0.72762 0.79522 0.0
C2537 C 0.36978 0.70697 0.77652 0.0
C2538 C 0.35606 0.70589 0.75513 0.0
C2539 C 0.34444 0.72448 0.75234 0.0
H2540 H 0.22185 0.574 0.56011 0.0
H2541 H 0.22695 0.59766 0.49261 0.0
H2542 H 0.18124 0.5662 0.55343 0.0
H2543 H 0.18641 0.59084 0.48632 0.0
H2544 H 0.12499 0.62011 0.51452 0.0
H2545 H 0.1645 0.61888 0.51555 0.0
H2546 H 0.14594 0.54218 0.52287 0.0
H2547 H 0.10778 0.54351 0.52182 0.0
C2548 C 0.21413 0.57585 0.54313 0.0
C2549 C 0.22726 0.58654 0.52696 0.0
C2550 C 0.19105 0.5721 0.53961 0.0
C2551 C 0.18117 0.57899 0.51987 0.0
C2552 C 0.19397 0.58606 0.50193 0.0
C2553 C 0.21699 0.58915 0.50518 0.0
C2554 C 0.12949 0.60313 0.51651 0.0
C2555 C 0.11306 0.58183 0.51823 0.0
C2556 C 0.1519 0.60234 0.51684 0.0
C2557 C 0.15789 0.58023 0.51893 0.0
C2558 C 0.14162 0.55933 0.52108 0.0
C2559 C 0.11955 0.56014 0.52048 0.0
H2560 H 0.75486 0.038 0.78429 0.0
H2561 H 0.73057 0.98975 0.71488 0.0
H2562 H 0.77772 1.01098 0.79342 0.0
H2563 H 0.75406 0.96256 0.72422 0.0
H2564 H 0.77359 0.91092 0.77672 0.0
H2565 H 0.75329 0.93606 0.75822 0.0
H2566 H 0.81157 0.99862 0.77638 0.0
H2567 H 0.83224 0.97334 0.79451 0.0
C2568 C 0.75472 0.02184 0.77082 0.0
C2569 C 0.74116 0.01595 0.74885 0.0
C2570 C 0.76787 1.0065 0.77602 0.0
C2571 C 0.76783 0.98523 0.75925 0.0
C2572 C 0.75433 0.97915 0.7372 0.0
C2573 C 0.74104 0.9946 0.73193 0.0
C2574 C 0.78225 0.92989 0.77627 0.0
C2575 C 0.80449 0.94038 0.78704 0.0
C2576 C 0.77067 0.94409 0.76557 0.0
C2577 C 0.7811 0.96899 0.76592 0.0
C2578 C 0.80342 0.9793 0.77603 0.0
C2579 C 0.81507 0.96506 0.78659 0.0
H2580 H 0.78144 0.95277 0.49413 0.0
H2581 H 0.75721 0.91608 0.55077 0.0
H2582 H 0.75172 0.97404 0.4962 0.0
H2583 H 0.72705 0.93755 0.5527 0.0
H2584 H 0.6627 0.96029 0.51615 0.0
H2585 H 0.69191 0.93898 0.52419 0.0
H2586 H 0.74259 1.0071 0.52696 0.0
H2587 H 0.71362 0.02806 0.51876 0.0
C2588 C 0.76978 0.94926 0.50706 0.0
C2589 C 0.77181 0.93288 0.52237 0.0
C2590 C 0.75281 0.96158 0.50836 0.0
C2591 C 0.73726 0.95772 0.52484 0.0
C2592 C 0.73889 0.94095 0.53992 0.0
C2593 C 0.75619 0.92879 0.53885 0.0
C2594 C 0.68008 0.97079 0.5193 0.0
C2595 C 0.68605 0.99567 0.51659 0.0
C2596 C 0.69676 0.95863 0.52384 0.0
C2597 C 0.7195 0.97129 0.52565 0.0
C2598 C 0.72521 0.99678 0.52516 0.0
C2599 C 0.70867 1.00881 0.52061 0.0
H2600 H 0.42984 0.49149 0.79652 0.0
H2601 H 0.38323 0.50036 0.74121 0.0
H2602 H 0.40696 0.45013 0.79622 0.0
H2603 H 0.36027 0.45789 0.74 0.0
H2604 H 0.31588 0.38293 0.75349 0.0
H2605 H 0.3358 0.4262 0.75468 0.0
H2606 H 0.39783 0.40977 0.77653 0.0
H2607 H 0.3779 0.3673 0.7762 0.0
C2608 C 0.41449 0.48463 0.78429 0.0
C2609 C 0.40852 0.49971 0.76904 0.0
C2610 C 0.40135 0.46043 0.78382 0.0
C2611 C 0.38165 0.44962 0.76764 0.0
C2612 C 0.37514 0.46507 0.75285 0.0
C2613 C 0.38832 0.48969 0.75356 0.0
C2614 C 0.3337 0.38851 0.75877 0.0
C2615 C 0.34485 0.37107 0.76517 0.0
C2616 C 0.34535 0.4136 0.75926 0.0
C2617 C 0.36874 0.4224 0.76614 0.0
C2618 C 0.37987 0.40463 0.77184 0.0
C2619 C 0.36827 0.37975 0.77141 0.0
H2620 H 0.26918 0.62357 0.21386 0.0
H2621 H 0.25597 0.60957 0.28383 0.0
H2622 H 0.28833 0.6666 0.23166 0.0
H2623 H 0.27384 0.65301 0.30148 0.0
H2624 H 0.25017 0.72849 0.28308 0.0
H2625 H 0.24832 0.68396 0.27855 0.0
H2626 H 0.31899 0.69926 0.27231 0.0
H2627 H 0.32102 0.74275 0.27805 0.0
C2628 C 0.27204 0.62924 0.2332 0.0
C2629 C 0.26103 0.61391 0.24762 0.0
C2630 C 0.28256 0.65383 0.24332 0.0
C2631 C 0.28184 0.66263 0.26766 0.0
C2632 C 0.2744 0.64619 0.28265 0.0
C2633 C 0.26461 0.62138 0.2726 0.0
C2634 C 0.26527 0.72226 0.28105 0.0
C2635 C 0.28566 0.73905 0.28004 0.0
C2636 C 0.26431 0.69708 0.27884 0.0
C2637 C 0.28372 0.68883 0.27549 0.0
C2638 C 0.30405 0.70558 0.27532 0.0
C2639 C 0.30504 0.73053 0.27807 0.0
H2640 H 0.49068 0.68929 0.47258 0.0
H2641 H 0.56035 0.72844 0.47973 0.0
H2642 H 0.50108 0.6536 0.48457 0.0
H2643 H 0.57079 0.69288 0.49271 0.0
H2644 H 0.57213 0.6247 0.53513 0.0
H2645 H 0.56388 0.66383 0.52832 0.0
H2646 H 0.52336 0.62415 0.46214 0.0
H2647 H 0.53292 0.58641 0.46757 0.0
C2648 C 0.50824 0.69042 0.47702 0.0
C2649 C 0.52466 0.71171 0.47493 0.0
C2650 C 0.51421 0.66995 0.48397 0.0
C2651 C 0.5368 0.67033 0.4898 0.0
C2652 C 0.55325 0.69199 0.48856 0.0
C2653 C 0.54727 0.71226 0.48088 0.0
C2654 C 0.56201 0.62448 0.51886 0.0
C2655 C 0.55393 0.60218 0.50165 0.0
C2656 C 0.55706 0.64689 0.51504 0.0
C2657 C 0.54293 0.6472 0.49457 0.0
C2658 C 0.53428 0.62477 0.47804 0.0
C2659 C 0.53992 0.60294 0.48129 0.0
H2660 H 0.67048 0.28957 0.63201 0.0
H2661 H 0.66608 0.35648 0.67876 0.0
H2662 H 0.70023 0.2855 0.65978 0.0
H2663 H 0.69728 0.35358 0.70635 0.0
H2664 H 0.74524 0.33219 0.75997 0.0
H2665 H 0.7132 0.33581 0.73482 0.0
H2666 H 0.73723 0.29965 0.67276 0.0
H2667 H 0.76822 0.29474 0.69805 0.0
C2668 C 0.67606 0.30358 0.64831 0.0
C2669 C 0.6659 0.32335 0.65308 0.0
C2670 C 0.69347 0.30147 0.66425 0.0
C2671 C 0.70199 0.3195 0.6854 0.0
C2672 C 0.69138 0.33913 0.69048 0.0
C2673 C 0.67344 0.34091 0.67461 0.0
C2674 C 0.74359 0.3247 0.74103 0.0
C2675 C 0.75945 0.31277 0.73138 0.0
C2676 C 0.72516 0.32707 0.72639 0.0
C2677 C 0.722 0.31777 0.70144 0.0
C2678 C 0.7383 0.30649 0.69181 0.0
C2679 C 0.75651 0.30393 0.70644 0.0
H2680 H 0.99829 0.34605 0.9524 0.0
H2681 H 0.05785 0.35546 1.00059 0.0
H2682 H 1.00239 0.39084 0.96117 0.0
H2683 H 0.06229 0.40088 0.00942 0.0
H2684 H 0.05069 0.47987 0.03383 0.0
H2685 H 0.04486 0.43468 0.02834 0.0
H2686 H 0.0272 0.42758 0.95254 0.0
H2687 H 0.03307 0.47255 0.95813 0.0
C2688 C 0.01243 0.35786 0.96476 0.0
C2689 C 0.02794 0.34736 0.9755 0.0
C2690 C 0.0148 0.38357 0.96981 0.0
C2691 C 0.03276 0.39967 0.98588 0.0
C2692 C 0.04818 0.38909 0.99704 0.0
C2693 C 0.04582 0.36315 0.99183 0.0
C2694 C 0.045 0.46863 0.01612 0.0
C2695 C 0.04189 0.47986 0.99644 0.0
C2696 C 0.042 0.44269 0.0129 0.0
C2697 C 0.03557 0.42732 0.98996 0.0
C2698 C 0.03189 0.43863 0.97051 0.0
C2699 C 0.03519 0.46446 0.97369 0.0
H2700 H 0.03768 0.78665 0.14439 0.0
H2701 H 0.04476 0.86561 0.16572 0.0
H2702 H 1.0036 0.77831 0.16361 0.0
H2703 H 0.01045 0.85734 0.18447 0.0
H2704 H 0.9654 0.83243 0.24151 0.0
H2705 H 0.99659 0.84326 0.2184 0.0
H2706 H 0.96531 0.77914 0.16262 0.0
H2707 H 0.93449 0.76808 0.1864 0.0
C2708 C 0.03197 0.80226 0.15315 0.0
C2709 C 0.04418 0.82682 0.15367 0.0
C2710 C 0.01221 0.79748 0.16398 0.0
C2711 C 1.00409 0.81712 0.17573 0.0
C2712 C 0.01622 0.84168 0.17595 0.0
C2713 C 0.03593 0.84645 0.16507 0.0
C2714 C 0.96498 0.82109 0.22401 0.0
C2715 C 0.94745 0.79964 0.21559 0.0
C2716 C 0.98288 0.82723 0.21071 0.0
C2717 C 0.98374 0.81199 0.1886 0.0
C2718 C 0.96554 0.7911 0.17972 0.0
C2719 C 0.94769 0.78492 0.19313 0.0
H2720 H 0.47664 0.30653 0.09445 0.0
H2721 H 0.54092 0.32962 0.13812 0.0
H2722 H 0.49053 0.33621 0.0694 0.0
H2723 H 0.5549 0.35861 0.11276 0.0
H2724 H 0.56776 0.4228 0.07391 0.0
H2725 H 0.55109 0.39678 0.1011 0.0
H2726 H 0.51725 0.33922 0.04031 0.0
H2727 H 0.53373 0.36555 0.01327 0.0
C2728 C 0.49365 0.31806 0.0988 0.0
C2729 C 0.50768 0.3158 0.11824 0.0
C2730 C 0.50163 0.3349 0.08438 0.0
C2731 C 0.52381 0.34962 0.0891 0.0
C2732 C 0.53763 0.34777 0.1089 0.0
C2733 C 0.52964 0.33107 0.12336 0.0
C2734 C 0.55678 0.40453 0.06651 0.0
C2735 C 0.55218 0.3958 0.04166 0.0
C2736 C 0.54728 0.38967 0.08198 0.0
C2737 C 0.53293 0.36596 0.0728 0.0
C2738 C 0.52811 0.35749 0.04788 0.0
C2739 C 0.53775 0.3723 0.03242 0.0
H2740 H 0.0749 0.33104 0.3338 0.0
H2741 H 0.04043 0.33603 0.39685 0.0
H2742 H 0.04191 0.33546 0.31017 0.0
H2743 H 0.00808 0.34063 0.3735 0.0
H2744 H 0.96898 0.38201 0.33241 0.0
H2745 H 1.00237 0.37555 0.3533 0.0
H2746 H 0.99979 0.3119 0.29763 0.0
H2747 H 0.9664 0.31865 0.27668 0.0
C2748 C 0.06023 0.33271 0.34248 0.0
C2749 C 0.06016 0.33318 0.36711 0.0
C2750 C 0.04148 0.33524 0.32903 0.0
C2751 C 0.02273 0.33866 0.34022 0.0
C2752 C 0.02248 0.33831 0.3646 0.0
C2753 C 0.04094 0.33541 0.37787 0.0
C2754 C 0.97573 0.36678 0.32471 0.0
C2755 C 0.96556 0.35085 0.3031 0.0
C2756 C 0.99466 0.36303 0.33657 0.0
C2757 C 1.00351 0.34325 0.32692 0.0
C2758 C 0.99334 0.32743 0.30515 0.0
C2759 C 0.97435 0.33117 0.29332 0.0
H2760 H 1.00155 0.71915 0.59669 0.0
H2761 H 0.96195 0.6604 0.62649 0.0
H2762 H 0.01192 0.68892 0.56786 0.0
H2763 H 0.97089 0.62951 0.59596 0.0
H2764 H 0.02745 0.59241 0.58017 0.0
H2765 H 0.00513 0.6191 0.59789 0.0
H2766 H 0.01075 0.65666 0.53796 0.0
H2767 H 0.03584 0.63271 0.52271 0.0
C2768 C 0.99398 0.69965 0.59619 0.0
C2769 C 0.98186 0.69201 0.61445 0.0
C2770 C 0.99992 0.68213 0.57947 0.0
C2771 C 0.99309 0.65676 0.58038 0.0
C2772 C 0.97731 0.64904 0.59569 0.0
C2773 C 0.97192 0.66666 0.61292 0.0
C2774 C 0.02436 0.60684 0.57121 0.0
C2775 C 0.03283 0.61011 0.54966 0.0
C2776 C 0.01094 0.62161 0.5809 0.0
C2777 C 0.00549 0.63956 0.56894 0.0
C2778 C 0.01444 0.64301 0.54764 0.0
C2779 C 0.02854 0.62897 0.53859 0.0
H2780 H 0.6645 0.8587 0.81053 0.0
H2781 H 0.68669 0.83033 0.87081 0.0
H2782 H 0.69127 0.84191 0.78718 0.0
H2783 H 0.7137 0.81524 0.84872 0.0
H2784 H 0.74644 0.7707 0.81019 0.0
H2785 H 0.71205 0.78159 0.81862 0.0
H2786 H 0.73004 0.84341 0.78252 0.0
H2787 H 0.76199 0.82845 0.76946 0.0
C2788 C 0.67527 0.84916 0.81876 0.0
C2789 C 0.67315 0.84492 0.842 0.0
C2790 C 0.69046 0.83955 0.8055 0.0
C2791 C 0.7037 0.82604 0.81568 0.0
C2792 C 0.7028 0.82411 0.83974 0.0
C2793 C 0.68752 0.83309 0.85259 0.0
C2794 C 0.74192 0.78511 0.80229 0.0
C2795 C 0.75594 0.79784 0.78823 0.0
C2796 C 0.72268 0.79203 0.80777 0.0
C2797 C 0.7189 0.81407 0.80216 0.0
C2798 C 0.73242 0.82631 0.78704 0.0
C2799 C 0.75071 0.81786 0.77971 0.0
H2800 H 0.45657 0.56707 0.68383 0.0
H2801 H 0.52297 0.58794 0.72148 0.0
H2802 H 0.47232 0.56577 0.64556 0.0
H2803 H 0.53885 0.58662 0.68371 0.0
H2804 H 0.56674 0.59341 0.61197 0.0
H2805 H 0.55041 0.59857 0.6495 0.0
H2806 H 0.48857 0.5473 0.61459 0.0
H2807 H 0.50496 0.54246 0.57711 0.0
C2808 C 0.47458 0.57216 0.68417 0.0
C2809 C 0.48823 0.57836 0.70647 0.0
C2810 C 0.48385 0.57094 0.66185 0.0
C2811 C 0.50735 0.57594 0.66046 0.0
C2812 C 0.52085 0.5828 0.68297 0.0
C2813 C 0.51159 0.58369 0.70512 0.0
C2814 C 0.54964 0.58318 0.61205 0.0
C2815 C 0.53758 0.56742 0.59064 0.0
C2816 C 0.54005 0.58605 0.63407 0.0
C2817 C 0.51768 0.57342 0.63619 0.0
C2818 C 0.50559 0.55788 0.6146 0.0
C2819 C 0.51522 0.55496 0.59265 0.0
H2820 H 0.76612 0.19593 0.99839 0.0
H2821 H 0.80991 0.16101 0.95725 0.0
H2822 H 0.76839 0.22614 0.97317 0.0
H2823 H 0.81217 0.1919 0.93114 0.0
H2824 H 0.76609 0.22542 0.87834 0.0
H2825 H 0.77931 0.19917 0.90285 0.0
H2826 H 0.79763 0.26143 0.96292 0.0
H2827 H 0.78377 0.28741 0.93848 0.0
C2828 C 0.77633 0.19493 0.98382 0.0
C2829 C 0.78759 0.17627 0.97923 0.0
C2830 C 0.77795 0.21241 0.9697 0.0
C2831 C 0.79086 0.21153 0.9507 0.0
C2832 C 0.80241 0.19293 0.94604 0.0
C2833 C 0.80102 0.17537 0.96066 0.0
C2834 C 0.77285 0.23326 0.89688 0.0
C2835 C 0.77311 0.25781 0.90722 0.0
C2836 C 0.78096 0.21858 0.91056 0.0
C2837 C 0.7894 0.22848 0.93458 0.0
C2838 C 0.79107 0.25359 0.94434 0.0
C2839 C 0.78272 0.26816 0.93074 0.0
H2840 H 0.16117 0.59267 0.16316 0.0
H2841 H 0.17149 0.52008 0.1665 0.0
H2842 H 0.13239 0.5736 0.12934 0.0
H2843 H 0.14217 0.5011 0.1332 0.0
H2844 H 0.09719 0.49764 0.05737 0.0
H2845 H 0.12781 0.50266 0.08863 0.0
H2846 H 0.09485 0.54425 0.13869 0.0
H2847 H 0.06504 0.5403 0.10729 0.0
C2848 C 0.15761 0.57281 0.15627 0.0
C2849 C 0.16737 0.55753 0.16789 0.0
C2850 C 0.14121 0.56195 0.13721 0.0
C2851 C 0.13459 0.53594 0.13019 0.0
C2852 C 0.14683 0.52114 0.1392 0.0
C2853 C 0.1635 0.53204 0.15807 0.0
C2854 C 0.09597 0.50647 0.07549 0.0
C2855 C 0.07934 0.51895 0.08028 0.0
C2856 C 0.1134 0.50941 0.09316 0.0
C2857 C 0.11363 0.52455 0.1153 0.0
C2858 C 0.09483 0.53291 0.12127 0.0
C2859 C 0.07759 0.53025 0.10354 0.0
H2860 H 0.82722 0.81108 0.46262 0.0
H2861 H 0.80564 0.87725 0.45682 0.0
H2862 H 0.82713 0.80137 0.41938 0.0
H2863 H 0.80493 0.86724 0.41352 0.0
H2864 H 0.83301 0.86336 0.34383 0.0
H2865 H 0.83242 0.869 0.3869 0.0
H2866 H 0.80743 0.78946 0.37987 0.0
H2867 H 0.8094 0.78391 0.33665 0.0
C2868 C 0.82203 0.8233 0.45203 0.0
C2869 C 0.81676 0.84514 0.46319 0.0
C2870 C 0.82191 0.81769 0.42719 0.0
C2871 C 0.81662 0.83384 0.41292 0.0
C2872 C 0.80978 0.85474 0.42398 0.0
C2873 C 0.80983 0.86032 0.44882 0.0
C2874 C 0.82803 0.84706 0.35165 0.0
C2875 C 0.82164 0.82322 0.33705 0.0
C2876 C 0.82725 0.85028 0.37627 0.0
C2877 C 0.81927 0.82977 0.38689 0.0
C2878 C 0.81372 0.8057 0.37236 0.0
C2879 C 0.81498 0.80245 0.34763 0.0
H2880 H 0.51814 0.55957 0.83404 0.0
H2881 H 0.4667 0.59023 0.86402 0.0
H2882 H 0.53139 0.55374 0.87273 0.0
H2883 H 0.48074 0.58546 0.90376 0.0
H2884 H 0.49844 0.55924 0.97275 0.0
H2885 H 0.48586 0.56625 0.93405 0.0
H2886 H 0.54866 0.55909 0.90968 0.0
H2887 H 0.56094 0.55149 0.94884 0.0
C2888 C 0.50963 0.56557 0.84897 0.0
C2889 C 0.49096 0.5755 0.84492 0.0
C2890 C 0.51755 0.56222 0.87182 0.0
C2891 C 0.50752 0.56868 0.89264 0.0
C2892 C 0.48918 0.57945 0.88883 0.0
C2893 C 0.48108 0.58266 0.86567 0.0
C2894 C 0.50968 0.55893 0.95915 0.0
C2895 C 0.53088 0.55451 0.96464 0.0
C2896 C 0.5024 0.56333 0.9365 0.0
C2897 C 0.51584 0.56374 0.91753 0.0
C2898 C 0.53713 0.55895 0.92294 0.0
C2899 C 0.54444 0.55448 0.94582 0.0
H2900 H 0.80765 0.18712 0.1115 0.0
H2901 H 0.76662 0.22813 0.07972 0.0
H2902 H 0.809 0.21332 0.15037 0.0
H2903 H 0.76842 0.25468 0.11891 0.0
H2904 H 0.76543 0.27645 0.20413 0.0
H2905 H 0.75779 0.25061 0.16349 0.0
H2906 H 0.82885 0.26023 0.16147 0.0
H2907 H 0.8361 0.28465 0.20161 0.0
C2908 C 0.79905 0.20181 0.1128 0.0
C2909 C 0.78749 0.20606 0.09262 0.0
C2910 C 0.7997 0.2166 0.13498 0.0
C2911 C 0.78899 0.23595 0.13719 0.0
C2912 C 0.77676 0.23976 0.11731 0.0
C2913 C 0.77608 0.2249 0.09501 0.0
C2914 C 0.77927 0.2736 0.19445 0.0
C2915 C 0.80143 0.28329 0.20529 0.0
C2916 C 0.77494 0.25887 0.17151 0.0
C2917 C 0.79282 0.2536 0.1598 0.0
C2918 C 0.81489 0.2642 0.17036 0.0
C2919 C 0.81913 0.2788 0.19303 0.0
H2920 H 0.18006 0.53228 0.2964 0.0
H2921 H 0.15433 0.59714 0.29662 0.0
H2922 H 0.16157 0.52463 0.33197 0.0
H2923 H 0.13623 0.58941 0.33168 0.0
H2924 H 0.0809 0.55066 0.35951 0.0
H2925 H 0.10399 0.53398 0.33138 0.0
H2926 H 0.16329 0.5723 0.38059 0.0
H2927 H 0.1401 0.5888 0.40885 0.0
C2928 C 0.17045 0.54478 0.304 0.0
C2929 C 0.16827 0.56514 0.29374 0.0
C2930 C 0.16009 0.54041 0.32421 0.0
C2931 C 0.14753 0.55634 0.33392 0.0
C2932 C 0.14588 0.57693 0.32408 0.0
C2933 C 0.15621 0.58135 0.30415 0.0
C2934 C 0.09878 0.55456 0.36456 0.0
C2935 C 0.10919 0.57168 0.38538 0.0
C2936 C 0.11184 0.54456 0.3489 0.0
C2937 C 0.13521 0.55222 0.354 0.0
C2938 C 0.14523 0.56618 0.37657 0.0
C2939 C 0.13214 0.5761 0.3923 0.0
H2940 H 0.77866 0.84299 0.58399 0.0
H2941 H 0.8483 0.85239 0.60857 0.0
H2942 H 0.7683 0.83019 0.62159 0.0
H2943 H 0.8381 0.84054 0.64598 0.0
H2944 H 0.81449 0.84857 0.71871 0.0
H2945 H 0.81773 0.86212 0.68097 0.0
H2946 H 0.77561 0.79123 0.64354 0.0
H2947 H 0.7725 0.77726 0.68123 0.0
C2948 C 0.79166 0.84245 0.59747 0.0
C2949 C 0.81424 0.84855 0.5935 0.0
C2950 C 0.78577 0.8351 0.6188 0.0
C2951 C 0.80248 0.83464 0.63658 0.0
C2952 C 0.82497 0.84095 0.63257 0.0
C2953 C 0.83077 0.84758 0.61116 0.0
C2954 C 0.8055 0.83581 0.70264 0.0
C2955 C 0.79345 0.81142 0.70326 0.0
C2956 C 0.80741 0.84371 0.681 0.0
C2957 C 0.79702 0.82765 0.65948 0.0
C2958 C 0.78369 0.80397 0.66002 0.0
C2959 C 0.78203 0.7959 0.68172 0.0
H2960 H 0.80938 0.51754 0.52276 0.0
H2961 H 0.75843 0.4502 0.49216 0.0
H2962 H 0.78094 0.53811 0.5357 0.0
H2963 H 0.72937 0.4713 0.50326 0.0
H2964 H 0.68678 0.50904 0.55262 0.0
H2965 H 0.71336 0.48671 0.53654 0.0
H2966 H 0.7535 0.55528 0.52185 0.0
H2967 H 0.72771 0.57757 0.53953 0.0
C2968 C 0.79191 0.50755 0.51805 0.0
C2969 C 0.78577 0.48274 0.50598 0.0
C2970 C 0.7756 0.51926 0.52536 0.0
C2971 C 0.75282 0.50654 0.52008 0.0
C2972 C 0.74675 0.48159 0.50771 0.0
C2973 C 0.76322 0.46962 0.50106 0.0
C2974 C 0.70147 0.51916 0.54607 0.0
C2975 C 0.70576 0.54495 0.54773 0.0
C2976 C 0.7165 0.50642 0.5366 0.0
C2977 C 0.73575 0.5193 0.52822 0.0
C2978 C 0.73926 0.54496 0.52888 0.0
C2979 C 0.72455 0.55774 0.53888 0.0
H2980 H 0.24569 0.13473 0.51298 0.0
H2981 H 0.21294 0.1849 0.48484 0.0
H2982 H 0.20911 0.10497 0.51081 0.0
H2983 H 0.17699 0.15534 0.48208 0.0
H2984 H 0.11682 0.11825 0.51411 0.0
H2985 H 0.15364 0.14305 0.51111 0.0
H2986 H 0.17465 0.07636 0.48624 0.0
H2987 H 0.13739 0.05115 0.48988 0.0
C2988 C 0.23079 0.13922 0.50594 0.0
C2989 C 0.23224 0.16242 0.4995 0.0
C2990 C 0.20982 0.12214 0.50463 0.0
C2991 C 0.18994 0.12793 0.49675 0.0
C2992 C 0.19176 0.15047 0.48891 0.0
C2993 C 0.21249 0.16745 0.4904 0.0
C2994 C 0.1291 0.10865 0.50783 0.0
C2995 C 0.12386 0.08249 0.5022 0.0
C2996 C 0.15035 0.12301 0.50594 0.0
C2997 C 0.16724 0.11183 0.49823 0.0
C2998 C 0.1621 0.08564 0.49233 0.0
C2999 C 0.14061 0.07114 0.49416 0.0
H3000 H 0.22872 0.95246 0.81748 0.0
H3001 H 0.22157 0.94501 0.741 0.0
H3002 H 0.24914 0.9211 0.81465 0.0
H3003 H 0.24282 0.9132 0.73788 0.0
H3004 H 0.27594 0.84675 0.73433 0.0
H3005 H 0.25683 0.87991 0.73605 0.0
H3006 H 0.27237 0.89745 0.81294 0.0
H3007 H 0.29044 0.86338 0.8108 0.0
C3008 C 0.23149 0.94428 0.79973 0.0
C3009 C 0.22288 0.95227 0.77957 0.0
C3010 C 0.24374 0.92574 0.79806 0.0
C3011 C 0.24866 0.9134 0.77599 0.0
C3012 C 0.23999 0.92134 0.75557 0.0
C3013 C 0.22753 0.9401 0.75729 0.0
C3014 C 0.27587 0.85811 0.75169 0.0
C3015 C 0.2862 0.85242 0.77226 0.0
C3016 C 0.26447 0.87751 0.75277 0.0
C3017 C 0.26221 0.8927 0.77467 0.0
C3018 C 0.27287 0.88705 0.79534 0.0
C3019 C 0.28409 0.86739 0.7942 0.0
H3020 H 0.41034 0.0259 0.05937 0.0
H3021 H 0.38145 0.98152 0.98951 0.0
H3022 H 0.4464 0.03709 0.04425 0.0
H3023 H 0.4178 0.99123 0.97505 0.0
H3024 H 0.49389 0.97955 0.00463 0.0
H3025 H 0.45331 0.97567 0.99964 0.0
H3026 H 0.46589 0.05525 0.00708 0.0
H3027 H 0.505 0.05913 0.01358 0.0
C3028 C 0.41148 0.0197 0.04057 0.0
C3029 C 0.39336 1.00314 0.0256 0.0
C3030 C 0.432 0.02575 0.03197 0.0
C3031 C 0.43448 0.01457 0.00868 0.0
C3032 C 0.41596 0.99996 0.99299 0.0
C3033 C 0.39525 0.99475 1.00129 0.0
C3034 C 0.48783 0.99601 0.00464 0.0
C3035 C 0.50273 0.01969 0.00931 0.0
C3036 C 0.46484 0.99379 1.00133 0.0
C3037 C 0.45694 0.01531 1.00282 0.0
C3038 C 0.47181 0.03853 0.0056 0.0
C3039 C 0.4944 0.0407 0.00952 0.0
H3040 H 0.91586 0.61557 0.78393 0.0
H3041 H 0.86829 0.59736 0.83381 0.0
H3042 H 0.89242 0.63829 0.76679 0.0
H3043 H 0.8449 0.62074 0.81675 0.0
H3044 H 0.79881 0.62015 0.74653 0.0
H3045 H 0.82343 0.60799 0.77497 0.0
H3046 H 0.8754 0.67434 0.77457 0.0
H3047 H 0.85089 0.6862 0.74587 0.0
C3048 C 0.9007 0.61707 0.79169 0.0
C3049 C 0.8936 0.60448 0.80991 0.0
C3050 C 0.8874 0.63023 0.782 0.0
C3051 C 0.86694 0.63108 0.79052 0.0
C3052 C 0.86064 0.6201 0.80993 0.0
C3053 C 0.874 0.60689 0.81969 0.0
C3054 C 0.8155 0.63201 0.75263 0.0
C3055 C 0.82333 0.65373 0.74391 0.0
C3056 C 0.82936 0.62538 0.76913 0.0
C3057 C 0.85114 0.6404 0.77688 0.0
C3058 C 0.85862 0.66259 0.76877 0.0
C3059 C 0.84474 0.66925 0.75238 0.0
H3060 H 0.84207 0.65461 0.03344 0.0
H3061 H 0.88033 0.67992 0.97837 0.0
H3062 H 0.86777 0.63002 0.04152 0.0
H3063 H 0.90597 0.65452 0.98614 0.0
H3064 H 0.95974 0.62843 0.03073 0.0
H3065 H 0.93467 0.65209 0.01716 0.0
H3066 H 0.87763 0.59313 0.02318 0.0
H3067 H 0.90259 0.56985 0.03702 0.0
C3068 C 0.85585 0.65474 0.02286 0.0
C3069 C 0.85906 0.66916 0.00518 0.0
C3070 C 0.87054 0.64047 0.0274 0.0
C3071 C 0.88876 0.64004 0.01427 0.0
C3072 C 0.89212 0.65454 0.99661 0.0
C3073 C 0.87738 0.66897 0.9921 0.0
C3074 C 0.94183 0.62045 0.0288 0.0
C3075 C 0.93305 0.59753 0.03534 0.0
C3076 C 0.92749 0.63395 0.02099 0.0
C3077 C 0.90416 0.62468 0.01953 0.0
C3078 C 0.89552 0.6011 0.02475 0.0
C3079 C 0.90979 0.58774 0.03265 0.0
H3080 H 0.24606 0.09065 0.79753 0.0
H3081 H 0.19353 0.10848 0.75595 0.0
H3082 H 0.26968 0.13317 0.80024 0.0
H3083 H 0.2168 0.14967 0.7576 0.0
H3084 H 0.25064 0.23064 0.78049 0.0
H3085 H 0.23 0.18833 0.77951 0.0
H3086 H 0.29193 0.16644 0.78605 0.0
H3087 H 0.31272 0.20957 0.7881 0.0
C3088 C 0.23963 0.10337 0.78862 0.0
C3089 C 0.21759 0.09582 0.77673 0.0
C3090 C 0.25321 0.12799 0.79018 0.0
C3091 C 0.24531 0.14586 0.77972 0.0
C3092 C 0.22366 0.13752 0.76689 0.0
C3093 C 0.21018 0.11337 0.76565 0.0
C3094 C 0.26009 0.217 0.78187 0.0
C3095 C 0.28369 0.22416 0.78428 0.0
C3096 C 0.24805 0.19221 0.78099 0.0
C3097 C 0.25889 0.17297 0.78212 0.0
C3098 C 0.28258 0.18021 0.78513 0.0
C3099 C 0.29469 0.20525 0.78624 0.0
H3100 H 0.37755 0.98255 0.32484 0.0
H3101 H 0.3851 0.97708 0.24989 0.0
H3102 H 0.34715 0.94469 0.31536 0.0
H3103 H 0.3549 0.93871 0.24036 0.0
H3104 H 0.37126 0.867 0.27054 0.0
H3105 H 0.37639 0.90981 0.26637 0.0
H3106 H 0.30966 0.9082 0.28414 0.0
H3107 H 0.30365 0.86412 0.28599 0.0
C3108 C 0.37173 0.97392 0.30624 0.0
C3109 C 0.3836 0.98196 0.28803 0.0
C3110 C 0.35416 0.95255 0.30078 0.0
C3111 C 0.34914 0.93886 0.27723 0.0
C3112 C 0.35857 0.94924 0.25861 0.0
C3113 C 0.37596 0.97087 0.26405 0.0
C3114 C 0.35754 0.87558 0.27329 0.0
C3115 C 0.33731 0.86257 0.27951 0.0
C3116 C 0.36032 0.89989 0.27044 0.0
C3117 C 0.34318 0.91187 0.27446 0.0
C3118 C 0.32284 0.89898 0.28049 0.0
C3119 C 0.3197 0.87412 0.28227 0.0
H3120 H 0.6349 0.39793 0.56695 0.0
H3121 H 0.56581 0.37053 0.57699 0.0
H3122 H 0.6264 0.43444 0.55484 0.0
H3123 H 0.55715 0.40691 0.56396 0.0
H3124 H 0.55393 0.46982 0.51565 0.0
H3125 H 0.55995 0.43025 0.52359 0.0
H3126 H 0.61244 0.47097 0.58005 0.0
H3127 H 0.60491 0.50964 0.57417 0.0
C3128 C 0.6178 0.39949 0.5663 0.0
C3129 C 0.6011 0.38116 0.57312 0.0
C3130 C 0.61292 0.42048 0.55929 0.0
C3131 C 0.59103 0.42362 0.55816 0.0
C3132 C 0.57413 0.405 0.56433 0.0
C3133 C 0.57915 0.38425 0.57202 0.0
C3134 C 0.56617 0.47037 0.53024 0.0
C3135 C 0.57797 0.49332 0.54492 0.0
C3136 C 0.56988 0.44761 0.53461 0.0
C3137 C 0.58654 0.44732 0.55275 0.0
C3138 C 0.59932 0.4703 0.56615 0.0
C3139 C 0.59489 0.49268 0.56263 0.0
H3140 H 0.45997 0.80715 0.41421 0.0
H3141 H 0.45014 0.73278 0.37366 0.0
H3142 H 0.42865 0.81277 0.38939 0.0
H3143 H 0.41796 0.73768 0.34917 0.0
H3144 H 0.37037 0.75914 0.29703 0.0
H3145 H 0.40291 0.75438 0.31997 0.0
H3146 H 0.39034 0.80369 0.38136 0.0
H3147 H 0.35852 0.80979 0.35756 0.0
C3148 C 0.45119 0.79206 0.39968 0.0
C3149 C 0.45786 0.76972 0.3956 0.0
C3150 C 0.43287 0.79509 0.38561 0.0
C3151 C 0.42019 0.77566 0.36715 0.0
C3152 C 0.42722 0.75334 0.36286 0.0
C3153 C 0.44577 0.75043 0.37689 0.0
C3154 C 0.37466 0.76936 0.31528 0.0
C3155 C 0.36184 0.78532 0.3251 0.0
C3156 C 0.39333 0.76626 0.32873 0.0
C3157 C 0.39979 0.7787 0.35277 0.0
C3158 C 0.38651 0.79413 0.36283 0.0
C3159 C 0.36792 0.79742 0.34922 0.0
H3160 H 0.06256 0.7382 0.07848 0.0
H3161 H 0.12681 0.74238 0.05281 0.0
H3162 H 0.05385 0.69248 0.06832 0.0
H3163 H 0.11835 0.69692 0.04357 0.0
H3164 H 0.10092 0.62088 0.07742 0.0
H3165 H 0.10923 0.66571 0.07865 0.0
H3166 H 0.05243 0.65383 0.02584 0.0
H3167 H 0.04591 0.60853 0.02242 0.0
C3168 C 0.07472 0.72946 0.07044 0.0
C3169 C 0.09545 0.74417 0.06657 0.0
C3170 C 0.0697 0.70325 0.06458 0.0
C3171 C 0.08548 0.69107 0.05527 0.0
C3172 C 0.10587 0.70572 0.05076 0.0
C3173 C 0.11066 0.73184 0.05602 0.0
C3174 C 0.09117 0.62761 0.0649 0.0
C3175 C 0.07386 0.61087 0.04856 0.0
C3176 C 0.09554 0.65341 0.06604 0.0
C3177 C 0.08162 0.66339 0.05221 0.0
C3178 C 0.0637 0.64676 0.03646 0.0
C3179 C 0.0601 0.62081 0.03437 0.0
H3180 H 0.09067 0.25978 0.90954 0.0
H3181 H 0.0782 0.31472 0.87039 0.0
H3182 H 0.12401 0.25786 0.88898 0.0
H3183 H 0.11073 0.31222 0.84952 0.0
H3184 H 0.1537 0.28451 0.79786 0.0
H3185 H 0.12097 0.27681 0.81935 0.0
H3186 H 0.16402 0.29161 0.88584 0.0
H3187 H 0.19707 0.29965 0.86411 0.0
C3188 C 0.09486 0.27119 0.89636 0.0
C3189 C 0.08167 0.28732 0.89148 0.0
C3190 C 0.11401 0.27019 0.88472 0.0
C3191 C 0.11993 0.28475 0.86746 0.0
C3192 C 0.10654 0.30058 0.86252 0.0
C3193 C 0.0879 0.30207 0.87454 0.0
C3194 C 0.1562 0.28524 0.81694 0.0
C3195 C 0.17797 0.29258 0.82923 0.0
C3196 C 0.13745 0.28105 0.8293 0.0
C3197 C 0.13986 0.28397 0.85434 0.0
C3198 C 0.1616 0.28917 0.86653 0.0
C3199 C 0.18053 0.2936 0.85409 0.0
H3200 H 0.60081 0.76599 0.90503 0.0
H3201 H 0.64366 0.80061 0.97118 0.0
H3202 H 0.58845 0.72777 0.92036 0.0
H3203 H 0.63166 0.7628 0.98652 0.0
H3204 H 0.60961 0.69401 0.0111 0.0
H3205 H 0.62824 0.71865 0.9841 0.0
H3206 H 0.56406 0.72337 0.95297 0.0
H3207 H 0.54535 0.69769 0.97949 0.0
C3208 C 0.6084 0.76484 0.92234 0.0
C3209 C 0.62321 0.78579 0.93706 0.0
C3210 C 0.60118 0.74321 0.93117 0.0
C3211 C 0.60901 0.74247 0.95463 0.0
C3212 C 0.62557 0.76273 0.96826 0.0
C3213 C 0.63247 0.78436 0.95958 0.0
C3214 C 0.59953 0.70012 0.99828 0.0
C3215 C 0.57618 0.69468 0.99765 0.0
C3216 C 0.61014 0.71402 0.98279 0.0
C3217 C 0.5976 0.72297 0.96663 0.0
C3218 C 0.57411 0.71649 0.96517 0.0
C3219 C 0.56344 0.7024 0.98065 0.0
H3220 H 0.07735 0.78402 0.67818 0.0
H3221 H 0.06496 0.7226 0.71534 0.0
H3222 H 0.11732 0.78581 0.6822 0.0
H3223 H 0.10435 0.72455 0.7194 0.0
H3224 H 0.16783 0.71834 0.72173 0.0
H3225 H 0.13473 0.71729 0.69517 0.0
H3226 H 0.14658 0.79695 0.71793 0.0
H3227 H 0.18012 0.79793 0.74354 0.0
C3228 C 0.08314 0.77097 0.68721 0.0
C3229 C 0.06807 0.7531 0.69642 0.0
C3230 C 0.10589 0.77184 0.68921 0.0
C3231 C 0.11373 0.75475 0.70029 0.0
C3232 C 0.09866 0.73728 0.70984 0.0
C3233 C 0.07611 0.73649 0.70796 0.0
C3234 C 0.16392 0.73567 0.71992 0.0
C3235 C 0.17577 0.75811 0.73483 0.0
C3236 C 0.14511 0.73514 0.70481 0.0
C3237 C 0.13776 0.7569 0.70539 0.0
C3238 C 0.15178 0.77989 0.71738 0.0
C3239 C 0.17082 0.78046 0.73216 0.0
H3240 H 0.13289 0.42394 0.39914 0.0
H3241 H 0.15581 0.41948 0.47082 0.0
H3242 H 0.12194 0.46168 0.41466 0.0
H3243 H 0.14563 0.45771 0.48647 0.0
H3244 H 0.0777 0.47378 0.49976 0.0
H3245 H 0.10404 0.45107 0.48448 0.0
H3246 H 0.12497 0.50403 0.43933 0.0
H3247 H 0.09842 0.52682 0.45463 0.0
C3248 C 0.13734 0.43226 0.41801 0.0
C3249 C 0.14476 0.41892 0.43398 0.0
C3250 C 0.13083 0.45371 0.42695 0.0
C3251 C 0.13223 0.46186 0.45178 0.0
C3252 C 0.14396 0.45129 0.46725 0.0
C3253 C 0.1502 0.42974 0.45832 0.0
C3254 C 0.08793 0.48055 0.48661 0.0
C3255 C 0.08618 0.502 0.47843 0.0
C3256 C 0.10322 0.46782 0.47811 0.0
C3257 C 0.11707 0.47645 0.46139 0.0
C3258 C 0.1147 0.49736 0.45251 0.0
C3259 C 0.09933 0.51009 0.46099 0.0
H3260 H 0.43143 0.22519 0.19397 0.0
H3261 H 0.46929 0.30091 0.22326 0.0
H3262 H 0.39837 0.23421 0.2095 0.0
H3263 H 0.43566 0.31002 0.23944 0.0
H3264 H 0.37418 0.28595 0.28838 0.0
H3265 H 0.41007 0.28861 0.27184 0.0
H3266 H 0.37451 0.26461 0.20035 0.0
H3267 H 0.33903 0.26163 0.21682 0.0
C3268 C 0.4326 0.24374 0.20398 0.0
C3269 C 0.45266 0.26236 0.20792 0.0
C3270 C 0.41374 0.24895 0.21257 0.0
C3271 C 0.41476 0.27278 0.2254 0.0
C3272 C 0.43481 0.29157 0.22946 0.0
C3273 C 0.45379 0.28642 0.22034 0.0
C3274 C 0.37435 0.28155 0.26918 0.0
C3275 C 0.35441 0.27366 0.25362 0.0
C3276 C 0.39463 0.28344 0.25979 0.0
C3277 C 0.39468 0.27696 0.23498 0.0
C3278 C 0.37463 0.26978 0.21954 0.0
C3279 C 0.35452 0.26781 0.22887 0.0
H3280 H 0.66376 0.50418 0.35572 0.0
H3281 H 0.61188 0.53605 0.33126 0.0
H3282 H 0.64902 0.50552 0.3949 0.0
H3283 H 0.59783 0.53782 0.3695 0.0
H3284 H 0.56252 0.52396 0.43449 0.0
H3285 H 0.57764 0.51898 0.39645 0.0
H3286 H 0.64317 0.52875 0.43356 0.0
H3287 H 0.62766 0.53379 0.47204 0.0
C3288 C 0.64918 0.51126 0.35831 0.0
C3289 C 0.63929 0.51981 0.33934 0.0
C3290 C 0.64069 0.5123 0.38119 0.0
C3291 C 0.62176 0.52174 0.38629 0.0
C3292 C 0.61196 0.52991 0.36712 0.0
C3293 C 0.62037 0.52898 0.34464 0.0
C3294 C 0.58008 0.52468 0.43486 0.0
C3295 C 0.59341 0.52901 0.45715 0.0
C3296 C 0.58908 0.52214 0.41257 0.0
C3297 C 0.61209 0.52346 0.41091 0.0
C3298 C 0.62544 0.52735 0.43325 0.0
C3299 C 0.61643 0.53038 0.45569 0.0
H3300 H 0.33167 0.86737 0.05744 0.0
H3301 H 0.33214 0.94205 0.09193 0.0
H3302 H 0.32145 0.8527 0.09367 0.0
H3303 H 0.32237 0.92758 0.12835 0.0
H3304 H 0.37199 0.8896 0.17325 0.0
H3305 H 0.35479 0.91226 0.14812 0.0
H3306 H 0.29617 0.85009 0.12902 0.0
H3307 H 0.31355 0.8272 0.15366 0.0
C3308 C 0.32901 0.88036 0.07265 0.0
C3309 C 0.33284 0.90563 0.07252 0.0
C3310 C 0.32266 0.87203 0.09307 0.0
C3311 C 0.32089 0.88918 0.1135 0.0
C3312 C 0.32314 0.91415 0.11256 0.0
C3313 C 0.32906 0.92235 0.09202 0.0
C3314 C 0.3553 0.88109 0.16396 0.0
C3315 C 0.34447 0.85646 0.16412 0.0
C3316 C 0.34514 0.89425 0.15031 0.0
C3317 C 0.3244 0.88245 0.13649 0.0
C3318 C 0.31218 0.85928 0.1396 0.0
C3319 C 0.32235 0.84611 0.15316 0.0
H3320 H 0.96298 0.50705 0.86041 0.0
H3321 H 0.98118 0.58615 0.8614 0.0
H3322 H 0.99495 0.51268 0.89013 0.0
H3323 H 0.01297 0.59159 0.8912 0.0
H3324 H 0.06607 0.58179 0.95194 0.0
H3325 H 0.04969 0.57504 0.91009 0.0
H3326 H 0.98478 0.5436 0.92999 0.0
H3327 H 1.00077 0.54929 0.97079 0.0
C3328 C 0.97436 0.52538 0.86622 0.0
C3329 C 0.96941 0.54633 0.85955 0.0
C3330 C 0.99273 0.52851 0.88283 0.0
C3331 C 0.00596 0.55257 0.89274 0.0
C3332 C 1.0029 0.57294 0.88348 0.0
C3333 C 0.9845 0.56985 0.86692 0.0
C3334 C 0.04848 0.57291 0.94712 0.0
C3335 C 0.03507 0.56412 0.96405 0.0
C3336 C 0.0392 0.56924 0.92343 0.0
C3337 C 0.0165 0.55732 0.91707 0.0
C3338 C 1.00268 0.55146 0.93454 0.0
C3339 C 0.01185 0.55503 0.95792 0.0
H3340 H 0.29126 0.28213 0.58668 0.0
H3341 H 0.32481 0.22389 0.5904 0.0
H3342 H 0.29323 0.29124 0.63012 0.0
H3343 H 0.32741 0.23353 0.63393 0.0
H3344 H 0.30221 0.23192 0.70555 0.0
H3345 H 0.3018 0.22679 0.66241 0.0
H3346 H 0.31475 0.30647 0.66885 0.0
H3347 H 0.31443 0.31136 0.71232 0.0
C3348 C 0.29943 0.27153 0.59677 0.0
C3349 C 0.30751 0.25194 0.58492 0.0
C3350 C 0.30063 0.27687 0.62178 0.0
C3351 C 0.30999 0.26278 0.63565 0.0
C3352 C 0.31945 0.24431 0.62385 0.0
C3353 C 0.3182 0.23893 0.59883 0.0
C3354 C 0.30455 0.24829 0.69766 0.0
C3355 C 0.30811 0.27197 0.71223 0.0
C3356 C 0.30469 0.24542 0.67295 0.0
C3357 C 0.30877 0.26623 0.66204 0.0
C3358 C 0.31152 0.28998 0.67656 0.0
C3359 C 0.31122 0.29283 0.70145 0.0
H3360 H 0.6106 0.53915 0.21069 0.0
H3361 H 0.65909 0.50349 0.18051 0.0
H3362 H 0.59699 0.54387 0.17185 0.0
H3363 H 0.6447 0.50721 0.1406 0.0
H3364 H 0.62435 0.52646 0.06885 0.0
H3365 H 0.63726 0.52029 0.1076 0.0
H3366 H 0.58065 0.54199 0.13598 0.0
H3367 H 0.5678 0.54805 0.09651 0.0
C3368 C 0.61842 0.53186 0.1957 0.0
C3369 C 0.63637 0.52084 0.19979 0.0
C3370 C 0.61027 0.53459 0.17268 0.0
C3371 C 0.61927 0.52632 0.15162 0.0
C3372 C 0.63695 0.51457 0.15554 0.0
C3373 C 0.64531 0.51202 0.17889 0.0
C3374 C 0.6145 0.53008 0.0833 0.0
C3375 C 0.59486 0.5381 0.07874 0.0
C3376 C 0.62203 0.52629 0.10612 0.0
C3377 C 0.61054 0.53033 0.12638 0.0
C3378 C 0.59075 0.53855 0.12182 0.0
C3379 C 0.58309 0.54218 0.09869 0.0
H3380 H 0.31739 0.90448 0.94836 0.0
H3381 H 0.38915 0.91422 0.95615 0.0
H3382 H 0.31371 0.87444 0.91156 0.0
H3383 H 0.38533 0.88295 0.92009 0.0
H3384 H 0.3689 0.84322 0.84166 0.0
H3385 H 0.37691 0.87215 0.87924 0.0
H3386 H 0.31559 0.83275 0.90157 0.0
H3387 H 0.30671 0.80493 0.86297 0.0
C3388 C 0.3324 0.9003 0.9421 0.0
C3389 C 0.35349 0.91094 0.95539 0.0
C3390 C 0.33025 0.88277 0.92128 0.0
C3391 C 0.34912 0.87553 0.91365 0.0
C3392 C 0.37044 0.88786 0.9258 0.0
C3393 C 0.37263 0.90571 0.94645 0.0
C3394 C 0.35715 0.84041 0.8546 0.0
C3395 C 0.33641 0.82258 0.84879 0.0
C3396 C 0.3619 0.85701 0.87631 0.0
C3397 C 0.34638 0.85535 0.89287 0.0
C3398 C 0.32727 0.83522 0.88849 0.0
C3399 C 0.32219 0.8191 0.86641 0.0
H3400 H 1.00426 0.53621 0.76242 0.0
H3401 H 0.93898 0.54829 0.74602 0.0
H3402 H 0.01361 0.54397 0.72316 0.0
H3403 H 0.94821 0.55538 0.70673 0.0
H3404 H 0.97823 0.50586 0.63848 0.0
H3405 H 0.95975 0.51798 0.67333 0.0
H3406 H 0.01479 0.58327 0.69777 0.0
H3407 H 0.03301 0.57135 0.66267 0.0
C3408 C 0.99218 0.54094 0.75062 0.0
C3409 C 0.97117 0.54207 0.75718 0.0
C3410 C 0.99752 0.54564 0.72844 0.0
C3411 C 0.98172 0.55097 0.71261 0.0
C3412 C 0.96072 0.55204 0.71911 0.0
C3413 C 0.95556 0.54791 0.74145 0.0
C3414 C 0.98575 0.5233 0.65086 0.0
C3415 C 0.00717 0.53734 0.64894 0.0
C3416 C 0.97514 0.53041 0.67045 0.0
C3417 C 0.98633 0.55116 0.68813 0.0
C3418 C 0.00614 0.56715 0.68419 0.0
C3419 C 0.01659 0.56022 0.66445 0.0
H3420 H 0.3236 0.21082 0.43995 0.0
H3421 H 0.30337 0.27917 0.45815 0.0
H3422 H 0.32967 0.21934 0.40004 0.0
H3423 H 0.30891 0.28733 0.41858 0.0
H3424 H 0.33345 0.30626 0.35232 0.0
H3425 H 0.33578 0.29804 0.39204 0.0
H3426 H 0.30668 0.21989 0.36334 0.0
H3427 H 0.30482 0.2283 0.32295 0.0
C3428 C 0.32078 0.22781 0.4356 0.0
C3429 C 0.31287 0.24423 0.45224 0.0
C3430 C 0.32403 0.23256 0.41265 0.0
C3431 C 0.31965 0.25394 0.40597 0.0
C3432 C 0.31272 0.27082 0.42306 0.0
C3433 C 0.30939 0.26604 0.44581 0.0
C3434 C 0.32785 0.28734 0.35406 0.0
C3435 C 0.31875 0.26822 0.33401 0.0
C3436 C 0.32905 0.28256 0.37716 0.0
C3437 C 0.32113 0.25833 0.38108 0.0
C3438 C 0.31304 0.23882 0.36105 0.0
C3439 C 0.31185 0.2437 0.33782 0.0
H3440 H 0.34551 0.61108 0.56356 0.0
H3441 H 0.3452 0.61627 0.489 0.0
H3442 H 0.37962 0.59647 0.56188 0.0
H3443 H 0.37918 0.60203 0.4875 0.0
H3444 H 0.44662 0.58959 0.494 0.0
H3445 H 0.42099 0.61481 0.50717 0.0
H3446 H 0.3827 0.55405 0.53542 0.0
H3447 H 0.40822 0.52879 0.52195 0.0
C3448 C 0.35294 0.60946 0.54699 0.0
C3449 C 0.34276 0.61444 0.52632 0.0
C3450 C 0.37237 0.60124 0.5461 0.0
C3451 C 0.3819 0.59847 0.52466 0.0
C3452 C 0.37223 0.60449 0.50433 0.0
C3453 C 0.35269 0.61228 0.5051 0.0
C3454 C 0.43288 0.58192 0.50337 0.0
C3455 C 0.42875 0.55729 0.50658 0.0
C3456 C 0.41845 0.59629 0.511 0.0
C3457 C 0.40003 0.58616 0.52214 0.0
C3458 C 0.39696 0.56217 0.52698 0.0
C3459 C 0.41121 0.54767 0.51902 0.0
H3460 H 0.87983 0.95278 0.51754 0.0
H3461 H 0.90682 0.92507 0.57564 0.0
H3462 H 0.91662 0.98126 0.51762 0.0
H3463 H 0.94316 0.95393 0.57649 0.0
H3464 H 0.00983 0.97794 0.54676 0.0
H3465 H 0.97204 0.95498 0.55079 0.0
H3466 H 0.94684 0.01713 0.53803 0.0
H3467 H 0.98478 0.0399 0.53385 0.0
C3468 C 0.89344 0.95344 0.53087 0.0
C3469 C 0.89054 0.93676 0.54658 0.0
C3470 C 0.91456 0.96967 0.53089 0.0
C3471 C 0.93308 0.96961 0.54679 0.0
C3472 C 0.92954 0.95406 0.56356 0.0
C3473 C 0.90864 0.93771 0.56329 0.0
C3474 C 0.99624 0.98678 0.54515 0.0
C3475 C 1.00036 1.01093 0.54058 0.0
C3476 C 0.97455 0.9737 0.54755 0.0
C3477 C 0.95628 0.98425 0.545 0.0
C3478 C 0.96043 1.00841 0.5402 0.0
C3479 C 0.98225 0.02165 0.53817 0.0
H3480 H 0.92717 0.16343 0.26334 0.0
H3481 H 0.87318 0.13211 0.30075 0.0
H3482 H 0.91029 0.19816 0.26014 0.0
H3483 H 0.85618 0.16595 0.29715 0.0
H3484 H 0.83217 0.23885 0.30112 0.0
H3485 H 0.84961 0.20479 0.3054 0.0
H3486 H 0.88584 0.21837 0.24565 0.0
H3487 H 0.86815 0.25152 0.24123 0.0
C3488 C 0.91165 0.16357 0.2708 0.0
C3489 C 0.90199 0.144 0.28232 0.0
C3490 C 0.90163 0.18385 0.26889 0.0
C3491 C 0.88122 0.18593 0.27829 0.0
C3492 C 0.87178 0.16628 0.28978 0.0
C3493 C 0.88176 0.14625 0.29172 0.0
C3494 C 0.84355 0.23443 0.2886 0.0
C3495 C 0.84796 0.24846 0.27043 0.0
C3496 C 0.8539 0.21454 0.29107 0.0
C3497 C 0.86976 0.20772 0.27593 0.0
C3498 C 0.87424 0.22218 0.25812 0.0
C3499 C 0.86369 0.24158 0.25543 0.0
H3500 H 0.72659 0.12496 0.00374 0.0
H3501 H 0.72345 0.07528 0.0534 0.0
H3502 H 0.68603 0.11667 0.99889 0.0
H3503 H 0.68245 0.06587 0.04748 0.0
H3504 H 0.60922 0.04718 0.00826 0.0
H3505 H 0.64838 0.05048 0.00818 0.0
H3506 H 0.66245 0.12879 0.03913 0.0
H3507 H 0.62204 0.12507 0.03979 0.0
C3508 C 0.71712 0.11103 0.01239 0.0
C3509 C 0.72786 0.10045 0.02877 0.0
C3510 C 0.69406 0.1068 0.01001 0.0
C3511 C 0.68168 0.0913 0.02339 0.0
C3512 C 0.69211 0.07822 0.03738 0.0
C3513 C 0.71532 0.08311 0.04038 0.0
C3514 C 0.62034 0.0648 0.01603 0.0
C3515 C 0.61254 0.08548 0.02525 0.0
C3516 C 0.64285 0.06677 0.01552 0.0
C3517 C 0.65804 0.08972 0.02381 0.0
C3518 C 0.65062 0.11085 0.03265 0.0
C3519 C 0.62778 0.10873 0.03323 0.0
H3520 H 0.21176 0.47248 0.23855 0.0
H3521 H 0.26796 0.53651 0.24644 0.0
H3522 H 0.23705 0.4468 0.24496 0.0
H3523 H 0.29374 0.51064 0.25091 0.0
H3524 H 0.3192 0.47586 0.31118 0.0
H3525 H 0.30032 0.49765 0.28682 0.0
H3526 H 0.26566 0.42756 0.24016 0.0
H3527 H 0.28227 0.40578 0.26608 0.0
C3528 C 0.22967 0.48064 0.24074 0.0
C3529 C 0.23826 0.50618 0.24311 0.0
C3530 C 0.24423 0.46602 0.24409 0.0
C3531 C 0.26743 0.47701 0.24935 0.0
C3532 C 0.27592 0.50199 0.24789 0.0
C3533 C 0.26131 0.51671 0.24533 0.0
C3534 C 0.30751 0.46521 0.29578 0.0
C3535 C 0.30243 0.43925 0.29052 0.0
C3536 C 0.29707 0.47765 0.28141 0.0
C3537 C 0.28166 0.46428 0.26133 0.0
C3538 C 0.27735 0.43836 0.25552 0.0
C3539 C 0.28716 0.42594 0.27029 0.0
H3540 H 0.28906 0.46848 0.0106 0.0
H3541 H 0.25252 0.4092 0.04192 0.0
H3542 H 0.25744 0.48684 0.01127 0.0
H3543 H 0.22059 0.42781 0.04264 0.0
H3544 H 0.16251 0.45485 1.00229 0.0
H3545 H 0.19233 0.4352 0.01232 0.0
H3546 H 0.23711 0.50792 0.03987 0.0
H3547 H 0.20751 0.52728 0.02926 0.0
C3548 C 0.2743 0.45943 0.01776 0.0
C3549 C 0.27334 0.43741 0.0262 0.0
C3550 C 0.25622 0.47009 0.01837 0.0
C3551 C 0.2366 0.45895 0.02729 0.0
C3552 C 0.23551 0.43685 0.03573 0.0
C3553 C 0.25381 0.42627 0.03537 0.0
C3554 C 0.17856 0.46645 0.01118 0.0
C3555 C 0.18296 0.49247 0.01491 0.0
C3556 C 0.19561 0.45528 0.01692 0.0
C3557 C 0.2172 0.47007 0.02639 0.0
C3558 C 0.22079 0.49607 0.0321 0.0
C3559 C 0.20387 0.50716 0.02623 0.0
H3560 H 0.88349 1.01181 0.28065 0.0
H3561 H 0.93347 0.97932 0.2493 0.0
H3562 H 0.86024 0.96967 0.2805 0.0
H3563 H 0.9106 0.93817 0.24851 0.0
H3564 H 0.87833 0.86585 0.26892 0.0
H3565 H 0.89885 0.90817 0.26952 0.0
H3566 H 0.8368 0.9296 0.26213 0.0
H3567 H 0.81615 0.88686 0.2624 0.0
C3568 C 0.88946 0.99585 0.27337 0.0
C3569 C 0.91068 0.99955 0.26505 0.0
C3570 C 0.87606 0.97142 0.2733 0.0
C3571 C 0.88333 0.94972 0.26489 0.0
C3572 C 0.90422 0.95374 0.25592 0.0
C3573 C 0.91746 0.97782 0.25611 0.0
C3574 C 0.86882 0.87936 0.2673 0.0
C3575 C 0.84521 0.87216 0.26537 0.0
C3576 C 0.88078 0.90407 0.26746 0.0
C3577 C 0.86988 0.92312 0.2655 0.0
C3578 C 0.84621 0.91601 0.26376 0.0
C3579 C 0.83417 0.89112 0.26367 0.0
H3580 H 0.74947 0.11821 0.71931 0.0
H3581 H 0.74192 0.11702 0.79355 0.0
H3582 H 0.77913 0.1566 0.73136 0.0
H3583 H 0.77193 0.15519 0.80559 0.0
H3584 H 0.75226 0.22895 0.78298 0.0
H3585 H 0.74867 0.18535 0.78354 0.0
H3586 H 0.81578 0.19204 0.76485 0.0
H3587 H 0.82023 0.23648 0.76717 0.0
C3588 C 0.75516 0.12539 0.73819 0.0
C3589 C 0.74319 0.11569 0.75564 0.0
C3590 C 0.77235 0.14704 0.74508 0.0
C3591 C 0.77719 0.15877 0.76931 0.0
C3592 C 0.76818 0.14629 0.78683 0.0
C3593 C 0.75081 0.12488 0.77996 0.0
C3594 C 0.76631 0.22122 0.77919 0.0
C3595 C 0.78612 0.23568 0.77355 0.0
C3596 C 0.76444 0.19648 0.77996 0.0
C3597 C 0.78212 0.18574 0.77442 0.0
C3598 C 0.80213 0.20021 0.7694 0.0
C3599 C 0.80434 0.22532 0.7698 0.0
loop_
_geom_bond_atom_site_label_1
_geom_bond_atom_site_label_2
_geom_bond_distance
_geom_bond_site_symmetry_2
_ccdc_geom_bond_type
Zn0 O3 2.031 . S
Zn0 O5 2.049 . S
Zn0 O10 2.067 . S
Zn1 O2 1.962 . S
Zn1 O4 1.986 . S
Zn1 O6 1.996 . S
Zn1 O9 1.943 . S
O2 Zn1 1.962 . S
O2 C7 1.254 . S
O3 Zn0 2.031 . S
O3 C7 1.269 . S
O4 Zn1 1.986 . S
O4 C11 1.262 . S
O5 Zn0 2.049 . S
O5 C13 1.260 . S
O6 Zn1 1.996 . S
O6 C13 1.257 . S
C7 O2 1.254 . S
C7 O3 1.269 . S
C8 O9 1.249 . S
C8 O10 1.270 . S
O9 Zn1 1.943 . S
O9 C8 1.249 . S
O10 Zn0 2.067 . S
O10 C8 1.270 . S
C11 O4 1.262 . S
C11 O12 1.232 . S
O12 C11 1.232 . S
C13 O5 1.260 . S
C13 O6 1.257 . S
Zn14 O17 2.031 1_455 S
Zn14 O19 2.049 . S
Zn14 O24 2.067 . S
Zn15 O16 1.940 1_455 S
Zn15 O18 1.995 . S
Zn15 O20 2.014 . S
Zn15 O23 1.948 1_455 S
O16 Zn15 1.940 1_655 S
O16 C21 1.254 . S
O17 Zn14 2.031 1_655 S
O17 C21 1.269 . S
O18 Zn15 1.995 . S
O18 C25 1.262 . S
O19 Zn14 2.049 . S
O19 C27 1.260 . S
O20 Zn15 2.014 . S
O20 C27 1.257 . S
C21 O16 1.254 . S
C21 O17 1.269 . S
C22 O23 1.249 . S
C22 O24 1.270 1_655 S
O23 Zn15 1.948 1_655 S
O23 C22 1.249 . S
O24 Zn14 2.067 . S
O24 C22 1.270 1_455 S
C25 O18 1.262 . S
C25 O26 1.232 1_455 S
O26 C25 1.232 1_655 S
C27 O19 1.260 . S
C27 O20 1.257 . S
Zn28 O31 2.031 . S
Zn28 O33 2.049 . S
Zn28 O38 2.067 . S
Zn29 O30 1.962 . S
Zn29 O32 1.986 . S
Zn29 O34 1.996 . S
Zn29 O37 1.943 . S
O30 Zn29 1.962 . S
O30 C35 1.254 . S
O31 Zn28 2.031 . S
O31 C35 1.269 . S
O32 Zn29 1.986 . S
O32 C39 1.262 . S
O33 Zn28 2.049 . S
O33 C41 1.260 . S
O34 Zn29 1.996 . S
O34 C41 1.257 . S
C35 O30 1.254 . S
C35 O31 1.269 . S
C36 O37 1.249 . S
C36 O38 1.270 . S
O37 Zn29 1.943 . S
O37 C36 1.249 . S
O38 Zn28 2.067 . S
O38 C36 1.270 . S
C39 O32 1.262 . S
C39 O40 1.232 . S
O40 C39 1.232 . S
C41 O33 1.260 . S
C41 O34 1.257 . S
Zn42 O45 2.031 . S
Zn42 O47 2.049 . S
Zn42 O52 2.067 . S
Zn43 O44 1.962 . S
Zn43 O46 1.986 . S
Zn43 O48 1.996 . S
Zn43 O51 1.943 . S
O44 Zn43 1.962 . S
O44 C49 1.254 . S
O45 Zn42 2.031 . S
O45 C49 1.269 . S
O46 Zn43 1.986 . S
O46 C53 1.262 . S
O47 Zn42 2.049 . S
O47 C55 1.260 . S
O48 Zn43 1.996 . S
O48 C55 1.257 . S
C49 O44 1.254 . S
C49 O45 1.269 . S
C50 O51 1.249 . S
C50 O52 1.270 . S
O51 Zn43 1.943 . S
O51 C50 1.249 . S
O52 Zn42 2.067 . S
O52 C50 1.270 . S
C53 O46 1.262 . S
C53 O54 1.232 . S
O54 C53 1.232 . S
C55 O47 1.260 . S
C55 O48 1.257 . S
Zn56 O59 2.031 . S
Zn56 O61 2.049 . S
Zn56 O66 2.067 . S
Zn57 O58 1.962 . S
Zn57 O60 1.986 . S
Zn57 O62 1.996 . S
Zn57 O65 1.943 . S
O58 Zn57 1.962 . S
O58 C63 1.254 . S
O59 Zn56 2.031 . S
O59 C63 1.269 . S
O60 Zn57 1.986 . S
O60 C67 1.262 . S
O61 Zn56 2.049 . S
O61 C69 1.260 . S
O62 Zn57 1.996 . S
O62 C69 1.257 . S
C63 O58 1.254 . S
C63 O59 1.269 . S
C64 O65 1.249 . S
C64 O66 1.270 . S
O65 Zn57 1.943 . S
O65 C64 1.249 . S
O66 Zn56 2.067 . S
O66 C64 1.270 . S
C67 O60 1.262 . S
C67 O68 1.232 . S
O68 C67 1.232 . S
C69 O61 1.260 . S
C69 O62 1.257 . S
Zn70 O73 2.031 . S
Zn70 O75 2.049 . S
Zn70 O80 2.067 . S
Zn71 O72 1.962 . S
Zn71 O74 1.986 . S
Zn71 O76 1.996 . S
Zn71 O79 1.943 . S
O72 Zn71 1.962 . S
O72 C77 1.254 . S
O73 Zn70 2.031 . S
O73 C77 1.269 . S
O74 Zn71 1.986 . S
O74 C81 1.262 . S
O75 Zn70 2.049 . S
O75 C83 1.260 . S
O76 Zn71 1.996 . S
O76 C83 1.257 . S
C77 O72 1.254 . S
C77 O73 1.269 . S
C78 O79 1.249 . S
C78 O80 1.270 . S
O79 Zn71 1.943 . S
O79 C78 1.249 . S
O80 Zn70 2.067 . S
O80 C78 1.270 . S
C81 O74 1.262 . S
C81 O82 1.232 . S
O82 C81 1.232 . S
C83 O75 1.260 . S
C83 O76 1.257 . S
Zn84 O87 2.031 . S
Zn84 O89 2.049 . S
Zn84 O94 2.067 . S
Zn85 O86 1.962 . S
Zn85 O88 1.986 . S
Zn85 O90 1.996 . S
Zn85 O93 1.943 . S
O86 Zn85 1.962 . S
O86 C91 1.254 . S
O87 Zn84 2.031 . S
O87 C91 1.269 . S
O88 Zn85 1.986 . S
O88 C95 1.262 . S
O89 Zn84 2.049 . S
O89 C97 1.260 . S
O90 Zn85 1.996 . S
O90 C97 1.257 . S
C91 O86 1.254 . S
C91 O87 1.269 . S
C92 O93 1.249 . S
C92 O94 1.270 . S
O93 Zn85 1.943 . S
O93 C92 1.249 . S
O94 Zn84 2.067 . S
O94 C92 1.270 . S
C95 O88 1.262 . S
C95 O96 1.232 . S
O96 C95 1.232 . S
C97 O89 1.260 . S
C97 O90 1.257 . S
Zn98 O101 2.031 1_655 S
Zn98 O103 2.049 . S
Zn98 O108 2.067 . S
Zn99 O100 1.962 . S
Zn99 O102 1.986 . S
Zn99 O104 1.996 . S
Zn99 O107 1.943 . S
O100 Zn99 1.962 . S
O100 C105 1.254 . S
O101 Zn98 2.031 1_455 S
O101 C105 1.269 . S
O102 Zn99 1.986 . S
O102 C109 1.262 . S
O103 Zn98 2.049 . S
O103 C111 1.260 1_655 S
O104 Zn99 1.996 . S
O104 C111 1.257 . S
C105 O100 1.254 . S
C105 O101 1.269 . S
C106 O107 1.249 1_655 S
C106 O108 1.270 . S
O107 Zn99 1.943 . S
O107 C106 1.249 1_455 S
O108 Zn98 2.067 . S
O108 C106 1.270 . S
C109 O102 1.262 . S
C109 O110 1.232 . S
O110 C109 1.232 . S
C111 O103 1.260 1_455 S
C111 O104 1.257 . S
Zn112 O115 2.031 1_565 S
Zn112 O117 2.049 . S
Zn112 O122 2.067 . S
Zn113 O114 1.962 . S
Zn113 O116 1.986 . S
Zn113 O118 1.996 . S
Zn113 O121 1.958 . S
O114 Zn113 1.962 . S
O114 C119 1.254 . S
O115 Zn112 2.031 1_545 S
O115 C119 1.269 . S
O116 Zn113 1.986 . S
O116 C123 1.262 . S
O117 Zn112 2.049 . S
O117 C125 1.260 1_565 S
O118 Zn113 1.996 . S
O118 C125 1.257 . S
C119 O114 1.254 . S
C119 O115 1.269 . S
C120 O121 1.228 1_565 S
C120 O122 1.270 . S
O121 Zn113 1.958 . S
O121 C120 1.228 1_545 S
O122 Zn112 2.067 . S
O122 C120 1.270 . S
C123 O116 1.262 . S
C123 O124 1.232 . S
O124 C123 1.232 . S
C125 O117 1.260 1_545 S
C125 O118 1.257 . S
Zn126 O129 2.031 . S
Zn126 O131 2.049 . S
Zn126 O136 2.067 . S
Zn127 O128 1.962 . S
Zn127 O130 1.986 . S
Zn127 O132 1.996 . S
Zn127 O135 1.943 . S
O128 Zn127 1.962 . S
O128 C133 1.254 . S
O129 Zn126 2.031 . S
O129 C133 1.269 . S
O130 Zn127 1.986 . S
O130 C137 1.262 . S
O131 Zn126 2.049 . S
O131 C139 1.260 . S
O132 Zn127 1.996 . S
O132 C139 1.257 . S
C133 O128 1.254 . S
C133 O129 1.269 . S
C134 O135 1.249 . S
C134 O136 1.270 . S
O135 Zn127 1.943 . S
O135 C134 1.249 . S
O136 Zn126 2.067 . S
O136 C134 1.270 . S
C137 O130 1.262 . S
C137 O138 1.232 . S
O138 C137 1.232 . S
C139 O131 1.260 . S
C139 O132 1.257 . S
Zn140 O143 2.031 . S
Zn140 O145 2.049 . S
Zn140 O150 2.067 . S
Zn141 O142 1.962 . S
Zn141 O144 1.986 . S
Zn141 O146 1.996 . S
Zn141 O149 1.943 1_565 S
O142 Zn141 1.962 . S
O142 C147 1.254 1_565 S
O143 Zn140 2.031 . S
O143 C147 1.269 . S
O144 Zn141 1.986 . S
O144 C151 1.262 . S
O145 Zn140 2.049 . S
O145 C153 1.260 1_545 S
O146 Zn141 1.996 . S
O146 C153 1.257 . S
C147 O142 1.254 1_545 S
C147 O143 1.269 . S
C148 O149 1.249 . S
C148 O150 1.270 . S
O149 Zn141 1.943 1_545 S
O149 C148 1.249 . S
O150 Zn140 2.067 . S
O150 C148 1.270 . S
C151 O144 1.262 . S
C151 O152 1.232 . S
O152 C151 1.232 . S
C153 O145 1.260 1_565 S
C153 O146 1.257 . S
Zn154 O157 2.031 1_554 S
Zn154 O159 2.049 . S
Zn154 O164 2.067 . S
Zn155 O156 1.962 1_554 S
Zn155 O158 1.986 . S
Zn155 O160 1.996 . S
Zn155 O163 1.943 . S
O156 Zn155 1.962 1_556 S
O156 C161 1.254 . S
O157 Zn154 2.031 1_556 S
O157 C161 1.269 . S
O158 Zn155 1.986 . S
O158 C165 1.262 . S
O159 Zn154 2.049 . S
O159 C167 1.260 . S
O160 Zn155 1.996 . S
O160 C167 1.257 . S
C161 O156 1.254 . S
C161 O157 1.269 . S
C162 O163 1.249 . S
C162 O164 1.270 . S
O163 Zn155 1.943 . S
O163 C162 1.249 . S
O164 Zn154 2.067 . S
O164 C162 1.270 . S
C165 O158 1.262 . S
C165 O166 1.232 1_554 S
O166 C165 1.232 1_556 S
C167 O159 1.260 . S
C167 O160 1.257 . S
Zn168 O171 2.031 . S
Zn168 O173 2.049 . S
Zn168 O178 2.067 . S
Zn169 O170 1.962 . S
Zn169 O172 1.986 . S
Zn169 O174 1.996 . S
Zn169 O177 1.943 . S
O170 Zn169 1.962 . S
O170 C175 1.254 1_554 S
O171 Zn168 2.031 . S
O171 C175 1.269 1_554 S
O172 Zn169 1.986 . S
O172 C179 1.262 . S
O173 Zn168 2.049 . S
O173 C181 1.260 . S
O174 Zn169 1.996 . S
O174 C181 1.257 . S
C175 O170 1.254 1_556 S
C175 O171 1.269 1_556 S
C176 O177 1.249 . S
C176 O178 1.270 . S
O177 Zn169 1.943 . S
O177 C176 1.249 . S
O178 Zn168 2.067 . S
O178 C176 1.270 . S
C179 O172 1.262 . S
C179 O180 1.232 . S
O180 C179 1.232 . S
C181 O173 1.260 . S
C181 O174 1.257 . S
Zn182 O185 2.031 . S
Zn182 O187 2.049 . S
Zn182 O192 2.067 . S
Zn183 O184 1.962 . S
Zn183 O186 1.986 . S
Zn183 O188 1.996 . S
Zn183 O191 1.943 . S
O184 Zn183 1.962 . S
O184 C189 1.254 1_554 S
O185 Zn182 2.031 . S
O185 C189 1.269 1_554 S
O186 Zn183 1.986 . S
O186 C193 1.262 . S
O187 Zn182 2.049 . S
O187 C195 1.260 . S
O188 Zn183 1.996 . S
O188 C195 1.257 . S
C189 O184 1.254 1_556 S
C189 O185 1.269 1_556 S
C190 O191 1.249 . S
C190 O192 1.270 . S
O191 Zn183 1.943 . S
O191 C190 1.249 . S
O192 Zn182 2.067 . S
O192 C190 1.270 . S
C193 O186 1.262 . S
C193 O194 1.232 . S
O194 C193 1.232 . S
C195 O187 1.260 . S
C195 O188 1.257 . S
Zn196 O199 2.031 . S
Zn196 O201 2.049 . S
Zn196 O206 2.067 . S
Zn197 O198 1.962 . S
Zn197 O200 1.986 . S
Zn197 O202 1.996 . S
Zn197 O205 1.943 . S
O198 Zn197 1.962 . S
O198 C203 1.254 . S
O199 Zn196 2.031 . S
O199 C203 1.269 . S
O200 Zn197 1.986 . S
O200 C207 1.262 . S
O201 Zn196 2.049 . S
O201 C209 1.260 . S
O202 Zn197 1.996 . S
O202 C209 1.257 . S
C203 O198 1.254 . S
C203 O199 1.269 . S
C204 O205 1.249 . S
C204 O206 1.270 . S
O205 Zn197 1.943 . S
O205 C204 1.249 . S
O206 Zn196 2.067 . S
O206 C204 1.270 . S
C207 O200 1.262 . S
C207 O208 1.232 . S
O208 C207 1.232 . S
C209 O201 1.260 . S
C209 O202 1.257 . S
Zn210 O213 2.031 . S
Zn210 O215 2.049 . S
Zn210 O220 2.067 . S
Zn211 O212 1.962 . S
Zn211 O214 1.986 . S
Zn211 O216 1.996 . S
Zn211 O219 1.943 . S
O212 Zn211 1.962 . S
O212 C217 1.254 . S
O213 Zn210 2.031 . S
O213 C217 1.269 . S
O214 Zn211 1.986 . S
O214 C221 1.262 . S
O215 Zn210 2.049 . S
O215 C223 1.260 . S
O216 Zn211 1.996 . S
O216 C223 1.257 . S
C217 O212 1.254 . S
C217 O213 1.269 . S
C218 O219 1.249 . S
C218 O220 1.270 . S
O219 Zn211 1.943 . S
O219 C218 1.249 . S
O220 Zn210 2.067 . S
O220 C218 1.270 . S
C221 O214 1.262 . S
C221 O222 1.232 . S
O222 C221 1.232 . S
C223 O215 1.260 . S
C223 O216 1.257 . S
Zn224 O227 2.031 . S
Zn224 O229 2.049 . S
Zn224 O234 2.067 . S
Zn225 O226 1.962 . S
Zn225 O228 1.986 . S
Zn225 O230 1.996 . S
Zn225 O233 1.943 . S
O226 Zn225 1.962 . S
O226 C231 1.254 . S
O227 Zn224 2.031 . S
O227 C231 1.269 . S
O228 Zn225 1.986 . S
O228 C235 1.262 . S
O229 Zn224 2.049 . S
O229 C237 1.260 . S
O230 Zn225 1.996 . S
O230 C237 1.257 . S
C231 O226 1.254 . S
C231 O227 1.269 . S
C232 O233 1.249 . S
C232 O234 1.270 . S
O233 Zn225 1.943 . S
O233 C232 1.249 . S
O234 Zn224 2.067 . S
O234 C232 1.270 . S
C235 O228 1.262 . S
C235 O236 1.232 . S
O236 C235 1.232 . S
C237 O229 1.260 . S
C237 O230 1.257 . S
Zn238 O241 2.031 . S
Zn238 O243 2.049 . S
Zn238 O248 2.067 . S
Zn239 O240 1.962 . S
Zn239 O242 1.986 . S
Zn239 O244 1.996 . S
Zn239 O247 1.943 . S
O240 Zn239 1.962 . S
O240 C245 1.254 . S
O241 Zn238 2.031 . S
O241 C245 1.269 . S
O242 Zn239 1.986 . S
O242 C249 1.262 . S
O243 Zn238 2.049 . S
O243 C251 1.260 . S
O244 Zn239 1.996 . S
O244 C251 1.257 . S
C245 O240 1.254 . S
C245 O241 1.269 . S
C246 O247 1.249 . S
C246 O248 1.270 . S
O247 Zn239 1.943 . S
O247 C246 1.249 . S
O248 Zn238 2.067 . S
O248 C246 1.270 . S
C249 O242 1.262 . S
C249 O250 1.232 . S
O250 C249 1.232 . S
C251 O243 1.260 . S
C251 O244 1.257 . S
Zn252 O255 2.031 . S
Zn252 O257 2.049 . S
Zn252 O262 2.067 . S
Zn253 O254 1.962 . S
Zn253 O256 1.986 . S
Zn253 O258 1.996 . S
Zn253 O261 1.943 . S
O254 Zn253 1.962 . S
O254 C259 1.254 . S
O255 Zn252 2.031 . S
O255 C259 1.269 . S
O256 Zn253 1.986 . S
O256 C263 1.262 . S
O257 Zn252 2.049 . S
O257 C265 1.260 . S
O258 Zn253 1.996 . S
O258 C265 1.257 . S
C259 O254 1.254 . S
C259 O255 1.269 . S
C260 O261 1.249 . S
C260 O262 1.270 . S
O261 Zn253 1.943 . S
O261 C260 1.249 . S
O262 Zn252 2.067 . S
O262 C260 1.270 . S
C263 O256 1.262 . S
C263 O264 1.232 . S
O264 C263 1.232 . S
C265 O257 1.260 . S
C265 O258 1.257 . S
Zn266 O269 2.031 . S
Zn266 O271 2.049 . S
Zn266 O276 2.067 . S
Zn267 O268 1.962 . S
Zn267 O270 1.986 . S
Zn267 O272 1.996 . S
Zn267 O275 1.943 . S
O268 Zn267 1.962 . S
O268 C273 1.254 . S
O269 Zn266 2.031 . S
O269 C273 1.269 . S
O270 Zn267 1.986 . S
O270 C277 1.262 . S
O271 Zn266 2.049 . S
O271 C279 1.260 . S
O272 Zn267 1.996 . S
O272 C279 1.257 . S
C273 O268 1.254 . S
C273 O269 1.269 . S
C274 O275 1.249 . S
C274 O276 1.270 . S
O275 Zn267 1.943 . S
O275 C274 1.249 . S
O276 Zn266 2.067 . S
O276 C274 1.270 . S
C277 O270 1.262 . S
C277 O278 1.232 . S
O278 C277 1.232 . S
C279 O271 1.260 . S
C279 O272 1.257 . S
Zn280 O283 2.031 1_554 S
Zn280 O285 2.049 . S
Zn280 O290 2.067 . S
Zn281 O282 1.989 . S
Zn281 O284 1.972 1_556 S
Zn281 O286 1.976 1_556 S
Zn281 O289 1.940 . S
O282 Zn281 1.989 . S
O282 C287 1.254 . S
O283 Zn280 2.031 1_556 S
O283 C287 1.269 . S
O284 Zn281 1.972 1_554 S
O284 C291 1.262 1_554 S
O285 Zn280 2.049 . S
O285 C293 1.260 . S
O286 Zn281 1.976 1_554 S
O286 C293 1.257 . S
C287 O282 1.254 . S
C287 O283 1.269 . S
C288 O289 1.249 . S
C288 O290 1.270 1_556 S
O289 Zn281 1.940 . S
O289 C288 1.249 . S
O290 Zn280 2.067 . S
O290 C288 1.270 1_554 S
C291 O284 1.262 1_556 S
C291 O292 1.232 . S
O292 C291 1.232 . S
C293 O285 1.260 . S
C293 O286 1.257 . S
Zn294 O297 2.031 . S
Zn294 O299 2.049 . S
Zn294 O304 2.067 . S
Zn295 O296 1.962 . S
Zn295 O298 1.986 . S
Zn295 O300 1.996 . S
Zn295 O303 1.943 . S
O296 Zn295 1.962 . S
O296 C301 1.254 . S
O297 Zn294 2.031 . S
O297 C301 1.269 . S
O298 Zn295 1.986 . S
O298 C305 1.262 . S
O299 Zn294 2.049 . S
O299 C307 1.260 . S
O300 Zn295 1.996 . S
O300 C307 1.257 . S
C301 O296 1.254 . S
C301 O297 1.269 . S
C302 O303 1.249 . S
C302 O304 1.270 . S
O303 Zn295 1.943 . S
O303 C302 1.249 . S
O304 Zn294 2.067 . S
O304 C302 1.270 . S
C305 O298 1.262 . S
C305 O306 1.232 . S
O306 C305 1.232 . S
C307 O299 1.260 . S
C307 O300 1.257 . S
Zn308 O311 2.031 . S
Zn308 O313 2.049 . S
Zn308 O318 2.067 . S
Zn309 O310 1.962 . S
Zn309 O312 1.986 . S
Zn309 O314 1.996 . S
Zn309 O317 1.943 . S
O310 Zn309 1.962 . S
O310 C315 1.254 . S
O311 Zn308 2.031 . S
O311 C315 1.269 . S
O312 Zn309 1.986 . S
O312 C319 1.262 . S
O313 Zn308 2.049 . S
O313 C321 1.260 . S
O314 Zn309 1.996 . S
O314 C321 1.257 . S
C315 O310 1.254 . S
C315 O311 1.269 . S
C316 O317 1.249 . S
C316 O318 1.270 . S
O317 Zn309 1.943 . S
O317 C316 1.249 . S
O318 Zn308 2.067 . S
O318 C316 1.270 . S
C319 O312 1.262 . S
C319 O320 1.232 . S
O320 C319 1.232 . S
C321 O313 1.260 . S
C321 O314 1.257 . S
Zn322 O325 2.031 . S
Zn322 O327 2.049 . S
Zn322 O332 2.067 . S
Zn323 O324 1.962 . S
Zn323 O326 1.986 . S
Zn323 O328 1.996 . S
Zn323 O331 1.943 . S
O324 Zn323 1.962 . S
O324 C329 1.254 . S
O325 Zn322 2.031 . S
O325 C329 1.269 . S
O326 Zn323 1.986 . S
O326 C333 1.262 . S
O327 Zn322 2.049 . S
O327 C335 1.260 . S
O328 Zn323 1.996 . S
O328 C335 1.257 . S
C329 O324 1.254 . S
C329 O325 1.269 . S
C330 O331 1.249 . S
C330 O332 1.270 . S
O331 Zn323 1.943 . S
O331 C330 1.249 . S
O332 Zn322 2.067 . S
O332 C330 1.270 . S
C333 O326 1.262 . S
C333 O334 1.232 . S
O334 C333 1.232 . S
C335 O327 1.260 . S
C335 O328 1.257 . S
Tb336 N367 2.660 1_545 S
Tb336 N374 2.600 1_544 S
Tb336 O380 2.546 1_454 S
Tb336 O381 2.610 . S
Tb336 O383 2.320 . S
Tb336 O384 2.552 . S
Tb336 O385 2.413 1_455 S
Tb336 O387 2.362 . S
Tb336 O388 2.421 1_554 S
Tb336 C400 2.833 1_454 S
C337 C340 1.432 . S
C337 C341 1.414 . S
C337 N344 1.359 . S
C338 C340 1.417 . S
C338 C342 1.432 . S
C338 C350 1.410 . S
C339 C341 1.444 . S
C339 C342 1.317 . S
C339 H362 0.929 . S
C340 C337 1.432 . S
C340 C338 1.417 . S
C340 N348 1.360 . S
C341 C337 1.414 . S
C341 C339 1.444 . S
C341 C346 1.385 . S
C342 C338 1.432 . S
C342 C339 1.317 . S
C342 H354 0.930 . S
C343 C345 1.392 . S
C343 C346 1.370 . S
C343 H355 0.931 . S
N344 C337 1.359 . S
N344 C345 1.327 . S
N344 Tb347 2.600 . S
C345 C343 1.392 . S
C345 N344 1.327 . S
C345 H352 0.930 . S
C346 C341 1.385 . S
C346 C343 1.370 . S
C346 H365 0.930 . S
Tb347 N344 2.600 . S
Tb347 N348 2.660 . S
Tb347 O381 2.362 . S
Tb347 O382 2.421 . S
Tb347 O386 2.546 . S
Tb347 O387 2.610 . S
Tb347 O389 2.320 1_554 S
Tb347 O390 2.552 . S
Tb347 O391 2.413 . S
Tb347 C411 2.833 . S
N348 C340 1.360 . S
N348 Tb347 2.660 . S
N348 C349 1.305 1_554 S
C349 N348 1.305 1_556 S
C349 C351 1.407 . S
C349 H356 0.930 . S
C350 C338 1.410 . S
C350 C351 1.345 1_554 S
C350 H358 0.930 1_554 S
C351 C349 1.407 . S
C351 C350 1.345 1_556 S
C351 H353 0.930 . S
H352 C345 0.930 . S
H353 C351 0.930 . S
H354 C342 0.930 . S
H355 C343 0.931 . S
H356 C349 0.930 . S
H357 C371 0.930 . S
H358 C350 0.930 1_556 S
H359 C377 0.930 . S
H360 C368 0.930 1_545 S
H361 C375 0.931 . S
H362 C339 0.929 . S
H363 C369 0.930 . S
H364 C402 0.937 . S
H365 C346 0.930 . S
H366 C401 0.929 . S
N367 Tb336 2.660 1_565 S
N367 C368 1.305 . S
N367 C372 1.360 . S
C368 H360 0.930 1_565 S
C368 N367 1.305 . S
C368 C371 1.407 . S
C369 H363 0.930 . S
C369 C370 1.410 . S
C369 C371 1.345 1_655 S
C370 C369 1.410 . S
C370 C372 1.417 1_655 S
C370 C402 1.438 . S
C371 H357 0.930 . S
C371 C368 1.407 . S
C371 C369 1.345 1_455 S
C372 N367 1.360 . S
C372 C370 1.417 1_455 S
C372 C376 1.432 1_554 S
H373 C378 0.930 . S
N374 Tb336 2.600 1_566 S
N374 C376 1.359 . S
N374 C377 1.327 . S
C375 H361 0.931 . S
C375 C377 1.390 1_655 S
C375 C378 1.373 . S
C376 C372 1.432 1_556 S
C376 N374 1.359 . S
C376 C379 1.414 1_455 S
C377 H359 0.930 . S
C377 N374 1.327 . S
C377 C375 1.390 1_455 S
C378 H373 0.930 . S
C378 C375 1.373 . S
C378 C379 1.385 . S
C379 C376 1.414 1_655 S
C379 C378 1.385 . S
C379 C401 1.444 . S
O380 Tb336 2.546 1_656 S
O380 C400 1.251 . S
O381 Tb336 2.610 . S
O381 Tb347 2.362 . S
O381 C392 1.283 . S
O382 Tb347 2.421 . S
O382 C399 1.262 . S
O383 Tb336 2.320 . S
O383 C399 1.260 . S
O384 Tb336 2.552 . S
O384 C392 1.243 . S
O385 Tb336 2.413 1_655 S
O385 C400 1.256 1_554 S
O386 Tb347 2.546 . S
O386 C411 1.251 . S
O387 Tb336 2.362 . S
O387 Tb347 2.610 . S
O387 C403 1.271 1_545 S
O388 Tb336 2.421 1_556 S
O388 C410 1.262 . S
O389 Tb347 2.320 1_556 S
O389 C410 1.260 . S
O390 Tb347 2.552 . S
O390 C403 1.242 1_545 S
O391 Tb347 2.413 . S
O391 C411 1.256 . S
C392 O381 1.283 . S
C392 O384 1.243 . S
C393 C395 1.382 1_556 S
C393 C397 1.393 . S
C393 C400 1.500 . S
C394 C395 1.402 . S
C394 C396 1.374 1_554 S
C395 C393 1.382 1_554 S
C395 C394 1.402 . S
C395 H412 0.930 . S
C396 C394 1.374 1_556 S
C396 C398 1.392 . S
C396 H413 0.931 . S
C397 C393 1.393 . S
C397 C398 1.401 . S
C397 H414 0.930 . S
C398 C396 1.392 . S
C398 C397 1.401 . S
C398 H415 0.930 . S
C399 O382 1.262 . S
C399 O383 1.260 . S
C400 Tb336 2.833 1_656 S
C400 O380 1.251 . S
C400 O385 1.256 1_556 S
C400 C393 1.500 . S
C401 H366 0.929 . S
C401 C379 1.444 . S
C401 C402 1.304 1_556 S
C402 H364 0.937 . S
C402 C370 1.438 . S
C402 C401 1.304 1_554 S
C403 O387 1.271 1_565 S
C403 O390 1.242 1_565 S
C404 C405 1.382 . S
C404 C408 1.393 . S
C404 C411 1.500 . S
C405 C404 1.382 . S
C405 C406 1.400 . S
C405 H416 0.930 . S
C406 C405 1.400 . S
C406 C407 1.384 . S
C407 C406 1.384 . S
C407 C409 1.392 . S
C407 H417 0.931 . S
C408 C404 1.393 . S
C408 C409 1.401 . S
C408 H418 0.930 . S
C409 C407 1.392 . S
C409 C408 1.401 . S
C409 H419 0.930 . S
C410 O388 1.262 . S
C410 O389 1.260 . S
C411 Tb347 2.833 . S
C411 O386 1.251 . S
C411 O391 1.256 . S
C411 C404 1.500 . S
H412 C395 0.930 . S
H413 C396 0.931 . S
H414 C397 0.930 . S
H415 C398 0.930 . S
H416 C405 0.930 . S
H417 C407 0.931 . S
H418 C408 0.930 . S
H419 C409 0.930 . S
Tb420 N451 2.660 . S
Tb420 N458 2.600 . S
Tb420 O464 2.546 . S
Tb420 O465 2.610 . S
Tb420 O467 2.320 . S
Tb420 O468 2.552 . S
Tb420 O469 2.413 . S
Tb420 O471 2.362 . S
Tb420 O472 2.421 . S
Tb420 C484 2.833 . S
C421 C424 1.432 . S
C421 C425 1.414 . S
C421 N428 1.359 . S
C422 C424 1.417 . S
C422 C426 1.432 . S
C422 C434 1.410 . S
C423 C425 1.444 . S
C423 C426 1.317 . S
C423 H446 0.929 . S
C424 C421 1.432 . S
C424 C422 1.417 . S
C424 N432 1.360 . S
C425 C421 1.414 . S
C425 C423 1.444 . S
C425 C430 1.385 . S
C426 C422 1.432 . S
C426 C423 1.317 . S
C426 H438 0.930 . S
C427 C429 1.392 . S
C427 C430 1.370 . S
C427 H439 0.931 . S
N428 C421 1.359 . S
N428 C429 1.327 . S
N428 Tb431 2.600 . S
C429 C427 1.392 . S
C429 N428 1.327 . S
C429 H436 0.930 . S
C430 C425 1.385 . S
C430 C427 1.370 . S
C430 H449 0.930 . S
Tb431 N428 2.600 . S
Tb431 N432 2.660 . S
Tb431 O465 2.362 . S
Tb431 O466 2.421 . S
Tb431 O470 2.546 . S
Tb431 O471 2.610 . S
Tb431 O473 2.320 . S
Tb431 O474 2.552 . S
Tb431 O475 2.413 . S
Tb431 C495 2.833 . S
N432 C424 1.360 . S
N432 Tb431 2.660 . S
N432 C433 1.305 . S
C433 N432 1.305 . S
C433 C435 1.407 . S
C433 H440 0.930 . S
C434 C422 1.410 . S
C434 C435 1.345 . S
C434 H442 0.930 . S
C435 C433 1.407 . S
C435 C434 1.345 . S
C435 H437 0.930 . S
H436 C429 0.930 . S
H437 C435 0.930 . S
H438 C426 0.930 . S
H439 C427 0.931 . S
H440 C433 0.930 . S
H441 C455 0.930 . S
H442 C434 0.930 . S
H443 C461 0.930 . S
H444 C452 0.930 . S
H445 C459 0.931 . S
H446 C423 0.929 . S
H447 C453 0.930 . S
H448 C486 0.930 . S
H449 C430 0.930 . S
H450 C485 0.929 . S
N451 Tb420 2.660 . S
N451 C452 1.305 . S
N451 C456 1.360 . S
C452 H444 0.930 . S
C452 N451 1.305 . S
C452 C455 1.407 . S
C453 H447 0.930 . S
C453 C454 1.410 . S
C453 C455 1.345 . S
C454 C453 1.410 . S
C454 C456 1.417 . S
C454 C486 1.432 . S
C455 H441 0.930 . S
C455 C452 1.407 . S
C455 C453 1.345 . S
C456 N451 1.360 . S
C456 C454 1.417 . S
C456 C460 1.432 . S
H457 C462 0.930 . S
N458 Tb420 2.600 . S
N458 C460 1.359 . S
N458 C461 1.327 . S
C459 H445 0.931 . S
C459 C461 1.392 . S
C459 C462 1.370 . S
C460 C456 1.432 . S
C460 N458 1.359 . S
C460 C463 1.414 . S
C461 H443 0.930 . S
C461 N458 1.327 . S
C461 C459 1.392 . S
C462 H457 0.930 . S
C462 C459 1.370 . S
C462 C463 1.385 . S
C463 C460 1.414 . S
C463 C462 1.385 . S
C463 C485 1.444 . S
O464 Tb420 2.546 . S
O464 C484 1.251 . S
O465 Tb420 2.610 . S
O465 Tb431 2.362 . S
O465 C476 1.283 . S
O466 Tb431 2.421 . S
O466 C483 1.262 . S
O467 Tb420 2.320 . S
O467 C483 1.260 . S
O468 Tb420 2.552 . S
O468 C476 1.243 . S
O469 Tb420 2.413 . S
O469 C484 1.256 . S
O470 Tb431 2.546 . S
O470 C495 1.251 . S
O471 Tb420 2.362 . S
O471 Tb431 2.610 . S
O471 C487 1.283 . S
O472 Tb420 2.421 . S
O472 C494 1.262 . S
O473 Tb431 2.320 . S
O473 C494 1.260 . S
O474 Tb431 2.552 . S
O474 C487 1.243 . S
O475 Tb431 2.413 . S
O475 C495 1.256 . S
C476 O465 1.283 . S
C476 O468 1.243 . S
C477 C479 1.382 . S
C477 C481 1.393 . S
C477 C484 1.500 . S
C478 C479 1.400 . S
C478 C480 1.384 . S
C479 C477 1.382 . S
C479 C478 1.400 . S
C479 H496 0.930 . S
C480 C478 1.384 . S
C480 C482 1.392 . S
C480 H497 0.931 . S
C481 C477 1.393 . S
C481 C482 1.401 . S
C481 H498 0.930 . S
C482 C480 1.392 . S
C482 C481 1.401 . S
C482 H499 0.930 . S
C483 O466 1.262 . S
C483 O467 1.260 . S
C484 Tb420 2.833 . S
C484 O464 1.251 . S
C484 O469 1.256 . S
C484 C477 1.500 . S
C485 H450 0.929 . S
C485 C463 1.444 . S
C485 C486 1.317 . S
C486 H448 0.930 . S
C486 C454 1.432 . S
C486 C485 1.317 . S
C487 O471 1.283 . S
C487 O474 1.243 . S
C488 C489 1.382 . S
C488 C492 1.393 . S
C488 C495 1.500 . S
C489 C488 1.382 . S
C489 C490 1.400 . S
C489 H500 0.930 . S
C490 C489 1.400 . S
C490 C491 1.384 . S
C491 C490 1.384 . S
C491 C493 1.392 . S
C491 H501 0.931 . S
C492 C488 1.393 . S
C492 C493 1.401 . S
C492 H502 0.930 . S
C493 C491 1.392 . S
C493 C492 1.401 . S
C493 H503 0.930 . S
C494 O472 1.262 . S
C494 O473 1.260 . S
C495 Tb431 2.833 . S
C495 O470 1.251 . S
C495 O475 1.256 . S
C495 C488 1.500 . S
H496 C479 0.930 . S
H497 C480 0.931 . S
H498 C481 0.930 . S
H499 C482 0.930 . S
H500 C489 0.930 . S
H501 C491 0.931 . S
H502 C492 0.930 . S
H503 C493 0.930 . S
Tb504 N535 2.660 . S
Tb504 N542 2.600 . S
Tb504 O548 2.546 . S
Tb504 O549 2.610 . S
Tb504 O551 2.320 . S
Tb504 O552 2.552 1_545 S
Tb504 O553 2.413 . S
Tb504 O555 2.362 . S
Tb504 O556 2.421 . S
Tb504 C568 2.833 . S
C505 C508 1.432 . S
C505 C509 1.414 . S
C505 N512 1.359 1_565 S
C506 C508 1.417 . S
C506 C510 1.432 . S
C506 C518 1.410 . S
C507 C509 1.444 . S
C507 C510 1.317 . S
C507 H530 0.929 . S
C508 C505 1.432 . S
C508 C506 1.417 . S
C508 N516 1.360 . S
C509 C505 1.414 . S
C509 C507 1.444 . S
C509 C514 1.385 . S
C510 C506 1.432 . S
C510 C507 1.317 . S
C510 H522 0.930 . S
C511 C513 1.392 1_565 S
C511 C514 1.370 . S
C511 H523 0.931 1_565 S
N512 C505 1.359 1_545 S
N512 C513 1.327 . S
N512 Tb515 2.600 . S
C513 C511 1.392 1_545 S
C513 N512 1.327 . S
C513 H520 0.930 . S
C514 C509 1.385 . S
C514 C511 1.370 . S
C514 H533 0.930 . S
Tb515 N512 2.600 . S
Tb515 N516 2.660 1_545 S
Tb515 O549 2.362 . S
Tb515 O550 2.421 . S
Tb515 O554 2.546 . S
Tb515 O555 2.610 . S
Tb515 O557 2.320 . S
Tb515 O558 2.552 . S
Tb515 O559 2.413 . S
Tb515 C579 2.833 . S
N516 C508 1.360 . S
N516 Tb515 2.660 1_565 S
N516 C517 1.305 . S
C517 N516 1.305 . S
C517 C519 1.407 . S
C517 H524 0.930 . S
C518 C506 1.410 . S
C518 C519 1.345 . S
C518 H526 0.930 . S
C519 C517 1.407 . S
C519 C518 1.345 . S
C519 H521 0.930 . S
H520 C513 0.930 . S
H521 C519 0.930 . S
H522 C510 0.930 . S
H523 C511 0.931 1_545 S
H524 C517 0.930 . S
H525 C539 0.930 . S
H526 C518 0.930 . S
H527 C545 0.930 . S
H528 C536 0.930 . S
H529 C543 0.931 . S
H530 C507 0.929 . S
H531 C537 0.930 . S
H532 C570 0.930 . S
H533 C514 0.930 . S
H534 C569 0.929 . S
N535 Tb504 2.660 . S
N535 C536 1.305 . S
N535 C540 1.360 . S
C536 H528 0.930 . S
C536 N535 1.305 . S
C536 C539 1.407 . S
C537 H531 0.930 . S
C537 C538 1.410 . S
C537 C539 1.345 . S
C538 C537 1.410 . S
C538 C540 1.417 . S
C538 C570 1.432 . S
C539 H525 0.930 . S
C539 C536 1.407 . S
C539 C537 1.345 . S
C540 N535 1.360 . S
C540 C538 1.417 . S
C540 C544 1.432 . S
H541 C546 0.930 . S
N542 Tb504 2.600 . S
N542 C544 1.359 . S
N542 C545 1.327 . S
C543 H529 0.931 . S
C543 C545 1.392 . S
C543 C546 1.370 . S
C544 C540 1.432 . S
C544 N542 1.359 . S
C544 C547 1.414 . S
C545 H527 0.930 . S
C545 N542 1.327 . S
C545 C543 1.392 . S
C546 H541 0.930 . S
C546 C543 1.370 . S
C546 C547 1.385 . S
C547 C544 1.414 . S
C547 C546 1.385 . S
C547 C569 1.444 . S
O548 Tb504 2.546 . S
O548 C568 1.251 . S
O549 Tb504 2.610 . S
O549 Tb515 2.362 . S
O549 C560 1.283 1_545 S
O550 Tb515 2.421 . S
O550 C567 1.262 . S
O551 Tb504 2.320 . S
O551 C567 1.260 . S
O552 Tb504 2.552 1_565 S
O552 C560 1.243 . S
O553 Tb504 2.413 . S
O553 C568 1.256 . S
O554 Tb515 2.546 . S
O554 C579 1.251 . S
O555 Tb504 2.362 . S
O555 Tb515 2.610 . S
O555 C571 1.283 . S
O556 Tb504 2.421 . S
O556 C578 1.262 . S
O557 Tb515 2.320 . S
O557 C578 1.260 . S
O558 Tb515 2.552 . S
O558 C571 1.243 . S
O559 Tb515 2.413 . S
O559 C579 1.256 . S
C560 O549 1.283 1_565 S
C560 O552 1.243 . S
C561 C563 1.382 1_545 S
C561 C565 1.393 . S
C561 C568 1.500 . S
C562 C563 1.400 . S
C562 C564 1.384 . S
C563 C561 1.382 1_565 S
C563 C562 1.400 . S
C563 H580 0.930 . S
C564 C562 1.384 . S
C564 C566 1.392 . S
C564 H581 0.931 . S
C565 C561 1.393 . S
C565 C566 1.401 1_545 S
C565 H582 0.930 . S
C566 C564 1.392 . S
C566 C565 1.401 1_565 S
C566 H583 0.930 . S
C567 O550 1.262 . S
C567 O551 1.260 . S
C568 Tb504 2.833 . S
C568 O548 1.251 . S
C568 O553 1.256 . S
C568 C561 1.500 . S
C569 H534 0.929 . S
C569 C547 1.444 . S
C569 C570 1.317 . S
C570 H532 0.930 . S
C570 C538 1.432 . S
C570 C569 1.317 . S
C571 O555 1.283 . S
C571 O558 1.243 . S
C572 C573 1.382 . S
C572 C576 1.393 . S
C572 C579 1.500 . S
C573 C572 1.382 . S
C573 C574 1.400 . S
C573 H584 0.930 . S
C574 C573 1.400 . S
C574 C575 1.384 . S
C575 C574 1.384 . S
C575 C577 1.392 . S
C575 H585 0.931 . S
C576 C572 1.393 . S
C576 C577 1.401 . S
C576 H586 0.930 . S
C577 C575 1.392 . S
C577 C576 1.401 . S
C577 H587 0.930 . S
C578 O556 1.262 . S
C578 O557 1.260 . S
C579 Tb515 2.833 . S
C579 O554 1.251 . S
C579 O559 1.256 . S
C579 C572 1.500 . S
H580 C563 0.930 . S
H581 C564 0.931 . S
H582 C565 0.930 . S
H583 C566 0.930 . S
H584 C573 0.930 . S
H585 C575 0.931 . S
H586 C576 0.930 . S
H587 C577 0.930 . S
Tb588 N619 2.660 . S
Tb588 N626 2.600 . S
Tb588 O632 2.546 . S
Tb588 O633 2.610 . S
Tb588 O635 2.320 . S
Tb588 O636 2.552 . S
Tb588 O637 2.413 . S
Tb588 O639 2.362 . S
Tb588 O640 2.421 . S
Tb588 C652 2.833 . S
C589 C592 1.432 . S
C589 C593 1.414 . S
C589 N596 1.359 . S
C590 C592 1.417 . S
C590 C594 1.432 . S
C590 C602 1.410 . S
C591 C593 1.444 . S
C591 C594 1.317 . S
C591 H614 0.929 . S
C592 C589 1.432 . S
C592 C590 1.417 . S
C592 N600 1.360 . S
C593 C589 1.414 . S
C593 C591 1.444 . S
C593 C598 1.385 . S
C594 C590 1.432 . S
C594 C591 1.317 . S
C594 H606 0.930 . S
C595 C597 1.392 . S
C595 C598 1.370 . S
C595 H607 0.931 . S
N596 C589 1.359 . S
N596 C597 1.327 . S
N596 Tb599 2.600 . S
C597 C595 1.392 . S
C597 N596 1.327 . S
C597 H604 0.930 . S
C598 C593 1.385 . S
C598 C595 1.370 . S
C598 H617 0.930 . S
Tb599 N596 2.600 . S
Tb599 N600 2.660 . S
Tb599 O633 2.362 . S
Tb599 O634 2.421 . S
Tb599 O638 2.546 . S
Tb599 O639 2.610 . S
Tb599 O641 2.320 . S
Tb599 O642 2.552 . S
Tb599 O643 2.413 . S
Tb599 C663 2.833 . S
N600 C592 1.360 . S
N600 Tb599 2.660 . S
N600 C601 1.305 . S
C601 N600 1.305 . S
C601 C603 1.407 . S
C601 H608 0.930 . S
C602 C590 1.410 . S
C602 C603 1.345 . S
C602 H610 0.930 . S
C603 C601 1.407 . S
C603 C602 1.345 . S
C603 H605 0.930 . S
H604 C597 0.930 . S
H605 C603 0.930 . S
H606 C594 0.930 . S
H607 C595 0.931 . S
H608 C601 0.930 . S
H609 C623 0.930 . S
H610 C602 0.930 . S
H611 C629 0.930 . S
H612 C620 0.930 . S
H613 C627 0.931 . S
H614 C591 0.929 . S
H615 C621 0.930 . S
H616 C654 0.930 . S
H617 C598 0.930 . S
H618 C653 0.929 . S
N619 Tb588 2.660 . S
N619 C620 1.305 . S
N619 C624 1.360 . S
C620 H612 0.930 . S
C620 N619 1.305 . S
C620 C623 1.407 . S
C621 H615 0.930 . S
C621 C622 1.410 . S
C621 C623 1.345 . S
C622 C621 1.410 . S
C622 C624 1.417 . S
C622 C654 1.432 . S
C623 H609 0.930 . S
C623 C620 1.407 . S
C623 C621 1.345 . S
C624 N619 1.360 . S
C624 C622 1.417 . S
C624 C628 1.432 . S
H625 C630 0.930 . S
N626 Tb588 2.600 . S
N626 C628 1.359 . S
N626 C629 1.327 . S
C627 H613 0.931 . S
C627 C629 1.392 . S
C627 C630 1.370 . S
C628 C624 1.432 . S
C628 N626 1.359 . S
C628 C631 1.414 . S
C629 H611 0.930 . S
C629 N626 1.327 . S
C629 C627 1.392 . S
C630 H625 0.930 . S
C630 C627 1.370 . S
C630 C631 1.385 . S
C631 C628 1.414 . S
C631 C630 1.385 . S
C631 C653 1.444 . S
O632 Tb588 2.546 . S
O632 C652 1.251 . S
O633 Tb588 2.610 . S
O633 Tb599 2.362 . S
O633 C644 1.283 . S
O634 Tb599 2.421 . S
O634 C651 1.262 . S
O635 Tb588 2.320 . S
O635 C651 1.260 . S
O636 Tb588 2.552 . S
O636 C644 1.243 . S
O637 Tb588 2.413 . S
O637 C652 1.256 . S
O638 Tb599 2.546 . S
O638 C663 1.251 . S
O639 Tb588 2.362 . S
O639 Tb599 2.610 . S
O639 C655 1.283 . S
O640 Tb588 2.421 . S
O640 C662 1.262 . S
O641 Tb599 2.320 . S
O641 C662 1.260 . S
O642 Tb599 2.552 . S
O642 C655 1.243 . S
O643 Tb599 2.413 . S
O643 C663 1.256 . S
C644 O633 1.283 . S
C644 O636 1.243 . S
C645 C647 1.382 . S
C645 C649 1.393 . S
C645 C652 1.500 . S
C646 C647 1.400 . S
C646 C648 1.384 . S
C647 C645 1.382 . S
C647 C646 1.400 . S
C647 H664 0.930 . S
C648 C646 1.384 . S
C648 C650 1.392 . S
C648 H665 0.931 . S
C649 C645 1.393 . S
C649 C650 1.401 . S
C649 H666 0.930 . S
C650 C648 1.392 . S
C650 C649 1.401 . S
C650 H667 0.930 . S
C651 O634 1.262 . S
C651 O635 1.260 . S
C652 Tb588 2.833 . S
C652 O632 1.251 . S
C652 O637 1.256 . S
C652 C645 1.500 . S
C653 H618 0.929 . S
C653 C631 1.444 . S
C653 C654 1.317 . S
C654 H616 0.930 . S
C654 C622 1.432 . S
C654 C653 1.317 . S
C655 O639 1.283 . S
C655 O642 1.243 . S
C656 C657 1.382 . S
C656 C660 1.393 . S
C656 C663 1.500 . S
C657 C656 1.382 . S
C657 C658 1.400 . S
C657 H668 0.930 . S
C658 C657 1.400 . S
C658 C659 1.384 . S
C659 C658 1.384 . S
C659 C661 1.392 . S
C659 H669 0.931 . S
C660 C656 1.393 . S
C660 C661 1.401 . S
C660 H670 0.930 . S
C661 C659 1.392 . S
C661 C660 1.401 . S
C661 H671 0.930 . S
C662 O640 1.262 . S
C662 O641 1.260 . S
C663 Tb599 2.833 . S
C663 O638 1.251 . S
C663 O643 1.256 . S
C663 C656 1.500 . S
H664 C647 0.930 . S
H665 C648 0.931 . S
H666 C649 0.930 . S
H667 C650 0.930 . S
H668 C657 0.930 . S
H669 C659 0.931 . S
H670 C660 0.930 . S
H671 C661 0.930 . S
Tb672 N703 2.660 . S
Tb672 N710 2.600 . S
Tb672 O716 2.546 . S
Tb672 O717 2.610 . S
Tb672 O719 2.320 . S
Tb672 O720 2.552 . S
Tb672 O721 2.413 . S
Tb672 O723 2.362 . S
Tb672 O724 2.421 . S
Tb672 C736 2.833 . S
C673 C676 1.432 . S
C673 C677 1.414 . S
C673 N680 1.359 . S
C674 C676 1.417 . S
C674 C678 1.432 . S
C674 C686 1.410 . S
C675 C677 1.444 . S
C675 C678 1.317 . S
C675 H698 0.929 . S
C676 C673 1.432 . S
C676 C674 1.417 . S
C676 N684 1.360 . S
C677 C673 1.414 . S
C677 C675 1.444 . S
C677 C682 1.385 . S
C678 C674 1.432 . S
C678 C675 1.317 . S
C678 H690 0.930 . S
C679 C681 1.392 . S
C679 C682 1.370 . S
C679 H691 0.931 . S
N680 C673 1.359 . S
N680 C681 1.327 . S
N680 Tb683 2.600 1_565 S
C681 C679 1.392 . S
C681 N680 1.327 . S
C681 H688 0.936 . S
C682 C677 1.385 . S
C682 C679 1.370 . S
C682 H701 0.930 . S
Tb683 N680 2.600 1_545 S
Tb683 N684 2.660 1_545 S
Tb683 O717 2.362 . S
Tb683 O718 2.421 . S
Tb683 O722 2.546 1_545 S
Tb683 O723 2.610 . S
Tb683 O725 2.320 . S
Tb683 O726 2.552 . S
Tb683 O727 2.413 1_545 S
Tb683 C747 2.833 1_545 S
N684 C676 1.360 . S
N684 Tb683 2.660 1_565 S
N684 C685 1.305 . S
C685 N684 1.305 . S
C685 C687 1.399 1_455 S
C685 H692 0.930 . S
C686 C674 1.410 . S
C686 C687 1.336 1_455 S
C686 H694 0.930 1_455 S
C687 C685 1.399 1_655 S
C687 C686 1.336 1_655 S
C687 H689 0.947 . S
H688 C681 0.936 . S
H689 C687 0.947 . S
H690 C678 0.930 . S
H691 C679 0.931 . S
H692 C685 0.930 . S
H693 C707 0.930 . S
H694 C686 0.930 1_655 S
H695 C713 0.930 . S
H696 C704 0.930 . S
H697 C711 0.931 1_655 S
H698 C675 0.929 . S
H699 C705 0.930 . S
H700 C738 0.930 . S
H701 C682 0.930 . S
H702 C737 0.929 . S
N703 Tb672 2.660 . S
N703 C704 1.305 . S
N703 C708 1.360 . S
C704 H696 0.930 . S
C704 N703 1.305 . S
C704 C707 1.407 . S
C705 H699 0.930 . S
C705 C706 1.410 . S
C705 C707 1.345 . S
C706 C705 1.410 . S
C706 C708 1.417 . S
C706 C738 1.432 . S
C707 H693 0.930 . S
C707 C704 1.407 . S
C707 C705 1.345 . S
C708 N703 1.360 . S
C708 C706 1.417 . S
C708 C712 1.432 . S
H709 C714 0.930 . S
N710 Tb672 2.600 . S
N710 C712 1.359 . S
N710 C713 1.327 . S
C711 H697 0.931 1_455 S
C711 C713 1.392 . S
C711 C714 1.370 . S
C712 C708 1.432 . S
C712 N710 1.359 . S
C712 C715 1.414 . S
C713 H695 0.930 . S
C713 N710 1.327 . S
C713 C711 1.392 . S
C714 H709 0.930 . S
C714 C711 1.370 . S
C714 C715 1.385 . S
C715 C712 1.414 . S
C715 C714 1.385 . S
C715 C737 1.444 . S
O716 Tb672 2.546 . S
O716 C736 1.251 . S
O717 Tb672 2.610 . S
O717 Tb683 2.362 . S
O717 C728 1.283 . S
O718 Tb683 2.421 . S
O718 C735 1.262 . S
O719 Tb672 2.320 . S
O719 C735 1.260 . S
O720 Tb672 2.552 . S
O720 C728 1.243 . S
O721 Tb672 2.413 . S
O721 C736 1.256 . S
O722 Tb683 2.546 1_565 S
O722 C747 1.251 . S
O723 Tb672 2.362 . S
O723 Tb683 2.610 . S
O723 C739 1.283 . S
O724 Tb672 2.421 . S
O724 C746 1.262 . S
O725 Tb683 2.320 . S
O725 C746 1.260 . S
O726 Tb683 2.552 . S
O726 C739 1.243 . S
O727 Tb683 2.413 1_565 S
O727 C747 1.256 . S
C728 O717 1.283 . S
C728 O720 1.243 . S
C729 C731 1.382 . S
C729 C733 1.393 . S
C729 C736 1.500 . S
C730 C731 1.400 . S
C730 C732 1.384 . S
C731 C729 1.382 . S
C731 C730 1.400 . S
C731 H748 0.930 . S
C732 C730 1.384 . S
C732 C734 1.392 . S
C732 H749 0.931 . S
C733 C729 1.393 . S
C733 C734 1.401 . S
C733 H750 0.930 . S
C734 C732 1.392 . S
C734 C733 1.401 . S
C734 H751 0.930 . S
C735 O718 1.262 . S
C735 O719 1.260 . S
C736 Tb672 2.833 . S
C736 O716 1.251 . S
C736 O721 1.256 . S
C736 C729 1.500 . S
C737 H702 0.929 . S
C737 C715 1.444 . S
C737 C738 1.317 . S
C738 H700 0.930 . S
C738 C706 1.432 . S
C738 C737 1.317 . S
C739 O723 1.283 . S
C739 O726 1.243 . S
C740 C741 1.382 . S
C740 C744 1.393 . S
C740 C747 1.500 . S
C741 C740 1.382 . S
C741 C742 1.400 . S
C741 H752 0.930 . S
C742 C741 1.400 . S
C742 C743 1.384 . S
C743 C742 1.384 . S
C743 C745 1.392 . S
C743 H753 0.931 . S
C744 C740 1.393 . S
C744 C745 1.401 . S
C744 H754 0.930 . S
C745 C743 1.392 . S
C745 C744 1.401 . S
C745 H755 0.930 . S
C746 O724 1.262 . S
C746 O725 1.260 . S
C747 Tb683 2.833 1_565 S
C747 O722 1.251 . S
C747 O727 1.256 . S
C747 C740 1.500 . S
H748 C731 0.930 . S
H749 C732 0.931 . S
H750 C733 0.930 . S
H751 C734 0.930 . S
H752 C741 0.930 . S
H753 C743 0.931 . S
H754 C744 0.930 . S
H755 C745 0.930 . S
Tb756 N787 2.660 . S
Tb756 N794 2.600 . S
Tb756 O800 2.546 . S
Tb756 O801 2.610 . S
Tb756 O803 2.320 . S
Tb756 O804 2.552 . S
Tb756 O805 2.413 . S
Tb756 O807 2.362 . S
Tb756 O808 2.421 . S
Tb756 C820 2.833 . S
C757 C760 1.432 . S
C757 C761 1.414 . S
C757 N764 1.359 . S
C758 C760 1.417 . S
C758 C762 1.432 . S
C758 C770 1.410 . S
C759 C761 1.444 . S
C759 C762 1.317 . S
C759 H782 0.929 . S
C760 C757 1.432 . S
C760 C758 1.417 . S
C760 N768 1.360 . S
C761 C757 1.414 . S
C761 C759 1.444 . S
C761 C766 1.385 . S
C762 C758 1.432 . S
C762 C759 1.317 . S
C762 H774 0.930 . S
C763 C765 1.392 . S
C763 C766 1.370 . S
C763 H775 0.931 . S
N764 C757 1.359 . S
N764 C765 1.327 . S
N764 Tb767 2.600 . S
C765 C763 1.392 . S
C765 N764 1.327 . S
C765 H772 0.930 . S
C766 C761 1.385 . S
C766 C763 1.370 . S
C766 H785 0.930 . S
Tb767 N764 2.600 . S
Tb767 N768 2.660 . S
Tb767 O801 2.362 . S
Tb767 O802 2.421 . S
Tb767 O806 2.546 . S
Tb767 O807 2.610 . S
Tb767 O809 2.320 . S
Tb767 O810 2.552 . S
Tb767 O811 2.413 . S
Tb767 C831 2.833 . S
N768 C760 1.360 . S
N768 Tb767 2.660 . S
N768 C769 1.305 . S
C769 N768 1.305 . S
C769 C771 1.407 . S
C769 H776 0.930 . S
C770 C758 1.410 . S
C770 C771 1.345 . S
C770 H778 0.930 . S
C771 C769 1.407 . S
C771 C770 1.345 . S
C771 H773 0.930 . S
H772 C765 0.930 . S
H773 C771 0.930 . S
H774 C762 0.930 . S
H775 C763 0.931 . S
H776 C769 0.930 . S
H777 C791 0.930 . S
H778 C770 0.930 . S
H779 C797 0.930 . S
H780 C788 0.930 . S
H781 C795 0.931 . S
H782 C759 0.929 . S
H783 C789 0.930 . S
H784 C822 0.930 . S
H785 C766 0.930 . S
H786 C821 0.929 . S
N787 Tb756 2.660 . S
N787 C788 1.305 . S
N787 C792 1.360 . S
C788 H780 0.930 . S
C788 N787 1.305 . S
C788 C791 1.407 . S
C789 H783 0.930 . S
C789 C790 1.410 . S
C789 C791 1.345 . S
C790 C789 1.410 . S
C790 C792 1.417 . S
C790 C822 1.432 . S
C791 H777 0.930 . S
C791 C788 1.407 . S
C791 C789 1.345 . S
C792 N787 1.360 . S
C792 C790 1.417 . S
C792 C796 1.432 . S
H793 C798 0.930 . S
N794 Tb756 2.600 . S
N794 C796 1.359 . S
N794 C797 1.327 . S
C795 H781 0.931 . S
C795 C797 1.392 . S
C795 C798 1.370 . S
C796 C792 1.432 . S
C796 N794 1.359 . S
C796 C799 1.414 . S
C797 H779 0.930 . S
C797 N794 1.327 . S
C797 C795 1.392 . S
C798 H793 0.930 . S
C798 C795 1.370 . S
C798 C799 1.385 . S
C799 C796 1.414 . S
C799 C798 1.385 . S
C799 C821 1.444 . S
O800 Tb756 2.546 . S
O800 C820 1.251 . S
O801 Tb756 2.610 . S
O801 Tb767 2.362 . S
O801 C812 1.283 . S
O802 Tb767 2.421 . S
O802 C819 1.262 . S
O803 Tb756 2.320 . S
O803 C819 1.260 . S
O804 Tb756 2.552 . S
O804 C812 1.243 . S
O805 Tb756 2.413 . S
O805 C820 1.256 . S
O806 Tb767 2.546 . S
O806 C831 1.251 . S
O807 Tb756 2.362 . S
O807 Tb767 2.610 . S
O807 C823 1.283 . S
O808 Tb756 2.421 . S
O808 C830 1.262 . S
O809 Tb767 2.320 . S
O809 C830 1.260 . S
O810 Tb767 2.552 . S
O810 C823 1.243 . S
O811 Tb767 2.413 . S
O811 C831 1.256 . S
C812 O801 1.283 . S
C812 O804 1.243 . S
C813 C815 1.382 . S
C813 C817 1.393 . S
C813 C820 1.500 . S
C814 C815 1.400 . S
C814 C816 1.384 . S
C815 C813 1.382 . S
C815 C814 1.400 . S
C815 H832 0.930 . S
C816 C814 1.384 . S
C816 C818 1.392 . S
C816 H833 0.931 . S
C817 C813 1.393 . S
C817 C818 1.401 . S
C817 H834 0.930 . S
C818 C816 1.392 . S
C818 C817 1.401 . S
C818 H835 0.930 . S
C819 O802 1.262 . S
C819 O803 1.260 . S
C820 Tb756 2.833 . S
C820 O800 1.251 . S
C820 O805 1.256 . S
C820 C813 1.500 . S
C821 H786 0.929 . S
C821 C799 1.444 . S
C821 C822 1.317 . S
C822 H784 0.930 . S
C822 C790 1.432 . S
C822 C821 1.317 . S
C823 O807 1.283 . S
C823 O810 1.243 . S
C824 C825 1.382 . S
C824 C828 1.393 . S
C824 C831 1.500 . S
C825 C824 1.382 . S
C825 C826 1.400 . S
C825 H836 0.930 . S
C826 C825 1.400 . S
C826 C827 1.384 . S
C827 C826 1.384 . S
C827 C829 1.392 . S
C827 H837 0.931 . S
C828 C824 1.393 . S
C828 C829 1.401 . S
C828 H838 0.930 . S
C829 C827 1.392 . S
C829 C828 1.401 . S
C829 H839 0.930 . S
C830 O808 1.262 . S
C830 O809 1.260 . S
C831 Tb767 2.833 . S
C831 O806 1.251 . S
C831 O811 1.256 . S
C831 C824 1.500 . S
H832 C815 0.930 . S
H833 C816 0.931 . S
H834 C817 0.930 . S
H835 C818 0.930 . S
H836 C825 0.930 . S
H837 C827 0.931 . S
H838 C828 0.930 . S
H839 C829 0.930 . S
Tb840 N871 2.660 . S
Tb840 N878 2.600 . S
Tb840 O884 2.546 . S
Tb840 O885 2.610 . S
Tb840 O887 2.320 . S
Tb840 O888 2.552 . S
Tb840 O889 2.413 . S
Tb840 O891 2.362 . S
Tb840 O892 2.393 1_545 S
Tb840 C904 2.833 . S
C841 C844 1.432 . S
C841 C845 1.414 . S
C841 N848 1.359 . S
C842 C844 1.417 . S
C842 C846 1.432 . S
C842 C854 1.410 1_545 S
C843 C845 1.444 . S
C843 C846 1.317 . S
C843 H866 0.929 . S
C844 C841 1.432 . S
C844 C842 1.417 . S
C844 N852 1.360 . S
C845 C841 1.414 . S
C845 C843 1.444 . S
C845 C850 1.385 . S
C846 C842 1.432 . S
C846 C843 1.317 . S
C846 H858 0.930 . S
C847 C849 1.392 . S
C847 C850 1.370 . S
C847 H859 0.931 . S
N848 C841 1.359 . S
N848 C849 1.327 . S
N848 Tb851 2.600 . S
C849 C847 1.392 . S
C849 N848 1.327 . S
C849 H856 0.930 . S
C850 C845 1.385 . S
C850 C847 1.370 . S
C850 H869 0.930 . S
Tb851 N848 2.600 . S
Tb851 N852 2.660 . S
Tb851 O885 2.362 1_556 S
Tb851 O886 2.421 1_556 S
Tb851 O890 2.546 . S
Tb851 O891 2.610 1_556 S
Tb851 O893 2.320 . S
Tb851 O894 2.552 . S
Tb851 O895 2.413 . S
Tb851 C915 2.833 . S
N852 C844 1.360 . S
N852 Tb851 2.660 . S
N852 C853 1.305 1_545 S
C853 N852 1.305 1_565 S
C853 C855 1.407 . S
C853 H860 0.930 . S
C854 C842 1.410 1_565 S
C854 C855 1.345 . S
C854 H862 0.930 . S
C855 C853 1.407 . S
C855 C854 1.345 . S
C855 H857 0.930 . S
H856 C849 0.930 . S
H857 C855 0.930 . S
H858 C846 0.930 . S
H859 C847 0.931 . S
H860 C853 0.930 . S
H861 C875 0.930 . S
H862 C854 0.930 . S
H863 C881 0.930 . S
H864 C872 0.930 . S
H865 C879 0.931 . S
H866 C843 0.929 . S
H867 C873 0.930 . S
H868 C906 0.930 . S
H869 C850 0.930 . S
H870 C905 0.929 . S
N871 Tb840 2.660 . S
N871 C872 1.305 . S
N871 C876 1.360 . S
C872 H864 0.930 . S
C872 N871 1.305 . S
C872 C875 1.407 . S
C873 H867 0.930 . S
C873 C874 1.410 . S
C873 C875 1.345 . S
C874 C873 1.410 . S
C874 C876 1.417 . S
C874 C906 1.432 . S
C875 H861 0.930 . S
C875 C872 1.407 . S
C875 C873 1.345 . S
C876 N871 1.360 . S
C876 C874 1.417 . S
C876 C880 1.432 . S
H877 C882 0.930 . S
N878 Tb840 2.600 . S
N878 C880 1.359 . S
N878 C881 1.327 1_545 S
C879 H865 0.931 . S
C879 C881 1.392 . S
C879 C882 1.370 . S
C880 C876 1.432 . S
C880 N878 1.359 . S
C880 C883 1.414 . S
C881 H863 0.930 . S
C881 N878 1.327 1_565 S
C881 C879 1.392 . S
C882 H877 0.930 . S
C882 C879 1.370 . S
C882 C883 1.385 1_565 S
C883 C880 1.414 . S
C883 C882 1.385 1_545 S
C883 C905 1.444 . S
O884 Tb840 2.546 . S
O884 C904 1.251 . S
O885 Tb840 2.610 . S
O885 Tb851 2.362 1_554 S
O885 C896 1.283 . S
O886 Tb851 2.421 1_554 S
O886 C903 1.262 . S
O887 Tb840 2.320 . S
O887 C903 1.260 . S
O888 Tb840 2.552 . S
O888 C896 1.243 . S
O889 Tb840 2.413 . S
O889 C904 1.256 . S
O890 Tb851 2.546 . S
O890 C915 1.251 . S
O891 Tb840 2.362 . S
O891 Tb851 2.610 1_554 S
O891 C907 1.283 . S
O892 Tb840 2.393 1_565 S
O892 C914 1.245 1_564 S
O893 Tb851 2.320 . S
O893 C914 1.301 . S
O894 Tb851 2.552 . S
O894 C907 1.243 1_556 S
O895 Tb851 2.413 . S
O895 C915 1.256 . S
C896 O885 1.283 . S
C896 O888 1.243 . S
C897 C899 1.382 . S
C897 C901 1.393 1_545 S
C897 C904 1.500 . S
C898 C899 1.400 . S
C898 C900 1.388 1_545 S
C899 C897 1.382 . S
C899 C898 1.400 . S
C899 H916 0.930 . S
C900 C898 1.388 1_565 S
C900 C902 1.389 . S
C900 H917 0.930 . S
C901 C897 1.393 1_565 S
C901 C902 1.401 . S
C901 H918 0.930 . S
C902 C900 1.389 . S
C902 C901 1.401 . S
C902 H919 0.930 . S
C903 O886 1.262 . S
C903 O887 1.260 . S
C904 Tb840 2.833 . S
C904 O884 1.251 . S
C904 O889 1.256 . S
C904 C897 1.500 . S
C905 H870 0.929 . S
C905 C883 1.444 . S
C905 C906 1.317 . S
C906 H868 0.930 . S
C906 C874 1.432 . S
C906 C905 1.317 . S
C907 O891 1.283 . S
C907 O894 1.243 1_554 S
C908 C909 1.382 . S
C908 C912 1.393 . S
C908 C915 1.500 . S
C909 C908 1.382 . S
C909 C910 1.400 . S
C909 H920 0.930 . S
C910 C909 1.400 . S
C910 C911 1.384 . S
C911 C910 1.384 . S
C911 C913 1.392 . S
C911 H921 0.931 . S
C912 C908 1.393 . S
C912 C913 1.401 . S
C912 H922 0.930 . S
C913 C911 1.392 . S
C913 C912 1.401 . S
C913 H923 0.930 . S
C914 O892 1.245 1_546 S
C914 O893 1.301 . S
C915 Tb851 2.833 . S
C915 O890 1.251 . S
C915 O895 1.256 . S
C915 C908 1.500 . S
H916 C899 0.930 . S
H917 C900 0.930 . S
H918 C901 0.930 . S
H919 C902 0.930 . S
H920 C909 0.930 . S
H921 C911 0.931 . S
H922 C912 0.930 . S
H923 C913 0.930 . S
Tb924 N955 2.660 . S
Tb924 N962 2.600 . S
Tb924 O968 2.546 . S
Tb924 O969 2.610 . S
Tb924 O971 2.320 . S
Tb924 O972 2.552 . S
Tb924 O973 2.413 . S
Tb924 O975 2.362 . S
Tb924 O976 2.421 . S
Tb924 C988 2.833 . S
C925 C928 1.432 . S
C925 C929 1.414 . S
C925 N932 1.359 . S
C926 C928 1.417 . S
C926 C930 1.432 . S
C926 C938 1.410 . S
C927 C929 1.444 . S
C927 C930 1.317 . S
C927 H950 0.929 . S
C928 C925 1.432 . S
C928 C926 1.417 . S
C928 N936 1.360 . S
C929 C925 1.414 . S
C929 C927 1.444 . S
C929 C934 1.385 . S
C930 C926 1.432 . S
C930 C927 1.317 . S
C930 H942 0.930 . S
C931 C933 1.392 . S
C931 C934 1.370 . S
C931 H943 0.931 . S
N932 C925 1.359 . S
N932 C933 1.327 . S
N932 Tb935 2.600 . S
C933 C931 1.392 . S
C933 N932 1.327 . S
C933 H940 0.930 . S
C934 C929 1.385 . S
C934 C931 1.370 . S
C934 H953 0.930 . S
Tb935 N932 2.600 . S
Tb935 N936 2.660 . S
Tb935 O969 2.362 . S
Tb935 O970 2.421 . S
Tb935 O974 2.546 . S
Tb935 O975 2.610 . S
Tb935 O977 2.320 . S
Tb935 O978 2.552 . S
Tb935 O979 2.413 . S
Tb935 C999 2.833 . S
N936 C928 1.360 . S
N936 Tb935 2.660 . S
N936 C937 1.305 . S
C937 N936 1.305 . S
C937 C939 1.407 . S
C937 H944 0.930 . S
C938 C926 1.410 . S
C938 C939 1.345 . S
C938 H946 0.930 . S
C939 C937 1.407 . S
C939 C938 1.345 . S
C939 H941 0.930 . S
H940 C933 0.930 . S
H941 C939 0.930 . S
H942 C930 0.930 . S
H943 C931 0.931 . S
H944 C937 0.930 . S
H945 C959 0.930 . S
H946 C938 0.930 . S
H947 C965 0.930 . S
H948 C956 0.930 . S
H949 C963 0.931 . S
H950 C927 0.929 . S
H951 C957 0.930 . S
H952 C990 0.930 . S
H953 C934 0.930 . S
H954 C989 0.929 . S
N955 Tb924 2.660 . S
N955 C956 1.305 . S
N955 C960 1.360 . S
C956 H948 0.930 . S
C956 N955 1.305 . S
C956 C959 1.407 . S
C957 H951 0.930 . S
C957 C958 1.410 . S
C957 C959 1.345 . S
C958 C957 1.410 . S
C958 C960 1.417 . S
C958 C990 1.432 . S
C959 H945 0.930 . S
C959 C956 1.407 . S
C959 C957 1.345 . S
C960 N955 1.360 . S
C960 C958 1.417 . S
C960 C964 1.432 . S
H961 C966 0.930 . S
N962 Tb924 2.600 . S
N962 C964 1.359 . S
N962 C965 1.327 . S
C963 H949 0.931 . S
C963 C965 1.392 . S
C963 C966 1.370 . S
C964 C960 1.432 . S
C964 N962 1.359 . S
C964 C967 1.414 . S
C965 H947 0.930 . S
C965 N962 1.327 . S
C965 C963 1.392 . S
C966 H961 0.930 . S
C966 C963 1.370 . S
C966 C967 1.385 . S
C967 C964 1.414 . S
C967 C966 1.385 . S
C967 C989 1.444 . S
O968 Tb924 2.546 . S
O968 C988 1.251 . S
O969 Tb924 2.610 . S
O969 Tb935 2.362 . S
O969 C980 1.283 . S
O970 Tb935 2.421 . S
O970 C987 1.262 . S
O971 Tb924 2.320 . S
O971 C987 1.260 . S
O972 Tb924 2.552 . S
O972 C980 1.243 . S
O973 Tb924 2.413 . S
O973 C988 1.256 . S
O974 Tb935 2.546 . S
O974 C999 1.251 . S
O975 Tb924 2.362 . S
O975 Tb935 2.610 . S
O975 C991 1.283 . S
O976 Tb924 2.421 . S
O976 C998 1.262 . S
O977 Tb935 2.320 . S
O977 C998 1.260 . S
O978 Tb935 2.552 . S
O978 C991 1.243 . S
O979 Tb935 2.413 . S
O979 C999 1.256 . S
C980 O969 1.283 . S
C980 O972 1.243 . S
C981 C983 1.382 . S
C981 C985 1.393 . S
C981 C988 1.500 . S
C982 C983 1.400 . S
C982 C984 1.384 . S
C983 C981 1.382 . S
C983 C982 1.400 . S
C983 H1000 0.930 . S
C984 C982 1.384 . S
C984 C986 1.392 . S
C984 H1001 0.931 . S
C985 C981 1.393 . S
C985 C986 1.401 . S
C985 H1002 0.930 . S
C986 C984 1.392 . S
C986 C985 1.401 . S
C986 H1003 0.930 . S
C987 O970 1.262 . S
C987 O971 1.260 . S
C988 Tb924 2.833 . S
C988 O968 1.251 . S
C988 O973 1.256 . S
C988 C981 1.500 . S
C989 H954 0.929 . S
C989 C967 1.444 . S
C989 C990 1.317 . S
C990 H952 0.930 . S
C990 C958 1.432 . S
C990 C989 1.317 . S
C991 O975 1.283 . S
C991 O978 1.243 . S
C992 C993 1.382 . S
C992 C996 1.393 . S
C992 C999 1.500 . S
C993 C992 1.382 . S
C993 C994 1.400 . S
C993 H1004 0.930 . S
C994 C993 1.400 . S
C994 C995 1.384 . S
C995 C994 1.384 . S
C995 C997 1.392 . S
C995 H1005 0.931 . S
C996 C992 1.393 . S
C996 C997 1.401 . S
C996 H1006 0.930 . S
C997 C995 1.392 . S
C997 C996 1.401 . S
C997 H1007 0.930 . S
C998 O976 1.262 . S
C998 O977 1.260 . S
C999 Tb935 2.833 . S
C999 O974 1.251 . S
C999 O979 1.256 . S
C999 C992 1.500 . S
H1000 C983 0.930 . S
H1001 C984 0.931 . S
H1002 C985 0.930 . S
H1003 C986 0.930 . S
H1004 C993 0.930 . S
H1005 C995 0.931 . S
H1006 C996 0.930 . S
H1007 C997 0.930 . S
Tb1008 N1039 2.660 . S
Tb1008 N1046 2.600 . S
Tb1008 O1052 2.546 . S
Tb1008 O1053 2.610 1_554 S
Tb1008 O1055 2.320 . S
Tb1008 O1056 2.552 1_554 S
Tb1008 O1057 2.413 . S
Tb1008 O1059 2.362 . S
Tb1008 O1060 2.421 . S
Tb1008 C1072 2.833 . S
C1009 C1012 1.432 . S
C1009 C1013 1.414 . S
C1009 N1016 1.359 . S
C1010 C1012 1.417 . S
C1010 C1014 1.432 . S
C1010 C1022 1.410 . S
C1011 C1013 1.444 . S
C1011 C1014 1.317 . S
C1011 H1034 0.929 . S
C1012 C1009 1.432 . S
C1012 C1010 1.417 . S
C1012 N1020 1.360 . S
C1013 C1009 1.414 . S
C1013 C1011 1.444 . S
C1013 C1018 1.385 . S
C1014 C1010 1.432 . S
C1014 C1011 1.317 . S
C1014 H1026 0.930 . S
C1015 C1017 1.392 . S
C1015 C1018 1.370 . S
C1015 H1027 0.931 . S
N1016 C1009 1.359 . S
N1016 C1017 1.327 . S
N1016 Tb1019 2.600 1_556 S
C1017 C1015 1.392 . S
C1017 N1016 1.327 . S
C1017 H1024 0.930 . S
C1018 C1013 1.385 . S
C1018 C1015 1.370 . S
C1018 H1037 0.930 . S
Tb1019 N1016 2.600 1_554 S
Tb1019 N1020 2.660 1_554 S
Tb1019 O1053 2.362 1_554 S
Tb1019 O1054 2.421 . S
Tb1019 O1058 2.546 . S
Tb1019 O1059 2.610 . S
Tb1019 O1061 2.320 . S
Tb1019 O1062 2.552 . S
Tb1019 O1063 2.413 . S
Tb1019 C1083 2.833 . S
N1020 C1012 1.360 . S
N1020 Tb1019 2.660 1_556 S
N1020 C1021 1.305 . S
C1021 N1020 1.305 . S
C1021 C1023 1.407 . S
C1021 H1028 0.930 . S
C1022 C1010 1.410 . S
C1022 C1023 1.345 . S
C1022 H1030 0.930 . S
C1023 C1021 1.407 . S
C1023 C1022 1.345 . S
C1023 H1025 0.930 . S
H1024 C1017 0.930 . S
H1025 C1023 0.930 . S
H1026 C1014 0.930 . S
H1027 C1015 0.931 . S
H1028 C1021 0.930 . S
H1029 C1043 0.930 . S
H1030 C1022 0.930 . S
H1031 C1049 0.930 . S
H1032 C1040 0.930 . S
H1033 C1047 0.931 . S
H1034 C1011 0.929 . S
H1035 C1041 0.930 . S
H1036 C1074 0.930 . S
H1037 C1018 0.930 . S
H1038 C1073 0.929 . S
N1039 Tb1008 2.660 . S
N1039 C1040 1.305 . S
N1039 C1044 1.360 . S
C1040 H1032 0.930 . S
C1040 N1039 1.305 . S
C1040 C1043 1.407 . S
C1041 H1035 0.930 . S
C1041 C1042 1.410 . S
C1041 C1043 1.345 . S
C1042 C1041 1.410 . S
C1042 C1044 1.417 . S
C1042 C1074 1.432 . S
C1043 H1029 0.930 . S
C1043 C1040 1.407 . S
C1043 C1041 1.345 . S
C1044 N1039 1.360 . S
C1044 C1042 1.417 . S
C1044 C1048 1.432 . S
H1045 C1050 0.930 . S
N1046 Tb1008 2.600 . S
N1046 C1048 1.359 . S
N1046 C1049 1.327 . S
C1047 H1033 0.931 . S
C1047 C1049 1.392 . S
C1047 C1050 1.370 . S
C1048 C1044 1.432 . S
C1048 N1046 1.359 . S
C1048 C1051 1.414 . S
C1049 H1031 0.930 . S
C1049 N1046 1.327 . S
C1049 C1047 1.392 . S
C1050 H1045 0.930 . S
C1050 C1047 1.370 . S
C1050 C1051 1.385 . S
C1051 C1048 1.414 . S
C1051 C1050 1.385 . S
C1051 C1073 1.444 . S
O1052 Tb1008 2.546 . S
O1052 C1072 1.251 . S
O1053 Tb1008 2.610 1_556 S
O1053 Tb1019 2.362 1_556 S
O1053 C1064 1.283 . S
O1054 Tb1019 2.421 . S
O1054 C1071 1.262 . S
O1055 Tb1008 2.320 . S
O1055 C1071 1.260 . S
O1056 Tb1008 2.552 1_556 S
O1056 C1064 1.243 . S
O1057 Tb1008 2.413 . S
O1057 C1072 1.256 . S
O1058 Tb1019 2.546 . S
O1058 C1083 1.251 . S
O1059 Tb1008 2.362 . S
O1059 Tb1019 2.610 . S
O1059 C1075 1.283 . S
O1060 Tb1008 2.421 . S
O1060 C1082 1.262 . S
O1061 Tb1019 2.320 . S
O1061 C1082 1.260 . S
O1062 Tb1019 2.552 . S
O1062 C1075 1.243 . S
O1063 Tb1019 2.413 . S
O1063 C1083 1.256 . S
C1064 O1053 1.283 . S
C1064 O1056 1.243 . S
C1065 C1067 1.382 . S
C1065 C1069 1.393 . S
C1065 C1072 1.500 . S
C1066 C1067 1.400 1_556 S
C1066 C1068 1.384 1_556 S
C1067 C1065 1.382 . S
C1067 C1066 1.400 1_554 S
C1067 H1084 0.930 1_554 S
C1068 C1066 1.384 1_554 S
C1068 C1070 1.392 . S
C1068 H1085 0.922 1_554 S
C1069 C1065 1.393 . S
C1069 C1070 1.401 . S
C1069 H1086 0.930 . S
C1070 C1068 1.392 . S
C1070 C1069 1.401 . S
C1070 H1087 0.930 . S
C1071 O1054 1.262 . S
C1071 O1055 1.260 . S
C1072 Tb1008 2.833 . S
C1072 O1052 1.251 . S
C1072 O1057 1.256 . S
C1072 C1065 1.500 . S
C1073 H1038 0.929 . S
C1073 C1051 1.444 . S
C1073 C1074 1.317 . S
C1074 H1036 0.930 . S
C1074 C1042 1.432 . S
C1074 C1073 1.317 . S
C1075 O1059 1.283 . S
C1075 O1062 1.243 . S
C1076 C1077 1.382 . S
C1076 C1080 1.393 . S
C1076 C1083 1.500 . S
C1077 C1076 1.382 . S
C1077 C1078 1.400 . S
C1077 H1088 0.930 . S
C1078 C1077 1.400 . S
C1078 C1079 1.384 . S
C1079 C1078 1.384 . S
C1079 C1081 1.392 . S
C1079 H1089 0.931 . S
C1080 C1076 1.393 . S
C1080 C1081 1.401 . S
C1080 H1090 0.963 . S
C1081 C1079 1.392 . S
C1081 C1080 1.401 . S
C1081 H1091 0.930 . S
C1082 O1060 1.262 . S
C1082 O1061 1.260 . S
C1083 Tb1019 2.833 . S
C1083 O1058 1.251 . S
C1083 O1063 1.256 . S
C1083 C1076 1.500 . S
H1084 C1067 0.930 1_556 S
H1085 C1068 0.922 1_556 S
H1086 C1069 0.930 . S
H1087 C1070 0.930 . S
H1088 C1077 0.930 . S
H1089 C1079 0.931 . S
H1090 C1080 0.963 . S
H1091 C1081 0.930 . S
Tb1092 N1123 2.660 . S
Tb1092 N1130 2.600 . S
Tb1092 O1136 2.546 . S
Tb1092 O1137 2.610 . S
Tb1092 O1139 2.320 . S
Tb1092 O1140 2.552 . S
Tb1092 O1141 2.413 . S
Tb1092 O1143 2.362 . S
Tb1092 O1144 2.421 . S
Tb1092 C1156 2.833 . S
C1093 C1096 1.432 . S
C1093 C1097 1.414 . S
C1093 N1100 1.359 . S
C1094 C1096 1.417 . S
C1094 C1098 1.432 . S
C1094 C1106 1.410 . S
C1095 C1097 1.444 . S
C1095 C1098 1.317 . S
C1095 H1118 0.929 . S
C1096 C1093 1.432 . S
C1096 C1094 1.417 . S
C1096 N1104 1.360 . S
C1097 C1093 1.414 . S
C1097 C1095 1.444 . S
C1097 C1102 1.385 . S
C1098 C1094 1.432 . S
C1098 C1095 1.317 . S
C1098 H1110 0.930 . S
C1099 C1101 1.392 . S
C1099 C1102 1.370 . S
C1099 H1111 0.931 . S
N1100 C1093 1.359 . S
N1100 C1101 1.327 . S
N1100 Tb1103 2.600 . S
C1101 C1099 1.392 . S
C1101 N1100 1.327 . S
C1101 H1108 0.930 . S
C1102 C1097 1.385 . S
C1102 C1099 1.370 . S
C1102 H1121 0.930 . S
Tb1103 N1100 2.600 . S
Tb1103 N1104 2.660 . S
Tb1103 O1137 2.362 . S
Tb1103 O1138 2.421 . S
Tb1103 O1142 2.546 . S
Tb1103 O1143 2.610 . S
Tb1103 O1145 2.320 . S
Tb1103 O1146 2.552 . S
Tb1103 O1147 2.413 . S
Tb1103 C1167 2.833 . S
N1104 C1096 1.360 . S
N1104 Tb1103 2.660 . S
N1104 C1105 1.305 . S
C1105 N1104 1.305 . S
C1105 C1107 1.407 . S
C1105 H1112 0.930 . S
C1106 C1094 1.410 . S
C1106 C1107 1.345 . S
C1106 H1114 0.930 . S
C1107 C1105 1.407 . S
C1107 C1106 1.345 . S
C1107 H1109 0.930 . S
H1108 C1101 0.930 . S
H1109 C1107 0.930 . S
H1110 C1098 0.930 . S
H1111 C1099 0.931 . S
H1112 C1105 0.930 . S
H1113 C1127 0.930 . S
H1114 C1106 0.930 . S
H1115 C1133 0.930 . S
H1116 C1124 0.930 . S
H1117 C1131 0.931 . S
H1118 C1095 0.929 . S
H1119 C1125 0.930 . S
H1120 C1158 0.930 . S
H1121 C1102 0.930 . S
H1122 C1157 0.929 . S
N1123 Tb1092 2.660 . S
N1123 C1124 1.305 . S
N1123 C1128 1.360 . S
C1124 H1116 0.930 . S
C1124 N1123 1.305 . S
C1124 C1127 1.407 . S
C1125 H1119 0.930 . S
C1125 C1126 1.410 . S
C1125 C1127 1.345 . S
C1126 C1125 1.410 . S
C1126 C1128 1.417 . S
C1126 C1158 1.432 . S
C1127 H1113 0.930 . S
C1127 C1124 1.407 . S
C1127 C1125 1.345 . S
C1128 N1123 1.360 . S
C1128 C1126 1.417 . S
C1128 C1132 1.432 . S
H1129 C1134 0.930 . S
N1130 Tb1092 2.600 . S
N1130 C1132 1.359 . S
N1130 C1133 1.327 . S
C1131 H1117 0.931 . S
C1131 C1133 1.392 . S
C1131 C1134 1.370 . S
C1132 C1128 1.432 . S
C1132 N1130 1.359 . S
C1132 C1135 1.414 . S
C1133 H1115 0.930 . S
C1133 N1130 1.327 . S
C1133 C1131 1.392 . S
C1134 H1129 0.930 . S
C1134 C1131 1.370 . S
C1134 C1135 1.385 . S
C1135 C1132 1.414 . S
C1135 C1134 1.385 . S
C1135 C1157 1.444 . S
O1136 Tb1092 2.546 . S
O1136 C1156 1.251 . S
O1137 Tb1092 2.610 . S
O1137 Tb1103 2.362 . S
O1137 C1148 1.283 . S
O1138 Tb1103 2.421 . S
O1138 C1155 1.262 . S
O1139 Tb1092 2.320 . S
O1139 C1155 1.260 . S
O1140 Tb1092 2.552 . S
O1140 C1148 1.243 . S
O1141 Tb1092 2.413 . S
O1141 C1156 1.256 . S
O1142 Tb1103 2.546 . S
O1142 C1167 1.251 . S
O1143 Tb1092 2.362 . S
O1143 Tb1103 2.610 . S
O1143 C1159 1.283 . S
O1144 Tb1092 2.421 . S
O1144 C1166 1.262 . S
O1145 Tb1103 2.320 . S
O1145 C1166 1.260 . S
O1146 Tb1103 2.552 . S
O1146 C1159 1.243 . S
O1147 Tb1103 2.413 . S
O1147 C1167 1.256 . S
C1148 O1137 1.283 . S
C1148 O1140 1.243 . S
C1149 C1151 1.382 . S
C1149 C1153 1.393 . S
C1149 C1156 1.500 . S
C1150 C1151 1.400 . S
C1150 C1152 1.384 . S
C1151 C1149 1.382 . S
C1151 C1150 1.400 . S
C1151 H1168 0.930 . S
C1152 C1150 1.384 . S
C1152 C1154 1.392 . S
C1152 H1169 0.931 . S
C1153 C1149 1.393 . S
C1153 C1154 1.401 . S
C1153 H1170 0.930 . S
C1154 C1152 1.392 . S
C1154 C1153 1.401 . S
C1154 H1171 0.930 . S
C1155 O1138 1.262 . S
C1155 O1139 1.260 . S
C1156 Tb1092 2.833 . S
C1156 O1136 1.251 . S
C1156 O1141 1.256 . S
C1156 C1149 1.500 . S
C1157 H1122 0.929 . S
C1157 C1135 1.444 . S
C1157 C1158 1.317 . S
C1158 H1120 0.930 . S
C1158 C1126 1.432 . S
C1158 C1157 1.317 . S
C1159 O1143 1.283 . S
C1159 O1146 1.243 . S
C1160 C1161 1.382 . S
C1160 C1164 1.393 . S
C1160 C1167 1.500 . S
C1161 C1160 1.382 . S
C1161 C1162 1.400 . S
C1161 H1172 0.930 . S
C1162 C1161 1.400 . S
C1162 C1163 1.384 . S
C1163 C1162 1.384 . S
C1163 C1165 1.392 . S
C1163 H1173 0.931 . S
C1164 C1160 1.393 . S
C1164 C1165 1.401 . S
C1164 H1174 0.930 . S
C1165 C1163 1.392 . S
C1165 C1164 1.401 . S
C1165 H1175 0.930 . S
C1166 O1144 1.262 . S
C1166 O1145 1.260 . S
C1167 Tb1103 2.833 . S
C1167 O1142 1.251 . S
C1167 O1147 1.256 . S
C1167 C1160 1.500 . S
H1168 C1151 0.930 . S
H1169 C1152 0.931 . S
H1170 C1153 0.930 . S
H1171 C1154 0.930 . S
H1172 C1161 0.930 . S
H1173 C1163 0.931 . S
H1174 C1164 0.930 . S
H1175 C1165 0.930 . S
Tb1176 N1207 2.660 . S
Tb1176 N1214 2.600 . S
Tb1176 O1220 2.546 . S
Tb1176 O1221 2.610 . S
Tb1176 O1223 2.320 . S
Tb1176 O1224 2.552 . S
Tb1176 O1225 2.413 . S
Tb1176 O1227 2.362 . S
Tb1176 O1228 2.421 . S
Tb1176 C1240 2.833 . S
C1177 C1180 1.432 1_455 S
C1177 C1181 1.413 1_455 S
C1177 N1184 1.360 . S
C1178 C1180 1.417 . S
C1178 C1182 1.432 . S
C1178 C1190 1.410 . S
C1179 C1181 1.444 . S
C1179 C1182 1.317 . S
C1179 H1202 0.929 . S
C1180 C1177 1.432 1_655 S
C1180 C1178 1.417 . S
C1180 N1188 1.360 1_655 S
C1181 C1177 1.413 1_655 S
C1181 C1179 1.444 . S
C1181 C1186 1.385 . S
C1182 C1178 1.432 . S
C1182 C1179 1.317 . S
C1182 H1194 0.930 . S
C1183 C1185 1.392 . S
C1183 C1186 1.370 1_455 S
C1183 H1195 0.931 . S
N1184 C1177 1.360 . S
N1184 C1185 1.327 . S
N1184 Tb1187 2.600 . S
C1185 C1183 1.392 . S
C1185 N1184 1.327 . S
C1185 H1192 0.930 . S
C1186 C1181 1.385 . S
C1186 C1183 1.370 1_655 S
C1186 H1205 0.930 . S
Tb1187 N1184 2.600 . S
Tb1187 N1188 2.660 . S
Tb1187 O1221 2.362 . S
Tb1187 O1222 2.421 . S
Tb1187 O1226 2.546 . S
Tb1187 O1227 2.610 . S
Tb1187 O1229 2.320 . S
Tb1187 O1230 2.552 . S
Tb1187 O1231 2.413 . S
Tb1187 C1251 2.833 . S
N1188 C1180 1.360 1_455 S
N1188 Tb1187 2.660 . S
N1188 C1189 1.305 . S
C1189 N1188 1.305 . S
C1189 C1191 1.407 1_455 S
C1189 H1196 0.930 . S
C1190 C1178 1.410 . S
C1190 C1191 1.345 . S
C1190 H1198 0.930 . S
C1191 C1189 1.407 1_655 S
C1191 C1190 1.345 . S
C1191 H1193 0.930 . S
H1192 C1185 0.930 . S
H1193 C1191 0.930 . S
H1194 C1182 0.930 . S
H1195 C1183 0.931 . S
H1196 C1189 0.930 . S
H1197 C1211 0.930 . S
H1198 C1190 0.930 . S
H1199 C1217 0.930 . S
H1200 C1208 0.930 . S
H1201 C1215 0.931 . S
H1202 C1179 0.929 . S
H1203 C1209 0.930 . S
H1204 C1242 0.930 . S
H1205 C1186 0.930 . S
H1206 C1241 0.929 . S
N1207 Tb1176 2.660 . S
N1207 C1208 1.305 . S
N1207 C1212 1.360 . S
C1208 H1200 0.930 . S
C1208 N1207 1.305 . S
C1208 C1211 1.407 . S
C1209 H1203 0.930 . S
C1209 C1210 1.410 . S
C1209 C1211 1.345 . S
C1210 C1209 1.410 . S
C1210 C1212 1.417 . S
C1210 C1242 1.432 . S
C1211 H1197 0.930 . S
C1211 C1208 1.407 . S
C1211 C1209 1.345 . S
C1212 N1207 1.360 . S
C1212 C1210 1.417 . S
C1212 C1216 1.432 . S
H1213 C1218 0.930 . S
N1214 Tb1176 2.600 . S
N1214 C1216 1.359 . S
N1214 C1217 1.327 . S
C1215 H1201 0.931 . S
C1215 C1217 1.392 . S
C1215 C1218 1.370 . S
C1216 C1212 1.432 . S
C1216 N1214 1.359 . S
C1216 C1219 1.414 . S
C1217 H1199 0.930 . S
C1217 N1214 1.327 . S
C1217 C1215 1.392 . S
C1218 H1213 0.930 . S
C1218 C1215 1.370 . S
C1218 C1219 1.385 . S
C1219 C1216 1.414 . S
C1219 C1218 1.385 . S
C1219 C1241 1.444 . S
O1220 Tb1176 2.546 . S
O1220 C1240 1.251 . S
O1221 Tb1176 2.610 . S
O1221 Tb1187 2.362 . S
O1221 C1232 1.283 . S
O1222 Tb1187 2.421 . S
O1222 C1239 1.262 . S
O1223 Tb1176 2.320 . S
O1223 C1239 1.260 . S
O1224 Tb1176 2.552 . S
O1224 C1232 1.243 . S
O1225 Tb1176 2.413 . S
O1225 C1240 1.256 . S
O1226 Tb1187 2.546 . S
O1226 C1251 1.251 . S
O1227 Tb1176 2.362 . S
O1227 Tb1187 2.610 . S
O1227 C1243 1.283 . S
O1228 Tb1176 2.421 . S
O1228 C1250 1.262 . S
O1229 Tb1187 2.320 . S
O1229 C1250 1.260 . S
O1230 Tb1187 2.552 . S
O1230 C1243 1.243 . S
O1231 Tb1187 2.413 . S
O1231 C1251 1.256 . S
C1232 O1221 1.283 . S
C1232 O1224 1.243 . S
C1233 C1235 1.382 . S
C1233 C1237 1.393 . S
C1233 C1240 1.500 . S
C1234 C1235 1.400 . S
C1234 C1236 1.384 . S
C1235 C1233 1.382 . S
C1235 C1234 1.400 . S
C1235 H1252 0.930 . S
C1236 C1234 1.384 . S
C1236 C1238 1.392 . S
C1236 H1253 0.931 . S
C1237 C1233 1.393 . S
C1237 C1238 1.401 . S
C1237 H1254 0.930 . S
C1238 C1236 1.392 . S
C1238 C1237 1.401 . S
C1238 H1255 0.930 . S
C1239 O1222 1.262 . S
C1239 O1223 1.260 . S
C1240 Tb1176 2.833 . S
C1240 O1220 1.251 . S
C1240 O1225 1.256 . S
C1240 C1233 1.500 . S
C1241 H1206 0.929 . S
C1241 C1219 1.444 . S
C1241 C1242 1.317 . S
C1242 H1204 0.930 . S
C1242 C1210 1.432 . S
C1242 C1241 1.317 . S
C1243 O1227 1.283 . S
C1243 O1230 1.243 . S
C1244 C1245 1.382 . S
C1244 C1248 1.393 . S
C1244 C1251 1.500 . S
C1245 C1244 1.382 . S
C1245 C1246 1.400 . S
C1245 H1256 0.930 . S
C1246 C1245 1.400 . S
C1246 C1247 1.384 . S
C1247 C1246 1.384 . S
C1247 C1249 1.392 . S
C1247 H1257 0.931 . S
C1248 C1244 1.393 . S
C1248 C1249 1.401 . S
C1248 H1258 0.930 . S
C1249 C1247 1.392 . S
C1249 C1248 1.401 . S
C1249 H1259 0.930 . S
C1250 O1228 1.262 . S
C1250 O1229 1.260 . S
C1251 Tb1187 2.833 . S
C1251 O1226 1.251 . S
C1251 O1231 1.256 . S
C1251 C1244 1.500 . S
H1252 C1235 0.930 . S
H1253 C1236 0.931 . S
H1254 C1237 0.930 . S
H1255 C1238 0.930 . S
H1256 C1245 0.930 . S
H1257 C1247 0.931 . S
H1258 C1248 0.930 . S
H1259 C1249 0.930 . S
Tb1260 N1291 2.660 . S
Tb1260 N1298 2.600 . S
Tb1260 O1304 2.546 . S
Tb1260 O1305 2.610 . S
Tb1260 O1307 2.320 . S
Tb1260 O1308 2.552 . S
Tb1260 O1309 2.413 . S
Tb1260 O1311 2.362 . S
Tb1260 O1312 2.421 . S
Tb1260 C1324 2.833 . S
C1261 C1264 1.432 . S
C1261 C1265 1.414 . S
C1261 N1268 1.359 . S
C1262 C1264 1.417 . S
C1262 C1266 1.432 . S
C1262 C1274 1.410 . S
C1263 C1265 1.444 . S
C1263 C1266 1.317 . S
C1263 H1286 0.929 . S
C1264 C1261 1.432 . S
C1264 C1262 1.417 . S
C1264 N1272 1.360 . S
C1265 C1261 1.414 . S
C1265 C1263 1.444 . S
C1265 C1270 1.385 . S
C1266 C1262 1.432 . S
C1266 C1263 1.317 . S
C1266 H1278 0.930 . S
C1267 C1269 1.392 . S
C1267 C1270 1.370 . S
C1267 H1279 0.931 . S
N1268 C1261 1.359 . S
N1268 C1269 1.327 . S
N1268 Tb1271 2.600 . S
C1269 C1267 1.392 . S
C1269 N1268 1.327 . S
C1269 H1276 0.930 . S
C1270 C1265 1.385 . S
C1270 C1267 1.370 . S
C1270 H1289 0.930 . S
Tb1271 N1268 2.600 . S
Tb1271 N1272 2.660 . S
Tb1271 O1305 2.362 . S
Tb1271 O1306 2.421 . S
Tb1271 O1310 2.546 . S
Tb1271 O1311 2.610 . S
Tb1271 O1313 2.320 . S
Tb1271 O1314 2.552 . S
Tb1271 O1315 2.413 . S
Tb1271 C1335 2.833 . S
N1272 C1264 1.360 . S
N1272 Tb1271 2.660 . S
N1272 C1273 1.305 . S
C1273 N1272 1.305 . S
C1273 C1275 1.407 . S
C1273 H1280 0.930 . S
C1274 C1262 1.410 . S
C1274 C1275 1.345 . S
C1274 H1282 0.930 . S
C1275 C1273 1.407 . S
C1275 C1274 1.345 . S
C1275 H1277 0.930 . S
H1276 C1269 0.930 . S
H1277 C1275 0.930 . S
H1278 C1266 0.930 . S
H1279 C1267 0.931 . S
H1280 C1273 0.930 . S
H1281 C1295 0.930 . S
H1282 C1274 0.930 . S
H1283 C1301 0.930 . S
H1284 C1292 0.930 . S
H1285 C1299 0.931 . S
H1286 C1263 0.929 . S
H1287 C1293 0.930 . S
H1288 C1326 0.930 . S
H1289 C1270 0.930 . S
H1290 C1325 0.929 . S
N1291 Tb1260 2.660 . S
N1291 C1292 1.305 . S
N1291 C1296 1.360 . S
C1292 H1284 0.930 . S
C1292 N1291 1.305 . S
C1292 C1295 1.407 . S
C1293 H1287 0.930 . S
C1293 C1294 1.410 . S
C1293 C1295 1.345 . S
C1294 C1293 1.410 . S
C1294 C1296 1.417 . S
C1294 C1326 1.432 . S
C1295 H1281 0.930 . S
C1295 C1292 1.407 . S
C1295 C1293 1.345 . S
C1296 N1291 1.360 . S
C1296 C1294 1.417 . S
C1296 C1300 1.432 . S
H1297 C1302 0.930 . S
N1298 Tb1260 2.600 . S
N1298 C1300 1.359 . S
N1298 C1301 1.327 . S
C1299 H1285 0.931 . S
C1299 C1301 1.392 . S
C1299 C1302 1.370 . S
C1300 C1296 1.432 . S
C1300 N1298 1.359 . S
C1300 C1303 1.414 . S
C1301 H1283 0.930 . S
C1301 N1298 1.327 . S
C1301 C1299 1.392 . S
C1302 H1297 0.930 . S
C1302 C1299 1.370 . S
C1302 C1303 1.385 . S
C1303 C1300 1.414 . S
C1303 C1302 1.385 . S
C1303 C1325 1.444 . S
O1304 Tb1260 2.546 . S
O1304 C1324 1.251 . S
O1305 Tb1260 2.610 . S
O1305 Tb1271 2.362 . S
O1305 C1316 1.283 . S
O1306 Tb1271 2.421 . S
O1306 C1323 1.262 . S
O1307 Tb1260 2.320 . S
O1307 C1323 1.260 . S
O1308 Tb1260 2.552 . S
O1308 C1316 1.243 . S
O1309 Tb1260 2.413 . S
O1309 C1324 1.256 . S
O1310 Tb1271 2.546 . S
O1310 C1335 1.251 . S
O1311 Tb1260 2.362 . S
O1311 Tb1271 2.610 . S
O1311 C1327 1.283 . S
O1312 Tb1260 2.421 . S
O1312 C1334 1.262 . S
O1313 Tb1271 2.320 . S
O1313 C1334 1.260 . S
O1314 Tb1271 2.552 . S
O1314 C1327 1.243 . S
O1315 Tb1271 2.413 . S
O1315 C1335 1.256 . S
C1316 O1305 1.283 . S
C1316 O1308 1.243 . S
C1317 C1319 1.382 . S
C1317 C1321 1.393 . S
C1317 C1324 1.500 . S
C1318 C1319 1.400 . S
C1318 C1320 1.384 . S
C1319 C1317 1.382 . S
C1319 C1318 1.400 . S
C1319 H1336 0.930 . S
C1320 C1318 1.384 . S
C1320 C1322 1.392 . S
C1320 H1337 0.931 . S
C1321 C1317 1.393 . S
C1321 C1322 1.401 . S
C1321 H1338 0.930 . S
C1322 C1320 1.392 . S
C1322 C1321 1.401 . S
C1322 H1339 0.930 . S
C1323 O1306 1.262 . S
C1323 O1307 1.260 . S
C1324 Tb1260 2.833 . S
C1324 O1304 1.251 . S
C1324 O1309 1.256 . S
C1324 C1317 1.500 . S
C1325 H1290 0.929 . S
C1325 C1303 1.444 . S
C1325 C1326 1.317 . S
C1326 H1288 0.930 . S
C1326 C1294 1.432 . S
C1326 C1325 1.317 . S
C1327 O1311 1.283 . S
C1327 O1314 1.243 . S
C1328 C1329 1.382 . S
C1328 C1332 1.393 . S
C1328 C1335 1.500 . S
C1329 C1328 1.382 . S
C1329 C1330 1.400 . S
C1329 H1340 0.930 . S
C1330 C1329 1.400 . S
C1330 C1331 1.384 . S
C1331 C1330 1.384 . S
C1331 C1333 1.392 . S
C1331 H1341 0.931 . S
C1332 C1328 1.393 . S
C1332 C1333 1.401 . S
C1332 H1342 0.930 . S
C1333 C1331 1.392 . S
C1333 C1332 1.401 . S
C1333 H1343 0.930 . S
C1334 O1312 1.262 . S
C1334 O1313 1.260 . S
C1335 Tb1271 2.833 . S
C1335 O1310 1.251 . S
C1335 O1315 1.256 . S
C1335 C1328 1.500 . S
H1336 C1319 0.930 . S
H1337 C1320 0.931 . S
H1338 C1321 0.930 . S
H1339 C1322 0.930 . S
H1340 C1329 0.930 . S
H1341 C1331 0.931 . S
H1342 C1332 0.930 . S
H1343 C1333 0.930 . S
Tb1344 N1375 2.660 . S
Tb1344 N1382 2.600 . S
Tb1344 O1388 2.546 . S
Tb1344 O1389 2.610 . S
Tb1344 O1391 2.320 . S
Tb1344 O1392 2.552 . S
Tb1344 O1393 2.413 . S
Tb1344 O1395 2.362 . S
Tb1344 O1396 2.421 . S
Tb1344 C1408 2.833 . S
C1345 C1348 1.432 . S
C1345 C1349 1.414 . S
C1345 N1352 1.359 . S
C1346 C1348 1.417 . S
C1346 C1350 1.432 . S
C1346 C1358 1.410 . S
C1347 C1349 1.444 . S
C1347 C1350 1.317 . S
C1347 H1370 0.929 . S
C1348 C1345 1.432 . S
C1348 C1346 1.417 . S
C1348 N1356 1.360 . S
C1349 C1345 1.414 . S
C1349 C1347 1.444 . S
C1349 C1354 1.385 . S
C1350 C1346 1.432 . S
C1350 C1347 1.317 . S
C1350 H1362 0.930 . S
C1351 C1353 1.392 . S
C1351 C1354 1.370 . S
C1351 H1363 0.931 . S
N1352 C1345 1.359 . S
N1352 C1353 1.327 . S
N1352 Tb1355 2.600 . S
C1353 C1351 1.392 . S
C1353 N1352 1.327 . S
C1353 H1360 0.930 . S
C1354 C1349 1.385 . S
C1354 C1351 1.370 . S
C1354 H1373 0.930 . S
Tb1355 N1352 2.600 . S
Tb1355 N1356 2.660 . S
Tb1355 O1389 2.362 . S
Tb1355 O1390 2.421 . S
Tb1355 O1394 2.546 . S
Tb1355 O1395 2.610 . S
Tb1355 O1397 2.320 . S
Tb1355 O1398 2.552 . S
Tb1355 O1399 2.413 . S
Tb1355 C1419 2.833 . S
N1356 C1348 1.360 . S
N1356 Tb1355 2.660 . S
N1356 C1357 1.305 . S
C1357 N1356 1.305 . S
C1357 C1359 1.407 . S
C1357 H1364 0.930 . S
C1358 C1346 1.410 . S
C1358 C1359 1.345 . S
C1358 H1366 0.930 . S
C1359 C1357 1.407 . S
C1359 C1358 1.345 . S
C1359 H1361 0.930 . S
H1360 C1353 0.930 . S
H1361 C1359 0.930 . S
H1362 C1350 0.930 . S
H1363 C1351 0.931 . S
H1364 C1357 0.930 . S
H1365 C1379 0.930 . S
H1366 C1358 0.930 . S
H1367 C1385 0.930 . S
H1368 C1376 0.930 . S
H1369 C1383 0.931 . S
H1370 C1347 0.929 . S
H1371 C1377 0.930 . S
H1372 C1410 0.930 . S
H1373 C1354 0.930 . S
H1374 C1409 0.929 . S
N1375 Tb1344 2.660 . S
N1375 C1376 1.305 . S
N1375 C1380 1.360 . S
C1376 H1368 0.930 . S
C1376 N1375 1.305 . S
C1376 C1379 1.407 . S
C1377 H1371 0.930 . S
C1377 C1378 1.410 . S
C1377 C1379 1.345 . S
C1378 C1377 1.410 . S
C1378 C1380 1.417 . S
C1378 C1410 1.432 . S
C1379 H1365 0.930 . S
C1379 C1376 1.407 . S
C1379 C1377 1.345 . S
C1380 N1375 1.360 . S
C1380 C1378 1.417 . S
C1380 C1384 1.432 . S
H1381 C1386 0.930 . S
N1382 Tb1344 2.600 . S
N1382 C1384 1.359 . S
N1382 C1385 1.327 . S
C1383 H1369 0.931 . S
C1383 C1385 1.392 . S
C1383 C1386 1.370 . S
C1384 C1380 1.432 . S
C1384 N1382 1.359 . S
C1384 C1387 1.414 . S
C1385 H1367 0.930 . S
C1385 N1382 1.327 . S
C1385 C1383 1.392 . S
C1386 H1381 0.930 . S
C1386 C1383 1.370 . S
C1386 C1387 1.385 . S
C1387 C1384 1.414 . S
C1387 C1386 1.385 . S
C1387 C1409 1.444 . S
O1388 Tb1344 2.546 . S
O1388 C1408 1.251 . S
O1389 Tb1344 2.610 . S
O1389 Tb1355 2.362 . S
O1389 C1400 1.283 . S
O1390 Tb1355 2.421 . S
O1390 C1407 1.262 . S
O1391 Tb1344 2.320 . S
O1391 C1407 1.260 . S
O1392 Tb1344 2.552 . S
O1392 C1400 1.243 . S
O1393 Tb1344 2.413 . S
O1393 C1408 1.256 . S
O1394 Tb1355 2.546 . S
O1394 C1419 1.251 . S
O1395 Tb1344 2.362 . S
O1395 Tb1355 2.610 . S
O1395 C1411 1.283 . S
O1396 Tb1344 2.421 . S
O1396 C1418 1.262 . S
O1397 Tb1355 2.320 . S
O1397 C1418 1.260 . S
O1398 Tb1355 2.552 . S
O1398 C1411 1.243 . S
O1399 Tb1355 2.413 . S
O1399 C1419 1.256 . S
C1400 O1389 1.283 . S
C1400 O1392 1.243 . S
C1401 C1403 1.382 . S
C1401 C1405 1.393 . S
C1401 C1408 1.500 . S
C1402 C1403 1.400 . S
C1402 C1404 1.384 . S
C1403 C1401 1.382 . S
C1403 C1402 1.400 . S
C1403 H1420 0.930 . S
C1404 C1402 1.384 . S
C1404 C1406 1.392 . S
C1404 H1421 0.931 . S
C1405 C1401 1.393 . S
C1405 C1406 1.401 . S
C1405 H1422 0.930 . S
C1406 C1404 1.392 . S
C1406 C1405 1.401 . S
C1406 H1423 0.930 . S
C1407 O1390 1.262 . S
C1407 O1391 1.260 . S
C1408 Tb1344 2.833 . S
C1408 O1388 1.251 . S
C1408 O1393 1.256 . S
C1408 C1401 1.500 . S
C1409 H1374 0.929 . S
C1409 C1387 1.444 . S
C1409 C1410 1.317 . S
C1410 H1372 0.930 . S
C1410 C1378 1.432 . S
C1410 C1409 1.317 . S
C1411 O1395 1.283 . S
C1411 O1398 1.243 . S
C1412 C1413 1.382 . S
C1412 C1416 1.393 . S
C1412 C1419 1.500 . S
C1413 C1412 1.382 . S
C1413 C1414 1.400 . S
C1413 H1424 0.930 . S
C1414 C1413 1.400 . S
C1414 C1415 1.384 . S
C1415 C1414 1.384 . S
C1415 C1417 1.392 . S
C1415 H1425 0.931 . S
C1416 C1412 1.393 . S
C1416 C1417 1.401 . S
C1416 H1426 0.930 . S
C1417 C1415 1.392 . S
C1417 C1416 1.401 . S
C1417 H1427 0.930 . S
C1418 O1396 1.262 . S
C1418 O1397 1.260 . S
C1419 Tb1355 2.833 . S
C1419 O1394 1.251 . S
C1419 O1399 1.256 . S
C1419 C1412 1.500 . S
H1420 C1403 0.930 . S
H1421 C1404 0.931 . S
H1422 C1405 0.930 . S
H1423 C1406 0.930 . S
H1424 C1413 0.930 . S
H1425 C1415 0.931 . S
H1426 C1416 0.930 . S
H1427 C1417 0.930 . S
Tb1428 N1459 2.660 . S
Tb1428 N1466 2.600 . S
Tb1428 O1472 2.546 . S
Tb1428 O1473 2.610 . S
Tb1428 O1475 2.320 . S
Tb1428 O1476 2.552 . S
Tb1428 O1477 2.413 . S
Tb1428 O1479 2.362 . S
Tb1428 O1480 2.421 . S
Tb1428 C1492 2.833 . S
C1429 C1432 1.432 . S
C1429 C1433 1.414 . S
C1429 N1436 1.359 . S
C1430 C1432 1.417 . S
C1430 C1434 1.432 . S
C1430 C1442 1.410 . S
C1431 C1433 1.444 . S
C1431 C1434 1.317 . S
C1431 H1454 0.929 . S
C1432 C1429 1.432 . S
C1432 C1430 1.417 . S
C1432 N1440 1.360 . S
C1433 C1429 1.414 . S
C1433 C1431 1.444 . S
C1433 C1438 1.385 . S
C1434 C1430 1.432 . S
C1434 C1431 1.317 . S
C1434 H1446 0.930 . S
C1435 C1437 1.392 . S
C1435 C1438 1.370 . S
C1435 H1447 0.931 . S
N1436 C1429 1.359 . S
N1436 C1437 1.327 . S
N1436 Tb1439 2.600 . S
C1437 C1435 1.392 . S
C1437 N1436 1.327 . S
C1437 H1444 0.930 . S
C1438 C1433 1.385 . S
C1438 C1435 1.370 . S
C1438 H1457 0.930 . S
Tb1439 N1436 2.600 . S
Tb1439 N1440 2.660 . S
Tb1439 O1473 2.362 . S
Tb1439 O1474 2.421 . S
Tb1439 O1478 2.546 . S
Tb1439 O1479 2.610 . S
Tb1439 O1481 2.320 . S
Tb1439 O1482 2.552 . S
Tb1439 O1483 2.413 . S
Tb1439 C1503 2.833 . S
N1440 C1432 1.360 . S
N1440 Tb1439 2.660 . S
N1440 C1441 1.305 . S
C1441 N1440 1.305 . S
C1441 C1443 1.407 . S
C1441 H1448 0.930 . S
C1442 C1430 1.410 . S
C1442 C1443 1.345 . S
C1442 H1450 0.930 . S
C1443 C1441 1.407 . S
C1443 C1442 1.345 . S
C1443 H1445 0.930 . S
H1444 C1437 0.930 . S
H1445 C1443 0.930 . S
H1446 C1434 0.930 . S
H1447 C1435 0.931 . S
H1448 C1441 0.930 . S
H1449 C1463 0.930 . S
H1450 C1442 0.930 . S
H1451 C1469 0.930 . S
H1452 C1460 0.930 . S
H1453 C1467 0.931 . S
H1454 C1431 0.929 . S
H1455 C1461 0.930 . S
H1456 C1494 0.930 . S
H1457 C1438 0.930 . S
H1458 C1493 0.929 . S
N1459 Tb1428 2.660 . S
N1459 C1460 1.305 . S
N1459 C1464 1.360 . S
C1460 H1452 0.930 . S
C1460 N1459 1.305 . S
C1460 C1463 1.407 . S
C1461 H1455 0.930 . S
C1461 C1462 1.410 . S
C1461 C1463 1.345 . S
C1462 C1461 1.410 . S
C1462 C1464 1.417 . S
C1462 C1494 1.432 . S
C1463 H1449 0.930 . S
C1463 C1460 1.407 . S
C1463 C1461 1.345 . S
C1464 N1459 1.360 . S
C1464 C1462 1.417 . S
C1464 C1468 1.432 . S
H1465 C1470 0.930 . S
N1466 Tb1428 2.600 . S
N1466 C1468 1.359 . S
N1466 C1469 1.327 . S
C1467 H1453 0.931 . S
C1467 C1469 1.392 . S
C1467 C1470 1.370 . S
C1468 C1464 1.432 . S
C1468 N1466 1.359 . S
C1468 C1471 1.414 . S
C1469 H1451 0.930 . S
C1469 N1466 1.327 . S
C1469 C1467 1.392 . S
C1470 H1465 0.930 . S
C1470 C1467 1.370 . S
C1470 C1471 1.385 . S
C1471 C1468 1.414 . S
C1471 C1470 1.385 . S
C1471 C1493 1.444 . S
O1472 Tb1428 2.546 . S
O1472 C1492 1.251 . S
O1473 Tb1428 2.610 . S
O1473 Tb1439 2.362 . S
O1473 C1484 1.283 . S
O1474 Tb1439 2.421 . S
O1474 C1491 1.262 . S
O1475 Tb1428 2.320 . S
O1475 C1491 1.260 . S
O1476 Tb1428 2.552 . S
O1476 C1484 1.243 . S
O1477 Tb1428 2.413 . S
O1477 C1492 1.256 . S
O1478 Tb1439 2.546 . S
O1478 C1503 1.251 . S
O1479 Tb1428 2.362 . S
O1479 Tb1439 2.610 . S
O1479 C1495 1.283 . S
O1480 Tb1428 2.421 . S
O1480 C1502 1.262 . S
O1481 Tb1439 2.320 . S
O1481 C1502 1.260 . S
O1482 Tb1439 2.552 . S
O1482 C1495 1.243 . S
O1483 Tb1439 2.413 . S
O1483 C1503 1.256 . S
C1484 O1473 1.283 . S
C1484 O1476 1.243 . S
C1485 C1487 1.382 . S
C1485 C1489 1.393 . S
C1485 C1492 1.500 . S
C1486 C1487 1.400 . S
C1486 C1488 1.384 . S
C1487 C1485 1.382 . S
C1487 C1486 1.400 . S
C1487 H1504 0.930 . S
C1488 C1486 1.384 . S
C1488 C1490 1.392 . S
C1488 H1505 0.931 . S
C1489 C1485 1.393 . S
C1489 C1490 1.401 . S
C1489 H1506 0.930 . S
C1490 C1488 1.392 . S
C1490 C1489 1.401 . S
C1490 H1507 0.930 . S
C1491 O1474 1.262 . S
C1491 O1475 1.260 . S
C1492 Tb1428 2.833 . S
C1492 O1472 1.251 . S
C1492 O1477 1.256 . S
C1492 C1485 1.500 . S
C1493 H1458 0.929 . S
C1493 C1471 1.444 . S
C1493 C1494 1.317 . S
C1494 H1456 0.930 . S
C1494 C1462 1.432 . S
C1494 C1493 1.317 . S
C1495 O1479 1.283 . S
C1495 O1482 1.243 . S
C1496 C1497 1.382 . S
C1496 C1500 1.393 . S
C1496 C1503 1.500 . S
C1497 C1496 1.382 . S
C1497 C1498 1.400 . S
C1497 H1508 0.930 . S
C1498 C1497 1.400 . S
C1498 C1499 1.384 . S
C1499 C1498 1.384 . S
C1499 C1501 1.392 . S
C1499 H1509 0.931 . S
C1500 C1496 1.393 . S
C1500 C1501 1.401 . S
C1500 H1510 0.930 . S
C1501 C1499 1.392 . S
C1501 C1500 1.401 . S
C1501 H1511 0.930 . S
C1502 O1480 1.262 . S
C1502 O1481 1.260 . S
C1503 Tb1439 2.833 . S
C1503 O1478 1.251 . S
C1503 O1483 1.256 . S
C1503 C1496 1.500 . S
H1504 C1487 0.930 . S
H1505 C1488 0.931 . S
H1506 C1489 0.930 . S
H1507 C1490 0.930 . S
H1508 C1497 0.930 . S
H1509 C1499 0.931 . S
H1510 C1500 0.930 . S
H1511 C1501 0.930 . S
Tb1512 N1543 2.660 . S
Tb1512 N1550 2.600 . S
Tb1512 O1556 2.546 . S
Tb1512 O1557 2.610 . S
Tb1512 O1559 2.320 . S
Tb1512 O1560 2.552 . S
Tb1512 O1561 2.413 . S
Tb1512 O1563 2.362 . S
Tb1512 O1564 2.421 . S
Tb1512 C1576 2.833 . S
C1513 C1516 1.432 . S
C1513 C1517 1.414 . S
C1513 N1520 1.359 . S
C1514 C1516 1.417 . S
C1514 C1518 1.432 . S
C1514 C1526 1.410 . S
C1515 C1517 1.444 . S
C1515 C1518 1.317 . S
C1515 H1538 0.929 . S
C1516 C1513 1.432 . S
C1516 C1514 1.417 . S
C1516 N1524 1.360 . S
C1517 C1513 1.414 . S
C1517 C1515 1.444 . S
C1517 C1522 1.385 . S
C1518 C1514 1.432 . S
C1518 C1515 1.317 . S
C1518 H1530 0.930 . S
C1519 C1521 1.392 . S
C1519 C1522 1.370 . S
C1519 H1531 0.931 . S
N1520 C1513 1.359 . S
N1520 C1521 1.327 . S
N1520 Tb1523 2.600 . S
C1521 C1519 1.392 . S
C1521 N1520 1.327 . S
C1521 H1528 0.930 . S
C1522 C1517 1.385 . S
C1522 C1519 1.370 . S
C1522 H1541 0.930 . S
Tb1523 N1520 2.600 . S
Tb1523 N1524 2.660 . S
Tb1523 O1557 2.362 . S
Tb1523 O1558 2.421 . S
Tb1523 O1562 2.546 . S
Tb1523 O1563 2.610 . S
Tb1523 O1565 2.320 . S
Tb1523 O1566 2.552 . S
Tb1523 O1567 2.413 . S
Tb1523 C1587 2.833 . S
N1524 C1516 1.360 . S
N1524 Tb1523 2.660 . S
N1524 C1525 1.305 . S
C1525 N1524 1.305 . S
C1525 C1527 1.407 . S
C1525 H1532 0.930 . S
C1526 C1514 1.410 . S
C1526 C1527 1.345 . S
C1526 H1534 0.930 . S
C1527 C1525 1.407 . S
C1527 C1526 1.345 . S
C1527 H1529 0.930 . S
H1528 C1521 0.930 . S
H1529 C1527 0.930 . S
H1530 C1518 0.930 . S
H1531 C1519 0.931 . S
H1532 C1525 0.930 . S
H1533 C1547 0.930 . S
H1534 C1526 0.930 . S
H1535 C1553 0.930 . S
H1536 C1544 0.930 . S
H1537 C1551 0.931 . S
H1538 C1515 0.929 . S
H1539 C1545 0.930 . S
H1540 C1578 0.930 . S
H1541 C1522 0.930 . S
H1542 C1577 0.929 . S
N1543 Tb1512 2.660 . S
N1543 C1544 1.305 . S
N1543 C1548 1.360 . S
C1544 H1536 0.930 . S
C1544 N1543 1.305 . S
C1544 C1547 1.407 . S
C1545 H1539 0.930 . S
C1545 C1546 1.410 . S
C1545 C1547 1.345 . S
C1546 C1545 1.410 . S
C1546 C1548 1.417 . S
C1546 C1578 1.432 . S
C1547 H1533 0.930 . S
C1547 C1544 1.407 . S
C1547 C1545 1.345 . S
C1548 N1543 1.360 . S
C1548 C1546 1.417 . S
C1548 C1552 1.432 . S
H1549 C1554 0.930 . S
N1550 Tb1512 2.600 . S
N1550 C1552 1.359 . S
N1550 C1553 1.327 . S
C1551 H1537 0.931 . S
C1551 C1553 1.392 . S
C1551 C1554 1.370 . S
C1552 C1548 1.432 . S
C1552 N1550 1.359 . S
C1552 C1555 1.414 . S
C1553 H1535 0.930 . S
C1553 N1550 1.327 . S
C1553 C1551 1.392 . S
C1554 H1549 0.930 . S
C1554 C1551 1.370 . S
C1554 C1555 1.385 . S
C1555 C1552 1.414 . S
C1555 C1554 1.385 . S
C1555 C1577 1.444 . S
O1556 Tb1512 2.546 . S
O1556 C1576 1.251 . S
O1557 Tb1512 2.610 . S
O1557 Tb1523 2.362 . S
O1557 C1568 1.283 . S
O1558 Tb1523 2.421 . S
O1558 C1575 1.262 . S
O1559 Tb1512 2.320 . S
O1559 C1575 1.260 . S
O1560 Tb1512 2.552 . S
O1560 C1568 1.243 . S
O1561 Tb1512 2.413 . S
O1561 C1576 1.256 . S
O1562 Tb1523 2.546 . S
O1562 C1587 1.251 . S
O1563 Tb1512 2.362 . S
O1563 Tb1523 2.610 . S
O1563 C1579 1.283 . S
O1564 Tb1512 2.421 . S
O1564 C1586 1.262 . S
O1565 Tb1523 2.320 . S
O1565 C1586 1.260 . S
O1566 Tb1523 2.552 . S
O1566 C1579 1.243 . S
O1567 Tb1523 2.413 . S
O1567 C1587 1.256 . S
C1568 O1557 1.283 . S
C1568 O1560 1.243 . S
C1569 C1571 1.382 . S
C1569 C1573 1.393 . S
C1569 C1576 1.500 . S
C1570 C1571 1.400 . S
C1570 C1572 1.384 . S
C1571 C1569 1.382 . S
C1571 C1570 1.400 . S
C1571 H1588 0.930 . S
C1572 C1570 1.384 . S
C1572 C1574 1.392 . S
C1572 H1589 0.931 . S
C1573 C1569 1.393 . S
C1573 C1574 1.401 . S
C1573 H1590 0.930 . S
C1574 C1572 1.392 . S
C1574 C1573 1.401 . S
C1574 H1591 0.930 . S
C1575 O1558 1.262 . S
C1575 O1559 1.260 . S
C1576 Tb1512 2.833 . S
C1576 O1556 1.251 . S
C1576 O1561 1.256 . S
C1576 C1569 1.500 . S
C1577 H1542 0.929 . S
C1577 C1555 1.444 . S
C1577 C1578 1.317 . S
C1578 H1540 0.930 . S
C1578 C1546 1.432 . S
C1578 C1577 1.317 . S
C1579 O1563 1.283 . S
C1579 O1566 1.243 . S
C1580 C1581 1.382 . S
C1580 C1584 1.393 . S
C1580 C1587 1.500 . S
C1581 C1580 1.382 . S
C1581 C1582 1.400 . S
C1581 H1592 0.930 . S
C1582 C1581 1.400 . S
C1582 C1583 1.384 . S
C1583 C1582 1.384 . S
C1583 C1585 1.392 . S
C1583 H1593 0.931 . S
C1584 C1580 1.393 . S
C1584 C1585 1.401 . S
C1584 H1594 0.930 . S
C1585 C1583 1.392 . S
C1585 C1584 1.401 . S
C1585 H1595 0.930 . S
C1586 O1564 1.262 . S
C1586 O1565 1.260 . S
C1587 Tb1523 2.833 . S
C1587 O1562 1.251 . S
C1587 O1567 1.256 . S
C1587 C1580 1.500 . S
H1588 C1571 0.930 . S
H1589 C1572 0.931 . S
H1590 C1573 0.930 . S
H1591 C1574 0.930 . S
H1592 C1581 0.930 . S
H1593 C1583 0.931 . S
H1594 C1584 0.930 . S
H1595 C1585 0.930 . S
Tb1596 N1627 2.660 . S
Tb1596 N1634 2.600 1_554 S
Tb1596 O1640 2.546 1_554 S
Tb1596 O1641 2.610 . S
Tb1596 O1643 2.320 . S
Tb1596 O1644 2.554 1_554 S
Tb1596 O1645 2.413 . S
Tb1596 O1647 2.362 . S
Tb1596 O1648 2.421 1_554 S
Tb1596 C1660 2.833 1_554 S
C1597 C1600 1.432 . S
C1597 C1601 1.414 . S
C1597 N1604 1.359 1_655 S
C1598 C1600 1.417 . S
C1598 C1602 1.432 . S
C1598 C1610 1.410 1_554 S
C1599 C1601 1.444 . S
C1599 C1602 1.317 . S
C1599 H1622 0.929 . S
C1600 C1597 1.432 . S
C1600 C1598 1.417 . S
C1600 N1608 1.360 . S
C1601 C1597 1.414 . S
C1601 C1599 1.444 . S
C1601 C1606 1.385 . S
C1602 C1598 1.432 . S
C1602 C1599 1.317 . S
C1602 H1614 0.930 . S
C1603 C1605 1.392 . S
C1603 C1606 1.370 1_455 S
C1603 H1615 0.931 . S
N1604 C1597 1.359 1_455 S
N1604 C1605 1.327 . S
N1604 Tb1607 2.600 . S
C1605 C1603 1.392 . S
C1605 N1604 1.327 . S
C1605 H1612 0.930 . S
C1606 C1601 1.385 . S
C1606 C1603 1.370 1_655 S
C1606 H1625 0.930 . S
Tb1607 N1604 2.600 . S
Tb1607 N1608 2.660 1_455 S
Tb1607 O1641 2.362 . S
Tb1607 O1642 2.421 . S
Tb1607 O1646 2.546 . S
Tb1607 O1647 2.610 . S
Tb1607 O1649 2.320 1_554 S
Tb1607 O1650 2.552 . S
Tb1607 O1651 2.413 1_455 S
Tb1607 C1671 2.833 1_455 S
N1608 C1600 1.360 . S
N1608 Tb1607 2.660 1_655 S
N1608 C1609 1.305 1_554 S
C1609 N1608 1.305 1_556 S
C1609 C1611 1.407 . S
C1609 H1616 0.916 1_655 S
C1610 C1598 1.410 1_556 S
C1610 C1611 1.345 . S
C1610 H1618 0.930 . S
C1611 C1609 1.407 . S
C1611 C1610 1.345 . S
C1611 H1613 0.930 . S
H1612 C1605 0.930 . S
H1613 C1611 0.930 . S
H1614 C1602 0.930 . S
H1615 C1603 0.931 . S
H1616 C1609 0.916 1_455 S
H1617 C1631 0.930 . S
H1618 C1610 0.930 . S
H1619 C1637 0.930 . S
H1620 C1628 0.930 . S
H1621 C1635 0.931 . S
H1622 C1599 0.929 . S
H1623 C1629 0.930 . S
H1624 C1662 0.930 . S
H1625 C1606 0.930 . S
H1626 C1661 0.929 . S
N1627 Tb1596 2.660 . S
N1627 C1628 1.305 . S
N1627 C1632 1.360 . S
C1628 H1620 0.930 . S
C1628 N1627 1.305 . S
C1628 C1631 1.407 . S
C1629 H1623 0.930 . S
C1629 C1630 1.410 . S
C1629 C1631 1.345 . S
C1630 C1629 1.410 . S
C1630 C1632 1.417 . S
C1630 C1662 1.432 . S
C1631 H1617 0.930 . S
C1631 C1628 1.407 . S
C1631 C1629 1.345 . S
C1632 N1627 1.360 . S
C1632 C1630 1.417 . S
C1632 C1636 1.432 1_554 S
H1633 C1638 0.930 . S
N1634 Tb1596 2.600 1_556 S
N1634 C1636 1.359 . S
N1634 C1637 1.327 . S
C1635 H1621 0.931 . S
C1635 C1637 1.392 . S
C1635 C1638 1.370 . S
C1636 C1632 1.432 1_556 S
C1636 N1634 1.359 . S
C1636 C1639 1.414 . S
C1637 H1619 0.930 . S
C1637 N1634 1.327 . S
C1637 C1635 1.392 . S
C1638 H1633 0.930 . S
C1638 C1635 1.370 . S
C1638 C1639 1.385 . S
C1639 C1636 1.414 . S
C1639 C1638 1.385 . S
C1639 C1661 1.444 . S
O1640 Tb1596 2.546 1_556 S
O1640 C1660 1.251 . S
O1641 Tb1596 2.610 . S
O1641 Tb1607 2.362 . S
O1641 C1652 1.283 . S
O1642 Tb1607 2.421 . S
O1642 C1659 1.262 . S
O1643 Tb1596 2.320 . S
O1643 C1659 1.260 . S
O1644 Tb1596 2.554 1_556 S
O1644 C1652 1.229 1_556 S
O1645 Tb1596 2.413 . S
O1645 C1660 1.256 1_554 S
O1646 Tb1607 2.546 . S
O1646 C1671 1.251 1_455 S
O1647 Tb1596 2.362 . S
O1647 Tb1607 2.610 . S
O1647 C1663 1.283 . S
O1648 Tb1596 2.421 1_556 S
O1648 C1670 1.262 . S
O1649 Tb1607 2.320 1_556 S
O1649 C1670 1.260 . S
O1650 Tb1607 2.552 . S
O1650 C1663 1.243 . S
O1651 Tb1607 2.413 1_655 S
O1651 C1671 1.256 . S
C1652 O1641 1.283 . S
C1652 O1644 1.229 1_554 S
C1653 C1655 1.382 1_556 S
C1653 C1657 1.393 . S
C1653 C1660 1.500 . S
C1654 C1655 1.400 1_556 S
C1654 C1656 1.384 . S
C1655 C1653 1.382 1_554 S
C1655 C1654 1.400 1_554 S
C1655 H1672 0.930 . S
C1656 C1654 1.384 . S
C1656 C1658 1.392 . S
C1656 H1673 0.931 . S
C1657 C1653 1.393 . S
C1657 C1658 1.401 . S
C1657 H1674 0.930 . S
C1658 C1656 1.392 . S
C1658 C1657 1.401 . S
C1658 H1675 0.930 . S
C1659 O1642 1.262 . S
C1659 O1643 1.260 . S
C1660 Tb1596 2.833 1_556 S
C1660 O1640 1.251 . S
C1660 O1645 1.256 1_556 S
C1660 C1653 1.500 . S
C1661 H1626 0.929 . S
C1661 C1639 1.444 . S
C1661 C1662 1.317 1_556 S
C1662 H1624 0.930 . S
C1662 C1630 1.432 . S
C1662 C1661 1.317 1_554 S
C1663 O1647 1.283 . S
C1663 O1650 1.243 . S
C1664 C1665 1.382 . S
C1664 C1668 1.393 . S
C1664 C1671 1.500 . S
C1665 C1664 1.382 . S
C1665 C1666 1.400 . S
C1665 H1676 0.930 . S
C1666 C1665 1.400 . S
C1666 C1667 1.384 . S
C1667 C1666 1.384 . S
C1667 C1669 1.392 . S
C1667 H1677 0.931 . S
C1668 C1664 1.393 . S
C1668 C1669 1.401 . S
C1668 H1678 0.930 . S
C1669 C1667 1.392 . S
C1669 C1668 1.401 . S
C1669 H1679 0.930 . S
C1670 O1648 1.262 . S
C1670 O1649 1.260 . S
C1671 Tb1607 2.833 1_655 S
C1671 O1646 1.251 1_655 S
C1671 O1651 1.256 . S
C1671 C1664 1.500 . S
H1672 C1655 0.930 . S
H1673 C1656 0.931 . S
H1674 C1657 0.930 . S
H1675 C1658 0.930 . S
H1676 C1665 0.930 . S
H1677 C1667 0.931 . S
H1678 C1668 0.930 . S
H1679 C1669 0.930 . S
H1680 C1688 0.950 1_554 S
H1681 C1693 0.950 . S
H1682 C1690 0.950 . S
H1683 C1692 0.950 . S
H1684 C1694 0.950 . S
H1685 C1696 0.950 . S
H1686 C1698 0.950 . S
H1687 C1699 0.950 . S
C1688 H1680 0.950 1_556 S
C1688 C1689 1.386 . S
C1688 C1690 1.391 1_556 S
C1689 C1688 1.386 . S
C1689 C1693 1.393 . S
C1690 H1682 0.950 . S
C1690 C1688 1.391 1_554 S
C1690 C1691 1.400 1_554 S
C1691 C1690 1.400 1_556 S
C1691 C1692 1.398 . S
C1691 C1697 1.491 . S
C1692 H1683 0.950 . S
C1692 C1691 1.398 . S
C1692 C1693 1.391 . S
C1693 H1681 0.950 . S
C1693 C1689 1.393 . S
C1693 C1692 1.391 . S
C1694 H1684 0.950 . S
C1694 C1695 1.386 1_556 S
C1694 C1696 1.391 . S
C1695 C1694 1.386 1_554 S
C1695 C1699 1.393 . S
C1696 H1685 0.950 . S
C1696 C1694 1.391 . S
C1696 C1697 1.400 . S
C1697 C1691 1.491 . S
C1697 C1696 1.400 . S
C1697 C1698 1.398 1_556 S
C1698 H1686 0.950 . S
C1698 C1697 1.398 1_554 S
C1698 C1699 1.391 . S
C1699 H1687 0.950 . S
C1699 C1695 1.393 . S
C1699 C1698 1.391 . S
H1700 C1708 0.950 . S
H1701 C1713 0.950 . S
H1702 C1710 0.950 . S
H1703 C1712 0.950 . S
H1704 C1714 0.950 . S
H1705 C1716 0.950 . S
H1706 C1718 0.950 . S
H1707 C1719 0.950 . S
C1708 H1700 0.950 . S
C1708 C1709 1.386 . S
C1708 C1710 1.391 . S
C1709 C1708 1.386 . S
C1709 C1713 1.393 . S
C1710 H1702 0.950 . S
C1710 C1708 1.391 . S
C1710 C1711 1.400 . S
C1711 C1710 1.400 . S
C1711 C1712 1.398 . S
C1711 C1717 1.491 . S
C1712 H1703 0.950 . S
C1712 C1711 1.398 . S
C1712 C1713 1.391 . S
C1713 H1701 0.950 . S
C1713 C1709 1.393 . S
C1713 C1712 1.391 . S
C1714 H1704 0.950 . S
C1714 C1715 1.386 . S
C1714 C1716 1.391 . S
C1715 C1714 1.386 . S
C1715 C1719 1.393 . S
C1716 H1705 0.950 . S
C1716 C1714 1.391 . S
C1716 C1717 1.400 . S
C1717 C1711 1.491 . S
C1717 C1716 1.400 . S
C1717 C1718 1.398 . S
C1718 H1706 0.950 . S
C1718 C1717 1.398 . S
C1718 C1719 1.391 . S
C1719 H1707 0.950 . S
C1719 C1715 1.393 . S
C1719 C1718 1.391 . S
H1720 C1728 0.950 . S
H1721 C1733 0.950 . S
H1722 C1730 0.950 . S
H1723 C1732 0.950 . S
H1724 C1734 0.950 . S
H1725 C1736 0.950 . S
H1726 C1738 0.950 . S
H1727 C1739 0.950 . S
C1728 H1720 0.950 . S
C1728 C1729 1.386 . S
C1728 C1730 1.391 . S
C1729 C1728 1.386 . S
C1729 C1733 1.393 . S
C1730 H1722 0.950 . S
C1730 C1728 1.391 . S
C1730 C1731 1.400 . S
C1731 C1730 1.400 . S
C1731 C1732 1.398 . S
C1731 C1737 1.491 . S
C1732 H1723 0.950 . S
C1732 C1731 1.398 . S
C1732 C1733 1.391 . S
C1733 H1721 0.950 . S
C1733 C1729 1.393 . S
C1733 C1732 1.391 . S
C1734 H1724 0.950 . S
C1734 C1735 1.386 . S
C1734 C1736 1.391 . S
C1735 C1734 1.386 . S
C1735 C1739 1.393 . S
C1736 H1725 0.950 . S
C1736 C1734 1.391 . S
C1736 C1737 1.400 . S
C1737 C1731 1.491 . S
C1737 C1736 1.400 . S
C1737 C1738 1.398 . S
C1738 H1726 0.950 . S
C1738 C1737 1.398 . S
C1738 C1739 1.391 . S
C1739 H1727 0.950 . S
C1739 C1735 1.393 . S
C1739 C1738 1.391 . S
H1740 C1748 0.950 . S
H1741 C1753 0.950 . S
H1742 C1750 0.950 . S
H1743 C1752 0.950 . S
H1744 C1754 0.950 . S
H1745 C1756 0.950 . S
H1746 C1758 0.950 . S
H1747 C1759 0.950 . S
C1748 H1740 0.950 . S
C1748 C1749 1.386 . S
C1748 C1750 1.391 . S
C1749 C1748 1.386 . S
C1749 C1753 1.393 . S
C1750 H1742 0.950 . S
C1750 C1748 1.391 . S
C1750 C1751 1.400 . S
C1751 C1750 1.400 . S
C1751 C1752 1.398 . S
C1751 C1757 1.491 . S
C1752 H1743 0.950 . S
C1752 C1751 1.398 . S
C1752 C1753 1.391 . S
C1753 H1741 0.950 . S
C1753 C1749 1.393 . S
C1753 C1752 1.391 . S
C1754 H1744 0.950 . S
C1754 C1755 1.386 . S
C1754 C1756 1.391 . S
C1755 C1754 1.386 . S
C1755 C1759 1.393 . S
C1756 H1745 0.950 . S
C1756 C1754 1.391 . S
C1756 C1757 1.400 . S
C1757 C1751 1.491 . S
C1757 C1756 1.400 . S
C1757 C1758 1.398 . S
C1758 H1746 0.950 . S
C1758 C1757 1.398 . S
C1758 C1759 1.391 . S
C1759 H1747 0.950 . S
C1759 C1755 1.393 . S
C1759 C1758 1.391 . S
H1760 C1768 0.929 1_655 S
H1761 C1773 0.950 . S
H1762 C1770 0.952 . S
H1763 C1772 0.950 . S
H1764 C1774 0.950 . S
H1765 C1776 0.950 . S
H1766 C1778 0.950 . S
H1767 C1779 0.950 . S
C1768 H1760 0.929 1_455 S
C1768 C1769 1.403 . S
C1768 C1770 1.394 . S
C1769 C1768 1.403 . S
C1769 C1773 1.393 . S
C1770 H1762 0.952 . S
C1770 C1768 1.394 . S
C1770 C1771 1.400 . S
C1771 C1770 1.400 . S
C1771 C1772 1.398 . S
C1771 C1777 1.491 . S
C1772 H1763 0.950 . S
C1772 C1771 1.398 . S
C1772 C1773 1.391 . S
C1773 H1761 0.950 . S
C1773 C1769 1.393 . S
C1773 C1772 1.391 . S
C1774 H1764 0.950 . S
C1774 C1775 1.386 . S
C1774 C1776 1.391 . S
C1775 C1774 1.386 . S
C1775 C1779 1.393 . S
C1776 H1765 0.950 . S
C1776 C1774 1.391 . S
C1776 C1777 1.400 . S
C1777 C1771 1.491 . S
C1777 C1776 1.400 . S
C1777 C1778 1.398 . S
C1778 H1766 0.950 . S
C1778 C1777 1.398 . S
C1778 C1779 1.391 . S
C1779 H1767 0.950 . S
C1779 C1775 1.393 . S
C1779 C1778 1.391 . S
H1780 C1788 0.950 . S
H1781 C1793 0.950 . S
H1782 C1790 0.950 . S
H1783 C1792 0.950 . S
H1784 C1794 0.950 . S
H1785 C1796 0.950 . S
H1786 C1798 0.950 . S
H1787 C1799 0.950 . S
C1788 H1780 0.950 . S
C1788 C1789 1.386 . S
C1788 C1790 1.391 . S
C1789 C1788 1.386 . S
C1789 C1793 1.393 . S
C1790 H1782 0.950 . S
C1790 C1788 1.391 . S
C1790 C1791 1.400 . S
C1791 C1790 1.400 . S
C1791 C1792 1.398 . S
C1791 C1797 1.491 . S
C1792 H1783 0.950 . S
C1792 C1791 1.398 . S
C1792 C1793 1.391 . S
C1793 H1781 0.950 . S
C1793 C1789 1.393 . S
C1793 C1792 1.391 . S
C1794 H1784 0.950 . S
C1794 C1795 1.386 . S
C1794 C1796 1.391 . S
C1795 C1794 1.386 . S
C1795 C1799 1.393 . S
C1796 H1785 0.950 . S
C1796 C1794 1.391 . S
C1796 C1797 1.400 . S
C1797 C1791 1.491 . S
C1797 C1796 1.400 . S
C1797 C1798 1.398 . S
C1798 H1786 0.950 . S
C1798 C1797 1.398 . S
C1798 C1799 1.391 . S
C1799 H1787 0.950 . S
C1799 C1795 1.393 . S
C1799 C1798 1.391 . S
H1800 C1808 0.950 . S
H1801 C1813 0.950 . S
H1802 C1810 0.950 . S
H1803 C1812 0.950 . S
H1804 C1814 0.950 . S
H1805 C1816 0.950 . S
H1806 C1818 0.950 . S
H1807 C1819 0.950 . S
C1808 H1800 0.950 . S
C1808 C1809 1.386 . S
C1808 C1810 1.391 . S
C1809 C1808 1.386 . S
C1809 C1813 1.393 . S
C1810 H1802 0.950 . S
C1810 C1808 1.391 . S
C1810 C1811 1.400 . S
C1811 C1810 1.400 . S
C1811 C1812 1.398 . S
C1811 C1817 1.491 . S
C1812 H1803 0.950 . S
C1812 C1811 1.398 . S
C1812 C1813 1.391 . S
C1813 H1801 0.950 . S
C1813 C1809 1.393 . S
C1813 C1812 1.391 . S
C1814 H1804 0.950 . S
C1814 C1815 1.386 . S
C1814 C1816 1.391 . S
C1815 C1814 1.386 . S
C1815 C1819 1.393 . S
C1816 H1805 0.950 . S
C1816 C1814 1.391 . S
C1816 C1817 1.400 . S
C1817 C1811 1.491 . S
C1817 C1816 1.400 . S
C1817 C1818 1.398 . S
C1818 H1806 0.950 . S
C1818 C1817 1.398 . S
C1818 C1819 1.391 . S
C1819 H1807 0.950 . S
C1819 C1815 1.393 . S
C1819 C1818 1.391 . S
H1820 C1828 0.950 . S
H1821 C1833 0.950 . S
H1822 C1830 0.950 . S
H1823 C1832 0.950 . S
H1824 C1834 0.950 . S
H1825 C1836 0.950 . S
H1826 C1838 0.950 . S
H1827 C1839 0.950 . S
C1828 H1820 0.950 . S
C1828 C1829 1.386 . S
C1828 C1830 1.391 . S
C1829 C1828 1.386 . S
C1829 C1833 1.393 . S
C1830 H1822 0.950 . S
C1830 C1828 1.391 . S
C1830 C1831 1.400 . S
C1831 C1830 1.400 . S
C1831 C1832 1.398 . S
C1831 C1837 1.491 . S
C1832 H1823 0.950 . S
C1832 C1831 1.398 . S
C1832 C1833 1.391 . S
C1833 H1821 0.950 . S
C1833 C1829 1.393 . S
C1833 C1832 1.391 . S
C1834 H1824 0.950 . S
C1834 C1835 1.386 . S
C1834 C1836 1.391 . S
C1835 C1834 1.386 . S
C1835 C1839 1.393 . S
C1836 H1825 0.950 . S
C1836 C1834 1.391 . S
C1836 C1837 1.400 . S
C1837 C1831 1.491 . S
C1837 C1836 1.400 . S
C1837 C1838 1.398 . S
C1838 H1826 0.950 . S
C1838 C1837 1.398 . S
C1838 C1839 1.391 . S
C1839 H1827 0.950 . S
C1839 C1835 1.393 . S
C1839 C1838 1.391 . S
H1840 C1848 0.950 . S
H1841 C1853 0.950 . S
H1842 C1850 0.950 . S
H1843 C1852 0.950 . S
H1844 C1854 0.950 . S
H1845 C1856 0.950 1_655 S
H1846 C1858 0.950 . S
H1847 C1859 0.950 . S
C1848 H1840 0.950 . S
C1848 C1849 1.386 1_455 S
C1848 C1850 1.391 . S
C1849 C1848 1.386 1_655 S
C1849 C1853 1.393 . S
C1850 H1842 0.950 . S
C1850 C1848 1.391 . S
C1850 C1851 1.400 . S
C1851 C1850 1.400 . S
C1851 C1852 1.398 1_455 S
C1851 C1857 1.491 . S
C1852 H1843 0.950 . S
C1852 C1851 1.398 1_655 S
C1852 C1853 1.391 . S
C1853 H1841 0.950 . S
C1853 C1849 1.393 . S
C1853 C1852 1.391 . S
C1854 H1844 0.950 . S
C1854 C1855 1.386 . S
C1854 C1856 1.391 . S
C1855 C1854 1.386 . S
C1855 C1859 1.393 . S
C1856 H1845 0.950 1_455 S
C1856 C1854 1.391 . S
C1856 C1857 1.400 . S
C1857 C1851 1.491 . S
C1857 C1856 1.400 . S
C1857 C1858 1.398 . S
C1858 H1846 0.950 . S
C1858 C1857 1.398 . S
C1858 C1859 1.391 . S
C1859 H1847 0.950 . S
C1859 C1855 1.393 . S
C1859 C1858 1.391 . S
H1860 C1868 0.950 . S
H1861 C1873 0.950 . S
H1862 C1870 0.950 . S
H1863 C1872 0.950 . S
H1864 C1874 0.950 . S
H1865 C1876 0.950 . S
H1866 C1878 0.950 . S
H1867 C1879 0.950 . S
C1868 H1860 0.950 . S
C1868 C1869 1.386 . S
C1868 C1870 1.391 . S
C1869 C1868 1.386 . S
C1869 C1873 1.393 . S
C1870 H1862 0.950 . S
C1870 C1868 1.391 . S
C1870 C1871 1.400 . S
C1871 C1870 1.400 . S
C1871 C1872 1.398 . S
C1871 C1877 1.491 . S
C1872 H1863 0.950 . S
C1872 C1871 1.398 . S
C1872 C1873 1.391 . S
C1873 H1861 0.950 . S
C1873 C1869 1.393 . S
C1873 C1872 1.391 . S
C1874 H1864 0.950 . S
C1874 C1875 1.386 . S
C1874 C1876 1.391 . S
C1875 C1874 1.386 . S
C1875 C1879 1.393 . S
C1876 H1865 0.950 . S
C1876 C1874 1.391 . S
C1876 C1877 1.400 . S
C1877 C1871 1.491 . S
C1877 C1876 1.400 . S
C1877 C1878 1.398 . S
C1878 H1866 0.950 . S
C1878 C1877 1.398 . S
C1878 C1879 1.391 . S
C1879 H1867 0.950 . S
C1879 C1875 1.393 . S
C1879 C1878 1.391 . S
H1880 C1888 0.950 . S
H1881 C1893 0.950 . S
H1882 C1890 0.950 . S
H1883 C1892 0.950 1_565 S
H1884 C1894 0.950 1_565 S
H1885 C1896 0.950 1_565 S
H1886 C1898 0.950 . S
H1887 C1899 0.950 . S
C1888 H1880 0.950 . S
C1888 C1889 1.386 . S
C1888 C1890 1.391 . S
C1889 C1888 1.386 . S
C1889 C1893 1.393 . S
C1890 H1882 0.950 . S
C1890 C1888 1.391 . S
C1890 C1891 1.400 . S
C1891 C1890 1.400 . S
C1891 C1892 1.398 . S
C1891 C1897 1.491 . S
C1892 H1883 0.950 1_545 S
C1892 C1891 1.398 . S
C1892 C1893 1.391 . S
C1893 H1881 0.950 . S
C1893 C1889 1.393 . S
C1893 C1892 1.391 . S
C1894 H1884 0.950 1_545 S
C1894 C1895 1.386 . S
C1894 C1896 1.391 . S
C1895 C1894 1.386 . S
C1895 C1899 1.393 . S
C1896 H1885 0.950 1_545 S
C1896 C1894 1.391 . S
C1896 C1897 1.400 . S
C1897 C1891 1.491 . S
C1897 C1896 1.400 . S
C1897 C1898 1.398 . S
C1898 H1886 0.950 . S
C1898 C1897 1.398 . S
C1898 C1899 1.391 . S
C1899 H1887 0.950 . S
C1899 C1895 1.393 . S
C1899 C1898 1.391 . S
H1900 C1908 0.950 . S
H1901 C1913 0.950 . S
H1902 C1910 0.950 . S
H1903 C1912 0.950 . S
H1904 C1914 0.950 . S
H1905 C1916 0.950 . S
H1906 C1918 0.950 . S
H1907 C1919 0.950 . S
C1908 H1900 0.950 . S
C1908 C1909 1.386 . S
C1908 C1910 1.391 . S
C1909 C1908 1.386 . S
C1909 C1913 1.393 . S
C1910 H1902 0.950 . S
C1910 C1908 1.391 . S
C1910 C1911 1.400 . S
C1911 C1910 1.400 . S
C1911 C1912 1.398 . S
C1911 C1917 1.491 . S
C1912 H1903 0.950 . S
C1912 C1911 1.398 . S
C1912 C1913 1.391 . S
C1913 H1901 0.950 . S
C1913 C1909 1.393 . S
C1913 C1912 1.391 . S
C1914 H1904 0.950 . S
C1914 C1915 1.386 . S
C1914 C1916 1.391 . S
C1915 C1914 1.386 . S
C1915 C1919 1.393 . S
C1916 H1905 0.950 . S
C1916 C1914 1.391 . S
C1916 C1917 1.400 . S
C1917 C1911 1.491 . S
C1917 C1916 1.400 . S
C1917 C1918 1.398 . S
C1918 H1906 0.950 . S
C1918 C1917 1.398 . S
C1918 C1919 1.391 . S
C1919 H1907 0.950 . S
C1919 C1915 1.393 . S
C1919 C1918 1.391 . S
H1920 C1928 0.950 . S
H1921 C1933 0.950 . S
H1922 C1930 0.950 . S
H1923 C1932 0.950 . S
H1924 C1934 0.950 . S
H1925 C1936 0.950 . S
H1926 C1938 0.950 1_655 S
H1927 C1939 0.950 . S
C1928 H1920 0.950 . S
C1928 C1929 1.386 . S
C1928 C1930 1.391 . S
C1929 C1928 1.386 . S
C1929 C1933 1.393 1_655 S
C1930 H1922 0.950 . S
C1930 C1928 1.391 . S
C1930 C1931 1.400 1_655 S
C1931 C1930 1.400 1_455 S
C1931 C1932 1.398 . S
C1931 C1937 1.491 . S
C1932 H1923 0.950 . S
C1932 C1931 1.398 . S
C1932 C1933 1.391 . S
C1933 H1921 0.950 . S
C1933 C1929 1.393 1_455 S
C1933 C1932 1.391 . S
C1934 H1924 0.950 . S
C1934 C1935 1.386 . S
C1934 C1936 1.391 . S
C1935 C1934 1.386 . S
C1935 C1939 1.393 . S
C1936 H1925 0.950 . S
C1936 C1934 1.391 . S
C1936 C1937 1.400 . S
C1937 C1931 1.491 . S
C1937 C1936 1.400 . S
C1937 C1938 1.398 . S
C1938 H1926 0.950 1_455 S
C1938 C1937 1.398 . S
C1938 C1939 1.391 . S
C1939 H1927 0.950 . S
C1939 C1935 1.393 . S
C1939 C1938 1.391 . S
H1940 C1948 0.950 . S
H1941 C1953 0.950 . S
H1942 C1950 0.950 . S
H1943 C1952 0.950 . S
H1944 C1954 0.950 . S
H1945 C1956 0.950 . S
H1946 C1958 0.950 . S
H1947 C1959 0.950 . S
C1948 H1940 0.950 . S
C1948 C1949 1.386 . S
C1948 C1950 1.391 . S
C1949 C1948 1.386 . S
C1949 C1953 1.393 . S
C1950 H1942 0.950 . S
C1950 C1948 1.391 . S
C1950 C1951 1.400 . S
C1951 C1950 1.400 . S
C1951 C1952 1.398 . S
C1951 C1957 1.491 . S
C1952 H1943 0.950 . S
C1952 C1951 1.398 . S
C1952 C1953 1.391 . S
C1953 H1941 0.950 . S
C1953 C1949 1.393 . S
C1953 C1952 1.391 . S
C1954 H1944 0.950 . S
C1954 C1955 1.386 . S
C1954 C1956 1.391 . S
C1955 C1954 1.386 . S
C1955 C1959 1.393 . S
C1956 H1945 0.950 . S
C1956 C1954 1.391 . S
C1956 C1957 1.400 . S
C1957 C1951 1.491 . S
C1957 C1956 1.400 . S
C1957 C1958 1.398 . S
C1958 H1946 0.950 . S
C1958 C1957 1.398 . S
C1958 C1959 1.391 . S
C1959 H1947 0.950 . S
C1959 C1955 1.393 . S
C1959 C1958 1.391 . S
H1960 C1968 0.950 . S
H1961 C1973 0.950 . S
H1962 C1970 0.950 . S
H1963 C1972 0.950 . S
H1964 C1974 0.950 . S
H1965 C1976 0.950 . S
H1966 C1978 0.950 . S
H1967 C1979 0.950 . S
C1968 H1960 0.950 . S
C1968 C1969 1.386 . S
C1968 C1970 1.391 . S
C1969 C1968 1.386 . S
C1969 C1973 1.393 . S
C1970 H1962 0.950 . S
C1970 C1968 1.391 . S
C1970 C1971 1.400 . S
C1971 C1970 1.400 . S
C1971 C1972 1.398 . S
C1971 C1977 1.491 . S
C1972 H1963 0.950 . S
C1972 C1971 1.398 . S
C1972 C1973 1.391 . S
C1973 H1961 0.950 . S
C1973 C1969 1.393 . S
C1973 C1972 1.391 . S
C1974 H1964 0.950 . S
C1974 C1975 1.386 . S
C1974 C1976 1.391 . S
C1975 C1974 1.386 . S
C1975 C1979 1.393 . S
C1976 H1965 0.950 . S
C1976 C1974 1.391 . S
C1976 C1977 1.400 . S
C1977 C1971 1.491 . S
C1977 C1976 1.400 . S
C1977 C1978 1.398 . S
C1978 H1966 0.950 . S
C1978 C1977 1.398 . S
C1978 C1979 1.391 . S
C1979 H1967 0.950 . S
C1979 C1975 1.393 . S
C1979 C1978 1.391 . S
H1980 C1988 0.950 . S
H1981 C1993 0.950 . S
H1982 C1990 0.950 . S
H1983 C1992 0.950 . S
H1984 C1994 0.950 . S
H1985 C1996 0.950 . S
H1986 C1998 0.950 . S
H1987 C1999 0.950 . S
C1988 H1980 0.950 . S
C1988 C1989 1.386 . S
C1988 C1990 1.391 . S
C1989 C1988 1.386 . S
C1989 C1993 1.393 . S
C1990 H1982 0.950 . S
C1990 C1988 1.391 . S
C1990 C1991 1.400 . S
C1991 C1990 1.400 . S
C1991 C1992 1.398 . S
C1991 C1997 1.491 . S
C1992 H1983 0.950 . S
C1992 C1991 1.398 . S
C1992 C1993 1.391 . S
C1993 H1981 0.950 . S
C1993 C1989 1.393 . S
C1993 C1992 1.391 . S
C1994 H1984 0.950 . S
C1994 C1995 1.386 . S
C1994 C1996 1.391 . S
C1995 C1994 1.386 . S
C1995 C1999 1.393 . S
C1996 H1985 0.950 . S
C1996 C1994 1.391 . S
C1996 C1997 1.400 . S
C1997 C1991 1.491 . S
C1997 C1996 1.400 . S
C1997 C1998 1.398 . S
C1998 H1986 0.950 . S
C1998 C1997 1.398 . S
C1998 C1999 1.391 . S
C1999 H1987 0.950 . S
C1999 C1995 1.393 . S
C1999 C1998 1.391 . S
H2000 C2008 0.950 . S
H2001 C2013 0.950 1_545 S
H2002 C2010 0.950 . S
H2003 C2012 0.950 . S
H2004 C2014 0.950 . S
H2005 C2016 0.950 . S
H2006 C2018 0.950 . S
H2007 C2019 0.950 . S
C2008 H2000 0.950 . S
C2008 C2009 1.386 . S
C2008 C2010 1.391 . S
C2009 C2008 1.386 . S
C2009 C2013 1.393 . S
C2010 H2002 0.950 . S
C2010 C2008 1.391 . S
C2010 C2011 1.400 . S
C2011 C2010 1.400 . S
C2011 C2012 1.398 1_565 S
C2011 C2017 1.491 . S
C2012 H2003 0.950 . S
C2012 C2011 1.398 1_545 S
C2012 C2013 1.391 1_545 S
C2013 H2001 0.950 1_565 S
C2013 C2009 1.393 . S
C2013 C2012 1.391 1_565 S
C2014 H2004 0.950 . S
C2014 C2015 1.386 . S
C2014 C2016 1.391 . S
C2015 C2014 1.386 . S
C2015 C2019 1.393 1_545 S
C2016 H2005 0.950 . S
C2016 C2014 1.391 . S
C2016 C2017 1.400 1_545 S
C2017 C2011 1.491 . S
C2017 C2016 1.400 1_565 S
C2017 C2018 1.398 . S
C2018 H2006 0.950 . S
C2018 C2017 1.398 . S
C2018 C2019 1.391 . S
C2019 H2007 0.950 . S
C2019 C2015 1.393 1_565 S
C2019 C2018 1.391 . S
H2020 C2028 0.950 . S
H2021 C2033 0.950 . S
H2022 C2030 0.950 . S
H2023 C2032 0.950 . S
H2024 C2034 0.950 . S
H2025 C2036 0.950 . S
H2026 C2038 0.950 . S
H2027 C2039 0.950 . S
C2028 H2020 0.950 . S
C2028 C2029 1.386 . S
C2028 C2030 1.391 . S
C2029 C2028 1.386 . S
C2029 C2033 1.393 1_556 S
C2030 H2022 0.950 . S
C2030 C2028 1.391 . S
C2030 C2031 1.400 . S
C2031 C2030 1.400 . S
C2031 C2032 1.398 1_556 S
C2031 C2037 1.491 . S
C2032 H2023 0.950 . S
C2032 C2031 1.398 1_554 S
C2032 C2033 1.391 . S
C2033 H2021 0.950 . S
C2033 C2029 1.393 1_554 S
C2033 C2032 1.391 . S
C2034 H2024 0.950 . S
C2034 C2035 1.386 1_554 S
C2034 C2036 1.391 . S
C2035 C2034 1.386 1_556 S
C2035 C2039 1.393 . S
C2036 H2025 0.950 . S
C2036 C2034 1.391 . S
C2036 C2037 1.400 1_554 S
C2037 C2031 1.491 . S
C2037 C2036 1.400 1_556 S
C2037 C2038 1.398 . S
C2038 H2026 0.950 . S
C2038 C2037 1.398 . S
C2038 C2039 1.391 . S
C2039 H2027 0.950 . S
C2039 C2035 1.393 . S
C2039 C2038 1.391 . S
H2040 C2048 0.950 . S
H2041 C2053 0.950 . S
H2042 C2050 0.950 . S
H2043 C2052 0.950 . S
H2044 C2054 0.950 . S
H2045 C2056 0.950 . S
H2046 C2058 0.950 . S
H2047 C2059 0.950 . S
C2048 H2040 0.950 . S
C2048 C2049 1.386 . S
C2048 C2050 1.391 . S
C2049 C2048 1.386 . S
C2049 C2053 1.393 . S
C2050 H2042 0.950 . S
C2050 C2048 1.391 . S
C2050 C2051 1.400 . S
C2051 C2050 1.400 . S
C2051 C2052 1.398 . S
C2051 C2057 1.491 . S
C2052 H2043 0.950 . S
C2052 C2051 1.398 . S
C2052 C2053 1.391 . S
C2053 H2041 0.950 . S
C2053 C2049 1.393 . S
C2053 C2052 1.391 . S
C2054 H2044 0.950 . S
C2054 C2055 1.386 . S
C2054 C2056 1.391 . S
C2055 C2054 1.386 . S
C2055 C2059 1.393 . S
C2056 H2045 0.950 . S
C2056 C2054 1.391 . S
C2056 C2057 1.400 . S
C2057 C2051 1.491 . S
C2057 C2056 1.400 . S
C2057 C2058 1.398 . S
C2058 H2046 0.950 . S
C2058 C2057 1.398 . S
C2058 C2059 1.391 . S
C2059 H2047 0.950 . S
C2059 C2055 1.393 . S
C2059 C2058 1.391 . S
H2060 C2068 0.950 . S
H2061 C2073 0.950 . S
H2062 C2070 0.950 . S
H2063 C2072 0.950 . S
H2064 C2074 0.950 1_455 S
H2065 C2076 0.950 . S
H2066 C2078 0.950 . S
H2067 C2079 0.950 . S
C2068 H2060 0.950 . S
C2068 C2069 1.386 . S
C2068 C2070 1.391 . S
C2069 C2068 1.386 . S
C2069 C2073 1.393 . S
C2070 H2062 0.950 . S
C2070 C2068 1.391 . S
C2070 C2071 1.400 . S
C2071 C2070 1.400 . S
C2071 C2072 1.398 . S
C2071 C2077 1.491 . S
C2072 H2063 0.950 . S
C2072 C2071 1.398 . S
C2072 C2073 1.391 . S
C2073 H2061 0.950 . S
C2073 C2069 1.393 . S
C2073 C2072 1.391 . S
C2074 H2064 0.950 1_655 S
C2074 C2075 1.386 1_655 S
C2074 C2076 1.391 . S
C2075 C2074 1.386 1_455 S
C2075 C2079 1.393 1_455 S
C2076 H2065 0.950 . S
C2076 C2074 1.391 . S
C2076 C2077 1.400 . S
C2077 C2071 1.491 . S
C2077 C2076 1.400 . S
C2077 C2078 1.398 . S
C2078 H2066 0.950 . S
C2078 C2077 1.398 . S
C2078 C2079 1.391 . S
C2079 H2067 0.950 . S
C2079 C2075 1.393 1_655 S
C2079 C2078 1.391 . S
H2080 C2088 0.950 . S
H2081 C2093 0.950 . S
H2082 C2090 0.950 . S
H2083 C2092 0.950 . S
H2084 C2094 0.950 . S
H2085 C2096 0.950 . S
H2086 C2098 0.950 . S
H2087 C2099 0.950 . S
C2088 H2080 0.950 . S
C2088 C2089 1.386 . S
C2088 C2090 1.391 . S
C2089 C2088 1.386 . S
C2089 C2093 1.393 . S
C2090 H2082 0.950 . S
C2090 C2088 1.391 . S
C2090 C2091 1.400 . S
C2091 C2090 1.400 . S
C2091 C2092 1.398 . S
C2091 C2097 1.491 . S
C2092 H2083 0.950 . S
C2092 C2091 1.398 . S
C2092 C2093 1.391 . S
C2093 H2081 0.950 . S
C2093 C2089 1.393 . S
C2093 C2092 1.391 . S
C2094 H2084 0.950 . S
C2094 C2095 1.386 . S
C2094 C2096 1.391 . S
C2095 C2094 1.386 . S
C2095 C2099 1.393 . S
C2096 H2085 0.950 . S
C2096 C2094 1.391 . S
C2096 C2097 1.400 . S
C2097 C2091 1.491 . S
C2097 C2096 1.400 . S
C2097 C2098 1.398 . S
C2098 H2086 0.950 . S
C2098 C2097 1.398 . S
C2098 C2099 1.391 . S
C2099 H2087 0.950 . S
C2099 C2095 1.393 . S
C2099 C2098 1.391 . S
H2100 C2108 0.950 . S
H2101 C2113 0.950 . S
H2102 C2110 0.950 . S
H2103 C2112 0.950 . S
H2104 C2114 0.950 . S
H2105 C2116 0.950 . S
H2106 C2118 0.950 . S
H2107 C2119 0.950 . S
C2108 H2100 0.950 . S
C2108 C2109 1.386 . S
C2108 C2110 1.391 . S
C2109 C2108 1.386 . S
C2109 C2113 1.393 . S
C2110 H2102 0.950 . S
C2110 C2108 1.391 . S
C2110 C2111 1.400 . S
C2111 C2110 1.400 . S
C2111 C2112 1.398 . S
C2111 C2117 1.491 . S
C2112 H2103 0.950 . S
C2112 C2111 1.398 . S
C2112 C2113 1.391 . S
C2113 H2101 0.950 . S
C2113 C2109 1.393 . S
C2113 C2112 1.391 . S
C2114 H2104 0.950 . S
C2114 C2115 1.386 . S
C2114 C2116 1.391 . S
C2115 C2114 1.386 . S
C2115 C2119 1.393 . S
C2116 H2105 0.950 . S
C2116 C2114 1.391 . S
C2116 C2117 1.400 . S
C2117 C2111 1.491 . S
C2117 C2116 1.400 . S
C2117 C2118 1.398 . S
C2118 H2106 0.950 . S
C2118 C2117 1.398 . S
C2118 C2119 1.391 . S
C2119 H2107 0.950 . S
C2119 C2115 1.393 . S
C2119 C2118 1.391 . S
H2120 C2128 0.950 . S
H2121 C2133 0.950 . S
H2122 C2130 0.950 . S
H2123 C2132 0.950 . S
H2124 C2134 0.950 . S
H2125 C2136 0.950 . S
H2126 C2138 0.950 . S
H2127 C2139 0.950 . S
C2128 H2120 0.950 . S
C2128 C2129 1.386 . S
C2128 C2130 1.391 . S
C2129 C2128 1.386 . S
C2129 C2133 1.393 . S
C2130 H2122 0.950 . S
C2130 C2128 1.391 . S
C2130 C2131 1.400 . S
C2131 C2130 1.400 . S
C2131 C2132 1.398 . S
C2131 C2137 1.491 . S
C2132 H2123 0.950 . S
C2132 C2131 1.398 . S
C2132 C2133 1.391 . S
C2133 H2121 0.950 . S
C2133 C2129 1.393 . S
C2133 C2132 1.391 . S
C2134 H2124 0.950 . S
C2134 C2135 1.386 . S
C2134 C2136 1.391 . S
C2135 C2134 1.386 . S
C2135 C2139 1.393 . S
C2136 H2125 0.950 . S
C2136 C2134 1.391 . S
C2136 C2137 1.400 . S
C2137 C2131 1.491 . S
C2137 C2136 1.400 . S
C2137 C2138 1.398 . S
C2138 H2126 0.950 . S
C2138 C2137 1.398 . S
C2138 C2139 1.391 . S
C2139 H2127 0.950 . S
C2139 C2135 1.393 . S
C2139 C2138 1.391 . S
H2140 C2148 0.950 . S
H2141 C2153 0.950 . S
H2142 C2150 0.950 . S
H2143 C2152 0.950 . S
H2144 C2154 0.950 . S
H2145 C2156 0.950 . S
H2146 C2158 0.950 . S
H2147 C2159 0.950 . S
C2148 H2140 0.950 . S
C2148 C2149 1.386 . S
C2148 C2150 1.391 . S
C2149 C2148 1.386 . S
C2149 C2153 1.393 . S
C2150 H2142 0.950 . S
C2150 C2148 1.391 . S
C2150 C2151 1.400 . S
C2151 C2150 1.400 . S
C2151 C2152 1.398 . S
C2151 C2157 1.491 . S
C2152 H2143 0.950 . S
C2152 C2151 1.398 . S
C2152 C2153 1.391 . S
C2153 H2141 0.950 . S
C2153 C2149 1.393 . S
C2153 C2152 1.391 . S
C2154 H2144 0.950 . S
C2154 C2155 1.386 . S
C2154 C2156 1.391 . S
C2155 C2154 1.386 . S
C2155 C2159 1.393 . S
C2156 H2145 0.950 . S
C2156 C2154 1.391 . S
C2156 C2157 1.400 . S
C2157 C2151 1.491 . S
C2157 C2156 1.400 . S
C2157 C2158 1.398 . S
C2158 H2146 0.950 . S
C2158 C2157 1.398 . S
C2158 C2159 1.391 . S
C2159 H2147 0.950 . S
C2159 C2155 1.393 . S
C2159 C2158 1.391 . S
H2160 C2168 0.950 . S
H2161 C2173 0.950 . S
H2162 C2170 0.950 . S
H2163 C2172 0.950 . S
H2164 C2174 0.950 . S
H2165 C2176 0.950 . S
H2166 C2178 0.950 . S
H2167 C2179 0.950 . S
C2168 H2160 0.950 . S
C2168 C2169 1.386 . S
C2168 C2170 1.391 . S
C2169 C2168 1.386 . S
C2169 C2173 1.393 . S
C2170 H2162 0.950 . S
C2170 C2168 1.391 . S
C2170 C2171 1.400 . S
C2171 C2170 1.400 . S
C2171 C2172 1.398 . S
C2171 C2177 1.491 . S
C2172 H2163 0.950 . S
C2172 C2171 1.398 . S
C2172 C2173 1.391 . S
C2173 H2161 0.950 . S
C2173 C2169 1.393 . S
C2173 C2172 1.391 . S
C2174 H2164 0.950 . S
C2174 C2175 1.386 . S
C2174 C2176 1.391 . S
C2175 C2174 1.386 . S
C2175 C2179 1.393 . S
C2176 H2165 0.950 . S
C2176 C2174 1.391 . S
C2176 C2177 1.400 . S
C2177 C2171 1.491 . S
C2177 C2176 1.400 . S
C2177 C2178 1.398 . S
C2178 H2166 0.950 . S
C2178 C2177 1.398 . S
C2178 C2179 1.391 . S
C2179 H2167 0.950 . S
C2179 C2175 1.393 . S
C2179 C2178 1.391 . S
H2180 C2188 0.950 . S
H2181 C2193 0.950 . S
H2182 C2190 0.950 . S
H2183 C2192 0.950 . S
H2184 C2194 0.950 . S
H2185 C2196 0.950 . S
H2186 C2198 0.950 . S
H2187 C2199 0.950 . S
C2188 H2180 0.950 . S
C2188 C2189 1.386 . S
C2188 C2190 1.391 . S
C2189 C2188 1.386 . S
C2189 C2193 1.393 . S
C2190 H2182 0.950 . S
C2190 C2188 1.391 . S
C2190 C2191 1.400 . S
C2191 C2190 1.400 . S
C2191 C2192 1.398 . S
C2191 C2197 1.491 . S
C2192 H2183 0.950 . S
C2192 C2191 1.398 . S
C2192 C2193 1.391 . S
C2193 H2181 0.950 . S
C2193 C2189 1.393 . S
C2193 C2192 1.391 . S
C2194 H2184 0.950 . S
C2194 C2195 1.386 . S
C2194 C2196 1.391 . S
C2195 C2194 1.386 . S
C2195 C2199 1.393 . S
C2196 H2185 0.950 . S
C2196 C2194 1.391 . S
C2196 C2197 1.400 . S
C2197 C2191 1.491 . S
C2197 C2196 1.400 . S
C2197 C2198 1.398 . S
C2198 H2186 0.950 . S
C2198 C2197 1.398 . S
C2198 C2199 1.391 . S
C2199 H2187 0.950 . S
C2199 C2195 1.393 . S
C2199 C2198 1.391 . S
H2200 C2208 0.950 . S
H2201 C2213 0.950 . S
H2202 C2210 0.950 . S
H2203 C2212 0.950 . S
H2204 C2214 0.950 . S
H2205 C2216 0.950 . S
H2206 C2218 0.950 . S
H2207 C2219 0.950 . S
C2208 H2200 0.950 . S
C2208 C2209 1.386 . S
C2208 C2210 1.391 . S
C2209 C2208 1.386 . S
C2209 C2213 1.393 . S
C2210 H2202 0.950 . S
C2210 C2208 1.391 . S
C2210 C2211 1.400 . S
C2211 C2210 1.400 . S
C2211 C2212 1.398 . S
C2211 C2217 1.491 . S
C2212 H2203 0.950 . S
C2212 C2211 1.398 . S
C2212 C2213 1.391 . S
C2213 H2201 0.950 . S
C2213 C2209 1.393 . S
C2213 C2212 1.391 . S
C2214 H2204 0.950 . S
C2214 C2215 1.386 . S
C2214 C2216 1.391 . S
C2215 C2214 1.386 . S
C2215 C2219 1.393 . S
C2216 H2205 0.950 . S
C2216 C2214 1.391 . S
C2216 C2217 1.400 . S
C2217 C2211 1.491 . S
C2217 C2216 1.400 . S
C2217 C2218 1.398 . S
C2218 H2206 0.950 . S
C2218 C2217 1.398 . S
C2218 C2219 1.391 . S
C2219 H2207 0.950 . S
C2219 C2215 1.393 . S
C2219 C2218 1.391 . S
H2220 C2228 0.950 . S
H2221 C2233 0.950 . S
H2222 C2230 0.950 . S
H2223 C2232 0.950 . S
H2224 C2234 0.950 . S
H2225 C2236 0.950 . S
H2226 C2238 0.950 . S
H2227 C2239 0.950 . S
C2228 H2220 0.950 . S
C2228 C2229 1.386 . S
C2228 C2230 1.391 . S
C2229 C2228 1.386 . S
C2229 C2233 1.393 . S
C2230 H2222 0.950 . S
C2230 C2228 1.391 . S
C2230 C2231 1.400 . S
C2231 C2230 1.400 . S
C2231 C2232 1.398 . S
C2231 C2237 1.491 . S
C2232 H2223 0.950 . S
C2232 C2231 1.398 . S
C2232 C2233 1.391 . S
C2233 H2221 0.950 . S
C2233 C2229 1.393 . S
C2233 C2232 1.391 . S
C2234 H2224 0.950 . S
C2234 C2235 1.386 . S
C2234 C2236 1.391 . S
C2235 C2234 1.386 . S
C2235 C2239 1.393 . S
C2236 H2225 0.950 . S
C2236 C2234 1.391 . S
C2236 C2237 1.400 . S
C2237 C2231 1.491 . S
C2237 C2236 1.400 . S
C2237 C2238 1.398 . S
C2238 H2226 0.950 . S
C2238 C2237 1.398 . S
C2238 C2239 1.391 . S
C2239 H2227 0.950 . S
C2239 C2235 1.393 . S
C2239 C2238 1.391 . S
H2240 C2248 0.950 . S
H2241 C2253 0.950 . S
H2242 C2250 0.950 . S
H2243 C2252 0.950 . S
H2244 C2254 0.950 . S
H2245 C2256 0.950 . S
H2246 C2258 0.950 . S
H2247 C2259 0.950 . S
C2248 H2240 0.950 . S
C2248 C2249 1.386 . S
C2248 C2250 1.391 . S
C2249 C2248 1.386 . S
C2249 C2253 1.393 . S
C2250 H2242 0.950 . S
C2250 C2248 1.391 . S
C2250 C2251 1.400 . S
C2251 C2250 1.400 . S
C2251 C2252 1.398 . S
C2251 C2257 1.491 . S
C2252 H2243 0.950 . S
C2252 C2251 1.398 . S
C2252 C2253 1.391 . S
C2253 H2241 0.950 . S
C2253 C2249 1.393 . S
C2253 C2252 1.391 . S
C2254 H2244 0.950 . S
C2254 C2255 1.386 . S
C2254 C2256 1.391 . S
C2255 C2254 1.386 . S
C2255 C2259 1.393 . S
C2256 H2245 0.950 . S
C2256 C2254 1.391 . S
C2256 C2257 1.400 . S
C2257 C2251 1.491 . S
C2257 C2256 1.400 . S
C2257 C2258 1.398 . S
C2258 H2246 0.950 . S
C2258 C2257 1.398 . S
C2258 C2259 1.391 . S
C2259 H2247 0.950 . S
C2259 C2255 1.393 . S
C2259 C2258 1.391 . S
H2260 C2268 0.950 . S
H2261 C2273 0.950 . S
H2262 C2270 0.950 . S
H2263 C2272 0.950 . S
H2264 C2274 0.950 . S
H2265 C2276 0.950 . S
H2266 C2278 0.950 . S
H2267 C2279 0.950 . S
C2268 H2260 0.950 . S
C2268 C2269 1.386 . S
C2268 C2270 1.391 . S
C2269 C2268 1.386 . S
C2269 C2273 1.393 . S
C2270 H2262 0.950 . S
C2270 C2268 1.391 . S
C2270 C2271 1.400 . S
C2271 C2270 1.400 . S
C2271 C2272 1.398 . S
C2271 C2277 1.491 . S
C2272 H2263 0.950 . S
C2272 C2271 1.398 . S
C2272 C2273 1.391 . S
C2273 H2261 0.950 . S
C2273 C2269 1.393 . S
C2273 C2272 1.391 . S
C2274 H2264 0.950 . S
C2274 C2275 1.386 . S
C2274 C2276 1.391 . S
C2275 C2274 1.386 . S
C2275 C2279 1.393 . S
C2276 H2265 0.950 . S
C2276 C2274 1.391 . S
C2276 C2277 1.400 . S
C2277 C2271 1.491 . S
C2277 C2276 1.400 . S
C2277 C2278 1.398 . S
C2278 H2266 0.950 . S
C2278 C2277 1.398 . S
C2278 C2279 1.391 . S
C2279 H2267 0.950 . S
C2279 C2275 1.393 . S
C2279 C2278 1.391 . S
H2280 C2288 0.950 . S
H2281 C2293 0.950 . S
H2282 C2290 0.950 . S
H2283 C2292 0.950 . S
H2284 C2294 0.950 1_545 S
H2285 C2296 0.950 . S
H2286 C2298 0.950 . S
H2287 C2299 0.950 . S
C2288 H2280 0.950 . S
C2288 C2289 1.386 . S
C2288 C2290 1.391 . S
C2289 C2288 1.386 . S
C2289 C2293 1.393 . S
C2290 H2282 0.950 . S
C2290 C2288 1.391 . S
C2290 C2291 1.400 . S
C2291 C2290 1.400 . S
C2291 C2292 1.398 . S
C2291 C2297 1.491 . S
C2292 H2283 0.950 . S
C2292 C2291 1.398 . S
C2292 C2293 1.391 . S
C2293 H2281 0.950 . S
C2293 C2289 1.393 . S
C2293 C2292 1.391 . S
C2294 H2284 0.950 1_565 S
C2294 C2295 1.386 . S
C2294 C2296 1.391 . S
C2295 C2294 1.386 . S
C2295 C2299 1.393 . S
C2296 H2285 0.950 . S
C2296 C2294 1.391 . S
C2296 C2297 1.400 . S
C2297 C2291 1.491 . S
C2297 C2296 1.400 . S
C2297 C2298 1.398 . S
C2298 H2286 0.950 . S
C2298 C2297 1.398 . S
C2298 C2299 1.391 . S
C2299 H2287 0.950 . S
C2299 C2295 1.393 . S
C2299 C2298 1.391 . S
H2300 C2308 0.950 . S
H2301 C2313 0.950 . S
H2302 C2310 0.950 . S
H2303 C2312 0.950 . S
H2304 C2314 0.950 . S
H2305 C2316 0.950 . S
H2306 C2318 0.950 . S
H2307 C2319 0.950 . S
C2308 H2300 0.950 . S
C2308 C2309 1.386 . S
C2308 C2310 1.391 . S
C2309 C2308 1.386 . S
C2309 C2313 1.393 . S
C2310 H2302 0.950 . S
C2310 C2308 1.391 . S
C2310 C2311 1.400 . S
C2311 C2310 1.400 . S
C2311 C2312 1.398 . S
C2311 C2317 1.491 . S
C2312 H2303 0.950 . S
C2312 C2311 1.398 . S
C2312 C2313 1.391 . S
C2313 H2301 0.950 . S
C2313 C2309 1.393 . S
C2313 C2312 1.391 . S
C2314 H2304 0.950 . S
C2314 C2315 1.386 . S
C2314 C2316 1.391 . S
C2315 C2314 1.386 . S
C2315 C2319 1.393 . S
C2316 H2305 0.950 . S
C2316 C2314 1.391 . S
C2316 C2317 1.400 . S
C2317 C2311 1.491 . S
C2317 C2316 1.400 . S
C2317 C2318 1.398 . S
C2318 H2306 0.950 . S
C2318 C2317 1.398 . S
C2318 C2319 1.391 . S
C2319 H2307 0.950 . S
C2319 C2315 1.393 . S
C2319 C2318 1.391 . S
H2320 C2328 0.950 1_565 S
H2321 C2333 0.950 . S
H2322 C2330 0.950 1_565 S
H2323 C2332 0.950 . S
H2324 C2334 0.950 . S
H2325 C2336 0.950 . S
H2326 C2338 0.950 1_565 S
H2327 C2339 0.948 . S
C2328 H2320 0.950 1_545 S
C2328 C2329 1.386 . S
C2328 C2330 1.391 . S
C2329 C2328 1.386 . S
C2329 C2333 1.393 . S
C2330 H2322 0.950 1_545 S
C2330 C2328 1.391 . S
C2330 C2331 1.400 . S
C2331 C2330 1.400 . S
C2331 C2332 1.398 . S
C2331 C2337 1.491 . S
C2332 H2323 0.950 . S
C2332 C2331 1.398 . S
C2332 C2333 1.391 . S
C2333 H2321 0.950 . S
C2333 C2329 1.393 . S
C2333 C2332 1.391 . S
C2334 H2324 0.950 . S
C2334 C2335 1.386 . S
C2334 C2336 1.391 . S
C2335 C2334 1.386 . S
C2335 C2339 1.393 . S
C2336 H2325 0.950 . S
C2336 C2334 1.391 . S
C2336 C2337 1.400 . S
C2337 C2331 1.491 . S
C2337 C2336 1.400 . S
C2337 C2338 1.398 . S
C2338 H2326 0.950 1_545 S
C2338 C2337 1.398 . S
C2338 C2339 1.391 . S
C2339 H2327 0.948 . S
C2339 C2335 1.393 . S
C2339 C2338 1.391 . S
H2340 C2348 0.950 . S
H2341 C2353 0.950 . S
H2342 C2350 0.950 . S
H2343 C2352 0.950 . S
H2344 C2354 0.950 . S
H2345 C2356 0.950 . S
H2346 C2358 0.950 . S
H2347 C2359 0.950 . S
C2348 H2340 0.950 . S
C2348 C2349 1.386 . S
C2348 C2350 1.391 . S
C2349 C2348 1.386 . S
C2349 C2353 1.393 . S
C2350 H2342 0.950 . S
C2350 C2348 1.391 . S
C2350 C2351 1.400 . S
C2351 C2350 1.400 . S
C2351 C2352 1.398 . S
C2351 C2357 1.491 . S
C2352 H2343 0.950 . S
C2352 C2351 1.398 . S
C2352 C2353 1.391 . S
C2353 H2341 0.950 . S
C2353 C2349 1.393 . S
C2353 C2352 1.391 . S
C2354 H2344 0.950 . S
C2354 C2355 1.386 . S
C2354 C2356 1.391 . S
C2355 C2354 1.386 . S
C2355 C2359 1.393 . S
C2356 H2345 0.950 . S
C2356 C2354 1.391 . S
C2356 C2357 1.400 . S
C2357 C2351 1.491 . S
C2357 C2356 1.400 . S
C2357 C2358 1.398 . S
C2358 H2346 0.950 . S
C2358 C2357 1.398 . S
C2358 C2359 1.391 . S
C2359 H2347 0.950 . S
C2359 C2355 1.393 . S
C2359 C2358 1.391 . S
H2360 C2368 0.950 1_565 S
H2361 C2373 0.950 . S
H2362 C2370 0.950 . S
H2363 C2372 0.950 . S
H2364 C2374 0.950 . S
H2365 C2376 0.950 . S
H2366 C2378 0.950 . S
H2367 C2379 0.950 . S
C2368 H2360 0.950 1_545 S
C2368 C2369 1.386 . S
C2368 C2370 1.391 . S
C2369 C2368 1.386 . S
C2369 C2373 1.393 . S
C2370 H2362 0.950 . S
C2370 C2368 1.391 . S
C2370 C2371 1.400 . S
C2371 C2370 1.400 . S
C2371 C2372 1.398 . S
C2371 C2377 1.491 . S
C2372 H2363 0.950 . S
C2372 C2371 1.398 . S
C2372 C2373 1.391 . S
C2373 H2361 0.950 . S
C2373 C2369 1.393 . S
C2373 C2372 1.391 . S
C2374 H2364 0.950 . S
C2374 C2375 1.386 . S
C2374 C2376 1.391 . S
C2375 C2374 1.386 . S
C2375 C2379 1.393 . S
C2376 H2365 0.950 . S
C2376 C2374 1.391 . S
C2376 C2377 1.400 . S
C2377 C2371 1.491 . S
C2377 C2376 1.400 . S
C2377 C2378 1.398 . S
C2378 H2366 0.950 . S
C2378 C2377 1.398 . S
C2378 C2379 1.391 . S
C2379 H2367 0.950 . S
C2379 C2375 1.393 . S
C2379 C2378 1.391 . S
H2380 C2388 0.950 . S
H2381 C2393 0.950 . S
H2382 C2390 0.950 . S
H2383 C2392 0.950 . S
H2384 C2394 0.950 . S
H2385 C2396 0.950 . S
H2386 C2398 0.950 . S
H2387 C2399 0.950 . S
C2388 H2380 0.950 . S
C2388 C2389 1.386 . S
C2388 C2390 1.391 . S
C2389 C2388 1.386 . S
C2389 C2393 1.393 . S
C2390 H2382 0.950 . S
C2390 C2388 1.391 . S
C2390 C2391 1.400 . S
C2391 C2390 1.400 . S
C2391 C2392 1.398 . S
C2391 C2397 1.491 . S
C2392 H2383 0.950 . S
C2392 C2391 1.398 . S
C2392 C2393 1.391 . S
C2393 H2381 0.950 . S
C2393 C2389 1.393 . S
C2393 C2392 1.391 . S
C2394 H2384 0.950 . S
C2394 C2395 1.386 . S
C2394 C2396 1.391 . S
C2395 C2394 1.386 . S
C2395 C2399 1.393 . S
C2396 H2385 0.950 . S
C2396 C2394 1.391 . S
C2396 C2397 1.400 . S
C2397 C2391 1.491 . S
C2397 C2396 1.400 . S
C2397 C2398 1.398 . S
C2398 H2386 0.950 . S
C2398 C2397 1.398 . S
C2398 C2399 1.391 . S
C2399 H2387 0.950 . S
C2399 C2395 1.393 . S
C2399 C2398 1.391 . S
H2400 C2408 0.950 . S
H2401 C2413 0.950 . S
H2402 C2410 0.950 . S
H2403 C2412 0.950 . S
H2404 C2414 0.950 . S
H2405 C2416 0.950 . S
H2406 C2418 0.950 . S
H2407 C2419 0.950 . S
C2408 H2400 0.950 . S
C2408 C2409 1.386 1_545 S
C2408 C2410 1.391 . S
C2409 C2408 1.386 1_565 S
C2409 C2413 1.393 . S
C2410 H2402 0.950 . S
C2410 C2408 1.391 . S
C2410 C2411 1.400 . S
C2411 C2410 1.400 . S
C2411 C2412 1.398 . S
C2411 C2417 1.491 . S
C2412 H2403 0.950 . S
C2412 C2411 1.398 . S
C2412 C2413 1.391 1_545 S
C2413 H2401 0.950 . S
C2413 C2409 1.393 . S
C2413 C2412 1.391 1_565 S
C2414 H2404 0.950 . S
C2414 C2415 1.386 . S
C2414 C2416 1.391 . S
C2415 C2414 1.386 . S
C2415 C2419 1.393 . S
C2416 H2405 0.950 . S
C2416 C2414 1.391 . S
C2416 C2417 1.400 . S
C2417 C2411 1.491 . S
C2417 C2416 1.400 . S
C2417 C2418 1.398 . S
C2418 H2406 0.950 . S
C2418 C2417 1.398 . S
C2418 C2419 1.391 . S
C2419 H2407 0.950 . S
C2419 C2415 1.393 . S
C2419 C2418 1.391 . S
H2420 C2428 0.950 . S
H2421 C2433 0.950 . S
H2422 C2430 0.950 . S
H2423 C2432 0.950 . S
H2424 C2434 0.950 . S
H2425 C2436 0.950 . S
H2426 C2438 0.950 . S
H2427 C2439 0.950 . S
C2428 H2420 0.950 . S
C2428 C2429 1.386 . S
C2428 C2430 1.391 . S
C2429 C2428 1.386 . S
C2429 C2433 1.393 . S
C2430 H2422 0.950 . S
C2430 C2428 1.391 . S
C2430 C2431 1.400 . S
C2431 C2430 1.400 . S
C2431 C2432 1.398 . S
C2431 C2437 1.491 . S
C2432 H2423 0.950 . S
C2432 C2431 1.398 . S
C2432 C2433 1.391 . S
C2433 H2421 0.950 . S
C2433 C2429 1.393 . S
C2433 C2432 1.391 . S
C2434 H2424 0.950 . S
C2434 C2435 1.386 . S
C2434 C2436 1.391 . S
C2435 C2434 1.386 . S
C2435 C2439 1.393 . S
C2436 H2425 0.950 . S
C2436 C2434 1.391 . S
C2436 C2437 1.400 . S
C2437 C2431 1.491 . S
C2437 C2436 1.400 . S
C2437 C2438 1.398 . S
C2438 H2426 0.950 . S
C2438 C2437 1.398 . S
C2438 C2439 1.391 . S
C2439 H2427 0.950 . S
C2439 C2435 1.393 . S
C2439 C2438 1.391 . S
H2440 C2448 0.950 . S
H2441 C2453 0.950 . S
H2442 C2450 0.950 . S
H2443 C2452 0.951 . S
H2444 C2454 0.950 1_565 S
H2445 C2456 0.950 1_565 S
H2446 C2458 0.950 . S
H2447 C2459 0.950 . S
C2448 H2440 0.950 . S
C2448 C2449 1.386 . S
C2448 C2450 1.391 . S
C2449 C2448 1.386 . S
C2449 C2453 1.393 1_545 S
C2450 H2442 0.950 . S
C2450 C2448 1.391 . S
C2450 C2451 1.400 . S
C2451 C2450 1.400 . S
C2451 C2452 1.397 1_545 S
C2451 C2457 1.491 . S
C2452 H2443 0.951 . S
C2452 C2451 1.397 1_565 S
C2452 C2453 1.391 . S
C2453 H2441 0.950 . S
C2453 C2449 1.393 1_565 S
C2453 C2452 1.391 . S
C2454 H2444 0.950 1_545 S
C2454 C2455 1.386 . S
C2454 C2456 1.391 . S
C2455 C2454 1.386 . S
C2455 C2459 1.393 . S
C2456 H2445 0.950 1_545 S
C2456 C2454 1.391 . S
C2456 C2457 1.400 . S
C2457 C2451 1.491 . S
C2457 C2456 1.400 . S
C2457 C2458 1.398 . S
C2458 H2446 0.950 . S
C2458 C2457 1.398 . S
C2458 C2459 1.391 . S
C2459 H2447 0.950 . S
C2459 C2455 1.393 . S
C2459 C2458 1.391 . S
H2460 C2468 0.950 . S
H2461 C2473 0.950 . S
H2462 C2470 0.950 . S
H2463 C2472 0.950 . S
H2464 C2474 0.950 . S
H2465 C2476 0.950 . S
H2466 C2478 0.950 . S
H2467 C2479 0.950 . S
C2468 H2460 0.950 . S
C2468 C2469 1.386 . S
C2468 C2470 1.391 . S
C2469 C2468 1.386 . S
C2469 C2473 1.393 . S
C2470 H2462 0.950 . S
C2470 C2468 1.391 . S
C2470 C2471 1.400 . S
C2471 C2470 1.400 . S
C2471 C2472 1.398 . S
C2471 C2477 1.491 . S
C2472 H2463 0.950 . S
C2472 C2471 1.398 . S
C2472 C2473 1.391 . S
C2473 H2461 0.950 . S
C2473 C2469 1.393 . S
C2473 C2472 1.391 . S
C2474 H2464 0.950 . S
C2474 C2475 1.386 . S
C2474 C2476 1.391 . S
C2475 C2474 1.386 . S
C2475 C2479 1.393 . S
C2476 H2465 0.950 . S
C2476 C2474 1.391 . S
C2476 C2477 1.400 . S
C2477 C2471 1.491 . S
C2477 C2476 1.400 . S
C2477 C2478 1.398 . S
C2478 H2466 0.950 . S
C2478 C2477 1.398 . S
C2478 C2479 1.391 . S
C2479 H2467 0.950 . S
C2479 C2475 1.393 . S
C2479 C2478 1.391 . S
H2480 C2488 0.950 1_556 S
H2481 C2493 0.950 . S
H2482 C2490 0.950 1_556 S
H2483 C2492 0.950 . S
H2484 C2494 0.950 . S
H2485 C2496 0.950 . S
H2486 C2498 0.950 . S
H2487 C2499 0.950 . S
C2488 H2480 0.950 1_554 S
C2488 C2489 1.386 . S
C2488 C2490 1.391 . S
C2489 C2488 1.386 . S
C2489 C2493 1.393 . S
C2490 H2482 0.950 1_554 S
C2490 C2488 1.391 . S
C2490 C2491 1.400 . S
C2491 C2490 1.400 . S
C2491 C2492 1.398 . S
C2491 C2497 1.491 . S
C2492 H2483 0.950 . S
C2492 C2491 1.398 . S
C2492 C2493 1.391 . S
C2493 H2481 0.950 . S
C2493 C2489 1.393 . S
C2493 C2492 1.391 . S
C2494 H2484 0.950 . S
C2494 C2495 1.386 . S
C2494 C2496 1.391 . S
C2495 C2494 1.386 . S
C2495 C2499 1.393 1_554 S
C2496 H2485 0.950 . S
C2496 C2494 1.391 . S
C2496 C2497 1.400 . S
C2497 C2491 1.491 . S
C2497 C2496 1.400 . S
C2497 C2498 1.398 1_554 S
C2498 H2486 0.950 . S
C2498 C2497 1.398 1_556 S
C2498 C2499 1.391 . S
C2499 H2487 0.950 . S
C2499 C2495 1.393 1_556 S
C2499 C2498 1.391 . S
H2500 C2508 0.950 . S
H2501 C2513 0.950 . S
H2502 C2510 0.950 . S
H2503 C2512 0.950 . S
H2504 C2514 0.950 . S
H2505 C2516 0.950 . S
H2506 C2518 0.950 . S
H2507 C2519 0.950 . S
C2508 H2500 0.950 . S
C2508 C2509 1.386 . S
C2508 C2510 1.391 . S
C2509 C2508 1.386 . S
C2509 C2513 1.393 . S
C2510 H2502 0.950 . S
C2510 C2508 1.391 . S
C2510 C2511 1.400 . S
C2511 C2510 1.400 . S
C2511 C2512 1.398 . S
C2511 C2517 1.491 . S
C2512 H2503 0.950 . S
C2512 C2511 1.398 . S
C2512 C2513 1.391 . S
C2513 H2501 0.950 . S
C2513 C2509 1.393 . S
C2513 C2512 1.391 . S
C2514 H2504 0.950 . S
C2514 C2515 1.386 . S
C2514 C2516 1.391 . S
C2515 C2514 1.386 . S
C2515 C2519 1.393 . S
C2516 H2505 0.950 . S
C2516 C2514 1.391 . S
C2516 C2517 1.400 . S
C2517 C2511 1.491 . S
C2517 C2516 1.400 . S
C2517 C2518 1.398 . S
C2518 H2506 0.950 . S
C2518 C2517 1.398 . S
C2518 C2519 1.391 . S
C2519 H2507 0.950 . S
C2519 C2515 1.393 . S
C2519 C2518 1.391 . S
H2520 C2528 0.950 . S
H2521 C2533 0.950 . S
H2522 C2530 0.950 . S
H2523 C2532 0.950 . S
H2524 C2534 0.950 . S
H2525 C2536 0.950 . S
H2526 C2538 0.950 . S
H2527 C2539 0.950 . S
C2528 H2520 0.950 . S
C2528 C2529 1.386 . S
C2528 C2530 1.391 . S
C2529 C2528 1.386 . S
C2529 C2533 1.393 . S
C2530 H2522 0.950 . S
C2530 C2528 1.391 . S
C2530 C2531 1.400 . S
C2531 C2530 1.400 . S
C2531 C2532 1.398 . S
C2531 C2537 1.491 . S
C2532 H2523 0.950 . S
C2532 C2531 1.398 . S
C2532 C2533 1.391 . S
C2533 H2521 0.950 . S
C2533 C2529 1.393 . S
C2533 C2532 1.391 . S
C2534 H2524 0.950 . S
C2534 C2535 1.386 . S
C2534 C2536 1.391 . S
C2535 C2534 1.386 . S
C2535 C2539 1.393 . S
C2536 H2525 0.950 . S
C2536 C2534 1.391 . S
C2536 C2537 1.400 . S
C2537 C2531 1.491 . S
C2537 C2536 1.400 . S
C2537 C2538 1.398 . S
C2538 H2526 0.950 . S
C2538 C2537 1.398 . S
C2538 C2539 1.391 . S
C2539 H2527 0.950 . S
C2539 C2535 1.393 . S
C2539 C2538 1.391 . S
H2540 C2548 0.950 . S
H2541 C2553 0.950 . S
H2542 C2550 0.950 . S
H2543 C2552 0.950 . S
H2544 C2554 0.950 . S
H2545 C2556 0.950 . S
H2546 C2558 0.950 . S
H2547 C2559 0.950 . S
C2548 H2540 0.950 . S
C2548 C2549 1.386 . S
C2548 C2550 1.391 . S
C2549 C2548 1.386 . S
C2549 C2553 1.393 . S
C2550 H2542 0.950 . S
C2550 C2548 1.391 . S
C2550 C2551 1.400 . S
C2551 C2550 1.400 . S
C2551 C2552 1.398 . S
C2551 C2557 1.491 . S
C2552 H2543 0.950 . S
C2552 C2551 1.398 . S
C2552 C2553 1.391 . S
C2553 H2541 0.950 . S
C2553 C2549 1.393 . S
C2553 C2552 1.391 . S
C2554 H2544 0.950 . S
C2554 C2555 1.386 . S
C2554 C2556 1.391 . S
C2555 C2554 1.386 . S
C2555 C2559 1.393 . S
C2556 H2545 0.950 . S
C2556 C2554 1.391 . S
C2556 C2557 1.400 . S
C2557 C2551 1.491 . S
C2557 C2556 1.400 . S
C2557 C2558 1.398 . S
C2558 H2546 0.950 . S
C2558 C2557 1.398 . S
C2558 C2559 1.391 . S
C2559 H2547 0.950 . S
C2559 C2555 1.393 . S
C2559 C2558 1.391 . S
H2560 C2568 0.950 . S
H2561 C2573 0.950 . S
H2562 C2570 0.950 . S
H2563 C2572 0.950 . S
H2564 C2574 0.950 . S
H2565 C2576 0.950 . S
H2566 C2578 0.950 . S
H2567 C2579 0.950 . S
C2568 H2560 0.950 . S
C2568 C2569 1.386 1_545 S
C2568 C2570 1.391 1_545 S
C2569 C2568 1.386 1_565 S
C2569 C2573 1.393 . S
C2570 H2562 0.950 . S
C2570 C2568 1.391 1_565 S
C2570 C2571 1.400 . S
C2571 C2570 1.400 . S
C2571 C2572 1.398 . S
C2571 C2577 1.491 . S
C2572 H2563 0.950 . S
C2572 C2571 1.398 . S
C2572 C2573 1.391 . S
C2573 H2561 0.950 . S
C2573 C2569 1.393 . S
C2573 C2572 1.391 . S
C2574 H2564 0.950 . S
C2574 C2575 1.386 . S
C2574 C2576 1.391 . S
C2575 C2574 1.386 . S
C2575 C2579 1.393 . S
C2576 H2565 0.950 . S
C2576 C2574 1.391 . S
C2576 C2577 1.400 . S
C2577 C2571 1.491 . S
C2577 C2576 1.400 . S
C2577 C2578 1.398 . S
C2578 H2566 0.950 . S
C2578 C2577 1.398 . S
C2578 C2579 1.391 . S
C2579 H2567 0.950 . S
C2579 C2575 1.393 . S
C2579 C2578 1.391 . S
H2580 C2588 0.950 . S
H2581 C2593 0.950 . S
H2582 C2590 0.950 . S
H2583 C2592 0.950 . S
H2584 C2594 0.950 . S
H2585 C2596 0.950 . S
H2586 C2598 0.950 . S
H2587 C2599 0.950 . S
C2588 H2580 0.950 . S
C2588 C2589 1.386 . S
C2588 C2590 1.391 . S
C2589 C2588 1.386 . S
C2589 C2593 1.393 . S
C2590 H2582 0.950 . S
C2590 C2588 1.391 . S
C2590 C2591 1.400 . S
C2591 C2590 1.400 . S
C2591 C2592 1.398 . S
C2591 C2597 1.491 . S
C2592 H2583 0.950 . S
C2592 C2591 1.398 . S
C2592 C2593 1.391 . S
C2593 H2581 0.950 . S
C2593 C2589 1.393 . S
C2593 C2592 1.391 . S
C2594 H2584 0.950 . S
C2594 C2595 1.386 . S
C2594 C2596 1.391 . S
C2595 C2594 1.386 . S
C2595 C2599 1.393 . S
C2596 H2585 0.950 . S
C2596 C2594 1.391 . S
C2596 C2597 1.400 . S
C2597 C2591 1.491 . S
C2597 C2596 1.400 . S
C2597 C2598 1.398 . S
C2598 H2586 0.950 . S
C2598 C2597 1.398 . S
C2598 C2599 1.391 . S
C2599 H2587 0.950 . S
C2599 C2595 1.393 . S
C2599 C2598 1.391 . S
H2600 C2608 0.950 . S
H2601 C2613 0.950 . S
H2602 C2610 0.950 . S
H2603 C2612 0.950 . S
H2604 C2614 0.950 . S
H2605 C2616 0.950 . S
H2606 C2618 0.950 . S
H2607 C2619 0.950 . S
C2608 H2600 0.950 . S
C2608 C2609 1.386 . S
C2608 C2610 1.391 . S
C2609 C2608 1.386 . S
C2609 C2613 1.393 . S
C2610 H2602 0.950 . S
C2610 C2608 1.391 . S
C2610 C2611 1.400 . S
C2611 C2610 1.400 . S
C2611 C2612 1.398 . S
C2611 C2617 1.491 . S
C2612 H2603 0.950 . S
C2612 C2611 1.398 . S
C2612 C2613 1.391 . S
C2613 H2601 0.950 . S
C2613 C2609 1.393 . S
C2613 C2612 1.391 . S
C2614 H2604 0.950 . S
C2614 C2615 1.386 . S
C2614 C2616 1.391 . S
C2615 C2614 1.386 . S
C2615 C2619 1.393 . S
C2616 H2605 0.950 . S
C2616 C2614 1.391 . S
C2616 C2617 1.400 . S
C2617 C2611 1.491 . S
C2617 C2616 1.400 . S
C2617 C2618 1.398 . S
C2618 H2606 0.950 . S
C2618 C2617 1.398 . S
C2618 C2619 1.391 . S
C2619 H2607 0.950 . S
C2619 C2615 1.393 . S
C2619 C2618 1.391 . S
H2620 C2628 0.950 . S
H2621 C2633 0.950 . S
H2622 C2630 0.950 . S
H2623 C2632 0.950 . S
H2624 C2634 0.950 . S
H2625 C2636 0.950 . S
H2626 C2638 0.950 . S
H2627 C2639 0.950 . S
C2628 H2620 0.950 . S
C2628 C2629 1.386 . S
C2628 C2630 1.391 . S
C2629 C2628 1.386 . S
C2629 C2633 1.393 . S
C2630 H2622 0.950 . S
C2630 C2628 1.391 . S
C2630 C2631 1.400 . S
C2631 C2630 1.400 . S
C2631 C2632 1.398 . S
C2631 C2637 1.491 . S
C2632 H2623 0.950 . S
C2632 C2631 1.398 . S
C2632 C2633 1.391 . S
C2633 H2621 0.950 . S
C2633 C2629 1.393 . S
C2633 C2632 1.391 . S
C2634 H2624 0.950 . S
C2634 C2635 1.386 . S
C2634 C2636 1.391 . S
C2635 C2634 1.386 . S
C2635 C2639 1.393 . S
C2636 H2625 0.950 . S
C2636 C2634 1.391 . S
C2636 C2637 1.400 . S
C2637 C2631 1.491 . S
C2637 C2636 1.400 . S
C2637 C2638 1.398 . S
C2638 H2626 0.950 . S
C2638 C2637 1.398 . S
C2638 C2639 1.391 . S
C2639 H2627 0.950 . S
C2639 C2635 1.393 . S
C2639 C2638 1.391 . S
H2640 C2648 0.950 . S
H2641 C2653 0.950 . S
H2642 C2650 0.950 . S
H2643 C2652 0.950 . S
H2644 C2654 0.950 . S
H2645 C2656 0.950 . S
H2646 C2658 0.950 . S
H2647 C2659 0.950 . S
C2648 H2640 0.950 . S
C2648 C2649 1.386 . S
C2648 C2650 1.391 . S
C2649 C2648 1.386 . S
C2649 C2653 1.393 . S
C2650 H2642 0.950 . S
C2650 C2648 1.391 . S
C2650 C2651 1.400 . S
C2651 C2650 1.400 . S
C2651 C2652 1.398 . S
C2651 C2657 1.491 . S
C2652 H2643 0.950 . S
C2652 C2651 1.398 . S
C2652 C2653 1.391 . S
C2653 H2641 0.950 . S
C2653 C2649 1.393 . S
C2653 C2652 1.391 . S
C2654 H2644 0.950 . S
C2654 C2655 1.386 . S
C2654 C2656 1.391 . S
C2655 C2654 1.386 . S
C2655 C2659 1.393 . S
C2656 H2645 0.950 . S
C2656 C2654 1.391 . S
C2656 C2657 1.400 . S
C2657 C2651 1.491 . S
C2657 C2656 1.400 . S
C2657 C2658 1.398 . S
C2658 H2646 0.950 . S
C2658 C2657 1.398 . S
C2658 C2659 1.391 . S
C2659 H2647 0.950 . S
C2659 C2655 1.393 . S
C2659 C2658 1.391 . S
H2660 C2668 0.950 . S
H2661 C2673 0.950 . S
H2662 C2670 0.950 . S
H2663 C2672 0.950 . S
H2664 C2674 0.950 . S
H2665 C2676 0.950 . S
H2666 C2678 0.950 . S
H2667 C2679 0.950 . S
C2668 H2660 0.950 . S
C2668 C2669 1.386 . S
C2668 C2670 1.391 . S
C2669 C2668 1.386 . S
C2669 C2673 1.393 . S
C2670 H2662 0.950 . S
C2670 C2668 1.391 . S
C2670 C2671 1.400 . S
C2671 C2670 1.400 . S
C2671 C2672 1.398 . S
C2671 C2677 1.491 . S
C2672 H2663 0.950 . S
C2672 C2671 1.398 . S
C2672 C2673 1.391 . S
C2673 H2661 0.950 . S
C2673 C2669 1.393 . S
C2673 C2672 1.391 . S
C2674 H2664 0.950 . S
C2674 C2675 1.386 . S
C2674 C2676 1.391 . S
C2675 C2674 1.386 . S
C2675 C2679 1.393 . S
C2676 H2665 0.950 . S
C2676 C2674 1.391 . S
C2676 C2677 1.400 . S
C2677 C2671 1.491 . S
C2677 C2676 1.400 . S
C2677 C2678 1.398 . S
C2678 H2666 0.950 . S
C2678 C2677 1.398 . S
C2678 C2679 1.391 . S
C2679 H2667 0.950 . S
C2679 C2675 1.393 . S
C2679 C2678 1.391 . S
H2680 C2688 0.950 . S
H2681 C2693 0.950 1_554 S
H2682 C2690 0.950 . S
H2683 C2692 0.950 . S
H2684 C2694 0.950 . S
H2685 C2696 0.950 . S
H2686 C2698 0.950 . S
H2687 C2699 0.950 . S
C2688 H2680 0.950 . S
C2688 C2689 1.386 . S
C2688 C2690 1.391 . S
C2689 C2688 1.386 . S
C2689 C2693 1.393 . S
C2690 H2682 0.950 . S
C2690 C2688 1.391 . S
C2690 C2691 1.400 . S
C2691 C2690 1.400 . S
C2691 C2692 1.398 1_556 S
C2691 C2697 1.491 . S
C2692 H2683 0.950 . S
C2692 C2691 1.398 1_554 S
C2692 C2693 1.391 1_554 S
C2693 H2681 0.950 1_556 S
C2693 C2689 1.393 . S
C2693 C2692 1.391 1_556 S
C2694 H2684 0.950 . S
C2694 C2695 1.386 . S
C2694 C2696 1.391 . S
C2695 C2694 1.386 . S
C2695 C2699 1.393 1_554 S
C2696 H2685 0.950 . S
C2696 C2694 1.391 . S
C2696 C2697 1.400 1_554 S
C2697 C2691 1.491 . S
C2697 C2696 1.400 1_556 S
C2697 C2698 1.398 . S
C2698 H2686 0.950 . S
C2698 C2697 1.398 . S
C2698 C2699 1.391 . S
C2699 H2687 0.950 . S
C2699 C2695 1.393 1_556 S
C2699 C2698 1.391 . S
H2700 C2708 0.950 . S
H2701 C2713 0.950 . S
H2702 C2710 0.950 1_655 S
H2703 C2712 0.950 . S
H2704 C2714 0.950 . S
H2705 C2716 0.950 . S
H2706 C2718 0.950 . S
H2707 C2719 0.950 . S
C2708 H2700 0.950 . S
C2708 C2709 1.386 . S
C2708 C2710 1.391 . S
C2709 C2708 1.386 . S
C2709 C2713 1.393 . S
C2710 H2702 0.950 1_455 S
C2710 C2708 1.391 . S
C2710 C2711 1.390 1_455 S
C2711 C2710 1.390 1_655 S
C2711 C2712 1.382 1_655 S
C2711 C2717 1.517 . S
C2712 H2703 0.950 . S
C2712 C2711 1.382 1_455 S
C2712 C2713 1.391 . S
C2713 H2701 0.950 . S
C2713 C2709 1.393 . S
C2713 C2712 1.391 . S
C2714 H2704 0.950 . S
C2714 C2715 1.386 . S
C2714 C2716 1.391 . S
C2715 C2714 1.386 . S
C2715 C2719 1.393 . S
C2716 H2705 0.950 . S
C2716 C2714 1.391 . S
C2716 C2717 1.400 . S
C2717 C2711 1.517 . S
C2717 C2716 1.400 . S
C2717 C2718 1.398 . S
C2718 H2706 0.950 . S
C2718 C2717 1.398 . S
C2718 C2719 1.391 . S
C2719 H2707 0.950 . S
C2719 C2715 1.393 . S
C2719 C2718 1.391 . S
H2720 C2728 0.950 . S
H2721 C2733 0.950 . S
H2722 C2730 0.950 . S
H2723 C2732 0.950 . S
H2724 C2734 0.950 . S
H2725 C2736 0.950 . S
H2726 C2738 0.950 . S
H2727 C2739 0.950 . S
C2728 H2720 0.950 . S
C2728 C2729 1.386 . S
C2728 C2730 1.391 . S
C2729 C2728 1.386 . S
C2729 C2733 1.393 . S
C2730 H2722 0.950 . S
C2730 C2728 1.391 . S
C2730 C2731 1.400 . S
C2731 C2730 1.400 . S
C2731 C2732 1.398 . S
C2731 C2737 1.491 . S
C2732 H2723 0.950 . S
C2732 C2731 1.398 . S
C2732 C2733 1.391 . S
C2733 H2721 0.950 . S
C2733 C2729 1.393 . S
C2733 C2732 1.391 . S
C2734 H2724 0.950 . S
C2734 C2735 1.386 . S
C2734 C2736 1.391 . S
C2735 C2734 1.386 . S
C2735 C2739 1.393 . S
C2736 H2725 0.950 . S
C2736 C2734 1.391 . S
C2736 C2737 1.400 . S
C2737 C2731 1.491 . S
C2737 C2736 1.400 . S
C2737 C2738 1.398 . S
C2738 H2726 0.950 . S
C2738 C2737 1.398 . S
C2738 C2739 1.391 . S
C2739 H2727 0.950 . S
C2739 C2735 1.393 . S
C2739 C2738 1.391 . S
H2740 C2748 0.950 . S
H2741 C2753 0.950 . S
H2742 C2750 0.950 . S
H2743 C2752 0.950 . S
H2744 C2754 0.950 . S
H2745 C2756 0.950 . S
H2746 C2758 0.950 1_455 S
H2747 C2759 0.950 . S
C2748 H2740 0.950 . S
C2748 C2749 1.386 . S
C2748 C2750 1.391 . S
C2749 C2748 1.386 . S
C2749 C2753 1.393 . S
C2750 H2742 0.950 . S
C2750 C2748 1.391 . S
C2750 C2751 1.400 . S
C2751 C2750 1.400 . S
C2751 C2752 1.398 . S
C2751 C2757 1.491 . S
C2752 H2743 0.950 . S
C2752 C2751 1.398 . S
C2752 C2753 1.391 . S
C2753 H2741 0.950 . S
C2753 C2749 1.393 . S
C2753 C2752 1.391 . S
C2754 H2744 0.950 . S
C2754 C2755 1.386 . S
C2754 C2756 1.391 . S
C2755 C2754 1.386 . S
C2755 C2759 1.393 . S
C2756 H2745 0.950 . S
C2756 C2754 1.391 . S
C2756 C2757 1.400 1_655 S
C2757 C2751 1.491 . S
C2757 C2756 1.400 1_455 S
C2757 C2758 1.398 1_455 S
C2758 H2746 0.950 1_655 S
C2758 C2757 1.398 1_655 S
C2758 C2759 1.391 . S
C2759 H2747 0.950 . S
C2759 C2755 1.393 . S
C2759 C2758 1.391 . S
H2760 C2768 0.950 . S
H2761 C2773 0.950 . S
H2762 C2770 0.950 . S
H2763 C2772 0.950 . S
H2764 C2774 0.950 . S
H2765 C2776 0.950 . S
H2766 C2778 0.950 . S
H2767 C2779 0.950 . S
C2768 H2760 0.950 . S
C2768 C2769 1.386 . S
C2768 C2770 1.391 1_655 S
C2769 C2768 1.386 . S
C2769 C2773 1.393 . S
C2770 H2762 0.950 . S
C2770 C2768 1.391 1_455 S
C2770 C2771 1.400 . S
C2771 C2770 1.400 . S
C2771 C2772 1.398 . S
C2771 C2777 1.491 . S
C2772 H2763 0.950 . S
C2772 C2771 1.398 . S
C2772 C2773 1.391 1_455 S
C2773 H2761 0.950 . S
C2773 C2769 1.393 . S
C2773 C2772 1.391 1_655 S
C2774 H2764 0.950 . S
C2774 C2775 1.386 . S
C2774 C2776 1.391 . S
C2775 C2774 1.386 . S
C2775 C2779 1.393 . S
C2776 H2765 0.950 . S
C2776 C2774 1.391 . S
C2776 C2777 1.400 . S
C2777 C2771 1.491 . S
C2777 C2776 1.400 . S
C2777 C2778 1.398 . S
C2778 H2766 0.950 . S
C2778 C2777 1.398 . S
C2778 C2779 1.391 . S
C2779 H2767 0.950 . S
C2779 C2775 1.393 . S
C2779 C2778 1.391 . S
H2780 C2788 0.950 . S
H2781 C2793 0.950 . S
H2782 C2790 0.950 . S
H2783 C2792 0.950 . S
H2784 C2794 0.950 . S
H2785 C2796 0.950 . S
H2786 C2798 0.950 . S
H2787 C2799 0.950 . S
C2788 H2780 0.950 . S
C2788 C2789 1.386 . S
C2788 C2790 1.391 . S
C2789 C2788 1.386 . S
C2789 C2793 1.393 . S
C2790 H2782 0.950 . S
C2790 C2788 1.391 . S
C2790 C2791 1.400 . S
C2791 C2790 1.400 . S
C2791 C2792 1.398 . S
C2791 C2797 1.491 . S
C2792 H2783 0.950 . S
C2792 C2791 1.398 . S
C2792 C2793 1.391 . S
C2793 H2781 0.950 . S
C2793 C2789 1.393 . S
C2793 C2792 1.391 . S
C2794 H2784 0.950 . S
C2794 C2795 1.386 . S
C2794 C2796 1.391 . S
C2795 C2794 1.386 . S
C2795 C2799 1.393 . S
C2796 H2785 0.950 . S
C2796 C2794 1.391 . S
C2796 C2797 1.400 . S
C2797 C2791 1.491 . S
C2797 C2796 1.400 . S
C2797 C2798 1.398 . S
C2798 H2786 0.950 . S
C2798 C2797 1.398 . S
C2798 C2799 1.391 . S
C2799 H2787 0.950 . S
C2799 C2795 1.393 . S
C2799 C2798 1.391 . S
H2800 C2808 0.950 . S
H2801 C2813 0.950 . S
H2802 C2810 0.950 . S
H2803 C2812 0.950 . S
H2804 C2814 0.950 . S
H2805 C2816 0.950 . S
H2806 C2818 0.950 . S
H2807 C2819 0.950 . S
C2808 H2800 0.950 . S
C2808 C2809 1.386 . S
C2808 C2810 1.391 . S
C2809 C2808 1.386 . S
C2809 C2813 1.393 . S
C2810 H2802 0.950 . S
C2810 C2808 1.391 . S
C2810 C2811 1.400 . S
C2811 C2810 1.400 . S
C2811 C2812 1.398 . S
C2811 C2817 1.491 . S
C2812 H2803 0.950 . S
C2812 C2811 1.398 . S
C2812 C2813 1.391 . S
C2813 H2801 0.950 . S
C2813 C2809 1.393 . S
C2813 C2812 1.391 . S
C2814 H2804 0.950 . S
C2814 C2815 1.386 . S
C2814 C2816 1.391 . S
C2815 C2814 1.386 . S
C2815 C2819 1.393 . S
C2816 H2805 0.950 . S
C2816 C2814 1.391 . S
C2816 C2817 1.400 . S
C2817 C2811 1.491 . S
C2817 C2816 1.400 . S
C2817 C2818 1.398 . S
C2818 H2806 0.950 . S
C2818 C2817 1.398 . S
C2818 C2819 1.391 . S
C2819 H2807 0.950 . S
C2819 C2815 1.393 . S
C2819 C2818 1.391 . S
H2820 C2828 0.950 1_554 S
H2821 C2833 0.950 . S
H2822 C2830 0.950 . S
H2823 C2832 0.950 . S
H2824 C2834 0.950 . S
H2825 C2836 0.950 . S
H2826 C2838 0.950 . S
H2827 C2839 0.950 . S
C2828 H2820 0.950 1_556 S
C2828 C2829 1.386 . S
C2828 C2830 1.391 . S
C2829 C2828 1.386 . S
C2829 C2833 1.393 . S
C2830 H2822 0.950 . S
C2830 C2828 1.391 . S
C2830 C2831 1.400 . S
C2831 C2830 1.400 . S
C2831 C2832 1.398 . S
C2831 C2837 1.491 . S
C2832 H2823 0.950 . S
C2832 C2831 1.398 . S
C2832 C2833 1.391 . S
C2833 H2821 0.950 . S
C2833 C2829 1.393 . S
C2833 C2832 1.391 . S
C2834 H2824 0.950 . S
C2834 C2835 1.386 . S
C2834 C2836 1.391 . S
C2835 C2834 1.386 . S
C2835 C2839 1.393 . S
C2836 H2825 0.950 . S
C2836 C2834 1.391 . S
C2836 C2837 1.400 . S
C2837 C2831 1.491 . S
C2837 C2836 1.400 . S
C2837 C2838 1.398 . S
C2838 H2826 0.950 . S
C2838 C2837 1.398 . S
C2838 C2839 1.391 . S
C2839 H2827 0.950 . S
C2839 C2835 1.393 . S
C2839 C2838 1.391 . S
H2840 C2848 0.950 . S
H2841 C2853 0.950 . S
H2842 C2850 0.950 . S
H2843 C2852 0.950 . S
H2844 C2854 0.950 . S
H2845 C2856 0.950 . S
H2846 C2858 0.950 . S
H2847 C2859 0.950 . S
C2848 H2840 0.950 . S
C2848 C2849 1.386 . S
C2848 C2850 1.391 . S
C2849 C2848 1.386 . S
C2849 C2853 1.393 . S
C2850 H2842 0.950 . S
C2850 C2848 1.391 . S
C2850 C2851 1.400 . S
C2851 C2850 1.400 . S
C2851 C2852 1.398 . S
C2851 C2857 1.491 . S
C2852 H2843 0.950 . S
C2852 C2851 1.398 . S
C2852 C2853 1.391 . S
C2853 H2841 0.950 . S
C2853 C2849 1.393 . S
C2853 C2852 1.391 . S
C2854 H2844 0.950 . S
C2854 C2855 1.386 . S
C2854 C2856 1.391 . S
C2855 C2854 1.386 . S
C2855 C2859 1.393 . S
C2856 H2845 0.950 . S
C2856 C2854 1.391 . S
C2856 C2857 1.400 . S
C2857 C2851 1.491 . S
C2857 C2856 1.400 . S
C2857 C2858 1.398 . S
C2858 H2846 0.950 . S
C2858 C2857 1.398 . S
C2858 C2859 1.391 . S
C2859 H2847 0.950 . S
C2859 C2855 1.393 . S
C2859 C2858 1.391 . S
H2860 C2868 0.950 . S
H2861 C2873 0.950 . S
H2862 C2870 0.950 . S
H2863 C2872 0.950 . S
H2864 C2874 0.950 . S
H2865 C2876 0.950 . S
H2866 C2878 0.950 . S
H2867 C2879 0.950 . S
C2868 H2860 0.950 . S
C2868 C2869 1.386 . S
C2868 C2870 1.391 . S
C2869 C2868 1.386 . S
C2869 C2873 1.393 . S
C2870 H2862 0.950 . S
C2870 C2868 1.391 . S
C2870 C2871 1.400 . S
C2871 C2870 1.400 . S
C2871 C2872 1.398 . S
C2871 C2877 1.491 . S
C2872 H2863 0.950 . S
C2872 C2871 1.398 . S
C2872 C2873 1.391 . S
C2873 H2861 0.950 . S
C2873 C2869 1.393 . S
C2873 C2872 1.391 . S
C2874 H2864 0.950 . S
C2874 C2875 1.386 . S
C2874 C2876 1.391 . S
C2875 C2874 1.386 . S
C2875 C2879 1.393 . S
C2876 H2865 0.950 . S
C2876 C2874 1.391 . S
C2876 C2877 1.400 . S
C2877 C2871 1.491 . S
C2877 C2876 1.400 . S
C2877 C2878 1.398 . S
C2878 H2866 0.950 . S
C2878 C2877 1.398 . S
C2878 C2879 1.391 . S
C2879 H2867 0.950 . S
C2879 C2875 1.393 . S
C2879 C2878 1.391 . S
H2880 C2888 0.950 . S
H2881 C2893 0.950 . S
H2882 C2890 0.950 . S
H2883 C2892 0.950 . S
H2884 C2894 0.950 . S
H2885 C2896 0.950 . S
H2886 C2898 0.950 . S
H2887 C2899 0.950 . S
C2888 H2880 0.950 . S
C2888 C2889 1.386 . S
C2888 C2890 1.391 . S
C2889 C2888 1.386 . S
C2889 C2893 1.393 . S
C2890 H2882 0.950 . S
C2890 C2888 1.391 . S
C2890 C2891 1.400 . S
C2891 C2890 1.400 . S
C2891 C2892 1.398 . S
C2891 C2897 1.491 . S
C2892 H2883 0.950 . S
C2892 C2891 1.398 . S
C2892 C2893 1.391 . S
C2893 H2881 0.950 . S
C2893 C2889 1.393 . S
C2893 C2892 1.391 . S
C2894 H2884 0.950 . S
C2894 C2895 1.386 . S
C2894 C2896 1.391 . S
C2895 C2894 1.386 . S
C2895 C2899 1.393 . S
C2896 H2885 0.950 . S
C2896 C2894 1.391 . S
C2896 C2897 1.400 . S
C2897 C2891 1.491 . S
C2897 C2896 1.400 . S
C2897 C2898 1.398 . S
C2898 H2886 0.950 . S
C2898 C2897 1.398 . S
C2898 C2899 1.391 . S
C2899 H2887 0.950 . S
C2899 C2895 1.393 . S
C2899 C2898 1.391 . S
H2900 C2908 0.950 . S
H2901 C2913 0.950 . S
H2902 C2910 0.950 . S
H2903 C2912 0.950 . S
H2904 C2914 0.950 . S
H2905 C2916 0.950 . S
H2906 C2918 0.950 . S
H2907 C2919 0.950 . S
C2908 H2900 0.950 . S
C2908 C2909 1.386 . S
C2908 C2910 1.391 . S
C2909 C2908 1.386 . S
C2909 C2913 1.393 . S
C2910 H2902 0.950 . S
C2910 C2908 1.391 . S
C2910 C2911 1.400 . S
C2911 C2910 1.400 . S
C2911 C2912 1.398 . S
C2911 C2917 1.491 . S
C2912 H2903 0.950 . S
C2912 C2911 1.398 . S
C2912 C2913 1.391 . S
C2913 H2901 0.950 . S
C2913 C2909 1.393 . S
C2913 C2912 1.391 . S
C2914 H2904 0.950 . S
C2914 C2915 1.386 . S
C2914 C2916 1.391 . S
C2915 C2914 1.386 . S
C2915 C2919 1.393 . S
C2916 H2905 0.950 . S
C2916 C2914 1.391 . S
C2916 C2917 1.400 . S
C2917 C2911 1.491 . S
C2917 C2916 1.400 . S
C2917 C2918 1.398 . S
C2918 H2906 0.950 . S
C2918 C2917 1.398 . S
C2918 C2919 1.391 . S
C2919 H2907 0.950 . S
C2919 C2915 1.393 . S
C2919 C2918 1.391 . S
H2920 C2928 0.950 . S
H2921 C2933 0.950 . S
H2922 C2930 0.950 . S
H2923 C2932 0.950 . S
H2924 C2934 0.950 . S
H2925 C2936 0.950 . S
H2926 C2938 0.950 . S
H2927 C2939 0.950 . S
C2928 H2920 0.950 . S
C2928 C2929 1.386 . S
C2928 C2930 1.391 . S
C2929 C2928 1.386 . S
C2929 C2933 1.393 . S
C2930 H2922 0.950 . S
C2930 C2928 1.391 . S
C2930 C2931 1.400 . S
C2931 C2930 1.400 . S
C2931 C2932 1.398 . S
C2931 C2937 1.491 . S
C2932 H2923 0.950 . S
C2932 C2931 1.398 . S
C2932 C2933 1.391 . S
C2933 H2921 0.950 . S
C2933 C2929 1.393 . S
C2933 C2932 1.391 . S
C2934 H2924 0.950 . S
C2934 C2935 1.386 . S
C2934 C2936 1.391 . S
C2935 C2934 1.386 . S
C2935 C2939 1.393 . S
C2936 H2925 0.950 . S
C2936 C2934 1.391 . S
C2936 C2937 1.400 . S
C2937 C2931 1.491 . S
C2937 C2936 1.400 . S
C2937 C2938 1.398 . S
C2938 H2926 0.950 . S
C2938 C2937 1.398 . S
C2938 C2939 1.391 . S
C2939 H2927 0.950 . S
C2939 C2935 1.393 . S
C2939 C2938 1.391 . S
H2940 C2948 0.950 . S
H2941 C2953 0.950 . S
H2942 C2950 0.950 . S
H2943 C2952 0.950 . S
H2944 C2954 0.950 . S
H2945 C2956 0.950 . S
H2946 C2958 0.950 . S
H2947 C2959 0.950 . S
C2948 H2940 0.950 . S
C2948 C2949 1.386 . S
C2948 C2950 1.391 . S
C2949 C2948 1.386 . S
C2949 C2953 1.393 . S
C2950 H2942 0.950 . S
C2950 C2948 1.391 . S
C2950 C2951 1.400 . S
C2951 C2950 1.400 . S
C2951 C2952 1.398 . S
C2951 C2957 1.491 . S
C2952 H2943 0.950 . S
C2952 C2951 1.398 . S
C2952 C2953 1.391 . S
C2953 H2941 0.950 . S
C2953 C2949 1.393 . S
C2953 C2952 1.391 . S
C2954 H2944 0.950 . S
C2954 C2955 1.386 . S
C2954 C2956 1.391 . S
C2955 C2954 1.386 . S
C2955 C2959 1.393 . S
C2956 H2945 0.950 . S
C2956 C2954 1.391 . S
C2956 C2957 1.400 . S
C2957 C2951 1.491 . S
C2957 C2956 1.400 . S
C2957 C2958 1.398 . S
C2958 H2946 0.950 . S
C2958 C2957 1.398 . S
C2958 C2959 1.391 . S
C2959 H2947 0.950 . S
C2959 C2955 1.393 . S
C2959 C2958 1.391 . S
H2960 C2968 0.950 . S
H2961 C2973 0.950 . S
H2962 C2970 0.950 . S
H2963 C2972 0.950 . S
H2964 C2974 0.950 . S
H2965 C2976 0.950 . S
H2966 C2978 0.950 . S
H2967 C2979 0.950 . S
C2968 H2960 0.950 . S
C2968 C2969 1.386 . S
C2968 C2970 1.391 . S
C2969 C2968 1.386 . S
C2969 C2973 1.393 . S
C2970 H2962 0.950 . S
C2970 C2968 1.391 . S
C2970 C2971 1.400 . S
C2971 C2970 1.400 . S
C2971 C2972 1.398 . S
C2971 C2977 1.491 . S
C2972 H2963 0.950 . S
C2972 C2971 1.398 . S
C2972 C2973 1.391 . S
C2973 H2961 0.950 . S
C2973 C2969 1.393 . S
C2973 C2972 1.391 . S
C2974 H2964 0.950 . S
C2974 C2975 1.386 . S
C2974 C2976 1.391 . S
C2975 C2974 1.386 . S
C2975 C2979 1.393 . S
C2976 H2965 0.950 . S
C2976 C2974 1.391 . S
C2976 C2977 1.400 . S
C2977 C2971 1.491 . S
C2977 C2976 1.400 . S
C2977 C2978 1.398 . S
C2978 H2966 0.950 . S
C2978 C2977 1.398 . S
C2978 C2979 1.391 . S
C2979 H2967 0.950 . S
C2979 C2975 1.393 . S
C2979 C2978 1.391 . S
H2980 C2988 0.950 . S
H2981 C2993 0.950 . S
H2982 C2990 0.950 . S
H2983 C2992 0.950 . S
H2984 C2994 0.950 . S
H2985 C2996 0.950 . S
H2986 C2998 0.950 . S
H2987 C2999 0.950 . S
C2988 H2980 0.950 . S
C2988 C2989 1.386 . S
C2988 C2990 1.391 . S
C2989 C2988 1.386 . S
C2989 C2993 1.393 . S
C2990 H2982 0.950 . S
C2990 C2988 1.391 . S
C2990 C2991 1.400 . S
C2991 C2990 1.400 . S
C2991 C2992 1.398 . S
C2991 C2997 1.491 . S
C2992 H2983 0.950 . S
C2992 C2991 1.398 . S
C2992 C2993 1.391 . S
C2993 H2981 0.950 . S
C2993 C2989 1.393 . S
C2993 C2992 1.391 . S
C2994 H2984 0.950 . S
C2994 C2995 1.386 . S
C2994 C2996 1.391 . S
C2995 C2994 1.386 . S
C2995 C2999 1.393 . S
C2996 H2985 0.950 . S
C2996 C2994 1.391 . S
C2996 C2997 1.400 . S
C2997 C2991 1.491 . S
C2997 C2996 1.400 . S
C2997 C2998 1.398 . S
C2998 H2986 0.950 . S
C2998 C2997 1.398 . S
C2998 C2999 1.391 . S
C2999 H2987 0.950 . S
C2999 C2995 1.393 . S
C2999 C2998 1.391 . S
H3000 C3008 0.950 . S
H3001 C3013 0.950 . S
H3002 C3010 0.950 . S
H3003 C3012 0.950 . S
H3004 C3014 0.950 . S
H3005 C3016 0.950 . S
H3006 C3018 0.950 . S
H3007 C3019 0.950 . S
C3008 H3000 0.950 . S
C3008 C3009 1.386 . S
C3008 C3010 1.391 . S
C3009 C3008 1.386 . S
C3009 C3013 1.393 . S
C3010 H3002 0.950 . S
C3010 C3008 1.391 . S
C3010 C3011 1.400 . S
C3011 C3010 1.400 . S
C3011 C3012 1.398 . S
C3011 C3017 1.491 . S
C3012 H3003 0.950 . S
C3012 C3011 1.398 . S
C3012 C3013 1.391 . S
C3013 H3001 0.950 . S
C3013 C3009 1.393 . S
C3013 C3012 1.391 . S
C3014 H3004 0.950 . S
C3014 C3015 1.386 . S
C3014 C3016 1.391 . S
C3015 C3014 1.386 . S
C3015 C3019 1.393 . S
C3016 H3005 0.950 . S
C3016 C3014 1.391 . S
C3016 C3017 1.400 . S
C3017 C3011 1.491 . S
C3017 C3016 1.400 . S
C3017 C3018 1.398 . S
C3018 H3006 0.950 . S
C3018 C3017 1.398 . S
C3018 C3019 1.391 . S
C3019 H3007 0.950 . S
C3019 C3015 1.393 . S
C3019 C3018 1.391 . S
H3020 C3028 0.950 . S
H3021 C3033 0.950 . S
H3022 C3030 0.950 . S
H3023 C3032 0.950 . S
H3024 C3034 0.950 . S
H3025 C3036 0.950 . S
H3026 C3038 0.950 . S
H3027 C3039 0.950 . S
C3028 H3020 0.950 . S
C3028 C3029 1.386 . S
C3028 C3030 1.391 1_565 S
C3029 C3028 1.386 . S
C3029 C3033 1.393 . S
C3030 H3022 0.950 . S
C3030 C3028 1.391 1_545 S
C3030 C3031 1.400 1_545 S
C3031 C3030 1.400 1_565 S
C3031 C3032 1.398 . S
C3031 C3037 1.485 1_565 S
C3032 H3023 0.950 . S
C3032 C3031 1.398 . S
C3032 C3033 1.391 . S
C3033 H3021 0.950 . S
C3033 C3029 1.393 . S
C3033 C3032 1.391 . S
C3034 H3024 0.950 . S
C3034 C3035 1.386 1_565 S
C3034 C3036 1.391 . S
C3035 C3034 1.386 1_545 S
C3035 C3039 1.393 . S
C3036 H3025 0.950 . S
C3036 C3034 1.391 . S
C3036 C3037 1.385 1_565 S
C3037 C3031 1.485 1_545 S
C3037 C3036 1.385 1_545 S
C3037 C3038 1.419 . S
C3038 H3026 0.950 . S
C3038 C3037 1.419 . S
C3038 C3039 1.391 . S
C3039 H3027 0.950 . S
C3039 C3035 1.393 . S
C3039 C3038 1.391 . S
H3040 C3048 0.950 . S
H3041 C3053 0.950 . S
H3042 C3050 0.950 . S
H3043 C3052 0.950 . S
H3044 C3054 0.950 . S
H3045 C3056 0.950 . S
H3046 C3058 0.950 . S
H3047 C3059 0.950 . S
C3048 H3040 0.950 . S
C3048 C3049 1.386 . S
C3048 C3050 1.391 . S
C3049 C3048 1.386 . S
C3049 C3053 1.393 . S
C3050 H3042 0.950 . S
C3050 C3048 1.391 . S
C3050 C3051 1.400 . S
C3051 C3050 1.400 . S
C3051 C3052 1.398 . S
C3051 C3057 1.491 . S
C3052 H3043 0.950 . S
C3052 C3051 1.398 . S
C3052 C3053 1.391 . S
C3053 H3041 0.950 . S
C3053 C3049 1.393 . S
C3053 C3052 1.391 . S
C3054 H3044 0.950 . S
C3054 C3055 1.386 . S
C3054 C3056 1.391 . S
C3055 C3054 1.386 . S
C3055 C3059 1.393 . S
C3056 H3045 0.950 . S
C3056 C3054 1.391 . S
C3056 C3057 1.400 . S
C3057 C3051 1.491 . S
C3057 C3056 1.400 . S
C3057 C3058 1.398 . S
C3058 H3046 0.950 . S
C3058 C3057 1.398 . S
C3058 C3059 1.391 . S
C3059 H3047 0.950 . S
C3059 C3055 1.393 . S
C3059 C3058 1.391 . S
H3060 C3068 0.950 . S
H3061 C3073 0.950 . S
H3062 C3070 0.950 . S
H3063 C3072 0.950 . S
H3064 C3074 0.950 . S
H3065 C3076 0.950 . S
H3066 C3078 0.950 . S
H3067 C3079 0.950 . S
C3068 H3060 0.950 . S
C3068 C3069 1.386 . S
C3068 C3070 1.391 . S
C3069 C3068 1.386 . S
C3069 C3073 1.393 1_554 S
C3070 H3062 0.950 . S
C3070 C3068 1.391 . S
C3070 C3071 1.400 . S
C3071 C3070 1.400 . S
C3071 C3072 1.398 1_554 S
C3071 C3077 1.491 . S
C3072 H3063 0.950 . S
C3072 C3071 1.398 1_556 S
C3072 C3073 1.391 . S
C3073 H3061 0.950 . S
C3073 C3069 1.393 1_556 S
C3073 C3072 1.391 . S
C3074 H3064 0.950 . S
C3074 C3075 1.386 . S
C3074 C3076 1.391 . S
C3075 C3074 1.386 . S
C3075 C3079 1.393 . S
C3076 H3065 0.950 . S
C3076 C3074 1.391 . S
C3076 C3077 1.400 . S
C3077 C3071 1.491 . S
C3077 C3076 1.400 . S
C3077 C3078 1.398 . S
C3078 H3066 0.950 . S
C3078 C3077 1.398 . S
C3078 C3079 1.391 . S
C3079 H3067 0.950 . S
C3079 C3075 1.393 . S
C3079 C3078 1.391 . S
H3080 C3088 0.950 . S
H3081 C3093 0.950 . S
H3082 C3090 0.950 . S
H3083 C3092 0.950 . S
H3084 C3094 0.950 . S
H3085 C3096 0.950 . S
H3086 C3098 0.950 . S
H3087 C3099 0.950 . S
C3088 H3080 0.950 . S
C3088 C3089 1.386 . S
C3088 C3090 1.391 . S
C3089 C3088 1.386 . S
C3089 C3093 1.393 . S
C3090 H3082 0.950 . S
C3090 C3088 1.391 . S
C3090 C3091 1.400 . S
C3091 C3090 1.400 . S
C3091 C3092 1.398 . S
C3091 C3097 1.491 . S
C3092 H3083 0.950 . S
C3092 C3091 1.398 . S
C3092 C3093 1.391 . S
C3093 H3081 0.950 . S
C3093 C3089 1.393 . S
C3093 C3092 1.391 . S
C3094 H3084 0.950 . S
C3094 C3095 1.386 . S
C3094 C3096 1.391 . S
C3095 C3094 1.386 . S
C3095 C3099 1.393 . S
C3096 H3085 0.950 . S
C3096 C3094 1.391 . S
C3096 C3097 1.400 . S
C3097 C3091 1.491 . S
C3097 C3096 1.400 . S
C3097 C3098 1.398 . S
C3098 H3086 0.950 . S
C3098 C3097 1.398 . S
C3098 C3099 1.391 . S
C3099 H3087 0.950 . S
C3099 C3095 1.393 . S
C3099 C3098 1.391 . S
H3100 C3108 0.950 . S
H3101 C3113 0.950 . S
H3102 C3110 0.950 . S
H3103 C3112 0.950 . S
H3104 C3114 0.950 . S
H3105 C3116 0.950 . S
H3106 C3118 0.950 . S
H3107 C3119 0.950 . S
C3108 H3100 0.950 . S
C3108 C3109 1.386 . S
C3108 C3110 1.391 . S
C3109 C3108 1.386 . S
C3109 C3113 1.393 . S
C3110 H3102 0.950 . S
C3110 C3108 1.391 . S
C3110 C3111 1.400 . S
C3111 C3110 1.400 . S
C3111 C3112 1.398 . S
C3111 C3117 1.491 . S
C3112 H3103 0.950 . S
C3112 C3111 1.398 . S
C3112 C3113 1.391 . S
C3113 H3101 0.950 . S
C3113 C3109 1.393 . S
C3113 C3112 1.391 . S
C3114 H3104 0.950 . S
C3114 C3115 1.386 . S
C3114 C3116 1.391 . S
C3115 C3114 1.386 . S
C3115 C3119 1.393 . S
C3116 H3105 0.950 . S
C3116 C3114 1.391 . S
C3116 C3117 1.400 . S
C3117 C3111 1.491 . S
C3117 C3116 1.400 . S
C3117 C3118 1.398 . S
C3118 H3106 0.950 . S
C3118 C3117 1.398 . S
C3118 C3119 1.391 . S
C3119 H3107 0.950 . S
C3119 C3115 1.393 . S
C3119 C3118 1.391 . S
H3120 C3128 0.950 . S
H3121 C3133 0.950 . S
H3122 C3130 0.950 . S
H3123 C3132 0.950 . S
H3124 C3134 0.950 . S
H3125 C3136 0.950 . S
H3126 C3138 0.950 . S
H3127 C3139 0.950 . S
C3128 H3120 0.950 . S
C3128 C3129 1.386 . S
C3128 C3130 1.391 . S
C3129 C3128 1.386 . S
C3129 C3133 1.393 . S
C3130 H3122 0.950 . S
C3130 C3128 1.391 . S
C3130 C3131 1.400 . S
C3131 C3130 1.400 . S
C3131 C3132 1.398 . S
C3131 C3137 1.491 . S
C3132 H3123 0.950 . S
C3132 C3131 1.398 . S
C3132 C3133 1.391 . S
C3133 H3121 0.950 . S
C3133 C3129 1.393 . S
C3133 C3132 1.391 . S
C3134 H3124 0.950 . S
C3134 C3135 1.386 . S
C3134 C3136 1.391 . S
C3135 C3134 1.386 . S
C3135 C3139 1.393 . S
C3136 H3125 0.950 . S
C3136 C3134 1.391 . S
C3136 C3137 1.400 . S
C3137 C3131 1.491 . S
C3137 C3136 1.400 . S
C3137 C3138 1.398 . S
C3138 H3126 0.950 . S
C3138 C3137 1.398 . S
C3138 C3139 1.391 . S
C3139 H3127 0.950 . S
C3139 C3135 1.393 . S
C3139 C3138 1.391 . S
H3140 C3148 0.950 . S
H3141 C3153 0.950 . S
H3142 C3150 0.950 . S
H3143 C3152 0.950 . S
H3144 C3154 0.950 . S
H3145 C3156 0.950 . S
H3146 C3158 0.950 . S
H3147 C3159 0.950 . S
C3148 H3140 0.950 . S
C3148 C3149 1.386 . S
C3148 C3150 1.391 . S
C3149 C3148 1.386 . S
C3149 C3153 1.393 . S
C3150 H3142 0.950 . S
C3150 C3148 1.391 . S
C3150 C3151 1.400 . S
C3151 C3150 1.400 . S
C3151 C3152 1.398 . S
C3151 C3157 1.491 . S
C3152 H3143 0.950 . S
C3152 C3151 1.398 . S
C3152 C3153 1.391 . S
C3153 H3141 0.950 . S
C3153 C3149 1.393 . S
C3153 C3152 1.391 . S
C3154 H3144 0.950 . S
C3154 C3155 1.386 . S
C3154 C3156 1.391 . S
C3155 C3154 1.386 . S
C3155 C3159 1.393 . S
C3156 H3145 0.950 . S
C3156 C3154 1.391 . S
C3156 C3157 1.400 . S
C3157 C3151 1.491 . S
C3157 C3156 1.400 . S
C3157 C3158 1.398 . S
C3158 H3146 0.950 . S
C3158 C3157 1.398 . S
C3158 C3159 1.391 . S
C3159 H3147 0.950 . S
C3159 C3155 1.393 . S
C3159 C3158 1.391 . S
H3160 C3168 0.950 . S
H3161 C3173 0.950 . S
H3162 C3170 0.950 . S
H3163 C3172 0.950 . S
H3164 C3174 0.950 . S
H3165 C3176 0.950 . S
H3166 C3178 0.950 . S
H3167 C3179 0.950 . S
C3168 H3160 0.950 . S
C3168 C3169 1.386 . S
C3168 C3170 1.391 . S
C3169 C3168 1.386 . S
C3169 C3173 1.393 . S
C3170 H3162 0.950 . S
C3170 C3168 1.391 . S
C3170 C3171 1.400 . S
C3171 C3170 1.400 . S
C3171 C3172 1.398 . S
C3171 C3177 1.491 . S
C3172 H3163 0.950 . S
C3172 C3171 1.398 . S
C3172 C3173 1.391 . S
C3173 H3161 0.950 . S
C3173 C3169 1.393 . S
C3173 C3172 1.391 . S
C3174 H3164 0.950 . S
C3174 C3175 1.386 . S
C3174 C3176 1.391 . S
C3175 C3174 1.386 . S
C3175 C3179 1.393 . S
C3176 H3165 0.950 . S
C3176 C3174 1.391 . S
C3176 C3177 1.400 . S
C3177 C3171 1.491 . S
C3177 C3176 1.400 . S
C3177 C3178 1.398 . S
C3178 H3166 0.950 . S
C3178 C3177 1.398 . S
C3178 C3179 1.391 . S
C3179 H3167 0.950 . S
C3179 C3175 1.393 . S
C3179 C3178 1.391 . S
H3180 C3188 0.950 . S
H3181 C3193 0.950 . S
H3182 C3190 0.950 . S
H3183 C3192 0.950 . S
H3184 C3194 0.950 . S
H3185 C3196 0.950 . S
H3186 C3198 0.950 . S
H3187 C3199 0.950 . S
C3188 H3180 0.950 . S
C3188 C3189 1.386 . S
C3188 C3190 1.391 . S
C3189 C3188 1.386 . S
C3189 C3193 1.393 . S
C3190 H3182 0.950 . S
C3190 C3188 1.391 . S
C3190 C3191 1.400 . S
C3191 C3190 1.400 . S
C3191 C3192 1.398 . S
C3191 C3197 1.491 . S
C3192 H3183 0.950 . S
C3192 C3191 1.398 . S
C3192 C3193 1.391 . S
C3193 H3181 0.950 . S
C3193 C3189 1.393 . S
C3193 C3192 1.391 . S
C3194 H3184 0.950 . S
C3194 C3195 1.386 . S
C3194 C3196 1.391 . S
C3195 C3194 1.386 . S
C3195 C3199 1.393 . S
C3196 H3185 0.950 . S
C3196 C3194 1.391 . S
C3196 C3197 1.400 . S
C3197 C3191 1.491 . S
C3197 C3196 1.400 . S
C3197 C3198 1.398 . S
C3198 H3186 0.950 . S
C3198 C3197 1.398 . S
C3198 C3199 1.391 . S
C3199 H3187 0.950 . S
C3199 C3195 1.393 . S
C3199 C3198 1.391 . S
H3200 C3208 0.950 . S
H3201 C3213 0.950 . S
H3202 C3210 0.950 . S
H3203 C3212 0.950 . S
H3204 C3214 0.950 1_554 S
H3205 C3216 0.950 . S
H3206 C3218 0.950 . S
H3207 C3219 0.950 . S
C3208 H3200 0.950 . S
C3208 C3209 1.386 . S
C3208 C3210 1.391 . S
C3209 C3208 1.386 . S
C3209 C3213 1.393 . S
C3210 H3202 0.950 . S
C3210 C3208 1.391 . S
C3210 C3211 1.400 . S
C3211 C3210 1.400 . S
C3211 C3212 1.398 . S
C3211 C3217 1.491 . S
C3212 H3203 0.950 . S
C3212 C3211 1.398 . S
C3212 C3213 1.391 . S
C3213 H3201 0.950 . S
C3213 C3209 1.393 . S
C3213 C3212 1.391 . S
C3214 H3204 0.950 1_556 S
C3214 C3215 1.386 . S
C3214 C3216 1.391 . S
C3215 C3214 1.386 . S
C3215 C3219 1.393 . S
C3216 H3205 0.950 . S
C3216 C3214 1.391 . S
C3216 C3217 1.400 . S
C3217 C3211 1.491 . S
C3217 C3216 1.400 . S
C3217 C3218 1.398 . S
C3218 H3206 0.950 . S
C3218 C3217 1.398 . S
C3218 C3219 1.391 . S
C3219 H3207 0.950 . S
C3219 C3215 1.393 . S
C3219 C3218 1.391 . S
H3220 C3228 0.950 . S
H3221 C3233 0.950 . S
H3222 C3230 0.950 . S
H3223 C3232 0.950 . S
H3224 C3234 0.950 . S
H3225 C3236 0.950 . S
H3226 C3238 0.950 . S
H3227 C3239 0.950 . S
C3228 H3220 0.950 . S
C3228 C3229 1.386 . S
C3228 C3230 1.391 . S
C3229 C3228 1.386 . S
C3229 C3233 1.393 . S
C3230 H3222 0.950 . S
C3230 C3228 1.391 . S
C3230 C3231 1.400 . S
C3231 C3230 1.400 . S
C3231 C3232 1.398 . S
C3231 C3237 1.491 . S
C3232 H3223 0.950 . S
C3232 C3231 1.398 . S
C3232 C3233 1.391 . S
C3233 H3221 0.950 . S
C3233 C3229 1.393 . S
C3233 C3232 1.391 . S
C3234 H3224 0.950 . S
C3234 C3235 1.386 . S
C3234 C3236 1.391 . S
C3235 C3234 1.386 . S
C3235 C3239 1.393 . S
C3236 H3225 0.950 . S
C3236 C3234 1.391 . S
C3236 C3237 1.400 . S
C3237 C3231 1.491 . S
C3237 C3236 1.400 . S
C3237 C3238 1.398 . S
C3238 H3226 0.950 . S
C3238 C3237 1.398 . S
C3238 C3239 1.391 . S
C3239 H3227 0.950 . S
C3239 C3235 1.393 . S
C3239 C3238 1.391 . S
H3240 C3248 0.950 . S
H3241 C3253 0.950 . S
H3242 C3250 0.950 . S
H3243 C3252 0.950 . S
H3244 C3254 0.950 . S
H3245 C3256 0.950 . S
H3246 C3258 0.950 . S
H3247 C3259 0.950 . S
C3248 H3240 0.950 . S
C3248 C3249 1.386 . S
C3248 C3250 1.391 . S
C3249 C3248 1.386 . S
C3249 C3253 1.393 . S
C3250 H3242 0.950 . S
C3250 C3248 1.391 . S
C3250 C3251 1.400 . S
C3251 C3250 1.400 . S
C3251 C3252 1.398 . S
C3251 C3257 1.491 . S
C3252 H3243 0.950 . S
C3252 C3251 1.398 . S
C3252 C3253 1.391 . S
C3253 H3241 0.950 . S
C3253 C3249 1.393 . S
C3253 C3252 1.391 . S
C3254 H3244 0.950 . S
C3254 C3255 1.386 . S
C3254 C3256 1.391 . S
C3255 C3254 1.386 . S
C3255 C3259 1.393 . S
C3256 H3245 0.950 . S
C3256 C3254 1.391 . S
C3256 C3257 1.400 . S
C3257 C3251 1.491 . S
C3257 C3256 1.400 . S
C3257 C3258 1.398 . S
C3258 H3246 0.950 . S
C3258 C3257 1.398 . S
C3258 C3259 1.391 . S
C3259 H3247 0.950 . S
C3259 C3255 1.393 . S
C3259 C3258 1.391 . S
H3260 C3268 0.950 . S
H3261 C3273 0.950 . S
H3262 C3270 0.950 . S
H3263 C3272 0.950 . S
H3264 C3274 0.950 . S
H3265 C3276 0.950 . S
H3266 C3278 0.950 . S
H3267 C3279 0.950 . S
C3268 H3260 0.950 . S
C3268 C3269 1.386 . S
C3268 C3270 1.391 . S
C3269 C3268 1.386 . S
C3269 C3273 1.393 . S
C3270 H3262 0.950 . S
C3270 C3268 1.391 . S
C3270 C3271 1.400 . S
C3271 C3270 1.400 . S
C3271 C3272 1.398 . S
C3271 C3277 1.491 . S
C3272 H3263 0.950 . S
C3272 C3271 1.398 . S
C3272 C3273 1.391 . S
C3273 H3261 0.950 . S
C3273 C3269 1.393 . S
C3273 C3272 1.391 . S
C3274 H3264 0.950 . S
C3274 C3275 1.386 . S
C3274 C3276 1.391 . S
C3275 C3274 1.386 . S
C3275 C3279 1.393 . S
C3276 H3265 0.950 . S
C3276 C3274 1.391 . S
C3276 C3277 1.400 . S
C3277 C3271 1.491 . S
C3277 C3276 1.400 . S
C3277 C3278 1.398 . S
C3278 H3266 0.950 . S
C3278 C3277 1.398 . S
C3278 C3279 1.391 . S
C3279 H3267 0.950 . S
C3279 C3275 1.393 . S
C3279 C3278 1.391 . S
H3280 C3288 0.950 . S
H3281 C3293 0.950 . S
H3282 C3290 0.950 . S
H3283 C3292 0.950 . S
H3284 C3294 0.950 . S
H3285 C3296 0.950 . S
H3286 C3298 0.950 . S
H3287 C3299 0.950 . S
C3288 H3280 0.950 . S
C3288 C3289 1.386 . S
C3288 C3290 1.391 . S
C3289 C3288 1.386 . S
C3289 C3293 1.393 . S
C3290 H3282 0.950 . S
C3290 C3288 1.391 . S
C3290 C3291 1.400 . S
C3291 C3290 1.400 . S
C3291 C3292 1.398 . S
C3291 C3297 1.491 . S
C3292 H3283 0.950 . S
C3292 C3291 1.398 . S
C3292 C3293 1.391 . S
C3293 H3281 0.950 . S
C3293 C3289 1.393 . S
C3293 C3292 1.391 . S
C3294 H3284 0.950 . S
C3294 C3295 1.386 . S
C3294 C3296 1.391 . S
C3295 C3294 1.386 . S
C3295 C3299 1.393 . S
C3296 H3285 0.950 . S
C3296 C3294 1.391 . S
C3296 C3297 1.400 . S
C3297 C3291 1.491 . S
C3297 C3296 1.400 . S
C3297 C3298 1.398 . S
C3298 H3286 0.950 . S
C3298 C3297 1.398 . S
C3298 C3299 1.391 . S
C3299 H3287 0.950 . S
C3299 C3295 1.393 . S
C3299 C3298 1.391 . S
H3300 C3308 0.950 . S
H3301 C3313 0.950 . S
H3302 C3310 0.950 . S
H3303 C3312 0.950 . S
H3304 C3314 0.950 . S
H3305 C3316 0.950 . S
H3306 C3318 0.950 . S
H3307 C3319 0.950 . S
C3308 H3300 0.950 . S
C3308 C3309 1.386 . S
C3308 C3310 1.391 . S
C3309 C3308 1.386 . S
C3309 C3313 1.393 . S
C3310 H3302 0.950 . S
C3310 C3308 1.391 . S
C3310 C3311 1.400 . S
C3311 C3310 1.400 . S
C3311 C3312 1.398 . S
C3311 C3317 1.491 . S
C3312 H3303 0.950 . S
C3312 C3311 1.398 . S
C3312 C3313 1.391 . S
C3313 H3301 0.950 . S
C3313 C3309 1.393 . S
C3313 C3312 1.391 . S
C3314 H3304 0.950 . S
C3314 C3315 1.386 . S
C3314 C3316 1.391 . S
C3315 C3314 1.386 . S
C3315 C3319 1.393 . S
C3316 H3305 0.950 . S
C3316 C3314 1.391 . S
C3316 C3317 1.400 . S
C3317 C3311 1.491 . S
C3317 C3316 1.400 . S
C3317 C3318 1.398 . S
C3318 H3306 0.950 . S
C3318 C3317 1.398 . S
C3318 C3319 1.391 . S
C3319 H3307 0.950 . S
C3319 C3315 1.393 . S
C3319 C3318 1.391 . S
H3320 C3328 0.950 . S
H3321 C3333 0.950 . S
H3322 C3330 0.950 . S
H3323 C3332 0.950 1_455 S
H3324 C3334 0.950 . S
H3325 C3336 0.950 . S
H3326 C3338 0.950 . S
H3327 C3339 0.950 . S
C3328 H3320 0.950 . S
C3328 C3329 1.386 . S
C3328 C3330 1.391 . S
C3329 C3328 1.386 . S
C3329 C3333 1.393 . S
C3330 H3322 0.950 . S
C3330 C3328 1.391 . S
C3330 C3331 1.400 . S
C3331 C3330 1.400 . S
C3331 C3332 1.398 . S
C3331 C3337 1.491 . S
C3332 H3323 0.950 1_655 S
C3332 C3331 1.398 . S
C3332 C3333 1.391 . S
C3333 H3321 0.950 . S
C3333 C3329 1.393 . S
C3333 C3332 1.391 . S
C3334 H3324 0.950 . S
C3334 C3335 1.386 . S
C3334 C3336 1.391 . S
C3335 C3334 1.386 . S
C3335 C3339 1.393 . S
C3336 H3325 0.950 . S
C3336 C3334 1.391 . S
C3336 C3337 1.400 1_455 S
C3337 C3331 1.491 . S
C3337 C3336 1.400 1_655 S
C3337 C3338 1.398 . S
C3338 H3326 0.950 . S
C3338 C3337 1.398 . S
C3338 C3339 1.391 1_655 S
C3339 H3327 0.950 . S
C3339 C3335 1.393 . S
C3339 C3338 1.391 1_455 S
H3340 C3348 0.950 . S
H3341 C3353 0.950 . S
H3342 C3350 0.950 . S
H3343 C3352 0.950 . S
H3344 C3354 0.950 . S
H3345 C3356 0.950 . S
H3346 C3358 0.950 . S
H3347 C3359 0.950 . S
C3348 H3340 0.950 . S
C3348 C3349 1.386 . S
C3348 C3350 1.391 . S
C3349 C3348 1.386 . S
C3349 C3353 1.393 . S
C3350 H3342 0.950 . S
C3350 C3348 1.391 . S
C3350 C3351 1.400 . S
C3351 C3350 1.400 . S
C3351 C3352 1.398 . S
C3351 C3357 1.491 . S
C3352 H3343 0.950 . S
C3352 C3351 1.398 . S
C3352 C3353 1.391 . S
C3353 H3341 0.950 . S
C3353 C3349 1.393 . S
C3353 C3352 1.391 . S
C3354 H3344 0.950 . S
C3354 C3355 1.386 . S
C3354 C3356 1.391 . S
C3355 C3354 1.386 . S
C3355 C3359 1.393 . S
C3356 H3345 0.950 . S
C3356 C3354 1.391 . S
C3356 C3357 1.400 . S
C3357 C3351 1.491 . S
C3357 C3356 1.400 . S
C3357 C3358 1.398 . S
C3358 H3346 0.950 . S
C3358 C3357 1.398 . S
C3358 C3359 1.391 . S
C3359 H3347 0.950 . S
C3359 C3355 1.393 . S
C3359 C3358 1.391 . S
H3360 C3368 0.950 . S
H3361 C3373 0.950 . S
H3362 C3370 0.950 . S
H3363 C3372 0.950 . S
H3364 C3374 0.950 . S
H3365 C3376 0.950 . S
H3366 C3378 0.950 . S
H3367 C3379 0.950 . S
C3368 H3360 0.950 . S
C3368 C3369 1.386 . S
C3368 C3370 1.391 . S
C3369 C3368 1.386 . S
C3369 C3373 1.393 . S
C3370 H3362 0.950 . S
C3370 C3368 1.391 . S
C3370 C3371 1.400 . S
C3371 C3370 1.400 . S
C3371 C3372 1.398 . S
C3371 C3377 1.491 . S
C3372 H3363 0.950 . S
C3372 C3371 1.398 . S
C3372 C3373 1.391 . S
C3373 H3361 0.950 . S
C3373 C3369 1.393 . S
C3373 C3372 1.391 . S
C3374 H3364 0.950 . S
C3374 C3375 1.386 . S
C3374 C3376 1.391 . S
C3375 C3374 1.386 . S
C3375 C3379 1.393 . S
C3376 H3365 0.950 . S
C3376 C3374 1.391 . S
C3376 C3377 1.400 . S
C3377 C3371 1.491 . S
C3377 C3376 1.400 . S
C3377 C3378 1.398 . S
C3378 H3366 0.950 . S
C3378 C3377 1.398 . S
C3378 C3379 1.391 . S
C3379 H3367 0.950 . S
C3379 C3375 1.393 . S
C3379 C3378 1.391 . S
H3380 C3388 0.950 . S
H3381 C3393 0.950 . S
H3382 C3390 0.950 . S
H3383 C3392 0.950 . S
H3384 C3394 0.950 . S
H3385 C3396 0.950 . S
H3386 C3398 0.950 . S
H3387 C3399 0.950 . S
C3388 H3380 0.950 . S
C3388 C3389 1.386 . S
C3388 C3390 1.391 . S
C3389 C3388 1.386 . S
C3389 C3393 1.393 . S
C3390 H3382 0.950 . S
C3390 C3388 1.391 . S
C3390 C3391 1.400 . S
C3391 C3390 1.400 . S
C3391 C3392 1.398 . S
C3391 C3397 1.491 . S
C3392 H3383 0.950 . S
C3392 C3391 1.398 . S
C3392 C3393 1.391 . S
C3393 H3381 0.950 . S
C3393 C3389 1.393 . S
C3393 C3392 1.391 . S
C3394 H3384 0.950 . S
C3394 C3395 1.386 . S
C3394 C3396 1.391 . S
C3395 C3394 1.386 . S
C3395 C3399 1.393 . S
C3396 H3385 0.950 . S
C3396 C3394 1.391 . S
C3396 C3397 1.400 . S
C3397 C3391 1.491 . S
C3397 C3396 1.400 . S
C3397 C3398 1.398 . S
C3398 H3386 0.950 . S
C3398 C3397 1.398 . S
C3398 C3399 1.391 . S
C3399 H3387 0.950 . S
C3399 C3395 1.393 . S
C3399 C3398 1.391 . S
H3400 C3408 0.950 . S
H3401 C3413 0.950 . S
H3402 C3410 0.950 . S
H3403 C3412 0.950 . S
H3404 C3414 0.950 . S
H3405 C3416 0.950 . S
H3406 C3418 0.972 . S
H3407 C3419 0.950 . S
C3408 H3400 0.950 . S
C3408 C3409 1.386 . S
C3408 C3410 1.391 . S
C3409 C3408 1.386 . S
C3409 C3413 1.393 . S
C3410 H3402 0.950 . S
C3410 C3408 1.391 . S
C3410 C3411 1.400 . S
C3411 C3410 1.400 . S
C3411 C3412 1.398 . S
C3411 C3417 1.491 . S
C3412 H3403 0.950 . S
C3412 C3411 1.398 . S
C3412 C3413 1.391 . S
C3413 H3401 0.950 . S
C3413 C3409 1.393 . S
C3413 C3412 1.391 . S
C3414 H3404 0.950 . S
C3414 C3415 1.386 . S
C3414 C3416 1.391 . S
C3415 C3414 1.386 . S
C3415 C3419 1.393 1_655 S
C3416 H3405 0.950 . S
C3416 C3414 1.391 . S
C3416 C3417 1.400 . S
C3417 C3411 1.491 . S
C3417 C3416 1.400 . S
C3417 C3418 1.358 1_655 S
C3418 H3406 0.972 . S
C3418 C3417 1.358 1_455 S
C3418 C3419 1.411 . S
C3419 H3407 0.950 . S
C3419 C3415 1.393 1_455 S
C3419 C3418 1.411 . S
H3420 C3428 0.950 . S
H3421 C3433 0.950 . S
H3422 C3430 0.950 . S
H3423 C3432 0.950 . S
H3424 C3434 0.950 . S
H3425 C3436 0.950 . S
H3426 C3438 0.950 . S
H3427 C3439 0.950 . S
C3428 H3420 0.950 . S
C3428 C3429 1.386 . S
C3428 C3430 1.391 . S
C3429 C3428 1.386 . S
C3429 C3433 1.393 . S
C3430 H3422 0.950 . S
C3430 C3428 1.391 . S
C3430 C3431 1.400 . S
C3431 C3430 1.400 . S
C3431 C3432 1.398 . S
C3431 C3437 1.491 . S
C3432 H3423 0.950 . S
C3432 C3431 1.398 . S
C3432 C3433 1.391 . S
C3433 H3421 0.950 . S
C3433 C3429 1.393 . S
C3433 C3432 1.391 . S
C3434 H3424 0.950 . S
C3434 C3435 1.386 . S
C3434 C3436 1.391 . S
C3435 C3434 1.386 . S
C3435 C3439 1.393 . S
C3436 H3425 0.950 . S
C3436 C3434 1.391 . S
C3436 C3437 1.400 . S
C3437 C3431 1.491 . S
C3437 C3436 1.400 . S
C3437 C3438 1.398 . S
C3438 H3426 0.950 . S
C3438 C3437 1.398 . S
C3438 C3439 1.391 . S
C3439 H3427 0.950 . S
C3439 C3435 1.393 . S
C3439 C3438 1.391 . S
H3440 C3448 0.950 . S
H3441 C3453 0.950 . S
H3442 C3450 0.950 . S
H3443 C3452 0.950 . S
H3444 C3454 0.950 . S
H3445 C3456 0.950 . S
H3446 C3458 0.950 . S
H3447 C3459 0.950 . S
C3448 H3440 0.950 . S
C3448 C3449 1.386 . S
C3448 C3450 1.391 . S
C3449 C3448 1.386 . S
C3449 C3453 1.393 . S
C3450 H3442 0.950 . S
C3450 C3448 1.391 . S
C3450 C3451 1.400 . S
C3451 C3450 1.400 . S
C3451 C3452 1.398 . S
C3451 C3457 1.491 . S
C3452 H3443 0.950 . S
C3452 C3451 1.398 . S
C3452 C3453 1.391 . S
C3453 H3441 0.950 . S
C3453 C3449 1.393 . S
C3453 C3452 1.391 . S
C3454 H3444 0.950 . S
C3454 C3455 1.386 . S
C3454 C3456 1.391 . S
C3455 C3454 1.386 . S
C3455 C3459 1.393 . S
C3456 H3445 0.950 . S
C3456 C3454 1.391 . S
C3456 C3457 1.400 . S
C3457 C3451 1.491 . S
C3457 C3456 1.400 . S
C3457 C3458 1.398 . S
C3458 H3446 0.950 . S
C3458 C3457 1.398 . S
C3458 C3459 1.391 . S
C3459 H3447 0.950 . S
C3459 C3455 1.393 . S
C3459 C3458 1.391 . S
H3460 C3468 0.950 . S
H3461 C3473 0.950 . S
H3462 C3470 0.950 . S
H3463 C3472 0.950 . S
H3464 C3474 0.950 . S
H3465 C3476 0.950 . S
H3466 C3478 0.950 . S
H3467 C3479 0.950 1_545 S
C3468 H3460 0.950 . S
C3468 C3469 1.386 . S
C3468 C3470 1.391 . S
C3469 C3468 1.386 . S
C3469 C3473 1.393 . S
C3470 H3462 0.950 . S
C3470 C3468 1.391 . S
C3470 C3471 1.400 . S
C3471 C3470 1.400 . S
C3471 C3472 1.398 . S
C3471 C3477 1.491 . S
C3472 H3463 0.950 . S
C3472 C3471 1.398 . S
C3472 C3473 1.391 . S
C3473 H3461 0.950 . S
C3473 C3469 1.393 . S
C3473 C3472 1.391 . S
C3474 H3464 0.950 . S
C3474 C3475 1.386 . S
C3474 C3476 1.391 . S
C3475 C3474 1.386 . S
C3475 C3479 1.393 . S
C3476 H3465 0.950 . S
C3476 C3474 1.391 . S
C3476 C3477 1.400 . S
C3477 C3471 1.491 . S
C3477 C3476 1.400 . S
C3477 C3478 1.398 . S
C3478 H3466 0.950 . S
C3478 C3477 1.398 . S
C3478 C3479 1.391 . S
C3479 H3467 0.950 1_565 S
C3479 C3475 1.393 . S
C3479 C3478 1.391 . S
H3480 C3488 0.950 . S
H3481 C3493 0.950 . S
H3482 C3490 0.950 . S
H3483 C3492 0.950 . S
H3484 C3494 0.950 . S
H3485 C3496 0.950 . S
H3486 C3498 0.950 . S
H3487 C3499 0.950 . S
C3488 H3480 0.950 . S
C3488 C3489 1.386 . S
C3488 C3490 1.391 . S
C3489 C3488 1.386 . S
C3489 C3493 1.393 . S
C3490 H3482 0.950 . S
C3490 C3488 1.391 . S
C3490 C3491 1.400 . S
C3491 C3490 1.400 . S
C3491 C3492 1.398 . S
C3491 C3497 1.491 . S
C3492 H3483 0.950 . S
C3492 C3491 1.398 . S
C3492 C3493 1.391 . S
C3493 H3481 0.950 . S
C3493 C3489 1.393 . S
C3493 C3492 1.391 . S
C3494 H3484 0.950 . S
C3494 C3495 1.386 . S
C3494 C3496 1.391 . S
C3495 C3494 1.386 . S
C3495 C3499 1.393 . S
C3496 H3485 0.950 . S
C3496 C3494 1.391 . S
C3496 C3497 1.400 . S
C3497 C3491 1.491 . S
C3497 C3496 1.400 . S
C3497 C3498 1.398 . S
C3498 H3486 0.950 . S
C3498 C3497 1.398 . S
C3498 C3499 1.391 . S
C3499 H3487 0.950 . S
C3499 C3495 1.393 . S
C3499 C3498 1.391 . S
H3500 C3508 0.950 . S
H3501 C3513 0.950 . S
H3502 C3510 0.950 . S
H3503 C3512 0.950 . S
H3504 C3514 0.950 . S
H3505 C3516 0.950 . S
H3506 C3518 0.950 . S
H3507 C3519 0.950 . S
C3508 H3500 0.950 . S
C3508 C3509 1.386 . S
C3508 C3510 1.391 . S
C3509 C3508 1.386 . S
C3509 C3513 1.393 . S
C3510 H3502 0.950 . S
C3510 C3508 1.391 . S
C3510 C3511 1.400 . S
C3511 C3510 1.400 . S
C3511 C3512 1.398 . S
C3511 C3517 1.491 . S
C3512 H3503 0.950 . S
C3512 C3511 1.398 . S
C3512 C3513 1.391 . S
C3513 H3501 0.950 . S
C3513 C3509 1.393 . S
C3513 C3512 1.391 . S
C3514 H3504 0.950 . S
C3514 C3515 1.386 . S
C3514 C3516 1.391 . S
C3515 C3514 1.386 . S
C3515 C3519 1.393 . S
C3516 H3505 0.950 . S
C3516 C3514 1.391 . S
C3516 C3517 1.400 . S
C3517 C3511 1.491 . S
C3517 C3516 1.400 . S
C3517 C3518 1.398 . S
C3518 H3506 0.950 . S
C3518 C3517 1.398 . S
C3518 C3519 1.391 . S
C3519 H3507 0.950 . S
C3519 C3515 1.393 . S
C3519 C3518 1.391 . S
H3520 C3528 0.950 . S
H3521 C3533 0.950 . S
H3522 C3530 0.950 . S
H3523 C3532 0.950 . S
H3524 C3534 0.950 . S
H3525 C3536 0.950 . S
H3526 C3538 0.950 . S
H3527 C3539 0.950 . S
C3528 H3520 0.950 . S
C3528 C3529 1.386 . S
C3528 C3530 1.391 . S
C3529 C3528 1.386 . S
C3529 C3533 1.393 . S
C3530 H3522 0.950 . S
C3530 C3528 1.391 . S
C3530 C3531 1.400 . S
C3531 C3530 1.400 . S
C3531 C3532 1.398 . S
C3531 C3537 1.491 . S
C3532 H3523 0.950 . S
C3532 C3531 1.398 . S
C3532 C3533 1.391 . S
C3533 H3521 0.950 . S
C3533 C3529 1.393 . S
C3533 C3532 1.391 . S
C3534 H3524 0.950 . S
C3534 C3535 1.386 . S
C3534 C3536 1.391 . S
C3535 C3534 1.386 . S
C3535 C3539 1.393 . S
C3536 H3525 0.950 . S
C3536 C3534 1.391 . S
C3536 C3537 1.400 . S
C3537 C3531 1.491 . S
C3537 C3536 1.400 . S
C3537 C3538 1.398 . S
C3538 H3526 0.950 . S
C3538 C3537 1.398 . S
C3538 C3539 1.391 . S
C3539 H3527 0.950 . S
C3539 C3535 1.393 . S
C3539 C3538 1.391 . S
H3540 C3548 0.950 . S
H3541 C3553 0.950 . S
H3542 C3550 0.950 . S
H3543 C3552 0.950 . S
H3544 C3554 0.950 . S
H3545 C3556 0.950 . S
H3546 C3558 0.950 . S
H3547 C3559 0.950 . S
C3548 H3540 0.950 . S
C3548 C3549 1.386 . S
C3548 C3550 1.391 . S
C3549 C3548 1.386 . S
C3549 C3553 1.393 . S
C3550 H3542 0.950 . S
C3550 C3548 1.391 . S
C3550 C3551 1.400 . S
C3551 C3550 1.400 . S
C3551 C3552 1.398 . S
C3551 C3557 1.491 . S
C3552 H3543 0.950 . S
C3552 C3551 1.398 . S
C3552 C3553 1.391 . S
C3553 H3541 0.950 . S
C3553 C3549 1.393 . S
C3553 C3552 1.391 . S
C3554 H3544 0.950 . S
C3554 C3555 1.386 . S
C3554 C3556 1.391 . S
C3555 C3554 1.386 . S
C3555 C3559 1.393 . S
C3556 H3545 0.950 . S
C3556 C3554 1.391 . S
C3556 C3557 1.400 . S
C3557 C3551 1.491 . S
C3557 C3556 1.400 . S
C3557 C3558 1.398 . S
C3558 H3546 0.950 . S
C3558 C3557 1.398 . S
C3558 C3559 1.391 . S
C3559 H3547 0.950 . S
C3559 C3555 1.393 . S
C3559 C3558 1.391 . S
H3560 C3568 0.950 . S
H3561 C3573 0.950 . S
H3562 C3570 0.950 . S
H3563 C3572 0.950 . S
H3564 C3574 0.950 . S
H3565 C3576 0.950 . S
H3566 C3578 0.950 . S
H3567 C3579 0.950 . S
C3568 H3560 0.950 . S
C3568 C3569 1.386 . S
C3568 C3570 1.391 . S
C3569 C3568 1.386 . S
C3569 C3573 1.393 . S
C3570 H3562 0.950 . S
C3570 C3568 1.391 . S
C3570 C3571 1.400 . S
C3571 C3570 1.400 . S
C3571 C3572 1.398 . S
C3571 C3577 1.491 . S
C3572 H3563 0.950 . S
C3572 C3571 1.398 . S
C3572 C3573 1.391 . S
C3573 H3561 0.950 . S
C3573 C3569 1.393 . S
C3573 C3572 1.391 . S
C3574 H3564 0.950 . S
C3574 C3575 1.386 . S
C3574 C3576 1.391 . S
C3575 C3574 1.386 . S
C3575 C3579 1.393 . S
C3576 H3565 0.950 . S
C3576 C3574 1.391 . S
C3576 C3577 1.400 . S
C3577 C3571 1.491 . S
C3577 C3576 1.400 . S
C3577 C3578 1.398 . S
C3578 H3566 0.950 . S
C3578 C3577 1.398 . S
C3578 C3579 1.391 . S
C3579 H3567 0.950 . S
C3579 C3575 1.393 . S
C3579 C3578 1.391 . S
H3580 C3588 0.950 . S
H3581 C3593 0.950 . S
H3582 C3590 0.950 . S
H3583 C3592 0.950 . S
H3584 C3594 0.950 . S
H3585 C3596 0.950 . S
H3586 C3598 0.950 . S
H3587 C3599 0.950 . S
C3588 H3580 0.950 . S
C3588 C3589 1.386 . S
C3588 C3590 1.391 . S
C3589 C3588 1.386 . S
C3589 C3593 1.393 . S
C3590 H3582 0.950 . S
C3590 C3588 1.391 . S
C3590 C3591 1.400 . S
C3591 C3590 1.400 . S
C3591 C3592 1.398 . S
C3591 C3597 1.491 . S
C3592 H3583 0.950 . S
C3592 C3591 1.398 . S
C3592 C3593 1.391 . S
C3593 H3581 0.950 . S
C3593 C3589 1.393 . S
C3593 C3592 1.391 . S
C3594 H3584 0.950 . S
C3594 C3595 1.386 . S
C3594 C3596 1.391 . S
C3595 C3594 1.386 . S
C3595 C3599 1.393 . S
C3596 H3585 0.950 . S
C3596 C3594 1.391 . S
C3596 C3597 1.400 . S
C3597 C3591 1.491 . S
C3597 C3596 1.400 . S
C3597 C3598 1.398 . S
C3598 H3586 0.950 . S
C3598 C3597 1.398 . S
C3598 C3599 1.391 . S
C3599 H3587 0.950 . S
C3599 C3595 1.393 . S
C3599 C3598 1.391 . S
C1689 C111 1.766 . S
C1695 C392 1.648 . S
C1709 C64 2.179 . S
C1715 C483 2.218 . S
C1729 C77 1.501 . S
C1735 C560 1.441 . S
C1755 C658 1.278 . S
C1749 C95 1.413 . S
C1769 C25 1.373 . S
C1775 C742 1.319 . S
C1795 C814 0.939 . S
C1789 C36 0.985 . S
C1815 C903 0.893 . S
C1809 C50 0.873 . S
C1829 C11 1.424 . S
C1835 C980 1.214 . S
C1855 C399 1.972 . S
C1849 C237 1.953 . S
C1869 C245 0.639 . S
C1875 C490 0.637 . S
C1895 C567 1.060 . S
C1889 C279 1.033 . S
C1915 C644 1.481 . S
C1909 C175 1.589 . S
C1929 C231 1.956 . S
C1935 C728 1.814 . S
C1955 C830 1.059 . S
C1949 C251 1.062 . S
C1975 C910 0.779 . S
C1969 C273 0.746 . S
C1995 C987 1.455 . S
C1989 C181 1.527 . S
C2015 C406 1.321 . S
C2009 C165 1.388 . S
C2029 C288 1.895 . S
C2035 C1071 1.885 1_556 S
C2055 C1159 2.166 . S
C2049 C333 2.350 . S
C2075 C1232 0.495 . S
C2069 C316 0.495 . S
C2089 C123 0.852 . S
C2095 C994 0.833 . S
C2109 C137 1.368 . S
C2115 C574 1.325 . S
C2129 C330 2.193 . S
C2135 C1323 2.178 . S
C2155 C1400 0.721 . S
C2149 C302 0.717 . S
C2175 C403 1.793 . S
C2169 C63 1.904 . S
C2195 C1418 2.223 . S
C2189 C106 2.284 . S
C2209 C97 1.558 . S
C2215 C571 1.512 . S
C2229 C81 1.471 . S
C2235 C1318 1.334 . S
C2255 C730 1.420 . S
C2249 C13 1.321 . S
C2269 C55 0.967 . S
C2275 C1162 0.915 . S
C2295 C914 0.929 1_565 S
C2289 C35 0.922 . S
C2315 C1495 1.424 . S
C2309 C21 1.584 . S
C2335 C410 2.084 . S
C2329 C147 2.185 . S
C2355 C1402 0.681 . S
C2349 C321 0.660 . S
C2369 C119 1.116 . S
C2375 C578 1.102 . S
C2389 C293 1.657 . S
C2395 C1327 1.632 . S
C2409 C153 1.946 . S
C2415 C739 1.992 . S
C2435 C1155 1.112 . S
C2429 C315 1.171 . S
C2449 C125 0.739 . S
C2455 C898 0.799 . S
C2469 C287 1.708 . S
C2475 C1502 1.573 . S
C2489 C193 1.411 . S
C2495 C394 1.352 . S
C2509 C176 1.960 . S
C2515 C1082 1.916 . S
C2529 C263 2.304 . S
C2535 C812 2.117 . S
C2549 C246 0.611 . S
C2555 C1243 0.627 . S
C2575 C1486 0.839 . S
C2569 C277 0.828 1_565 S
C2589 C221 1.350 . S
C2595 C562 1.330 . S
C2615 C662 2.249 . S
C2609 C260 2.273 . S
C2635 C487 0.855 . S
C2629 C204 0.824 . S
C2649 C83 1.775 . S
C2655 C1568 1.634 . S
C2675 C1407 2.206 . S
C2669 C92 2.192 . S
C2689 C105 1.508 . S
C2695 C1652 1.410 . S
C2709 C67 1.416 . S
C2715 C1330 1.303 . S
C2729 C53 1.374 . S
C2735 C1078 1.301 . S
C2755 C1150 0.939 . S
C2749 C8 0.985 . S
C2775 C1239 0.909 . S
C2769 C22 0.825 . S
C2795 C1484 1.262 . S
C2789 C39 1.431 . S
C2815 C1575 1.949 . S
C2809 C265 1.974 . S
C2829 C189 0.636 . S
C2835 C1414 0.642 . S
C2855 C1659 1.067 . S
C2849 C209 1.023 . S
C2875 C1316 1.512 . S
C2869 C217 1.591 . S
C2895 C1064 1.836 . S
C2889 C259 1.970 . S
C2909 C195 1.047 . S
C2915 C1166 1.037 . S
C2935 C1246 0.768 . S
C2929 C203 0.751 . S
C2949 C223 1.526 . S
C2955 C1491 1.459 . S
C2975 C1582 1.290 . S
C2969 C319 1.384 . S
C2989 C134 1.880 . S
C2995 C735 1.896 . S
C3015 C823 2.177 . S
C3009 C151 2.354 . S
C3035 C896 0.568 . S
C3029 C162 0.434 . S
C3055 C1498 0.860 . S
C3049 C305 0.837 . S
C3069 C291 1.372 1_554 S
C3075 C1666 1.298 . S
C3095 C651 2.196 . S
C3089 C148 2.175 . S
C3115 C476 0.713 . S
C3109 C120 0.719 . S
C3129 C91 1.903 . S
C3135 C1579 1.756 . S
C3155 C494 2.234 . S
C3149 C78 2.288 . S
C3169 C69 1.550 . S
C3175 C1663 1.503 . S
C3189 C109 1.480 . S
C3195 C646 1.334 . S
C3209 C41 1.362 . S
C3215 C1066 1.390 . S
C3235 C826 0.970 . S
C3229 C27 0.963 . S
C3249 C7 0.906 . S
C3255 C1250 0.966 . S
C3269 C49 1.587 . S
C3275 C991 1.432 . S
C3295 C1586 2.084 . S
C3289 C329 2.185 . S
C3309 C167 0.644 . S
C3315 C478 0.715 . S
C3335 C1670 1.101 . S
C3329 C301 1.116 . S
C3349 C139 1.635 . S
C3355 C655 1.619 . S
C3369 C335 1.952 . S
C3375 C1075 2.000 . S
C3395 C819 1.114 . S
C3389 C161 1.170 . S
C3409 C307 0.750 . S
C3415 C1234 0.786 1_655 S
C3435 C998 1.582 . S
C3429 C133 1.709 . S
C3455 C1570 1.368 . S
C3449 C249 1.420 . S
C3475 C746 1.902 1_665 S
C3469 C218 1.956 . S
C3489 C235 2.310 . S
C3495 C1148 2.133 . S
C3515 C907 0.661 . S
C3509 C190 0.663 . S
C3529 C207 0.855 . S
C3535 C982 0.845 . S
C3549 C179 1.347 . S
C3555 C1654 1.337 1_554 S
C3575 C1334 2.232 . S
C3569 C232 2.262 1_565 S
C3595 C1411 0.863 . S
C3589 C274 0.829 . S
