# Generated by pormake.
# Topology ocu, (6,8)-cn, num edge types: 1
# Building blocks:
#     Node 0, Type 0, BuildingBlock: KUMBUR_clean_sbu_0, # of connection points: 6
#     Node 1, Type 0, BuildingBlock: KUMBUR_clean_sbu_0, # of connection points: 6
#     Node 2, Type 0, BuildingBlock: KUMBUR_clean_sbu_0, # of connection points: 6
#     Node 3, Type 0, BuildingBlock: KUMBUR_clean_sbu_0, # of connection points: 6
#     Node 4, Type 0, BuildingBlock: KUMBUR_clean_sbu_0, # of connection points: 6
#     Node 5, Type 0, BuildingBlock: KUMBUR_clean_sbu_0, # of connection points: 6
#     Node 6, Type 0, BuildingBlock: KUMBUR_clean_sbu_0, # of connection points: 6
#     Node 7, Type 0, BuildingBlock: KUMBUR_clean_sbu_0, # of connection points: 6
#     Node 8, Type 1, BuildingBlock: VETTIZ_charged_sbu_0, # of connection points: 8
#     Node 9, Type 1, BuildingBlock: VETTIZ_charged_sbu_0, # of connection points: 8
#     Node 10, Type 1, BuildingBlock: VETTIZ_charged_sbu_0, # of connection points: 8
#     Node 11, Type 1, BuildingBlock: VETTIZ_charged_sbu_0, # of connection points: 8
#     Node 12, Type 1, BuildingBlock: VETTIZ_charged_sbu_0, # of connection points: 8
#     Node 13, Type 1, BuildingBlock: VETTIZ_charged_sbu_0, # of connection points: 8
#     Edge 14, Type (0, 1), BuildingBlock: AJUNOK_clean_linker_0, # of connection points: 2
#     Edge 15, Type (0, 1), BuildingBlock: AJUNOK_clean_linker_0, # of connection points: 2
#     Edge 16, Type (0, 1), BuildingBlock: AJUNOK_clean_linker_0, # of connection points: 2
#     Edge 17, Type (0, 1), BuildingBlock: AJUNOK_clean_linker_0, # of connection points: 2
#     Edge 18, Type (0, 1), BuildingBlock: AJUNOK_clean_linker_0, # of connection points: 2
#     Edge 19, Type (0, 1), BuildingBlock: AJUNOK_clean_linker_0, # of connection points: 2
#     Edge 20, Type (0, 1), BuildingBlock: AJUNOK_clean_linker_0, # of connection points: 2
#     Edge 21, Type (0, 1), BuildingBlock: AJUNOK_clean_linker_0, # of connection points: 2
#     Edge 22, Type (0, 1), BuildingBlock: AJUNOK_clean_linker_0, # of connection points: 2
#     Edge 23, Type (0, 1), BuildingBlock: AJUNOK_clean_linker_0, # of connection points: 2
#     Edge 24, Type (0, 1), BuildingBlock: AJUNOK_clean_linker_0, # of connection points: 2
#     Edge 25, Type (0, 1), BuildingBlock: AJUNOK_clean_linker_0, # of connection points: 2
#     Edge 26, Type (0, 1), BuildingBlock: AJUNOK_clean_linker_0, # of connection points: 2
#     Edge 27, Type (0, 1), BuildingBlock: AJUNOK_clean_linker_0, # of connection points: 2
#     Edge 28, Type (0, 1), BuildingBlock: AJUNOK_clean_linker_0, # of connection points: 2
#     Edge 29, Type (0, 1), BuildingBlock: AJUNOK_clean_linker_0, # of connection points: 2
#     Edge 30, Type (0, 1), BuildingBlock: AJUNOK_clean_linker_0, # of connection points: 2
#     Edge 31, Type (0, 1), BuildingBlock: AJUNOK_clean_linker_0, # of connection points: 2
#     Edge 32, Type (0, 1), BuildingBlock: AJUNOK_clean_linker_0, # of connection points: 2
#     Edge 33, Type (0, 1), BuildingBlock: AJUNOK_clean_linker_0, # of connection points: 2
#     Edge 34, Type (0, 1), BuildingBlock: AJUNOK_clean_linker_0, # of connection points: 2
#     Edge 35, Type (0, 1), BuildingBlock: AJUNOK_clean_linker_0, # of connection points: 2
#     Edge 36, Type (0, 1), BuildingBlock: AJUNOK_clean_linker_0, # of connection points: 2
#     Edge 37, Type (0, 1), BuildingBlock: AJUNOK_clean_linker_0, # of connection points: 2
#     Edge 38, Type (0, 1), BuildingBlock: AJUNOK_clean_linker_0, # of connection points: 2
#     Edge 39, Type (0, 1), BuildingBlock: AJUNOK_clean_linker_0, # of connection points: 2
#     Edge 40, Type (0, 1), BuildingBlock: AJUNOK_clean_linker_0, # of connection points: 2
#     Edge 41, Type (0, 1), BuildingBlock: AJUNOK_clean_linker_0, # of connection points: 2
#     Edge 42, Type (0, 1), BuildingBlock: AJUNOK_clean_linker_0, # of connection points: 2
#     Edge 43, Type (0, 1), BuildingBlock: AJUNOK_clean_linker_0, # of connection points: 2
#     Edge 44, Type (0, 1), BuildingBlock: AJUNOK_clean_linker_0, # of connection points: 2
#     Edge 45, Type (0, 1), BuildingBlock: AJUNOK_clean_linker_0, # of connection points: 2
#     Edge 46, Type (0, 1), BuildingBlock: AJUNOK_clean_linker_0, # of connection points: 2
#     Edge 47, Type (0, 1), BuildingBlock: AJUNOK_clean_linker_0, # of connection points: 2
#     Edge 48, Type (0, 1), BuildingBlock: AJUNOK_clean_linker_0, # of connection points: 2
#     Edge 49, Type (0, 1), BuildingBlock: AJUNOK_clean_linker_0, # of connection points: 2
#     Edge 50, Type (0, 1), BuildingBlock: AJUNOK_clean_linker_0, # of connection points: 2
#     Edge 51, Type (0, 1), BuildingBlock: AJUNOK_clean_linker_0, # of connection points: 2
#     Edge 52, Type (0, 1), BuildingBlock: AJUNOK_clean_linker_0, # of connection points: 2
#     Edge 53, Type (0, 1), BuildingBlock: AJUNOK_clean_linker_0, # of connection points: 2
#     Edge 54, Type (0, 1), BuildingBlock: AJUNOK_clean_linker_0, # of connection points: 2
#     Edge 55, Type (0, 1), BuildingBlock: AJUNOK_clean_linker_0, # of connection points: 2
#     Edge 56, Type (0, 1), BuildingBlock: AJUNOK_clean_linker_0, # of connection points: 2
#     Edge 57, Type (0, 1), BuildingBlock: AJUNOK_clean_linker_0, # of connection points: 2
#     Edge 58, Type (0, 1), BuildingBlock: AJUNOK_clean_linker_0, # of connection points: 2
#     Edge 59, Type (0, 1), BuildingBlock: AJUNOK_clean_linker_0, # of connection points: 2
#     Edge 60, Type (0, 1), BuildingBlock: AJUNOK_clean_linker_0, # of connection points: 2
#     Edge 61, Type (0, 1), BuildingBlock: AJUNOK_clean_linker_0, # of connection points: 2
# Relax obj value: 0.132
# Max RMSD: 0.244
# Mean RMSD: 0.168
data_MOF--net-ocu--node1-KUMBUR_clean_sbu_0--node2-VETTIZ_charged_sbu_0--edge1-AJUNOK_clean_linker_0
_symmetry_space_group_name_H-M    P1
_symmetry_Int_Tables_number       1
_symmetry_cell_setting            triclinic
loop_
_symmetry_equiv_pos_as_xyz
'x, y, z'
_cell_length_a     29.710672
_cell_length_b     30.23919
_cell_length_c     31.954252
_cell_angle_alpha  76.593192
_cell_angle_beta   101.06583
_cell_angle_gamma 107.51391
loop_
_atom_site_label
_atom_site_type_symbol
_atom_site_fract_x
_atom_site_fract_y
_atom_site_fract_z
_atom_type_partial_charge
Tb0 Tb 0.27967 0.2212 0.24962 0.0
C1 C 0.44047 0.35748 0.33067 0.0
C2 C 0.46232 0.31248 0.40082 0.0
C3 C 0.5232 0.37384 0.36363 0.0
C4 C 0.4276 0.32183 0.3656 0.0
C5 C 0.4882 0.38459 0.32966 0.0
C6 C 0.5103 0.3378 0.39911 0.0
C7 C 0.46293 0.43206 0.26239 0.0
N8 N 0.40583 0.36632 0.29806 0.0
C9 C 0.41619 0.40404 0.26466 0.0
C10 C 0.49921 0.422 0.2948 0.0
Tb11 Tb 0.33109 0.31567 0.30363 0.0
N12 N 0.38085 0.29793 0.36601 0.0
C13 C 0.36616 0.26743 0.4028 0.0
C14 C 0.44765 0.27885 0.43718 0.0
C15 C 0.39927 0.25695 0.43849 0.0
H16 H 0.38862 0.41145 0.23904 0.0
H17 H 0.3874 0.23163 0.46689 0.0
H18 H 0.53752 0.33055 0.42555 0.0
H19 H 0.47098 0.46113 0.23547 0.0
H20 H 0.3293 0.24952 0.40487 0.0
H21 H 0.21343 0.30214 0.08889 0.0
H22 H 0.47318 0.2705 0.46482 0.0
H23 H 0.23235 0.1182 0.31192 0.0
H24 H 0.27297 0.29158 0.1517 0.0
H25 H 0.15784 0.05538 0.31143 0.0
H26 H 0.56019 0.39377 0.36315 0.0
H27 H 0.13218 0.24833 0.08711 0.0
H28 H 0.07529 0.17565 0.12233 0.0
H29 H 0.53546 0.44362 0.29285 0.0
H30 H 0.06063 0.10749 0.18233 0.0
N31 N 0.22617 0.23358 0.1882 0.0
C32 C 0.23788 0.26781 0.15256 0.0
C33 C 0.15821 0.24374 0.11544 0.0
C34 C 0.14722 0.2067 0.15044 0.0
C35 C 0.20402 0.27403 0.11628 0.0
C36 C 0.18245 0.20249 0.18662 0.0
H37 H 0.09178 0.06156 0.25212 0.0
N38 N 0.20992 0.16126 0.25313 0.0
C39 C 0.16188 0.08599 0.28553 0.0
C40 C 0.17417 0.1646 0.22013 0.0
C41 C 0.20439 0.12211 0.28556 0.0
C42 C 0.12466 0.0896 0.25207 0.0
C43 C 0.13049 0.12924 0.21878 0.0
O44 O 0.29901 0.15908 0.25144 0.0
O45 O 0.3389 0.24714 0.29968 0.0
O46 O 0.38238 0.31151 0.26461 0.0
O47 O 0.32923 0.27826 0.21117 0.0
O48 O 0.30316 0.17886 0.31188 0.0
O49 O 0.31238 0.21754 0.19823 0.0
O50 O 0.34372 0.38335 0.31752 0.0
O51 O 0.27169 0.28989 0.25464 0.0
O52 O 0.2266 0.21972 0.28949 0.0
O53 O 0.27865 0.26022 0.34066 0.0
O54 O 0.3078 0.35818 0.24136 0.0
O55 O 0.28499 0.32774 0.34037 0.0
C56 C 0.33874 0.20896 0.32801 0.0
C57 C 0.30868 0.14322 0.18504 0.0
C58 C 0.34209 0.10577 0.14343 0.0
C59 C 0.34832 0.13504 0.17338 0.0
C60 C 0.29587 0.08451 0.12525 0.0
C61 C 0.26265 0.12198 0.16669 0.0
C62 C 0.25637 0.09259 0.1369 0.0
C63 C 0.37208 0.30257 0.22502 0.0
C64 C 0.31702 0.17552 0.21515 0.0
C65 C 0.09455 0.13404 0.18377 0.0
C66 C 0.10286 0.17285 0.14968 0.0
C67 C 0.27132 0.3279 0.22649 0.0
C68 C 0.27441 0.40536 0.32028 0.0
C69 C 0.24423 0.40876 0.34776 0.0
C70 C 0.21788 0.4428 0.33536 0.0
C71 C 0.22139 0.47246 0.29446 0.0
C72 C 0.27666 0.43524 0.2794 0.0
C73 C 0.25023 0.46836 0.26664 0.0
C74 C 0.23652 0.23265 0.32785 0.0
C75 C 0.30539 0.37275 0.33558 0.0
H76 H 0.384 0.15193 0.18712 0.0
H77 H 0.29046 0.06204 0.10178 0.0
H78 H 0.23186 0.12838 0.17511 0.0
H79 H 0.22086 0.07634 0.12256 0.0
H80 H 0.24161 0.38505 0.37886 0.0
H81 H 0.20247 0.49945 0.28426 0.0
H82 H 0.29966 0.43394 0.25756 0.0
H83 H 0.25289 0.49166 0.23535 0.0
Tb84 Tb 0.82006 0.24014 0.2836 0.0
C85 C 0.69945 0.30804 0.34827 0.0
C86 C 0.62372 0.25085 0.33633 0.0
C87 C 0.64545 0.28181 0.40311 0.0
C88 C 0.66812 0.27813 0.32298 0.0
C89 C 0.68757 0.31173 0.3879 0.0
C90 C 0.61344 0.25147 0.37724 0.0
C91 C 0.75408 0.38046 0.39009 0.0
N92 N 0.73906 0.3371 0.33177 0.0
C93 C 0.76344 0.37599 0.35028 0.0
C94 C 0.71679 0.34725 0.40974 0.0
Tb95 Tb 0.75509 0.3224 0.26809 0.0
N96 N 0.67984 0.27798 0.28402 0.0
C97 C 0.64557 0.25582 0.25469 0.0
C98 C 0.59057 0.22475 0.30775 0.0
C99 C 0.6012 0.22812 0.26636 0.0
H100 H 0.79105 0.40369 0.33478 0.0
H101 H 0.57492 0.21003 0.24306 0.0
H102 H 0.58025 0.22984 0.38857 0.0
H103 H 0.77514 0.41007 0.40516 0.0
H104 H 0.65083 0.26028 0.22151 0.0
H105 H 0.98807 0.251 0.38987 0.0
H106 H 0.55611 0.20346 0.31668 0.0
H107 H 0.79823 0.23737 0.17857 0.0
H108 H 0.90073 0.22798 0.37155 0.0
H109 H 0.8428 0.25505 0.11694 0.0
H110 H 0.63623 0.28348 0.43381 0.0
H111 H 1.0392 0.28902 0.33178 0.0
H112 H 1.04543 0.31238 0.25193 0.0
H113 H 0.709 0.35117 0.44024 0.0
H114 H 1.00566 0.31194 0.17695 0.0
N115 N 0.90172 0.2578 0.30416 0.0
C116 C 0.92259 0.24605 0.34598 0.0
C117 C 1.00081 0.28018 0.3237 0.0
C118 C 0.97961 0.28692 0.28054 0.0
C119 C 0.97211 0.25868 0.35653 0.0
C120 C 0.92941 0.27495 0.27181 0.0
H121 H 0.93019 0.28837 0.12651 0.0
N122 N 0.85904 0.26103 0.22345 0.0
C123 C 0.86144 0.2617 0.14841 0.0
C124 C 0.90726 0.27539 0.2299 0.0
C125 C 0.83611 0.2521 0.18362 0.0
C126 C 0.91071 0.28042 0.15393 0.0
C127 C 0.93439 0.28681 0.19522 0.0
O128 O 0.79326 0.18094 0.2532 0.0
O129 O 0.75622 0.25036 0.29969 0.0
O130 O 0.81618 0.34516 0.31555 0.0
O131 O 0.85409 0.28544 0.33335 0.0
O132 O 0.79774 0.21807 0.34851 0.0
O133 O 0.84026 0.1782 0.31301 0.0
O134 O 0.74439 0.38981 0.25836 0.0
O135 O 0.80994 0.30506 0.24254 0.0
O136 O 0.75068 0.21568 0.24519 0.0
O137 O 0.73207 0.2852 0.21202 0.0
O138 O 0.82332 0.37245 0.25064 0.0
O139 O 0.71582 0.3467 0.20998 0.0
C140 C 0.75908 0.23147 0.34007 0.0
C141 C 0.78959 0.10658 0.29731 0.0
C142 C 0.81402 0.03765 0.33375 0.0
C143 C 0.8133 0.07333 0.29736 0.0
C144 C 0.77587 0.02401 0.3587 0.0
C145 C 0.75266 0.09487 0.32269 0.0
C146 C 0.7438 0.05163 0.35149 0.0
C147 C 0.84848 0.32528 0.33945 0.0
C148 C 0.81536 0.15528 0.28286 0.0
C149 C 0.98426 0.30207 0.20326 0.0
C150 C 1.00688 0.3024 0.24592 0.0
C151 C 0.84077 0.3451 0.23694 0.0
C152 C 0.75227 0.42711 0.18609 0.0
C153 C 0.74737 0.41938 0.14293 0.0
C154 C 0.78293 0.46953 0.10774 0.0
C155 C 0.77696 0.5324 0.07962 0.0
C156 C 0.78118 0.47191 0.19793 0.0
C157 C 0.79792 0.51692 0.16719 0.0
C158 C 0.72732 0.23994 0.21341 0.0
C159 C 0.72724 0.38906 0.21813 0.0
H160 H 0.8401 0.08211 0.27583 0.0
H161 H 0.77358 0.99546 0.3865 0.0
H162 H 0.7334 0.12012 0.32241 0.0
H163 H 0.71592 0.04243 0.37188 0.0
H164 H 0.73325 0.38453 0.13471 0.0
H165 H 0.79481 0.55571 0.05234 0.0
H166 H 0.78909 0.47366 0.23217 0.0
H167 H 0.82069 0.54064 0.18893 0.0
Tb168 Tb 0.77176 0.74682 0.31343 0.0
C169 C 0.9301 0.89948 0.22815 0.0
C170 C 0.88761 0.95133 0.17819 0.0
C171 C 0.97036 0.98256 0.20651 0.0
C172 C 0.88839 0.9066 0.20363 0.0
C173 C 0.97211 0.93698 0.22837 0.0
C174 C 0.92807 0.98976 0.1815 0.0
C175 C 1.01539 0.88049 0.26668 0.0
N176 N 0.93053 0.85467 0.24809 0.0
C177 C 0.97284 0.84465 0.26623 0.0
C178 C 1.01505 0.92701 0.24835 0.0
Tb179 Tb 0.85898 0.79822 0.24205 0.0
N180 N 0.85092 0.86818 0.19964 0.0
C181 C 0.81554 0.87063 0.16565 0.0
C182 C 0.84784 0.9551 0.14743 0.0
C183 C 0.81246 0.91421 0.14001 0.0
H184 H 0.97472 0.80927 0.28048 0.0
H185 H 0.78326 0.91606 0.11412 0.0
H186 H 0.9279 0.02454 0.16277 0.0
H187 H 1.04832 0.87188 0.28123 0.0
H188 H 0.78997 0.83878 0.15787 0.0
H189 H 0.86908 0.67229 0.4625 0.0
H190 H 0.84588 0.98871 0.12707 0.0
H191 H 0.66094 0.69928 0.2661 0.0
H192 H 0.84822 0.73598 0.4082 0.0
H193 H 0.60695 0.62049 0.26523 0.0
H194 H 1.00207 1.01196 0.20695 0.0
H195 H 0.82556 0.58945 0.45884 0.0
H196 H 0.75769 0.53213 0.42389 0.0
H197 H 1.04821 0.95468 0.2488 0.0
H198 H 0.68572 0.51799 0.37064 0.0
N199 N 0.79334 0.69122 0.37056 0.0
C200 C 0.8283 0.70076 0.40472 0.0
C201 C 0.81599 0.6176 0.43422 0.0
C202 C 0.7779 0.60792 0.40148 0.0
C203 C 0.8405 0.66428 0.43642 0.0
C204 C 0.76691 0.64591 0.37008 0.0
H205 H 0.62861 0.55077 0.31238 0.0
N206 N 0.71519 0.67552 0.31241 0.0
C207 C 0.64056 0.6248 0.28629 0.0
C208 C 0.72634 0.63783 0.34023 0.0
C209 C 0.67173 0.66975 0.28694 0.0
C210 C 0.65292 0.58555 0.3129 0.0
C211 C 0.69583 0.59178 0.34085 0.0
O212 O 0.72177 0.73562 0.35633 0.0
O213 O 0.79098 0.80445 0.25758 0.0
O214 O 0.88709 0.83539 0.29855 0.0
O215 O 0.83494 0.78946 0.34802 0.0
O216 O 0.72051 0.76982 0.26003 0.0
O217 O 0.75946 0.80574 0.32999 0.0
O218 O 0.87953 0.81279 0.17973 0.0
O219 O 0.84001 0.74514 0.29979 0.0
O220 O 0.76113 0.70321 0.26349 0.0
O221 O 0.79353 0.76023 0.20761 0.0
O222 O 0.90313 0.75212 0.28116 0.0
O223 O 0.87034 0.74332 0.21804 0.0
C224 C 0.74822 0.80437 0.23762 0.0
C225 C 0.72785 0.79612 0.39561 0.0
C226 C 0.70139 0.84409 0.4342 0.0
C227 C 0.70473 0.83112 0.39512 0.0
C228 C 0.72264 0.82159 0.47341 0.0
C229 C 0.74882 0.77509 0.43528 0.0
C230 C 0.74635 0.78795 0.4738 0.0
C231 C 0.87314 0.82419 0.33792 0.0
C232 C 0.72763 0.78037 0.35481 0.0
C233 C 0.70833 0.55365 0.37017 0.0
C234 C 0.74934 0.5617 0.40042 0.0
C235 C 0.87596 0.72694 0.30962 0.0
C236 C 0.9244 0.76549 0.16654 0.0
C237 C 0.92173 0.72353 0.1528 0.0
C238 C 0.96058 0.71898 0.13649 0.0
C239 C 1.00158 0.75705 0.13319 0.0
C240 C 0.96598 0.80295 0.16329 0.0
C241 C 1.00412 0.79876 0.14638 0.0
C242 C 0.76793 0.71748 0.2221 0.0
C243 C 0.88267 0.77036 0.18194 0.0
H244 H 0.68953 0.84805 0.36427 0.0
H245 H 0.72029 0.82932 0.50424 0.0
H246 H 0.76668 0.74832 0.43654 0.0
H247 H 0.76232 0.77118 0.50434 0.0
H248 H 0.88965 0.69454 0.15486 0.0
H249 H 1.03149 0.75456 0.11995 0.0
H250 H 0.96881 0.83571 0.17317 0.0
H251 H 1.03565 0.82815 0.14327 0.0
Tb252 Tb 0.32421 0.70901 0.29389 0.0
C253 C 0.23224 0.85293 0.17475 0.0
C254 C 0.29778 0.91437 0.14491 0.0
C255 C 0.2197 0.89851 0.10208 0.0
C256 C 0.28 0.87761 0.17859 0.0
C257 C 0.20145 0.86367 0.13668 0.0
C258 C 0.26778 0.92386 0.10621 0.0
C259 C 0.13622 0.80752 0.17101 0.0
N260 N 0.21571 0.81948 0.20899 0.0
C261 C 0.16776 0.79848 0.20825 0.0
C262 C 0.15305 0.83981 0.13485 0.0
Tb263 Tb 0.27325 0.8058 0.26607 0.0
N264 N 0.30821 0.86782 0.21651 0.0
C265 C 0.35262 0.89713 0.22474 0.0
C266 C 0.3448 0.94153 0.15165 0.0
C267 C 0.37192 0.93374 0.19218 0.0
H268 H 0.15313 0.77361 0.23548 0.0
H269 H 0.40792 0.95527 0.19844 0.0
H270 H 0.28109 0.95165 0.07978 0.0
H271 H 0.09891 0.78934 0.17046 0.0
H272 H 0.37399 0.89153 0.25582 0.0
H273 H 0.19253 0.56359 0.37239 0.0
H274 H 0.3598 0.9691 0.12597 0.0
H275 H 0.44329 0.73255 0.31355 0.0
H276 H 0.22386 0.62639 0.31265 0.0
H277 H 0.50352 0.70998 0.37139 0.0
H278 H 0.19668 0.90695 0.07245 0.0
H279 H 0.24503 0.54816 0.44105 0.0
H280 H 0.32809 0.56246 0.48134 0.0
H281 H 0.12825 0.84684 0.10614 0.0
H282 H 0.41367 0.60157 0.48049 0.0
N283 N 0.29275 0.6484 0.34747 0.0
C284 C 0.24718 0.62029 0.34236 0.0
C285 C 0.25891 0.57579 0.41484 0.0
C286 C 0.30687 0.60123 0.41821 0.0
C287 C 0.22923 0.58442 0.37618 0.0
C288 C 0.32285 0.63748 0.38335 0.0
H289 H 0.47957 0.65514 0.43874 0.0
N290 N 0.38404 0.69114 0.34692 0.0
C291 C 0.46618 0.69566 0.37521 0.0
C292 C 0.37053 0.65927 0.38286 0.0
C293 C 0.43142 0.70855 0.34231 0.0
C294 C 0.45256 0.66485 0.41324 0.0
C295 C 0.40418 0.64574 0.41725 0.0
O296 O 0.36468 0.68703 0.25951 0.0
O297 O 0.32362 0.77597 0.24981 0.0
O298 O 0.24521 0.76568 0.2137 0.0
O299 O 0.25506 0.69348 0.25207 0.0
O300 O 0.38544 0.75863 0.26237 0.0
O301 O 0.29157 0.64878 0.26612 0.0
O302 O 0.2545 0.81715 0.32217 0.0
O303 O 0.27398 0.73962 0.31116 0.0
O304 O 0.35213 0.74897 0.347 0.0
O305 O 0.34317 0.82128 0.30689 0.0
O306 O 0.20982 0.75403 0.29038 0.0
O307 O 0.2717 0.87422 0.26877 0.0
C308 C 0.36615 0.79089 0.24033 0.0
C309 C 0.34206 0.60607 0.25706 0.0
C310 C 0.36625 0.55386 0.22375 0.0
C311 C 0.34806 0.59248 0.22009 0.0
C312 C 0.37445 0.52638 0.26506 0.0
C313 C 0.35016 0.57854 0.2981 0.0
C314 C 0.36565 0.53831 0.30192 0.0
C315 C 0.23622 0.71961 0.21793 0.0
C316 C 0.32991 0.65059 0.25128 0.0
C317 C 0.38842 0.61201 0.4535 0.0
C318 C 0.33972 0.58982 0.45403 0.0
C319 C 0.22963 0.72331 0.31555 0.0
C320 C 0.21306 0.87462 0.30916 0.0
C321 C 0.20098 0.86849 0.35065 0.0
C322 C 0.1653 0.88666 0.35703 0.0
C323 C 0.13952 0.90869 0.32089 0.0
C324 C 0.18682 0.89617 0.27307 0.0
C325 C 0.14984 0.91275 0.27905 0.0
C326 C 0.35945 0.79518 0.34283 0.0
C327 C 0.25496 0.86054 0.30554 0.0
H328 H 0.34042 0.61341 0.18844 0.0
H329 H 0.38894 0.49658 0.26904 0.0
H330 H 0.34515 0.58836 0.32697 0.0
H331 H 0.37219 0.51713 0.3336 0.0
H332 H 0.22093 0.85123 0.37835 0.0
H333 H 0.1125 0.92406 0.32511 0.0
H334 H 0.19529 0.9009 0.24056 0.0
H335 H 0.13006 0.92998 0.25134 0.0
Tb336 Tb 0.33359 0.71433 0.78238 0.0
C337 C 0.23841 0.82591 0.84829 0.0
C338 C 0.16442 0.76976 0.86618 0.0
C339 C 0.20006 0.83417 0.90573 0.0
C340 C 0.20304 0.78588 0.84182 0.0
C341 C 0.23668 0.85159 0.87933 0.0
C342 C 0.16392 0.79322 0.89915 0.0
C343 C 0.30306 0.91281 0.85153 0.0
N344 N 0.27242 0.84178 0.82151 0.0
C345 C 0.3028 0.88623 0.82098 0.0
C346 C 0.2704 0.89503 0.88142 0.0
Tb347 Tb 0.27002 0.79546 0.77246 0.0
N348 N 0.20468 0.76485 0.80927 0.0
C349 C 0.16646 0.72951 0.7971 0.0
C350 C 0.12657 0.73191 0.85538 0.0
C351 C 0.12708 0.71247 0.81999 0.0
H352 H 0.32767 0.90098 0.7976 0.0
H353 H 0.09746 0.68389 0.81065 0.0
H354 H 0.13488 0.78103 0.9186 0.0
H355 H 0.32817 0.94719 0.8517 0.0
H356 H 0.1663 0.71353 0.77022 0.0
H357 H 0.51211 0.83816 0.80407 0.0
H358 H 0.09628 0.7184 0.8733 0.0
H359 H 0.2934 0.64126 0.71149 0.0
H360 H 0.42786 0.81087 0.80571 0.0
H361 H 0.32452 0.6067 0.66564 0.0
H362 H 0.19838 0.85304 0.93012 0.0
H363 H 0.55147 0.79918 0.76796 0.0
H364 H 0.5431 0.74142 0.72102 0.0
H365 H 0.27025 0.91594 0.90469 0.0
H366 H 0.49161 0.67949 0.68204 0.0
N367 N 0.41616 0.74842 0.77951 0.0
C368 C 0.44311 0.78914 0.79403 0.0
C369 C 0.51386 0.78481 0.77093 0.0
C370 C 0.48624 0.74697 0.7515 0.0
C371 C 0.49189 0.80661 0.79151 0.0
C372 C 0.43716 0.72943 0.75638 0.0
H373 H 0.41078 0.62918 0.66136 0.0
N374 N 0.36122 0.68342 0.73557 0.0
C375 C 0.34874 0.63166 0.68458 0.0
C376 C 0.40853 0.69578 0.73355 0.0
C377 C 0.33129 0.65171 0.71108 0.0
C378 C 0.39731 0.64429 0.68236 0.0
C379 C 0.4278 0.67716 0.70646 0.0
O380 O 0.274 0.65683 0.77422 0.0
O381 O 0.26984 0.72395 0.79886 0.0
O382 O 0.32214 0.80408 0.83208 0.0
O383 O 0.36926 0.75217 0.83743 0.0
O384 O 0.31495 0.6971 0.84894 0.0
O385 O 0.34093 0.6459 0.80936 0.0
O386 O 0.27481 0.85734 0.72484 0.0
O387 O 0.32461 0.78089 0.7443 0.0
O388 O 0.30021 0.73028 0.71501 0.0
O389 O 0.23375 0.74068 0.73136 0.0
O390 O 0.33774 0.84547 0.75863 0.0
O391 O 0.20789 0.80667 0.733 0.0
C392 C 0.27394 0.70641 0.83949 0.0
C393 C 0.26779 0.59352 0.83238 0.0
C394 C 0.27344 0.54796 0.90457 0.0
C395 C 0.2865 0.59098 0.87607 0.0
C396 C 0.23048 0.51489 0.89377 0.0
C397 C 0.22523 0.56029 0.82071 0.0
C398 C 0.20518 0.52237 0.85219 0.0
C399 C 0.35942 0.78723 0.85014 0.0
C400 C 0.29533 0.62661 0.79877 0.0
C401 C 0.47656 0.69303 0.70302 0.0
C402 C 0.50573 0.72816 0.72524 0.0
C403 C 0.35524 0.82112 0.74149 0.0
C404 C 0.2105 0.88567 0.72794 0.0
C405 C 0.2402 0.93046 0.73271 0.0
C406 C 0.22119 0.96513 0.7391 0.0
C407 C 0.1708 0.95537 0.74156 0.0
C408 C 0.16297 0.87399 0.73437 0.0
C409 C 0.14383 0.90748 0.74159 0.0
C410 C 0.25401 0.72533 0.70614 0.0
C411 C 0.2291 0.85004 0.71809 0.0
H412 H 0.31991 0.61599 0.88494 0.0
H413 H 0.21988 0.4812 0.91518 0.0
H414 H 0.20877 0.5626 0.78723 0.0
H415 H 0.17295 0.49619 0.84311 0.0
H416 H 0.27723 0.93995 0.72766 0.0
H417 H 0.14401 0.02901 0.72819 0.0
H418 H 0.1396 0.8391 0.73212 0.0
H419 H 0.10654 0.89689 0.74294 0.0
Tb420 Tb 0.24484 0.22422 0.82016 0.0
C421 C 0.37751 0.38573 0.71728 0.0
C422 C 0.32651 0.41079 0.65293 0.0
C423 C 0.3973 0.46747 0.67923 0.0
C424 C 0.33662 0.37528 0.68798 0.0
C425 C 0.40874 0.43175 0.71261 0.0
C426 C 0.35636 0.45697 0.64938 0.0
C427 C 0.46315 0.40305 0.7713 0.0
N428 N 0.38826 0.35025 0.7487 0.0
C429 C 0.43159 0.35795 0.77435 0.0
C430 C 0.4514 0.44027 0.74072 0.0
Tb431 Tb 0.33195 0.27856 0.75275 0.0
N432 N 0.30812 0.33017 0.69249 0.0
C433 C 0.27059 0.31837 0.66073 0.0
C434 C 0.28732 0.39879 0.62177 0.0
C435 C 0.2597 0.35229 0.62541 0.0
H436 H 0.44203 0.32988 0.798 0.0
H437 H 0.2295 0.34251 0.60118 0.0
H438 H 0.34869 0.48462 0.62303 0.0
H439 H 0.4967 0.40899 0.79243 0.0
H440 H 0.24719 0.28341 0.66181 0.0
H441 H 0.34187 0.15296 0.97028 0.0
H442 H 0.27851 0.42498 0.59444 0.0
H443 H 0.13198 0.17787 0.78054 0.0
H444 H 0.32095 0.21549 0.91431 0.0
H445 H 0.07493 0.09972 0.78491 0.0
H446 H 0.42062 0.50304 0.67546 0.0
H447 H 0.29953 0.06969 0.96837 0.0
H448 H 0.2317 1.0112 0.93471 0.0
H449 H 0.47617 0.47512 0.73819 0.0
H450 H 0.15809 0.99631 0.88349 0.0
N451 N 0.26865 0.16916 0.8764 0.0
C452 C 0.30228 0.17983 0.91113 0.0
C453 C 0.29027 0.09716 0.94267 0.0
C454 C 0.25255 0.08648 0.90986 0.0
C455 C 0.3143 0.14413 0.94389 0.0
C456 C 0.24205 0.12369 0.87704 0.0
H457 H 0.09783 0.02966 0.82974 0.0
N458 N 0.1888 0.15266 0.82062 0.0
C459 C 0.11062 0.10325 0.80176 0.0
C460 C 0.20076 0.11512 0.84806 0.0
C461 C 0.1433 0.14767 0.79938 0.0
C462 C 0.12377 0.06382 0.8271 0.0
C463 C 0.16892 0.0695 0.85138 0.0
O464 O 0.19732 0.20504 0.86588 0.0
O465 O 0.26465 0.28581 0.76745 0.0
O466 O 0.34471 0.32305 0.80241 0.0
O467 O 0.30322 0.26978 0.85599 0.0
O468 O 0.19559 0.24788 0.76532 0.0
O469 O 0.22524 0.27898 0.83922 0.0
O470 O 0.38309 0.28944 0.71086 0.0
O471 O 0.31342 0.2188 0.80695 0.0
O472 O 0.22611 0.18346 0.76701 0.0
O473 O 0.27443 0.23289 0.71644 0.0
O474 O 0.38202 0.2598 0.80947 0.0
O475 O 0.34828 0.21971 0.74051 0.0
C476 C 0.22283 0.28551 0.7456 0.0
C477 C 0.16666 0.25824 0.89117 0.0
C478 C 0.1406 0.31225 0.92167 0.0
C479 C 0.17162 0.30443 0.89737 0.0
C480 C 0.10521 0.27393 0.93965 0.0
C481 C 0.1309 0.22061 0.90985 0.0
C482 C 0.10064 0.22846 0.93396 0.0
C483 C 0.33334 0.31029 0.84249 0.0
C484 C 0.19696 0.24798 0.86471 0.0
C485 C 0.18162 0.03174 0.88118 0.0
C486 C 0.22348 0.04023 0.91037 0.0
C487 C 0.35534 0.22206 0.82953 0.0
C488 C 0.37419 0.22686 0.67333 0.0
C489 C 0.39834 0.19331 0.67202 0.0
C490 C 0.39408 0.1758 0.63347 0.0
C491 C 0.3658 0.19332 0.59638 0.0
C492 C 0.34555 0.24247 0.63597 0.0
C493 C 0.34154 0.22586 0.59783 0.0
C494 C 0.23985 0.19532 0.72794 0.0
C495 C 0.37835 0.24462 0.71391 0.0
H496 H 0.19914 0.33387 0.88354 0.0
H497 H 0.08134 0.27921 0.95865 0.0
H498 H 0.12599 0.18485 0.90561 0.0
H499 H 0.07343 0.19911 0.94827 0.0
H500 H 0.42008 0.18072 0.70099 0.0
H501 H 0.36305 0.18261 0.56571 0.0
H502 H 0.32643 0.26772 0.63621 0.0
H503 H 0.31979 0.23863 0.56899 0.0
Tb504 Tb 0.83352 0.21486 0.79686 0.0
C505 C 0.74066 0.36444 0.68486 0.0
C506 C 0.80619 0.42518 0.65504 0.0
C507 C 0.72658 0.41447 0.615 0.0
C508 C 0.78845 0.38726 0.68776 0.0
C509 C 0.70889 0.37808 0.64878 0.0
C510 C 0.77522 0.43798 0.61813 0.0
C511 C 0.6445 0.32063 0.68336 0.0
N512 N 0.7252 0.32954 0.71825 0.0
C513 C 0.67743 0.30838 0.71847 0.0
C514 C 0.66031 0.35531 0.64814 0.0
Tb515 Tb 0.78271 0.31093 0.77326 0.0
N516 N 0.81711 0.37407 0.72398 0.0
C517 C 0.86297 0.40075 0.73161 0.0
C518 C 0.8542 0.44981 0.66109 0.0
C519 C 0.8825 0.43843 0.69994 0.0
H520 H 0.66429 0.28118 0.74503 0.0
H521 H 0.91939 0.45833 0.70534 0.0
H522 H 0.78818 0.46666 0.59234 0.0
H523 H 0.60691 0.30314 0.68345 0.0
H524 H 0.88525 0.39207 0.76153 0.0
H525 H 0.69077 0.06339 0.84918 0.0
H526 H 0.86936 0.4782 0.63646 0.0
H527 H 0.94898 0.24542 0.83609 0.0
H528 H 0.72912 0.13299 0.79859 0.0
H529 H 1.00103 0.22071 0.90094 0.0
H530 H 0.70287 0.42531 0.5868 0.0
H531 H 0.7354 0.03759 0.91995 0.0
H532 H 0.81261 0.04735 0.96981 0.0
H533 H 0.63472 0.36474 0.621 0.0
H534 H 0.89752 0.08929 0.98341 0.0
N535 N 0.79499 0.14766 0.84025 0.0
C536 C 0.74944 0.12206 0.82897 0.0
C537 C 0.75262 0.06782 0.89747 0.0
C538 C 0.80015 0.09222 0.9076 0.0
C539 C 0.7274 0.08231 0.85763 0.0
C540 C 0.82061 0.13224 0.87777 0.0
H541 H 0.96832 0.15371 0.9577 0.0
N542 N 0.88604 0.19368 0.85549 0.0
C543 C 0.96366 0.20212 0.89714 0.0
C544 C 0.86794 0.15588 0.88555 0.0
C545 C 0.93376 0.21602 0.86016 0.0
C546 C 0.94501 0.16438 0.92909 0.0
C547 C 0.89664 0.14044 0.92338 0.0
O548 O 0.88474 0.20545 0.76537 0.0
O549 O 0.83196 0.28203 0.75238 0.0
O550 O 0.75537 0.27523 0.71741 0.0
O551 O 0.76785 0.20181 0.74975 0.0
O552 O 0.89646 0.27019 0.77527 0.0
O553 O 0.81414 0.157 0.7653 0.0
O554 O 0.73924 0.33512 0.8026 0.0
O555 O 0.78276 0.24301 0.81461 0.0
O556 O 0.85428 0.24748 0.85443 0.0
O557 O 0.85017 0.32223 0.81839 0.0
O558 O 0.72096 0.2601 0.80289 0.0
O559 O 0.81505 0.3672 0.80633 0.0
C560 C 0.87632 0.29956 0.74857 0.0
C561 C 0.87688 0.12942 0.75494 0.0
C562 C 0.91944 0.09605 0.71826 0.0
C563 C 0.90087 0.13259 0.72043 0.0
C564 C 0.91419 0.05612 0.75196 0.0
C565 C 0.87248 0.09015 0.78879 0.0
C566 C 0.89135 0.05355 0.78724 0.0
C567 C 0.7488 0.22996 0.71754 0.0
C568 C 0.856 0.16765 0.75292 0.0
C569 C 0.87621 0.10148 0.95394 0.0
C570 C 0.82792 0.07757 0.94617 0.0
C571 C 0.74001 0.22709 0.82341 0.0
C572 C 0.76759 0.41471 0.81175 0.0
C573 C 0.76235 0.42796 0.84918 0.0
C574 C 0.7485 0.46903 0.84667 0.0
C575 C 0.74561 0.49976 0.8063 0.0
C576 C 0.76421 0.44523 0.77163 0.0
C577 C 0.75425 0.48817 0.76918 0.0
C578 C 0.86434 0.2933 0.85298 0.0
C579 C 0.77502 0.36809 0.81625 0.0
H580 H 0.90454 0.16359 0.69479 0.0
H581 H 0.9267 0.02647 0.75072 0.0
H582 H 0.85413 0.08757 0.81583 0.0
H583 H 0.88754 0.02278 0.81298 0.0
H584 H 0.76704 0.40495 0.88019 0.0
H585 H 0.73483 0.5317 0.80299 0.0
H586 H 0.76883 0.43586 0.74243 0.0
H587 H 0.7515 0.51174 0.73818 0.0
Tb588 Tb 0.76697 0.7116 0.75467 0.0
C589 C 0.92643 0.86953 0.82415 0.0
C590 C 0.95847 0.83559 0.8956 0.0
C591 C 1.00762 0.90509 0.85422 0.0
C592 C 0.92085 0.83557 0.86111 0.0
C593 C 0.96986 0.90489 0.8202 0.0
C594 C 1.00199 0.87036 0.89183 0.0
C595 C 0.93629 0.93608 0.74867 0.0
N596 N 0.88926 0.86765 0.79189 0.0
C597 C 0.89393 0.90052 0.75414 0.0
C598 C 0.97425 0.93866 0.78202 0.0
Tb599 Tb 0.82026 0.80853 0.80513 0.0
N600 N 0.87822 0.80286 0.86351 0.0
C601 C 0.87016 0.77041 0.90085 0.0
C602 C 0.95102 0.80102 0.93301 0.0
C603 C 0.90651 0.76848 0.93575 0.0
H604 H 0.86592 0.89938 0.72722 0.0
H605 H 0.90009 0.74197 0.9648 0.0
H606 H 1.03134 0.87092 0.91792 0.0
H607 H 0.93961 0.9615 0.71859 0.0
H608 H 0.83586 0.74535 0.90395 0.0
H609 H 0.69999 0.79198 0.5936 0.0
H610 H 0.97906 0.7996 0.96013 0.0
H611 H 0.71719 0.60982 0.81959 0.0
H612 H 0.76177 0.779 0.65377 0.0
H613 H 0.63733 0.55663 0.82557 0.0
H614 H 1.04128 0.93185 0.85171 0.0
H615 H 0.61609 0.74701 0.59849 0.0
H616 H 0.55662 0.68264 0.63931 0.0
H617 H 1.00689 0.96643 0.77781 0.0
H618 H 0.5396 0.61848 0.70216 0.0
N619 N 0.71394 0.72753 0.6946 0.0
C620 C 0.72568 0.75866 0.6572 0.0
C621 C 0.64319 0.74104 0.6255 0.0
C622 C 0.63165 0.70699 0.66251 0.0
C623 C 0.69051 0.76634 0.62254 0.0
C624 C 0.66824 0.70061 0.69686 0.0
H625 H 0.56935 0.57119 0.77139 0.0
N626 N 0.69518 0.65676 0.76353 0.0
C627 C 0.64277 0.58684 0.79931 0.0
C628 C 0.6586 0.66403 0.73223 0.0
C629 C 0.68825 0.61744 0.79577 0.0
C630 C 0.6045 0.59521 0.7687 0.0
C631 C 0.61225 0.63355 0.73417 0.0
O632 O 0.75218 0.6616 0.71414 0.0
O633 O 0.82617 0.73821 0.80346 0.0
O634 O 0.87097 0.80074 0.76795 0.0
O635 O 0.81615 0.76683 0.71504 0.0
O636 O 0.78832 0.67023 0.81826 0.0
O637 O 0.82116 0.68179 0.74979 0.0
O638 O 0.8028 0.87143 0.80324 0.0
O639 O 0.76028 0.7814 0.75668 0.0
O640 O 0.71821 0.71128 0.79761 0.0
O641 O 0.77113 0.75426 0.8461 0.0
O642 O 0.79394 0.85017 0.74437 0.0
O643 O 0.79214 0.81454 0.8585 0.0
C644 C 0.82536 0.70064 0.83281 0.0
C645 C 0.81785 0.66126 0.68273 0.0
C646 C 0.87216 0.63835 0.64893 0.0
C647 C 0.85039 0.63484 0.68535 0.0
C648 C 0.86249 0.66982 0.61054 0.0
C649 C 0.80753 0.69117 0.64363 0.0
C650 C 0.83021 0.69584 0.60793 0.0
C651 C 0.86004 0.78903 0.72912 0.0
C652 C 0.79535 0.6576 0.72103 0.0
C653 C 0.57544 0.64139 0.70104 0.0
C654 C 0.58512 0.67797 0.6653 0.0
C655 C 0.75904 0.8195 0.72846 0.0
C656 C 0.79831 0.8905 0.86971 0.0
C657 C 0.76062 0.89618 0.88678 0.0
C658 C 0.76946 0.92787 0.9151 0.0
C659 C 0.81666 0.954 0.92593 0.0
C660 C 0.84506 0.91684 0.88064 0.0
C661 C 0.85408 0.94864 0.90863 0.0
C662 C 0.72898 0.72662 0.83455 0.0
C663 C 0.78739 0.85649 0.84088 0.0
H664 H 0.85791 0.61099 0.71519 0.0
H665 H 0.87953 0.67376 0.58229 0.0
H666 H 0.7823 0.71129 0.64073 0.0
H667 H 0.82258 0.71954 0.57808 0.0
H668 H 0.72459 0.87509 0.87884 0.0
H669 H 0.82463 0.97841 0.94801 0.0
H670 H 0.87436 0.91272 0.86769 0.0
H671 H 0.89019 0.96893 0.91721 0.0
Fe672 Fe 0.0546 0.05757 0.52382 0.0
O673 O 1.02122 0.99569 0.55862 0.0
Fe674 Fe 0.16508 0.03948 0.52265 0.0
Fe675 Fe 0.951 0.96902 0.54973 0.0
O676 O 0.09533 0.02034 0.51386 0.0
O677 O 0.09514 0.01536 0.51484 0.0
O678 O 1.02052 0.99071 0.5587 0.0
Fe679 Fe 0.06202 0.95376 0.55005 0.0
C680 C 0.9768 0.06681 0.57091 0.0
O681 O 1.01063 0.04019 0.46795 0.0
O682 O 0.94201 0.01541 0.49442 0.0
O683 O 0.10948 0.92294 0.53376 0.0
O684 O 0.15783 0.98546 0.49171 0.0
O685 O 0.15487 0.09001 0.46946 0.0
O686 O 0.09499 0.11694 0.48358 0.0
O687 O 0.94715 0.91845 0.51343 0.0
O688 O 1.01897 0.9349 0.49364 0.0
C689 C 0.12945 0.11978 0.46207 0.0
O690 O 0.10609 0.9735 0.60614 0.0
O691 O 0.17178 0.99054 0.57716 0.0
O692 O 1.00659 0.08694 0.54228 0.0
O693 O 0.95575 0.02221 0.58008 0.0
C694 C 0.96558 0.02434 0.46319 0.0
C695 C 0.97417 0.91627 0.4878 0.0
C696 C 0.98581 0.89014 0.61017 0.0
O697 O 0.96181 0.92079 0.60365 0.0
O698 O 1.02092 0.89351 0.58931 0.0
C699 C 0.13833 0.94082 0.50436 0.0
O700 O 0.17133 0.08974 0.55986 0.0
O701 O 0.09958 0.07776 0.57882 0.0
C702 C 0.15137 0.98768 0.60919 0.0
C703 C 0.14461 0.09617 0.58349 0.0
Fe704 Fe 0.55186 0.95546 0.04222 0.0
O705 O 0.58999 0.01653 0.062 0.0
Fe706 Fe 0.44242 0.98424 0.99969 0.0
Fe707 Fe 0.66069 0.03955 0.06632 0.0
O708 O 0.51282 0.99883 1.00456 0.0
O709 O 0.5132 1.0058 1.00158 0.0
O710 O 0.59065 0.02359 0.05861 0.0
Fe711 Fe 0.55231 0.06699 1.02048 0.0
C712 C 0.63991 0.9358 0.11556 0.0
O713 O 0.59479 0.96831 0.99356 0.0
O714 O 0.66602 0.99441 0.03073 0.0
O715 O 0.50129 0.10232 0.97517 0.0
O716 O 0.44498 0.04145 0.94744 0.0
O717 O 0.44661 0.93446 0.96756 0.0
O718 O 0.50421 0.8996 1.00995 0.0
O719 O 0.66722 0.09334 1.01037 0.0
O720 O 0.59595 0.0849 0.97032 0.0
C721 C 0.46891 0.90173 0.97793 0.0
O722 O 0.51231 0.05469 0.07015 0.0
O723 O 0.43924 0.03104 0.03581 0.0
O724 O 0.60265 0.92038 0.08714 0.0
O725 O 0.65709 0.98059 0.11776 0.0
C726 C 0.63979 0.97359 1.00097 0.0
C727 C 0.64166 0.10095 0.97364 0.0
C728 C 0.63156 0.12131 0.08584 0.0
O729 O 0.65357 0.08834 0.09848 0.0
O730 O 0.59893 0.12356 0.05164 0.0
C731 C 0.4631 0.08637 0.94776 0.0
O732 O 0.43649 0.93069 0.0553 0.0
O733 O 0.50858 0.93608 0.09296 0.0
C734 C 0.46792 0.05026 0.06546 0.0
C735 C 0.46295 0.92051 0.09068 0.0
Fe736 Fe 0.05459 0.57096 1.01665 0.0
O737 O 1.00974 0.51195 0.99845 0.0
Fe738 Fe 0.15903 0.53136 0.05731 0.0
Fe739 Fe 0.93964 0.49764 0.99959 0.0
O740 O 0.08999 0.52355 0.05299 0.0
O741 O 0.0891 0.51687 0.05752 0.0
O742 O 1.00856 0.5046 1.00354 0.0
Fe743 Fe 1.04333 0.45733 0.04163 0.0
C744 C 0.97599 0.56609 0.06338 0.0
O745 O 1.00549 0.61154 0.97373 0.0
O746 O 0.94545 0.55317 0.94609 0.0
O747 O 0.07933 0.4636 0.99012 0.0
O748 O 0.15479 0.48193 1.02046 0.0
O749 O 0.16669 0.58431 1.00251 0.0
O750 O 0.09566 0.58684 0.96457 0.0
O751 O 0.9358 0.44213 0.97023 0.0
O752 O 0.9898 0.40338 1.01413 0.0
C753 C 0.14148 0.59816 0.96773 0.0
O754 O 0.0915 0.41649 0.0849 0.0
O755 O 0.15371 0.47461 0.11008 0.0
O756 O 1.01756 0.56078 0.06812 0.0
O757 O 0.94426 0.54962 0.03395 0.0
C758 C 0.96555 0.59768 0.94724 0.0
C759 C 0.95406 0.4063 0.98323 0.0
C760 C 0.95772 0.43569 0.09156 0.0
O761 O 0.9326 0.44782 0.05612 0.0
O762 O 1.00348 0.44561 0.09417 0.0
C763 C 0.12249 0.46318 0.99249 0.0
O764 O 0.16066 0.58299 0.08953 0.0
O765 O 0.10675 0.62335 0.04801 0.0
C766 C 0.1322 0.43019 0.11028 0.0
C767 C 0.14021 0.61711 0.08059 0.0
Fe768 Fe 0.54056 0.50669 0.93306 0.0
O769 O 0.55254 0.49737 0.99548 0.0
Fe770 Fe 0.49813 0.48973 0.0321 0.0
Fe771 Fe 0.60704 0.53759 1.02861 0.0
O772 O 0.54819 0.49168 0.99719 0.0
O773 O 0.55279 0.53109 0.06511 0.0
O774 O 0.5577 0.53621 0.06377 0.0
Fe775 Fe 0.57084 0.51821 0.12818 0.0
C776 C 0.64345 0.504 0.95985 0.0
O777 O 0.58355 0.57407 0.92554 0.0
O778 O 0.60126 0.59989 0.98829 0.0
O779 O 0.50758 0.53366 0.12619 0.0
O780 O 0.45416 0.49555 0.07381 0.0
O781 O 0.48603 0.54948 0.99179 0.0
O782 O 0.48286 0.53099 0.92824 0.0
O783 O 0.65862 0.58008 0.07145 0.0
O784 O 0.61297 0.58524 0.11974 0.0
C785 C 0.46658 0.54801 0.95298 0.0
O786 O 0.53067 0.45004 0.1363 0.0
O787 O 0.50519 0.42717 0.07258 0.0
O788 O 0.60155 0.48629 0.94036 0.0
O789 O 0.65281 0.53062 0.98891 0.0
C790 C 0.59988 0.6071 0.94725 0.0
C791 C 0.65176 0.59842 0.10245 0.0
C792 C 0.6413 0.47897 0.10004 0.0
O793 O 0.61274 0.47572 0.06618 0.0
O794 O 0.6332 0.4983 0.12822 0.0
C795 C 0.46518 0.51834 0.10604 0.0
O796 O 0.4475 0.44689 0.99046 0.0
O797 O 0.49299 0.44106 0.94167 0.0
C798 C 0.5093 0.41849 0.11393 0.0
C799 C 0.45437 0.42835 0.95978 0.0
Fe800 Fe 0.06114 0.41056 0.54186 0.0
O801 O 0.07615 0.47942 0.53908 0.0
Fe802 Fe 1.04363 0.52056 0.47816 0.0
Fe803 Fe 0.06242 0.50527 0.58621 0.0
O804 O 0.0732 0.48056 0.53165 0.0
O805 O 1.03183 0.54763 0.52541 0.0
O806 O 1.0346 0.54647 0.53261 0.0
Fe807 Fe 0.04934 0.61698 0.52211 0.0
C808 C 0.99032 0.41082 0.60355 0.0
O809 O 0.11867 0.41545 0.59125 0.0
O810 O 0.09816 0.45543 0.63452 0.0
O811 O 0.0916 0.63532 0.47115 0.0
O812 O 0.10988 0.56961 0.47219 0.0
O813 O 0.06685 0.48576 0.43914 0.0
O814 O 0.09948 0.43077 0.48956 0.0
O815 O 0.12868 0.55579 0.59011 0.0
O816 O 0.10815 0.62357 0.5675 0.0
C817 C 0.09509 0.45766 0.45148 0.0
O818 O 0.99109 0.61252 0.47482 0.0
O819 O 1.00613 0.57034 0.43033 0.0
O820 O 1.0173 0.39077 0.59232 0.0
O821 O 0.99592 0.45516 0.59059 0.0
C822 C 0.12201 0.42681 0.62864 0.0
C823 C 0.13638 0.60004 0.58936 0.0
C824 C 1.01328 0.57099 0.61142 0.0
O825 O 1.03772 0.53948 0.62478 0.0
O826 O 1.01256 0.59915 0.57399 0.0
C827 C 0.1169 0.61397 0.45953 0.0
O828 O 0.97793 0.46905 0.47616 0.0
O829 O 1.00239 0.40331 0.49559 0.0
C830 C 0.98511 0.60097 0.43729 0.0
C831 C 0.97223 0.42545 0.47497 0.0
Fe832 Fe 0.54527 0.95897 0.53704 0.0
O833 O 0.58144 0.014 0.56577 0.0
Fe834 Fe 0.51301 0.02064 0.43103 0.0
Fe835 Fe 0.58884 1.01129 0.62838 0.0
O836 O 0.51751 1.01022 0.49598 0.0
O837 O 0.51923 0.01761 0.49365 0.0
O838 O 0.58314 0.02152 0.56345 0.0
Fe839 Fe 0.55452 0.0724 0.52286 0.0
C840 C 0.49506 0.93013 0.61837 0.0
O841 O 0.58503 0.91421 0.58558 0.0
O842 O 0.6307 0.96441 0.63144 0.0
O843 O 0.61008 0.09464 0.48374 0.0
O844 O 0.56928 0.08086 0.41992 0.0
O845 O 0.55838 0.97838 0.4332 0.0
O846 O 0.59925 0.97416 0.49935 0.0
O847 O 0.63951 0.07501 0.61618 0.0
O848 O 0.59871 0.12109 0.56328 0.0
C849 C 0.5927 0.96746 0.46046 0.0
O850 O 0.51385 0.11679 0.47427 0.0
O851 O 0.47073 0.06735 0.42697 0.0
O852 O 0.49003 0.93773 0.57668 0.0
O853 O 0.53314 0.95083 0.64001 0.0
C854 C 0.61979 0.92453 0.61767 0.0
C855 C 0.633 0.11548 0.59527 0.0
C856 C 0.50716 0.06148 0.60025 0.0
O857 O 0.54295 0.05276 0.62676 0.0
O858 O 0.50061 0.0558 0.561 0.0
C859 C 0.60655 0.10211 0.44215 0.0
O860 O 0.46192 0.95782 0.44294 0.0
O861 O 0.50042 0.9105 0.49665 0.0
C862 C 0.47995 0.10655 0.44143 0.0
C863 C 0.46712 0.91693 0.46384 0.0
C864 C 0.21635 0.21875 0.40345 0.0
C865 C 0.20167 0.2124 0.36002 0.0
C866 C 0.18866 0.19302 0.4365 0.0
C867 C 0.14471 0.16051 0.42751 0.0
H868 H 0.25088 0.24149 0.41282 0.0
H869 H 0.20375 0.19546 0.46985 0.0
S870 S 0.08377 0.1396 0.31863 0.0
N871 N 0.13526 0.1781 0.30908 0.0
N872 N 0.08413 0.12865 0.37176 0.0
C873 C 0.12708 0.15764 0.38395 0.0
C874 C 0.15524 0.18393 0.35005 0.0
C875 C 0.86076 0.98558 0.38278 0.0
C876 C 0.86063 0.02836 0.35405 0.0
C877 C 0.89822 0.98287 0.41616 0.0
C878 C 0.93801 0.02183 0.42037 0.0
H879 H 0.82942 0.95577 0.38273 0.0
H880 H 0.89355 0.95169 0.44132 0.0
S881 S 0.96195 0.138 0.34768 0.0
N882 N 0.9087 0.10865 0.32807 0.0
N883 N 0.97985 0.1009 0.38946 0.0
C884 C 0.9422 0.06201 0.38809 0.0
C885 C 0.90336 0.06586 0.3549 0.0
C886 C 0.88332 0.83692 0.41524 0.0
C887 C 0.90138 0.8491 0.37493 0.0
C888 C 0.90756 0.8577 0.45126 0.0
C889 C 0.95156 0.89221 0.44949 0.0
H890 H 0.84943 0.81118 0.41937 0.0
H891 H 0.8912 0.84675 0.48084 0.0
S892 S 1.01379 0.94098 0.35183 0.0
N893 N 0.96583 0.90097 0.33566 0.0
N894 N 1.01132 0.93971 0.40326 0.0
C895 C 0.97019 0.90544 0.4096 0.0
C896 C 0.94518 0.88427 0.37252 0.0
C897 C 0.11352 0.87634 0.41372 0.0
C898 C 0.15933 0.88813 0.40148 0.0
C899 C 0.10696 0.88692 0.4522 0.0
C900 C 0.14602 0.91003 0.47893 0.0
H901 H 0.08247 0.86167 0.39215 0.0
H902 H 0.07099 0.88161 0.45854 0.0
S903 S 0.27327 0.94246 0.46469 0.0
N904 N 0.24461 0.9195 0.42179 0.0
N905 N 0.23181 0.93869 0.49409 0.0
C906 C 0.19208 0.91736 0.46942 0.0
C907 C 0.19889 0.90681 0.43045 0.0
C908 C 0.26325 0.02857 0.68696 0.0
C909 C 0.24603 0.01609 0.72719 0.0
C910 C 0.2319 0.02059 0.64845 0.0
C911 C 0.18152 1.00732 0.64671 0.0
H912 H 0.30118 0.03635 0.68642 0.0
H913 H 0.24795 0.02252 0.62015 0.0
S914 S 0.11123 0.97457 0.769 0.0
N915 N 0.18545 0.01517 0.77659 0.0
N916 N 0.11085 0.98088 0.69903 0.0
C917 C 0.16381 0.01314 0.68196 0.0
C918 C 0.20926 0.03336 0.72882 0.0
C919 C 0.23897 0.14927 0.67173 0.0
C920 C 0.21381 0.16776 0.69336 0.0
C921 C 0.21674 0.12764 0.63572 0.0
C922 C 0.16806 0.1229 0.61984 0.0
H923 H 0.27636 0.15179 0.68259 0.0
H924 H 0.23811 0.11442 0.62031 0.0
S925 S 0.09091 0.17852 0.65694 0.0
N926 N 0.14034 0.18772 0.69145 0.0
N927 N 0.09907 0.14856 0.62319 0.0
C928 C 0.1436 0.1444 0.63937 0.0
C929 C 0.16622 0.16617 0.67632 0.0
C930 C 0.91954 0.11401 0.63748 0.0
C931 C 0.94152 0.09885 0.67949 0.0
C932 C 0.93571 0.11035 0.60028 0.0
C933 C 0.97443 0.09173 0.60402 0.0
H934 H 0.88756 0.12557 0.63327 0.0
H935 H 0.91517 0.11794 0.56888 0.0
S936 S 1.04642 0.05096 0.70562 0.0
N937 N 1.00703 0.06946 0.7219 0.0
N938 N 1.03503 0.05924 0.65226 0.0
C939 C 0.99827 0.07918 0.64551 0.0
C940 C 0.98239 0.08353 0.68318 0.0
C941 C 0.88482 0.80147 0.65552 0.0
C942 C 0.89731 0.80323 0.69994 0.0
C943 C 0.91839 0.82214 0.62633 0.0
C944 C 0.9652 0.847 0.6402 0.0
H945 H 0.84817 0.78754 0.64247 0.0
H946 H 0.90586 0.82424 0.59193 0.0
S947 S 1.01761 0.85281 0.7542 0.0
N948 N 0.96183 0.82278 0.75742 0.0
N949 N 1.02373 0.86592 0.70203 0.0
C950 C 0.97919 0.84463 0.68495 0.0
C951 C 0.94542 0.82203 0.71488 0.0
C952 C 0.40126 0.05978 0.15019 0.0
C953 C 0.38354 0.09862 0.1294 0.0
C954 C 0.43372 0.04696 0.13165 0.0
C955 C 0.44845 0.07223 0.09174 0.0
H956 H 0.38788 0.03778 0.1795 0.0
H957 H 0.44461 0.01524 0.1467 0.0
S958 S 0.42199 0.18334 0.03088 0.0
N959 N 0.39015 0.16731 0.07161 0.0
N960 N 0.45015 0.14245 0.03629 0.0
C961 C 0.43481 0.11379 0.07319 0.0
C962 C 0.4024 0.12714 0.09218 0.0
C963 C 0.92025 0.39037 0.20797 0.0
C964 C 0.87161 0.36533 0.20044 0.0
C965 C 0.94883 0.41132 0.17358 0.0
C966 C 0.92991 0.4092 0.12971 0.0
H967 H 0.93645 0.39367 0.24087 0.0
H968 H 0.98563 0.43037 0.18139 0.0
S969 S 0.80418 0.34817 0.09237 0.0
N970 N 0.80595 0.34136 0.14536 0.0
N971 N 0.85842 0.37824 0.0818 0.0
C972 C 0.88109 0.38426 0.12214 0.0
C973 C 0.85232 0.36342 0.15694 0.0
C974 C 0.73397 0.88788 0.20612 0.0
C975 C 0.72569 0.83993 0.20337 0.0
C976 C 0.7064 0.91768 0.17826 0.0
C977 C 0.6677 0.90161 0.14626 0.0
H978 H 0.76157 0.9025 0.23053 0.0
H979 H 0.71551 0.95401 0.18237 0.0
S980 S 0.6297 0.77835 0.12638 0.0
N981 N 0.67444 0.77794 0.16601 0.0
N982 N 0.62382 0.83265 0.11484 0.0
C983 C 0.65906 0.85357 0.14361 0.0
C984 C 0.68723 0.82342 0.17177 0.0
C985 C 0.19845 0.71975 0.13994 0.0
C986 C 0.2035 0.69571 0.18346 0.0
C987 C 0.17406 0.69531 0.10596 0.0
C988 C 0.15366 0.64628 0.11472 0.0
H989 H 0.2159 0.75706 0.13175 0.0
H990 H 0.17401 0.71419 0.07271 0.0
S991 S 0.14991 0.56849 0.22338 0.0
N992 N 0.18038 0.62123 0.2333 0.0
N993 N 0.13538 0.57574 0.17023 0.0
C994 C 0.15528 0.62288 0.15834 0.0
C995 C 0.17995 0.64744 0.19253 0.0
C996 C 0.39984 0.79253 0.92808 0.0
C997 C 0.39404 0.81264 0.88344 0.0
C998 C 0.42817 0.8198 0.9594 0.0
C999 C 0.45281 0.86772 0.94698 0.0
H1000 H 0.3804 0.75639 0.93911 0.0
H1001 H 0.42837 0.80417 0.99352 0.0
S1002 S 0.45306 0.93542 0.83409 0.0
N1003 N 0.41739 0.8828 0.82897 0.0
N1004 N 0.47202 0.93226 0.88643 0.0
C1005 C 0.44955 0.88671 0.9022 0.0
C1006 C 0.41984 0.85979 0.8709 0.0
C1007 C 0.17469 0.37291 0.96842 0.0
C1008 C 0.14503 0.35921 0.93118 0.0
C1009 C 0.16946 0.4092 0.98613 0.0
C1010 C 0.13385 0.43271 0.96762 0.0
H1011 H 0.19986 0.35325 0.98571 0.0
H1012 H 0.19135 0.41649 1.01625 0.0
S1013 S 0.05297 0.41535 0.86525 0.0
N1014 N 0.08305 0.37555 0.87317 0.0
N1015 N 0.07319 0.44397 0.90621 0.0
C1016 C 0.10655 0.42175 0.92837 0.0
C1017 C 0.1121 0.38491 0.91026 0.0
C1018 C 0.74129 0.18177 0.90333 0.0
C1019 C 0.71715 0.19071 0.86091 0.0
C1020 C 0.71704 0.15255 0.93878 0.0
C1021 C 0.66701 0.1309 0.93431 0.0
H1022 H 0.77906 0.19836 0.90955 0.0
H1023 H 0.73792 0.14762 0.97038 0.0
S1024 S 0.58719 0.142 0.82962 0.0
N1025 N 0.64004 0.17432 0.81678 0.0
N1026 N 0.59531 0.12055 0.88212 0.0
C1027 C 0.64287 0.13928 0.8918 0.0
C1028 C 0.66751 0.16883 0.85585 0.0
C1029 C 0.85176 0.64008 0.89546 0.0
C1030 C 0.86556 0.68217 0.86478 0.0
C1031 C 0.88445 0.61564 0.92204 0.0
C1032 C 0.93445 0.6312 0.92111 0.0
H1033 H 0.8143 0.62473 0.89841 0.0
H1034 H 0.86979 0.58304 0.94348 0.0
S1035 S 0.99227 0.74095 0.84839 0.0
N1036 N 0.93508 0.73896 0.8362 0.0
N1037 N 0.99608 0.69437 0.88669 0.0
C1038 C 0.94959 0.67449 0.89183 0.0
C1039 C 0.91569 0.69933 0.86383 0.0
C1040 C 0.18236 0.33422 0.19994 0.0
C1041 C 0.23115 0.34543 0.19373 0.0
C1042 C 0.14913 0.35874 0.17221 0.0
C1043 C 0.16255 0.39599 0.13646 0.0
H1044 H 0.17014 0.30781 0.22759 0.0
H1045 H 0.11327 0.34977 0.18018 0.0
S1046 S 0.28397 0.43617 0.10307 0.0
N1047 N 0.28873 0.39492 0.14641 0.0
N1048 N 0.22852 0.43939 0.09611 0.0
C1049 C 0.21059 0.40571 0.12949 0.0
C1050 C 0.2439 0.38121 0.15732 0.0
C1051 C 0.19551 0.64575 0.85926 0.0
C1052 C 0.23525 0.68362 0.86892 0.0
C1053 C 0.16315 0.61994 0.88976 0.0
C1054 C 0.16916 0.63054 0.93165 0.0
H1055 H 0.18979 0.63538 0.82804 0.0
H1056 H 0.13454 0.59022 0.88109 0.0
S1057 S 0.26584 0.72753 0.9727 0.0
N1058 N 0.27718 0.73069 0.92334 0.0
N1059 N 0.2175 0.68335 0.97987 0.0
C1060 C 0.20815 0.669 0.94108 0.0
C1061 C 0.24083 0.69495 0.91021 0.0
C1062 C 0.42641 0.20048 0.88205 0.0
C1063 C 0.38015 0.1848 0.85905 0.0
C1064 C 0.45216 0.1697 0.9105 0.0
C1065 C 0.43541 0.12006 0.91589 0.0
H1066 H 0.44413 0.23773 0.87722 0.0
H1067 H 0.4863 0.18532 0.92769 0.0
S1068 S 0.32408 0.05874 0.85171 0.0
N1069 N 0.32429 0.11489 0.8369 0.0
N1070 N 0.3717 0.05707 0.88791 0.0
C1071 C 0.39106 0.10353 0.88962 0.0
C1072 C 0.36422 0.13537 0.86166 0.0
C1073 C 0.93743 0.32676 0.90239 0.0
C1074 C 0.88753 0.31302 0.8924 0.0
C1075 C 0.95941 0.35311 0.93553 0.0
C1076 C 0.93207 0.36708 0.95893 0.0
H1077 H 0.95954 0.31917 0.88315 0.0
H1078 H 0.99786 0.36532 0.94083 0.0
S1079 S 0.80026 0.3326 0.94992 0.0
N1080 N 0.81164 0.30953 0.91234 0.0
N1081 N 0.85261 0.3598 0.97348 0.0
C1082 C 0.88221 0.35035 0.95121 0.0
C1083 C 0.86002 0.32322 0.9181 0.0
C1084 C 0.73674 0.92793 0.98097 0.0
C1085 C 0.73052 0.932 0.93577 0.0
C1086 C 0.70446 0.9377 1.00157 0.0
C1087 C 0.66474 0.9527 0.97791 0.0
H1088 H 0.76771 0.91848 1.00057 0.0
H1089 H 0.71205 0.93555 0.03644 0.0
S1090 S 0.62854 0.96247 0.85934 0.0
N1091 N 0.67866 0.94657 0.86812 0.0
N1092 N 0.61804 0.96601 0.90726 0.0
C1093 C 0.65579 0.9533 0.93306 0.0
C1094 C 0.68876 0.94278 0.91187 0.0
C1095 C 0.92994 0.66275 0.08429 0.0
C1096 C 0.95915 0.67515 0.12221 0.0
C1097 C 0.93378 0.6256 0.06679 0.0
C1098 C 0.96723 0.59971 0.08646 0.0
H1099 H 0.90544 0.68317 0.06704 0.0
H1100 H 0.91193 0.61871 0.03648 0.0
S1101 S 1.04632 0.61421 0.19021 0.0
N1102 N 1.01857 0.65591 0.18145 0.0
N1103 N 1.02604 0.58614 0.14892 0.0
C1104 C 0.99461 0.61027 0.12582 0.0
C1105 C 0.99054 0.64798 0.14355 0.0
C1106 C 0.36547 0.83336 0.1598 0.0
C1107 C 0.38908 0.82672 0.20266 0.0
C1108 C 0.3893 0.86364 0.12457 0.0
C1109 C 0.43847 0.88856 0.12971 0.0
H1110 H 0.32833 0.81461 0.15322 0.0
H1111 H 0.36876 0.86706 0.09269 0.0
S1112 S 0.51717 0.88261 0.23532 0.0
N1113 N 0.46512 0.84748 0.24769 0.0
N1114 N 0.50919 0.90317 0.18262 0.0
C1115 C 0.46237 0.88164 0.17247 0.0
C1116 C 0.43808 0.85106 0.20825 0.0
C1117 C 0.69344 0.23238 0.13478 0.0
C1118 C 0.69431 0.21389 0.17974 0.0
C1119 C 0.66928 0.20381 0.10333 0.0
C1120 C 0.64433 0.15607 0.11579 0.0
H1121 H 0.7141 0.26806 0.1239 0.0
H1122 H 0.67281 0.21825 0.06942 0.0
S1123 S 0.62961 0.09311 0.22885 0.0
N1124 N 0.66374 0.14626 0.2343 0.0
N1125 N 0.61809 0.0937 0.17611 0.0
C1126 C 0.64207 0.13873 0.16044 0.0
C1127 C 0.66702 0.16726 0.19211 0.0
C1128 C 0.70921 0.69623 0.91056 0.0
C1129 C 0.69404 0.70749 0.86582 0.0
C1130 C 0.67667 0.66846 0.93929 0.0
C1131 C 0.62816 0.65159 0.92396 0.0
H1132 H 0.74679 0.70544 0.92287 0.0
H1133 H 0.69033 0.65614 0.97254 0.0
S1134 S 0.56949 0.68011 0.81189 0.0
N1135 N 0.62647 0.70659 0.80913 0.0
N1136 N 0.56563 0.65447 0.86308 0.0
C1137 C 0.6121 0.6674 0.8804 0.0
C1138 C 0.64501 0.6952 0.85124 0.0
C1139 C 0.34087 0.54629 0.96355 0.0
C1140 C 0.31539 0.53151 0.9252 0.0
C1141 C 0.3903 0.55267 0.97237 0.0
C1142 C 0.41583 0.54726 0.94176 0.0
H1143 H 0.32297 0.55564 0.98538 0.0
H1144 H 0.40868 0.56306 1.00274 0.0
S1145 S 0.36444 0.5135 0.83408 0.0
N1146 N 0.31823 0.50947 0.85753 0.0
N1147 N 0.41121 0.53048 0.86955 0.0
C1148 C 0.39028 0.53351 0.9028 0.0
C1149 C 0.34001 0.5222 0.89621 0.0
C1150 C 0.35157 0.38055 0.87868 0.0
C1151 C 0.36066 0.33832 0.87607 0.0
C1152 C 0.37805 0.40698 0.91064 0.0
C1153 C 0.41533 0.39298 0.93984 0.0
H1154 H 0.32436 0.39343 0.8557 0.0
H1155 H 0.37107 0.43969 0.91113 0.0
S1156 S 0.44888 0.28265 0.95005 0.0
N1157 N 0.40478 0.28079 0.90963 0.0
N1158 N 0.45693 0.33253 0.96657 0.0
C1159 C 0.42262 0.34969 0.93903 0.0
C1160 C 0.39475 0.322 0.90781 0.0
C1161 C 0.73996 0.52224 0.89306 0.0
C1162 C 0.73106 0.47644 0.8845 0.0
C1163 C 0.71574 0.53095 0.92268 0.0
C1164 C 0.68221 0.49398 0.94467 0.0
H1165 H 0.76358 0.55187 0.87483 0.0
H1166 H 0.71999 0.56714 0.92526 0.0
S1167 S 0.64985 0.36729 0.93858 0.0
N1168 N 0.68851 0.39326 0.90374 0.0
N1169 N 0.64531 0.40985 0.96041 0.0
C1170 C 0.67655 0.4477 0.93976 0.0
C1171 C 0.70031 0.43881 0.90932 0.0
C1172 C 0.74118 0.44559 0.054 0.0
C1173 C 0.79006 0.45583 0.07714 0.0
C1174 C 0.69681 0.45295 0.06409 0.0
C1175 C 0.68927 0.47542 0.09823 0.0
H1176 H 0.73653 0.42933 1.02609 0.0
H1177 H 0.66531 0.43911 0.04269 0.0
S1178 S 0.81894 0.59165 0.1206 0.0
N1179 N 0.84793 0.53567 0.11817 0.0
N1180 N 0.74616 0.55542 0.12636 0.0
C1181 C 0.72906 0.49738 0.12695 0.0
C1182 C 0.80619 0.48027 0.11888 0.0
C1183 C 0.73418 0.70509 0.1456 0.0
C1184 C 0.74394 0.68602 0.19013 0.0
C1185 C 0.7081 0.67614 0.11544 0.0
C1186 C 0.69168 0.62707 0.12865 0.0
H1187 H 0.74476 0.74292 0.13426 0.0
H1188 H 0.69829 0.69249 0.08235 0.0
S1189 S 0.71319 0.55895 0.23992 0.0
N1190 N 0.73975 0.61438 0.24439 0.0
N1191 N 0.68948 0.56051 0.18868 0.0
C1192 C 0.70345 0.60757 0.17258 0.0
C1193 C 0.72999 0.63681 0.20301 0.0
C1194 C 0.37401 0.4996 0.17845 0.0
C1195 C 0.38204 0.54578 0.18551 0.0
C1196 C 0.397 0.49062 0.14811 0.0
C1197 C 0.42759 0.52777 0.12327 0.0
H1198 H 0.35185 0.4701 0.19814 0.0
H1199 H 0.39389 0.45434 0.14664 0.0
S1200 S 0.45665 0.65517 0.1253 0.0
N1201 N 0.42075 0.62931 0.16259 0.0
N1202 N 0.46124 0.61219 0.10403 0.0
C1203 C 0.43234 0.57423 0.12699 0.0
C1204 C 0.41015 0.58339 0.15848 0.0
C1205 C 0.39458 0.33741 0.14998 0.0
C1206 C 0.40841 0.32302 0.19461 0.0
C1207 C 0.4285 0.36356 0.1219 0.0
C1208 C 0.47746 0.376 0.13744 0.0
H1209 H 0.3572 0.33133 0.13715 0.0
H1210 H 0.41592 0.37773 0.08883 0.0
S1211 S 0.53257 0.33803 0.2494 0.0
N1212 N 0.47474 0.31654 0.25134 0.0
N1213 N 0.53821 0.36578 0.19888 0.0
C1214 C 0.49178 0.3578 0.18105 0.0
C1215 C 0.45736 0.33144 0.20958 0.0
C1216 C 0.9475 0.61278 0.67632 0.0
C1217 C 0.90352 0.60829 0.64922 0.0
C1218 C 0.98269 0.59413 0.66852 0.0
C1219 C 0.97415 0.56973 0.63407 0.0
H1220 H 0.95633 0.63442 0.70097 0.0
H1221 H 1.01798 0.60287 0.68657 0.0
S1222 S 0.86369 0.54587 0.55614 0.0
N1223 N 0.85239 0.57486 0.58901 0.0
N1224 N 0.91762 0.53959 0.57481 0.0
C1225 C 0.92864 0.56141 0.60968 0.0
C1226 C 0.89353 0.58083 0.61706 0.0
C1227 C 0.40247 0.82548 0.67873 0.0
C1228 C 0.38958 0.84696 0.70797 0.0
C1229 C 0.43457 0.85217 0.64792 0.0
C1230 C 0.45467 0.90163 0.64455 0.0
H1231 H 0.38822 0.78786 0.67989 0.0
H1232 H 0.44474 0.83371 0.62756 0.0
S1233 S 0.43079 0.97609 0.7105 0.0
N1234 N 0.39932 0.92232 0.72895 0.0
N1235 N 0.45743 0.97047 0.67209 0.0
C1236 C 0.44108 0.92322 0.67271 0.0
C1237 C 0.40925 0.89661 0.70389 0.0
C1238 C 0.22228 0.37443 0.70686 0.0
C1239 C 0.19907 0.32556 0.71894 0.0
C1240 C 0.19776 0.40818 0.68014 0.0
C1241 C 0.14761 0.39628 0.66623 0.0
H1242 H 0.25997 0.3868 0.71717 0.0
H1243 H 0.21869 0.44382 0.66952 0.0
S1244 S 0.06729 0.27604 0.69354 0.0
N1245 N 0.12026 0.26976 0.7164 0.0
N1246 N 0.07611 0.332 0.67004 0.0
C1247 C 0.12392 0.34861 0.68046 0.0
C1248 C 0.14869 0.31418 0.70593 0.0
C1249 C 0.67294 0.20861 0.66587 0.0
C1250 C 0.72122 0.20953 0.67914 0.0
C1251 C 0.64501 0.18239 0.6341 0.0
C1252 C 0.66451 0.15629 0.61459 0.0
H1253 H 0.65581 0.22547 0.68212 0.0
H1254 H 0.60722 0.17949 0.62741 0.0
S1255 S 0.79102 0.15424 0.63252 0.0
N1256 N 0.7886 0.18764 0.66581 0.0
N1257 N 0.73642 0.13805 0.60718 0.0
C1258 C 0.7136 0.16034 0.62515 0.0
C1259 C 0.74182 0.1869 0.65721 0.0
C1260 C 0.89184 0.39987 0.36921 0.0
C1261 C 0.87905 0.35001 0.37501 0.0
C1262 C 0.91901 0.4243 0.40249 0.0
C1263 C 0.93439 0.4 0.44341 0.0
H1264 H 0.88163 0.42042 0.33818 0.0
H1265 H 0.92976 0.46252 0.3954 0.0
S1266 S 0.90477 0.26923 0.47754 0.0
N1267 N 0.88017 0.27743 0.42644 0.0
N1268 N 0.9306 0.32248 0.48874 0.0
C1269 C 0.91985 0.35001 0.45016 0.0
C1270 C 0.89257 0.32531 0.41616 0.0
C1271 C 0.69303 0.91019 0.46617 0.0
C1272 C 0.67545 0.87981 0.43562 0.0
C1273 C 0.66701 0.93942 0.47281 0.0
C1274 C 0.62237 0.94082 0.44858 0.0
H1275 H 0.72703 0.91079 0.48606 0.0
H1276 H 0.68178 0.96056 0.49783 0.0
S1277 S 0.56081 0.8711 0.3623 0.0
N1278 N 0.61036 0.85458 0.37977 0.0
N1279 N 0.56275 0.91083 0.39085 0.0
C1280 C 0.60531 0.91262 0.41627 0.0
C1281 C 0.63147 0.88203 0.41006 0.0
C1282 C 0.22295 0.6934 0.39756 0.0
C1283 C 0.20483 0.69122 0.35351 0.0
C1284 C 0.19511 0.66826 0.43188 0.0
C1285 C 0.14812 0.63931 0.42384 0.0
H1286 H 0.25818 0.71592 0.40546 0.0
H1287 H 0.2103 0.67201 0.46491 0.0
S1288 S 0.0849 0.61963 0.31492 0.0
N1289 N 0.13675 0.65686 0.30466 0.0
N1290 N 0.0863 0.60899 0.36817 0.0
C1291 C 0.13049 0.63604 0.38017 0.0
C1292 C 0.15813 0.66218 0.34546 0.0
C1293 C 0.42782 0.2046 0.35762 0.0
C1294 C 0.37827 0.19054 0.36137 0.0
C1295 C 0.46101 0.17993 0.38498 0.0
C1296 C 0.4473 0.13973 0.4183 0.0
H1297 H 0.44089 0.23355 0.332 0.0
H1298 H 0.49752 0.19126 0.37845 0.0
S1299 S 0.3227 0.08856 0.44311 0.0
N1300 N 0.31872 0.13335 0.40296 0.0
N1301 N 0.37934 0.08858 0.45255 0.0
C1302 C 0.39825 0.12637 0.4227 0.0
C1303 C 0.36471 0.15113 0.39512 0.0
C1304 C 0.66986 0.82382 0.69904 0.0
C1305 C 0.71945 0.83787 0.69546 0.0
C1306 C 0.63709 0.84933 0.67223 0.0
C1307 C 0.65163 0.89065 0.6402 0.0
H1308 H 0.65646 0.79421 0.72399 0.0
H1309 H 0.6003 0.83773 0.67819 0.0
S1310 S 0.77637 0.94169 0.61603 0.0
N1311 N 0.77964 0.89569 0.65496 0.0
N1312 N 0.71994 0.94235 0.60692 0.0
C1313 C 0.7006 0.90383 0.63589 0.0
C1314 C 0.73354 0.87803 0.66257 0.0
C1315 C 0.67878 0.17065 0.34703 0.0
C1316 C 0.71842 0.20255 0.36557 0.0
C1317 C 0.64358 0.1389 0.37196 0.0
C1318 C 0.64607 0.13664 0.41721 0.0
H1319 H 0.67518 0.16973 0.31292 0.0
H1320 H 0.61414 0.11554 0.35528 0.0
S1321 S 0.74336 0.21273 0.48191 0.0
N1322 N 0.75847 0.22948 0.43234 0.0
N1323 N 0.69278 0.17074 0.47896 0.0
C1324 C 0.68583 0.16847 0.43616 0.0
C1325 C 0.72174 0.20079 0.4106 0.0
C1326 C 0.88797 0.64306 0.34426 0.0
C1327 C 0.89487 0.6913 0.34683 0.0
C1328 C 0.91706 0.61377 0.37146 0.0
C1329 C 0.95632 0.63125 0.40209 0.0
H1330 H 0.86038 0.62792 0.32011 0.0
H1331 H 0.90844 0.57712 0.36847 0.0
S1332 S 0.99374 0.75628 0.41879 0.0
N1333 N 0.94687 0.75472 0.38136 0.0
N1334 N 1.00056 0.70238 0.43052 0.0
C1335 C 0.96383 0.67974 0.40385 0.0
C1336 C 0.93409 0.7088 0.37686 0.0
C1337 C 0.36789 0.85564 0.38711 0.0
C1338 C 0.38443 0.81951 0.3799 0.0
C1339 C 0.39218 0.8831 0.41839 0.0
C1340 C 0.43528 0.87693 0.4433 0.0
H1341 H 0.3364 0.86381 0.36762 0.0
H1342 H 0.37849 0.91164 0.42101 0.0
S1343 S 0.49058 0.78273 0.44175 0.0
N1344 N 0.44328 0.77485 0.40457 0.0
N1345 N 0.49063 0.82831 0.46197 0.0
C1346 C 0.45048 0.83865 0.43892 0.0
C1347 C 0.4248 0.80969 0.40746 0.0
C1348 C 0.14179 0.45522 0.34894 0.0
C1349 C 0.18743 0.44831 0.36504 0.0
C1350 C 0.11233 0.45974 0.37652 0.0
C1351 C 0.12719 0.45694 0.42132 0.0
H1352 H 0.12828 0.45622 0.31485 0.0
H1353 H 0.07725 0.46402 0.3629 0.0
S1354 S 0.24576 0.44602 0.47891 0.0
N1355 N 0.24773 0.44443 0.42804 0.0
N1356 N 0.1923 0.4513 0.47985 0.0
C1357 C 0.17335 0.45179 0.4375 0.0
C1358 C 0.20341 0.4478 0.40945 0.0
C1359 C 0.46879 0.14734 0.64796 0.0
C1360 C 0.42046 0.14133 0.6304 0.0
C1361 C 0.49583 0.11962 0.64003 0.0
C1362 C 0.47604 0.08524 0.61356 0.0
H1363 H 0.48654 0.17506 0.66642 0.0
H1364 H 0.53317 0.12677 0.65312 0.0
S1365 S 0.34912 0.04871 0.56707 0.0
N1366 N 0.35231 0.09247 0.59124 0.0
N1367 N 0.40367 0.04261 0.57461 0.0
C1368 C 0.42722 0.07692 0.59799 0.0
C1369 C 0.3994 0.10431 0.60684 0.0
C1370 C 0.95172 0.35008 0.7169 0.0
C1371 C 0.9017 0.33056 0.70985 0.0
C1372 C 0.97915 0.37574 0.6828 0.0
C1373 C 0.95859 0.38391 0.63903 0.0
H1374 H 0.97031 0.34503 0.74957 0.0
H1375 H 1.01724 0.38924 0.69091 0.0
S1376 S 0.82963 0.33926 0.60089 0.0
N1377 N 0.83333 0.32004 0.65395 0.0
N1378 N 0.88415 0.36924 0.59056 0.0
C1379 C 0.90857 0.36484 0.63112 0.0
C1380 C 0.8805 0.33803 0.66606 0.0
C1381 C 0.18144 0.66101 0.68603 0.0
C1382 C 0.22528 0.69264 0.676 0.0
C1383 C 0.15533 0.62771 0.65979 0.0
C1384 C 0.17173 0.62438 0.6223 0.0
H1385 H 0.16713 0.66184 0.71448 0.0
H1386 H 0.12079 0.60569 0.66788 0.0
S1387 S 0.28413 0.69895 0.58133 0.0
N1388 N 0.28422 0.71786 0.62592 0.0
N1389 N 0.23441 0.65626 0.57628 0.0
C1390 C 0.21562 0.65545 0.61207 0.0
C1391 C 0.24253 0.68916 0.63899 0.0
loop_
_geom_bond_atom_site_label_1
_geom_bond_atom_site_label_2
_geom_bond_distance
_geom_bond_site_symmetry_2
_ccdc_geom_bond_type
Tb0 N31 2.660 . S
Tb0 N38 2.600 . S
Tb0 O44 2.546 . S
Tb0 O45 2.610 . S
Tb0 O47 2.320 . S
Tb0 O48 2.552 . S
Tb0 O49 2.413 . S
Tb0 O51 2.362 . S
Tb0 O52 2.421 . S
Tb0 C64 2.833 . S
C1 C4 1.432 . S
C1 C5 1.414 . S
C1 N8 1.359 . S
C2 C4 1.417 . S
C2 C6 1.432 . S
C2 C14 1.410 . S
C3 C5 1.444 . S
C3 C6 1.317 . S
C3 H26 0.929 . S
C4 C1 1.432 . S
C4 C2 1.417 . S
C4 N12 1.360 . S
C5 C1 1.414 . S
C5 C3 1.444 . S
C5 C10 1.385 . S
C6 C2 1.432 . S
C6 C3 1.317 . S
C6 H18 0.930 . S
C7 C9 1.392 . S
C7 C10 1.370 . S
C7 H19 0.931 . S
N8 C1 1.359 . S
N8 C9 1.327 . S
N8 Tb11 2.600 . S
C9 C7 1.392 . S
C9 N8 1.327 . S
C9 H16 0.930 . S
C10 C5 1.385 . S
C10 C7 1.370 . S
C10 H29 0.930 . S
Tb11 N8 2.600 . S
Tb11 N12 2.660 . S
Tb11 O45 2.362 . S
Tb11 O46 2.421 . S
Tb11 O50 2.546 . S
Tb11 O51 2.610 . S
Tb11 O53 2.320 . S
Tb11 O54 2.552 . S
Tb11 O55 2.413 . S
Tb11 C75 2.833 . S
N12 C4 1.360 . S
N12 Tb11 2.660 . S
N12 C13 1.305 . S
C13 N12 1.305 . S
C13 C15 1.407 . S
C13 H20 0.930 . S
C14 C2 1.410 . S
C14 C15 1.345 . S
C14 H22 0.930 . S
C15 C13 1.407 . S
C15 C14 1.345 . S
C15 H17 0.930 . S
H16 C9 0.930 . S
H17 C15 0.930 . S
H18 C6 0.930 . S
H19 C7 0.931 . S
H20 C13 0.930 . S
H21 C35 0.930 . S
H22 C14 0.930 . S
H23 C41 0.930 . S
H24 C32 0.930 . S
H25 C39 0.931 . S
H26 C3 0.929 . S
H27 C33 0.930 . S
H28 C66 0.930 . S
H29 C10 0.930 . S
H30 C65 0.929 . S
N31 Tb0 2.660 . S
N31 C32 1.305 . S
N31 C36 1.360 . S
C32 H24 0.930 . S
C32 N31 1.305 . S
C32 C35 1.407 . S
C33 H27 0.930 . S
C33 C34 1.410 . S
C33 C35 1.345 . S
C34 C33 1.410 . S
C34 C36 1.417 . S
C34 C66 1.432 . S
C35 H21 0.930 . S
C35 C32 1.407 . S
C35 C33 1.345 . S
C36 N31 1.360 . S
C36 C34 1.417 . S
C36 C40 1.432 . S
H37 C42 0.930 . S
N38 Tb0 2.600 . S
N38 C40 1.359 . S
N38 C41 1.327 . S
C39 H25 0.931 . S
C39 C41 1.392 . S
C39 C42 1.370 . S
C40 C36 1.432 . S
C40 N38 1.359 . S
C40 C43 1.414 . S
C41 H23 0.930 . S
C41 N38 1.327 . S
C41 C39 1.392 . S
C42 H37 0.930 . S
C42 C39 1.370 . S
C42 C43 1.385 . S
C43 C40 1.414 . S
C43 C42 1.385 . S
C43 C65 1.444 . S
O44 Tb0 2.546 . S
O44 C64 1.251 . S
O45 Tb0 2.610 . S
O45 Tb11 2.362 . S
O45 C56 1.283 . S
O46 Tb11 2.421 . S
O46 C63 1.262 . S
O47 Tb0 2.320 . S
O47 C63 1.260 . S
O48 Tb0 2.552 . S
O48 C56 1.243 . S
O49 Tb0 2.413 . S
O49 C64 1.256 . S
O50 Tb11 2.546 . S
O50 C75 1.251 . S
O51 Tb0 2.362 . S
O51 Tb11 2.610 . S
O51 C67 1.283 . S
O52 Tb0 2.421 . S
O52 C74 1.262 . S
O53 Tb11 2.320 . S
O53 C74 1.260 . S
O54 Tb11 2.552 . S
O54 C67 1.243 . S
O55 Tb11 2.413 . S
O55 C75 1.256 . S
C56 O45 1.283 . S
C56 O48 1.243 . S
C57 C59 1.382 . S
C57 C61 1.393 . S
C57 C64 1.500 . S
C58 C59 1.400 . S
C58 C60 1.384 . S
C59 C57 1.382 . S
C59 C58 1.400 . S
C59 H76 0.930 . S
C60 C58 1.384 . S
C60 C62 1.392 . S
C60 H77 0.931 . S
C61 C57 1.393 . S
C61 C62 1.401 . S
C61 H78 0.930 . S
C62 C60 1.392 . S
C62 C61 1.401 . S
C62 H79 0.930 . S
C63 O46 1.262 . S
C63 O47 1.260 . S
C64 Tb0 2.833 . S
C64 O44 1.251 . S
C64 O49 1.256 . S
C64 C57 1.500 . S
C65 H30 0.929 . S
C65 C43 1.444 . S
C65 C66 1.317 . S
C66 H28 0.930 . S
C66 C34 1.432 . S
C66 C65 1.317 . S
C67 O51 1.283 . S
C67 O54 1.243 . S
C68 C69 1.382 . S
C68 C72 1.393 . S
C68 C75 1.500 . S
C69 C68 1.382 . S
C69 C70 1.400 . S
C69 H80 0.930 . S
C70 C69 1.400 . S
C70 C71 1.384 . S
C71 C70 1.384 . S
C71 C73 1.392 . S
C71 H81 0.931 . S
C72 C68 1.393 . S
C72 C73 1.401 . S
C72 H82 0.930 . S
C73 C71 1.392 . S
C73 C72 1.401 . S
C73 H83 0.930 . S
C74 O52 1.262 . S
C74 O53 1.260 . S
C75 Tb11 2.833 . S
C75 O50 1.251 . S
C75 O55 1.256 . S
C75 C68 1.500 . S
H76 C59 0.930 . S
H77 C60 0.931 . S
H78 C61 0.930 . S
H79 C62 0.930 . S
H80 C69 0.930 . S
H81 C71 0.931 . S
H82 C72 0.930 . S
H83 C73 0.930 . S
Tb84 N115 2.660 . S
Tb84 N122 2.600 . S
Tb84 O128 2.546 . S
Tb84 O129 2.610 . S
Tb84 O131 2.320 . S
Tb84 O132 2.552 . S
Tb84 O133 2.413 . S
Tb84 O135 2.362 . S
Tb84 O136 2.421 . S
Tb84 C148 2.833 . S
C85 C88 1.432 . S
C85 C89 1.414 . S
C85 N92 1.359 . S
C86 C88 1.417 . S
C86 C90 1.432 . S
C86 C98 1.410 . S
C87 C89 1.444 . S
C87 C90 1.317 . S
C87 H110 0.929 . S
C88 C85 1.432 . S
C88 C86 1.417 . S
C88 N96 1.360 . S
C89 C85 1.414 . S
C89 C87 1.444 . S
C89 C94 1.385 . S
C90 C86 1.432 . S
C90 C87 1.317 . S
C90 H102 0.930 . S
C91 C93 1.392 . S
C91 C94 1.370 . S
C91 H103 0.931 . S
N92 C85 1.359 . S
N92 C93 1.327 . S
N92 Tb95 2.600 . S
C93 C91 1.392 . S
C93 N92 1.327 . S
C93 H100 0.930 . S
C94 C89 1.385 . S
C94 C91 1.370 . S
C94 H113 0.930 . S
Tb95 N92 2.600 . S
Tb95 N96 2.660 . S
Tb95 O129 2.362 . S
Tb95 O130 2.421 . S
Tb95 O134 2.546 . S
Tb95 O135 2.610 . S
Tb95 O137 2.320 . S
Tb95 O138 2.552 . S
Tb95 O139 2.413 . S
Tb95 C159 2.833 . S
N96 C88 1.360 . S
N96 Tb95 2.660 . S
N96 C97 1.305 . S
C97 N96 1.305 . S
C97 C99 1.407 . S
C97 H104 0.930 . S
C98 C86 1.410 . S
C98 C99 1.345 . S
C98 H106 0.930 . S
C99 C97 1.407 . S
C99 C98 1.345 . S
C99 H101 0.930 . S
H100 C93 0.930 . S
H101 C99 0.930 . S
H102 C90 0.930 . S
H103 C91 0.931 . S
H104 C97 0.930 . S
H105 C119 0.930 . S
H106 C98 0.930 . S
H107 C125 0.930 . S
H108 C116 0.930 . S
H109 C123 0.931 . S
H110 C87 0.929 . S
H111 C117 0.930 . S
H112 C150 0.930 . S
H113 C94 0.930 . S
H114 C149 0.929 . S
N115 Tb84 2.660 . S
N115 C116 1.305 . S
N115 C120 1.360 . S
C116 H108 0.930 . S
C116 N115 1.305 . S
C116 C119 1.407 . S
C117 H111 0.930 . S
C117 C118 1.410 . S
C117 C119 1.345 . S
C118 C117 1.410 . S
C118 C120 1.417 . S
C118 C150 1.432 . S
C119 H105 0.930 . S
C119 C116 1.407 . S
C119 C117 1.345 . S
C120 N115 1.360 . S
C120 C118 1.417 . S
C120 C124 1.432 . S
H121 C126 0.930 . S
N122 Tb84 2.600 . S
N122 C124 1.359 . S
N122 C125 1.327 . S
C123 H109 0.931 . S
C123 C125 1.392 . S
C123 C126 1.370 . S
C124 C120 1.432 . S
C124 N122 1.359 . S
C124 C127 1.414 . S
C125 H107 0.930 . S
C125 N122 1.327 . S
C125 C123 1.392 . S
C126 H121 0.930 . S
C126 C123 1.370 . S
C126 C127 1.385 . S
C127 C124 1.414 . S
C127 C126 1.385 . S
C127 C149 1.444 . S
O128 Tb84 2.546 . S
O128 C148 1.251 . S
O129 Tb84 2.610 . S
O129 Tb95 2.362 . S
O129 C140 1.283 . S
O130 Tb95 2.421 . S
O130 C147 1.262 . S
O131 Tb84 2.320 . S
O131 C147 1.260 . S
O132 Tb84 2.552 . S
O132 C140 1.243 . S
O133 Tb84 2.413 . S
O133 C148 1.256 . S
O134 Tb95 2.546 . S
O134 C159 1.251 . S
O135 Tb84 2.362 . S
O135 Tb95 2.610 . S
O135 C151 1.283 . S
O136 Tb84 2.421 . S
O136 C158 1.262 . S
O137 Tb95 2.320 . S
O137 C158 1.260 . S
O138 Tb95 2.552 . S
O138 C151 1.243 . S
O139 Tb95 2.413 . S
O139 C159 1.256 . S
C140 O129 1.283 . S
C140 O132 1.243 . S
C141 C143 1.382 . S
C141 C145 1.393 . S
C141 C148 1.500 . S
C142 C143 1.400 . S
C142 C144 1.384 . S
C143 C141 1.382 . S
C143 C142 1.400 . S
C143 H160 0.930 . S
C144 C142 1.384 . S
C144 C146 1.392 . S
C144 H161 0.931 . S
C145 C141 1.393 . S
C145 C146 1.401 . S
C145 H162 0.930 . S
C146 C144 1.392 . S
C146 C145 1.401 . S
C146 H163 0.930 . S
C147 O130 1.262 . S
C147 O131 1.260 . S
C148 Tb84 2.833 . S
C148 O128 1.251 . S
C148 O133 1.256 . S
C148 C141 1.500 . S
C149 H114 0.929 . S
C149 C127 1.444 . S
C149 C150 1.317 . S
C150 H112 0.930 . S
C150 C118 1.432 . S
C150 C149 1.317 . S
C151 O135 1.283 . S
C151 O138 1.243 . S
C152 C153 1.382 . S
C152 C156 1.393 . S
C152 C159 1.500 . S
C153 C152 1.382 . S
C153 C154 1.400 . S
C153 H164 0.930 . S
C154 C153 1.400 . S
C154 C155 1.384 . S
C155 C154 1.384 . S
C155 C157 1.392 . S
C155 H165 0.931 . S
C156 C152 1.393 . S
C156 C157 1.401 . S
C156 H166 0.930 . S
C157 C155 1.392 . S
C157 C156 1.401 . S
C157 H167 0.930 . S
C158 O136 1.262 . S
C158 O137 1.260 . S
C159 Tb95 2.833 . S
C159 O134 1.251 . S
C159 O139 1.256 . S
C159 C152 1.500 . S
H160 C143 0.930 . S
H161 C144 0.931 . S
H162 C145 0.930 . S
H163 C146 0.930 . S
H164 C153 0.930 . S
H165 C155 0.931 . S
H166 C156 0.930 . S
H167 C157 0.930 . S
Tb168 N199 2.660 . S
Tb168 N206 2.600 . S
Tb168 O212 2.546 . S
Tb168 O213 2.610 . S
Tb168 O215 2.320 . S
Tb168 O216 2.552 . S
Tb168 O217 2.413 . S
Tb168 O219 2.362 . S
Tb168 O220 2.421 . S
Tb168 C232 2.833 . S
C169 C172 1.432 . S
C169 C173 1.414 . S
C169 N176 1.359 . S
C170 C172 1.417 . S
C170 C174 1.432 . S
C170 C182 1.410 . S
C171 C173 1.444 . S
C171 C174 1.317 . S
C171 H194 0.929 . S
C172 C169 1.432 . S
C172 C170 1.417 . S
C172 N180 1.360 . S
C173 C169 1.414 . S
C173 C171 1.444 . S
C173 C178 1.385 . S
C174 C170 1.432 . S
C174 C171 1.317 . S
C174 H186 0.930 . S
C175 C177 1.392 . S
C175 C178 1.370 . S
C175 H187 0.931 . S
N176 C169 1.359 . S
N176 C177 1.327 . S
N176 Tb179 2.600 . S
C177 C175 1.392 . S
C177 N176 1.327 . S
C177 H184 0.930 . S
C178 C173 1.385 . S
C178 C175 1.370 . S
C178 H197 0.930 . S
Tb179 N176 2.600 . S
Tb179 N180 2.660 . S
Tb179 O213 2.362 . S
Tb179 O214 2.421 . S
Tb179 O218 2.546 . S
Tb179 O219 2.610 . S
Tb179 O221 2.320 . S
Tb179 O222 2.552 . S
Tb179 O223 2.413 . S
Tb179 C243 2.833 . S
N180 C172 1.360 . S
N180 Tb179 2.660 . S
N180 C181 1.305 . S
C181 N180 1.305 . S
C181 C183 1.407 . S
C181 H188 0.930 . S
C182 C170 1.410 . S
C182 C183 1.345 . S
C182 H190 0.930 . S
C183 C181 1.407 . S
C183 C182 1.345 . S
C183 H185 0.930 . S
H184 C177 0.930 . S
H185 C183 0.930 . S
H186 C174 0.930 . S
H187 C175 0.931 . S
H188 C181 0.930 . S
H189 C203 0.930 . S
H190 C182 0.930 . S
H191 C209 0.930 . S
H192 C200 0.930 . S
H193 C207 0.931 . S
H194 C171 0.929 . S
H195 C201 0.930 . S
H196 C234 0.930 . S
H197 C178 0.930 . S
H198 C233 0.929 . S
N199 Tb168 2.660 . S
N199 C200 1.305 . S
N199 C204 1.360 . S
C200 H192 0.930 . S
C200 N199 1.305 . S
C200 C203 1.407 . S
C201 H195 0.930 . S
C201 C202 1.410 . S
C201 C203 1.345 . S
C202 C201 1.410 . S
C202 C204 1.417 . S
C202 C234 1.432 . S
C203 H189 0.930 . S
C203 C200 1.407 . S
C203 C201 1.345 . S
C204 N199 1.360 . S
C204 C202 1.417 . S
C204 C208 1.432 . S
H205 C210 0.930 . S
N206 Tb168 2.600 . S
N206 C208 1.359 . S
N206 C209 1.327 . S
C207 H193 0.931 . S
C207 C209 1.392 . S
C207 C210 1.370 . S
C208 C204 1.432 . S
C208 N206 1.359 . S
C208 C211 1.414 . S
C209 H191 0.930 . S
C209 N206 1.327 . S
C209 C207 1.392 . S
C210 H205 0.930 . S
C210 C207 1.370 . S
C210 C211 1.385 . S
C211 C208 1.414 . S
C211 C210 1.385 . S
C211 C233 1.444 . S
O212 Tb168 2.546 . S
O212 C232 1.251 . S
O213 Tb168 2.610 . S
O213 Tb179 2.362 . S
O213 C224 1.283 . S
O214 Tb179 2.421 . S
O214 C231 1.262 . S
O215 Tb168 2.320 . S
O215 C231 1.260 . S
O216 Tb168 2.552 . S
O216 C224 1.243 . S
O217 Tb168 2.413 . S
O217 C232 1.256 . S
O218 Tb179 2.546 . S
O218 C243 1.251 . S
O219 Tb168 2.362 . S
O219 Tb179 2.610 . S
O219 C235 1.283 . S
O220 Tb168 2.421 . S
O220 C242 1.262 . S
O221 Tb179 2.320 . S
O221 C242 1.260 . S
O222 Tb179 2.552 . S
O222 C235 1.243 . S
O223 Tb179 2.413 . S
O223 C243 1.256 . S
C224 O213 1.283 . S
C224 O216 1.243 . S
C225 C227 1.382 . S
C225 C229 1.393 . S
C225 C232 1.500 . S
C226 C227 1.400 . S
C226 C228 1.384 . S
C227 C225 1.382 . S
C227 C226 1.400 . S
C227 H244 0.930 . S
C228 C226 1.384 . S
C228 C230 1.392 . S
C228 H245 0.931 . S
C229 C225 1.393 . S
C229 C230 1.401 . S
C229 H246 0.930 . S
C230 C228 1.392 . S
C230 C229 1.401 . S
C230 H247 0.930 . S
C231 O214 1.262 . S
C231 O215 1.260 . S
C232 Tb168 2.833 . S
C232 O212 1.251 . S
C232 O217 1.256 . S
C232 C225 1.500 . S
C233 H198 0.929 . S
C233 C211 1.444 . S
C233 C234 1.317 . S
C234 H196 0.930 . S
C234 C202 1.432 . S
C234 C233 1.317 . S
C235 O219 1.283 . S
C235 O222 1.243 . S
C236 C237 1.382 . S
C236 C240 1.393 . S
C236 C243 1.500 . S
C237 C236 1.382 . S
C237 C238 1.400 . S
C237 H248 0.930 . S
C238 C237 1.400 . S
C238 C239 1.384 . S
C239 C238 1.384 . S
C239 C241 1.392 . S
C239 H249 0.931 . S
C240 C236 1.393 . S
C240 C241 1.401 . S
C240 H250 0.930 . S
C241 C239 1.392 . S
C241 C240 1.401 . S
C241 H251 0.930 . S
C242 O220 1.262 . S
C242 O221 1.260 . S
C243 Tb179 2.833 . S
C243 O218 1.251 . S
C243 O223 1.256 . S
C243 C236 1.500 . S
H244 C227 0.930 . S
H245 C228 0.931 . S
H246 C229 0.930 . S
H247 C230 0.930 . S
H248 C237 0.930 . S
H249 C239 0.931 . S
H250 C240 0.930 . S
H251 C241 0.930 . S
Tb252 N283 2.660 . S
Tb252 N290 2.600 . S
Tb252 O296 2.546 . S
Tb252 O297 2.610 . S
Tb252 O299 2.320 . S
Tb252 O300 2.552 . S
Tb252 O301 2.413 . S
Tb252 O303 2.362 . S
Tb252 O304 2.421 . S
Tb252 C316 2.833 . S
C253 C256 1.432 . S
C253 C257 1.414 . S
C253 N260 1.359 . S
C254 C256 1.417 . S
C254 C258 1.432 . S
C254 C266 1.410 . S
C255 C257 1.444 . S
C255 C258 1.317 . S
C255 H278 0.929 . S
C256 C253 1.432 . S
C256 C254 1.417 . S
C256 N264 1.360 . S
C257 C253 1.414 . S
C257 C255 1.444 . S
C257 C262 1.385 . S
C258 C254 1.432 . S
C258 C255 1.317 . S
C258 H270 0.930 . S
C259 C261 1.392 . S
C259 C262 1.370 . S
C259 H271 0.931 . S
N260 C253 1.359 . S
N260 C261 1.327 . S
N260 Tb263 2.600 . S
C261 C259 1.392 . S
C261 N260 1.327 . S
C261 H268 0.930 . S
C262 C257 1.385 . S
C262 C259 1.370 . S
C262 H281 0.930 . S
Tb263 N260 2.600 . S
Tb263 N264 2.660 . S
Tb263 O297 2.362 . S
Tb263 O298 2.421 . S
Tb263 O302 2.546 . S
Tb263 O303 2.610 . S
Tb263 O305 2.320 . S
Tb263 O306 2.552 . S
Tb263 O307 2.413 . S
Tb263 C327 2.833 . S
N264 C256 1.360 . S
N264 Tb263 2.660 . S
N264 C265 1.305 . S
C265 N264 1.305 . S
C265 C267 1.407 . S
C265 H272 0.930 . S
C266 C254 1.410 . S
C266 C267 1.345 . S
C266 H274 0.930 . S
C267 C265 1.407 . S
C267 C266 1.345 . S
C267 H269 0.930 . S
H268 C261 0.930 . S
H269 C267 0.930 . S
H270 C258 0.930 . S
H271 C259 0.931 . S
H272 C265 0.930 . S
H273 C287 0.930 . S
H274 C266 0.930 . S
H275 C293 0.930 . S
H276 C284 0.930 . S
H277 C291 0.931 . S
H278 C255 0.929 . S
H279 C285 0.930 . S
H280 C318 0.930 . S
H281 C262 0.930 . S
H282 C317 0.929 . S
N283 Tb252 2.660 . S
N283 C284 1.305 . S
N283 C288 1.360 . S
C284 H276 0.930 . S
C284 N283 1.305 . S
C284 C287 1.407 . S
C285 H279 0.930 . S
C285 C286 1.410 . S
C285 C287 1.345 . S
C286 C285 1.410 . S
C286 C288 1.417 . S
C286 C318 1.432 . S
C287 H273 0.930 . S
C287 C284 1.407 . S
C287 C285 1.345 . S
C288 N283 1.360 . S
C288 C286 1.417 . S
C288 C292 1.432 . S
H289 C294 0.930 . S
N290 Tb252 2.600 . S
N290 C292 1.359 . S
N290 C293 1.327 . S
C291 H277 0.931 . S
C291 C293 1.392 . S
C291 C294 1.370 . S
C292 C288 1.432 . S
C292 N290 1.359 . S
C292 C295 1.414 . S
C293 H275 0.930 . S
C293 N290 1.327 . S
C293 C291 1.392 . S
C294 H289 0.930 . S
C294 C291 1.370 . S
C294 C295 1.385 . S
C295 C292 1.414 . S
C295 C294 1.385 . S
C295 C317 1.444 . S
O296 Tb252 2.546 . S
O296 C316 1.251 . S
O297 Tb252 2.610 . S
O297 Tb263 2.362 . S
O297 C308 1.283 . S
O298 Tb263 2.421 . S
O298 C315 1.262 . S
O299 Tb252 2.320 . S
O299 C315 1.260 . S
O300 Tb252 2.552 . S
O300 C308 1.243 . S
O301 Tb252 2.413 . S
O301 C316 1.256 . S
O302 Tb263 2.546 . S
O302 C327 1.251 . S
O303 Tb252 2.362 . S
O303 Tb263 2.610 . S
O303 C319 1.283 . S
O304 Tb252 2.421 . S
O304 C326 1.262 . S
O305 Tb263 2.320 . S
O305 C326 1.260 . S
O306 Tb263 2.552 . S
O306 C319 1.243 . S
O307 Tb263 2.413 . S
O307 C327 1.256 . S
C308 O297 1.283 . S
C308 O300 1.243 . S
C309 C311 1.382 . S
C309 C313 1.393 . S
C309 C316 1.500 . S
C310 C311 1.400 . S
C310 C312 1.384 . S
C311 C309 1.382 . S
C311 C310 1.400 . S
C311 H328 0.930 . S
C312 C310 1.384 . S
C312 C314 1.392 . S
C312 H329 0.931 . S
C313 C309 1.393 . S
C313 C314 1.401 . S
C313 H330 0.930 . S
C314 C312 1.392 . S
C314 C313 1.401 . S
C314 H331 0.930 . S
C315 O298 1.262 . S
C315 O299 1.260 . S
C316 Tb252 2.833 . S
C316 O296 1.251 . S
C316 O301 1.256 . S
C316 C309 1.500 . S
C317 H282 0.929 . S
C317 C295 1.444 . S
C317 C318 1.317 . S
C318 H280 0.930 . S
C318 C286 1.432 . S
C318 C317 1.317 . S
C319 O303 1.283 . S
C319 O306 1.243 . S
C320 C321 1.382 . S
C320 C324 1.393 . S
C320 C327 1.500 . S
C321 C320 1.382 . S
C321 C322 1.400 . S
C321 H332 0.930 . S
C322 C321 1.400 . S
C322 C323 1.384 . S
C323 C322 1.384 . S
C323 C325 1.392 . S
C323 H333 0.931 . S
C324 C320 1.393 . S
C324 C325 1.401 . S
C324 H334 0.930 . S
C325 C323 1.392 . S
C325 C324 1.401 . S
C325 H335 0.930 . S
C326 O304 1.262 . S
C326 O305 1.260 . S
C327 Tb263 2.833 . S
C327 O302 1.251 . S
C327 O307 1.256 . S
C327 C320 1.500 . S
H328 C311 0.930 . S
H329 C312 0.931 . S
H330 C313 0.930 . S
H331 C314 0.930 . S
H332 C321 0.930 . S
H333 C323 0.931 . S
H334 C324 0.930 . S
H335 C325 0.930 . S
Tb336 N367 2.660 . S
Tb336 N374 2.600 . S
Tb336 O380 2.546 . S
Tb336 O381 2.610 . S
Tb336 O383 2.320 . S
Tb336 O384 2.552 . S
Tb336 O385 2.413 . S
Tb336 O387 2.362 . S
Tb336 O388 2.421 . S
Tb336 C400 2.833 . S
C337 C340 1.432 . S
C337 C341 1.414 . S
C337 N344 1.359 . S
C338 C340 1.417 . S
C338 C342 1.432 . S
C338 C350 1.410 . S
C339 C341 1.444 . S
C339 C342 1.317 . S
C339 H362 0.929 . S
C340 C337 1.432 . S
C340 C338 1.417 . S
C340 N348 1.360 . S
C341 C337 1.414 . S
C341 C339 1.444 . S
C341 C346 1.385 . S
C342 C338 1.432 . S
C342 C339 1.317 . S
C342 H354 0.930 . S
C343 C345 1.392 . S
C343 C346 1.370 . S
C343 H355 0.931 . S
N344 C337 1.359 . S
N344 C345 1.327 . S
N344 Tb347 2.600 . S
C345 C343 1.392 . S
C345 N344 1.327 . S
C345 H352 0.930 . S
C346 C341 1.385 . S
C346 C343 1.370 . S
C346 H365 0.930 . S
Tb347 N344 2.600 . S
Tb347 N348 2.660 . S
Tb347 O381 2.362 . S
Tb347 O382 2.421 . S
Tb347 O386 2.546 . S
Tb347 O387 2.610 . S
Tb347 O389 2.320 . S
Tb347 O390 2.552 . S
Tb347 O391 2.413 . S
Tb347 C411 2.833 . S
N348 C340 1.360 . S
N348 Tb347 2.660 . S
N348 C349 1.305 . S
C349 N348 1.305 . S
C349 C351 1.407 . S
C349 H356 0.930 . S
C350 C338 1.410 . S
C350 C351 1.345 . S
C350 H358 0.930 . S
C351 C349 1.407 . S
C351 C350 1.345 . S
C351 H353 0.930 . S
H352 C345 0.930 . S
H353 C351 0.930 . S
H354 C342 0.930 . S
H355 C343 0.931 . S
H356 C349 0.930 . S
H357 C371 0.930 . S
H358 C350 0.930 . S
H359 C377 0.930 . S
H360 C368 0.930 . S
H361 C375 0.931 . S
H362 C339 0.929 . S
H363 C369 0.930 . S
H364 C402 0.930 . S
H365 C346 0.930 . S
H366 C401 0.929 . S
N367 Tb336 2.660 . S
N367 C368 1.305 . S
N367 C372 1.360 . S
C368 H360 0.930 . S
C368 N367 1.305 . S
C368 C371 1.407 . S
C369 H363 0.930 . S
C369 C370 1.410 . S
C369 C371 1.345 . S
C370 C369 1.410 . S
C370 C372 1.417 . S
C370 C402 1.432 . S
C371 H357 0.930 . S
C371 C368 1.407 . S
C371 C369 1.345 . S
C372 N367 1.360 . S
C372 C370 1.417 . S
C372 C376 1.432 . S
H373 C378 0.930 . S
N374 Tb336 2.600 . S
N374 C376 1.359 . S
N374 C377 1.327 . S
C375 H361 0.931 . S
C375 C377 1.392 . S
C375 C378 1.370 . S
C376 C372 1.432 . S
C376 N374 1.359 . S
C376 C379 1.414 . S
C377 H359 0.930 . S
C377 N374 1.327 . S
C377 C375 1.392 . S
C378 H373 0.930 . S
C378 C375 1.370 . S
C378 C379 1.385 . S
C379 C376 1.414 . S
C379 C378 1.385 . S
C379 C401 1.444 . S
O380 Tb336 2.546 . S
O380 C400 1.251 . S
O381 Tb336 2.610 . S
O381 Tb347 2.362 . S
O381 C392 1.283 . S
O382 Tb347 2.421 . S
O382 C399 1.262 . S
O383 Tb336 2.320 . S
O383 C399 1.260 . S
O384 Tb336 2.552 . S
O384 C392 1.243 . S
O385 Tb336 2.413 . S
O385 C400 1.256 . S
O386 Tb347 2.546 . S
O386 C411 1.251 . S
O387 Tb336 2.362 . S
O387 Tb347 2.610 . S
O387 C403 1.283 . S
O388 Tb336 2.421 . S
O388 C410 1.262 . S
O389 Tb347 2.320 . S
O389 C410 1.260 . S
O390 Tb347 2.552 . S
O390 C403 1.243 . S
O391 Tb347 2.413 . S
O391 C411 1.256 . S
C392 O381 1.283 . S
C392 O384 1.243 . S
C393 C395 1.382 . S
C393 C397 1.393 . S
C393 C400 1.500 . S
C394 C395 1.400 . S
C394 C396 1.384 . S
C395 C393 1.382 . S
C395 C394 1.400 . S
C395 H412 0.930 . S
C396 C394 1.384 . S
C396 C398 1.392 . S
C396 H413 0.931 . S
C397 C393 1.393 . S
C397 C398 1.401 . S
C397 H414 0.930 . S
C398 C396 1.392 . S
C398 C397 1.401 . S
C398 H415 0.930 . S
C399 O382 1.262 . S
C399 O383 1.260 . S
C400 Tb336 2.833 . S
C400 O380 1.251 . S
C400 O385 1.256 . S
C400 C393 1.500 . S
C401 H366 0.929 . S
C401 C379 1.444 . S
C401 C402 1.317 . S
C402 H364 0.930 . S
C402 C370 1.432 . S
C402 C401 1.317 . S
C403 O387 1.283 . S
C403 O390 1.243 . S
C404 C405 1.382 . S
C404 C408 1.393 . S
C404 C411 1.500 . S
C405 C404 1.382 . S
C405 C406 1.400 . S
C405 H416 0.930 . S
C406 C405 1.400 . S
C406 C407 1.384 . S
C407 C406 1.384 . S
C407 C409 1.392 . S
C407 H417 0.931 . S
C408 C404 1.393 . S
C408 C409 1.401 . S
C408 H418 0.930 . S
C409 C407 1.392 . S
C409 C408 1.401 . S
C409 H419 0.930 . S
C410 O388 1.262 . S
C410 O389 1.260 . S
C411 Tb347 2.833 . S
C411 O386 1.251 . S
C411 O391 1.256 . S
C411 C404 1.500 . S
H412 C395 0.930 . S
H413 C396 0.931 . S
H414 C397 0.930 . S
H415 C398 0.930 . S
H416 C405 0.930 . S
H417 C407 0.931 . S
H418 C408 0.930 . S
H419 C409 0.930 . S
Tb420 N451 2.660 . S
Tb420 N458 2.600 . S
Tb420 O464 2.546 . S
Tb420 O465 2.610 . S
Tb420 O467 2.320 . S
Tb420 O468 2.552 . S
Tb420 O469 2.413 . S
Tb420 O471 2.362 . S
Tb420 O472 2.421 . S
Tb420 C484 2.833 . S
C421 C424 1.432 . S
C421 C425 1.414 . S
C421 N428 1.359 . S
C422 C424 1.417 . S
C422 C426 1.432 . S
C422 C434 1.410 . S
C423 C425 1.444 . S
C423 C426 1.317 . S
C423 H446 0.929 . S
C424 C421 1.432 . S
C424 C422 1.417 . S
C424 N432 1.360 . S
C425 C421 1.414 . S
C425 C423 1.444 . S
C425 C430 1.385 . S
C426 C422 1.432 . S
C426 C423 1.317 . S
C426 H438 0.930 . S
C427 C429 1.392 . S
C427 C430 1.370 . S
C427 H439 0.931 . S
N428 C421 1.359 . S
N428 C429 1.327 . S
N428 Tb431 2.600 . S
C429 C427 1.392 . S
C429 N428 1.327 . S
C429 H436 0.930 . S
C430 C425 1.385 . S
C430 C427 1.370 . S
C430 H449 0.930 . S
Tb431 N428 2.600 . S
Tb431 N432 2.660 . S
Tb431 O465 2.362 . S
Tb431 O466 2.421 . S
Tb431 O470 2.546 . S
Tb431 O471 2.610 . S
Tb431 O473 2.320 . S
Tb431 O474 2.552 . S
Tb431 O475 2.413 . S
Tb431 C495 2.833 . S
N432 C424 1.360 . S
N432 Tb431 2.660 . S
N432 C433 1.305 . S
C433 N432 1.305 . S
C433 C435 1.407 . S
C433 H440 0.930 . S
C434 C422 1.410 . S
C434 C435 1.345 . S
C434 H442 0.930 . S
C435 C433 1.407 . S
C435 C434 1.345 . S
C435 H437 0.930 . S
H436 C429 0.930 . S
H437 C435 0.930 . S
H438 C426 0.930 . S
H439 C427 0.931 . S
H440 C433 0.930 . S
H441 C455 0.930 . S
H442 C434 0.930 . S
H443 C461 0.930 . S
H444 C452 0.930 . S
H445 C459 0.931 . S
H446 C423 0.929 . S
H447 C453 0.930 . S
H448 C486 0.930 . S
H449 C430 0.930 . S
H450 C485 0.929 . S
N451 Tb420 2.660 . S
N451 C452 1.305 . S
N451 C456 1.360 . S
C452 H444 0.930 . S
C452 N451 1.305 . S
C452 C455 1.407 . S
C453 H447 0.930 . S
C453 C454 1.410 . S
C453 C455 1.345 . S
C454 C453 1.410 . S
C454 C456 1.417 . S
C454 C486 1.432 . S
C455 H441 0.930 . S
C455 C452 1.407 . S
C455 C453 1.345 . S
C456 N451 1.360 . S
C456 C454 1.417 . S
C456 C460 1.432 . S
H457 C462 0.930 . S
N458 Tb420 2.600 . S
N458 C460 1.359 . S
N458 C461 1.327 . S
C459 H445 0.931 . S
C459 C461 1.392 . S
C459 C462 1.370 . S
C460 C456 1.432 . S
C460 N458 1.359 . S
C460 C463 1.414 . S
C461 H443 0.930 . S
C461 N458 1.327 . S
C461 C459 1.392 . S
C462 H457 0.930 . S
C462 C459 1.370 . S
C462 C463 1.385 . S
C463 C460 1.414 . S
C463 C462 1.385 . S
C463 C485 1.444 . S
O464 Tb420 2.546 . S
O464 C484 1.251 . S
O465 Tb420 2.610 . S
O465 Tb431 2.362 . S
O465 C476 1.283 . S
O466 Tb431 2.421 . S
O466 C483 1.262 . S
O467 Tb420 2.320 . S
O467 C483 1.260 . S
O468 Tb420 2.552 . S
O468 C476 1.243 . S
O469 Tb420 2.413 . S
O469 C484 1.256 . S
O470 Tb431 2.546 . S
O470 C495 1.251 . S
O471 Tb420 2.362 . S
O471 Tb431 2.610 . S
O471 C487 1.283 . S
O472 Tb420 2.421 . S
O472 C494 1.262 . S
O473 Tb431 2.320 . S
O473 C494 1.260 . S
O474 Tb431 2.552 . S
O474 C487 1.243 . S
O475 Tb431 2.413 . S
O475 C495 1.256 . S
C476 O465 1.283 . S
C476 O468 1.243 . S
C477 C479 1.382 . S
C477 C481 1.393 . S
C477 C484 1.500 . S
C478 C479 1.400 . S
C478 C480 1.384 . S
C479 C477 1.382 . S
C479 C478 1.400 . S
C479 H496 0.930 . S
C480 C478 1.384 . S
C480 C482 1.392 . S
C480 H497 0.931 . S
C481 C477 1.393 . S
C481 C482 1.401 . S
C481 H498 0.930 . S
C482 C480 1.392 . S
C482 C481 1.401 . S
C482 H499 0.930 . S
C483 O466 1.262 . S
C483 O467 1.260 . S
C484 Tb420 2.833 . S
C484 O464 1.251 . S
C484 O469 1.256 . S
C484 C477 1.500 . S
C485 H450 0.929 . S
C485 C463 1.444 . S
C485 C486 1.317 . S
C486 H448 0.930 . S
C486 C454 1.432 . S
C486 C485 1.317 . S
C487 O471 1.283 . S
C487 O474 1.243 . S
C488 C489 1.382 . S
C488 C492 1.393 . S
C488 C495 1.500 . S
C489 C488 1.382 . S
C489 C490 1.400 . S
C489 H500 0.930 . S
C490 C489 1.400 . S
C490 C491 1.384 . S
C491 C490 1.384 . S
C491 C493 1.392 . S
C491 H501 0.931 . S
C492 C488 1.393 . S
C492 C493 1.401 . S
C492 H502 0.930 . S
C493 C491 1.392 . S
C493 C492 1.401 . S
C493 H503 0.930 . S
C494 O472 1.262 . S
C494 O473 1.260 . S
C495 Tb431 2.833 . S
C495 O470 1.251 . S
C495 O475 1.256 . S
C495 C488 1.500 . S
H496 C479 0.930 . S
H497 C480 0.931 . S
H498 C481 0.930 . S
H499 C482 0.930 . S
H500 C489 0.930 . S
H501 C491 0.931 . S
H502 C492 0.930 . S
H503 C493 0.930 . S
Tb504 N535 2.660 . S
Tb504 N542 2.600 . S
Tb504 O548 2.546 . S
Tb504 O549 2.610 . S
Tb504 O551 2.320 . S
Tb504 O552 2.552 . S
Tb504 O553 2.413 . S
Tb504 O555 2.362 . S
Tb504 O556 2.421 . S
Tb504 C568 2.833 . S
C505 C508 1.432 . S
C505 C509 1.414 . S
C505 N512 1.359 . S
C506 C508 1.417 . S
C506 C510 1.432 . S
C506 C518 1.410 . S
C507 C509 1.444 . S
C507 C510 1.317 . S
C507 H530 0.929 . S
C508 C505 1.432 . S
C508 C506 1.417 . S
C508 N516 1.360 . S
C509 C505 1.414 . S
C509 C507 1.444 . S
C509 C514 1.385 . S
C510 C506 1.432 . S
C510 C507 1.317 . S
C510 H522 0.930 . S
C511 C513 1.392 . S
C511 C514 1.370 . S
C511 H523 0.931 . S
N512 C505 1.359 . S
N512 C513 1.327 . S
N512 Tb515 2.600 . S
C513 C511 1.392 . S
C513 N512 1.327 . S
C513 H520 0.930 . S
C514 C509 1.385 . S
C514 C511 1.370 . S
C514 H533 0.930 . S
Tb515 N512 2.600 . S
Tb515 N516 2.660 . S
Tb515 O549 2.362 . S
Tb515 O550 2.421 . S
Tb515 O554 2.546 . S
Tb515 O555 2.610 . S
Tb515 O557 2.320 . S
Tb515 O558 2.552 . S
Tb515 O559 2.413 . S
Tb515 C579 2.833 . S
N516 C508 1.360 . S
N516 Tb515 2.660 . S
N516 C517 1.305 . S
C517 N516 1.305 . S
C517 C519 1.407 . S
C517 H524 0.930 . S
C518 C506 1.410 . S
C518 C519 1.345 . S
C518 H526 0.930 . S
C519 C517 1.407 . S
C519 C518 1.345 . S
C519 H521 0.930 . S
H520 C513 0.930 . S
H521 C519 0.930 . S
H522 C510 0.930 . S
H523 C511 0.931 . S
H524 C517 0.930 . S
H525 C539 0.930 . S
H526 C518 0.930 . S
H527 C545 0.930 . S
H528 C536 0.930 . S
H529 C543 0.931 . S
H530 C507 0.929 . S
H531 C537 0.930 . S
H532 C570 0.930 . S
H533 C514 0.930 . S
H534 C569 0.929 . S
N535 Tb504 2.660 . S
N535 C536 1.305 . S
N535 C540 1.360 . S
C536 H528 0.930 . S
C536 N535 1.305 . S
C536 C539 1.407 . S
C537 H531 0.930 . S
C537 C538 1.410 . S
C537 C539 1.345 . S
C538 C537 1.410 . S
C538 C540 1.417 . S
C538 C570 1.432 . S
C539 H525 0.930 . S
C539 C536 1.407 . S
C539 C537 1.345 . S
C540 N535 1.360 . S
C540 C538 1.417 . S
C540 C544 1.432 . S
H541 C546 0.930 . S
N542 Tb504 2.600 . S
N542 C544 1.359 . S
N542 C545 1.327 . S
C543 H529 0.931 . S
C543 C545 1.392 . S
C543 C546 1.370 . S
C544 C540 1.432 . S
C544 N542 1.359 . S
C544 C547 1.414 . S
C545 H527 0.930 . S
C545 N542 1.327 . S
C545 C543 1.392 . S
C546 H541 0.930 . S
C546 C543 1.370 . S
C546 C547 1.385 . S
C547 C544 1.414 . S
C547 C546 1.385 . S
C547 C569 1.444 . S
O548 Tb504 2.546 . S
O548 C568 1.251 . S
O549 Tb504 2.610 . S
O549 Tb515 2.362 . S
O549 C560 1.283 . S
O550 Tb515 2.421 . S
O550 C567 1.262 . S
O551 Tb504 2.320 . S
O551 C567 1.260 . S
O552 Tb504 2.552 . S
O552 C560 1.243 . S
O553 Tb504 2.413 . S
O553 C568 1.256 . S
O554 Tb515 2.546 . S
O554 C579 1.251 . S
O555 Tb504 2.362 . S
O555 Tb515 2.610 . S
O555 C571 1.283 . S
O556 Tb504 2.421 . S
O556 C578 1.262 . S
O557 Tb515 2.320 . S
O557 C578 1.260 . S
O558 Tb515 2.552 . S
O558 C571 1.243 . S
O559 Tb515 2.413 . S
O559 C579 1.256 . S
C560 O549 1.283 . S
C560 O552 1.243 . S
C561 C563 1.382 . S
C561 C565 1.393 . S
C561 C568 1.500 . S
C562 C563 1.400 . S
C562 C564 1.384 . S
C563 C561 1.382 . S
C563 C562 1.400 . S
C563 H580 0.930 . S
C564 C562 1.384 . S
C564 C566 1.392 . S
C564 H581 0.931 . S
C565 C561 1.393 . S
C565 C566 1.401 . S
C565 H582 0.930 . S
C566 C564 1.392 . S
C566 C565 1.401 . S
C566 H583 0.930 . S
C567 O550 1.262 . S
C567 O551 1.260 . S
C568 Tb504 2.833 . S
C568 O548 1.251 . S
C568 O553 1.256 . S
C568 C561 1.500 . S
C569 H534 0.929 . S
C569 C547 1.444 . S
C569 C570 1.317 . S
C570 H532 0.930 . S
C570 C538 1.432 . S
C570 C569 1.317 . S
C571 O555 1.283 . S
C571 O558 1.243 . S
C572 C573 1.382 . S
C572 C576 1.393 . S
C572 C579 1.500 . S
C573 C572 1.382 . S
C573 C574 1.400 . S
C573 H584 0.930 . S
C574 C573 1.400 . S
C574 C575 1.384 . S
C575 C574 1.384 . S
C575 C577 1.392 . S
C575 H585 0.931 . S
C576 C572 1.393 . S
C576 C577 1.401 . S
C576 H586 0.930 . S
C577 C575 1.392 . S
C577 C576 1.401 . S
C577 H587 0.930 . S
C578 O556 1.262 . S
C578 O557 1.260 . S
C579 Tb515 2.833 . S
C579 O554 1.251 . S
C579 O559 1.256 . S
C579 C572 1.500 . S
H580 C563 0.930 . S
H581 C564 0.931 . S
H582 C565 0.930 . S
H583 C566 0.930 . S
H584 C573 0.930 . S
H585 C575 0.931 . S
H586 C576 0.930 . S
H587 C577 0.930 . S
Tb588 N619 2.660 . S
Tb588 N626 2.600 . S
Tb588 O632 2.546 . S
Tb588 O633 2.610 . S
Tb588 O635 2.320 . S
Tb588 O636 2.552 . S
Tb588 O637 2.413 . S
Tb588 O639 2.362 . S
Tb588 O640 2.421 . S
Tb588 C652 2.833 . S
C589 C592 1.432 . S
C589 C593 1.414 . S
C589 N596 1.359 . S
C590 C592 1.417 . S
C590 C594 1.432 . S
C590 C602 1.410 . S
C591 C593 1.444 . S
C591 C594 1.317 . S
C591 H614 0.929 . S
C592 C589 1.432 . S
C592 C590 1.417 . S
C592 N600 1.360 . S
C593 C589 1.414 . S
C593 C591 1.444 . S
C593 C598 1.385 . S
C594 C590 1.432 . S
C594 C591 1.317 . S
C594 H606 0.930 . S
C595 C597 1.392 . S
C595 C598 1.370 . S
C595 H607 0.931 . S
N596 C589 1.359 . S
N596 C597 1.327 . S
N596 Tb599 2.600 . S
C597 C595 1.392 . S
C597 N596 1.327 . S
C597 H604 0.930 . S
C598 C593 1.385 . S
C598 C595 1.370 . S
C598 H617 0.930 . S
Tb599 N596 2.600 . S
Tb599 N600 2.660 . S
Tb599 O633 2.362 . S
Tb599 O634 2.421 . S
Tb599 O638 2.546 . S
Tb599 O639 2.610 . S
Tb599 O641 2.320 . S
Tb599 O642 2.552 . S
Tb599 O643 2.413 . S
Tb599 C663 2.833 . S
N600 C592 1.360 . S
N600 Tb599 2.660 . S
N600 C601 1.305 . S
C601 N600 1.305 . S
C601 C603 1.407 . S
C601 H608 0.930 . S
C602 C590 1.410 . S
C602 C603 1.345 . S
C602 H610 0.930 . S
C603 C601 1.407 . S
C603 C602 1.345 . S
C603 H605 0.930 . S
H604 C597 0.930 . S
H605 C603 0.930 . S
H606 C594 0.930 . S
H607 C595 0.931 . S
H608 C601 0.930 . S
H609 C623 0.930 . S
H610 C602 0.930 . S
H611 C629 0.930 . S
H612 C620 0.930 . S
H613 C627 0.931 . S
H614 C591 0.929 . S
H615 C621 0.930 . S
H616 C654 0.930 . S
H617 C598 0.930 . S
H618 C653 0.929 . S
N619 Tb588 2.660 . S
N619 C620 1.305 . S
N619 C624 1.360 . S
C620 H612 0.930 . S
C620 N619 1.305 . S
C620 C623 1.407 . S
C621 H615 0.930 . S
C621 C622 1.410 . S
C621 C623 1.345 . S
C622 C621 1.410 . S
C622 C624 1.417 . S
C622 C654 1.432 . S
C623 H609 0.930 . S
C623 C620 1.407 . S
C623 C621 1.345 . S
C624 N619 1.360 . S
C624 C622 1.417 . S
C624 C628 1.432 . S
H625 C630 0.930 . S
N626 Tb588 2.600 . S
N626 C628 1.359 . S
N626 C629 1.327 . S
C627 H613 0.931 . S
C627 C629 1.392 . S
C627 C630 1.370 . S
C628 C624 1.432 . S
C628 N626 1.359 . S
C628 C631 1.414 . S
C629 H611 0.930 . S
C629 N626 1.327 . S
C629 C627 1.392 . S
C630 H625 0.930 . S
C630 C627 1.370 . S
C630 C631 1.385 . S
C631 C628 1.414 . S
C631 C630 1.385 . S
C631 C653 1.444 . S
O632 Tb588 2.546 . S
O632 C652 1.251 . S
O633 Tb588 2.610 . S
O633 Tb599 2.362 . S
O633 C644 1.283 . S
O634 Tb599 2.421 . S
O634 C651 1.262 . S
O635 Tb588 2.320 . S
O635 C651 1.260 . S
O636 Tb588 2.552 . S
O636 C644 1.243 . S
O637 Tb588 2.413 . S
O637 C652 1.256 . S
O638 Tb599 2.546 . S
O638 C663 1.251 . S
O639 Tb588 2.362 . S
O639 Tb599 2.610 . S
O639 C655 1.283 . S
O640 Tb588 2.421 . S
O640 C662 1.262 . S
O641 Tb599 2.320 . S
O641 C662 1.260 . S
O642 Tb599 2.552 . S
O642 C655 1.243 . S
O643 Tb599 2.413 . S
O643 C663 1.256 . S
C644 O633 1.283 . S
C644 O636 1.243 . S
C645 C647 1.382 . S
C645 C649 1.393 . S
C645 C652 1.500 . S
C646 C647 1.400 . S
C646 C648 1.384 . S
C647 C645 1.382 . S
C647 C646 1.400 . S
C647 H664 0.930 . S
C648 C646 1.384 . S
C648 C650 1.392 . S
C648 H665 0.931 . S
C649 C645 1.393 . S
C649 C650 1.401 . S
C649 H666 0.930 . S
C650 C648 1.392 . S
C650 C649 1.401 . S
C650 H667 0.930 . S
C651 O634 1.262 . S
C651 O635 1.260 . S
C652 Tb588 2.833 . S
C652 O632 1.251 . S
C652 O637 1.256 . S
C652 C645 1.500 . S
C653 H618 0.929 . S
C653 C631 1.444 . S
C653 C654 1.317 . S
C654 H616 0.930 . S
C654 C622 1.432 . S
C654 C653 1.317 . S
C655 O639 1.283 . S
C655 O642 1.243 . S
C656 C657 1.382 . S
C656 C660 1.393 . S
C656 C663 1.500 . S
C657 C656 1.382 . S
C657 C658 1.400 . S
C657 H668 0.930 . S
C658 C657 1.400 . S
C658 C659 1.384 . S
C659 C658 1.384 . S
C659 C661 1.392 . S
C659 H669 0.931 . S
C660 C656 1.393 . S
C660 C661 1.401 . S
C660 H670 0.930 . S
C661 C659 1.392 . S
C661 C660 1.401 . S
C661 H671 0.930 . S
C662 O640 1.262 . S
C662 O641 1.260 . S
C663 Tb599 2.833 . S
C663 O638 1.251 . S
C663 O643 1.256 . S
C663 C656 1.500 . S
H664 C647 0.930 . S
H665 C648 0.931 . S
H666 C649 0.930 . S
H667 C650 0.930 . S
H668 C657 0.930 . S
H669 C659 0.931 . S
H670 C660 0.930 . S
H671 C661 0.930 . S
Fe672 O673 1.886 1_455 S
Fe672 O676 1.715 . S
Fe672 O681 2.077 1_455 S
Fe672 O686 1.935 . S
Fe672 O692 2.077 1_455 S
Fe672 O701 1.935 . S
O673 Fe672 1.886 1_655 S
O673 Fe675 1.715 1_545 S
Fe674 O676 1.886 . S
Fe674 O677 1.715 1_545 S
Fe674 O684 1.935 1_545 S
Fe674 O685 2.077 . S
Fe674 O691 1.935 1_545 S
Fe674 O700 2.077 . S
Fe675 O673 1.715 1_565 S
Fe675 O678 1.886 . S
Fe675 O682 1.935 1_565 S
Fe675 O687 2.077 . S
Fe675 O693 1.935 1_565 S
Fe675 O697 2.077 . S
O676 Fe672 1.715 . S
O676 Fe674 1.886 . S
O677 Fe674 1.715 1_565 S
O677 Fe679 1.886 1_455 S
O678 Fe675 1.886 . S
O678 Fe679 1.715 . S
Fe679 O677 1.886 1_655 S
Fe679 O678 1.715 . S
Fe679 O683 2.077 1_655 S
Fe679 O688 1.935 . S
Fe679 O690 2.077 1_655 S
Fe679 O698 1.935 . S
C680 O692 1.381 . S
C680 O693 1.421 . S
O681 Fe672 2.077 1_655 S
O681 C694 1.381 . S
O682 Fe675 1.935 1_545 S
O682 C694 1.421 . S
O683 Fe679 2.077 1_455 S
O683 C699 1.381 . S
O684 Fe674 1.935 1_565 S
O684 C699 1.421 . S
O685 Fe674 2.077 . S
O685 C689 1.381 . S
O686 Fe672 1.935 . S
O686 C689 1.421 . S
O687 Fe675 2.077 . S
O687 C695 1.381 . S
O688 Fe679 1.935 . S
O688 C695 1.421 . S
C689 O685 1.381 . S
C689 O686 1.421 . S
O690 Fe679 2.077 1_455 S
O690 C702 1.381 . S
O691 Fe674 1.935 1_565 S
O691 C702 1.421 . S
O692 Fe672 2.077 1_655 S
O692 C680 1.381 . S
O693 Fe675 1.935 1_545 S
O693 C680 1.421 . S
C694 O681 1.381 . S
C694 O682 1.421 . S
C695 O687 1.381 . S
C695 O688 1.421 . S
C696 O697 1.381 . S
C696 O698 1.421 . S
O697 Fe675 2.077 . S
O697 C696 1.381 . S
O698 Fe679 1.935 . S
O698 C696 1.421 . S
C699 O683 1.381 . S
C699 O684 1.421 . S
O700 Fe674 2.077 . S
O700 C703 1.381 . S
O701 Fe672 1.935 . S
O701 C703 1.421 . S
C702 O690 1.381 . S
C702 O691 1.421 . S
C703 O700 1.381 . S
C703 O701 1.421 . S
Fe704 O705 1.886 . S
Fe704 O708 1.714 . S
Fe704 O713 2.077 1_554 S
Fe704 O718 1.935 1_554 S
Fe704 O724 2.077 . S
Fe704 O733 1.935 . S
O705 Fe704 1.886 . S
O705 Fe707 1.715 1_565 S
Fe706 O708 1.887 1_556 S
Fe706 O709 1.715 1_565 S
Fe706 O716 1.935 1_565 S
Fe706 O717 2.077 . S
Fe706 O723 1.935 1_566 S
Fe706 O732 2.077 1_556 S
Fe707 O705 1.715 1_545 S
Fe707 O710 1.886 1_554 S
Fe707 O714 1.935 1_544 S
Fe707 O719 2.077 1_554 S
Fe707 O725 1.935 1_545 S
Fe707 O729 2.077 . S
O708 Fe704 1.714 . S
O708 Fe706 1.887 1_554 S
O709 Fe706 1.715 1_545 S
O709 Fe711 1.886 . S
O710 Fe707 1.886 1_556 S
O710 Fe711 1.714 . S
Fe711 O709 1.886 . S
Fe711 O710 1.714 . S
Fe711 O715 2.077 . S
Fe711 O720 1.935 . S
Fe711 O722 2.077 1_556 S
Fe711 O730 1.935 1_556 S
C712 O724 1.381 . S
C712 O725 1.421 . S
O713 Fe704 2.077 1_556 S
O713 C726 1.381 . S
O714 Fe707 1.935 1_566 S
O714 C726 1.421 . S
O715 Fe711 2.077 . S
O715 C731 1.381 . S
O716 Fe706 1.935 1_545 S
O716 C731 1.421 . S
O717 Fe706 2.077 . S
O717 C721 1.381 . S
O718 Fe704 1.935 1_556 S
O718 C721 1.421 . S
O719 Fe707 2.077 1_556 S
O719 C727 1.381 . S
O720 Fe711 1.935 . S
O720 C727 1.421 . S
C721 O717 1.381 . S
C721 O718 1.421 . S
O722 Fe711 2.077 1_554 S
O722 C734 1.381 . S
O723 Fe706 1.935 1_544 S
O723 C734 1.421 . S
O724 Fe704 2.077 . S
O724 C712 1.381 . S
O725 Fe707 1.935 1_565 S
O725 C712 1.421 . S
C726 O713 1.381 . S
C726 O714 1.421 . S
C727 O719 1.381 . S
C727 O720 1.421 . S
C728 O729 1.381 . S
C728 O730 1.421 . S
O729 Fe707 2.077 . S
O729 C728 1.381 . S
O730 Fe711 1.935 1_554 S
O730 C728 1.421 . S
C731 O715 1.381 . S
C731 O716 1.421 . S
O732 Fe706 2.077 1_554 S
O732 C735 1.381 . S
O733 Fe704 1.935 . S
O733 C735 1.421 . S
C734 O722 1.381 . S
C734 O723 1.421 . S
C735 O732 1.381 . S
C735 O733 1.421 . S
Fe736 O737 1.886 1_455 S
Fe736 O740 1.715 . S
Fe736 O745 2.077 1_455 S
Fe736 O750 1.935 . S
Fe736 O756 2.077 1_456 S
Fe736 O765 1.935 1_556 S
O737 Fe736 1.886 1_655 S
O737 Fe739 1.715 . S
Fe738 O740 1.886 1_554 S
Fe738 O741 1.715 . S
Fe738 O748 1.935 1_554 S
Fe738 O749 2.077 1_554 S
Fe738 O755 1.935 . S
Fe738 O764 2.077 . S
Fe739 O737 1.715 . S
Fe739 O742 1.887 1_556 S
Fe739 O746 1.935 . S
Fe739 O751 2.077 . S
Fe739 O757 1.935 1_556 S
Fe739 O761 2.077 1_556 S
O740 Fe736 1.715 . S
O740 Fe738 1.886 1_556 S
O741 Fe738 1.715 . S
O741 Fe743 1.886 1_455 S
O742 Fe739 1.887 1_554 S
O742 Fe743 1.714 . S
Fe743 O741 1.886 1_655 S
Fe743 O742 1.714 . S
Fe743 O747 2.077 1_654 S
Fe743 O752 1.935 1_554 S
Fe743 O754 2.077 1_655 S
Fe743 O762 1.935 . S
C744 O756 1.381 . S
C744 O757 1.421 . S
O745 Fe736 2.077 1_655 S
O745 C758 1.381 . S
O746 Fe739 1.935 . S
O746 C758 1.421 . S
O747 Fe743 2.077 1_456 S
O747 C763 1.381 . S
O748 Fe738 1.935 1_556 S
O748 C763 1.421 . S
O749 Fe738 2.077 1_556 S
O749 C753 1.381 . S
O750 Fe736 1.935 . S
O750 C753 1.421 . S
O751 Fe739 2.077 . S
O751 C759 1.381 . S
O752 Fe743 1.935 1_556 S
O752 C759 1.421 . S
C753 O749 1.381 . S
C753 O750 1.421 . S
O754 Fe743 2.077 1_455 S
O754 C766 1.381 . S
O755 Fe738 1.935 . S
O755 C766 1.421 . S
O756 Fe736 2.077 1_654 S
O756 C744 1.381 . S
O757 Fe739 1.935 1_554 S
O757 C744 1.421 . S
C758 O745 1.381 . S
C758 O746 1.421 . S
C759 O751 1.381 . S
C759 O752 1.421 . S
C760 O761 1.381 . S
C760 O762 1.421 . S
O761 Fe739 2.077 1_554 S
O761 C760 1.381 . S
O762 Fe743 1.935 . S
O762 C760 1.421 . S
C763 O747 1.381 . S
C763 O748 1.421 . S
O764 Fe738 2.077 . S
O764 C767 1.381 . S
O765 Fe736 1.935 1_554 S
O765 C767 1.421 . S
C766 O754 1.381 . S
C766 O755 1.421 . S
C767 O764 1.381 . S
C767 O765 1.421 . S
Fe768 O769 1.886 . S
Fe768 O772 1.715 . S
Fe768 O777 2.077 . S
Fe768 O782 1.935 . S
Fe768 O788 2.077 . S
Fe768 O797 1.935 . S
O769 Fe768 1.886 . S
O769 Fe771 1.715 1_556 S
Fe770 O772 1.886 . S
Fe770 O773 1.715 1_556 S
Fe770 O780 1.935 1_556 S
Fe770 O781 2.077 . S
Fe770 O787 1.935 1_556 S
Fe770 O796 2.077 . S
Fe771 O769 1.715 1_554 S
Fe771 O774 1.886 . S
Fe771 O778 1.935 1_554 S
Fe771 O783 2.077 . S
Fe771 O789 1.935 1_554 S
Fe771 O793 2.077 . S
O772 Fe768 1.715 . S
O772 Fe770 1.886 . S
O773 Fe770 1.715 1_554 S
O773 Fe775 1.886 . S
O774 Fe771 1.886 . S
O774 Fe775 1.715 . S
Fe775 O773 1.886 . S
Fe775 O774 1.715 . S
Fe775 O779 2.077 . S
Fe775 O784 1.935 . S
Fe775 O786 2.077 . S
Fe775 O794 1.935 . S
C776 O788 1.381 . S
C776 O789 1.421 . S
O777 Fe768 2.077 . S
O777 C790 1.381 . S
O778 Fe771 1.935 1_556 S
O778 C790 1.421 . S
O779 Fe775 2.077 . S
O779 C795 1.381 . S
O780 Fe770 1.935 1_554 S
O780 C795 1.421 . S
O781 Fe770 2.077 . S
O781 C785 1.381 . S
O782 Fe768 1.935 . S
O782 C785 1.421 . S
O783 Fe771 2.077 . S
O783 C791 1.381 . S
O784 Fe775 1.935 . S
O784 C791 1.421 . S
C785 O781 1.381 . S
C785 O782 1.421 . S
O786 Fe775 2.077 . S
O786 C798 1.381 . S
O787 Fe770 1.935 1_554 S
O787 C798 1.421 . S
O788 Fe768 2.077 . S
O788 C776 1.381 . S
O789 Fe771 1.935 1_556 S
O789 C776 1.421 . S
C790 O777 1.381 . S
C790 O778 1.421 . S
C791 O783 1.381 . S
C791 O784 1.421 . S
C792 O793 1.381 . S
C792 O794 1.421 . S
O793 Fe771 2.077 . S
O793 C792 1.381 . S
O794 Fe775 1.935 . S
O794 C792 1.421 . S
C795 O779 1.381 . S
C795 O780 1.421 . S
O796 Fe770 2.077 . S
O796 C799 1.381 . S
O797 Fe768 1.935 . S
O797 C799 1.421 . S
C798 O786 1.381 . S
C798 O787 1.421 . S
C799 O796 1.381 . S
C799 O797 1.421 . S
Fe800 O801 1.886 . S
Fe800 O804 1.715 . S
Fe800 O809 2.077 1_655 S
Fe800 O814 1.935 1_655 S
Fe800 O820 2.077 . S
Fe800 O829 1.935 . S
O801 Fe800 1.886 . S
O801 Fe803 1.715 1_655 S
Fe802 O804 1.886 . S
Fe802 O805 1.715 1_655 S
Fe802 O812 1.935 1_655 S
Fe802 O813 2.077 1_655 S
Fe802 O819 1.935 . S
Fe802 O828 2.077 . S
Fe803 O801 1.715 1_455 S
Fe803 O806 1.886 . S
Fe803 O810 1.935 . S
Fe803 O815 2.077 . S
Fe803 O821 1.935 1_455 S
Fe803 O825 2.077 1_455 S
O804 Fe800 1.715 . S
O804 Fe802 1.886 . S
O805 Fe802 1.715 1_455 S
O805 Fe807 1.886 . S
O806 Fe803 1.886 . S
O806 Fe807 1.715 . S
Fe807 O805 1.886 . S
Fe807 O806 1.715 . S
Fe807 O811 2.077 . S
Fe807 O816 1.935 . S
Fe807 O818 2.077 1_455 S
Fe807 O826 1.935 1_455 S
C808 O820 1.381 . S
C808 O821 1.421 . S
O809 Fe800 2.077 1_455 S
O809 C822 1.381 . S
O810 Fe803 1.935 . S
O810 C822 1.421 . S
O811 Fe807 2.077 . S
O811 C827 1.381 . S
O812 Fe802 1.935 1_455 S
O812 C827 1.421 . S
O813 Fe802 2.077 1_455 S
O813 C817 1.381 . S
O814 Fe800 1.935 1_455 S
O814 C817 1.421 . S
O815 Fe803 2.077 . S
O815 C823 1.381 . S
O816 Fe807 1.935 . S
O816 C823 1.421 . S
C817 O813 1.381 . S
C817 O814 1.421 . S
O818 Fe807 2.077 1_655 S
O818 C830 1.381 . S
O819 Fe802 1.935 . S
O819 C830 1.421 . S
O820 Fe800 2.077 . S
O820 C808 1.381 . S
O821 Fe803 1.935 1_655 S
O821 C808 1.421 . S
C822 O809 1.381 . S
C822 O810 1.421 . S
C823 O815 1.381 . S
C823 O816 1.421 . S
C824 O825 1.381 . S
C824 O826 1.421 . S
O825 Fe803 2.077 1_655 S
O825 C824 1.381 . S
O826 Fe807 1.935 1_655 S
O826 C824 1.421 . S
C827 O811 1.381 . S
C827 O812 1.421 . S
O828 Fe802 2.077 . S
O828 C831 1.381 . S
O829 Fe800 1.935 . S
O829 C831 1.421 . S
C830 O818 1.381 . S
C830 O819 1.421 . S
C831 O828 1.381 . S
C831 O829 1.421 . S
Fe832 O833 1.886 . S
Fe832 O836 1.715 . S
Fe832 O841 2.077 . S
Fe832 O846 1.935 . S
Fe832 O852 2.077 . S
Fe832 O861 1.935 . S
O833 Fe832 1.886 . S
O833 Fe835 1.715 . S
Fe834 O836 1.886 1_545 S
Fe834 O837 1.715 . S
Fe834 O844 1.935 . S
Fe834 O845 2.077 1_545 S
Fe834 O851 1.935 . S
Fe834 O860 2.077 1_545 S
Fe835 O833 1.715 . S
Fe835 O838 1.886 1_565 S
Fe835 O842 1.935 . S
Fe835 O847 2.077 1_565 S
Fe835 O853 1.935 . S
Fe835 O857 2.077 1_565 S
O836 Fe832 1.715 . S
O836 Fe834 1.886 1_565 S
O837 Fe834 1.715 . S
O837 Fe839 1.886 . S
O838 Fe835 1.886 1_545 S
O838 Fe839 1.715 . S
Fe839 O837 1.886 . S
Fe839 O838 1.715 . S
Fe839 O843 2.077 . S
Fe839 O848 1.935 . S
Fe839 O850 2.077 . S
Fe839 O858 1.935 . S
C840 O852 1.381 . S
C840 O853 1.421 . S
O841 Fe832 2.077 . S
O841 C854 1.381 . S
O842 Fe835 1.935 . S
O842 C854 1.421 . S
O843 Fe839 2.077 . S
O843 C859 1.381 . S
O844 Fe834 1.935 . S
O844 C859 1.421 . S
O845 Fe834 2.077 1_565 S
O845 C849 1.381 . S
O846 Fe832 1.935 . S
O846 C849 1.421 . S
O847 Fe835 2.077 1_545 S
O847 C855 1.381 . S
O848 Fe839 1.935 . S
O848 C855 1.421 . S
C849 O845 1.381 . S
C849 O846 1.421 . S
O850 Fe839 2.077 . S
O850 C862 1.381 . S
O851 Fe834 1.935 . S
O851 C862 1.421 . S
O852 Fe832 2.077 . S
O852 C840 1.381 . S
O853 Fe835 1.935 . S
O853 C840 1.421 . S
C854 O841 1.381 . S
C854 O842 1.421 . S
C855 O847 1.381 . S
C855 O848 1.421 . S
C856 O857 1.381 . S
C856 O858 1.421 . S
O857 Fe835 2.077 1_545 S
O857 C856 1.381 . S
O858 Fe839 1.935 . S
O858 C856 1.421 . S
C859 O843 1.381 . S
C859 O844 1.421 . S
O860 Fe834 2.077 1_565 S
O860 C863 1.381 . S
O861 Fe832 1.935 . S
O861 C863 1.421 . S
C862 O850 1.381 . S
C862 O851 1.421 . S
C863 O860 1.381 . S
C863 O861 1.421 . S
C864 C865 1.369 . S
C864 C866 1.419 . S
C864 H868 0.930 . S
C865 C864 1.369 . S
C865 C874 1.429 . S
C866 C864 1.419 . S
C866 C867 1.363 . S
C866 H869 0.929 . S
C867 C866 1.363 . S
C867 C873 1.428 . S
H868 C864 0.930 . S
H869 C866 0.929 . S
S870 N871 1.613 . S
S870 N872 1.610 . S
N871 S870 1.613 . S
N871 C874 1.350 . S
N872 S870 1.610 . S
N872 C873 1.351 . S
C873 C867 1.428 . S
C873 N872 1.351 . S
C873 C874 1.434 . S
C874 C865 1.429 . S
C874 N871 1.350 . S
C874 C873 1.434 . S
C875 C876 1.369 . S
C875 C877 1.419 . S
C875 H879 0.930 . S
C876 C875 1.369 . S
C876 C885 1.429 . S
C877 C875 1.419 . S
C877 C878 1.363 . S
C877 H880 0.929 . S
C878 C877 1.363 . S
C878 C884 1.428 . S
H879 C875 0.930 . S
H880 C877 0.929 . S
S881 N882 1.613 . S
S881 N883 1.610 . S
N882 S881 1.613 . S
N882 C885 1.350 . S
N883 S881 1.610 . S
N883 C884 1.351 . S
C884 C878 1.428 . S
C884 N883 1.351 . S
C884 C885 1.434 . S
C885 C876 1.429 . S
C885 N882 1.350 . S
C885 C884 1.434 . S
C886 C887 1.369 . S
C886 C888 1.419 . S
C886 H890 0.930 . S
C887 C886 1.369 . S
C887 C896 1.429 . S
C888 C886 1.419 . S
C888 C889 1.363 . S
C888 H891 0.929 . S
C889 C888 1.363 . S
C889 C895 1.428 . S
H890 C886 0.930 . S
H891 C888 0.929 . S
S892 N893 1.613 . S
S892 N894 1.610 . S
N893 S892 1.613 . S
N893 C896 1.350 . S
N894 S892 1.610 . S
N894 C895 1.351 . S
C895 C889 1.428 . S
C895 N894 1.351 . S
C895 C896 1.434 . S
C896 C887 1.429 . S
C896 N893 1.350 . S
C896 C895 1.434 . S
C897 C898 1.369 . S
C897 C899 1.419 . S
C897 H901 0.930 . S
C898 C897 1.369 . S
C898 C907 1.429 . S
C899 C897 1.419 . S
C899 C900 1.363 . S
C899 H902 0.929 . S
C900 C899 1.363 . S
C900 C906 1.428 . S
H901 C897 0.930 . S
H902 C899 0.929 . S
S903 N904 1.613 . S
S903 N905 1.610 . S
N904 S903 1.613 . S
N904 C907 1.350 . S
N905 S903 1.610 . S
N905 C906 1.351 . S
C906 C900 1.428 . S
C906 N905 1.351 . S
C906 C907 1.434 . S
C907 C898 1.429 . S
C907 N904 1.350 . S
C907 C906 1.434 . S
C908 C909 1.369 . S
C908 C910 1.419 . S
C908 H912 0.930 . S
C909 C908 1.369 . S
C909 C918 1.429 . S
C910 C908 1.419 . S
C910 C911 1.363 . S
C910 H913 0.929 . S
C911 C910 1.363 . S
C911 C917 1.428 . S
H912 C908 0.930 . S
H913 C910 0.929 . S
S914 N915 1.613 . S
S914 N916 1.610 . S
N915 S914 1.613 . S
N915 C918 1.350 . S
N916 S914 1.610 . S
N916 C917 1.351 . S
C917 C911 1.428 . S
C917 N916 1.351 . S
C917 C918 1.434 . S
C918 C909 1.429 . S
C918 N915 1.350 . S
C918 C917 1.434 . S
C919 C920 1.369 . S
C919 C921 1.419 . S
C919 H923 0.930 . S
C920 C919 1.369 . S
C920 C929 1.429 . S
C921 C919 1.419 . S
C921 C922 1.363 . S
C921 H924 0.929 . S
C922 C921 1.363 . S
C922 C928 1.428 . S
H923 C919 0.930 . S
H924 C921 0.929 . S
S925 N926 1.613 . S
S925 N927 1.610 . S
N926 S925 1.613 . S
N926 C929 1.350 . S
N927 S925 1.610 . S
N927 C928 1.351 . S
C928 C922 1.428 . S
C928 N927 1.351 . S
C928 C929 1.434 . S
C929 C920 1.429 . S
C929 N926 1.350 . S
C929 C928 1.434 . S
C930 C931 1.369 . S
C930 C932 1.419 . S
C930 H934 0.930 . S
C931 C930 1.369 . S
C931 C940 1.429 . S
C932 C930 1.419 . S
C932 C933 1.363 . S
C932 H935 0.929 . S
C933 C932 1.363 . S
C933 C939 1.428 . S
H934 C930 0.930 . S
H935 C932 0.929 . S
S936 N937 1.613 1_455 S
S936 N938 1.610 . S
N937 S936 1.613 1_655 S
N937 C940 1.350 . S
N938 S936 1.610 . S
N938 C939 1.351 1_455 S
C939 C933 1.428 . S
C939 N938 1.351 1_655 S
C939 C940 1.434 . S
C940 C931 1.429 . S
C940 N937 1.350 . S
C940 C939 1.434 . S
C941 C942 1.369 . S
C941 C943 1.419 . S
C941 H945 0.930 . S
C942 C941 1.369 . S
C942 C951 1.429 . S
C943 C941 1.419 . S
C943 C944 1.363 . S
C943 H946 0.929 . S
C944 C943 1.363 . S
C944 C950 1.428 . S
H945 C941 0.930 . S
H946 C943 0.929 . S
S947 N948 1.613 . S
S947 N949 1.610 . S
N948 S947 1.613 . S
N948 C951 1.350 . S
N949 S947 1.610 . S
N949 C950 1.351 . S
C950 C944 1.428 . S
C950 N949 1.351 . S
C950 C951 1.434 . S
C951 C942 1.429 . S
C951 N948 1.350 . S
C951 C950 1.434 . S
C952 C953 1.369 . S
C952 C954 1.419 . S
C952 H956 0.930 . S
C953 C952 1.369 . S
C953 C962 1.429 . S
C954 C952 1.419 . S
C954 C955 1.363 . S
C954 H957 0.929 . S
C955 C954 1.363 . S
C955 C961 1.428 . S
H956 C952 0.930 . S
H957 C954 0.929 . S
S958 N959 1.613 . S
S958 N960 1.610 . S
N959 S958 1.613 . S
N959 C962 1.350 . S
N960 S958 1.610 . S
N960 C961 1.351 . S
C961 C955 1.428 . S
C961 N960 1.351 . S
C961 C962 1.434 . S
C962 C953 1.429 . S
C962 N959 1.350 . S
C962 C961 1.434 . S
C963 C964 1.369 . S
C963 C965 1.419 . S
C963 H967 0.930 . S
C964 C963 1.369 . S
C964 C973 1.429 . S
C965 C963 1.419 . S
C965 C966 1.363 . S
C965 H968 0.929 . S
C966 C965 1.363 . S
C966 C972 1.428 . S
H967 C963 0.930 . S
H968 C965 0.929 . S
S969 N970 1.613 . S
S969 N971 1.610 . S
N970 S969 1.613 . S
N970 C973 1.350 . S
N971 S969 1.610 . S
N971 C972 1.351 . S
C972 C966 1.428 . S
C972 N971 1.351 . S
C972 C973 1.434 . S
C973 C964 1.429 . S
C973 N970 1.350 . S
C973 C972 1.434 . S
C974 C975 1.369 . S
C974 C976 1.419 . S
C974 H978 0.930 . S
C975 C974 1.369 . S
C975 C984 1.429 . S
C976 C974 1.419 . S
C976 C977 1.363 . S
C976 H979 0.929 . S
C977 C976 1.363 . S
C977 C983 1.428 . S
H978 C974 0.930 . S
H979 C976 0.929 . S
S980 N981 1.613 . S
S980 N982 1.610 . S
N981 S980 1.613 . S
N981 C984 1.350 . S
N982 S980 1.610 . S
N982 C983 1.351 . S
C983 C977 1.428 . S
C983 N982 1.351 . S
C983 C984 1.434 . S
C984 C975 1.429 . S
C984 N981 1.350 . S
C984 C983 1.434 . S
C985 C986 1.369 . S
C985 C987 1.419 . S
C985 H989 0.930 . S
C986 C985 1.369 . S
C986 C995 1.429 . S
C987 C985 1.419 . S
C987 C988 1.363 . S
C987 H990 0.929 . S
C988 C987 1.363 . S
C988 C994 1.428 . S
H989 C985 0.930 . S
H990 C987 0.929 . S
S991 N992 1.613 . S
S991 N993 1.610 . S
N992 S991 1.613 . S
N992 C995 1.350 . S
N993 S991 1.610 . S
N993 C994 1.351 . S
C994 C988 1.428 . S
C994 N993 1.351 . S
C994 C995 1.434 . S
C995 C986 1.429 . S
C995 N992 1.350 . S
C995 C994 1.434 . S
C996 C997 1.369 . S
C996 C998 1.419 . S
C996 H1000 0.930 . S
C997 C996 1.369 . S
C997 C1006 1.429 . S
C998 C996 1.419 . S
C998 C999 1.363 . S
C998 H1001 0.929 . S
C999 C998 1.363 . S
C999 C1005 1.428 . S
H1000 C996 0.930 . S
H1001 C998 0.929 . S
S1002 N1003 1.613 . S
S1002 N1004 1.610 . S
N1003 S1002 1.613 . S
N1003 C1006 1.350 . S
N1004 S1002 1.610 . S
N1004 C1005 1.351 . S
C1005 C999 1.428 . S
C1005 N1004 1.351 . S
C1005 C1006 1.434 . S
C1006 C997 1.429 . S
C1006 N1003 1.350 . S
C1006 C1005 1.434 . S
C1007 C1008 1.369 . S
C1007 C1009 1.419 . S
C1007 H1011 0.930 . S
C1008 C1007 1.369 . S
C1008 C1017 1.429 . S
C1009 C1007 1.419 . S
C1009 C1010 1.363 . S
C1009 H1012 0.929 . S
C1010 C1009 1.363 . S
C1010 C1016 1.428 . S
H1011 C1007 0.930 . S
H1012 C1009 0.929 . S
S1013 N1014 1.613 . S
S1013 N1015 1.610 . S
N1014 S1013 1.613 . S
N1014 C1017 1.350 . S
N1015 S1013 1.610 . S
N1015 C1016 1.351 . S
C1016 C1010 1.428 . S
C1016 N1015 1.351 . S
C1016 C1017 1.434 . S
C1017 C1008 1.429 . S
C1017 N1014 1.350 . S
C1017 C1016 1.434 . S
C1018 C1019 1.369 . S
C1018 C1020 1.419 . S
C1018 H1022 0.930 . S
C1019 C1018 1.369 . S
C1019 C1028 1.429 . S
C1020 C1018 1.419 . S
C1020 C1021 1.363 . S
C1020 H1023 0.929 . S
C1021 C1020 1.363 . S
C1021 C1027 1.428 . S
H1022 C1018 0.930 . S
H1023 C1020 0.929 . S
S1024 N1025 1.613 . S
S1024 N1026 1.610 . S
N1025 S1024 1.613 . S
N1025 C1028 1.350 . S
N1026 S1024 1.610 . S
N1026 C1027 1.351 . S
C1027 C1021 1.428 . S
C1027 N1026 1.351 . S
C1027 C1028 1.434 . S
C1028 C1019 1.429 . S
C1028 N1025 1.350 . S
C1028 C1027 1.434 . S
C1029 C1030 1.369 . S
C1029 C1031 1.419 . S
C1029 H1033 0.930 . S
C1030 C1029 1.369 . S
C1030 C1039 1.429 . S
C1031 C1029 1.419 . S
C1031 C1032 1.363 . S
C1031 H1034 0.929 . S
C1032 C1031 1.363 . S
C1032 C1038 1.428 . S
H1033 C1029 0.930 . S
H1034 C1031 0.929 . S
S1035 N1036 1.613 . S
S1035 N1037 1.610 . S
N1036 S1035 1.613 . S
N1036 C1039 1.350 . S
N1037 S1035 1.610 . S
N1037 C1038 1.351 . S
C1038 C1032 1.428 . S
C1038 N1037 1.351 . S
C1038 C1039 1.434 . S
C1039 C1030 1.429 . S
C1039 N1036 1.350 . S
C1039 C1038 1.434 . S
C1040 C1041 1.369 . S
C1040 C1042 1.419 . S
C1040 H1044 0.930 . S
C1041 C1040 1.369 . S
C1041 C1050 1.429 . S
C1042 C1040 1.419 . S
C1042 C1043 1.363 . S
C1042 H1045 0.929 . S
C1043 C1042 1.363 . S
C1043 C1049 1.428 . S
H1044 C1040 0.930 . S
H1045 C1042 0.929 . S
S1046 N1047 1.613 . S
S1046 N1048 1.610 . S
N1047 S1046 1.613 . S
N1047 C1050 1.350 . S
N1048 S1046 1.610 . S
N1048 C1049 1.351 . S
C1049 C1043 1.428 . S
C1049 N1048 1.351 . S
C1049 C1050 1.434 . S
C1050 C1041 1.429 . S
C1050 N1047 1.350 . S
C1050 C1049 1.434 . S
C1051 C1052 1.369 . S
C1051 C1053 1.419 . S
C1051 H1055 0.930 . S
C1052 C1051 1.369 . S
C1052 C1061 1.429 . S
C1053 C1051 1.419 . S
C1053 C1054 1.363 . S
C1053 H1056 0.929 . S
C1054 C1053 1.363 . S
C1054 C1060 1.428 . S
H1055 C1051 0.930 . S
H1056 C1053 0.929 . S
S1057 N1058 1.613 . S
S1057 N1059 1.610 . S
N1058 S1057 1.613 . S
N1058 C1061 1.350 . S
N1059 S1057 1.610 . S
N1059 C1060 1.351 . S
C1060 C1054 1.428 . S
C1060 N1059 1.351 . S
C1060 C1061 1.434 . S
C1061 C1052 1.429 . S
C1061 N1058 1.350 . S
C1061 C1060 1.434 . S
C1062 C1063 1.369 . S
C1062 C1064 1.419 . S
C1062 H1066 0.930 . S
C1063 C1062 1.369 . S
C1063 C1072 1.429 . S
C1064 C1062 1.419 . S
C1064 C1065 1.363 . S
C1064 H1067 0.929 . S
C1065 C1064 1.363 . S
C1065 C1071 1.428 . S
H1066 C1062 0.930 . S
H1067 C1064 0.929 . S
S1068 N1069 1.613 . S
S1068 N1070 1.610 . S
N1069 S1068 1.613 . S
N1069 C1072 1.350 . S
N1070 S1068 1.610 . S
N1070 C1071 1.351 . S
C1071 C1065 1.428 . S
C1071 N1070 1.351 . S
C1071 C1072 1.434 . S
C1072 C1063 1.429 . S
C1072 N1069 1.350 . S
C1072 C1071 1.434 . S
C1073 C1074 1.369 . S
C1073 C1075 1.419 . S
C1073 H1077 0.930 . S
C1074 C1073 1.369 . S
C1074 C1083 1.429 . S
C1075 C1073 1.419 . S
C1075 C1076 1.363 . S
C1075 H1078 0.929 . S
C1076 C1075 1.363 . S
C1076 C1082 1.428 . S
H1077 C1073 0.930 . S
H1078 C1075 0.929 . S
S1079 N1080 1.613 . S
S1079 N1081 1.610 . S
N1080 S1079 1.613 . S
N1080 C1083 1.350 . S
N1081 S1079 1.610 . S
N1081 C1082 1.351 . S
C1082 C1076 1.428 . S
C1082 N1081 1.351 . S
C1082 C1083 1.434 . S
C1083 C1074 1.429 . S
C1083 N1080 1.350 . S
C1083 C1082 1.434 . S
C1084 C1085 1.369 . S
C1084 C1086 1.419 . S
C1084 H1088 0.930 . S
C1085 C1084 1.369 . S
C1085 C1094 1.429 . S
C1086 C1084 1.419 . S
C1086 C1087 1.363 . S
C1086 H1089 0.929 . S
C1087 C1086 1.363 . S
C1087 C1093 1.428 . S
H1088 C1084 0.930 . S
H1089 C1086 0.929 . S
S1090 N1091 1.613 1_545 S
S1090 N1092 1.610 . S
N1091 S1090 1.613 1_565 S
N1091 C1094 1.350 . S
N1092 S1090 1.610 . S
N1092 C1093 1.351 1_545 S
C1093 C1087 1.428 . S
C1093 N1092 1.351 1_565 S
C1093 C1094 1.434 . S
C1094 C1085 1.429 . S
C1094 N1091 1.350 . S
C1094 C1093 1.434 . S
C1095 C1096 1.369 . S
C1095 C1097 1.419 . S
C1095 H1099 0.930 . S
C1096 C1095 1.369 . S
C1096 C1105 1.429 . S
C1097 C1095 1.419 . S
C1097 C1098 1.363 . S
C1097 H1100 0.929 . S
C1098 C1097 1.363 . S
C1098 C1104 1.428 . S
H1099 C1095 0.930 . S
H1100 C1097 0.929 . S
S1101 N1102 1.613 . S
S1101 N1103 1.610 . S
N1102 S1101 1.613 . S
N1102 C1105 1.350 . S
N1103 S1101 1.610 . S
N1103 C1104 1.351 . S
C1104 C1098 1.428 . S
C1104 N1103 1.351 . S
C1104 C1105 1.434 . S
C1105 C1096 1.429 . S
C1105 N1102 1.350 . S
C1105 C1104 1.434 . S
C1106 C1107 1.369 . S
C1106 C1108 1.419 . S
C1106 H1110 0.930 . S
C1107 C1106 1.369 . S
C1107 C1116 1.429 . S
C1108 C1106 1.419 . S
C1108 C1109 1.363 . S
C1108 H1111 0.929 . S
C1109 C1108 1.363 . S
C1109 C1115 1.428 . S
H1110 C1106 0.930 . S
H1111 C1108 0.929 . S
S1112 N1113 1.613 . S
S1112 N1114 1.610 . S
N1113 S1112 1.613 . S
N1113 C1116 1.350 . S
N1114 S1112 1.610 . S
N1114 C1115 1.351 . S
C1115 C1109 1.428 . S
C1115 N1114 1.351 . S
C1115 C1116 1.434 . S
C1116 C1107 1.429 . S
C1116 N1113 1.350 . S
C1116 C1115 1.434 . S
C1117 C1118 1.369 . S
C1117 C1119 1.419 . S
C1117 H1121 0.930 . S
C1118 C1117 1.369 . S
C1118 C1127 1.429 . S
C1119 C1117 1.419 . S
C1119 C1120 1.363 . S
C1119 H1122 0.929 . S
C1120 C1119 1.363 . S
C1120 C1126 1.428 . S
H1121 C1117 0.930 . S
H1122 C1119 0.929 . S
S1123 N1124 1.613 . S
S1123 N1125 1.610 . S
N1124 S1123 1.613 . S
N1124 C1127 1.350 . S
N1125 S1123 1.610 . S
N1125 C1126 1.351 . S
C1126 C1120 1.428 . S
C1126 N1125 1.351 . S
C1126 C1127 1.434 . S
C1127 C1118 1.429 . S
C1127 N1124 1.350 . S
C1127 C1126 1.434 . S
C1128 C1129 1.369 . S
C1128 C1130 1.419 . S
C1128 H1132 0.930 . S
C1129 C1128 1.369 . S
C1129 C1138 1.429 . S
C1130 C1128 1.419 . S
C1130 C1131 1.363 . S
C1130 H1133 0.929 . S
C1131 C1130 1.363 . S
C1131 C1137 1.428 . S
H1132 C1128 0.930 . S
H1133 C1130 0.929 . S
S1134 N1135 1.613 . S
S1134 N1136 1.610 . S
N1135 S1134 1.613 . S
N1135 C1138 1.350 . S
N1136 S1134 1.610 . S
N1136 C1137 1.351 . S
C1137 C1131 1.428 . S
C1137 N1136 1.351 . S
C1137 C1138 1.434 . S
C1138 C1129 1.429 . S
C1138 N1135 1.350 . S
C1138 C1137 1.434 . S
C1139 C1140 1.369 . S
C1139 C1141 1.419 . S
C1139 H1143 0.930 . S
C1140 C1139 1.369 . S
C1140 C1149 1.429 . S
C1141 C1139 1.419 . S
C1141 C1142 1.363 . S
C1141 H1144 0.929 . S
C1142 C1141 1.363 . S
C1142 C1148 1.428 . S
H1143 C1139 0.930 . S
H1144 C1141 0.929 . S
S1145 N1146 1.613 . S
S1145 N1147 1.610 . S
N1146 S1145 1.613 . S
N1146 C1149 1.350 . S
N1147 S1145 1.610 . S
N1147 C1148 1.351 . S
C1148 C1142 1.428 . S
C1148 N1147 1.351 . S
C1148 C1149 1.434 . S
C1149 C1140 1.429 . S
C1149 N1146 1.350 . S
C1149 C1148 1.434 . S
C1150 C1151 1.369 . S
C1150 C1152 1.419 . S
C1150 H1154 0.930 . S
C1151 C1150 1.369 . S
C1151 C1160 1.429 . S
C1152 C1150 1.419 . S
C1152 C1153 1.363 . S
C1152 H1155 0.929 . S
C1153 C1152 1.363 . S
C1153 C1159 1.428 . S
H1154 C1150 0.930 . S
H1155 C1152 0.929 . S
S1156 N1157 1.613 . S
S1156 N1158 1.610 . S
N1157 S1156 1.613 . S
N1157 C1160 1.350 . S
N1158 S1156 1.610 . S
N1158 C1159 1.351 . S
C1159 C1153 1.428 . S
C1159 N1158 1.351 . S
C1159 C1160 1.434 . S
C1160 C1151 1.429 . S
C1160 N1157 1.350 . S
C1160 C1159 1.434 . S
C1161 C1162 1.369 . S
C1161 C1163 1.419 . S
C1161 H1165 0.930 . S
C1162 C1161 1.369 . S
C1162 C1171 1.429 . S
C1163 C1161 1.419 . S
C1163 C1164 1.363 . S
C1163 H1166 0.929 . S
C1164 C1163 1.363 . S
C1164 C1170 1.428 . S
H1165 C1161 0.930 . S
H1166 C1163 0.929 . S
S1167 N1168 1.613 . S
S1167 N1169 1.610 . S
N1168 S1167 1.613 . S
N1168 C1171 1.350 . S
N1169 S1167 1.610 . S
N1169 C1170 1.351 . S
C1170 C1164 1.428 . S
C1170 N1169 1.351 . S
C1170 C1171 1.434 . S
C1171 C1162 1.429 . S
C1171 N1168 1.350 . S
C1171 C1170 1.434 . S
C1172 C1173 1.369 . S
C1172 C1174 1.419 . S
C1172 H1176 0.930 . S
C1173 C1172 1.369 . S
C1173 C1182 1.429 . S
C1174 C1172 1.419 . S
C1174 C1175 1.363 . S
C1174 H1177 0.929 . S
C1175 C1174 1.363 . S
C1175 C1181 1.428 . S
H1176 C1172 0.930 . S
H1177 C1174 0.929 . S
S1178 N1179 1.613 . S
S1178 N1180 1.610 . S
N1179 S1178 1.613 . S
N1179 C1182 1.350 . S
N1180 S1178 1.610 . S
N1180 C1181 1.351 . S
C1181 C1175 1.428 . S
C1181 N1180 1.351 . S
C1181 C1182 1.434 . S
C1182 C1173 1.429 . S
C1182 N1179 1.350 . S
C1182 C1181 1.434 . S
C1183 C1184 1.369 . S
C1183 C1185 1.419 . S
C1183 H1187 0.930 . S
C1184 C1183 1.369 . S
C1184 C1193 1.429 . S
C1185 C1183 1.419 . S
C1185 C1186 1.363 . S
C1185 H1188 0.929 . S
C1186 C1185 1.363 . S
C1186 C1192 1.428 . S
H1187 C1183 0.930 . S
H1188 C1185 0.929 . S
S1189 N1190 1.613 . S
S1189 N1191 1.610 . S
N1190 S1189 1.613 . S
N1190 C1193 1.350 . S
N1191 S1189 1.610 . S
N1191 C1192 1.351 . S
C1192 C1186 1.428 . S
C1192 N1191 1.351 . S
C1192 C1193 1.434 . S
C1193 C1184 1.429 . S
C1193 N1190 1.350 . S
C1193 C1192 1.434 . S
C1194 C1195 1.369 . S
C1194 C1196 1.419 . S
C1194 H1198 0.930 . S
C1195 C1194 1.369 . S
C1195 C1204 1.429 . S
C1196 C1194 1.419 . S
C1196 C1197 1.363 . S
C1196 H1199 0.929 . S
C1197 C1196 1.363 . S
C1197 C1203 1.428 . S
H1198 C1194 0.930 . S
H1199 C1196 0.929 . S
S1200 N1201 1.613 . S
S1200 N1202 1.610 . S
N1201 S1200 1.613 . S
N1201 C1204 1.350 . S
N1202 S1200 1.610 . S
N1202 C1203 1.351 . S
C1203 C1197 1.428 . S
C1203 N1202 1.351 . S
C1203 C1204 1.434 . S
C1204 C1195 1.429 . S
C1204 N1201 1.350 . S
C1204 C1203 1.434 . S
C1205 C1206 1.369 . S
C1205 C1207 1.419 . S
C1205 H1209 0.930 . S
C1206 C1205 1.369 . S
C1206 C1215 1.429 . S
C1207 C1205 1.419 . S
C1207 C1208 1.363 . S
C1207 H1210 0.929 . S
C1208 C1207 1.363 . S
C1208 C1214 1.428 . S
H1209 C1205 0.930 . S
H1210 C1207 0.929 . S
S1211 N1212 1.613 . S
S1211 N1213 1.610 . S
N1212 S1211 1.613 . S
N1212 C1215 1.350 . S
N1213 S1211 1.610 . S
N1213 C1214 1.351 . S
C1214 C1208 1.428 . S
C1214 N1213 1.351 . S
C1214 C1215 1.434 . S
C1215 C1206 1.429 . S
C1215 N1212 1.350 . S
C1215 C1214 1.434 . S
C1216 C1217 1.369 . S
C1216 C1218 1.419 . S
C1216 H1220 0.930 . S
C1217 C1216 1.369 . S
C1217 C1226 1.429 . S
C1218 C1216 1.419 . S
C1218 C1219 1.363 . S
C1218 H1221 0.929 . S
C1219 C1218 1.363 . S
C1219 C1225 1.428 . S
H1220 C1216 0.930 . S
H1221 C1218 0.929 . S
S1222 N1223 1.613 . S
S1222 N1224 1.610 . S
N1223 S1222 1.613 . S
N1223 C1226 1.350 . S
N1224 S1222 1.610 . S
N1224 C1225 1.351 . S
C1225 C1219 1.428 . S
C1225 N1224 1.351 . S
C1225 C1226 1.434 . S
C1226 C1217 1.429 . S
C1226 N1223 1.350 . S
C1226 C1225 1.434 . S
C1227 C1228 1.369 . S
C1227 C1229 1.419 . S
C1227 H1231 0.930 . S
C1228 C1227 1.369 . S
C1228 C1237 1.429 . S
C1229 C1227 1.419 . S
C1229 C1230 1.363 . S
C1229 H1232 0.929 . S
C1230 C1229 1.363 . S
C1230 C1236 1.428 . S
H1231 C1227 0.930 . S
H1232 C1229 0.929 . S
S1233 N1234 1.613 . S
S1233 N1235 1.610 . S
N1234 S1233 1.613 . S
N1234 C1237 1.350 . S
N1235 S1233 1.610 . S
N1235 C1236 1.351 . S
C1236 C1230 1.428 . S
C1236 N1235 1.351 . S
C1236 C1237 1.434 . S
C1237 C1228 1.429 . S
C1237 N1234 1.350 . S
C1237 C1236 1.434 . S
C1238 C1239 1.369 . S
C1238 C1240 1.419 . S
C1238 H1242 0.930 . S
C1239 C1238 1.369 . S
C1239 C1248 1.429 . S
C1240 C1238 1.419 . S
C1240 C1241 1.363 . S
C1240 H1243 0.929 . S
C1241 C1240 1.363 . S
C1241 C1247 1.428 . S
H1242 C1238 0.930 . S
H1243 C1240 0.929 . S
S1244 N1245 1.613 . S
S1244 N1246 1.610 . S
N1245 S1244 1.613 . S
N1245 C1248 1.350 . S
N1246 S1244 1.610 . S
N1246 C1247 1.351 . S
C1247 C1241 1.428 . S
C1247 N1246 1.351 . S
C1247 C1248 1.434 . S
C1248 C1239 1.429 . S
C1248 N1245 1.350 . S
C1248 C1247 1.434 . S
C1249 C1250 1.369 . S
C1249 C1251 1.419 . S
C1249 H1253 0.930 . S
C1250 C1249 1.369 . S
C1250 C1259 1.429 . S
C1251 C1249 1.419 . S
C1251 C1252 1.363 . S
C1251 H1254 0.929 . S
C1252 C1251 1.363 . S
C1252 C1258 1.428 . S
H1253 C1249 0.930 . S
H1254 C1251 0.929 . S
S1255 N1256 1.613 . S
S1255 N1257 1.610 . S
N1256 S1255 1.613 . S
N1256 C1259 1.350 . S
N1257 S1255 1.610 . S
N1257 C1258 1.351 . S
C1258 C1252 1.428 . S
C1258 N1257 1.351 . S
C1258 C1259 1.434 . S
C1259 C1250 1.429 . S
C1259 N1256 1.350 . S
C1259 C1258 1.434 . S
C1260 C1261 1.369 . S
C1260 C1262 1.419 . S
C1260 H1264 0.930 . S
C1261 C1260 1.369 . S
C1261 C1270 1.429 . S
C1262 C1260 1.419 . S
C1262 C1263 1.363 . S
C1262 H1265 0.929 . S
C1263 C1262 1.363 . S
C1263 C1269 1.428 . S
H1264 C1260 0.930 . S
H1265 C1262 0.929 . S
S1266 N1267 1.613 . S
S1266 N1268 1.610 . S
N1267 S1266 1.613 . S
N1267 C1270 1.350 . S
N1268 S1266 1.610 . S
N1268 C1269 1.351 . S
C1269 C1263 1.428 . S
C1269 N1268 1.351 . S
C1269 C1270 1.434 . S
C1270 C1261 1.429 . S
C1270 N1267 1.350 . S
C1270 C1269 1.434 . S
C1271 C1272 1.369 . S
C1271 C1273 1.419 . S
C1271 H1275 0.930 . S
C1272 C1271 1.369 . S
C1272 C1281 1.429 . S
C1273 C1271 1.419 . S
C1273 C1274 1.363 . S
C1273 H1276 0.929 . S
C1274 C1273 1.363 . S
C1274 C1280 1.428 . S
H1275 C1271 0.930 . S
H1276 C1273 0.929 . S
S1277 N1278 1.613 . S
S1277 N1279 1.610 . S
N1278 S1277 1.613 . S
N1278 C1281 1.350 . S
N1279 S1277 1.610 . S
N1279 C1280 1.351 . S
C1280 C1274 1.428 . S
C1280 N1279 1.351 . S
C1280 C1281 1.434 . S
C1281 C1272 1.429 . S
C1281 N1278 1.350 . S
C1281 C1280 1.434 . S
C1282 C1283 1.369 . S
C1282 C1284 1.419 . S
C1282 H1286 0.930 . S
C1283 C1282 1.369 . S
C1283 C1292 1.429 . S
C1284 C1282 1.419 . S
C1284 C1285 1.363 . S
C1284 H1287 0.929 . S
C1285 C1284 1.363 . S
C1285 C1291 1.428 . S
H1286 C1282 0.930 . S
H1287 C1284 0.929 . S
S1288 N1289 1.613 . S
S1288 N1290 1.610 . S
N1289 S1288 1.613 . S
N1289 C1292 1.350 . S
N1290 S1288 1.610 . S
N1290 C1291 1.351 . S
C1291 C1285 1.428 . S
C1291 N1290 1.351 . S
C1291 C1292 1.434 . S
C1292 C1283 1.429 . S
C1292 N1289 1.350 . S
C1292 C1291 1.434 . S
C1293 C1294 1.369 . S
C1293 C1295 1.419 . S
C1293 H1297 0.930 . S
C1294 C1293 1.369 . S
C1294 C1303 1.429 . S
C1295 C1293 1.419 . S
C1295 C1296 1.363 . S
C1295 H1298 0.929 . S
C1296 C1295 1.363 . S
C1296 C1302 1.428 . S
H1297 C1293 0.930 . S
H1298 C1295 0.929 . S
S1299 N1300 1.613 . S
S1299 N1301 1.610 . S
N1300 S1299 1.613 . S
N1300 C1303 1.350 . S
N1301 S1299 1.610 . S
N1301 C1302 1.351 . S
C1302 C1296 1.428 . S
C1302 N1301 1.351 . S
C1302 C1303 1.434 . S
C1303 C1294 1.429 . S
C1303 N1300 1.350 . S
C1303 C1302 1.434 . S
C1304 C1305 1.369 . S
C1304 C1306 1.419 . S
C1304 H1308 0.930 . S
C1305 C1304 1.369 . S
C1305 C1314 1.429 . S
C1306 C1304 1.419 . S
C1306 C1307 1.363 . S
C1306 H1309 0.929 . S
C1307 C1306 1.363 . S
C1307 C1313 1.428 . S
H1308 C1304 0.930 . S
H1309 C1306 0.929 . S
S1310 N1311 1.613 . S
S1310 N1312 1.610 . S
N1311 S1310 1.613 . S
N1311 C1314 1.350 . S
N1312 S1310 1.610 . S
N1312 C1313 1.351 . S
C1313 C1307 1.428 . S
C1313 N1312 1.351 . S
C1313 C1314 1.434 . S
C1314 C1305 1.429 . S
C1314 N1311 1.350 . S
C1314 C1313 1.434 . S
C1315 C1316 1.369 . S
C1315 C1317 1.419 . S
C1315 H1319 0.930 . S
C1316 C1315 1.369 . S
C1316 C1325 1.429 . S
C1317 C1315 1.419 . S
C1317 C1318 1.363 . S
C1317 H1320 0.929 . S
C1318 C1317 1.363 . S
C1318 C1324 1.428 . S
H1319 C1315 0.930 . S
H1320 C1317 0.929 . S
S1321 N1322 1.613 . S
S1321 N1323 1.610 . S
N1322 S1321 1.613 . S
N1322 C1325 1.350 . S
N1323 S1321 1.610 . S
N1323 C1324 1.351 . S
C1324 C1318 1.428 . S
C1324 N1323 1.351 . S
C1324 C1325 1.434 . S
C1325 C1316 1.429 . S
C1325 N1322 1.350 . S
C1325 C1324 1.434 . S
C1326 C1327 1.369 . S
C1326 C1328 1.419 . S
C1326 H1330 0.930 . S
C1327 C1326 1.369 . S
C1327 C1336 1.429 . S
C1328 C1326 1.419 . S
C1328 C1329 1.363 . S
C1328 H1331 0.929 . S
C1329 C1328 1.363 . S
C1329 C1335 1.428 . S
H1330 C1326 0.930 . S
H1331 C1328 0.929 . S
S1332 N1333 1.613 . S
S1332 N1334 1.610 . S
N1333 S1332 1.613 . S
N1333 C1336 1.350 . S
N1334 S1332 1.610 . S
N1334 C1335 1.351 . S
C1335 C1329 1.428 . S
C1335 N1334 1.351 . S
C1335 C1336 1.434 . S
C1336 C1327 1.429 . S
C1336 N1333 1.350 . S
C1336 C1335 1.434 . S
C1337 C1338 1.369 . S
C1337 C1339 1.419 . S
C1337 H1341 0.930 . S
C1338 C1337 1.369 . S
C1338 C1347 1.429 . S
C1339 C1337 1.419 . S
C1339 C1340 1.363 . S
C1339 H1342 0.929 . S
C1340 C1339 1.363 . S
C1340 C1346 1.428 . S
H1341 C1337 0.930 . S
H1342 C1339 0.929 . S
S1343 N1344 1.613 . S
S1343 N1345 1.610 . S
N1344 S1343 1.613 . S
N1344 C1347 1.350 . S
N1345 S1343 1.610 . S
N1345 C1346 1.351 . S
C1346 C1340 1.428 . S
C1346 N1345 1.351 . S
C1346 C1347 1.434 . S
C1347 C1338 1.429 . S
C1347 N1344 1.350 . S
C1347 C1346 1.434 . S
C1348 C1349 1.369 . S
C1348 C1350 1.419 . S
C1348 H1352 0.930 . S
C1349 C1348 1.369 . S
C1349 C1358 1.429 . S
C1350 C1348 1.419 . S
C1350 C1351 1.363 . S
C1350 H1353 0.929 . S
C1351 C1350 1.363 . S
C1351 C1357 1.428 . S
H1352 C1348 0.930 . S
H1353 C1350 0.929 . S
S1354 N1355 1.613 . S
S1354 N1356 1.610 . S
N1355 S1354 1.613 . S
N1355 C1358 1.350 . S
N1356 S1354 1.610 . S
N1356 C1357 1.351 . S
C1357 C1351 1.428 . S
C1357 N1356 1.351 . S
C1357 C1358 1.434 . S
C1358 C1349 1.429 . S
C1358 N1355 1.350 . S
C1358 C1357 1.434 . S
C1359 C1360 1.369 . S
C1359 C1361 1.419 . S
C1359 H1363 0.930 . S
C1360 C1359 1.369 . S
C1360 C1369 1.429 . S
C1361 C1359 1.419 . S
C1361 C1362 1.363 . S
C1361 H1364 0.929 . S
C1362 C1361 1.363 . S
C1362 C1368 1.428 . S
H1363 C1359 0.930 . S
H1364 C1361 0.929 . S
S1365 N1366 1.613 . S
S1365 N1367 1.610 . S
N1366 S1365 1.613 . S
N1366 C1369 1.350 . S
N1367 S1365 1.610 . S
N1367 C1368 1.351 . S
C1368 C1362 1.428 . S
C1368 N1367 1.351 . S
C1368 C1369 1.434 . S
C1369 C1360 1.429 . S
C1369 N1366 1.350 . S
C1369 C1368 1.434 . S
C1370 C1371 1.369 . S
C1370 C1372 1.419 . S
C1370 H1374 0.930 . S
C1371 C1370 1.369 . S
C1371 C1380 1.429 . S
C1372 C1370 1.419 . S
C1372 C1373 1.363 . S
C1372 H1375 0.929 . S
C1373 C1372 1.363 . S
C1373 C1379 1.428 . S
H1374 C1370 0.930 . S
H1375 C1372 0.929 . S
S1376 N1377 1.613 . S
S1376 N1378 1.610 . S
N1377 S1376 1.613 . S
N1377 C1380 1.350 . S
N1378 S1376 1.610 . S
N1378 C1379 1.351 . S
C1379 C1373 1.428 . S
C1379 N1378 1.351 . S
C1379 C1380 1.434 . S
C1380 C1371 1.429 . S
C1380 N1377 1.350 . S
C1380 C1379 1.434 . S
C1381 C1382 1.369 . S
C1381 C1383 1.419 . S
C1381 H1385 0.930 . S
C1382 C1381 1.369 . S
C1382 C1391 1.429 . S
C1383 C1381 1.419 . S
C1383 C1384 1.363 . S
C1383 H1386 0.929 . S
C1384 C1383 1.363 . S
C1384 C1390 1.428 . S
H1385 C1381 0.930 . S
H1386 C1383 0.929 . S
S1387 N1388 1.613 . S
S1387 N1389 1.610 . S
N1388 S1387 1.613 . S
N1388 C1391 1.350 . S
N1389 S1387 1.610 . S
N1389 C1390 1.351 . S
C1390 C1384 1.428 . S
C1390 N1389 1.351 . S
C1390 C1391 1.434 . S
C1391 C1382 1.429 . S
C1391 N1388 1.350 . S
C1391 C1390 1.434 . S
C867 C689 1.665 . S
C865 C74 1.517 . S
C878 C694 0.901 . S
C876 C142 1.091 . S
C889 C695 1.680 . S
C887 C231 1.527 . S
C898 C322 1.228 . S
C900 C699 1.301 . S
C909 C406 1.069 . S
C911 C702 0.917 . S
C922 C703 1.681 . S
C920 C494 1.529 . S
C931 C562 1.219 . S
C933 C680 1.303 . S
C942 C651 1.518 . S
C944 C696 1.665 . S
C955 C734 1.298 . S
C953 C58 1.294 . S
C964 C151 1.607 . S
C966 C760 1.621 . S
C977 C712 2.469 . S
C975 C224 2.381 . S
C988 C767 1.515 . S
C986 C315 1.490 . S
C997 C399 1.491 . S
C999 C721 1.527 . S
C1010 C763 1.313 . S
C1008 C478 1.288 . S
C1019 C571 1.533 . S
C1021 C727 1.616 . S
C1030 C644 2.377 . S
C1032 C758 2.471 . S
C1041 C67 2.374 . S
C1043 C766 2.468 . S
C1052 C392 1.604 . S
C1054 C753 1.618 . S
C1065 C731 2.465 . S
C1063 C487 2.389 . S
C1076 C759 1.513 . S
C1074 C578 1.494 . S
C1085 C658 1.285 . S
C1087 C726 1.299 . S
C1096 C238 1.287 . S
C1098 C744 1.313 . S
C1109 C735 1.616 . S
C1107 C308 1.533 . S
C1118 C158 1.490 . S
C1120 C728 1.528 . S
C1129 C662 1.493 . S
C1131 C790 1.545 . S
C1140 C394 1.076 . S
C1142 C785 0.566 . S
C1153 C799 1.524 . S
C1151 C483 1.501 . S
C1164 C776 1.276 . S
C1162 C574 1.208 . S
C1173 C154 1.074 . S
C1175 C792 0.558 . S
C1186 C791 1.516 . S
C1184 C242 1.513 . S
C1195 C310 1.202 . S
C1197 C795 1.277 . S
C1206 C63 1.498 . S
C1208 C798 1.539 . S
C1217 C646 1.294 . S
C1219 C824 1.362 . S
C1230 C840 1.614 . S
C1228 C403 1.613 . S
C1239 C476 2.386 . S
C1241 C822 2.552 . S
C1250 C567 1.494 . S
C1252 C855 1.456 . S
C1263 C831 1.444 . S
C1261 C147 1.471 . S
C1272 C226 1.308 . S
C1274 C849 1.301 . S
C1285 C827 1.576 . S
C1283 C319 1.511 . S
C1296 C862 2.510 . S
C1294 C56 2.397 . S
C1307 C854 2.509 . S
C1305 C655 2.397 . S
C1316 C140 1.614 . S
C1318 C859 1.618 . S
C1327 C235 2.386 . S
C1329 C830 2.552 . S
C1340 C863 1.456 . S
C1338 C326 1.494 . S
C1349 C70 1.295 . S
C1351 C817 1.363 . S
C1360 C490 1.308 . S
C1362 C856 1.302 . S
C1373 C808 1.582 . S
C1371 C560 1.520 . S
C1384 C823 1.451 . S
C1382 C410 1.476 . S
