# Generated by pormake.
# Topology dag, (6,3)-cn, num edge types: 1
# Building blocks:
#     Node 0, Type 0, BuildingBlock: IZENUY_clean_sbu_0, # of connection points: 6
#     Node 1, Type 0, BuildingBlock: IZENUY_clean_sbu_0, # of connection points: 6
#     Node 2, Type 0, BuildingBlock: IZENUY_clean_sbu_0, # of connection points: 6
#     Node 3, Type 0, BuildingBlock: IZENUY_clean_sbu_0, # of connection points: 6
#     Node 4, Type 1, BuildingBlock: WUSLED_clean_sbu_0, # of connection points: 3
#     Node 5, Type 1, BuildingBlock: WUSLED_clean_sbu_0, # of connection points: 3
#     Node 6, Type 1, BuildingBlock: WUSLED_clean_sbu_0, # of connection points: 3
#     Node 7, Type 1, BuildingBlock: WUSLED_clean_sbu_0, # of connection points: 3
#     Node 8, Type 1, BuildingBlock: WUSLED_clean_sbu_0, # of connection points: 3
#     Node 9, Type 1, BuildingBlock: WUSLED_clean_sbu_0, # of connection points: 3
#     Node 10, Type 1, BuildingBlock: WUSLED_clean_sbu_0, # of connection points: 3
#     Node 11, Type 1, BuildingBlock: WUSLED_clean_sbu_0, # of connection points: 3
#     Edge 12, Type (0, 1), BuildingBlock: CIFDUS_clean_linker_0, # of connection points: 2
#     Edge 13, Type (0, 1), BuildingBlock: CIFDUS_clean_linker_0, # of connection points: 2
#     Edge 14, Type (0, 1), BuildingBlock: CIFDUS_clean_linker_0, # of connection points: 2
#     Edge 15, Type (0, 1), BuildingBlock: CIFDUS_clean_linker_0, # of connection points: 2
#     Edge 16, Type (0, 1), BuildingBlock: CIFDUS_clean_linker_0, # of connection points: 2
#     Edge 17, Type (0, 1), BuildingBlock: CIFDUS_clean_linker_0, # of connection points: 2
#     Edge 18, Type (0, 1), BuildingBlock: CIFDUS_clean_linker_0, # of connection points: 2
#     Edge 19, Type (0, 1), BuildingBlock: CIFDUS_clean_linker_0, # of connection points: 2
#     Edge 20, Type (0, 1), BuildingBlock: CIFDUS_clean_linker_0, # of connection points: 2
#     Edge 21, Type (0, 1), BuildingBlock: CIFDUS_clean_linker_0, # of connection points: 2
#     Edge 22, Type (0, 1), BuildingBlock: CIFDUS_clean_linker_0, # of connection points: 2
#     Edge 23, Type (0, 1), BuildingBlock: CIFDUS_clean_linker_0, # of connection points: 2
#     Edge 24, Type (0, 1), BuildingBlock: CIFDUS_clean_linker_0, # of connection points: 2
#     Edge 25, Type (0, 1), BuildingBlock: CIFDUS_clean_linker_0, # of connection points: 2
#     Edge 26, Type (0, 1), BuildingBlock: CIFDUS_clean_linker_0, # of connection points: 2
#     Edge 27, Type (0, 1), BuildingBlock: CIFDUS_clean_linker_0, # of connection points: 2
#     Edge 28, Type (0, 1), BuildingBlock: CIFDUS_clean_linker_0, # of connection points: 2
#     Edge 29, Type (0, 1), BuildingBlock: CIFDUS_clean_linker_0, # of connection points: 2
#     Edge 30, Type (0, 1), BuildingBlock: CIFDUS_clean_linker_0, # of connection points: 2
#     Edge 31, Type (0, 1), BuildingBlock: CIFDUS_clean_linker_0, # of connection points: 2
#     Edge 32, Type (0, 1), BuildingBlock: CIFDUS_clean_linker_0, # of connection points: 2
#     Edge 33, Type (0, 1), BuildingBlock: CIFDUS_clean_linker_0, # of connection points: 2
#     Edge 34, Type (0, 1), BuildingBlock: CIFDUS_clean_linker_0, # of connection points: 2
#     Edge 35, Type (0, 1), BuildingBlock: CIFDUS_clean_linker_0, # of connection points: 2
# Relax obj value: 0.246
# Max RMSD: 0.192
# Mean RMSD: 0.158
data_MOF--net-dag--node1-IZENUY_clean_sbu_0--node2-WUSLED_clean_sbu_0--edge1-CIFDUS_clean_linker_0
_symmetry_space_group_name_H-M    P1
_symmetry_Int_Tables_number       1
_symmetry_cell_setting            triclinic
loop_
_symmetry_equiv_pos_as_xyz
'x, y, z'
_cell_length_a     45.363088
_cell_length_b     47.377472
_cell_length_c     40.066277
_cell_angle_alpha  95.007301
_cell_angle_beta   90.372769
_cell_angle_gamma 90.02433
loop_
_atom_site_label
_atom_site_type_symbol
_atom_site_fract_x
_atom_site_fract_y
_atom_site_fract_z
_atom_type_partial_charge
Fe0 Fe 0.18384 0.84967 0.07823 0.0
Fe1 Fe 0.11861 0.85854 0.06252 0.0
O2 O 0.14833 0.8355 0.06881 0.0
Fe3 Fe 0.14239 0.79833 0.06607 0.0
O4 O 0.15445 0.79632 0.10921 0.0
O5 O 0.19457 0.82175 0.10476 0.0
O6 O 0.17075 0.86968 0.11618 0.0
C7 C 0.14907 0.88641 0.11701 0.0
C8 C 0.19775 0.80391 0.03489 0.0
O9 O 0.13209 0.8872 0.09201 0.0
C10 C 0.10903 0.81291 0.01344 0.0
O11 O 0.17937 0.88019 0.05335 0.0
O12 O 0.13672 0.87307 0.02762 0.0
O13 O 0.17933 0.7894 0.04985 0.0
O14 O 0.19914 0.83048 0.0411 0.0
C15 C 0.09111 0.82055 0.09888 0.0
O16 O 0.09952 0.83385 0.03197 0.0
O17 O 0.13005 0.79797 0.0227 0.0
C18 C 0.16167 0.88487 0.02984 0.0
O19 O 0.0988 0.84589 0.09714 0.0
O20 O 0.10414 0.80062 0.08168 0.0
C21 C 0.17914 0.80514 0.12059 0.0
Fe22 Fe 0.70223 0.63584 0.49747 0.0
Fe23 Fe 0.65653 0.681 0.52224 0.0
O24 O 0.66679 0.64509 0.51313 0.0
Fe25 Fe 0.64129 0.61799 0.51978 0.0
O26 O 0.66511 0.6047 0.55118 0.0
O27 O 0.7049 0.60325 0.51984 0.0
O28 O 0.72003 0.65391 0.53357 0.0
C29 C 0.71614 0.67931 0.54467 0.0
C30 C 0.66934 0.59654 0.46056 0.0
O31 O 0.69359 0.69299 0.53638 0.0
C32 C 0.6058 0.65504 0.49051 0.0
O33 O 0.70583 0.66686 0.47305 0.0
O34 O 0.66341 0.68906 0.47977 0.0
O35 O 0.65578 0.59236 0.48708 0.0
O36 O 0.68689 0.61701 0.45984 0.0
C37 C 0.6299 0.65834 0.57417 0.0
O38 O 0.61761 0.67504 0.50926 0.0
O39 O 0.61648 0.63033 0.48869 0.0
C40 C 0.68699 0.68442 0.46381 0.0
O41 O 0.64879 0.67577 0.56576 0.0
O42 O 0.62152 0.63812 0.55373 0.0
C43 C 0.69126 0.59651 0.54566 0.0
Fe44 Fe 0.86066 0.18178 0.02387 0.0
Fe45 Fe 0.87385 0.1184 0.02281 0.0
O46 O 0.8484 0.1461 0.01874 0.0
Fe47 Fe 0.81093 0.13785 0.00933 0.0
O48 O 0.81254 0.15566 0.97124 0.0
O49 O 0.83495 0.19438 0.99257 0.0
O50 O 0.88726 0.17598 0.99018 0.0
C51 C 0.90717 0.15738 0.98929 0.0
C52 C 0.8076 0.18641 0.05622 0.0
O53 O 0.90571 0.13722 0.00787 0.0
C54 C 0.82303 0.09893 0.05392 0.0
O55 O 0.88842 0.17543 0.05631 0.0
O56 O 0.88143 0.13089 0.06587 0.0
O57 O 0.79613 0.16955 0.03344 0.0
O58 O 0.83511 0.19017 0.05773 0.0
C59 C 0.84265 0.09704 0.96801 0.0
O60 O 0.84705 0.09413 0.03868 0.0
O61 O 0.80671 0.11919 0.04695 0.0
C62 C 0.89059 0.15544 0.07536 0.0
O63 O 0.86753 0.10456 0.97987 0.0
O64 O 0.81917 0.1048 0.98324 0.0
C65 C 0.82059 0.18091 0.96902 0.0
Fe66 Fe 0.37628 0.38377 0.55835 0.0
Fe67 Fe 0.31521 0.36249 0.57727 0.0
O68 O 0.35131 0.35557 0.56186 0.0
Fe69 Fe 0.3625 0.32044 0.54984 0.0
O70 O 0.39216 0.32242 0.58067 0.0
O71 O 0.40927 0.3631 0.56665 0.0
O72 O 0.37459 0.39381 0.60296 0.0
C73 C 0.3512 0.4005 0.61857 0.0
C74 C 0.38795 0.3517 0.50011 0.0
O75 O 0.32623 0.39311 0.60627 0.0
C76 C 0.30666 0.31975 0.52411 0.0
O77 O 0.34787 0.40962 0.54936 0.0
O78 O 0.30691 0.38492 0.54389 0.0
O79 O 0.38715 0.32995 0.51637 0.0
O80 O 0.37965 0.37546 0.51345 0.0
C81 C 0.32835 0.31479 0.60796 0.0
O82 O 0.29786 0.33313 0.55099 0.0
O83 O 0.33376 0.31639 0.51836 0.0
C84 C 0.32185 0.40637 0.53806 0.0
O85 O 0.32092 0.34052 0.61166 0.0
O86 O 0.33977 0.30444 0.58084 0.0
C87 C 0.41248 0.34061 0.58118 0.0
C88 C 0.04582 0.18964 0.27833 0.0
C89 C 0.03886 0.16474 0.25834 0.0
C90 C 0.00214 0.19005 0.22802 0.0
C91 C 0.01727 0.16492 0.23345 0.0
C92 C 0.00909 0.215 0.24826 0.0
C93 C 0.0308 0.21477 0.27328 0.0
U94 U 0.10638 0.14857 0.31502 0.0
O95 O 0.1523 0.15888 0.32829 0.0
O96 O 0.12204 0.14606 0.3669 0.0
C97 C 0.14814 0.15625 0.36033 0.0
C98 C 0.06961 0.18923 0.30327 0.0
C99 C 0.15901 0.17976 0.38367 0.0
C100 C 0.17826 0.22758 0.3944 0.0
C101 C 0.16503 0.20655 0.37272 0.0
C102 C 0.17801 0.19602 0.43885 0.0
C103 C 0.18536 0.22233 0.42746 0.0
C104 C 0.16508 0.17486 0.41705 0.0
C105 C 0.11671 0.07236 0.27341 0.0
C106 C 0.15435 0.04259 0.24522 0.0
C107 C 0.11338 0.02105 0.27195 0.0
C108 C 0.10235 0.0479 0.28233 0.0
C109 C 0.1388 0.0181 0.25203 0.0
C110 C 0.14342 0.06944 0.25576 0.0
C111 C 0.10166 0.10009 0.27849 0.0
O112 O 0.0653 0.17195 0.32675 0.0
O113 O 0.09618 0.18716 0.29043 0.0
O114 O 0.11587 0.12209 0.26877 0.0
O115 O 0.08741 0.10564 0.3068 0.0
H116 H 0.05048 0.14519 0.26169 0.0
H117 H 0.01294 0.14548 0.21792 0.0
H118 H 0.99772 0.23463 0.2448 0.0
H119 H 0.03604 0.2342 0.28845 0.0
H120 H 0.1835 0.2478 0.38514 0.0
H121 H 0.16028 0.21103 0.34719 0.0
H122 H 0.18349 0.19137 0.46415 0.0
H123 H 0.16059 0.15436 0.42598 0.0
H124 H 0.17384 0.04112 0.2297 0.0
H125 H 0.10112 0.00257 0.27804 0.0
H126 H 0.08173 0.04947 0.29585 0.0
H127 H 0.15509 0.08783 0.24841 0.0
C128 C 0.3461 0.58348 0.79578 0.0
C129 C 0.36802 0.57398 0.77299 0.0
C130 C 0.34025 0.53073 0.75776 0.0
C131 C 0.36513 0.54794 0.75415 0.0
C132 C 0.31862 0.54007 0.78129 0.0
C133 C 0.32152 0.5663 0.80011 0.0
U134 U 0.38762 0.65167 0.80612 0.0
O135 O 0.37337 0.69603 0.80732 0.0
O136 O 0.39846 0.68158 0.84969 0.0
C137 C 0.38333 0.70227 0.83797 0.0
C138 C 0.34831 0.6121 0.81299 0.0
C139 C 0.36224 0.71667 0.86135 0.0
C140 C 0.31352 0.72043 0.8861 0.0
C141 C 0.33358 0.7061 0.86436 0.0
C142 C 0.35072 0.75578 0.90243 0.0
C143 C 0.32182 0.74549 0.90538 0.0
C144 C 0.37071 0.74149 0.88057 0.0
C145 C 0.45661 0.65191 0.74909 0.0
C146 C 0.47725 0.68542 0.71297 0.0
C147 C 0.50596 0.64486 0.72669 0.0
C148 C 0.48298 0.63646 0.74666 0.0
C149 C 0.50286 0.6688 0.70858 0.0
C150 C 0.45432 0.67708 0.73311 0.0
C151 C 0.4308 0.63918 0.76419 0.0
O152 O 0.37116 0.61638 0.83317 0.0
O153 O 0.34444 0.63252 0.79322 0.0
O154 O 0.40478 0.64802 0.75496 0.0
O155 O 0.43253 0.63515 0.7962 0.0
H156 H 0.38704 0.58711 0.76909 0.0
H157 H 0.38193 0.5418 0.73587 0.0
H158 H 0.29933 0.52725 0.78491 0.0
H159 H 0.30435 0.57339 0.81755 0.0
H160 H 0.29136 0.71209 0.88739 0.0
H161 H 0.32666 0.68692 0.84969 0.0
H162 H 0.358 0.77474 0.91726 0.0
H163 H 0.39281 0.74986 0.87863 0.0
H164 H 0.47441 0.70414 0.69959 0.0
H165 H 0.52527 0.63147 0.72359 0.0
H166 H 0.48516 0.61692 0.75866 0.0
H167 H 0.43428 0.68953 0.73474 0.0
C168 C 0.74938 0.92361 0.18238 0.0
C169 C 0.77165 0.92585 0.15863 0.0
C170 C 0.75656 0.97405 0.15063 0.0
C171 C 0.77512 0.95069 0.14286 0.0
C172 C 0.7335 0.97151 0.17354 0.0
C173 C 0.73006 0.94645 0.1895 0.0
U174 U 0.79209 0.86311 0.20927 0.0
O175 O 0.79847 0.84449 0.25709 0.0
O176 O 0.78315 0.81771 0.21265 0.0
C177 C 0.78978 0.81917 0.24476 0.0
C178 C 0.74876 0.89845 0.20158 0.0
C179 C 0.77164 0.80238 0.26624 0.0
C180 C 0.74789 0.79652 0.3195 0.0
C181 C 0.75977 0.81414 0.29667 0.0
C182 C 0.75831 0.75541 0.28115 0.0
C183 C 0.74791 0.76689 0.31238 0.0
C184 C 0.77006 0.77298 0.25837 0.0
C185 C 0.8718 0.86059 0.17733 0.0
C186 C 0.91893 0.84994 0.2027 0.0
C187 C 0.91276 0.84344 0.14242 0.0
C188 C 0.8835 0.85239 0.14564 0.0
C189 C 0.93096 0.84281 0.17087 0.0
C190 C 0.88958 0.85864 0.20595 0.0
C191 C 0.84196 0.87299 0.17969 0.0
O192 O 0.7512 0.87403 0.18344 0.0
O193 O 0.76609 0.90034 0.22811 0.0
O194 O 0.83443 0.88544 0.20899 0.0
O195 O 0.82064 0.85776 0.16483 0.0
H196 H 0.78697 0.9086 0.1529 0.0
H197 H 0.79276 0.95179 0.12491 0.0
H198 H 0.71892 0.98921 0.18004 0.0
H199 H 0.71291 0.94521 0.208 0.0
H200 H 0.74015 0.80598 0.34343 0.0
H201 H 0.76085 0.83674 0.30351 0.0
H202 H 0.7582 0.73272 0.27473 0.0
H203 H 0.77924 0.7634 0.23518 0.0
H204 H 0.93245 0.84948 0.22504 0.0
H205 H 0.92155 0.83841 0.11754 0.0
H206 H 0.87027 0.85381 0.12323 0.0
H207 H 0.88115 0.86464 0.23079 0.0
C208 C 0.73821 0.43479 0.71091 0.0
C209 C 0.70932 0.44337 0.70406 0.0
C210 C 0.72777 0.48325 0.67608 0.0
C211 C 0.70418 0.4673 0.68704 0.0
C212 C 0.7568 0.47451 0.68244 0.0
C213 C 0.76198 0.45045 0.69987 0.0
U214 U 0.7073 0.36471 0.72325 0.0
O215 O 0.72484 0.32167 0.72657 0.0
O216 O 0.69759 0.34175 0.76722 0.0
C217 C 0.71299 0.31943 0.75613 0.0
C218 C 0.74271 0.40837 0.72736 0.0
C219 C 0.73088 0.30625 0.7812 0.0
C220 C 0.77375 0.30423 0.81769 0.0
C221 C 0.75805 0.3174 0.793 0.0
C222 C 0.73514 0.26897 0.81875 0.0
C223 C 0.76245 0.27978 0.8308 0.0
C224 C 0.71963 0.28203 0.79421 0.0
C225 C 0.63438 0.35388 0.67118 0.0
C226 C 0.58135 0.34727 0.67536 0.0
C227 C 0.60604 0.33441 0.62284 0.0
C228 C 0.63305 0.34241 0.63768 0.0
C229 C 0.57977 0.33797 0.64112 0.0
C230 C 0.6084 0.35525 0.69025 0.0
C231 C 0.66146 0.36874 0.68369 0.0
O232 O 0.7233 0.40403 0.75064 0.0
O233 O 0.74749 0.38569 0.70677 0.0
O234 O 0.68682 0.35798 0.67323 0.0
O235 O 0.66198 0.37898 0.71525 0.0
H236 H 0.69055 0.43133 0.71154 0.0
H237 H 0.68159 0.47303 0.68189 0.0
H238 H 0.77541 0.48637 0.6742 0.0
H239 H 0.78443 0.44395 0.70442 0.0
H240 H 0.79477 0.31304 0.82632 0.0
H241 H 0.76698 0.33621 0.78327 0.0
H242 H 0.72537 0.25065 0.82874 0.0
H243 H 0.69855 0.2733 0.78559 0.0
H244 H 0.56147 0.35044 0.69004 0.0
H245 H 0.60552 0.32696 0.5965 0.0
H246 H 0.65263 0.34124 0.62229 0.0
H247 H 0.60859 0.36414 0.71608 0.0
C248 C 0.52723 0.31044 0.28627 0.0
C249 C 0.50659 0.33263 0.28804 0.0
C250 C 0.48216 0.31301 0.33487 0.0
C251 C 0.48417 0.33377 0.31191 0.0
C252 C 0.50229 0.2903 0.33217 0.0
C253 C 0.5245 0.28901 0.30806 0.0
U254 U 0.59065 0.35209 0.25581 0.0
O255 O 0.63793 0.34234 0.25207 0.0
O256 O 0.61321 0.35258 0.2074 0.0
C257 C 0.63824 0.34352 0.21939 0.0
C258 C 0.55359 0.31115 0.26493 0.0
C259 C 0.65318 0.31986 0.19953 0.0
C260 C 0.66242 0.29278 0.14609 0.0
C261 C 0.64641 0.3134 0.16541 0.0
C262 C 0.69213 0.28438 0.19462 0.0
C263 C 0.68573 0.27828 0.16036 0.0
C264 C 0.67614 0.30499 0.21392 0.0
C265 C 0.59416 0.42988 0.29311 0.0
C266 C 0.63753 0.4586 0.30752 0.0
C267 C 0.58893 0.47977 0.31162 0.0
C268 C 0.57635 0.45379 0.30005 0.0
C269 C 0.61956 0.48217 0.31665 0.0
C270 C 0.62493 0.43264 0.29573 0.0
C271 C 0.58006 0.40192 0.28727 0.0
O272 O 0.55178 0.32659 0.23921 0.0
O273 O 0.57847 0.31479 0.2817 0.0
O274 O 0.5933 0.38123 0.30124 0.0
O275 O 0.57035 0.39453 0.25677 0.0
H276 H 0.50829 0.34962 0.27173 0.0
H277 H 0.46879 0.35129 0.3128 0.0
H278 H 0.50178 0.27412 0.34965 0.0
H279 H 0.54036 0.27188 0.30739 0.0
H280 H 0.65719 0.28889 0.11967 0.0
H281 H 0.62918 0.32473 0.15335 0.0
H282 H 0.70971 0.27339 0.2065 0.0
H283 H 0.68219 0.30963 0.24002 0.0
H284 H 0.66122 0.45993 0.31084 0.0
H285 H 0.57448 0.49744 0.31873 0.0
H286 H 0.55257 0.45202 0.29822 0.0
H287 H 0.63911 0.41445 0.29027 0.0
C288 C 0.11686 0.15488 0.86329 0.0
C289 C 0.11495 0.13887 0.89103 0.0
C290 C 0.06213 0.1482 0.89475 0.0
C291 C 0.08784 0.13565 0.9067 0.0
C292 C 0.0642 0.16379 0.86652 0.0
C293 C 0.09135 0.16713 0.85101 0.0
U294 U 0.19758 0.13589 0.84468 0.0
O295 O 0.22264 0.1374 0.7982 0.0
O296 O 0.23605 0.16413 0.84324 0.0
C297 C 0.24012 0.15775 0.81099 0.0
C298 C 0.14534 0.15974 0.84747 0.0
C299 C 0.24537 0.18145 0.78997 0.0
C300 C 0.2619 0.22969 0.78393 0.0
C301 C 0.25369 0.20849 0.80431 0.0
C302 C 0.2531 0.19741 0.73464 0.0
C303 C 0.26224 0.22416 0.7489 0.0
C304 C 0.24491 0.17629 0.75491 0.0
C305 C 0.19138 0.06888 0.89475 0.0
C306 C 0.15965 0.0277 0.89772 0.0
C307 C 0.19339 0.04154 0.94329 0.0
C308 C 0.20287 0.06445 0.92645 0.0
C309 C 0.17237 0.02237 0.92865 0.0
C310 C 0.16909 0.05071 0.88088 0.0
C311 C 0.20612 0.08959 0.87491 0.0
O312 O 0.16706 0.16749 0.86816 0.0
O313 O 0.15317 0.14071 0.82331 0.0
O314 O 0.21089 0.11513 0.88961 0.0
O315 O 0.19846 0.08954 0.84321 0.0
H316 H 0.13446 0.12921 0.90084 0.0
H317 H 0.08718 0.12379 0.9286 0.0
H318 H 0.04483 0.17332 0.85628 0.0
H319 H 0.09245 0.17946 0.82951 0.0
H320 H 0.26905 0.25004 0.79563 0.0
H321 H 0.25469 0.21306 0.83125 0.0
H322 H 0.25271 0.19264 0.7077 0.0
H323 H 0.23893 0.15564 0.74304 0.0
H324 H 0.14347 0.0133 0.88573 0.0
H325 H 0.20318 0.03839 0.96742 0.0
H326 H 0.22017 0.07802 0.93762 0.0
H327 H 0.15986 0.05347 0.85638 0.0
C328 C 0.25929 0.59392 0.41969 0.0
C329 C 0.26947 0.59794 0.45299 0.0
C330 C 0.27294 0.547 0.45573 0.0
C331 C 0.27605 0.57475 0.47083 0.0
C332 C 0.26083 0.54291 0.42327 0.0
C333 C 0.25411 0.56623 0.40536 0.0
U334 U 0.29982 0.65576 0.3919 0.0
O335 O 0.30742 0.67151 0.34275 0.0
O336 O 0.28729 0.69942 0.38308 0.0
C337 C 0.29459 0.69596 0.35127 0.0
C338 C 0.25879 0.61792 0.39851 0.0
C339 C 0.27297 0.70595 0.32731 0.0
C340 C 0.24127 0.69798 0.27815 0.0
C341 C 0.25923 0.68735 0.3027 0.0
C342 C 0.24939 0.74566 0.30354 0.0
C343 C 0.23673 0.72734 0.27785 0.0
C344 C 0.2674 0.73507 0.32791 0.0
C345 C 0.37752 0.66388 0.43336 0.0
C346 C 0.42705 0.67314 0.41407 0.0
C347 C 0.41628 0.6784 0.47341 0.0
C348 C 0.38693 0.67095 0.46645 0.0
C349 C 0.43687 0.67868 0.44737 0.0
C350 C 0.39763 0.66586 0.4071 0.0
C351 C 0.34807 0.65104 0.42749 0.0
O352 O 0.25822 0.64337 0.41458 0.0
O353 O 0.2779 0.61577 0.3739 0.0
O354 O 0.34345 0.63703 0.39814 0.0
O355 O 0.32523 0.66608 0.43857 0.0
H356 H 0.27389 0.61898 0.46477 0.0
H357 H 0.28486 0.57855 0.49602 0.0
H358 H 0.25829 0.52176 0.41096 0.0
H359 H 0.2465 0.56261 0.37966 0.0
H360 H 0.23197 0.68332 0.25863 0.0
H361 H 0.26304 0.66473 0.30181 0.0
H362 H 0.24589 0.76833 0.30441 0.0
H363 H 0.27763 0.74976 0.34678 0.0
H364 H 0.44236 0.67352 0.39348 0.0
H365 H 0.4232 0.68227 0.49933 0.0
H366 H 0.37189 0.66937 0.48711 0.0
H367 H 0.39099 0.66063 0.38128 0.0
C368 C 0.86925 0.92898 0.77436 0.0
C369 C 0.89393 0.93815 0.79358 0.0
C370 C 0.86759 0.98058 0.81502 0.0
C371 C 0.89313 0.96369 0.81369 0.0
C372 C 0.84319 0.97169 0.79485 0.0
C373 C 0.84401 0.94601 0.77471 0.0
U374 U 0.90629 0.85853 0.76043 0.0
O375 O 0.88857 0.8153 0.76023 0.0
O376 O 0.91213 0.82821 0.71626 0.0
C377 C 0.8959 0.80874 0.72883 0.0
C378 C 0.86907 0.90044 0.75689 0.0
C379 C 0.87202 0.79657 0.70718 0.0
C380 C 0.8321 0.80157 0.66738 0.0
C381 C 0.85483 0.81359 0.68768 0.0
C382 C 0.84308 0.75559 0.68657 0.0
C383 C 0.82604 0.77238 0.66647 0.0
C384 C 0.86589 0.76759 0.70664 0.0
C385 C 0.97848 0.85199 0.811 0.0
C386 C 0.99883 0.81175 0.837 0.0
C387 C 0.02793 0.8544 0.83453 0.0
C388 C 0.00498 0.86668 0.81749 0.0
C389 C 0.02471 0.82719 0.84556 0.0
C390 C 0.97589 0.82403 0.81979 0.0
C391 C 0.95304 0.86744 0.79877 0.0
O392 O 0.89036 0.89511 0.73511 0.0
O393 O 0.86541 0.88017 0.77684 0.0
O394 O 0.92713 0.86044 0.81005 0.0
O395 O 0.95278 0.87181 0.76682 0.0
H396 H 0.91348 0.92504 0.79394 0.0
H397 H 0.91212 0.96956 0.82929 0.0
H398 H 0.8233 0.98434 0.79505 0.0
H399 H 0.8247 0.93911 0.76016 0.0
H400 H 0.81961 0.81507 0.65203 0.0
H401 H 0.85906 0.83613 0.68804 0.0
H402 H 0.83865 0.73317 0.68703 0.0
H403 H 0.87871 0.75422 0.72186 0.0
H404 H 0.99584 0.79064 0.84487 0.0
H405 H 0.04739 0.86702 0.84103 0.0
H406 H 0.00737 0.88827 0.81094 0.0
H407 H 0.95566 0.81221 0.81478 0.0
H408 H 0.18909 0.91475 0.15931 0.0
H409 H 0.09595 0.90311 0.14024 0.0
H410 H 0.08459 0.94052 0.18373 0.0
H411 H 0.10087 0.98 0.22191 0.0
H412 H 0.19367 0.99437 0.24038 0.0
H413 H 0.20545 0.95254 0.20243 0.0
C414 C 0.16637 0.92019 0.16519 0.0
C415 C 0.14339 0.90652 0.14641 0.0
C416 C 0.15994 0.94239 0.18979 0.0
C417 C 0.114 0.91369 0.15408 0.0
C418 C 0.10747 0.93504 0.17895 0.0
C419 C 0.12368 0.97359 0.21852 0.0
C420 C 0.14633 0.9903 0.23399 0.0
C421 C 0.13024 0.95005 0.19625 0.0
C422 C 0.1758 0.98197 0.22854 0.0
C423 C 0.18255 0.95807 0.20684 0.0
H424 H 0.57292 0.67211 0.57443 0.0
H425 H 0.64657 0.65973 0.63986 0.0
H426 H 0.61379 0.66455 0.68871 0.0
H427 H 0.56315 0.66767 0.71156 0.0
H428 H 0.49009 0.68022 0.6449 0.0
H429 H 0.52369 0.68066 0.59782 0.0
C430 C 0.58176 0.67095 0.59953 0.0
C431 C 0.61182 0.66544 0.60391 0.0
C432 C 0.56289 0.67376 0.62714 0.0
C433 C 0.62337 0.66406 0.63624 0.0
C434 C 0.60464 0.66667 0.66401 0.0
C435 C 0.55472 0.67088 0.68679 0.0
C436 C 0.52415 0.6738 0.68174 0.0
C437 C 0.57421 0.67083 0.65963 0.0
C438 C 0.51351 0.67824 0.64958 0.0
C439 C 0.53268 0.67822 0.62254 0.0
H440 H 0.76683 0.08209 0.06858 0.0
H441 H 0.8586 0.07005 0.09271 0.0
H442 H 0.84567 0.03208 0.12708 0.0
H443 H 0.80924 0.99974 0.14654 0.0
H444 H 0.71745 0.00914 0.12151 0.0
H445 H 0.72925 0.05091 0.09182 0.0
C446 C 0.78385 0.07139 0.08182 0.0
C447 C 0.81366 0.07865 0.07783 0.0
C448 C 0.77629 0.04898 0.10117 0.0
C449 C 0.83554 0.06459 0.09503 0.0
C450 C 0.82819 0.04288 0.11471 0.0
C451 C 0.79178 0.01094 0.1346 0.0
C452 C 0.76261 0.0011 0.13571 0.0
C453 C 0.79879 0.03443 0.11725 0.0
C454 C 0.74011 0.01627 0.12092 0.0
C455 C 0.74689 0.04005 0.1038 0.0
H456 H 0.46471 0.35671 0.55807 0.0
H457 H 0.4258 0.31014 0.63439 0.0
H458 H 0.47478 0.30338 0.65897 0.0
H459 H 0.52846 0.31365 0.66042 0.0
H460 H 0.56611 0.3598 0.58271 0.0
H461 H 0.51787 0.36333 0.55665 0.0
C462 C 0.46695 0.34501 0.58006 0.0
C463 C 0.44178 0.33432 0.59479 0.0
C464 C 0.49496 0.34102 0.59366 0.0
C465 C 0.44497 0.31865 0.62277 0.0
C466 C 0.47291 0.31487 0.63682 0.0
C467 C 0.52605 0.32421 0.63761 0.0
C468 C 0.55087 0.3364 0.62353 0.0
C469 C 0.49804 0.32637 0.62275 0.0
C470 C 0.5475 0.34985 0.59382 0.0
C471 C 0.51986 0.35215 0.57904 0.0
H472 H 0.64454 0.59925 0.39934 0.0
H473 H 0.6911 0.54383 0.46111 0.0
H474 H 0.68316 0.50382 0.41913 0.0
H475 H 0.65789 0.48373 0.36857 0.0
H476 H 0.60803 0.53797 0.30818 0.0
H477 H 0.6223 0.5794 0.3457 0.0
C478 C 0.65347 0.57849 0.40301 0.0
C479 C 0.66855 0.57425 0.43284 0.0
C480 C 0.64789 0.55542 0.37927 0.0
C481 C 0.67959 0.54735 0.43805 0.0
C482 C 0.67494 0.52454 0.41418 0.0
C483 C 0.65081 0.5047 0.36306 0.0
C484 C 0.63197 0.5078 0.33564 0.0
C485 C 0.65843 0.52817 0.38517 0.0
C486 C 0.62243 0.53506 0.32927 0.0
C487 C 0.63056 0.55872 0.35072 0.0
H488 H 0.94851 0.11724 0.97415 0.0
H489 H 0.92609 0.20363 0.95842 0.0
H490 H 0.97186 0.20826 0.92729 0.0
H491 H 0.01914 0.18824 0.90662 0.0
H492 H 0.04026 0.10127 0.92126 0.0
H493 H 0.99422 0.09663 0.9513 0.0
C494 C 0.95357 0.13713 0.96394 0.0
C495 C 0.934 0.16015 0.96891 0.0
C496 C 0.9798 0.13961 0.94611 0.0
C497 C 0.94077 0.1856 0.95505 0.0
C498 C 0.96698 0.18827 0.93732 0.0
C499 C 0.01352 0.16813 0.91595 0.0
C500 C 0.03337 0.1452 0.91184 0.0
C501 C 0.98677 0.16547 0.93294 0.0
C502 C 0.02578 0.11945 0.92457 0.0
C503 C 0.99933 0.11669 0.94157 0.0
H504 H 0.34505 0.45804 0.53076 0.0
H505 H 0.26773 0.40694 0.50672 0.0
H506 H 0.24554 0.44587 0.47892 0.0
H507 H 0.24822 0.49485 0.46174 0.0
H508 H 0.32603 0.54498 0.48679 0.0
H509 H 0.34774 0.50602 0.5141 0.0
C510 C 0.32334 0.45527 0.51942 0.0
C511 C 0.30812 0.42956 0.52085 0.0
C512 C 0.31071 0.47768 0.50379 0.0
C513 C 0.27995 0.42652 0.50606 0.0
C514 C 0.26725 0.44878 0.49015 0.0
C515 C 0.26993 0.49714 0.47314 0.0
C516 C 0.28532 0.5229 0.47255 0.0
C517 C 0.28243 0.4745 0.48889 0.0
C518 C 0.31343 0.52561 0.48749 0.0
C519 C 0.32599 0.50327 0.50291 0.0
H520 H 0.12708 0.8162 0.94982 0.0
H521 H 0.05349 0.79304 0.0091 0.0
H522 H 0.02132 0.79063 0.9597 0.0
H523 H 0.0126 0.80305 0.90264 0.0
H524 H 0.08515 0.82968 0.84376 0.0
H525 H 0.11937 0.82269 0.88979 0.0
C526 C 0.10423 0.80968 0.95143 0.0
C527 C 0.09252 0.80449 0.98264 0.0
C528 C 0.08564 0.80954 0.92319 0.0
C529 C 0.06282 0.79678 0.98504 0.0
C530 C 0.04444 0.79564 0.95692 0.0
C531 C 0.03602 0.80642 0.89939 0.0
C532 C 0.04627 0.81708 0.86991 0.0
C533 C 0.05535 0.8031 0.92622 0.0
C534 C 0.07667 0.8218 0.8664 0.0
C535 C 0.09623 0.81783 0.89271 0.0
H536 H 0.88584 0.08439 0.92269 0.0
H537 H 0.79623 0.06325 0.94628 0.0
H538 H 0.79535 0.02661 0.89942 0.0
H539 H 0.82131 0.99832 0.85447 0.0
H540 H 0.91052 0.02034 0.83014 0.0
H541 H 0.91026 0.05885 0.87474 0.0
C542 C 0.86606 0.07184 0.91752 0.0
C543 C 0.84128 0.0763 0.93822 0.0
C544 C 0.86568 0.05087 0.89053 0.0
C545 C 0.81566 0.06018 0.93083 0.0
C546 C 0.81516 0.03918 0.90408 0.0
C547 C 0.84048 0.0119 0.8584 0.0
C548 C 0.866 0.00621 0.83915 0.0
C549 C 0.84019 0.03406 0.88408 0.0
C550 C 0.89077 0.02388 0.84496 0.0
C551 C 0.89062 0.04597 0.8704 0.0
H552 H 0.39859 0.30422 0.45909 0.0
H553 H 0.41082 0.39492 0.46718 0.0
H554 H 0.43975 0.39103 0.41576 0.0
H555 H 0.46474 0.36155 0.37118 0.0
H556 H 0.451 0.27097 0.36194 0.0
H557 H 0.41981 0.27519 0.41147 0.0
C558 C 0.40743 0.32317 0.4495 0.0
C559 C 0.40282 0.34978 0.46719 0.0
C560 C 0.42403 0.32079 0.41993 0.0
C561 C 0.41406 0.37416 0.45413 0.0
C562 C 0.43072 0.37194 0.42479 0.0
C563 C 0.45444 0.34274 0.37945 0.0
C564 C 0.46057 0.31592 0.36287 0.0
C565 C 0.43625 0.34532 0.4078 0.0
C566 C 0.44727 0.29182 0.3745 0.0
C567 C 0.42926 0.29422 0.40276 0.0
H568 H 0.12328 0.91503 0.99405 0.0
H569 H 0.2156 0.90694 0.01828 0.0
H570 H 0.22697 0.94825 0.9884 0.0
H571 H 0.21062 0.98778 0.9576 0.0
H572 H 0.11825 0.99747 0.93499 0.0
H573 H 0.10702 0.95423 0.96171 0.0
C574 C 0.14593 0.92209 0.99242 0.0
C575 C 0.16855 0.90795 0.00849 0.0
C576 C 0.15227 0.94626 0.97572 0.0
C577 C 0.19776 0.91751 0.00631 0.0
C578 C 0.20428 0.94118 0.98928 0.0
C579 C 0.18796 0.98063 0.95881 0.0
C580 C 0.16527 0.99606 0.94467 0.0
C581 C 0.18167 0.95599 0.97443 0.0
C582 C 0.13615 0.98599 0.94563 0.0
C583 C 0.1297 0.96132 0.96099 0.0
H584 H 0.56477 0.69536 0.50886 0.0
H585 H 0.58115 0.62344 0.43766 0.0
H586 H 0.53101 0.62635 0.4158 0.0
H587 H 0.48136 0.64641 0.42036 0.0
H588 H 0.46388 0.71695 0.49298 0.0
H589 H 0.5156 0.71752 0.51086 0.0
C590 C 0.5575 0.68064 0.4882 0.0
C591 C 0.57661 0.65913 0.47501 0.0
C592 C 0.52837 0.68202 0.47622 0.0
C593 C 0.56678 0.64004 0.44843 0.0
C594 C 0.53812 0.64168 0.43591 0.0
C595 C 0.489 0.66234 0.43956 0.0
C596 C 0.46882 0.68163 0.45529 0.0
C597 C 0.51855 0.66218 0.4501 0.0
C598 C 0.47896 0.70176 0.48063 0.0
C599 C 0.50851 0.7021 0.49084 0.0
H600 H 0.30659 0.43155 0.64865 0.0
H601 H 0.39996 0.41541 0.65636 0.0
H602 H 0.40418 0.45252 0.70234 0.0
H603 H 0.38219 0.4918 0.73751 0.0
H604 H 0.28945 0.5099 0.72748 0.0
H605 H 0.28408 0.46933 0.686 0.0
C606 C 0.32781 0.43588 0.66064 0.0
C607 C 0.35296 0.42085 0.64881 0.0
C608 C 0.33022 0.45765 0.68671 0.0
C609 C 0.38027 0.42681 0.6647 0.0
C610 C 0.38273 0.44805 0.69103 0.0
C611 C 0.36078 0.4869 0.72626 0.0
C612 C 0.33634 0.50411 0.73548 0.0
C613 C 0.35798 0.46401 0.70172 0.0
C614 C 0.30863 0.49696 0.72117 0.0
C615 C 0.30557 0.47388 0.69717 0.0
H616 H 0.06751 0.85171 0.15152 0.0
H617 H 0.05089 0.77864 0.082 0.0
H618 H 0.99973 0.77717 0.10086 0.0
H619 H 0.9583 0.80075 0.1318 0.0
H620 H 0.97548 0.87423 0.20058 0.0
H621 H 0.0279 0.87127 0.18766 0.0
C622 C 0.05281 0.83512 0.141 0.0
C623 C 0.06276 0.81553 0.11519 0.0
C624 C 0.02347 0.83467 0.1516 0.0
C625 C 0.04371 0.79393 0.10198 0.0
C626 C 0.0144 0.79325 0.11253 0.0
C627 C 0.97365 0.81582 0.14425 0.0
C628 C 0.96304 0.83782 0.16686 0.0
C629 C 0.00379 0.81415 0.13647 0.0
C630 C 0.98313 0.85702 0.18322 0.0
C631 C 0.01308 0.85547 0.17568 0.0
H632 H 0.67392 0.58657 0.60806 0.0
H633 H 0.73838 0.56088 0.53276 0.0
H634 H 0.75723 0.5249 0.56772 0.0
H635 H 0.75274 0.49833 0.61812 0.0
H636 H 0.68808 0.52492 0.69287 0.0
H637 H 0.67208 0.56294 0.65975 0.0
C638 C 0.69218 0.57318 0.59928 0.0
C639 C 0.70444 0.57618 0.56764 0.0
C640 C 0.70283 0.55259 0.61942 0.0
C641 C 0.72843 0.55896 0.55696 0.0
C642 C 0.73918 0.53833 0.57692 0.0
C643 C 0.73554 0.51279 0.62738 0.0
C644 C 0.72138 0.50856 0.65774 0.0
C645 C 0.72623 0.53463 0.608 0.0
C646 C 0.69901 0.52741 0.66934 0.0
C647 C 0.68985 0.54919 0.65044 0.0
H648 H 0.92495 0.20063 0.0979 0.0
H649 H 0.89335 0.11974 0.12499 0.0
H650 H 0.92329 0.1245 0.17583 0.0
H651 H 0.96049 0.15011 0.21099 0.0
H652 H 0.99405 0.22994 0.18321 0.0
H653 H 0.96078 0.22743 0.13478 0.0
C654 C 0.92442 0.18416 0.11506 0.0
C655 C 0.90714 0.15973 0.10739 0.0
C656 C 0.94202 0.18684 0.14419 0.0
C657 C 0.90668 0.13863 0.13001 0.0
C658 C 0.92377 0.14133 0.15916 0.0
C659 C 0.96058 0.16696 0.19431 0.0
C660 C 0.97995 0.19002 0.20056 0.0
C661 C 0.94191 0.16507 0.16618 0.0
C662 C 0.97925 0.21201 0.17914 0.0
C663 C 0.96039 0.21048 0.15127 0.0
H664 H 0.1597 0.76099 0.15481 0.0
H665 H 0.22731 0.82531 0.1554 0.0
H666 H 0.25022 0.8074 0.20427 0.0
H667 H 0.25251 0.7727 0.24549 0.0
H668 H 0.18569 0.70795 0.24614 0.0
H669 H 0.16128 0.7266 0.19795 0.0
C670 C 0.17935 0.77115 0.16575 0.0
C671 C 0.19182 0.79436 0.15121 0.0
C672 C 0.1927 0.76059 0.19396 0.0
C673 C 0.21732 0.80726 0.16577 0.0
C674 C 0.23048 0.79707 0.19382 0.0
C675 C 0.23231 0.76291 0.23552 0.0
C676 C 0.22086 0.73908 0.24956 0.0
C677 C 0.21852 0.77366 0.20793 0.0
C678 C 0.19508 0.72624 0.23568 0.0
C679 C 0.18106 0.73695 0.2082 0.0
H680 H 0.7143 0.73158 0.57956 0.0
H681 H 0.77069 0.65888 0.55789 0.0
H682 H 0.80942 0.68148 0.5929 0.0
H683 H 0.82761 0.72161 0.62945 0.0
H684 H 0.77127 0.79381 0.65352 0.0
H685 H 0.73253 0.77189 0.61728 0.0
C686 C 0.73508 0.72072 0.58244 0.0
C687 C 0.73947 0.69356 0.56603 0.0
C688 C 0.75739 0.73377 0.60292 0.0
C689 C 0.76655 0.67976 0.57022 0.0
C690 C 0.78882 0.69267 0.59024 0.0
C691 C 0.80674 0.73246 0.62716 0.0
C692 C 0.80239 0.75928 0.64434 0.0
C693 C 0.78446 0.71959 0.60676 0.0
C694 C 0.7754 0.77327 0.64034 0.0
C695 C 0.75314 0.76067 0.61977 0.0
H696 H 0.74739 0.18886 0.05684 0.0
H697 H 0.82487 0.22383 0.10839 0.0
H698 H 0.79402 0.25453 0.14542 0.0
H699 H 0.74536 0.27288 0.16195 0.0
H700 H 0.66764 0.23811 0.11105 0.0
H701 H 0.69833 0.20617 0.07482 0.0
C702 C 0.75755 0.20309 0.07627 0.0
C703 C 0.78848 0.20405 0.07961 0.0
C704 C 0.73966 0.22089 0.09751 0.0
C705 C 0.80117 0.22265 0.10502 0.0
C706 C 0.78354 0.24027 0.12628 0.0
C707 C 0.73506 0.25802 0.14329 0.0
C708 C 0.70421 0.25791 0.13928 0.0
C709 C 0.7528 0.23973 0.12259 0.0
C710 C 0.69134 0.23888 0.11446 0.0
C711 C 0.70887 0.22051 0.09382 0.0
H712 H 0.29503 0.32631 0.66431 0.0
H713 H 0.34397 0.25948 0.60924 0.0
H714 H 0.32853 0.22612 0.64851 0.0
H715 H 0.29989 0.21524 0.69707 0.0
H716 H 0.25009 0.28109 0.75228 0.0
H717 H 0.26747 0.31558 0.71467 0.0
C718 C 0.30248 0.30451 0.66104 0.0
C719 C 0.32045 0.29543 0.63362 0.0
C720 C 0.29333 0.28521 0.68368 0.0
C721 C 0.32995 0.26707 0.62988 0.0
C722 C 0.32114 0.24791 0.65235 0.0
C723 C 0.29265 0.23711 0.70074 0.0
C724 C 0.27343 0.24552 0.72712 0.0
C725 C 0.30253 0.25665 0.67901 0.0
C726 C 0.2649 0.27409 0.73213 0.0
C727 C 0.27473 0.29378 0.71057 0.0
H728 H 0.73275 0.67813 0.41996 0.0
H729 H 0.65599 0.72963 0.44407 0.0
H730 H 0.66765 0.75928 0.3992 0.0
H731 H 0.70025 0.77143 0.35371 0.0
H732 H 0.77678 0.71981 0.32952 0.0
H733 H 0.76441 0.68935 0.37345 0.0
C734 C 0.71853 0.6958 0.41539 0.0
C735 C 0.69365 0.70166 0.43558 0.0
C736 C 0.72526 0.7128 0.3894 0.0
C737 C 0.67535 0.72456 0.42903 0.0
C738 C 0.68199 0.74162 0.40336 0.0
C739 C 0.7142 0.75352 0.35812 0.0
C740 C 0.73934 0.74789 0.33831 0.0
C741 C 0.70701 0.73608 0.38353 0.0
C742 C 0.75706 0.72442 0.34409 0.0
C743 C 0.75013 0.70708 0.36938 0.0
H744 H 0.82295 0.2376 0.96033 0.0
H745 H 0.79685 0.15672 0.91079 0.0
H746 H 0.77886 0.18003 0.86286 0.0
H747 H 0.76848 0.22324 0.83589 0.0
H748 H 0.79207 0.30457 0.88582 0.0
H749 H 0.81381 0.28116 0.93216 0.0
C750 C 0.81347 0.22506 0.93898 0.0
C751 C 0.81103 0.19543 0.93941 0.0
C752 C 0.80281 0.23866 0.91144 0.0
C753 C 0.79874 0.17955 0.91141 0.0
C754 C 0.78849 0.19286 0.88388 0.0
C755 C 0.77826 0.23592 0.85696 0.0
C756 C 0.77831 0.26566 0.85746 0.0
C757 C 0.79003 0.22239 0.88383 0.0
C758 C 0.79184 0.28164 0.8846 0.0
C759 C 0.80406 0.26827 0.91128 0.0
H760 H 0.25197 0.30098 0.53872 0.0
H761 H 0.3138 0.30452 0.45778 0.0
H762 H 0.28041 0.27653 0.42004 0.0
H763 H 0.23531 0.24847 0.41102 0.0
H764 H 0.17468 0.24212 0.49243 0.0
H765 H 0.20591 0.2738 0.52915 0.0
C766 C 0.25792 0.2959 0.51272 0.0
C767 C 0.28528 0.30474 0.50102 0.0
C768 C 0.23894 0.27916 0.49137 0.0
C769 C 0.29291 0.29778 0.46738 0.0
C770 C 0.27385 0.2818 0.4458 0.0
C771 C 0.22872 0.25443 0.43665 0.0
C772 C 0.20274 0.24319 0.44904 0.0
C773 C 0.24705 0.27202 0.45766 0.0
C774 C 0.19468 0.25053 0.48246 0.0
C775 C 0.21249 0.26862 0.50338 0.0
H776 H 0.2385 0.82729 0.99554 0.0
H777 H 0.20574 0.74687 0.0228 0.0
H778 H 0.24121 0.72197 0.98562 0.0
H779 H 0.28174 0.72276 0.94572 0.0
H780 H 0.31375 0.80286 0.91685 0.0
H781 H 0.27874 0.82802 0.95471 0.0
C782 C 0.23914 0.80432 0.99341 0.0
C783 C 0.21946 0.78906 0.01208 0.0
C784 C 0.25958 0.79 0.97179 0.0
C785 C 0.22056 0.75926 0.00879 0.0
C786 C 0.24088 0.74493 0.98752 0.0
C787 C 0.28088 0.74572 0.94738 0.0
C788 C 0.30041 0.76083 0.92841 0.0
C789 C 0.26046 0.76006 0.96889 0.0
C790 C 0.29929 0.79063 0.93146 0.0
C791 C 0.27912 0.80507 0.95296 0.0
loop_
_geom_bond_atom_site_label_1
_geom_bond_atom_site_label_2
_geom_bond_distance
_geom_bond_site_symmetry_2
_ccdc_geom_bond_type
Fe0 O2 1.918 . S
Fe0 O5 1.997 . S
Fe0 O6 2.002 . S
Fe0 O11 1.976 . S
Fe0 O14 1.996 . S
Fe1 O2 1.918 . S
Fe1 O9 1.997 . S
Fe1 O12 1.996 . S
Fe1 O16 1.976 . S
Fe1 O19 2.002 . S
O2 Fe0 1.918 . S
O2 Fe1 1.918 . S
O2 Fe3 1.918 . S
Fe3 O2 1.918 . S
Fe3 O4 2.002 . S
Fe3 O13 1.976 . S
Fe3 O17 1.996 . S
Fe3 O20 1.997 . S
O4 Fe3 2.002 . S
O4 C21 1.295 . S
O5 Fe0 1.997 . S
O5 C21 1.235 . S
O6 Fe0 2.002 . S
O6 C7 1.295 . S
C7 O6 1.295 . S
C7 O9 1.235 . S
C8 O13 1.287 . S
C8 O14 1.255 . S
O9 Fe1 1.997 . S
O9 C7 1.235 . S
C10 O16 1.287 1_556 S
C10 O17 1.255 1_556 S
O11 Fe0 1.976 . S
O11 C18 1.287 . S
O12 Fe1 1.996 . S
O12 C18 1.255 . S
O13 Fe3 1.976 . S
O13 C8 1.287 . S
O14 Fe0 1.996 . S
O14 C8 1.255 . S
C15 O19 1.295 . S
C15 O20 1.235 . S
O16 Fe1 1.976 . S
O16 C10 1.287 1_554 S
O17 Fe3 1.996 . S
O17 C10 1.255 1_554 S
C18 O11 1.287 . S
C18 O12 1.255 . S
O19 Fe1 2.002 . S
O19 C15 1.295 . S
O20 Fe3 1.997 . S
O20 C15 1.235 . S
C21 O4 1.295 . S
C21 O5 1.235 . S
Fe22 O24 1.918 . S
Fe22 O27 1.997 . S
Fe22 O28 2.002 . S
Fe22 O33 1.976 . S
Fe22 O36 1.996 . S
Fe23 O24 1.918 . S
Fe23 O31 1.997 . S
Fe23 O34 1.996 . S
Fe23 O38 1.976 . S
Fe23 O41 2.002 . S
O24 Fe22 1.918 . S
O24 Fe23 1.918 . S
O24 Fe25 1.918 . S
Fe25 O24 1.918 . S
Fe25 O26 2.002 . S
Fe25 O35 1.976 . S
Fe25 O39 1.996 . S
Fe25 O42 1.997 . S
O26 Fe25 2.002 . S
O26 C43 1.295 . S
O27 Fe22 1.997 . S
O27 C43 1.235 . S
O28 Fe22 2.002 . S
O28 C29 1.295 . S
C29 O28 1.295 . S
C29 O31 1.235 . S
C30 O35 1.287 . S
C30 O36 1.255 . S
O31 Fe23 1.997 . S
O31 C29 1.235 . S
C32 O38 1.287 . S
C32 O39 1.255 . S
O33 Fe22 1.976 . S
O33 C40 1.287 . S
O34 Fe23 1.996 . S
O34 C40 1.255 . S
O35 Fe25 1.976 . S
O35 C30 1.287 . S
O36 Fe22 1.996 . S
O36 C30 1.255 . S
C37 O41 1.295 . S
C37 O42 1.235 . S
O38 Fe23 1.976 . S
O38 C32 1.287 . S
O39 Fe25 1.996 . S
O39 C32 1.255 . S
C40 O33 1.287 . S
C40 O34 1.255 . S
O41 Fe23 2.002 . S
O41 C37 1.295 . S
O42 Fe25 1.997 . S
O42 C37 1.235 . S
C43 O26 1.295 . S
C43 O27 1.235 . S
Fe44 O46 1.918 . S
Fe44 O49 1.997 1_554 S
Fe44 O50 2.002 . S
Fe44 O55 1.976 . S
Fe44 O58 1.996 . S
Fe45 O46 1.918 . S
Fe45 O53 1.997 . S
Fe45 O56 1.996 . S
Fe45 O60 1.976 . S
Fe45 O63 2.002 1_554 S
O46 Fe44 1.918 . S
O46 Fe45 1.918 . S
O46 Fe47 1.918 1_554 S
Fe47 O46 1.918 1_556 S
Fe47 O48 2.002 . S
Fe47 O57 1.976 1_556 S
Fe47 O61 1.996 1_556 S
Fe47 O64 1.997 . S
O48 Fe47 2.002 . S
O48 C65 1.295 . S
O49 Fe44 1.997 1_556 S
O49 C65 1.235 . S
O50 Fe44 2.002 . S
O50 C51 1.295 1_554 S
C51 O50 1.295 1_556 S
C51 O53 1.235 1_556 S
C52 O57 1.287 . S
C52 O58 1.255 . S
O53 Fe45 1.997 . S
O53 C51 1.235 1_554 S
C54 O60 1.287 . S
C54 O61 1.255 . S
O55 Fe44 1.976 . S
O55 C62 1.287 . S
O56 Fe45 1.996 . S
O56 C62 1.255 . S
O57 Fe47 1.976 1_554 S
O57 C52 1.287 . S
O58 Fe44 1.996 . S
O58 C52 1.255 . S
C59 O63 1.295 . S
C59 O64 1.235 . S
O60 Fe45 1.976 . S
O60 C54 1.287 . S
O61 Fe47 1.996 1_554 S
O61 C54 1.255 . S
C62 O55 1.287 . S
C62 O56 1.255 . S
O63 Fe45 2.002 1_556 S
O63 C59 1.295 . S
O64 Fe47 1.997 . S
O64 C59 1.235 . S
C65 O48 1.295 . S
C65 O49 1.235 . S
Fe66 O68 1.918 . S
Fe66 O71 1.997 . S
Fe66 O72 2.002 . S
Fe66 O77 1.976 . S
Fe66 O80 1.996 . S
Fe67 O68 1.918 . S
Fe67 O75 1.997 . S
Fe67 O78 1.996 . S
Fe67 O82 1.976 . S
Fe67 O85 2.002 . S
O68 Fe66 1.918 . S
O68 Fe67 1.918 . S
O68 Fe69 1.918 . S
Fe69 O68 1.918 . S
Fe69 O70 2.002 . S
Fe69 O79 1.976 . S
Fe69 O83 1.996 . S
Fe69 O86 1.997 . S
O70 Fe69 2.002 . S
O70 C87 1.295 . S
O71 Fe66 1.997 . S
O71 C87 1.235 . S
O72 Fe66 2.002 . S
O72 C73 1.295 . S
C73 O72 1.295 . S
C73 O75 1.235 . S
C74 O79 1.287 . S
C74 O80 1.255 . S
O75 Fe67 1.997 . S
O75 C73 1.235 . S
C76 O82 1.287 . S
C76 O83 1.255 . S
O77 Fe66 1.976 . S
O77 C84 1.287 . S
O78 Fe67 1.996 . S
O78 C84 1.255 . S
O79 Fe69 1.976 . S
O79 C74 1.287 . S
O80 Fe66 1.996 . S
O80 C74 1.255 . S
C81 O85 1.295 . S
C81 O86 1.235 . S
O82 Fe67 1.976 . S
O82 C76 1.287 . S
O83 Fe69 1.996 . S
O83 C76 1.255 . S
C84 O77 1.287 . S
C84 O78 1.255 . S
O85 Fe67 2.002 . S
O85 C81 1.295 . S
O86 Fe69 1.997 . S
O86 C81 1.235 . S
C87 O70 1.295 . S
C87 O71 1.235 . S
C88 C89 1.264 1_455 S
C88 C93 1.479 1_455 S
C88 C98 1.465 . S
C89 C88 1.264 1_655 S
C89 C91 1.339 . S
C89 H116 0.949 . S
C90 C91 1.395 . S
C90 C92 1.320 . S
C91 C89 1.339 . S
C91 C90 1.395 . S
C91 H117 0.929 . S
C92 C90 1.320 . S
C92 C93 1.405 . S
C92 H118 0.930 . S
C93 C88 1.479 1_655 S
C93 C92 1.405 . S
C93 H119 0.931 1_655 S
U94 O95 2.454 . S
U94 O96 2.458 . S
U94 C97 2.984 . S
U94 C98 2.847 . S
U94 C111 2.882 . S
U94 O112 2.441 . S
U94 O113 2.420 . S
U94 O114 2.455 . S
U94 O115 2.449 . S
O95 U94 2.454 . S
O95 C97 1.353 . S
O96 U94 2.458 . S
O96 C97 1.286 . S
C97 U94 2.984 . S
C97 O95 1.353 . S
C97 O96 1.286 . S
C97 C99 1.363 . S
C98 C88 1.465 . S
C98 U94 2.847 . S
C98 O112 1.249 . S
C98 O113 1.202 . S
C99 C97 1.363 . S
C99 C101 1.408 . S
C99 C104 1.342 . S
C100 C101 1.310 . S
C100 C103 1.461 . S
C100 H120 0.932 . S
C101 C99 1.408 . S
C101 C100 1.310 . S
C101 H121 0.930 . S
C102 C103 1.474 . S
C102 C104 1.285 . S
C102 H122 0.929 . S
C103 C100 1.461 . S
C103 C102 1.474 . S
C104 C99 1.342 . S
C104 C102 1.285 . S
C104 H123 0.930 . S
C105 C108 1.424 . S
C105 C110 1.245 . S
C105 C111 1.428 . S
C106 C109 1.260 1_545 S
C106 C110 1.477 . S
C106 H124 0.932 . S
C107 C108 1.384 . S
C107 C109 1.479 1_545 S
C107 H125 0.929 . S
C108 C105 1.424 . S
C108 C107 1.384 . S
C108 H126 0.928 . S
C109 C106 1.260 1_565 S
C109 C107 1.479 1_565 S
C110 C105 1.245 . S
C110 C106 1.477 . S
C110 H127 0.932 . S
C111 U94 2.882 . S
C111 C105 1.428 . S
C111 O114 1.301 . S
C111 O115 1.282 . S
O112 U94 2.441 . S
O112 C98 1.249 . S
O113 U94 2.420 . S
O113 C98 1.202 . S
O114 U94 2.455 . S
O114 C111 1.301 . S
O115 U94 2.449 . S
O115 C111 1.282 . S
H116 C89 0.949 . S
H117 C91 0.929 . S
H118 C92 0.930 . S
H119 C93 0.931 1_455 S
H120 C100 0.932 . S
H121 C101 0.930 . S
H122 C102 0.929 . S
H123 C104 0.930 . S
H124 C106 0.932 . S
H125 C107 0.929 . S
H126 C108 0.928 . S
H127 C110 0.932 . S
C128 C129 1.264 . S
C128 C133 1.479 . S
C128 C138 1.465 . S
C129 C128 1.264 . S
C129 C131 1.339 . S
C129 H156 0.931 . S
C130 C131 1.395 . S
C130 C132 1.320 . S
C131 C129 1.339 . S
C131 C130 1.395 . S
C131 H157 0.929 . S
C132 C130 1.320 . S
C132 C133 1.405 . S
C132 H158 0.930 . S
C133 C128 1.479 . S
C133 C132 1.405 . S
C133 H159 0.931 . S
U134 O135 2.454 . S
U134 O136 2.458 . S
U134 C137 2.984 . S
U134 C138 2.847 . S
U134 C151 2.882 . S
U134 O152 2.441 . S
U134 O153 2.420 . S
U134 O154 2.455 . S
U134 O155 2.449 . S
O135 U134 2.454 . S
O135 C137 1.353 . S
O136 U134 2.458 . S
O136 C137 1.286 . S
C137 U134 2.984 . S
C137 O135 1.353 . S
C137 O136 1.286 . S
C137 C139 1.363 . S
C138 C128 1.465 . S
C138 U134 2.847 . S
C138 O152 1.249 . S
C138 O153 1.202 . S
C139 C137 1.363 . S
C139 C141 1.408 . S
C139 C144 1.342 . S
C140 C141 1.310 . S
C140 C143 1.461 . S
C140 H160 0.932 . S
C141 C139 1.408 . S
C141 C140 1.310 . S
C141 H161 0.930 . S
C142 C143 1.474 . S
C142 C144 1.285 . S
C142 H162 0.929 . S
C143 C140 1.461 . S
C143 C142 1.474 . S
C144 C139 1.342 . S
C144 C142 1.285 . S
C144 H163 0.930 . S
C145 C148 1.424 . S
C145 C150 1.245 . S
C145 C151 1.428 . S
C146 C149 1.260 . S
C146 C150 1.477 . S
C146 H164 0.932 . S
C147 C148 1.384 . S
C147 C149 1.479 . S
C147 H165 0.929 . S
C148 C145 1.424 . S
C148 C147 1.384 . S
C148 H166 0.928 . S
C149 C146 1.260 . S
C149 C147 1.479 . S
C150 C145 1.245 . S
C150 C146 1.477 . S
C150 H167 0.932 . S
C151 U134 2.882 . S
C151 C145 1.428 . S
C151 O154 1.301 . S
C151 O155 1.282 . S
O152 U134 2.441 . S
O152 C138 1.249 . S
O153 U134 2.420 . S
O153 C138 1.202 . S
O154 U134 2.455 . S
O154 C151 1.301 . S
O155 U134 2.449 . S
O155 C151 1.282 . S
H156 C129 0.931 . S
H157 C131 0.929 . S
H158 C132 0.930 . S
H159 C133 0.931 . S
H160 C140 0.932 . S
H161 C141 0.930 . S
H162 C142 0.929 . S
H163 C144 0.930 . S
H164 C146 0.932 . S
H165 C147 0.929 . S
H166 C148 0.928 . S
H167 C150 0.932 . S
C168 C169 1.264 . S
C168 C173 1.479 . S
C168 C178 1.465 . S
C169 C168 1.264 . S
C169 C171 1.339 . S
C169 H196 0.931 . S
C170 C171 1.395 . S
C170 C172 1.320 . S
C171 C169 1.339 . S
C171 C170 1.395 . S
C171 H197 0.929 . S
C172 C170 1.320 . S
C172 C173 1.405 . S
C172 H198 0.930 . S
C173 C168 1.479 . S
C173 C172 1.405 . S
C173 H199 0.931 . S
U174 O175 2.454 . S
U174 O176 2.458 . S
U174 C177 2.984 . S
U174 C178 2.847 . S
U174 C191 2.882 . S
U174 O192 2.441 . S
U174 O193 2.420 . S
U174 O194 2.455 . S
U174 O195 2.449 . S
O175 U174 2.454 . S
O175 C177 1.353 . S
O176 U174 2.458 . S
O176 C177 1.286 . S
C177 U174 2.984 . S
C177 O175 1.353 . S
C177 O176 1.286 . S
C177 C179 1.363 . S
C178 C168 1.465 . S
C178 U174 2.847 . S
C178 O192 1.249 . S
C178 O193 1.202 . S
C179 C177 1.363 . S
C179 C181 1.408 . S
C179 C184 1.342 . S
C180 C181 1.310 . S
C180 C183 1.461 . S
C180 H200 0.932 . S
C181 C179 1.408 . S
C181 C180 1.310 . S
C181 H201 0.930 . S
C182 C183 1.474 . S
C182 C184 1.285 . S
C182 H202 0.929 . S
C183 C180 1.461 . S
C183 C182 1.474 . S
C184 C179 1.342 . S
C184 C182 1.285 . S
C184 H203 0.930 . S
C185 C188 1.424 . S
C185 C190 1.245 . S
C185 C191 1.428 . S
C186 C189 1.260 . S
C186 C190 1.477 . S
C186 H204 0.932 . S
C187 C188 1.384 . S
C187 C189 1.479 . S
C187 H205 0.929 . S
C188 C185 1.424 . S
C188 C187 1.384 . S
C188 H206 0.928 . S
C189 C186 1.260 . S
C189 C187 1.479 . S
C190 C185 1.245 . S
C190 C186 1.477 . S
C190 H207 0.932 . S
C191 U174 2.882 . S
C191 C185 1.428 . S
C191 O194 1.301 . S
C191 O195 1.282 . S
O192 U174 2.441 . S
O192 C178 1.249 . S
O193 U174 2.420 . S
O193 C178 1.202 . S
O194 U174 2.455 . S
O194 C191 1.301 . S
O195 U174 2.449 . S
O195 C191 1.282 . S
H196 C169 0.931 . S
H197 C171 0.929 . S
H198 C172 0.930 . S
H199 C173 0.931 . S
H200 C180 0.932 . S
H201 C181 0.930 . S
H202 C182 0.929 . S
H203 C184 0.930 . S
H204 C186 0.932 . S
H205 C187 0.929 . S
H206 C188 0.928 . S
H207 C190 0.932 . S
C208 C209 1.264 . S
C208 C213 1.479 . S
C208 C218 1.465 . S
C209 C208 1.264 . S
C209 C211 1.339 . S
C209 H236 0.931 . S
C210 C211 1.395 . S
C210 C212 1.320 . S
C211 C209 1.339 . S
C211 C210 1.395 . S
C211 H237 0.929 . S
C212 C210 1.320 . S
C212 C213 1.405 . S
C212 H238 0.930 . S
C213 C208 1.479 . S
C213 C212 1.405 . S
C213 H239 0.931 . S
U214 O215 2.454 . S
U214 O216 2.458 . S
U214 C217 2.984 . S
U214 C218 2.847 . S
U214 C231 2.882 . S
U214 O232 2.441 . S
U214 O233 2.420 . S
U214 O234 2.455 . S
U214 O235 2.449 . S
O215 U214 2.454 . S
O215 C217 1.353 . S
O216 U214 2.458 . S
O216 C217 1.286 . S
C217 U214 2.984 . S
C217 O215 1.353 . S
C217 O216 1.286 . S
C217 C219 1.363 . S
C218 C208 1.465 . S
C218 U214 2.847 . S
C218 O232 1.249 . S
C218 O233 1.202 . S
C219 C217 1.363 . S
C219 C221 1.408 . S
C219 C224 1.342 . S
C220 C221 1.310 . S
C220 C223 1.461 . S
C220 H240 0.932 . S
C221 C219 1.408 . S
C221 C220 1.310 . S
C221 H241 0.930 . S
C222 C223 1.474 . S
C222 C224 1.285 . S
C222 H242 0.929 . S
C223 C220 1.461 . S
C223 C222 1.474 . S
C224 C219 1.342 . S
C224 C222 1.285 . S
C224 H243 0.930 . S
C225 C228 1.424 . S
C225 C230 1.245 . S
C225 C231 1.428 . S
C226 C229 1.260 . S
C226 C230 1.477 . S
C226 H244 0.932 . S
C227 C228 1.384 . S
C227 C229 1.479 . S
C227 H245 0.929 . S
C228 C225 1.424 . S
C228 C227 1.384 . S
C228 H246 0.928 . S
C229 C226 1.260 . S
C229 C227 1.479 . S
C230 C225 1.245 . S
C230 C226 1.477 . S
C230 H247 0.932 . S
C231 U214 2.882 . S
C231 C225 1.428 . S
C231 O234 1.301 . S
C231 O235 1.282 . S
O232 U214 2.441 . S
O232 C218 1.249 . S
O233 U214 2.420 . S
O233 C218 1.202 . S
O234 U214 2.455 . S
O234 C231 1.301 . S
O235 U214 2.449 . S
O235 C231 1.282 . S
H236 C209 0.931 . S
H237 C211 0.929 . S
H238 C212 0.930 . S
H239 C213 0.931 . S
H240 C220 0.932 . S
H241 C221 0.930 . S
H242 C222 0.929 . S
H243 C224 0.930 . S
H244 C226 0.932 . S
H245 C227 0.929 . S
H246 C228 0.928 . S
H247 C230 0.932 . S
C248 C249 1.264 . S
C248 C253 1.479 . S
C248 C258 1.465 . S
C249 C248 1.264 . S
C249 C251 1.339 . S
C249 H276 0.931 . S
C250 C251 1.395 . S
C250 C252 1.320 . S
C251 C249 1.339 . S
C251 C250 1.395 . S
C251 H277 0.929 . S
C252 C250 1.320 . S
C252 C253 1.405 . S
C252 H278 0.930 . S
C253 C248 1.479 . S
C253 C252 1.405 . S
C253 H279 0.931 . S
U254 O255 2.454 . S
U254 O256 2.458 . S
U254 C257 2.984 . S
U254 C258 2.847 . S
U254 C271 2.882 . S
U254 O272 2.441 . S
U254 O273 2.420 . S
U254 O274 2.455 . S
U254 O275 2.449 . S
O255 U254 2.454 . S
O255 C257 1.353 . S
O256 U254 2.458 . S
O256 C257 1.286 . S
C257 U254 2.984 . S
C257 O255 1.353 . S
C257 O256 1.286 . S
C257 C259 1.363 . S
C258 C248 1.465 . S
C258 U254 2.847 . S
C258 O272 1.249 . S
C258 O273 1.202 . S
C259 C257 1.363 . S
C259 C261 1.408 . S
C259 C264 1.342 . S
C260 C261 1.310 . S
C260 C263 1.461 . S
C260 H280 0.932 . S
C261 C259 1.408 . S
C261 C260 1.310 . S
C261 H281 0.930 . S
C262 C263 1.474 . S
C262 C264 1.285 . S
C262 H282 0.929 . S
C263 C260 1.461 . S
C263 C262 1.474 . S
C264 C259 1.342 . S
C264 C262 1.285 . S
C264 H283 0.930 . S
C265 C268 1.424 . S
C265 C270 1.245 . S
C265 C271 1.428 . S
C266 C269 1.260 . S
C266 C270 1.477 . S
C266 H284 0.932 . S
C267 C268 1.384 . S
C267 C269 1.479 . S
C267 H285 0.929 . S
C268 C265 1.424 . S
C268 C267 1.384 . S
C268 H286 0.928 . S
C269 C266 1.260 . S
C269 C267 1.479 . S
C270 C265 1.245 . S
C270 C266 1.477 . S
C270 H287 0.932 . S
C271 U254 2.882 . S
C271 C265 1.428 . S
C271 O274 1.301 . S
C271 O275 1.282 . S
O272 U254 2.441 . S
O272 C258 1.249 . S
O273 U254 2.420 . S
O273 C258 1.202 . S
O274 U254 2.455 . S
O274 C271 1.301 . S
O275 U254 2.449 . S
O275 C271 1.282 . S
H276 C249 0.931 . S
H277 C251 0.929 . S
H278 C252 0.930 . S
H279 C253 0.931 . S
H280 C260 0.932 . S
H281 C261 0.930 . S
H282 C262 0.929 . S
H283 C264 0.930 . S
H284 C266 0.932 . S
H285 C267 0.929 . S
H286 C268 0.928 . S
H287 C270 0.932 . S
C288 C289 1.264 . S
C288 C293 1.479 . S
C288 C298 1.465 . S
C289 C288 1.264 . S
C289 C291 1.339 . S
C289 H316 0.931 . S
C290 C291 1.395 . S
C290 C292 1.320 . S
C291 C289 1.339 . S
C291 C290 1.395 . S
C291 H317 0.929 . S
C292 C290 1.320 . S
C292 C293 1.405 . S
C292 H318 0.930 . S
C293 C288 1.479 . S
C293 C292 1.405 . S
C293 H319 0.931 . S
U294 O295 2.454 . S
U294 O296 2.458 . S
U294 C297 2.984 . S
U294 C298 2.847 . S
U294 C311 2.882 . S
U294 O312 2.441 . S
U294 O313 2.420 . S
U294 O314 2.455 . S
U294 O315 2.449 . S
O295 U294 2.454 . S
O295 C297 1.353 . S
O296 U294 2.458 . S
O296 C297 1.286 . S
C297 U294 2.984 . S
C297 O295 1.353 . S
C297 O296 1.286 . S
C297 C299 1.363 . S
C298 C288 1.465 . S
C298 U294 2.847 . S
C298 O312 1.249 . S
C298 O313 1.202 . S
C299 C297 1.363 . S
C299 C301 1.408 . S
C299 C304 1.342 . S
C300 C301 1.310 . S
C300 C303 1.461 . S
C300 H320 0.932 . S
C301 C299 1.408 . S
C301 C300 1.310 . S
C301 H321 0.930 . S
C302 C303 1.474 . S
C302 C304 1.285 . S
C302 H322 0.929 . S
C303 C300 1.461 . S
C303 C302 1.474 . S
C304 C299 1.342 . S
C304 C302 1.285 . S
C304 H323 0.930 . S
C305 C308 1.424 . S
C305 C310 1.245 . S
C305 C311 1.428 . S
C306 C309 1.260 . S
C306 C310 1.477 . S
C306 H324 0.932 . S
C307 C308 1.384 . S
C307 C309 1.479 . S
C307 H325 0.929 1_556 S
C308 C305 1.424 . S
C308 C307 1.384 . S
C308 H326 0.928 . S
C309 C306 1.260 . S
C309 C307 1.479 . S
C310 C305 1.245 . S
C310 C306 1.477 . S
C310 H327 0.932 . S
C311 U294 2.882 . S
C311 C305 1.428 . S
C311 O314 1.301 . S
C311 O315 1.282 . S
O312 U294 2.441 . S
O312 C298 1.249 . S
O313 U294 2.420 . S
O313 C298 1.202 . S
O314 U294 2.455 . S
O314 C311 1.301 . S
O315 U294 2.449 . S
O315 C311 1.282 . S
H316 C289 0.931 . S
H317 C291 0.929 . S
H318 C292 0.930 . S
H319 C293 0.931 . S
H320 C300 0.932 . S
H321 C301 0.930 . S
H322 C302 0.929 . S
H323 C304 0.930 . S
H324 C306 0.932 . S
H325 C307 0.929 1_554 S
H326 C308 0.928 . S
H327 C310 0.932 . S
C328 C329 1.264 . S
C328 C333 1.479 . S
C328 C338 1.465 . S
C329 C328 1.264 . S
C329 C331 1.339 . S
C329 H356 0.931 . S
C330 C331 1.395 . S
C330 C332 1.320 . S
C331 C329 1.339 . S
C331 C330 1.395 . S
C331 H357 0.929 . S
C332 C330 1.320 . S
C332 C333 1.405 . S
C332 H358 0.930 . S
C333 C328 1.479 . S
C333 C332 1.405 . S
C333 H359 0.931 . S
U334 O335 2.454 . S
U334 O336 2.458 . S
U334 C337 2.984 . S
U334 C338 2.847 . S
U334 C351 2.882 . S
U334 O352 2.441 . S
U334 O353 2.420 . S
U334 O354 2.455 . S
U334 O355 2.449 . S
O335 U334 2.454 . S
O335 C337 1.353 . S
O336 U334 2.458 . S
O336 C337 1.286 . S
C337 U334 2.984 . S
C337 O335 1.353 . S
C337 O336 1.286 . S
C337 C339 1.363 . S
C338 C328 1.465 . S
C338 U334 2.847 . S
C338 O352 1.249 . S
C338 O353 1.202 . S
C339 C337 1.363 . S
C339 C341 1.408 . S
C339 C344 1.342 . S
C340 C341 1.310 . S
C340 C343 1.461 . S
C340 H360 0.932 . S
C341 C339 1.408 . S
C341 C340 1.310 . S
C341 H361 0.930 . S
C342 C343 1.474 . S
C342 C344 1.285 . S
C342 H362 0.929 . S
C343 C340 1.461 . S
C343 C342 1.474 . S
C344 C339 1.342 . S
C344 C342 1.285 . S
C344 H363 0.930 . S
C345 C348 1.424 . S
C345 C350 1.245 . S
C345 C351 1.428 . S
C346 C349 1.260 . S
C346 C350 1.477 . S
C346 H364 0.932 . S
C347 C348 1.384 . S
C347 C349 1.479 . S
C347 H365 0.929 . S
C348 C345 1.424 . S
C348 C347 1.384 . S
C348 H366 0.928 . S
C349 C346 1.260 . S
C349 C347 1.479 . S
C350 C345 1.245 . S
C350 C346 1.477 . S
C350 H367 0.932 . S
C351 U334 2.882 . S
C351 C345 1.428 . S
C351 O354 1.301 . S
C351 O355 1.282 . S
O352 U334 2.441 . S
O352 C338 1.249 . S
O353 U334 2.420 . S
O353 C338 1.202 . S
O354 U334 2.455 . S
O354 C351 1.301 . S
O355 U334 2.449 . S
O355 C351 1.282 . S
H356 C329 0.931 . S
H357 C331 0.929 . S
H358 C332 0.930 . S
H359 C333 0.931 . S
H360 C340 0.932 . S
H361 C341 0.930 . S
H362 C342 0.929 . S
H363 C344 0.930 . S
H364 C346 0.932 . S
H365 C347 0.929 . S
H366 C348 0.928 . S
H367 C350 0.932 . S
C368 C369 1.264 . S
C368 C373 1.479 . S
C368 C378 1.465 . S
C369 C368 1.264 . S
C369 C371 1.339 . S
C369 H396 0.931 . S
C370 C371 1.395 1_545 S
C370 C372 1.320 1_545 S
C371 C369 1.339 . S
C371 C370 1.395 1_565 S
C371 H397 0.929 . S
C372 C370 1.320 1_565 S
C372 C373 1.405 . S
C372 H398 0.930 1_565 S
C373 C368 1.479 . S
C373 C372 1.405 . S
C373 H399 0.931 . S
U374 O375 2.454 . S
U374 O376 2.458 . S
U374 C377 2.984 . S
U374 C378 2.847 . S
U374 C391 2.882 . S
U374 O392 2.441 . S
U374 O393 2.420 . S
U374 O394 2.455 . S
U374 O395 2.449 . S
O375 U374 2.454 . S
O375 C377 1.353 . S
O376 U374 2.458 . S
O376 C377 1.286 . S
C377 U374 2.984 . S
C377 O375 1.353 . S
C377 O376 1.286 . S
C377 C379 1.363 . S
C378 C368 1.465 . S
C378 U374 2.847 . S
C378 O392 1.249 . S
C378 O393 1.202 . S
C379 C377 1.363 . S
C379 C381 1.408 . S
C379 C384 1.342 . S
C380 C381 1.310 . S
C380 C383 1.461 . S
C380 H400 0.932 . S
C381 C379 1.408 . S
C381 C380 1.310 . S
C381 H401 0.930 . S
C382 C383 1.474 . S
C382 C384 1.285 . S
C382 H402 0.929 . S
C383 C380 1.461 . S
C383 C382 1.474 . S
C384 C379 1.342 . S
C384 C382 1.285 . S
C384 H403 0.930 . S
C385 C388 1.424 1_655 S
C385 C390 1.245 1_655 S
C385 C391 1.428 . S
C386 C389 1.260 . S
C386 C390 1.477 . S
C386 H404 0.932 . S
C387 C388 1.384 . S
C387 C389 1.479 . S
C387 H405 0.929 . S
C388 C385 1.424 1_455 S
C388 C387 1.384 . S
C388 H406 0.928 . S
C389 C386 1.260 . S
C389 C387 1.479 . S
C390 C385 1.245 1_455 S
C390 C386 1.477 . S
C390 H407 0.932 1_455 S
C391 U374 2.882 . S
C391 C385 1.428 . S
C391 O394 1.301 . S
C391 O395 1.282 . S
O392 U374 2.441 . S
O392 C378 1.249 . S
O393 U374 2.420 . S
O393 C378 1.202 . S
O394 U374 2.455 . S
O394 C391 1.301 . S
O395 U374 2.449 . S
O395 C391 1.282 . S
H396 C369 0.931 . S
H397 C371 0.929 . S
H398 C372 0.930 1_545 S
H399 C373 0.931 . S
H400 C380 0.932 . S
H401 C381 0.930 . S
H402 C382 0.929 . S
H403 C384 0.930 . S
H404 C386 0.932 . S
H405 C387 0.929 . S
H406 C388 0.928 . S
H407 C390 0.932 1_655 S
H408 C414 0.930 . S
H409 C417 0.930 . S
H410 C418 0.930 . S
H411 C419 0.930 . S
H412 C422 0.930 . S
H413 C423 0.930 . S
C414 H408 0.930 . S
C414 C415 1.355 . S
C414 C416 1.415 . S
C415 C414 1.355 . S
C415 C417 1.419 . S
C416 C414 1.415 . S
C416 C421 1.425 . S
C416 C423 1.409 . S
C417 H409 0.930 . S
C417 C415 1.419 . S
C417 C418 1.362 . S
C418 H410 0.930 . S
C418 C417 1.362 . S
C418 C421 1.409 . S
C419 H411 0.930 . S
C419 C420 1.355 . S
C419 C421 1.415 . S
C420 C419 1.355 . S
C420 C422 1.419 . S
C421 C416 1.425 . S
C421 C418 1.409 . S
C421 C419 1.415 . S
C422 H412 0.930 . S
C422 C420 1.419 . S
C422 C423 1.362 . S
C423 H413 0.930 . S
C423 C416 1.409 . S
C423 C422 1.362 . S
H424 C430 0.930 . S
H425 C433 0.930 . S
H426 C434 0.930 . S
H427 C435 0.930 . S
H428 C438 0.930 . S
H429 C439 0.930 . S
C430 H424 0.930 . S
C430 C431 1.355 . S
C430 C432 1.415 . S
C431 C430 1.355 . S
C431 C433 1.419 . S
C432 C430 1.415 . S
C432 C437 1.425 . S
C432 C439 1.409 . S
C433 H425 0.930 . S
C433 C431 1.419 . S
C433 C434 1.362 . S
C434 H426 0.930 . S
C434 C433 1.362 . S
C434 C437 1.409 . S
C435 H427 0.930 . S
C435 C436 1.355 . S
C435 C437 1.415 . S
C436 C435 1.355 . S
C436 C438 1.419 . S
C437 C432 1.425 . S
C437 C434 1.409 . S
C437 C435 1.415 . S
C438 H428 0.930 . S
C438 C436 1.419 . S
C438 C439 1.362 . S
C439 H429 0.930 . S
C439 C432 1.409 . S
C439 C438 1.362 . S
H440 C446 0.930 . S
H441 C449 0.930 . S
H442 C450 0.930 . S
H443 C451 0.930 . S
H444 C454 0.930 . S
H445 C455 0.930 . S
C446 H440 0.930 . S
C446 C447 1.355 . S
C446 C448 1.415 . S
C447 C446 1.355 . S
C447 C449 1.419 . S
C448 C446 1.415 . S
C448 C453 1.425 . S
C448 C455 1.409 . S
C449 H441 0.930 . S
C449 C447 1.419 . S
C449 C450 1.362 . S
C450 H442 0.930 . S
C450 C449 1.362 . S
C450 C453 1.409 . S
C451 H443 0.930 . S
C451 C452 1.355 . S
C451 C453 1.415 1_565 S
C452 C451 1.355 . S
C452 C454 1.419 1_565 S
C453 C448 1.425 . S
C453 C450 1.409 . S
C453 C451 1.415 1_545 S
C454 H444 0.930 . S
C454 C452 1.419 1_545 S
C454 C455 1.362 . S
C455 H445 0.930 . S
C455 C448 1.409 . S
C455 C454 1.362 . S
H456 C462 0.930 . S
H457 C465 0.930 . S
H458 C466 0.930 . S
H459 C467 0.930 . S
H460 C470 0.930 . S
H461 C471 0.930 . S
C462 H456 0.930 . S
C462 C463 1.355 . S
C462 C464 1.415 . S
C463 C462 1.355 . S
C463 C465 1.419 . S
C464 C462 1.415 . S
C464 C469 1.425 . S
C464 C471 1.409 . S
C465 H457 0.930 . S
C465 C463 1.419 . S
C465 C466 1.362 . S
C466 H458 0.930 . S
C466 C465 1.362 . S
C466 C469 1.409 . S
C467 H459 0.930 . S
C467 C468 1.355 . S
C467 C469 1.415 . S
C468 C467 1.355 . S
C468 C470 1.419 . S
C469 C464 1.425 . S
C469 C466 1.409 . S
C469 C467 1.415 . S
C470 H460 0.930 . S
C470 C468 1.419 . S
C470 C471 1.362 . S
C471 H461 0.930 . S
C471 C464 1.409 . S
C471 C470 1.362 . S
H472 C478 0.930 . S
H473 C481 0.930 . S
H474 C482 0.930 . S
H475 C483 0.930 . S
H476 C486 0.930 . S
H477 C487 0.930 . S
C478 H472 0.930 . S
C478 C479 1.355 . S
C478 C480 1.415 . S
C479 C478 1.355 . S
C479 C481 1.419 . S
C480 C478 1.415 . S
C480 C485 1.425 . S
C480 C487 1.409 . S
C481 H473 0.930 . S
C481 C479 1.419 . S
C481 C482 1.362 . S
C482 H474 0.930 . S
C482 C481 1.362 . S
C482 C485 1.409 . S
C483 H475 0.930 . S
C483 C484 1.355 . S
C483 C485 1.415 . S
C484 C483 1.355 . S
C484 C486 1.419 . S
C485 C480 1.425 . S
C485 C482 1.409 . S
C485 C483 1.415 . S
C486 H476 0.930 . S
C486 C484 1.419 . S
C486 C487 1.362 . S
C487 H477 0.930 . S
C487 C480 1.409 . S
C487 C486 1.362 . S
H488 C494 0.930 . S
H489 C497 0.930 . S
H490 C498 0.930 . S
H491 C499 0.934 . S
H492 C502 0.930 . S
H493 C503 0.930 . S
C494 H488 0.930 . S
C494 C495 1.355 . S
C494 C496 1.415 . S
C495 C494 1.355 . S
C495 C497 1.419 1_556 S
C496 C494 1.415 . S
C496 C501 1.425 1_655 S
C496 C503 1.409 1_655 S
C497 H489 0.930 . S
C497 C495 1.419 1_554 S
C497 C498 1.362 . S
C498 H490 0.930 . S
C498 C497 1.362 . S
C498 C501 1.409 1_654 S
C499 H491 0.934 . S
C499 C500 1.351 1_554 S
C499 C501 1.414 1_554 S
C500 C499 1.351 1_556 S
C500 C502 1.419 . S
C501 C496 1.425 1_455 S
C501 C498 1.409 1_456 S
C501 C499 1.414 1_556 S
C502 H492 0.930 . S
C502 C500 1.419 . S
C502 C503 1.362 . S
C503 H493 0.930 . S
C503 C496 1.409 1_455 S
C503 C502 1.362 . S
H504 C510 0.930 . S
H505 C513 0.930 . S
H506 C514 0.930 . S
H507 C515 0.930 . S
H508 C518 0.930 . S
H509 C519 0.930 . S
C510 H504 0.930 . S
C510 C511 1.355 . S
C510 C512 1.415 . S
C511 C510 1.355 . S
C511 C513 1.419 . S
C512 C510 1.415 . S
C512 C517 1.425 . S
C512 C519 1.409 . S
C513 H505 0.930 . S
C513 C511 1.419 . S
C513 C514 1.362 . S
C514 H506 0.930 . S
C514 C513 1.362 . S
C514 C517 1.409 . S
C515 H507 0.930 . S
C515 C516 1.355 . S
C515 C517 1.415 . S
C516 C515 1.355 . S
C516 C518 1.419 . S
C517 C512 1.425 . S
C517 C514 1.409 . S
C517 C515 1.415 . S
C518 H508 0.930 . S
C518 C516 1.419 . S
C518 C519 1.362 . S
C519 H509 0.930 . S
C519 C512 1.409 . S
C519 C518 1.362 . S
H520 C526 0.930 . S
H521 C529 0.930 . S
H522 C530 0.930 . S
H523 C531 0.930 . S
H524 C534 0.930 . S
H525 C535 0.930 . S
C526 H520 0.930 . S
C526 C527 1.355 . S
C526 C528 1.415 . S
C527 C526 1.355 . S
C527 C529 1.419 . S
C528 C526 1.415 . S
C528 C533 1.425 . S
C528 C535 1.409 . S
C529 H521 0.930 . S
C529 C527 1.419 . S
C529 C530 1.362 . S
C530 H522 0.930 . S
C530 C529 1.362 . S
C530 C533 1.409 . S
C531 H523 0.930 . S
C531 C532 1.355 . S
C531 C533 1.415 . S
C532 C531 1.355 . S
C532 C534 1.419 . S
C533 C528 1.425 . S
C533 C530 1.409 . S
C533 C531 1.415 . S
C534 H524 0.930 . S
C534 C532 1.419 . S
C534 C535 1.362 . S
C535 H525 0.930 . S
C535 C528 1.409 . S
C535 C534 1.362 . S
H536 C542 0.930 . S
H537 C545 0.930 . S
H538 C546 0.930 . S
H539 C547 0.930 . S
H540 C550 0.930 . S
H541 C551 0.930 . S
C542 H536 0.930 . S
C542 C543 1.355 . S
C542 C544 1.415 . S
C543 C542 1.355 . S
C543 C545 1.419 . S
C544 C542 1.415 . S
C544 C549 1.425 . S
C544 C551 1.409 . S
C545 H537 0.930 . S
C545 C543 1.419 . S
C545 C546 1.362 . S
C546 H538 0.930 . S
C546 C545 1.362 . S
C546 C549 1.409 . S
C547 H539 0.930 . S
C547 C548 1.355 . S
C547 C549 1.415 . S
C548 C547 1.355 . S
C548 C550 1.419 . S
C549 C544 1.425 . S
C549 C546 1.409 . S
C549 C547 1.415 . S
C550 H540 0.930 . S
C550 C548 1.419 . S
C550 C551 1.362 . S
C551 H541 0.930 . S
C551 C544 1.409 . S
C551 C550 1.362 . S
H552 C558 0.930 . S
H553 C561 0.930 . S
H554 C562 0.930 . S
H555 C563 0.930 . S
H556 C566 0.930 . S
H557 C567 0.930 . S
C558 H552 0.930 . S
C558 C559 1.355 . S
C558 C560 1.415 . S
C559 C558 1.355 . S
C559 C561 1.419 . S
C560 C558 1.415 . S
C560 C565 1.425 . S
C560 C567 1.409 . S
C561 H553 0.930 . S
C561 C559 1.419 . S
C561 C562 1.362 . S
C562 H554 0.930 . S
C562 C561 1.362 . S
C562 C565 1.409 . S
C563 H555 0.930 . S
C563 C564 1.355 . S
C563 C565 1.415 . S
C564 C563 1.355 . S
C564 C566 1.419 . S
C565 C560 1.425 . S
C565 C562 1.409 . S
C565 C563 1.415 . S
C566 H556 0.930 . S
C566 C564 1.419 . S
C566 C567 1.362 . S
C567 H557 0.930 . S
C567 C560 1.409 . S
C567 C566 1.362 . S
H568 C574 0.930 1_556 S
H569 C577 0.930 . S
H570 C578 0.930 . S
H571 C579 0.930 . S
H572 C582 0.930 . S
H573 C583 0.930 . S
C574 H568 0.930 1_554 S
C574 C575 1.355 . S
C574 C576 1.411 1_554 S
C575 C574 1.355 . S
C575 C577 1.419 . S
C576 C574 1.411 1_556 S
C576 C581 1.412 1_556 S
C576 C583 1.425 . S
C577 H569 0.930 . S
C577 C575 1.419 . S
C577 C578 1.362 . S
C578 H570 0.930 . S
C578 C577 1.362 . S
C578 C581 1.409 . S
C579 H571 0.930 . S
C579 C580 1.355 1_554 S
C579 C581 1.415 1_545 S
C580 C579 1.355 1_556 S
C580 C582 1.419 1_545 S
C581 C576 1.412 1_554 S
C581 C578 1.409 . S
C581 C579 1.415 1_565 S
C582 H572 0.930 . S
C582 C580 1.419 1_565 S
C582 C583 1.362 . S
C583 H573 0.930 . S
C583 C576 1.425 . S
C583 C582 1.362 . S
H584 C590 0.930 . S
H585 C593 0.930 . S
H586 C594 0.930 . S
H587 C595 0.930 . S
H588 C598 0.930 . S
H589 C599 0.930 . S
C590 H584 0.930 . S
C590 C591 1.355 . S
C590 C592 1.415 . S
C591 C590 1.355 . S
C591 C593 1.419 . S
C592 C590 1.415 . S
C592 C597 1.425 . S
C592 C599 1.409 . S
C593 H585 0.930 . S
C593 C591 1.419 . S
C593 C594 1.362 . S
C594 H586 0.930 . S
C594 C593 1.362 . S
C594 C597 1.409 . S
C595 H587 0.930 . S
C595 C596 1.355 . S
C595 C597 1.415 . S
C596 C595 1.355 . S
C596 C598 1.419 . S
C597 C592 1.425 . S
C597 C594 1.409 . S
C597 C595 1.415 . S
C598 H588 0.930 . S
C598 C596 1.419 . S
C598 C599 1.362 . S
C599 H589 0.930 . S
C599 C592 1.409 . S
C599 C598 1.362 . S
H600 C606 0.930 . S
H601 C609 0.930 . S
H602 C610 0.930 . S
H603 C611 0.930 . S
H604 C614 0.930 . S
H605 C615 0.930 . S
C606 H600 0.930 . S
C606 C607 1.355 . S
C606 C608 1.415 . S
C607 C606 1.355 . S
C607 C609 1.419 . S
C608 C606 1.415 . S
C608 C613 1.425 . S
C608 C615 1.409 . S
C609 H601 0.930 . S
C609 C607 1.419 . S
C609 C610 1.362 . S
C610 H602 0.930 . S
C610 C609 1.362 . S
C610 C613 1.409 . S
C611 H603 0.930 . S
C611 C612 1.355 . S
C611 C613 1.415 . S
C612 C611 1.355 . S
C612 C614 1.419 . S
C613 C608 1.425 . S
C613 C610 1.409 . S
C613 C611 1.415 . S
C614 H604 0.930 . S
C614 C612 1.419 . S
C614 C615 1.362 . S
C615 H605 0.930 . S
C615 C608 1.409 . S
C615 C614 1.362 . S
H616 C622 0.930 . S
H617 C625 0.930 . S
H618 C626 0.930 . S
H619 C627 0.930 . S
H620 C630 0.930 . S
H621 C631 0.930 . S
C622 H616 0.930 . S
C622 C623 1.355 . S
C622 C624 1.415 . S
C623 C622 1.355 . S
C623 C625 1.419 . S
C624 C622 1.415 . S
C624 C629 1.425 1_455 S
C624 C631 1.409 1_455 S
C625 H617 0.930 . S
C625 C623 1.419 . S
C625 C626 1.362 . S
C626 H618 0.930 . S
C626 C625 1.362 . S
C626 C629 1.409 1_455 S
C627 H619 0.930 . S
C627 C628 1.355 . S
C627 C629 1.415 . S
C628 C627 1.355 . S
C628 C630 1.419 . S
C629 C624 1.425 1_655 S
C629 C626 1.409 1_655 S
C629 C627 1.415 . S
C630 H620 0.930 . S
C630 C628 1.419 . S
C630 C631 1.362 . S
C631 H621 0.930 . S
C631 C624 1.409 1_655 S
C631 C630 1.362 . S
H632 C638 0.930 . S
H633 C641 0.930 . S
H634 C642 0.930 . S
H635 C643 0.930 . S
H636 C646 0.930 . S
H637 C647 0.930 . S
C638 H632 0.930 . S
C638 C639 1.355 . S
C638 C640 1.415 . S
C639 C638 1.355 . S
C639 C641 1.419 . S
C640 C638 1.415 . S
C640 C645 1.425 . S
C640 C647 1.409 . S
C641 H633 0.930 . S
C641 C639 1.419 . S
C641 C642 1.362 . S
C642 H634 0.930 . S
C642 C641 1.362 . S
C642 C645 1.409 . S
C643 H635 0.930 . S
C643 C644 1.355 . S
C643 C645 1.415 . S
C644 C643 1.355 . S
C644 C646 1.419 . S
C645 C640 1.425 . S
C645 C642 1.409 . S
C645 C643 1.415 . S
C646 H636 0.930 . S
C646 C644 1.419 . S
C646 C647 1.362 . S
C647 H637 0.930 . S
C647 C640 1.409 . S
C647 C646 1.362 . S
H648 C654 0.930 . S
H649 C657 0.930 . S
H650 C658 0.930 . S
H651 C659 0.930 . S
H652 C662 0.930 . S
H653 C663 0.930 . S
C654 H648 0.930 . S
C654 C655 1.355 . S
C654 C656 1.415 . S
C655 C654 1.355 . S
C655 C657 1.419 . S
C656 C654 1.415 . S
C656 C661 1.425 . S
C656 C663 1.409 . S
C657 H649 0.930 . S
C657 C655 1.419 . S
C657 C658 1.362 . S
C658 H650 0.930 . S
C658 C657 1.362 . S
C658 C661 1.409 . S
C659 H651 0.930 . S
C659 C660 1.355 . S
C659 C661 1.415 . S
C660 C659 1.355 . S
C660 C662 1.419 . S
C661 C656 1.425 . S
C661 C658 1.409 . S
C661 C659 1.415 . S
C662 H652 0.930 . S
C662 C660 1.419 . S
C662 C663 1.362 . S
C663 H653 0.930 . S
C663 C656 1.409 . S
C663 C662 1.362 . S
H664 C670 0.930 . S
H665 C673 0.930 . S
H666 C674 0.930 . S
H667 C675 0.930 . S
H668 C678 0.930 . S
H669 C679 0.930 . S
C670 H664 0.930 . S
C670 C671 1.355 . S
C670 C672 1.415 . S
C671 C670 1.355 . S
C671 C673 1.419 . S
C672 C670 1.415 . S
C672 C677 1.425 . S
C672 C679 1.409 . S
C673 H665 0.930 . S
C673 C671 1.419 . S
C673 C674 1.362 . S
C674 H666 0.930 . S
C674 C673 1.362 . S
C674 C677 1.409 . S
C675 H667 0.930 . S
C675 C676 1.355 . S
C675 C677 1.415 . S
C676 C675 1.355 . S
C676 C678 1.419 . S
C677 C672 1.425 . S
C677 C674 1.409 . S
C677 C675 1.415 . S
C678 H668 0.930 . S
C678 C676 1.419 . S
C678 C679 1.362 . S
C679 H669 0.930 . S
C679 C672 1.409 . S
C679 C678 1.362 . S
H680 C686 0.930 . S
H681 C689 0.930 . S
H682 C690 0.930 . S
H683 C691 0.930 . S
H684 C694 0.930 . S
H685 C695 0.930 . S
C686 H680 0.930 . S
C686 C687 1.355 . S
C686 C688 1.415 . S
C687 C686 1.355 . S
C687 C689 1.419 . S
C688 C686 1.415 . S
C688 C693 1.425 . S
C688 C695 1.409 . S
C689 H681 0.930 . S
C689 C687 1.419 . S
C689 C690 1.362 . S
C690 H682 0.930 . S
C690 C689 1.362 . S
C690 C693 1.409 . S
C691 H683 0.930 . S
C691 C692 1.355 . S
C691 C693 1.415 . S
C692 C691 1.355 . S
C692 C694 1.419 . S
C693 C688 1.425 . S
C693 C690 1.409 . S
C693 C691 1.415 . S
C694 H684 0.930 . S
C694 C692 1.419 . S
C694 C695 1.362 . S
C695 H685 0.930 . S
C695 C688 1.409 . S
C695 C694 1.362 . S
H696 C702 0.930 . S
H697 C705 0.930 . S
H698 C706 0.930 . S
H699 C707 0.930 . S
H700 C710 0.930 . S
H701 C711 0.930 . S
C702 H696 0.930 . S
C702 C703 1.355 . S
C702 C704 1.415 . S
C703 C702 1.355 . S
C703 C705 1.419 . S
C704 C702 1.415 . S
C704 C709 1.425 . S
C704 C711 1.409 . S
C705 H697 0.930 . S
C705 C703 1.419 . S
C705 C706 1.362 . S
C706 H698 0.930 . S
C706 C705 1.362 . S
C706 C709 1.409 . S
C707 H699 0.930 . S
C707 C708 1.355 . S
C707 C709 1.415 . S
C708 C707 1.355 . S
C708 C710 1.419 . S
C709 C704 1.425 . S
C709 C706 1.409 . S
C709 C707 1.415 . S
C710 H700 0.930 . S
C710 C708 1.419 . S
C710 C711 1.362 . S
C711 H701 0.930 . S
C711 C704 1.409 . S
C711 C710 1.362 . S
H712 C718 0.930 . S
H713 C721 0.930 . S
H714 C722 0.930 . S
H715 C723 0.930 . S
H716 C726 0.930 . S
H717 C727 0.930 . S
C718 H712 0.930 . S
C718 C719 1.355 . S
C718 C720 1.415 . S
C719 C718 1.355 . S
C719 C721 1.419 . S
C720 C718 1.415 . S
C720 C725 1.425 . S
C720 C727 1.409 . S
C721 H713 0.930 . S
C721 C719 1.419 . S
C721 C722 1.362 . S
C722 H714 0.930 . S
C722 C721 1.362 . S
C722 C725 1.409 . S
C723 H715 0.930 . S
C723 C724 1.355 . S
C723 C725 1.415 . S
C724 C723 1.355 . S
C724 C726 1.419 . S
C725 C720 1.425 . S
C725 C722 1.409 . S
C725 C723 1.415 . S
C726 H716 0.930 . S
C726 C724 1.419 . S
C726 C727 1.362 . S
C727 H717 0.930 . S
C727 C720 1.409 . S
C727 C726 1.362 . S
H728 C734 0.930 . S
H729 C737 0.930 . S
H730 C738 0.930 . S
H731 C739 0.930 . S
H732 C742 0.930 . S
H733 C743 0.930 . S
C734 H728 0.930 . S
C734 C735 1.355 . S
C734 C736 1.415 . S
C735 C734 1.355 . S
C735 C737 1.419 . S
C736 C734 1.415 . S
C736 C741 1.425 . S
C736 C743 1.409 . S
C737 H729 0.930 . S
C737 C735 1.419 . S
C737 C738 1.362 . S
C738 H730 0.930 . S
C738 C737 1.362 . S
C738 C741 1.409 . S
C739 H731 0.930 . S
C739 C740 1.355 . S
C739 C741 1.415 . S
C740 C739 1.355 . S
C740 C742 1.419 . S
C741 C736 1.425 . S
C741 C738 1.409 . S
C741 C739 1.415 . S
C742 H732 0.930 . S
C742 C740 1.419 . S
C742 C743 1.362 . S
C743 H733 0.930 . S
C743 C736 1.409 . S
C743 C742 1.362 . S
H744 C750 0.930 . S
H745 C753 0.930 . S
H746 C754 0.930 . S
H747 C755 0.930 . S
H748 C758 0.930 . S
H749 C759 0.930 . S
C750 H744 0.930 . S
C750 C751 1.355 . S
C750 C752 1.415 . S
C751 C750 1.355 . S
C751 C753 1.419 . S
C752 C750 1.415 . S
C752 C757 1.425 . S
C752 C759 1.409 . S
C753 H745 0.930 . S
C753 C751 1.419 . S
C753 C754 1.362 . S
C754 H746 0.930 . S
C754 C753 1.362 . S
C754 C757 1.409 . S
C755 H747 0.930 . S
C755 C756 1.355 . S
C755 C757 1.415 . S
C756 C755 1.355 . S
C756 C758 1.419 . S
C757 C752 1.425 . S
C757 C754 1.409 . S
C757 C755 1.415 . S
C758 H748 0.930 . S
C758 C756 1.419 . S
C758 C759 1.362 . S
C759 H749 0.930 . S
C759 C752 1.409 . S
C759 C758 1.362 . S
H760 C766 0.930 . S
H761 C769 0.930 . S
H762 C770 0.930 . S
H763 C771 0.930 . S
H764 C774 0.930 . S
H765 C775 0.930 . S
C766 H760 0.930 . S
C766 C767 1.355 . S
C766 C768 1.415 . S
C767 C766 1.355 . S
C767 C769 1.419 . S
C768 C766 1.415 . S
C768 C773 1.425 . S
C768 C775 1.409 . S
C769 H761 0.930 . S
C769 C767 1.419 . S
C769 C770 1.362 . S
C770 H762 0.930 . S
C770 C769 1.362 . S
C770 C773 1.409 . S
C771 H763 0.930 . S
C771 C772 1.355 . S
C771 C773 1.415 . S
C772 C771 1.355 . S
C772 C774 1.419 . S
C773 C768 1.425 . S
C773 C770 1.409 . S
C773 C771 1.415 . S
C774 H764 0.930 . S
C774 C772 1.419 . S
C774 C775 1.362 . S
C775 H765 0.930 . S
C775 C768 1.409 . S
C775 C774 1.362 . S
H776 C782 0.927 1_556 S
H777 C785 0.930 . S
H778 C786 0.930 . S
H779 C787 0.930 . S
H780 C790 0.930 . S
H781 C791 0.930 . S
C782 H776 0.927 1_554 S
C782 C783 1.357 . S
C782 C784 1.414 1_554 S
C783 C782 1.357 . S
C783 C785 1.419 . S
C784 C782 1.414 1_556 S
C784 C789 1.425 1_556 S
C784 C791 1.409 . S
C785 H777 0.930 . S
C785 C783 1.419 . S
C785 C786 1.362 . S
C786 H778 0.930 . S
C786 C785 1.362 . S
C786 C789 1.409 . S
C787 H779 0.930 . S
C787 C788 1.355 1_554 S
C787 C789 1.415 . S
C788 C787 1.355 1_556 S
C788 C790 1.419 . S
C789 C784 1.425 1_554 S
C789 C786 1.409 . S
C789 C787 1.415 . S
C790 H780 0.930 . S
C790 C788 1.419 . S
C790 C791 1.362 . S
C791 H781 0.930 . S
C791 C784 1.409 . S
C791 C790 1.362 . S
C415 C7 1.771 . S
C420 C109 1.618 . S
C431 C37 1.798 . S
C436 C149 1.496 . S
C447 C54 1.935 . S
C452 C170 1.775 . S
C468 C229 1.560 . S
C463 C87 1.588 . S
C484 C269 1.581 . S
C479 C30 1.711 . S
C495 C51 1.594 . S
C500 C290 1.496 . S
C511 C84 2.010 . S
C516 C330 1.789 . S
C527 C10 1.755 . S
C532 C389 1.561 . S
C543 C59 1.724 . S
C548 C370 1.545 . S
C564 C250 1.538 . S
C559 C74 1.682 . S
C580 C309 1.754 . S
C575 C18 2.024 . S
C591 C32 1.614 . S
C596 C349 1.529 . S
C612 C130 1.582 . S
C607 C73 1.706 . S
C623 C15 1.650 . S
C628 C189 1.517 . S
C644 C210 1.890 . S
C639 C43 2.005 . S
C660 C90 1.477 . S
C655 C62 1.679 . S
C676 C343 1.665 . S
C671 C21 1.732 . S
C692 C383 1.411 . S
C687 C29 1.459 . S
C703 C52 1.378 . S
C708 C263 1.317 . S
C724 C303 1.583 . S
C719 C81 1.709 . S
C740 C183 1.553 . S
C735 C40 1.641 . S
C751 C65 1.651 . S
C756 C223 1.584 . S
C772 C103 1.421 . S
C767 C76 1.454 . S
C788 C143 1.447 . S
C783 C8 1.493 . S
