# Generated by pormake.
# Topology pyr, (3,6)-cn, num edge types: 1
# Building blocks:
#     Node 0, Type 0, BuildingBlock: OLANEW_clean_sbu_2, # of connection points: 3
#     Node 1, Type 0, BuildingBlock: OLANEW_clean_sbu_2, # of connection points: 3
#     Node 2, Type 0, BuildingBlock: OLANEW_clean_sbu_2, # of connection points: 3
#     Node 3, Type 0, BuildingBlock: OLANEW_clean_sbu_2, # of connection points: 3
#     Node 4, Type 0, BuildingBlock: OLANEW_clean_sbu_2, # of connection points: 3
#     Node 5, Type 0, BuildingBlock: OLANEW_clean_sbu_2, # of connection points: 3
#     Node 6, Type 0, BuildingBlock: OLANEW_clean_sbu_2, # of connection points: 3
#     Node 7, Type 0, BuildingBlock: OLANEW_clean_sbu_2, # of connection points: 3
#     Node 8, Type 1, BuildingBlock: BETDEL_clean_sbu_0, # of connection points: 6
#     Node 9, Type 1, BuildingBlock: BETDEL_clean_sbu_0, # of connection points: 6
#     Node 10, Type 1, BuildingBlock: BETDEL_clean_sbu_0, # of connection points: 6
#     Node 11, Type 1, BuildingBlock: BETDEL_clean_sbu_0, # of connection points: 6
#     Edge 12, Type (0, 1), BuildingBlock: OJICUG_clean_linker_0, # of connection points: 2
#     Edge 13, Type (0, 1), BuildingBlock: OJICUG_clean_linker_0, # of connection points: 2
#     Edge 14, Type (0, 1), BuildingBlock: OJICUG_clean_linker_0, # of connection points: 2
#     Edge 15, Type (0, 1), BuildingBlock: OJICUG_clean_linker_0, # of connection points: 2
#     Edge 16, Type (0, 1), BuildingBlock: OJICUG_clean_linker_0, # of connection points: 2
#     Edge 17, Type (0, 1), BuildingBlock: OJICUG_clean_linker_0, # of connection points: 2
#     Edge 18, Type (0, 1), BuildingBlock: OJICUG_clean_linker_0, # of connection points: 2
#     Edge 19, Type (0, 1), BuildingBlock: OJICUG_clean_linker_0, # of connection points: 2
#     Edge 20, Type (0, 1), BuildingBlock: OJICUG_clean_linker_0, # of connection points: 2
#     Edge 21, Type (0, 1), BuildingBlock: OJICUG_clean_linker_0, # of connection points: 2
#     Edge 22, Type (0, 1), BuildingBlock: OJICUG_clean_linker_0, # of connection points: 2
#     Edge 23, Type (0, 1), BuildingBlock: OJICUG_clean_linker_0, # of connection points: 2
#     Edge 24, Type (0, 1), BuildingBlock: OJICUG_clean_linker_0, # of connection points: 2
#     Edge 25, Type (0, 1), BuildingBlock: OJICUG_clean_linker_0, # of connection points: 2
#     Edge 26, Type (0, 1), BuildingBlock: OJICUG_clean_linker_0, # of connection points: 2
#     Edge 27, Type (0, 1), BuildingBlock: OJICUG_clean_linker_0, # of connection points: 2
#     Edge 28, Type (0, 1), BuildingBlock: OJICUG_clean_linker_0, # of connection points: 2
#     Edge 29, Type (0, 1), BuildingBlock: OJICUG_clean_linker_0, # of connection points: 2
#     Edge 30, Type (0, 1), BuildingBlock: OJICUG_clean_linker_0, # of connection points: 2
#     Edge 31, Type (0, 1), BuildingBlock: OJICUG_clean_linker_0, # of connection points: 2
#     Edge 32, Type (0, 1), BuildingBlock: OJICUG_clean_linker_0, # of connection points: 2
#     Edge 33, Type (0, 1), BuildingBlock: OJICUG_clean_linker_0, # of connection points: 2
#     Edge 34, Type (0, 1), BuildingBlock: OJICUG_clean_linker_0, # of connection points: 2
#     Edge 35, Type (0, 1), BuildingBlock: OJICUG_clean_linker_0, # of connection points: 2
# Relax obj value: 0.063
# Max RMSD: 0.141
# Mean RMSD: 0.109
data_MOF--net-pyr--node1-OLANEW_clean_sbu_2--node2-BETDEL_clean_sbu_0--edge1-OJICUG_clean_linker_0
_symmetry_space_group_name_H-M    P1
_symmetry_Int_Tables_number       1
_symmetry_cell_setting            triclinic
loop_
_symmetry_equiv_pos_as_xyz
'x, y, z'
_cell_length_a     28.931093
_cell_length_b     31.007347
_cell_length_c     27.579517
_cell_angle_alpha  96.072204
_cell_angle_beta   88.11516
_cell_angle_gamma 100.07507
loop_
_atom_site_label
_atom_site_type_symbol
_atom_site_fract_x
_atom_site_fract_y
_atom_site_fract_z
_atom_type_partial_charge
O0 O 0.2577 0.17542 0.15593 0.0
Cd1 Cd 0.18424 0.20058 0.18417 0.0
O2 O 0.30488 0.21621 0.21027 0.0
Cd3 Cd 0.24483 0.23985 0.24664 0.0
O4 O 0.18898 0.21113 0.29436 0.0
C5 C 0.1864 0.16969 0.29327 0.0
O6 O 0.21494 0.1504 0.26376 0.0
C7 C 0.29855 0.18716 0.17387 0.0
C8 C 0.15864 0.27333 0.14661 0.0
O9 O 0.18125 0.27772 0.18655 0.0
O10 O 0.1498 0.23484 0.12332 0.0
O11 O 0.32655 0.87247 0.769 0.0
Cd12 Cd 0.29241 0.83424 0.69376 0.0
O13 O 0.26486 0.85744 0.8167 0.0
Cd14 Cd 0.22182 0.84132 0.75135 0.0
O15 O 0.18449 0.86055 0.69153 0.0
C16 C 0.15783 0.88835 0.70449 0.0
O17 O 0.15359 0.90094 0.75121 0.0
C18 C 0.30821 0.87282 0.8115 0.0
C19 C 0.34896 0.77133 0.66815 0.0
O20 O 0.35945 0.81017 0.65461 0.0
O21 O 0.31031 0.76143 0.69176 0.0
O22 O 0.74392 0.422 0.89874 0.0
Cd23 Cd 0.66271 0.39821 0.87181 0.0
O24 O 0.74609 0.36413 0.93798 0.0
Cd25 Cd 0.67364 0.33206 0.92459 0.0
O26 O 0.61986 0.27665 0.94113 0.0
C27 C 0.6356 0.25089 0.9668 0.0
O28 O 0.67989 0.26037 0.97953 0.0
C29 C 0.76625 0.4006 0.92405 0.0
C30 C 0.64012 0.44287 0.795 0.0
O31 O 0.63294 0.45716 0.83945 0.0
O32 O 0.65822 0.40784 0.78701 0.0
O33 O 0.88404 0.75393 0.35677 0.0
Cd34 Cd 0.84563 0.67951 0.32543 0.0
O35 O 0.9189 0.72621 0.41303 0.0
Cd36 Cd 0.88113 0.65946 0.39729 0.0
O37 O 0.81418 0.62693 0.42462 0.0
C38 C 0.80575 0.63954 0.46889 0.0
O39 O 0.83834 0.66737 0.49349 0.0
C40 C 0.91149 0.75942 0.39292 0.0
C41 C 0.89234 0.63671 0.24983 0.0
O42 O 0.85543 0.6521 0.24135 0.0
O43 O 0.90767 0.6422 0.29346 0.0
O44 O 0.82845 0.77946 0.76987 0.0
Cd45 Cd 0.78696 0.7222 0.81627 0.0
O46 O 0.80701 0.82789 0.82544 0.0
Cd47 Cd 0.80183 0.89183 0.86418 0.0
O48 O 0.75972 0.92885 0.91399 0.0
C49 C 0.71986 0.90704 0.92434 0.0
O50 O 0.70861 0.86614 0.90477 0.0
C51 C 0.8297 0.81938 0.78642 0.0
C52 C 0.85462 0.69918 0.87248 0.0
O53 O 0.84784 0.68261 0.8282 0.0
O54 O 0.82799 0.72568 0.89124 0.0
O55 O 0.76688 0.19943 0.3389 0.0
Cd56 Cd 0.83326 0.23527 0.38929 0.0
O57 O 0.77792 0.25001 0.28754 0.0
Cd58 Cd 0.81345 0.29922 0.34229 0.0
O59 O 0.77871 0.3484 0.38439 0.0
C60 C 0.7347 0.34213 0.37731 0.0
O61 O 0.71598 0.30801 0.34765 0.0
C62 C 0.75727 0.21277 0.29899 0.0
C63 C 0.86763 0.17317 0.43804 0.0
O64 O 0.83711 0.19512 0.45796 0.0
O65 O 0.88238 0.18076 0.39492 0.0
O66 O 0.45947 0.77808 0.20587 0.0
Cd67 Cd 0.42795 0.70171 0.22281 0.0
O68 O 0.38926 0.79641 0.21061 0.0
Cd69 Cd 0.35426 0.73161 0.22741 0.0
O70 O 0.30041 0.67761 0.19961 0.0
C71 C 0.2812 0.68805 0.16285 0.0
O72 O 0.29617 0.72706 0.14799 0.0
C73 C 0.43307 0.80648 0.2024 0.0
C74 C 0.45959 0.66772 0.3034 0.0
O75 O 0.47984 0.66349 0.26152 0.0
O76 O 0.42564 0.68954 0.30764 0.0
O77 O 0.19839 0.43234 0.77692 0.0
Cd78 Cd 0.23096 0.38663 0.71065 0.0
O79 O 0.17631 0.3749 0.81805 0.0
Cd80 Cd 0.19394 0.32659 0.76085 0.0
O81 O 0.16872 0.26785 0.71251 0.0
C82 C 0.13718 0.24002 0.73068 0.0
O83 O 0.12433 0.24777 0.77648 0.0
C84 C 0.17979 0.41592 0.81485 0.0
C85 C 0.30634 0.42977 0.65837 0.0
O86 O 0.26487 0.42223 0.64089 0.0
O87 O 0.31185 0.41768 0.70052 0.0
Dy88 Dy 0.03415 0.02548 0.50865 0.0
C89 C 0.93403 0.94657 0.66934 0.0
C90 C 0.07578 0.07011 0.43429 0.0
Dy91 Dy 0.97381 0.9948 0.59687 0.0
O92 O 0.08332 0.03196 0.44419 0.0
O93 O 0.04529 0.08399 0.46497 0.0
O94 O 0.08223 0.97693 0.51961 0.0
O95 O 0.04774 0.00527 0.579 0.0
C96 C 0.07265 0.97677 0.56592 0.0
C97 C 0.93599 0.04639 0.54384 0.0
O98 O 0.01982 0.05344 0.63448 0.0
O99 O 0.04914 0.08482 0.56424 0.0
O100 O 0.9186 0.98004 0.65526 0.0
O101 O 0.97128 0.93991 0.64423 0.0
O102 O 0.92765 0.04434 0.59017 0.0
O103 O 0.9595 0.01724 0.52708 0.0
O104 O 0.98851 0.9667 0.47104 0.0
O105 O 0.96434 0.9349 0.54216 0.0
C106 C 0.043 0.08699 0.61239 0.0
C107 C 0.96972 0.93232 0.49406 0.0
Dy108 Dy 0.54654 0.05779 0.11831 0.0
C109 C 0.42473 0.95645 0.97226 0.0
C110 C 0.60871 0.11272 0.1786 0.0
Dy111 Dy 0.47843 0.01037 0.04124 0.0
O112 O 0.57869 0.07972 0.19184 0.0
O113 O 0.604 0.11643 0.13269 0.0
O114 O 0.55177 0.99474 0.14722 0.0
O115 O 0.48715 0.00223 0.11848 0.0
C116 C 0.50945 0.97569 0.13584 0.0
C117 C 0.5224 0.09081 0.02266 0.0
O118 O 0.42892 0.04568 0.08585 0.0
O119 O 0.48568 0.09473 0.13057 0.0
O120 O 0.46548 0.97987 0.96471 0.0
O121 O 0.41308 0.96181 0.01818 0.0
O122 O 0.4798 0.07484 0.00919 0.0
O123 O 0.53953 0.06218 0.04148 0.0
O124 O 0.59554 0.02695 0.06678 0.0
O125 O 0.53793 0.97238 0.03172 0.0
C126 C 0.44173 0.0818 0.1157 0.0
C127 C 0.58273 0.98928 0.03932 0.0
Dy128 Dy 0.56081 0.5146 0.51527 0.0
C129 C 0.47637 0.64805 0.62703 0.0
C130 C 0.61644 0.46032 0.46866 0.0
Dy131 Dy 0.53029 0.59096 0.5832 0.0
O132 O 0.57118 0.4555 0.4638 0.0
O133 O 0.63109 0.49476 0.49864 0.0
O134 O 0.48518 0.48027 0.50959 0.0
O135 O 0.50873 0.52019 0.57276 0.0
C136 C 0.47297 0.49851 0.55166 0.0
C137 C 0.61875 0.60488 0.55066 0.0
O138 O 0.55412 0.55491 0.64127 0.0
O139 O 0.58996 0.50654 0.58823 0.0
O140 O 0.51982 0.65885 0.6131 0.0
O141 O 0.46293 0.60576 0.61868 0.0
O142 O 0.60599 0.62229 0.59298 0.0
O143 O 0.58348 0.58504 0.52704 0.0
O144 O 0.54314 0.55549 0.45865 0.0
O145 O 0.49892 0.59665 0.51055 0.0
C146 C 0.58072 0.52391 0.63301 0.0
C147 C 0.51327 0.58356 0.46602 0.0
Dy148 Dy 0.04436 0.48639 0.05526 0.0
C149 C 0.99064 0.63338 0.97661 0.0
C150 C 0.08039 0.41724 0.08387 0.0
Dy151 Dy 0.02929 0.56813 0.00961 0.0
O152 O 0.07018 0.45019 0.11279 0.0
O153 O 0.07031 0.42172 0.03937 0.0
O154 O 0.98185 0.49166 0.10471 0.0
O155 O 0.02435 0.54895 0.08343 0.0
C156 C 0.98725 0.53428 0.10582 0.0
C157 C 0.08727 0.52128 0.95909 0.0
O158 O 0.08713 0.60004 0.05803 0.0
O159 O 0.11241 0.53466 0.0692 0.0
O160 O 0.02303 0.61448 0.95417 0.0
O161 O 0.98059 0.61777 0.01829 0.0
O162 O 0.0917 0.5638 0.9604 0.0
O163 O 0.05026 0.50588 0.98149 0.0
O164 O 0.97986 0.45566 0.01298 0.0
O165 O 0.96277 0.52149 0.99145 0.0
C166 C 0.11886 0.57846 0.0726 0.0
C167 C 0.95192 0.47845 0.99318 0.0
C168 C 0.12396 0.16348 0.35897 0.0
C169 C 0.15495 0.1438 0.32702 0.0
H170 H 0.074 0.15522 0.418 0.0
C171 C 0.15738 0.09914 0.32896 0.0
H172 H 0.1212 0.19778 0.35822 0.0
C173 C 0.13074 0.07506 0.3632 0.0
C174 C 0.10082 0.09499 0.39595 0.0
H175 H 0.18074 0.08289 0.3048 0.0
H176 H 0.13419 0.04097 0.36454 0.0
C177 C 0.09695 0.13916 0.39309 0.0
C178 C 0.31908 0.89436 0.90174 0.0
C179 C 0.33782 0.89161 0.85398 0.0
H180 H 0.33222 0.9169 0.97729 0.0
C181 C 0.38571 0.9079 0.84653 0.0
H182 H 0.28235 0.88193 0.90869 0.0
C183 C 0.41389 0.92764 0.88546 0.0
C184 C 0.39503 0.93151 0.93287 0.0
H185 H 0.4015 0.90612 0.81037 0.0
H186 H 0.45043 0.94064 0.87817 0.0
C187 C 0.34756 0.91416 0.94098 0.0
C188 C 0.60258 0.50104 0.76239 0.0
C189 C 0.62695 0.46539 0.75398 0.0
H190 H 0.56886 0.54758 0.73099 0.0
C191 C 0.63763 0.45058 0.70569 0.0
H192 H 0.59387 0.51331 0.79919 0.0
C193 C 0.62352 0.47029 0.6667 0.0
C194 C 0.59814 0.50524 0.67491 0.0
H195 H 0.65652 0.42335 0.69787 0.0
H196 H 0.63197 0.45749 0.63002 0.0
C197 C 0.58825 0.5207 0.72328 0.0
C198 C 0.89043 0.57664 0.18179 0.0
C199 C 0.91601 0.61221 0.21084 0.0
H200 H 0.89357 0.52298 0.1263 0.0
C201 C 0.96476 0.62286 0.20399 0.0
H202 H 0.85279 0.56776 0.18682 0.0
C203 C 0.98766 0.59839 0.16839 0.0
C204 C 0.96238 0.56183 0.14057 0.0
H205 H 0.98507 0.65015 0.2261 0.0
H206 H 0.02536 0.60714 0.16374 0.0
C207 C 0.91363 0.55105 0.14749 0.0
C208 C 0.32767 0.12659 0.12091 0.0
C209 C 0.33687 0.16299 0.15625 0.0
H210 H 0.3529 0.07239 0.08106 0.0
C211 C 0.38149 0.17314 0.17768 0.0
H212 H 0.29373 0.11763 0.10373 0.0
C213 C 0.4157 0.14692 0.16468 0.0
C214 C 0.4059 0.10982 0.13025 0.0
H215 H 0.38972 0.20084 0.2052 0.0
H216 H 0.44957 0.15543 0.18206 0.0
C217 C 0.36162 0.10031 0.10822 0.0
C218 C 0.10484 0.939 0.68398 0.0
C219 C 0.13431 0.90866 0.66809 0.0
H220 H 0.06272 0.98426 0.6642 0.0
C221 C 0.14232 0.89969 0.61769 0.0
H222 H 0.0978 0.9467 0.72244 0.0
C223 C 0.12193 0.92138 0.58404 0.0
C224 C 0.0932 0.95226 0.60031 0.0
H225 H 0.16489 0.87648 0.60428 0.0
H226 H 0.12899 0.91434 0.54546 0.0
C227 C 0.08462 0.96055 0.65052 0.0
C228 C 0.83654 0.46062 0.92705 0.0
C229 C 0.81518 0.4188 0.93892 0.0
H230 H 0.89624 0.51185 0.9344 0.0
C231 C 0.84045 0.39529 0.96656 0.0
H232 H 0.81832 0.47957 0.90565 0.0
C233 C 0.88558 0.41383 0.98311 0.0
C234 C 0.90615 0.45633 0.97257 0.0
H235 H 0.82508 0.36283 0.97617 0.0
H236 H 0.90372 0.39542 0.00522 0.0
C237 C 0.88135 0.47916 0.94371 0.0
C238 C 0.74963 0.64254 0.53959 0.0
C239 C 0.75863 0.62729 0.49092 0.0
H240 H 0.69815 0.64727 0.59667 0.0
C241 C 0.72153 0.60279 0.46283 0.0
H242 H 0.77748 0.66142 0.56226 0.0
C243 C 0.6761 0.59498 0.48255 0.0
C244 C 0.66702 0.61127 0.53076 0.0
H245 H 0.72729 0.5906 0.42524 0.0
H246 H 0.64795 0.57688 0.45972 0.0
C247 C 0.70423 0.63456 0.55932 0.0
C248 C 0.13928 0.34936 0.16116 0.0
C249 C 0.1409 0.31104 0.12941 0.0
H250 H 0.11817 0.41265 0.1718 0.0
C251 C 0.12318 0.30833 0.08208 0.0
H252 H 0.15241 0.35242 0.19792 0.0
C253 C 0.104 0.3431 0.06701 0.0
C254 C 0.10146 0.38087 0.09922 0.0
H255 H 0.12393 0.27927 0.05675 0.0
H256 H 0.09052 0.34013 0.0304 0.0
C257 C 0.11943 0.38376 0.14634 0.0
C258 C 0.5573 0.20092 0.97161 0.0
C259 C 0.60561 0.21054 0.98159 0.0
H260 H 0.4927 0.15532 0.97727 0.0
C261 C 0.6257 0.18083 0.00576 0.0
H262 H 0.5408 0.22322 0.95309 0.0
C263 C 0.59839 0.14219 0.01917 0.0
C264 C 0.55025 0.13246 0.0092 0.0
H265 H 0.66278 0.18708 0.0139 0.0
H266 H 0.61526 0.11961 0.03681 0.0
C267 C 0.52979 0.16217 0.98544 0.0
C268 C 0.94646 0.80916 0.46409 0.0
C269 C 0.93012 0.80417 0.41603 0.0
H270 H 0.97084 0.85332 0.52621 0.0
C271 C 0.92828 0.84212 0.3928 0.0
H272 H 0.94817 0.78077 0.48329 0.0
C273 C 0.942 0.88416 0.41756 0.0
C274 C 0.95654 0.88874 0.46624 0.0
H275 H 0.91573 0.83932 0.35584 0.0
H276 H 0.94002 0.91294 0.39915 0.0
C277 C 0.95903 0.85084 0.48897 0.0
C278 C 0.42831 0.75416 0.64428 0.0
C279 C 0.3816 0.73958 0.65859 0.0
H280 H 0.49523 0.73664 0.62434 0.0
C281 C 0.36698 0.69484 0.665 0.0
H282 H 0.44078 0.78851 0.63955 0.0
C283 C 0.39821 0.66509 0.65604 0.0
C284 C 0.44471 0.67973 0.64129 0.0
H285 H 0.33126 0.6827 0.67622 0.0
H286 H 0.38582 0.63058 0.66005 0.0
C287 C 0.45963 0.72456 0.63603 0.0
C288 C 0.84361 0.89486 0.75784 0.0
C289 C 0.85815 0.85431 0.76065 0.0
H290 H 0.85645 0.95626 0.72612 0.0
C291 C 0.89944 0.84592 0.7361 0.0
H292 H 0.81153 0.90183 0.77584 0.0
C293 C 0.92518 0.87697 0.70823 0.0
C294 C 0.9097 0.91673 0.70369 0.0
H295 H 0.91155 0.81499 0.73796 0.0
H296 H 0.95636 0.86915 0.68892 0.0
C297 C 0.86912 0.92582 0.72925 0.0
C298 C 0.71254 0.1985 0.22105 0.0
C299 C 0.71994 0.18651 0.26759 0.0
H300 H 0.67126 0.18441 0.15635 0.0
C301 C 0.68988 0.15046 0.28478 0.0
H302 H 0.735 0.22619 0.20682 0.0
C303 C 0.65306 0.12703 0.25616 0.0
C304 C 0.64591 0.13895 0.20967 0.0
H305 H 0.6944 0.14059 0.32061 0.0
H306 H 0.63049 0.09931 0.27025 0.0
C307 C 0.67596 0.17476 0.19225 0.0
C308 C 0.45295 0.65323 0.39146 0.0
C309 C 0.47376 0.64658 0.34511 0.0
H310 H 0.44876 0.6385 0.46571 0.0
C311 C 0.50708 0.61834 0.33864 0.0
H312 H 0.42705 0.67465 0.3977 0.0
C313 C 0.51926 0.59724 0.37759 0.0
C314 C 0.49862 0.60407 0.42404 0.0
H315 H 0.52363 0.6123 0.30337 0.0
H316 H 0.54525 0.57593 0.37133 0.0
C317 C 0.46531 0.63234 0.43046 0.0
C318 C 0.16924 0.48956 0.85692 0.0
C319 C 0.15909 0.44338 0.85396 0.0
H320 H 0.15502 0.5505 0.89337 0.0
C321 C 0.12687 0.4232 0.88756 0.0
H322 H 0.19398 0.50604 0.83166 0.0
C323 C 0.10409 0.44855 0.92222 0.0
C324 C 0.11367 0.49461 0.92469 0.0
H325 H 0.11802 0.38767 0.88615 0.0
H326 H 0.07821 0.43201 0.94632 0.0
C327 C 0.147 0.51496 0.89227 0.0
C328 C 0.63971 0.90475 0.96154 0.0
C329 C 0.68583 0.92737 0.95627 0.0
H330 H 0.57112 0.90644 0.99206 0.0
C331 C 0.69855 0.96965 0.98091 0.0
H332 H 0.6288 0.87207 0.94318 0.0
C333 C 0.66545 0.98927 0.00937 0.0
C334 C 0.61895 0.96711 0.01335 0.0
H335 H 0.73389 0.98782 0.97775 0.0
H336 H 0.67603 0.02225 0.02711 0.0
C337 C 0.6066 0.92447 0.98959 0.0
C338 C 0.91325 0.11133 0.44051 0.0
C339 C 0.88521 0.14018 0.46432 0.0
H340 H 0.95075 0.05816 0.44679 0.0
C341 C 0.87377 0.13722 0.51386 0.0
H342 H 0.92249 0.11268 0.40226 0.0
C343 C 0.89029 0.10653 0.5392 0.0
C344 C 0.91829 0.07777 0.51558 0.0
H345 H 0.85231 0.1589 0.53332 0.0
H346 H 0.88111 0.10546 0.57751 0.0
C347 C 0.92943 0.08016 0.4659 0.0
C348 C 0.22825 0.6145 0.14869 0.0
C349 C 0.24125 0.65851 0.13845 0.0
H350 H 0.17933 0.55404 0.13514 0.0
C351 C 0.21502 0.67492 0.10495 0.0
H352 H 0.24801 0.60094 0.17423 0.0
C353 C 0.17587 0.64844 0.08314 0.0
C354 C 0.16225 0.60472 0.09383 0.0
H355 H 0.22411 0.70862 0.09616 0.0
H356 H 0.15607 0.66244 0.05801 0.0
C357 C 0.18917 0.58764 0.1262 0.0
C358 C 0.3478 0.44554 0.5791 0.0
C359 C 0.34718 0.45052 0.6304 0.0
H360 H 0.38875 0.45633 0.5136 0.0
C361 C 0.38708 0.4736 0.6551 0.0
H362 H 0.31749 0.42775 0.55918 0.0
C363 C 0.42715 0.49064 0.62916 0.0
C364 C 0.42864 0.48402 0.57797 0.0
H365 H 0.38747 0.47816 0.69459 0.0
H366 H 0.45756 0.50777 0.6494 0.0
C367 C 0.38849 0.46172 0.55306 0.0
C368 C 0.93115 0.67381 0.87597 0.0
C369 C 0.89238 0.68786 0.90062 0.0
H370 H 0.99382 0.64716 0.8813 0.0
C371 C 0.88949 0.68938 0.95171 0.0
H372 H 0.93462 0.67302 0.83666 0.0
C373 C 0.92325 0.67405 0.97734 0.0
C374 C 0.96073 0.65795 0.95221 0.0
H375 H 0.86002 0.70037 0.97154 0.0
H376 H 0.91897 0.67307 0.0164 0.0
C377 C 0.96528 0.65943 0.90159 0.0
C378 C 0.4222 0.87735 0.17117 0.0
C379 C 0.45239 0.85015 0.18586 0.0
H380 H 0.41644 0.93817 0.14284 0.0
C381 C 0.50107 0.86432 0.18255 0.0
H382 H 0.38445 0.86721 0.17278 0.0
C383 C 0.51914 0.90489 0.16563 0.0
C384 C 0.48905 0.93205 0.15113 0.0
H385 H 0.52529 0.84418 0.19323 0.0
H386 H 0.5569 0.91502 0.16394 0.0
C387 C 0.44038 0.91781 0.15366 0.0
C388 C 0.12194 0.19553 0.64986 0.0
C389 C 0.11356 0.20069 0.70041 0.0
H390 H 0.10589 0.1559 0.58232 0.0
C391 C 0.08139 0.16843 0.72172 0.0
H392 H 0.14639 0.21991 0.63232 0.0
C393 C 0.0582 0.13166 0.6931 0.0
C394 C 0.06647 0.12653 0.64251 0.0
H395 H 0.07412 0.17147 0.76059 0.0
H396 H 0.03378 0.10732 0.7107 0.0
C397 C 0.09851 0.15892 0.62117 0.0
C398 C 0.72403 0.41002 0.43177 0.0
C399 C 0.70472 0.37264 0.40095 0.0
H400 H 0.71103 0.46727 0.47724 0.0
C401 C 0.65614 0.36463 0.39237 0.0
H402 H 0.7613 0.41716 0.43905 0.0
C403 C 0.62747 0.39328 0.41417 0.0
C404 C 0.64678 0.4305 0.44496 0.0
H405 H 0.64009 0.33615 0.36879 0.0
H406 H 0.59017 0.3862 0.40701 0.0
C407 C 0.69528 0.43872 0.45357 0.0
loop_
_geom_bond_atom_site_label_1
_geom_bond_atom_site_label_2
_geom_bond_distance
_geom_bond_site_symmetry_2
_ccdc_geom_bond_type
O0 Cd1 2.300 . S
O0 C7 1.275 . S
Cd1 O0 2.300 . S
Cd1 O9 2.381 . S
Cd1 O10 2.378 . S
O2 Cd3 2.385 . S
O2 C7 1.255 . S
Cd3 O2 2.385 . S
Cd3 O4 2.317 . S
O4 Cd3 2.317 . S
O4 C5 1.232 . S
C5 O4 1.232 . S
C5 O6 1.218 . S
O6 C5 1.218 . S
C7 O0 1.275 . S
C7 O2 1.255 . S
C8 O9 1.258 . S
C8 O10 1.256 . S
O9 Cd1 2.381 . S
O9 C8 1.258 . S
O10 Cd1 2.378 . S
O10 C8 1.256 . S
O11 Cd12 2.300 . S
O11 C18 1.275 . S
Cd12 O11 2.300 . S
Cd12 O20 2.381 . S
Cd12 O21 2.378 . S
O13 Cd14 2.385 . S
O13 C18 1.255 . S
Cd14 O13 2.385 . S
Cd14 O15 2.317 . S
O15 Cd14 2.317 . S
O15 C16 1.232 . S
C16 O15 1.232 . S
C16 O17 1.218 . S
O17 C16 1.218 . S
C18 O11 1.275 . S
C18 O13 1.255 . S
C19 O20 1.258 . S
C19 O21 1.256 . S
O20 Cd12 2.381 . S
O20 C19 1.258 . S
O21 Cd12 2.378 . S
O21 C19 1.256 . S
O22 Cd23 2.300 . S
O22 C29 1.275 . S
Cd23 O22 2.300 . S
Cd23 O31 2.381 . S
Cd23 O32 2.378 . S
O24 Cd25 2.385 . S
O24 C29 1.255 . S
Cd25 O24 2.385 . S
Cd25 O26 2.317 . S
O26 Cd25 2.317 . S
O26 C27 1.232 . S
C27 O26 1.232 . S
C27 O28 1.218 . S
O28 C27 1.218 . S
C29 O22 1.275 . S
C29 O24 1.255 . S
C30 O31 1.258 . S
C30 O32 1.256 . S
O31 Cd23 2.381 . S
O31 C30 1.258 . S
O32 Cd23 2.378 . S
O32 C30 1.256 . S
O33 Cd34 2.300 . S
O33 C40 1.275 . S
Cd34 O33 2.300 . S
Cd34 O42 2.381 . S
Cd34 O43 2.378 . S
O35 Cd36 2.385 . S
O35 C40 1.255 . S
Cd36 O35 2.385 . S
Cd36 O37 2.317 . S
O37 Cd36 2.317 . S
O37 C38 1.232 . S
C38 O37 1.232 . S
C38 O39 1.218 . S
O39 C38 1.218 . S
C40 O33 1.275 . S
C40 O35 1.255 . S
C41 O42 1.258 . S
C41 O43 1.256 . S
O42 Cd34 2.381 . S
O42 C41 1.258 . S
O43 Cd34 2.378 . S
O43 C41 1.256 . S
O44 Cd45 2.300 . S
O44 C51 1.275 . S
Cd45 O44 2.300 . S
Cd45 O53 2.381 . S
Cd45 O54 2.378 . S
O46 Cd47 2.385 . S
O46 C51 1.255 . S
Cd47 O46 2.385 . S
Cd47 O48 2.317 . S
O48 Cd47 2.317 . S
O48 C49 1.232 . S
C49 O48 1.232 . S
C49 O50 1.218 . S
O50 C49 1.218 . S
C51 O44 1.275 . S
C51 O46 1.255 . S
C52 O53 1.258 . S
C52 O54 1.256 . S
O53 Cd45 2.381 . S
O53 C52 1.258 . S
O54 Cd45 2.378 . S
O54 C52 1.256 . S
O55 Cd56 2.300 . S
O55 C62 1.275 . S
Cd56 O55 2.300 . S
Cd56 O64 2.381 . S
Cd56 O65 2.378 . S
O57 Cd58 2.385 . S
O57 C62 1.255 . S
Cd58 O57 2.385 . S
Cd58 O59 2.317 . S
O59 Cd58 2.317 . S
O59 C60 1.232 . S
C60 O59 1.232 . S
C60 O61 1.218 . S
O61 C60 1.218 . S
C62 O55 1.275 . S
C62 O57 1.255 . S
C63 O64 1.258 . S
C63 O65 1.256 . S
O64 Cd56 2.381 . S
O64 C63 1.258 . S
O65 Cd56 2.378 . S
O65 C63 1.256 . S
O66 Cd67 2.300 . S
O66 C73 1.275 . S
Cd67 O66 2.300 . S
Cd67 O75 2.381 . S
Cd67 O76 2.378 . S
O68 Cd69 2.385 . S
O68 C73 1.255 . S
Cd69 O68 2.385 . S
Cd69 O70 2.317 . S
O70 Cd69 2.317 . S
O70 C71 1.232 . S
C71 O70 1.232 . S
C71 O72 1.218 . S
O72 C71 1.218 . S
C73 O66 1.275 . S
C73 O68 1.255 . S
C74 O75 1.258 . S
C74 O76 1.256 . S
O75 Cd67 2.381 . S
O75 C74 1.258 . S
O76 Cd67 2.378 . S
O76 C74 1.256 . S
O77 Cd78 2.300 . S
O77 C84 1.275 . S
Cd78 O77 2.300 . S
Cd78 O86 2.381 . S
Cd78 O87 2.378 . S
O79 Cd80 2.385 . S
O79 C84 1.255 . S
Cd80 O79 2.385 . S
Cd80 O81 2.317 . S
O81 Cd80 2.317 . S
O81 C82 1.232 . S
C82 O81 1.232 . S
C82 O83 1.218 . S
O83 C82 1.218 . S
C84 O77 1.275 . S
C84 O79 1.255 . S
C85 O86 1.258 . S
C85 O87 1.256 . S
O86 Cd78 2.381 . S
O86 C85 1.258 . S
O87 Cd78 2.378 . S
O87 C85 1.256 . S
Dy88 O92 2.398 . S
Dy88 O93 2.491 . S
Dy88 O94 2.403 . S
Dy88 O95 2.664 1_545 S
Dy88 O99 2.326 . S
Dy88 O103 2.310 1_455 S
Dy88 O104 2.351 1_545 S
C89 O100 1.185 . S
C89 O101 1.355 . S
C90 O92 1.185 . S
C90 O93 1.355 . S
Dy91 O95 2.310 1_645 S
Dy91 O98 2.351 1_655 S
Dy91 O100 2.398 1_545 S
Dy91 O101 2.491 1_545 S
Dy91 O102 2.403 . S
Dy91 O103 2.664 . S
Dy91 O105 2.326 1_545 S
O92 Dy88 2.398 . S
O92 C90 1.185 . S
O93 Dy88 2.491 . S
O93 C90 1.355 . S
O94 Dy88 2.403 . S
O94 C96 1.254 1_545 S
O95 Dy88 2.664 1_565 S
O95 Dy91 2.310 1_465 S
O95 C96 1.268 . S
C96 O94 1.254 1_565 S
C96 O95 1.268 . S
C97 O102 1.254 . S
C97 O103 1.268 . S
O98 Dy91 2.351 1_455 S
O98 C106 1.249 . S
O99 Dy88 2.326 . S
O99 C106 1.267 . S
O100 C89 1.185 . S
O100 Dy91 2.398 1_565 S
O101 C89 1.355 . S
O101 Dy91 2.491 1_565 S
O102 Dy91 2.403 . S
O102 C97 1.254 . S
O103 Dy88 2.310 1_655 S
O103 Dy91 2.664 . S
O103 C97 1.268 . S
O104 Dy88 2.351 1_565 S
O104 C107 1.249 1_455 S
O105 Dy91 2.326 1_565 S
O105 C107 1.267 . S
C106 O98 1.249 . S
C106 O99 1.267 . S
C107 O104 1.249 1_655 S
C107 O105 1.267 . S
Dy108 O112 2.398 . S
Dy108 O113 2.491 . S
Dy108 O114 2.403 1_545 S
Dy108 O115 2.664 1_545 S
Dy108 O119 2.326 . S
Dy108 O123 2.310 . S
Dy108 O124 2.351 . S
C109 O120 1.185 1_565 S
C109 O121 1.355 . S
C110 O112 1.185 . S
C110 O113 1.355 . S
Dy111 O115 2.310 1_545 S
Dy111 O118 2.351 . S
Dy111 O120 2.398 1_554 S
Dy111 O121 2.491 1_544 S
Dy111 O122 2.403 1_554 S
Dy111 O123 2.664 . S
Dy111 O125 2.326 1_554 S
O112 Dy108 2.398 . S
O112 C110 1.185 . S
O113 Dy108 2.491 . S
O113 C110 1.355 . S
O114 Dy108 2.403 1_565 S
O114 C116 1.254 . S
O115 Dy108 2.664 1_565 S
O115 Dy111 2.310 1_565 S
O115 C116 1.268 . S
C116 O114 1.254 . S
C116 O115 1.268 . S
C117 O122 1.254 1_554 S
C117 O123 1.268 . S
O118 Dy111 2.351 . S
O118 C126 1.249 . S
O119 Dy108 2.326 . S
O119 C126 1.267 . S
O120 C109 1.185 1_545 S
O120 Dy111 2.398 1_556 S
O121 C109 1.355 . S
O121 Dy111 2.491 1_566 S
O122 Dy111 2.403 1_556 S
O122 C117 1.254 1_556 S
O123 Dy108 2.310 . S
O123 Dy111 2.664 . S
O123 C117 1.268 . S
O124 Dy108 2.351 . S
O124 C127 1.249 1_545 S
O125 Dy111 2.326 1_556 S
O125 C127 1.267 1_546 S
C126 O118 1.249 . S
C126 O119 1.267 . S
C127 O124 1.249 1_565 S
C127 O125 1.267 1_564 S
Dy128 O132 2.398 . S
Dy128 O133 2.491 . S
Dy128 O134 2.403 . S
Dy128 O135 2.664 . S
Dy128 O139 2.326 . S
Dy128 O143 2.310 . S
Dy128 O144 2.351 . S
C129 O140 1.185 . S
C129 O141 1.355 . S
C130 O132 1.185 . S
C130 O133 1.355 . S
Dy131 O135 2.310 . S
Dy131 O138 2.351 . S
Dy131 O140 2.398 . S
Dy131 O141 2.491 . S
Dy131 O142 2.403 . S
Dy131 O143 2.664 . S
Dy131 O145 2.326 . S
O132 Dy128 2.398 . S
O132 C130 1.185 . S
O133 Dy128 2.491 . S
O133 C130 1.355 . S
O134 Dy128 2.403 . S
O134 C136 1.254 . S
O135 Dy128 2.664 . S
O135 Dy131 2.310 . S
O135 C136 1.268 . S
C136 O134 1.254 . S
C136 O135 1.268 . S
C137 O142 1.254 . S
C137 O143 1.268 . S
O138 Dy131 2.351 . S
O138 C146 1.249 . S
O139 Dy128 2.326 . S
O139 C146 1.267 . S
O140 C129 1.185 . S
O140 Dy131 2.398 . S
O141 C129 1.355 . S
O141 Dy131 2.491 . S
O142 Dy131 2.403 . S
O142 C137 1.254 . S
O143 Dy128 2.310 . S
O143 Dy131 2.664 . S
O143 C137 1.268 . S
O144 Dy128 2.351 . S
O144 C147 1.249 . S
O145 Dy131 2.326 . S
O145 C147 1.267 . S
C146 O138 1.249 . S
C146 O139 1.267 . S
C147 O144 1.249 . S
C147 O145 1.267 . S
Dy148 O152 2.398 . S
Dy148 O153 2.491 . S
Dy148 O154 2.403 . S
Dy148 O155 2.664 . S
Dy148 O159 2.326 . S
Dy148 O163 2.310 1_554 S
Dy148 O164 2.351 1_455 S
C149 O160 1.185 . S
C149 O161 1.355 . S
C150 O152 1.185 . S
C150 O153 1.355 . S
Dy151 O155 2.310 1_556 S
Dy151 O158 2.351 1_556 S
Dy151 O160 2.398 1_455 S
Dy151 O161 2.491 1_455 S
Dy151 O162 2.403 . S
Dy151 O163 2.664 . S
Dy151 O165 2.326 1_455 S
O152 Dy148 2.398 . S
O152 C150 1.185 . S
O153 Dy148 2.491 . S
O153 C150 1.355 . S
O154 Dy148 2.403 . S
O154 C156 1.254 1_455 S
O155 Dy148 2.664 . S
O155 Dy151 2.310 1_554 S
O155 C156 1.268 1_455 S
C156 O154 1.254 1_655 S
C156 O155 1.268 1_655 S
C157 O162 1.254 . S
C157 O163 1.268 . S
O158 Dy151 2.351 1_554 S
O158 C166 1.249 . S
O159 Dy148 2.326 . S
O159 C166 1.267 . S
O160 C149 1.185 . S
O160 Dy151 2.398 1_655 S
O161 C149 1.355 . S
O161 Dy151 2.491 1_655 S
O162 Dy151 2.403 . S
O162 C157 1.254 . S
O163 Dy148 2.310 1_556 S
O163 Dy151 2.664 . S
O163 C157 1.268 . S
O164 Dy148 2.351 1_655 S
O164 C167 1.249 1_554 S
O165 Dy151 2.326 1_655 S
O165 C167 1.267 . S
C166 O158 1.249 . S
C166 O159 1.267 . S
C167 O164 1.249 1_556 S
C167 O165 1.267 . S
C168 C169 1.387 . S
C168 H172 0.950 . S
C168 C177 1.390 . S
C169 C168 1.387 . S
C169 C171 1.387 . S
H170 C177 0.950 . S
C171 C169 1.387 . S
C171 C173 1.390 . S
C171 H175 0.950 . S
H172 C168 0.950 . S
C173 C171 1.390 . S
C173 C174 1.387 . S
C173 H176 0.950 . S
C174 C173 1.387 . S
C174 C177 1.387 . S
H175 C171 0.950 . S
H176 C173 0.950 . S
C177 C168 1.390 . S
C177 H170 0.950 . S
C177 C174 1.387 . S
C178 C179 1.387 . S
C178 H182 0.950 . S
C178 C187 1.390 . S
C179 C178 1.387 . S
C179 C181 1.387 . S
H180 C187 0.950 . S
C181 C179 1.387 . S
C181 C183 1.390 . S
C181 H185 0.950 1_565 S
H182 C178 0.950 . S
C183 C181 1.390 . S
C183 C184 1.387 . S
C183 H186 0.950 1_565 S
C184 C183 1.387 . S
C184 C187 1.387 . S
H185 C181 0.950 1_545 S
H186 C183 0.950 1_545 S
C187 C178 1.390 . S
C187 H180 0.950 . S
C187 C184 1.387 . S
C188 C189 1.387 . S
C188 H192 0.950 . S
C188 C197 1.390 . S
C189 C188 1.387 . S
C189 C191 1.387 . S
H190 C197 0.950 . S
C191 C189 1.387 . S
C191 C193 1.390 . S
C191 H195 0.950 . S
H192 C188 0.950 . S
C193 C191 1.390 . S
C193 C194 1.387 . S
C193 H196 0.950 . S
C194 C193 1.387 . S
C194 C197 1.387 . S
H195 C191 0.950 . S
H196 C193 0.950 . S
C197 C188 1.390 . S
C197 H190 0.950 . S
C197 C194 1.387 . S
C198 C199 1.387 . S
C198 H202 0.950 . S
C198 C207 1.390 . S
C199 C198 1.387 . S
C199 C201 1.387 1_655 S
H200 C207 0.950 . S
C201 C199 1.387 1_455 S
C201 C203 1.390 . S
C201 H205 0.950 . S
H202 C198 0.950 . S
C203 C201 1.390 . S
C203 C204 1.387 1_455 S
C203 H206 0.950 . S
C204 C203 1.387 1_655 S
C204 C207 1.387 . S
H205 C201 0.950 . S
H206 C203 0.950 . S
C207 C198 1.390 . S
C207 H200 0.950 . S
C207 C204 1.387 . S
C208 C209 1.387 . S
C208 H212 0.950 . S
C208 C217 1.390 . S
C209 C208 1.387 . S
C209 C211 1.387 . S
H210 C217 0.950 . S
C211 C209 1.387 . S
C211 C213 1.390 . S
C211 H215 0.950 . S
H212 C208 0.950 . S
C213 C211 1.390 . S
C213 C214 1.387 . S
C213 H216 0.950 . S
C214 C213 1.387 . S
C214 C217 1.387 . S
H215 C211 0.950 . S
H216 C213 0.950 . S
C217 C208 1.390 . S
C217 H210 0.950 . S
C217 C214 1.387 . S
C218 C219 1.387 . S
C218 H222 0.950 1_565 S
C218 C227 1.390 . S
C219 C218 1.387 . S
C219 C221 1.387 . S
H220 C227 0.950 1_545 S
C221 C219 1.387 . S
C221 C223 1.390 . S
C221 H225 0.950 . S
H222 C218 0.950 1_545 S
C223 C221 1.390 . S
C223 C224 1.387 . S
C223 H226 0.950 . S
C224 C223 1.387 . S
C224 C227 1.387 . S
H225 C221 0.950 . S
H226 C223 0.950 . S
C227 C218 1.390 . S
C227 H220 0.950 1_565 S
C227 C224 1.387 . S
C228 C229 1.387 . S
C228 H232 0.950 . S
C228 C237 1.390 . S
C229 C228 1.387 . S
C229 C231 1.387 . S
H230 C237 0.950 . S
C231 C229 1.387 . S
C231 C233 1.390 . S
C231 H235 0.950 . S
H232 C228 0.950 . S
C233 C231 1.390 . S
C233 C234 1.387 . S
C233 H236 0.965 . S
C234 C233 1.387 . S
C234 C237 1.387 . S
H235 C231 0.950 . S
H236 C233 0.965 . S
C237 C228 1.390 . S
C237 H230 0.950 . S
C237 C234 1.387 . S
C238 C239 1.387 . S
C238 H242 0.950 . S
C238 C247 1.390 . S
C239 C238 1.387 . S
C239 C241 1.387 . S
H240 C247 0.950 . S
C241 C239 1.387 . S
C241 C243 1.390 . S
C241 H245 0.950 . S
H242 C238 0.950 . S
C243 C241 1.390 . S
C243 C244 1.387 . S
C243 H246 0.950 . S
C244 C243 1.387 . S
C244 C247 1.387 . S
H245 C241 0.950 . S
H246 C243 0.950 . S
C247 C238 1.390 . S
C247 H240 0.950 . S
C247 C244 1.387 . S
C248 C249 1.387 . S
C248 H252 0.950 . S
C248 C257 1.390 . S
C249 C248 1.387 . S
C249 C251 1.387 . S
H250 C257 0.950 . S
C251 C249 1.387 . S
C251 C253 1.390 . S
C251 H255 0.950 . S
H252 C248 0.950 . S
C253 C251 1.390 . S
C253 C254 1.387 . S
C253 H256 0.950 . S
C254 C253 1.387 . S
C254 C257 1.387 . S
H255 C251 0.950 . S
H256 C253 0.950 . S
C257 C248 1.390 . S
C257 H250 0.950 . S
C257 C254 1.387 . S
C258 C259 1.387 . S
C258 H262 0.950 1_556 S
C258 C267 1.390 1_556 S
C259 C258 1.387 . S
C259 C261 1.387 . S
H260 C267 0.950 . S
C261 C259 1.387 . S
C261 C263 1.390 . S
C261 H265 0.950 . S
H262 C258 0.950 1_554 S
C263 C261 1.390 . S
C263 C264 1.387 1_556 S
C263 H266 0.950 . S
C264 C263 1.387 1_554 S
C264 C267 1.387 . S
H265 C261 0.950 . S
H266 C263 0.950 . S
C267 C258 1.390 1_554 S
C267 H260 0.950 . S
C267 C264 1.387 . S
C268 C269 1.387 . S
C268 H272 0.950 1_655 S
C268 C277 1.390 . S
C269 C268 1.387 . S
C269 C271 1.387 . S
H270 C277 0.950 1_455 S
C271 C269 1.387 . S
C271 C273 1.390 . S
C271 H275 0.950 . S
H272 C268 0.950 1_455 S
C273 C271 1.390 . S
C273 C274 1.387 . S
C273 H276 0.950 . S
C274 C273 1.387 . S
C274 C277 1.387 . S
H275 C271 0.950 . S
H276 C273 0.950 . S
C277 C268 1.390 . S
C277 H270 0.950 1_655 S
C277 C274 1.387 . S
C278 C279 1.387 . S
C278 H282 0.950 . S
C278 C287 1.390 . S
C279 C278 1.387 . S
C279 C281 1.387 . S
H280 C287 0.950 . S
C281 C279 1.387 . S
C281 C283 1.390 . S
C281 H285 0.950 . S
H282 C278 0.950 . S
C283 C281 1.390 . S
C283 C284 1.387 . S
C283 H286 0.950 . S
C284 C283 1.387 . S
C284 C287 1.387 . S
H285 C281 0.950 . S
H286 C283 0.950 . S
C287 C278 1.390 . S
C287 H280 0.950 . S
C287 C284 1.387 . S
C288 C289 1.387 . S
C288 H292 0.950 . S
C288 C297 1.390 . S
C289 C288 1.387 . S
C289 C291 1.387 . S
H290 C297 0.950 . S
C291 C289 1.387 . S
C291 C293 1.390 . S
C291 H295 0.950 . S
H292 C288 0.950 . S
C293 C291 1.390 . S
C293 C294 1.387 . S
C293 H296 0.950 . S
C294 C293 1.387 . S
C294 C297 1.387 . S
H295 C291 0.950 . S
H296 C293 0.950 . S
C297 C288 1.390 . S
C297 H290 0.950 . S
C297 C294 1.387 . S
C298 C299 1.387 . S
C298 H302 0.950 . S
C298 C307 1.390 . S
C299 C298 1.387 . S
C299 C301 1.387 . S
H300 C307 0.950 . S
C301 C299 1.387 . S
C301 C303 1.390 . S
C301 H305 0.950 . S
H302 C298 0.950 . S
C303 C301 1.390 . S
C303 C304 1.387 . S
C303 H306 0.950 . S
C304 C303 1.387 . S
C304 C307 1.387 . S
H305 C301 0.950 . S
H306 C303 0.950 . S
C307 C298 1.390 . S
C307 H300 0.950 . S
C307 C304 1.387 . S
C308 C309 1.387 . S
C308 H312 0.950 . S
C308 C317 1.390 . S
C309 C308 1.387 . S
C309 C311 1.387 . S
H310 C317 0.950 . S
C311 C309 1.387 . S
C311 C313 1.390 . S
C311 H315 0.950 . S
H312 C308 0.950 . S
C313 C311 1.390 . S
C313 C314 1.387 . S
C313 H316 0.950 . S
C314 C313 1.387 . S
C314 C317 1.387 . S
H315 C311 0.950 . S
H316 C313 0.950 . S
C317 C308 1.390 . S
C317 H310 0.950 . S
C317 C314 1.387 . S
C318 C319 1.387 . S
C318 H322 0.950 . S
C318 C327 1.390 . S
C319 C318 1.387 . S
C319 C321 1.387 . S
H320 C327 0.950 . S
C321 C319 1.387 . S
C321 C323 1.390 . S
C321 H325 0.950 . S
H322 C318 0.950 . S
C323 C321 1.390 . S
C323 C324 1.387 . S
C323 H326 0.950 . S
C324 C323 1.387 . S
C324 C327 1.387 . S
H325 C321 0.950 . S
H326 C323 0.950 . S
C327 C318 1.390 . S
C327 H320 0.950 . S
C327 C324 1.387 . S
C328 C329 1.387 . S
C328 H332 0.950 . S
C328 C337 1.390 . S
C329 C328 1.387 . S
C329 C331 1.387 . S
H330 C337 0.950 . S
C331 C329 1.387 . S
C331 C333 1.390 . S
C331 H335 0.950 . S
H332 C328 0.950 . S
C333 C331 1.390 . S
C333 C334 1.387 . S
C333 H336 0.950 . S
C334 C333 1.387 . S
C334 C337 1.387 . S
H335 C331 0.950 . S
H336 C333 0.950 . S
C337 C328 1.390 . S
C337 H330 0.950 . S
C337 C334 1.387 . S
C338 C339 1.387 . S
C338 H342 0.950 . S
C338 C347 1.390 . S
C339 C338 1.387 . S
C339 C341 1.387 . S
H340 C347 0.950 . S
C341 C339 1.387 . S
C341 C343 1.390 . S
C341 H345 0.950 . S
H342 C338 0.950 . S
C343 C341 1.390 . S
C343 C344 1.387 . S
C343 H346 0.950 . S
C344 C343 1.387 . S
C344 C347 1.387 . S
H345 C341 0.950 . S
H346 C343 0.950 . S
C347 C338 1.390 . S
C347 H340 0.950 . S
C347 C344 1.387 . S
C348 C349 1.387 . S
C348 H352 0.950 . S
C348 C357 1.390 . S
C349 C348 1.387 . S
C349 C351 1.387 . S
H350 C357 0.950 . S
C351 C349 1.387 . S
C351 C353 1.390 . S
C351 H355 0.950 . S
H352 C348 0.950 . S
C353 C351 1.390 . S
C353 C354 1.387 . S
C353 H356 0.950 . S
C354 C353 1.387 . S
C354 C357 1.387 . S
H355 C351 0.950 . S
H356 C353 0.950 . S
C357 C348 1.390 . S
C357 H350 0.950 . S
C357 C354 1.387 . S
C358 C359 1.387 . S
C358 H362 0.950 . S
C358 C367 1.390 . S
C359 C358 1.387 . S
C359 C361 1.387 . S
H360 C367 0.950 . S
C361 C359 1.387 . S
C361 C363 1.390 . S
C361 H365 0.950 . S
H362 C358 0.950 . S
C363 C361 1.390 . S
C363 C364 1.387 . S
C363 H366 0.950 . S
C364 C363 1.387 . S
C364 C367 1.387 . S
H365 C361 0.950 . S
H366 C363 0.950 . S
C367 C358 1.390 . S
C367 H360 0.950 . S
C367 C364 1.387 . S
C368 C369 1.387 . S
C368 H372 0.950 . S
C368 C377 1.390 . S
C369 C368 1.387 . S
C369 C371 1.387 . S
H370 C377 0.950 . S
C371 C369 1.387 . S
C371 C373 1.390 . S
C371 H375 0.950 . S
H372 C368 0.950 . S
C373 C371 1.390 . S
C373 C374 1.387 . S
C373 H376 0.950 . S
C374 C373 1.387 . S
C374 C377 1.387 . S
H375 C371 0.950 . S
H376 C373 0.950 . S
C377 C368 1.390 . S
C377 H370 0.950 . S
C377 C374 1.387 . S
C378 C379 1.387 . S
C378 H382 0.950 . S
C378 C387 1.390 . S
C379 C378 1.387 . S
C379 C381 1.387 . S
H380 C387 0.950 . S
C381 C379 1.387 . S
C381 C383 1.390 . S
C381 H385 0.950 . S
H382 C378 0.950 . S
C383 C381 1.390 . S
C383 C384 1.387 . S
C383 H386 0.950 . S
C384 C383 1.387 . S
C384 C387 1.387 . S
H385 C381 0.950 . S
H386 C383 0.950 . S
C387 C378 1.390 . S
C387 H380 0.950 . S
C387 C384 1.387 . S
C388 C389 1.387 . S
C388 H392 0.950 . S
C388 C397 1.390 . S
C389 C388 1.387 . S
C389 C391 1.387 . S
H390 C397 0.950 . S
C391 C389 1.387 . S
C391 C393 1.390 . S
C391 H395 0.950 . S
H392 C388 0.950 . S
C393 C391 1.390 . S
C393 C394 1.387 . S
C393 H396 0.950 . S
C394 C393 1.387 . S
C394 C397 1.387 . S
H395 C391 0.950 . S
H396 C393 0.950 . S
C397 C388 1.390 . S
C397 H390 0.950 . S
C397 C394 1.387 . S
C398 C399 1.387 . S
C398 H402 0.950 . S
C398 C407 1.390 . S
C399 C398 1.387 . S
C399 C401 1.387 . S
H400 C407 0.950 . S
C401 C399 1.387 . S
C401 C403 1.390 . S
C401 H405 0.950 . S
H402 C398 0.950 . S
C403 C401 1.390 . S
C403 C404 1.387 . S
C403 H406 0.950 . S
C404 C403 1.387 . S
C404 C407 1.387 . S
H405 C401 0.950 . S
H406 C403 0.950 . S
C407 C398 1.390 . S
C407 H400 0.950 . S
C407 C404 1.387 . S
C169 C5 1.281 . S
C174 C90 1.583 . S
C179 C18 1.324 . S
C184 C109 1.420 . S
C194 C146 1.627 . S
C189 C30 1.641 . S
C199 C41 1.558 . S
C204 C156 1.516 . S
C214 C126 1.979 . S
C209 C7 1.846 . S
C224 C96 1.522 . S
C219 C16 1.298 . S
C234 C167 1.615 . S
C229 C29 1.539 . S
C244 C137 1.166 . S
C239 C38 1.106 . S
C249 C8 1.611 . S
C254 C150 1.691 . S
C264 C117 1.886 . S
C259 C27 1.710 . S
C269 C40 1.790 . S
C274 C107 1.802 . S
C279 C19 1.076 . S
C284 C129 1.093 . S
C294 C89 1.491 . S
C289 C51 1.314 . S
C299 C62 1.518 . S
C304 C110 1.487 . S
C309 C74 1.757 . S
C314 C147 1.747 . S
C319 C84 1.569 . S
C324 C157 1.643 . S
C329 C49 1.594 . S
C334 C127 2.056 1_556 S
C344 C97 1.428 . S
C339 C63 1.452 . S
C354 C166 1.536 . S
C349 C71 1.438 . S
C364 C136 1.282 . S
C359 C85 1.261 . S
C369 C52 1.553 . S
C374 C149 1.646 . S
C384 C116 1.934 . S
C379 C73 1.960 . S
C394 C106 1.566 . S
C389 C82 1.267 . S
C399 C60 1.081 . S
C404 C130 1.308 . S
