# Generated by pormake.
# Topology gar, (4,6)-cn, num edge types: 1
# Building blocks:
#     Node 0, Type 0, BuildingBlock: QUQFOY_clean_sbu_1, # of connection points: 4
#     Node 1, Type 0, BuildingBlock: QUQFOY_clean_sbu_1, # of connection points: 4
#     Node 2, Type 0, BuildingBlock: QUQFOY_clean_sbu_1, # of connection points: 4
#     Node 3, Type 0, BuildingBlock: QUQFOY_clean_sbu_1, # of connection points: 4
#     Node 4, Type 0, BuildingBlock: QUQFOY_clean_sbu_1, # of connection points: 4
#     Node 5, Type 0, BuildingBlock: QUQFOY_clean_sbu_1, # of connection points: 4
#     Node 6, Type 0, BuildingBlock: QUQFOY_clean_sbu_1, # of connection points: 4
#     Node 7, Type 0, BuildingBlock: QUQFOY_clean_sbu_1, # of connection points: 4
#     Node 8, Type 0, BuildingBlock: QUQFOY_clean_sbu_1, # of connection points: 4
#     Node 9, Type 0, BuildingBlock: QUQFOY_clean_sbu_1, # of connection points: 4
#     Node 10, Type 0, BuildingBlock: QUQFOY_clean_sbu_1, # of connection points: 4
#     Node 11, Type 0, BuildingBlock: QUQFOY_clean_sbu_1, # of connection points: 4
#     Node 12, Type 0, BuildingBlock: QUQFOY_clean_sbu_1, # of connection points: 4
#     Node 13, Type 0, BuildingBlock: QUQFOY_clean_sbu_1, # of connection points: 4
#     Node 14, Type 0, BuildingBlock: QUQFOY_clean_sbu_1, # of connection points: 4
#     Node 15, Type 0, BuildingBlock: QUQFOY_clean_sbu_1, # of connection points: 4
#     Node 16, Type 0, BuildingBlock: QUQFOY_clean_sbu_1, # of connection points: 4
#     Node 17, Type 0, BuildingBlock: QUQFOY_clean_sbu_1, # of connection points: 4
#     Node 18, Type 0, BuildingBlock: QUQFOY_clean_sbu_1, # of connection points: 4
#     Node 19, Type 0, BuildingBlock: QUQFOY_clean_sbu_1, # of connection points: 4
#     Node 20, Type 0, BuildingBlock: QUQFOY_clean_sbu_1, # of connection points: 4
#     Node 21, Type 0, BuildingBlock: QUQFOY_clean_sbu_1, # of connection points: 4
#     Node 22, Type 0, BuildingBlock: QUQFOY_clean_sbu_1, # of connection points: 4
#     Node 23, Type 0, BuildingBlock: QUQFOY_clean_sbu_1, # of connection points: 4
#     Node 24, Type 1, BuildingBlock: KUMBUR_clean_sbu_0, # of connection points: 6
#     Node 25, Type 1, BuildingBlock: KUMBUR_clean_sbu_0, # of connection points: 6
#     Node 26, Type 1, BuildingBlock: KUMBUR_clean_sbu_0, # of connection points: 6
#     Node 27, Type 1, BuildingBlock: KUMBUR_clean_sbu_0, # of connection points: 6
#     Node 28, Type 1, BuildingBlock: KUMBUR_clean_sbu_0, # of connection points: 6
#     Node 29, Type 1, BuildingBlock: KUMBUR_clean_sbu_0, # of connection points: 6
#     Node 30, Type 1, BuildingBlock: KUMBUR_clean_sbu_0, # of connection points: 6
#     Node 31, Type 1, BuildingBlock: KUMBUR_clean_sbu_0, # of connection points: 6
#     Node 32, Type 1, BuildingBlock: KUMBUR_clean_sbu_0, # of connection points: 6
#     Node 33, Type 1, BuildingBlock: KUMBUR_clean_sbu_0, # of connection points: 6
#     Node 34, Type 1, BuildingBlock: KUMBUR_clean_sbu_0, # of connection points: 6
#     Node 35, Type 1, BuildingBlock: KUMBUR_clean_sbu_0, # of connection points: 6
#     Node 36, Type 1, BuildingBlock: KUMBUR_clean_sbu_0, # of connection points: 6
#     Node 37, Type 1, BuildingBlock: KUMBUR_clean_sbu_0, # of connection points: 6
#     Node 38, Type 1, BuildingBlock: KUMBUR_clean_sbu_0, # of connection points: 6
#     Node 39, Type 1, BuildingBlock: KUMBUR_clean_sbu_0, # of connection points: 6
#     Edge 40, Type (0, 1), BuildingBlock: MIFKUJ_clean_linker_0, # of connection points: 2
#     Edge 41, Type (0, 1), BuildingBlock: MIFKUJ_clean_linker_0, # of connection points: 2
#     Edge 42, Type (0, 1), BuildingBlock: MIFKUJ_clean_linker_0, # of connection points: 2
#     Edge 43, Type (0, 1), BuildingBlock: MIFKUJ_clean_linker_0, # of connection points: 2
#     Edge 44, Type (0, 1), BuildingBlock: MIFKUJ_clean_linker_0, # of connection points: 2
#     Edge 45, Type (0, 1), BuildingBlock: MIFKUJ_clean_linker_0, # of connection points: 2
#     Edge 46, Type (0, 1), BuildingBlock: MIFKUJ_clean_linker_0, # of connection points: 2
#     Edge 47, Type (0, 1), BuildingBlock: MIFKUJ_clean_linker_0, # of connection points: 2
#     Edge 48, Type (0, 1), BuildingBlock: MIFKUJ_clean_linker_0, # of connection points: 2
#     Edge 49, Type (0, 1), BuildingBlock: MIFKUJ_clean_linker_0, # of connection points: 2
#     Edge 50, Type (0, 1), BuildingBlock: MIFKUJ_clean_linker_0, # of connection points: 2
#     Edge 51, Type (0, 1), BuildingBlock: MIFKUJ_clean_linker_0, # of connection points: 2
#     Edge 52, Type (0, 1), BuildingBlock: MIFKUJ_clean_linker_0, # of connection points: 2
#     Edge 53, Type (0, 1), BuildingBlock: MIFKUJ_clean_linker_0, # of connection points: 2
#     Edge 54, Type (0, 1), BuildingBlock: MIFKUJ_clean_linker_0, # of connection points: 2
#     Edge 55, Type (0, 1), BuildingBlock: MIFKUJ_clean_linker_0, # of connection points: 2
#     Edge 56, Type (0, 1), BuildingBlock: MIFKUJ_clean_linker_0, # of connection points: 2
#     Edge 57, Type (0, 1), BuildingBlock: MIFKUJ_clean_linker_0, # of connection points: 2
#     Edge 58, Type (0, 1), BuildingBlock: MIFKUJ_clean_linker_0, # of connection points: 2
#     Edge 59, Type (0, 1), BuildingBlock: MIFKUJ_clean_linker_0, # of connection points: 2
#     Edge 60, Type (0, 1), BuildingBlock: MIFKUJ_clean_linker_0, # of connection points: 2
#     Edge 61, Type (0, 1), BuildingBlock: MIFKUJ_clean_linker_0, # of connection points: 2
#     Edge 62, Type (0, 1), BuildingBlock: MIFKUJ_clean_linker_0, # of connection points: 2
#     Edge 63, Type (0, 1), BuildingBlock: MIFKUJ_clean_linker_0, # of connection points: 2
#     Edge 64, Type (0, 1), BuildingBlock: MIFKUJ_clean_linker_0, # of connection points: 2
#     Edge 65, Type (0, 1), BuildingBlock: MIFKUJ_clean_linker_0, # of connection points: 2
#     Edge 66, Type (0, 1), BuildingBlock: MIFKUJ_clean_linker_0, # of connection points: 2
#     Edge 67, Type (0, 1), BuildingBlock: MIFKUJ_clean_linker_0, # of connection points: 2
#     Edge 68, Type (0, 1), BuildingBlock: MIFKUJ_clean_linker_0, # of connection points: 2
#     Edge 69, Type (0, 1), BuildingBlock: MIFKUJ_clean_linker_0, # of connection points: 2
#     Edge 70, Type (0, 1), BuildingBlock: MIFKUJ_clean_linker_0, # of connection points: 2
#     Edge 71, Type (0, 1), BuildingBlock: MIFKUJ_clean_linker_0, # of connection points: 2
#     Edge 72, Type (0, 1), BuildingBlock: MIFKUJ_clean_linker_0, # of connection points: 2
#     Edge 73, Type (0, 1), BuildingBlock: MIFKUJ_clean_linker_0, # of connection points: 2
#     Edge 74, Type (0, 1), BuildingBlock: MIFKUJ_clean_linker_0, # of connection points: 2
#     Edge 75, Type (0, 1), BuildingBlock: MIFKUJ_clean_linker_0, # of connection points: 2
#     Edge 76, Type (0, 1), BuildingBlock: MIFKUJ_clean_linker_0, # of connection points: 2
#     Edge 77, Type (0, 1), BuildingBlock: MIFKUJ_clean_linker_0, # of connection points: 2
#     Edge 78, Type (0, 1), BuildingBlock: MIFKUJ_clean_linker_0, # of connection points: 2
#     Edge 79, Type (0, 1), BuildingBlock: MIFKUJ_clean_linker_0, # of connection points: 2
#     Edge 80, Type (0, 1), BuildingBlock: MIFKUJ_clean_linker_0, # of connection points: 2
#     Edge 81, Type (0, 1), BuildingBlock: MIFKUJ_clean_linker_0, # of connection points: 2
#     Edge 82, Type (0, 1), BuildingBlock: MIFKUJ_clean_linker_0, # of connection points: 2
#     Edge 83, Type (0, 1), BuildingBlock: MIFKUJ_clean_linker_0, # of connection points: 2
#     Edge 84, Type (0, 1), BuildingBlock: MIFKUJ_clean_linker_0, # of connection points: 2
#     Edge 85, Type (0, 1), BuildingBlock: MIFKUJ_clean_linker_0, # of connection points: 2
#     Edge 86, Type (0, 1), BuildingBlock: MIFKUJ_clean_linker_0, # of connection points: 2
#     Edge 87, Type (0, 1), BuildingBlock: MIFKUJ_clean_linker_0, # of connection points: 2
#     Edge 88, Type (0, 1), BuildingBlock: MIFKUJ_clean_linker_0, # of connection points: 2
#     Edge 89, Type (0, 1), BuildingBlock: MIFKUJ_clean_linker_0, # of connection points: 2
#     Edge 90, Type (0, 1), BuildingBlock: MIFKUJ_clean_linker_0, # of connection points: 2
#     Edge 91, Type (0, 1), BuildingBlock: MIFKUJ_clean_linker_0, # of connection points: 2
#     Edge 92, Type (0, 1), BuildingBlock: MIFKUJ_clean_linker_0, # of connection points: 2
#     Edge 93, Type (0, 1), BuildingBlock: MIFKUJ_clean_linker_0, # of connection points: 2
#     Edge 94, Type (0, 1), BuildingBlock: MIFKUJ_clean_linker_0, # of connection points: 2
#     Edge 95, Type (0, 1), BuildingBlock: MIFKUJ_clean_linker_0, # of connection points: 2
#     Edge 96, Type (0, 1), BuildingBlock: MIFKUJ_clean_linker_0, # of connection points: 2
#     Edge 97, Type (0, 1), BuildingBlock: MIFKUJ_clean_linker_0, # of connection points: 2
#     Edge 98, Type (0, 1), BuildingBlock: MIFKUJ_clean_linker_0, # of connection points: 2
#     Edge 99, Type (0, 1), BuildingBlock: MIFKUJ_clean_linker_0, # of connection points: 2
#     Edge 100, Type (0, 1), BuildingBlock: MIFKUJ_clean_linker_0, # of connection points: 2
#     Edge 101, Type (0, 1), BuildingBlock: MIFKUJ_clean_linker_0, # of connection points: 2
#     Edge 102, Type (0, 1), BuildingBlock: MIFKUJ_clean_linker_0, # of connection points: 2
#     Edge 103, Type (0, 1), BuildingBlock: MIFKUJ_clean_linker_0, # of connection points: 2
#     Edge 104, Type (0, 1), BuildingBlock: MIFKUJ_clean_linker_0, # of connection points: 2
#     Edge 105, Type (0, 1), BuildingBlock: MIFKUJ_clean_linker_0, # of connection points: 2
#     Edge 106, Type (0, 1), BuildingBlock: MIFKUJ_clean_linker_0, # of connection points: 2
#     Edge 107, Type (0, 1), BuildingBlock: MIFKUJ_clean_linker_0, # of connection points: 2
#     Edge 108, Type (0, 1), BuildingBlock: MIFKUJ_clean_linker_0, # of connection points: 2
#     Edge 109, Type (0, 1), BuildingBlock: MIFKUJ_clean_linker_0, # of connection points: 2
#     Edge 110, Type (0, 1), BuildingBlock: MIFKUJ_clean_linker_0, # of connection points: 2
#     Edge 111, Type (0, 1), BuildingBlock: MIFKUJ_clean_linker_0, # of connection points: 2
#     Edge 112, Type (0, 1), BuildingBlock: MIFKUJ_clean_linker_0, # of connection points: 2
#     Edge 113, Type (0, 1), BuildingBlock: MIFKUJ_clean_linker_0, # of connection points: 2
#     Edge 114, Type (0, 1), BuildingBlock: MIFKUJ_clean_linker_0, # of connection points: 2
#     Edge 115, Type (0, 1), BuildingBlock: MIFKUJ_clean_linker_0, # of connection points: 2
#     Edge 116, Type (0, 1), BuildingBlock: MIFKUJ_clean_linker_0, # of connection points: 2
#     Edge 117, Type (0, 1), BuildingBlock: MIFKUJ_clean_linker_0, # of connection points: 2
#     Edge 118, Type (0, 1), BuildingBlock: MIFKUJ_clean_linker_0, # of connection points: 2
#     Edge 119, Type (0, 1), BuildingBlock: MIFKUJ_clean_linker_0, # of connection points: 2
#     Edge 120, Type (0, 1), BuildingBlock: MIFKUJ_clean_linker_0, # of connection points: 2
#     Edge 121, Type (0, 1), BuildingBlock: MIFKUJ_clean_linker_0, # of connection points: 2
#     Edge 122, Type (0, 1), BuildingBlock: MIFKUJ_clean_linker_0, # of connection points: 2
#     Edge 123, Type (0, 1), BuildingBlock: MIFKUJ_clean_linker_0, # of connection points: 2
#     Edge 124, Type (0, 1), BuildingBlock: MIFKUJ_clean_linker_0, # of connection points: 2
#     Edge 125, Type (0, 1), BuildingBlock: MIFKUJ_clean_linker_0, # of connection points: 2
#     Edge 126, Type (0, 1), BuildingBlock: MIFKUJ_clean_linker_0, # of connection points: 2
#     Edge 127, Type (0, 1), BuildingBlock: MIFKUJ_clean_linker_0, # of connection points: 2
#     Edge 128, Type (0, 1), BuildingBlock: MIFKUJ_clean_linker_0, # of connection points: 2
#     Edge 129, Type (0, 1), BuildingBlock: MIFKUJ_clean_linker_0, # of connection points: 2
#     Edge 130, Type (0, 1), BuildingBlock: MIFKUJ_clean_linker_0, # of connection points: 2
#     Edge 131, Type (0, 1), BuildingBlock: MIFKUJ_clean_linker_0, # of connection points: 2
#     Edge 132, Type (0, 1), BuildingBlock: MIFKUJ_clean_linker_0, # of connection points: 2
#     Edge 133, Type (0, 1), BuildingBlock: MIFKUJ_clean_linker_0, # of connection points: 2
#     Edge 134, Type (0, 1), BuildingBlock: MIFKUJ_clean_linker_0, # of connection points: 2
#     Edge 135, Type (0, 1), BuildingBlock: MIFKUJ_clean_linker_0, # of connection points: 2
# Relax obj value: 0.126
# Max RMSD: 0.318
# Mean RMSD: 0.177
data_MOF--net-gar--node1-QUQFOY_clean_sbu_1--node2-KUMBUR_clean_sbu_0--edge1-MIFKUJ_clean_linker_0
_symmetry_space_group_name_H-M    P1
_symmetry_Int_Tables_number       1
_symmetry_cell_setting            triclinic
loop_
_symmetry_equiv_pos_as_xyz
'x, y, z'
_cell_length_a     78.457344
_cell_length_b     73.60843
_cell_length_c     73.576235
_cell_angle_alpha  100.36953
_cell_angle_beta   93.392077
_cell_angle_gamma 104.55966
loop_
_atom_site_label
_atom_site_type_symbol
_atom_site_fract_x
_atom_site_fract_y
_atom_site_fract_z
_atom_type_partial_charge
O0 O 0.10087 0.29411 0.39287 0.0
Cd1 Cd 0.10508 0.31559 0.37779 0.0
Cd2 Cd 0.10126 0.33463 0.40855 0.0
O3 O 0.10792 0.31365 0.42006 0.0
O4 O 0.11692 0.30585 0.35665 0.0
O5 O 0.12959 0.33227 0.37778 0.0
C6 C 0.13057 0.32003 0.36318 0.0
C7 C 0.11389 0.3668 0.41979 0.0
C8 C 0.1043 0.29681 0.41038 0.0
C9 C 0.07191 0.32622 0.37889 0.0
O10 O 0.07569 0.32882 0.39634 0.0
O11 O 0.08323 0.32295 0.368 0.0
O12 O 0.10371 0.35646 0.42931 0.0
O13 O 0.11777 0.35867 0.40411 0.0
O14 O 0.00408 0.74132 0.66717 0.0
Cd15 Cd 0.00848 0.76903 0.68016 0.0
Cd16 Cd 0.0119 0.77456 0.64798 0.0
O17 O 0.99462 0.7478 0.64107 0.0
O18 O 0.99434 0.76999 0.70111 0.0
O19 O 0.989 0.78028 0.67506 0.0
C20 C 0.98424 0.7764 0.69077 0.0
C21 C 0.01008 0.79748 0.63098 0.0
C22 C 0.99635 0.73564 0.65076 0.0
C23 C 0.04418 0.7814 0.67437 0.0
O24 O 0.03751 0.77613 0.65753 0.0
O25 O 0.0343 0.78324 0.68722 0.0
O26 O 0.01489 0.78246 0.62396 0.0
O27 O 0.00537 0.79903 0.64759 0.0
O28 O 0.63123 0.82069 0.88367 0.0
Cd29 Cd 0.61201 0.81745 0.90149 0.0
Cd30 Cd 0.5964 0.82802 0.8752 0.0
O31 O 0.61338 0.81868 0.8587 0.0
O32 O 0.61951 0.80384 0.91991 0.0
O33 O 0.59491 0.79193 0.90031 0.0
C34 C 0.60531 0.79025 0.91383 0.0
C35 C 0.56723 0.82384 0.86468 0.0
C36 C 0.62856 0.81952 0.86626 0.0
C37 C 0.60955 0.85608 0.91004 0.0
O38 O 0.60693 0.85382 0.89257 0.0
O39 O 0.60922 0.84182 0.9175 0.0
O40 O 0.57981 0.83555 0.85885 0.0
O41 O 0.5712 0.81341 0.87576 0.0
O42 O 0.49992 0.22896 0.15974 0.0
Cd43 Cd 0.50636 0.25434 0.17813 0.0
Cd44 Cd 0.51353 0.26649 0.14904 0.0
O45 O 0.49326 0.24306 0.13768 0.0
O46 O 0.49017 0.25132 0.19696 0.0
O47 O 0.49043 0.27099 0.17689 0.0
C48 C 0.4831 0.26284 0.18971 0.0
C49 C 0.51676 0.29217 0.1344 0.0
C50 C 0.49304 0.22784 0.14346 0.0
C51 C 0.54275 0.26335 0.17537 0.0
O52 O 0.53715 0.26211 0.15853 0.0
O53 O 0.53233 0.26416 0.18785 0.0
O54 O 0.51996 0.27646 0.12658 0.0
O55 O 0.51146 0.29331 0.15074 0.0
O56 O 0.07833 0.78477 0.11132 0.0
Cd57 Cd 0.08029 0.81035 0.12903 0.0
Cd58 Cd 0.09788 0.82548 0.10051 0.0
O59 O 0.089 0.7956 0.08693 0.0
O60 O 0.06417 0.80347 0.14858 0.0
O61 O 0.05903 0.82173 0.12941 0.0
C62 C 0.05406 0.81299 0.14269 0.0
C63 C 0.09167 0.85257 0.089 0.0
C64 C 0.08246 0.78156 0.09483 0.0
C65 C 0.12011 0.82708 0.13698 0.0
O66 O 0.1201 0.83043 0.12051 0.0
O67 O 0.10554 0.82064 0.14341 0.0
O68 O 0.10339 0.8443 0.08252 0.0
O69 O 0.08306 0.84523 0.10157 0.0
O70 O 0.55588 0.77129 0.41874 0.0
Cd71 Cd 0.53958 0.77024 0.44007 0.0
Cd72 Cd 0.51819 0.7829 0.40602 0.0
O73 O 0.54129 0.77745 0.39462 0.0
O74 O 0.55222 0.75959 0.45927 0.0
O75 O 0.52607 0.74379 0.44477 0.0
C76 C 0.53933 0.7442 0.45627 0.0
C77 C 0.49035 0.77898 0.38753 0.0
C78 C 0.55509 0.77406 0.4021 0.0
C79 C 0.53025 0.80945 0.44575 0.0
O80 O 0.5232 0.80552 0.42893 0.0
O81 O 0.53671 0.79749 0.45269 0.0
O82 O 0.50463 0.79156 0.38591 0.0
O83 O 0.49183 0.76785 0.3989 0.0
O84 O 0.58389 0.28237 0.61046 0.0
Cd85 Cd 0.5879 0.30676 0.63096 0.0
Cd86 Cd 0.60721 0.32311 0.60354 0.0
O87 O 0.59839 0.29417 0.58841 0.0
O88 O 0.57087 0.29828 0.64932 0.0
O89 O 0.56771 0.31987 0.63322 0.0
C90 C 0.56165 0.30938 0.64493 0.0
C91 C 0.60046 0.35019 0.59269 0.0
C92 C 0.58928 0.27986 0.59445 0.0
C93 C 0.62836 0.3222 0.64005 0.0
O94 O 0.62874 0.32683 0.62407 0.0
O95 O 0.61344 0.31533 0.64575 0.0
O96 O 0.61319 0.3432 0.58695 0.0
O97 O 0.59139 0.34183 0.60443 0.0
O98 O 0.02875 0.24224 0.92518 0.0
Cd99 Cd 0.02976 0.26259 0.90793 0.0
Cd100 Cd 0.01425 0.27968 0.94083 0.0
O101 O 0.02075 0.25647 0.95116 0.0
O102 O 0.04437 0.25457 0.88741 0.0
O103 O 0.05448 0.28091 0.90879 0.0
C104 C 0.05728 0.26932 0.89459 0.0
C105 C 0.02369 0.31262 0.95668 0.0
C106 C 0.02581 0.24251 0.94213 0.0
C107 C 0.99237 0.27067 0.9027 0.0
O108 O 0.99248 0.27388 0.92038 0.0
O109 O 0.00604 0.26734 0.89538 0.0
O110 O 0.01144 0.30027 0.96231 0.0
O111 O 0.03129 0.30624 0.94272 0.0
O112 O 0.4181 0.05042 0.27387 0.0
Cd113 Cd 0.40969 0.05503 0.3 0.0
Cd114 Cd 0.44026 0.05709 0.30703 0.0
O115 O 0.44349 0.07065 0.2856 0.0
O116 O 0.3885 0.0643 0.29896 0.0
O117 O 0.41518 0.08228 0.31238 0.0
C118 C 0.39875 0.08076 0.30721 0.0
C119 C 0.45576 0.06627 0.33522 0.0
C120 C 0.43309 0.06073 0.2715 0.0
C121 C 0.41539 0.02179 0.3076 0.0
O122 O 0.42924 0.02832 0.3003 0.0
O123 O 0.40626 0.03296 0.31384 0.0
O124 O 0.46299 0.06025 0.32081 0.0
O125 O 0.44013 0.06893 0.33309 0.0
O126 O 0.31737 0.20067 0.53712 0.0
Cd127 Cd 0.31355 0.17905 0.51373 0.0
Cd128 Cd 0.30036 0.20631 0.49765 0.0
O129 O 0.30818 0.22247 0.52503 0.0
O130 O 0.32554 0.1606 0.52261 0.0
O131 O 0.33498 0.1756 0.50032 0.0
C132 C 0.33709 0.16409 0.51108 0.0
C133 C 0.30779 0.217 0.46969 0.0
C134 C 0.31428 0.21701 0.53901 0.0
C135 C 0.27415 0.16859 0.49918 0.0
O136 O 0.27671 0.18518 0.49525 0.0
O137 O 0.28712 0.16318 0.5056 0.0
O138 O 0.29731 0.22393 0.48008 0.0
O139 O 0.31479 0.20467 0.47548 0.0
O140 O 0.16662 1.00508 0.7305 0.0
Cd141 Cd 0.18841 0.00536 0.75098 0.0
Cd142 Cd 0.15943 0.02553 0.77623 0.0
O143 O 0.14767 0.01779 0.74716 0.0
O144 O 0.20693 0.98989 0.74045 0.0
O145 O 0.19041 0.98009 0.76108 0.0
C146 C 0.2026 0.97722 0.75067 0.0
C147 C 0.14512 0.02424 0.80615 0.0
C148 C 0.15253 0.0113 0.73124 0.0
C149 C 0.19722 0.05058 0.7703 0.0
O150 O 0.18209 0.04839 0.77667 0.0
O151 O 0.20214 0.03594 0.76195 0.0
O152 O 0.14193 0.03469 0.79469 0.0
O153 O 0.15569 0.01394 0.80066 0.0
O154 O 0.31595 0.93847 0.03829 0.0
Cd155 Cd 0.31362 0.95049 0.01534 0.0
Cd156 Cd 0.31743 0.91965 1.00135 0.0
O157 O 0.30476 0.90942 0.02183 0.0
O158 O 0.30332 0.97164 0.02311 0.0
O159 O 0.28974 0.94535 1.002 0.0
C160 C 0.28957 0.96174 0.01183 0.0
C161 C 0.31511 0.90328 0.97169 0.0
C162 C 0.30971 0.92065 0.03749 0.0
C163 C 0.34763 0.95268 0.00674 0.0
O164 O 0.34278 0.93574 0.00939 0.0
O165 O 0.33617 0.96163 0.00437 0.0
O166 O 0.32229 0.89788 0.98525 0.0
O167 O 0.30744 0.91694 0.9752 0.0
O168 O 0.30733 0.39587 0.06368 0.0
Cd169 Cd 0.30992 0.41327 0.04399 0.0
Cd170 Cd 0.31962 0.38074 0.02402 0.0
O171 O 0.3083 0.36861 0.04571 0.0
O172 O 0.29804 0.43403 0.05343 0.0
O173 O 0.28706 0.41174 0.02833 0.0
C174 C 0.28545 0.42638 0.04008 0.0
C175 C 0.31315 0.36545 0.99221 0.0
C176 C 0.30572 0.37792 0.06122 0.0
C177 C 0.3482 0.41856 0.03541 0.0
O178 O 0.3445 0.40035 0.03079 0.0
O179 O 0.33594 0.42682 0.03916 0.0
O180 O 0.32245 0.35946 0.00369 0.0
O181 O 0.30682 0.37957 0.99881 0.0
O182 O 0.78898 0.14667 0.05083 0.0
Cd183 Cd 0.79108 0.13335 0.02458 0.0
Cd184 Cd 0.7916 0.16532 0.01935 0.0
O185 O 0.80535 0.17337 0.04512 0.0
O186 O 0.80344 0.11348 0.02504 0.0
O187 O 0.81449 0.14107 0.01592 0.0
C188 C 0.8164 0.12505 0.01938 0.0
C189 C 0.79931 0.17991 0.99533 0.0
C190 C 0.79841 0.16368 0.05664 0.0
C191 C 0.75841 0.13521 0.00965 0.0
O192 O 0.76493 0.15269 0.01735 0.0
O193 O 0.76846 0.12418 0.00709 0.0
O194 O 0.79375 0.18875 0.00958 0.0
O195 O 0.80167 0.16317 0.99537 0.0
O196 O 0.19661 0.54877 0.22516 0.0
Cd197 Cd 0.21066 0.54665 0.24817 0.0
Cd198 Cd 0.18347 0.54862 0.26221 0.0
O199 O 0.1726 0.53444 0.23627 0.0
O200 O 0.2266 0.531 0.24101 0.0
O201 O 0.20283 0.52247 0.25615 0.0
C202 C 0.21603 0.51836 0.24822 0.0
C203 C 0.1716 0.54122 0.28814 0.0
C204 C 0.18037 0.53986 0.22282 0.0
C205 C 0.21293 0.58262 0.2689 0.0
O206 O 0.19626 0.57685 0.26509 0.0
O207 O 0.22211 0.57068 0.26695 0.0
O208 O 0.16334 0.5482 0.27662 0.0
O209 O 0.18634 0.53741 0.28437 0.0
O210 O 0.81062 0.89677 0.56782 0.0
Cd211 Cd 0.81172 0.91249 0.5468 0.0
Cd212 Cd 0.82182 0.88134 0.52865 0.0
O213 O 0.81167 0.86916 0.55075 0.0
O214 O 0.79838 0.9322 0.5543 0.0
O215 O 0.7887 0.90799 0.53035 0.0
C216 C 0.78628 0.92297 0.54088 0.0
C217 C 0.81474 0.86534 0.49721 0.0
C218 C 0.80946 0.87895 0.56618 0.0
C219 C 0.84941 0.91988 0.53781 0.0
O220 O 0.8464 0.90171 0.53416 0.0
O221 O 0.83675 0.92749 0.54129 0.0
O222 O 0.82592 0.8612 0.50825 0.0
O223 O 0.80675 0.87792 0.50415 0.0
O224 O 0.94307 0.07424 0.23701 0.0
Cd225 Cd 0.92166 0.07402 0.25541 0.0
Cd226 Cd 0.95499 0.05632 0.27645 0.0
O227 O 0.96434 0.06371 0.25037 0.0
O228 O 0.9021 0.08701 0.24576 0.0
O229 O 0.91988 0.10132 0.27061 0.0
C230 C 0.90705 0.10196 0.25906 0.0
C231 C 0.97254 0.05887 0.30689 0.0
C232 C 0.95806 0.06977 0.23657 0.0
C233 C 0.91483 0.03099 0.26574 0.0
O234 O 0.93128 0.034 0.27132 0.0
O235 O 0.90892 0.04455 0.26061 0.0
O236 O 0.97284 0.04646 0.29214 0.0
O237 O 0.96331 0.07069 0.30439 0.0
O238 O 0.29381 0.65135 0.54694 0.0
Cd239 Cd 0.29346 0.63109 0.52387 0.0
Cd240 Cd 0.2929 0.65907 0.5084 0.0
O241 O 0.30418 0.6756 0.53342 0.0
O242 O 0.30793 0.61484 0.53065 0.0
O243 O 0.31477 0.63446 0.51068 0.0
C244 C 0.31897 0.62266 0.5201 0.0
C245 C 0.29531 0.67223 0.48218 0.0
C246 C 0.30009 0.66916 0.54789 0.0
C247 C 0.2597 0.62756 0.50798 0.0
O248 O 0.26706 0.64503 0.50837 0.0
O249 O 0.26896 0.61635 0.5109 0.0
O250 O 0.28757 0.67866 0.49581 0.0
O251 O 0.30322 0.65916 0.48394 0.0
O252 O 0.44415 0.57585 0.74106 0.0
Cd253 Cd 0.42162 0.57608 0.75751 0.0
Cd254 Cd 0.45603 0.55895 0.78172 0.0
O255 O 0.46609 0.56759 0.75616 0.0
O256 O 0.40306 0.58895 0.74508 0.0
O257 O 0.41797 0.60319 0.77155 0.0
C258 C 0.40652 0.60387 0.75844 0.0
C259 C 0.47281 0.5602 0.81267 0.0
C260 C 0.45963 0.57247 0.74163 0.0
C261 C 0.41582 0.53306 0.76795 0.0
O262 O 0.43212 0.53663 0.77459 0.0
O263 O 0.4096 0.54631 0.76246 0.0
O264 O 0.47436 0.54918 0.79742 0.0
O265 O 0.46265 0.57122 0.8106 0.0
O266 O 0.69506 0.04619 0.72053 0.0
Cd267 Cd 0.71131 0.04545 0.74259 0.0
Cd268 Cd 0.68457 0.04694 0.7582 0.0
O269 O 0.67324 0.03023 0.73339 0.0
O270 O 0.72664 0.029 0.7353 0.0
O271 O 0.70424 0.02242 0.75268 0.0
C272 C 0.7167 0.01735 0.74403 0.0
C273 C 0.67256 0.04285 0.78501 0.0
C274 C 0.67918 0.03626 0.71933 0.0
C275 C 0.71309 0.0816 0.76194 0.0
O276 O 0.69645 0.07498 0.75874 0.0
O277 O 0.72293 0.07032 0.76005 0.0
O278 O 0.66454 0.04864 0.7723 0.0
O279 O 0.68703 0.03808 0.78185 0.0
O280 O 0.81085 0.69954 0.04063 0.0
Cd281 Cd 0.80942 0.68171 0.01501 0.0
Cd282 Cd 0.79791 0.71085 0.00449 0.0
O283 O 0.80787 0.72571 0.03169 0.0
O284 O 0.82085 0.66172 0.02118 0.0
O285 O 0.83271 0.68202 0.00384 0.0
C286 C 0.83377 0.6682 0.01207 0.0
C287 C 0.80561 0.72155 0.97679 0.0
C288 C 0.81071 0.71706 0.04465 0.0
C289 C 0.77078 0.67307 1.00181 0.0
O290 O 0.77345 0.69107 0.00308 0.0
O291 O 0.78379 0.66583 0.00357 0.0
O292 O 0.7961 0.72945 0.98776 0.0
O293 O 0.81142 0.70806 0.98184 0.0
O294 O 0.92078 0.55979 0.78025 0.0
Cd295 Cd 0.91006 0.56292 0.80506 0.0
Cd296 Cd 0.93721 0.55616 0.81437 0.0
O297 O 0.94773 0.56951 0.79452 0.0
O298 O 0.89172 0.57553 0.80073 0.0
O299 O 0.91587 0.58894 0.82104 0.0
C300 C 0.90142 0.59011 0.81253 0.0
C301 C 0.95068 0.56061 0.84344 0.0
C302 C 0.93736 0.56526 0.77965 0.0
C303 C 0.90507 0.52512 0.80778 0.0
O304 O 0.92123 0.5293 0.80503 0.0
O305 O 0.89771 0.53838 0.81271 0.0
O306 O 0.95645 0.55176 0.82936 0.0
O307 O 0.93786 0.56828 0.84071 0.0
O308 O 0.82219 0.43985 0.54638 0.0
Cd309 Cd 0.81837 0.44948 0.52226 0.0
Cd310 Cd 0.8189 0.41701 0.50977 0.0
O311 O 0.80622 0.41148 0.53199 0.0
O312 O 0.80724 0.47052 0.52641 0.0
O313 O 0.79394 0.44107 0.50997 0.0
C314 C 0.79339 0.45833 0.51688 0.0
C315 C 0.81156 0.39906 0.48064 0.0
C316 C 0.81392 0.4228 0.54691 0.0
C317 C 0.85055 0.44675 0.51058 0.0
O318 O 0.84523 0.43072 0.51527 0.0
O319 O 0.83963 0.45629 0.50792 0.0
O320 O 0.81766 0.3923 0.49387 0.0
O321 O 0.80831 0.41563 0.48436 0.0
O322 O 0.66928 0.50133 0.23588 0.0
Cd323 Cd 0.69179 0.50282 0.25605 0.0
Cd324 Cd 0.66249 0.52292 0.28146 0.0
O325 O 0.65068 0.51483 0.2523 0.0
O326 O 0.70829 0.48526 0.24412 0.0
O327 O 0.69632 0.48005 0.26899 0.0
C328 C 0.70624 0.47488 0.2567 0.0
C329 C 0.64794 0.52179 0.31147 0.0
C330 C 0.65528 0.5077 0.23647 0.0
C331 C 0.7001 0.54836 0.27453 0.0
O332 O 0.6852 0.54581 0.28147 0.0
O333 O 0.70513 0.53387 0.26588 0.0
O334 O 0.64482 0.5321 0.29983 0.0
O335 O 0.65864 0.51159 0.30616 0.0
Tb336 Tb 0.03651 0.03939 0.01329 0.0
C337 C 0.09505 0.10407 0.06111 0.0
C338 C 0.10398 0.12645 0.0409 0.0
C339 C 0.10902 0.13771 0.07436 0.0
C340 C 0.09601 0.10775 0.04348 0.0
C341 C 0.10197 0.11889 0.07679 0.0
C342 C 0.11001 0.14149 0.05641 0.0
C343 C 0.09657 0.09507 0.09594 0.0
N344 N 0.08873 0.08563 0.06284 0.0
C345 C 0.0901 0.08086 0.07995 0.0
C346 C 0.10235 0.11421 0.09438 0.0
Tb347 Tb 0.0789 0.063 0.03591 0.0
N348 N 0.09064 0.0927 0.02891 0.0
C349 C 0.09432 0.09536 0.01142 0.0
C350 C 0.10654 0.12931 0.02289 0.0
C351 C 0.10198 0.11361 0.00814 0.0
H352 H 0.08582 0.06608 0.08131 0.0
H353 H 0.10439 0.11552 0.99417 0.0
H354 H 0.11607 0.15593 0.05469 0.0
H355 H 0.09725 0.09122 0.10943 0.0
H356 H 0.09111 0.08366 0.99963 0.0
H357 H 0.01084 0.98591 0.05377 0.0
H358 H 0.11263 0.14341 0.02032 0.0
H359 H 0.02872 0.03795 0.96829 0.0
H360 H 0.02658 0.01725 0.04914 0.0
H361 H 0.0157 0.01397 0.93987 0.0
H362 H 0.11431 0.1493 0.08623 0.0
H363 H 0.99845 0.95966 0.02684 0.0
H364 H 0.99441 0.94777 0.99242 0.0
H365 H 0.10761 0.12517 0.10676 0.0
H366 H 0.99641 0.95519 0.96124 0.0
N367 N 0.02489 0.00929 0.01948 0.0
C368 C 0.02201 0.00613 0.037 0.0
C369 C 0.00631 0.97323 0.02465 0.0
C370 C 0.00894 0.97637 0.00676 0.0
C371 C 0.01298 0.98813 0.03984 0.0
C372 C 0.01823 0.99483 0.00459 0.0
H373 H 0.00413 0.97989 0.94152 0.0
N374 N 0.02594 0.01758 0.98596 0.0
C375 C 0.01667 0.00953 0.95306 0.0
C376 C 0.019 0.99908 0.98717 0.0
C377 C 0.02412 0.02309 0.96926 0.0
C378 C 0.01024 0.99031 0.95402 0.0
C379 C 0.0109 0.98494 0.97128 0.0
O380 O 0.01881 0.05253 1.00182 0.0
O381 O 0.05529 0.06749 0.02297 0.0
O382 O 0.06081 0.07149 0.0564 0.0
O383 O 0.03516 0.04772 0.04418 0.0
O384 O 0.04343 0.06114 0.99636 0.0
O385 O 0.01232 0.03828 0.02456 0.0
O386 O 0.09676 0.05116 0.04892 0.0
O387 O 0.06031 0.03501 0.02589 0.0
O388 O 0.05406 0.03091 0.99235 0.0
O389 O 0.08051 0.05333 0.00518 0.0
O390 O 0.07207 0.0408 0.05247 0.0
O391 O 0.10318 0.06352 0.02497 0.0
C392 C 0.05405 0.07454 0.00845 0.0
C393 C 0.98875 0.04041 0.0044 0.0
C394 C 0.95977 0.04624 1.00138 0.0
C395 C 0.97712 0.05126 0.01006 0.0
C396 C 0.95407 0.02989 0.98703 0.0
C397 C 0.98297 0.02403 0.99022 0.0
C398 C 0.96564 0.0188 0.98157 0.0
C399 C 0.04458 0.0613 0.05825 0.0
C400 C 0.00704 0.04754 0.01288 0.0
C401 C 1.00268 0.96623 0.97326 0.0
C402 C 1.00157 0.962 0.99101 0.0
C403 C 0.06171 0.02748 0.04003 0.0
C404 C 0.12684 0.06204 0.04548 0.0
C405 C 0.13829 0.05118 0.0391 0.0
C406 C 0.15565 0.05554 0.04763 0.0
C407 C 0.16159 0.07145 0.06245 0.0
C408 C 0.13284 0.07794 0.06014 0.0
C409 C 0.15024 0.08265 0.06854 0.0
C410 C 0.07069 0.04029 0.99084 0.0
C411 C 0.10842 0.05509 0.03745 0.0
H412 H 0.98169 0.06374 0.02126 0.0
H413 H 0.94079 0.02583 0.97988 0.0
H414 H 0.99173 0.01541 0.98571 0.0
H415 H 0.96123 0.00625 0.97049 0.0
H416 H 0.13349 0.03908 0.02756 0.0
H417 H 0.17484 0.07504 0.06955 0.0
H418 H 0.12411 0.08647 0.06525 0.0
H419 H 0.15486 0.0948 0.08 0.0
Tb420 Tb 0.31038 0.79429 0.24453 0.0
C421 C 0.2909 0.85216 0.29873 0.0
C422 C 0.31748 0.87052 0.31893 0.0
C423 C 0.29414 0.88555 0.31331 0.0
C424 C 0.30731 0.85306 0.30748 0.0
C425 C 0.28398 0.86835 0.30208 0.0
C426 C 0.31096 0.88673 0.32143 0.0
C427 C 0.25583 0.84849 0.28692 0.0
N428 N 0.28085 0.83499 0.28888 0.0
C429 C 0.26297 0.83281 0.28466 0.0
C430 C 0.2665 0.86648 0.29532 0.0
Tb431 Tb 0.29334 0.80938 0.28754 0.0
N432 N 0.31282 0.83673 0.30589 0.0
C433 C 0.32792 0.83717 0.31678 0.0
C434 C 0.33356 0.87107 0.3284 0.0
C435 C 0.33868 0.85428 0.32747 0.0
H436 H 0.25384 0.81886 0.2795 0.0
H437 H 0.35073 0.85434 0.33548 0.0
H438 H 0.31854 0.90009 0.33029 0.0
H439 H 0.2419 0.84653 0.28279 0.0
H440 H 0.33218 0.82472 0.3181 0.0
H441 H 0.24814 0.74257 0.21315 0.0
H442 H 0.34174 0.88422 0.33711 0.0
H443 H 0.35143 0.78897 0.24724 0.0
H444 H 0.26617 0.77027 0.23529 0.0
H445 H 0.36682 0.76486 0.2362 0.0
H446 H 0.28886 0.89787 0.31641 0.0
H447 H 0.2623 0.71934 0.19578 0.0
H448 H 0.28943 0.7079 0.1917 0.0
H449 H 0.26079 0.87856 0.29761 0.0
H450 H 0.32141 0.71304 0.19953 0.0
N451 N 0.29099 0.76555 0.22877 0.0
C452 C 0.27287 0.76156 0.22684 0.0
C453 C 0.27036 0.73204 0.20519 0.0
C454 C 0.2886 0.73492 0.20867 0.0
C455 C 0.26239 0.74518 0.21476 0.0
C456 C 0.29865 0.75198 0.22066 0.0
H457 H 0.35016 0.7338 0.21663 0.0
N458 N 0.32546 0.77107 0.23724 0.0
C459 C 0.35255 0.76152 0.2334 0.0
C460 C 0.31644 0.75467 0.22535 0.0
C461 C 0.34358 0.77501 0.24028 0.0
C462 C 0.34315 0.74414 0.22223 0.0
C463 C 0.32494 0.74067 0.21774 0.0
O464 O 0.33515 0.81067 0.23941 0.0
O465 O 0.31204 0.81724 0.26841 0.0
O466 O 0.2754 0.80956 0.26265 0.0
O467 O 0.28591 0.80012 0.23429 0.0
O468 O 0.30947 0.82291 0.24202 0.0
O469 O 0.31401 0.7952 0.21665 0.0
O470 O 0.26762 0.79633 0.29334 0.0
O471 O 0.29221 0.78673 0.26419 0.0
O472 O 0.32866 0.7921 0.26805 0.0
O473 O 0.31714 0.80079 0.29605 0.0
O474 O 0.29148 0.77998 0.29013 0.0
O475 O 0.28866 0.81188 0.31552 0.0
C476 C 0.31134 0.83014 0.25946 0.0
C477 C 0.34166 0.81284 0.208 0.0
C478 C 0.34551 0.82715 0.18086 0.0
C479 C 0.33476 0.82024 0.19394 0.0
C480 C 0.36318 0.82613 0.18163 0.0
C481 C 0.35939 0.8122 0.20901 0.0
C482 C 0.37007 0.81868 0.19571 0.0
C483 C 0.2741 0.80626 0.24415 0.0
C484 C 0.33021 0.80596 0.22156 0.0
C485 C 0.3151 0.72388 0.20553 0.0
C486 C 0.29695 0.72102 0.20097 0.0
C487 C 0.29159 0.77332 0.27274 0.0
C488 C 0.26197 0.7937 0.32452 0.0
C489 C 0.2677 0.78042 0.33308 0.0
C490 C 0.25837 0.77295 0.34706 0.0
C491 C 0.24343 0.77912 0.3523 0.0
C492 C 0.24691 0.79939 0.32971 0.0
C493 C 0.2377 0.79214 0.34356 0.0
C494 C 0.3295 0.79519 0.28657 0.0
C495 C 0.27187 0.80316 0.3111 0.0
H496 H 0.32106 0.82084 0.19332 0.0
H497 H 0.37171 0.8315 0.17165 0.0
H498 H 0.36488 0.80652 0.2199 0.0
H499 H 0.38373 0.8181 0.1964 0.0
H500 H 0.27931 0.77603 0.32889 0.0
H501 H 0.2363 0.77415 0.3634 0.0
H502 H 0.24247 0.80978 0.32327 0.0
H503 H 0.22624 0.79683 0.34773 0.0
Tb504 Tb 0.582 0.04612 0.51952 0.0
C505 C 0.51858 0.01098 0.5591 0.0
C506 C 0.50031 0.98448 0.53607 0.0
C507 C 0.49934 0.98385 0.56889 0.0
C508 C 0.51324 1.00228 0.54075 0.0
C509 C 0.51136 1.00213 0.57342 0.0
C510 C 0.49381 0.97503 0.55022 0.0
C511 C 0.52674 0.03097 0.59543 0.0
N512 N 0.52992 0.02877 0.56287 0.0
C513 C 0.53355 0.03915 0.58073 0.0
C514 C 0.51584 0.01225 0.5918 0.0
Tb515 Tb 0.54 0.04116 0.53786 0.0
N516 N 0.51956 0.01206 0.52755 0.0
C517 C 0.51223 0.00552 0.50946 0.0
C518 C 0.4936 0.97721 0.51743 0.0
C519 C 0.49927 0.98803 0.50414 0.0
H520 H 0.5419 0.05364 0.58377 0.0
H521 H 0.49376 0.98287 0.48975 0.0
H522 H 0.48403 0.96126 0.54689 0.0
H523 H 0.52993 0.03911 0.60956 0.0
H524 H 0.51632 0.0136 0.49889 0.0
H525 H 0.62415 0.10564 0.57035 0.0
H526 H 0.48358 0.96367 0.51326 0.0
H527 H 0.58007 0.03526 0.47379 0.0
H528 H 0.60165 0.07523 0.56017 0.0
H529 H 0.59418 0.04957 0.44875 0.0
H530 H 0.49377 0.97671 0.57969 0.0
H531 H 0.63871 0.12305 0.54728 0.0
H532 H 0.64223 0.12431 0.5138 0.0
H533 H 0.51053 0.00598 0.6032 0.0
H534 H 0.63395 0.10921 0.48071 0.0
N535 N 0.60269 0.07488 0.53108 0.0
C536 C 0.60765 0.08233 0.54966 0.0
C537 C 0.62872 0.10955 0.54259 0.0
C538 C 0.62404 0.10168 0.52366 0.0
C539 C 0.62054 0.09977 0.55564 0.0
C540 C 0.61089 0.08409 0.5183 0.0
H541 H 0.61611 0.0813 0.45632 0.0
N542 N 0.59337 0.05893 0.49533 0.0
C543 C 0.59752 0.05721 0.46304 0.0
C544 C 0.60598 0.07589 0.49978 0.0
C545 C 0.58951 0.04917 0.47728 0.0
C546 C 0.60988 0.07512 0.46737 0.0
C547 C 0.61442 0.0846 0.48594 0.0
O548 O 0.59188 0.02337 0.50706 0.0
O549 O 0.55782 0.02633 0.52412 0.0
O550 O 0.55525 0.02837 0.55504 0.0
O551 O 0.58294 0.04476 0.54876 0.0
O552 O 0.56674 0.02075 0.49916 0.0
O553 O 0.60508 0.04186 0.53253 0.0
O554 O 0.53028 0.06426 0.54986 0.0
O555 O 0.56399 0.06132 0.53288 0.0
O556 O 0.56688 0.05904 0.50228 0.0
O557 O 0.53902 0.04252 0.5084 0.0
O558 O 0.55546 0.06609 0.5582 0.0
O559 O 0.51601 0.04424 0.52579 0.0
C560 C 0.55476 0.01385 0.50913 0.0
C561 C 0.62251 0.02669 0.51271 0.0
C562 C 0.64877 0.01419 0.51216 0.0
C563 C 0.6329 0.01579 0.51972 0.0
C564 C 0.65367 0.0233 0.49724 0.0
C565 C 0.62815 0.03599 0.49824 0.0
C566 C 0.64354 0.03421 0.49051 0.0
C567 C 0.57266 0.03437 0.55875 0.0
C568 C 0.60532 0.0273 0.51965 0.0
C569 C 0.62738 0.10222 0.49113 0.0
C570 C 0.63214 0.11078 0.50996 0.0
C571 C 0.56669 0.07381 0.54789 0.0
C572 C 0.49954 0.06086 0.54548 0.0
C573 C 0.48883 0.07105 0.53782 0.0
C574 C 0.47346 0.07369 0.5459 0.0
C575 C 0.46939 0.06622 0.56195 0.0
C576 C 0.49469 0.05309 0.56105 0.0
C577 C 0.47979 0.05588 0.56928 0.0
C578 C 0.54939 0.05359 0.49893 0.0
C579 C 0.51629 0.05953 0.5379 0.0
H580 H 0.62868 0.00873 0.53103 0.0
H581 H 0.66534 0.02191 0.49056 0.0
H582 H 0.62051 0.04434 0.49259 0.0
H583 H 0.64757 0.04118 0.47911 0.0
H584 H 0.49248 0.07683 0.52562 0.0
H585 H 0.4582 0.0685 0.5691 0.0
H586 H 0.50259 0.04518 0.56709 0.0
H587 H 0.47637 0.05016 0.58154 0.0
Tb588 Tb 0.28662 0.2951 0.76352 0.0
C589 C 0.34412 0.26637 0.79681 0.0
C590 C 0.35727 0.29216 0.82295 0.0
C591 C 0.35718 0.25952 0.82474 0.0
C592 C 0.34802 0.28546 0.80497 0.0
C593 C 0.34935 0.25327 0.80625 0.0
C594 C 0.36118 0.27899 0.83307 0.0
C595 C 0.34188 0.22988 0.77745 0.0
N596 N 0.33713 0.26111 0.77877 0.0
C597 C 0.33691 0.24343 0.7687 0.0
C598 C 0.34766 0.23465 0.79645 0.0
Tb599 Tb 0.32894 0.2841 0.76561 0.0
N600 N 0.34461 0.29772 0.79442 0.0
C601 C 0.35183 0.31705 0.80045 0.0
C602 C 0.3634 0.31191 0.82969 0.0
C603 C 0.36116 0.32439 0.81815 0.0
H604 H 0.33228 0.2396 0.75403 0.0
H605 H 0.36642 0.3397 0.82293 0.0
H606 H 0.36809 0.28385 0.84698 0.0
H607 H 0.34114 0.21574 0.76957 0.0
H608 H 0.35025 0.32715 0.79203 0.0
H609 H 0.25096 0.23649 0.70758 0.0
H610 H 0.37062 0.31764 0.84339 0.0
H611 H 0.28323 0.33982 0.77219 0.0
H612 H 0.26714 0.2507 0.73809 0.0
H613 H 0.27527 0.36268 0.75454 0.0
H614 H 0.36103 0.24963 0.83237 0.0
H615 H 0.24517 0.25707 0.68618 0.0
H616 H 0.24622 0.29002 0.68115 0.0
H617 H 0.35158 0.22417 0.80318 0.0
H618 H 0.25349 0.32469 0.69368 0.0
N619 N 0.27127 0.2798 0.73479 0.0
C620 C 0.26492 0.26026 0.72934 0.0
C621 C 0.25244 0.26357 0.69975 0.0
C622 C 0.25798 0.28346 0.70569 0.0
C623 C 0.2556 0.25193 0.71181 0.0
C624 C 0.26735 0.29121 0.72354 0.0
H625 H 0.26418 0.35194 0.72114 0.0
N626 N 0.27838 0.31699 0.74859 0.0
C627 C 0.27424 0.34812 0.74758 0.0
C628 C 0.27115 0.31057 0.73068 0.0
C629 C 0.27884 0.33521 0.75749 0.0
C630 C 0.26804 0.34202 0.72873 0.0
C631 C 0.26586 0.32288 0.7202 0.0
O632 O 0.27362 0.30544 0.78597 0.0
O633 O 0.30839 0.29201 0.78125 0.0
O634 O 0.31026 0.25882 0.77305 0.0
O635 O 0.28285 0.26464 0.76659 0.0
O636 O 0.29923 0.31583 0.78857 0.0
O637 O 0.26037 0.27999 0.76679 0.0
O638 O 0.3422 0.27342 0.74355 0.0
O639 O 0.30726 0.28726 0.74774 0.0
O640 O 0.30576 0.32122 0.75813 0.0
O641 O 0.33321 0.31508 0.76357 0.0
O642 O 0.31599 0.26319 0.74083 0.0
O643 O 0.35446 0.30013 0.76162 0.0
C644 C 0.31022 0.30692 0.79378 0.0
C645 C 0.24221 0.29799 0.78285 0.0
C646 C 0.21431 0.29903 0.79687 0.0
C647 C 0.22935 0.29146 0.79489 0.0
C648 C 0.21338 0.31399 0.78757 0.0
C649 C 0.23946 0.3115 0.77266 0.0
C650 C 0.22552 0.31979 0.77537 0.0
C651 C 0.29258 0.25313 0.7707 0.0
C652 C 0.259 0.29189 0.78161 0.0
C653 C 0.25758 0.31546 0.70198 0.0
C654 C 0.25352 0.29573 0.6948 0.0
C655 C 0.30541 0.27231 0.73521 0.0
C656 C 0.37362 0.28251 0.74765 0.0
C657 C 0.38598 0.288 0.73492 0.0
C658 C 0.40216 0.28257 0.73507 0.0
C659 C 0.40508 0.27081 0.74742 0.0
C660 C 0.37773 0.27181 0.7604 0.0
C661 C 0.3931 0.26568 0.76001 0.0
C662 C 0.32344 0.32689 0.76035 0.0
C663 C 0.3564 0.28759 0.74758 0.0
H664 H 0.23097 0.28051 0.80238 0.0
H665 H 0.20303 0.32128 0.7895 0.0
H666 H 0.24824 0.31593 0.76271 0.0
H667 H 0.2241 0.33083 0.76792 0.0
H668 H 0.38319 0.29671 0.72532 0.0
H669 H 0.41685 0.26564 0.74751 0.0
H670 H 0.3691 0.26813 0.77073 0.0
H671 H 0.39583 0.25701 0.76966 0.0
Tb672 Tb 0.05919 0.07035 0.52964 0.0
C673 C 0.07383 0.00905 0.47576 0.0
C674 C 0.04695 1.0 0.4545 0.0
C675 C 0.07437 0.99551 0.44318 0.0
C676 C 0.05602 0.00775 0.47246 0.0
C677 C 0.08313 1.00248 0.46126 0.0
C678 C 0.05631 0.99427 0.43981 0.0
C679 C 0.10832 0.00781 0.48397 0.0
N680 N 0.08172 0.0155 0.49346 0.0
C681 C 0.09842 0.0138 0.49792 0.0
C682 C 0.10073 1.0024 0.4655 0.0
Tb683 Tb 0.06426 0.02499 0.51525 0.0
N684 N 0.04742 0.01333 0.48703 0.0
C685 C 0.02945 0.01057 0.48471 0.0
C686 C 0.02871 0.998 0.45192 0.0
C687 C 0.0199 1.00314 0.46715 0.0
H688 H 0.10424 0.01769 0.51223 0.0
H689 H 0.00574 1.00135 0.46539 0.0
H690 H 0.04962 0.98847 0.42588 0.0
H691 H 0.12173 0.0072 0.48749 0.0
H692 H 0.0224 0.01425 0.4963 0.0
H693 H 0.11846 0.10095 0.57944 0.0
H694 H 0.02128 0.9922 0.43834 0.0
H695 H 0.01663 0.0717 0.53433 0.0
H696 H 0.10236 0.08285 0.55028 0.0
H697 H 0.99948 0.08119 0.55906 0.0
H698 H 0.08133 0.99055 0.43182 0.0
H699 H 0.10282 0.11308 0.60502 0.0
H700 H 0.07443 0.11566 0.61709 0.0
H701 H 0.10835 0.99752 0.45475 0.0
H702 H 0.04211 0.10908 0.61201 0.0
N703 N 0.07649 0.08427 0.55784 0.0
C704 C 0.09466 0.088 0.56061 0.0
C705 C 0.09534 0.10512 0.59191 0.0
C706 C 0.07694 0.10138 0.58933 0.0
C707 C 0.1042 0.09832 0.57752 0.0
C708 C 0.06773 0.09085 0.57195 0.0
H709 H 0.01417 0.09594 0.59072 0.0
N710 N 0.04108 0.07798 0.55199 0.0
C711 C 0.01347 0.08264 0.5622 0.0
C712 C 0.04949 0.08714 0.56909 0.0
C713 C 0.02336 0.07677 0.54825 0.0
C714 C 0.02181 0.09102 0.58 0.0
C715 C 0.04006 0.09386 0.58353 0.0
O716 O 0.0432 0.08592 0.51888 0.0
O717 O 0.05191 0.04574 0.50623 0.0
O718 O 0.08725 0.04428 0.50658 0.0
O719 O 0.08625 0.07416 0.52247 0.0
O720 O 0.06317 0.0716 0.50053 0.0
O721 O 0.07086 0.09916 0.52905 0.0
O722 O 0.0738 0.00554 0.52761 0.0
O723 O 0.06546 0.04623 0.54099 0.0
O724 O 0.03284 0.04946 0.52642 0.0
O725 O 0.04092 0.02254 0.53056 0.0
O726 O 0.0868 0.03564 0.53662 0.0
O727 O 0.04748 0.99721 0.51351 0.0
C728 C 0.056 0.05416 0.49262 0.0
C729 C 0.05304 0.12009 0.52511 0.0
C730 C 0.05668 0.15129 0.51678 0.0
C731 C 0.05861 0.13261 0.51303 0.0
C732 C 0.04876 0.15727 0.53259 0.0
C733 C 0.0451 0.12613 0.54082 0.0
C734 C 0.04287 0.14466 0.54444 0.0
C735 C 0.09435 0.06285 0.51254 0.0
C736 C 0.05642 0.1012 0.52093 0.0
C737 C 0.04916 0.10388 0.60084 0.0
C738 C 0.06756 0.1077 0.6037 0.0
C739 C 0.0801 0.04517 0.54943 0.0
C740 C 0.06126 0.97271 0.51685 0.0
C741 C 0.05508 0.95956 0.52799 0.0
C742 C 0.05899 0.94178 0.52517 0.0
C743 C 0.06869 0.93704 0.51034 0.0
C744 C 0.0706 0.96777 0.50192 0.0
C745 C 0.07424 0.94991 0.49866 0.0
C746 C 0.02897 0.03226 0.53058 0.0
C747 C 0.0593 0.99197 0.52283 0.0
H748 H 0.06487 0.12797 0.50091 0.0
H749 H 0.04706 0.17162 0.53567 0.0
H750 H 0.04079 0.11669 0.55029 0.0
H751 H 0.03671 0.14933 0.55656 0.0
H752 H 0.04746 0.9635 0.53916 0.0
H753 H 0.07226 0.9236 0.50793 0.0
H754 H 0.07532 0.97767 0.49303 0.0
H755 H 0.08169 0.94619 0.4873 0.0
Tb756 Tb 0.32746 0.80682 0.74963 0.0
C757 C 0.27761 0.75077 0.78583 0.0
C758 C 0.28181 0.72031 0.77133 0.0
C759 C 0.27248 0.72443 0.80234 0.0
C760 C 0.28253 0.73963 0.77112 0.0
C761 C 0.27182 0.74312 0.80132 0.0
C762 C 0.27747 0.71301 0.78732 0.0
C763 C 0.26208 0.77146 0.81177 0.0
N764 N 0.27646 0.76837 0.78387 0.0
C765 C 0.26776 0.77821 0.79595 0.0
C766 C 0.26448 0.754 0.81469 0.0
Tb767 Tb 0.28662 0.77899 0.75805 0.0
N768 N 0.2859 0.74707 0.75575 0.0
C769 C 0.28701 0.73519 0.73946 0.0
C770 C 0.28426 0.70858 0.75507 0.0
C771 C 0.28636 0.71593 0.73893 0.0
H772 H 0.26564 0.79162 0.79372 0.0
H773 H 0.28762 0.70682 0.72607 0.0
H774 H 0.27707 0.69829 0.78784 0.0
H775 H 0.25576 0.77966 0.82162 0.0
H776 H 0.28862 0.74032 0.72669 0.0
H777 H 0.33923 0.88051 0.78654 0.0
H778 H 0.28371 0.69365 0.7546 0.0
H779 H 0.33846 0.79062 0.70815 0.0
H780 H 0.33283 0.84606 0.78384 0.0
H781 H 0.34578 0.80267 0.67963 0.0
H782 H 0.2683 0.71835 0.81423 0.0
H783 H 0.34271 0.89482 0.75872 0.0
H784 H 0.34521 0.89037 0.72458 0.0
H785 H 0.25985 0.74865 0.8268 0.0
H786 H 0.34687 0.86911 0.69524 0.0
N787 N 0.33219 0.83967 0.75412 0.0
C788 C 0.3341 0.8515 0.77123 0.0
C789 C 0.3398 0.8794 0.75726 0.0
C790 C 0.33884 0.8675 0.73996 0.0
C791 C 0.33791 0.87138 0.773 0.0
C792 C 0.33524 0.84751 0.73887 0.0
H793 H 0.34747 0.83644 0.67845 0.0
N794 N 0.33494 0.81696 0.7227 0.0
C795 C 0.3431 0.8121 0.69155 0.0
C796 C 0.33658 0.8357 0.72254 0.0
C797 C 0.33893 0.80531 0.70775 0.0
C798 C 0.34397 0.83114 0.69091 0.0
C799 C 0.34112 0.84333 0.70666 0.0
O800 O 0.35223 0.80193 0.74504 0.0
O801 O 0.3148 0.77931 0.75732 0.0
O802 O 0.30177 0.78795 0.78524 0.0
O803 O 0.32346 0.81332 0.77888 0.0
O804 O 0.33109 0.77851 0.73718 0.0
O805 O 0.34845 0.81887 0.77092 0.0
O806 O 0.26169 0.78466 0.75685 0.0
O807 O 0.29957 0.80677 0.75128 0.0
O808 O 0.30914 0.80201 0.72483 0.0
O809 O 0.29242 0.77322 0.72937 0.0
O810 O 0.28208 0.80711 0.76981 0.0
O811 O 0.2667 0.76204 0.73694 0.0
C812 C 0.32211 0.7678 0.74716 0.0
C813 C 0.3771 0.8254 0.76149 0.0
C814 C 0.40795 0.83613 0.7745 0.0
C815 C 0.39083 0.82421 0.77378 0.0
C816 C 0.41119 0.84954 0.76287 0.0
C817 C 0.38042 0.83864 0.74975 0.0
C818 C 0.39745 0.85071 0.7505 0.0
C819 C 0.31493 0.80362 0.7905 0.0
C820 C 0.35966 0.81226 0.76113 0.0
C821 C 0.34349 0.86299 0.70731 0.0
C822 C 0.34246 0.87509 0.72399 0.0
C823 C 0.29214 0.81846 0.76103 0.0
C824 C 0.2374 0.75867 0.74423 0.0
C825 C 0.22335 0.75866 0.73165 0.0
C826 C 0.20585 0.74918 0.73369 0.0
C827 C 0.20278 0.73927 0.7484 0.0
C828 C 0.23417 0.74837 0.7585 0.0
C829 C 0.2169 0.73872 0.76055 0.0
C830 C 0.29795 0.7852 0.71843 0.0
C831 C 0.255 0.7707 0.74284 0.0
H832 H 0.38819 0.81389 0.78281 0.0
H833 H 0.42437 0.85877 0.76307 0.0
H834 H 0.37 0.83955 0.73998 0.0
H835 H 0.40003 0.86087 0.74138 0.0
H836 H 0.22611 0.76637 0.72045 0.0
H837 H 0.18947 0.73231 0.75083 0.0
H838 H 0.24484 0.74799 0.76819 0.0
H839 H 0.21441 0.7311 0.77182 0.0
Tb840 Tb 0.56145 0.03686 0.05045 0.0
C841 C 0.51156 0.04881 0.99032 0.0
C842 C 0.49621 0.01606 0.97572 0.0
C843 C 0.48124 0.04111 0.97557 0.0
C844 C 0.5116 0.02976 0.98533 0.0
C845 C 0.49649 0.05472 0.98499 0.0
C846 C 0.48105 0.02182 0.97107 0.0
C847 C 0.51296 0.08739 0.99721 0.0
N848 N 0.52637 0.06165 0.99979 0.0
C849 C 0.52748 0.08094 1.00223 0.0
C850 C 0.49728 0.07421 0.98881 0.0
Tb851 Tb 0.55018 0.04949 0.00586 0.0
N852 N 0.52657 0.02462 0.98991 0.0
C853 C 0.52677 0.00575 0.9847 0.0
C854 C 0.49642 0.99692 0.97096 0.0
C855 C 0.51175 0.99178 0.97546 0.0
H856 H 0.53959 0.09165 0.00824 0.0
H857 H 0.51201 0.97694 0.97188 0.0
H858 H 0.46918 0.01146 0.96374 0.0
H859 H 0.51396 0.1026 0.99965 0.0
H860 H 0.53804 1.00069 0.98794 0.0
H861 H 0.6048 0.10473 0.08684 0.0
H862 H 0.48483 0.98602 0.96376 0.0
H863 H 0.56363 0.99269 0.04896 0.0
H864 H 0.5782 0.08369 0.06753 0.0
H865 H 0.58511 0.976 0.05905 0.0
H866 H 0.46957 0.04541 0.9715 0.0
H867 H 0.62837 0.09112 0.09782 0.0
H868 H 0.63966 0.06224 0.09877 0.0
H869 H 0.48605 0.07927 0.98482 0.0
H870 H 0.63456 0.02718 0.09074 0.0
N871 N 0.58639 0.05808 0.06718 0.0
C872 C 0.58818 0.07735 0.07221 0.0
C873 C 0.6167 0.08179 0.0892 0.0
C874 C 0.6147 0.06208 0.08433 0.0
C875 C 0.60338 0.08947 0.08313 0.0
C876 C 0.59915 0.05049 0.07328 0.0
H877 H 0.61425 0.99483 0.07585 0.0
N878 N 0.58105 0.02053 0.05843 0.0
C879 C 0.58859 0.99149 0.06163 0.0
C880 C 0.59645 0.03099 0.06859 0.0
C881 C 0.57654 1.00096 0.05577 0.0
C882 C 0.605 1.00217 0.07112 0.0
C883 C 0.60897 0.02219 0.07506 0.0
O884 O 0.5453 0.01747 0.06408 0.0
O885 O 0.54211 0.0356 0.02824 0.0
O886 O 0.54478 0.07041 0.02781 0.0
O887 O 0.55048 0.0613 0.05604 0.0
O888 O 0.54076 0.01096 0.03773 0.0
O889 O 0.55433 0.04767 0.07638 0.0
O890 O 0.56125 0.0748 0.99662 0.0
O891 O 0.56813 0.05513 0.03093 0.0
O892 O 0.57404 0.02161 0.02946 0.0
O893 O 0.5614 0.02525 1.00072 0.0
O894 O 0.57892 0.05925 0.00678 0.0
O895 O 0.55404 0.04631 0.97764 0.0
C896 C 0.53279 0.01887 0.02691 0.0
C897 C 0.54744 0.02635 0.09659 0.0
C898 C 0.53611 0.02613 0.12644 0.0
C899 C 0.53548 0.03059 0.1088 0.0
C900 C 0.54921 0.01763 0.13195 0.0
C901 C 0.56051 0.01785 0.10201 0.0
C902 C 0.56137 0.01354 0.11973 0.0
C903 C 0.54509 0.07228 0.04595 0.0
C904 C 0.54536 0.03082 0.07829 0.0
C905 C 0.62471 0.03363 0.08571 0.0
C906 C 0.62758 0.05357 0.09033 0.0
C907 C 0.58244 0.05997 0.02412 0.0
C908 C 0.56638 0.07401 0.96454 0.0
C909 C 0.57657 0.06577 0.95236 0.0
C910 C 0.58285 0.07456 0.93792 0.0
C911 C 0.57878 0.09156 0.93551 0.0
C912 C 0.56258 0.09119 0.96244 0.0
C913 C 0.5687 0.09988 0.94783 0.0
C914 C 0.57091 0.01759 0.01107 0.0
C915 C 0.5604 0.06493 0.97981 0.0
H916 H 0.52562 0.03747 0.10452 0.0
H917 H 0.54989 0.01394 0.14552 0.0
H918 H 0.5699 0.01453 0.09267 0.0
H919 H 0.57139 0.0069 0.12394 0.0
H920 H 0.57976 0.05265 0.95419 0.0
H921 H 0.58363 0.09849 0.92433 0.0
H922 H 0.55482 0.09776 0.97199 0.0
H923 H 0.56573 0.11309 0.94612 0.0
Tb924 Tb 0.30675 0.30021 0.26499 0.0
C925 C 0.23904 0.2511 0.2373 0.0
C926 C 0.22484 0.24061 0.26325 0.0
C927 C 0.20734 0.2471 0.23818 0.0
C928 C 0.24021 0.24573 0.25416 0.0
C929 C 0.22234 0.25067 0.22857 0.0
C930 C 0.20864 0.24237 0.25568 0.0
C931 C 0.23519 0.25081 0.19976 0.0
N932 N 0.25355 0.25304 0.228 0.0
C933 C 0.25118 0.25055 0.20898 0.0
C934 C 0.22083 0.25163 0.20978 0.0
Tb935 Tb 0.27987 0.25322 0.24414 0.0
N936 N 0.25588 0.24308 0.26037 0.0
C937 C 0.25609 0.23265 0.27402 0.0
C938 C 0.2259 0.23244 0.27885 0.0
C939 C 0.24148 0.22792 0.28392 0.0
H940 H 0.26151 0.24804 0.20062 0.0
H941 H 0.24209 0.22028 0.29511 0.0
H942 H 0.19677 0.23866 0.26254 0.0
H943 H 0.23382 0.24969 0.18484 0.0
H944 H 0.26727 0.22732 0.27705 0.0
H945 H 0.35226 0.31033 0.21363 0.0
H946 H 0.21445 0.22836 0.28624 0.0
H947 H 0.31173 0.31483 0.31028 0.0
H948 H 0.32474 0.29489 0.22497 0.0
H949 H 0.33566 0.33332 0.33493 0.0
H950 H 0.19443 0.2464 0.23159 0.0
H951 H 0.37839 0.32871 0.23581 0.0
H952 H 0.39139 0.34237 0.26906 0.0
H953 H 0.20825 0.25119 0.20253 0.0
H954 H 0.38696 0.34824 0.30225 0.0
N955 N 0.33377 0.30688 0.25357 0.0
C956 C 0.33555 0.30361 0.23497 0.0
C957 C 0.36604 0.3225 0.24096 0.0
C958 C 0.3644 0.3253 0.26 0.0
C959 C 0.35143 0.31187 0.22841 0.0
C960 C 0.34781 0.3175 0.26585 0.0
H961 H 0.36623 0.34475 0.32703 0.0
N962 N 0.32883 0.31398 0.28893 0.0
C963 C 0.33864 0.32971 0.32077 0.0
C964 C 0.34533 0.32078 0.28431 0.0
C965 C 0.32514 0.31904 0.30679 0.0
C966 C 0.35587 0.33613 0.31627 0.0
C967 C 0.35933 0.33203 0.29776 0.0
O968 O 0.29635 0.32189 0.27881 0.0
O969 O 0.27992 0.28159 0.25724 0.0
O970 O 0.28371 0.27066 0.22202 0.0
O971 O 0.29826 0.30176 0.23688 0.0
O972 O 0.28717 0.29623 0.2844 0.0
O973 O 0.30998 0.3255 0.25461 0.0
O974 O 0.28441 0.23843 0.21849 0.0
O975 O 0.3059 0.27303 0.24733 0.0
O976 O 0.31193 0.28259 0.28479 0.0
O977 O 0.28925 0.25398 0.27406 0.0
O978 O 0.30392 0.24548 0.25109 0.0
O979 O 0.27094 0.22311 0.2381 0.0
C980 C 0.27432 0.28493 0.27291 0.0
C981 C 0.30825 0.35332 0.27508 0.0
C982 C 0.3023 0.38418 0.27833 0.0
C983 C 0.2977 0.36474 0.27055 0.0
C984 C 0.31773 0.39251 0.29066 0.0
C985 C 0.32383 0.36143 0.2873 0.0
C986 C 0.32855 0.38107 0.29507 0.0
C987 C 0.2902 0.28914 0.22194 0.0
C988 C 0.30159 0.33299 0.26731 0.0
C989 C 0.37604 0.3395 0.29216 0.0
C990 C 0.37856 0.3362 0.27327 0.0
C991 C 0.31486 0.26163 0.25069 0.0
C992 C 0.28628 0.20684 0.21671 0.0
C993 C 0.2968 0.20147 0.2298 0.0
C994 C 0.3059 0.18771 0.2239 0.0
C995 C 0.30413 0.17903 0.20502 0.0
C996 C 0.28455 0.19799 0.1979 0.0
C997 C 0.29337 0.18407 0.19211 0.0
C998 C 0.30208 0.26564 0.28698 0.0
C999 C 0.27708 0.22171 0.22199 0.0
H1000 H 0.28554 0.35839 0.26123 0.0
H1001 H 0.32124 0.40763 0.29692 0.0
H1002 H 0.33216 0.35273 0.29094 0.0
H1003 H 0.34046 0.38736 0.30464 0.0
H1004 H 0.29813 0.20808 0.2444 0.0
H1005 H 0.31091 0.16819 0.20035 0.0
H1006 H 0.27636 0.20189 0.18767 0.0
H1007 H 0.29193 0.17723 0.17759 0.0
Tb1008 Tb 0.5596 0.56294 0.03551 0.0
C1009 C 0.5811 0.50526 0.97928 0.0
C1010 C 0.55568 0.49376 0.95598 0.0
C1011 C 0.58486 0.49272 0.94729 0.0
C1012 C 0.56318 0.50206 0.97447 0.0
C1013 C 0.5921 0.50018 0.96587 0.0
C1014 C 0.56669 0.48956 0.94235 0.0
C1015 C 0.61617 0.5084 0.99046 0.0
N1016 N 0.58756 0.51227 0.99738 0.0
C1017 C 0.60473 0.51317 0.00326 0.0
C1018 C 0.60989 0.50211 0.97164 0.0
Tb1019 Tb 0.56776 0.51946 0.01736 0.0
N1020 N 0.55294 0.50588 0.98812 0.0
C1021 C 0.53483 0.50037 0.98427 0.0
C1022 C 0.5373 0.48925 0.95187 0.0
C1023 C 0.52683 0.49229 0.96614 0.0
H1024 H 0.60971 0.5181 0.0178 0.0
H1025 H 0.51254 0.48845 0.96322 0.0
H1026 H 0.56118 0.48331 0.92807 0.0
H1027 H 0.62982 0.50957 0.99513 0.0
H1028 H 0.52624 0.50252 0.99484 0.0
H1029 H 0.61798 0.59693 0.08539 0.0
H1030 H 0.53104 0.4829 0.93786 0.0
H1031 H 0.51829 0.56517 0.03709 0.0
H1032 H 0.60201 0.57639 0.05691 0.0
H1033 H 0.49994 0.57752 0.05976 0.0
H1034 H 0.59312 0.48887 0.93675 0.0
H1035 H 0.60187 0.61032 0.10997 0.0
H1036 H 0.57299 0.61351 0.12091 0.0
H1037 H 0.61876 0.49833 0.96176 0.0
H1038 H 0.54073 0.60745 0.11432 0.0
N1039 N 0.57616 0.57842 0.06371 0.0
C1040 C 0.59432 0.58244 0.0667 0.0
C1041 C 0.59457 0.60144 0.09712 0.0
C1042 C 0.57613 0.59732 0.09423 0.0
C1043 C 0.6037 0.59402 0.08325 0.0
C1044 C 0.56724 0.58579 0.07715 0.0
H1045 H 0.51338 0.59402 0.09161 0.0
N1046 N 0.5415 0.57281 0.05633 0.0
C1047 C 0.51374 0.57885 0.0639 0.0
C1048 C 0.54922 0.58251 0.07346 0.0
C1049 C 0.52414 0.57169 0.05114 0.0
C1050 C 0.52137 0.58813 0.08184 0.0
C1051 C 0.5394 0.59047 0.08669 0.0
O1052 O 0.54784 0.58061 0.02247 0.0
O1053 O 0.55949 0.54323 0.00941 0.0
O1054 O 0.58779 0.54053 0.00685 0.0
O1055 O 0.58694 0.56722 0.02824 0.0
O1056 O 0.53768 0.55294 0.01289 0.0
O1057 O 0.57568 0.58944 0.03203 0.0
O1058 O 0.57932 0.50125 0.02942 0.0
O1059 O 0.56703 0.53846 0.04397 0.0
O1060 O 0.53815 0.54196 0.04429 0.0
O1061 O 0.54024 0.51427 0.02465 0.0
O1062 O 0.58888 0.5294 0.04082 0.0
O1063 O 0.55207 0.49156 0.01722 0.0
C1064 C 0.54472 0.54307 1.00082 0.0
C1065 C 0.56151 0.61368 0.02901 0.0
C1066 C 0.56576 0.64484 0.02049 0.0
C1067 C 0.56752 0.62606 0.017 0.0
C1068 C 0.55803 0.65114 0.03638 0.0
C1069 C 0.55382 0.62012 0.04478 0.0
C1070 C 0.55214 0.63883 0.04845 0.0
C1071 C 0.59491 0.55843 0.0155 0.0
C1072 C 0.56256 0.5939 0.02393 0.0
C1073 C 0.54804 0.60126 0.10398 0.0
C1074 C 0.5664 0.60475 0.10771 0.0
C1075 C 0.58137 0.53819 0.05337 0.0
C1076 C 0.56739 0.46813 0.02014 0.0
C1077 C 0.56099 0.45481 0.03107 0.0
C1078 C 0.56494 0.43706 0.02817 0.0
C1079 C 0.57508 0.43259 0.01367 0.0
C1080 C 0.57739 0.46358 0.00568 0.0
C1081 C 0.58114 0.44577 1.00242 0.0
C1082 C 0.53158 0.52373 0.03612 0.0
C1083 C 0.56499 0.48723 0.02587 0.0
H1084 H 0.57352 0.62098 0.00487 0.0
H1085 H 0.55623 0.66545 0.0393 0.0
H1086 H 0.54892 0.61073 0.05408 0.0
H1087 H 0.54607 0.64372 0.06056 0.0
H1088 H 0.55315 0.4585 0.04212 0.0
H1089 H 0.57861 0.41912 0.01125 0.0
H1090 H 0.58256 0.47381 0.9972 0.0
H1091 H 0.58904 0.44232 0.9914 0.0
Tb1092 Tb 0.8293 0.30667 0.26081 0.0
C1093 C 0.77951 0.2466 0.29433 0.0
C1094 C 0.78489 0.21672 0.2796 0.0
C1095 C 0.773 0.21919 0.30941 0.0
C1096 C 0.78525 0.23602 0.27974 0.0
C1097 C 0.77288 0.23819 0.30914 0.0
C1098 C 0.77908 0.20849 0.29469 0.0
C1099 C 0.76478 0.26723 0.32123 0.0
N1100 N 0.77918 0.26472 0.2933 0.0
C1101 C 0.77145 0.2749 0.30621 0.0
C1102 C 0.76567 0.24887 0.32282 0.0
Tb1103 Tb 0.78922 0.27562 0.2676 0.0
N1104 N 0.79001 0.24424 0.26508 0.0
C1105 C 0.79355 0.2334 0.2493 0.0
C1106 C 0.78984 0.20611 0.26405 0.0
C1107 C 0.79413 0.2145 0.24882 0.0
H1108 H 0.77058 0.28907 0.30516 0.0
H1109 H 0.79804 0.20649 0.23674 0.0
H1110 H 0.77874 0.19372 0.29485 0.0
H1111 H 0.75892 0.27547 0.33154 0.0
H1112 H 0.79664 0.23934 0.23716 0.0
H1113 H 0.82069 0.37663 0.28922 0.0
H1114 H 0.79001 0.19135 0.26349 0.0
H1115 H 0.84966 0.29273 0.22377 0.0
H1116 H 0.82238 0.34412 0.29028 0.0
H1117 H 0.85878 0.30457 0.19581 0.0
H1118 H 0.76803 0.21249 0.3207 0.0
H1119 H 0.82584 0.3893 0.26055 0.0
H1120 H 0.83498 0.38491 0.22835 0.0
H1121 H 0.76036 0.24289 0.33437 0.0
H1122 H 0.84549 0.36537 0.203 0.0
N1123 N 0.82731 0.33739 0.26187 0.0
C1124 C 0.82437 0.34906 0.27745 0.0
C1125 C 0.82637 0.37478 0.26079 0.0
C1126 C 0.83072 0.36336 0.24537 0.0
C1127 C 0.8235 0.36771 0.277 0.0
C1128 C 0.83122 0.34452 0.24637 0.0
H1129 H 0.85456 0.33554 0.19084 0.0
N1130 N 0.83885 0.316 0.23417 0.0
C1131 C 0.85256 0.31275 0.2058 0.0
C1132 C 0.83728 0.33354 0.23212 0.0
C1133 C 0.84717 0.30598 0.22167 0.0
C1134 C 0.85015 0.33024 0.20305 0.0
C1135 C 0.84279 0.34106 0.21645 0.0
O1136 O 0.85213 0.3008 0.27255 0.0
O1137 O 0.8177 0.27818 0.2668 0.0
O1138 O 0.8054 0.28321 0.29428 0.0
O1139 O 0.82211 0.31197 0.28897 0.0
O1140 O 0.83606 0.28016 0.24834 0.0
O1141 O 0.8512 0.32957 0.27354 0.0
O1142 O 0.76377 0.27992 0.26637 0.0
O1143 O 0.80075 0.30385 0.26092 0.0
O1144 O 0.81502 0.29718 0.23328 0.0
O1145 O 0.79385 0.27075 0.23852 0.0
O1146 O 0.78274 0.30259 0.27947 0.0
O1147 O 0.76965 0.25729 0.24691 0.0
C1148 C 0.82634 0.26807 0.25674 0.0
C1149 C 0.87909 0.32314 0.27161 0.0
C1150 C 0.91046 0.32486 0.27817 0.0
C1151 C 0.89313 0.32165 0.28351 0.0
C1152 C 0.91318 0.32887 0.26036 0.0
C1153 C 0.88251 0.3286 0.25463 0.0
C1154 C 0.89937 0.33105 0.24888 0.0
C1155 C 0.81684 0.30011 0.30019 0.0
C1156 C 0.86099 0.3186 0.27704 0.0
C1157 C 0.84141 0.35941 0.21498 0.0
C1158 C 0.8354 0.37053 0.22941 0.0
C1159 C 0.79195 0.31417 0.27034 0.0
C1160 C 0.73999 0.25349 0.25358 0.0
C1161 C 0.72549 0.25679 0.24403 0.0
C1162 C 0.70822 0.24667 0.24584 0.0
C1163 C 0.70555 0.23307 0.25729 0.0
C1164 C 0.73727 0.2397 0.26476 0.0
C1165 C 0.72005 0.22953 0.26659 0.0
C1166 C 0.80215 0.28144 0.22754 0.0
C1167 C 0.75757 0.26566 0.25244 0.0
H1168 H 0.89047 0.3184 0.29701 0.0
H1169 H 0.92601 0.33053 0.25523 0.0
H1170 H 0.87225 0.33106 0.2458 0.0
H1171 H 0.90177 0.33474 0.23549 0.0
H1172 H 0.72764 0.26765 0.23557 0.0
H1173 H 0.69228 0.2251 0.25888 0.0
H1174 H 0.74832 0.23691 0.27214 0.0
H1175 H 0.71795 0.21897 0.27533 0.0
Tb1176 Tb 0.06303 0.54579 0.55717 0.0
C1177 C 0.01892 0.56824 0.49467 0.0
C1178 C 1.00131 0.53848 0.4754 0.0
C1179 C 0.9927 0.56793 0.47515 0.0
C1180 C 0.01606 0.54883 0.48833 0.0
C1181 C 0.00741 0.57811 0.48805 0.0
C1182 C 0.98964 0.54813 0.46885 0.0
C1183 C 0.02649 0.60751 0.50647 0.0
N1184 N 0.03339 0.57756 0.5069 0.0
C1185 C 0.03763 0.59709 0.51241 0.0
C1186 C 0.01126 0.59797 0.49428 0.0
Tb1187 Tb 0.05198 0.55985 0.51429 0.0
N1188 N 0.02766 0.54009 0.49503 0.0
C1189 C 0.02509 0.52075 0.48922 0.0
C1190 C 0.99884 0.51879 0.46931 0.0
C1191 C 0.01085 0.50995 0.47622 0.0
H1192 H 0.04954 0.6046 0.52162 0.0
H1193 H 0.00931 0.49481 0.47144 0.0
H1194 H 0.97829 0.54044 0.45885 0.0
H1195 H 0.02975 0.6229 0.51116 0.0
H1196 H 0.03381 0.51326 0.49444 0.0
H1197 H 0.1078 0.61077 0.59769 0.0
H1198 H 0.98777 0.51033 0.45927 0.0
H1199 H 0.06386 0.50045 0.55151 0.0
H1200 H 0.08121 0.59179 0.57725 0.0
H1201 H 0.0837 0.48196 0.5613 0.0
H1202 H 0.9837 0.57525 0.46986 0.0
H1203 H 0.12997 0.5951 0.60808 0.0
H1204 H 0.13842 0.56467 0.60922 0.0
H1205 H 1.00275 0.60609 0.48952 0.0
H1206 H 0.13232 0.52972 0.59878 0.0
N1207 N 0.08837 0.56538 0.57467 0.0
C1208 C 0.09075 0.58458 0.58119 0.0
C1209 C 0.11839 0.58666 0.59872 0.0
C1210 C 0.11553 0.56689 0.59276 0.0
C1211 C 0.1059 0.59553 0.59293 0.0
C1212 C 0.10034 0.55659 0.58042 0.0
H1213 H 0.11209 0.49878 0.58066 0.0
N1214 N 0.08142 0.52763 0.56395 0.0
C1215 C 0.08758 0.49745 0.56516 0.0
C1216 C 0.09674 0.537 0.57484 0.0
C1217 C 0.0764 0.50799 0.55957 0.0
C1218 C 0.1036 0.50699 0.57602 0.0
C1219 C 0.1082 0.52699 0.58131 0.0
O1220 O 0.04615 0.5267 0.57035 0.0
O1221 O 0.04309 0.54416 0.53535 0.0
O1222 O 0.03647 0.571 0.53436 0.0
O1223 O 0.05381 0.57224 0.56171 0.0
O1224 O 0.04331 0.51952 0.5436 0.0
O1225 O 0.0564 0.55663 0.58345 0.0
O1226 O 0.06828 0.58029 0.50203 0.0
O1227 O 0.07135 0.56155 0.53645 0.0
O1228 O 0.07712 0.53246 0.53638 0.0
O1229 O 0.0603 0.53328 0.50936 0.0
O1230 O 0.07227 0.5862 0.52795 0.0
O1231 O 0.06129 0.55004 0.48925 0.0
C1232 C 0.03426 0.52704 0.53341 0.0
C1233 C 0.04934 0.53424 0.60283 0.0
C1234 C 0.03787 0.53159 0.63235 0.0
C1235 C 0.03824 0.53872 0.61595 0.0
C1236 C 0.04954 0.52062 0.63591 0.0
C1237 C 0.06098 0.52331 0.60639 0.0
C1238 C 0.06116 0.51666 0.623 0.0
C1239 C 0.04177 0.57779 0.55217 0.0
C1240 C 0.04702 0.53979 0.58503 0.0
C1241 C 0.12343 0.53715 0.59348 0.0
C1242 C 0.12697 0.55705 0.59933 0.0
C1243 C 0.08039 0.57855 0.53887 0.0
C1244 C 0.06739 0.57226 0.46976 0.0
C1245 C 0.07989 0.56935 0.45777 0.0
C1246 C 0.07875 0.57381 0.44022 0.0
C1247 C 0.06492 0.58122 0.43458 0.0
C1248 C 0.05373 0.58002 0.46436 0.0
C1249 C 0.05249 0.58442 0.44673 0.0
C1250 C 0.0717 0.52656 0.51838 0.0
C1251 C 0.06947 0.56743 0.48788 0.0
H1252 H 0.02957 0.5475 0.61311 0.0
H1253 H 0.04944 0.51478 0.64841 0.0
H1254 H 0.06962 0.5196 0.59632 0.0
H1255 H 0.07002 0.50808 0.62569 0.0
H1256 H 0.09046 0.56337 0.46201 0.0
H1257 H 0.06389 0.58466 0.42091 0.0
H1258 H 0.04418 0.58279 0.47368 0.0
H1259 H 0.04194 0.59035 0.44252 0.0
Tb1260 Tb 0.78312 0.79525 0.26853 0.0
C1261 C 0.84238 0.77081 0.30379 0.0
C1262 C 0.85633 0.79836 0.32792 0.0
C1263 C 0.85615 0.76653 0.33264 0.0
C1264 C 0.84641 0.79021 0.3104 0.0
C1265 C 0.84798 0.7588 0.31442 0.0
C1266 C 0.86035 0.78635 0.33939 0.0
C1267 C 0.8405 0.73356 0.28703 0.0
N1268 N 0.83516 0.76416 0.28592 0.0
C1269 C 0.83521 0.7461 0.27708 0.0
C1270 C 0.84641 0.73977 0.30595 0.0
Tb1271 Tb 0.82588 0.78526 0.27073 0.0
N1272 N 0.84273 0.80121 0.29859 0.0
C1273 C 0.85054 0.82059 0.30276 0.0
C1274 C 0.86312 0.81824 0.33273 0.0
C1275 C 0.86077 0.82932 0.31979 0.0
H1276 H 0.83039 0.7411 0.2625 0.0
H1277 H 0.86657 0.84467 0.32303 0.0
H1278 H 0.86764 0.79232 0.35303 0.0
H1279 H 0.83988 0.71909 0.28013 0.0
H1280 H 0.84903 0.82976 0.29329 0.0
H1281 H 0.74933 0.74027 0.20904 0.0
H1282 H 0.87096 0.82506 0.34594 0.0
H1283 H 0.77869 0.83932 0.28071 0.0
H1284 H 0.76405 0.75244 0.24066 0.0
H1285 H 0.77038 0.86356 0.26529 0.0
H1286 H 0.86025 0.75749 0.34117 0.0
H1287 H 0.74426 0.76283 0.18941 0.0
H1288 H 0.74587 0.79664 0.18662 0.0
H1289 H 0.85059 0.73009 0.3136 0.0
H1290 H 0.75177 0.83055 0.20199 0.0
N1291 N 0.76834 0.78202 0.23926 0.0
C1292 C 0.76214 0.76266 0.23251 0.0
C1293 C 0.751 0.7683 0.20333 0.0
C1294 C 0.75615 0.78797 0.21072 0.0
C1295 C 0.75372 0.75557 0.21441 0.0
C1296 C 0.76472 0.7944 0.229 0.0
H1297 H 0.76054 0.8556 0.23154 0.0
N1298 N 0.77469 0.81833 0.25569 0.0
C1299 C 0.76984 0.84954 0.25726 0.0
C1300 C 0.76807 0.81333 0.23754 0.0
C1301 C 0.77452 0.8358 0.26594 0.0
C1302 C 0.76437 0.84502 0.2382 0.0
C1303 C 0.76291 0.82654 0.2282 0.0
O1304 O 0.7694 0.80422 0.291 0.0
O1305 O 0.80521 0.79275 0.28622 0.0
O1306 O 0.80729 0.75993 0.2784 0.0
O1307 O 0.77962 0.76436 0.27023 0.0
O1308 O 0.79542 0.81596 0.29375 0.0
O1309 O 0.75726 0.77883 0.2712 0.0
O1310 O 0.83907 0.7727 0.24971 0.0
O1311 O 0.8038 0.78746 0.25267 0.0
O1312 O 0.80159 0.82161 0.26282 0.0
O1313 O 0.82925 0.8157 0.26742 0.0
O1314 O 0.81315 0.76355 0.24668 0.0
O1315 O 0.85007 0.80159 0.26386 0.0
C1316 C 0.80694 0.80761 0.29872 0.0
C1317 C 0.73791 0.79564 0.28631 0.0
C1318 C 0.7094 0.79599 0.29917 0.0
C1319 C 0.72546 0.79019 0.29909 0.0
C1320 C 0.70679 0.80808 0.28705 0.0
C1321 C 0.73394 0.80663 0.2738 0.0
C1322 C 0.71878 0.81312 0.27444 0.0
C1323 C 0.78965 0.75341 0.27509 0.0
C1324 C 0.7551 0.7903 0.28598 0.0
C1325 C 0.75558 0.82056 0.20952 0.0
C1326 C 0.75221 0.80127 0.20077 0.0
C1327 C 0.80231 0.77217 0.24066 0.0
C1328 C 0.87028 0.78435 0.25214 0.0
C1329 C 0.88198 0.7897 0.23886 0.0
C1330 C 0.89898 0.78626 0.23963 0.0
C1331 C 0.90362 0.77673 0.25334 0.0
C1332 C 0.87573 0.77553 0.26596 0.0
C1333 C 0.89213 0.77149 0.26636 0.0
C1334 C 0.81925 0.82733 0.2644 0.0
C1335 C 0.85239 0.78771 0.25148 0.0
H1336 H 0.72808 0.78123 0.30851 0.0
H1337 H 0.69521 0.81358 0.28711 0.0
H1338 H 0.74257 0.81027 0.26343 0.0
H1339 H 0.71621 0.82203 0.26496 0.0
H1340 H 0.87803 0.79681 0.22829 0.0
H1341 H 0.91629 0.77337 0.25405 0.0
H1342 H 0.86733 0.77172 0.2765 0.0
H1343 H 0.89603 0.76438 0.27693 0.0
Tb1344 Tb 0.82205 0.2935 0.74911 0.0
C1345 C 0.79887 0.3471 0.80944 0.0
C1346 C 0.82491 0.36233 0.83136 0.0
C1347 C 0.80025 0.37662 0.83143 0.0
C1348 C 0.81555 0.34735 0.81667 0.0
C1349 C 0.79111 0.36193 0.81664 0.0
C1350 C 0.81695 0.37656 0.83903 0.0
C1351 C 0.7646 0.34513 0.79638 0.0
N1352 N 0.78999 0.332 0.79591 0.0
C1353 C 0.77252 0.33047 0.79035 0.0
C1354 C 0.774 0.36106 0.80951 0.0
Tb1355 Tb 0.80258 0.30636 0.7908 0.0
N1356 N 0.82265 0.33301 0.80928 0.0
C1357 C 0.84021 0.33476 0.81433 0.0
C1358 C 0.84197 0.36254 0.838 0.0
C1359 C 0.84994 0.34921 0.82889 0.0
H1360 H 0.76404 0.31749 0.78206 0.0
H1361 H 0.86361 0.35001 0.83309 0.0
H1362 H 0.82355 0.38752 0.85089 0.0
H1363 H 0.75092 0.34366 0.79157 0.0
H1364 H 0.84734 0.32572 0.80701 0.0
H1365 H 0.76052 0.24957 0.70713 0.0
H1366 H 0.84925 0.3732 0.84979 0.0
H1367 H 0.86046 0.28219 0.75786 0.0
H1368 H 0.77763 0.276 0.7302 0.0
H1369 H 0.87242 0.25468 0.75074 0.0
H1370 H 0.79434 0.38783 0.8374 0.0
H1371 H 0.77298 0.223 0.69482 0.0
H1372 H 0.79672 0.20646 0.69746 0.0
H1373 H 0.76762 0.37213 0.81468 0.0
H1374 H 0.82633 0.20703 0.71069 0.0
N1375 N 0.80151 0.26672 0.73101 0.0
C1376 C 0.78429 0.26562 0.7249 0.0
C1377 C 0.78085 0.23481 0.70529 0.0
C1378 C 0.79765 0.23489 0.71257 0.0
C1379 C 0.77395 0.24997 0.71189 0.0
C1380 C 0.80784 0.25122 0.72549 0.0
H1381 H 0.85426 0.22456 0.73091 0.0
N1382 N 0.83403 0.26743 0.74526 0.0
C1383 C 0.85875 0.25335 0.74602 0.0
C1384 C 0.82444 0.25147 0.73307 0.0
C1385 C 0.85154 0.26886 0.75056 0.0
C1386 C 0.84852 0.23646 0.73474 0.0
C1387 C 0.83135 0.23551 0.72769 0.0
O1388 O 0.84826 0.30587 0.74482 0.0
O1389 O 0.82283 0.31489 0.77366 0.0
O1390 O 0.78663 0.30953 0.76576 0.0
O1391 O 0.80017 0.30399 0.73848 0.0
O1392 O 0.82539 0.32378 0.74864 0.0
O1393 O 0.82797 0.29243 0.72161 0.0
O1394 O 0.7761 0.29337 0.79373 0.0
O1395 O 0.8017 0.28508 0.76618 0.0
O1396 O 0.83848 0.29129 0.77435 0.0
O1397 O 0.82479 0.29641 0.80161 0.0
O1398 O 0.80023 0.27636 0.79128 0.0
O1399 O 0.79568 0.30567 0.81789 0.0
C1400 C 0.82466 0.32913 0.76612 0.0
C1401 C 0.85298 0.31623 0.71663 0.0
C1402 C 0.85159 0.33634 0.69424 0.0
C1403 C 0.84296 0.32333 0.70458 0.0
C1404 C 0.87015 0.34236 0.69593 0.0
C1405 C 0.87156 0.32226 0.7182 0.0
C1406 C 0.88009 0.33531 0.7079 0.0
C1407 C 0.78729 0.30896 0.74757 0.0
C1408 C 0.84459 0.30162 0.7268 0.0
C1409 C 0.8212 0.21932 0.71495 0.0
C1410 C 0.80442 0.21904 0.70734 0.0
C1411 C 0.8005 0.27092 0.77372 0.0
C1412 C 0.7681 0.28485 0.82222 0.0
C1413 C 0.77517 0.27401 0.83293 0.0
C1414 C 0.76426 0.26304 0.84368 0.0
C1415 C 0.74634 0.26305 0.84364 0.0
C1416 C 0.7502 0.28475 0.82235 0.0
C1417 C 0.73938 0.27389 0.83302 0.0
C1418 C 0.83777 0.29166 0.79253 0.0
C1419 C 0.779 0.29762 0.81181 0.0
H1420 H 0.82861 0.31869 0.70309 0.0
H1421 H 0.87689 0.35234 0.68783 0.0
H1422 H 0.87946 0.31667 0.72725 0.0
H1423 H 0.89442 0.33982 0.70907 0.0
H1424 H 0.78906 0.27426 0.83305 0.0
H1425 H 0.73784 0.25507 0.85221 0.0
H1426 H 0.74466 0.29338 0.81441 0.0
H1427 H 0.72565 0.27409 0.83326 0.0
Tb1428 Tb 0.8118 0.81326 0.77567 0.0
C1429 C 0.74394 0.75546 0.7409 0.0
C1430 C 0.72768 0.74835 0.76679 0.0
C1431 C 0.71176 0.74287 0.73625 0.0
C1432 C 0.74389 0.75489 0.75957 0.0
C1433 C 0.72786 0.74891 0.72895 0.0
C1434 C 0.71167 0.74259 0.75514 0.0
C1435 C 0.74474 0.75162 0.70292 0.0
N1436 N 0.75976 0.76094 0.73416 0.0
C1437 C 0.76024 0.7577 0.7152 0.0
C1438 C 0.72843 0.74753 0.70984 0.0
Tb1439 Tb 0.78465 0.76647 0.75496 0.0
N1440 N 0.75963 0.76027 0.77056 0.0
C1441 C 0.75955 0.76032 0.78924 0.0
C1442 C 0.72795 0.7474 0.7855 0.0
C1443 C 0.74389 0.75371 0.79684 0.0
H1444 H 0.7727 0.75988 0.70927 0.0
H1445 H 0.74424 0.75348 0.81151 0.0
H1446 H 0.69917 0.73758 0.76056 0.0
H1447 H 0.74544 0.7497 0.68807 0.0
H1448 H 0.77118 0.76588 0.79894 0.0
H1449 H 0.84886 0.81894 0.71521 0.0
H1450 H 0.7159 0.74176 0.79121 0.0
H1451 H 0.82683 0.82208 0.82061 0.0
H1452 H 0.82284 0.80918 0.73039 0.0
H1453 H 0.85493 0.83085 0.84012 0.0
H1454 H 0.69935 0.73787 0.72729 0.0
H1455 H 0.8783 0.83091 0.73322 0.0
H1456 H 0.89654 0.83823 0.76378 0.0
H1457 H 0.71641 0.74246 0.70027 0.0
H1458 H 0.89827 0.83993 0.79748 0.0
N1459 N 0.83586 0.81791 0.7582 0.0
C1460 C 0.83489 0.8158 0.7392 0.0
C1461 C 0.86659 0.82731 0.74034 0.0
C1462 C 0.86787 0.8285 0.75951 0.0
C1463 C 0.85002 0.82071 0.73015 0.0
C1464 C 0.85215 0.8235 0.76813 0.0
H1465 H 0.88297 0.83668 0.82587 0.0
N1466 N 0.83788 0.81884 0.79479 0.0
C1467 C 0.85472 0.82833 0.82514 0.0
C1468 C 0.85318 0.82375 0.78695 0.0
C1469 C 0.83863 0.82253 0.81384 0.0
C1470 C 0.87047 0.83177 0.81707 0.0
C1471 C 0.86987 0.83 0.79783 0.0
O1472 O 0.80717 0.83019 0.79991 0.0
O1473 O 0.78645 0.79242 0.7743 0.0
O1474 O 0.78458 0.78678 0.73539 0.0
O1475 O 0.80178 0.81776 0.74921 0.0
O1476 O 0.78618 0.81963 0.7724 0.0
O1477 O 0.82157 0.84317 0.77915 0.0
O1478 O 0.79075 0.74985 0.7312 0.0
O1479 O 0.81009 0.78699 0.75669 0.0
O1480 O 0.81124 0.79397 0.79599 0.0
O1481 O 0.79418 0.7628 0.78235 0.0
O1482 O 0.80973 0.75978 0.75981 0.0
O1483 O 0.77503 0.73652 0.75104 0.0
C1484 C 0.77629 0.80289 0.77262 0.0
C1485 C 0.80904 0.8626 0.80092 0.0
C1486 C 0.78961 0.88231 0.79552 0.0
C1487 C 0.79654 0.86685 0.7892 0.0
C1488 C 0.79544 0.89368 0.81337 0.0
C1489 C 0.81484 0.87402 0.81871 0.0
C1490 C 0.80809 0.88956 0.82488 0.0
C1491 C 0.79135 0.80534 0.73516 0.0
C1492 C 0.81593 0.84604 0.79552 0.0
C1493 C 0.88541 0.8351 0.78933 0.0
C1494 C 0.88442 0.83429 0.77019 0.0
C1495 C 0.81986 0.77631 0.75935 0.0
C1496 C 0.78723 0.71662 0.72917 0.0
C1497 C 0.79869 0.71068 0.74069 0.0
C1498 C 0.80371 0.6938 0.73423 0.0
C1499 C 0.79705 0.68299 0.7163 0.0
C1500 C 0.78074 0.70572 0.71131 0.0
C1501 C 0.78562 0.68896 0.70492 0.0
C1502 C 0.80422 0.77558 0.79655 0.0
C1503 C 0.78145 0.73393 0.73506 0.0
H1504 H 0.79206 0.8581 0.77542 0.0
H1505 H 0.79035 0.90587 0.81828 0.0
H1506 H 0.82453 0.87081 0.82788 0.0
H1507 H 0.81262 0.89838 0.83859 0.0
H1508 H 0.8038 0.7192 0.75444 0.0
H1509 H 0.80055 0.66981 0.71115 0.0
H1510 H 0.77182 0.71017 0.7023 0.0
H1511 H 0.7805 0.68056 0.69116 0.0
Tb1512 Tb 0.53917 0.53468 0.52002 0.0
C1513 C 0.60058 0.60008 0.56433 0.0
C1514 C 0.60928 0.62047 0.5423 0.0
C1515 C 0.61714 0.63344 0.57533 0.0
C1516 C 0.60074 0.60251 0.54627 0.0
C1517 C 0.60916 0.61538 0.57911 0.0
C1518 C 0.6172 0.63598 0.55693 0.0
C1519 C 0.60358 0.59325 0.59994 0.0
N1520 N 0.59345 0.58225 0.56732 0.0
C1521 C 0.59561 0.5785 0.58478 0.0
C1522 C 0.61023 0.61184 0.59713 0.0
Tb1523 Tb 0.58193 0.55827 0.54169 0.0
N1524 N 0.59335 0.58702 0.53253 0.0
C1525 C 0.59489 0.58861 0.51435 0.0
C1526 C 0.61018 0.62216 0.52376 0.0
C1527 C 0.60308 0.60609 0.50975 0.0
H1528 H 0.59092 0.56406 0.58705 0.0
H1529 H 0.60402 0.60702 0.49534 0.0
H1530 H 0.6238 0.64985 0.55414 0.0
H1531 H 0.60482 0.5902 0.61373 0.0
H1532 H 0.58959 0.57671 0.50297 0.0
H1533 H 0.51594 0.48596 0.56618 0.0
H1534 H 0.6167 0.63564 0.52015 0.0
H1535 H 0.52879 0.5286 0.47485 0.0
H1536 H 0.52909 0.51675 0.55847 0.0
H1537 H 0.5164 0.50197 0.44814 0.0
H1538 H 0.62377 0.64536 0.58647 0.0
H1539 H 0.50678 0.45668 0.54162 0.0
H1540 H 0.50218 0.44188 0.50767 0.0
H1541 H 0.61671 0.6232 0.60883 0.0
H1542 H 0.50234 0.44622 0.4753 0.0
N1543 N 0.52813 0.50587 0.52923 0.0
C1544 C 0.52528 0.5045 0.54723 0.0
C1545 C 0.51271 0.47034 0.538 0.0
C1546 C 0.51456 0.47185 0.51953 0.0
C1547 C 0.51776 0.48683 0.55186 0.0
C1548 C 0.52225 0.49003 0.51556 0.0
H1549 H 0.50735 0.46863 0.45295 0.0
N1550 N 0.52793 0.5105 0.49454 0.0
C1551 C 0.51808 0.49904 0.46193 0.0
C1552 C 0.52223 0.49244 0.4975 0.0
C1553 C 0.52512 0.51409 0.47713 0.0
C1554 C 0.51307 0.48025 0.46469 0.0
C1555 C 0.51468 0.4768 0.4827 0.0
O1556 O 0.52134 0.54624 0.50652 0.0
O1557 O 0.55793 0.56295 0.52933 0.0
O1558 O 0.56479 0.5662 0.56349 0.0
O1559 O 0.53749 0.54588 0.55023 0.0
O1560 O 0.54643 0.55518 0.50238 0.0
O1561 O 0.51529 0.53555 0.53135 0.0
O1562 O 0.59984 0.54713 0.55568 0.0
O1563 O 0.56314 0.53042 0.53216 0.0
O1564 O 0.55634 0.52708 0.49809 0.0
O1565 O 0.58367 0.54752 0.51129 0.0
O1566 O 0.57484 0.53667 0.5588 0.0
O1567 O 0.6056 0.55677 0.53026 0.0
C1568 C 0.55613 0.56938 0.51447 0.0
C1569 C 0.49147 0.53661 0.5109 0.0
C1570 C 0.46361 0.54439 0.50611 0.0
C1571 C 0.48095 0.54927 0.51459 0.0
C1572 C 0.45663 0.52657 0.49404 0.0
C1573 C 0.48447 0.51867 0.49908 0.0
C1574 C 0.46703 0.51368 0.4907 0.0
C1575 C 0.54778 0.55801 0.56474 0.0
C1576 C 0.50999 0.54347 0.51848 0.0
C1577 C 0.50809 0.45843 0.48647 0.0
C1578 C 0.508 0.45597 0.50489 0.0
C1579 C 0.56457 0.52318 0.54646 0.0
C1580 C 0.62973 0.55697 0.55098 0.0
C1581 C 0.64089 0.54519 0.5464 0.0
C1582 C 0.65887 0.5516 0.55289 0.0
C1583 C 0.66573 0.5698 0.56427 0.0
C1584 C 0.63654 0.57515 0.56245 0.0
C1585 C 0.65451 0.58148 0.56916 0.0
C1586 C 0.57331 0.53547 0.49671 0.0
C1587 C 0.61113 0.54954 0.54361 0.0
H1588 H 0.48645 0.56324 0.52359 0.0
H1589 H 0.44319 0.52267 0.48733 0.0
H1590 H 0.49248 0.50873 0.49615 0.0
H1591 H 0.46163 0.49991 0.48145 0.0
H1592 H 0.63565 0.53112 0.53752 0.0
H1593 H 0.67969 0.57488 0.56936 0.0
H1594 H 0.62812 0.58441 0.5662 0.0
H1595 H 0.65975 0.59549 0.57803 0.0
Tb1596 Tb 0.07819 0.5495 0.03114 0.0
C1597 C 0.01272 0.51354 0.06674 0.0
C1598 C 0.99706 0.48598 0.04327 0.0
C1599 C 0.99447 0.48549 0.07595 0.0
C1600 C 0.00864 0.50458 0.04833 0.0
C1601 C 0.00539 0.50434 0.08079 0.0
C1602 C 0.99034 0.4763 0.0572 0.0
C1603 C 0.01892 0.53365 0.10305 0.0
N1604 N 0.02325 0.53175 0.07078 0.0
C1605 C 0.02581 0.54218 0.08859 0.0
C1606 C 0.00886 0.51456 0.09918 0.0
Tb1607 Tb 0.0344 0.54429 0.04623 0.0
N1608 N 0.01517 0.51457 0.03534 0.0
C1609 C 0.00945 0.50725 0.01692 0.0
C1610 C 0.99216 0.47795 0.02438 0.0
C1611 C 0.99817 0.48877 0.01117 0.0
H1612 H 0.03346 0.55698 0.09172 0.0
H1613 H 0.99422 0.48283 0.99654 0.0
H1614 H 0.98155 0.46194 0.0536 0.0
H1615 H 0.02132 0.54183 0.11717 0.0
H1616 H 0.01389 0.51533 0.00643 0.0
H1617 H 0.11643 0.60954 0.08389 0.0
H1618 H 0.98336 0.46367 0.01989 0.0
H1619 H 0.08043 0.53933 0.98579 0.0
H1620 H 0.09737 0.57707 0.07231 0.0
H1621 H 0.09315 0.55623 0.96159 0.0
H1622 H 0.98883 0.47807 0.08654 0.0
H1623 H 0.12754 0.63035 0.0619 0.0
H1624 H 0.13012 0.63399 0.02875 0.0
H1625 H 1.00346 0.50801 0.11039 0.0
H1626 H 0.12395 0.6194 0.99536 0.0
N1627 N 0.09696 0.57917 0.04369 0.0
C1628 C 0.10199 0.58576 0.06235 0.0
C1629 C 0.11908 0.61602 0.05664 0.0
C1630 C 0.11477 0.60884 0.03755 0.0
C1631 C 0.11288 0.6043 0.06908 0.0
C1632 C 0.10364 0.59011 0.03148 0.0
H1633 H 0.11042 0.59025 0.97018 0.0
N1634 N 0.08999 0.56369 0.00781 0.0
C1635 C 0.09512 0.5637 0.97595 0.0
C1636 C 0.10013 0.58203 0.01283 0.0
C1637 C 0.08796 0.55416 0.9897 0.0
C1638 C 0.10483 0.58291 0.98084 0.0
C1639 C 0.10767 0.59225 0.99952 0.0
O1640 O 0.08934 0.5275 0.01925 0.0
O1641 O 0.05322 0.52979 0.03395 0.0
O1642 O 0.04831 0.53172 0.06457 0.0
O1643 O 0.07728 0.54698 0.0602 0.0
O1644 O 0.0644 0.52417 0.01005 0.0
O1645 O 0.10098 0.54582 0.04532 0.0
O1646 O 0.02346 0.56665 0.05737 0.0
O1647 O 0.05921 0.56377 0.04296 0.0
O1648 O 0.06372 0.56152 0.01254 0.0
O1649 O 0.0348 0.54586 0.01694 0.0
O1650 O 0.04832 0.57043 0.06656 0.0
O1651 O 0.0113 0.54712 0.03198 0.0
C1652 C 0.05132 0.51759 0.01889 0.0
C1653 C 0.12 0.53204 0.02659 0.0
C1654 C 0.14629 0.51957 0.02558 0.0
C1655 C 0.12948 0.51935 0.03172 0.0
C1656 C 0.15309 0.53224 0.01394 0.0
C1657 C 0.12735 0.54464 0.0152 0.0
C1658 C 0.1437 0.54461 0.00882 0.0
C1659 C 0.06551 0.53707 0.0693 0.0
C1660 C 0.10222 0.53164 0.03252 0.0
C1661 C 0.11816 0.61121 0.00537 0.0
C1662 C 0.12167 0.61952 0.02437 0.0
C1663 C 0.06121 0.57675 0.05738 0.0
C1664 C 0.99276 0.56164 0.05064 0.0
C1665 C 0.98278 0.57308 0.04402 0.0
C1666 C 0.96632 0.57365 0.05055 0.0
C1667 C 0.96031 0.56299 0.06411 0.0
C1668 C 0.98623 0.5509 0.06386 0.0
C1669 C 0.97018 0.5517 0.07063 0.0
C1670 C 0.04646 0.55581 0.00775 0.0
C1671 C 0.01027 0.56175 0.04435 0.0
H1672 H 0.12394 0.50961 0.04059 0.0
H1673 H 0.16576 0.53253 0.0087 0.0
H1674 H 0.12041 0.55444 0.0111 0.0
H1675 H 0.14915 0.55427 0.99986 0.0
H1676 H 0.98776 0.58133 0.03374 0.0
H1677 H 0.94799 0.5635 0.06983 0.0
H1678 H 0.99359 0.54206 0.06913 0.0
H1679 H 0.96538 0.54358 0.08104 0.0
H1680 H 0.01427 0.23193 0.97487 0.0
H1681 H 0.01871 0.20522 0.98861 0.0
H1682 H 0.04938 0.19016 0.94436 0.0
H1683 H 0.04416 0.21605 0.93019 0.0
H1684 H 0.03069 0.15911 0.94964 0.0
H1685 H 0.06575 0.21492 0.99628 0.0
H1686 H 0.06865 0.24467 0.01936 0.0
H1687 H 0.02871 0.21449 0.0487 0.0
H1688 H 0.0255 0.18462 0.02573 0.0
H1689 H 0.06621 0.09145 0.98043 0.0
H1690 H 0.06316 0.12133 0.97279 0.0
H1691 H 0.03748 0.1323 0.02228 0.0
H1692 H 0.04254 0.10306 0.03104 0.0
H1693 H 0.05086 0.16506 0.01608 0.0
H1694 H 0.01442 0.11143 0.9739 0.0
H1695 H 0.00636 0.08041 0.95177 0.0
H1696 H 0.04194 0.10451 0.9149 0.0
H1697 H 0.05037 0.13567 0.93693 0.0
C1698 C 0.02201 0.22297 0.96806 0.0
C1699 C 0.0288 0.22642 0.95127 0.0
C1700 C 0.02473 0.20764 0.9761 0.0
C1701 C 0.03479 0.19544 0.96795 0.0
C1702 C 0.04158 0.19902 0.95121 0.0
C1703 C 0.03858 0.21404 0.94303 0.0
C1704 C 0.03787 0.17862 0.9761 0.0
C1705 C 0.03544 0.1607 0.96413 0.0
C1706 C 0.04304 0.17974 0.99528 0.0
C1707 C 0.04532 0.1976 0.00924 0.0
C1708 C 0.05758 0.21466 0.00764 0.0
C1709 C 0.05927 0.23154 0.0207 0.0
C1710 C 0.04885 0.23148 0.03546 0.0
C1711 C 0.03677 0.21452 0.03726 0.0
C1712 C 0.03504 0.19762 0.02425 0.0
C1713 C 0.06053 0.10058 0.99013 0.0
C1714 C 0.0552 0.09496 0.00669 0.0
C1715 C 0.05832 0.11761 0.98547 0.0
C1716 C 0.04926 0.12913 0.99634 0.0
C1717 C 0.04438 0.12391 0.01334 0.0
C1718 C 0.04739 0.10714 0.01848 0.0
C1719 C 0.0444 0.14583 0.98939 0.0
C1720 C 0.04632 0.16357 1.00155 0.0
C1721 C 0.03813 0.14444 0.97047 0.0
C1722 C 0.03307 0.12584 0.9571 0.0
C1723 C 0.02057 0.11009 0.9611 0.0
C1724 C 0.01594 0.0925 0.94859 0.0
C1725 C 0.02361 0.09053 0.93195 0.0
C1726 C 0.03599 0.10611 0.92779 0.0
C1727 C 0.04068 0.12375 0.94027 0.0
H1728 H 0.01985 0.07693 0.92227 0.0
H1729 H 0.05014 0.24456 0.04553 0.0
H1730 H 0.12728 0.79615 0.14707 0.0
H1731 H 0.15407 0.79357 0.16375 0.0
H1732 H 0.17767 0.854 0.16786 0.0
H1733 H 0.15107 0.85617 0.14961 0.0
H1734 H 0.20277 0.83708 0.16404 0.0
H1735 H 0.15686 0.83144 0.20577 0.0
H1736 H 0.12714 0.81737 0.21427 0.0
H1737 H 0.13731 0.76197 0.20633 0.0
H1738 H 0.16701 0.77568 0.19763 0.0
H1739 H 0.27018 0.83983 0.2359 0.0
H1740 H 0.24504 0.84506 0.21792 0.0
H1741 H 0.21787 0.78508 0.2108 0.0
H1742 H 0.24238 0.78018 0.22945 0.0
H1743 H 0.19498 0.8035 0.2169 0.0
H1744 H 0.23983 0.80748 0.17495 0.0
H1745 H 0.26964 0.82005 0.16587 0.0
H1746 H 0.26175 0.87644 0.17309 0.0
H1747 H 0.23198 0.86426 0.18243 0.0
C1748 C 0.13818 0.80892 0.15154 0.0
C1749 C 0.13688 0.82644 0.14731 0.0
C1750 C 0.15354 0.80748 0.16127 0.0
C1751 C 0.16789 0.82372 0.16794 0.0
C1752 C 0.16683 0.84122 0.16321 0.0
C1753 C 0.15157 0.84253 0.15284 0.0
C1754 C 0.18368 0.82232 0.17996 0.0
C1755 C 0.20101 0.82999 0.17576 0.0
C1756 C 0.18172 0.81265 0.19511 0.0
C1757 C 0.16411 0.80457 0.20097 0.0
C1758 C 0.15275 0.81626 0.20584 0.0
C1759 C 0.1359 0.80835 0.21067 0.0
C1760 C 0.13034 0.78879 0.21081 0.0
C1761 C 0.14164 0.77712 0.20622 0.0
C1762 C 0.15849 0.78496 0.20138 0.0
C1763 C 0.2588 0.82781 0.2305 0.0
C1764 C 0.25851 0.80953 0.23385 0.0
C1765 C 0.24444 0.83075 0.22004 0.0
C1766 C 0.22949 0.8154 0.21244 0.0
C1767 C 0.22914 0.79722 0.21623 0.0
C1768 C 0.24337 0.79435 0.22683 0.0
C1769 C 0.21406 0.81812 0.20092 0.0
C1770 C 0.19678 0.81069 0.20523 0.0
C1771 C 0.2161 0.82779 0.18579 0.0
C1772 C 0.23376 0.835 0.17959 0.0
C1773 C 0.24448 0.82258 0.17466 0.0
C1774 C 0.26137 0.82963 0.16947 0.0
C1775 C 0.26762 0.84905 0.16902 0.0
C1776 C 0.25691 0.86141 0.17352 0.0
C1777 C 0.24002 0.85444 0.17874 0.0
H1778 H 0.28077 0.85455 0.16523 0.0
H1779 H 0.11727 0.78268 0.2145 0.0
H1780 H 0.5056 0.82985 0.44678 0.0
H1781 H 0.50941 0.86352 0.46084 0.0
H1782 H 0.5632 0.86807 0.48173 0.0
H1783 H 0.55887 0.83387 0.46877 0.0
H1784 H 0.55207 0.89002 0.50533 0.0
H1785 H 0.54926 0.88369 0.43869 0.0
H1786 H 0.53563 0.87066 0.40633 0.0
H1787 H 0.49 0.89072 0.41912 0.0
H1788 H 0.50329 0.90372 0.45157 0.0
H1789 H 0.57317 0.99371 0.52652 0.0
H1790 H 0.57127 0.95979 0.51792 0.0
H1791 H 0.52344 0.95181 0.48146 0.0
H1792 H 0.52896 0.98614 0.48604 0.0
H1793 H 0.53453 0.93049 0.46482 0.0
H1794 H 0.53765 0.93342 0.53505 0.0
H1795 H 0.55231 0.94141 0.56726 0.0
H1796 H 0.59857 0.92693 0.54744 0.0
H1797 H 0.58427 0.91901 0.51524 0.0
C1798 C 0.51814 0.83795 0.45469 0.0
C1799 C 0.53191 0.82912 0.45666 0.0
C1800 C 0.52043 0.85738 0.46252 0.0
C1801 C 0.53686 0.86885 0.47186 0.0
C1802 C 0.55041 0.8598 0.47452 0.0
C1803 C 0.54793 0.84016 0.46714 0.0
C1804 C 0.53997 0.89021 0.47847 0.0
C1805 C 0.5481 0.89891 0.49651 0.0
C1806 C 0.53503 0.90211 0.46714 0.0
C1807 C 0.52722 0.89455 0.44755 0.0
C1808 C 0.5363 0.88527 0.43459 0.0
C1809 C 0.52863 0.87789 0.41624 0.0
C1810 C 0.51195 0.87983 0.41068 0.0
C1811 C 0.50292 0.88922 0.42344 0.0
C1812 C 0.51052 0.89662 0.44179 0.0
C1813 C 0.56207 0.98453 0.51692 0.0
C1814 C 0.55033 0.99268 0.50805 0.0
C1815 C 0.56073 0.96471 0.51213 0.0
C1816 C 0.54677 0.95207 0.49926 0.0
C1817 C 0.53463 0.96048 0.49119 0.0
C1818 C 0.53712 0.98038 0.49457 0.0
C1819 C 0.54522 0.9307 0.49273 0.0
C1820 C 0.53782 0.92187 0.47427 0.0
C1821 C 0.55087 0.91873 0.50375 0.0
C1822 C 0.55994 0.92573 0.52281 0.0
C1823 C 0.55103 0.93223 0.53759 0.0
C1824 C 0.55926 0.93666 0.55583 0.0
C1825 C 0.57628 0.93447 0.55935 0.0
C1826 C 0.58536 0.92849 0.54468 0.0
C1827 C 0.57723 0.92408 0.52647 0.0
H1828 H 0.58243 0.93715 0.57344 0.0
H1829 H 0.50602 0.87408 0.39648 0.0
H1830 H 0.55048 0.29757 0.67633 0.0
H1831 H 0.52158 0.29475 0.68773 0.0
H1832 H 0.50395 0.31654 0.64143 0.0
H1833 H 0.5334 0.32033 0.63048 0.0
H1834 H 0.48923 0.32942 0.6691 0.0
H1835 H 0.49089 0.26678 0.64352 0.0
H1836 H 0.50255 0.23842 0.63696 0.0
H1837 H 0.50284 0.23412 0.6944 0.0
H1838 H 0.49137 0.26261 0.70137 0.0
H1839 H 0.39952 0.28556 0.69774 0.0
H1840 H 0.42406 0.29198 0.67818 0.0
H1841 H 0.46175 0.29996 0.72584 0.0
H1842 H 0.43778 0.29451 0.74537 0.0
H1843 H 0.46202 0.26969 0.69067 0.0
H1844 H 0.46104 0.33677 0.71354 0.0
H1845 H 0.44656 0.36307 0.71552 0.0
H1846 H 0.44069 0.35509 0.656 0.0
H1847 H 0.4549 0.32853 0.65366 0.0
C1848 C 0.54052 0.30192 0.66862 0.0
C1849 C 0.54431 0.30911 0.65244 0.0
C1850 C 0.52384 0.30012 0.67506 0.0
C1851 C 0.51016 0.30486 0.66522 0.0
C1852 C 0.51408 0.31262 0.64931 0.0
C1853 C 0.53098 0.3148 0.64304 0.0
C1854 C 0.49193 0.3015 0.67165 0.0
C1855 C 0.48322 0.3162 0.67351 0.0
C1856 C 0.48354 0.28412 0.67706 0.0
C1857 C 0.49038 0.26692 0.67299 0.0
C1858 C 0.49354 0.25986 0.65478 0.0
C1859 C 0.5001 0.24375 0.65098 0.0
C1860 C 0.50346 0.2345 0.66526 0.0
C1861 C 0.50023 0.24131 0.68336 0.0
C1862 C 0.49366 0.25742 0.68723 0.0
C1863 C 0.41305 0.28911 0.70411 0.0
C1864 C 0.41655 0.2891 0.72315 0.0
C1865 C 0.42707 0.29267 0.69289 0.0
C1866 C 0.44479 0.29622 0.7005 0.0
C1867 C 0.44824 0.29706 0.71958 0.0
C1868 C 0.43442 0.29382 0.73073 0.0
C1869 C 0.45993 0.29789 0.68889 0.0
C1870 C 0.468 0.28277 0.68598 0.0
C1871 C 0.46729 0.31453 0.68191 0.0
C1872 C 0.45881 0.3305 0.68342 0.0
C1873 C 0.45648 0.34047 0.70087 0.0
C1874 C 0.44837 0.35546 0.70206 0.0
C1875 C 0.44265 0.3607 0.6859 0.0
C1876 C 0.44508 0.35099 0.66851 0.0
C1877 C 0.45317 0.33598 0.66724 0.0
H1878 H 0.43638 0.37231 0.68685 0.0
H1879 H 0.50856 0.22203 0.66229 0.0
H1880 H 0.00616 0.83331 0.64363 0.0
H1881 H 0.01361 0.86067 0.62819 0.0
H1882 H 0.02563 0.8245 0.58041 0.0
H1883 H 0.01836 0.79723 0.59567 0.0
H1884 H 0.05237 0.85755 0.59338 0.0
H1885 H 0.98843 0.83826 0.57783 0.0
H1886 H 0.9579 0.83035 0.5864 0.0
H1887 H 0.96756 0.88675 0.62008 0.0
H1888 H 0.99824 0.89492 0.61184 0.0
H1889 H 0.04814 0.90253 0.5169 0.0
H1890 H 0.03906 0.881 0.5383 0.0
H1891 H 0.0464 0.9294 0.58351 0.0
H1892 H 0.05685 0.95112 0.56272 0.0
H1893 H 0.01105 0.8945 0.57632 0.0
H1894 H 0.07451 0.91461 0.59019 0.0
H1895 H 0.1051 0.92223 0.58183 0.0
H1896 H 0.0966 0.86429 0.55219 0.0
H1897 H 0.0658 0.85643 0.56009 0.0
C1898 C 0.01009 0.83115 0.62971 0.0
C1899 C 0.01176 0.81319 0.62087 0.0
C1900 C 0.01439 0.84676 0.62097 0.0
C1901 C 0.02026 0.84451 0.60327 0.0
C1902 C 0.02126 0.82646 0.59416 0.0
C1903 C 0.01699 0.8109 0.60285 0.0
C1904 C 0.02591 0.861 0.59428 0.0
C1905 C 0.04334 0.86561 0.58962 0.0
C1906 C 0.01423 0.87178 0.58993 0.0
C1907 C 0.99563 0.86715 0.59433 0.0
C1908 C 0.98405 0.84895 0.5871 0.0
C1909 C 0.96673 0.84442 0.5919 0.0
C1910 C 0.96081 0.85803 0.60381 0.0
C1911 C 0.97217 0.87623 0.61086 0.0
C1912 C 0.98952 0.88083 0.60611 0.0
C1913 C 0.0481 0.90865 0.53142 0.0
C1914 C 0.05323 0.92859 0.53801 0.0
C1915 C 0.04268 0.89634 0.54353 0.0
C1916 C 0.04198 0.90377 0.5623 0.0
C1917 C 0.0467 0.92356 0.56895 0.0
C1918 C 0.05257 0.93589 0.55698 0.0
C1919 C 0.03731 0.89061 0.57506 0.0
C1920 C 0.02013 0.88664 0.58041 0.0
C1921 C 0.04923 0.88044 0.58016 0.0
C1922 C 0.06779 0.885 0.57555 0.0
C1923 C 0.0791 0.90355 0.58172 0.0
C1924 C 0.09648 0.9079 0.5771 0.0
C1925 C 0.10277 0.89377 0.56644 0.0
C1926 C 0.0917 0.87523 0.56042 0.0
C1927 C 0.07427 0.87082 0.56498 0.0
H1928 H 0.11624 0.89716 0.56287 0.0
H1929 H 0.94741 0.85447 0.60755 0.0
H1930 H 0.53916 0.79291 0.85113 0.0
H1931 H 0.50941 0.7938 0.83927 0.0
H1932 H 0.52462 0.85543 0.85596 0.0
H1933 H 0.55446 0.85465 0.86698 0.0
H1934 H 0.48743 0.83275 0.8631 0.0
H1935 H 0.52784 0.84697 0.81753 0.0
H1936 H 0.55122 0.84185 0.79783 0.0
H1937 H 0.51821 0.78629 0.77134 0.0
H1938 H 0.49473 0.79097 0.7912 0.0
H1939 H 0.43208 0.86413 0.79934 0.0
H1940 H 0.45663 0.8602 0.81926 0.0
H1941 H 0.44083 0.79931 0.79728 0.0
H1942 H 0.41623 0.80309 0.77755 0.0
H1943 H 0.47735 0.82045 0.7942 0.0
H1944 H 0.43478 0.81004 0.83836 0.0
H1945 H 0.41229 0.81769 0.85824 0.0
H1946 H 0.45001 0.86934 0.88722 0.0
H1947 H 0.47267 0.86213 0.86733 0.0
C1948 C 0.53597 0.80654 0.85246 0.0
C1949 C 0.54891 0.82371 0.85971 0.0
C1950 C 0.51909 0.80705 0.84579 0.0
C1951 C 0.51499 0.82468 0.84685 0.0
C1952 C 0.52761 0.84173 0.85516 0.0
C1953 C 0.54459 0.84127 0.86129 0.0
C1954 C 0.4983 0.82558 0.83741 0.0
C1955 C 0.48515 0.83014 0.84805 0.0
C1956 C 0.49556 0.8222 0.81784 0.0
C1957 C 0.5097 0.81916 0.80609 0.0
C1958 C 0.52569 0.83353 0.80772 0.0
C1959 C 0.53892 0.83075 0.79648 0.0
C1960 C 0.53624 0.81371 0.7834 0.0
C1961 C 0.52029 0.79944 0.78153 0.0
C1962 C 0.50703 0.80215 0.79279 0.0
C1963 C 0.43384 0.84993 0.7989 0.0
C1964 C 0.42242 0.83393 0.78691 0.0
C1965 C 0.44767 0.84768 0.81036 0.0
C1966 C 0.45032 0.82945 0.80975 0.0
C1967 C 0.43881 0.81344 0.79798 0.0
C1968 C 0.42485 0.81563 0.78675 0.0
C1969 C 0.46624 0.82736 0.81982 0.0
C1970 C 0.47941 0.82277 0.80925 0.0
C1971 C 0.46905 0.83109 0.83944 0.0
C1972 C 0.45536 0.83565 0.85119 0.0
C1973 C 0.43822 0.82315 0.84881 0.0
C1974 C 0.42546 0.82737 0.86013 0.0
C1975 C 0.4297 0.84402 0.87395 0.0
C1976 C 0.44673 0.85647 0.87649 0.0
C1977 C 0.45954 0.85231 0.8652 0.0
H1978 H 0.41981 0.84725 0.88272 0.0
H1979 H 0.54649 0.81159 0.77467 0.0
H1980 H 0.51037 0.22703 0.11353 0.0
H1981 H 0.51843 0.19959 0.09679 0.0
H1982 H 0.48336 0.16256 0.12606 0.0
H1983 H 0.47671 0.19079 0.14452 0.0
H1984 H 0.51394 0.15486 0.12626 0.0
H1985 H 0.47453 0.16498 0.07671 0.0
H1986 H 0.46479 0.18525 0.05716 0.0
H1987 H 0.51626 0.19908 0.03804 0.0
H1988 H 0.52632 0.17903 0.05755 0.0
H1989 H 0.51987 0.0697 0.069 0.0
H1990 H 0.50898 0.09609 0.08467 0.0
H1991 H 0.54702 0.13597 0.06075 0.0
H1992 H 0.55707 0.10928 0.04405 0.0
H1993 H 0.51464 0.14131 0.05774 0.0
H1994 H 0.55631 0.14008 0.10963 0.0
H1995 H 0.56992 0.11976 0.12586 0.0
H1996 H 0.51861 0.08929 0.13689 0.0
H1997 H 0.50476 0.11009 0.1215 0.0
C1998 C 0.50382 0.21295 0.11588 0.0
C1999 C 0.49255 0.21077 0.12986 0.0
C2000 C 0.50848 0.19726 0.10633 0.0
C2001 C 0.50109 0.17897 0.1098 0.0
C2002 C 0.48905 0.1766 0.12311 0.0
C2003 C 0.48501 0.19254 0.13337 0.0
C2004 C 0.50695 0.16266 0.10034 0.0
C2005 C 0.51373 0.15168 0.11126 0.0
C2006 C 0.50749 0.15909 0.08084 0.0
C2007 C 0.50115 0.17054 0.0686 0.0
C2008 C 0.48374 0.17234 0.06832 0.0
C2009 C 0.47818 0.1838 0.05725 0.0
C2010 C 0.48989 0.19345 0.04637 0.0
C2011 C 0.50718 0.19158 0.04644 0.0
C2012 C 0.5128 0.18012 0.05745 0.0
C2013 C 0.52586 0.08417 0.06727 0.0
C2014 C 0.53921 0.08788 0.05565 0.0
C2015 C 0.5198 0.09913 0.07624 0.0
C2016 C 0.52759 0.11786 0.07413 0.0
C2017 C 0.54102 0.12152 0.06251 0.0
C2018 C 0.54671 0.10646 0.0531 0.0
C2019 C 0.52121 0.13358 0.08359 0.0
C2020 C 0.51454 0.14445 0.07272 0.0
C2021 C 0.52118 0.13733 0.10303 0.0
C2022 C 0.52956 0.12682 0.11472 0.0
C2023 C 0.548 0.12939 0.11598 0.0
C2024 C 0.55574 0.11781 0.12504 0.0
C2025 C 0.54513 0.10344 0.13266 0.0
C2026 C 0.5268 0.10075 0.13139 0.0
C2027 C 0.51903 0.11259 0.12272 0.0
H2028 H 0.55109 0.09425 0.13938 0.0
H2029 H 0.48558 0.20237 0.03788 0.0
H2030 H 0.14605 0.29145 0.35486 0.0
H2031 H 0.17289 0.29195 0.33946 0.0
H2032 H 0.1789 0.3512 0.33651 0.0
H2033 H 0.15222 0.35097 0.35279 0.0
H2034 H 0.17783 0.32071 0.30066 0.0
H2035 H 0.20889 0.34925 0.36091 0.0
H2036 H 0.21584 0.35345 0.39478 0.0
H2037 H 0.22432 0.2973 0.38745 0.0
H2038 H 0.21719 0.29265 0.35356 0.0
H2039 H 0.25573 0.30594 0.25775 0.0
H2040 H 0.23224 0.31781 0.27206 0.0
H2041 H 0.22962 0.2788 0.30995 0.0
H2042 H 0.25489 0.26952 0.29757 0.0
H2043 H 0.23244 0.31005 0.32899 0.0
H2044 H 0.19375 0.27846 0.26965 0.0
H2045 H 0.18541 0.27392 0.23584 0.0
H2046 H 0.19113 0.33416 0.24129 0.0
H2047 H 0.19902 0.33907 0.27512 0.0
C2048 C 0.15322 0.30462 0.35109 0.0
C2049 C 0.14718 0.32114 0.35483 0.0
C2050 C 0.16852 0.30492 0.3424 0.0
C2051 C 0.17777 0.32161 0.33694 0.0
C2052 C 0.17189 0.33825 0.34077 0.0
C2053 C 0.15676 0.33811 0.35001 0.0
C2054 C 0.19282 0.32074 0.32611 0.0
C2055 C 0.18997 0.31868 0.30678 0.0
C2056 C 0.20847 0.318 0.33423 0.0
C2057 C 0.21237 0.32057 0.35468 0.0
C2058 C 0.21204 0.33771 0.36653 0.0
C2059 C 0.21607 0.34019 0.38574 0.0
C2060 C 0.22049 0.32564 0.39326 0.0
C2061 C 0.22089 0.30857 0.3816 0.0
C2062 C 0.21687 0.30601 0.36239 0.0
C2063 C 0.24957 0.29947 0.26867 0.0
C2064 C 0.25651 0.28628 0.27617 0.0
C2065 C 0.23612 0.30624 0.27687 0.0
C2066 C 0.22894 0.29919 0.29212 0.0
C2067 C 0.23499 0.28472 0.29839 0.0
C2068 C 0.24914 0.279 0.29104 0.0
C2069 C 0.21678 0.30808 0.30317 0.0
C2070 C 0.22037 0.31205 0.32266 0.0
C2071 C 0.20169 0.31222 0.29515 0.0
C2072 C 0.19716 0.30915 0.27483 0.0
C2073 C 0.19332 0.29073 0.2636 0.0
C2074 C 0.18867 0.28808 0.24447 0.0
C2075 C 0.18799 0.30372 0.23642 0.0
C2076 C 0.19175 0.32206 0.24752 0.0
C2077 C 0.1962 0.32477 0.26667 0.0
H2078 H 0.18444 0.3016 0.22161 0.0
H2079 H 0.22364 0.32761 0.40813 0.0
H2080 H 0.96159 0.09572 0.21244 0.0
H2081 H 0.97721 0.09679 0.18471 0.0
H2082 H 0.99153 0.04524 0.19099 0.0
H2083 H 0.97751 0.04555 0.21987 0.0
H2084 H 0.01545 0.05903 0.17564 0.0
H2085 H 0.95488 0.05616 0.15313 0.0
H2086 H 0.92776 0.06735 0.15204 0.0
H2087 H 0.9579 0.12174 0.14303 0.0
H2088 H 0.9852 0.1109 0.14419 0.0
H2089 H 0.03403 0.0344 0.08027 0.0
H2090 H 0.02092 0.03715 0.10976 0.0
H2091 H 0.02394 0.0963 0.10962 0.0
H2092 H 0.03748 0.09358 0.08009 0.0
H2093 H 0.99223 0.08023 0.12138 0.0
H2094 H 0.05172 0.08198 0.14083 0.0
H2095 H 0.07891 0.07096 0.14104 0.0
H2096 H 0.05045 0.01829 0.15507 0.0
H2097 H 0.02302 0.0289 0.1547 0.0
C2098 C 0.9681 0.08459 0.20802 0.0
C2099 C 0.96798 0.07054 0.21892 0.0
C2100 C 0.97696 0.08494 0.19157 0.0
C2101 C 0.98545 0.07062 0.1843 0.0
C2102 C 0.98537 0.05666 0.19542 0.0
C2103 C 0.97713 0.05677 0.21227 0.0
C2104 C 0.99451 0.07017 0.16572 0.0
C2105 C 0.00988 0.06337 0.16383 0.0
C2106 C 0.98844 0.07633 0.14966 0.0
C2107 C 0.97206 0.08279 0.14893 0.0
C2108 C 0.9557 0.07052 0.15098 0.0
C2109 C 0.94031 0.0768 0.15035 0.0
C2110 C 0.94112 0.09526 0.14752 0.0
C2111 C 0.9573 0.10746 0.14524 0.0
C2112 C 0.97272 0.10125 0.14587 0.0
C2113 C 0.03195 0.04807 0.08638 0.0
C2114 C 0.03697 0.06368 0.07725 0.0
C2115 C 0.02444 0.04971 0.10362 0.0
C2116 C 0.02117 0.06701 0.11268 0.0
C2117 C 0.02607 0.08265 0.10347 0.0
C2118 C 0.03401 0.08111 0.08638 0.0
C2119 C 0.01262 0.06861 0.13137 0.0
C2120 C 0.99752 0.07571 0.13324 0.0
C2121 C 0.01883 0.06259 0.14732 0.0
C2122 C 0.03527 0.05615 0.14755 0.0
C2123 C 0.05123 0.06798 0.14382 0.0
C2124 C 0.06669 0.06182 0.14399 0.0
C2125 C 0.0664 0.04391 0.14802 0.0
C2126 C 0.05065 0.03215 0.15193 0.0
C2127 C 0.03514 0.03823 0.15175 0.0
H2128 H 0.07839 0.03917 0.14816 0.0
H2129 H 0.92919 0.1001 0.14705 0.0
H2130 H 0.26707 0.68192 0.46864 0.0
H2131 H 0.26345 0.69369 0.44012 0.0
H2132 H 0.31533 0.68877 0.42767 0.0
H2133 H 0.31885 0.67621 0.45618 0.0
H2134 H 0.30413 0.72809 0.43286 0.0
H2135 H 0.28804 0.66131 0.40012 0.0
H2136 H 0.27046 0.62763 0.39536 0.0
H2137 H 0.22248 0.6448 0.38834 0.0
H2138 H 0.23972 0.6786 0.3934 0.0
H2139 H 0.29243 0.77263 0.35783 0.0
H2140 H 0.30162 0.75147 0.37616 0.0
H2141 H 0.24678 0.72204 0.37743 0.0
H2142 H 0.23762 0.74202 0.358 0.0
H2143 H 0.26352 0.69742 0.37519 0.0
H2144 H 0.27135 0.75827 0.41333 0.0
H2145 H 0.28162 0.79308 0.42554 0.0
H2146 H 0.33545 0.78963 0.43101 0.0
H2147 H 0.32553 0.75481 0.41848 0.0
C2148 C 0.27766 0.68317 0.45974 0.0
C2149 C 0.29336 0.67846 0.46459 0.0
C2150 C 0.27547 0.68968 0.44342 0.0
C2151 C 0.28906 0.69186 0.43188 0.0
C2152 C 0.30467 0.68688 0.43645 0.0
C2153 C 0.3067 0.67986 0.45265 0.0
C2154 C 0.28758 0.7017 0.41648 0.0
C2155 C 0.29575 0.72139 0.41989 0.0
C2156 C 0.27555 0.69295 0.40043 0.0
C2157 C 0.26521 0.67254 0.39722 0.0
C2158 C 0.27374 0.65794 0.39771 0.0
C2159 C 0.26382 0.63881 0.39493 0.0
C2160 C 0.24537 0.63408 0.39156 0.0
C2161 C 0.23678 0.64847 0.39094 0.0
C2162 C 0.24662 0.66761 0.39374 0.0
C2163 C 0.28236 0.76133 0.36162 0.0
C2164 C 0.26426 0.75919 0.35668 0.0
C2165 C 0.28763 0.74941 0.37229 0.0
C2166 C 0.27488 0.73542 0.37848 0.0
C2167 C 0.25688 0.73275 0.37288 0.0
C2168 C 0.25164 0.74438 0.36196 0.0
C2169 C 0.28009 0.72408 0.39146 0.0
C2170 C 0.27245 0.70417 0.38776 0.0
C2171 C 0.29159 0.73287 0.40801 0.0
C2172 C 0.29773 0.75398 0.41456 0.0
C2173 C 0.28541 0.76497 0.41679 0.0
C2174 C 0.29116 0.7847 0.42386 0.0
C2175 C 0.30919 0.79359 0.42894 0.0
C2176 C 0.3215 0.78275 0.42696 0.0
C2177 C 0.31583 0.76302 0.41983 0.0
H2178 H 0.31361 0.80885 0.43451 0.0
H2179 H 0.23772 0.61926 0.3894 0.0
H2180 H 0.68704 0.04712 0.6867 0.0
H2181 H 0.66588 0.04952 0.66209 0.0
H2182 H 0.62259 0.02738 0.69256 0.0
H2183 H 0.64342 0.02432 0.71681 0.0
H2184 H 0.6187 0.00888 0.65757 0.0
H2185 H 0.63534 0.07511 0.69026 0.0
H2186 H 0.65618 0.10649 0.70385 0.0
H2187 H 0.67377 0.11128 0.65033 0.0
H2188 H 0.65325 0.07982 0.63647 0.0
H2189 H 0.55734 0.01915 0.58729 0.0
H2190 H 0.57219 0.02235 0.61839 0.0
H2191 H 0.62242 0.04697 0.59972 0.0
H2192 H 0.60788 0.04486 0.56945 0.0
H2193 H 0.61891 0.06718 0.63259 0.0
H2194 H 0.61055 1.00193 0.60146 0.0
H2195 H 0.59305 0.97017 0.58483 0.0
H2196 H 0.56496 0.96232 0.63248 0.0
H2197 H 0.58203 0.99457 0.6492 0.0
C2198 C 0.673 0.04257 0.688 0.0
C2199 C 0.6668 0.03541 0.70351 0.0
C2200 C 0.66102 0.04428 0.67417 0.0
C2201 C 0.64285 0.03907 0.67595 0.0
C2202 C 0.63665 0.03167 0.69124 0.0
C2203 C 0.64854 0.02972 0.7049 0.0
C2204 C 0.6301 0.03933 0.66091 0.0
C2205 C 0.61839 0.02172 0.6524 0.0
C2206 C 0.63038 0.05606 0.65395 0.0
C2207 C 0.64279 0.07501 0.66235 0.0
C2208 C 0.64375 0.08277 0.68141 0.0
C2209 C 0.65549 0.1006 0.68916 0.0
C2210 C 0.66631 0.11086 0.67797 0.0
C2211 C 0.66539 0.10332 0.65899 0.0
C2212 C 0.65368 0.0855 0.65118 0.0
C2213 C 0.57144 0.02561 0.59 0.0
C2214 C 0.58125 0.03261 0.57624 0.0
C2215 C 0.57989 0.02733 0.60764 0.0
C2216 C 0.59824 0.03543 0.61128 0.0
C2217 C 0.60815 0.04129 0.59724 0.0
C2218 C 0.59976 0.03983 0.57986 0.0
C2219 C 0.60772 0.0367 0.62926 0.0
C2220 C 0.61885 0.05453 0.63825 0.0
C2221 C 0.60747 0.02011 0.63635 0.0
C2222 C 0.59729 1.00075 0.62642 0.0
C2223 C 0.60049 0.99352 0.6083 0.0
C2224 C 0.59064 0.97539 0.59887 0.0
C2225 C 0.57781 0.96416 0.60757 0.0
C2226 C 0.57484 0.97107 0.62574 0.0
C2227 C 0.58455 0.98931 0.63517 0.0
H2228 H 0.57017 0.95008 0.60032 0.0
H2229 H 0.67538 0.12466 0.68399 0.0
H2230 H 0.33025 0.3829 0.96661 0.0
H2231 H 0.3298 0.37011 0.93348 0.0
H2232 H 0.29183 0.31801 0.93865 0.0
H2233 H 0.29335 0.33049 0.97226 0.0
H2234 H 0.31261 0.30819 0.91605 0.0
H2235 H 0.2811 0.35645 0.91783 0.0
H2236 H 0.27626 0.38859 0.92671 0.0
H2237 H 0.32218 0.4128 0.90124 0.0
H2238 H 0.32738 0.38086 0.89236 0.0
H2239 H 0.29793 0.28027 0.81506 0.0
H2240 H 0.29669 0.28706 0.84872 0.0
H2241 H 0.32992 0.34438 0.852 0.0
H2242 H 0.32857 0.33836 0.81834 0.0
H2243 H 0.30723 0.34899 0.87053 0.0
H2244 H 0.33975 0.299 0.87105 0.0
H2245 H 0.34256 0.26591 0.86235 0.0
H2246 H 0.29264 0.24419 0.88219 0.0
H2247 H 0.28961 0.27707 0.89127 0.0
C2248 C 0.32172 0.36878 0.96061 0.0
C2249 C 0.31163 0.35781 0.97191 0.0
C2250 C 0.32135 0.36146 0.94159 0.0
C2251 C 0.31038 0.3432 0.93316 0.0
C2252 C 0.30035 0.33215 0.94459 0.0
C2253 C 0.30109 0.33932 0.96379 0.0
C2254 C 0.30962 0.33571 0.91257 0.0
C2255 C 0.31137 0.31713 0.90609 0.0
C2256 C 0.30789 0.3471 0.8993 0.0
C2257 C 0.30469 0.36629 0.90455 0.0
C2258 C 0.29021 0.36865 0.9142 0.0
C2259 C 0.28739 0.38683 0.91923 0.0
C2260 C 0.29892 0.40273 0.91457 0.0
C2261 C 0.31326 0.40048 0.90484 0.0
C2262 C 0.31613 0.38234 0.89979 0.0
C2263 C 0.30539 0.2941 0.82314 0.0
C2264 C 0.314 0.30857 0.81411 0.0
C2265 C 0.30476 0.29804 0.84254 0.0
C2266 C 0.31344 0.31628 0.85346 0.0
C2267 C 0.32288 0.33024 0.84428 0.0
C2268 C 0.3225 0.32668 0.82494 0.0
C2269 C 0.31159 0.32193 0.87392 0.0
C2270 C 0.30889 0.3401 0.88041 0.0
C2271 C 0.31238 0.31011 0.88708 0.0
C2272 C 0.31441 0.29046 0.88171 0.0
C2273 C 0.32937 0.28716 0.87352 0.0
C2274 C 0.33099 0.26846 0.86851 0.0
C2275 C 0.31774 0.25299 0.87156 0.0
C2276 C 0.30288 0.25618 0.87979 0.0
C2277 C 0.30124 0.27483 0.88495 0.0
H2278 H 0.31902 0.23854 0.8676 0.0
H2279 H 0.29673 0.41678 0.91849 0.0
H2280 H 0.99239 0.03486 0.31643 0.0
H2281 H 0.00592 0.03372 0.34693 0.0
H2282 H 0.98708 0.0814 0.37214 0.0
H2283 H 0.9737 0.08273 0.34146 0.0
H2284 H 0.01861 0.0858 0.39002 0.0
H2285 H 0.96745 0.03226 0.37613 0.0
H2286 H 0.94746 1.00305 0.35653 0.0
H2287 H 0.98928 0.97494 0.35588 0.0
H2288 H 0.00957 1.00408 0.37536 0.0
H2289 H 0.0233 0.06004 0.48361 0.0
H2290 H 0.00954 0.061 0.45288 0.0
H2291 H 0.05175 0.04257 0.42705 0.0
H2292 H 0.06613 0.04298 0.45785 0.0
H2293 H 0.00782 0.02354 0.41028 0.0
H2294 H 0.05919 0.07844 0.4241 0.0
H2295 H 0.07859 0.10825 0.4432 0.0
H2296 H 0.03552 0.13452 0.44367 0.0
H2297 H 0.01566 0.10456 0.4251 0.0
C2298 C 0.9911 0.04522 0.32837 0.0
C2299 C 0.9817 0.05887 0.32601 0.0
C2300 C 0.99884 0.04446 0.34611 0.0
C2301 C 0.99751 0.05722 0.36253 0.0
C2302 C 0.9885 0.0712 0.36012 0.0
C2303 C 0.98072 0.07195 0.34234 0.0
C2304 C 0.00522 0.05574 0.38194 0.0
C2305 C 0.016 0.07213 0.39435 0.0
C2306 C 1.00229 0.03808 0.38826 0.0
C2307 C 0.99004 0.02036 0.37708 0.0
C2308 C 0.97238 0.01985 0.37177 0.0
C2309 C 0.961 1.00332 0.36068 0.0
C2310 C 0.96711 0.98716 0.35493 0.0
C2311 C 0.98457 0.98747 0.36035 0.0
C2312 C 0.99601 1.00397 0.37144 0.0
C2313 C 0.02948 0.05574 0.47137 0.0
C2314 C 0.04558 0.05057 0.47347 0.0
C2315 C 0.02162 0.05646 0.45365 0.0
C2316 C 0.02938 0.05184 0.43717 0.0
C2317 C 0.04522 0.04619 0.43922 0.0
C2318 C 0.05339 0.04615 0.45699 0.0
C2319 C 0.02138 0.0535 0.41809 0.0
C2320 C 0.01042 0.03717 0.40587 0.0
C2321 C 0.0241 0.07122 0.41199 0.0
C2322 C 0.03583 0.08909 0.42356 0.0
C2323 C 0.05373 0.0904 0.42864 0.0
C2324 C 0.06483 0.10736 0.4393 0.0
C2325 C 0.05827 0.12323 0.44472 0.0
C2326 C 0.04056 0.12217 0.43955 0.0
C2327 C 0.02936 0.10517 0.429 0.0
H2328 H 0.06698 0.13638 0.45281 0.0
H2329 H 0.9583 0.97439 0.34629 0.0
H2330 H 0.28332 0.69665 0.54828 0.0
H2331 H 0.27561 0.71605 0.57544 0.0
H2332 H 0.30379 0.69033 0.61138 0.0
H2333 H 0.31033 0.66973 0.58399 0.0
H2334 H 0.2746 0.69492 0.62512 0.0
H2335 H 0.323 0.73511 0.59984 0.0
H2336 H 0.33665 0.74922 0.57445 0.0
H2337 H 0.29413 0.77544 0.56813 0.0
H2338 H 0.28017 0.76131 0.59339 0.0
H2339 H 0.31344 0.75881 0.70354 0.0
H2340 H 0.30739 0.74018 0.67193 0.0
H2341 H 0.27182 0.77314 0.65815 0.0
H2342 H 0.27836 0.79241 0.69015 0.0
H2343 H 0.29547 0.7655 0.63113 0.0
H2344 H 0.25294 0.73136 0.66481 0.0
H2345 H 0.24323 0.71859 0.69235 0.0
H2346 H 0.27788 0.68167 0.68501 0.0
H2347 H 0.28805 0.69443 0.65761 0.0
C2348 C 0.28806 0.69539 0.56202 0.0
C2349 C 0.29788 0.68231 0.56428 0.0
C2350 C 0.28352 0.7063 0.57746 0.0
C2351 C 0.28943 0.70486 0.59535 0.0
C2352 C 0.29913 0.69162 0.59763 0.0
C2353 C 0.30312 0.68016 0.58211 0.0
C2354 C 0.28649 0.71801 0.61169 0.0
C2355 C 0.27908 0.71034 0.62645 0.0
C2356 C 0.29183 0.73811 0.6131 0.0
C2357 C 0.30049 0.74705 0.59834 0.0
C2358 C 0.31657 0.74386 0.59299 0.0
C2359 C 0.32435 0.75184 0.57864 0.0
C2360 C 0.31624 0.76318 0.56965 0.0
C2361 C 0.30039 0.76664 0.57509 0.0
C2362 C 0.29255 0.75868 0.58943 0.0
C2363 C 0.30466 0.76235 0.69362 0.0
C2364 C 0.29642 0.77695 0.69888 0.0
C2365 C 0.30106 0.75161 0.67573 0.0
C2366 C 0.28881 0.75506 0.66307 0.0
C2367 C 0.28115 0.77028 0.66798 0.0
C2368 C 0.28495 0.78127 0.68602 0.0
C2369 C 0.28436 0.74241 0.64476 0.0
C2370 C 0.29033 0.7501 0.62955 0.0
C2371 C 0.27798 0.72236 0.64311 0.0
C2372 C 0.27124 0.71386 0.65906 0.0
C2373 C 0.2585 0.72051 0.66904 0.0
C2374 C 0.25293 0.7133 0.68466 0.0
C2375 C 0.25991 0.69931 0.6904 0.0
C2376 C 0.27244 0.69246 0.6805 0.0
C2377 C 0.27808 0.69965 0.66488 0.0
H2378 H 0.25563 0.69379 0.70253 0.0
H2379 H 0.32226 0.76931 0.55851 0.0
H2380 H 0.64011 0.04548 0.79365 0.0
H2381 H 0.63085 0.05176 0.82461 0.0
H2382 H 0.68176 0.04997 0.8488 0.0
H2383 H 0.69108 0.04329 0.81764 0.0
H2384 H 0.65473 0.02988 0.86387 0.0
H2385 H 0.67244 0.09327 0.8525 0.0
H2386 H 0.67462 0.11977 0.83571 0.0
H2387 H 0.6183 0.11137 0.83323 0.0
H2388 H 0.61573 0.08469 0.84976 0.0
H2389 H 0.61526 0.06982 0.94707 0.0
H2390 H 0.63578 0.06098 0.9252 0.0
H2391 H 0.59526 0.0511 0.8795 0.0
H2392 H 0.57504 0.06039 0.90118 0.0
H2393 H 0.62649 0.08261 0.88201 0.0
H2394 H 0.60804 0.01509 0.88561 0.0
H2395 H 0.6049 0.98594 0.89861 0.0
H2396 H 0.66111 1.00097 0.91377 0.0
H2397 H 0.66456 0.03035 0.90104 0.0
C2398 C 0.64928 0.04625 0.80554 0.0
C2399 C 0.66627 0.04389 0.80335 0.0
C2400 C 0.64408 0.05009 0.82319 0.0
C2401 C 0.65588 0.0519 0.83888 0.0
C2402 C 0.67264 0.04889 0.83676 0.0
C2403 C 0.67783 0.04488 0.81903 0.0
C2404 C 0.64998 0.0557 0.85737 0.0
C2405 C 0.64897 0.0417 0.86819 0.0
C2406 C 0.64246 0.07112 0.86276 0.0
C2407 C 0.64391 0.08691 0.85237 0.0
C2408 C 0.6605 0.09696 0.84824 0.0
C2409 C 0.66181 0.11205 0.8388 0.0
C2410 C 0.64661 0.11725 0.83341 0.0
C2411 C 0.63007 0.10735 0.83743 0.0
C2412 C 0.62869 0.09226 0.84687 0.0
C2413 C 0.61073 0.06528 0.93236 0.0
C2414 C 0.59392 0.06614 0.92551 0.0
C2415 C 0.62232 0.06008 0.92001 0.0
C2416 C 0.61693 0.05552 0.90089 0.0
C2417 C 0.59953 0.05462 0.89429 0.0
C2418 C 0.58811 0.06007 0.90655 0.0
C2419 C 0.63003 0.05596 0.88753 0.0
C2420 C 0.63271 0.0711 0.87798 0.0
C2421 C 0.63884 0.0415 0.88321 0.0
C2422 C 0.63651 0.02508 0.89269 0.0
C2423 C 0.61968 0.01243 0.89213 0.0
C2424 C 0.61786 0.9958 0.89931 0.0
C2425 C 0.63279 0.99162 0.90699 0.0
C2426 C 0.64955 1.00424 0.90783 0.0
C2427 C 0.65144 0.02089 0.90066 0.0
H2428 H 0.63135 0.97849 0.91206 0.0
H2429 H 0.64766 0.12896 0.82614 0.0
H2430 H 0.27434 0.35604 0.06933 0.0
H2431 H 0.26937 0.3408 0.0965 0.0
H2432 H 0.32492 0.36327 0.11631 0.0
H2433 H 0.32977 0.37852 0.08935 0.0
H2434 H 0.31403 0.32612 0.11695 0.0
H2435 H 0.29386 0.38162 0.13704 0.0
H2436 H 0.27602 0.40478 0.13675 0.0
H2437 H 0.22869 0.36056 0.13776 0.0
H2438 H 0.24621 0.33702 0.1377 0.0
H2439 H 0.31248 0.32149 0.21481 0.0
H2440 H 0.31293 0.33466 0.18673 0.0
H2441 H 0.26836 0.28801 0.16052 0.0
H2442 H 0.26803 0.27436 0.18846 0.0
H2443 H 0.27149 0.33574 0.16262 0.0
H2444 H 0.29253 0.27963 0.13582 0.0
H2445 H 0.31158 0.25744 0.13362 0.0
H2446 H 0.35795 0.30515 0.14696 0.0
H2447 H 0.33912 0.32761 0.1488 0.0
C2448 C 0.28543 0.35766 0.07954 0.0
C2449 C 0.30247 0.36828 0.07722 0.0
C2450 C 0.28258 0.3491 0.09513 0.0
C2451 C 0.29675 0.35093 0.1086 0.0
C2452 C 0.31375 0.36161 0.10618 0.0
C2453 C 0.31654 0.37029 0.09076 0.0
C2454 C 0.29429 0.34092 0.12467 0.0
C2455 C 0.30474 0.32838 0.12693 0.0
C2456 C 0.28198 0.34349 0.13766 0.0
C2457 C 0.27133 0.35746 0.13703 0.0
C2458 C 0.27962 0.37674 0.13688 0.0
C2459 C 0.26957 0.38996 0.13686 0.0
C2460 C 0.25123 0.38412 0.13713 0.0
C2461 C 0.24289 0.36505 0.13745 0.0
C2462 C 0.25288 0.35176 0.13744 0.0
C2463 C 0.30274 0.31382 0.20315 0.0
C2464 C 0.29021 0.29658 0.20418 0.0
C2465 C 0.30305 0.32147 0.18703 0.0
C2466 C 0.29068 0.31237 0.17151 0.0
C2467 C 0.27808 0.29528 0.17234 0.0
C2468 C 0.27796 0.28739 0.18842 0.0
C2469 C 0.29112 0.32095 0.15459 0.0
C2470 C 0.2805 0.33336 0.15237 0.0
C2471 C 0.30329 0.31846 0.14162 0.0
C2472 C 0.31447 0.30521 0.14264 0.0
C2473 C 0.30678 0.28534 0.13855 0.0
C2474 C 0.31753 0.27275 0.13717 0.0
C2475 C 0.33597 0.27989 0.14009 0.0
C2476 C 0.34368 0.29965 0.14463 0.0
C2477 C 0.33298 0.31231 0.14578 0.0
H2478 H 0.34429 0.27012 0.13885 0.0
H2479 H 0.24348 0.3944 0.13718 0.0
H2480 H 0.28801 0.99823 0.0228 0.0
H2481 H 0.26151 0.00931 0.02677 0.0
H2482 H 0.22877 0.95195 0.00476 0.0
H2483 H 0.25547 0.94074 1.00032 0.0
H2484 H 0.21592 0.979 0.99235 0.0
H2485 H 0.23475 0.96772 0.0508 0.0
H2486 H 0.25571 0.96907 0.07765 0.0
H2487 H 0.26676 0.03041 0.09065 0.0
H2488 H 0.24609 0.02947 0.06372 0.0
H2489 H 0.14641 0.01638 0.0365 0.0
H2490 H 0.16576 0.99605 0.02641 0.0
H2491 H 0.21033 0.046 0.035 0.0
H2492 H 0.19105 0.0666 0.04428 0.0
H2493 H 0.2126 0.01563 0.05502 0.0
H2494 H 0.19651 0.02623 0.99358 0.0
H2495 H 0.17712 0.02423 0.96525 0.0
H2496 H 0.1609 0.96291 0.95778 0.0
H2497 H 0.17999 0.96456 0.98623 0.0
C2498 C 0.27518 0.98802 0.01858 0.0
C2499 C 0.27368 0.96863 0.01143 0.0
C2500 C 0.26008 0.99432 0.02097 0.0
C2501 C 0.2433 0.98128 0.01657 0.0
C2502 C 0.2417 0.9621 0.00843 0.0
C2503 C 0.25688 0.95578 0.00583 0.0
C2504 C 0.22761 0.98797 0.02082 0.0
C2505 C 0.21487 0.98663 0.00613 0.0
C2506 C 0.22645 0.99787 0.03884 0.0
C2507 C 0.23888 0.99851 0.05516 0.0
C2508 C 0.24173 0.98151 0.05931 0.0
C2509 C 0.25356 0.9822 0.07456 0.0
C2510 C 0.26257 0.99981 0.08584 0.0
C2511 C 0.25976 0.01677 0.08191 0.0
C2512 C 0.24796 0.01616 0.06666 0.0
C2513 C 0.16025 0.02313 0.03583 0.0
C2514 C 0.16723 0.04316 0.04125 0.0
C2515 C 0.17123 0.01145 0.03007 0.0
C2516 C 0.18932 0.01964 0.0299 0.0
C2517 C 0.19631 0.03955 0.03503 0.0
C2518 C 0.18534 0.05125 0.04054 0.0
C2519 C 0.20145 0.0075 0.02636 0.0
C2520 C 0.21339 0.00764 0.04133 0.0
C2521 C 0.20174 0.99638 0.00865 0.0
C2522 C 0.1894 0.99555 0.99227 0.0
C2523 C 0.18853 0.01235 0.98613 0.0
C2524 C 0.17767 0.01127 0.96998 0.0
C2525 C 0.16771 0.99347 0.95978 0.0
C2526 C 0.16855 0.9767 0.96573 0.0
C2527 C 0.17937 0.9777 0.98188 0.0
H2528 H 0.15941 0.99266 0.94721 0.0
H2529 H 0.27172 1.00032 0.09764 0.0
H2530 H 0.75385 0.63979 0.97701 0.0
H2531 H 0.72352 0.61957 0.97696 0.0
H2532 H 0.71672 0.6582 0.02576 0.0
H2533 H 0.74653 0.67884 0.02526 0.0
H2534 H 0.70787 0.61621 0.02681 0.0
H2535 H 0.6955 0.66194 0.99368 0.0
H2536 H 0.69808 0.6815 0.96961 0.0
H2537 H 0.68089 0.63049 0.92708 0.0
H2538 H 0.67853 0.61056 0.95094 0.0
H2539 H 0.61513 0.59347 0.03442 0.0
H2540 H 0.64484 0.61071 0.02989 0.0
H2541 H 0.64532 0.5663 0.98315 0.0
H2542 H 0.6154 0.54845 0.98785 0.0
H2543 H 0.65766 0.6094 0.97952 0.0
H2544 H 0.66814 0.56418 0.01637 0.0
H2545 H 0.66433 0.54773 0.04283 0.0
H2546 H 0.6839 0.60171 0.081 0.0
H2547 H 0.68754 0.61852 0.05476 0.0
C2548 C 0.74576 0.64401 0.98756 0.0
C2549 C 0.75242 0.66094 1.00103 0.0
C2550 C 0.72848 0.63248 0.98755 0.0
C2551 C 0.71784 0.63738 1.00137 0.0
C2552 C 0.72464 0.65417 0.01494 0.0
C2553 C 0.74162 0.66598 0.01459 0.0
C2554 C 0.69977 0.62484 1.00199 0.0
C2555 C 0.6969 0.61474 0.01648 0.0
C2556 C 0.68542 0.6229 0.98853 0.0
C2557 C 0.68717 0.63474 0.97408 0.0
C2558 C 0.69256 0.65486 0.97919 0.0
C2559 C 0.69391 0.66603 0.96559 0.0
C2560 C 0.68974 0.65724 0.94682 0.0
C2561 C 0.68418 0.63727 0.94162 0.0
C2562 C 0.68285 0.62603 0.95518 0.0
C2563 C 0.62145 0.58713 0.02321 0.0
C2564 C 0.61282 0.56922 0.01175 0.0
C2565 C 0.63852 0.59715 0.02062 0.0
C2566 C 0.6474 0.58979 0.00628 0.0
C2567 C 0.63874 0.57224 0.99437 0.0
C2568 C 0.62166 0.56198 0.99714 0.0
C2569 C 0.66583 0.60052 0.00419 0.0
C2570 C 0.66873 0.6105 0.98959 0.0
C2571 C 0.68014 0.6027 0.0178 0.0
C2572 C 0.67793 0.59262 0.03359 0.0
C2573 C 0.67145 0.57256 0.03041 0.0
C2574 C 0.66936 0.56317 0.04536 0.0
C2575 C 0.67382 0.57367 0.06358 0.0
C2576 C 0.68042 0.59359 0.06688 0.0
C2577 C 0.68251 0.60306 0.05197 0.0
H2578 H 0.67221 0.56637 0.07514 0.0
H2579 H 0.69075 0.66591 0.9363 0.0
H2580 H 0.71284 0.45693 0.2861 0.0
H2581 H 0.72695 0.4307 0.2869 0.0
H2582 H 0.73321 0.42642 0.22879 0.0
H2583 H 0.71963 0.45316 0.2281 0.0
H2584 H 0.72302 0.38816 0.23769 0.0
H2585 H 0.76892 0.44641 0.26081 0.0
H2586 H 0.78251 0.47791 0.2812 0.0
H2587 H 0.77715 0.4521 0.32919 0.0
H2588 H 0.7633 0.42046 0.30907 0.0
H2589 H 0.7856 0.32801 0.23708 0.0
H2590 H 0.77129 0.35379 0.2334 0.0
H2591 H 0.7682 0.36584 0.29233 0.0
H2592 H 0.78191 0.33996 0.29572 0.0
H2593 H 0.7766 0.39979 0.28191 0.0
H2594 H 0.73139 0.34245 0.26106 0.0
H2595 H 0.71815 0.30997 0.24242 0.0
H2596 H 0.72084 0.33243 0.1924 0.0
H2597 H 0.73446 0.36505 0.21074 0.0
C2598 C 0.71718 0.45055 0.27338 0.0
C2599 C 0.71487 0.45786 0.25705 0.0
C2600 C 0.72541 0.43525 0.27385 0.0
C2601 C 0.73152 0.42585 0.25792 0.0
C2602 C 0.72883 0.43283 0.24147 0.0
C2603 C 0.721 0.44848 0.24111 0.0
C2604 C 0.74119 0.40962 0.25871 0.0
C2605 C 0.7349 0.39101 0.24721 0.0
C2606 C 0.75658 0.4122 0.27134 0.0
C2607 C 0.7649 0.43113 0.28346 0.0
C2608 C 0.77051 0.44748 0.27573 0.0
C2609 C 0.77828 0.46535 0.28723 0.0
C2610 C 0.78064 0.46701 0.30649 0.0
C2611 C 0.77528 0.45079 0.31427 0.0
C2612 C 0.76748 0.43288 0.30283 0.0
C2613 C 0.78217 0.33631 0.24933 0.0
C2614 C 0.78549 0.33175 0.26691 0.0
C2615 C 0.77369 0.35118 0.24721 0.0
C2616 C 0.76829 0.36245 0.26257 0.0
C2617 C 0.77205 0.35802 0.28004 0.0
C2618 C 0.78007 0.34302 0.28204 0.0
C2619 C 0.75863 0.37844 0.26078 0.0
C2620 C 0.76482 0.39696 0.27225 0.0
C2621 C 0.74303 0.37561 0.24835 0.0
C2622 C 0.73422 0.35619 0.23726 0.0
C2623 C 0.72931 0.34046 0.24607 0.0
C2624 C 0.72179 0.32201 0.23556 0.0
C2625 C 0.71886 0.31911 0.21622 0.0
C2626 C 0.72327 0.33469 0.20738 0.0
C2627 C 0.73089 0.35318 0.21783 0.0
H2628 H 0.71295 0.30483 0.20812 0.0
H2629 H 0.78666 0.48086 0.31537 0.0
H2630 H 0.87354 0.44873 0.53968 0.0
H2631 H 0.90457 0.46743 0.54567 0.0
H2632 H 0.90051 0.48469 0.4929 0.0
H2633 H 0.86905 0.46661 0.48717 0.0
H2634 H 0.92978 0.4648 0.50481 0.0
H2635 H 0.90309 0.51711 0.5199 0.0
H2636 H 0.88188 0.53248 0.5355 0.0
H2637 H 0.9069 0.53173 0.58876 0.0
H2638 H 0.92803 0.51591 0.57344 0.0
H2639 H 0.01005 0.54558 0.5225 0.0
H2640 H 0.97812 0.53552 0.52215 0.0
H2641 H 0.98326 0.49073 0.55083 0.0
H2642 H 0.01482 0.49841 0.54808 0.0
H2643 H 0.95281 0.52641 0.55027 0.0
H2644 H 0.96798 0.46032 0.53159 0.0
H2645 H 0.98872 0.44401 0.51612 0.0
H2646 H 0.98337 0.46982 0.46895 0.0
H2647 H 0.96389 0.48765 0.48492 0.0
C2648 C 0.87936 0.45642 0.52933 0.0
C2649 C 0.86928 0.45624 0.5129 0.0
C2650 C 0.89687 0.46719 0.53286 0.0
C2651 C 0.90442 0.47749 0.51981 0.0
C2652 C 0.89455 0.47694 0.50314 0.0
C2653 C 0.87683 0.4666 0.49984 0.0
C2654 C 0.92309 0.48765 0.52318 0.0
C2655 C 0.93482 0.47834 0.51462 0.0
C2656 C 0.92937 0.50509 0.5362 0.0
C2657 C 0.91703 0.51512 0.5455 0.0
C2658 C 0.90397 0.52003 0.53493 0.0
C2659 C 0.89197 0.52885 0.54372 0.0
C2660 C 0.89301 0.53303 0.56311 0.0
C2661 C 0.9061 0.52846 0.57374 0.0
C2662 C 0.9181 0.51957 0.56501 0.0
C2663 C 0.00444 0.53299 0.52774 0.0
C2664 C 0.01493 0.52183 0.53369 0.0
C2665 C 0.98621 0.52775 0.52828 0.0
C2666 C 0.97847 0.512 0.5359 0.0
C2667 C 0.98909 0.50241 0.54414 0.0
C2668 C 0.00709 0.50678 0.54242 0.0
C2669 C 0.95942 0.50335 0.53206 0.0
C2670 C 0.94768 0.51291 0.54047 0.0
C2671 C 0.95295 0.48594 0.51903 0.0
C2672 C 0.96484 0.47556 0.50956 0.0
C2673 C 0.97156 0.46281 0.51808 0.0
C2674 C 0.98322 0.45346 0.50932 0.0
C2675 C 0.98763 0.45615 0.49169 0.0
C2676 C 0.98036 0.46819 0.48282 0.0
C2677 C 0.9692 0.4781 0.49181 0.0
H2678 H 0.99651 0.44875 0.48482 0.0
H2679 H 0.8837 0.53984 0.56989 0.0
H2680 H 0.41567 0.11326 0.29695 0.0
H2681 H 0.40159 0.13652 0.28738 0.0
H2682 H 0.35337 0.10965 0.30849 0.0
H2683 H 0.36712 0.08544 0.3167 0.0
H2684 H 0.34734 0.11053 0.27389 0.0
H2685 H 0.38181 0.1583 0.32712 0.0
H2686 H 0.41033 0.17587 0.34566 0.0
H2687 H 0.42971 0.19732 0.29814 0.0
H2688 H 0.40141 0.17969 0.27926 0.0
H2689 H 0.29551 0.1702 0.25237 0.0
H2690 H 0.31346 0.1563 0.27156 0.0
H2691 H 0.35925 0.17843 0.24441 0.0
H2692 H 0.34127 0.19215 0.2251 0.0
H2693 H 0.3675 0.18128 0.28213 0.0
H2694 H 0.33779 0.13559 0.22887 0.0
H2695 H 0.31355 0.11513 0.20558 0.0
H2696 H 0.2894 0.08717 0.24764 0.0
H2697 H 0.31329 0.1078 0.27132 0.0
C2698 C 0.40231 0.11286 0.30021 0.0
C2699 C 0.3924 0.09777 0.30759 0.0
C2700 C 0.39426 0.12616 0.29476 0.0
C2701 C 0.37644 0.12492 0.29734 0.0
C2702 C 0.36712 0.11084 0.30636 0.0
C2703 C 0.37497 0.09714 0.31119 0.0
C2704 C 0.36671 0.13622 0.28826 0.0
C2705 C 0.35146 0.12606 0.27615 0.0
C2706 C 0.37286 0.15633 0.29014 0.0
C2707 C 0.3895 0.16767 0.30179 0.0
C2708 C 0.39215 0.16679 0.32064 0.0
C2709 C 0.40829 0.17673 0.3312 0.0
C2710 C 0.42182 0.1877 0.32309 0.0
C2711 C 0.41921 0.18884 0.30442 0.0
C2712 C 0.40311 0.17892 0.2938 0.0
C2713 C 0.30949 0.17237 0.25083 0.0
C2714 C 0.31711 0.18201 0.23729 0.0
C2715 C 0.31967 0.16442 0.26168 0.0
C2716 C 0.33756 0.16621 0.25917 0.0
C2717 C 0.34544 0.17691 0.24647 0.0
C2718 C 0.33521 0.18464 0.23545 0.0
C2719 C 0.34766 0.1556 0.26866 0.0
C2720 C 0.36311 0.1658 0.28041 0.0
C2721 C 0.34204 0.13541 0.26603 0.0
C2722 C 0.32718 0.12355 0.25197 0.0
C2723 C 0.32714 0.12536 0.23325 0.0
C2724 C 0.31349 0.11366 0.21995 0.0
C2725 C 0.29989 0.09993 0.22514 0.0
C2726 C 0.2999 0.09789 0.24366 0.0
C2727 C 0.31347 0.10961 0.25703 0.0
H2728 H 0.28939 0.09082 0.21481 0.0
H2729 H 0.43433 0.19533 0.33126 0.0
H2730 H 0.34278 0.1373 0.53017 0.0
H2731 H 0.36899 0.12554 0.53272 0.0
H2732 H 0.39333 0.16058 0.49528 0.0
H2733 H 0.36674 0.17229 0.49238 0.0
H2734 H 0.40112 0.12645 0.48838 0.0
H2735 H 0.40697 0.17484 0.54119 0.0
H2736 H 0.39806 0.1937 0.5684 0.0
H2737 H 0.38855 0.14515 0.59482 0.0
H2738 H 0.39718 0.1259 0.56764 0.0
H2739 H 0.48229 0.10511 0.52879 0.0
H2740 H 0.46252 0.12358 0.51901 0.0
H2741 H 0.41822 0.08509 0.53615 0.0
H2742 H 0.43736 0.06604 0.54486 0.0
H2743 H 0.42631 0.1282 0.55233 0.0
H2744 H 0.41851 0.07992 0.49435 0.0
H2745 H 0.42913 0.0643 0.46639 0.0
H2746 H 0.44671 0.1185 0.45002 0.0
H2747 H 0.43642 0.1345 0.47806 0.0
C2748 C 0.35361 0.14247 0.52233 0.0
C2749 C 0.35264 0.15587 0.51116 0.0
C2750 C 0.36869 0.13577 0.52389 0.0
C2751 C 0.38338 0.14244 0.51453 0.0
C2752 C 0.38225 0.15529 0.50276 0.0
C2753 C 0.36703 0.16198 0.50111 0.0
C2754 C 0.39985 0.13614 0.51759 0.0
C2755 C 0.40683 0.12718 0.50236 0.0
C2756 C 0.40769 0.13738 0.53579 0.0
C2757 C 0.40261 0.14888 0.5523 0.0
C2758 C 0.40287 0.16814 0.55275 0.0
C2759 C 0.39789 0.17891 0.56818 0.0
C2760 C 0.3927 0.17062 0.58331 0.0
C2761 C 0.39256 0.15155 0.58307 0.0
C2762 C 0.39753 0.14071 0.56767 0.0
C2763 C 0.46829 0.10032 0.53014 0.0
C2764 C 0.4616 0.08422 0.53808 0.0
C2765 C 0.45703 0.111 0.52463 0.0
C2766 C 0.43894 0.10584 0.5271 0.0
C2767 C 0.43217 0.08947 0.53434 0.0
C2768 C 0.44325 0.07867 0.53949 0.0
C2769 C 0.42688 0.11772 0.5232 0.0
C2770 C 0.42079 0.12783 0.53836 0.0
C2771 C 0.42033 0.11804 0.50496 0.0
C2772 C 0.42685 0.10843 0.48839 0.0
C2773 C 0.42483 0.08854 0.48492 0.0
C2774 C 0.43072 0.07961 0.46901 0.0
C2775 C 0.4385 0.09039 0.4564 0.0
C2776 C 0.44059 0.11016 0.45976 0.0
C2777 C 0.43475 0.11916 0.47566 0.0
H2778 H 0.44292 0.08343 0.44401 0.0
H2779 H 0.38882 0.17897 0.59523 0.0
H2780 H 0.6877 0.58054 0.27977 0.0
H2781 H 0.70265 0.61379 0.27937 0.0
H2782 H 0.75114 0.59819 0.26989 0.0
H2783 H 0.73596 0.56435 0.26975 0.0
H2784 H 0.75596 0.63346 0.29799 0.0
H2785 H 0.72774 0.60817 0.23494 0.0
H2786 H 0.70221 0.59205 0.21137 0.0
H2787 H 0.67574 0.63483 0.23174 0.0
H2788 H 0.70101 0.65106 0.25562 0.0
H2789 H 0.80431 0.72429 0.28269 0.0
H2790 H 0.79021 0.69068 0.28174 0.0
H2791 H 0.73918 0.70026 0.26951 0.0
H2792 H 0.75364 0.73383 0.26914 0.0
H2793 H 0.7352 0.66735 0.25235 0.0
H2794 H 0.75807 0.69158 0.31513 0.0
H2795 H 0.77969 0.70831 0.34241 0.0
H2796 H 0.8113 0.66908 0.32783 0.0
H2797 H 0.78997 0.65225 0.3003 0.0
C2798 C 0.7016 0.58396 0.27767 0.0
C2799 C 0.71043 0.56923 0.27495 0.0
C2800 C 0.7102 0.60327 0.27733 0.0
C2801 C 0.72823 0.60906 0.27454 0.0
C2802 C 0.73727 0.5945 0.27209 0.0
C2803 C 0.72851 0.57495 0.27201 0.0
C2804 C 0.73737 0.63014 0.27425 0.0
C2805 C 0.7516 0.64069 0.28773 0.0
C2806 C 0.73134 0.64041 0.26166 0.0
C2807 C 0.71622 0.63075 0.24717 0.0
C2808 C 0.71643 0.61407 0.23448 0.0
C2809 C 0.702 0.60492 0.22105 0.0
C2810 C 0.68734 0.61238 0.22008 0.0
C2811 C 0.68709 0.62905 0.23252 0.0
C2812 C 0.70147 0.63824 0.24599 0.0
C2813 C 0.79015 0.71945 0.27965 0.0
C2814 C 0.78049 0.73243 0.2759 0.0
C2815 C 0.78184 0.69987 0.27939 0.0
C2816 C 0.76322 0.69217 0.27596 0.0
C2817 C 0.75347 0.70516 0.27225 0.0
C2818 C 0.76187 0.72472 0.27218 0.0
C2819 C 0.75414 0.67086 0.27602 0.0
C2820 C 0.73978 0.66023 0.26257 0.0
C2821 C 0.75958 0.66068 0.28913 0.0
C2822 C 0.77254 0.67081 0.30553 0.0
C2823 C 0.76972 0.68662 0.31765 0.0
C2824 C 0.7819 0.69611 0.33317 0.0
C2825 C 0.79689 0.6898 0.33681 0.0
C2826 C 0.7997 0.67397 0.32496 0.0
C2827 C 0.78757 0.66445 0.3094 0.0
H2828 H 0.80631 0.69716 0.34884 0.0
H2829 H 0.67619 0.60527 0.20968 0.0
H2830 H 0.91655 0.49424 0.7936 0.0
H2831 H 0.89897 0.46104 0.78492 0.0
H2832 H 0.85251 0.47793 0.80175 0.0
H2833 H 0.86997 0.51132 0.8106 0.0
H2834 H 0.86337 0.45154 0.81983 0.0
H2835 H 0.85418 0.46178 0.75726 0.0
H2836 H 0.86462 0.4721 0.72886 0.0
H2837 H 0.89412 0.42995 0.72164 0.0
H2838 H 0.88414 0.4196 0.75019 0.0
H2839 H 0.80552 0.35504 0.77034 0.0
H2840 H 0.81724 0.38966 0.78233 0.0
H2841 H 0.8695 0.38206 0.79238 0.0
H2842 H 0.85767 0.34746 0.78113 0.0
H2843 H 0.85352 0.4042 0.76053 0.0
H2844 H 0.87638 0.40431 0.82267 0.0
H2845 H 0.88024 0.40252 0.85571 0.0
H2846 H 0.83722 0.42787 0.86632 0.0
H2847 H 0.83308 0.42969 0.83324 0.0
C2848 C 0.90256 0.49093 0.79535 0.0
C2849 C 0.8946 0.50523 0.80297 0.0
C2850 C 0.89254 0.47206 0.79009 0.0
C2851 C 0.87451 0.46737 0.79237 0.0
C2852 C 0.86642 0.48159 0.79965 0.0
C2853 C 0.87642 0.5005 0.8049 0.0
C2854 C 0.86497 0.44734 0.79036 0.0
C2855 C 0.86061 0.44118 0.80677 0.0
C2856 C 0.86281 0.43404 0.77345 0.0
C2857 C 0.86844 0.43996 0.75597 0.0
C2858 C 0.86297 0.45477 0.7497 0.0
C2859 C 0.86881 0.46063 0.73355 0.0
C2860 C 0.88004 0.4517 0.72346 0.0
C2861 C 0.88541 0.43685 0.72946 0.0
C2862 C 0.87964 0.43096 0.74561 0.0
C2863 C 0.81933 0.36081 0.7759 0.0
C2864 C 0.83072 0.34894 0.77554 0.0
C2865 C 0.82594 0.38038 0.78285 0.0
C2866 C 0.84405 0.3881 0.78876 0.0
C2867 C 0.85537 0.37613 0.78862 0.0
C2868 C 0.8487 0.35655 0.782 0.0
C2869 C 0.85166 0.40849 0.79007 0.0
C2870 C 0.85569 0.41465 0.77347 0.0
C2871 C 0.85455 0.42179 0.80697 0.0
C2872 C 0.85397 0.41642 0.82535 0.0
C2873 C 0.86729 0.40878 0.83188 0.0
C2874 C 0.86979 0.40816 0.8507 0.0
C2875 C 0.85891 0.41495 0.86309 0.0
C2876 C 0.84557 0.42249 0.85669 0.0
C2877 C 0.84305 0.42319 0.83789 0.0
H2878 H 0.86085 0.41444 0.87766 0.0
H2879 H 0.88457 0.45628 0.71099 0.0
H2880 H 0.10779 0.87149 0.06257 0.0
H2881 H 0.10269 0.89976 0.05228 0.0
H2882 H 0.06361 0.90229 0.09076 0.0
H2883 H 0.06838 0.87379 0.10071 0.0
H2884 H 0.05108 0.9093 0.06119 0.0
H2885 H 0.10872 0.93511 0.09547 0.0
H2886 H 0.14041 0.93846 0.10387 0.0
H2887 H 0.15166 0.9479 0.0494 0.0
H2888 H 0.11998 0.94432 0.04058 0.0
H2889 H 0.05288 0.00949 0.06848 0.0
H2890 H 0.05678 0.97874 0.07356 0.0
H2891 H 0.07588 0.96896 0.01997 0.0
H2892 H 0.07105 0.99958 0.01441 0.0
H2893 H 0.09898 0.96546 0.0547 0.0
H2894 H 0.04201 0.93614 0.01944 0.0
H2895 H 0.01006 0.92875 0.0094 0.0
H2896 H 0.99839 0.92623 0.06533 0.0
H2897 H 0.03031 0.93306 0.07559 0.0
C2898 C 0.09809 0.87803 0.06889 0.0
C2899 C 0.08852 0.87007 0.08255 0.0
C2900 C 0.09527 0.89447 0.06307 0.0
C2901 C 0.08288 0.90377 0.0708 0.0
C2902 C 0.07328 0.89573 0.0844 0.0
C2903 C 0.07605 0.87927 0.09017 0.0
C2904 C 0.07935 0.92127 0.06439 0.0
C2905 C 0.0617 0.92161 0.06011 0.0
C2906 C 0.09294 0.93745 0.06214 0.0
C2907 C 0.11192 0.93918 0.06729 0.0
C2908 C 0.11791 0.93767 0.08521 0.0
C2909 C 0.13588 0.93966 0.09006 0.0
C2910 C 0.14803 0.94332 0.07715 0.0
C2911 C 0.14223 0.94501 0.05937 0.0
C2912 C 0.12427 0.943 0.05444 0.0
C2913 C 0.05735 1.00053 0.05745 0.0
C2914 C 0.06111 0.00692 0.04078 0.0
C2915 C 0.05972 0.9829 0.06046 0.0
C2916 C 0.06668 0.97125 0.04724 0.0
C2917 C 0.0704 0.97748 0.03044 0.0
C2918 C 0.06746 0.99496 0.02716 0.0
C2919 C 0.07079 0.95331 0.0517 0.0
C2920 C 0.08849 0.95303 0.05578 0.0
C2921 C 0.05733 0.93715 0.0538 0.0
C2922 C 0.03848 0.9353 0.04829 0.0
C2923 C 0.03263 0.93426 0.02963 0.0
C2924 C 0.01453 0.92991 0.02386 0.0
C2925 C 1.00219 0.92695 0.03671 0.0
C2926 C 0.00795 0.92846 0.05539 0.0
C2927 C 0.02603 0.93246 0.06117 0.0
H2928 H 0.98818 0.92363 0.03221 0.0
H2929 H 0.16194 0.94489 0.08095 0.0
H2930 H 0.99043 0.28083 0.86824 0.0
H2931 H 0.96443 0.28417 0.85003 0.0
H2932 H 0.9314 0.26543 0.8914 0.0
H2933 H 0.95743 0.26281 0.90999 0.0
H2934 H 0.91565 0.24776 0.85325 0.0
H2935 H 0.93967 0.30914 0.89168 0.0
H2936 H 0.96244 0.33876 0.90628 0.0
H2937 H 0.97095 0.35239 0.85263 0.0
H2938 H 0.94839 0.32263 0.83765 0.0
H2939 H 0.8384 0.27632 0.8242 0.0
H2940 H 0.86401 0.27221 0.84239 0.0
H2941 H 0.89862 0.2972 0.80494 0.0
H2942 H 0.87312 0.30138 0.78685 0.0
H2943 H 0.91343 0.31137 0.8413 0.0
H2944 H 0.88781 0.24884 0.80331 0.0
H2945 H 0.86335 0.22009 0.79043 0.0
H2946 H 0.85639 0.20933 0.84534 0.0
H2947 H 0.88067 0.23819 0.85858 0.0
C2948 C 0.97764 0.27729 0.87346 0.0
C2949 C 0.97623 0.27149 0.89071 0.0
C2950 C 0.96269 0.27928 0.863 0.0
C2951 C 0.94569 0.27505 0.86915 0.0
C2952 C 0.94419 0.26876 0.88613 0.0
C2953 C 0.9592 0.2673 0.89684 0.0
C2954 C 0.92968 0.27765 0.85818 0.0
C2955 C 0.91517 0.26173 0.85083 0.0
C2956 C 0.92875 0.29576 0.85469 0.0
C2957 C 0.94253 0.31351 0.86352 0.0
C2958 C 0.94656 0.31832 0.88296 0.0
C2959 C 0.95939 0.33516 0.89132 0.0
C2960 C 0.96819 0.34741 0.88038 0.0
C2961 C 0.96416 0.34285 0.86107 0.0
C2962 C 0.95134 0.32599 0.85264 0.0
C2963 C 0.85144 0.28084 0.81975 0.0
C2964 C 0.85344 0.28876 0.80365 0.0
C2965 C 0.86618 0.27845 0.83019 0.0
C2966 C 0.88353 0.28416 0.82512 0.0
C2967 C 0.88556 0.29248 0.80928 0.0
C2968 C 0.87081 0.29463 0.7987 0.0
C2969 C 0.89945 0.28145 0.83619 0.0
C2970 C 0.91395 0.29736 0.8436 0.0
C2971 C 0.90027 0.26336 0.8399 0.0
C2972 C 0.88596 0.24576 0.83195 0.0
C2973 C 0.88101 0.24039 0.81265 0.0
C2974 C 0.86718 0.22407 0.80528 0.0
C2975 C 0.8583 0.21291 0.81706 0.0
C2976 C 0.86328 0.218 0.83623 0.0
C2977 C 0.87709 0.23432 0.84368 0.0
H2978 H 0.84757 0.2003 0.81134 0.0
H2979 H 0.9781 0.36047 0.88688 0.0
H2980 H 0.56036 0.24999 0.5938 0.0
H2981 H 0.55686 0.21591 0.58206 0.0
H2982 H 0.60773 0.22911 0.56105 0.0
H2983 H 0.6109 0.26355 0.57213 0.0
H2984 H 0.58531 0.19791 0.53817 0.0
H2985 H 0.60164 0.21633 0.60567 0.0
H2986 H 0.5967 0.23036 0.63737 0.0
H2987 H 0.54519 0.19062 0.63086 0.0
H2988 H 0.54977 0.17648 0.5991 0.0
H2989 H 0.58471 0.09847 0.52575 0.0
H2990 H 0.59274 0.13324 0.53238 0.0
H2991 H 0.55713 0.13174 0.57516 0.0
H2992 H 0.55428 0.09824 0.57253 0.0
H2993 H 0.57606 0.15969 0.58734 0.0
H2994 H 0.55539 0.1426 0.51972 0.0
H2995 H 0.55811 0.12781 0.48746 0.0
H2996 H 0.61135 0.16328 0.49177 0.0
H2997 H 0.60913 0.17788 0.52416 0.0
C2998 C 0.57066 0.24572 0.5863 0.0
C2999 C 0.58594 0.25961 0.58399 0.0
C3000 C 0.56872 0.22611 0.57972 0.0
C3001 C 0.58226 0.21965 0.57112 0.0
C3002 C 0.5971 0.23355 0.56775 0.0
C3003 C 0.59889 0.25331 0.57404 0.0
C3004 C 0.5814 0.19855 0.56692 0.0
C3005 C 0.58314 0.18943 0.54887 0.0
C3006 C 0.57844 0.18723 0.58068 0.0
C3007 C 0.57604 0.19542 0.60001 0.0
C3008 C 0.58927 0.2106 0.61102 0.0
C3009 C 0.58652 0.21858 0.62898 0.0
C3010 C 0.57064 0.2114 0.63612 0.0
C3011 C 0.55749 0.19616 0.62533 0.0
C3012 C 0.56017 0.18814 0.60737 0.0
C3013 C 0.57984 0.10571 0.5375 0.0
C3014 C 0.5701 0.09523 0.54943 0.0
C3015 C 0.58351 0.12591 0.54068 0.0
C3016 C 0.57542 0.13615 0.55425 0.0
C3017 C 0.5644 0.12519 0.56505 0.0
C3018 C 0.56243 0.1055 0.56323 0.0
C3019 C 0.57822 0.15791 0.55789 0.0
C3020 C 0.57741 0.16753 0.57615 0.0
C3021 C 0.5812 0.1694 0.54406 0.0
C3022 C 0.58213 0.16122 0.52436 0.0
C3023 C 0.56763 0.14727 0.51374 0.0
C3024 C 0.56911 0.1389 0.49546 0.0
C3025 C 0.58485 0.14466 0.48756 0.0
C3026 C 0.59916 0.15883 0.4979 0.0
C3027 C 0.59782 0.16714 0.51621 0.0
H3028 H 0.58596 0.13812 0.47344 0.0
H3029 H 0.56852 0.21762 0.65 0.0
H3030 H 0.58747 0.77091 0.41541 0.0
H3031 H 0.61434 0.77293 0.39994 0.0
H3032 H 0.58706 0.78056 0.35048 0.0
H3033 H 0.55992 0.77851 0.36592 0.0
H3034 H 0.60651 0.75465 0.34245 0.0
H3035 H 0.61791 0.8184 0.38155 0.0
H3036 H 0.62143 0.84083 0.41165 0.0
H3037 H 0.66281 0.81869 0.43213 0.0
H3038 H 0.6594 0.79597 0.40225 0.0
H3039 H 0.6738 0.78501 0.28861 0.0
H3040 H 0.64961 0.78008 0.30758 0.0
H3041 H 0.68639 0.786 0.35559 0.0
H3042 H 0.71124 0.79264 0.33655 0.0
H3043 H 0.66346 0.80281 0.36717 0.0
H3044 H 0.65462 0.7406 0.33178 0.0
H3045 H 0.65162 0.71457 0.30454 0.0
H3046 H 0.60652 0.72859 0.28063 0.0
H3047 H 0.60936 0.75485 0.30763 0.0
C3048 C 0.58705 0.77297 0.4012 0.0
C3049 C 0.57129 0.77449 0.39198 0.0
C3050 C 0.6026 0.77429 0.39239 0.0
C3051 C 0.60301 0.7772 0.37404 0.0
C3052 C 0.58725 0.77842 0.36466 0.0
C3053 C 0.57165 0.77721 0.37352 0.0
C3054 C 0.61961 0.77839 0.36444 0.0
C3055 C 0.61888 0.76539 0.34773 0.0
C3056 C 0.63619 0.79157 0.37181 0.0
C3057 C 0.63829 0.80537 0.38971 0.0
C3058 C 0.62768 0.81823 0.39251 0.0
C3059 C 0.62967 0.83101 0.40953 0.0
C3060 C 0.64231 0.83116 0.4238 0.0
C3061 C 0.65302 0.81856 0.42107 0.0
C3062 C 0.65107 0.80574 0.4041 0.0
C3063 C 0.67693 0.78534 0.30322 0.0
C3064 C 0.69472 0.78956 0.31095 0.0
C3065 C 0.66286 0.78216 0.31413 0.0
C3066 C 0.66578 0.78224 0.33318 0.0
C3067 C 0.68353 0.78579 0.34096 0.0
C3068 C 0.69781 0.78936 0.32999 0.0
C3069 C 0.65025 0.77942 0.3447 0.0
C3070 C 0.65115 0.79202 0.36182 0.0
C3071 C 0.63392 0.76538 0.3381 0.0
C3072 C 0.6323 0.7498 0.32167 0.0
C3073 C 0.64415 0.73824 0.32064 0.0
C3074 C 0.64246 0.72342 0.30526 0.0
C3075 C 0.62891 0.71995 0.29085 0.0
C3076 C 0.61701 0.7313 0.2918 0.0
C3077 C 0.61864 0.74613 0.30715 0.0
H3078 H 0.62761 0.70846 0.27896 0.0
H3079 H 0.64382 0.84106 0.43696 0.0
H3080 H 0.11592 0.29678 0.44615 0.0
H3081 H 0.10954 0.26969 0.46204 0.0
H3082 H 0.08085 0.23266 0.4115 0.0
H3083 H 0.08734 0.25953 0.39543 0.0
H3084 H 0.06218 0.23169 0.44375 0.0
H3085 H 0.11772 0.22592 0.42342 0.0
H3086 H 0.14909 0.23893 0.41928 0.0
H3087 H 0.16223 0.25464 0.47849 0.0
H3088 H 0.13085 0.24198 0.48299 0.0
H3089 H 0.04662 0.14672 0.47985 0.0
H3090 H 0.05677 0.16937 0.45947 0.0
H3091 H 0.09174 0.20819 0.50546 0.0
H3092 H 0.08156 0.18555 0.5258 0.0
H3093 H 0.10764 0.20673 0.47331 0.0
H3094 H 0.05242 0.21452 0.49379 0.0
H3095 H 0.02084 0.20439 0.49845 0.0
H3096 H 0.00689 0.18716 0.4394 0.0
H3097 H 0.03845 0.19684 0.4344 0.0
C3098 C 0.10846 0.28281 0.43836 0.0
C3099 C 0.10216 0.28026 0.41955 0.0
C3100 C 0.10484 0.26739 0.44744 0.0
C3101 C 0.09474 0.24925 0.43789 0.0
C3102 C 0.08867 0.24658 0.41906 0.0
C3103 C 0.09249 0.26192 0.4099 0.0
C3104 C 0.08993 0.23325 0.44779 0.0
C3105 C 0.07204 0.22593 0.44992 0.0
C3106 C 0.10292 0.22618 0.45613 0.0
C3107 C 0.12192 0.23308 0.45354 0.0
C3108 C 0.12729 0.2322 0.43556 0.0
C3109 C 0.14507 0.23952 0.43315 0.0
C3110 C 0.15764 0.24763 0.44862 0.0
C3111 C 0.15247 0.24835 0.46653 0.0
C3112 C 0.13469 0.24107 0.46902 0.0
C3113 C 0.05657 0.16005 0.48549 0.0
C3114 C 0.0632 0.16459 0.50435 0.0
C3115 C 0.06234 0.17295 0.4739 0.0
C3116 C 0.0749 0.19053 0.48101 0.0
C3117 C 0.08202 0.19472 0.49971 0.0
C3118 C 0.07611 0.18192 0.51133 0.0
C3119 C 0.07978 0.20509 0.46933 0.0
C3120 C 0.09771 0.21224 0.46693 0.0
C3121 C 0.0668 0.21211 0.46077 0.0
C3122 C 0.04782 0.20615 0.46374 0.0
C3123 C 0.04264 0.20837 0.48181 0.0
C3124 C 0.02474 0.20274 0.48451 0.0
C3125 C 0.01187 0.19507 0.46923 0.0
C3126 C 0.01688 0.19304 0.45122 0.0
C3127 C 0.03477 0.19858 0.44844 0.0
H3128 H 0.99801 0.19076 0.47135 0.0
H3129 H 0.1714 0.25334 0.44672 0.0
H3130 H 0.56697 0.25712 0.15144 0.0
H3131 H 0.59683 0.25441 0.15939 0.0
H3132 H 0.5889 0.26346 0.21752 0.0
H3133 H 0.55917 0.26631 0.2098 0.0
H3134 H 0.61916 0.28747 0.20982 0.0
H3135 H 0.58798 0.22011 0.19438 0.0
H3136 H 0.56989 0.19014 0.17421 0.0
H3137 H 0.60881 0.19387 0.13542 0.0
H3138 H 0.62701 0.22405 0.15523 0.0
H3139 H 0.67957 0.25512 0.26062 0.0
H3140 H 0.65405 0.26101 0.24425 0.0
H3141 H 0.6773 0.25326 0.19268 0.0
H3142 H 0.70301 0.24747 0.20908 0.0
H3143 H 0.64209 0.23068 0.19123 0.0
H3144 H 0.67212 0.29909 0.20584 0.0
H3145 H 0.6883 0.33071 0.22482 0.0
H3146 H 0.6512 0.32405 0.26525 0.0
H3147 H 0.63433 0.29284 0.24613 0.0
C3148 C 0.57162 0.25859 0.16593 0.0
C3149 C 0.56084 0.26218 0.18007 0.0
C3150 C 0.58857 0.25684 0.17038 0.0
C3151 C 0.59491 0.25866 0.18898 0.0
C3152 C 0.58413 0.26203 0.20306 0.0
C3153 C 0.56722 0.26373 0.19865 0.0
C3154 C 0.61323 0.25853 0.19416 0.0
C3155 C 0.62416 0.27501 0.20581 0.0
C3156 C 0.61985 0.24252 0.18823 0.0
C3157 C 0.60874 0.22453 0.17617 0.0
C3158 C 0.59258 0.21469 0.18143 0.0
C3159 C 0.58233 0.19763 0.17009 0.0
C3160 C 0.58816 0.19015 0.1535 0.0
C3161 C 0.60428 0.19971 0.14825 0.0
C3162 C 0.61456 0.2168 0.15953 0.0
C3163 C 0.67923 0.25474 0.24582 0.0
C3164 C 0.69307 0.25067 0.23603 0.0
C3165 C 0.66481 0.25832 0.23654 0.0
C3166 C 0.66396 0.25775 0.21733 0.0
C3167 C 0.67786 0.2539 0.20753 0.0
C3168 C 0.69244 0.25058 0.21688 0.0
C3169 C 0.64772 0.25939 0.20749 0.0
C3170 C 0.63719 0.24325 0.19489 0.0
C3171 C 0.64132 0.27565 0.21254 0.0
C3172 C 0.65216 0.29356 0.22473 0.0
C3173 C 0.66758 0.30428 0.2189 0.0
C3174 C 0.6768 0.32215 0.22961 0.0
C3175 C 0.67099 0.3292 0.24636 0.0
C3176 C 0.65578 0.31851 0.25234 0.0
C3177 C 0.64629 0.30082 0.24151 0.0
H3178 H 0.67818 0.34303 0.25461 0.0
H3179 H 0.58022 0.17692 0.14476 0.0
H3180 H 0.61883 0.89023 0.89917 0.0
H3181 H 0.6167 0.92105 0.91648 0.0
H3182 H 0.60199 0.89525 0.96346 0.0
H3183 H 0.60419 0.86439 0.94636 0.0
H3184 H 0.57682 0.91205 0.94641 0.0
H3185 H 0.6394 0.92447 0.96656 0.0
H3186 H 0.67098 0.92922 0.96218 0.0
H3187 H 0.67005 0.97717 0.93678 0.0
H3188 H 0.63844 0.97261 0.94096 0.0
H3189 H 0.5708 0.98315 0.01881 0.0
H3190 H 0.58073 0.95793 0.99977 0.0
H3191 H 0.59687 0.99459 0.9607 0.0
H3192 H 0.58721 0.02013 0.98006 0.0
H3193 H 0.62136 0.9744 0.96988 0.0
H3194 H 0.5611 0.96356 0.94813 0.0
H3195 H 0.52927 0.96024 0.94999 0.0
H3196 H 0.52541 0.91133 0.97525 0.0
H3197 H 0.55732 0.91448 0.97373 0.0
C3198 C 0.61552 0.89125 0.91334 0.0
C3199 C 0.61142 0.87499 0.92143 0.0
C3200 C 0.61442 0.90881 0.92317 0.0
C3201 C 0.60916 0.91014 0.94106 0.0
C3202 C 0.60611 0.89426 0.94959 0.0
C3203 C 0.60739 0.87674 0.93987 0.0
C3204 C 0.60452 0.92731 0.94995 0.0
C3205 C 0.58655 0.92565 0.95176 0.0
C3206 C 0.61725 0.94513 0.95581 0.0
C3207 C 0.63635 0.9478 0.95349 0.0
C3208 C 0.64581 0.93579 0.95972 0.0
C3209 C 0.66378 0.93854 0.9574 0.0
C3210 C 0.67249 0.95337 0.94904 0.0
C3211 C 0.66328 0.96558 0.94312 0.0
C3212 C 0.64533 0.9629 0.94543 0.0
C3213 C 0.577 0.98602 0.00654 0.0
C3214 C 0.5786 1.00348 1.00095 0.0
C3215 C 0.58237 0.97159 0.99555 0.0
C3216 C 0.58928 0.97456 0.97889 0.0
C3217 C 0.59148 0.99223 0.97356 0.0
C3218 C 0.586 0.00666 0.98453 0.0
C3219 C 0.59384 0.95887 0.96698 0.0
C3220 C 0.61167 0.96081 0.9644 0.0
C3221 C 0.58096 0.9414 0.96 0.0
C3222 C 0.5617 0.93938 0.96099 0.0
C3223 C 0.55353 0.95221 0.95426 0.0
C3224 C 0.53545 0.95034 0.95523 0.0
C3225 C 0.52533 0.93564 0.96283 0.0
C3226 C 0.53327 0.92273 0.96941 0.0
C3227 C 0.55136 0.92453 0.96846 0.0
H3228 H 0.51133 0.93423 0.96357 0.0
H3229 H 0.6864 0.95548 0.94727 0.0
H3230 H 0.95434 0.7681 0.66722 0.0
H3231 H 0.92412 0.76427 0.67557 0.0
H3232 H 0.9444 0.78142 0.73372 0.0
H3233 H 0.97451 0.78408 0.72541 0.0
H3234 H 0.9162 0.7516 0.72817 0.0
H3235 H 0.93259 0.8123 0.70471 0.0
H3236 H 0.94093 0.82968 0.67947 0.0
H3237 H 0.89362 0.79524 0.64512 0.0
H3238 H 0.88516 0.77747 0.67005 0.0
H3239 H 0.85267 0.78306 0.77711 0.0
H3240 H 0.87985 0.7827 0.76234 0.0
H3241 H 0.84967 0.76815 0.70819 0.0
H3242 H 0.82294 0.77005 0.72298 0.0
H3243 H 0.87972 0.79155 0.70692 0.0
H3244 H 0.85946 0.73539 0.73028 0.0
H3245 H 0.84861 0.71814 0.75474 0.0
H3246 H 0.90014 0.73826 0.78558 0.0
H3247 H 0.91104 0.75709 0.76209 0.0
C3248 C 0.9523 0.77133 0.68176 0.0
C3249 C 0.96662 0.77678 0.69574 0.0
C3250 C 0.93508 0.76902 0.6865 0.0
C3251 C 0.93211 0.77284 0.70523 0.0
C3252 C 0.94647 0.7784 0.71917 0.0
C3253 C 0.96362 0.78016 0.71446 0.0
C3254 C 0.91418 0.77163 0.71059 0.0
C3255 C 0.90822 0.76038 0.72364 0.0
C3256 C 0.90342 0.78229 0.70382 0.0
C3257 C 0.90835 0.79344 0.68915 0.0
C3258 C 0.92401 0.80841 0.69175 0.0
C3259 C 0.92877 0.81831 0.67749 0.0
C3260 C 0.91785 0.81353 0.66068 0.0
C3261 C 0.90209 0.7989 0.65813 0.0
C3262 C 0.89732 0.78892 0.6723 0.0
C3263 C 0.85209 0.78019 0.76208 0.0
C3264 C 0.83615 0.77702 0.75102 0.0
C3265 C 0.86745 0.77985 0.75368 0.0
C3266 C 0.8666 0.77509 0.73421 0.0
C3267 C 0.85055 0.77188 0.72321 0.0
C3268 C 0.83535 0.77281 0.7316 0.0
C3269 C 0.88227 0.77242 0.72532 0.0
C3270 C 0.8876 0.78263 0.71139 0.0
C3271 C 0.89216 0.76034 0.73091 0.0
C3272 C 0.88606 0.74787 0.74441 0.0
C3273 C 0.86851 0.73627 0.7423 0.0
C3274 C 0.86231 0.72623 0.75604 0.0
C3275 C 0.87369 0.72692 0.77161 0.0
C3276 C 0.89132 0.73774 0.7735 0.0
C3277 C 0.89749 0.74826 0.76004 0.0
H3278 H 0.86881 0.71917 0.78225 0.0
H3279 H 0.92157 0.82118 0.64965 0.0
H3280 H 0.16271 0.03015 0.84156 0.0
H3281 H 0.15126 0.03289 0.8718 0.0
H3282 H 0.09821 0.02014 0.84447 0.0
H3283 H 0.11018 0.01978 0.81445 0.0
H3284 H 0.09401 0.03797 0.87188 0.0
H3285 H 0.12392 0.98934 0.87317 0.0
H3286 H 0.14793 0.97315 0.87216 0.0
H3287 H 0.17845 0.01652 0.91751 0.0
H3288 H 0.15477 0.03315 0.91859 0.0
H3289 H 0.05461 0.01817 0.95592 0.0
H3290 H 0.0665 0.01501 0.92581 0.0
H3291 H 0.11716 0.05109 0.95191 0.0
H3292 H 0.10507 0.05486 0.98201 0.0
H3293 H 0.12199 0.02083 0.92607 0.0
H3294 H 0.0867 0.0665 0.92343 0.0
H3295 H 0.05908 0.07677 0.92371 0.0
H3296 H 0.0341 0.0294 0.87913 0.0
H3297 H 0.06146 0.01871 0.87876 0.0
C3298 C 0.14857 0.02789 0.84194 0.0
C3299 C 0.13755 0.02463 0.82509 0.0
C3300 C 0.14178 0.02915 0.85959 0.0
C3301 C 0.12338 0.02616 0.86147 0.0
C3302 C 0.1124 0.0227 0.84441 0.0
C3303 C 0.1193 0.0223 0.82684 0.0
C3304 C 0.11566 0.02728 0.88075 0.0
C3305 C 0.10022 0.03375 0.88338 0.0
C3306 C 0.12314 0.02221 0.89681 0.0
C3307 C 0.13767 0.01264 0.89577 0.0
C3308 C 0.13584 0.99554 0.88278 0.0
C3309 C 0.14938 0.98627 0.88222 0.0
C3310 C 0.16474 0.99385 0.8947 0.0
C3311 C 0.16659 0.01072 0.90779 0.0
C3312 C 0.15312 0.02008 0.90837 0.0
C3313 C 0.06821 0.0257 0.95544 0.0
C3314 C 0.07851 0.0371 0.97198 0.0
C3315 C 0.07515 0.02383 0.93789 0.0
C3316 C 0.09294 0.03297 0.93586 0.0
C3317 C 0.10342 0.04384 0.95247 0.0
C3318 C 0.09638 0.04601 0.96997 0.0
C3319 C 0.10053 0.03127 0.91674 0.0
C3320 C 0.11593 0.02483 0.91429 0.0
C3321 C 0.09255 0.03542 0.9006 0.0
C3322 C 0.07608 0.04175 0.90115 0.0
C3323 C 0.07526 0.05819 0.9138 0.0
C3324 C 0.05966 0.0641 0.91395 0.0
C3325 C 0.04486 0.05374 0.90142 0.0
C3326 C 0.04558 0.03741 0.8888 0.0
C3327 C 0.06112 0.03143 0.88862 0.0
H3328 H 0.03284 0.05836 0.90138 0.0
H3329 H 0.17517 0.98662 0.89428 0.0
H3330 H 0.82328 0.44169 0.58311 0.0
H3331 H 0.82966 0.42758 0.60973 0.0
H3332 H 0.82007 0.37232 0.57308 0.0
H3333 H 0.81301 0.38597 0.54691 0.0
H3334 H 0.80102 0.37003 0.60027 0.0
H3335 H 0.86155 0.39731 0.59342 0.0
H3336 H 0.88905 0.42175 0.59159 0.0
H3337 H 0.88626 0.45156 0.64668 0.0
H3338 H 0.8586 0.42745 0.64875 0.0
H3339 H 0.83703 0.31823 0.65943 0.0
H3340 H 0.82646 0.33312 0.63534 0.0
H3341 H 0.83327 0.38542 0.6759 0.0
H3342 H 0.84423 0.37062 0.69983 0.0
H3343 H 0.85303 0.39048 0.64789 0.0
H3344 H 0.79128 0.35947 0.65283 0.0
H3345 H 0.76347 0.33419 0.65122 0.0
H3346 H 0.77083 0.30838 0.5961 0.0
H3347 H 0.79875 0.33335 0.59746 0.0
C3348 C 0.82241 0.42651 0.5809 0.0
C3349 C 0.81709 0.41477 0.56318 0.0
C3350 C 0.82632 0.41857 0.59597 0.0
C3351 C 0.8253 0.39895 0.59327 0.0
C3352 C 0.82075 0.38747 0.57542 0.0
C3353 C 0.81649 0.39525 0.56055 0.0
C3354 C 0.8268 0.38966 0.60913 0.0
C3355 C 0.81253 0.37433 0.61058 0.0
C3356 C 0.84163 0.39567 0.62269 0.0
C3357 C 0.85781 0.41071 0.62112 0.0
C3358 C 0.86662 0.40924 0.60503 0.0
C3359 C 0.8823 0.42299 0.60398 0.0
C3360 C 0.88935 0.43824 0.61897 0.0
C3361 C 0.88075 0.43978 0.63505 0.0
C3362 C 0.86507 0.42608 0.63616 0.0
C3363 C 0.83566 0.33268 0.6632 0.0
C3364 C 0.84143 0.34348 0.68122 0.0
C3365 C 0.82956 0.34112 0.64954 0.0
C3366 C 0.82911 0.36035 0.65392 0.0
C3367 C 0.83354 0.37056 0.67233 0.0
C3368 C 0.83976 0.36218 0.68592 0.0
C3369 C 0.82724 0.37073 0.63894 0.0
C3370 C 0.8415 0.38628 0.63764 0.0
C3371 C 0.81266 0.36451 0.62509 0.0
C3372 C 0.79715 0.34822 0.62531 0.0
C3373 C 0.78716 0.34818 0.64054 0.0
C3374 C 0.77131 0.33396 0.63961 0.0
C3375 C 0.76534 0.31978 0.62352 0.0
C3376 C 0.77543 0.31942 0.60852 0.0
C3377 C 0.79126 0.33358 0.60938 0.0
H3378 H 0.7528 0.30918 0.62255 0.0
H3379 H 0.90153 0.44882 0.61816 0.0
H3380 H 0.48933 0.06493 0.34423 0.0
H3381 H 0.50155 0.06055 0.37377 0.0
H3382 H 0.45292 0.06365 0.39717 0.0
H3383 H 0.44056 0.06827 0.36757 0.0
H3384 H 0.48059 0.08509 0.41968 0.0
H3385 H 0.46207 0.02129 0.38901 0.0
H3386 H 0.45658 0.99198 0.3648 0.0
H3387 H 0.51253 0.99826 0.3657 0.0
H3388 H 0.51842 0.02779 0.38971 0.0
H3389 H 0.51704 0.05951 0.49818 0.0
H3390 H 0.49874 0.06101 0.47136 0.0
H3391 H 0.5429 0.06289 0.43873 0.0
H3392 H 0.56122 0.06008 0.46569 0.0
H3393 H 0.51207 0.0349 0.42298 0.0
H3394 H 0.52708 0.10484 0.45171 0.0
H3395 H 0.52871 0.13046 0.4791 0.0
H3396 H 0.47402 0.10626 0.48497 0.0
H3397 H 0.47208 0.08062 0.45755 0.0
C3398 C 0.4813 0.06492 0.35572 0.0
C3399 C 0.46407 0.06706 0.35372 0.0
C3400 C 0.48818 0.06209 0.37244 0.0
C3401 C 0.47788 0.06126 0.38733 0.0
C3402 C 0.46089 0.06402 0.38564 0.0
C3403 C 0.45399 0.06692 0.36887 0.0
C3404 C 0.48571 0.05914 0.40506 0.0
C3405 C 0.48723 0.07393 0.42048 0.0
C3406 C 0.49406 0.04436 0.40608 0.0
C3407 C 0.4907 0.02694 0.39109 0.0
C3408 C 0.47324 0.0166 0.38389 0.0
C3409 C 0.47004 0.99988 0.37024 0.0
C3410 C 0.4842 0.99329 0.36368 0.0
C3411 C 0.50158 1.0034 0.37077 0.0
C3412 C 0.50485 0.02013 0.38442 0.0
C3413 C 0.52295 0.06028 0.48537 0.0
C3414 C 0.54039 0.05907 0.48381 0.0
C3415 C 0.51251 0.06142 0.47012 0.0
C3416 C 0.51957 0.06218 0.45323 0.0
C3417 C 0.53735 0.06228 0.45182 0.0
C3418 C 0.54781 0.06082 0.46717 0.0
C3419 C 0.50793 0.06157 0.43683 0.0
C3420 C 0.50544 0.04602 0.42194 0.0
C3421 C 0.4982 0.07523 0.43648 0.0
C3422 C 0.49936 0.09102 0.45252 0.0
C3423 C 0.5154 0.10509 0.4588 0.0
C3424 C 0.5164 0.11956 0.47434 0.0
C3425 C 0.5015 0.11997 0.48377 0.0
C3426 C 0.48552 0.10599 0.4776 0.0
C3427 C 0.48442 0.0916 0.462 0.0
H3428 H 0.50234 0.13112 0.49585 0.0
H3429 H 0.48169 0.98032 0.35315 0.0
H3430 H 0.80915 0.75382 0.06004 0.0
H3431 H 0.80749 0.76691 0.09293 0.0
H3432 H 0.81309 0.71434 0.10736 0.0
H3433 H 0.81496 0.70135 0.07494 0.0
H3434 H 0.78396 0.72437 0.12023 0.0
H3435 H 0.84581 0.75324 0.12043 0.0
H3436 H 0.87227 0.77307 0.11012 0.0
H3437 H 0.85279 0.82277 0.12436 0.0
H3438 H 0.82607 0.80316 0.13454 0.0
H3439 H 0.79629 0.73878 0.21681 0.0
H3440 H 0.79731 0.73297 0.18355 0.0
H3441 H 0.80124 0.79255 0.18374 0.0
H3442 H 0.80187 0.79877 0.21794 0.0
H3443 H 0.82314 0.78214 0.16201 0.0
H3444 H 0.76067 0.75101 0.16298 0.0
H3445 H 0.73508 0.72915 0.17287 0.0
H3446 H 0.75733 0.68185 0.15648 0.0
H3447 H 0.78288 0.70331 0.14634 0.0
C3448 C 0.81034 0.74519 0.07027 0.0
C3449 C 0.81206 0.72643 0.06469 0.0
C3450 C 0.80939 0.7527 0.08909 0.0
C3451 C 0.81004 0.74157 0.10267 0.0
C3452 C 0.81244 0.72319 0.09719 0.0
C3453 C 0.81355 0.71579 0.07855 0.0
C3454 C 0.80689 0.74819 0.12234 0.0
C3455 C 0.79257 0.737 0.12937 0.0
C3456 C 0.81785 0.76487 0.13422 0.0
C3457 C 0.83381 0.77668 0.12799 0.0
C3458 C 0.84706 0.76835 0.12116 0.0
C3459 C 0.86214 0.77956 0.1154 0.0
C3460 C 0.86418 0.79916 0.11652 0.0
C3461 C 0.85117 0.80758 0.12346 0.0
C3462 C 0.83606 0.79643 0.12924 0.0
C3463 C 0.79701 0.75065 0.20978 0.0
C3464 C 0.79869 0.76917 0.22006 0.0
C3465 C 0.79741 0.74725 0.19056 0.0
C3466 C 0.7988 0.76211 0.18068 0.0
C3467 C 0.79997 0.7807 0.19085 0.0
C3468 C 0.80006 0.78424 0.21039 0.0
C3469 C 0.80021 0.75815 0.16009 0.0
C3470 C 0.81424 0.76977 0.15282 0.0
C3471 C 0.78908 0.74166 0.14791 0.0
C3472 C 0.7737 0.72879 0.15402 0.0
C3473 C 0.76011 0.73596 0.16158 0.0
C3474 C 0.74561 0.72364 0.16718 0.0
C3475 C 0.74465 0.70418 0.16541 0.0
C3476 C 0.75809 0.69693 0.15787 0.0
C3477 C 0.77252 0.70914 0.15209 0.0
H3478 H 0.73345 0.6947 0.16983 0.0
H3479 H 0.87586 0.80782 0.11206 0.0
H3480 H 0.13487 0.03853 0.72565 0.0
H3481 H 0.12231 0.04459 0.69697 0.0
H3482 H 0.13441 0.99471 0.66599 0.0
H3483 H 0.1486 0.98984 0.6947 0.0
H3484 H 0.13738 0.01418 0.64349 0.0
H3485 H 0.08674 1.0051 0.67831 0.0
H3486 H 0.07004 0.01116 0.70514 0.0
H3487 H 0.07925 0.07012 0.7006 0.0
H3488 H 0.09609 0.06442 0.67383 0.0
H3489 H 0.09045 0.01437 0.55871 0.0
H3490 H 0.09869 0.00751 0.5881 0.0
H3491 H 0.0887 0.05964 0.61637 0.0
H3492 H 0.07721 0.06469 0.58652 0.0
H3493 H 0.08494 0.03988 0.64035 0.0
H3494 H 0.13588 0.04707 0.60431 0.0
H3495 H 0.15032 0.03859 0.57626 0.0
H3496 H 0.13831 0.97997 0.58256 0.0
H3497 H 0.12374 0.9881 0.61057 0.0
C3498 C 0.13472 0.0286 0.71281 0.0
C3499 C 0.14275 0.01341 0.71309 0.0
C3500 C 0.12717 0.032 0.69602 0.0
C3501 C 0.12642 0.01992 0.67842 0.0
C3502 C 0.13439 1.00459 0.67879 0.0
C3503 C 0.14252 1.0016 0.69554 0.0
C3504 C 0.11814 0.02349 0.65986 0.0
C3505 C 0.12573 0.01953 0.64308 0.0
C3506 C 0.10301 0.03096 0.65824 0.0
C3507 C 0.0928 0.03437 0.6742 0.0
C3508 C 0.08525 0.01936 0.68309 0.0
C3509 C 0.07575 0.02273 0.69827 0.0
C3510 C 0.07363 0.04102 0.7046 0.0
C3511 C 0.08092 0.05596 0.6957 0.0
C3512 C 0.09042 0.05267 0.68051 0.0
C3513 C 0.0895 0.02448 0.57093 0.0
C3514 C 0.08327 0.04072 0.56918 0.0
C3515 C 0.09498 0.0207 0.58828 0.0
C3516 C 0.09597 0.03358 0.60532 0.0
C3517 C 0.08893 0.04939 0.6039 0.0
C3518 C 0.08245 0.0526 0.58639 0.0
C3519 C 0.10413 0.0304 0.62409 0.0
C3520 C 0.09658 0.03451 0.64087 0.0
C3521 C 0.11915 0.02278 0.6257 0.0
C3522 C 0.12871 0.01819 0.60947 0.0
C3523 C 0.13641 0.03241 0.59974 0.0
C3524 C 0.14457 0.02765 0.58383 0.0
C3525 C 0.14521 0.00875 0.57763 0.0
C3526 C 0.13782 0.9946 0.58739 0.0
C3527 C 0.12967 0.99928 0.60331 0.0
H3528 H 0.15145 1.00508 0.56526 0.0
H3529 H 0.0663 0.04361 0.71637 0.0
H3530 H 0.80156 0.36086 0.46687 0.0
H3531 H 0.80678 0.34471 0.4365 0.0
H3532 H 0.82863 0.3997 0.42221 0.0
H3533 H 0.82225 0.41575 0.45206 0.0
H3534 H 0.81103 0.37816 0.39401 0.0
H3535 H 0.85602 0.37102 0.43494 0.0
H3536 H 0.87064 0.36379 0.46233 0.0
H3537 H 0.84071 0.30481 0.44667 0.0
H3538 H 0.8258 0.31172 0.41925 0.0
H3539 H 0.84222 0.33238 0.316 0.0
H3540 H 0.84575 0.34964 0.34799 0.0
H3541 H 0.80607 0.30332 0.36168 0.0
H3542 H 0.8027 0.28553 0.32958 0.0
H3543 H 0.83774 0.32333 0.38992 0.0
H3544 H 0.78793 0.3393 0.35329 0.0
H3545 H 0.7767 0.35058 0.32655 0.0
H3546 H 0.82392 0.39712 0.33415 0.0
H3547 H 0.83502 0.38651 0.36146 0.0
C3548 C 0.80704 0.36938 0.45698 0.0
C3549 C 0.81132 0.38941 0.46151 0.0
C3550 C 0.81036 0.36022 0.43984 0.0
C3551 C 0.81863 0.37103 0.42737 0.0
C3552 C 0.82233 0.39109 0.43168 0.0
C3553 C 0.81851 0.40023 0.4486 0.0
C3554 C 0.82281 0.3613 0.40956 0.0
C3555 C 0.81721 0.36645 0.39325 0.0
C3556 C 0.83107 0.34614 0.40845 0.0
C3557 C 0.83969 0.34193 0.42513 0.0
C3558 C 0.85244 0.35654 0.43743 0.0
C3559 C 0.86081 0.35249 0.45293 0.0
C3560 C 0.85658 0.33386 0.45626 0.0
C3561 C 0.84397 0.31924 0.44408 0.0
C3562 C 0.83558 0.32321 0.42853 0.0
C3563 C 0.83439 0.32565 0.32583 0.0
C3564 C 0.82153 0.30798 0.32014 0.0
C3565 C 0.8365 0.33555 0.34408 0.0
C3566 C 0.82583 0.32787 0.35684 0.0
C3567 C 0.81423 0.30944 0.35177 0.0
C3568 C 0.81219 0.29941 0.33344 0.0
C3569 C 0.82543 0.33994 0.37481 0.0
C3570 C 0.83181 0.33525 0.39099 0.0
C3571 C 0.81866 0.35608 0.3759 0.0
C3572 C 0.81232 0.36204 0.35919 0.0
C3573 C 0.79591 0.35187 0.34916 0.0
C3574 C 0.78956 0.3582 0.33396 0.0
C3575 C 0.79969 0.37443 0.32848 0.0
C3576 C 0.81612 0.38451 0.33835 0.0
C3577 C 0.82237 0.37845 0.35377 0.0
H3578 H 0.7948 0.37929 0.31668 0.0
H3579 H 0.86309 0.33075 0.46826 0.0
H3580 H 0.41497 0.04321 0.23723 0.0
H3581 H 0.42805 0.03571 0.20813 0.0
H3582 H 0.48034 0.06131 0.23747 0.0
H3583 H 0.46762 0.06941 0.26594 0.0
H3584 H 0.47559 0.07578 0.20784 0.0
H3585 H 0.46433 0.01308 0.22406 0.0
H3586 H 0.44661 0.98241 0.2301 0.0
H3587 H 0.41779 0.9697 0.17586 0.0
H3588 H 0.43525 1.0004 0.16957 0.0
H3589 H 0.54194 0.04266 0.16323 0.0
H3590 H 0.51995 0.04992 0.18353 0.0
H3591 H 0.47881 0.02736 0.13753 0.0
H3592 H 0.5006 0.01946 0.11726 0.0
H3593 H 0.4719 0.01197 0.16944 0.0
H3594 H 0.4819 0.08066 0.15858 0.0
H3595 H 0.50036 0.11275 0.15686 0.0
H3596 H 0.53484 0.11241 0.20427 0.0
H3597 H 0.516 0.08078 0.20683 0.0
C3598 C 0.42923 0.04743 0.23729 0.0
C3599 C 0.44026 0.05737 0.25366 0.0
C3600 C 0.43664 0.0429 0.22081 0.0
C3601 C 0.45509 0.04804 0.22078 0.0
C3602 C 0.46604 0.05745 0.23724 0.0
C3603 C 0.45872 0.06225 0.25346 0.0
C3604 C 0.46345 0.04539 0.20356 0.0
C3605 C 0.47469 0.06179 0.1994 0.0
C3606 C 0.4619 0.02721 0.19234 0.0
C3607 C 0.45085 0.00922 0.19649 0.0
C3608 C 0.45401 1.0039 0.21355 0.0
C3609 C 0.44408 0.98646 0.21698 0.0
C3610 C 0.43102 0.97416 0.20342 0.0
C3611 C 0.42786 0.97927 0.18639 0.0
C3612 C 0.43776 0.99669 0.18288 0.0
C3613 C 0.52821 0.0392 0.1575 0.0
C3614 C 0.52293 0.03043 0.13878 0.0
C3615 C 0.51575 0.04368 0.16897 0.0
C3616 C 0.49791 0.03954 0.16183 0.0
C3617 C 0.49259 0.03088 0.14313 0.0
C3618 C 0.50503 0.02637 0.13165 0.0
C3619 C 0.48465 0.04228 0.1745 0.0
C3620 C 0.47234 0.02595 0.17761 0.0
C3621 C 0.48555 0.06042 0.18526 0.0
C3622 C 0.49787 0.07825 0.18257 0.0
C3623 C 0.49357 0.08736 0.16845 0.0
C3624 C 0.50395 0.10555 0.16749 0.0
C3625 C 0.51893 0.11448 0.18024 0.0
C3626 C 0.52336 0.1054 0.19425 0.0
C3627 C 0.51275 0.08743 0.19557 0.0
H3628 H 0.52702 0.1285 0.17936 0.0
H3629 H 0.42339 0.96064 0.20607 0.0
H3630 H 0.81524 0.75758 0.96929 0.0
H3631 H 0.81825 0.76653 0.93896 0.0
H3632 H 0.80397 0.70669 0.91236 0.0
H3633 H 0.80277 0.6979 0.94293 0.0
H3634 H 0.8246 0.72279 0.89253 0.0
H3635 H 0.77348 0.73997 0.91703 0.0
H3636 H 0.75764 0.7562 0.94 0.0
H3637 H 0.79156 0.81088 0.93636 0.0
H3638 H 0.80767 0.79496 0.91349 0.0
H3639 H 0.79606 0.7388 0.80329 0.0
H3640 H 0.79771 0.72897 0.83329 0.0
H3641 H 0.81902 0.78804 0.86083 0.0
H3642 H 0.81587 0.79778 0.83155 0.0
H3643 H 0.79507 0.77192 0.87944 0.0
H3644 H 0.84527 0.75416 0.85355 0.0
H3645 H 0.85869 0.73766 0.82833 0.0
H3646 H 0.8243 0.68351 0.8327 0.0
H3647 H 0.81057 0.69971 0.85788 0.0
C3648 C 0.813 0.74637 0.95696 0.0
C3649 C 0.8087 0.72704 0.9585 0.0
C3650 C 0.81447 0.75147 0.9395 0.0
C3651 C 0.81065 0.73735 0.92298 0.0
C3652 C 0.8069 0.718 0.92466 0.0
C3653 C 0.80616 0.71293 0.94219 0.0
C3654 C 0.81003 0.74263 0.90409 0.0
C3655 C 0.81794 0.7334 0.88973 0.0
C3656 C 0.80162 0.75668 0.90007 0.0
C3657 C 0.79186 0.76626 0.9137 0.0
C3658 C 0.77758 0.75545 0.9212 0.0
C3659 C 0.76856 0.76459 0.93419 0.0
C3660 C 0.77362 0.78455 0.93967 0.0
C3661 C 0.78767 0.79542 0.93212 0.0
C3662 C 0.79673 0.78635 0.91913 0.0
C3663 C 0.80126 0.74971 0.8157 0.0
C3664 C 0.80648 0.76924 0.81463 0.0
C3665 C 0.8023 0.74403 0.83291 0.0
C3666 C 0.80885 0.7577 0.84947 0.0
C3667 C 0.81408 0.7771 0.84837 0.0
C3668 C 0.81269 0.78274 0.83132 0.0
C3669 C 0.80963 0.75216 0.86809 0.0
C3670 C 0.80174 0.76134 0.88235 0.0
C3671 C 0.8179 0.73801 0.87189 0.0
C3672 C 0.82687 0.72815 0.85757 0.0
C3673 C 0.8406 0.73872 0.84917 0.0
C3674 C 0.84825 0.72943 0.83486 0.0
C3675 C 0.84235 0.70955 0.82891 0.0
C3676 C 0.82888 0.6989 0.83735 0.0
C3677 C 0.82119 0.70813 0.85168 0.0
H3678 H 0.84821 0.70239 0.81777 0.0
H3679 H 0.76663 0.79159 0.94975 0.0
H3680 H 0.84874 0.15037 0.02237 0.0
H3681 H 0.87751 0.1432 0.02472 0.0
H3682 H 0.85105 0.08282 0.01627 0.0
H3683 H 0.82236 0.08997 0.01467 0.0
H3684 H 0.87604 0.09367 0.04515 0.0
H3685 H 0.8709 0.10461 0.98109 0.0
H3686 H 0.86775 0.12498 0.95855 0.0
H3687 H 0.91465 0.16753 0.98581 0.0
H3688 H 0.91798 0.14745 0.0086 0.0
H3689 H 0.9248 0.0342 0.00587 0.0
H3690 H 0.90491 0.054 0.01497 0.0
H3691 H 0.94807 0.10509 0.02064 0.0
H3692 H 0.96785 0.08537 0.01041 0.0
H3693 H 0.92056 0.10805 1.00098 0.0
H3694 H 0.92931 0.09266 0.06018 0.0
H3695 H 0.9321 0.07254 0.08304 0.0
H3696 H 0.87859 0.03862 0.06569 0.0
H3697 H 0.8755 0.05843 0.04266 0.0
C3698 C 0.84914 0.13557 0.02078 0.0
C3699 C 0.83347 0.12066 0.01834 0.0
C3700 C 0.86552 0.13153 0.02218 0.0
C3701 C 0.8663 0.11252 0.0207 0.0
C3702 C 0.85063 0.09761 0.01765 0.0
C3703 C 0.83431 0.10166 0.0166 0.0
C3704 C 0.88334 0.10781 0.02245 0.0
C3705 C 0.88583 0.09677 0.03552 0.0
C3706 C 0.89644 0.11281 0.01053 0.0
C3707 C 0.89459 0.12464 0.99661 0.0
C3708 C 0.88049 0.11834 0.9823 0.0
C3709 C 0.87868 0.12983 0.96949 0.0
C3710 C 0.89096 0.14756 0.97078 0.0
C3711 C 0.90513 0.1538 0.98484 0.0
C3712 C 0.907 0.14237 0.99769 0.0
C3713 C 0.93003 0.04964 0.00895 0.0
C3714 C 0.94783 0.05822 0.00737 0.0
C3715 C 0.91876 0.06093 0.01452 0.0
C3716 C 0.92517 0.08098 0.0189 0.0
C3717 C 0.94298 0.08962 0.01755 0.0
C3718 C 0.95423 0.07833 0.01177 0.0
C3719 C 0.91266 0.0927 0.02283 0.0
C3720 C 0.91111 0.10532 0.01101 0.0
C3721 C 0.90039 0.08912 0.0359 0.0
C3722 C 0.9022 0.07705 0.04967 0.0
C3723 C 0.91817 0.08084 0.06117 0.0
C3724 C 0.91979 0.06951 0.07418 0.0
C3725 C 0.90553 0.05431 0.07581 0.0
C3726 C 0.88961 0.05042 0.06444 0.0
C3727 C 0.8879 0.06174 0.05145 0.0
H3728 H 0.90682 0.04555 0.08588 0.0
H3729 H 0.88952 0.15644 0.96087 0.0
H3730 H 0.37806 0.40804 0.04475 0.0
H3731 H 0.40912 0.42628 0.04635 0.0
H3732 H 0.39241 0.47287 0.02975 0.0
H3733 H 0.3612 0.45495 0.0288 0.0
H3734 H 0.42097 0.45791 0.00895 0.0
H3735 H 0.40622 0.48145 0.07025 0.0
H3736 H 0.39538 0.4782 0.10058 0.0
H3737 H 0.43534 0.45021 0.11266 0.0
H3738 H 0.44621 0.45297 0.08222 0.0
H3739 H 0.50128 0.53324 0.02687 0.0
H3740 H 0.47056 0.51507 0.02759 0.0
H3741 H 0.4892 0.47268 0.05037 0.0
H3742 H 0.52005 0.49068 0.04918 0.0
H3743 H 0.46 0.48449 0.06835 0.0
H3744 H 0.47537 0.45989 0.00987 0.0
H3745 H 0.48731 0.46036 0.9797 0.0
H3746 H 0.44734 0.48581 0.9618 0.0
H3747 H 0.43541 0.48597 0.99211 0.0
C3748 C 0.38096 0.42221 0.04149 0.0
C3749 C 0.36708 0.43001 0.03663 0.0
C3750 C 0.39876 0.43264 0.04245 0.0
C3751 C 0.40319 0.45097 0.03814 0.0
C3752 C 0.38937 0.45876 0.03313 0.0
C3753 C 0.37152 0.44853 0.03267 0.0
C3754 C 0.42221 0.46184 0.03873 0.0
C3755 C 0.42941 0.46401 0.02195 0.0
C3756 C 0.43353 0.46905 0.05563 0.0
C3757 C 0.42687 0.46719 0.07384 0.0
C3758 C 0.41254 0.47437 0.07926 0.0
C3759 C 0.40643 0.47267 0.0965 0.0
C3760 C 0.41462 0.46394 0.10852 0.0
C3761 C 0.42897 0.45692 0.10332 0.0
C3762 C 0.43511 0.45855 0.08607 0.0
C3763 C 0.49885 0.5203 0.03245 0.0
C3764 C 0.51309 0.51366 0.03842 0.0
C3765 C 0.48126 0.50979 0.03266 0.0
C3766 C 0.47747 0.49249 0.0391 0.0
C3767 C 0.49172 0.48602 0.04546 0.0
C3768 C 0.50934 0.49632 0.0448 0.0
C3769 C 0.45865 0.48098 0.03859 0.0
C3770 C 0.45153 0.47854 0.05534 0.0
C3771 C 0.4475 0.47311 0.02164 0.0
C3772 C 0.45468 0.47326 0.00342 0.0
C3773 C 0.46928 0.46588 0.99963 0.0
C3774 C 0.47602 0.46597 0.98247 0.0
C3775 C 0.46814 0.47319 0.96887 0.0
C3776 C 0.45347 0.4803 0.97239 0.0
C3777 C 0.44673 0.48032 0.98958 0.0
H3778 H 0.47335 0.47321 0.95557 0.0
H3779 H 0.40989 0.46268 0.12188 0.0
H3780 H 0.41493 0.64048 0.78205 0.0
H3781 H 0.40226 0.66763 0.78153 0.0
H3782 H 0.36506 0.63431 0.73483 0.0
H3783 H 0.37845 0.60753 0.73479 0.0
H3784 H 0.37095 0.66697 0.72819 0.0
H3785 H 0.35946 0.65335 0.79122 0.0
H3786 H 0.36992 0.65147 0.82301 0.0
H3787 H 0.40361 0.70879 0.83118 0.0
H3788 H 0.39343 0.71094 0.79947 0.0
H3789 H 0.31959 0.73357 0.72316 0.0
H3790 H 0.33128 0.70676 0.72651 0.0
H3791 H 0.35601 0.73663 0.78129 0.0
H3792 H 0.34133 0.76212 0.77886 0.0
H3793 H 0.35857 0.70691 0.78483 0.0
H3794 H 0.3761 0.72441 0.72872 0.0
H3795 H 0.37342 0.73202 0.69752 0.0
H3796 H 0.33947 0.67553 0.67616 0.0
H3797 H 0.34185 0.66763 0.70727 0.0
C3798 C 0.40397 0.6387 0.77165 0.0
C3799 C 0.39796 0.62106 0.75855 0.0
C3800 C 0.39635 0.65455 0.77148 0.0
C3801 C 0.38183 0.6538 0.75847 0.0
C3802 C 0.37598 0.63615 0.7453 0.0
C3803 C 0.38376 0.62042 0.74531 0.0
C3804 C 0.37309 0.67098 0.75796 0.0
C3805 C 0.36801 0.67531 0.74074 0.0
C3806 C 0.36992 0.68364 0.77392 0.0
C3807 C 0.37577 0.68223 0.79297 0.0
C3808 C 0.36911 0.66551 0.79981 0.0
C3809 C 0.375 0.66441 0.8178 0.0
C3810 C 0.38744 0.67998 0.82909 0.0
C3811 C 0.39399 0.69673 0.82243 0.0
C3812 C 0.38815 0.6979 0.80447 0.0
C3813 C 0.32693 0.73426 0.7363 0.0
C3814 C 0.32836 0.75013 0.75098 0.0
C3815 C 0.33455 0.71884 0.73802 0.0
C3816 C 0.34599 0.71897 0.75385 0.0
C3817 C 0.3476 0.73511 0.76862 0.0
C3818 C 0.33896 0.75007 0.7673 0.0
C3819 C 0.35586 0.70265 0.75491 0.0
C3820 C 0.36123 0.6985 0.77219 0.0
C3821 C 0.36041 0.69094 0.73904 0.0
C3822 C 0.35901 0.69552 0.72033 0.0
C3823 C 0.36803 0.71365 0.71736 0.0
C3824 C 0.36656 0.718 0.69971 0.0
C3825 C 0.35624 0.70428 0.68488 0.0
C3826 C 0.34743 0.68614 0.68766 0.0
C3827 C 0.34885 0.68171 0.70529 0.0
H3828 H 0.3551 0.7077 0.67123 0.0
H3829 H 0.392 0.67908 0.84299 0.0
H3830 H 0.23571 0.59312 0.49312 0.0
H3831 H 0.20397 0.58439 0.4977 0.0
H3832 H 0.21016 0.64083 0.53069 0.0
H3833 H 0.2412 0.64982 0.52566 0.0
H3834 H 0.19586 0.59516 0.54199 0.0
H3835 H 0.18993 0.64734 0.50744 0.0
H3836 H 0.1929 0.66069 0.47901 0.0
H3837 H 0.16175 0.60683 0.44644 0.0
H3838 H 0.15896 0.59305 0.4747 0.0
H3839 H 0.1039 0.61287 0.55412 0.0
H3840 H 0.13607 0.62135 0.55177 0.0
H3841 H 0.13148 0.56373 0.52269 0.0
H3842 H 0.10021 0.55545 0.52486 0.0
H3843 H 0.14505 0.60959 0.50953 0.0
H3844 H 0.15397 0.5559 0.54066 0.0
H3845 H 0.15379 0.53932 0.56696 0.0
H3846 H 0.17922 0.59285 0.60389 0.0
H3847 H 0.17925 0.60978 0.57777 0.0
C3848 C 0.23007 0.60367 0.50095 0.0
C3849 C 0.24065 0.62212 0.50883 0.0
C3850 C 0.21211 0.59876 0.50348 0.0
C3851 C 0.20493 0.61223 0.51412 0.0
C3852 C 0.21549 0.63059 0.52192 0.0
C3853 C 0.23317 0.63561 0.51907 0.0
C3854 C 0.18704 0.60669 0.51933 0.0
C3855 C 0.1847 0.59828 0.53492 0.0
C3856 C 0.17274 0.61087 0.51002 0.0
C3857 C 0.17457 0.61908 0.49309 0.0
C3858 C 0.18399 0.63826 0.49418 0.0
C3859 C 0.18557 0.64592 0.47811 0.0
C3860 C 0.17759 0.63459 0.46091 0.0
C3861 C 0.16799 0.61557 0.45975 0.0
C3862 C 0.16643 0.60782 0.47578 0.0
C3863 C 0.11001 0.60194 0.54791 0.0
C3864 C 0.09972 0.58325 0.54047 0.0
C3865 C 0.12824 0.60672 0.54665 0.0
C3866 C 0.13604 0.59287 0.5377 0.0
C3867 C 0.1258 0.57424 0.53053 0.0
C3868 C 0.10781 0.56949 0.53191 0.0
C3869 C 0.15393 0.59838 0.53245 0.0
C3870 C 0.15624 0.60666 0.51673 0.0
C3871 C 0.16815 0.5938 0.54145 0.0
C3872 C 0.16625 0.58412 0.55741 0.0
C3873 C 0.1591 0.56418 0.55447 0.0
C3874 C 0.15922 0.5547 0.56929 0.0
C3875 C 0.16665 0.56501 0.58704 0.0
C3876 C 0.17355 0.58489 0.59011 0.0
C3877 C 0.17343 0.59444 0.57533 0.0
H3878 H 0.16696 0.55761 0.59845 0.0
H3879 H 0.17878 0.64057 0.44849 0.0
H3880 H 0.73979 1.00125 0.72523 0.0
H3881 H 0.74594 0.97079 0.72755 0.0
H3882 H 0.70577 0.96059 0.7649 0.0
H3883 H 0.69948 0.99096 0.76273 0.0
H3884 H 0.74147 0.96351 0.77869 0.0
H3885 H 0.69818 0.93096 0.72605 0.0
H3886 H 0.68495 0.92795 0.69404 0.0
H3887 H 0.73382 0.92271 0.67316 0.0
H3888 H 0.74741 0.92591 0.7051 0.0
H3889 H 0.75664 0.88404 0.80262 0.0
H3890 H 0.73823 0.90006 0.78685 0.0
H3891 H 0.77554 0.90841 0.7463 0.0
H3892 H 0.79385 0.89197 0.76189 0.0
H3893 H 0.73972 0.90492 0.73215 0.0
H3894 H 0.78429 0.94104 0.78162 0.0
H3895 H 0.8014 0.94988 0.81257 0.0
H3896 H 0.7544 0.954 0.83825 0.0
H3897 H 0.73694 0.94485 0.80743 0.0
C3898 C 0.7321 0.99237 0.73372 0.0
C3899 C 0.71941 0.99851 0.74409 0.0
C3900 C 0.73546 0.97495 0.73481 0.0
C3901 C 0.72615 0.96361 0.74625 0.0
C3902 C 0.71289 0.96925 0.75589 0.0
C3903 C 0.70946 0.98661 0.75475 0.0
C3904 C 0.73242 0.94776 0.75074 0.0
C3905 C 0.74067 0.95043 0.76871 0.0
C3906 C 0.73216 0.93145 0.73723 0.0
C3907 C 0.72381 0.92868 0.71796 0.0
C3908 C 0.70611 0.92918 0.71463 0.0
C3909 C 0.69855 0.92745 0.6965 0.0
C3910 C 0.70854 0.92514 0.68157 0.0
C3911 C 0.72609 0.92447 0.68474 0.0
C3912 C 0.73372 0.92618 0.70284 0.0
C3913 C 0.76051 0.88868 0.78994 0.0
C3914 C 0.77665 0.88719 0.78351 0.0
C3915 C 0.75001 0.89769 0.78093 0.0
C3916 C 0.75579 0.90559 0.76568 0.0
C3917 C 0.77094 0.9023 0.75805 0.0
C3918 C 0.78138 0.89306 0.76697 0.0
C3919 C 0.74817 0.92035 0.7604 0.0
C3920 C 0.74006 0.91773 0.74226 0.0
C3921 C 0.74895 0.93715 0.77362 0.0
C3922 C 0.75925 0.9419 0.79224 0.0
C3923 C 0.77754 0.94351 0.79388 0.0
C3924 C 0.78732 0.94866 0.8114 0.0
C3925 C 0.77898 0.95241 0.82738 0.0
C3926 C 0.76083 0.95101 0.82587 0.0
C3927 C 0.75099 0.94582 0.80838 0.0
H3928 H 0.78658 0.95647 0.84092 0.0
H3929 H 0.70268 0.92386 0.66755 0.0
H3930 H 0.78449 0.95717 0.53337 0.0
H3931 H 0.75833 0.96924 0.53074 0.0
H3932 H 0.72565 0.91622 0.54105 0.0
H3933 H 0.75184 0.9036 0.54216 0.0
H3934 H 0.70681 0.92775 0.51857 0.0
H3935 H 0.74026 0.95975 0.57646 0.0
H3936 H 0.76707 0.97762 0.59775 0.0
H3937 H 0.7735 0.0245 0.56919 0.0
H3938 H 0.74681 0.00685 0.54763 0.0
H3939 H 0.63962 0.98001 0.52491 0.0
H3940 H 0.65962 0.96154 0.53409 0.0
H3941 H 0.70438 1.00487 0.5238 0.0
H3942 H 0.6849 0.02384 0.51629 0.0
H3943 H 0.71336 0.99413 0.55256 0.0
H3944 H 0.68009 0.95684 0.49165 0.0
H3945 H 0.65217 0.93764 0.47277 0.0
H3946 H 0.64364 0.89951 0.51117 0.0
H3947 H 0.67143 0.91856 0.53031 0.0
C3948 C 0.77167 0.94803 0.53482 0.0
C3949 C 0.77015 0.9295 0.53797 0.0
C3950 C 0.7567 0.95499 0.53355 0.0
C3951 C 0.73994 0.94397 0.53635 0.0
C3952 C 0.73835 0.92514 0.53896 0.0
C3953 C 0.75331 0.91793 0.53962 0.0
C3954 C 0.72439 0.9524 0.53689 0.0
C3955 C 0.70823 0.94219 0.52619 0.0
C3956 C 0.72579 0.97106 0.54717 0.0
C3957 C 0.74158 0.98195 0.5604 0.0
C3958 C 0.74741 0.97386 0.57471 0.0
C3959 C 0.76259 0.98395 0.58682 0.0
C3960 C 0.77199 1.00218 0.58481 0.0
C3961 C 0.76619 0.01039 0.57074 0.0
C3962 C 0.75101 1.00038 0.55861 0.0
C3963 C 0.65376 0.98573 0.52495 0.0
C3964 C 0.66054 1.0033 0.51943 0.0
C3965 C 0.6652 0.97499 0.52993 0.0
C3966 C 0.68361 0.98145 0.52918 0.0
C3967 C 0.6903 0.99933 0.52439 0.0
C3968 C 0.67903 0.01013 0.51983 0.0
C3969 C 0.69633 0.9701 0.53311 0.0
C3970 C 0.71192 0.97965 0.54498 0.0
C3971 C 0.69419 0.95075 0.52423 0.0
C3972 C 0.67773 0.93919 0.51245 0.0
C3973 C 0.67223 0.94438 0.49605 0.0
C3974 C 0.65644 0.93353 0.48532 0.0
C3975 C 0.64612 0.91739 0.49079 0.0
C3976 C 0.65163 0.91201 0.50695 0.0
C3977 C 0.6674 0.92282 0.51773 0.0
H3978 H 0.63389 0.90903 0.48248 0.0
H3979 H 0.78376 0.00994 0.59416 0.0
H3980 H 0.38144 0.5172 0.77729 0.0
H3981 H 0.36628 0.48309 0.77591 0.0
H3982 H 0.41012 0.46664 0.75172 0.0
H3983 H 0.42541 0.50045 0.75367 0.0
H3984 H 0.38024 0.44098 0.73431 0.0
H3985 H 0.40445 0.46414 0.79595 0.0
H3986 H 0.41189 0.48451 0.8273 0.0
H3987 H 0.35697 0.47019 0.83642 0.0
H3988 H 0.34915 0.44995 0.80492 0.0
H3989 H 0.3569 0.34269 0.75002 0.0
H3990 H 0.37202 0.37646 0.75042 0.0
H3991 H 0.32724 0.39344 0.77171 0.0
H3992 H 0.31217 0.35986 0.77117 0.0
H3993 H 0.35834 0.41858 0.79038 0.0
H3994 H 0.33679 0.3926 0.72529 0.0
H3995 H 0.33434 0.37019 0.69538 0.0
H3996 H 0.39074 0.38814 0.69474 0.0
H3997 H 0.39356 0.41045 0.72479 0.0
C3998 C 0.3878 0.50636 0.77146 0.0
C3999 C 0.4048 0.51206 0.76546 0.0
C4000 C 0.37911 0.48662 0.7708 0.0
C4001 C 0.38681 0.47161 0.7637 0.0
C4002 C 0.40353 0.47738 0.75723 0.0
C4003 C 0.41237 0.49701 0.75836 0.0
C4004 C 0.37781 0.45018 0.76328 0.0
C4005 C 0.37557 0.43625 0.74669 0.0
C4006 C 0.37173 0.44317 0.77924 0.0
C4007 C 0.37617 0.4558 0.79794 0.0
C4008 C 0.39391 0.46557 0.80452 0.0
C4009 C 0.39821 0.47703 0.82234 0.0
C4010 C 0.3849 0.47872 0.83381 0.0
C4011 C 0.36726 0.46893 0.82747 0.0
C4012 C 0.36288 0.45746 0.80963 0.0
C4013 C 0.35013 0.35353 0.75466 0.0
C4014 C 0.33288 0.34794 0.76015 0.0
C4015 C 0.35887 0.3731 0.75486 0.0
C4016 C 0.35097 0.38817 0.76094 0.0
C4017 C 0.33392 0.38259 0.7668 0.0
C4018 C 0.32507 0.36304 0.76626 0.0
C4019 C 0.36027 0.40949 0.76129 0.0
C4020 C 0.36274 0.42339 0.77793 0.0
C4021 C 0.36713 0.41634 0.74552 0.0
C4022 C 0.3654 0.40307 0.72738 0.0
C4023 C 0.34868 0.39167 0.71883 0.0
C4024 C 0.34722 0.379 0.70185 0.0
C4025 C 0.36238 0.37772 0.69318 0.0
C4026 C 0.37902 0.38914 0.70147 0.0
C4027 C 0.38055 0.4018 0.71848 0.0
H4028 H 0.36122 0.3679 0.68003 0.0
H4029 H 0.38826 0.48756 0.84764 0.0
H4030 H 0.24489 0.5966 0.25808 0.0
H4031 H 0.25677 0.62861 0.25276 0.0
H4032 H 0.21267 0.64602 0.27594 0.0
H4033 H 0.19992 0.61324 0.2803 0.0
H4034 H 0.22008 0.65855 0.24389 0.0
H4035 H 0.25277 0.65859 0.30176 0.0
H4036 H 0.27034 0.64496 0.32186 0.0
H4037 H 0.31037 0.6486 0.2843 0.0
H4038 H 0.29295 0.6621 0.26389 0.0
H4039 H 0.257 0.75719 0.27011 0.0
H4040 H 0.2422 0.72325 0.2612 0.0
H4041 H 0.29182 0.71179 0.24716 0.0
H4042 H 0.30701 0.74559 0.25921 0.0
H4043 H 0.28123 0.69446 0.27102 0.0
H4044 H 0.24798 0.6947 0.21259 0.0
H4045 H 0.22933 0.70715 0.19225 0.0
H4046 H 0.19033 0.70377 0.23091 0.0
H4047 H 0.2086 0.69108 0.25126 0.0
C4048 C 0.23789 0.6073 0.26249 0.0
C4049 C 0.22166 0.60268 0.26989 0.0
C4050 C 0.24462 0.6255 0.25927 0.0
C4051 C 0.23563 0.63951 0.26418 0.0
C4052 C 0.21967 0.63519 0.2721 0.0
C4053 C 0.21261 0.61671 0.27484 0.0
C4054 C 0.24328 0.65877 0.26124 0.0
C4055 C 0.23342 0.66661 0.24983 0.0
C4056 C 0.26077 0.66875 0.26867 0.0
C4057 C 0.27153 0.66126 0.28128 0.0
C4058 C 0.26531 0.65646 0.29779 0.0
C4059 C 0.27524 0.64875 0.30923 0.0
C4060 C 0.29145 0.64589 0.30435 0.0
C4061 C 0.29782 0.65083 0.28807 0.0
C4062 C 0.28795 0.65855 0.27659 0.0
C4063 C 0.26457 0.74729 0.26489 0.0
C4064 C 0.28292 0.75358 0.2649 0.0
C4065 C 0.25605 0.728 0.25922 0.0
C4066 C 0.26579 0.71494 0.25303 0.0
C4067 C 0.28404 0.72166 0.25178 0.0
C4068 C 0.29272 0.74081 0.2586 0.0
C4069 C 0.25828 0.69463 0.25322 0.0
C4070 C 0.26809 0.68647 0.26444 0.0
C4071 C 0.24073 0.68452 0.24566 0.0
C4072 C 0.22976 0.69219 0.23349 0.0
C4073 C 0.23549 0.69677 0.21676 0.0
C4074 C 0.22494 0.70374 0.20521 0.0
C4075 C 0.20874 0.70638 0.21036 0.0
C4076 C 0.20291 0.70178 0.22695 0.0
C4077 C 0.21329 0.69457 0.23842 0.0
H4078 H 0.20066 0.71191 0.20146 0.0
H4079 H 0.2991 0.63986 0.31319 0.0
H4080 H 0.51465 0.70901 0.45225 0.0
H4081 H 0.51722 0.68113 0.46504 0.0
H4082 H 0.56876 0.71302 0.49289 0.0
H4083 H 0.56635 0.74075 0.47992 0.0
H4084 H 0.57065 0.67893 0.47766 0.0
H4085 H 0.52901 0.7011 0.51574 0.0
H4086 H 0.50144 0.71029 0.52192 0.0
H4087 H 0.47064 0.65421 0.49405 0.0
H4088 H 0.49802 0.64477 0.48746 0.0
H4089 H 0.56745 0.60579 0.53928 0.0
H4090 H 0.56577 0.63706 0.53238 0.0
H4091 H 0.53661 0.60829 0.47928 0.0
H4092 H 0.5402 0.57804 0.48479 0.0
H4093 H 0.52449 0.64194 0.51 0.0
H4094 H 0.56395 0.62254 0.4658 0.0
H4095 H 0.59037 0.61229 0.45689 0.0
H4096 H 0.62381 0.66232 0.4935 0.0
H4097 H 0.59746 0.67251 0.50312 0.0
C4098 C 0.52648 0.71019 0.46123 0.0
C4099 C 0.54025 0.72735 0.46502 0.0
C4100 C 0.52793 0.69415 0.46867 0.0
C4101 C 0.54314 0.69475 0.48026 0.0
C4102 C 0.55684 0.71193 0.48409 0.0
C4103 C 0.5554 0.72793 0.47667 0.0
C4104 C 0.54521 0.67741 0.48778 0.0
C4105 C 0.56062 0.67117 0.48504 0.0
C4106 C 0.53206 0.66661 0.49705 0.0
C4107 C 0.51559 0.67229 0.50097 0.0
C4108 C 0.51636 0.69078 0.5108 0.0
C4109 C 0.50077 0.69602 0.5144 0.0
C4110 C 0.4843 0.68286 0.50835 0.0
C4111 C 0.4834 0.6644 0.49871 0.0
C4112 C 0.49896 0.6591 0.49505 0.0
C4113 C 0.56133 0.6062 0.52588 0.0
C4114 C 0.55483 0.58916 0.51235 0.0
C4115 C 0.56005 0.62411 0.52204 0.0
C4116 C 0.55131 0.6252 0.50505 0.0
C4117 C 0.54377 0.60809 0.49227 0.0
C4118 C 0.54587 0.59061 0.4956 0.0
C4119 C 0.54997 0.64384 0.50006 0.0
C4120 C 0.53463 0.6501 0.50303 0.0
C4121 C 0.56295 0.65448 0.49066 0.0
C4122 C 0.57873 0.64799 0.48558 0.0
C4123 C 0.5769 0.63109 0.47233 0.0
C4124 C 0.59187 0.62538 0.46701 0.0
C4125 C 0.60877 0.63664 0.47464 0.0
C4126 C 0.61071 0.65359 0.48765 0.0
C4127 C 0.59576 0.65929 0.4931 0.0
H4128 H 0.62035 0.63221 0.47048 0.0
H4129 H 0.47225 0.68694 0.51116 0.0
H4130 H 0.63267 0.31376 0.67481 0.0
H4131 H 0.65967 0.31217 0.69206 0.0
H4132 H 0.69 0.33004 0.64842 0.0
H4133 H 0.66288 0.33143 0.63089 0.0
H4134 H 0.70091 0.30141 0.66023 0.0
H4135 H 0.69205 0.3613 0.69131 0.0
H4136 H 0.67429 0.38161 0.70672 0.0
H4137 H 0.66558 0.34749 0.7486 0.0
H4138 H 0.68319 0.32689 0.73334 0.0
H4139 H 0.78586 0.32105 0.71404 0.0
H4140 H 0.75986 0.32406 0.69559 0.0
H4141 H 0.72669 0.30501 0.73678 0.0
H4142 H 0.75225 0.30091 0.75447 0.0
H4143 H 0.71782 0.33528 0.72596 0.0
H4144 H 0.72479 0.2753 0.69633 0.0
H4145 H 0.74053 0.25251 0.68148 0.0
H4146 H 0.75112 0.28383 0.63781 0.0
H4147 H 0.73537 0.307 0.65239 0.0
C4148 C 0.64507 0.31759 0.66888 0.0
C4149 C 0.64538 0.32296 0.6514 0.0
C4150 C 0.66064 0.31666 0.67885 0.0
C4151 C 0.67721 0.32116 0.67182 0.0
C4152 C 0.67757 0.32649 0.65434 0.0
C4153 C 0.66196 0.32746 0.64434 0.0
C4154 C 0.69398 0.32034 0.68275 0.0
C4155 C 0.70474 0.30915 0.67447 0.0
C4156 C 0.69899 0.32983 0.70163 0.0
C4157 C 0.68886 0.34252 0.71115 0.0
C4158 C 0.68632 0.35812 0.70379 0.0
C4159 C 0.67628 0.36968 0.71249 0.0
C4160 C 0.66879 0.36583 0.72861 0.0
C4161 C 0.6714 0.35046 0.73612 0.0
C4162 C 0.68145 0.33887 0.72748 0.0
C4163 C 0.77307 0.31763 0.71926 0.0
C4164 C 0.77154 0.31163 0.7364 0.0
C4165 C 0.7581 0.31932 0.70863 0.0
C4166 C 0.74108 0.31502 0.71475 0.0
C4167 C 0.73956 0.30888 0.73177 0.0
C4168 C 0.75442 0.30692 0.7422 0.0
C4169 C 0.72485 0.3165 0.7034 0.0
C4170 C 0.71414 0.32773 0.71163 0.0
C4171 C 0.71978 0.30684 0.68458 0.0
C4172 C 0.72915 0.29305 0.67561 0.0
C4173 C 0.73061 0.27747 0.68365 0.0
C4174 C 0.73951 0.2645 0.67528 0.0
C4175 C 0.74698 0.26691 0.65883 0.0
C4176 C 0.74541 0.28219 0.65062 0.0
C4177 C 0.73646 0.2952 0.6589 0.0
H4178 H 0.75388 0.25686 0.65237 0.0
H4179 H 0.66098 0.37476 0.7353 0.0
H4180 H 0.03322 0.33095 0.99332 0.0
H4181 H 0.039 0.36524 0.00653 0.0
H4182 H 0.02692 0.37563 0.95191 0.0
H4183 H 0.02304 0.34172 0.93865 0.0
H4184 H 0.05063 0.40359 0.96682 0.0
H4185 H 0.9974 0.37277 0.99427 0.0
H4186 H 0.98206 0.35063 0.0133 0.0
H4187 H 0.02123 0.37887 0.05977 0.0
H4188 H 0.03684 0.40107 0.04098 0.0
H4189 H 0.03559 0.49351 0.98692 0.0
H4190 H 0.02991 0.4587 0.97923 0.0
H4191 H 0.04769 0.45866 0.03583 0.0
H4192 H 0.05221 0.49366 0.04381 0.0
H4193 H 0.02394 0.4263 0.02304 0.0
H4194 H 0.07575 0.45783 0.99911 0.0
H4195 H 0.09319 0.48095 0.98232 0.0
H4196 H 0.06007 0.45194 0.93157 0.0
H4197 H 0.04228 0.42879 0.94813 0.0
C4198 C 0.03197 0.34064 0.98416 0.0
C4199 C 0.02772 0.33358 0.96491 0.0
C4200 C 0.035 0.36035 0.99177 0.0
C4201 C 0.03286 0.37346 0.9805 0.0
C4202 C 0.02871 0.36621 0.96118 0.0
C4203 C 0.02643 0.34669 0.95351 0.0
C4204 C 0.03507 0.3946 0.9884 0.0
C4205 C 0.04445 0.40834 0.97894 0.0
C4206 C 0.02802 0.4015 0.00488 0.0
C4207 C 0.01832 0.38846 0.0162 0.0
C4208 C 1.00272 0.37423 0.00854 0.0
C4209 C 0.99399 0.36167 0.01928 0.0
C4210 C 1.00069 0.36332 0.03771 0.0
C4211 C 0.01606 0.3776 0.04549 0.0
C4212 C 0.02483 0.39019 0.03482 0.0
C4213 C 0.03776 0.48601 0.99787 0.0
C4214 C 0.04414 0.49636 0.01601 0.0
C4215 C 0.03477 0.46605 0.99341 0.0
C4216 C 0.03899 0.45583 0.00669 0.0
C4217 C 0.04445 0.46602 0.02516 0.0
C4218 C 0.04694 0.48608 0.02979 0.0
C4219 C 0.03866 0.43492 1.00086 0.0
C4220 C 0.0299 0.42139 0.01081 0.0
C4221 C 0.04657 0.42818 0.98504 0.0
C4222 C 0.05763 0.44163 0.97488 0.0
C4223 C 0.07218 0.45639 0.98437 0.0
C4224 C 0.08212 0.46952 0.9749 0.0
C4225 C 0.07773 0.46792 0.95589 0.0
C4226 C 0.06346 0.45315 0.9463 0.0
C4227 C 0.05346 0.44 0.95571 0.0
H4228 H 0.08541 0.47813 0.94859 0.0
H4229 H 0.99394 0.35355 0.04598 0.0
H4230 H 0.02213 0.81192 0.12449 0.0
H4231 H 0.99344 0.80795 0.13703 0.0
H4232 H 0.01916 0.81115 0.1915 0.0
H4233 H 0.04741 0.81352 0.1786 0.0
H4234 H 0.99212 0.78444 0.18705 0.0
H4235 H 1.00037 0.84884 0.17376 0.0
H4236 H 0.00451 0.87209 0.15298 0.0
H4237 H 0.95637 0.83916 0.11917 0.0
H4238 H 0.95206 0.81562 0.13963 0.0
H4239 H 0.93377 0.80504 0.24919 0.0
H4240 H 0.95723 0.8106 0.22898 0.0
H4241 H 0.91872 0.78778 0.18077 0.0
H4242 H 0.89488 0.7819 0.20119 0.0
H4243 H 0.94835 0.821 0.17734 0.0
H4244 H 0.93871 0.7586 0.1913 0.0
H4245 H 0.93378 0.73484 0.21149 0.0
H4246 H 0.98423 0.76339 0.243 0.0
H4247 H 0.98934 0.78752 0.22317 0.0
C4248 C 0.02162 0.81199 0.13919 0.0
C4249 C 0.03704 0.81308 0.15058 0.0
C4250 C 0.00518 0.80983 0.14642 0.0
C4251 C 1.00389 0.80946 0.1654 0.0
C4252 C 0.01953 0.81122 0.17682 0.0
C4253 C 0.03578 0.81271 0.16947 0.0
C4254 C 0.98641 0.8062 0.17346 0.0
C4255 C 0.98278 0.79272 0.18503 0.0
C4256 C 0.97345 0.81609 0.17023 0.0
C4257 C 0.97598 0.8304 0.15812 0.0
C4258 C 0.99072 0.84653 0.16184 0.0
C4259 C 0.99309 0.85976 0.15013 0.0
C4260 C 0.98074 0.85708 0.13474 0.0
C4261 C 0.96595 0.84121 0.13108 0.0
C4262 C 0.96352 0.82793 0.14273 0.0
C4263 C 0.93018 0.80136 0.23429 0.0
C4264 C 0.91243 0.7927 0.22685 0.0
C4265 C 0.94365 0.80462 0.22272 0.0
C4266 C 0.93985 0.79935 0.20332 0.0
C4267 C 0.92201 0.79192 0.1957 0.0
C4268 C 0.90839 0.7886 0.20738 0.0
C4269 C 0.95484 0.80011 0.19155 0.0
C4270 C 0.95784 0.81284 0.17924 0.0
C4271 C 0.96727 0.78952 0.19398 0.0
C4272 C 0.96434 0.77494 0.20583 0.0
C4273 C 0.94869 0.75989 0.20262 0.0
C4274 C 0.94587 0.74635 0.21399 0.0
C4275 C 0.95867 0.74763 0.22854 0.0
C4276 C 0.97433 0.76243 0.23173 0.0
C4277 C 0.9772 0.77603 0.22042 0.0
H4278 H 0.95646 0.73712 0.23733 0.0
H4279 H 0.98261 0.86733 0.12568 0.0
H4280 H 0.52059 0.2912 0.09793 0.0
H4281 H 0.52839 0.3183 0.08254 0.0
H4282 H 0.52839 0.35707 0.1341 0.0
H4283 H 0.52004 0.32977 0.14959 0.0
H4284 H 0.51352 0.36746 0.10569 0.0
H4285 H 0.56731 0.3513 0.11887 0.0
H4286 H 0.58769 0.33078 0.11976 0.0
H4287 H 0.58194 0.31654 0.06011 0.0
H4288 H 0.5613 0.33672 0.05885 0.0
H4289 H 0.56364 0.44547 0.06586 0.0
H4290 H 0.55347 0.42302 0.08619 0.0
H4291 H 0.54282 0.37583 0.03919 0.0
H4292 H 0.55227 0.39814 0.01859 0.0
H4293 H 0.56524 0.37312 0.06938 0.0
H4294 H 0.50967 0.38864 0.05722 0.0
H4295 H 0.48925 0.40922 0.05747 0.0
H4296 H 0.49942 0.42583 0.11692 0.0
H4297 H 0.52016 0.40561 0.11701 0.0
C4298 C 0.52214 0.30548 0.10599 0.0
C4299 C 0.51989 0.30846 0.12498 0.0
C4300 C 0.52669 0.32094 0.0972 0.0
C4301 C 0.52942 0.33967 0.10733 0.0
C4302 C 0.5265 0.34268 0.12613 0.0
C4303 C 0.52172 0.32713 0.13493 0.0
C4304 C 0.53538 0.35598 0.0981 0.0
C4305 C 0.52502 0.36897 0.09803 0.0
C4306 C 0.55034 0.35777 0.08806 0.0
C4307 C 0.56264 0.34543 0.08878 0.0
C4308 C 0.57026 0.34366 0.10594 0.0
C4309 C 0.58188 0.33211 0.10651 0.0
C4310 C 0.58608 0.32233 0.09 0.0
C4311 C 0.57867 0.3241 0.07289 0.0
C4312 C 0.56701 0.33561 0.07224 0.0
C4313 C 0.55879 0.43034 0.05975 0.0
C4314 C 0.55877 0.42355 0.04056 0.0
C4315 C 0.55302 0.41759 0.07141 0.0
C4316 C 0.54733 0.39789 0.06409 0.0
C4317 C 0.54716 0.39106 0.045 0.0
C4318 C 0.55273 0.40379 0.03331 0.0
C4319 C 0.54301 0.38412 0.07642 0.0
C4320 C 0.55384 0.37173 0.07721 0.0
C4321 C 0.52864 0.38309 0.08726 0.0
C4322 C 0.51672 0.39585 0.08708 0.0
C4323 C 0.5078 0.39693 0.07032 0.0
C4324 C 0.4961 0.40847 0.07041 0.0
C4325 C 0.4931 0.4189 0.08719 0.0
C4326 C 0.50181 0.41781 0.10392 0.0
C4327 C 0.51354 0.40633 0.1039 0.0
H4328 H 0.48398 0.42776 0.08724 0.0
H4329 H 0.5951 0.31342 0.09047 0.0
H4330 H 0.06298 0.33429 0.3455 0.0
H4331 H 0.03368 0.33532 0.33296 0.0
H4332 H 0.012 0.3204 0.38246 0.0
H4333 H 0.04136 0.3198 0.39533 0.0
H4334 H 0.9938 0.29729 0.34529 0.0
H4335 H 0.01526 0.36175 0.38067 0.0
H4336 H 0.0372 0.39313 0.3906 0.0
H4337 H 0.03419 0.40243 0.33468 0.0
H4338 H 0.01247 0.37094 0.32433 0.0
H4339 H 0.91092 0.30418 0.30621 0.0
H4340 H 0.93597 0.30574 0.32809 0.0
H4341 H 0.97022 0.34504 0.30027 0.0
H4342 H 0.94506 0.34583 0.28034 0.0
H4343 H 0.98033 0.35651 0.3329 0.0
H4344 H 0.96557 0.29137 0.29559 0.0
H4345 H 0.94698 0.25849 0.283 0.0
H4346 H 0.93995 0.2494 0.33841 0.0
H4347 H 0.95845 0.28223 0.3513 0.0
C4348 C 0.05197 0.33128 0.35372 0.0
C4349 C 0.05437 0.32694 0.37135 0.0
C4350 C 0.03533 0.33196 0.34659 0.0
C4351 C 0.02083 0.32801 0.35688 0.0
C4352 C 0.02313 0.32355 0.37442 0.0
C4353 C 0.03985 0.32325 0.38173 0.0
C4354 C 1.00316 0.32791 0.34888 0.0
C4355 C 0.99062 0.31022 0.34278 0.0
C4356 C 0.9994 0.3448 0.34543 0.0
C4357 C 0.01231 0.36389 0.3517 0.0
C4358 C 0.01938 0.3704 0.37045 0.0
C4359 C 0.03177 0.38823 0.37617 0.0
C4360 C 0.03711 0.39975 0.36328 0.0
C4361 C 0.03005 0.39349 0.34465 0.0
C4362 C 0.01769 0.37565 0.33886 0.0
C4363 C 0.92368 0.31351 0.30496 0.0
C4364 C 0.92578 0.32475 0.2912 0.0
C4365 C 0.93815 0.31406 0.31732 0.0
C4366 C 0.9552 0.32519 0.31569 0.0
C4367 C 0.95728 0.33631 0.30195 0.0
C4368 C 0.94279 0.33639 0.29016 0.0
C4369 C 0.97102 0.32561 0.32815 0.0
C4370 C 0.98325 0.34347 0.33538 0.0
C4371 C 0.97474 0.30876 0.33215 0.0
C4372 C 0.96319 0.28929 0.32438 0.0
C4373 C 0.95993 0.28239 0.30506 0.0
C4374 C 0.94949 0.26375 0.29789 0.0
C4375 C 0.94231 0.25187 0.3099 0.0
C4376 C 0.94553 0.25861 0.32912 0.0
C4377 C 0.956 0.27721 0.33637 0.0
H4378 H 0.93423 0.23744 0.30432 0.0
H4379 H 0.0467 0.41355 0.36773 0.0
H4380 H 0.97609 0.71669 0.61814 0.0
H4381 H 0.97934 0.68715 0.59882 0.0
H4382 H 0.01574 0.68149 0.64237 0.0
H4383 H 0.01208 0.71024 0.66198 0.0
H4384 H 0.02451 0.68788 0.59897 0.0
H4385 H 0.99431 0.65023 0.64221 0.0
H4386 H 0.96923 0.6391 0.65972 0.0
H4387 H 0.93433 0.61914 0.60885 0.0
H4388 H 0.95922 0.63063 0.5911 0.0
H4389 H 0.05679 0.60553 0.58259 0.0
H4390 H 0.04557 0.6326 0.5958 0.0
H4391 H 0.99982 0.61182 0.55478 0.0
H4392 H 0.01083 0.58472 0.54152 0.0
H4393 H 0.99281 0.61919 0.59233 0.0
H4394 H 0.02834 0.64916 0.5495 0.0
H4395 H 0.0555 0.65892 0.53448 0.0
H4396 H 0.08301 0.69238 0.58672 0.0
H4397 H 0.05609 0.68258 0.60215 0.0
C4398 C 0.98418 0.70866 0.62384 0.0
C4399 C 0.99388 0.71571 0.64148 0.0
C4400 C 0.98607 0.69195 0.61281 0.0
C4401 C 0.99775 0.68242 0.61936 0.0
C4402 C 0.00649 0.68869 0.63735 0.0
C4403 C 0.00431 0.70506 0.64852 0.0
C4404 C 1.00271 0.66745 0.60677 0.0
C4405 C 0.01762 0.67282 0.59736 0.0
C4406 C 0.99352 0.64806 0.60482 0.0
C4407 C 0.97847 0.64175 0.61542 0.0
C4408 C 0.98121 0.64387 0.63482 0.0
C4409 C 0.96706 0.6374 0.64477 0.0
C4410 C 0.95016 0.62855 0.63542 0.0
C4411 C 0.9474 0.62613 0.61609 0.0
C4412 C 0.96151 0.63266 0.60608 0.0
C4413 C 0.04432 0.60669 0.57649 0.0
C4414 C 0.03463 0.59312 0.56114 0.0
C4415 C 0.03808 0.62222 0.58385 0.0
C4416 C 0.02209 0.62414 0.57596 0.0
C4417 C 0.01229 0.61051 0.5608 0.0
C4418 C 0.01856 0.59508 0.55337 0.0
C4419 C 0.01483 0.63949 0.58468 0.0
C4420 C 0.99949 0.63424 0.59342 0.0
C4421 C 0.02395 0.65896 0.58632 0.0
C4422 C 0.04017 0.66503 0.57702 0.0
C4423 C 0.0402 0.65848 0.55784 0.0
C4424 C 0.05556 0.66405 0.54923 0.0
C4425 C 0.07097 0.67625 0.55964 0.0
C4426 C 0.07105 0.68294 0.57867 0.0
C4427 C 0.05573 0.6774 0.58735 0.0
H4428 H 0.08285 0.68055 0.55296 0.0
H4429 H 0.93923 0.62346 0.64314 0.0
H4430 H 0.66353 0.83408 0.87845 0.0
H4431 H 0.68843 0.83447 0.85991 0.0
H4432 H 0.65198 0.8081 0.81051 0.0
H4433 H 0.62694 0.80794 0.82884 0.0
H4434 H 0.67733 0.78785 0.8269 0.0
H4435 H 0.67325 0.84634 0.80801 0.0
H4436 H 0.67343 0.8804 0.81311 0.0
H4437 H 0.7264 0.89643 0.84056 0.0
H4438 H 0.72641 0.86242 0.83606 0.0
H4439 H 0.74291 0.7965 0.75601 0.0
H4440 H 0.71618 0.79684 0.77183 0.0
H4441 H 0.74733 0.80836 0.82495 0.0
H4442 H 0.77376 0.80702 0.80918 0.0
H4443 H 0.72426 0.83623 0.80629 0.0
H4444 H 0.72659 0.78321 0.83576 0.0
H4445 H 0.7253 0.75125 0.84227 0.0
H4446 H 0.67748 0.72717 0.80495 0.0
H4447 H 0.67874 0.759 0.79794 0.0
C4448 C 0.66084 0.8286 0.86359 0.0
C4449 C 0.6434 0.82059 0.85505 0.0
C4450 C 0.67502 0.82918 0.85304 0.0
C4451 C 0.67185 0.82162 0.83394 0.0
C4452 C 0.65448 0.81434 0.82524 0.0
C4453 C 0.64029 0.81402 0.83572 0.0
C4454 C 0.68635 0.81718 0.82409 0.0
C4455 C 0.68743 0.79828 0.82193 0.0
C4456 C 0.69987 0.83128 0.81891 0.0
C4457 C 0.69973 0.85175 0.82188 0.0
C4458 C 0.68484 0.85707 0.81539 0.0
C4459 C 0.68493 0.8764 0.81813 0.0
C4460 C 0.69989 0.89057 0.82721 0.0
C4461 C 0.7148 0.88544 0.83357 0.0
C4462 C 0.71476 0.86613 0.83093 0.0
C4463 C 0.7438 0.79847 0.77102 0.0
C4464 C 0.76005 0.80128 0.7815 0.0
C4465 C 0.72863 0.79851 0.77999 0.0
C4466 C 0.7298 0.80195 0.79947 0.0
C4467 C 0.7461 0.80485 0.80991 0.0
C4468 C 0.76114 0.80437 0.80094 0.0
C4469 C 0.71505 0.80668 0.80874 0.0
C4470 C 0.71398 0.8257 0.81089 0.0
C4471 C 0.70186 0.79289 0.81477 0.0
C4472 C 0.70317 0.77338 0.81576 0.0
C4473 C 0.71621 0.771 0.82837 0.0
C4474 C 0.7153 0.75295 0.83242 0.0
C4475 C 0.70135 0.73716 0.82399 0.0
C4476 C 0.68832 0.73938 0.81142 0.0
C4477 C 0.68922 0.75739 0.80728 0.0
H4478 H 0.70064 0.72323 0.8272 0.0
H4479 H 0.69995 0.90552 0.82926 0.0
H4480 H 0.44802 0.57521 0.70581 0.0
H4481 H 0.46298 0.57394 0.67749 0.0
H4482 H 0.50953 0.5691 0.70807 0.0
H4483 H 0.49448 0.57022 0.73656 0.0
H4484 H 0.52021 0.59206 0.68319 0.0
H4485 H 0.47913 0.52969 0.6763 0.0
H4486 H 0.44977 0.50698 0.67494 0.0
H4487 H 0.43009 0.52887 0.63007 0.0
H4488 H 0.45927 0.55187 0.63132 0.0
H4489 H 0.56399 0.56844 0.60162 0.0
H4490 H 0.55063 0.57126 0.63078 0.0
H4491 H 0.49918 0.55921 0.60014 0.0
H4492 H 0.51252 0.55494 0.57097 0.0
H4493 H 0.49116 0.54514 0.62599 0.0
H4494 H 0.52995 0.60811 0.63237 0.0
H4495 H 0.55809 0.63279 0.63349 0.0
H4496 H 0.58064 0.61327 0.67845 0.0
H4497 H 0.55271 0.58832 0.67745 0.0
C4498 C 0.46148 0.57396 0.70675 0.0
C4499 C 0.46973 0.57286 0.72407 0.0
C4500 C 0.47014 0.57308 0.6902 0.0
C4501 C 0.48766 0.57113 0.68991 0.0
C4502 C 0.49612 0.57053 0.7073 0.0
C4503 C 0.48736 0.57117 0.72385 0.0
C4504 C 0.49686 0.5695 0.67167 0.0
C4505 C 0.51384 0.58159 0.6708 0.0
C4506 C 0.48884 0.55642 0.65478 0.0
C4507 C 0.47133 0.5426 0.65402 0.0
C4508 C 0.4685 0.52974 0.66623 0.0
C4509 C 0.4519 0.51681 0.66547 0.0
C4510 C 0.43806 0.51651 0.65246 0.0
C4511 C 0.44081 0.52913 0.64016 0.0
C4512 C 0.45738 0.5421 0.64088 0.0
C4513 C 0.54985 0.56659 0.60093 0.0
C4514 C 0.53965 0.56163 0.58335 0.0
C4515 C 0.54201 0.5684 0.61801 0.0
C4516 C 0.52349 0.56605 0.61863 0.0
C4517 C 0.51336 0.56121 0.60094 0.0
C4518 C 0.52115 0.55887 0.58389 0.0
C4519 C 0.51461 0.56791 0.6372 0.0
C4520 C 0.49764 0.55578 0.63823 0.0
C4521 C 0.52249 0.58131 0.65409 0.0
C4522 C 0.53931 0.59621 0.65468 0.0
C4523 C 0.54096 0.609 0.6424 0.0
C4524 C 0.55686 0.62305 0.64303 0.0
C4525 C 0.57116 0.62455 0.65599 0.0
C4526 C 0.56957 0.61205 0.66839 0.0
C4527 C 0.5537 0.59796 0.6678 0.0
H4528 H 0.58346 0.63544 0.65645 0.0
H4529 H 0.42522 0.50649 0.65189 0.0
H4530 H 0.81425 0.2163 0.9917 0.0
H4531 H 0.81053 0.22968 0.96401 0.0
H4532 H 0.7794 0.17391 0.93431 0.0
H4533 H 0.78438 0.16036 0.96144 0.0
H4534 H 0.79843 0.18927 0.91237 0.0
H4535 H 0.75985 0.21119 0.95372 0.0
H4536 H 0.7516 0.22629 0.98344 0.0
H4537 H 0.78886 0.27953 0.98135 0.0
H4538 H 0.79738 0.26472 0.95165 0.0
H4539 H 0.75101 0.226 0.84669 0.0
H4540 H 0.76024 0.21037 0.87082 0.0
H4541 H 0.80284 0.26104 0.89278 0.0
H4542 H 0.79369 0.27674 0.86865 0.0
H4543 H 0.77798 0.24834 0.91824 0.0
H4544 H 0.81318 0.22314 0.87302 0.0
H4545 H 0.81975 0.20469 0.8441 0.0
H4546 H 0.78413 0.15351 0.85391 0.0
H4547 H 0.77671 0.17177 0.88227 0.0
C4548 C 0.80707 0.20693 0.97902 0.0
C4549 C 0.79984 0.18737 0.97836 0.0
C4550 C 0.80467 0.21457 0.96338 0.0
C4551 C 0.79431 0.20287 0.94728 0.0
C4552 C 0.78747 0.18318 0.94657 0.0
C4553 C 0.79041 0.17543 0.96197 0.0
C4554 C 0.79067 0.21107 0.9311 0.0
C4555 C 0.79369 0.20202 0.91362 0.0
C4556 C 0.7846 0.22778 0.93281 0.0
C4557 C 0.77935 0.23681 0.95054 0.0
C4558 C 0.76633 0.2261 0.95964 0.0
C4559 C 0.76159 0.23461 0.97647 0.0
C4560 C 0.76973 0.25384 0.98429 0.0
C4561 C 0.78256 0.26463 0.97527 0.0
C4562 C 0.78732 0.25621 0.95841 0.0
C4563 C 0.76255 0.23361 0.85647 0.0
C4564 C 0.7716 0.25255 0.85599 0.0
C4565 C 0.76783 0.22468 0.87013 0.0
C4566 C 0.78215 0.23465 0.88348 0.0
C4567 C 0.79176 0.25321 0.88249 0.0
C4568 C 0.7866 0.26208 0.86871 0.0
C4569 C 0.78586 0.22654 0.89961 0.0
C4570 C 0.7827 0.23557 0.91706 0.0
C4571 C 0.79108 0.20937 0.89776 0.0
C4572 C 0.79427 0.19888 0.87969 0.0
C4573 C 0.8064 0.20806 0.86873 0.0
C4574 C 0.81029 0.19761 0.85241 0.0
C4575 C 0.80227 0.17796 0.84705 0.0
C4576 C 0.79016 0.16876 0.85784 0.0
C4577 C 0.78606 0.17916 0.87401 0.0
H4578 H 0.80563 0.16986 0.83466 0.0
H4579 H 0.76607 0.2604 0.99734 0.0
H4580 H 0.15807 0.56153 0.22219 0.0
H4581 H 0.13864 0.56265 0.19546 0.0
H4582 H 0.15923 0.52096 0.16083 0.0
H4583 H 0.17943 0.5206 0.1876 0.0
H4584 H 0.15339 0.54869 0.14306 0.0
H4585 H 0.12167 0.50638 0.18072 0.0
H4586 H 0.11115 0.49843 0.21001 0.0
H4587 H 0.08437 0.54303 0.21514 0.0
H4588 H 0.09491 0.55136 0.18598 0.0
H4589 H 0.08509 0.51266 0.07163 0.0
H4590 H 0.10464 0.51341 0.09907 0.0
H4591 H 0.08248 0.55519 0.13138 0.0
H4592 H 0.06276 0.55417 0.10397 0.0
H4593 H 0.08925 0.52924 0.15068 0.0
H4594 H 0.12032 0.57146 0.11312 0.0
H4595 H 0.13146 0.58043 0.08443 0.0
H4596 H 0.15895 0.53653 0.07883 0.0
H4597 H 0.14829 0.52749 0.10771 0.0
C4598 C 0.15845 0.55277 0.20877 0.0
C4599 C 0.16968 0.54068 0.20662 0.0
C4600 C 0.14749 0.55345 0.19364 0.0
C4601 C 0.14735 0.54155 0.17648 0.0
C4602 C 0.15923 0.53011 0.17413 0.0
C4603 C 0.17054 0.52977 0.18926 0.0
C4604 C 0.13387 0.54 0.16142 0.0
C4605 C 0.13936 0.54423 0.14457 0.0
C4606 C 0.11567 0.53471 0.16384 0.0
C4607 C 0.10918 0.52958 0.18127 0.0
C4608 C 0.11362 0.51455 0.18816 0.0
C4609 C 0.10764 0.50997 0.20472 0.0
C4610 C 0.09713 0.52024 0.21445 0.0
C4611 C 0.09253 0.53509 0.2076 0.0
C4612 C 0.09848 0.53973 0.19105 0.0
C4613 C 0.08396 0.52131 0.08485 0.0
C4614 C 0.07241 0.53305 0.08615 0.0
C4615 C 0.09521 0.52197 0.10031 0.0
C4616 C 0.09513 0.5347 0.11689 0.0
C4617 C 0.08263 0.54537 0.11854 0.0
C4618 C 0.07126 0.54458 0.10308 0.0
C4619 C 0.10874 0.53759 0.13221 0.0
C4620 C 0.10328 0.53373 0.14915 0.0
C4621 C 0.12694 0.54327 0.12986 0.0
C4622 C 0.13334 0.54866 0.11246 0.0
C4623 C 0.12865 0.56363 0.10571 0.0
C4624 C 0.1349 0.56876 0.08944 0.0
C4625 C 0.14573 0.55894 0.0797 0.0
C4626 C 0.15052 0.5441 0.08635 0.0
C4627 C 0.14446 0.53903 0.10273 0.0
H4628 H 0.15047 0.56288 0.06706 0.0
H4629 H 0.09252 0.51668 0.22727 0.0
H4630 H 0.784 0.85083 0.47319 0.0
H4631 H 0.78138 0.83802 0.43941 0.0
H4632 H 0.83822 0.85023 0.44181 0.0
H4633 H 0.84084 0.8621 0.47547 0.0
H4634 H 0.81254 0.86463 0.41246 0.0
H4635 H 0.82583 0.81083 0.43826 0.0
H4636 H 0.81739 0.78626 0.45726 0.0
H4637 H 0.76689 0.76349 0.42433 0.0
H4638 H 0.7749 0.78822 0.4054 0.0
H4639 H 0.8288 0.83751 0.32277 0.0
H4640 H 0.8322 0.84316 0.3564 0.0
H4641 H 0.7909 0.79107 0.35409 0.0
H4642 H 0.7915 0.78298 0.32039 0.0
H4643 H 0.80459 0.79614 0.38431 0.0
H4644 H 0.78722 0.84421 0.35781 0.0
H4645 H 0.78975 0.86851 0.33826 0.0
H4646 H 0.83797 0.90244 0.37129 0.0
H4647 H 0.83598 0.87815 0.39074 0.0
C4648 C 0.79588 0.85061 0.46647 0.0
C4649 C 0.81262 0.8573 0.47694 0.0
C4650 C 0.79438 0.84329 0.44723 0.0
C4651 C 0.80962 0.84307 0.43813 0.0
C4652 C 0.8263 0.85008 0.44857 0.0
C4653 C 0.82777 0.8568 0.46779 0.0
C4654 C 0.80846 0.83618 0.41766 0.0
C4655 C 0.81088 0.84969 0.40621 0.0
C4656 C 0.8054 0.8166 0.40944 0.0
C4657 C 0.80088 0.80152 0.42058 0.0
C4658 C 0.81286 0.80073 0.43521 0.0
C4659 C 0.80816 0.78675 0.44594 0.0
C4660 C 0.79159 0.77336 0.44205 0.0
C4661 C 0.77971 0.77389 0.42736 0.0
C4662 C 0.78432 0.78788 0.41663 0.0
C4663 C 0.82168 0.82645 0.32952 0.0
C4664 C 0.81099 0.80915 0.31894 0.0
C4665 C 0.82279 0.8302 0.3489 0.0
C4666 C 0.81095 0.81832 0.35823 0.0
C4667 C 0.80022 0.80077 0.34763 0.0
C4668 C 0.80056 0.79606 0.32825 0.0
C4669 C 0.80923 0.82471 0.37861 0.0
C4670 C 0.80612 0.81113 0.39018 0.0
C4671 C 0.8107 0.84423 0.38684 0.0
C4672 C 0.81149 0.85929 0.37567 0.0
C4673 C 0.79835 0.85686 0.3609 0.0
C4674 C 0.79974 0.8706 0.34979 0.0
C4675 C 0.81406 0.88697 0.35348 0.0
C4676 C 0.82694 0.88971 0.36838 0.0
C4677 C 0.82568 0.87598 0.37947 0.0
H4678 H 0.81515 0.89755 0.34481 0.0
H4679 H 0.78798 0.76255 0.45038 0.0
H4680 H 0.50867 0.56933 0.82613 0.0
H4681 H 0.52238 0.56841 0.85663 0.0
H4682 H 0.47064 0.5468 0.87337 0.0
H4683 H 0.45704 0.54959 0.84343 0.0
H4684 H 0.4873 0.56534 0.9027 0.0
H4685 H 0.51016 0.52024 0.85837 0.0
H4686 H 0.52658 0.51359 0.83142 0.0
H4687 H 0.57218 0.55825 0.85841 0.0
H4688 H 0.55598 0.56522 0.88543 0.0
H4689 H 0.51158 0.53241 0.98221 0.0
H4690 H 0.50146 0.53483 0.951 0.0
H4691 H 0.55555 0.55666 0.94075 0.0
H4692 H 0.56577 0.55288 0.97199 0.0
H4693 H 0.54009 0.54056 0.90866 0.0
H4694 H 0.52223 0.58563 0.95178 0.0
H4695 H 0.50901 0.59772 0.97947 0.0
H4696 H 0.45798 0.56066 0.95605 0.0
H4697 H 0.47095 0.54815 0.9283 0.0
C4698 C 0.50015 0.56439 0.83628 0.0
C4699 C 0.48155 0.55948 0.83182 0.0
C4700 C 0.50811 0.5635 0.85398 0.0
C4701 C 0.49796 0.55669 0.86798 0.0
C4702 C 0.4793 0.552 0.86344 0.0
C4703 C 0.47136 0.55354 0.84599 0.0
C4704 C 0.50636 0.55464 0.88714 0.0
C4705 C 0.49862 0.5595 0.90365 0.0
C4706 C 0.52196 0.54816 0.88967 0.0
C4707 C 0.53185 0.54328 0.87383 0.0
C4708 C 0.52371 0.52856 0.85855 0.0
C4709 C 0.53296 0.52478 0.84326 0.0
C4710 C 0.5504 0.5355 0.84319 0.0
C4711 C 0.55868 0.54995 0.85848 0.0
C4712 C 0.54949 0.55379 0.87379 0.0
C4713 C 0.52146 0.53745 0.97328 0.0
C4714 C 0.53962 0.54223 0.98004 0.0
C4715 C 0.51557 0.53921 0.95522 0.0
C4716 C 0.52741 0.54679 0.94297 0.0
C4717 C 0.54572 0.55097 0.94944 0.0
C4718 C 0.5517 0.54871 0.96753 0.0
C4719 C 0.5205 0.55046 0.92395 0.0
C4720 C 0.52858 0.5461 0.9076 0.0
C4721 C 0.50559 0.55804 0.92164 0.0
C4722 C 0.49759 0.56585 0.93803 0.0
C4723 C 0.50819 0.58002 0.95256 0.0
C4724 C 0.50075 0.58694 0.96827 0.0
C4725 C 0.48267 0.57993 0.96953 0.0
C4726 C 0.47199 0.56606 0.95505 0.0
C4727 C 0.47937 0.55907 0.93931 0.0
H4728 H 0.47694 0.58527 0.98172 0.0
H4729 H 0.5575 0.53262 0.8313 0.0
H4730 H 0.7687 0.17319 0.06418 0.0
H4731 H 0.76387 0.19372 0.09248 0.0
H4732 H 0.81677 0.19833 0.11637 0.0
H4733 H 0.8218 0.17817 0.08772 0.0
H4734 H 0.78657 0.18791 0.13888 0.0
H4735 H 0.81236 0.23291 0.10009 0.0
H4736 H 0.81309 0.24676 0.07193 0.0
H4737 H 0.76243 0.25742 0.07994 0.0
H4738 H 0.76127 0.24331 0.10798 0.0
H4739 H 0.82459 0.26704 0.20731 0.0
H4740 H 0.81693 0.24534 0.17701 0.0
H4741 H 0.76424 0.25328 0.17437 0.0
H4742 H 0.77186 0.27488 0.20512 0.0
H4743 H 0.78527 0.25524 0.14031 0.0
H4744 H 0.76105 0.21573 0.18116 0.0
H4745 H 0.75724 0.19947 0.20772 0.0
H4746 H 0.80171 0.17709 0.1955 0.0
H4747 H 0.80606 0.19354 0.1691 0.0
C4748 C 0.77916 0.17845 0.07565 0.0
C4749 C 0.79549 0.17411 0.07425 0.0
C4750 C 0.77644 0.19018 0.09159 0.0
C4751 C 0.79 0.19741 0.10624 0.0
C4752 C 0.80623 0.19273 0.10501 0.0
C4753 C 0.80908 0.18128 0.08887 0.0
C4754 C 0.78731 0.20985 0.12299 0.0
C4755 C 0.78636 0.20267 0.13933 0.0
C4756 C 0.78599 0.22863 0.123 0.0
C4757 C 0.78659 0.23675 0.10594 0.0
C4758 C 0.80125 0.23793 0.09569 0.0
C4759 C 0.80178 0.2459 0.07979 0.0
C4760 C 0.78778 0.25288 0.0741 0.0
C4761 C 0.77324 0.25194 0.08432 0.0
C4762 C 0.77263 0.24395 0.1002 0.0
C4763 C 0.81165 0.26476 0.1999 0.0
C4764 C 0.79894 0.27293 0.20797 0.0
C4765 C 0.80718 0.25213 0.18287 0.0
C4766 C 0.79 0.2477 0.17382 0.0
C4767 C 0.77751 0.25661 0.18139 0.0
C4768 C 0.7819 0.26901 0.19867 0.0
C4769 C 0.7855 0.2336 0.15643 0.0
C4770 C 0.78504 0.24036 0.13988 0.0
C4771 C 0.78532 0.21433 0.15618 0.0
C4772 C 0.78393 0.20598 0.17316 0.0
C4773 C 0.77025 0.20767 0.18434 0.0
C4774 C 0.76791 0.19829 0.19929 0.0
C4775 C 0.7791 0.18708 0.20314 0.0
C4776 C 0.79295 0.18564 0.19238 0.0
C4777 C 0.79538 0.19502 0.17744 0.0
H4778 H 0.77707 0.17957 0.21454 0.0
H4779 H 0.78823 0.25909 0.06181 0.0
H4780 H 0.13794 0.52861 0.29558 0.0
H4781 H 0.12703 0.53545 0.32578 0.0
H4782 H 0.18072 0.56173 0.35129 0.0
H4783 H 0.19171 0.55379 0.32119 0.0
H4784 H 0.16198 0.54416 0.37434 0.0
H4785 H 0.15432 0.59012 0.33844 0.0
H4786 H 0.14519 0.60272 0.31162 0.0
H4787 H 0.09093 0.5728 0.31333 0.0
H4788 H 0.09973 0.5599 0.34001 0.0
H4789 H 0.11457 0.58745 0.4468 0.0
H4790 H 0.13622 0.58187 0.42507 0.0
H4791 H 0.09361 0.54508 0.38488 0.0
H4792 H 0.07204 0.55103 0.40625 0.0
H4793 H 0.11372 0.57655 0.37318 0.0
H4794 H 0.12386 0.52536 0.40523 0.0
H4795 H 0.13384 0.51376 0.43239 0.0
H4796 H 0.18383 0.55622 0.43888 0.0
H4797 H 0.17414 0.56795 0.4117 0.0
C4798 C 0.14737 0.53522 0.3078 0.0
C4799 C 0.16556 0.54064 0.30633 0.0
C4800 C 0.14118 0.53939 0.32491 0.0
C4801 C 0.15309 0.54972 0.34051 0.0
C4802 C 0.17137 0.55393 0.33931 0.0
C4803 C 0.17761 0.54925 0.32223 0.0
C4804 C 0.14621 0.55664 0.35776 0.0
C4805 C 0.15161 0.55151 0.37419 0.0
C4806 C 0.13299 0.56662 0.35759 0.0
C4807 C 0.12772 0.57397 0.34119 0.0
C4808 C 0.14047 0.5861 0.333 0.0
C4809 C 0.13534 0.59333 0.31784 0.0
C4810 C 0.1175 0.58854 0.31077 0.0
C4811 C 0.10474 0.57651 0.31882 0.0
C4812 C 0.10979 0.56926 0.33398 0.0
C4813 C 0.10998 0.5781 0.43331 0.0
C4814 C 0.09178 0.57003 0.42775 0.0
C4815 C 0.12229 0.57476 0.42112 0.0
C4816 C 0.11639 0.56313 0.40351 0.0
C4817 C 0.09828 0.55418 0.39848 0.0
C4818 C 0.08601 0.55773 0.41048 0.0
C4819 C 0.12833 0.56245 0.38906 0.0
C4820 C 0.12423 0.56937 0.37332 0.0
C4821 C 0.14273 0.5543 0.38997 0.0
C4822 C 0.14821 0.54766 0.40663 0.0
C4823 C 0.1369 0.53232 0.41259 0.0
C4824 C 0.14254 0.52567 0.42792 0.0
C4825 C 0.15943 0.5343 0.4374 0.0
C4826 C 0.17074 0.54957 0.43155 0.0
C4827 C 0.1652 0.55619 0.41617 0.0
H4828 H 0.16378 0.52913 0.44925 0.0
H4829 H 0.11356 0.59418 0.29906 0.0
H4830 H 0.79066 0.84214 0.56702 0.0
H4831 H 0.7848 0.82783 0.59461 0.0
H4832 H 0.81516 0.88079 0.62988 0.0
H4833 H 0.82042 0.89535 0.60258 0.0
H4834 H 0.82333 0.84217 0.63394 0.0
H4835 H 0.77815 0.87656 0.63368 0.0
H4836 H 0.75233 0.885 0.62031 0.0
H4837 H 0.72158 0.82645 0.61246 0.0
H4838 H 0.74736 0.81761 0.62552 0.0
H4839 H 0.81084 0.83866 0.72681 0.0
H4840 H 0.81187 0.84829 0.69693 0.0
H4841 H 0.76938 0.79843 0.67275 0.0
H4842 H 0.76798 0.78888 0.70285 0.0
H4843 H 0.76593 0.8315 0.66078 0.0
H4844 H 0.80954 0.79723 0.66351 0.0
H4845 H 0.83517 0.78779 0.67599 0.0
H4846 H 0.86853 0.84439 0.67848 0.0
H4847 H 0.84305 0.85427 0.66625 0.0
C4848 C 0.79604 0.85071 0.58067 0.0
C4849 C 0.806 0.86989 0.58261 0.0
C4850 C 0.79263 0.84256 0.59641 0.0
C4851 C 0.79951 0.85327 0.61431 0.0
C4852 C 0.80966 0.87229 0.61622 0.0
C4853 C 0.81264 0.88059 0.6006 0.0
C4854 C 0.79661 0.84464 0.63109 0.0
C4855 C 0.81082 0.83996 0.63989 0.0
C4856 C 0.78014 0.84119 0.63853 0.0
C4857 C 0.76478 0.84636 0.63024 0.0
C4858 C 0.76598 0.86542 0.62881 0.0
C4859 C 0.75133 0.8703 0.62137 0.0
C4860 C 0.73535 0.85625 0.61545 0.0
C4861 C 0.73399 0.8373 0.61698 0.0
C4862 C 0.74862 0.83235 0.6244 0.0
C4863 C 0.80156 0.82964 0.71527 0.0
C4864 C 0.78975 0.81236 0.71734 0.0
C4865 C 0.80229 0.83519 0.69807 0.0
C4866 C 0.79106 0.82383 0.68239 0.0
C4867 C 0.77844 0.80727 0.68454 0.0
C4868 C 0.77781 0.80162 0.70181 0.0
C4869 C 0.79279 0.8294 0.66391 0.0
C4870 C 0.77839 0.83349 0.65475 0.0
C4871 C 0.80909 0.83218 0.65604 0.0
C4872 C 0.82434 0.82652 0.66404 0.0
C4873 C 0.8223 0.80773 0.66689 0.0
C4874 C 0.83682 0.80227 0.67383 0.0
C4875 C 0.85349 0.81544 0.67788 0.0
C4876 C 0.85563 0.83416 0.67521 0.0
C4877 C 0.84115 0.8397 0.66827 0.0
H4878 H 0.86472 0.81117 0.68323 0.0
H4879 H 0.724 0.86006 0.60974 0.0
H4880 H 0.78725 0.48731 0.50204 0.0
H4881 H 0.7612 0.49978 0.50486 0.0
H4882 H 0.73772 0.45515 0.53389 0.0
H4883 H 0.76315 0.44182 0.52959 0.0
H4884 H 0.71296 0.46219 0.51526 0.0
H4885 H 0.76272 0.50196 0.55727 0.0
H4886 H 0.79333 0.52201 0.56696 0.0
H4887 H 0.78493 0.56102 0.53259 0.0
H4888 H 0.75434 0.54111 0.52257 0.0
H4889 H 0.65941 0.51832 0.56312 0.0
H4890 H 0.6795 0.49825 0.55408 0.0
H4891 H 0.70322 0.5372 0.51946 0.0
H4892 H 0.68369 0.5575 0.52925 0.0
H4893 H 0.72719 0.53167 0.54245 0.0
H4894 H 0.67499 0.4893 0.50188 0.0
H4895 H 0.64448 0.46822 0.49553 0.0
H4896 H 0.65756 0.43345 0.53236 0.0
H4897 H 0.68807 0.45439 0.53905 0.0
C4898 C 0.77621 0.47993 0.50848 0.0
C4899 C 0.7769 0.46371 0.51557 0.0
C4900 C 0.76149 0.48712 0.5103 0.0
C4901 C 0.74782 0.47874 0.52012 0.0
C4902 C 0.74816 0.46187 0.52633 0.0
C4903 C 0.7626 0.45427 0.52388 0.0
C4904 C 0.73378 0.48824 0.52495 0.0
C4905 C 0.71605 0.47737 0.52134 0.0
C4906 C 0.73786 0.50798 0.53306 0.0
C4907 C 0.7563 0.51995 0.53905 0.0
C4908 C 0.76745 0.51475 0.5517 0.0
C4909 C 0.78478 0.5261 0.55726 0.0
C4910 C 0.79108 0.54275 0.55036 0.0
C4911 C 0.78004 0.54811 0.53791 0.0
C4912 C 0.7627 0.53681 0.5323 0.0
C4913 C 0.66896 0.52236 0.55358 0.0
C4914 C 0.67046 0.5394 0.54711 0.0
C4915 C 0.68021 0.51088 0.54823 0.0
C4916 C 0.69274 0.5162 0.53599 0.0
C4917 C 0.69366 0.5329 0.52896 0.0
C4918 C 0.68266 0.54452 0.5346 0.0
C4919 C 0.70632 0.50583 0.53207 0.0
C4920 C 0.72407 0.51653 0.5362 0.0
C4921 C 0.7022 0.48588 0.52498 0.0
C4922 C 0.68375 0.47353 0.5211 0.0
C4923 C 0.67131 0.47726 0.50874 0.0
C4924 C 0.65403 0.4653 0.50504 0.0
C4925 C 0.64907 0.44954 0.51356 0.0
C4926 C 0.66139 0.44567 0.52578 0.0
C4927 C 0.67868 0.45756 0.52951 0.0
H4928 H 0.6357 0.4403 0.51067 0.0
H4929 H 0.8045 0.55152 0.55469 0.0
H4930 H 0.24359 0.17434 0.48394 0.0
H4931 H 0.21309 0.15563 0.48399 0.0
H4932 H 0.23195 0.11638 0.51168 0.0
H4933 H 0.26254 0.13478 0.51127 0.0
H4934 H 0.20529 0.09705 0.48609 0.0
H4935 H 0.21498 0.15382 0.53494 0.0
H4936 H 0.22266 0.18863 0.54748 0.0
H4937 H 0.18072 0.19409 0.51038 0.0
H4938 H 0.17293 0.15936 0.49745 0.0
H4939 H 0.12453 0.05135 0.51749 0.0
H4940 H 0.15478 0.06852 0.5139 0.0
H4941 H 0.13496 0.11182 0.49388 0.0
H4942 H 0.10491 0.09529 0.49884 0.0
H4943 H 0.16215 0.12933 0.51456 0.0
H4944 H 0.15159 0.0742 0.46541 0.0
H4945 H 0.14289 0.03965 0.45155 0.0
H4946 H 0.18533 0.03145 0.48599 0.0
H4947 H 0.1941 0.06589 0.5003 0.0
C4948 C 0.2413 0.16163 0.48991 0.0
C4949 C 0.25563 0.15617 0.49767 0.0
C4950 C 0.22378 0.15099 0.49005 0.0
C4951 C 0.22006 0.13474 0.4982 0.0
C4952 C 0.23436 0.12888 0.50538 0.0
C4953 C 0.25191 0.13945 0.50513 0.0
C4954 C 0.20135 0.12397 0.49947 0.0
C4955 C 0.19591 0.10409 0.49249 0.0
C4956 C 0.18881 0.13313 0.50725 0.0
C4957 C 0.19348 0.15401 0.51512 0.0
C4958 C 0.20747 0.16246 0.52937 0.0
C4959 C 0.21183 0.18218 0.53656 0.0
C4960 C 0.20221 0.19357 0.5297 0.0
C4961 C 0.18817 0.18526 0.51566 0.0
C4962 C 0.18378 0.16556 0.50842 0.0
C4963 C 0.12665 0.06434 0.51201 0.0
C4964 C 0.11236 0.07182 0.50815 0.0
C4965 C 0.14399 0.0742 0.5099 0.0
C4966 C 0.14739 0.09142 0.50319 0.0
C4967 C 0.13293 0.09865 0.49907 0.0
C4968 C 0.11569 0.08911 0.50175 0.0
C4969 C 0.16595 0.10229 0.50114 0.0
C4970 C 0.17142 0.12221 0.50802 0.0
C4971 C 0.1784 0.09323 0.49292 0.0
C4972 C 0.17341 0.0726 0.48403 0.0
C4973 C 0.15902 0.06501 0.47008 0.0
C4974 C 0.15407 0.04544 0.46215 0.0
C4975 C 0.16353 0.03336 0.46791 0.0
C4976 C 0.178 0.04082 0.48156 0.0
C4977 C 0.18298 0.06036 0.48957 0.0
H4978 H 0.15965 0.01821 0.46178 0.0
H4979 H 0.2056 0.20883 0.53528 0.0
H4980 H 0.18689 0.93785 0.74766 0.0
H4981 H 0.20034 0.91118 0.74599 0.0
H4982 H 0.25222 0.9509 0.75367 0.0
H4983 H 0.23844 0.97718 0.75286 0.0
H4984 H 0.26007 0.92448 0.73833 0.0
H4985 H 0.22085 0.91455 0.78795 0.0
H4986 H 0.19202 0.90813 0.80076 0.0
H4987 H 0.17172 0.85833 0.7573 0.0
H4988 H 0.20036 0.86453 0.74419 0.0
H4989 H 0.30314 0.85826 0.77438 0.0
H4990 H 0.28901 0.88335 0.76961 0.0
H4991 H 0.24587 0.84073 0.73541 0.0
H4992 H 0.26135 0.81593 0.73838 0.0
H4993 H 0.2331 0.86635 0.76223 0.0
H4994 H 0.27136 0.87277 0.71543 0.0
H4995 H 0.29931 0.87691 0.70107 0.0
H4996 H 0.32054 0.93157 0.73774 0.0
H4997 H 0.29281 0.92759 0.7526 0.0
C4998 C 0.20121 0.94103 0.74902 0.0
C4999 C 0.21128 0.96026 0.75053 0.0
C5000 C 0.2092 0.92541 0.74847 0.0
C5001 C 0.22793 0.92799 0.75054 0.0
C5002 C 0.23791 0.9474 0.75204 0.0
C5003 C 0.22988 0.96288 0.75172 0.0
C5004 C 0.23717 0.9111 0.75076 0.0
C5005 C 0.25403 0.91218 0.74411 0.0
C5006 C 0.22984 0.89368 0.75719 0.0
C5007 C 0.21265 0.89013 0.765 0.0
C5008 C 0.2102 0.90229 0.78111 0.0
C5009 C 0.1939 0.89868 0.78841 0.0
C5010 C 0.18003 0.88287 0.77982 0.0
C5011 C 0.18245 0.8706 0.76392 0.0
C5012 C 0.1987 0.87415 0.75655 0.0
C5013 C 0.29156 0.85425 0.76447 0.0
C5014 C 0.28479 0.83476 0.75537 0.0
C5015 C 0.28286 0.8688 0.76227 0.0
C5016 C 0.26603 0.86465 0.7519 0.0
C5017 C 0.25881 0.84505 0.74332 0.0
C5018 C 0.26796 0.83065 0.74485 0.0
C5019 C 0.25602 0.88047 0.75066 0.0
C5020 C 0.23909 0.87901 0.7569 0.0
C5021 C 0.26323 0.89746 0.74386 0.0
C5022 C 0.28006 0.89979 0.73528 0.0
C5023 C 0.28206 0.88557 0.72061 0.0
C5024 C 0.29785 0.88791 0.71234 0.0
C5025 C 0.31168 0.9045 0.71849 0.0
C5026 C 0.3098 0.91873 0.733 0.0
C5027 C 0.29405 0.91644 0.74136 0.0
H5028 H 0.32383 0.90637 0.71195 0.0
H5029 H 0.16743 0.88011 0.7855 0.0
H5030 H 0.36423 0.98038 0.98894 0.0
H5031 H 0.39619 0.99628 0.99279 0.0
H5032 H 0.40445 0.96302 0.03357 0.0
H5033 H 0.37289 0.94673 0.02938 0.0
H5034 H 0.42107 1.00494 0.04332 0.0
H5035 H 0.41446 0.94687 0.99846 0.0
H5036 H 0.40398 0.9224 0.96972 0.0
H5037 H 0.42323 0.96455 0.93706 0.0
H5038 H 0.43355 0.98938 0.96567 0.0
H5039 H 0.50928 0.98437 0.02434 0.0
H5040 H 0.477 0.97815 0.02366 0.0
H5041 H 0.48141 0.03808 0.02531 0.0
H5042 H 0.51339 0.04464 0.02818 0.0
H5043 H 0.45814 0.98817 0.99391 0.0
H5044 H 0.4622 0.04727 0.046 0.0
H5045 H 0.47584 0.06566 0.07714 0.0
H5046 H 0.4631 0.01414 0.09897 0.0
H5047 H 0.44998 0.99536 0.06774 0.0
C5048 C 0.37296 0.97657 0.99869 0.0
C5049 C 0.36638 0.96238 0.00879 0.0
C5050 C 0.39102 0.9856 1.00088 0.0
C5051 C 0.40233 0.98074 0.01351 0.0
C5052 C 0.3957 0.96688 0.02387 0.0
C5053 C 0.37781 0.95755 0.02134 0.0
C5054 C 0.4213 0.98944 0.01553 0.0
C5055 C 0.42922 1.00156 0.03247 0.0
C5056 C 0.43169 0.98459 1.0014 0.0
C5057 C 0.42427 0.9701 0.98417 0.0
C5058 C 0.41603 0.95104 0.98515 0.0
C5059 C 0.41025 0.93706 0.96888 0.0
C5060 C 0.4128 0.94195 0.95156 0.0
C5061 C 0.42113 0.96082 0.95048 0.0
C5062 C 0.4269 0.97486 0.96671 0.0
C5063 C 0.50326 0.99616 0.0248 0.0
C5064 C 0.5136 0.0148 0.02554 0.0
C5065 C 0.48501 0.99268 0.02458 0.0
C5066 C 0.47709 0.00781 0.02488 0.0
C5067 C 0.4874 0.02643 0.02585 0.0
C5068 C 0.50562 0.03 0.02682 0.0
C5069 C 0.45793 1.00351 0.0217 0.0
C5070 C 0.44994 0.99218 0.00451 0.0
C5071 C 0.4476 0.00863 0.03579 0.0
C5072 C 0.4556 0.01987 0.05447 0.0
C5073 C 0.46266 0.03982 0.05735 0.0
C5074 C 0.47024 0.05032 0.07503 0.0
C5075 C 0.47045 0.04105 0.09 0.0
C5076 C 0.46306 0.02127 0.08733 0.0
C5077 C 0.45565 0.01069 0.06963 0.0
H5078 H 0.47625 0.0492 0.10369 0.0
H5079 H 0.40843 0.93108 0.93899 0.0
H5080 H 0.91137 0.6123 0.78849 0.0
H5081 H 0.89719 0.63612 0.78091 0.0
H5082 H 0.86814 0.63229 0.82882 0.0
H5083 H 0.88162 0.60713 0.83559 0.0
H5084 H 0.8469 0.62584 0.7984 0.0
H5085 H 0.90132 0.67487 0.82338 0.0
H5086 H 0.93384 0.6872 0.82621 0.0
H5087 H 0.9317 0.68675 0.76768 0.0
H5088 H 0.89921 0.67418 0.76444 0.0
H5089 H 0.80239 0.69146 0.77076 0.0
H5090 H 0.82183 0.679 0.7897 0.0
H5091 H 0.85174 0.66933 0.74323 0.0
H5092 H 0.83235 0.68156 0.72422 0.0
H5093 H 0.87286 0.68617 0.77727 0.0
H5094 H 0.82439 0.63381 0.74931 0.0
H5095 H 0.79349 0.61463 0.74026 0.0
H5096 H 0.78582 0.61535 0.79766 0.0
H5097 H 0.81663 0.63496 0.80709 0.0
C5098 C 0.90256 0.61724 0.79785 0.0
C5099 C 0.89774 0.60843 0.81278 0.0
C5100 C 0.8945 0.63089 0.79357 0.0
C5101 C 0.88189 0.63633 0.80454 0.0
C5102 C 0.87802 0.62844 0.82034 0.0
C5103 C 0.8858 0.61432 0.82434 0.0
C5104 C 0.87086 0.64774 0.7977 0.0
C5105 C 0.8525 0.63945 0.79447 0.0
C5106 C 0.87837 0.66483 0.79149 0.0
C5107 C 0.8978 0.67364 0.7937 0.0
C5108 C 0.90777 0.67748 0.81113 0.0
C5109 C 0.92622 0.68445 0.81279 0.0
C5110 C 0.93483 0.68777 0.79714 0.0
C5111 C 0.92501 0.68423 0.77981 0.0
C5112 C 0.90657 0.67725 0.77806 0.0
C5113 C 0.81323 0.68685 0.76469 0.0
C5114 C 0.81585 0.68732 0.74604 0.0
C5115 C 0.82424 0.67973 0.77546 0.0
C5116 C 0.83808 0.67327 0.76775 0.0
C5117 C 0.84107 0.67429 0.74934 0.0
C5118 C 0.82991 0.68107 0.73848 0.0
C5119 C 0.84897 0.66451 0.77852 0.0
C5120 C 0.86723 0.67311 0.78213 0.0
C5121 C 0.8415 0.64733 0.78449 0.0
C5122 C 0.82272 0.63626 0.77894 0.0
C5123 C 0.81603 0.63024 0.76004 0.0
C5124 C 0.79855 0.6192 0.75483 0.0
C5125 C 0.78766 0.61388 0.76838 0.0
C5126 C 0.79424 0.61959 0.78718 0.0
C5127 C 0.8117 0.63071 0.79247 0.0
H5128 H 0.77415 0.60525 0.76432 0.0
H5129 H 0.94911 0.69307 0.79845 0.0
H5130 H 0.86871 0.68715 0.01147 0.0
H5131 H 0.89471 0.67506 0.01672 0.0
H5132 H 0.86006 0.6195 0.01756 0.0
H5133 H 0.83434 0.63183 0.0134 0.0
H5134 H 0.88277 0.62983 0.04637 0.0
H5135 H 0.88869 0.63382 0.98037 0.0
H5136 H 0.89412 0.65153 0.95486 0.0
H5137 H 0.94331 0.68685 0.985 0.0
H5138 H 0.93808 0.66951 0.01074 0.0
H5139 H 0.93055 0.563 0.04132 0.0
H5140 H 0.91158 0.58266 0.03359 0.0
H5141 H 0.9575 0.63023 0.03617 0.0
H5142 H 0.97671 0.61011 0.04322 0.0
H5143 H 0.93384 0.63077 0.00964 0.0
H5144 H 0.93165 0.62824 0.07296 0.0
H5145 H 0.92889 0.6144 0.10112 0.0
H5146 H 0.87569 0.58176 0.08013 0.0
H5147 H 0.8782 0.59521 0.05173 0.0
C5148 C 0.86672 0.67227 0.01245 0.0
C5149 C 0.84949 0.66043 0.01208 0.0
C5150 C 0.8816 0.66533 0.0154 0.0
C5151 C 0.87947 0.64627 0.01752 0.0
C5152 C 0.86218 0.63428 0.01614 0.0
C5153 C 0.84743 0.64131 0.01369 0.0
C5154 C 0.89479 0.63885 0.02276 0.0
C5155 C 0.89377 0.62983 0.0381 0.0
C5156 C 0.90998 0.64006 0.01299 0.0
C5157 C 0.91288 0.65052 0.99755 0.0
C5158 C 0.90057 0.64547 0.98161 0.0
C5159 C 0.90364 0.65542 0.9671 0.0
C5160 C 0.91902 0.67034 0.96834 0.0
C5161 C 0.93139 0.67532 0.98407 0.0
C5162 C 0.92838 0.66544 0.99861 0.0
C5163 C 0.93667 0.57764 0.04025 0.0
C5164 C 0.95516 0.58519 0.04356 0.0
C5165 C 0.92578 0.58893 0.03587 0.0
C5166 C 0.933 0.60821 0.03498 0.0
C5167 C 0.95154 0.6155 0.03709 0.0
C5168 C 0.96253 0.60403 0.04121 0.0
C5169 C 0.92093 0.62052 0.03227 0.0
C5170 C 0.92276 0.63074 0.0178 0.0
C5171 C 0.9067 0.62097 0.04316 0.0
C5172 C 0.90516 0.61266 0.06015 0.0
C5173 C 0.91941 0.618 0.07428 0.0
C5174 C 0.91788 0.61024 0.0903 0.0
C5175 C 0.90213 0.59719 0.0924 0.0
C5176 C 0.88788 0.59187 0.07848 0.0
C5177 C 0.88934 0.59958 0.06243 0.0
H5178 H 0.90096 0.59122 0.10482 0.0
H5179 H 0.92137 0.678 0.95708 0.0
H5180 H 0.23392 0.06605 0.76979 0.0
H5181 H 0.25007 0.09966 0.77027 0.0
H5182 H 0.20094 0.11559 0.7711 0.0
H5183 H 0.18499 0.08255 0.77135 0.0
H5184 H 0.22221 0.13266 0.74571 0.0
H5185 H 0.22711 0.12896 0.80932 0.0
H5186 H 0.23384 0.11574 0.83655 0.0
H5187 H 0.28848 0.12645 0.82644 0.0
H5188 H 0.282 0.13952 0.79895 0.0
H5189 H 0.25637 0.2352 0.7655 0.0
H5190 H 0.24083 0.20205 0.76583 0.0
H5191 H 0.29067 0.19001 0.7784 0.0
H5192 H 0.3061 0.22346 0.77906 0.0
H5193 H 0.26886 0.1703 0.79644 0.0
H5194 H 0.2624 0.17585 0.73206 0.0
H5195 H 0.25365 0.18957 0.70591 0.0
H5196 H 0.19966 0.17573 0.71833 0.0
H5197 H 0.20814 0.16221 0.74475 0.0
C5198 C 0.22654 0.07669 0.77021 0.0
C5199 C 0.20799 0.0712 0.77078 0.0
C5200 C 0.23584 0.09608 0.77046 0.0
C5201 C 0.22692 0.11064 0.77072 0.0
C5202 C 0.2084 0.10503 0.77089 0.0
C5203 C 0.19922 0.08589 0.77116 0.0
C5204 C 0.23667 0.13163 0.77107 0.0
C5205 C 0.23234 0.14085 0.7569 0.0
C5206 C 0.25002 0.14279 0.7855 0.0
C5207 C 0.25404 0.13498 0.80195 0.0
C5208 C 0.24053 0.12832 0.8128 0.0
C5209 C 0.2443 0.1209 0.8283 0.0
C5210 C 0.26157 0.12019 0.83318 0.0
C5211 C 0.2751 0.12697 0.8226 0.0
C5212 C 0.2714 0.1344 0.80707 0.0
C5213 C 0.26417 0.22563 0.76837 0.0
C5214 C 0.28286 0.2325 0.77187 0.0
C5215 C 0.25514 0.2063 0.76836 0.0
C5216 C 0.26431 0.19268 0.77156 0.0
C5217 C 0.28292 0.19968 0.77563 0.0
C5218 C 0.29193 0.21907 0.77583 0.0
C5219 C 0.25469 0.17145 0.77084 0.0
C5220 C 0.25893 0.16214 0.78506 0.0
C5221 C 0.24108 0.16027 0.75651 0.0
C5222 C 0.23595 0.16818 0.74049 0.0
C5223 C 0.24868 0.17583 0.72928 0.0
C5224 C 0.24377 0.18357 0.71441 0.0
C5225 C 0.22612 0.18356 0.71049 0.0
C5226 C 0.21333 0.17576 0.7214 0.0
C5227 C 0.21819 0.16805 0.73632 0.0
H5228 H 0.22235 0.18957 0.69898 0.0
H5229 H 0.26446 0.11444 0.8452 0.0
H5230 H 0.40167 0.99824 0.33068 0.0
H5231 H 0.38383 0.96469 0.32083 0.0
H5232 H 0.39062 0.96769 0.26357 0.0
H5233 H 0.40911 1.00059 0.27334 0.0
H5234 H 0.35175 0.95588 0.28263 0.0
H5235 H 0.40819 0.94371 0.26508 0.0
H5236 H 0.43992 0.94633 0.2722 0.0
H5237 H 0.42831 0.91832 0.31816 0.0
H5238 H 0.39653 0.91604 0.31159 0.0
H5239 H 0.30328 0.85859 0.24556 0.0
H5240 H 0.32113 0.89162 0.251 0.0
H5241 H 0.35449 0.88018 0.29426 0.0
H5242 H 0.33942 0.84644 0.28507 0.0
H5243 H 0.37415 0.89818 0.27806 0.0
H5244 H 0.31734 0.9127 0.29757 0.0
H5245 H 0.28557 0.91124 0.29059 0.0
H5246 H 0.29741 0.93498 0.2423 0.0
H5247 H 0.329 0.93645 0.2489 0.0
C5248 C 0.39968 0.99142 0.3161 0.0
C5249 C 0.40687 1.00148 0.30272 0.0
C5250 C 0.38953 0.97251 0.31053 0.0
C5251 C 0.38626 0.96404 0.29158 0.0
C5252 C 0.39341 0.97412 0.27825 0.0
C5253 C 0.40397 0.99272 0.28384 0.0
C5254 C 0.3745 0.94491 0.28555 0.0
C5255 C 0.35644 0.9431 0.2817 0.0
C5256 C 0.38098 0.92867 0.28414 0.0
C5257 C 0.40006 0.93009 0.28809 0.0
C5258 C 0.41244 0.93845 0.27691 0.0
C5259 C 0.43043 0.9398 0.2808 0.0
C5260 C 0.43615 0.9326 0.2957 0.0
C5261 C 0.42388 0.92399 0.30669 0.0
C5262 C 0.40589 0.9227 0.30291 0.0
C5263 C 0.31431 0.86342 0.25641 0.0
C5264 C 0.31936 0.85044 0.26594 0.0
C5265 C 0.32434 0.8824 0.25979 0.0
C5266 C 0.33885 0.88887 0.27363 0.0
C5267 C 0.34337 0.87578 0.28352 0.0
C5268 C 0.33436 0.85656 0.27889 0.0
C5269 C 0.35061 0.90853 0.27674 0.0
C5270 C 0.36899 0.91067 0.27948 0.0
C5271 C 0.3443 0.92506 0.27732 0.0
C5272 C 0.32536 0.92434 0.2736 0.0
C5273 C 0.31302 0.91737 0.28541 0.0
C5274 C 0.29513 0.91659 0.28155 0.0
C5275 C 0.28951 0.92285 0.26599 0.0
C5276 C 0.30177 0.93006 0.25432 0.0
C5277 C 0.31965 0.93091 0.25813 0.0
H5278 H 0.27566 0.92219 0.26303 0.0
H5279 H 0.45007 0.93362 0.29866 0.0
H5280 H 0.57045 0.36335 0.59558 0.0
H5281 H 0.56419 0.3911 0.58511 0.0
H5282 H 0.61538 0.40416 0.56489 0.0
H5283 H 0.62155 0.37619 0.57499 0.0
H5284 H 0.60883 0.43694 0.58353 0.0
H5285 H 0.57885 0.38589 0.53444 0.0
H5286 H 0.55872 0.35468 0.51911 0.0
H5287 H 0.51439 0.37258 0.54016 0.0
H5288 H 0.5343 0.40382 0.55586 0.0
H5289 H 0.57877 0.49849 0.52254 0.0
H5290 H 0.58553 0.46884 0.52842 0.0
H5291 H 0.5589 0.47281 0.57789 0.0
H5292 H 0.55387 0.50318 0.57315 0.0
H5293 H 0.55474 0.4315 0.54219 0.0
H5294 H 0.58875 0.48363 0.5938 0.0
H5295 H 0.61088 0.51431 0.6062 0.0
H5296 H 0.65064 0.49272 0.57871 0.0
H5297 H 0.62834 0.46255 0.56478 0.0
C5298 C 0.58039 0.37205 0.58885 0.0
C5299 C 0.59653 0.36729 0.58618 0.0
C5300 C 0.57676 0.38799 0.58277 0.0
C5301 C 0.58921 0.39996 0.57402 0.0
C5302 C 0.60543 0.39535 0.57153 0.0
C5303 C 0.60894 0.3792 0.5773 0.0
C5304 C 0.58539 0.41728 0.56774 0.0
C5305 C 0.59703 0.43562 0.57438 0.0
C5306 C 0.57011 0.41595 0.55566 0.0
C5307 C 0.5581 0.3971 0.54653 0.0
C5308 C 0.56483 0.38309 0.53599 0.0
C5309 C 0.55346 0.36541 0.52719 0.0
C5310 C 0.53529 0.36162 0.52872 0.0
C5311 C 0.52847 0.37552 0.53903 0.0
C5312 C 0.53979 0.39322 0.54788 0.0
C5313 C 0.57403 0.4928 0.53444 0.0
C5314 C 0.56513 0.50296 0.54699 0.0
C5315 C 0.57808 0.47591 0.53793 0.0
C5316 C 0.573 0.46855 0.55383 0.0
C5317 C 0.56329 0.47817 0.56571 0.0
C5318 C 0.56008 0.49543 0.56277 0.0
C5319 C 0.57789 0.45112 0.55842 0.0
C5320 C 0.56649 0.43276 0.55137 0.0
C5321 C 0.59351 0.45243 0.56999 0.0
C5322 C 0.60664 0.47106 0.5776 0.0
C5323 C 0.60197 0.48571 0.58967 0.0
C5324 C 0.6146 0.50304 0.59704 0.0
C5325 C 0.63211 0.50566 0.59295 0.0
C5326 C 0.637 0.49093 0.58149 0.0
C5327 C 0.62432 0.47377 0.57371 0.0
H5328 H 0.64192 0.51899 0.59885 0.0
H5329 H 0.5265 0.34794 0.52187 0.0
H5330 H 0.45719 0.77165 0.39967 0.0
H5331 H 0.42942 0.77371 0.38422 0.0
H5332 H 0.45595 0.78534 0.33614 0.0
H5333 H 0.48393 0.78508 0.35239 0.0
H5334 H 0.43694 0.80631 0.33913 0.0
H5335 H 0.42082 0.73875 0.34325 0.0
H5336 H 0.41535 0.71122 0.35898 0.0
H5337 H 0.37855 0.73384 0.39091 0.0
H5338 H 0.38395 0.76158 0.37555 0.0
H5339 H 0.36254 0.79463 0.27562 0.0
H5340 H 0.38777 0.78965 0.29263 0.0
H5341 H 0.35905 0.7864 0.34061 0.0
H5342 H 0.33296 0.78984 0.32282 0.0
H5343 H 0.37794 0.76188 0.33928 0.0
H5344 H 0.39285 0.82805 0.33493 0.0
H5345 H 0.39724 0.8556 0.31933 0.0
H5346 H 0.4359 0.83565 0.28825 0.0
H5347 H 0.43156 0.80783 0.30347 0.0
C5348 C 0.45703 0.77448 0.38572 0.0
C5349 C 0.47288 0.7781 0.37728 0.0
C5350 C 0.44097 0.77548 0.3767 0.0
C5351 C 0.44003 0.77933 0.35857 0.0
C5352 C 0.45591 0.78246 0.35006 0.0
C5353 C 0.47204 0.78217 0.35934 0.0
C5354 C 0.42306 0.78121 0.34874 0.0
C5355 C 0.42418 0.79622 0.33896 0.0
C5356 C 0.40587 0.76886 0.34895 0.0
C5357 C 0.40296 0.75235 0.35841 0.0
C5358 C 0.41169 0.73793 0.35375 0.0
C5359 C 0.40857 0.72227 0.36257 0.0
C5360 C 0.39666 0.72081 0.37598 0.0
C5361 C 0.38781 0.735 0.38057 0.0
C5362 C 0.39089 0.75069 0.37181 0.0
C5363 C 0.36117 0.79221 0.28947 0.0
C5364 C 0.34525 0.7922 0.2974 0.0
C5365 C 0.37598 0.78982 0.29953 0.0
C5366 C 0.37576 0.78799 0.31824 0.0
C5367 C 0.35984 0.78782 0.32626 0.0
C5368 C 0.34485 0.78991 0.31604 0.0
C5369 C 0.39213 0.78647 0.32929 0.0
C5370 C 0.39083 0.77174 0.33938 0.0
C5371 C 0.40917 0.79905 0.32942 0.0
C5372 C 0.41178 0.81578 0.32025 0.0
C5373 C 0.4022 0.82947 0.32468 0.0
C5374 C 0.40469 0.84514 0.31591 0.0
C5375 C 0.41682 0.84736 0.30279 0.0
C5376 C 0.4265 0.83391 0.29841 0.0
C5377 C 0.42404 0.8182 0.30711 0.0
H5378 H 0.41874 0.85952 0.29603 0.0
H5379 H 0.39425 0.70867 0.38277 0.0
H5380 H 0.09917 0.7594 0.11029 0.0
H5381 H 0.09675 0.72525 0.10049 0.0
H5382 H 0.06191 0.72281 0.05206 0.0
H5383 H 0.06457 0.75748 0.06186 0.0
H5384 H 0.0491 0.69262 0.07129 0.0
H5385 H 0.10326 0.71894 0.0468 0.0
H5386 H 0.13327 0.74029 0.04818 0.0
H5387 H 0.15177 0.71543 0.09138 0.0
H5388 H 0.1218 0.69408 0.09042 0.0
H5389 H 0.05853 0.59675 0.02938 0.0
H5390 H 0.06247 0.63153 0.0329 0.0
H5391 H 0.0807 0.63956 0.09089 0.0
H5392 H 0.0757 0.60477 0.08766 0.0
H5393 H 0.1014 0.66666 0.06377 0.0
H5394 H 0.04862 0.64414 0.092 0.0
H5395 H 0.01876 0.62455 0.09456 0.0
H5396 H 0.99772 0.64378 0.04854 0.0
H5397 H 0.02766 0.66295 0.04525 0.0
C5398 C 0.09123 0.7517 0.09734 0.0
C5399 C 0.08228 0.7613 0.08674 0.0
C5400 C 0.08983 0.73208 0.09175 0.0
C5401 C 0.07923 0.72122 0.07542 0.0
C5402 C 0.07026 0.73076 0.06467 0.0
C5403 C 0.0719 0.75064 0.07017 0.0
C5404 C 0.0773 0.69993 0.0702 0.0
C5405 C 0.06051 0.68698 0.06921 0.0
C5406 C 0.09218 0.69232 0.06813 0.0
C5407 C 0.11025 0.70499 0.06861 0.0
C5408 C 0.1137 0.7181 0.05667 0.0
C5409 C 0.13071 0.73019 0.05737 0.0
C5410 C 0.14441 0.72924 0.06988 0.0
C5411 C 0.14114 0.71615 0.08169 0.0
C5412 C 0.12415 0.70403 0.08106 0.0
C5413 C 0.06369 0.60595 0.04279 0.0
C5414 C 0.0671 0.59794 0.05818 0.0
C5415 C 0.06579 0.62586 0.04484 0.0
C5416 C 0.07173 0.63829 0.06223 0.0
C5417 C 0.07599 0.63038 0.07736 0.0
C5418 C 0.07326 0.61046 0.07547 0.0
C5419 C 0.07323 0.65942 0.06481 0.0
C5420 C 0.08995 0.6723 0.06544 0.0
C5421 C 0.05833 0.66698 0.0669 0.0
C5422 C 0.0405 0.65455 0.06804 0.0
C5423 C 0.03775 0.64375 0.08206 0.0
C5424 C 0.02078 0.63281 0.08372 0.0
C5425 C 0.00636 0.63282 0.07166 0.0
C5426 C 0.00892 0.64366 0.05779 0.0
C5427 C 0.02591 0.65451 0.05597 0.0
H5428 H 0.99321 0.62456 0.07321 0.0
H5429 H 0.15757 0.73862 0.0704 0.0
H5430 H 0.08649 0.25914 0.90687 0.0
H5431 H 0.11451 0.26146 0.89293 0.0
H5432 H 0.09564 0.28843 0.85137 0.0
H5433 H 0.06752 0.28555 0.86503 0.0
H5434 H 0.10884 0.26109 0.83539 0.0
H5435 H 0.13007 0.31192 0.89155 0.0
H5436 H 0.13613 0.32356 0.92553 0.0
H5437 H 0.1675 0.28396 0.92917 0.0
H5438 H 0.16147 0.27194 0.89527 0.0
H5439 H 0.17915 0.29677 0.78898 0.0
H5440 H 0.15537 0.29072 0.80795 0.0
H5441 H 0.18908 0.2758 0.84803 0.0
H5442 H 0.21424 0.28459 0.82986 0.0
H5443 H 0.16953 0.29169 0.867 0.0
H5444 H 0.15164 0.24108 0.8149 0.0
H5445 H 0.14577 0.22432 0.78206 0.0
H5446 H 0.10797 0.25562 0.77198 0.0
H5447 H 0.11374 0.2727 0.8047 0.0
C5448 C 0.08847 0.26579 0.89489 0.0
C5449 C 0.07485 0.2723 0.88711 0.0
C5450 C 0.10457 0.2672 0.88695 0.0
C5451 C 0.10753 0.27536 0.87109 0.0
C5452 C 0.0939 0.2821 0.86356 0.0
C5453 C 0.07779 0.28052 0.8714 0.0
C5454 C 0.12409 0.27586 0.86144 0.0
C5455 C 0.12208 0.26805 0.84231 0.0
C5456 C 0.14163 0.2836 0.87054 0.0
C5457 C 0.14517 0.29092 0.8909 0.0
C5458 C 0.13815 0.30561 0.89962 0.0
C5459 C 0.14161 0.31229 0.91886 0.0
C5460 C 0.15216 0.30448 0.9295 0.0
C5461 C 0.15931 0.28999 0.92093 0.0
C5462 C 0.15589 0.28325 0.9017 0.0
C5463 C 0.18191 0.29262 0.80199 0.0
C5464 C 0.19912 0.29183 0.80791 0.0
C5465 C 0.16787 0.28855 0.81274 0.0
C5466 C 0.16986 0.28215 0.82942 0.0
C5467 C 0.18688 0.28062 0.83524 0.0
C5468 C 0.20132 0.28543 0.82466 0.0
C5469 C 0.15419 0.27786 0.84062 0.0
C5470 C 0.15632 0.28471 0.86002 0.0
C5471 C 0.1367 0.26845 0.83197 0.0
C5472 C 0.1332 0.25823 0.81225 0.0
C5473 C 0.14214 0.24446 0.80566 0.0
C5474 C 0.13882 0.23489 0.78706 0.0
C5475 C 0.12652 0.23892 0.77494 0.0
C5476 C 0.11749 0.2525 0.78139 0.0
C5477 C 0.12075 0.2621 0.79997 0.0
H5478 H 0.12397 0.2315 0.76054 0.0
H5479 H 0.15482 0.30967 0.94439 0.0
H5480 H 0.5879 0.75335 0.89751 0.0
H5481 H 0.58254 0.72537 0.91224 0.0
H5482 H 0.60711 0.76206 0.96474 0.0
H5483 H 0.61347 0.78962 0.9498 0.0
H5484 H 0.61834 0.73242 0.96064 0.0
H5485 H 0.55939 0.74221 0.95218 0.0
H5486 H 0.53342 0.74518 0.93348 0.0
H5487 H 0.52735 0.68905 0.90054 0.0
H5488 H 0.55336 0.68582 0.91897 0.0
H5489 H 0.58345 0.68281 0.02892 0.0
H5490 H 0.59177 0.70433 0.00739 0.0
H5491 H 0.57033 0.65733 0.96093 0.0
H5492 H 0.56133 0.63582 0.98243 0.0
H5493 H 0.55873 0.68781 0.9575 0.0
H5494 H 0.61571 0.677 0.96985 0.0
H5495 H 0.64186 0.67487 0.98884 0.0
H5496 H 0.65143 0.73393 0.01558 0.0
H5497 H 0.62529 0.73638 0.99683 0.0
C5498 C 0.59208 0.75532 0.9122 0.0
C5499 C 0.60111 0.7735 0.92257 0.0
C5500 C 0.58895 0.7394 0.92062 0.0
C5501 C 0.59425 0.74163 0.93967 0.0
C5502 C 0.60301 0.75993 0.95001 0.0
C5503 C 0.60658 0.77568 0.9415 0.0
C5504 C 0.59102 0.72505 0.94903 0.0
C5505 C 0.60526 0.72278 0.96007 0.0
C5506 C 0.57413 0.71198 0.94773 0.0
C5507 C 0.55839 0.71386 0.93682 0.0
C5508 C 0.55255 0.73055 0.94089 0.0
C5509 C 0.53782 0.73227 0.93035 0.0
C5510 C 0.52877 0.71734 0.9158 0.0
C5511 C 0.53438 0.70061 0.9118 0.0
C5512 C 0.54909 0.69882 0.9223 0.0
C5513 C 0.58048 0.67706 0.01413 0.0
C5514 C 0.57167 0.65765 0.00739 0.0
C5515 C 0.58546 0.68931 1.00183 0.0
C5516 C 0.58188 0.68235 0.98257 0.0
C5517 C 0.57332 0.66293 0.97575 0.0
C5518 C 0.56828 0.65066 0.98806 0.0
C5519 C 0.58589 0.69577 0.96971 0.0
C5520 C 0.57184 0.69734 0.9579 0.0
C5521 C 0.60292 0.70836 0.97048 0.0
C5522 C 0.61848 0.70683 0.982 0.0
C5523 C 0.62331 0.68948 0.97988 0.0
C5524 C 0.63816 0.68823 0.99057 0.0
C5525 C 0.64828 0.70424 0.00343 0.0
C5526 C 0.64359 0.72154 0.00561 0.0
C5527 C 0.62879 0.72288 0.99493 0.0
H5528 H 0.65978 0.70325 0.01168 0.0
H5529 H 0.51739 0.71871 0.90764 0.0
H5530 H 0.05391 0.76254 0.69926 0.0
H5531 H 0.08235 0.75561 0.70409 0.0
H5532 H 0.10319 0.78997 0.66455 0.0
H5533 H 0.07392 0.79555 0.65848 0.0
H5534 H 0.1151 0.7595 0.66044 0.0
H5535 H 0.11187 0.80721 0.71326 0.0
H5536 H 0.09704 0.82061 0.73902 0.0
H5537 H 0.09611 0.77206 0.76409 0.0
H5538 H 0.11072 0.75824 0.73835 0.0
H5539 H 0.20306 0.77983 0.71829 0.0
H5540 H 0.177 0.78359 0.70135 0.0
H5541 H 0.14793 0.72675 0.70554 0.0
H5542 H 0.17432 0.72207 0.72119 0.0
H5543 H 0.14188 0.77015 0.72558 0.0
H5544 H 0.14399 0.72203 0.67091 0.0
H5545 H 0.15788 0.70889 0.64426 0.0
H5546 H 0.16134 0.7598 0.62233 0.0
H5547 H 0.1479 0.77348 0.64918 0.0
C5548 C 0.06468 0.76892 0.69188 0.0
C5549 C 0.06209 0.78012 0.67901 0.0
C5550 C 0.08087 0.76488 0.69456 0.0
C5551 C 0.09505 0.77279 0.68513 0.0
C5552 C 0.09245 0.78391 0.67211 0.0
C5553 C 0.07592 0.78734 0.66886 0.0
C5554 C 0.11257 0.76963 0.6893 0.0
C5555 C 0.1211 0.76208 0.67466 0.0
C5556 C 0.12031 0.7729 0.70787 0.0
C5557 C 0.11237 0.78169 0.72386 0.0
C5558 C 0.10853 0.79942 0.72429 0.0
C5559 C 0.10013 0.80706 0.73886 0.0
C5560 C 0.09563 0.79719 0.75318 0.0
C5561 C 0.09962 0.7797 0.753 0.0
C5562 C 0.108 0.77198 0.73845 0.0
C5563 C 0.19145 0.76772 0.7149 0.0
C5564 C 0.19081 0.75065 0.72131 0.0
C5565 C 0.17656 0.76996 0.7052 0.0
C5566 C 0.16077 0.75531 0.70196 0.0
C5567 C 0.16021 0.73801 0.70757 0.0
C5568 C 0.1752 0.73555 0.71687 0.0
C5569 C 0.14415 0.75972 0.6968 0.0
C5570 C 0.13591 0.76771 0.71136 0.0
C5571 C 0.13688 0.75703 0.6782 0.0
C5572 C 0.14534 0.74898 0.66232 0.0
C5573 C 0.14808 0.73062 0.66066 0.0
C5574 C 0.15578 0.72302 0.64544 0.0
C5575 C 0.1606 0.73355 0.63167 0.0
C5576 C 0.1577 0.7517 0.63307 0.0
C5577 C 0.15007 0.75939 0.6483 0.0
H5578 H 0.16649 0.72761 0.61987 0.0
H5579 H 0.08906 0.80309 0.76441 0.0
H5580 H 0.10216 0.39106 0.40225 0.0
H5581 H 0.0997 0.42259 0.41717 0.0
H5582 H 0.13262 0.42064 0.46558 0.0
H5583 H 0.13394 0.38848 0.45107 0.0
H5584 H 0.10216 0.42337 0.47449 0.0
H5585 H 0.14301 0.45675 0.43587 0.0
H5586 H 0.15414 0.46499 0.40691 0.0
H5587 H 0.10475 0.4759 0.39074 0.0
H5588 H 0.09325 0.46749 0.41945 0.0
H5589 H 0.0981 0.51131 0.52942 0.0
H5590 H 0.10881 0.48623 0.51091 0.0
H5591 H 0.07207 0.48398 0.46402 0.0
H5592 H 0.06121 0.50875 0.48224 0.0
H5593 H 0.10471 0.48453 0.45413 0.0
H5594 H 0.06224 0.45014 0.48736 0.0
H5595 H 0.04754 0.44262 0.51482 0.0
H5596 H 0.09471 0.43204 0.53817 0.0
H5597 H 0.10981 0.43979 0.51095 0.0
C5598 C 0.10954 0.39783 0.41572 0.0
C5599 C 0.11833 0.38761 0.42558 0.0
C5600 C 0.10816 0.41588 0.42425 0.0
C5601 C 0.11597 0.42402 0.44254 0.0
C5602 C 0.12643 0.41459 0.45149 0.0
C5603 C 0.12733 0.39633 0.4432 0.0
C5604 C 0.11043 0.44001 0.4536 0.0
C5605 C 0.1032 0.43693 0.47021 0.0
C5606 C 0.11054 0.45718 0.44742 0.0
C5607 C 0.11723 0.4613 0.42975 0.0
C5608 C 0.13445 0.46065 0.42603 0.0
C5609 C 0.14084 0.46543 0.40968 0.0
C5610 C 0.13015 0.47092 0.39698 0.0
C5611 C 0.11302 0.47161 0.40057 0.0
C5612 C 0.10657 0.46685 0.41687 0.0
C5613 C 0.09217 0.50533 0.51525 0.0
C5614 C 0.0786 0.51179 0.50743 0.0
C5615 C 0.09836 0.49111 0.5047 0.0
C5616 C 0.0911 0.48328 0.48621 0.0
C5617 C 0.07781 0.48993 0.47828 0.0
C5618 C 0.07158 0.50404 0.48879 0.0
C5619 C 0.09724 0.46799 0.47508 0.0
C5620 C 0.10415 0.47106 0.45844 0.0
C5621 C 0.09627 0.45054 0.48082 0.0
C5622 C 0.08724 0.44577 0.49721 0.0
C5623 C 0.06955 0.44639 0.49843 0.0
C5624 C 0.06112 0.44205 0.51393 0.0
C5625 C 0.07021 0.43692 0.52826 0.0
C5626 C 0.08771 0.43606 0.52708 0.0
C5627 C 0.0962 0.44041 0.51161 0.0
H5628 H 0.06367 0.43356 0.54026 0.0
H5629 H 0.13515 0.47469 0.38438 0.0
H5630 H 0.4723 0.29458 0.20324 0.0
H5631 H 0.44244 0.29477 0.21194 0.0
H5632 H 0.42471 0.23347 0.19247 0.0
H5633 H 0.45453 0.23314 0.18464 0.0
H5634 H 0.40095 0.26141 0.18345 0.0
H5635 H 0.42837 0.23442 0.22979 0.0
H5636 H 0.45426 0.23419 0.2504 0.0
H5637 H 0.45827 0.29199 0.27792 0.0
H5638 H 0.43247 0.29257 0.25726 0.0
H5639 H 0.32137 0.23811 0.22151 0.0
H5640 H 0.34994 0.23599 0.21184 0.0
H5641 H 0.376 0.28366 0.25633 0.0
H5642 H 0.34738 0.28203 0.26874 0.0
H5643 H 0.39621 0.26338 0.2508 0.0
H5644 H 0.36393 0.28632 0.20357 0.0
H5645 H 0.33469 0.28036 0.18541 0.0
H5646 H 0.33934 0.22543 0.15795 0.0
H5647 H 0.36825 0.23113 0.17632 0.0
C5648 C 0.46191 0.28127 0.20078 0.0
C5649 C 0.46546 0.26381 0.19372 0.0
C5650 C 0.44499 0.28139 0.20556 0.0
C5651 C 0.43162 0.26412 0.20272 0.0
C5652 C 0.43498 0.24687 0.19462 0.0
C5653 C 0.45193 0.24668 0.19038 0.0
C5654 C 0.41476 0.2636 0.21023 0.0
C5655 C 0.39981 0.26198 0.19816 0.0
C5656 C 0.41345 0.26391 0.22928 0.0
C5657 C 0.42867 0.2636 0.24194 0.0
C5658 C 0.43486 0.24711 0.24018 0.0
C5659 C 0.44949 0.2469 0.25186 0.0
C5660 C 0.45794 0.26309 0.26544 0.0
C5661 C 0.45172 0.27948 0.26739 0.0
C5662 C 0.4371 0.27975 0.25571 0.0
C5663 C 0.33325 0.24809 0.22922 0.0
C5664 C 0.33228 0.26166 0.24484 0.0
C5665 C 0.34956 0.24713 0.22347 0.0
C5666 C 0.36505 0.26083 0.23224 0.0
C5667 C 0.36417 0.27348 0.24874 0.0
C5668 C 0.34786 0.27317 0.25547 0.0
C5669 C 0.38208 0.26193 0.22423 0.0
C5670 C 0.3972 0.26339 0.23616 0.0
C5671 C 0.38342 0.26109 0.2049 0.0
C5672 C 0.36791 0.25911 0.19152 0.0
C5673 C 0.3586 0.27315 0.19354 0.0
C5674 C 0.34211 0.26972 0.18335 0.0
C5675 C 0.33503 0.25234 0.17081 0.0
C5676 C 0.34476 0.23877 0.16784 0.0
C5677 C 0.36122 0.24215 0.1781 0.0
H5678 H 0.32204 0.2494 0.16333 0.0
H5679 H 0.46927 0.26291 0.27447 0.0
H5680 H 0.61333 0.52062 0.31946 0.0
H5681 H 0.60055 0.52046 0.34892 0.0
H5682 H 0.65186 0.52545 0.37691 0.0
H5683 H 0.66403 0.52325 0.34687 0.0
H5684 H 0.63398 0.51019 0.39735 0.0
H5685 H 0.62191 0.5647 0.37644 0.0
H5686 H 0.61003 0.58151 0.35462 0.0
H5687 H 0.55772 0.54511 0.35418 0.0
H5688 H 0.56933 0.52799 0.37587 0.0
H5689 H 0.60863 0.54421 0.48873 0.0
H5690 H 0.6208 0.54104 0.45866 0.0
H5691 H 0.56807 0.51757 0.43052 0.0
H5692 H 0.55593 0.52043 0.46053 0.0
H5693 H 0.58632 0.54208 0.41096 0.0
H5694 H 0.59956 0.49002 0.43489 0.0
H5695 H 0.61237 0.47519 0.4579 0.0
H5696 H 0.6643 0.5103 0.4543 0.0
H5697 H 0.65178 0.52553 0.43143 0.0
C5698 C 0.62197 0.52166 0.33185 0.0
C5699 C 0.63995 0.52206 0.33027 0.0
C5700 C 0.61462 0.52197 0.3492 0.0
C5701 C 0.62499 0.5239 0.36636 0.0
C5702 C 0.64301 0.5241 0.36461 0.0
C5703 C 0.65017 0.52293 0.3471 0.0
C5704 C 0.6173 0.52543 0.38571 0.0
C5705 C 0.62379 0.51756 0.40012 0.0
C5706 C 0.60353 0.53455 0.39039 0.0
C5707 C 0.59651 0.54498 0.37761 0.0
C5708 C 0.60789 0.56028 0.37164 0.0
C5709 C 0.6012 0.56984 0.3593 0.0
C5710 C 0.58314 0.56434 0.35298 0.0
C5711 C 0.57171 0.54933 0.35906 0.0
C5712 C 0.57833 0.53971 0.37139 0.0
C5713 C 0.59948 0.53815 0.47624 0.0
C5714 C 0.58101 0.53244 0.47773 0.0
C5715 C 0.60659 0.53628 0.45873 0.0
C5716 C 0.59564 0.52885 0.44158 0.0
C5717 C 0.57719 0.52332 0.44306 0.0
C5718 C 0.57012 0.52488 0.46057 0.0
C5719 C 0.60322 0.52714 0.42237 0.0
C5720 C 0.59664 0.53489 0.40806 0.0
C5721 C 0.61713 0.51831 0.41796 0.0
C5722 C 0.6247 0.50905 0.43157 0.0
C5723 C 0.6137 0.49467 0.43909 0.0
C5724 C 0.62091 0.48618 0.4521 0.0
C5725 C 0.63913 0.49184 0.45759 0.0
C5726 C 0.65019 0.50596 0.45005 0.0
C5727 C 0.64304 0.51451 0.43705 0.0
H5728 H 0.64469 0.48526 0.46766 0.0
H5729 H 0.578 0.57174 0.3434 0.0
H5730 H 0.30903 0.93676 0.07383 0.0
H5731 H 0.31428 0.92294 0.10103 0.0
H5732 H 0.32335 0.87399 0.06476 0.0
H5733 H 0.31731 0.88712 0.03785 0.0
H5734 H 0.29984 0.86298 0.08627 0.0
H5735 H 0.35731 0.90826 0.09385 0.0
H5736 H 0.37943 0.93963 0.09876 0.0
H5737 H 0.35919 0.95802 0.14984 0.0
H5738 H 0.33684 0.9268 0.14515 0.0
H5739 H 0.34677 0.81966 0.14348 0.0
H5740 H 0.33648 0.83631 0.12082 0.0
H5741 H 0.31805 0.87156 0.16459 0.0
H5742 H 0.32825 0.85493 0.18729 0.0
H5743 H 0.34264 0.89152 0.14265 0.0
H5744 H 0.28666 0.84277 0.13412 0.0
H5745 H 0.26643 0.81014 0.12777 0.0
H5746 H 0.2877 0.79699 0.07604 0.0
H5747 H 0.30805 0.8295 0.08218 0.0
C5748 C 0.31198 0.92297 0.07182 0.0
C5749 C 0.31217 0.91262 0.05387 0.0
C5750 C 0.31522 0.91527 0.08727 0.0
C5751 C 0.31912 0.89745 0.0848 0.0
C5752 C 0.32011 0.88764 0.06688 0.0
C5753 C 0.31646 0.89504 0.05154 0.0
C5754 C 0.32038 0.88779 0.10042 0.0
C5755 C 0.30934 0.8692 0.09854 0.0
C5756 C 0.33235 0.8962 0.11663 0.0
C5757 C 0.3452 0.9153 0.11898 0.0
C5758 C 0.35739 0.91909 0.10598 0.0
C5759 C 0.37003 0.93681 0.10877 0.0
C5760 C 0.37066 0.95084 0.12455 0.0
C5761 C 0.35865 0.94717 0.13758 0.0
C5762 C 0.346 0.92947 0.13487 0.0
C5763 C 0.3404 0.83086 0.14817 0.0
C5764 C 0.33841 0.8362 0.16703 0.0
C5765 C 0.33439 0.84018 0.13528 0.0
C5766 C 0.32648 0.855 0.14117 0.0
C5767 C 0.32406 0.86004 0.1599 0.0
C5768 C 0.32987 0.85058 0.17277 0.0
C5769 C 0.3226 0.86655 0.12801 0.0
C5770 C 0.33304 0.88551 0.13045 0.0
C5771 C 0.31049 0.85833 0.11197 0.0
C5772 C 0.29897 0.83847 0.10874 0.0
C5773 C 0.28716 0.83281 0.12155 0.0
C5774 C 0.27562 0.81438 0.11793 0.0
C5775 C 0.27582 0.80148 0.10154 0.0
C5776 C 0.28757 0.80698 0.08874 0.0
C5777 C 0.29908 0.82541 0.09228 0.0
H5778 H 0.26684 0.78724 0.09873 0.0
H5779 H 0.3805 0.96451 0.12673 0.0
H5780 H 0.9465 0.58274 0.876 0.0
H5781 H 0.95894 0.58237 0.90729 0.0
H5782 H 0.9826 0.53761 0.88417 0.0
H5783 H 0.97045 0.53793 0.85309 0.0
H5784 H 0.96757 0.5325 0.91757 0.0
H5785 H 0.00702 0.5802 0.89035 0.0
H5786 H 0.0147 0.60874 0.87621 0.0
H5787 H 1.00102 0.6426 0.92418 0.0
H5788 H 0.99303 0.61414 0.93848 0.0
H5789 H 0.04536 0.53754 0.97255 0.0
H5790 H 0.02497 0.53902 0.94653 0.0
H5791 H 0.0094 0.58458 0.98145 0.0
H5792 H 0.02966 0.58298 0.00737 0.0
H5793 H 0.01576 0.59058 0.94595 0.0
H5794 H 0.98352 0.5425 0.97594 0.0
H5795 H 0.97714 0.51334 0.98916 0.0
H5796 H 0.9785 0.47916 0.93571 0.0
H5797 H 0.98525 0.50814 0.92221 0.0
C5798 C 0.9543 0.5728 0.87767 0.0
C5799 C 0.95784 0.56064 0.86221 0.0
C5800 C 0.96121 0.5725 0.89545 0.0
C5801 C 0.97155 0.55992 0.8978 0.0
C5802 C 0.9745 0.54727 0.88248 0.0
C5803 C 0.96779 0.54771 0.86477 0.0
C5804 C 0.98117 0.56135 0.91582 0.0
C5805 C 0.97808 0.54516 0.92392 0.0
C5806 C 0.99461 0.57803 0.92399 0.0
C5807 C 0.99916 0.59503 0.91532 0.0
C5808 C 0.00546 0.59369 0.89777 0.0
C5809 C 0.00991 0.60985 0.88975 0.0
C5810 C 0.00827 0.62746 0.89925 0.0
C5811 C 1.00222 0.62894 0.91681 0.0
C5812 C 0.99772 0.61281 0.92487 0.0
C5813 C 0.03804 0.54831 0.97427 0.0
C5814 C 0.03916 0.56053 0.99145 0.0
C5815 C 0.02625 0.5489 0.95969 0.0
C5816 C 0.0156 0.56166 0.96242 0.0
C5817 C 0.01753 0.57462 0.97931 0.0
C5818 C 0.02921 0.57392 0.99389 0.0
C5819 C 1.00249 0.56158 0.94753 0.0
C5820 C 0.00495 0.57805 0.94 0.0
C5821 C 0.98864 0.54504 0.93985 0.0
C5822 C 0.98502 0.52758 0.94806 0.0
C5823 C 0.98269 0.52881 0.96703 0.0
C5824 C 0.97896 0.51229 0.97457 0.0
C5825 C 0.9774 0.49441 0.96327 0.0
C5826 C 0.97969 0.49302 0.94444 0.0
C5827 C 0.98346 0.5095 0.93683 0.0
H5828 H 0.97434 0.4816 0.96906 0.0
H5829 H 0.01176 0.63996 0.89304 0.0
H5830 H 0.34268 0.2291 0.56589 0.0
H5831 H 0.343 0.24332 0.59874 0.0
H5832 H 0.28771 0.24149 0.58889 0.0
H5833 H 0.28804 0.22911 0.55581 0.0
H5834 H 0.29973 0.26972 0.61327 0.0
H5835 H 0.30774 0.20569 0.60913 0.0
H5836 H 0.32305 0.18042 0.60054 0.0
H5837 H 0.37049 0.21621 0.63375 0.0
H5838 H 0.35549 0.24174 0.64241 0.0
H5839 H 0.2894 0.24104 0.70885 0.0
H5840 H 0.2919 0.23611 0.67544 0.0
H5841 H 0.32301 0.29464 0.68236 0.0
H5842 H 0.31908 0.30005 0.71558 0.0
H5843 H 0.32513 0.24068 0.66042 0.0
H5844 H 0.31451 0.30728 0.65751 0.0
H5845 H 0.29575 0.32923 0.66578 0.0
H5846 H 0.24911 0.28336 0.64453 0.0
H5847 H 0.26761 0.26096 0.63709 0.0
C5848 C 0.33076 0.23225 0.57072 0.0
C5849 C 0.31541 0.22824 0.55822 0.0
C5850 C 0.33081 0.24006 0.58965 0.0
C5851 C 0.3152 0.24302 0.59681 0.0
C5852 C 0.30001 0.23947 0.58407 0.0
C5853 C 0.30018 0.2324 0.56504 0.0
C5854 C 0.31437 0.2493 0.61742 0.0
C5855 C 0.30542 0.26331 0.62344 0.0
C5856 C 0.32167 0.24119 0.63117 0.0
C5857 C 0.33054 0.22568 0.62627 0.0
C5858 C 0.32144 0.20817 0.61456 0.0
C5859 C 0.33007 0.19381 0.60968 0.0
C5860 C 0.34775 0.19673 0.61655 0.0
C5861 C 0.35681 0.21398 0.62841 0.0
C5862 C 0.34825 0.22839 0.63333 0.0
C5863 C 0.29587 0.25318 0.70305 0.0
C5864 C 0.30316 0.27122 0.71475 0.0
C5865 C 0.29758 0.25025 0.68395 0.0
C5866 C 0.30728 0.26508 0.67604 0.0
C5867 C 0.31469 0.28317 0.68772 0.0
C5868 C 0.31243 0.28629 0.7068 0.0
C5869 C 0.31056 0.26095 0.65598 0.0
C5870 C 0.3198 0.24723 0.65012 0.0
C5871 C 0.30338 0.26907 0.64235 0.0
C5872 C 0.29237 0.28242 0.6472 0.0
C5873 C 0.30024 0.30182 0.65501 0.0
C5874 C 0.28966 0.31434 0.65951 0.0
C5875 C 0.27125 0.30769 0.6557 0.0
C5876 C 0.26337 0.28848 0.64754 0.0
C5877 C 0.27387 0.27583 0.64336 0.0
H5878 H 0.26308 0.31743 0.65905 0.0
H5879 H 0.35442 0.18562 0.61271 0.0
H5880 H 0.64434 0.53859 0.22839 0.0
H5881 H 0.63202 0.54375 0.19921 0.0
H5882 H 0.63069 0.48609 0.17284 0.0
H5883 H 0.64508 0.48187 0.20183 0.0
H5884 H 0.63409 0.50093 0.1468 0.0
H5885 H 0.59022 0.51167 0.18843 0.0
H5886 H 0.58002 0.52702 0.21687 0.0
H5887 H 0.60081 0.58237 0.2038 0.0
H5888 H 0.61119 0.56735 0.17534 0.0
H5889 H 0.58453 0.50434 0.06347 0.0
H5890 H 0.59346 0.49794 0.0931 0.0
H5891 H 0.59557 0.55568 0.11951 0.0
H5892 H 0.58341 0.56075 0.09028 0.0
H5893 H 0.59173 0.54055 0.14546 0.0
H5894 H 0.63596 0.5289 0.10362 0.0
H5895 H 0.64462 0.51267 0.07463 0.0
H5896 H 0.6217 0.45787 0.08795 0.0
H5897 H 0.61287 0.47379 0.11696 0.0
C5898 C 0.64125 0.52681 0.2165 0.0
C5899 C 0.6456 0.50958 0.21814 0.0
C5900 C 0.63377 0.5297 0.19942 0.0
C5901 C 0.62918 0.51518 0.18298 0.0
C5902 C 0.63361 0.49788 0.1847 0.0
C5903 C 0.64184 0.49529 0.20164 0.0
C5904 C 0.62046 0.51808 0.16425 0.0
C5905 C 0.62465 0.50945 0.14684 0.0
C5906 C 0.60817 0.52946 0.16304 0.0
C5907 C 0.60158 0.53841 0.17987 0.0
C5908 C 0.59261 0.52711 0.19165 0.0
C5909 C 0.58681 0.53575 0.20776 0.0
C5910 C 0.5898 0.55566 0.21216 0.0
C5911 C 0.59851 0.56696 0.20038 0.0
C5912 C 0.60431 0.5584 0.18424 0.0
C5913 C 0.58659 0.51584 0.07542 0.0
C5914 C 0.58371 0.53369 0.07326 0.0
C5915 C 0.59241 0.51223 0.09283 0.0
C5916 C 0.59698 0.5266 0.10932 0.0
C5917 C 0.59306 0.54408 0.10751 0.0
C5918 C 0.58628 0.54731 0.09018 0.0
C5919 C 0.6054 0.52345 0.12807 0.0
C5920 C 0.60118 0.53205 0.14547 0.0
C5921 C 0.61758 0.51196 0.12927 0.0
C5922 C 0.62371 0.50252 0.11237 0.0
C5923 C 0.63286 0.5134 0.10038 0.0
C5924 C 0.63776 0.50425 0.08394 0.0
C5925 C 0.63369 0.48425 0.07944 0.0
C5926 C 0.62485 0.47335 0.09145 0.0
C5927 C 0.61995 0.48242 0.10792 0.0
H5928 H 0.6374 0.4772 0.06666 0.0
H5929 H 0.58535 0.56232 0.22467 0.0
H5930 H 0.29152 0.89272 0.94041 0.0
H5931 H 0.29697 0.87803 0.90921 0.0
H5932 H 0.35116 0.88385 0.92962 0.0
H5933 H 0.34563 0.89768 0.96077 0.0
H5934 H 0.33849 0.8932 0.88851 0.0
H5935 H 0.33791 0.84649 0.92958 0.0
H5936 H 0.32482 0.83013 0.95393 0.0
H5937 H 0.27435 0.81068 0.92072 0.0
H5938 H 0.28712 0.82725 0.89632 0.0
H5939 H 0.3471 0.82342 0.80919 0.0
H5940 H 0.35275 0.8426 0.84098 0.0
H5941 H 0.29692 0.82475 0.84689 0.0
H5942 H 0.29143 0.80613 0.81559 0.0
H5943 H 0.3167 0.82223 0.8767 0.0
H5944 H 0.31386 0.87188 0.83947 0.0
H5945 H 0.32365 0.89034 0.81531 0.0
H5946 H 0.37764 0.90377 0.83948 0.0
H5947 H 0.36806 0.8856 0.86392 0.0
C5948 C 0.30457 0.89095 0.93808 0.0
C5949 C 0.31806 0.89579 0.9528 0.0
C5950 C 0.3077 0.88279 0.92039 0.0
C5951 C 0.32446 0.88004 0.91739 0.0
C5952 C 0.33821 0.88601 0.93185 0.0
C5953 C 0.33496 0.89362 0.94956 0.0
C5954 C 0.32689 0.86852 0.89991 0.0
C5955 C 0.33406 0.87768 0.88593 0.0
C5956 C 0.32102 0.84839 0.89678 0.0
C5957 C 0.3134 0.83826 0.91128 0.0
C5958 C 0.32398 0.83888 0.92758 0.0
C5959 C 0.31664 0.82954 0.94136 0.0
C5960 C 0.29875 0.81942 0.9389 0.0
C5961 C 0.28819 0.81856 0.92263 0.0
C5962 C 0.29547 0.82791 0.90882 0.0
C5963 C 0.33614 0.82338 0.81749 0.0
C5964 C 0.31882 0.81274 0.81018 0.0
C5965 C 0.33936 0.83441 0.83549 0.0
C5966 C 0.32522 0.835 0.84616 0.0
C5967 C 0.30804 0.82421 0.83892 0.0
C5968 C 0.30489 0.81322 0.82109 0.0
C5969 C 0.32786 0.84683 0.8649 0.0
C5970 C 0.32165 0.83773 0.87931 0.0
C5971 C 0.33445 0.86698 0.86828 0.0
C5972 C 0.34029 0.87733 0.85336 0.0
C5973 C 0.32782 0.87871 0.83953 0.0
C5974 C 0.33332 0.88918 0.82586 0.0
C5975 C 0.35127 0.89821 0.82585 0.0
C5976 C 0.36375 0.89679 0.83952 0.0
C5977 C 0.35829 0.88648 0.85332 0.0
H5978 H 0.35551 0.90633 0.81527 0.0
H5979 H 0.29308 0.81219 0.94959 0.0
H5980 H 0.92087 0.56318 0.74524 0.0
H5981 H 0.93318 0.55746 0.71539 0.0
H5982 H 0.9815 0.55439 0.74444 0.0
H5983 H 0.96972 0.56061 0.77394 0.0
H5984 H 0.98652 0.58067 0.72223 0.0
H5985 H 0.95219 0.51453 0.72014 0.0
H5986 H 0.92495 0.48828 0.71781 0.0
H5987 H 0.90587 0.50089 0.66687 0.0
H5988 H 0.93292 0.52734 0.66901 0.0
H5989 H 0.04282 0.53972 0.6703 0.0
H5990 H 0.02165 0.54707 0.69149 0.0
H5991 H 0.98313 0.54096 0.64487 0.0
H5992 H 1.00363 0.532 0.62362 0.0
H5993 H 0.96807 0.52417 0.67033 0.0
H5994 H 0.00615 0.58749 0.67133 0.0
H5995 H 0.03443 0.61251 0.67453 0.0
H5996 H 0.04749 0.60361 0.72918 0.0
H5997 H 0.01935 0.57856 0.72629 0.0
C5998 C 0.93417 0.56145 0.74514 0.0
C5999 C 0.94459 0.56289 0.76182 0.0
C6000 C 0.94103 0.55795 0.72817 0.0
C6001 C 0.95818 0.55561 0.7279 0.0
C6002 C 0.96827 0.55637 0.74451 0.0
C6003 C 0.96161 0.56016 0.76134 0.0
C6004 C 0.96677 0.55423 0.71081 0.0
C6005 C 0.98249 0.56834 0.7108 0.0
C6006 C 0.96098 0.53852 0.6957 0.0
C6007 C 0.94443 0.52314 0.69491 0.0
C6008 C 0.94206 0.5119 0.7086 0.0
C6009 C 0.9267 0.49692 0.70727 0.0
C6010 C 0.91365 0.49298 0.69225 0.0
C6011 C 0.91595 0.504 0.67853 0.0
C6012 C 0.93129 0.51898 0.6798 0.0
C6013 C 0.02977 0.53966 0.66457 0.0
C6014 C 0.02498 0.53548 0.64531 0.0
C6015 C 0.01781 0.54421 0.67665 0.0
C6016 C 1.00107 0.54513 0.66965 0.0
C6017 C 0.9961 0.5406 0.65048 0.0
C6018 C 0.00791 0.53566 0.63839 0.0
C6019 C 0.98852 0.54994 0.6825 0.0
C6020 C 0.97191 0.53673 0.68149 0.0
C6021 C 0.9936 0.56632 0.69698 0.0
C6022 C 0.01067 0.58113 0.69855 0.0
C6023 C 0.01511 0.59081 0.68397 0.0
C6024 C 0.0311 0.60502 0.68575 0.0
C6025 C 0.04275 0.60963 0.70204 0.0
C6026 C 0.03845 0.60005 0.71658 0.0
C6027 C 0.02247 0.5859 0.7149 0.0
H6028 H 0.05511 0.62064 0.70339 0.0
H6029 H 0.9018 0.48134 0.69121 0.0
H6030 H 0.32086 0.25247 0.4616 0.0
H6031 H 0.32353 0.26073 0.43091 0.0
H6032 H 0.30138 0.20115 0.40503 0.0
H6033 H 0.30049 0.19283 0.43581 0.0
H6034 H 0.32227 0.21381 0.38387 0.0
H6035 H 0.27725 0.24113 0.41179 0.0
H6036 H 0.26576 0.26138 0.43591 0.0
H6037 H 0.30546 0.31113 0.42924 0.0
H6038 H 0.31724 0.29114 0.40519 0.0
H6039 H 0.29091 0.22987 0.2962 0.0
H6040 H 0.29363 0.22174 0.32681 0.0
H6041 H 0.32472 0.27949 0.3496 0.0
H6042 H 0.32162 0.28769 0.31932 0.0
H6043 H 0.30031 0.26856 0.37191 0.0
H6044 H 0.34383 0.2415 0.34246 0.0
H6045 H 0.35394 0.22162 0.31686 0.0
H6046 H 0.31574 0.1715 0.32515 0.0
H6047 H 0.3053 0.19113 0.35072 0.0
C6048 C 0.31681 0.24115 0.44932 0.0
C6049 C 0.31047 0.22201 0.45112 0.0
C6050 C 0.31806 0.24589 0.43166 0.0
C6051 C 0.31203 0.23174 0.41527 0.0
C6052 C 0.30609 0.21251 0.4172 0.0
C6053 C 0.30552 0.2077 0.43486 0.0
C6054 C 0.31154 0.23685 0.39624 0.0
C6055 C 0.31722 0.22565 0.38135 0.0
C6056 C 0.30541 0.25259 0.39255 0.0
C6057 C 0.2982 0.26462 0.40684 0.0
C6058 C 0.28355 0.25637 0.41553 0.0
C6059 C 0.27699 0.2678 0.42918 0.0
C6060 C 0.28491 0.28752 0.43414 0.0
C6061 C 0.29935 0.29586 0.4254 0.0
C6062 C 0.30595 0.28449 0.41175 0.0
C6063 C 0.29801 0.24098 0.30771 0.0
C6064 C 0.30532 0.25977 0.30516 0.0
C6065 C 0.29984 0.23621 0.32527 0.0
C6066 C 0.30931 0.25001 0.34074 0.0
C6067 C 0.31715 0.26856 0.33807 0.0
C6068 C 0.31532 0.27328 0.32057 0.0
C6069 C 0.31076 0.24539 0.35975 0.0
C6070 C 0.30532 0.25672 0.37456 0.0
C6071 C 0.31699 0.22975 0.36329 0.0
C6072 C 0.32373 0.2178 0.34845 0.0
C6073 C 0.33758 0.22624 0.33881 0.0
C6074 C 0.34336 0.21502 0.3243 0.0
C6075 C 0.33547 0.19531 0.31936 0.0
C6076 C 0.32185 0.18677 0.329 0.0
C6077 C 0.31603 0.19792 0.34354 0.0
H6078 H 0.33992 0.18666 0.30807 0.0
H6079 H 0.27983 0.29633 0.44472 0.0
H6080 H 0.33575 0.60931 0.54592 0.0
H6081 H 0.36486 0.60304 0.54545 0.0
H6082 H 0.37065 0.62146 0.49318 0.0
H6083 H 0.34158 0.62816 0.49368 0.0
H6084 H 0.37303 0.58227 0.49568 0.0
H6085 H 0.39632 0.64881 0.52582 0.0
H6086 H 0.39723 0.67698 0.55013 0.0
H6087 H 0.41005 0.64755 0.59221 0.0
H6088 H 0.40898 0.61908 0.56815 0.0
H6089 H 0.45229 0.56281 0.48123 0.0
H6090 H 0.43254 0.58385 0.48602 0.0
H6091 H 0.43159 0.57786 0.54329 0.0
H6092 H 0.45205 0.55746 0.53867 0.0
H6093 H 0.42785 0.61324 0.53897 0.0
H6094 H 0.40172 0.54718 0.51297 0.0
H6095 H 0.39832 0.51635 0.49147 0.0
H6096 H 0.38731 0.54144 0.44524 0.0
H6097 H 0.39099 0.57256 0.46647 0.0
C6098 C 0.34325 0.6121 0.53436 0.0
C6099 C 0.33641 0.61896 0.51969 0.0
C6100 C 0.35991 0.60875 0.53426 0.0
C6101 C 0.3698 0.61204 0.5194 0.0
C6102 C 0.36314 0.6191 0.50483 0.0
C6103 C 0.34658 0.62277 0.50508 0.0
C6104 C 0.38604 0.60579 0.518 0.0
C6105 C 0.38518 0.58929 0.50481 0.0
C6106 C 0.40138 0.6145 0.5307 0.0
C6107 C 0.40247 0.63176 0.54517 0.0
C6108 C 0.39923 0.6483 0.54026 0.0
C6109 C 0.3998 0.66433 0.55399 0.0
C6110 C 0.40367 0.66404 0.5727 0.0
C6111 C 0.40706 0.64775 0.57771 0.0
C6112 C 0.40651 0.63167 0.56402 0.0
C6113 C 0.44803 0.56628 0.49487 0.0
C6114 C 0.45308 0.55824 0.50947 0.0
C6115 C 0.43696 0.57838 0.49766 0.0
C6116 C 0.43039 0.58201 0.5149 0.0
C6117 C 0.43652 0.57515 0.5299 0.0
C6118 C 0.44794 0.56336 0.5272 0.0
C6119 C 0.41499 0.59 0.51619 0.0
C6120 C 0.41584 0.60651 0.52956 0.0
C6121 C 0.39928 0.58097 0.50406 0.0
C6122 C 0.39683 0.56224 0.49126 0.0
C6123 C 0.39871 0.54616 0.4982 0.0
C6124 C 0.39673 0.52864 0.48607 0.0
C6125 C 0.39265 0.52695 0.467 0.0
C6126 C 0.39051 0.54278 0.46002 0.0
C6127 C 0.39254 0.56037 0.47209 0.0
H6128 H 0.39111 0.51337 0.45762 0.0
H6129 H 0.40407 0.67646 0.58332 0.0
H6130 H 0.86008 0.95546 0.52897 0.0
H6131 H 0.89055 0.97472 0.52842 0.0
H6132 H 0.91091 0.93149 0.54753 0.0
H6133 H 0.88054 0.91184 0.54736 0.0
H6134 H 0.92774 0.97253 0.5669 0.0
H6135 H 0.91526 0.93031 0.50822 0.0
H6136 H 0.89806 0.91308 0.47826 0.0
H6137 H 0.90146 0.96655 0.46116 0.0
H6138 H 0.91843 0.98415 0.49124 0.0
H6139 H 0.01795 1.00158 0.54722 0.0
H6140 H 0.98765 0.98354 0.54948 0.0
H6141 H 0.96732 0.02163 0.52152 0.0
H6142 H 0.99772 0.03978 0.51916 0.0
H6143 H 0.95033 0.98295 0.50698 0.0
H6144 H 0.9657 0.02443 0.56773 0.0
H6145 H 0.98415 0.03873 0.59768 0.0
H6146 H 0.97688 0.98292 0.61077 0.0
H6147 H 0.95861 0.96825 0.58076 0.0
C6148 C 0.87105 0.95008 0.53308 0.0
C6149 C 0.86785 0.93206 0.53813 0.0
C6150 C 0.88847 0.96109 0.53274 0.0
C6151 C 0.90308 0.95459 0.53795 0.0
C6152 C 0.89991 0.93684 0.54348 0.0
C6153 C 0.88252 0.92558 0.5433 0.0
C6154 C 0.92162 0.96611 0.53719 0.0
C6155 C 0.93273 0.97469 0.5538 0.0
C6156 C 0.9282 0.96898 0.52013 0.0
C6157 C 0.91786 0.95857 0.5021 0.0
C6158 C 0.91212 0.93842 0.49818 0.0
C6159 C 0.90247 0.92858 0.48116 0.0
C6160 C 0.8986 0.93872 0.46784 0.0
C6161 C 0.90442 0.95872 0.47152 0.0
C6162 C 0.91405 0.96864 0.48856 0.0
C6163 C 0.00706 0.00629 0.5417 0.0
C6164 C 0.01038 0.02234 0.53318 0.0
C6165 C 0.98968 0.99593 0.54303 0.0
C6166 C 0.97506 1.00121 0.53579 0.0
C6167 C 0.97831 0.01724 0.52728 0.0
C6168 C 0.99574 0.02776 0.52611 0.0
C6169 C 0.95647 0.98973 0.53675 0.0
C6170 C 0.94533 0.98102 0.52013 0.0
C6171 C 0.95002 0.9864 0.55382 0.0
C6172 C 0.96092 0.99522 0.57191 0.0
C6173 C 0.96815 0.01519 0.57693 0.0
C6174 C 0.97856 0.02336 0.59393 0.0
C6175 C 0.98172 0.01174 0.6061 0.0
C6176 C 0.97444 0.99191 0.60132 0.0
C6177 C 0.96404 0.98366 0.58432 0.0
H6178 H 0.98978 0.01809 0.61926 0.0
H6179 H 0.89115 0.93107 0.45465 0.0
H6180 H 0.87152 0.10164 0.25243 0.0
H6181 H 0.85756 0.128 0.25542 0.0
H6182 H 0.90869 0.16859 0.27128 0.0
H6183 H 0.9224 0.14182 0.27024 0.0
H6184 H 0.89003 0.18767 0.28609 0.0
H6185 H 0.87644 0.15369 0.22204 0.0
H6186 H 0.865 0.12486 0.19722 0.0
H6187 H 0.81374 0.11576 0.21708 0.0
H6188 H 0.82493 0.14446 0.24206 0.0
H6189 H 0.84039 0.24574 0.23138 0.0
H6190 H 0.85301 0.21898 0.23385 0.0
H6191 H 0.84006 0.22186 0.29009 0.0
H6192 H 0.82731 0.24903 0.28762 0.0
H6193 H 0.83983 0.18227 0.23951 0.0
H6194 H 0.86433 0.2126 0.31179 0.0
H6195 H 0.87774 0.24365 0.33324 0.0
H6196 H 0.90993 0.2629 0.29163 0.0
H6197 H 0.89668 0.23196 0.26998 0.0
C6198 C 0.87993 0.11614 0.25657 0.0
C6199 C 0.89838 0.11902 0.26085 0.0
C6200 C 0.87182 0.13165 0.258 0.0
C6201 C 0.88168 0.15129 0.26272 0.0
C6202 C 0.90018 0.15413 0.26736 0.0
C6203 C 0.90822 0.13852 0.26667 0.0
C6204 C 0.87288 0.16841 0.26265 0.0
C6205 C 0.87897 0.18604 0.27585 0.0
C6206 C 0.85845 0.16777 0.24939 0.0
C6207 C 0.85154 0.15109 0.23394 0.0
C6208 C 0.86273 0.14555 0.22105 0.0
C6209 C 0.85629 0.12922 0.20699 0.0
C6210 C 0.83867 0.11847 0.2056 0.0
C6211 C 0.82739 0.1241 0.21817 0.0
C6212 C 0.83375 0.14041 0.23225 0.0
C6213 C 0.84002 0.24073 0.24437 0.0
C6214 C 0.83242 0.24997 0.25916 0.0
C6215 C 0.84742 0.22517 0.24578 0.0
C6216 C 0.84811 0.2179 0.26225 0.0
C6217 C 0.84037 0.22696 0.27718 0.0
C6218 C 0.83273 0.24258 0.27569 0.0
C6219 C 0.85653 0.20088 0.26324 0.0
C6220 C 0.85063 0.18351 0.24997 0.0
C6221 C 0.87119 0.20189 0.27618 0.0
C6222 C 0.87957 0.22006 0.28937 0.0
C6223 C 0.87437 0.22343 0.30732 0.0
C6224 C 0.8819 0.24101 0.31947 0.0
C6225 C 0.89473 0.25521 0.31382 0.0
C6226 C 0.90002 0.25188 0.29599 0.0
C6227 C 0.89251 0.23435 0.28379 0.0
H6228 H 0.90055 0.2688 0.32323 0.0
H6229 H 0.83374 0.10578 0.19477 0.0
H6230 H 0.74134 0.09835 0.00937 0.0
H6231 H 0.71094 0.08658 0.01547 0.0
H6232 H 0.70168 0.14155 0.01297 0.0
H6233 H 0.73266 0.15384 0.00783 0.0
H6234 H 0.6908 0.13083 0.04303 0.0
H6235 H 0.68236 0.1006 0.9788 0.0
H6236 H 0.68854 0.08146 0.95006 0.0
H6237 H 0.68108 0.03232 0.97551 0.0
H6238 H 0.67506 0.05122 0.00448 0.0
H6239 H 0.59749 0.09733 0.03402 0.0
H6240 H 0.6292 0.11204 0.03827 0.0
H6241 H 0.63864 0.05689 0.03965 0.0
H6242 H 0.60691 0.04193 0.03297 0.0
H6243 H 0.6499 0.06869 0.01137 0.0
H6244 H 0.65703 0.10122 0.07654 0.0
H6245 H 0.6491 0.12187 0.10328 0.0
H6246 H 0.65579 0.16769 0.0734 0.0
H6247 H 0.66408 0.14754 0.04666 0.0
C6248 C 0.73272 0.10779 0.00955 0.0
C6249 C 0.73928 0.127 0.00817 0.0
C6250 C 0.71534 0.10104 0.01306 0.0
C6251 C 0.7041 0.1132 0.01457 0.0
C6252 C 0.71026 0.13203 0.01193 0.0
C6253 C 0.72783 0.13895 0.00883 0.0
C6254 C 0.68637 0.10652 0.02029 0.0
C6255 C 0.68172 0.11731 0.03605 0.0
C6256 C 0.67478 0.0888 0.01131 0.0
C6257 C 0.67838 0.07738 0.99386 0.0
C6258 C 0.68216 0.08575 0.97831 0.0
C6259 C 0.68561 0.07494 0.96197 0.0
C6260 C 0.68523 0.0557 0.96097 0.0
C6261 C 0.68137 0.04722 0.9763 0.0
C6262 C 0.67791 0.05797 0.99267 0.0
C6263 C 0.60641 0.08858 0.03604 0.0
C6264 C 0.60001 0.06868 0.03358 0.0
C6265 C 0.62453 0.09702 0.03877 0.0
C6266 C 0.63632 0.08557 0.03938 0.0
C6267 C 0.62972 0.06594 0.03922 0.0
C6268 C 0.61163 0.05739 0.0355 0.0
C6269 C 0.6544 0.09261 0.03458 0.0
C6270 C 0.65906 0.082 0.01871 0.0
C6271 C 0.66574 0.11063 0.04328 0.0
C6272 C 0.66117 0.12285 0.0596 0.0
C6273 C 0.65681 0.1157 0.07568 0.0
C6274 C 0.65226 0.12731 0.09083 0.0
C6275 C 0.65181 0.14599 0.08997 0.0
C6276 C 0.65614 0.15322 0.07405 0.0
C6277 C 0.6609 0.14177 0.05896 0.0
H6278 H 0.64817 0.15489 0.10167 0.0
H6279 H 0.6879 0.04735 0.9483 0.0
H6280 H 0.20023 0.49134 0.26701 0.0
H6281 H 0.20769 0.46128 0.26818 0.0
H6282 H 0.24562 0.47302 0.22877 0.0
H6283 H 0.23829 0.50306 0.22746 0.0
H6284 H 0.22716 0.43354 0.22476 0.0
H6285 H 0.26124 0.48871 0.26994 0.0
H6286 H 0.26535 0.5171 0.29503 0.0
H6287 H 0.23665 0.48182 0.32968 0.0
H6288 H 0.23214 0.45323 0.30463 0.0
H6289 H 0.30278 0.40348 0.25041 0.0
H6290 H 0.2799 0.41832 0.2408 0.0
H6291 H 0.25038 0.40132 0.28549 0.0
H6292 H 0.27342 0.38682 0.29522 0.0
H6293 H 0.25896 0.43918 0.28672 0.0
H6294 H 0.2323 0.38212 0.24035 0.0
H6295 H 0.23021 0.35585 0.21354 0.0
H6296 H 0.24891 0.39677 0.17947 0.0
H6297 H 0.25123 0.42326 0.20608 0.0
C6298 C 0.20991 0.48732 0.25833 0.0
C6299 C 0.21902 0.49957 0.24746 0.0
C6300 C 0.214 0.47016 0.25891 0.0
C6301 C 0.22717 0.46523 0.2486 0.0
C6302 C 0.23532 0.47672 0.23669 0.0
C6303 C 0.23133 0.49393 0.23618 0.0
C6304 C 0.23466 0.45004 0.25261 0.0
C6305 C 0.23408 0.43454 0.23827 0.0
C6306 C 0.24355 0.45173 0.2703 0.0
C6307 C 0.24609 0.4689 0.28532 0.0
C6308 C 0.25562 0.48704 0.28282 0.0
C6309 C 0.25806 0.50316 0.29705 0.0
C6310 C 0.25119 0.50128 0.31391 0.0
C6311 C 0.2419 0.48326 0.31659 0.0
C6312 C 0.23939 0.4671 0.30238 0.0
C6313 C 0.29148 0.40326 0.25824 0.0
C6314 C 0.28999 0.39496 0.27395 0.0
C6315 C 0.27826 0.41118 0.25249 0.0
C6316 C 0.26342 0.41058 0.26232 0.0
C6317 C 0.26172 0.40171 0.2777 0.0
C6318 C 0.27495 0.39388 0.28347 0.0
C6319 C 0.25158 0.42234 0.25883 0.0
C6320 C 0.25153 0.43755 0.27332 0.0
C6321 C 0.24265 0.42061 0.24108 0.0
C6322 C 0.24209 0.40468 0.2253 0.0
C6323 C 0.23619 0.38552 0.22722 0.0
C6324 C 0.23489 0.37058 0.21202 0.0
C6325 C 0.23947 0.37463 0.19482 0.0
C6326 C 0.24538 0.39363 0.19279 0.0
C6327 C 0.24666 0.40861 0.20792 0.0
H6328 H 0.23841 0.36306 0.18306 0.0
H6329 H 0.25312 0.51376 0.32492 0.0
H6330 H 0.28304 0.46276 0.05287 0.0
H6331 H 0.25683 0.47484 0.05208 0.0
H6332 H 0.2249 0.4184 0.02538 0.0
H6333 H 0.25152 0.40669 0.02492 0.0
H6334 H 0.21189 0.44019 0.01141 0.0
H6335 H 0.22518 0.44114 0.07486 0.0
H6336 H 0.24261 0.44746 0.10541 0.0
H6337 H 0.25356 0.50805 0.10777 0.0
H6338 H 0.23635 0.5021 0.07713 0.0
H6339 H 0.13692 0.4803 0.02347 0.0
H6340 H 0.15695 0.46018 0.02827 0.0
H6341 H 0.20068 0.51094 0.04429 0.0
H6342 H 0.1808 0.53083 0.03998 0.0
H6343 H 0.20319 0.48626 0.06578 0.0
H6344 H 0.18929 0.48044 0.99784 0.0
H6345 H 0.16828 0.47006 0.96928 0.0
H6346 H 0.15382 0.41263 0.979 0.0
H6347 H 0.17461 0.42272 0.0077 0.0
C6348 C 0.27045 0.45295 0.04672 0.0
C6349 C 0.26943 0.43376 0.03894 0.0
C6350 C 0.25531 0.45981 0.0465 0.0
C6351 C 0.2385 0.44751 0.0392 0.0
C6352 C 0.23753 0.42833 0.03119 0.0
C6353 C 0.25281 0.42159 0.03092 0.0
C6354 C 0.2222 0.45488 0.03953 0.0
C6355 C 0.20994 0.45001 0.02349 0.0
C6356 C 0.21907 0.46747 0.05526 0.0
C6357 C 0.22959 0.47116 0.07362 0.0
C6358 C 0.23142 0.45581 0.08183 0.0
C6359 C 0.24124 0.45933 0.09918 0.0
C6360 C 0.24922 0.47814 0.10851 0.0
C6361 C 0.24738 0.49349 0.10052 0.0
C6362 C 0.23757 0.49005 0.08318 0.0
C6363 C 0.15074 0.48711 0.02839 0.0
C6364 C 0.15731 0.50717 0.03117 0.0
C6365 C 0.16225 0.4756 0.03092 0.0
C6366 C 0.18052 0.48395 0.03627 0.0
C6367 C 0.18675 0.50402 0.04003 0.0
C6368 C 0.17535 0.51543 0.03751 0.0
C6369 C 0.19358 0.47228 0.03746 0.0
C6370 C 0.20517 0.47627 0.05385 0.0
C6371 C 0.19564 0.45833 0.02234 0.0
C6372 C 0.18337 0.45237 0.00497 0.0
C6373 C 0.18156 0.46562 0.99391 0.0
C6374 C 0.1697 0.45979 0.9777 0.0
C6375 C 0.15969 0.44071 0.97235 0.0
C6376 C 0.16156 0.4274 0.98316 0.0
C6377 C 0.17338 0.43317 0.99939 0.0
H6378 H 0.15051 0.43622 0.95981 0.0
H6379 H 0.25681 0.48084 0.12194 0.0
H6380 H 0.92307 0.99725 0.25276 0.0
H6381 H 0.90675 0.96404 0.25213 0.0
H6382 H 0.86417 0.98353 0.27601 0.0
H6383 H 0.8804 0.0171 0.27609 0.0
H6384 H 0.8742 0.95346 0.29342 0.0
H6385 H 0.85835 0.96176 0.23131 0.0
H6386 H 0.86484 0.97022 0.20103 0.0
H6387 H 0.89432 0.92818 0.19124 0.0
H6388 H 0.88822 0.91966 0.22159 0.0
H6389 H 0.80964 0.86081 0.27785 0.0
H6390 H 0.8252 0.89431 0.27806 0.0
H6391 H 0.86599 0.87563 0.24952 0.0
H6392 H 0.85071 0.84207 0.24989 0.0
H6393 H 0.8572 0.9052 0.23449 0.0
H6394 H 0.87597 0.89639 0.29256 0.0
H6395 H 0.87454 0.88691 0.32298 0.0
H6396 H 0.84602 0.92837 0.34118 0.0
H6397 H 0.84698 0.93789 0.31065 0.0
C6398 C 0.91012 0.99463 0.25771 0.0
C6399 C 0.90321 0.01036 0.26425 0.0
C6400 C 0.9007 0.97536 0.25738 0.0
C6401 C 0.88395 0.97062 0.26402 0.0
C6402 C 0.87697 0.98629 0.27074 0.0
C6403 C 0.88627 0.0057 0.27063 0.0
C6404 C 0.87398 0.9495 0.26371 0.0
C6405 C 0.87014 0.94311 0.28043 0.0
C6406 C 0.86936 0.93515 0.24706 0.0
C6407 C 0.87295 0.94019 0.22879 0.0
C6408 C 0.86633 0.95443 0.22276 0.0
C6409 C 0.86992 0.95921 0.20558 0.0
C6410 C 0.88002 0.94977 0.19424 0.0
C6411 C 0.88652 0.93549 0.20005 0.0
C6412 C 0.88298 0.93067 0.21723 0.0
C6413 C 0.8218 0.86367 0.27139 0.0
C6414 C 0.82855 0.84822 0.26361 0.0
C6415 C 0.8309 0.8831 0.27166 0.0
C6416 C 0.84703 0.88812 0.26375 0.0
C6417 C 0.85365 0.87266 0.25569 0.0
C6418 C 0.84481 0.85325 0.25592 0.0
C6419 C 0.8569 0.90927 0.26413 0.0
C6420 C 0.86094 0.9156 0.24747 0.0
C6421 C 0.86224 0.92341 0.28088 0.0
C6422 C 0.86129 0.91765 0.29919 0.0
C6423 C 0.86916 0.90332 0.30294 0.0
C6424 C 0.8685 0.89797 0.32022 0.0
C6425 C 0.86015 0.90699 0.33398 0.0
C6426 C 0.85244 0.92137 0.33047 0.0
C6427 C 0.85304 0.92674 0.31317 0.0
H6428 H 0.85975 0.90289 0.34738 0.0
H6429 H 0.88278 0.9535 0.18094 0.0
H6430 H 0.74707 0.09866 0.75838 0.0
H6431 H 0.75902 0.13158 0.75549 0.0
H6432 H 0.70899 0.14363 0.76586 0.0
H6433 H 0.69645 0.11012 0.76809 0.0
H6434 H 0.72803 0.15729 0.73351 0.0
H6435 H 0.73705 0.16124 0.80117 0.0
H6436 H 0.74342 0.14285 0.82447 0.0
H6437 H 0.79364 0.14282 0.80424 0.0
H6438 H 0.78766 0.16143 0.78102 0.0
H6439 H 0.76672 0.25752 0.75953 0.0
H6440 H 0.75044 0.22394 0.74985 0.0
H6441 H 0.79913 0.20752 0.75763 0.0
H6442 H 0.81513 0.24125 0.76889 0.0
H6443 H 0.7777 0.19614 0.78071 0.0
H6444 H 0.76746 0.18038 0.71088 0.0
H6445 H 0.7594 0.18578 0.67971 0.0
H6446 H 0.71441 0.20352 0.69913 0.0
H6447 H 0.72176 0.19726 0.73014 0.0
C6448 C 0.73861 0.10829 0.76028 0.0
C6449 C 0.72089 0.10198 0.76355 0.0
C6450 C 0.74539 0.12696 0.75842 0.0
C6451 C 0.73474 0.13966 0.76044 0.0
C6452 C 0.71717 0.1337 0.76413 0.0
C6453 C 0.71021 0.1148 0.76567 0.0
C6454 C 0.74277 0.15949 0.75981 0.0
C6455 C 0.73861 0.16617 0.74396 0.0
C6456 C 0.75686 0.17034 0.77321 0.0
C6457 C 0.76194 0.16276 0.78946 0.0
C6458 C 0.74962 0.15768 0.80201 0.0
C6459 C 0.75311 0.14711 0.8151 0.0
C6460 C 0.76884 0.1415 0.81568 0.0
C6461 C 0.78143 0.14712 0.8037 0.0
C6462 C 0.7781 0.15787 0.79073 0.0
C6463 C 0.77391 0.24664 0.75856 0.0
C6464 C 0.79201 0.25151 0.76456 0.0
C6465 C 0.76472 0.22755 0.75265 0.0
C6466 C 0.77365 0.21333 0.75278 0.0
C6467 C 0.79211 0.21842 0.75732 0.0
C6468 C 0.80117 0.23749 0.76388 0.0
C6469 C 0.76339 0.19416 0.75396 0.0
C6470 C 0.76699 0.18766 0.77021 0.0
C6471 C 0.74899 0.18341 0.74075 0.0
C6472 C 0.74535 0.18875 0.72281 0.0
C6473 C 0.75593 0.18556 0.70849 0.0
C6474 C 0.75132 0.18845 0.69079 0.0
C6475 C 0.73647 0.19512 0.68747 0.0
C6476 C 0.72598 0.1985 0.70175 0.0
C6477 C 0.73024 0.19507 0.71931 0.0
H6478 H 0.73307 0.19762 0.67383 0.0
H6479 H 0.77125 0.13275 0.82536 0.0
loop_
_geom_bond_atom_site_label_1
_geom_bond_atom_site_label_2
_geom_bond_distance
_geom_bond_site_symmetry_2
_ccdc_geom_bond_type
O0 Cd1 2.223 . S
O0 C8 1.315 . S
Cd1 O0 2.223 . S
Cd1 O4 2.297 . S
Cd1 O5 2.439 . S
Cd1 O11 2.240 . S
Cd2 O3 2.240 . S
Cd2 O10 2.223 . S
Cd2 O12 2.297 . S
Cd2 O13 2.439 . S
O3 Cd2 2.240 . S
O3 C8 1.279 . S
O4 Cd1 2.297 . S
O4 C6 1.247 . S
O5 Cd1 2.439 . S
O5 C6 1.208 . S
C6 O4 1.247 . S
C6 O5 1.208 . S
C7 O12 1.247 . S
C7 O13 1.208 . S
C8 O0 1.315 . S
C8 O3 1.279 . S
C9 O10 1.315 . S
C9 O11 1.279 . S
O10 Cd2 2.223 . S
O10 C9 1.315 . S
O11 Cd1 2.240 . S
O11 C9 1.279 . S
O12 Cd2 2.297 . S
O12 C7 1.247 . S
O13 Cd2 2.439 . S
O13 C7 1.208 . S
O14 Cd15 2.241 . S
O14 C22 1.320 . S
Cd15 O14 2.241 . S
Cd15 O18 2.297 . S
Cd15 O19 2.439 . S
Cd15 O25 2.240 1_655 S
Cd16 O17 2.240 1_455 S
Cd16 O24 2.223 . S
Cd16 O26 2.297 . S
Cd16 O27 2.455 . S
O17 Cd16 2.240 1_655 S
O17 C22 1.279 . S
O18 Cd15 2.297 . S
O18 C20 1.247 . S
O19 Cd15 2.439 . S
O19 C20 1.208 . S
C20 O18 1.247 . S
C20 O19 1.208 . S
C21 O26 1.247 . S
C21 O27 1.227 . S
C22 O14 1.320 . S
C22 O17 1.279 . S
C23 O24 1.315 . S
C23 O25 1.279 . S
O24 Cd16 2.223 . S
O24 C23 1.315 . S
O25 Cd15 2.240 1_455 S
O25 C23 1.279 . S
O26 Cd16 2.297 . S
O26 C21 1.247 . S
O27 Cd16 2.455 . S
O27 C21 1.227 . S
O28 Cd29 2.223 . S
O28 C36 1.315 . S
Cd29 O28 2.223 . S
Cd29 O32 2.297 . S
Cd29 O33 2.439 . S
Cd29 O39 2.240 . S
Cd30 O31 2.240 . S
Cd30 O38 2.223 . S
Cd30 O40 2.297 . S
Cd30 O41 2.439 . S
O31 Cd30 2.240 . S
O31 C36 1.279 . S
O32 Cd29 2.297 . S
O32 C34 1.247 . S
O33 Cd29 2.439 . S
O33 C34 1.208 . S
C34 O32 1.247 . S
C34 O33 1.208 . S
C35 O40 1.247 . S
C35 O41 1.208 . S
C36 O28 1.315 . S
C36 O31 1.279 . S
C37 O38 1.315 . S
C37 O39 1.279 . S
O38 Cd30 2.223 . S
O38 C37 1.315 . S
O39 Cd29 2.240 . S
O39 C37 1.279 . S
O40 Cd30 2.297 . S
O40 C35 1.247 . S
O41 Cd30 2.439 . S
O41 C35 1.208 . S
O42 Cd43 2.223 . S
O42 C50 1.315 . S
Cd43 O42 2.223 . S
Cd43 O46 2.297 . S
Cd43 O47 2.439 . S
Cd43 O53 2.240 . S
Cd44 O45 2.240 . S
Cd44 O52 2.223 . S
Cd44 O54 2.297 . S
Cd44 O55 2.439 . S
O45 Cd44 2.240 . S
O45 C50 1.279 . S
O46 Cd43 2.297 . S
O46 C48 1.247 . S
O47 Cd43 2.439 . S
O47 C48 1.208 . S
C48 O46 1.247 . S
C48 O47 1.208 . S
C49 O54 1.247 . S
C49 O55 1.208 . S
C50 O42 1.315 . S
C50 O45 1.279 . S
C51 O52 1.315 . S
C51 O53 1.279 . S
O52 Cd44 2.223 . S
O52 C51 1.315 . S
O53 Cd43 2.240 . S
O53 C51 1.279 . S
O54 Cd44 2.297 . S
O54 C49 1.247 . S
O55 Cd44 2.439 . S
O55 C49 1.208 . S
O56 Cd57 2.223 . S
O56 C64 1.315 . S
Cd57 O56 2.223 . S
Cd57 O60 2.297 . S
Cd57 O61 2.439 . S
Cd57 O67 2.240 . S
Cd58 O59 2.240 . S
Cd58 O66 2.223 . S
Cd58 O68 2.297 . S
Cd58 O69 2.439 . S
O59 Cd58 2.240 . S
O59 C64 1.279 . S
O60 Cd57 2.297 . S
O60 C62 1.247 . S
O61 Cd57 2.439 . S
O61 C62 1.208 . S
C62 O60 1.247 . S
C62 O61 1.208 . S
C63 O68 1.247 . S
C63 O69 1.208 . S
C64 O56 1.315 . S
C64 O59 1.279 . S
C65 O66 1.315 . S
C65 O67 1.279 . S
O66 Cd58 2.223 . S
O66 C65 1.315 . S
O67 Cd57 2.240 . S
O67 C65 1.279 . S
O68 Cd58 2.297 . S
O68 C63 1.247 . S
O69 Cd58 2.439 . S
O69 C63 1.208 . S
O70 Cd71 2.223 . S
O70 C78 1.315 . S
Cd71 O70 2.223 . S
Cd71 O74 2.297 . S
Cd71 O75 2.439 . S
Cd71 O81 2.240 . S
Cd72 O73 2.240 . S
Cd72 O80 2.223 . S
Cd72 O82 2.297 . S
Cd72 O83 2.439 . S
O73 Cd72 2.240 . S
O73 C78 1.279 . S
O74 Cd71 2.297 . S
O74 C76 1.247 . S
O75 Cd71 2.439 . S
O75 C76 1.208 . S
C76 O74 1.247 . S
C76 O75 1.208 . S
C77 O82 1.247 . S
C77 O83 1.208 . S
C78 O70 1.315 . S
C78 O73 1.279 . S
C79 O80 1.315 . S
C79 O81 1.279 . S
O80 Cd72 2.223 . S
O80 C79 1.315 . S
O81 Cd71 2.240 . S
O81 C79 1.279 . S
O82 Cd72 2.297 . S
O82 C77 1.247 . S
O83 Cd72 2.439 . S
O83 C77 1.208 . S
O84 Cd85 2.223 . S
O84 C92 1.315 . S
Cd85 O84 2.223 . S
Cd85 O88 2.297 . S
Cd85 O89 2.439 . S
Cd85 O95 2.240 . S
Cd86 O87 2.240 . S
Cd86 O94 2.223 . S
Cd86 O96 2.297 . S
Cd86 O97 2.439 . S
O87 Cd86 2.240 . S
O87 C92 1.279 . S
O88 Cd85 2.297 . S
O88 C90 1.247 . S
O89 Cd85 2.439 . S
O89 C90 1.208 . S
C90 O88 1.247 . S
C90 O89 1.208 . S
C91 O96 1.247 . S
C91 O97 1.208 . S
C92 O84 1.315 . S
C92 O87 1.279 . S
C93 O94 1.315 . S
C93 O95 1.279 . S
O94 Cd86 2.223 . S
O94 C93 1.315 . S
O95 Cd85 2.240 . S
O95 C93 1.279 . S
O96 Cd86 2.297 . S
O96 C91 1.247 . S
O97 Cd86 2.439 . S
O97 C91 1.208 . S
O98 Cd99 2.223 . S
O98 C106 1.315 . S
Cd99 O98 2.223 . S
Cd99 O102 2.297 . S
Cd99 O103 2.439 . S
Cd99 O109 2.240 . S
Cd100 O101 2.240 . S
Cd100 O108 2.223 1_455 S
Cd100 O110 2.297 . S
Cd100 O111 2.439 . S
O101 Cd100 2.240 . S
O101 C106 1.279 . S
O102 Cd99 2.297 . S
O102 C104 1.247 . S
O103 Cd99 2.439 . S
O103 C104 1.208 . S
C104 O102 1.247 . S
C104 O103 1.208 . S
C105 O110 1.247 . S
C105 O111 1.208 . S
C106 O98 1.315 . S
C106 O101 1.279 . S
C107 O108 1.315 . S
C107 O109 1.279 1_655 S
O108 Cd100 2.223 1_655 S
O108 C107 1.315 . S
O109 Cd99 2.240 . S
O109 C107 1.279 1_455 S
O110 Cd100 2.297 . S
O110 C105 1.247 . S
O111 Cd100 2.439 . S
O111 C105 1.208 . S
O112 Cd113 2.223 . S
O112 C120 1.315 . S
Cd113 O112 2.223 . S
Cd113 O116 2.297 . S
Cd113 O117 2.439 . S
Cd113 O123 2.240 . S
Cd114 O115 2.240 . S
Cd114 O122 2.223 . S
Cd114 O124 2.297 . S
Cd114 O125 2.439 . S
O115 Cd114 2.240 . S
O115 C120 1.279 . S
O116 Cd113 2.297 . S
O116 C118 1.247 . S
O117 Cd113 2.439 . S
O117 C118 1.208 . S
C118 O116 1.247 . S
C118 O117 1.208 . S
C119 O124 1.247 . S
C119 O125 1.208 . S
C120 O112 1.315 . S
C120 O115 1.279 . S
C121 O122 1.315 . S
C121 O123 1.279 . S
O122 Cd114 2.223 . S
O122 C121 1.315 . S
O123 Cd113 2.240 . S
O123 C121 1.279 . S
O124 Cd114 2.297 . S
O124 C119 1.247 . S
O125 Cd114 2.439 . S
O125 C119 1.208 . S
O126 Cd127 2.223 . S
O126 C134 1.315 . S
Cd127 O126 2.223 . S
Cd127 O130 2.297 . S
Cd127 O131 2.439 . S
Cd127 O137 2.240 . S
Cd128 O129 2.240 . S
Cd128 O136 2.223 . S
Cd128 O138 2.297 . S
Cd128 O139 2.439 . S
O129 Cd128 2.240 . S
O129 C134 1.279 . S
O130 Cd127 2.297 . S
O130 C132 1.247 . S
O131 Cd127 2.439 . S
O131 C132 1.208 . S
C132 O130 1.247 . S
C132 O131 1.208 . S
C133 O138 1.247 . S
C133 O139 1.208 . S
C134 O126 1.315 . S
C134 O129 1.279 . S
C135 O136 1.315 . S
C135 O137 1.279 . S
O136 Cd128 2.223 . S
O136 C135 1.315 . S
O137 Cd127 2.240 . S
O137 C135 1.279 . S
O138 Cd128 2.297 . S
O138 C133 1.247 . S
O139 Cd128 2.439 . S
O139 C133 1.208 . S
O140 Cd141 2.223 1_545 S
O140 C148 1.315 1_545 S
Cd141 O140 2.223 1_565 S
Cd141 O144 2.297 . S
Cd141 O145 2.439 . S
Cd141 O151 2.240 1_565 S
Cd142 O143 2.240 1_545 S
Cd142 O150 2.223 . S
Cd142 O152 2.297 . S
Cd142 O153 2.439 1_545 S
O143 Cd142 2.240 1_565 S
O143 C148 1.279 . S
O144 Cd141 2.297 . S
O144 C146 1.247 . S
O145 Cd141 2.439 . S
O145 C146 1.208 . S
C146 O144 1.247 . S
C146 O145 1.208 . S
C147 O152 1.247 . S
C147 O153 1.208 1_545 S
C148 O140 1.315 1_565 S
C148 O143 1.279 . S
C149 O150 1.315 . S
C149 O151 1.279 . S
O150 Cd142 2.223 . S
O150 C149 1.315 . S
O151 Cd141 2.240 1_545 S
O151 C149 1.279 . S
O152 Cd142 2.297 . S
O152 C147 1.247 . S
O153 Cd142 2.439 1_565 S
O153 C147 1.208 1_565 S
O154 Cd155 2.223 . S
O154 C162 1.315 . S
Cd155 O154 2.223 . S
Cd155 O158 2.297 . S
Cd155 O159 2.439 . S
Cd155 O165 2.240 . S
Cd156 O157 2.240 1_556 S
Cd156 O164 2.223 1_556 S
Cd156 O166 2.297 . S
Cd156 O167 2.439 . S
O157 Cd156 2.240 1_554 S
O157 C162 1.279 . S
O158 Cd155 2.297 . S
O158 C160 1.247 . S
O159 Cd155 2.439 . S
O159 C160 1.208 . S
C160 O158 1.247 . S
C160 O159 1.208 . S
C161 O166 1.247 . S
C161 O167 1.208 . S
C162 O154 1.315 . S
C162 O157 1.279 . S
C163 O164 1.315 . S
C163 O165 1.279 . S
O164 Cd156 2.223 1_554 S
O164 C163 1.315 . S
O165 Cd155 2.240 . S
O165 C163 1.279 . S
O166 Cd156 2.297 . S
O166 C161 1.247 . S
O167 Cd156 2.439 . S
O167 C161 1.208 . S
O168 Cd169 2.223 . S
O168 C176 1.315 . S
Cd169 O168 2.223 . S
Cd169 O172 2.297 . S
Cd169 O173 2.439 . S
Cd169 O179 2.240 . S
Cd170 O171 2.240 . S
Cd170 O178 2.223 . S
Cd170 O180 2.297 1_554 S
Cd170 O181 2.439 1_554 S
O171 Cd170 2.240 . S
O171 C176 1.279 . S
O172 Cd169 2.297 . S
O172 C174 1.247 . S
O173 Cd169 2.439 . S
O173 C174 1.208 . S
C174 O172 1.247 . S
C174 O173 1.208 . S
C175 O180 1.247 . S
C175 O181 1.208 . S
C176 O168 1.315 . S
C176 O171 1.279 . S
C177 O178 1.315 . S
C177 O179 1.279 . S
O178 Cd170 2.223 . S
O178 C177 1.315 . S
O179 Cd169 2.240 . S
O179 C177 1.279 . S
O180 Cd170 2.297 1_556 S
O180 C175 1.247 . S
O181 Cd170 2.439 1_556 S
O181 C175 1.208 . S
O182 Cd183 2.223 . S
O182 C190 1.315 . S
Cd183 O182 2.223 . S
Cd183 O186 2.297 . S
Cd183 O187 2.439 . S
Cd183 O193 2.240 . S
Cd184 O185 2.240 . S
Cd184 O192 2.223 . S
Cd184 O194 2.297 1_554 S
Cd184 O195 2.439 1_554 S
O185 Cd184 2.240 . S
O185 C190 1.279 . S
O186 Cd183 2.297 . S
O186 C188 1.247 . S
O187 Cd183 2.439 . S
O187 C188 1.208 . S
C188 O186 1.247 . S
C188 O187 1.208 . S
C189 O194 1.247 . S
C189 O195 1.208 . S
C190 O182 1.315 . S
C190 O185 1.279 . S
C191 O192 1.315 . S
C191 O193 1.279 . S
O192 Cd184 2.223 . S
O192 C191 1.315 . S
O193 Cd183 2.240 . S
O193 C191 1.279 . S
O194 Cd184 2.297 1_556 S
O194 C189 1.247 . S
O195 Cd184 2.439 1_556 S
O195 C189 1.208 . S
O196 Cd197 2.223 . S
O196 C204 1.315 . S
Cd197 O196 2.223 . S
Cd197 O200 2.297 . S
Cd197 O201 2.439 . S
Cd197 O207 2.240 . S
Cd198 O199 2.240 . S
Cd198 O206 2.223 . S
Cd198 O208 2.297 . S
Cd198 O209 2.439 . S
O199 Cd198 2.240 . S
O199 C204 1.279 . S
O200 Cd197 2.297 . S
O200 C202 1.247 . S
O201 Cd197 2.439 . S
O201 C202 1.208 . S
C202 O200 1.247 . S
C202 O201 1.208 . S
C203 O208 1.247 . S
C203 O209 1.208 . S
C204 O196 1.315 . S
C204 O199 1.279 . S
C205 O206 1.315 . S
C205 O207 1.279 . S
O206 Cd198 2.223 . S
O206 C205 1.315 . S
O207 Cd197 2.240 . S
O207 C205 1.279 . S
O208 Cd198 2.297 . S
O208 C203 1.247 . S
O209 Cd198 2.439 . S
O209 C203 1.208 . S
O210 Cd211 2.223 . S
O210 C218 1.315 . S
Cd211 O210 2.223 . S
Cd211 O214 2.297 . S
Cd211 O215 2.439 . S
Cd211 O221 2.240 . S
Cd212 O213 2.240 . S
Cd212 O220 2.223 . S
Cd212 O222 2.297 . S
Cd212 O223 2.439 . S
O213 Cd212 2.240 . S
O213 C218 1.279 . S
O214 Cd211 2.297 . S
O214 C216 1.247 . S
O215 Cd211 2.439 . S
O215 C216 1.208 . S
C216 O214 1.247 . S
C216 O215 1.208 . S
C217 O222 1.247 . S
C217 O223 1.208 . S
C218 O210 1.315 . S
C218 O213 1.279 . S
C219 O220 1.315 . S
C219 O221 1.279 . S
O220 Cd212 2.223 . S
O220 C219 1.315 . S
O221 Cd211 2.240 . S
O221 C219 1.279 . S
O222 Cd212 2.297 . S
O222 C217 1.247 . S
O223 Cd212 2.439 . S
O223 C217 1.208 . S
O224 Cd225 2.223 . S
O224 C232 1.315 . S
Cd225 O224 2.223 . S
Cd225 O228 2.297 . S
Cd225 O229 2.439 . S
Cd225 O235 2.240 . S
Cd226 O227 2.240 . S
Cd226 O234 2.223 . S
Cd226 O236 2.297 . S
Cd226 O237 2.439 . S
O227 Cd226 2.240 . S
O227 C232 1.279 . S
O228 Cd225 2.297 . S
O228 C230 1.247 . S
O229 Cd225 2.439 . S
O229 C230 1.208 . S
C230 O228 1.247 . S
C230 O229 1.208 . S
C231 O236 1.247 . S
C231 O237 1.208 . S
C232 O224 1.315 . S
C232 O227 1.279 . S
C233 O234 1.315 . S
C233 O235 1.279 . S
O234 Cd226 2.223 . S
O234 C233 1.315 . S
O235 Cd225 2.240 . S
O235 C233 1.279 . S
O236 Cd226 2.297 . S
O236 C231 1.247 . S
O237 Cd226 2.439 . S
O237 C231 1.208 . S
O238 Cd239 2.223 . S
O238 C246 1.315 . S
Cd239 O238 2.223 . S
Cd239 O242 2.297 . S
Cd239 O243 2.439 . S
Cd239 O249 2.240 . S
Cd240 O241 2.240 . S
Cd240 O248 2.223 . S
Cd240 O250 2.297 . S
Cd240 O251 2.439 . S
O241 Cd240 2.240 . S
O241 C246 1.279 . S
O242 Cd239 2.297 . S
O242 C244 1.247 . S
O243 Cd239 2.439 . S
O243 C244 1.208 . S
C244 O242 1.247 . S
C244 O243 1.208 . S
C245 O250 1.247 . S
C245 O251 1.208 . S
C246 O238 1.315 . S
C246 O241 1.279 . S
C247 O248 1.315 . S
C247 O249 1.279 . S
O248 Cd240 2.223 . S
O248 C247 1.315 . S
O249 Cd239 2.240 . S
O249 C247 1.279 . S
O250 Cd240 2.297 . S
O250 C245 1.247 . S
O251 Cd240 2.439 . S
O251 C245 1.208 . S
O252 Cd253 2.223 . S
O252 C260 1.315 . S
Cd253 O252 2.223 . S
Cd253 O256 2.297 . S
Cd253 O257 2.439 . S
Cd253 O263 2.240 . S
Cd254 O255 2.240 . S
Cd254 O262 2.223 . S
Cd254 O264 2.297 . S
Cd254 O265 2.439 . S
O255 Cd254 2.240 . S
O255 C260 1.279 . S
O256 Cd253 2.297 . S
O256 C258 1.247 . S
O257 Cd253 2.439 . S
O257 C258 1.208 . S
C258 O256 1.247 . S
C258 O257 1.208 . S
C259 O264 1.247 . S
C259 O265 1.208 . S
C260 O252 1.315 . S
C260 O255 1.279 . S
C261 O262 1.315 . S
C261 O263 1.279 . S
O262 Cd254 2.223 . S
O262 C261 1.315 . S
O263 Cd253 2.240 . S
O263 C261 1.279 . S
O264 Cd254 2.297 . S
O264 C259 1.247 . S
O265 Cd254 2.439 . S
O265 C259 1.208 . S
O266 Cd267 2.223 . S
O266 C274 1.315 . S
Cd267 O266 2.223 . S
Cd267 O270 2.297 . S
Cd267 O271 2.439 . S
Cd267 O277 2.240 . S
Cd268 O269 2.240 . S
Cd268 O276 2.223 . S
Cd268 O278 2.297 . S
Cd268 O279 2.439 . S
O269 Cd268 2.240 . S
O269 C274 1.279 . S
O270 Cd267 2.297 . S
O270 C272 1.247 . S
O271 Cd267 2.439 . S
O271 C272 1.208 . S
C272 O270 1.247 . S
C272 O271 1.208 . S
C273 O278 1.247 . S
C273 O279 1.208 . S
C274 O266 1.315 . S
C274 O269 1.279 . S
C275 O276 1.315 . S
C275 O277 1.279 . S
O276 Cd268 2.223 . S
O276 C275 1.315 . S
O277 Cd267 2.240 . S
O277 C275 1.279 . S
O278 Cd268 2.297 . S
O278 C273 1.247 . S
O279 Cd268 2.439 . S
O279 C273 1.208 . S
O280 Cd281 2.223 . S
O280 C288 1.315 . S
Cd281 O280 2.223 . S
Cd281 O284 2.297 . S
Cd281 O285 2.439 1_554 S
Cd281 O291 2.240 1_554 S
Cd282 O283 2.240 1_556 S
Cd282 O290 2.223 1_556 S
Cd282 O292 2.297 . S
Cd282 O293 2.439 . S
O283 Cd282 2.240 1_554 S
O283 C288 1.279 . S
O284 Cd281 2.297 . S
O284 C286 1.247 . S
O285 Cd281 2.439 1_556 S
O285 C286 1.208 1_556 S
C286 O284 1.247 . S
C286 O285 1.208 1_554 S
C287 O292 1.247 . S
C287 O293 1.208 . S
C288 O280 1.315 . S
C288 O283 1.279 . S
C289 O290 1.315 1_556 S
C289 O291 1.302 . S
O290 Cd282 2.223 1_554 S
O290 C289 1.315 1_554 S
O291 Cd281 2.240 1_556 S
O291 C289 1.302 . S
O292 Cd282 2.297 . S
O292 C287 1.247 . S
O293 Cd282 2.439 . S
O293 C287 1.208 . S
O294 Cd295 2.223 . S
O294 C302 1.315 . S
Cd295 O294 2.223 . S
Cd295 O298 2.297 . S
Cd295 O299 2.439 . S
Cd295 O305 2.240 . S
Cd296 O297 2.240 . S
Cd296 O304 2.223 . S
Cd296 O306 2.297 . S
Cd296 O307 2.439 . S
O297 Cd296 2.240 . S
O297 C302 1.279 . S
O298 Cd295 2.297 . S
O298 C300 1.247 . S
O299 Cd295 2.439 . S
O299 C300 1.208 . S
C300 O298 1.247 . S
C300 O299 1.208 . S
C301 O306 1.247 . S
C301 O307 1.208 . S
C302 O294 1.315 . S
C302 O297 1.279 . S
C303 O304 1.315 . S
C303 O305 1.279 . S
O304 Cd296 2.223 . S
O304 C303 1.315 . S
O305 Cd295 2.240 . S
O305 C303 1.279 . S
O306 Cd296 2.297 . S
O306 C301 1.247 . S
O307 Cd296 2.439 . S
O307 C301 1.208 . S
O308 Cd309 2.223 . S
O308 C316 1.315 . S
Cd309 O308 2.223 . S
Cd309 O312 2.297 . S
Cd309 O313 2.439 . S
Cd309 O319 2.240 . S
Cd310 O311 2.240 . S
Cd310 O318 2.223 . S
Cd310 O320 2.297 . S
Cd310 O321 2.439 . S
O311 Cd310 2.240 . S
O311 C316 1.279 . S
O312 Cd309 2.297 . S
O312 C314 1.247 . S
O313 Cd309 2.439 . S
O313 C314 1.208 . S
C314 O312 1.247 . S
C314 O313 1.208 . S
C315 O320 1.247 . S
C315 O321 1.208 . S
C316 O308 1.315 . S
C316 O311 1.279 . S
C317 O318 1.315 . S
C317 O319 1.279 . S
O318 Cd310 2.223 . S
O318 C317 1.315 . S
O319 Cd309 2.240 . S
O319 C317 1.279 . S
O320 Cd310 2.297 . S
O320 C315 1.247 . S
O321 Cd310 2.439 . S
O321 C315 1.208 . S
O322 Cd323 2.223 . S
O322 C330 1.315 . S
Cd323 O322 2.223 . S
Cd323 O326 2.297 . S
Cd323 O327 2.439 . S
Cd323 O333 2.240 . S
Cd324 O325 2.240 . S
Cd324 O332 2.223 . S
Cd324 O334 2.297 . S
Cd324 O335 2.439 . S
O325 Cd324 2.240 . S
O325 C330 1.279 . S
O326 Cd323 2.297 . S
O326 C328 1.247 . S
O327 Cd323 2.439 . S
O327 C328 1.208 . S
C328 O326 1.247 . S
C328 O327 1.208 . S
C329 O334 1.247 . S
C329 O335 1.208 . S
C330 O322 1.315 . S
C330 O325 1.279 . S
C331 O332 1.315 . S
C331 O333 1.279 . S
O332 Cd324 2.223 . S
O332 C331 1.315 . S
O333 Cd323 2.240 . S
O333 C331 1.279 . S
O334 Cd324 2.297 . S
O334 C329 1.247 . S
O335 Cd324 2.439 . S
O335 C329 1.208 . S
Tb336 N367 2.660 . S
Tb336 N374 2.600 1_554 S
Tb336 O380 2.546 1_554 S
Tb336 O381 2.610 . S
Tb336 O383 2.320 . S
Tb336 O384 2.552 . S
Tb336 O385 2.472 . S
Tb336 O387 2.362 . S
Tb336 O388 2.421 1_554 S
Tb336 C400 2.833 1_455 S
C337 C340 1.432 . S
C337 C341 1.414 . S
C337 N344 1.359 . S
C338 C340 1.417 . S
C338 C342 1.432 . S
C338 C350 1.410 . S
C339 C341 1.444 . S
C339 C342 1.317 . S
C339 H362 0.929 . S
C340 C337 1.432 . S
C340 C338 1.417 . S
C340 N348 1.360 . S
C341 C337 1.414 . S
C341 C339 1.444 . S
C341 C346 1.385 . S
C342 C338 1.432 . S
C342 C339 1.317 . S
C342 H354 0.930 . S
C343 C345 1.392 . S
C343 C346 1.370 . S
C343 H355 0.931 . S
N344 C337 1.359 . S
N344 C345 1.327 . S
N344 Tb347 2.600 . S
C345 C343 1.392 . S
C345 N344 1.327 . S
C345 H352 0.930 . S
C346 C341 1.385 . S
C346 C343 1.370 . S
C346 H365 0.930 . S
Tb347 N344 2.600 . S
Tb347 N348 2.660 . S
Tb347 O381 2.362 . S
Tb347 O382 2.421 . S
Tb347 O386 2.546 . S
Tb347 O387 2.610 . S
Tb347 O389 2.320 . S
Tb347 O390 2.552 . S
Tb347 O391 2.413 . S
Tb347 C411 2.833 . S
N348 C340 1.360 . S
N348 Tb347 2.660 . S
N348 C349 1.305 . S
C349 N348 1.305 . S
C349 C351 1.407 1_554 S
C349 H356 0.930 1_554 S
C350 C338 1.410 . S
C350 C351 1.345 1_554 S
C350 H358 0.964 . S
C351 C349 1.407 1_556 S
C351 C350 1.345 1_556 S
C351 H353 0.930 . S
H352 C345 0.930 . S
H353 C351 0.930 . S
H354 C342 0.930 . S
H355 C343 0.931 . S
H356 C349 0.930 1_556 S
H357 C371 0.930 . S
H358 C350 0.964 . S
H359 C377 0.930 . S
H360 C368 0.930 . S
H361 C375 0.931 . S
H362 C339 0.929 . S
H363 C369 0.923 1_655 S
H364 C402 0.930 . S
H365 C346 0.930 . S
H366 C401 0.929 . S
N367 Tb336 2.660 . S
N367 C368 1.305 . S
N367 C372 1.360 1_545 S
C368 H360 0.930 . S
C368 N367 1.305 . S
C368 C371 1.407 1_545 S
C369 H363 0.923 1_455 S
C369 C370 1.413 1_455 S
C369 C371 1.353 . S
C370 C369 1.413 1_655 S
C370 C372 1.408 1_655 S
C370 C402 1.440 . S
C371 H357 0.930 . S
C371 C368 1.407 1_565 S
C371 C369 1.353 . S
C372 N367 1.360 1_565 S
C372 C370 1.408 1_455 S
C372 C376 1.432 1_554 S
H373 C378 0.930 . S
N374 Tb336 2.600 1_556 S
N374 C376 1.359 1_545 S
N374 C377 1.327 . S
C375 H361 0.931 . S
C375 C377 1.392 1_565 S
C375 C378 1.370 1_455 S
C376 C372 1.432 1_556 S
C376 N374 1.359 1_565 S
C376 C379 1.414 1_455 S
C377 H359 0.930 . S
C377 N374 1.327 . S
C377 C375 1.392 1_545 S
C378 H373 0.930 . S
C378 C375 1.370 1_655 S
C378 C379 1.385 . S
C379 C376 1.414 1_655 S
C379 C378 1.385 . S
C379 C401 1.444 . S
O380 Tb336 2.546 1_556 S
O380 C400 1.251 1_456 S
O381 Tb336 2.610 . S
O381 Tb347 2.362 . S
O381 C392 1.283 . S
O382 Tb347 2.421 . S
O382 C399 1.262 . S
O383 Tb336 2.320 . S
O383 C399 1.260 . S
O384 Tb336 2.552 . S
O384 C392 1.243 . S
O385 Tb336 2.472 . S
O385 C400 1.242 1_455 S
O386 Tb347 2.546 . S
O386 C411 1.251 . S
O387 Tb336 2.362 . S
O387 Tb347 2.610 . S
O387 C403 1.283 . S
O388 Tb336 2.421 1_556 S
O388 C410 1.262 . S
O389 Tb347 2.320 . S
O389 C410 1.260 1_554 S
O390 Tb347 2.552 . S
O390 C403 1.243 . S
O391 Tb347 2.413 . S
O391 C411 1.256 . S
C392 O381 1.283 . S
C392 O384 1.243 . S
C393 C395 1.382 1_556 S
C393 C397 1.393 . S
C393 C400 1.500 1_556 S
C394 C395 1.400 . S
C394 C396 1.384 1_554 S
C395 C393 1.382 1_554 S
C395 C394 1.400 . S
C395 H412 0.930 . S
C396 C394 1.384 1_556 S
C396 C398 1.392 . S
C396 H413 0.931 . S
C397 C393 1.393 . S
C397 C398 1.401 . S
C397 H414 0.930 . S
C398 C396 1.392 . S
C398 C397 1.401 . S
C398 H415 0.930 . S
C399 O382 1.262 . S
C399 O383 1.260 . S
C400 Tb336 2.833 1_655 S
C400 O380 1.251 1_654 S
C400 O385 1.242 1_655 S
C400 C393 1.500 1_554 S
C401 H366 0.929 . S
C401 C379 1.444 . S
C401 C402 1.317 1_556 S
C402 H364 0.930 . S
C402 C370 1.440 . S
C402 C401 1.317 1_554 S
C403 O387 1.283 . S
C403 O390 1.243 . S
C404 C405 1.382 . S
C404 C408 1.393 . S
C404 C411 1.500 . S
C405 C404 1.382 . S
C405 C406 1.400 . S
C405 H416 0.930 . S
C406 C405 1.400 . S
C406 C407 1.384 . S
C407 C406 1.384 . S
C407 C409 1.392 . S
C407 H417 0.931 . S
C408 C404 1.393 . S
C408 C409 1.401 . S
C408 H418 0.930 . S
C409 C407 1.392 . S
C409 C408 1.401 . S
C409 H419 0.930 . S
C410 O388 1.262 . S
C410 O389 1.260 1_556 S
C411 Tb347 2.833 . S
C411 O386 1.251 . S
C411 O391 1.256 . S
C411 C404 1.500 . S
H412 C395 0.930 . S
H413 C396 0.931 . S
H414 C397 0.930 . S
H415 C398 0.930 . S
H416 C405 0.930 . S
H417 C407 0.931 . S
H418 C408 0.930 . S
H419 C409 0.930 . S
Tb420 N451 2.660 . S
Tb420 N458 2.600 . S
Tb420 O464 2.546 . S
Tb420 O465 2.610 . S
Tb420 O467 2.320 . S
Tb420 O468 2.552 . S
Tb420 O469 2.413 . S
Tb420 O471 2.362 . S
Tb420 O472 2.421 . S
Tb420 C484 2.833 . S
C421 C424 1.432 . S
C421 C425 1.414 . S
C421 N428 1.359 . S
C422 C424 1.417 . S
C422 C426 1.432 . S
C422 C434 1.410 . S
C423 C425 1.444 . S
C423 C426 1.317 . S
C423 H446 0.929 . S
C424 C421 1.432 . S
C424 C422 1.417 . S
C424 N432 1.360 . S
C425 C421 1.414 . S
C425 C423 1.444 . S
C425 C430 1.385 . S
C426 C422 1.432 . S
C426 C423 1.317 . S
C426 H438 0.930 . S
C427 C429 1.392 . S
C427 C430 1.370 . S
C427 H439 0.931 . S
N428 C421 1.359 . S
N428 C429 1.327 . S
N428 Tb431 2.600 . S
C429 C427 1.392 . S
C429 N428 1.327 . S
C429 H436 0.930 . S
C430 C425 1.385 . S
C430 C427 1.370 . S
C430 H449 0.930 . S
Tb431 N428 2.600 . S
Tb431 N432 2.660 . S
Tb431 O465 2.362 . S
Tb431 O466 2.421 . S
Tb431 O470 2.546 . S
Tb431 O471 2.610 . S
Tb431 O473 2.320 . S
Tb431 O474 2.552 . S
Tb431 O475 2.413 . S
Tb431 C495 2.833 . S
N432 C424 1.360 . S
N432 Tb431 2.660 . S
N432 C433 1.305 . S
C433 N432 1.305 . S
C433 C435 1.407 . S
C433 H440 0.930 . S
C434 C422 1.410 . S
C434 C435 1.345 . S
C434 H442 0.930 . S
C435 C433 1.407 . S
C435 C434 1.345 . S
C435 H437 0.930 . S
H436 C429 0.930 . S
H437 C435 0.930 . S
H438 C426 0.930 . S
H439 C427 0.931 . S
H440 C433 0.930 . S
H441 C455 0.930 . S
H442 C434 0.930 . S
H443 C461 0.930 . S
H444 C452 0.930 . S
H445 C459 0.931 . S
H446 C423 0.929 . S
H447 C453 0.930 . S
H448 C486 0.930 . S
H449 C430 0.930 . S
H450 C485 0.929 . S
N451 Tb420 2.660 . S
N451 C452 1.305 . S
N451 C456 1.360 . S
C452 H444 0.930 . S
C452 N451 1.305 . S
C452 C455 1.407 . S
C453 H447 0.930 . S
C453 C454 1.410 . S
C453 C455 1.345 . S
C454 C453 1.410 . S
C454 C456 1.417 . S
C454 C486 1.432 . S
C455 H441 0.930 . S
C455 C452 1.407 . S
C455 C453 1.345 . S
C456 N451 1.360 . S
C456 C454 1.417 . S
C456 C460 1.432 . S
H457 C462 0.930 . S
N458 Tb420 2.600 . S
N458 C460 1.359 . S
N458 C461 1.327 . S
C459 H445 0.931 . S
C459 C461 1.392 . S
C459 C462 1.370 . S
C460 C456 1.432 . S
C460 N458 1.359 . S
C460 C463 1.414 . S
C461 H443 0.930 . S
C461 N458 1.327 . S
C461 C459 1.392 . S
C462 H457 0.930 . S
C462 C459 1.370 . S
C462 C463 1.385 . S
C463 C460 1.414 . S
C463 C462 1.385 . S
C463 C485 1.444 . S
O464 Tb420 2.546 . S
O464 C484 1.251 . S
O465 Tb420 2.610 . S
O465 Tb431 2.362 . S
O465 C476 1.283 . S
O466 Tb431 2.421 . S
O466 C483 1.262 . S
O467 Tb420 2.320 . S
O467 C483 1.260 . S
O468 Tb420 2.552 . S
O468 C476 1.243 . S
O469 Tb420 2.413 . S
O469 C484 1.256 . S
O470 Tb431 2.546 . S
O470 C495 1.251 . S
O471 Tb420 2.362 . S
O471 Tb431 2.610 . S
O471 C487 1.283 . S
O472 Tb420 2.421 . S
O472 C494 1.262 . S
O473 Tb431 2.320 . S
O473 C494 1.260 . S
O474 Tb431 2.552 . S
O474 C487 1.243 . S
O475 Tb431 2.413 . S
O475 C495 1.256 . S
C476 O465 1.283 . S
C476 O468 1.243 . S
C477 C479 1.382 . S
C477 C481 1.393 . S
C477 C484 1.500 . S
C478 C479 1.400 . S
C478 C480 1.384 . S
C479 C477 1.382 . S
C479 C478 1.400 . S
C479 H496 0.930 . S
C480 C478 1.384 . S
C480 C482 1.392 . S
C480 H497 0.931 . S
C481 C477 1.393 . S
C481 C482 1.401 . S
C481 H498 0.930 . S
C482 C480 1.392 . S
C482 C481 1.401 . S
C482 H499 0.930 . S
C483 O466 1.262 . S
C483 O467 1.260 . S
C484 Tb420 2.833 . S
C484 O464 1.251 . S
C484 O469 1.256 . S
C484 C477 1.500 . S
C485 H450 0.929 . S
C485 C463 1.444 . S
C485 C486 1.317 . S
C486 H448 0.930 . S
C486 C454 1.432 . S
C486 C485 1.317 . S
C487 O471 1.283 . S
C487 O474 1.243 . S
C488 C489 1.382 . S
C488 C492 1.393 . S
C488 C495 1.500 . S
C489 C488 1.382 . S
C489 C490 1.400 . S
C489 H500 0.930 . S
C490 C489 1.400 . S
C490 C491 1.384 . S
C491 C490 1.384 . S
C491 C493 1.392 . S
C491 H501 0.931 . S
C492 C488 1.393 . S
C492 C493 1.401 . S
C492 H502 0.930 . S
C493 C491 1.392 . S
C493 C492 1.401 . S
C493 H503 0.930 . S
C494 O472 1.262 . S
C494 O473 1.260 . S
C495 Tb431 2.833 . S
C495 O470 1.251 . S
C495 O475 1.256 . S
C495 C488 1.500 . S
H496 C479 0.930 . S
H497 C480 0.931 . S
H498 C481 0.930 . S
H499 C482 0.930 . S
H500 C489 0.930 . S
H501 C491 0.931 . S
H502 C492 0.930 . S
H503 C493 0.930 . S
Tb504 N535 2.660 . S
Tb504 N542 2.600 . S
Tb504 O548 2.546 . S
Tb504 O549 2.610 . S
Tb504 O551 2.320 . S
Tb504 O552 2.552 . S
Tb504 O553 2.413 . S
Tb504 O555 2.362 . S
Tb504 O556 2.421 . S
Tb504 C568 2.833 . S
C505 C508 1.432 . S
C505 C509 1.414 . S
C505 N512 1.359 1_565 S
C506 C508 1.417 . S
C506 C510 1.432 . S
C506 C518 1.410 . S
C507 C509 1.444 . S
C507 C510 1.317 . S
C507 H530 0.929 . S
C508 C505 1.432 . S
C508 C506 1.417 . S
C508 N516 1.360 1_565 S
C509 C505 1.414 . S
C509 C507 1.444 . S
C509 C514 1.385 . S
C510 C506 1.432 . S
C510 C507 1.317 . S
C510 H522 0.930 . S
C511 C513 1.392 . S
C511 C514 1.370 1_545 S
C511 H523 0.931 . S
N512 C505 1.359 1_545 S
N512 C513 1.327 . S
N512 Tb515 2.600 . S
C513 C511 1.392 . S
C513 N512 1.327 . S
C513 H520 0.930 . S
C514 C509 1.385 . S
C514 C511 1.370 1_565 S
C514 H533 0.930 . S
Tb515 N512 2.600 . S
Tb515 N516 2.660 . S
Tb515 O549 2.362 . S
Tb515 O550 2.421 . S
Tb515 O554 2.546 . S
Tb515 O555 2.610 . S
Tb515 O557 2.320 . S
Tb515 O558 2.552 . S
Tb515 O559 2.413 . S
Tb515 C579 2.833 . S
N516 C508 1.360 1_545 S
N516 Tb515 2.660 . S
N516 C517 1.305 1_545 S
C517 N516 1.305 1_565 S
C517 C519 1.407 . S
C517 H524 0.930 1_565 S
C518 C506 1.410 . S
C518 C519 1.345 . S
C518 H526 0.930 . S
C519 C517 1.407 . S
C519 C518 1.345 . S
C519 H521 0.930 . S
H520 C513 0.930 . S
H521 C519 0.930 . S
H522 C510 0.930 . S
H523 C511 0.931 . S
H524 C517 0.930 1_545 S
H525 C539 0.930 . S
H526 C518 0.930 . S
H527 C545 0.930 . S
H528 C536 0.930 . S
H529 C543 0.931 . S
H530 C507 0.929 . S
H531 C537 0.930 . S
H532 C570 0.930 . S
H533 C514 0.930 . S
H534 C569 0.929 . S
N535 Tb504 2.660 . S
N535 C536 1.305 . S
N535 C540 1.360 . S
C536 H528 0.930 . S
C536 N535 1.305 . S
C536 C539 1.407 . S
C537 H531 0.930 . S
C537 C538 1.410 . S
C537 C539 1.345 . S
C538 C537 1.410 . S
C538 C540 1.417 . S
C538 C570 1.432 . S
C539 H525 0.930 . S
C539 C536 1.407 . S
C539 C537 1.345 . S
C540 N535 1.360 . S
C540 C538 1.417 . S
C540 C544 1.432 . S
H541 C546 0.930 . S
N542 Tb504 2.600 . S
N542 C544 1.359 . S
N542 C545 1.327 . S
C543 H529 0.931 . S
C543 C545 1.392 . S
C543 C546 1.370 . S
C544 C540 1.432 . S
C544 N542 1.359 . S
C544 C547 1.414 . S
C545 H527 0.930 . S
C545 N542 1.327 . S
C545 C543 1.392 . S
C546 H541 0.930 . S
C546 C543 1.370 . S
C546 C547 1.385 . S
C547 C544 1.414 . S
C547 C546 1.385 . S
C547 C569 1.444 . S
O548 Tb504 2.546 . S
O548 C568 1.251 . S
O549 Tb504 2.610 . S
O549 Tb515 2.362 . S
O549 C560 1.283 . S
O550 Tb515 2.421 . S
O550 C567 1.262 . S
O551 Tb504 2.320 . S
O551 C567 1.260 . S
O552 Tb504 2.552 . S
O552 C560 1.243 . S
O553 Tb504 2.413 . S
O553 C568 1.256 . S
O554 Tb515 2.546 . S
O554 C579 1.251 . S
O555 Tb504 2.362 . S
O555 Tb515 2.610 . S
O555 C571 1.283 . S
O556 Tb504 2.421 . S
O556 C578 1.262 . S
O557 Tb515 2.320 . S
O557 C578 1.260 . S
O558 Tb515 2.552 . S
O558 C571 1.243 . S
O559 Tb515 2.413 . S
O559 C579 1.256 . S
C560 O549 1.283 . S
C560 O552 1.243 . S
C561 C563 1.382 . S
C561 C565 1.393 . S
C561 C568 1.500 . S
C562 C563 1.400 . S
C562 C564 1.384 . S
C563 C561 1.382 . S
C563 C562 1.400 . S
C563 H580 0.930 . S
C564 C562 1.384 . S
C564 C566 1.392 . S
C564 H581 0.931 1_545 S
C565 C561 1.393 . S
C565 C566 1.401 . S
C565 H582 0.930 . S
C566 C564 1.392 . S
C566 C565 1.401 . S
C566 H583 0.930 . S
C567 O550 1.262 . S
C567 O551 1.260 . S
C568 Tb504 2.833 . S
C568 O548 1.251 . S
C568 O553 1.256 . S
C568 C561 1.500 . S
C569 H534 0.929 . S
C569 C547 1.444 . S
C569 C570 1.317 . S
C570 H532 0.930 . S
C570 C538 1.432 . S
C570 C569 1.317 . S
C571 O555 1.283 . S
C571 O558 1.243 . S
C572 C573 1.382 . S
C572 C576 1.393 . S
C572 C579 1.500 . S
C573 C572 1.382 . S
C573 C574 1.400 . S
C573 H584 0.930 . S
C574 C573 1.400 . S
C574 C575 1.384 . S
C575 C574 1.384 . S
C575 C577 1.392 . S
C575 H585 0.931 . S
C576 C572 1.393 . S
C576 C577 1.401 . S
C576 H586 0.930 . S
C577 C575 1.392 . S
C577 C576 1.401 . S
C577 H587 0.930 . S
C578 O556 1.262 . S
C578 O557 1.260 . S
C579 Tb515 2.833 . S
C579 O554 1.251 . S
C579 O559 1.256 . S
C579 C572 1.500 . S
H580 C563 0.930 . S
H581 C564 0.931 1_565 S
H582 C565 0.930 . S
H583 C566 0.930 . S
H584 C573 0.930 . S
H585 C575 0.931 . S
H586 C576 0.930 . S
H587 C577 0.930 . S
Tb588 N619 2.660 . S
Tb588 N626 2.600 . S
Tb588 O632 2.546 . S
Tb588 O633 2.610 . S
Tb588 O635 2.320 . S
Tb588 O636 2.552 . S
Tb588 O637 2.413 . S
Tb588 O639 2.362 . S
Tb588 O640 2.421 . S
Tb588 C652 2.833 . S
C589 C592 1.432 . S
C589 C593 1.414 . S
C589 N596 1.359 . S
C590 C592 1.417 . S
C590 C594 1.432 . S
C590 C602 1.410 . S
C591 C593 1.444 . S
C591 C594 1.317 . S
C591 H614 0.929 . S
C592 C589 1.432 . S
C592 C590 1.417 . S
C592 N600 1.360 . S
C593 C589 1.414 . S
C593 C591 1.444 . S
C593 C598 1.385 . S
C594 C590 1.432 . S
C594 C591 1.317 . S
C594 H606 0.930 . S
C595 C597 1.392 . S
C595 C598 1.370 . S
C595 H607 0.931 . S
N596 C589 1.359 . S
N596 C597 1.327 . S
N596 Tb599 2.600 . S
C597 C595 1.392 . S
C597 N596 1.327 . S
C597 H604 0.930 . S
C598 C593 1.385 . S
C598 C595 1.370 . S
C598 H617 0.930 . S
Tb599 N596 2.600 . S
Tb599 N600 2.660 . S
Tb599 O633 2.362 . S
Tb599 O634 2.421 . S
Tb599 O638 2.546 . S
Tb599 O639 2.610 . S
Tb599 O641 2.320 . S
Tb599 O642 2.552 . S
Tb599 O643 2.413 . S
Tb599 C663 2.833 . S
N600 C592 1.360 . S
N600 Tb599 2.660 . S
N600 C601 1.305 . S
C601 N600 1.305 . S
C601 C603 1.407 . S
C601 H608 0.930 . S
C602 C590 1.410 . S
C602 C603 1.345 . S
C602 H610 0.930 . S
C603 C601 1.407 . S
C603 C602 1.345 . S
C603 H605 0.930 . S
H604 C597 0.930 . S
H605 C603 0.930 . S
H606 C594 0.930 . S
H607 C595 0.931 . S
H608 C601 0.930 . S
H609 C623 0.930 . S
H610 C602 0.930 . S
H611 C629 0.930 . S
H612 C620 0.930 . S
H613 C627 0.931 . S
H614 C591 0.929 . S
H615 C621 0.930 . S
H616 C654 0.930 . S
H617 C598 0.930 . S
H618 C653 0.929 . S
N619 Tb588 2.660 . S
N619 C620 1.305 . S
N619 C624 1.360 . S
C620 H612 0.930 . S
C620 N619 1.305 . S
C620 C623 1.407 . S
C621 H615 0.930 . S
C621 C622 1.410 . S
C621 C623 1.345 . S
C622 C621 1.410 . S
C622 C624 1.417 . S
C622 C654 1.432 . S
C623 H609 0.930 . S
C623 C620 1.407 . S
C623 C621 1.345 . S
C624 N619 1.360 . S
C624 C622 1.417 . S
C624 C628 1.432 . S
H625 C630 0.930 . S
N626 Tb588 2.600 . S
N626 C628 1.359 . S
N626 C629 1.327 . S
C627 H613 0.931 . S
C627 C629 1.392 . S
C627 C630 1.370 . S
C628 C624 1.432 . S
C628 N626 1.359 . S
C628 C631 1.414 . S
C629 H611 0.930 . S
C629 N626 1.327 . S
C629 C627 1.392 . S
C630 H625 0.930 . S
C630 C627 1.370 . S
C630 C631 1.385 . S
C631 C628 1.414 . S
C631 C630 1.385 . S
C631 C653 1.444 . S
O632 Tb588 2.546 . S
O632 C652 1.251 . S
O633 Tb588 2.610 . S
O633 Tb599 2.362 . S
O633 C644 1.283 . S
O634 Tb599 2.421 . S
O634 C651 1.262 . S
O635 Tb588 2.320 . S
O635 C651 1.260 . S
O636 Tb588 2.552 . S
O636 C644 1.243 . S
O637 Tb588 2.413 . S
O637 C652 1.256 . S
O638 Tb599 2.546 . S
O638 C663 1.251 . S
O639 Tb588 2.362 . S
O639 Tb599 2.610 . S
O639 C655 1.283 . S
O640 Tb588 2.421 . S
O640 C662 1.262 . S
O641 Tb599 2.320 . S
O641 C662 1.260 . S
O642 Tb599 2.552 . S
O642 C655 1.243 . S
O643 Tb599 2.413 . S
O643 C663 1.256 . S
C644 O633 1.283 . S
C644 O636 1.243 . S
C645 C647 1.382 . S
C645 C649 1.393 . S
C645 C652 1.500 . S
C646 C647 1.400 . S
C646 C648 1.384 . S
C647 C645 1.382 . S
C647 C646 1.400 . S
C647 H664 0.930 . S
C648 C646 1.384 . S
C648 C650 1.392 . S
C648 H665 0.931 . S
C649 C645 1.393 . S
C649 C650 1.401 . S
C649 H666 0.930 . S
C650 C648 1.392 . S
C650 C649 1.401 . S
C650 H667 0.930 . S
C651 O634 1.262 . S
C651 O635 1.260 . S
C652 Tb588 2.833 . S
C652 O632 1.251 . S
C652 O637 1.256 . S
C652 C645 1.500 . S
C653 H618 0.929 . S
C653 C631 1.444 . S
C653 C654 1.317 . S
C654 H616 0.930 . S
C654 C622 1.432 . S
C654 C653 1.317 . S
C655 O639 1.283 . S
C655 O642 1.243 . S
C656 C657 1.382 . S
C656 C660 1.393 . S
C656 C663 1.500 . S
C657 C656 1.382 . S
C657 C658 1.400 . S
C657 H668 0.930 . S
C658 C657 1.400 . S
C658 C659 1.384 . S
C659 C658 1.384 . S
C659 C661 1.392 . S
C659 H669 0.931 . S
C660 C656 1.393 . S
C660 C661 1.401 . S
C660 H670 0.930 . S
C661 C659 1.392 . S
C661 C660 1.401 . S
C661 H671 0.930 . S
C662 O640 1.262 . S
C662 O641 1.260 . S
C663 Tb599 2.833 . S
C663 O638 1.251 . S
C663 O643 1.256 . S
C663 C656 1.500 . S
H664 C647 0.930 . S
H665 C648 0.931 . S
H666 C649 0.930 . S
H667 C650 0.930 . S
H668 C657 0.930 . S
H669 C659 0.931 . S
H670 C660 0.930 . S
H671 C661 0.930 . S
Tb672 N703 2.660 . S
Tb672 N710 2.600 . S
Tb672 O716 2.546 . S
Tb672 O717 2.610 . S
Tb672 O719 2.320 . S
Tb672 O720 2.552 . S
Tb672 O721 2.413 . S
Tb672 O723 2.362 . S
Tb672 O724 2.421 . S
Tb672 C736 2.833 . S
C673 C676 1.432 . S
C673 C677 1.414 . S
C673 N680 1.359 1_565 S
C674 C676 1.417 . S
C674 C678 1.432 . S
C674 C686 1.410 . S
C675 C677 1.444 . S
C675 C678 1.317 . S
C675 H698 0.929 . S
C676 C673 1.432 . S
C676 C674 1.417 . S
C676 N684 1.360 . S
C677 C673 1.414 . S
C677 C675 1.444 . S
C677 C682 1.385 . S
C678 C674 1.432 . S
C678 C675 1.317 . S
C678 H690 0.930 . S
C679 C681 1.392 1_565 S
C679 C682 1.370 . S
C679 H691 0.923 . S
N680 C673 1.359 1_545 S
N680 C681 1.327 . S
N680 Tb683 2.600 . S
C681 C679 1.392 1_545 S
C681 N680 1.327 . S
C681 H688 0.930 . S
C682 C677 1.385 . S
C682 C679 1.370 . S
C682 H701 0.930 . S
Tb683 N680 2.600 . S
Tb683 N684 2.660 1_545 S
Tb683 O717 2.362 . S
Tb683 O718 2.421 . S
Tb683 O722 2.546 1_545 S
Tb683 O723 2.610 . S
Tb683 O725 2.320 . S
Tb683 O726 2.552 . S
Tb683 O727 2.413 1_545 S
Tb683 C747 2.833 1_545 S
N684 C676 1.360 . S
N684 Tb683 2.660 1_565 S
N684 C685 1.305 . S
C685 N684 1.305 . S
C685 C687 1.407 . S
C685 H692 0.930 1_565 S
C686 C674 1.410 . S
C686 C687 1.345 . S
C686 H694 0.930 . S
C687 C685 1.407 . S
C687 C686 1.345 . S
C687 H689 0.892 1_455 S
H688 C681 0.930 . S
H689 C687 0.892 1_655 S
H690 C678 0.930 . S
H691 C679 0.923 . S
H692 C685 0.930 1_545 S
H693 C707 0.930 . S
H694 C686 0.930 . S
H695 C713 0.930 . S
H696 C704 0.930 . S
H697 C711 0.931 . S
H698 C675 0.929 . S
H699 C705 0.930 . S
H700 C738 0.930 . S
H701 C682 0.930 . S
H702 C737 0.929 . S
N703 Tb672 2.660 . S
N703 C704 1.305 . S
N703 C708 1.360 . S
C704 H696 0.930 . S
C704 N703 1.305 . S
C704 C707 1.407 . S
C705 H699 0.930 . S
C705 C706 1.410 . S
C705 C707 1.345 . S
C706 C705 1.410 . S
C706 C708 1.417 . S
C706 C738 1.432 . S
C707 H693 0.930 . S
C707 C704 1.407 . S
C707 C705 1.345 . S
C708 N703 1.360 . S
C708 C706 1.417 . S
C708 C712 1.432 . S
H709 C714 0.930 . S
N710 Tb672 2.600 . S
N710 C712 1.359 . S
N710 C713 1.327 . S
C711 H697 0.931 . S
C711 C713 1.392 . S
C711 C714 1.370 . S
C712 C708 1.432 . S
C712 N710 1.359 . S
C712 C715 1.414 . S
C713 H695 0.930 . S
C713 N710 1.327 . S
C713 C711 1.392 . S
C714 H709 0.930 . S
C714 C711 1.370 . S
C714 C715 1.385 . S
C715 C712 1.414 . S
C715 C714 1.385 . S
C715 C737 1.444 . S
O716 Tb672 2.546 . S
O716 C736 1.251 . S
O717 Tb672 2.610 . S
O717 Tb683 2.362 . S
O717 C728 1.283 . S
O718 Tb683 2.421 . S
O718 C735 1.262 . S
O719 Tb672 2.320 . S
O719 C735 1.260 . S
O720 Tb672 2.552 . S
O720 C728 1.243 . S
O721 Tb672 2.413 . S
O721 C736 1.256 . S
O722 Tb683 2.546 1_565 S
O722 C747 1.251 . S
O723 Tb672 2.362 . S
O723 Tb683 2.610 . S
O723 C739 1.283 . S
O724 Tb672 2.421 . S
O724 C746 1.262 . S
O725 Tb683 2.320 . S
O725 C746 1.260 . S
O726 Tb683 2.552 . S
O726 C739 1.243 . S
O727 Tb683 2.413 1_565 S
O727 C747 1.256 . S
C728 O717 1.283 . S
C728 O720 1.243 . S
C729 C731 1.382 . S
C729 C733 1.393 . S
C729 C736 1.500 . S
C730 C731 1.400 . S
C730 C732 1.384 . S
C731 C729 1.382 . S
C731 C730 1.400 . S
C731 H748 0.930 . S
C732 C730 1.384 . S
C732 C734 1.392 . S
C732 H749 0.931 . S
C733 C729 1.393 . S
C733 C734 1.401 . S
C733 H750 0.930 . S
C734 C732 1.392 . S
C734 C733 1.401 . S
C734 H751 0.930 . S
C735 O718 1.262 . S
C735 O719 1.260 . S
C736 Tb672 2.833 . S
C736 O716 1.251 . S
C736 O721 1.256 . S
C736 C729 1.500 . S
C737 H702 0.929 . S
C737 C715 1.444 . S
C737 C738 1.317 . S
C738 H700 0.930 . S
C738 C706 1.432 . S
C738 C737 1.317 . S
C739 O723 1.283 . S
C739 O726 1.243 . S
C740 C741 1.382 . S
C740 C744 1.393 . S
C740 C747 1.500 . S
C741 C740 1.382 . S
C741 C742 1.400 . S
C741 H752 0.930 . S
C742 C741 1.400 . S
C742 C743 1.384 . S
C743 C742 1.384 . S
C743 C745 1.392 . S
C743 H753 0.931 . S
C744 C740 1.393 . S
C744 C745 1.401 . S
C744 H754 0.930 . S
C745 C743 1.392 . S
C745 C744 1.401 . S
C745 H755 0.930 . S
C746 O724 1.262 . S
C746 O725 1.260 . S
C747 Tb683 2.833 1_565 S
C747 O722 1.251 . S
C747 O727 1.256 . S
C747 C740 1.500 . S
H748 C731 0.930 . S
H749 C732 0.931 . S
H750 C733 0.930 . S
H751 C734 0.930 . S
H752 C741 0.930 . S
H753 C743 0.931 . S
H754 C744 0.930 . S
H755 C745 0.930 . S
Tb756 N787 2.660 . S
Tb756 N794 2.600 . S
Tb756 O800 2.546 . S
Tb756 O801 2.610 . S
Tb756 O803 2.320 . S
Tb756 O804 2.552 . S
Tb756 O805 2.413 . S
Tb756 O807 2.362 . S
Tb756 O808 2.421 . S
Tb756 C820 2.833 . S
C757 C760 1.432 . S
C757 C761 1.414 . S
C757 N764 1.359 . S
C758 C760 1.417 . S
C758 C762 1.432 . S
C758 C770 1.410 . S
C759 C761 1.444 . S
C759 C762 1.317 . S
C759 H782 0.929 . S
C760 C757 1.432 . S
C760 C758 1.417 . S
C760 N768 1.360 . S
C761 C757 1.414 . S
C761 C759 1.444 . S
C761 C766 1.385 . S
C762 C758 1.432 . S
C762 C759 1.317 . S
C762 H774 0.930 . S
C763 C765 1.392 . S
C763 C766 1.370 . S
C763 H775 0.931 . S
N764 C757 1.359 . S
N764 C765 1.327 . S
N764 Tb767 2.600 . S
C765 C763 1.392 . S
C765 N764 1.327 . S
C765 H772 0.930 . S
C766 C761 1.385 . S
C766 C763 1.370 . S
C766 H785 0.930 . S
Tb767 N764 2.600 . S
Tb767 N768 2.660 . S
Tb767 O801 2.362 . S
Tb767 O802 2.421 . S
Tb767 O806 2.546 . S
Tb767 O807 2.610 . S
Tb767 O809 2.320 . S
Tb767 O810 2.552 . S
Tb767 O811 2.413 . S
Tb767 C831 2.833 . S
N768 C760 1.360 . S
N768 Tb767 2.660 . S
N768 C769 1.305 . S
C769 N768 1.305 . S
C769 C771 1.407 . S
C769 H776 0.930 . S
C770 C758 1.410 . S
C770 C771 1.345 . S
C770 H778 0.930 . S
C771 C769 1.407 . S
C771 C770 1.345 . S
C771 H773 0.930 . S
H772 C765 0.930 . S
H773 C771 0.930 . S
H774 C762 0.930 . S
H775 C763 0.931 . S
H776 C769 0.930 . S
H777 C791 0.930 . S
H778 C770 0.930 . S
H779 C797 0.930 . S
H780 C788 0.930 . S
H781 C795 0.931 . S
H782 C759 0.929 . S
H783 C789 0.930 . S
H784 C822 0.930 . S
H785 C766 0.930 . S
H786 C821 0.929 . S
N787 Tb756 2.660 . S
N787 C788 1.305 . S
N787 C792 1.360 . S
C788 H780 0.930 . S
C788 N787 1.305 . S
C788 C791 1.407 . S
C789 H783 0.930 . S
C789 C790 1.410 . S
C789 C791 1.345 . S
C790 C789 1.410 . S
C790 C792 1.417 . S
C790 C822 1.432 . S
C791 H777 0.930 . S
C791 C788 1.407 . S
C791 C789 1.345 . S
C792 N787 1.360 . S
C792 C790 1.417 . S
C792 C796 1.432 . S
H793 C798 0.930 . S
N794 Tb756 2.600 . S
N794 C796 1.359 . S
N794 C797 1.327 . S
C795 H781 0.931 . S
C795 C797 1.392 . S
C795 C798 1.370 . S
C796 C792 1.432 . S
C796 N794 1.359 . S
C796 C799 1.414 . S
C797 H779 0.930 . S
C797 N794 1.327 . S
C797 C795 1.392 . S
C798 H793 0.930 . S
C798 C795 1.370 . S
C798 C799 1.385 . S
C799 C796 1.414 . S
C799 C798 1.385 . S
C799 C821 1.444 . S
O800 Tb756 2.546 . S
O800 C820 1.251 . S
O801 Tb756 2.610 . S
O801 Tb767 2.362 . S
O801 C812 1.283 . S
O802 Tb767 2.421 . S
O802 C819 1.262 . S
O803 Tb756 2.320 . S
O803 C819 1.260 . S
O804 Tb756 2.552 . S
O804 C812 1.243 . S
O805 Tb756 2.413 . S
O805 C820 1.256 . S
O806 Tb767 2.546 . S
O806 C831 1.251 . S
O807 Tb756 2.362 . S
O807 Tb767 2.610 . S
O807 C823 1.283 . S
O808 Tb756 2.421 . S
O808 C830 1.262 . S
O809 Tb767 2.320 . S
O809 C830 1.260 . S
O810 Tb767 2.552 . S
O810 C823 1.243 . S
O811 Tb767 2.413 . S
O811 C831 1.256 . S
C812 O801 1.283 . S
C812 O804 1.243 . S
C813 C815 1.382 . S
C813 C817 1.393 . S
C813 C820 1.500 . S
C814 C815 1.400 . S
C814 C816 1.384 . S
C815 C813 1.382 . S
C815 C814 1.400 . S
C815 H832 0.930 . S
C816 C814 1.384 . S
C816 C818 1.392 . S
C816 H833 0.931 . S
C817 C813 1.393 . S
C817 C818 1.401 . S
C817 H834 0.930 . S
C818 C816 1.392 . S
C818 C817 1.401 . S
C818 H835 0.930 . S
C819 O802 1.262 . S
C819 O803 1.260 . S
C820 Tb756 2.833 . S
C820 O800 1.251 . S
C820 O805 1.256 . S
C820 C813 1.500 . S
C821 H786 0.929 . S
C821 C799 1.444 . S
C821 C822 1.317 . S
C822 H784 0.930 . S
C822 C790 1.432 . S
C822 C821 1.317 . S
C823 O807 1.283 . S
C823 O810 1.243 . S
C824 C825 1.382 . S
C824 C828 1.393 . S
C824 C831 1.500 . S
C825 C824 1.382 . S
C825 C826 1.400 . S
C825 H836 0.930 . S
C826 C825 1.400 . S
C826 C827 1.384 . S
C827 C826 1.384 . S
C827 C829 1.392 . S
C827 H837 0.931 . S
C828 C824 1.393 . S
C828 C829 1.401 . S
C828 H838 0.930 . S
C829 C827 1.392 . S
C829 C828 1.401 . S
C829 H839 0.930 . S
C830 O808 1.262 . S
C830 O809 1.260 . S
C831 Tb767 2.833 . S
C831 O806 1.251 . S
C831 O811 1.256 . S
C831 C824 1.500 . S
H832 C815 0.930 . S
H833 C816 0.931 . S
H834 C817 0.930 . S
H835 C818 0.930 . S
H836 C825 0.930 . S
H837 C827 0.931 . S
H838 C828 0.930 . S
H839 C829 0.930 . S
Tb840 N871 2.660 . S
Tb840 N878 2.600 . S
Tb840 O884 2.546 . S
Tb840 O885 2.610 . S
Tb840 O887 2.320 . S
Tb840 O888 2.552 . S
Tb840 O889 2.413 . S
Tb840 O891 2.362 . S
Tb840 O892 2.421 . S
Tb840 C904 2.833 . S
C841 C844 1.432 . S
C841 C845 1.414 . S
C841 N848 1.359 . S
C842 C844 1.417 . S
C842 C846 1.432 . S
C842 C854 1.410 1_545 S
C843 C845 1.444 . S
C843 C846 1.317 . S
C843 H866 0.929 . S
C844 C841 1.432 . S
C844 C842 1.417 . S
C844 N852 1.360 . S
C845 C841 1.414 . S
C845 C843 1.444 . S
C845 C850 1.385 . S
C846 C842 1.432 . S
C846 C843 1.317 . S
C846 H858 0.930 . S
C847 C849 1.392 . S
C847 C850 1.370 . S
C847 H859 0.931 . S
N848 C841 1.359 . S
N848 C849 1.327 . S
N848 Tb851 2.600 1_556 S
C849 C847 1.392 . S
C849 N848 1.327 . S
C849 H856 0.930 1_556 S
C850 C845 1.385 . S
C850 C847 1.370 . S
C850 H869 0.930 . S
Tb851 N848 2.600 1_554 S
Tb851 N852 2.660 1_554 S
Tb851 O885 2.362 . S
Tb851 O886 2.421 . S
Tb851 O890 2.546 1_554 S
Tb851 O891 2.610 . S
Tb851 O893 2.321 1_554 S
Tb851 O894 2.552 . S
Tb851 O895 2.413 1_554 S
Tb851 C915 2.833 1_554 S
N852 C844 1.360 . S
N852 Tb851 2.660 1_556 S
N852 C853 1.305 . S
C853 N852 1.305 . S
C853 C855 1.407 1_545 S
C853 H860 0.930 . S
C854 C842 1.410 1_565 S
C854 C855 1.345 . S
C854 H862 0.930 . S
C855 C853 1.407 1_565 S
C855 C854 1.345 . S
C855 H857 0.930 . S
H856 C849 0.930 1_554 S
H857 C855 0.930 . S
H858 C846 0.930 . S
H859 C847 0.931 . S
H860 C853 0.930 . S
H861 C875 0.930 . S
H862 C854 0.930 . S
H863 C881 0.930 1_565 S
H864 C872 0.930 . S
H865 C879 0.931 . S
H866 C843 0.929 . S
H867 C873 0.930 . S
H868 C906 0.930 . S
H869 C850 0.930 . S
H870 C905 0.929 . S
N871 Tb840 2.660 . S
N871 C872 1.305 . S
N871 C876 1.360 . S
C872 H864 0.930 . S
C872 N871 1.305 . S
C872 C875 1.407 . S
C873 H867 0.930 . S
C873 C874 1.410 . S
C873 C875 1.345 . S
C874 C873 1.410 . S
C874 C876 1.417 . S
C874 C906 1.432 . S
C875 H861 0.930 . S
C875 C872 1.407 . S
C875 C873 1.345 . S
C876 N871 1.360 . S
C876 C874 1.417 . S
C876 C880 1.432 . S
H877 C882 0.920 1_565 S
N878 Tb840 2.600 . S
N878 C880 1.359 . S
N878 C881 1.327 . S
C879 H865 0.931 . S
C879 C881 1.392 1_565 S
C879 C882 1.370 1_565 S
C880 C876 1.432 . S
C880 N878 1.359 . S
C880 C883 1.414 . S
C881 H863 0.930 1_545 S
C881 N878 1.327 . S
C881 C879 1.392 1_545 S
C882 H877 0.920 1_545 S
C882 C879 1.370 1_545 S
C882 C883 1.385 . S
C883 C880 1.414 . S
C883 C882 1.385 . S
C883 C905 1.444 . S
O884 Tb840 2.546 . S
O884 C904 1.251 . S
O885 Tb840 2.610 . S
O885 Tb851 2.362 . S
O885 C896 1.283 . S
O886 Tb851 2.421 . S
O886 C903 1.262 . S
O887 Tb840 2.320 . S
O887 C903 1.260 . S
O888 Tb840 2.552 . S
O888 C896 1.243 . S
O889 Tb840 2.413 . S
O889 C904 1.256 . S
O890 Tb851 2.546 1_556 S
O890 C915 1.251 . S
O891 Tb840 2.362 . S
O891 Tb851 2.610 . S
O891 C907 1.283 . S
O892 Tb840 2.421 . S
O892 C914 1.262 . S
O893 Tb851 2.321 1_556 S
O893 C914 1.255 1_556 S
O894 Tb851 2.552 . S
O894 C907 1.243 . S
O895 Tb851 2.413 1_556 S
O895 C915 1.256 . S
C896 O885 1.283 . S
C896 O888 1.243 . S
C897 C899 1.382 . S
C897 C901 1.393 . S
C897 C904 1.500 . S
C898 C899 1.400 . S
C898 C900 1.384 . S
C899 C897 1.382 . S
C899 C898 1.400 . S
C899 H916 0.930 . S
C900 C898 1.384 . S
C900 C902 1.407 . S
C900 H917 0.931 . S
C901 C897 1.393 . S
C901 C902 1.408 . S
C901 H918 0.930 1_545 S
C902 C900 1.407 . S
C902 C901 1.408 . S
C902 H919 0.908 1_545 S
C903 O886 1.262 . S
C903 O887 1.260 . S
C904 Tb840 2.833 . S
C904 O884 1.251 . S
C904 O889 1.256 . S
C904 C897 1.500 . S
C905 H870 0.929 . S
C905 C883 1.444 . S
C905 C906 1.317 . S
C906 H868 0.930 . S
C906 C874 1.432 . S
C906 C905 1.317 . S
C907 O891 1.283 . S
C907 O894 1.243 . S
C908 C909 1.382 . S
C908 C912 1.393 . S
C908 C915 1.500 . S
C909 C908 1.382 . S
C909 C910 1.400 . S
C909 H920 0.930 . S
C910 C909 1.400 . S
C910 C911 1.384 . S
C911 C910 1.384 . S
C911 C913 1.392 . S
C911 H921 0.931 . S
C912 C908 1.393 . S
C912 C913 1.401 . S
C912 H922 0.930 . S
C913 C911 1.392 . S
C913 C912 1.401 . S
C913 H923 0.930 . S
C914 O892 1.262 . S
C914 O893 1.255 1_554 S
C915 Tb851 2.833 1_556 S
C915 O890 1.251 . S
C915 O895 1.256 . S
C915 C908 1.500 . S
H916 C899 0.930 . S
H917 C900 0.931 . S
H918 C901 0.930 1_565 S
H919 C902 0.908 1_565 S
H920 C909 0.930 . S
H921 C911 0.931 . S
H922 C912 0.930 . S
H923 C913 0.930 . S
Tb924 N955 2.660 . S
Tb924 N962 2.600 . S
Tb924 O968 2.546 . S
Tb924 O969 2.610 . S
Tb924 O971 2.320 . S
Tb924 O972 2.552 . S
Tb924 O973 2.413 . S
Tb924 O975 2.362 . S
Tb924 O976 2.421 . S
Tb924 C988 2.833 . S
C925 C928 1.432 . S
C925 C929 1.414 . S
C925 N932 1.359 . S
C926 C928 1.417 . S
C926 C930 1.432 . S
C926 C938 1.410 . S
C927 C929 1.444 . S
C927 C930 1.317 . S
C927 H950 0.929 . S
C928 C925 1.432 . S
C928 C926 1.417 . S
C928 N936 1.360 . S
C929 C925 1.414 . S
C929 C927 1.444 . S
C929 C934 1.385 . S
C930 C926 1.432 . S
C930 C927 1.317 . S
C930 H942 0.930 . S
C931 C933 1.392 . S
C931 C934 1.370 . S
C931 H943 0.931 . S
N932 C925 1.359 . S
N932 C933 1.327 . S
N932 Tb935 2.600 . S
C933 C931 1.392 . S
C933 N932 1.327 . S
C933 H940 0.930 . S
C934 C929 1.385 . S
C934 C931 1.370 . S
C934 H953 0.930 . S
Tb935 N932 2.600 . S
Tb935 N936 2.660 . S
Tb935 O969 2.362 . S
Tb935 O970 2.421 . S
Tb935 O974 2.546 . S
Tb935 O975 2.610 . S
Tb935 O977 2.320 . S
Tb935 O978 2.552 . S
Tb935 O979 2.413 . S
Tb935 C999 2.833 . S
N936 C928 1.360 . S
N936 Tb935 2.660 . S
N936 C937 1.305 . S
C937 N936 1.305 . S
C937 C939 1.407 . S
C937 H944 0.930 . S
C938 C926 1.410 . S
C938 C939 1.345 . S
C938 H946 0.930 . S
C939 C937 1.407 . S
C939 C938 1.345 . S
C939 H941 0.930 . S
H940 C933 0.930 . S
H941 C939 0.930 . S
H942 C930 0.930 . S
H943 C931 0.931 . S
H944 C937 0.930 . S
H945 C959 0.930 . S
H946 C938 0.930 . S
H947 C965 0.930 . S
H948 C956 0.930 . S
H949 C963 0.931 . S
H950 C927 0.929 . S
H951 C957 0.930 . S
H952 C990 0.930 . S
H953 C934 0.930 . S
H954 C989 0.929 . S
N955 Tb924 2.660 . S
N955 C956 1.305 . S
N955 C960 1.360 . S
C956 H948 0.930 . S
C956 N955 1.305 . S
C956 C959 1.407 . S
C957 H951 0.930 . S
C957 C958 1.410 . S
C957 C959 1.345 . S
C958 C957 1.410 . S
C958 C960 1.417 . S
C958 C990 1.432 . S
C959 H945 0.930 . S
C959 C956 1.407 . S
C959 C957 1.345 . S
C960 N955 1.360 . S
C960 C958 1.417 . S
C960 C964 1.432 . S
H961 C966 0.930 . S
N962 Tb924 2.600 . S
N962 C964 1.359 . S
N962 C965 1.327 . S
C963 H949 0.931 . S
C963 C965 1.392 . S
C963 C966 1.370 . S
C964 C960 1.432 . S
C964 N962 1.359 . S
C964 C967 1.414 . S
C965 H947 0.930 . S
C965 N962 1.327 . S
C965 C963 1.392 . S
C966 H961 0.930 . S
C966 C963 1.370 . S
C966 C967 1.385 . S
C967 C964 1.414 . S
C967 C966 1.385 . S
C967 C989 1.444 . S
O968 Tb924 2.546 . S
O968 C988 1.251 . S
O969 Tb924 2.610 . S
O969 Tb935 2.362 . S
O969 C980 1.283 . S
O970 Tb935 2.421 . S
O970 C987 1.262 . S
O971 Tb924 2.320 . S
O971 C987 1.260 . S
O972 Tb924 2.552 . S
O972 C980 1.243 . S
O973 Tb924 2.413 . S
O973 C988 1.256 . S
O974 Tb935 2.546 . S
O974 C999 1.251 . S
O975 Tb924 2.362 . S
O975 Tb935 2.610 . S
O975 C991 1.283 . S
O976 Tb924 2.421 . S
O976 C998 1.262 . S
O977 Tb935 2.320 . S
O977 C998 1.260 . S
O978 Tb935 2.552 . S
O978 C991 1.243 . S
O979 Tb935 2.413 . S
O979 C999 1.256 . S
C980 O969 1.283 . S
C980 O972 1.243 . S
C981 C983 1.382 . S
C981 C985 1.393 . S
C981 C988 1.500 . S
C982 C983 1.400 . S
C982 C984 1.384 . S
C983 C981 1.382 . S
C983 C982 1.400 . S
C983 H1000 0.930 . S
C984 C982 1.384 . S
C984 C986 1.392 . S
C984 H1001 0.931 . S
C985 C981 1.393 . S
C985 C986 1.401 . S
C985 H1002 0.930 . S
C986 C984 1.392 . S
C986 C985 1.401 . S
C986 H1003 0.930 . S
C987 O970 1.262 . S
C987 O971 1.260 . S
C988 Tb924 2.833 . S
C988 O968 1.251 . S
C988 O973 1.256 . S
C988 C981 1.500 . S
C989 H954 0.929 . S
C989 C967 1.444 . S
C989 C990 1.317 . S
C990 H952 0.930 . S
C990 C958 1.432 . S
C990 C989 1.317 . S
C991 O975 1.283 . S
C991 O978 1.243 . S
C992 C993 1.382 . S
C992 C996 1.393 . S
C992 C999 1.500 . S
C993 C992 1.382 . S
C993 C994 1.400 . S
C993 H1004 0.930 . S
C994 C993 1.400 . S
C994 C995 1.384 . S
C995 C994 1.384 . S
C995 C997 1.392 . S
C995 H1005 0.931 . S
C996 C992 1.393 . S
C996 C997 1.401 . S
C996 H1006 0.930 . S
C997 C995 1.392 . S
C997 C996 1.401 . S
C997 H1007 0.930 . S
C998 O976 1.262 . S
C998 O977 1.260 . S
C999 Tb935 2.833 . S
C999 O974 1.251 . S
C999 O979 1.256 . S
C999 C992 1.500 . S
H1000 C983 0.930 . S
H1001 C984 0.931 . S
H1002 C985 0.930 . S
H1003 C986 0.930 . S
H1004 C993 0.930 . S
H1005 C995 0.931 . S
H1006 C996 0.930 . S
H1007 C997 0.930 . S
Tb1008 N1039 2.660 . S
Tb1008 N1046 2.600 . S
Tb1008 O1052 2.546 . S
Tb1008 O1053 2.610 . S
Tb1008 O1055 2.320 . S
Tb1008 O1056 2.552 1_554 S
Tb1008 O1057 2.413 . S
Tb1008 O1059 2.362 . S
Tb1008 O1060 2.421 . S
Tb1008 C1072 2.833 . S
C1009 C1012 1.432 . S
C1009 C1013 1.414 . S
C1009 N1016 1.359 . S
C1010 C1012 1.417 . S
C1010 C1014 1.432 . S
C1010 C1022 1.410 . S
C1011 C1013 1.444 . S
C1011 C1014 1.317 . S
C1011 H1034 0.929 . S
C1012 C1009 1.432 . S
C1012 C1010 1.417 . S
C1012 N1020 1.360 . S
C1013 C1009 1.414 . S
C1013 C1011 1.444 . S
C1013 C1018 1.385 . S
C1014 C1010 1.432 . S
C1014 C1011 1.317 . S
C1014 H1026 0.930 . S
C1015 C1017 1.392 . S
C1015 C1018 1.370 . S
C1015 H1027 0.931 . S
N1016 C1009 1.359 . S
N1016 C1017 1.327 . S
N1016 Tb1019 2.600 1_556 S
C1017 C1015 1.392 . S
C1017 N1016 1.327 . S
C1017 H1024 0.930 . S
C1018 C1013 1.385 . S
C1018 C1015 1.370 . S
C1018 H1037 0.930 . S
Tb1019 N1016 2.600 1_554 S
Tb1019 N1020 2.660 1_554 S
Tb1019 O1053 2.362 . S
Tb1019 O1054 2.421 . S
Tb1019 O1058 2.546 . S
Tb1019 O1059 2.610 . S
Tb1019 O1061 2.320 . S
Tb1019 O1062 2.552 . S
Tb1019 O1063 2.413 . S
Tb1019 C1083 2.833 . S
N1020 C1012 1.360 . S
N1020 Tb1019 2.660 1_556 S
N1020 C1021 1.305 . S
C1021 N1020 1.305 . S
C1021 C1023 1.407 . S
C1021 H1028 0.930 . S
C1022 C1010 1.410 . S
C1022 C1023 1.345 . S
C1022 H1030 0.930 . S
C1023 C1021 1.407 . S
C1023 C1022 1.345 . S
C1023 H1025 0.930 . S
H1024 C1017 0.930 . S
H1025 C1023 0.930 . S
H1026 C1014 0.930 . S
H1027 C1015 0.931 . S
H1028 C1021 0.930 . S
H1029 C1043 0.930 . S
H1030 C1022 0.930 . S
H1031 C1049 0.930 . S
H1032 C1040 0.930 . S
H1033 C1047 0.931 . S
H1034 C1011 0.929 . S
H1035 C1041 0.930 . S
H1036 C1074 0.930 . S
H1037 C1018 0.930 . S
H1038 C1073 0.929 . S
N1039 Tb1008 2.660 . S
N1039 C1040 1.305 . S
N1039 C1044 1.360 . S
C1040 H1032 0.930 . S
C1040 N1039 1.305 . S
C1040 C1043 1.407 . S
C1041 H1035 0.930 . S
C1041 C1042 1.410 . S
C1041 C1043 1.345 . S
C1042 C1041 1.410 . S
C1042 C1044 1.417 . S
C1042 C1074 1.432 . S
C1043 H1029 0.930 . S
C1043 C1040 1.407 . S
C1043 C1041 1.345 . S
C1044 N1039 1.360 . S
C1044 C1042 1.417 . S
C1044 C1048 1.432 . S
H1045 C1050 0.930 . S
N1046 Tb1008 2.600 . S
N1046 C1048 1.359 . S
N1046 C1049 1.327 . S
C1047 H1033 0.931 . S
C1047 C1049 1.392 . S
C1047 C1050 1.370 . S
C1048 C1044 1.432 . S
C1048 N1046 1.359 . S
C1048 C1051 1.414 . S
C1049 H1031 0.930 . S
C1049 N1046 1.327 . S
C1049 C1047 1.392 . S
C1050 H1045 0.930 . S
C1050 C1047 1.370 . S
C1050 C1051 1.385 . S
C1051 C1048 1.414 . S
C1051 C1050 1.385 . S
C1051 C1073 1.444 . S
O1052 Tb1008 2.546 . S
O1052 C1072 1.251 . S
O1053 Tb1008 2.610 . S
O1053 Tb1019 2.362 . S
O1053 C1064 1.283 1_554 S
O1054 Tb1019 2.421 . S
O1054 C1071 1.262 . S
O1055 Tb1008 2.320 . S
O1055 C1071 1.260 . S
O1056 Tb1008 2.552 1_556 S
O1056 C1064 1.243 . S
O1057 Tb1008 2.413 . S
O1057 C1072 1.256 . S
O1058 Tb1019 2.546 . S
O1058 C1083 1.251 . S
O1059 Tb1008 2.362 . S
O1059 Tb1019 2.610 . S
O1059 C1075 1.283 . S
O1060 Tb1008 2.421 . S
O1060 C1082 1.262 . S
O1061 Tb1019 2.320 . S
O1061 C1082 1.260 . S
O1062 Tb1019 2.552 . S
O1062 C1075 1.243 . S
O1063 Tb1019 2.413 . S
O1063 C1083 1.256 . S
C1064 O1053 1.283 1_556 S
C1064 O1056 1.243 . S
C1065 C1067 1.382 . S
C1065 C1069 1.393 . S
C1065 C1072 1.500 . S
C1066 C1067 1.400 . S
C1066 C1068 1.384 . S
C1067 C1065 1.382 . S
C1067 C1066 1.400 . S
C1067 H1084 0.930 . S
C1068 C1066 1.384 . S
C1068 C1070 1.392 . S
C1068 H1085 0.931 . S
C1069 C1065 1.393 . S
C1069 C1070 1.401 . S
C1069 H1086 0.930 . S
C1070 C1068 1.392 . S
C1070 C1069 1.401 . S
C1070 H1087 0.930 . S
C1071 O1054 1.262 . S
C1071 O1055 1.260 . S
C1072 Tb1008 2.833 . S
C1072 O1052 1.251 . S
C1072 O1057 1.256 . S
C1072 C1065 1.500 . S
C1073 H1038 0.929 . S
C1073 C1051 1.444 . S
C1073 C1074 1.317 . S
C1074 H1036 0.930 . S
C1074 C1042 1.432 . S
C1074 C1073 1.317 . S
C1075 O1059 1.283 . S
C1075 O1062 1.243 . S
C1076 C1077 1.382 . S
C1076 C1080 1.393 . S
C1076 C1083 1.500 . S
C1077 C1076 1.382 . S
C1077 C1078 1.400 . S
C1077 H1088 0.930 . S
C1078 C1077 1.400 . S
C1078 C1079 1.384 . S
C1079 C1078 1.384 . S
C1079 C1081 1.392 . S
C1079 H1089 0.931 . S
C1080 C1076 1.393 . S
C1080 C1081 1.401 . S
C1080 H1090 0.930 . S
C1081 C1079 1.392 . S
C1081 C1080 1.401 . S
C1081 H1091 0.930 . S
C1082 O1060 1.262 . S
C1082 O1061 1.260 . S
C1083 Tb1019 2.833 . S
C1083 O1058 1.251 . S
C1083 O1063 1.256 . S
C1083 C1076 1.500 . S
H1084 C1067 0.930 . S
H1085 C1068 0.931 . S
H1086 C1069 0.930 . S
H1087 C1070 0.930 . S
H1088 C1077 0.930 . S
H1089 C1079 0.931 . S
H1090 C1080 0.930 . S
H1091 C1081 0.930 . S
Tb1092 N1123 2.660 . S
Tb1092 N1130 2.600 . S
Tb1092 O1136 2.546 . S
Tb1092 O1137 2.610 . S
Tb1092 O1139 2.320 . S
Tb1092 O1140 2.552 . S
Tb1092 O1141 2.413 . S
Tb1092 O1143 2.362 . S
Tb1092 O1144 2.421 . S
Tb1092 C1156 2.833 . S
C1093 C1096 1.432 . S
C1093 C1097 1.414 . S
C1093 N1100 1.359 . S
C1094 C1096 1.417 . S
C1094 C1098 1.432 . S
C1094 C1106 1.410 . S
C1095 C1097 1.444 . S
C1095 C1098 1.317 . S
C1095 H1118 0.929 . S
C1096 C1093 1.432 . S
C1096 C1094 1.417 . S
C1096 N1104 1.360 . S
C1097 C1093 1.414 . S
C1097 C1095 1.444 . S
C1097 C1102 1.385 . S
C1098 C1094 1.432 . S
C1098 C1095 1.317 . S
C1098 H1110 0.930 . S
C1099 C1101 1.392 . S
C1099 C1102 1.370 . S
C1099 H1111 0.931 . S
N1100 C1093 1.359 . S
N1100 C1101 1.327 . S
N1100 Tb1103 2.600 . S
C1101 C1099 1.392 . S
C1101 N1100 1.327 . S
C1101 H1108 0.930 . S
C1102 C1097 1.385 . S
C1102 C1099 1.370 . S
C1102 H1121 0.930 . S
Tb1103 N1100 2.600 . S
Tb1103 N1104 2.660 . S
Tb1103 O1137 2.362 . S
Tb1103 O1138 2.421 . S
Tb1103 O1142 2.546 . S
Tb1103 O1143 2.610 . S
Tb1103 O1145 2.320 . S
Tb1103 O1146 2.552 . S
Tb1103 O1147 2.413 . S
Tb1103 C1167 2.833 . S
N1104 C1096 1.360 . S
N1104 Tb1103 2.660 . S
N1104 C1105 1.305 . S
C1105 N1104 1.305 . S
C1105 C1107 1.407 . S
C1105 H1112 0.930 . S
C1106 C1094 1.410 . S
C1106 C1107 1.345 . S
C1106 H1114 0.930 . S
C1107 C1105 1.407 . S
C1107 C1106 1.345 . S
C1107 H1109 0.930 . S
H1108 C1101 0.930 . S
H1109 C1107 0.930 . S
H1110 C1098 0.930 . S
H1111 C1099 0.931 . S
H1112 C1105 0.930 . S
H1113 C1127 0.930 . S
H1114 C1106 0.930 . S
H1115 C1133 0.930 . S
H1116 C1124 0.930 . S
H1117 C1131 0.931 . S
H1118 C1095 0.929 . S
H1119 C1125 0.930 . S
H1120 C1158 0.930 . S
H1121 C1102 0.930 . S
H1122 C1157 0.929 . S
N1123 Tb1092 2.660 . S
N1123 C1124 1.305 . S
N1123 C1128 1.360 . S
C1124 H1116 0.930 . S
C1124 N1123 1.305 . S
C1124 C1127 1.407 . S
C1125 H1119 0.930 . S
C1125 C1126 1.410 . S
C1125 C1127 1.345 . S
C1126 C1125 1.410 . S
C1126 C1128 1.417 . S
C1126 C1158 1.432 . S
C1127 H1113 0.930 . S
C1127 C1124 1.407 . S
C1127 C1125 1.345 . S
C1128 N1123 1.360 . S
C1128 C1126 1.417 . S
C1128 C1132 1.432 . S
H1129 C1134 0.930 . S
N1130 Tb1092 2.600 . S
N1130 C1132 1.359 . S
N1130 C1133 1.327 . S
C1131 H1117 0.931 . S
C1131 C1133 1.392 . S
C1131 C1134 1.370 . S
C1132 C1128 1.432 . S
C1132 N1130 1.359 . S
C1132 C1135 1.414 . S
C1133 H1115 0.930 . S
C1133 N1130 1.327 . S
C1133 C1131 1.392 . S
C1134 H1129 0.930 . S
C1134 C1131 1.370 . S
C1134 C1135 1.385 . S
C1135 C1132 1.414 . S
C1135 C1134 1.385 . S
C1135 C1157 1.444 . S
O1136 Tb1092 2.546 . S
O1136 C1156 1.251 . S
O1137 Tb1092 2.610 . S
O1137 Tb1103 2.362 . S
O1137 C1148 1.283 . S
O1138 Tb1103 2.421 . S
O1138 C1155 1.262 . S
O1139 Tb1092 2.320 . S
O1139 C1155 1.260 . S
O1140 Tb1092 2.552 . S
O1140 C1148 1.243 . S
O1141 Tb1092 2.413 . S
O1141 C1156 1.256 . S
O1142 Tb1103 2.546 . S
O1142 C1167 1.251 . S
O1143 Tb1092 2.362 . S
O1143 Tb1103 2.610 . S
O1143 C1159 1.283 . S
O1144 Tb1092 2.421 . S
O1144 C1166 1.262 . S
O1145 Tb1103 2.320 . S
O1145 C1166 1.260 . S
O1146 Tb1103 2.552 . S
O1146 C1159 1.243 . S
O1147 Tb1103 2.413 . S
O1147 C1167 1.256 . S
C1148 O1137 1.283 . S
C1148 O1140 1.243 . S
C1149 C1151 1.382 . S
C1149 C1153 1.393 . S
C1149 C1156 1.500 . S
C1150 C1151 1.400 . S
C1150 C1152 1.384 . S
C1151 C1149 1.382 . S
C1151 C1150 1.400 . S
C1151 H1168 0.930 . S
C1152 C1150 1.384 . S
C1152 C1154 1.392 . S
C1152 H1169 0.931 . S
C1153 C1149 1.393 . S
C1153 C1154 1.401 . S
C1153 H1170 0.930 . S
C1154 C1152 1.392 . S
C1154 C1153 1.401 . S
C1154 H1171 0.930 . S
C1155 O1138 1.262 . S
C1155 O1139 1.260 . S
C1156 Tb1092 2.833 . S
C1156 O1136 1.251 . S
C1156 O1141 1.256 . S
C1156 C1149 1.500 . S
C1157 H1122 0.929 . S
C1157 C1135 1.444 . S
C1157 C1158 1.317 . S
C1158 H1120 0.930 . S
C1158 C1126 1.432 . S
C1158 C1157 1.317 . S
C1159 O1143 1.283 . S
C1159 O1146 1.243 . S
C1160 C1161 1.382 . S
C1160 C1164 1.393 . S
C1160 C1167 1.500 . S
C1161 C1160 1.382 . S
C1161 C1162 1.400 . S
C1161 H1172 0.930 . S
C1162 C1161 1.400 . S
C1162 C1163 1.384 . S
C1163 C1162 1.384 . S
C1163 C1165 1.392 . S
C1163 H1173 0.931 . S
C1164 C1160 1.393 . S
C1164 C1165 1.401 . S
C1164 H1174 0.930 . S
C1165 C1163 1.392 . S
C1165 C1164 1.401 . S
C1165 H1175 0.930 . S
C1166 O1144 1.262 . S
C1166 O1145 1.260 . S
C1167 Tb1103 2.833 . S
C1167 O1142 1.251 . S
C1167 O1147 1.256 . S
C1167 C1160 1.500 . S
H1168 C1151 0.930 . S
H1169 C1152 0.931 . S
H1170 C1153 0.930 . S
H1171 C1154 0.930 . S
H1172 C1161 0.930 . S
H1173 C1163 0.931 . S
H1174 C1164 0.930 . S
H1175 C1165 0.930 . S
Tb1176 N1207 2.660 . S
Tb1176 N1214 2.600 . S
Tb1176 O1220 2.546 . S
Tb1176 O1221 2.610 . S
Tb1176 O1223 2.320 . S
Tb1176 O1224 2.552 . S
Tb1176 O1225 2.413 . S
Tb1176 O1227 2.362 . S
Tb1176 O1228 2.421 . S
Tb1176 C1240 2.833 . S
C1177 C1180 1.432 . S
C1177 C1181 1.414 1_455 S
C1177 N1184 1.359 . S
C1178 C1180 1.417 1_655 S
C1178 C1182 1.432 . S
C1178 C1190 1.410 . S
C1179 C1181 1.444 . S
C1179 C1182 1.317 . S
C1179 H1202 0.929 . S
C1180 C1177 1.432 . S
C1180 C1178 1.417 1_455 S
C1180 N1188 1.360 . S
C1181 C1177 1.414 1_655 S
C1181 C1179 1.444 . S
C1181 C1186 1.379 . S
C1182 C1178 1.432 . S
C1182 C1179 1.317 . S
C1182 H1194 0.930 . S
C1183 C1185 1.392 . S
C1183 C1186 1.334 1_455 S
C1183 H1195 0.931 . S
N1184 C1177 1.359 . S
N1184 C1185 1.327 . S
N1184 Tb1187 2.600 . S
C1185 C1183 1.392 . S
C1185 N1184 1.327 . S
C1185 H1192 0.930 . S
C1186 C1181 1.379 . S
C1186 C1183 1.334 1_655 S
C1186 H1205 0.972 . S
Tb1187 N1184 2.600 . S
Tb1187 N1188 2.660 . S
Tb1187 O1221 2.362 . S
Tb1187 O1222 2.421 . S
Tb1187 O1226 2.546 . S
Tb1187 O1227 2.610 . S
Tb1187 O1229 2.320 . S
Tb1187 O1230 2.552 . S
Tb1187 O1231 2.413 . S
Tb1187 C1251 2.833 . S
N1188 C1180 1.360 . S
N1188 Tb1187 2.660 . S
N1188 C1189 1.305 . S
C1189 N1188 1.305 . S
C1189 C1191 1.407 . S
C1189 H1196 0.930 . S
C1190 C1178 1.410 . S
C1190 C1191 1.345 1_655 S
C1190 H1198 0.930 . S
C1191 C1189 1.407 . S
C1191 C1190 1.345 1_455 S
C1191 H1193 0.930 . S
H1192 C1185 0.930 . S
H1193 C1191 0.930 . S
H1194 C1182 0.930 . S
H1195 C1183 0.931 . S
H1196 C1189 0.930 . S
H1197 C1211 0.930 . S
H1198 C1190 0.930 . S
H1199 C1217 0.930 . S
H1200 C1208 0.930 . S
H1201 C1215 0.931 . S
H1202 C1179 0.929 . S
H1203 C1209 0.930 . S
H1204 C1242 0.930 . S
H1205 C1186 0.972 . S
H1206 C1241 0.929 . S
N1207 Tb1176 2.660 . S
N1207 C1208 1.305 . S
N1207 C1212 1.360 . S
C1208 H1200 0.930 . S
C1208 N1207 1.305 . S
C1208 C1211 1.407 . S
C1209 H1203 0.930 . S
C1209 C1210 1.410 . S
C1209 C1211 1.345 . S
C1210 C1209 1.410 . S
C1210 C1212 1.417 . S
C1210 C1242 1.432 . S
C1211 H1197 0.930 . S
C1211 C1208 1.407 . S
C1211 C1209 1.345 . S
C1212 N1207 1.360 . S
C1212 C1210 1.417 . S
C1212 C1216 1.432 . S
H1213 C1218 0.930 . S
N1214 Tb1176 2.600 . S
N1214 C1216 1.359 . S
N1214 C1217 1.327 . S
C1215 H1201 0.931 . S
C1215 C1217 1.392 . S
C1215 C1218 1.370 . S
C1216 C1212 1.432 . S
C1216 N1214 1.359 . S
C1216 C1219 1.414 . S
C1217 H1199 0.930 . S
C1217 N1214 1.327 . S
C1217 C1215 1.392 . S
C1218 H1213 0.930 . S
C1218 C1215 1.370 . S
C1218 C1219 1.385 . S
C1219 C1216 1.414 . S
C1219 C1218 1.385 . S
C1219 C1241 1.444 . S
O1220 Tb1176 2.546 . S
O1220 C1240 1.251 . S
O1221 Tb1176 2.610 . S
O1221 Tb1187 2.362 . S
O1221 C1232 1.283 . S
O1222 Tb1187 2.421 . S
O1222 C1239 1.262 . S
O1223 Tb1176 2.320 . S
O1223 C1239 1.260 . S
O1224 Tb1176 2.552 . S
O1224 C1232 1.243 . S
O1225 Tb1176 2.413 . S
O1225 C1240 1.256 . S
O1226 Tb1187 2.546 . S
O1226 C1251 1.251 . S
O1227 Tb1176 2.362 . S
O1227 Tb1187 2.610 . S
O1227 C1243 1.283 . S
O1228 Tb1176 2.421 . S
O1228 C1250 1.262 . S
O1229 Tb1187 2.320 . S
O1229 C1250 1.260 . S
O1230 Tb1187 2.552 . S
O1230 C1243 1.243 . S
O1231 Tb1187 2.413 . S
O1231 C1251 1.256 . S
C1232 O1221 1.283 . S
C1232 O1224 1.243 . S
C1233 C1235 1.382 . S
C1233 C1237 1.393 . S
C1233 C1240 1.500 . S
C1234 C1235 1.400 . S
C1234 C1236 1.384 . S
C1235 C1233 1.382 . S
C1235 C1234 1.400 . S
C1235 H1252 0.930 . S
C1236 C1234 1.384 . S
C1236 C1238 1.392 . S
C1236 H1253 0.931 . S
C1237 C1233 1.393 . S
C1237 C1238 1.401 . S
C1237 H1254 0.930 . S
C1238 C1236 1.392 . S
C1238 C1237 1.401 . S
C1238 H1255 0.930 . S
C1239 O1222 1.262 . S
C1239 O1223 1.260 . S
C1240 Tb1176 2.833 . S
C1240 O1220 1.251 . S
C1240 O1225 1.256 . S
C1240 C1233 1.500 . S
C1241 H1206 0.929 . S
C1241 C1219 1.444 . S
C1241 C1242 1.317 . S
C1242 H1204 0.930 . S
C1242 C1210 1.432 . S
C1242 C1241 1.317 . S
C1243 O1227 1.283 . S
C1243 O1230 1.243 . S
C1244 C1245 1.382 . S
C1244 C1248 1.393 . S
C1244 C1251 1.500 . S
C1245 C1244 1.382 . S
C1245 C1246 1.400 . S
C1245 H1256 0.930 . S
C1246 C1245 1.400 . S
C1246 C1247 1.384 . S
C1247 C1246 1.384 . S
C1247 C1249 1.392 . S
C1247 H1257 0.931 . S
C1248 C1244 1.393 . S
C1248 C1249 1.401 . S
C1248 H1258 0.930 . S
C1249 C1247 1.392 . S
C1249 C1248 1.401 . S
C1249 H1259 0.930 . S
C1250 O1228 1.262 . S
C1250 O1229 1.260 . S
C1251 Tb1187 2.833 . S
C1251 O1226 1.251 . S
C1251 O1231 1.256 . S
C1251 C1244 1.500 . S
H1252 C1235 0.930 . S
H1253 C1236 0.931 . S
H1254 C1237 0.930 . S
H1255 C1238 0.930 . S
H1256 C1245 0.930 . S
H1257 C1247 0.931 . S
H1258 C1248 0.930 . S
H1259 C1249 0.930 . S
Tb1260 N1291 2.660 . S
Tb1260 N1298 2.600 . S
Tb1260 O1304 2.546 . S
Tb1260 O1305 2.610 . S
Tb1260 O1307 2.320 . S
Tb1260 O1308 2.552 . S
Tb1260 O1309 2.413 . S
Tb1260 O1311 2.362 . S
Tb1260 O1312 2.421 . S
Tb1260 C1324 2.833 . S
C1261 C1264 1.432 . S
C1261 C1265 1.414 . S
C1261 N1268 1.359 . S
C1262 C1264 1.417 . S
C1262 C1266 1.432 . S
C1262 C1274 1.410 . S
C1263 C1265 1.444 . S
C1263 C1266 1.317 . S
C1263 H1286 0.929 . S
C1264 C1261 1.432 . S
C1264 C1262 1.417 . S
C1264 N1272 1.360 . S
C1265 C1261 1.414 . S
C1265 C1263 1.444 . S
C1265 C1270 1.385 . S
C1266 C1262 1.432 . S
C1266 C1263 1.317 . S
C1266 H1278 0.930 . S
C1267 C1269 1.392 . S
C1267 C1270 1.370 . S
C1267 H1279 0.931 . S
N1268 C1261 1.359 . S
N1268 C1269 1.327 . S
N1268 Tb1271 2.600 . S
C1269 C1267 1.392 . S
C1269 N1268 1.327 . S
C1269 H1276 0.930 . S
C1270 C1265 1.385 . S
C1270 C1267 1.370 . S
C1270 H1289 0.930 . S
Tb1271 N1268 2.600 . S
Tb1271 N1272 2.660 . S
Tb1271 O1305 2.362 . S
Tb1271 O1306 2.421 . S
Tb1271 O1310 2.546 . S
Tb1271 O1311 2.610 . S
Tb1271 O1313 2.320 . S
Tb1271 O1314 2.552 . S
Tb1271 O1315 2.413 . S
Tb1271 C1335 2.833 . S
N1272 C1264 1.360 . S
N1272 Tb1271 2.660 . S
N1272 C1273 1.305 . S
C1273 N1272 1.305 . S
C1273 C1275 1.407 . S
C1273 H1280 0.930 . S
C1274 C1262 1.410 . S
C1274 C1275 1.345 . S
C1274 H1282 0.930 . S
C1275 C1273 1.407 . S
C1275 C1274 1.345 . S
C1275 H1277 0.930 . S
H1276 C1269 0.930 . S
H1277 C1275 0.930 . S
H1278 C1266 0.930 . S
H1279 C1267 0.931 . S
H1280 C1273 0.930 . S
H1281 C1295 0.930 . S
H1282 C1274 0.930 . S
H1283 C1301 0.930 . S
H1284 C1292 0.930 . S
H1285 C1299 0.931 . S
H1286 C1263 0.929 . S
H1287 C1293 0.930 . S
H1288 C1326 0.930 . S
H1289 C1270 0.930 . S
H1290 C1325 0.929 . S
N1291 Tb1260 2.660 . S
N1291 C1292 1.305 . S
N1291 C1296 1.360 . S
C1292 H1284 0.930 . S
C1292 N1291 1.305 . S
C1292 C1295 1.407 . S
C1293 H1287 0.930 . S
C1293 C1294 1.410 . S
C1293 C1295 1.345 . S
C1294 C1293 1.410 . S
C1294 C1296 1.417 . S
C1294 C1326 1.432 . S
C1295 H1281 0.930 . S
C1295 C1292 1.407 . S
C1295 C1293 1.345 . S
C1296 N1291 1.360 . S
C1296 C1294 1.417 . S
C1296 C1300 1.432 . S
H1297 C1302 0.930 . S
N1298 Tb1260 2.600 . S
N1298 C1300 1.359 . S
N1298 C1301 1.327 . S
C1299 H1285 0.931 . S
C1299 C1301 1.392 . S
C1299 C1302 1.370 . S
C1300 C1296 1.432 . S
C1300 N1298 1.359 . S
C1300 C1303 1.414 . S
C1301 H1283 0.930 . S
C1301 N1298 1.327 . S
C1301 C1299 1.392 . S
C1302 H1297 0.930 . S
C1302 C1299 1.370 . S
C1302 C1303 1.385 . S
C1303 C1300 1.414 . S
C1303 C1302 1.385 . S
C1303 C1325 1.444 . S
O1304 Tb1260 2.546 . S
O1304 C1324 1.251 . S
O1305 Tb1260 2.610 . S
O1305 Tb1271 2.362 . S
O1305 C1316 1.283 . S
O1306 Tb1271 2.421 . S
O1306 C1323 1.262 . S
O1307 Tb1260 2.320 . S
O1307 C1323 1.260 . S
O1308 Tb1260 2.552 . S
O1308 C1316 1.243 . S
O1309 Tb1260 2.413 . S
O1309 C1324 1.256 . S
O1310 Tb1271 2.546 . S
O1310 C1335 1.251 . S
O1311 Tb1260 2.362 . S
O1311 Tb1271 2.610 . S
O1311 C1327 1.283 . S
O1312 Tb1260 2.421 . S
O1312 C1334 1.262 . S
O1313 Tb1271 2.320 . S
O1313 C1334 1.260 . S
O1314 Tb1271 2.552 . S
O1314 C1327 1.243 . S
O1315 Tb1271 2.413 . S
O1315 C1335 1.256 . S
C1316 O1305 1.283 . S
C1316 O1308 1.243 . S
C1317 C1319 1.382 . S
C1317 C1321 1.393 . S
C1317 C1324 1.500 . S
C1318 C1319 1.400 . S
C1318 C1320 1.384 . S
C1319 C1317 1.382 . S
C1319 C1318 1.400 . S
C1319 H1336 0.930 . S
C1320 C1318 1.384 . S
C1320 C1322 1.392 . S
C1320 H1337 0.931 . S
C1321 C1317 1.393 . S
C1321 C1322 1.401 . S
C1321 H1338 0.930 . S
C1322 C1320 1.392 . S
C1322 C1321 1.401 . S
C1322 H1339 0.930 . S
C1323 O1306 1.262 . S
C1323 O1307 1.260 . S
C1324 Tb1260 2.833 . S
C1324 O1304 1.251 . S
C1324 O1309 1.256 . S
C1324 C1317 1.500 . S
C1325 H1290 0.929 . S
C1325 C1303 1.444 . S
C1325 C1326 1.317 . S
C1326 H1288 0.930 . S
C1326 C1294 1.432 . S
C1326 C1325 1.317 . S
C1327 O1311 1.283 . S
C1327 O1314 1.243 . S
C1328 C1329 1.382 . S
C1328 C1332 1.393 . S
C1328 C1335 1.500 . S
C1329 C1328 1.382 . S
C1329 C1330 1.400 . S
C1329 H1340 0.930 . S
C1330 C1329 1.400 . S
C1330 C1331 1.384 . S
C1331 C1330 1.384 . S
C1331 C1333 1.392 . S
C1331 H1341 0.931 . S
C1332 C1328 1.393 . S
C1332 C1333 1.401 . S
C1332 H1342 0.930 . S
C1333 C1331 1.392 . S
C1333 C1332 1.401 . S
C1333 H1343 0.930 . S
C1334 O1312 1.262 . S
C1334 O1313 1.260 . S
C1335 Tb1271 2.833 . S
C1335 O1310 1.251 . S
C1335 O1315 1.256 . S
C1335 C1328 1.500 . S
H1336 C1319 0.930 . S
H1337 C1320 0.931 . S
H1338 C1321 0.930 . S
H1339 C1322 0.930 . S
H1340 C1329 0.930 . S
H1341 C1331 0.931 . S
H1342 C1332 0.930 . S
H1343 C1333 0.930 . S
Tb1344 N1375 2.660 . S
Tb1344 N1382 2.600 . S
Tb1344 O1388 2.546 . S
Tb1344 O1389 2.610 . S
Tb1344 O1391 2.320 . S
Tb1344 O1392 2.552 . S
Tb1344 O1393 2.413 . S
Tb1344 O1395 2.362 . S
Tb1344 O1396 2.421 . S
Tb1344 C1408 2.833 . S
C1345 C1348 1.432 . S
C1345 C1349 1.414 . S
C1345 N1352 1.359 . S
C1346 C1348 1.417 . S
C1346 C1350 1.432 . S
C1346 C1358 1.410 . S
C1347 C1349 1.444 . S
C1347 C1350 1.317 . S
C1347 H1370 0.929 . S
C1348 C1345 1.432 . S
C1348 C1346 1.417 . S
C1348 N1356 1.360 . S
C1349 C1345 1.414 . S
C1349 C1347 1.444 . S
C1349 C1354 1.385 . S
C1350 C1346 1.432 . S
C1350 C1347 1.317 . S
C1350 H1362 0.930 . S
C1351 C1353 1.392 . S
C1351 C1354 1.370 . S
C1351 H1363 0.931 . S
N1352 C1345 1.359 . S
N1352 C1353 1.327 . S
N1352 Tb1355 2.600 . S
C1353 C1351 1.392 . S
C1353 N1352 1.327 . S
C1353 H1360 0.930 . S
C1354 C1349 1.385 . S
C1354 C1351 1.370 . S
C1354 H1373 0.930 . S
Tb1355 N1352 2.600 . S
Tb1355 N1356 2.660 . S
Tb1355 O1389 2.362 . S
Tb1355 O1390 2.421 . S
Tb1355 O1394 2.546 . S
Tb1355 O1395 2.610 . S
Tb1355 O1397 2.320 . S
Tb1355 O1398 2.552 . S
Tb1355 O1399 2.413 . S
Tb1355 C1419 2.833 . S
N1356 C1348 1.360 . S
N1356 Tb1355 2.660 . S
N1356 C1357 1.305 . S
C1357 N1356 1.305 . S
C1357 C1359 1.407 . S
C1357 H1364 0.930 . S
C1358 C1346 1.410 . S
C1358 C1359 1.345 . S
C1358 H1366 0.930 . S
C1359 C1357 1.407 . S
C1359 C1358 1.345 . S
C1359 H1361 0.930 . S
H1360 C1353 0.930 . S
H1361 C1359 0.930 . S
H1362 C1350 0.930 . S
H1363 C1351 0.931 . S
H1364 C1357 0.930 . S
H1365 C1379 0.930 . S
H1366 C1358 0.930 . S
H1367 C1385 0.930 . S
H1368 C1376 0.930 . S
H1369 C1383 0.931 . S
H1370 C1347 0.929 . S
H1371 C1377 0.930 . S
H1372 C1410 0.930 . S
H1373 C1354 0.930 . S
H1374 C1409 0.929 . S
N1375 Tb1344 2.660 . S
N1375 C1376 1.305 . S
N1375 C1380 1.360 . S
C1376 H1368 0.930 . S
C1376 N1375 1.305 . S
C1376 C1379 1.407 . S
C1377 H1371 0.930 . S
C1377 C1378 1.410 . S
C1377 C1379 1.345 . S
C1378 C1377 1.410 . S
C1378 C1380 1.417 . S
C1378 C1410 1.432 . S
C1379 H1365 0.930 . S
C1379 C1376 1.407 . S
C1379 C1377 1.345 . S
C1380 N1375 1.360 . S
C1380 C1378 1.417 . S
C1380 C1384 1.432 . S
H1381 C1386 0.930 . S
N1382 Tb1344 2.600 . S
N1382 C1384 1.359 . S
N1382 C1385 1.327 . S
C1383 H1369 0.931 . S
C1383 C1385 1.392 . S
C1383 C1386 1.370 . S
C1384 C1380 1.432 . S
C1384 N1382 1.359 . S
C1384 C1387 1.414 . S
C1385 H1367 0.930 . S
C1385 N1382 1.327 . S
C1385 C1383 1.392 . S
C1386 H1381 0.930 . S
C1386 C1383 1.370 . S
C1386 C1387 1.385 . S
C1387 C1384 1.414 . S
C1387 C1386 1.385 . S
C1387 C1409 1.444 . S
O1388 Tb1344 2.546 . S
O1388 C1408 1.251 . S
O1389 Tb1344 2.610 . S
O1389 Tb1355 2.362 . S
O1389 C1400 1.283 . S
O1390 Tb1355 2.421 . S
O1390 C1407 1.262 . S
O1391 Tb1344 2.320 . S
O1391 C1407 1.260 . S
O1392 Tb1344 2.552 . S
O1392 C1400 1.243 . S
O1393 Tb1344 2.413 . S
O1393 C1408 1.256 . S
O1394 Tb1355 2.546 . S
O1394 C1419 1.251 . S
O1395 Tb1344 2.362 . S
O1395 Tb1355 2.610 . S
O1395 C1411 1.283 . S
O1396 Tb1344 2.421 . S
O1396 C1418 1.262 . S
O1397 Tb1355 2.320 . S
O1397 C1418 1.260 . S
O1398 Tb1355 2.552 . S
O1398 C1411 1.243 . S
O1399 Tb1355 2.413 . S
O1399 C1419 1.256 . S
C1400 O1389 1.283 . S
C1400 O1392 1.243 . S
C1401 C1403 1.382 . S
C1401 C1405 1.393 . S
C1401 C1408 1.500 . S
C1402 C1403 1.400 . S
C1402 C1404 1.384 . S
C1403 C1401 1.382 . S
C1403 C1402 1.400 . S
C1403 H1420 0.930 . S
C1404 C1402 1.384 . S
C1404 C1406 1.392 . S
C1404 H1421 0.931 . S
C1405 C1401 1.393 . S
C1405 C1406 1.401 . S
C1405 H1422 0.930 . S
C1406 C1404 1.392 . S
C1406 C1405 1.401 . S
C1406 H1423 0.930 . S
C1407 O1390 1.262 . S
C1407 O1391 1.260 . S
C1408 Tb1344 2.833 . S
C1408 O1388 1.251 . S
C1408 O1393 1.256 . S
C1408 C1401 1.500 . S
C1409 H1374 0.929 . S
C1409 C1387 1.444 . S
C1409 C1410 1.317 . S
C1410 H1372 0.930 . S
C1410 C1378 1.432 . S
C1410 C1409 1.317 . S
C1411 O1395 1.283 . S
C1411 O1398 1.243 . S
C1412 C1413 1.382 . S
C1412 C1416 1.393 . S
C1412 C1419 1.500 . S
C1413 C1412 1.382 . S
C1413 C1414 1.400 . S
C1413 H1424 0.930 . S
C1414 C1413 1.400 . S
C1414 C1415 1.384 . S
C1415 C1414 1.384 . S
C1415 C1417 1.392 . S
C1415 H1425 0.931 . S
C1416 C1412 1.393 . S
C1416 C1417 1.401 . S
C1416 H1426 0.930 . S
C1417 C1415 1.392 . S
C1417 C1416 1.401 . S
C1417 H1427 0.930 . S
C1418 O1396 1.262 . S
C1418 O1397 1.260 . S
C1419 Tb1355 2.833 . S
C1419 O1394 1.251 . S
C1419 O1399 1.256 . S
C1419 C1412 1.500 . S
H1420 C1403 0.930 . S
H1421 C1404 0.931 . S
H1422 C1405 0.930 . S
H1423 C1406 0.930 . S
H1424 C1413 0.930 . S
H1425 C1415 0.931 . S
H1426 C1416 0.930 . S
H1427 C1417 0.930 . S
Tb1428 N1459 2.660 . S
Tb1428 N1466 2.600 . S
Tb1428 O1472 2.546 . S
Tb1428 O1473 2.610 . S
Tb1428 O1475 2.320 . S
Tb1428 O1476 2.552 . S
Tb1428 O1477 2.413 . S
Tb1428 O1479 2.362 . S
Tb1428 O1480 2.421 . S
Tb1428 C1492 2.833 . S
C1429 C1432 1.432 . S
C1429 C1433 1.414 . S
C1429 N1436 1.359 . S
C1430 C1432 1.417 . S
C1430 C1434 1.432 . S
C1430 C1442 1.410 . S
C1431 C1433 1.444 . S
C1431 C1434 1.317 . S
C1431 H1454 0.929 . S
C1432 C1429 1.432 . S
C1432 C1430 1.417 . S
C1432 N1440 1.360 . S
C1433 C1429 1.414 . S
C1433 C1431 1.444 . S
C1433 C1438 1.385 . S
C1434 C1430 1.432 . S
C1434 C1431 1.317 . S
C1434 H1446 0.930 . S
C1435 C1437 1.392 . S
C1435 C1438 1.370 . S
C1435 H1447 0.931 . S
N1436 C1429 1.359 . S
N1436 C1437 1.327 . S
N1436 Tb1439 2.600 . S
C1437 C1435 1.392 . S
C1437 N1436 1.327 . S
C1437 H1444 0.930 . S
C1438 C1433 1.385 . S
C1438 C1435 1.370 . S
C1438 H1457 0.930 . S
Tb1439 N1436 2.600 . S
Tb1439 N1440 2.660 . S
Tb1439 O1473 2.362 . S
Tb1439 O1474 2.421 . S
Tb1439 O1478 2.546 . S
Tb1439 O1479 2.610 . S
Tb1439 O1481 2.320 . S
Tb1439 O1482 2.552 . S
Tb1439 O1483 2.413 . S
Tb1439 C1503 2.833 . S
N1440 C1432 1.360 . S
N1440 Tb1439 2.660 . S
N1440 C1441 1.305 . S
C1441 N1440 1.305 . S
C1441 C1443 1.407 . S
C1441 H1448 0.930 . S
C1442 C1430 1.410 . S
C1442 C1443 1.345 . S
C1442 H1450 0.930 . S
C1443 C1441 1.407 . S
C1443 C1442 1.345 . S
C1443 H1445 0.930 . S
H1444 C1437 0.930 . S
H1445 C1443 0.930 . S
H1446 C1434 0.930 . S
H1447 C1435 0.931 . S
H1448 C1441 0.930 . S
H1449 C1463 0.930 . S
H1450 C1442 0.930 . S
H1451 C1469 0.930 . S
H1452 C1460 0.930 . S
H1453 C1467 0.931 . S
H1454 C1431 0.929 . S
H1455 C1461 0.930 . S
H1456 C1494 0.930 . S
H1457 C1438 0.930 . S
H1458 C1493 0.929 . S
N1459 Tb1428 2.660 . S
N1459 C1460 1.305 . S
N1459 C1464 1.360 . S
C1460 H1452 0.930 . S
C1460 N1459 1.305 . S
C1460 C1463 1.407 . S
C1461 H1455 0.930 . S
C1461 C1462 1.410 . S
C1461 C1463 1.345 . S
C1462 C1461 1.410 . S
C1462 C1464 1.417 . S
C1462 C1494 1.432 . S
C1463 H1449 0.930 . S
C1463 C1460 1.407 . S
C1463 C1461 1.345 . S
C1464 N1459 1.360 . S
C1464 C1462 1.417 . S
C1464 C1468 1.432 . S
H1465 C1470 0.930 . S
N1466 Tb1428 2.600 . S
N1466 C1468 1.359 . S
N1466 C1469 1.327 . S
C1467 H1453 0.931 . S
C1467 C1469 1.392 . S
C1467 C1470 1.370 . S
C1468 C1464 1.432 . S
C1468 N1466 1.359 . S
C1468 C1471 1.414 . S
C1469 H1451 0.930 . S
C1469 N1466 1.327 . S
C1469 C1467 1.392 . S
C1470 H1465 0.930 . S
C1470 C1467 1.370 . S
C1470 C1471 1.385 . S
C1471 C1468 1.414 . S
C1471 C1470 1.385 . S
C1471 C1493 1.444 . S
O1472 Tb1428 2.546 . S
O1472 C1492 1.251 . S
O1473 Tb1428 2.610 . S
O1473 Tb1439 2.362 . S
O1473 C1484 1.283 . S
O1474 Tb1439 2.421 . S
O1474 C1491 1.262 . S
O1475 Tb1428 2.320 . S
O1475 C1491 1.260 . S
O1476 Tb1428 2.552 . S
O1476 C1484 1.243 . S
O1477 Tb1428 2.413 . S
O1477 C1492 1.256 . S
O1478 Tb1439 2.546 . S
O1478 C1503 1.251 . S
O1479 Tb1428 2.362 . S
O1479 Tb1439 2.610 . S
O1479 C1495 1.283 . S
O1480 Tb1428 2.421 . S
O1480 C1502 1.262 . S
O1481 Tb1439 2.320 . S
O1481 C1502 1.260 . S
O1482 Tb1439 2.552 . S
O1482 C1495 1.243 . S
O1483 Tb1439 2.413 . S
O1483 C1503 1.256 . S
C1484 O1473 1.283 . S
C1484 O1476 1.243 . S
C1485 C1487 1.382 . S
C1485 C1489 1.393 . S
C1485 C1492 1.500 . S
C1486 C1487 1.400 . S
C1486 C1488 1.384 . S
C1487 C1485 1.382 . S
C1487 C1486 1.400 . S
C1487 H1504 0.930 . S
C1488 C1486 1.384 . S
C1488 C1490 1.392 . S
C1488 H1505 0.931 . S
C1489 C1485 1.393 . S
C1489 C1490 1.401 . S
C1489 H1506 0.930 . S
C1490 C1488 1.392 . S
C1490 C1489 1.401 . S
C1490 H1507 0.930 . S
C1491 O1474 1.262 . S
C1491 O1475 1.260 . S
C1492 Tb1428 2.833 . S
C1492 O1472 1.251 . S
C1492 O1477 1.256 . S
C1492 C1485 1.500 . S
C1493 H1458 0.929 . S
C1493 C1471 1.444 . S
C1493 C1494 1.317 . S
C1494 H1456 0.930 . S
C1494 C1462 1.432 . S
C1494 C1493 1.317 . S
C1495 O1479 1.283 . S
C1495 O1482 1.243 . S
C1496 C1497 1.382 . S
C1496 C1500 1.393 . S
C1496 C1503 1.500 . S
C1497 C1496 1.382 . S
C1497 C1498 1.400 . S
C1497 H1508 0.930 . S
C1498 C1497 1.400 . S
C1498 C1499 1.384 . S
C1499 C1498 1.384 . S
C1499 C1501 1.392 . S
C1499 H1509 0.931 . S
C1500 C1496 1.393 . S
C1500 C1501 1.401 . S
C1500 H1510 0.930 . S
C1501 C1499 1.392 . S
C1501 C1500 1.401 . S
C1501 H1511 0.930 . S
C1502 O1480 1.262 . S
C1502 O1481 1.260 . S
C1503 Tb1439 2.833 . S
C1503 O1478 1.251 . S
C1503 O1483 1.256 . S
C1503 C1496 1.500 . S
H1504 C1487 0.930 . S
H1505 C1488 0.931 . S
H1506 C1489 0.930 . S
H1507 C1490 0.930 . S
H1508 C1497 0.930 . S
H1509 C1499 0.931 . S
H1510 C1500 0.930 . S
H1511 C1501 0.930 . S
Tb1512 N1543 2.660 . S
Tb1512 N1550 2.600 . S
Tb1512 O1556 2.546 . S
Tb1512 O1557 2.610 . S
Tb1512 O1559 2.320 . S
Tb1512 O1560 2.552 . S
Tb1512 O1561 2.413 . S
Tb1512 O1563 2.362 . S
Tb1512 O1564 2.421 . S
Tb1512 C1576 2.833 . S
C1513 C1516 1.432 . S
C1513 C1517 1.414 . S
C1513 N1520 1.359 . S
C1514 C1516 1.417 . S
C1514 C1518 1.432 . S
C1514 C1526 1.410 . S
C1515 C1517 1.444 . S
C1515 C1518 1.317 . S
C1515 H1538 0.929 . S
C1516 C1513 1.432 . S
C1516 C1514 1.417 . S
C1516 N1524 1.360 . S
C1517 C1513 1.414 . S
C1517 C1515 1.444 . S
C1517 C1522 1.385 . S
C1518 C1514 1.432 . S
C1518 C1515 1.317 . S
C1518 H1530 0.930 . S
C1519 C1521 1.392 . S
C1519 C1522 1.370 . S
C1519 H1531 0.931 . S
N1520 C1513 1.359 . S
N1520 C1521 1.327 . S
N1520 Tb1523 2.600 . S
C1521 C1519 1.392 . S
C1521 N1520 1.327 . S
C1521 H1528 0.930 . S
C1522 C1517 1.385 . S
C1522 C1519 1.370 . S
C1522 H1541 0.930 . S
Tb1523 N1520 2.600 . S
Tb1523 N1524 2.660 . S
Tb1523 O1557 2.362 . S
Tb1523 O1558 2.421 . S
Tb1523 O1562 2.546 . S
Tb1523 O1563 2.610 . S
Tb1523 O1565 2.320 . S
Tb1523 O1566 2.552 . S
Tb1523 O1567 2.413 . S
Tb1523 C1587 2.833 . S
N1524 C1516 1.360 . S
N1524 Tb1523 2.660 . S
N1524 C1525 1.305 . S
C1525 N1524 1.305 . S
C1525 C1527 1.407 . S
C1525 H1532 0.930 . S
C1526 C1514 1.410 . S
C1526 C1527 1.345 . S
C1526 H1534 0.930 . S
C1527 C1525 1.407 . S
C1527 C1526 1.345 . S
C1527 H1529 0.930 . S
H1528 C1521 0.930 . S
H1529 C1527 0.930 . S
H1530 C1518 0.930 . S
H1531 C1519 0.931 . S
H1532 C1525 0.930 . S
H1533 C1547 0.930 . S
H1534 C1526 0.930 . S
H1535 C1553 0.930 . S
H1536 C1544 0.930 . S
H1537 C1551 0.931 . S
H1538 C1515 0.929 . S
H1539 C1545 0.930 . S
H1540 C1578 0.930 . S
H1541 C1522 0.930 . S
H1542 C1577 0.929 . S
N1543 Tb1512 2.660 . S
N1543 C1544 1.305 . S
N1543 C1548 1.360 . S
C1544 H1536 0.930 . S
C1544 N1543 1.305 . S
C1544 C1547 1.407 . S
C1545 H1539 0.930 . S
C1545 C1546 1.410 . S
C1545 C1547 1.345 . S
C1546 C1545 1.410 . S
C1546 C1548 1.417 . S
C1546 C1578 1.432 . S
C1547 H1533 0.930 . S
C1547 C1544 1.407 . S
C1547 C1545 1.345 . S
C1548 N1543 1.360 . S
C1548 C1546 1.417 . S
C1548 C1552 1.432 . S
H1549 C1554 0.930 . S
N1550 Tb1512 2.600 . S
N1550 C1552 1.359 . S
N1550 C1553 1.327 . S
C1551 H1537 0.931 . S
C1551 C1553 1.392 . S
C1551 C1554 1.370 . S
C1552 C1548 1.432 . S
C1552 N1550 1.359 . S
C1552 C1555 1.414 . S
C1553 H1535 0.930 . S
C1553 N1550 1.327 . S
C1553 C1551 1.392 . S
C1554 H1549 0.930 . S
C1554 C1551 1.370 . S
C1554 C1555 1.385 . S
C1555 C1552 1.414 . S
C1555 C1554 1.385 . S
C1555 C1577 1.444 . S
O1556 Tb1512 2.546 . S
O1556 C1576 1.251 . S
O1557 Tb1512 2.610 . S
O1557 Tb1523 2.362 . S
O1557 C1568 1.283 . S
O1558 Tb1523 2.421 . S
O1558 C1575 1.262 . S
O1559 Tb1512 2.320 . S
O1559 C1575 1.260 . S
O1560 Tb1512 2.552 . S
O1560 C1568 1.243 . S
O1561 Tb1512 2.413 . S
O1561 C1576 1.256 . S
O1562 Tb1523 2.546 . S
O1562 C1587 1.251 . S
O1563 Tb1512 2.362 . S
O1563 Tb1523 2.610 . S
O1563 C1579 1.283 . S
O1564 Tb1512 2.421 . S
O1564 C1586 1.262 . S
O1565 Tb1523 2.320 . S
O1565 C1586 1.260 . S
O1566 Tb1523 2.552 . S
O1566 C1579 1.243 . S
O1567 Tb1523 2.413 . S
O1567 C1587 1.256 . S
C1568 O1557 1.283 . S
C1568 O1560 1.243 . S
C1569 C1571 1.382 . S
C1569 C1573 1.393 . S
C1569 C1576 1.500 . S
C1570 C1571 1.400 . S
C1570 C1572 1.384 . S
C1571 C1569 1.382 . S
C1571 C1570 1.400 . S
C1571 H1588 0.930 . S
C1572 C1570 1.384 . S
C1572 C1574 1.392 . S
C1572 H1589 0.931 . S
C1573 C1569 1.393 . S
C1573 C1574 1.401 . S
C1573 H1590 0.930 . S
C1574 C1572 1.392 . S
C1574 C1573 1.401 . S
C1574 H1591 0.930 . S
C1575 O1558 1.262 . S
C1575 O1559 1.260 . S
C1576 Tb1512 2.833 . S
C1576 O1556 1.251 . S
C1576 O1561 1.256 . S
C1576 C1569 1.500 . S
C1577 H1542 0.929 . S
C1577 C1555 1.444 . S
C1577 C1578 1.317 . S
C1578 H1540 0.930 . S
C1578 C1546 1.432 . S
C1578 C1577 1.317 . S
C1579 O1563 1.283 . S
C1579 O1566 1.243 . S
C1580 C1581 1.382 . S
C1580 C1584 1.393 . S
C1580 C1587 1.500 . S
C1581 C1580 1.382 . S
C1581 C1582 1.400 . S
C1581 H1592 0.930 . S
C1582 C1581 1.400 . S
C1582 C1583 1.384 . S
C1583 C1582 1.384 . S
C1583 C1585 1.392 . S
C1583 H1593 0.931 . S
C1584 C1580 1.393 . S
C1584 C1585 1.401 . S
C1584 H1594 0.930 . S
C1585 C1583 1.392 . S
C1585 C1584 1.401 . S
C1585 H1595 0.930 . S
C1586 O1564 1.262 . S
C1586 O1565 1.260 . S
C1587 Tb1523 2.833 . S
C1587 O1562 1.251 . S
C1587 O1567 1.256 . S
C1587 C1580 1.500 . S
H1588 C1571 0.930 . S
H1589 C1572 0.931 . S
H1590 C1573 0.930 . S
H1591 C1574 0.930 . S
H1592 C1581 0.930 . S
H1593 C1583 0.931 . S
H1594 C1584 0.930 . S
H1595 C1585 0.930 . S
Tb1596 N1627 2.660 . S
Tb1596 N1634 2.600 . S
Tb1596 O1640 2.546 . S
Tb1596 O1641 2.610 . S
Tb1596 O1643 2.320 . S
Tb1596 O1644 2.552 . S
Tb1596 O1645 2.413 . S
Tb1596 O1647 2.362 . S
Tb1596 O1648 2.421 . S
Tb1596 C1660 2.833 . S
C1597 C1600 1.432 1_455 S
C1597 C1601 1.414 1_455 S
C1597 N1604 1.359 . S
C1598 C1600 1.417 . S
C1598 C1602 1.432 . S
C1598 C1610 1.410 . S
C1599 C1601 1.444 . S
C1599 C1602 1.317 . S
C1599 H1622 0.929 . S
C1600 C1597 1.432 1_655 S
C1600 C1598 1.417 . S
C1600 N1608 1.360 1_655 S
C1601 C1597 1.414 1_655 S
C1601 C1599 1.444 . S
C1601 C1606 1.385 . S
C1602 C1598 1.432 . S
C1602 C1599 1.317 . S
C1602 H1614 0.930 . S
C1603 C1605 1.392 . S
C1603 C1606 1.370 1_455 S
C1603 H1615 0.931 . S
N1604 C1597 1.359 . S
N1604 C1605 1.327 . S
N1604 Tb1607 2.600 . S
C1605 C1603 1.392 . S
C1605 N1604 1.327 . S
C1605 H1612 0.930 . S
C1606 C1601 1.385 . S
C1606 C1603 1.370 1_655 S
C1606 H1625 0.930 . S
Tb1607 N1604 2.600 . S
Tb1607 N1608 2.660 . S
Tb1607 O1641 2.362 . S
Tb1607 O1642 2.421 . S
Tb1607 O1646 2.546 . S
Tb1607 O1647 2.610 . S
Tb1607 O1649 2.320 . S
Tb1607 O1650 2.552 . S
Tb1607 O1651 2.413 . S
Tb1607 C1671 2.784 1_455 S
N1608 C1600 1.360 1_455 S
N1608 Tb1607 2.660 . S
N1608 C1609 1.305 . S
C1609 N1608 1.305 . S
C1609 C1611 1.407 1_455 S
C1609 H1616 0.930 . S
C1610 C1598 1.410 . S
C1610 C1611 1.345 . S
C1610 H1618 0.930 . S
C1611 C1609 1.407 1_655 S
C1611 C1610 1.345 . S
C1611 H1613 0.930 1_554 S
H1612 C1605 0.930 . S
H1613 C1611 0.930 1_556 S
H1614 C1602 0.930 . S
H1615 C1603 0.931 . S
H1616 C1609 0.930 . S
H1617 C1631 0.930 . S
H1618 C1610 0.930 . S
H1619 C1637 0.930 . S
H1620 C1628 0.930 . S
H1621 C1635 0.931 . S
H1622 C1599 0.929 . S
H1623 C1629 0.930 . S
H1624 C1662 0.930 . S
H1625 C1606 0.930 . S
H1626 C1661 0.929 . S
N1627 Tb1596 2.660 . S
N1627 C1628 1.305 . S
N1627 C1632 1.360 . S
C1628 H1620 0.930 . S
C1628 N1627 1.305 . S
C1628 C1631 1.407 . S
C1629 H1623 0.930 . S
C1629 C1630 1.410 . S
C1629 C1631 1.345 . S
C1630 C1629 1.410 . S
C1630 C1632 1.417 . S
C1630 C1662 1.432 . S
C1631 H1617 0.930 . S
C1631 C1628 1.407 . S
C1631 C1629 1.345 . S
C1632 N1627 1.360 . S
C1632 C1630 1.417 . S
C1632 C1636 1.432 . S
H1633 C1638 0.930 . S
N1634 Tb1596 2.600 . S
N1634 C1636 1.359 . S
N1634 C1637 1.327 1_554 S
C1635 H1621 0.931 . S
C1635 C1637 1.392 . S
C1635 C1638 1.370 . S
C1636 C1632 1.432 . S
C1636 N1634 1.359 . S
C1636 C1639 1.414 . S
C1637 H1619 0.930 . S
C1637 N1634 1.327 1_556 S
C1637 C1635 1.392 . S
C1638 H1633 0.930 . S
C1638 C1635 1.370 . S
C1638 C1639 1.385 1_556 S
C1639 C1636 1.414 . S
C1639 C1638 1.385 1_554 S
C1639 C1661 1.444 . S
O1640 Tb1596 2.546 . S
O1640 C1660 1.251 . S
O1641 Tb1596 2.610 . S
O1641 Tb1607 2.362 . S
O1641 C1652 1.283 . S
O1642 Tb1607 2.421 . S
O1642 C1659 1.262 . S
O1643 Tb1596 2.320 . S
O1643 C1659 1.260 . S
O1644 Tb1596 2.552 . S
O1644 C1652 1.243 . S
O1645 Tb1596 2.413 . S
O1645 C1660 1.256 . S
O1646 Tb1607 2.546 . S
O1646 C1671 1.218 1_455 S
O1647 Tb1596 2.362 . S
O1647 Tb1607 2.610 . S
O1647 C1663 1.283 . S
O1648 Tb1596 2.421 . S
O1648 C1670 1.262 . S
O1649 Tb1607 2.320 . S
O1649 C1670 1.260 . S
O1650 Tb1607 2.552 . S
O1650 C1663 1.243 . S
O1651 Tb1607 2.413 . S
O1651 C1671 1.243 1_455 S
C1652 O1641 1.283 . S
C1652 O1644 1.243 . S
C1653 C1655 1.382 . S
C1653 C1657 1.393 1_554 S
C1653 C1660 1.500 . S
C1654 C1655 1.400 . S
C1654 C1656 1.384 . S
C1655 C1653 1.382 . S
C1655 C1654 1.400 . S
C1655 H1672 0.930 . S
C1656 C1654 1.384 . S
C1656 C1658 1.392 1_554 S
C1656 H1673 0.931 . S
C1657 C1653 1.393 1_556 S
C1657 C1658 1.401 . S
C1657 H1674 0.930 . S
C1658 C1656 1.392 1_556 S
C1658 C1657 1.401 . S
C1658 H1675 0.930 . S
C1659 O1642 1.262 . S
C1659 O1643 1.260 . S
C1660 Tb1596 2.833 . S
C1660 O1640 1.251 . S
C1660 O1645 1.256 . S
C1660 C1653 1.500 . S
C1661 H1626 0.929 . S
C1661 C1639 1.444 . S
C1661 C1662 1.317 . S
C1662 H1624 0.930 . S
C1662 C1630 1.432 . S
C1662 C1661 1.317 . S
C1663 O1647 1.283 . S
C1663 O1650 1.243 . S
C1664 C1665 1.382 . S
C1664 C1668 1.393 . S
C1664 C1671 1.548 . S
C1665 C1664 1.382 . S
C1665 C1666 1.400 . S
C1665 H1676 0.930 . S
C1666 C1665 1.400 . S
C1666 C1667 1.384 . S
C1667 C1666 1.384 . S
C1667 C1669 1.392 . S
C1667 H1677 0.931 . S
C1668 C1664 1.393 . S
C1668 C1669 1.401 . S
C1668 H1678 0.930 . S
C1669 C1667 1.392 . S
C1669 C1668 1.401 . S
C1669 H1679 0.930 . S
C1670 O1648 1.262 . S
C1670 O1649 1.260 . S
C1671 Tb1607 2.784 1_655 S
C1671 O1646 1.218 1_655 S
C1671 O1651 1.243 1_655 S
C1671 C1664 1.548 . S
H1672 C1655 0.930 . S
H1673 C1656 0.931 . S
H1674 C1657 0.930 . S
H1675 C1658 0.930 . S
H1676 C1665 0.930 . S
H1677 C1667 0.931 . S
H1678 C1668 0.930 . S
H1679 C1669 0.930 . S
H1680 C1698 0.951 . S
H1681 C1700 0.951 . S
H1682 C1702 0.950 . S
H1683 C1703 0.950 . S
H1684 C1705 0.950 . S
H1685 C1708 0.950 1_556 S
H1686 C1709 0.950 . S
H1687 C1711 0.950 . S
H1688 C1712 0.950 . S
H1689 C1713 0.957 . S
H1690 C1715 0.951 . S
H1691 C1717 0.950 . S
H1692 C1718 0.950 . S
H1693 C1720 0.950 1_554 S
H1694 C1723 0.950 . S
H1695 C1724 0.950 . S
H1696 C1726 0.950 . S
H1697 C1727 0.950 . S
C1698 H1680 0.951 . S
C1698 C1699 1.366 . S
C1698 C1700 1.388 . S
C1699 C1698 1.366 . S
C1699 C1703 1.385 . S
C1700 H1681 0.951 . S
C1700 C1698 1.388 . S
C1700 C1701 1.366 . S
C1701 C1700 1.366 . S
C1701 C1702 1.414 . S
C1701 C1704 1.499 . S
C1702 H1682 0.950 . S
C1702 C1701 1.414 . S
C1702 C1703 1.374 . S
C1703 H1683 0.950 . S
C1703 C1699 1.385 . S
C1703 C1702 1.374 . S
C1704 C1701 1.499 . S
C1704 C1705 1.373 . S
C1704 C1706 1.389 . S
C1705 H1684 0.950 . S
C1705 C1704 1.373 . S
C1705 C1721 1.377 . S
C1706 C1704 1.389 . S
C1706 C1707 1.524 1_556 S
C1706 C1720 1.377 . S
C1707 C1706 1.524 1_554 S
C1707 C1708 1.397 . S
C1707 C1712 1.363 . S
C1708 H1685 0.950 1_554 S
C1708 C1707 1.397 . S
C1708 C1709 1.334 . S
C1709 H1686 0.950 . S
C1709 C1708 1.334 . S
C1709 C1710 1.287 . S
C1710 C1709 1.287 . S
C1710 C1711 1.524 . S
C1710 H1729 0.913 . S
C1711 H1687 0.950 . S
C1711 C1710 1.524 . S
C1711 C1712 1.415 . S
C1712 H1688 0.950 . S
C1712 C1707 1.363 . S
C1712 C1711 1.415 . S
C1713 H1689 0.957 . S
C1713 C1714 1.347 1_556 S
C1713 C1715 1.401 . S
C1714 C1713 1.347 1_554 S
C1714 C1718 1.385 . S
C1715 H1690 0.951 . S
C1715 C1713 1.401 . S
C1715 C1716 1.366 . S
C1716 C1715 1.366 . S
C1716 C1717 1.414 1_556 S
C1716 C1719 1.499 . S
C1717 H1691 0.950 . S
C1717 C1716 1.414 1_554 S
C1717 C1718 1.374 . S
C1718 H1692 0.950 . S
C1718 C1714 1.385 . S
C1718 C1717 1.374 . S
C1719 C1716 1.499 . S
C1719 C1720 1.373 . S
C1719 C1721 1.389 . S
C1720 H1693 0.950 1_556 S
C1720 C1706 1.377 . S
C1720 C1719 1.373 . S
C1721 C1705 1.377 . S
C1721 C1719 1.389 . S
C1721 C1722 1.524 . S
C1722 C1721 1.524 . S
C1722 C1723 1.397 . S
C1722 C1727 1.363 . S
C1723 H1694 0.950 . S
C1723 C1722 1.397 . S
C1723 C1724 1.334 . S
C1724 H1695 0.950 . S
C1724 C1723 1.334 . S
C1724 C1725 1.287 . S
C1725 C1724 1.287 . S
C1725 C1726 1.524 . S
C1725 H1728 0.999 . S
C1726 H1696 0.950 . S
C1726 C1725 1.524 . S
C1726 C1727 1.415 . S
C1727 H1697 0.950 . S
C1727 C1722 1.363 . S
C1727 C1726 1.415 . S
H1728 C1725 0.999 . S
H1729 C1710 0.913 . S
H1730 C1748 0.951 . S
H1731 C1750 0.951 . S
H1732 C1752 0.950 . S
H1733 C1753 0.950 . S
H1734 C1755 0.950 . S
H1735 C1758 0.950 . S
H1736 C1759 0.950 . S
H1737 C1761 0.950 . S
H1738 C1762 0.950 . S
H1739 C1763 0.951 . S
H1740 C1765 0.951 . S
H1741 C1767 0.950 . S
H1742 C1768 0.950 . S
H1743 C1770 0.950 . S
H1744 C1773 0.950 . S
H1745 C1774 0.950 . S
H1746 C1776 0.950 . S
H1747 C1777 0.950 . S
C1748 H1730 0.951 . S
C1748 C1749 1.366 . S
C1748 C1750 1.388 . S
C1749 C1748 1.366 . S
C1749 C1753 1.385 . S
C1750 H1731 0.951 . S
C1750 C1748 1.388 . S
C1750 C1751 1.366 . S
C1751 C1750 1.366 . S
C1751 C1752 1.414 . S
C1751 C1754 1.499 . S
C1752 H1732 0.950 . S
C1752 C1751 1.414 . S
C1752 C1753 1.374 . S
C1753 H1733 0.950 . S
C1753 C1749 1.385 . S
C1753 C1752 1.374 . S
C1754 C1751 1.499 . S
C1754 C1755 1.373 . S
C1754 C1756 1.389 . S
C1755 H1734 0.950 . S
C1755 C1754 1.373 . S
C1755 C1771 1.377 . S
C1756 C1754 1.389 . S
C1756 C1757 1.524 . S
C1756 C1770 1.377 . S
C1757 C1756 1.524 . S
C1757 C1758 1.397 . S
C1757 C1762 1.363 . S
C1758 H1735 0.950 . S
C1758 C1757 1.397 . S
C1758 C1759 1.334 . S
C1759 H1736 0.950 . S
C1759 C1758 1.334 . S
C1759 C1760 1.287 . S
C1760 C1759 1.287 . S
C1760 C1761 1.524 . S
C1760 H1779 0.913 . S
C1761 H1737 0.950 . S
C1761 C1760 1.524 . S
C1761 C1762 1.415 . S
C1762 H1738 0.950 . S
C1762 C1757 1.363 . S
C1762 C1761 1.415 . S
C1763 H1739 0.951 . S
C1763 C1764 1.366 . S
C1763 C1765 1.388 . S
C1764 C1763 1.366 . S
C1764 C1768 1.385 . S
C1765 H1740 0.951 . S
C1765 C1763 1.388 . S
C1765 C1766 1.366 . S
C1766 C1765 1.366 . S
C1766 C1767 1.414 . S
C1766 C1769 1.499 . S
C1767 H1741 0.950 . S
C1767 C1766 1.414 . S
C1767 C1768 1.374 . S
C1768 H1742 0.950 . S
C1768 C1764 1.385 . S
C1768 C1767 1.374 . S
C1769 C1766 1.499 . S
C1769 C1770 1.373 . S
C1769 C1771 1.389 . S
C1770 H1743 0.950 . S
C1770 C1756 1.377 . S
C1770 C1769 1.373 . S
C1771 C1755 1.377 . S
C1771 C1769 1.389 . S
C1771 C1772 1.524 . S
C1772 C1771 1.524 . S
C1772 C1773 1.397 . S
C1772 C1777 1.363 . S
C1773 H1744 0.950 . S
C1773 C1772 1.397 . S
C1773 C1774 1.334 . S
C1774 H1745 0.950 . S
C1774 C1773 1.334 . S
C1774 C1775 1.287 . S
C1775 C1774 1.287 . S
C1775 C1776 1.524 . S
C1775 H1778 0.999 . S
C1776 H1746 0.950 . S
C1776 C1775 1.524 . S
C1776 C1777 1.415 . S
C1777 H1747 0.950 . S
C1777 C1772 1.363 . S
C1777 C1776 1.415 . S
H1778 C1775 0.999 . S
H1779 C1760 0.913 . S
H1780 C1798 0.951 . S
H1781 C1800 0.951 . S
H1782 C1802 0.950 . S
H1783 C1803 0.950 . S
H1784 C1805 0.950 . S
H1785 C1808 0.950 . S
H1786 C1809 0.950 . S
H1787 C1811 0.950 . S
H1788 C1812 0.950 . S
H1789 C1813 0.951 . S
H1790 C1815 0.951 . S
H1791 C1817 0.950 . S
H1792 C1818 0.950 . S
H1793 C1820 0.950 . S
H1794 C1823 0.950 . S
H1795 C1824 0.950 . S
H1796 C1826 0.950 . S
H1797 C1827 0.950 . S
C1798 H1780 0.951 . S
C1798 C1799 1.366 . S
C1798 C1800 1.388 . S
C1799 C1798 1.366 . S
C1799 C1803 1.385 . S
C1800 H1781 0.951 . S
C1800 C1798 1.388 . S
C1800 C1801 1.366 . S
C1801 C1800 1.366 . S
C1801 C1802 1.414 . S
C1801 C1804 1.499 . S
C1802 H1782 0.950 . S
C1802 C1801 1.414 . S
C1802 C1803 1.374 . S
C1803 H1783 0.950 . S
C1803 C1799 1.385 . S
C1803 C1802 1.374 . S
C1804 C1801 1.499 . S
C1804 C1805 1.373 . S
C1804 C1806 1.389 . S
C1805 H1784 0.950 . S
C1805 C1804 1.373 . S
C1805 C1821 1.377 . S
C1806 C1804 1.389 . S
C1806 C1807 1.524 . S
C1806 C1820 1.377 . S
C1807 C1806 1.524 . S
C1807 C1808 1.397 . S
C1807 C1812 1.363 . S
C1808 H1785 0.950 . S
C1808 C1807 1.397 . S
C1808 C1809 1.334 . S
C1809 H1786 0.950 . S
C1809 C1808 1.334 . S
C1809 C1810 1.287 . S
C1810 C1809 1.287 . S
C1810 C1811 1.524 . S
C1810 H1829 0.913 . S
C1811 H1787 0.950 . S
C1811 C1810 1.524 . S
C1811 C1812 1.415 . S
C1812 H1788 0.950 . S
C1812 C1807 1.363 . S
C1812 C1811 1.415 . S
C1813 H1789 0.951 . S
C1813 C1814 1.366 . S
C1813 C1815 1.388 . S
C1814 C1813 1.366 . S
C1814 C1818 1.385 . S
C1815 H1790 0.951 . S
C1815 C1813 1.388 . S
C1815 C1816 1.366 . S
C1816 C1815 1.366 . S
C1816 C1817 1.414 . S
C1816 C1819 1.499 . S
C1817 H1791 0.950 . S
C1817 C1816 1.414 . S
C1817 C1818 1.374 . S
C1818 H1792 0.950 . S
C1818 C1814 1.385 . S
C1818 C1817 1.374 . S
C1819 C1816 1.499 . S
C1819 C1820 1.373 . S
C1819 C1821 1.389 . S
C1820 H1793 0.950 . S
C1820 C1806 1.377 . S
C1820 C1819 1.373 . S
C1821 C1805 1.377 . S
C1821 C1819 1.389 . S
C1821 C1822 1.524 . S
C1822 C1821 1.524 . S
C1822 C1823 1.397 . S
C1822 C1827 1.363 . S
C1823 H1794 0.950 . S
C1823 C1822 1.397 . S
C1823 C1824 1.334 . S
C1824 H1795 0.950 . S
C1824 C1823 1.334 . S
C1824 C1825 1.287 . S
C1825 C1824 1.287 . S
C1825 C1826 1.524 . S
C1825 H1828 0.999 . S
C1826 H1796 0.950 . S
C1826 C1825 1.524 . S
C1826 C1827 1.415 . S
C1827 H1797 0.950 . S
C1827 C1822 1.363 . S
C1827 C1826 1.415 . S
H1828 C1825 0.999 . S
H1829 C1810 0.913 . S
H1830 C1848 0.951 . S
H1831 C1850 0.951 . S
H1832 C1852 0.950 . S
H1833 C1853 0.950 . S
H1834 C1855 0.950 . S
H1835 C1858 0.950 . S
H1836 C1859 0.950 . S
H1837 C1861 0.950 . S
H1838 C1862 0.950 . S
H1839 C1863 0.951 . S
H1840 C1865 0.951 . S
H1841 C1867 0.950 . S
H1842 C1868 0.950 . S
H1843 C1870 0.950 . S
H1844 C1873 0.950 . S
H1845 C1874 0.950 . S
H1846 C1876 0.950 . S
H1847 C1877 0.950 . S
C1848 H1830 0.951 . S
C1848 C1849 1.366 . S
C1848 C1850 1.388 . S
C1849 C1848 1.366 . S
C1849 C1853 1.385 . S
C1850 H1831 0.951 . S
C1850 C1848 1.388 . S
C1850 C1851 1.366 . S
C1851 C1850 1.366 . S
C1851 C1852 1.414 . S
C1851 C1854 1.499 . S
C1852 H1832 0.950 . S
C1852 C1851 1.414 . S
C1852 C1853 1.374 . S
C1853 H1833 0.950 . S
C1853 C1849 1.385 . S
C1853 C1852 1.374 . S
C1854 C1851 1.499 . S
C1854 C1855 1.373 . S
C1854 C1856 1.389 . S
C1855 H1834 0.950 . S
C1855 C1854 1.373 . S
C1855 C1871 1.377 . S
C1856 C1854 1.389 . S
C1856 C1857 1.524 . S
C1856 C1870 1.377 . S
C1857 C1856 1.524 . S
C1857 C1858 1.397 . S
C1857 C1862 1.363 . S
C1858 H1835 0.950 . S
C1858 C1857 1.397 . S
C1858 C1859 1.334 . S
C1859 H1836 0.950 . S
C1859 C1858 1.334 . S
C1859 C1860 1.287 . S
C1860 C1859 1.287 . S
C1860 C1861 1.524 . S
C1860 H1879 0.913 . S
C1861 H1837 0.950 . S
C1861 C1860 1.524 . S
C1861 C1862 1.415 . S
C1862 H1838 0.950 . S
C1862 C1857 1.363 . S
C1862 C1861 1.415 . S
C1863 H1839 0.951 . S
C1863 C1864 1.366 . S
C1863 C1865 1.388 . S
C1864 C1863 1.366 . S
C1864 C1868 1.385 . S
C1865 H1840 0.951 . S
C1865 C1863 1.388 . S
C1865 C1866 1.366 . S
C1866 C1865 1.366 . S
C1866 C1867 1.414 . S
C1866 C1869 1.499 . S
C1867 H1841 0.950 . S
C1867 C1866 1.414 . S
C1867 C1868 1.374 . S
C1868 H1842 0.950 . S
C1868 C1864 1.385 . S
C1868 C1867 1.374 . S
C1869 C1866 1.499 . S
C1869 C1870 1.373 . S
C1869 C1871 1.389 . S
C1870 H1843 0.950 . S
C1870 C1856 1.377 . S
C1870 C1869 1.373 . S
C1871 C1855 1.377 . S
C1871 C1869 1.389 . S
C1871 C1872 1.524 . S
C1872 C1871 1.524 . S
C1872 C1873 1.397 . S
C1872 C1877 1.363 . S
C1873 H1844 0.950 . S
C1873 C1872 1.397 . S
C1873 C1874 1.334 . S
C1874 H1845 0.950 . S
C1874 C1873 1.334 . S
C1874 C1875 1.287 . S
C1875 C1874 1.287 . S
C1875 C1876 1.524 . S
C1875 H1878 0.999 . S
C1876 H1846 0.950 . S
C1876 C1875 1.524 . S
C1876 C1877 1.415 . S
C1877 H1847 0.950 . S
C1877 C1872 1.363 . S
C1877 C1876 1.415 . S
H1878 C1875 0.999 . S
H1879 C1860 0.913 . S
H1880 C1898 0.951 . S
H1881 C1900 0.951 . S
H1882 C1902 0.950 . S
H1883 C1903 0.950 . S
H1884 C1905 0.950 . S
H1885 C1908 0.950 . S
H1886 C1909 0.950 . S
H1887 C1911 0.950 . S
H1888 C1912 0.950 . S
H1889 C1913 0.951 . S
H1890 C1915 0.951 . S
H1891 C1917 0.950 . S
H1892 C1918 0.950 . S
H1893 C1920 0.950 . S
H1894 C1923 0.950 . S
H1895 C1924 0.950 . S
H1896 C1926 0.950 . S
H1897 C1927 0.950 . S
C1898 H1880 0.951 . S
C1898 C1899 1.366 . S
C1898 C1900 1.388 . S
C1899 C1898 1.366 . S
C1899 C1903 1.385 . S
C1900 H1881 0.951 . S
C1900 C1898 1.388 . S
C1900 C1901 1.366 . S
C1901 C1900 1.366 . S
C1901 C1902 1.414 . S
C1901 C1904 1.499 . S
C1902 H1882 0.950 . S
C1902 C1901 1.414 . S
C1902 C1903 1.374 . S
C1903 H1883 0.950 . S
C1903 C1899 1.385 . S
C1903 C1902 1.374 . S
C1904 C1901 1.499 . S
C1904 C1905 1.373 . S
C1904 C1906 1.389 . S
C1905 H1884 0.950 . S
C1905 C1904 1.373 . S
C1905 C1921 1.377 . S
C1906 C1904 1.389 . S
C1906 C1907 1.524 1_455 S
C1906 C1920 1.377 . S
C1907 C1906 1.524 1_655 S
C1907 C1908 1.397 . S
C1907 C1912 1.363 . S
C1908 H1885 0.950 . S
C1908 C1907 1.397 . S
C1908 C1909 1.334 . S
C1909 H1886 0.950 . S
C1909 C1908 1.334 . S
C1909 C1910 1.287 . S
C1910 C1909 1.287 . S
C1910 C1911 1.524 . S
C1910 H1929 0.913 . S
C1911 H1887 0.950 . S
C1911 C1910 1.524 . S
C1911 C1912 1.415 . S
C1912 H1888 0.950 . S
C1912 C1907 1.363 . S
C1912 C1911 1.415 . S
C1913 H1889 0.951 . S
C1913 C1914 1.366 . S
C1913 C1915 1.388 . S
C1914 C1913 1.366 . S
C1914 C1918 1.385 . S
C1915 H1890 0.951 . S
C1915 C1913 1.388 . S
C1915 C1916 1.366 . S
C1916 C1915 1.366 . S
C1916 C1917 1.414 . S
C1916 C1919 1.499 . S
C1917 H1891 0.950 . S
C1917 C1916 1.414 . S
C1917 C1918 1.374 . S
C1918 H1892 0.950 . S
C1918 C1914 1.385 . S
C1918 C1917 1.374 . S
C1919 C1916 1.499 . S
C1919 C1920 1.373 . S
C1919 C1921 1.389 . S
C1920 H1893 0.950 . S
C1920 C1906 1.377 . S
C1920 C1919 1.373 . S
C1921 C1905 1.377 . S
C1921 C1919 1.389 . S
C1921 C1922 1.524 . S
C1922 C1921 1.524 . S
C1922 C1923 1.397 . S
C1922 C1927 1.363 . S
C1923 H1894 0.950 . S
C1923 C1922 1.397 . S
C1923 C1924 1.334 . S
C1924 H1895 0.950 . S
C1924 C1923 1.334 . S
C1924 C1925 1.287 . S
C1925 C1924 1.287 . S
C1925 C1926 1.524 . S
C1925 H1928 0.999 . S
C1926 H1896 0.950 . S
C1926 C1925 1.524 . S
C1926 C1927 1.415 . S
C1927 H1897 0.950 . S
C1927 C1922 1.363 . S
C1927 C1926 1.415 . S
H1928 C1925 0.999 . S
H1929 C1910 0.913 . S
H1930 C1948 0.951 . S
H1931 C1950 0.951 . S
H1932 C1952 0.950 . S
H1933 C1953 0.950 . S
H1934 C1955 0.950 . S
H1935 C1958 0.950 . S
H1936 C1959 0.950 . S
H1937 C1961 0.950 . S
H1938 C1962 0.950 . S
H1939 C1963 0.951 . S
H1940 C1965 0.951 . S
H1941 C1967 0.950 . S
H1942 C1968 0.950 . S
H1943 C1970 0.950 . S
H1944 C1973 0.950 . S
H1945 C1974 0.950 . S
H1946 C1976 0.950 . S
H1947 C1977 0.950 . S
C1948 H1930 0.951 . S
C1948 C1949 1.366 . S
C1948 C1950 1.388 . S
C1949 C1948 1.366 . S
C1949 C1953 1.385 . S
C1950 H1931 0.951 . S
C1950 C1948 1.388 . S
C1950 C1951 1.366 . S
C1951 C1950 1.366 . S
C1951 C1952 1.414 . S
C1951 C1954 1.499 . S
C1952 H1932 0.950 . S
C1952 C1951 1.414 . S
C1952 C1953 1.374 . S
C1953 H1933 0.950 . S
C1953 C1949 1.385 . S
C1953 C1952 1.374 . S
C1954 C1951 1.499 . S
C1954 C1955 1.373 . S
C1954 C1956 1.389 . S
C1955 H1934 0.950 . S
C1955 C1954 1.373 . S
C1955 C1971 1.377 . S
C1956 C1954 1.389 . S
C1956 C1957 1.524 . S
C1956 C1970 1.377 . S
C1957 C1956 1.524 . S
C1957 C1958 1.397 . S
C1957 C1962 1.363 . S
C1958 H1935 0.950 . S
C1958 C1957 1.397 . S
C1958 C1959 1.334 . S
C1959 H1936 0.950 . S
C1959 C1958 1.334 . S
C1959 C1960 1.287 . S
C1960 C1959 1.287 . S
C1960 C1961 1.524 . S
C1960 H1979 0.913 . S
C1961 H1937 0.950 . S
C1961 C1960 1.524 . S
C1961 C1962 1.415 . S
C1962 H1938 0.950 . S
C1962 C1957 1.363 . S
C1962 C1961 1.415 . S
C1963 H1939 0.951 . S
C1963 C1964 1.366 . S
C1963 C1965 1.388 . S
C1964 C1963 1.366 . S
C1964 C1968 1.385 . S
C1965 H1940 0.951 . S
C1965 C1963 1.388 . S
C1965 C1966 1.366 . S
C1966 C1965 1.366 . S
C1966 C1967 1.414 . S
C1966 C1969 1.499 . S
C1967 H1941 0.950 . S
C1967 C1966 1.414 . S
C1967 C1968 1.374 . S
C1968 H1942 0.950 . S
C1968 C1964 1.385 . S
C1968 C1967 1.374 . S
C1969 C1966 1.499 . S
C1969 C1970 1.373 . S
C1969 C1971 1.389 . S
C1970 H1943 0.950 . S
C1970 C1956 1.377 . S
C1970 C1969 1.373 . S
C1971 C1955 1.377 . S
C1971 C1969 1.389 . S
C1971 C1972 1.524 . S
C1972 C1971 1.524 . S
C1972 C1973 1.397 . S
C1972 C1977 1.363 . S
C1973 H1944 0.950 . S
C1973 C1972 1.397 . S
C1973 C1974 1.334 . S
C1974 H1945 0.950 . S
C1974 C1973 1.334 . S
C1974 C1975 1.287 . S
C1975 C1974 1.287 . S
C1975 C1976 1.524 . S
C1975 H1978 0.999 . S
C1976 H1946 0.950 . S
C1976 C1975 1.524 . S
C1976 C1977 1.415 . S
C1977 H1947 0.950 . S
C1977 C1972 1.363 . S
C1977 C1976 1.415 . S
H1978 C1975 0.999 . S
H1979 C1960 0.913 . S
H1980 C1998 0.951 . S
H1981 C2000 0.951 . S
H1982 C2002 0.950 . S
H1983 C2003 0.950 . S
H1984 C2005 0.950 . S
H1985 C2008 0.950 . S
H1986 C2009 0.950 . S
H1987 C2011 0.950 . S
H1988 C2012 0.950 . S
H1989 C2013 0.951 . S
H1990 C2015 0.951 . S
H1991 C2017 0.950 . S
H1992 C2018 0.950 . S
H1993 C2020 0.950 . S
H1994 C2023 0.950 . S
H1995 C2024 0.950 . S
H1996 C2026 0.950 . S
H1997 C2027 0.950 . S
C1998 H1980 0.951 . S
C1998 C1999 1.366 . S
C1998 C2000 1.388 . S
C1999 C1998 1.366 . S
C1999 C2003 1.385 . S
C2000 H1981 0.951 . S
C2000 C1998 1.388 . S
C2000 C2001 1.366 . S
C2001 C2000 1.366 . S
C2001 C2002 1.414 . S
C2001 C2004 1.499 . S
C2002 H1982 0.950 . S
C2002 C2001 1.414 . S
C2002 C2003 1.374 . S
C2003 H1983 0.950 . S
C2003 C1999 1.385 . S
C2003 C2002 1.374 . S
C2004 C2001 1.499 . S
C2004 C2005 1.373 . S
C2004 C2006 1.389 . S
C2005 H1984 0.950 . S
C2005 C2004 1.373 . S
C2005 C2021 1.377 . S
C2006 C2004 1.389 . S
C2006 C2007 1.524 . S
C2006 C2020 1.377 . S
C2007 C2006 1.524 . S
C2007 C2008 1.397 . S
C2007 C2012 1.363 . S
C2008 H1985 0.950 . S
C2008 C2007 1.397 . S
C2008 C2009 1.334 . S
C2009 H1986 0.950 . S
C2009 C2008 1.334 . S
C2009 C2010 1.287 . S
C2010 C2009 1.287 . S
C2010 C2011 1.524 . S
C2010 H2029 0.913 . S
C2011 H1987 0.950 . S
C2011 C2010 1.524 . S
C2011 C2012 1.415 . S
C2012 H1988 0.950 . S
C2012 C2007 1.363 . S
C2012 C2011 1.415 . S
C2013 H1989 0.951 . S
C2013 C2014 1.366 . S
C2013 C2015 1.388 . S
C2014 C2013 1.366 . S
C2014 C2018 1.385 . S
C2015 H1990 0.951 . S
C2015 C2013 1.388 . S
C2015 C2016 1.366 . S
C2016 C2015 1.366 . S
C2016 C2017 1.414 . S
C2016 C2019 1.499 . S
C2017 H1991 0.950 . S
C2017 C2016 1.414 . S
C2017 C2018 1.374 . S
C2018 H1992 0.950 . S
C2018 C2014 1.385 . S
C2018 C2017 1.374 . S
C2019 C2016 1.499 . S
C2019 C2020 1.373 . S
C2019 C2021 1.389 . S
C2020 H1993 0.950 . S
C2020 C2006 1.377 . S
C2020 C2019 1.373 . S
C2021 C2005 1.377 . S
C2021 C2019 1.389 . S
C2021 C2022 1.524 . S
C2022 C2021 1.524 . S
C2022 C2023 1.397 . S
C2022 C2027 1.363 . S
C2023 H1994 0.950 . S
C2023 C2022 1.397 . S
C2023 C2024 1.334 . S
C2024 H1995 0.950 . S
C2024 C2023 1.334 . S
C2024 C2025 1.287 . S
C2025 C2024 1.287 . S
C2025 C2026 1.524 . S
C2025 H2028 0.999 . S
C2026 H1996 0.950 . S
C2026 C2025 1.524 . S
C2026 C2027 1.415 . S
C2027 H1997 0.950 . S
C2027 C2022 1.363 . S
C2027 C2026 1.415 . S
H2028 C2025 0.999 . S
H2029 C2010 0.913 . S
H2030 C2048 0.951 . S
H2031 C2050 0.951 . S
H2032 C2052 0.950 . S
H2033 C2053 0.950 . S
H2034 C2055 0.950 . S
H2035 C2058 0.950 . S
H2036 C2059 0.950 . S
H2037 C2061 0.950 . S
H2038 C2062 0.950 . S
H2039 C2063 0.951 . S
H2040 C2065 0.951 . S
H2041 C2067 0.950 . S
H2042 C2068 0.950 . S
H2043 C2070 0.950 . S
H2044 C2073 0.950 . S
H2045 C2074 0.950 . S
H2046 C2076 0.950 . S
H2047 C2077 0.950 . S
C2048 H2030 0.951 . S
C2048 C2049 1.366 . S
C2048 C2050 1.388 . S
C2049 C2048 1.366 . S
C2049 C2053 1.385 . S
C2050 H2031 0.951 . S
C2050 C2048 1.388 . S
C2050 C2051 1.366 . S
C2051 C2050 1.366 . S
C2051 C2052 1.414 . S
C2051 C2054 1.499 . S
C2052 H2032 0.950 . S
C2052 C2051 1.414 . S
C2052 C2053 1.374 . S
C2053 H2033 0.950 . S
C2053 C2049 1.385 . S
C2053 C2052 1.374 . S
C2054 C2051 1.499 . S
C2054 C2055 1.373 . S
C2054 C2056 1.389 . S
C2055 H2034 0.950 . S
C2055 C2054 1.373 . S
C2055 C2071 1.377 . S
C2056 C2054 1.389 . S
C2056 C2057 1.524 . S
C2056 C2070 1.377 . S
C2057 C2056 1.524 . S
C2057 C2058 1.397 . S
C2057 C2062 1.363 . S
C2058 H2035 0.950 . S
C2058 C2057 1.397 . S
C2058 C2059 1.334 . S
C2059 H2036 0.950 . S
C2059 C2058 1.334 . S
C2059 C2060 1.287 . S
C2060 C2059 1.287 . S
C2060 C2061 1.524 . S
C2060 H2079 0.913 . S
C2061 H2037 0.950 . S
C2061 C2060 1.524 . S
C2061 C2062 1.415 . S
C2062 H2038 0.950 . S
C2062 C2057 1.363 . S
C2062 C2061 1.415 . S
C2063 H2039 0.951 . S
C2063 C2064 1.366 . S
C2063 C2065 1.388 . S
C2064 C2063 1.366 . S
C2064 C2068 1.385 . S
C2065 H2040 0.951 . S
C2065 C2063 1.388 . S
C2065 C2066 1.366 . S
C2066 C2065 1.366 . S
C2066 C2067 1.414 . S
C2066 C2069 1.499 . S
C2067 H2041 0.950 . S
C2067 C2066 1.414 . S
C2067 C2068 1.374 . S
C2068 H2042 0.950 . S
C2068 C2064 1.385 . S
C2068 C2067 1.374 . S
C2069 C2066 1.499 . S
C2069 C2070 1.373 . S
C2069 C2071 1.389 . S
C2070 H2043 0.950 . S
C2070 C2056 1.377 . S
C2070 C2069 1.373 . S
C2071 C2055 1.377 . S
C2071 C2069 1.389 . S
C2071 C2072 1.524 . S
C2072 C2071 1.524 . S
C2072 C2073 1.397 . S
C2072 C2077 1.363 . S
C2073 H2044 0.950 . S
C2073 C2072 1.397 . S
C2073 C2074 1.334 . S
C2074 H2045 0.950 . S
C2074 C2073 1.334 . S
C2074 C2075 1.287 . S
C2075 C2074 1.287 . S
C2075 C2076 1.524 . S
C2075 H2078 0.999 . S
C2076 H2046 0.950 . S
C2076 C2075 1.524 . S
C2076 C2077 1.415 . S
C2077 H2047 0.950 . S
C2077 C2072 1.363 . S
C2077 C2076 1.415 . S
H2078 C2075 0.999 . S
H2079 C2060 0.913 . S
H2080 C2098 0.951 . S
H2081 C2100 0.951 . S
H2082 C2102 0.950 . S
H2083 C2103 0.950 . S
H2084 C2105 0.950 . S
H2085 C2108 0.950 . S
H2086 C2109 0.950 . S
H2087 C2111 0.950 . S
H2088 C2112 0.950 . S
H2089 C2113 0.951 . S
H2090 C2115 0.951 . S
H2091 C2117 0.950 . S
H2092 C2118 0.950 . S
H2093 C2120 0.950 . S
H2094 C2123 0.950 . S
H2095 C2124 0.950 . S
H2096 C2126 0.950 . S
H2097 C2127 0.950 . S
C2098 H2080 0.951 . S
C2098 C2099 1.366 . S
C2098 C2100 1.388 . S
C2099 C2098 1.366 . S
C2099 C2103 1.385 . S
C2100 H2081 0.951 . S
C2100 C2098 1.388 . S
C2100 C2101 1.366 . S
C2101 C2100 1.366 . S
C2101 C2102 1.414 . S
C2101 C2104 1.499 . S
C2102 H2082 0.950 . S
C2102 C2101 1.414 . S
C2102 C2103 1.374 . S
C2103 H2083 0.950 . S
C2103 C2099 1.385 . S
C2103 C2102 1.374 . S
C2104 C2101 1.499 . S
C2104 C2105 1.373 1_655 S
C2104 C2106 1.389 . S
C2105 H2084 0.950 . S
C2105 C2104 1.373 1_455 S
C2105 C2121 1.377 . S
C2106 C2104 1.389 . S
C2106 C2107 1.524 . S
C2106 C2120 1.377 . S
C2107 C2106 1.524 . S
C2107 C2108 1.397 . S
C2107 C2112 1.363 . S
C2108 H2085 0.950 . S
C2108 C2107 1.397 . S
C2108 C2109 1.334 . S
C2109 H2086 0.950 . S
C2109 C2108 1.334 . S
C2109 C2110 1.287 . S
C2110 C2109 1.287 . S
C2110 C2111 1.524 . S
C2110 H2129 0.913 . S
C2111 H2087 0.950 . S
C2111 C2110 1.524 . S
C2111 C2112 1.415 . S
C2112 H2088 0.950 . S
C2112 C2107 1.363 . S
C2112 C2111 1.415 . S
C2113 H2089 0.951 . S
C2113 C2114 1.366 . S
C2113 C2115 1.388 . S
C2114 C2113 1.366 . S
C2114 C2118 1.385 . S
C2115 H2090 0.951 . S
C2115 C2113 1.388 . S
C2115 C2116 1.366 . S
C2116 C2115 1.366 . S
C2116 C2117 1.414 . S
C2116 C2119 1.499 . S
C2117 H2091 0.950 . S
C2117 C2116 1.414 . S
C2117 C2118 1.374 . S
C2118 H2092 0.950 . S
C2118 C2114 1.385 . S
C2118 C2117 1.374 . S
C2119 C2116 1.499 . S
C2119 C2120 1.373 1_455 S
C2119 C2121 1.389 . S
C2120 H2093 0.950 . S
C2120 C2106 1.377 . S
C2120 C2119 1.373 1_655 S
C2121 C2105 1.377 . S
C2121 C2119 1.389 . S
C2121 C2122 1.524 . S
C2122 C2121 1.524 . S
C2122 C2123 1.397 . S
C2122 C2127 1.363 . S
C2123 H2094 0.950 . S
C2123 C2122 1.397 . S
C2123 C2124 1.334 . S
C2124 H2095 0.950 . S
C2124 C2123 1.334 . S
C2124 C2125 1.287 . S
C2125 C2124 1.287 . S
C2125 C2126 1.524 . S
C2125 H2128 0.999 . S
C2126 H2096 0.950 . S
C2126 C2125 1.524 . S
C2126 C2127 1.415 . S
C2127 H2097 0.950 . S
C2127 C2122 1.363 . S
C2127 C2126 1.415 . S
H2128 C2125 0.999 . S
H2129 C2110 0.913 . S
H2130 C2148 0.951 . S
H2131 C2150 0.951 . S
H2132 C2152 0.950 . S
H2133 C2153 0.950 . S
H2134 C2155 0.950 . S
H2135 C2158 0.950 . S
H2136 C2159 0.950 . S
H2137 C2161 0.950 . S
H2138 C2162 0.950 . S
H2139 C2163 0.951 . S
H2140 C2165 0.951 . S
H2141 C2167 0.950 . S
H2142 C2168 0.950 . S
H2143 C2170 0.950 . S
H2144 C2173 0.950 . S
H2145 C2174 0.950 . S
H2146 C2176 0.950 . S
H2147 C2177 0.950 . S
C2148 H2130 0.951 . S
C2148 C2149 1.366 . S
C2148 C2150 1.388 . S
C2149 C2148 1.366 . S
C2149 C2153 1.385 . S
C2150 H2131 0.951 . S
C2150 C2148 1.388 . S
C2150 C2151 1.366 . S
C2151 C2150 1.366 . S
C2151 C2152 1.414 . S
C2151 C2154 1.499 . S
C2152 H2132 0.950 . S
C2152 C2151 1.414 . S
C2152 C2153 1.374 . S
C2153 H2133 0.950 . S
C2153 C2149 1.385 . S
C2153 C2152 1.374 . S
C2154 C2151 1.499 . S
C2154 C2155 1.373 . S
C2154 C2156 1.389 . S
C2155 H2134 0.950 . S
C2155 C2154 1.373 . S
C2155 C2171 1.377 . S
C2156 C2154 1.389 . S
C2156 C2157 1.524 . S
C2156 C2170 1.377 . S
C2157 C2156 1.524 . S
C2157 C2158 1.397 . S
C2157 C2162 1.363 . S
C2158 H2135 0.950 . S
C2158 C2157 1.397 . S
C2158 C2159 1.334 . S
C2159 H2136 0.950 . S
C2159 C2158 1.334 . S
C2159 C2160 1.287 . S
C2160 C2159 1.287 . S
C2160 C2161 1.524 . S
C2160 H2179 0.913 . S
C2161 H2137 0.950 . S
C2161 C2160 1.524 . S
C2161 C2162 1.415 . S
C2162 H2138 0.950 . S
C2162 C2157 1.363 . S
C2162 C2161 1.415 . S
C2163 H2139 0.951 . S
C2163 C2164 1.366 . S
C2163 C2165 1.388 . S
C2164 C2163 1.366 . S
C2164 C2168 1.385 . S
C2165 H2140 0.951 . S
C2165 C2163 1.388 . S
C2165 C2166 1.366 . S
C2166 C2165 1.366 . S
C2166 C2167 1.414 . S
C2166 C2169 1.499 . S
C2167 H2141 0.950 . S
C2167 C2166 1.414 . S
C2167 C2168 1.374 . S
C2168 H2142 0.950 . S
C2168 C2164 1.385 . S
C2168 C2167 1.374 . S
C2169 C2166 1.499 . S
C2169 C2170 1.373 . S
C2169 C2171 1.389 . S
C2170 H2143 0.950 . S
C2170 C2156 1.377 . S
C2170 C2169 1.373 . S
C2171 C2155 1.377 . S
C2171 C2169 1.389 . S
C2171 C2172 1.524 . S
C2172 C2171 1.524 . S
C2172 C2173 1.397 . S
C2172 C2177 1.363 . S
C2173 H2144 0.950 . S
C2173 C2172 1.397 . S
C2173 C2174 1.334 . S
C2174 H2145 0.950 . S
C2174 C2173 1.334 . S
C2174 C2175 1.287 . S
C2175 C2174 1.287 . S
C2175 C2176 1.524 . S
C2175 H2178 0.999 . S
C2176 H2146 0.950 . S
C2176 C2175 1.524 . S
C2176 C2177 1.415 . S
C2177 H2147 0.950 . S
C2177 C2172 1.363 . S
C2177 C2176 1.415 . S
H2178 C2175 0.999 . S
H2179 C2160 0.913 . S
H2180 C2198 0.951 . S
H2181 C2200 0.951 . S
H2182 C2202 0.950 . S
H2183 C2203 0.950 . S
H2184 C2205 0.950 . S
H2185 C2208 0.950 . S
H2186 C2209 0.950 . S
H2187 C2211 0.950 . S
H2188 C2212 0.950 . S
H2189 C2213 0.951 . S
H2190 C2215 0.951 . S
H2191 C2217 0.950 . S
H2192 C2218 0.950 . S
H2193 C2220 0.950 . S
H2194 C2223 0.950 1_545 S
H2195 C2224 0.950 . S
H2196 C2226 0.950 . S
H2197 C2227 0.950 . S
C2198 H2180 0.951 . S
C2198 C2199 1.366 . S
C2198 C2200 1.388 . S
C2199 C2198 1.366 . S
C2199 C2203 1.385 . S
C2200 H2181 0.951 . S
C2200 C2198 1.388 . S
C2200 C2201 1.366 . S
C2201 C2200 1.366 . S
C2201 C2202 1.414 . S
C2201 C2204 1.499 . S
C2202 H2182 0.950 . S
C2202 C2201 1.414 . S
C2202 C2203 1.374 . S
C2203 H2183 0.950 . S
C2203 C2199 1.385 . S
C2203 C2202 1.374 . S
C2204 C2201 1.499 . S
C2204 C2205 1.373 . S
C2204 C2206 1.389 . S
C2205 H2184 0.950 . S
C2205 C2204 1.373 . S
C2205 C2221 1.377 . S
C2206 C2204 1.389 . S
C2206 C2207 1.524 . S
C2206 C2220 1.377 . S
C2207 C2206 1.524 . S
C2207 C2208 1.397 . S
C2207 C2212 1.363 . S
C2208 H2185 0.950 . S
C2208 C2207 1.397 . S
C2208 C2209 1.334 . S
C2209 H2186 0.950 . S
C2209 C2208 1.334 . S
C2209 C2210 1.287 . S
C2210 C2209 1.287 . S
C2210 C2211 1.524 . S
C2210 H2229 0.913 . S
C2211 H2187 0.950 . S
C2211 C2210 1.524 . S
C2211 C2212 1.415 . S
C2212 H2188 0.950 . S
C2212 C2207 1.363 . S
C2212 C2211 1.415 . S
C2213 H2189 0.951 . S
C2213 C2214 1.366 . S
C2213 C2215 1.388 . S
C2214 C2213 1.366 . S
C2214 C2218 1.385 . S
C2215 H2190 0.951 . S
C2215 C2213 1.388 . S
C2215 C2216 1.366 . S
C2216 C2215 1.366 . S
C2216 C2217 1.414 . S
C2216 C2219 1.499 . S
C2217 H2191 0.950 . S
C2217 C2216 1.414 . S
C2217 C2218 1.374 . S
C2218 H2192 0.950 . S
C2218 C2214 1.385 . S
C2218 C2217 1.374 . S
C2219 C2216 1.499 . S
C2219 C2220 1.373 . S
C2219 C2221 1.389 . S
C2220 H2193 0.950 . S
C2220 C2206 1.377 . S
C2220 C2219 1.373 . S
C2221 C2205 1.377 . S
C2221 C2219 1.389 . S
C2221 C2222 1.555 . S
C2222 C2221 1.555 . S
C2222 C2223 1.388 1_545 S
C2222 C2227 1.342 1_545 S
C2223 H2194 0.950 1_565 S
C2223 C2222 1.388 1_565 S
C2223 C2224 1.334 . S
C2224 H2195 0.950 . S
C2224 C2223 1.334 . S
C2224 C2225 1.287 . S
C2225 C2224 1.287 . S
C2225 C2226 1.524 . S
C2225 H2228 0.999 . S
C2226 H2196 0.950 . S
C2226 C2225 1.524 . S
C2226 C2227 1.415 . S
C2227 H2197 0.950 . S
C2227 C2222 1.342 1_565 S
C2227 C2226 1.415 . S
H2228 C2225 0.999 . S
H2229 C2210 0.913 . S
H2230 C2248 0.951 . S
H2231 C2250 0.951 . S
H2232 C2252 0.950 . S
H2233 C2253 0.950 . S
H2234 C2255 0.950 . S
H2235 C2258 0.950 . S
H2236 C2259 0.950 . S
H2237 C2261 0.950 . S
H2238 C2262 0.950 . S
H2239 C2263 0.951 . S
H2240 C2265 0.951 . S
H2241 C2267 0.950 . S
H2242 C2268 0.950 . S
H2243 C2270 0.950 . S
H2244 C2273 0.950 . S
H2245 C2274 0.950 . S
H2246 C2276 0.950 . S
H2247 C2277 0.950 . S
C2248 H2230 0.951 . S
C2248 C2249 1.366 . S
C2248 C2250 1.388 . S
C2249 C2248 1.366 . S
C2249 C2253 1.385 . S
C2250 H2231 0.951 . S
C2250 C2248 1.388 . S
C2250 C2251 1.366 . S
C2251 C2250 1.366 . S
C2251 C2252 1.414 . S
C2251 C2254 1.499 . S
C2252 H2232 0.950 . S
C2252 C2251 1.414 . S
C2252 C2253 1.374 . S
C2253 H2233 0.950 . S
C2253 C2249 1.385 . S
C2253 C2252 1.374 . S
C2254 C2251 1.499 . S
C2254 C2255 1.373 . S
C2254 C2256 1.389 . S
C2255 H2234 0.950 . S
C2255 C2254 1.373 . S
C2255 C2271 1.377 . S
C2256 C2254 1.389 . S
C2256 C2257 1.524 . S
C2256 C2270 1.377 . S
C2257 C2256 1.524 . S
C2257 C2258 1.397 . S
C2257 C2262 1.363 . S
C2258 H2235 0.950 . S
C2258 C2257 1.397 . S
C2258 C2259 1.334 . S
C2259 H2236 0.950 . S
C2259 C2258 1.334 . S
C2259 C2260 1.287 . S
C2260 C2259 1.287 . S
C2260 C2261 1.524 . S
C2260 H2279 0.913 . S
C2261 H2237 0.950 . S
C2261 C2260 1.524 . S
C2261 C2262 1.415 . S
C2262 H2238 0.950 . S
C2262 C2257 1.363 . S
C2262 C2261 1.415 . S
C2263 H2239 0.951 . S
C2263 C2264 1.366 . S
C2263 C2265 1.388 . S
C2264 C2263 1.366 . S
C2264 C2268 1.385 . S
C2265 H2240 0.951 . S
C2265 C2263 1.388 . S
C2265 C2266 1.366 . S
C2266 C2265 1.366 . S
C2266 C2267 1.414 . S
C2266 C2269 1.499 . S
C2267 H2241 0.950 . S
C2267 C2266 1.414 . S
C2267 C2268 1.374 . S
C2268 H2242 0.950 . S
C2268 C2264 1.385 . S
C2268 C2267 1.374 . S
C2269 C2266 1.499 . S
C2269 C2270 1.373 . S
C2269 C2271 1.389 . S
C2270 H2243 0.950 . S
C2270 C2256 1.377 . S
C2270 C2269 1.373 . S
C2271 C2255 1.377 . S
C2271 C2269 1.389 . S
C2271 C2272 1.524 . S
C2272 C2271 1.524 . S
C2272 C2273 1.397 . S
C2272 C2277 1.363 . S
C2273 H2244 0.950 . S
C2273 C2272 1.397 . S
C2273 C2274 1.334 . S
C2274 H2245 0.950 . S
C2274 C2273 1.334 . S
C2274 C2275 1.287 . S
C2275 C2274 1.287 . S
C2275 C2276 1.524 . S
C2275 H2278 0.999 . S
C2276 H2246 0.950 . S
C2276 C2275 1.524 . S
C2276 C2277 1.415 . S
C2277 H2247 0.950 . S
C2277 C2272 1.363 . S
C2277 C2276 1.415 . S
H2278 C2275 0.999 . S
H2279 C2260 0.913 . S
H2280 C2298 0.951 . S
H2281 C2300 0.964 . S
H2282 C2302 0.950 . S
H2283 C2303 0.950 . S
H2284 C2305 0.950 . S
H2285 C2308 0.950 . S
H2286 C2309 0.950 . S
H2287 C2311 0.950 . S
H2288 C2312 0.950 1_455 S
H2289 C2313 0.951 . S
H2290 C2315 0.951 . S
H2291 C2317 0.950 . S
H2292 C2318 0.950 . S
H2293 C2320 0.950 . S
H2294 C2323 0.950 . S
H2295 C2324 0.950 . S
H2296 C2326 0.950 . S
H2297 C2327 0.950 . S
C2298 H2280 0.951 . S
C2298 C2299 1.366 . S
C2298 C2300 1.388 . S
C2299 C2298 1.366 . S
C2299 C2303 1.385 . S
C2300 H2281 0.964 . S
C2300 C2298 1.388 . S
C2300 C2301 1.366 . S
C2301 C2300 1.366 . S
C2301 C2302 1.414 . S
C2301 C2304 1.499 . S
C2302 H2282 0.950 . S
C2302 C2301 1.414 . S
C2302 C2303 1.374 . S
C2303 H2283 0.950 . S
C2303 C2299 1.385 . S
C2303 C2302 1.374 . S
C2304 C2301 1.499 . S
C2304 C2305 1.373 1_655 S
C2304 C2306 1.389 . S
C2305 H2284 0.950 . S
C2305 C2304 1.373 1_455 S
C2305 C2321 1.377 . S
C2306 C2304 1.389 . S
C2306 C2307 1.524 . S
C2306 C2320 1.377 1_655 S
C2307 C2306 1.524 . S
C2307 C2308 1.397 . S
C2307 C2312 1.363 . S
C2308 H2285 0.950 . S
C2308 C2307 1.397 . S
C2308 C2309 1.334 . S
C2309 H2286 0.950 . S
C2309 C2308 1.334 . S
C2309 C2310 1.287 1_545 S
C2310 C2309 1.287 1_565 S
C2310 C2311 1.524 . S
C2310 H2329 0.913 . S
C2311 H2287 0.950 . S
C2311 C2310 1.524 . S
C2311 C2312 1.415 1_565 S
C2312 H2288 0.950 1_655 S
C2312 C2307 1.363 . S
C2312 C2311 1.415 1_545 S
C2313 H2289 0.951 . S
C2313 C2314 1.366 . S
C2313 C2315 1.388 . S
C2314 C2313 1.366 . S
C2314 C2318 1.385 . S
C2315 H2290 0.951 . S
C2315 C2313 1.388 . S
C2315 C2316 1.366 . S
C2316 C2315 1.366 . S
C2316 C2317 1.414 . S
C2316 C2319 1.499 . S
C2317 H2291 0.950 . S
C2317 C2316 1.414 . S
C2317 C2318 1.374 . S
C2318 H2292 0.950 . S
C2318 C2314 1.385 . S
C2318 C2317 1.374 . S
C2319 C2316 1.499 . S
C2319 C2320 1.373 . S
C2319 C2321 1.389 . S
C2320 H2293 0.950 . S
C2320 C2306 1.377 1_455 S
C2320 C2319 1.373 . S
C2321 C2305 1.377 . S
C2321 C2319 1.389 . S
C2321 C2322 1.524 . S
C2322 C2321 1.524 . S
C2322 C2323 1.397 . S
C2322 C2327 1.363 . S
C2323 H2294 0.950 . S
C2323 C2322 1.397 . S
C2323 C2324 1.334 . S
C2324 H2295 0.950 . S
C2324 C2323 1.334 . S
C2324 C2325 1.287 . S
C2325 C2324 1.287 . S
C2325 C2326 1.524 . S
C2325 H2328 0.999 . S
C2326 H2296 0.950 . S
C2326 C2325 1.524 . S
C2326 C2327 1.415 . S
C2327 H2297 0.950 . S
C2327 C2322 1.363 . S
C2327 C2326 1.415 . S
H2328 C2325 0.999 . S
H2329 C2310 0.913 . S
H2330 C2348 0.951 . S
H2331 C2350 0.951 . S
H2332 C2352 0.950 . S
H2333 C2353 0.950 . S
H2334 C2355 0.950 . S
H2335 C2358 0.950 . S
H2336 C2359 0.950 . S
H2337 C2361 0.950 . S
H2338 C2362 0.950 . S
H2339 C2363 0.951 . S
H2340 C2365 0.951 . S
H2341 C2367 0.950 . S
H2342 C2368 0.950 . S
H2343 C2370 0.950 . S
H2344 C2373 0.950 . S
H2345 C2374 0.950 . S
H2346 C2376 0.950 . S
H2347 C2377 0.950 . S
C2348 H2330 0.951 . S
C2348 C2349 1.366 . S
C2348 C2350 1.388 . S
C2349 C2348 1.366 . S
C2349 C2353 1.385 . S
C2350 H2331 0.951 . S
C2350 C2348 1.388 . S
C2350 C2351 1.366 . S
C2351 C2350 1.366 . S
C2351 C2352 1.414 . S
C2351 C2354 1.499 . S
C2352 H2332 0.950 . S
C2352 C2351 1.414 . S
C2352 C2353 1.374 . S
C2353 H2333 0.950 . S
C2353 C2349 1.385 . S
C2353 C2352 1.374 . S
C2354 C2351 1.499 . S
C2354 C2355 1.373 . S
C2354 C2356 1.389 . S
C2355 H2334 0.950 . S
C2355 C2354 1.373 . S
C2355 C2371 1.377 . S
C2356 C2354 1.389 . S
C2356 C2357 1.524 . S
C2356 C2370 1.377 . S
C2357 C2356 1.524 . S
C2357 C2358 1.397 . S
C2357 C2362 1.363 . S
C2358 H2335 0.950 . S
C2358 C2357 1.397 . S
C2358 C2359 1.334 . S
C2359 H2336 0.950 . S
C2359 C2358 1.334 . S
C2359 C2360 1.287 . S
C2360 C2359 1.287 . S
C2360 C2361 1.524 . S
C2360 H2379 0.913 . S
C2361 H2337 0.950 . S
C2361 C2360 1.524 . S
C2361 C2362 1.415 . S
C2362 H2338 0.950 . S
C2362 C2357 1.363 . S
C2362 C2361 1.415 . S
C2363 H2339 0.951 . S
C2363 C2364 1.366 . S
C2363 C2365 1.388 . S
C2364 C2363 1.366 . S
C2364 C2368 1.385 . S
C2365 H2340 0.951 . S
C2365 C2363 1.388 . S
C2365 C2366 1.366 . S
C2366 C2365 1.366 . S
C2366 C2367 1.414 . S
C2366 C2369 1.499 . S
C2367 H2341 0.950 . S
C2367 C2366 1.414 . S
C2367 C2368 1.374 . S
C2368 H2342 0.950 . S
C2368 C2364 1.385 . S
C2368 C2367 1.374 . S
C2369 C2366 1.499 . S
C2369 C2370 1.373 . S
C2369 C2371 1.389 . S
C2370 H2343 0.950 . S
C2370 C2356 1.377 . S
C2370 C2369 1.373 . S
C2371 C2355 1.377 . S
C2371 C2369 1.389 . S
C2371 C2372 1.524 . S
C2372 C2371 1.524 . S
C2372 C2373 1.397 . S
C2372 C2377 1.363 . S
C2373 H2344 0.950 . S
C2373 C2372 1.397 . S
C2373 C2374 1.334 . S
C2374 H2345 0.950 . S
C2374 C2373 1.334 . S
C2374 C2375 1.287 . S
C2375 C2374 1.287 . S
C2375 C2376 1.524 . S
C2375 H2378 0.999 . S
C2376 H2346 0.950 . S
C2376 C2375 1.524 . S
C2376 C2377 1.415 . S
C2377 H2347 0.950 . S
C2377 C2372 1.363 . S
C2377 C2376 1.415 . S
H2378 C2375 0.999 . S
H2379 C2360 0.913 . S
H2380 C2398 0.951 . S
H2381 C2400 0.951 . S
H2382 C2402 0.950 . S
H2383 C2403 0.950 . S
H2384 C2405 0.950 . S
H2385 C2408 0.950 . S
H2386 C2409 0.950 . S
H2387 C2411 0.950 . S
H2388 C2412 0.950 . S
H2389 C2413 0.951 . S
H2390 C2415 0.951 . S
H2391 C2417 0.950 . S
H2392 C2418 0.950 . S
H2393 C2420 0.950 . S
H2394 C2423 0.950 . S
H2395 C2424 0.950 . S
H2396 C2426 0.950 . S
H2397 C2427 0.950 . S
C2398 H2380 0.951 . S
C2398 C2399 1.366 . S
C2398 C2400 1.388 . S
C2399 C2398 1.366 . S
C2399 C2403 1.385 . S
C2400 H2381 0.951 . S
C2400 C2398 1.388 . S
C2400 C2401 1.366 . S
C2401 C2400 1.366 . S
C2401 C2402 1.414 . S
C2401 C2404 1.499 . S
C2402 H2382 0.950 . S
C2402 C2401 1.414 . S
C2402 C2403 1.374 . S
C2403 H2383 0.950 . S
C2403 C2399 1.385 . S
C2403 C2402 1.374 . S
C2404 C2401 1.499 . S
C2404 C2405 1.373 . S
C2404 C2406 1.389 . S
C2405 H2384 0.950 . S
C2405 C2404 1.373 . S
C2405 C2421 1.377 . S
C2406 C2404 1.389 . S
C2406 C2407 1.524 . S
C2406 C2420 1.377 . S
C2407 C2406 1.524 . S
C2407 C2408 1.397 . S
C2407 C2412 1.363 . S
C2408 H2385 0.950 . S
C2408 C2407 1.397 . S
C2408 C2409 1.334 . S
C2409 H2386 0.950 . S
C2409 C2408 1.334 . S
C2409 C2410 1.287 . S
C2410 C2409 1.287 . S
C2410 C2411 1.524 . S
C2410 H2429 0.913 . S
C2411 H2387 0.950 . S
C2411 C2410 1.524 . S
C2411 C2412 1.415 . S
C2412 H2388 0.950 . S
C2412 C2407 1.363 . S
C2412 C2411 1.415 . S
C2413 H2389 0.951 . S
C2413 C2414 1.366 . S
C2413 C2415 1.388 . S
C2414 C2413 1.366 . S
C2414 C2418 1.385 . S
C2415 H2390 0.951 . S
C2415 C2413 1.388 . S
C2415 C2416 1.366 . S
C2416 C2415 1.366 . S
C2416 C2417 1.414 . S
C2416 C2419 1.499 . S
C2417 H2391 0.950 . S
C2417 C2416 1.414 . S
C2417 C2418 1.374 . S
C2418 H2392 0.950 . S
C2418 C2414 1.385 . S
C2418 C2417 1.374 . S
C2419 C2416 1.499 . S
C2419 C2420 1.373 . S
C2419 C2421 1.389 . S
C2420 H2393 0.950 . S
C2420 C2406 1.377 . S
C2420 C2419 1.373 . S
C2421 C2405 1.377 . S
C2421 C2419 1.389 . S
C2421 C2422 1.524 . S
C2422 C2421 1.524 . S
C2422 C2423 1.397 . S
C2422 C2427 1.363 . S
C2423 H2394 0.950 . S
C2423 C2422 1.397 . S
C2423 C2424 1.334 1_545 S
C2424 H2395 0.950 . S
C2424 C2423 1.334 1_565 S
C2424 C2425 1.287 . S
C2425 C2424 1.287 . S
C2425 C2426 1.524 1_565 S
C2425 H2428 0.999 . S
C2426 H2396 0.950 . S
C2426 C2425 1.524 1_545 S
C2426 C2427 1.415 . S
C2427 H2397 0.950 . S
C2427 C2422 1.363 . S
C2427 C2426 1.415 . S
H2428 C2425 0.999 . S
H2429 C2410 0.913 . S
H2430 C2448 0.951 . S
H2431 C2450 0.951 . S
H2432 C2452 0.950 . S
H2433 C2453 0.950 . S
H2434 C2455 0.950 . S
H2435 C2458 0.950 . S
H2436 C2459 0.950 . S
H2437 C2461 0.950 . S
H2438 C2462 0.950 . S
H2439 C2463 0.951 . S
H2440 C2465 0.951 . S
H2441 C2467 0.950 . S
H2442 C2468 0.950 . S
H2443 C2470 0.950 . S
H2444 C2473 0.950 . S
H2445 C2474 0.950 . S
H2446 C2476 0.950 . S
H2447 C2477 0.950 . S
C2448 H2430 0.951 . S
C2448 C2449 1.366 . S
C2448 C2450 1.388 . S
C2449 C2448 1.366 . S
C2449 C2453 1.385 . S
C2450 H2431 0.951 . S
C2450 C2448 1.388 . S
C2450 C2451 1.366 . S
C2451 C2450 1.366 . S
C2451 C2452 1.414 . S
C2451 C2454 1.499 . S
C2452 H2432 0.950 . S
C2452 C2451 1.414 . S
C2452 C2453 1.374 . S
C2453 H2433 0.950 . S
C2453 C2449 1.385 . S
C2453 C2452 1.374 . S
C2454 C2451 1.499 . S
C2454 C2455 1.373 . S
C2454 C2456 1.389 . S
C2455 H2434 0.950 . S
C2455 C2454 1.373 . S
C2455 C2471 1.377 . S
C2456 C2454 1.389 . S
C2456 C2457 1.524 . S
C2456 C2470 1.377 . S
C2457 C2456 1.524 . S
C2457 C2458 1.397 . S
C2457 C2462 1.363 . S
C2458 H2435 0.950 . S
C2458 C2457 1.397 . S
C2458 C2459 1.334 . S
C2459 H2436 0.950 . S
C2459 C2458 1.334 . S
C2459 C2460 1.287 . S
C2460 C2459 1.287 . S
C2460 C2461 1.524 . S
C2460 H2479 0.913 . S
C2461 H2437 0.950 . S
C2461 C2460 1.524 . S
C2461 C2462 1.415 . S
C2462 H2438 0.950 . S
C2462 C2457 1.363 . S
C2462 C2461 1.415 . S
C2463 H2439 0.951 . S
C2463 C2464 1.366 . S
C2463 C2465 1.388 . S
C2464 C2463 1.366 . S
C2464 C2468 1.385 . S
C2465 H2440 0.951 . S
C2465 C2463 1.388 . S
C2465 C2466 1.366 . S
C2466 C2465 1.366 . S
C2466 C2467 1.414 . S
C2466 C2469 1.499 . S
C2467 H2441 0.950 . S
C2467 C2466 1.414 . S
C2467 C2468 1.374 . S
C2468 H2442 0.950 . S
C2468 C2464 1.385 . S
C2468 C2467 1.374 . S
C2469 C2466 1.499 . S
C2469 C2470 1.373 . S
C2469 C2471 1.389 . S
C2470 H2443 0.950 . S
C2470 C2456 1.377 . S
C2470 C2469 1.373 . S
C2471 C2455 1.377 . S
C2471 C2469 1.389 . S
C2471 C2472 1.524 . S
C2472 C2471 1.524 . S
C2472 C2473 1.397 . S
C2472 C2477 1.363 . S
C2473 H2444 0.950 . S
C2473 C2472 1.397 . S
C2473 C2474 1.334 . S
C2474 H2445 0.950 . S
C2474 C2473 1.334 . S
C2474 C2475 1.287 . S
C2475 C2474 1.287 . S
C2475 C2476 1.524 . S
C2475 H2478 0.999 . S
C2476 H2446 0.950 . S
C2476 C2475 1.524 . S
C2476 C2477 1.415 . S
C2477 H2447 0.950 . S
C2477 C2472 1.363 . S
C2477 C2476 1.415 . S
H2478 C2475 0.999 . S
H2479 C2460 0.913 . S
H2480 C2498 0.951 . S
H2481 C2500 0.951 . S
H2482 C2502 0.950 . S
H2483 C2503 0.950 . S
H2484 C2505 0.950 1_556 S
H2485 C2508 0.950 . S
H2486 C2509 0.950 . S
H2487 C2511 0.950 . S
H2488 C2512 0.950 . S
H2489 C2513 0.951 1_565 S
H2490 C2515 0.951 . S
H2491 C2517 0.950 . S
H2492 C2518 0.950 . S
H2493 C2520 0.927 1_545 S
H2494 C2523 0.950 1_545 S
H2495 C2524 0.950 1_545 S
H2496 C2526 0.950 . S
H2497 C2527 0.950 . S
C2498 H2480 0.951 . S
C2498 C2499 1.366 . S
C2498 C2500 1.388 . S
C2499 C2498 1.366 . S
C2499 C2503 1.385 . S
C2500 H2481 0.951 . S
C2500 C2498 1.388 . S
C2500 C2501 1.366 . S
C2501 C2500 1.366 . S
C2501 C2502 1.414 . S
C2501 C2504 1.499 . S
C2502 H2482 0.950 . S
C2502 C2501 1.414 . S
C2502 C2503 1.374 . S
C2503 H2483 0.950 . S
C2503 C2499 1.385 . S
C2503 C2502 1.374 . S
C2504 C2501 1.499 . S
C2504 C2505 1.373 . S
C2504 C2506 1.389 . S
C2505 H2484 0.950 1_554 S
C2505 C2504 1.373 . S
C2505 C2521 1.377 . S
C2506 C2504 1.389 . S
C2506 C2507 1.524 . S
C2506 C2520 1.411 . S
C2507 C2506 1.524 . S
C2507 C2508 1.397 . S
C2507 C2512 1.363 1_565 S
C2508 H2485 0.950 . S
C2508 C2507 1.397 . S
C2508 C2509 1.334 . S
C2509 H2486 0.950 . S
C2509 C2508 1.334 . S
C2509 C2510 1.287 . S
C2510 C2509 1.287 . S
C2510 C2511 1.524 1_565 S
C2510 H2529 0.913 . S
C2511 H2487 0.950 . S
C2511 C2510 1.524 1_545 S
C2511 C2512 1.415 . S
C2512 H2488 0.950 . S
C2512 C2507 1.363 1_545 S
C2512 C2511 1.415 . S
C2513 H2489 0.951 1_545 S
C2513 C2514 1.366 . S
C2513 C2515 1.388 1_545 S
C2514 C2513 1.366 . S
C2514 C2518 1.385 . S
C2515 H2490 0.951 . S
C2515 C2513 1.388 1_565 S
C2515 C2516 1.366 1_565 S
C2516 C2515 1.366 1_545 S
C2516 C2517 1.414 . S
C2516 C2519 1.499 1_545 S
C2517 H2491 0.950 . S
C2517 C2516 1.414 . S
C2517 C2518 1.374 . S
C2518 H2492 0.950 . S
C2518 C2514 1.385 . S
C2518 C2517 1.374 . S
C2519 C2516 1.499 1_565 S
C2519 C2520 1.364 . S
C2519 C2521 1.389 . S
C2520 H2493 0.927 1_565 S
C2520 C2506 1.411 . S
C2520 C2519 1.364 . S
C2521 C2505 1.377 . S
C2521 C2519 1.389 . S
C2521 C2522 1.524 1_554 S
C2522 C2521 1.524 1_556 S
C2522 C2523 1.397 . S
C2522 C2527 1.363 . S
C2523 H2494 0.950 1_565 S
C2523 C2522 1.397 . S
C2523 C2524 1.334 . S
C2524 H2495 0.950 1_565 S
C2524 C2523 1.334 . S
C2524 C2525 1.287 . S
C2525 C2524 1.287 . S
C2525 C2526 1.524 . S
C2525 H2528 0.999 . S
C2526 H2496 0.950 . S
C2526 C2525 1.524 . S
C2526 C2527 1.415 . S
C2527 H2497 0.950 . S
C2527 C2522 1.363 . S
C2527 C2526 1.415 . S
H2528 C2525 0.999 . S
H2529 C2510 0.913 . S
H2530 C2548 0.951 . S
H2531 C2550 0.951 . S
H2532 C2552 0.950 . S
H2533 C2553 0.950 . S
H2534 C2555 0.950 . S
H2535 C2558 0.950 . S
H2536 C2559 0.950 . S
H2537 C2561 0.950 . S
H2538 C2562 0.950 . S
H2539 C2563 0.951 . S
H2540 C2565 0.951 . S
H2541 C2567 0.950 . S
H2542 C2568 0.950 . S
H2543 C2570 0.950 . S
H2544 C2573 0.950 . S
H2545 C2574 0.950 . S
H2546 C2576 0.950 . S
H2547 C2577 0.950 . S
C2548 H2530 0.951 . S
C2548 C2549 1.339 1_556 S
C2548 C2550 1.388 . S
C2549 C2548 1.339 1_554 S
C2549 C2553 1.422 . S
C2550 H2531 0.951 . S
C2550 C2548 1.388 . S
C2550 C2551 1.366 1_556 S
C2551 C2550 1.366 1_554 S
C2551 C2552 1.414 . S
C2551 C2554 1.499 . S
C2552 H2532 0.950 . S
C2552 C2551 1.414 . S
C2552 C2553 1.374 . S
C2553 H2533 0.950 . S
C2553 C2549 1.422 . S
C2553 C2552 1.374 . S
C2554 C2551 1.499 . S
C2554 C2555 1.373 . S
C2554 C2556 1.389 1_554 S
C2555 H2534 0.950 . S
C2555 C2554 1.373 . S
C2555 C2571 1.377 . S
C2556 C2554 1.389 1_556 S
C2556 C2557 1.524 . S
C2556 C2570 1.377 . S
C2557 C2556 1.524 . S
C2557 C2558 1.397 . S
C2557 C2562 1.363 . S
C2558 H2535 0.950 . S
C2558 C2557 1.397 . S
C2558 C2559 1.334 . S
C2559 H2536 0.950 . S
C2559 C2558 1.334 . S
C2559 C2560 1.287 . S
C2560 C2559 1.287 . S
C2560 C2561 1.524 . S
C2560 H2579 0.913 . S
C2561 H2537 0.950 . S
C2561 C2560 1.524 . S
C2561 C2562 1.415 . S
C2562 H2538 0.950 . S
C2562 C2557 1.363 . S
C2562 C2561 1.415 . S
C2563 H2539 0.951 . S
C2563 C2564 1.366 . S
C2563 C2565 1.388 . S
C2564 C2563 1.366 . S
C2564 C2568 1.385 1_554 S
C2565 H2540 0.951 . S
C2565 C2563 1.388 . S
C2565 C2566 1.366 . S
C2566 C2565 1.366 . S
C2566 C2567 1.414 1_554 S
C2566 C2569 1.499 . S
C2567 H2541 0.950 . S
C2567 C2566 1.414 1_556 S
C2567 C2568 1.374 . S
C2568 H2542 0.950 . S
C2568 C2564 1.385 1_556 S
C2568 C2567 1.374 . S
C2569 C2566 1.499 . S
C2569 C2570 1.373 1_554 S
C2569 C2571 1.389 . S
C2570 H2543 0.950 . S
C2570 C2556 1.377 . S
C2570 C2569 1.373 1_556 S
C2571 C2555 1.377 . S
C2571 C2569 1.389 . S
C2571 C2572 1.524 . S
C2572 C2571 1.524 . S
C2572 C2573 1.397 . S
C2572 C2577 1.363 . S
C2573 H2544 0.950 . S
C2573 C2572 1.397 . S
C2573 C2574 1.334 . S
C2574 H2545 0.950 . S
C2574 C2573 1.334 . S
C2574 C2575 1.287 . S
C2575 C2574 1.287 . S
C2575 C2576 1.524 . S
C2575 H2578 0.999 . S
C2576 H2546 0.950 . S
C2576 C2575 1.524 . S
C2576 C2577 1.415 . S
C2577 H2547 0.950 . S
C2577 C2572 1.363 . S
C2577 C2576 1.415 . S
H2578 C2575 0.999 . S
H2579 C2560 0.913 . S
H2580 C2598 0.951 . S
H2581 C2600 0.951 . S
H2582 C2602 0.950 . S
H2583 C2603 0.950 . S
H2584 C2605 0.950 . S
H2585 C2608 0.950 . S
H2586 C2609 0.950 . S
H2587 C2611 0.950 . S
H2588 C2612 0.950 . S
H2589 C2613 0.951 . S
H2590 C2615 0.951 . S
H2591 C2617 0.950 . S
H2592 C2618 0.950 . S
H2593 C2620 0.950 . S
H2594 C2623 0.950 . S
H2595 C2624 0.950 . S
H2596 C2626 0.950 . S
H2597 C2627 0.950 . S
C2598 H2580 0.951 . S
C2598 C2599 1.366 . S
C2598 C2600 1.388 . S
C2599 C2598 1.366 . S
C2599 C2603 1.385 . S
C2600 H2581 0.951 . S
C2600 C2598 1.388 . S
C2600 C2601 1.366 . S
C2601 C2600 1.366 . S
C2601 C2602 1.414 . S
C2601 C2604 1.499 . S
C2602 H2582 0.950 . S
C2602 C2601 1.414 . S
C2602 C2603 1.374 . S
C2603 H2583 0.950 . S
C2603 C2599 1.385 . S
C2603 C2602 1.374 . S
C2604 C2601 1.499 . S
C2604 C2605 1.373 . S
C2604 C2606 1.389 . S
C2605 H2584 0.950 . S
C2605 C2604 1.373 . S
C2605 C2621 1.377 . S
C2606 C2604 1.389 . S
C2606 C2607 1.524 . S
C2606 C2620 1.377 . S
C2607 C2606 1.524 . S
C2607 C2608 1.397 . S
C2607 C2612 1.363 . S
C2608 H2585 0.950 . S
C2608 C2607 1.397 . S
C2608 C2609 1.334 . S
C2609 H2586 0.950 . S
C2609 C2608 1.334 . S
C2609 C2610 1.287 . S
C2610 C2609 1.287 . S
C2610 C2611 1.524 . S
C2610 H2629 0.913 . S
C2611 H2587 0.950 . S
C2611 C2610 1.524 . S
C2611 C2612 1.415 . S
C2612 H2588 0.950 . S
C2612 C2607 1.363 . S
C2612 C2611 1.415 . S
C2613 H2589 0.951 . S
C2613 C2614 1.366 . S
C2613 C2615 1.388 . S
C2614 C2613 1.366 . S
C2614 C2618 1.385 . S
C2615 H2590 0.951 . S
C2615 C2613 1.388 . S
C2615 C2616 1.366 . S
C2616 C2615 1.366 . S
C2616 C2617 1.414 . S
C2616 C2619 1.499 . S
C2617 H2591 0.950 . S
C2617 C2616 1.414 . S
C2617 C2618 1.374 . S
C2618 H2592 0.950 . S
C2618 C2614 1.385 . S
C2618 C2617 1.374 . S
C2619 C2616 1.499 . S
C2619 C2620 1.373 . S
C2619 C2621 1.389 . S
C2620 H2593 0.950 . S
C2620 C2606 1.377 . S
C2620 C2619 1.373 . S
C2621 C2605 1.377 . S
C2621 C2619 1.389 . S
C2621 C2622 1.524 . S
C2622 C2621 1.524 . S
C2622 C2623 1.397 . S
C2622 C2627 1.363 . S
C2623 H2594 0.950 . S
C2623 C2622 1.397 . S
C2623 C2624 1.334 . S
C2624 H2595 0.950 . S
C2624 C2623 1.334 . S
C2624 C2625 1.287 . S
C2625 C2624 1.287 . S
C2625 C2626 1.524 . S
C2625 H2628 0.999 . S
C2626 H2596 0.950 . S
C2626 C2625 1.524 . S
C2626 C2627 1.415 . S
C2627 H2597 0.950 . S
C2627 C2622 1.363 . S
C2627 C2626 1.415 . S
H2628 C2625 0.999 . S
H2629 C2610 0.913 . S
H2630 C2648 0.951 . S
H2631 C2650 0.951 . S
H2632 C2652 0.950 . S
H2633 C2653 0.950 . S
H2634 C2655 0.950 . S
H2635 C2658 0.950 . S
H2636 C2659 0.950 . S
H2637 C2661 0.950 . S
H2638 C2662 0.950 . S
H2639 C2663 0.951 . S
H2640 C2665 0.951 . S
H2641 C2667 0.950 . S
H2642 C2668 0.950 . S
H2643 C2670 0.950 . S
H2644 C2673 0.950 . S
H2645 C2674 0.950 1_455 S
H2646 C2676 0.950 . S
H2647 C2677 0.950 . S
C2648 H2630 0.951 . S
C2648 C2649 1.366 . S
C2648 C2650 1.388 . S
C2649 C2648 1.366 . S
C2649 C2653 1.385 . S
C2650 H2631 0.951 . S
C2650 C2648 1.388 . S
C2650 C2651 1.366 . S
C2651 C2650 1.366 . S
C2651 C2652 1.414 . S
C2651 C2654 1.499 . S
C2652 H2632 0.950 . S
C2652 C2651 1.414 . S
C2652 C2653 1.374 . S
C2653 H2633 0.950 . S
C2653 C2649 1.385 . S
C2653 C2652 1.374 . S
C2654 C2651 1.499 . S
C2654 C2655 1.373 . S
C2654 C2656 1.389 . S
C2655 H2634 0.950 . S
C2655 C2654 1.373 . S
C2655 C2671 1.377 . S
C2656 C2654 1.389 . S
C2656 C2657 1.524 . S
C2656 C2670 1.377 . S
C2657 C2656 1.524 . S
C2657 C2658 1.397 . S
C2657 C2662 1.363 . S
C2658 H2635 0.950 . S
C2658 C2657 1.397 . S
C2658 C2659 1.334 . S
C2659 H2636 0.950 . S
C2659 C2658 1.334 . S
C2659 C2660 1.287 . S
C2660 C2659 1.287 . S
C2660 C2661 1.524 . S
C2660 H2679 0.913 . S
C2661 H2637 0.950 . S
C2661 C2660 1.524 . S
C2661 C2662 1.415 . S
C2662 H2638 0.950 . S
C2662 C2657 1.363 . S
C2662 C2661 1.415 . S
C2663 H2639 0.951 . S
C2663 C2664 1.366 . S
C2663 C2665 1.388 1_455 S
C2664 C2663 1.366 . S
C2664 C2668 1.385 . S
C2665 H2640 0.951 . S
C2665 C2663 1.388 1_655 S
C2665 C2666 1.366 . S
C2666 C2665 1.366 . S
C2666 C2667 1.414 . S
C2666 C2669 1.499 . S
C2667 H2641 0.950 . S
C2667 C2666 1.414 . S
C2667 C2668 1.374 1_655 S
C2668 H2642 0.950 . S
C2668 C2664 1.385 . S
C2668 C2667 1.374 1_455 S
C2669 C2666 1.499 . S
C2669 C2670 1.373 . S
C2669 C2671 1.389 . S
C2670 H2643 0.950 . S
C2670 C2656 1.377 . S
C2670 C2669 1.373 . S
C2671 C2655 1.377 . S
C2671 C2669 1.389 . S
C2671 C2672 1.524 . S
C2672 C2671 1.524 . S
C2672 C2673 1.397 . S
C2672 C2677 1.363 . S
C2673 H2644 0.950 . S
C2673 C2672 1.397 . S
C2673 C2674 1.334 . S
C2674 H2645 0.950 1_655 S
C2674 C2673 1.334 . S
C2674 C2675 1.287 . S
C2675 C2674 1.287 . S
C2675 C2676 1.524 . S
C2675 H2678 0.999 . S
C2676 H2646 0.950 . S
C2676 C2675 1.524 . S
C2676 C2677 1.415 . S
C2677 H2647 0.950 . S
C2677 C2672 1.363 . S
C2677 C2676 1.415 . S
H2678 C2675 0.999 . S
H2679 C2660 0.913 . S
H2680 C2698 0.951 . S
H2681 C2700 0.951 . S
H2682 C2702 0.950 . S
H2683 C2703 0.950 . S
H2684 C2705 0.950 . S
H2685 C2708 0.950 . S
H2686 C2709 0.950 . S
H2687 C2711 0.950 . S
H2688 C2712 0.950 . S
H2689 C2713 0.951 . S
H2690 C2715 0.951 . S
H2691 C2717 0.950 . S
H2692 C2718 0.950 . S
H2693 C2720 0.950 . S
H2694 C2723 0.950 . S
H2695 C2724 0.950 . S
H2696 C2726 0.950 . S
H2697 C2727 0.950 . S
C2698 H2680 0.951 . S
C2698 C2699 1.366 . S
C2698 C2700 1.388 . S
C2699 C2698 1.366 . S
C2699 C2703 1.385 . S
C2700 H2681 0.951 . S
C2700 C2698 1.388 . S
C2700 C2701 1.366 . S
C2701 C2700 1.366 . S
C2701 C2702 1.414 . S
C2701 C2704 1.499 . S
C2702 H2682 0.950 . S
C2702 C2701 1.414 . S
C2702 C2703 1.374 . S
C2703 H2683 0.950 . S
C2703 C2699 1.385 . S
C2703 C2702 1.374 . S
C2704 C2701 1.499 . S
C2704 C2705 1.373 . S
C2704 C2706 1.389 . S
C2705 H2684 0.950 . S
C2705 C2704 1.373 . S
C2705 C2721 1.377 . S
C2706 C2704 1.389 . S
C2706 C2707 1.524 . S
C2706 C2720 1.377 . S
C2707 C2706 1.524 . S
C2707 C2708 1.397 . S
C2707 C2712 1.363 . S
C2708 H2685 0.950 . S
C2708 C2707 1.397 . S
C2708 C2709 1.334 . S
C2709 H2686 0.950 . S
C2709 C2708 1.334 . S
C2709 C2710 1.287 . S
C2710 C2709 1.287 . S
C2710 C2711 1.524 . S
C2710 H2729 0.913 . S
C2711 H2687 0.950 . S
C2711 C2710 1.524 . S
C2711 C2712 1.415 . S
C2712 H2688 0.950 . S
C2712 C2707 1.363 . S
C2712 C2711 1.415 . S
C2713 H2689 0.951 . S
C2713 C2714 1.366 . S
C2713 C2715 1.388 . S
C2714 C2713 1.366 . S
C2714 C2718 1.385 . S
C2715 H2690 0.951 . S
C2715 C2713 1.388 . S
C2715 C2716 1.366 . S
C2716 C2715 1.366 . S
C2716 C2717 1.414 . S
C2716 C2719 1.499 . S
C2717 H2691 0.950 . S
C2717 C2716 1.414 . S
C2717 C2718 1.374 . S
C2718 H2692 0.950 . S
C2718 C2714 1.385 . S
C2718 C2717 1.374 . S
C2719 C2716 1.499 . S
C2719 C2720 1.373 . S
C2719 C2721 1.389 . S
C2720 H2693 0.950 . S
C2720 C2706 1.377 . S
C2720 C2719 1.373 . S
C2721 C2705 1.377 . S
C2721 C2719 1.389 . S
C2721 C2722 1.524 . S
C2722 C2721 1.524 . S
C2722 C2723 1.397 . S
C2722 C2727 1.363 . S
C2723 H2694 0.950 . S
C2723 C2722 1.397 . S
C2723 C2724 1.334 . S
C2724 H2695 0.950 . S
C2724 C2723 1.334 . S
C2724 C2725 1.287 . S
C2725 C2724 1.287 . S
C2725 C2726 1.524 . S
C2725 H2728 0.999 . S
C2726 H2696 0.950 . S
C2726 C2725 1.524 . S
C2726 C2727 1.415 . S
C2727 H2697 0.950 . S
C2727 C2722 1.363 . S
C2727 C2726 1.415 . S
H2728 C2725 0.999 . S
H2729 C2710 0.913 . S
H2730 C2748 0.951 . S
H2731 C2750 0.951 . S
H2732 C2752 0.950 . S
H2733 C2753 0.950 . S
H2734 C2755 0.950 . S
H2735 C2758 0.950 . S
H2736 C2759 0.950 . S
H2737 C2761 0.950 . S
H2738 C2762 0.950 . S
H2739 C2763 0.951 . S
H2740 C2765 0.951 . S
H2741 C2767 0.950 . S
H2742 C2768 0.950 . S
H2743 C2770 0.950 . S
H2744 C2773 0.950 . S
H2745 C2774 0.950 . S
H2746 C2776 0.950 . S
H2747 C2777 0.950 . S
C2748 H2730 0.951 . S
C2748 C2749 1.366 . S
C2748 C2750 1.388 . S
C2749 C2748 1.366 . S
C2749 C2753 1.385 . S
C2750 H2731 0.951 . S
C2750 C2748 1.388 . S
C2750 C2751 1.366 . S
C2751 C2750 1.366 . S
C2751 C2752 1.414 . S
C2751 C2754 1.499 . S
C2752 H2732 0.950 . S
C2752 C2751 1.414 . S
C2752 C2753 1.374 . S
C2753 H2733 0.950 . S
C2753 C2749 1.385 . S
C2753 C2752 1.374 . S
C2754 C2751 1.499 . S
C2754 C2755 1.373 . S
C2754 C2756 1.389 . S
C2755 H2734 0.950 . S
C2755 C2754 1.373 . S
C2755 C2771 1.377 . S
C2756 C2754 1.389 . S
C2756 C2757 1.524 . S
C2756 C2770 1.377 . S
C2757 C2756 1.524 . S
C2757 C2758 1.397 . S
C2757 C2762 1.363 . S
C2758 H2735 0.950 . S
C2758 C2757 1.397 . S
C2758 C2759 1.334 . S
C2759 H2736 0.950 . S
C2759 C2758 1.334 . S
C2759 C2760 1.287 . S
C2760 C2759 1.287 . S
C2760 C2761 1.524 . S
C2760 H2779 0.913 . S
C2761 H2737 0.950 . S
C2761 C2760 1.524 . S
C2761 C2762 1.415 . S
C2762 H2738 0.950 . S
C2762 C2757 1.363 . S
C2762 C2761 1.415 . S
C2763 H2739 0.951 . S
C2763 C2764 1.366 . S
C2763 C2765 1.388 . S
C2764 C2763 1.366 . S
C2764 C2768 1.385 . S
C2765 H2740 0.951 . S
C2765 C2763 1.388 . S
C2765 C2766 1.366 . S
C2766 C2765 1.366 . S
C2766 C2767 1.414 . S
C2766 C2769 1.499 . S
C2767 H2741 0.950 . S
C2767 C2766 1.414 . S
C2767 C2768 1.374 . S
C2768 H2742 0.950 . S
C2768 C2764 1.385 . S
C2768 C2767 1.374 . S
C2769 C2766 1.499 . S
C2769 C2770 1.373 . S
C2769 C2771 1.389 . S
C2770 H2743 0.950 . S
C2770 C2756 1.377 . S
C2770 C2769 1.373 . S
C2771 C2755 1.377 . S
C2771 C2769 1.389 . S
C2771 C2772 1.524 . S
C2772 C2771 1.524 . S
C2772 C2773 1.397 . S
C2772 C2777 1.363 . S
C2773 H2744 0.950 . S
C2773 C2772 1.397 . S
C2773 C2774 1.334 . S
C2774 H2745 0.950 . S
C2774 C2773 1.334 . S
C2774 C2775 1.287 . S
C2775 C2774 1.287 . S
C2775 C2776 1.524 . S
C2775 H2778 0.999 . S
C2776 H2746 0.950 . S
C2776 C2775 1.524 . S
C2776 C2777 1.415 . S
C2777 H2747 0.950 . S
C2777 C2772 1.363 . S
C2777 C2776 1.415 . S
H2778 C2775 0.999 . S
H2779 C2760 0.913 . S
H2780 C2798 0.951 . S
H2781 C2800 0.951 . S
H2782 C2802 0.950 . S
H2783 C2803 0.950 . S
H2784 C2805 0.950 . S
H2785 C2808 0.950 . S
H2786 C2809 0.950 . S
H2787 C2811 0.950 . S
H2788 C2812 0.950 . S
H2789 C2813 0.951 . S
H2790 C2815 0.951 . S
H2791 C2817 0.950 . S
H2792 C2818 0.950 . S
H2793 C2820 0.950 . S
H2794 C2823 0.950 . S
H2795 C2824 0.950 . S
H2796 C2826 0.950 . S
H2797 C2827 0.950 . S
C2798 H2780 0.951 . S
C2798 C2799 1.366 . S
C2798 C2800 1.388 . S
C2799 C2798 1.366 . S
C2799 C2803 1.385 . S
C2800 H2781 0.951 . S
C2800 C2798 1.388 . S
C2800 C2801 1.366 . S
C2801 C2800 1.366 . S
C2801 C2802 1.414 . S
C2801 C2804 1.499 . S
C2802 H2782 0.950 . S
C2802 C2801 1.414 . S
C2802 C2803 1.374 . S
C2803 H2783 0.950 . S
C2803 C2799 1.385 . S
C2803 C2802 1.374 . S
C2804 C2801 1.499 . S
C2804 C2805 1.373 . S
C2804 C2806 1.389 . S
C2805 H2784 0.950 . S
C2805 C2804 1.373 . S
C2805 C2821 1.377 . S
C2806 C2804 1.389 . S
C2806 C2807 1.524 . S
C2806 C2820 1.377 . S
C2807 C2806 1.524 . S
C2807 C2808 1.397 . S
C2807 C2812 1.363 . S
C2808 H2785 0.950 . S
C2808 C2807 1.397 . S
C2808 C2809 1.334 . S
C2809 H2786 0.950 . S
C2809 C2808 1.334 . S
C2809 C2810 1.287 . S
C2810 C2809 1.287 . S
C2810 C2811 1.524 . S
C2810 H2829 0.913 . S
C2811 H2787 0.950 . S
C2811 C2810 1.524 . S
C2811 C2812 1.415 . S
C2812 H2788 0.950 . S
C2812 C2807 1.363 . S
C2812 C2811 1.415 . S
C2813 H2789 0.951 . S
C2813 C2814 1.366 . S
C2813 C2815 1.388 . S
C2814 C2813 1.366 . S
C2814 C2818 1.385 . S
C2815 H2790 0.951 . S
C2815 C2813 1.388 . S
C2815 C2816 1.366 . S
C2816 C2815 1.366 . S
C2816 C2817 1.414 . S
C2816 C2819 1.499 . S
C2817 H2791 0.950 . S
C2817 C2816 1.414 . S
C2817 C2818 1.374 . S
C2818 H2792 0.950 . S
C2818 C2814 1.385 . S
C2818 C2817 1.374 . S
C2819 C2816 1.499 . S
C2819 C2820 1.373 . S
C2819 C2821 1.389 . S
C2820 H2793 0.950 . S
C2820 C2806 1.377 . S
C2820 C2819 1.373 . S
C2821 C2805 1.377 . S
C2821 C2819 1.389 . S
C2821 C2822 1.524 . S
C2822 C2821 1.524 . S
C2822 C2823 1.397 . S
C2822 C2827 1.363 . S
C2823 H2794 0.950 . S
C2823 C2822 1.397 . S
C2823 C2824 1.334 . S
C2824 H2795 0.950 . S
C2824 C2823 1.334 . S
C2824 C2825 1.287 . S
C2825 C2824 1.287 . S
C2825 C2826 1.524 . S
C2825 H2828 0.999 . S
C2826 H2796 0.950 . S
C2826 C2825 1.524 . S
C2826 C2827 1.415 . S
C2827 H2797 0.950 . S
C2827 C2822 1.363 . S
C2827 C2826 1.415 . S
H2828 C2825 0.999 . S
H2829 C2810 0.913 . S
H2830 C2848 0.951 . S
H2831 C2850 0.951 . S
H2832 C2852 0.950 . S
H2833 C2853 0.950 . S
H2834 C2855 0.950 . S
H2835 C2858 0.950 . S
H2836 C2859 0.950 . S
H2837 C2861 0.950 . S
H2838 C2862 0.950 . S
H2839 C2863 0.951 . S
H2840 C2865 0.951 . S
H2841 C2867 0.950 . S
H2842 C2868 0.950 . S
H2843 C2870 0.950 . S
H2844 C2873 0.950 . S
H2845 C2874 0.950 . S
H2846 C2876 0.950 . S
H2847 C2877 0.950 . S
C2848 H2830 0.951 . S
C2848 C2849 1.366 . S
C2848 C2850 1.388 . S
C2849 C2848 1.366 . S
C2849 C2853 1.385 . S
C2850 H2831 0.951 . S
C2850 C2848 1.388 . S
C2850 C2851 1.366 . S
C2851 C2850 1.366 . S
C2851 C2852 1.414 . S
C2851 C2854 1.499 . S
C2852 H2832 0.950 . S
C2852 C2851 1.414 . S
C2852 C2853 1.374 . S
C2853 H2833 0.950 . S
C2853 C2849 1.385 . S
C2853 C2852 1.374 . S
C2854 C2851 1.499 . S
C2854 C2855 1.373 . S
C2854 C2856 1.389 . S
C2855 H2834 0.950 . S
C2855 C2854 1.373 . S
C2855 C2871 1.377 . S
C2856 C2854 1.389 . S
C2856 C2857 1.524 . S
C2856 C2870 1.377 . S
C2857 C2856 1.524 . S
C2857 C2858 1.397 . S
C2857 C2862 1.363 . S
C2858 H2835 0.950 . S
C2858 C2857 1.397 . S
C2858 C2859 1.334 . S
C2859 H2836 0.950 . S
C2859 C2858 1.334 . S
C2859 C2860 1.287 . S
C2860 C2859 1.287 . S
C2860 C2861 1.524 . S
C2860 H2879 0.913 . S
C2861 H2837 0.950 . S
C2861 C2860 1.524 . S
C2861 C2862 1.415 . S
C2862 H2838 0.950 . S
C2862 C2857 1.363 . S
C2862 C2861 1.415 . S
C2863 H2839 0.951 . S
C2863 C2864 1.366 . S
C2863 C2865 1.388 . S
C2864 C2863 1.366 . S
C2864 C2868 1.385 . S
C2865 H2840 0.951 . S
C2865 C2863 1.388 . S
C2865 C2866 1.366 . S
C2866 C2865 1.366 . S
C2866 C2867 1.414 . S
C2866 C2869 1.499 . S
C2867 H2841 0.950 . S
C2867 C2866 1.414 . S
C2867 C2868 1.374 . S
C2868 H2842 0.950 . S
C2868 C2864 1.385 . S
C2868 C2867 1.374 . S
C2869 C2866 1.499 . S
C2869 C2870 1.373 . S
C2869 C2871 1.389 . S
C2870 H2843 0.950 . S
C2870 C2856 1.377 . S
C2870 C2869 1.373 . S
C2871 C2855 1.377 . S
C2871 C2869 1.389 . S
C2871 C2872 1.524 . S
C2872 C2871 1.524 . S
C2872 C2873 1.397 . S
C2872 C2877 1.363 . S
C2873 H2844 0.950 . S
C2873 C2872 1.397 . S
C2873 C2874 1.334 . S
C2874 H2845 0.950 . S
C2874 C2873 1.334 . S
C2874 C2875 1.287 . S
C2875 C2874 1.287 . S
C2875 C2876 1.524 . S
C2875 H2878 0.999 . S
C2876 H2846 0.950 . S
C2876 C2875 1.524 . S
C2876 C2877 1.415 . S
C2877 H2847 0.950 . S
C2877 C2872 1.363 . S
C2877 C2876 1.415 . S
H2878 C2875 0.999 . S
H2879 C2860 0.913 . S
H2880 C2898 0.951 . S
H2881 C2900 0.951 . S
H2882 C2902 0.950 . S
H2883 C2903 0.950 . S
H2884 C2905 0.950 . S
H2885 C2908 0.950 . S
H2886 C2909 0.950 . S
H2887 C2911 0.950 . S
H2888 C2912 0.950 . S
H2889 C2913 0.951 . S
H2890 C2915 0.951 . S
H2891 C2917 0.950 . S
H2892 C2918 0.950 . S
H2893 C2920 0.950 . S
H2894 C2923 0.950 . S
H2895 C2924 0.950 . S
H2896 C2926 0.914 1_655 S
H2897 C2927 0.950 . S
C2898 H2880 0.951 . S
C2898 C2899 1.366 . S
C2898 C2900 1.388 . S
C2899 C2898 1.366 . S
C2899 C2903 1.385 . S
C2900 H2881 0.951 . S
C2900 C2898 1.388 . S
C2900 C2901 1.366 . S
C2901 C2900 1.366 . S
C2901 C2902 1.414 . S
C2901 C2904 1.499 . S
C2902 H2882 0.950 . S
C2902 C2901 1.414 . S
C2902 C2903 1.374 . S
C2903 H2883 0.950 . S
C2903 C2899 1.385 . S
C2903 C2902 1.374 . S
C2904 C2901 1.499 . S
C2904 C2905 1.373 . S
C2904 C2906 1.389 . S
C2905 H2884 0.950 . S
C2905 C2904 1.373 . S
C2905 C2921 1.377 . S
C2906 C2904 1.389 . S
C2906 C2907 1.524 . S
C2906 C2920 1.377 . S
C2907 C2906 1.524 . S
C2907 C2908 1.397 . S
C2907 C2912 1.363 . S
C2908 H2885 0.950 . S
C2908 C2907 1.397 . S
C2908 C2909 1.334 . S
C2909 H2886 0.950 . S
C2909 C2908 1.334 . S
C2909 C2910 1.287 . S
C2910 C2909 1.287 . S
C2910 C2911 1.524 . S
C2910 H2929 0.913 . S
C2911 H2887 0.950 . S
C2911 C2910 1.524 . S
C2911 C2912 1.415 . S
C2912 H2888 0.950 . S
C2912 C2907 1.363 . S
C2912 C2911 1.415 . S
C2913 H2889 0.951 . S
C2913 C2914 1.366 . S
C2913 C2915 1.388 . S
C2914 C2913 1.366 . S
C2914 C2918 1.385 . S
C2915 H2890 0.951 . S
C2915 C2913 1.388 . S
C2915 C2916 1.366 . S
C2916 C2915 1.366 . S
C2916 C2917 1.414 . S
C2916 C2919 1.499 . S
C2917 H2891 0.950 . S
C2917 C2916 1.414 . S
C2917 C2918 1.374 . S
C2918 H2892 0.950 . S
C2918 C2914 1.385 . S
C2918 C2917 1.374 . S
C2919 C2916 1.499 . S
C2919 C2920 1.373 . S
C2919 C2921 1.389 . S
C2920 H2893 0.950 . S
C2920 C2906 1.377 . S
C2920 C2919 1.373 . S
C2921 C2905 1.377 . S
C2921 C2919 1.389 . S
C2921 C2922 1.524 . S
C2922 C2921 1.524 . S
C2922 C2923 1.397 . S
C2922 C2927 1.363 . S
C2923 H2894 0.950 . S
C2923 C2922 1.397 . S
C2923 C2924 1.334 . S
C2924 H2895 0.950 . S
C2924 C2923 1.334 . S
C2924 C2925 1.287 . S
C2925 C2924 1.287 . S
C2925 C2926 1.524 . S
C2925 H2928 0.999 1_455 S
C2926 H2896 0.914 1_455 S
C2926 C2925 1.524 . S
C2926 C2927 1.415 . S
C2927 H2897 0.950 . S
C2927 C2922 1.363 . S
C2927 C2926 1.415 . S
H2928 C2925 0.999 1_655 S
H2929 C2910 0.913 . S
H2930 C2948 0.951 . S
H2931 C2950 0.951 . S
H2932 C2952 0.950 . S
H2933 C2953 0.950 . S
H2934 C2955 0.950 . S
H2935 C2958 0.950 . S
H2936 C2959 0.950 . S
H2937 C2961 0.950 . S
H2938 C2962 0.950 . S
H2939 C2963 0.951 . S
H2940 C2965 0.951 . S
H2941 C2967 0.950 . S
H2942 C2968 0.950 . S
H2943 C2970 0.950 . S
H2944 C2973 0.950 . S
H2945 C2974 0.950 . S
H2946 C2976 0.950 . S
H2947 C2977 0.950 . S
C2948 H2930 0.951 . S
C2948 C2949 1.366 . S
C2948 C2950 1.388 . S
C2949 C2948 1.366 . S
C2949 C2953 1.385 . S
C2950 H2931 0.951 . S
C2950 C2948 1.388 . S
C2950 C2951 1.366 . S
C2951 C2950 1.366 . S
C2951 C2952 1.414 . S
C2951 C2954 1.499 . S
C2952 H2932 0.950 . S
C2952 C2951 1.414 . S
C2952 C2953 1.374 . S
C2953 H2933 0.950 . S
C2953 C2949 1.385 . S
C2953 C2952 1.374 . S
C2954 C2951 1.499 . S
C2954 C2955 1.373 . S
C2954 C2956 1.389 . S
C2955 H2934 0.950 . S
C2955 C2954 1.373 . S
C2955 C2971 1.377 . S
C2956 C2954 1.389 . S
C2956 C2957 1.524 . S
C2956 C2970 1.377 . S
C2957 C2956 1.524 . S
C2957 C2958 1.397 . S
C2957 C2962 1.363 . S
C2958 H2935 0.950 . S
C2958 C2957 1.397 . S
C2958 C2959 1.334 . S
C2959 H2936 0.950 . S
C2959 C2958 1.334 . S
C2959 C2960 1.287 . S
C2960 C2959 1.287 . S
C2960 C2961 1.524 . S
C2960 H2979 0.913 . S
C2961 H2937 0.950 . S
C2961 C2960 1.524 . S
C2961 C2962 1.415 . S
C2962 H2938 0.950 . S
C2962 C2957 1.363 . S
C2962 C2961 1.415 . S
C2963 H2939 0.951 . S
C2963 C2964 1.366 . S
C2963 C2965 1.388 . S
C2964 C2963 1.366 . S
C2964 C2968 1.385 . S
C2965 H2940 0.951 . S
C2965 C2963 1.388 . S
C2965 C2966 1.366 . S
C2966 C2965 1.366 . S
C2966 C2967 1.414 . S
C2966 C2969 1.499 . S
C2967 H2941 0.950 . S
C2967 C2966 1.414 . S
C2967 C2968 1.374 . S
C2968 H2942 0.950 . S
C2968 C2964 1.385 . S
C2968 C2967 1.374 . S
C2969 C2966 1.499 . S
C2969 C2970 1.373 . S
C2969 C2971 1.389 . S
C2970 H2943 0.950 . S
C2970 C2956 1.377 . S
C2970 C2969 1.373 . S
C2971 C2955 1.377 . S
C2971 C2969 1.389 . S
C2971 C2972 1.524 . S
C2972 C2971 1.524 . S
C2972 C2973 1.397 . S
C2972 C2977 1.363 . S
C2973 H2944 0.950 . S
C2973 C2972 1.397 . S
C2973 C2974 1.334 . S
C2974 H2945 0.950 . S
C2974 C2973 1.334 . S
C2974 C2975 1.287 . S
C2975 C2974 1.287 . S
C2975 C2976 1.524 . S
C2975 H2978 0.999 . S
C2976 H2946 0.950 . S
C2976 C2975 1.524 . S
C2976 C2977 1.415 . S
C2977 H2947 0.950 . S
C2977 C2972 1.363 . S
C2977 C2976 1.415 . S
H2978 C2975 0.999 . S
H2979 C2960 0.913 . S
H2980 C2998 0.951 . S
H2981 C3000 0.951 . S
H2982 C3002 0.950 . S
H2983 C3003 0.950 . S
H2984 C3005 0.950 . S
H2985 C3008 0.950 . S
H2986 C3009 0.950 . S
H2987 C3011 0.950 . S
H2988 C3012 0.950 . S
H2989 C3013 0.951 . S
H2990 C3015 0.951 . S
H2991 C3017 0.950 . S
H2992 C3018 0.950 . S
H2993 C3020 0.950 . S
H2994 C3023 0.950 . S
H2995 C3024 0.950 . S
H2996 C3026 0.950 . S
H2997 C3027 0.950 . S
C2998 H2980 0.951 . S
C2998 C2999 1.366 . S
C2998 C3000 1.388 . S
C2999 C2998 1.366 . S
C2999 C3003 1.385 . S
C3000 H2981 0.951 . S
C3000 C2998 1.388 . S
C3000 C3001 1.366 . S
C3001 C3000 1.366 . S
C3001 C3002 1.414 . S
C3001 C3004 1.499 . S
C3002 H2982 0.950 . S
C3002 C3001 1.414 . S
C3002 C3003 1.374 . S
C3003 H2983 0.950 . S
C3003 C2999 1.385 . S
C3003 C3002 1.374 . S
C3004 C3001 1.499 . S
C3004 C3005 1.373 . S
C3004 C3006 1.389 . S
C3005 H2984 0.950 . S
C3005 C3004 1.373 . S
C3005 C3021 1.377 . S
C3006 C3004 1.389 . S
C3006 C3007 1.524 . S
C3006 C3020 1.377 . S
C3007 C3006 1.524 . S
C3007 C3008 1.397 . S
C3007 C3012 1.363 . S
C3008 H2985 0.950 . S
C3008 C3007 1.397 . S
C3008 C3009 1.334 . S
C3009 H2986 0.950 . S
C3009 C3008 1.334 . S
C3009 C3010 1.287 . S
C3010 C3009 1.287 . S
C3010 C3011 1.524 . S
C3010 H3029 0.913 . S
C3011 H2987 0.950 . S
C3011 C3010 1.524 . S
C3011 C3012 1.415 . S
C3012 H2988 0.950 . S
C3012 C3007 1.363 . S
C3012 C3011 1.415 . S
C3013 H2989 0.951 . S
C3013 C3014 1.366 . S
C3013 C3015 1.388 . S
C3014 C3013 1.366 . S
C3014 C3018 1.385 . S
C3015 H2990 0.951 . S
C3015 C3013 1.388 . S
C3015 C3016 1.366 . S
C3016 C3015 1.366 . S
C3016 C3017 1.414 . S
C3016 C3019 1.499 . S
C3017 H2991 0.950 . S
C3017 C3016 1.414 . S
C3017 C3018 1.374 . S
C3018 H2992 0.950 . S
C3018 C3014 1.385 . S
C3018 C3017 1.374 . S
C3019 C3016 1.499 . S
C3019 C3020 1.373 . S
C3019 C3021 1.389 . S
C3020 H2993 0.950 . S
C3020 C3006 1.377 . S
C3020 C3019 1.373 . S
C3021 C3005 1.377 . S
C3021 C3019 1.389 . S
C3021 C3022 1.524 . S
C3022 C3021 1.524 . S
C3022 C3023 1.397 . S
C3022 C3027 1.363 . S
C3023 H2994 0.950 . S
C3023 C3022 1.397 . S
C3023 C3024 1.334 . S
C3024 H2995 0.950 . S
C3024 C3023 1.334 . S
C3024 C3025 1.287 . S
C3025 C3024 1.287 . S
C3025 C3026 1.524 . S
C3025 H3028 0.999 . S
C3026 H2996 0.950 . S
C3026 C3025 1.524 . S
C3026 C3027 1.415 . S
C3027 H2997 0.950 . S
C3027 C3022 1.363 . S
C3027 C3026 1.415 . S
H3028 C3025 0.999 . S
H3029 C3010 0.913 . S
H3030 C3048 0.951 . S
H3031 C3050 0.951 . S
H3032 C3052 0.950 . S
H3033 C3053 0.950 . S
H3034 C3055 0.950 . S
H3035 C3058 0.950 . S
H3036 C3059 0.950 . S
H3037 C3061 0.950 . S
H3038 C3062 0.950 . S
H3039 C3063 0.951 . S
H3040 C3065 0.951 . S
H3041 C3067 0.950 . S
H3042 C3068 0.950 . S
H3043 C3070 0.950 . S
H3044 C3073 0.950 . S
H3045 C3074 0.950 . S
H3046 C3076 0.950 . S
H3047 C3077 0.950 . S
C3048 H3030 0.951 . S
C3048 C3049 1.366 . S
C3048 C3050 1.388 . S
C3049 C3048 1.366 . S
C3049 C3053 1.385 . S
C3050 H3031 0.951 . S
C3050 C3048 1.388 . S
C3050 C3051 1.366 . S
C3051 C3050 1.366 . S
C3051 C3052 1.414 . S
C3051 C3054 1.499 . S
C3052 H3032 0.950 . S
C3052 C3051 1.414 . S
C3052 C3053 1.374 . S
C3053 H3033 0.950 . S
C3053 C3049 1.385 . S
C3053 C3052 1.374 . S
C3054 C3051 1.499 . S
C3054 C3055 1.373 . S
C3054 C3056 1.389 . S
C3055 H3034 0.950 . S
C3055 C3054 1.373 . S
C3055 C3071 1.377 . S
C3056 C3054 1.389 . S
C3056 C3057 1.524 . S
C3056 C3070 1.377 . S
C3057 C3056 1.524 . S
C3057 C3058 1.397 . S
C3057 C3062 1.363 . S
C3058 H3035 0.950 . S
C3058 C3057 1.397 . S
C3058 C3059 1.334 . S
C3059 H3036 0.950 . S
C3059 C3058 1.334 . S
C3059 C3060 1.287 . S
C3060 C3059 1.287 . S
C3060 C3061 1.524 . S
C3060 H3079 0.913 . S
C3061 H3037 0.950 . S
C3061 C3060 1.524 . S
C3061 C3062 1.415 . S
C3062 H3038 0.950 . S
C3062 C3057 1.363 . S
C3062 C3061 1.415 . S
C3063 H3039 0.951 . S
C3063 C3064 1.366 . S
C3063 C3065 1.388 . S
C3064 C3063 1.366 . S
C3064 C3068 1.385 . S
C3065 H3040 0.951 . S
C3065 C3063 1.388 . S
C3065 C3066 1.366 . S
C3066 C3065 1.366 . S
C3066 C3067 1.414 . S
C3066 C3069 1.499 . S
C3067 H3041 0.950 . S
C3067 C3066 1.414 . S
C3067 C3068 1.374 . S
C3068 H3042 0.950 . S
C3068 C3064 1.385 . S
C3068 C3067 1.374 . S
C3069 C3066 1.499 . S
C3069 C3070 1.373 . S
C3069 C3071 1.389 . S
C3070 H3043 0.950 . S
C3070 C3056 1.377 . S
C3070 C3069 1.373 . S
C3071 C3055 1.377 . S
C3071 C3069 1.389 . S
C3071 C3072 1.524 . S
C3072 C3071 1.524 . S
C3072 C3073 1.397 . S
C3072 C3077 1.363 . S
C3073 H3044 0.950 . S
C3073 C3072 1.397 . S
C3073 C3074 1.334 . S
C3074 H3045 0.950 . S
C3074 C3073 1.334 . S
C3074 C3075 1.287 . S
C3075 C3074 1.287 . S
C3075 C3076 1.524 . S
C3075 H3078 0.999 . S
C3076 H3046 0.950 . S
C3076 C3075 1.524 . S
C3076 C3077 1.415 . S
C3077 H3047 0.950 . S
C3077 C3072 1.363 . S
C3077 C3076 1.415 . S
H3078 C3075 0.999 . S
H3079 C3060 0.913 . S
H3080 C3098 0.951 . S
H3081 C3100 0.951 . S
H3082 C3102 0.950 . S
H3083 C3103 0.950 . S
H3084 C3105 0.950 . S
H3085 C3108 0.950 . S
H3086 C3109 0.950 . S
H3087 C3111 0.950 . S
H3088 C3112 0.950 . S
H3089 C3113 0.951 . S
H3090 C3115 0.951 . S
H3091 C3117 0.950 . S
H3092 C3118 0.950 . S
H3093 C3120 0.950 . S
H3094 C3123 0.950 . S
H3095 C3124 0.950 . S
H3096 C3126 0.950 . S
H3097 C3127 0.950 . S
C3098 H3080 0.951 . S
C3098 C3099 1.366 . S
C3098 C3100 1.388 . S
C3099 C3098 1.366 . S
C3099 C3103 1.385 . S
C3100 H3081 0.951 . S
C3100 C3098 1.388 . S
C3100 C3101 1.366 . S
C3101 C3100 1.366 . S
C3101 C3102 1.414 . S
C3101 C3104 1.499 . S
C3102 H3082 0.950 . S
C3102 C3101 1.414 . S
C3102 C3103 1.374 . S
C3103 H3083 0.950 . S
C3103 C3099 1.385 . S
C3103 C3102 1.374 . S
C3104 C3101 1.499 . S
C3104 C3105 1.373 . S
C3104 C3106 1.389 . S
C3105 H3084 0.950 . S
C3105 C3104 1.373 . S
C3105 C3121 1.377 . S
C3106 C3104 1.389 . S
C3106 C3107 1.524 . S
C3106 C3120 1.377 . S
C3107 C3106 1.524 . S
C3107 C3108 1.397 . S
C3107 C3112 1.363 . S
C3108 H3085 0.950 . S
C3108 C3107 1.397 . S
C3108 C3109 1.334 . S
C3109 H3086 0.950 . S
C3109 C3108 1.334 . S
C3109 C3110 1.287 . S
C3110 C3109 1.287 . S
C3110 C3111 1.524 . S
C3110 H3129 0.913 . S
C3111 H3087 0.950 . S
C3111 C3110 1.524 . S
C3111 C3112 1.415 . S
C3112 H3088 0.950 . S
C3112 C3107 1.363 . S
C3112 C3111 1.415 . S
C3113 H3089 0.951 . S
C3113 C3114 1.366 . S
C3113 C3115 1.388 . S
C3114 C3113 1.366 . S
C3114 C3118 1.385 . S
C3115 H3090 0.951 . S
C3115 C3113 1.388 . S
C3115 C3116 1.366 . S
C3116 C3115 1.366 . S
C3116 C3117 1.414 . S
C3116 C3119 1.499 . S
C3117 H3091 0.950 . S
C3117 C3116 1.414 . S
C3117 C3118 1.374 . S
C3118 H3092 0.950 . S
C3118 C3114 1.385 . S
C3118 C3117 1.374 . S
C3119 C3116 1.499 . S
C3119 C3120 1.373 . S
C3119 C3121 1.389 . S
C3120 H3093 0.950 . S
C3120 C3106 1.377 . S
C3120 C3119 1.373 . S
C3121 C3105 1.377 . S
C3121 C3119 1.389 . S
C3121 C3122 1.524 . S
C3122 C3121 1.524 . S
C3122 C3123 1.397 . S
C3122 C3127 1.363 . S
C3123 H3094 0.950 . S
C3123 C3122 1.397 . S
C3123 C3124 1.334 . S
C3124 H3095 0.950 . S
C3124 C3123 1.334 . S
C3124 C3125 1.287 . S
C3125 C3124 1.287 . S
C3125 C3126 1.524 . S
C3125 H3128 1.005 1_455 S
C3126 H3096 0.950 . S
C3126 C3125 1.524 . S
C3126 C3127 1.415 . S
C3127 H3097 0.950 . S
C3127 C3122 1.363 . S
C3127 C3126 1.415 . S
H3128 C3125 1.005 1_655 S
H3129 C3110 0.913 . S
H3130 C3148 0.951 . S
H3131 C3150 0.951 . S
H3132 C3152 0.950 . S
H3133 C3153 0.950 . S
H3134 C3155 0.950 . S
H3135 C3158 0.950 . S
H3136 C3159 0.950 . S
H3137 C3161 0.950 . S
H3138 C3162 0.950 . S
H3139 C3163 0.951 . S
H3140 C3165 0.951 . S
H3141 C3167 0.950 . S
H3142 C3168 0.950 . S
H3143 C3170 0.950 . S
H3144 C3173 0.950 . S
H3145 C3174 0.950 . S
H3146 C3176 0.950 . S
H3147 C3177 0.950 . S
C3148 H3130 0.951 . S
C3148 C3149 1.366 . S
C3148 C3150 1.388 . S
C3149 C3148 1.366 . S
C3149 C3153 1.385 . S
C3150 H3131 0.951 . S
C3150 C3148 1.388 . S
C3150 C3151 1.366 . S
C3151 C3150 1.366 . S
C3151 C3152 1.414 . S
C3151 C3154 1.499 . S
C3152 H3132 0.950 . S
C3152 C3151 1.414 . S
C3152 C3153 1.374 . S
C3153 H3133 0.950 . S
C3153 C3149 1.385 . S
C3153 C3152 1.374 . S
C3154 C3151 1.499 . S
C3154 C3155 1.373 . S
C3154 C3156 1.389 . S
C3155 H3134 0.950 . S
C3155 C3154 1.373 . S
C3155 C3171 1.377 . S
C3156 C3154 1.389 . S
C3156 C3157 1.524 . S
C3156 C3170 1.377 . S
C3157 C3156 1.524 . S
C3157 C3158 1.397 . S
C3157 C3162 1.363 . S
C3158 H3135 0.950 . S
C3158 C3157 1.397 . S
C3158 C3159 1.334 . S
C3159 H3136 0.950 . S
C3159 C3158 1.334 . S
C3159 C3160 1.287 . S
C3160 C3159 1.287 . S
C3160 C3161 1.524 . S
C3160 H3179 0.913 . S
C3161 H3137 0.950 . S
C3161 C3160 1.524 . S
C3161 C3162 1.415 . S
C3162 H3138 0.950 . S
C3162 C3157 1.363 . S
C3162 C3161 1.415 . S
C3163 H3139 0.951 . S
C3163 C3164 1.366 . S
C3163 C3165 1.388 . S
C3164 C3163 1.366 . S
C3164 C3168 1.385 . S
C3165 H3140 0.951 . S
C3165 C3163 1.388 . S
C3165 C3166 1.366 . S
C3166 C3165 1.366 . S
C3166 C3167 1.414 . S
C3166 C3169 1.499 . S
C3167 H3141 0.950 . S
C3167 C3166 1.414 . S
C3167 C3168 1.374 . S
C3168 H3142 0.950 . S
C3168 C3164 1.385 . S
C3168 C3167 1.374 . S
C3169 C3166 1.499 . S
C3169 C3170 1.373 . S
C3169 C3171 1.389 . S
C3170 H3143 0.950 . S
C3170 C3156 1.377 . S
C3170 C3169 1.373 . S
C3171 C3155 1.377 . S
C3171 C3169 1.389 . S
C3171 C3172 1.524 . S
C3172 C3171 1.524 . S
C3172 C3173 1.397 . S
C3172 C3177 1.363 . S
C3173 H3144 0.950 . S
C3173 C3172 1.397 . S
C3173 C3174 1.334 . S
C3174 H3145 0.950 . S
C3174 C3173 1.334 . S
C3174 C3175 1.287 . S
C3175 C3174 1.287 . S
C3175 C3176 1.524 . S
C3175 H3178 0.999 . S
C3176 H3146 0.950 . S
C3176 C3175 1.524 . S
C3176 C3177 1.415 . S
C3177 H3147 0.950 . S
C3177 C3172 1.363 . S
C3177 C3176 1.415 . S
H3178 C3175 0.999 . S
H3179 C3160 0.913 . S
H3180 C3198 0.951 . S
H3181 C3200 0.951 . S
H3182 C3202 0.950 . S
H3183 C3203 0.950 . S
H3184 C3205 0.950 . S
H3185 C3208 0.950 . S
H3186 C3209 0.950 . S
H3187 C3211 0.950 . S
H3188 C3212 0.950 . S
H3189 C3213 0.951 . S
H3190 C3215 0.951 . S
H3191 C3217 0.950 . S
H3192 C3218 0.950 . S
H3193 C3220 0.950 . S
H3194 C3223 0.950 . S
H3195 C3224 0.950 . S
H3196 C3226 0.950 . S
H3197 C3227 0.950 . S
C3198 H3180 0.951 . S
C3198 C3199 1.366 . S
C3198 C3200 1.388 . S
C3199 C3198 1.366 . S
C3199 C3203 1.385 . S
C3200 H3181 0.951 . S
C3200 C3198 1.388 . S
C3200 C3201 1.366 . S
C3201 C3200 1.366 . S
C3201 C3202 1.414 . S
C3201 C3204 1.499 . S
C3202 H3182 0.950 . S
C3202 C3201 1.414 . S
C3202 C3203 1.374 . S
C3203 H3183 0.950 . S
C3203 C3199 1.385 . S
C3203 C3202 1.374 . S
C3204 C3201 1.499 . S
C3204 C3205 1.373 . S
C3204 C3206 1.389 . S
C3205 H3184 0.950 . S
C3205 C3204 1.373 . S
C3205 C3221 1.377 . S
C3206 C3204 1.389 . S
C3206 C3207 1.524 . S
C3206 C3220 1.377 . S
C3207 C3206 1.524 . S
C3207 C3208 1.397 . S
C3207 C3212 1.363 . S
C3208 H3185 0.950 . S
C3208 C3207 1.397 . S
C3208 C3209 1.334 . S
C3209 H3186 0.950 . S
C3209 C3208 1.334 . S
C3209 C3210 1.287 . S
C3210 C3209 1.287 . S
C3210 C3211 1.524 . S
C3210 H3229 0.913 . S
C3211 H3187 0.950 . S
C3211 C3210 1.524 . S
C3211 C3212 1.415 . S
C3212 H3188 0.950 . S
C3212 C3207 1.363 . S
C3212 C3211 1.415 . S
C3213 H3189 0.951 . S
C3213 C3214 1.380 . S
C3213 C3215 1.388 1_554 S
C3214 C3213 1.380 . S
C3214 C3218 1.382 1_564 S
C3215 H3190 0.951 . S
C3215 C3213 1.388 1_556 S
C3215 C3216 1.366 . S
C3216 C3215 1.366 . S
C3216 C3217 1.414 . S
C3216 C3219 1.499 . S
C3217 H3191 0.950 . S
C3217 C3216 1.414 . S
C3217 C3218 1.374 1_565 S
C3218 H3192 0.950 . S
C3218 C3214 1.382 1_546 S
C3218 C3217 1.374 1_545 S
C3219 C3216 1.499 . S
C3219 C3220 1.373 . S
C3219 C3221 1.389 . S
C3220 H3193 0.950 . S
C3220 C3206 1.377 . S
C3220 C3219 1.373 . S
C3221 C3205 1.377 . S
C3221 C3219 1.389 . S
C3221 C3222 1.524 . S
C3222 C3221 1.524 . S
C3222 C3223 1.397 . S
C3222 C3227 1.363 . S
C3223 H3194 0.950 . S
C3223 C3222 1.397 . S
C3223 C3224 1.334 . S
C3224 H3195 0.950 . S
C3224 C3223 1.334 . S
C3224 C3225 1.287 . S
C3225 C3224 1.287 . S
C3225 C3226 1.524 . S
C3225 H3228 0.999 . S
C3226 H3196 0.950 . S
C3226 C3225 1.524 . S
C3226 C3227 1.415 . S
C3227 H3197 0.950 . S
C3227 C3222 1.363 . S
C3227 C3226 1.415 . S
H3228 C3225 0.999 . S
H3229 C3210 0.913 . S
H3230 C3248 0.951 . S
H3231 C3250 0.951 . S
H3232 C3252 0.950 . S
H3233 C3253 0.950 . S
H3234 C3255 0.950 . S
H3235 C3258 0.950 . S
H3236 C3259 0.950 . S
H3237 C3261 0.950 . S
H3238 C3262 0.950 . S
H3239 C3263 0.951 . S
H3240 C3265 0.951 . S
H3241 C3267 0.950 . S
H3242 C3268 0.950 . S
H3243 C3270 0.950 . S
H3244 C3273 0.950 . S
H3245 C3274 0.950 . S
H3246 C3276 0.950 . S
H3247 C3277 0.950 . S
C3248 H3230 0.951 . S
C3248 C3249 1.366 . S
C3248 C3250 1.388 . S
C3249 C3248 1.366 . S
C3249 C3253 1.385 . S
C3250 H3231 0.951 . S
C3250 C3248 1.388 . S
C3250 C3251 1.366 . S
C3251 C3250 1.366 . S
C3251 C3252 1.414 . S
C3251 C3254 1.499 . S
C3252 H3232 0.950 . S
C3252 C3251 1.414 . S
C3252 C3253 1.374 . S
C3253 H3233 0.950 . S
C3253 C3249 1.385 . S
C3253 C3252 1.374 . S
C3254 C3251 1.499 . S
C3254 C3255 1.373 . S
C3254 C3256 1.389 . S
C3255 H3234 0.950 . S
C3255 C3254 1.373 . S
C3255 C3271 1.377 . S
C3256 C3254 1.389 . S
C3256 C3257 1.524 . S
C3256 C3270 1.377 . S
C3257 C3256 1.524 . S
C3257 C3258 1.397 . S
C3257 C3262 1.363 . S
C3258 H3235 0.950 . S
C3258 C3257 1.397 . S
C3258 C3259 1.334 . S
C3259 H3236 0.950 . S
C3259 C3258 1.334 . S
C3259 C3260 1.287 . S
C3260 C3259 1.287 . S
C3260 C3261 1.524 . S
C3260 H3279 0.913 . S
C3261 H3237 0.950 . S
C3261 C3260 1.524 . S
C3261 C3262 1.415 . S
C3262 H3238 0.950 . S
C3262 C3257 1.363 . S
C3262 C3261 1.415 . S
C3263 H3239 0.951 . S
C3263 C3264 1.366 . S
C3263 C3265 1.388 . S
C3264 C3263 1.366 . S
C3264 C3268 1.385 . S
C3265 H3240 0.951 . S
C3265 C3263 1.388 . S
C3265 C3266 1.366 . S
C3266 C3265 1.366 . S
C3266 C3267 1.414 . S
C3266 C3269 1.499 . S
C3267 H3241 0.950 . S
C3267 C3266 1.414 . S
C3267 C3268 1.374 . S
C3268 H3242 0.950 . S
C3268 C3264 1.385 . S
C3268 C3267 1.374 . S
C3269 C3266 1.499 . S
C3269 C3270 1.373 . S
C3269 C3271 1.389 . S
C3270 H3243 0.950 . S
C3270 C3256 1.377 . S
C3270 C3269 1.373 . S
C3271 C3255 1.377 . S
C3271 C3269 1.389 . S
C3271 C3272 1.524 . S
C3272 C3271 1.524 . S
C3272 C3273 1.397 . S
C3272 C3277 1.363 . S
C3273 H3244 0.950 . S
C3273 C3272 1.397 . S
C3273 C3274 1.334 . S
C3274 H3245 0.950 . S
C3274 C3273 1.334 . S
C3274 C3275 1.287 . S
C3275 C3274 1.287 . S
C3275 C3276 1.524 . S
C3275 H3278 0.999 . S
C3276 H3246 0.950 . S
C3276 C3275 1.524 . S
C3276 C3277 1.415 . S
C3277 H3247 0.950 . S
C3277 C3272 1.363 . S
C3277 C3276 1.415 . S
H3278 C3275 0.999 . S
H3279 C3260 0.913 . S
H3280 C3298 0.951 . S
H3281 C3300 0.951 . S
H3282 C3302 0.950 1_565 S
H3283 C3303 0.950 1_565 S
H3284 C3305 0.950 . S
H3285 C3308 0.950 . S
H3286 C3309 0.950 . S
H3287 C3311 0.950 . S
H3288 C3312 0.950 . S
H3289 C3313 0.951 . S
H3290 C3315 0.951 . S
H3291 C3317 0.950 . S
H3292 C3318 0.950 . S
H3293 C3320 0.950 . S
H3294 C3323 0.950 . S
H3295 C3324 0.950 . S
H3296 C3326 0.950 . S
H3297 C3327 0.950 . S
C3298 H3280 0.951 . S
C3298 C3299 1.366 . S
C3298 C3300 1.388 . S
C3299 C3298 1.366 . S
C3299 C3303 1.385 . S
C3300 H3281 0.951 . S
C3300 C3298 1.388 . S
C3300 C3301 1.366 . S
C3301 C3300 1.366 . S
C3301 C3302 1.414 . S
C3301 C3304 1.499 . S
C3302 H3282 0.950 1_545 S
C3302 C3301 1.414 . S
C3302 C3303 1.374 . S
C3303 H3283 0.950 1_545 S
C3303 C3299 1.385 . S
C3303 C3302 1.374 . S
C3304 C3301 1.499 . S
C3304 C3305 1.373 . S
C3304 C3306 1.389 . S
C3305 H3284 0.950 . S
C3305 C3304 1.373 . S
C3305 C3321 1.377 . S
C3306 C3304 1.389 . S
C3306 C3307 1.524 . S
C3306 C3320 1.377 . S
C3307 C3306 1.524 . S
C3307 C3308 1.397 1_545 S
C3307 C3312 1.363 . S
C3308 H3285 0.950 . S
C3308 C3307 1.397 1_565 S
C3308 C3309 1.334 . S
C3309 H3286 0.950 . S
C3309 C3308 1.334 . S
C3309 C3310 1.287 . S
C3310 C3309 1.287 . S
C3310 C3311 1.524 1_565 S
C3310 H3329 0.913 . S
C3311 H3287 0.950 . S
C3311 C3310 1.524 1_545 S
C3311 C3312 1.415 . S
C3312 H3288 0.950 . S
C3312 C3307 1.363 . S
C3312 C3311 1.415 . S
C3313 H3289 0.951 . S
C3313 C3314 1.366 . S
C3313 C3315 1.388 . S
C3314 C3313 1.366 . S
C3314 C3318 1.385 . S
C3315 H3290 0.951 . S
C3315 C3313 1.388 . S
C3315 C3316 1.366 . S
C3316 C3315 1.366 . S
C3316 C3317 1.414 . S
C3316 C3319 1.499 . S
C3317 H3291 0.950 . S
C3317 C3316 1.414 . S
C3317 C3318 1.374 . S
C3318 H3292 0.950 . S
C3318 C3314 1.385 . S
C3318 C3317 1.374 . S
C3319 C3316 1.499 . S
C3319 C3320 1.373 . S
C3319 C3321 1.389 . S
C3320 H3293 0.950 . S
C3320 C3306 1.377 . S
C3320 C3319 1.373 . S
C3321 C3305 1.377 . S
C3321 C3319 1.389 . S
C3321 C3322 1.524 . S
C3322 C3321 1.524 . S
C3322 C3323 1.397 . S
C3322 C3327 1.363 . S
C3323 H3294 0.950 . S
C3323 C3322 1.397 . S
C3323 C3324 1.334 . S
C3324 H3295 0.950 . S
C3324 C3323 1.334 . S
C3324 C3325 1.287 . S
C3325 C3324 1.287 . S
C3325 C3326 1.524 . S
C3325 H3328 0.999 . S
C3326 H3296 0.950 . S
C3326 C3325 1.524 . S
C3326 C3327 1.415 . S
C3327 H3297 0.950 . S
C3327 C3322 1.363 . S
C3327 C3326 1.415 . S
H3328 C3325 0.999 . S
H3329 C3310 0.913 . S
H3330 C3348 0.951 . S
H3331 C3350 0.951 . S
H3332 C3352 0.950 . S
H3333 C3353 0.950 . S
H3334 C3355 0.950 . S
H3335 C3358 0.950 . S
H3336 C3359 0.950 . S
H3337 C3361 0.950 . S
H3338 C3362 0.950 . S
H3339 C3363 0.951 . S
H3340 C3365 0.951 . S
H3341 C3367 0.950 . S
H3342 C3368 0.950 . S
H3343 C3370 0.950 . S
H3344 C3373 0.950 . S
H3345 C3374 0.950 . S
H3346 C3376 0.950 . S
H3347 C3377 0.950 . S
C3348 H3330 0.951 . S
C3348 C3349 1.366 . S
C3348 C3350 1.388 . S
C3349 C3348 1.366 . S
C3349 C3353 1.385 . S
C3350 H3331 0.951 . S
C3350 C3348 1.388 . S
C3350 C3351 1.366 . S
C3351 C3350 1.366 . S
C3351 C3352 1.414 . S
C3351 C3354 1.499 . S
C3352 H3332 0.950 . S
C3352 C3351 1.414 . S
C3352 C3353 1.374 . S
C3353 H3333 0.950 . S
C3353 C3349 1.385 . S
C3353 C3352 1.374 . S
C3354 C3351 1.499 . S
C3354 C3355 1.373 . S
C3354 C3356 1.389 . S
C3355 H3334 0.950 . S
C3355 C3354 1.373 . S
C3355 C3371 1.377 . S
C3356 C3354 1.389 . S
C3356 C3357 1.524 . S
C3356 C3370 1.377 . S
C3357 C3356 1.524 . S
C3357 C3358 1.397 . S
C3357 C3362 1.363 . S
C3358 H3335 0.950 . S
C3358 C3357 1.397 . S
C3358 C3359 1.334 . S
C3359 H3336 0.950 . S
C3359 C3358 1.334 . S
C3359 C3360 1.287 . S
C3360 C3359 1.287 . S
C3360 C3361 1.524 . S
C3360 H3379 0.913 . S
C3361 H3337 0.950 . S
C3361 C3360 1.524 . S
C3361 C3362 1.415 . S
C3362 H3338 0.950 . S
C3362 C3357 1.363 . S
C3362 C3361 1.415 . S
C3363 H3339 0.951 . S
C3363 C3364 1.366 . S
C3363 C3365 1.388 . S
C3364 C3363 1.366 . S
C3364 C3368 1.385 . S
C3365 H3340 0.951 . S
C3365 C3363 1.388 . S
C3365 C3366 1.366 . S
C3366 C3365 1.366 . S
C3366 C3367 1.414 . S
C3366 C3369 1.499 . S
C3367 H3341 0.950 . S
C3367 C3366 1.414 . S
C3367 C3368 1.374 . S
C3368 H3342 0.950 . S
C3368 C3364 1.385 . S
C3368 C3367 1.374 . S
C3369 C3366 1.499 . S
C3369 C3370 1.373 . S
C3369 C3371 1.389 . S
C3370 H3343 0.950 . S
C3370 C3356 1.377 . S
C3370 C3369 1.373 . S
C3371 C3355 1.377 . S
C3371 C3369 1.389 . S
C3371 C3372 1.524 . S
C3372 C3371 1.524 . S
C3372 C3373 1.397 . S
C3372 C3377 1.363 . S
C3373 H3344 0.950 . S
C3373 C3372 1.397 . S
C3373 C3374 1.334 . S
C3374 H3345 0.950 . S
C3374 C3373 1.334 . S
C3374 C3375 1.287 . S
C3375 C3374 1.287 . S
C3375 C3376 1.524 . S
C3375 H3378 0.999 . S
C3376 H3346 0.950 . S
C3376 C3375 1.524 . S
C3376 C3377 1.415 . S
C3377 H3347 0.950 . S
C3377 C3372 1.363 . S
C3377 C3376 1.415 . S
H3378 C3375 0.999 . S
H3379 C3360 0.913 . S
H3380 C3398 0.951 . S
H3381 C3400 0.951 . S
H3382 C3402 0.950 . S
H3383 C3403 0.950 . S
H3384 C3405 0.950 . S
H3385 C3408 0.950 . S
H3386 C3409 0.950 . S
H3387 C3411 0.950 . S
H3388 C3412 0.950 . S
H3389 C3413 0.951 . S
H3390 C3415 0.951 . S
H3391 C3417 0.950 . S
H3392 C3418 0.950 . S
H3393 C3420 0.950 . S
H3394 C3423 0.950 . S
H3395 C3424 0.950 . S
H3396 C3426 0.950 . S
H3397 C3427 0.950 . S
C3398 H3380 0.951 . S
C3398 C3399 1.366 . S
C3398 C3400 1.388 . S
C3399 C3398 1.366 . S
C3399 C3403 1.385 . S
C3400 H3381 0.951 . S
C3400 C3398 1.388 . S
C3400 C3401 1.366 . S
C3401 C3400 1.366 . S
C3401 C3402 1.414 . S
C3401 C3404 1.499 . S
C3402 H3382 0.950 . S
C3402 C3401 1.414 . S
C3402 C3403 1.374 . S
C3403 H3383 0.950 . S
C3403 C3399 1.385 . S
C3403 C3402 1.374 . S
C3404 C3401 1.499 . S
C3404 C3405 1.373 . S
C3404 C3406 1.389 . S
C3405 H3384 0.950 . S
C3405 C3404 1.373 . S
C3405 C3421 1.377 . S
C3406 C3404 1.389 . S
C3406 C3407 1.524 . S
C3406 C3420 1.377 . S
C3407 C3406 1.524 . S
C3407 C3408 1.397 . S
C3407 C3412 1.363 . S
C3408 H3385 0.950 . S
C3408 C3407 1.397 . S
C3408 C3409 1.334 1_545 S
C3409 H3386 0.950 . S
C3409 C3408 1.334 1_565 S
C3409 C3410 1.287 . S
C3410 C3409 1.287 . S
C3410 C3411 1.524 . S
C3410 H3429 0.913 . S
C3411 H3387 0.950 . S
C3411 C3410 1.524 . S
C3411 C3412 1.415 1_565 S
C3412 H3388 0.950 . S
C3412 C3407 1.363 . S
C3412 C3411 1.415 1_545 S
C3413 H3389 0.951 . S
C3413 C3414 1.366 . S
C3413 C3415 1.388 . S
C3414 C3413 1.366 . S
C3414 C3418 1.385 . S
C3415 H3390 0.951 . S
C3415 C3413 1.388 . S
C3415 C3416 1.366 . S
C3416 C3415 1.366 . S
C3416 C3417 1.414 . S
C3416 C3419 1.499 . S
C3417 H3391 0.950 . S
C3417 C3416 1.414 . S
C3417 C3418 1.374 . S
C3418 H3392 0.950 . S
C3418 C3414 1.385 . S
C3418 C3417 1.374 . S
C3419 C3416 1.499 . S
C3419 C3420 1.373 . S
C3419 C3421 1.389 . S
C3420 H3393 0.950 . S
C3420 C3406 1.377 . S
C3420 C3419 1.373 . S
C3421 C3405 1.377 . S
C3421 C3419 1.389 . S
C3421 C3422 1.524 . S
C3422 C3421 1.524 . S
C3422 C3423 1.397 . S
C3422 C3427 1.363 . S
C3423 H3394 0.950 . S
C3423 C3422 1.397 . S
C3423 C3424 1.334 . S
C3424 H3395 0.950 . S
C3424 C3423 1.334 . S
C3424 C3425 1.287 . S
C3425 C3424 1.287 . S
C3425 C3426 1.524 . S
C3425 H3428 0.999 . S
C3426 H3396 0.950 . S
C3426 C3425 1.524 . S
C3426 C3427 1.415 . S
C3427 H3397 0.950 . S
C3427 C3422 1.363 . S
C3427 C3426 1.415 . S
H3428 C3425 0.999 . S
H3429 C3410 0.913 . S
H3430 C3448 0.951 . S
H3431 C3450 0.951 . S
H3432 C3452 0.950 . S
H3433 C3453 0.950 . S
H3434 C3455 0.950 . S
H3435 C3458 0.950 . S
H3436 C3459 0.950 . S
H3437 C3461 0.950 . S
H3438 C3462 0.950 . S
H3439 C3463 0.951 . S
H3440 C3465 0.951 . S
H3441 C3467 0.950 . S
H3442 C3468 0.950 . S
H3443 C3470 0.950 . S
H3444 C3473 0.950 . S
H3445 C3474 0.950 . S
H3446 C3476 0.950 . S
H3447 C3477 0.950 . S
C3448 H3430 0.951 . S
C3448 C3449 1.366 . S
C3448 C3450 1.388 . S
C3449 C3448 1.366 . S
C3449 C3453 1.385 . S
C3450 H3431 0.951 . S
C3450 C3448 1.388 . S
C3450 C3451 1.366 . S
C3451 C3450 1.366 . S
C3451 C3452 1.414 . S
C3451 C3454 1.499 . S
C3452 H3432 0.950 . S
C3452 C3451 1.414 . S
C3452 C3453 1.374 . S
C3453 H3433 0.950 . S
C3453 C3449 1.385 . S
C3453 C3452 1.374 . S
C3454 C3451 1.499 . S
C3454 C3455 1.373 . S
C3454 C3456 1.389 . S
C3455 H3434 0.950 . S
C3455 C3454 1.373 . S
C3455 C3471 1.377 . S
C3456 C3454 1.389 . S
C3456 C3457 1.524 . S
C3456 C3470 1.377 . S
C3457 C3456 1.524 . S
C3457 C3458 1.397 . S
C3457 C3462 1.363 . S
C3458 H3435 0.950 . S
C3458 C3457 1.397 . S
C3458 C3459 1.334 . S
C3459 H3436 0.950 . S
C3459 C3458 1.334 . S
C3459 C3460 1.287 . S
C3460 C3459 1.287 . S
C3460 C3461 1.524 . S
C3460 H3479 0.913 . S
C3461 H3437 0.950 . S
C3461 C3460 1.524 . S
C3461 C3462 1.415 . S
C3462 H3438 0.950 . S
C3462 C3457 1.363 . S
C3462 C3461 1.415 . S
C3463 H3439 0.951 . S
C3463 C3464 1.366 . S
C3463 C3465 1.388 . S
C3464 C3463 1.366 . S
C3464 C3468 1.385 . S
C3465 H3440 0.951 . S
C3465 C3463 1.388 . S
C3465 C3466 1.366 . S
C3466 C3465 1.366 . S
C3466 C3467 1.414 . S
C3466 C3469 1.499 . S
C3467 H3441 0.950 . S
C3467 C3466 1.414 . S
C3467 C3468 1.374 . S
C3468 H3442 0.950 . S
C3468 C3464 1.385 . S
C3468 C3467 1.374 . S
C3469 C3466 1.499 . S
C3469 C3470 1.373 . S
C3469 C3471 1.389 . S
C3470 H3443 0.950 . S
C3470 C3456 1.377 . S
C3470 C3469 1.373 . S
C3471 C3455 1.377 . S
C3471 C3469 1.389 . S
C3471 C3472 1.524 . S
C3472 C3471 1.524 . S
C3472 C3473 1.397 . S
C3472 C3477 1.363 . S
C3473 H3444 0.950 . S
C3473 C3472 1.397 . S
C3473 C3474 1.334 . S
C3474 H3445 0.950 . S
C3474 C3473 1.334 . S
C3474 C3475 1.287 . S
C3475 C3474 1.287 . S
C3475 C3476 1.524 . S
C3475 H3478 0.999 . S
C3476 H3446 0.950 . S
C3476 C3475 1.524 . S
C3476 C3477 1.415 . S
C3477 H3447 0.950 . S
C3477 C3472 1.363 . S
C3477 C3476 1.415 . S
H3478 C3475 0.999 . S
H3479 C3460 0.913 . S
H3480 C3498 0.951 . S
H3481 C3500 0.951 . S
H3482 C3502 0.950 . S
H3483 C3503 0.950 . S
H3484 C3505 0.963 . S
H3485 C3508 1.003 . S
H3486 C3509 0.950 . S
H3487 C3511 0.950 . S
H3488 C3512 0.950 . S
H3489 C3513 0.951 . S
H3490 C3515 0.914 1_565 S
H3491 C3517 0.950 . S
H3492 C3518 0.950 . S
H3493 C3520 0.950 . S
H3494 C3523 0.950 . S
H3495 C3524 0.950 . S
H3496 C3526 0.950 . S
H3497 C3527 0.950 . S
C3498 H3480 0.951 . S
C3498 C3499 1.366 . S
C3498 C3500 1.388 . S
C3499 C3498 1.366 . S
C3499 C3503 1.385 1_545 S
C3500 H3481 0.951 . S
C3500 C3498 1.388 . S
C3500 C3501 1.366 . S
C3501 C3500 1.366 . S
C3501 C3502 1.414 1_545 S
C3501 C3504 1.499 . S
C3502 H3482 0.950 . S
C3502 C3501 1.414 1_565 S
C3502 C3503 1.374 . S
C3503 H3483 0.950 . S
C3503 C3499 1.385 1_565 S
C3503 C3502 1.374 . S
C3504 C3501 1.499 . S
C3504 C3505 1.373 . S
C3504 C3506 1.389 . S
C3505 H3484 0.963 . S
C3505 C3504 1.373 . S
C3505 C3521 1.377 . S
C3506 C3504 1.389 . S
C3506 C3507 1.524 . S
C3506 C3520 1.377 . S
C3507 C3506 1.524 . S
C3507 C3508 1.397 . S
C3507 C3512 1.363 . S
C3508 H3485 1.003 . S
C3508 C3507 1.397 . S
C3508 C3509 1.334 . S
C3509 H3486 0.950 . S
C3509 C3508 1.334 . S
C3509 C3510 1.287 . S
C3510 C3509 1.287 . S
C3510 C3511 1.524 . S
C3510 H3529 0.913 . S
C3511 H3487 0.950 . S
C3511 C3510 1.524 . S
C3511 C3512 1.415 . S
C3512 H3488 0.950 . S
C3512 C3507 1.363 . S
C3512 C3511 1.415 . S
C3513 H3489 0.951 . S
C3513 C3514 1.366 . S
C3513 C3515 1.388 . S
C3514 C3513 1.366 . S
C3514 C3518 1.385 . S
C3515 H3490 0.914 1_545 S
C3515 C3513 1.388 . S
C3515 C3516 1.366 . S
C3516 C3515 1.366 . S
C3516 C3517 1.414 . S
C3516 C3519 1.499 . S
C3517 H3491 0.950 . S
C3517 C3516 1.414 . S
C3517 C3518 1.374 . S
C3518 H3492 0.950 . S
C3518 C3514 1.385 . S
C3518 C3517 1.374 . S
C3519 C3516 1.499 . S
C3519 C3520 1.373 . S
C3519 C3521 1.389 . S
C3520 H3493 0.950 . S
C3520 C3506 1.377 . S
C3520 C3519 1.373 . S
C3521 C3505 1.377 . S
C3521 C3519 1.389 . S
C3521 C3522 1.524 . S
C3522 C3521 1.524 . S
C3522 C3523 1.397 . S
C3522 C3527 1.363 1_545 S
C3523 H3494 0.950 . S
C3523 C3522 1.397 . S
C3523 C3524 1.334 . S
C3524 H3495 0.950 . S
C3524 C3523 1.334 . S
C3524 C3525 1.287 . S
C3525 C3524 1.287 . S
C3525 C3526 1.524 1_545 S
C3525 H3528 0.999 1_545 S
C3526 H3496 0.950 . S
C3526 C3525 1.524 1_565 S
C3526 C3527 1.415 . S
C3527 H3497 0.950 . S
C3527 C3522 1.363 1_565 S
C3527 C3526 1.415 . S
H3528 C3525 0.999 1_565 S
H3529 C3510 0.913 . S
H3530 C3548 0.951 . S
H3531 C3550 0.951 . S
H3532 C3552 0.950 . S
H3533 C3553 0.950 . S
H3534 C3555 0.950 . S
H3535 C3558 0.950 . S
H3536 C3559 0.950 . S
H3537 C3561 0.950 . S
H3538 C3562 0.950 . S
H3539 C3563 0.951 . S
H3540 C3565 0.951 . S
H3541 C3567 0.950 . S
H3542 C3568 0.950 . S
H3543 C3570 0.950 . S
H3544 C3573 0.950 . S
H3545 C3574 0.950 . S
H3546 C3576 0.950 . S
H3547 C3577 0.950 . S
C3548 H3530 0.951 . S
C3548 C3549 1.366 . S
C3548 C3550 1.388 . S
C3549 C3548 1.366 . S
C3549 C3553 1.385 . S
C3550 H3531 0.951 . S
C3550 C3548 1.388 . S
C3550 C3551 1.366 . S
C3551 C3550 1.366 . S
C3551 C3552 1.414 . S
C3551 C3554 1.499 . S
C3552 H3532 0.950 . S
C3552 C3551 1.414 . S
C3552 C3553 1.374 . S
C3553 H3533 0.950 . S
C3553 C3549 1.385 . S
C3553 C3552 1.374 . S
C3554 C3551 1.499 . S
C3554 C3555 1.373 . S
C3554 C3556 1.389 . S
C3555 H3534 0.950 . S
C3555 C3554 1.373 . S
C3555 C3571 1.377 . S
C3556 C3554 1.389 . S
C3556 C3557 1.524 . S
C3556 C3570 1.377 . S
C3557 C3556 1.524 . S
C3557 C3558 1.397 . S
C3557 C3562 1.363 . S
C3558 H3535 0.950 . S
C3558 C3557 1.397 . S
C3558 C3559 1.334 . S
C3559 H3536 0.950 . S
C3559 C3558 1.334 . S
C3559 C3560 1.287 . S
C3560 C3559 1.287 . S
C3560 C3561 1.524 . S
C3560 H3579 0.913 . S
C3561 H3537 0.950 . S
C3561 C3560 1.524 . S
C3561 C3562 1.415 . S
C3562 H3538 0.950 . S
C3562 C3557 1.363 . S
C3562 C3561 1.415 . S
C3563 H3539 0.951 . S
C3563 C3564 1.366 . S
C3563 C3565 1.388 . S
C3564 C3563 1.366 . S
C3564 C3568 1.385 . S
C3565 H3540 0.951 . S
C3565 C3563 1.388 . S
C3565 C3566 1.366 . S
C3566 C3565 1.366 . S
C3566 C3567 1.414 . S
C3566 C3569 1.499 . S
C3567 H3541 0.950 . S
C3567 C3566 1.414 . S
C3567 C3568 1.374 . S
C3568 H3542 0.950 . S
C3568 C3564 1.385 . S
C3568 C3567 1.374 . S
C3569 C3566 1.499 . S
C3569 C3570 1.373 . S
C3569 C3571 1.389 . S
C3570 H3543 0.950 . S
C3570 C3556 1.377 . S
C3570 C3569 1.373 . S
C3571 C3555 1.377 . S
C3571 C3569 1.389 . S
C3571 C3572 1.524 . S
C3572 C3571 1.524 . S
C3572 C3573 1.397 . S
C3572 C3577 1.363 . S
C3573 H3544 0.950 . S
C3573 C3572 1.397 . S
C3573 C3574 1.334 . S
C3574 H3545 0.950 . S
C3574 C3573 1.334 . S
C3574 C3575 1.287 . S
C3575 C3574 1.287 . S
C3575 C3576 1.524 . S
C3575 H3578 0.999 . S
C3576 H3546 0.950 . S
C3576 C3575 1.524 . S
C3576 C3577 1.415 . S
C3577 H3547 0.950 . S
C3577 C3572 1.363 . S
C3577 C3576 1.415 . S
H3578 C3575 0.999 . S
H3579 C3560 0.913 . S
H3580 C3598 0.951 . S
H3581 C3600 0.951 . S
H3582 C3602 0.950 . S
H3583 C3603 0.950 . S
H3584 C3605 0.950 . S
H3585 C3608 0.950 . S
H3586 C3609 0.950 . S
H3587 C3611 0.950 . S
H3588 C3612 0.950 . S
H3589 C3613 0.951 . S
H3590 C3615 0.951 . S
H3591 C3617 0.950 . S
H3592 C3618 0.950 . S
H3593 C3620 0.950 . S
H3594 C3623 0.950 . S
H3595 C3624 0.950 . S
H3596 C3626 0.950 . S
H3597 C3627 0.950 . S
C3598 H3580 0.951 . S
C3598 C3599 1.366 . S
C3598 C3600 1.388 . S
C3599 C3598 1.366 . S
C3599 C3603 1.385 . S
C3600 H3581 0.951 . S
C3600 C3598 1.388 . S
C3600 C3601 1.366 . S
C3601 C3600 1.366 . S
C3601 C3602 1.414 . S
C3601 C3604 1.499 . S
C3602 H3582 0.950 . S
C3602 C3601 1.414 . S
C3602 C3603 1.374 . S
C3603 H3583 0.950 . S
C3603 C3599 1.385 . S
C3603 C3602 1.374 . S
C3604 C3601 1.499 . S
C3604 C3605 1.373 . S
C3604 C3606 1.389 . S
C3605 H3584 0.950 . S
C3605 C3604 1.373 . S
C3605 C3621 1.377 . S
C3606 C3604 1.389 . S
C3606 C3607 1.524 1_545 S
C3606 C3620 1.377 . S
C3607 C3606 1.524 1_565 S
C3607 C3608 1.397 . S
C3607 C3612 1.363 . S
C3608 H3585 0.950 . S
C3608 C3607 1.397 . S
C3608 C3609 1.334 . S
C3609 H3586 0.950 . S
C3609 C3608 1.334 . S
C3609 C3610 1.287 . S
C3610 C3609 1.287 . S
C3610 C3611 1.524 . S
C3610 H3629 0.913 . S
C3611 H3587 0.950 . S
C3611 C3610 1.524 . S
C3611 C3612 1.415 . S
C3612 H3588 0.950 . S
C3612 C3607 1.363 . S
C3612 C3611 1.415 . S
C3613 H3589 0.951 . S
C3613 C3614 1.366 . S
C3613 C3615 1.388 . S
C3614 C3613 1.366 . S
C3614 C3618 1.385 . S
C3615 H3590 0.951 . S
C3615 C3613 1.388 . S
C3615 C3616 1.366 . S
C3616 C3615 1.366 . S
C3616 C3617 1.414 . S
C3616 C3619 1.499 . S
C3617 H3591 0.950 . S
C3617 C3616 1.414 . S
C3617 C3618 1.374 . S
C3618 H3592 0.950 . S
C3618 C3614 1.385 . S
C3618 C3617 1.374 . S
C3619 C3616 1.499 . S
C3619 C3620 1.373 . S
C3619 C3621 1.389 . S
C3620 H3593 0.950 . S
C3620 C3606 1.377 . S
C3620 C3619 1.373 . S
C3621 C3605 1.377 . S
C3621 C3619 1.389 . S
C3621 C3622 1.524 . S
C3622 C3621 1.524 . S
C3622 C3623 1.397 . S
C3622 C3627 1.363 . S
C3623 H3594 0.950 . S
C3623 C3622 1.397 . S
C3623 C3624 1.334 . S
C3624 H3595 0.950 . S
C3624 C3623 1.334 . S
C3624 C3625 1.287 . S
C3625 C3624 1.287 . S
C3625 C3626 1.524 . S
C3625 H3628 0.999 . S
C3626 H3596 0.950 . S
C3626 C3625 1.524 . S
C3626 C3627 1.415 . S
C3627 H3597 0.950 . S
C3627 C3622 1.363 . S
C3627 C3626 1.415 . S
H3628 C3625 0.999 . S
H3629 C3610 0.913 . S
H3630 C3648 0.951 . S
H3631 C3650 0.951 . S
H3632 C3652 0.950 . S
H3633 C3653 0.950 . S
H3634 C3655 0.950 . S
H3635 C3658 0.950 . S
H3636 C3659 0.950 . S
H3637 C3661 0.950 . S
H3638 C3662 0.950 . S
H3639 C3663 0.951 . S
H3640 C3665 0.951 . S
H3641 C3667 0.950 . S
H3642 C3668 0.950 . S
H3643 C3670 0.950 . S
H3644 C3673 0.950 . S
H3645 C3674 0.950 . S
H3646 C3676 0.950 . S
H3647 C3677 0.950 . S
C3648 H3630 0.951 . S
C3648 C3649 1.366 . S
C3648 C3650 1.388 . S
C3649 C3648 1.366 . S
C3649 C3653 1.385 . S
C3650 H3631 0.951 . S
C3650 C3648 1.388 . S
C3650 C3651 1.366 . S
C3651 C3650 1.366 . S
C3651 C3652 1.414 . S
C3651 C3654 1.499 . S
C3652 H3632 0.950 . S
C3652 C3651 1.414 . S
C3652 C3653 1.374 . S
C3653 H3633 0.950 . S
C3653 C3649 1.385 . S
C3653 C3652 1.374 . S
C3654 C3651 1.499 . S
C3654 C3655 1.373 . S
C3654 C3656 1.389 . S
C3655 H3634 0.950 . S
C3655 C3654 1.373 . S
C3655 C3671 1.377 . S
C3656 C3654 1.389 . S
C3656 C3657 1.524 . S
C3656 C3670 1.377 . S
C3657 C3656 1.524 . S
C3657 C3658 1.397 . S
C3657 C3662 1.363 . S
C3658 H3635 0.950 . S
C3658 C3657 1.397 . S
C3658 C3659 1.334 . S
C3659 H3636 0.950 . S
C3659 C3658 1.334 . S
C3659 C3660 1.287 . S
C3660 C3659 1.287 . S
C3660 C3661 1.524 . S
C3660 H3679 0.913 . S
C3661 H3637 0.950 . S
C3661 C3660 1.524 . S
C3661 C3662 1.415 . S
C3662 H3638 0.950 . S
C3662 C3657 1.363 . S
C3662 C3661 1.415 . S
C3663 H3639 0.951 . S
C3663 C3664 1.366 . S
C3663 C3665 1.388 . S
C3664 C3663 1.366 . S
C3664 C3668 1.385 . S
C3665 H3640 0.951 . S
C3665 C3663 1.388 . S
C3665 C3666 1.366 . S
C3666 C3665 1.366 . S
C3666 C3667 1.414 . S
C3666 C3669 1.499 . S
C3667 H3641 0.950 . S
C3667 C3666 1.414 . S
C3667 C3668 1.374 . S
C3668 H3642 0.950 . S
C3668 C3664 1.385 . S
C3668 C3667 1.374 . S
C3669 C3666 1.499 . S
C3669 C3670 1.373 . S
C3669 C3671 1.389 . S
C3670 H3643 0.950 . S
C3670 C3656 1.377 . S
C3670 C3669 1.373 . S
C3671 C3655 1.377 . S
C3671 C3669 1.389 . S
C3671 C3672 1.524 . S
C3672 C3671 1.524 . S
C3672 C3673 1.397 . S
C3672 C3677 1.363 . S
C3673 H3644 0.950 . S
C3673 C3672 1.397 . S
C3673 C3674 1.334 . S
C3674 H3645 0.950 . S
C3674 C3673 1.334 . S
C3674 C3675 1.287 . S
C3675 C3674 1.287 . S
C3675 C3676 1.524 . S
C3675 H3678 0.999 . S
C3676 H3646 0.950 . S
C3676 C3675 1.524 . S
C3676 C3677 1.415 . S
C3677 H3647 0.950 . S
C3677 C3672 1.363 . S
C3677 C3676 1.415 . S
H3678 C3675 0.999 . S
H3679 C3660 0.913 . S
H3680 C3698 0.951 . S
H3681 C3700 0.951 . S
H3682 C3702 0.950 . S
H3683 C3703 0.950 . S
H3684 C3705 0.950 . S
H3685 C3708 0.950 . S
H3686 C3709 0.950 . S
H3687 C3711 0.950 . S
H3688 C3712 0.950 1_554 S
H3689 C3713 0.951 . S
H3690 C3715 0.951 . S
H3691 C3717 0.950 . S
H3692 C3718 0.950 . S
H3693 C3720 0.950 . S
H3694 C3723 0.950 . S
H3695 C3724 0.950 . S
H3696 C3726 0.950 . S
H3697 C3727 0.950 . S
C3698 H3680 0.951 . S
C3698 C3699 1.366 . S
C3698 C3700 1.388 . S
C3699 C3698 1.366 . S
C3699 C3703 1.385 . S
C3700 H3681 0.951 . S
C3700 C3698 1.388 . S
C3700 C3701 1.366 . S
C3701 C3700 1.366 . S
C3701 C3702 1.414 . S
C3701 C3704 1.499 . S
C3702 H3682 0.950 . S
C3702 C3701 1.414 . S
C3702 C3703 1.374 . S
C3703 H3683 0.950 . S
C3703 C3699 1.385 . S
C3703 C3702 1.374 . S
C3704 C3701 1.499 . S
C3704 C3705 1.373 . S
C3704 C3706 1.389 . S
C3705 H3684 0.950 . S
C3705 C3704 1.373 . S
C3705 C3721 1.377 . S
C3706 C3704 1.389 . S
C3706 C3707 1.524 1_554 S
C3706 C3720 1.377 . S
C3707 C3706 1.524 1_556 S
C3707 C3708 1.397 . S
C3707 C3712 1.363 . S
C3708 H3685 0.950 . S
C3708 C3707 1.397 . S
C3708 C3709 1.334 . S
C3709 H3686 0.950 . S
C3709 C3708 1.334 . S
C3709 C3710 1.287 . S
C3710 C3709 1.287 . S
C3710 C3711 1.524 . S
C3710 H3729 0.913 . S
C3711 H3687 0.950 . S
C3711 C3710 1.524 . S
C3711 C3712 1.415 . S
C3712 H3688 0.950 1_556 S
C3712 C3707 1.363 . S
C3712 C3711 1.415 . S
C3713 H3689 0.951 . S
C3713 C3714 1.366 . S
C3713 C3715 1.388 . S
C3714 C3713 1.366 . S
C3714 C3718 1.385 . S
C3715 H3690 0.951 . S
C3715 C3713 1.388 . S
C3715 C3716 1.366 . S
C3716 C3715 1.366 . S
C3716 C3717 1.414 . S
C3716 C3719 1.499 . S
C3717 H3691 0.950 . S
C3717 C3716 1.414 . S
C3717 C3718 1.374 . S
C3718 H3692 0.950 . S
C3718 C3714 1.385 . S
C3718 C3717 1.374 . S
C3719 C3716 1.499 . S
C3719 C3720 1.373 . S
C3719 C3721 1.389 . S
C3720 H3693 0.950 . S
C3720 C3706 1.377 . S
C3720 C3719 1.373 . S
C3721 C3705 1.377 . S
C3721 C3719 1.389 . S
C3721 C3722 1.524 . S
C3722 C3721 1.524 . S
C3722 C3723 1.397 . S
C3722 C3727 1.363 . S
C3723 H3694 0.950 . S
C3723 C3722 1.397 . S
C3723 C3724 1.334 . S
C3724 H3695 0.950 . S
C3724 C3723 1.334 . S
C3724 C3725 1.287 . S
C3725 C3724 1.287 . S
C3725 C3726 1.524 . S
C3725 H3728 0.999 . S
C3726 H3696 0.950 . S
C3726 C3725 1.524 . S
C3726 C3727 1.415 . S
C3727 H3697 0.950 . S
C3727 C3722 1.363 . S
C3727 C3726 1.415 . S
H3728 C3725 0.999 . S
H3729 C3710 0.913 . S
H3730 C3748 0.951 . S
H3731 C3750 0.951 . S
H3732 C3752 0.950 . S
H3733 C3753 0.950 . S
H3734 C3755 0.950 . S
H3735 C3758 0.950 . S
H3736 C3759 0.950 . S
H3737 C3761 0.950 . S
H3738 C3762 0.950 . S
H3739 C3763 0.951 . S
H3740 C3765 0.951 . S
H3741 C3767 0.950 . S
H3742 C3768 0.950 . S
H3743 C3770 0.950 . S
H3744 C3773 0.950 1_554 S
H3745 C3774 0.950 . S
H3746 C3776 0.950 . S
H3747 C3777 0.950 . S
C3748 H3730 0.951 . S
C3748 C3749 1.366 . S
C3748 C3750 1.388 . S
C3749 C3748 1.366 . S
C3749 C3753 1.385 . S
C3750 H3731 0.951 . S
C3750 C3748 1.388 . S
C3750 C3751 1.366 . S
C3751 C3750 1.366 . S
C3751 C3752 1.414 . S
C3751 C3754 1.499 . S
C3752 H3732 0.950 . S
C3752 C3751 1.414 . S
C3752 C3753 1.374 . S
C3753 H3733 0.950 . S
C3753 C3749 1.385 . S
C3753 C3752 1.374 . S
C3754 C3751 1.499 . S
C3754 C3755 1.373 . S
C3754 C3756 1.389 . S
C3755 H3734 0.950 . S
C3755 C3754 1.373 . S
C3755 C3771 1.377 . S
C3756 C3754 1.389 . S
C3756 C3757 1.524 . S
C3756 C3770 1.377 . S
C3757 C3756 1.524 . S
C3757 C3758 1.397 . S
C3757 C3762 1.363 . S
C3758 H3735 0.950 . S
C3758 C3757 1.397 . S
C3758 C3759 1.334 . S
C3759 H3736 0.950 . S
C3759 C3758 1.334 . S
C3759 C3760 1.287 . S
C3760 C3759 1.287 . S
C3760 C3761 1.524 . S
C3760 H3779 0.913 . S
C3761 H3737 0.950 . S
C3761 C3760 1.524 . S
C3761 C3762 1.415 . S
C3762 H3738 0.950 . S
C3762 C3757 1.363 . S
C3762 C3761 1.415 . S
C3763 H3739 0.951 . S
C3763 C3764 1.366 . S
C3763 C3765 1.388 . S
C3764 C3763 1.366 . S
C3764 C3768 1.385 . S
C3765 H3740 0.951 . S
C3765 C3763 1.388 . S
C3765 C3766 1.366 . S
C3766 C3765 1.366 . S
C3766 C3767 1.414 . S
C3766 C3769 1.499 . S
C3767 H3741 0.950 . S
C3767 C3766 1.414 . S
C3767 C3768 1.374 . S
C3768 H3742 0.950 . S
C3768 C3764 1.385 . S
C3768 C3767 1.374 . S
C3769 C3766 1.499 . S
C3769 C3770 1.373 . S
C3769 C3771 1.389 . S
C3770 H3743 0.950 . S
C3770 C3756 1.377 . S
C3770 C3769 1.373 . S
C3771 C3755 1.377 . S
C3771 C3769 1.389 . S
C3771 C3772 1.524 . S
C3772 C3771 1.524 . S
C3772 C3773 1.397 1_554 S
C3772 C3777 1.363 1_554 S
C3773 H3744 0.950 1_556 S
C3773 C3772 1.397 1_556 S
C3773 C3774 1.334 . S
C3774 H3745 0.950 . S
C3774 C3773 1.334 . S
C3774 C3775 1.287 . S
C3775 C3774 1.287 . S
C3775 C3776 1.524 . S
C3775 H3778 0.999 . S
C3776 H3746 0.950 . S
C3776 C3775 1.524 . S
C3776 C3777 1.415 . S
C3777 H3747 0.950 . S
C3777 C3772 1.363 1_556 S
C3777 C3776 1.415 . S
H3778 C3775 0.999 . S
H3779 C3760 0.913 . S
H3780 C3798 0.951 . S
H3781 C3800 0.951 . S
H3782 C3802 0.950 . S
H3783 C3803 0.950 . S
H3784 C3805 0.950 . S
H3785 C3808 0.950 . S
H3786 C3809 0.950 . S
H3787 C3811 0.950 . S
H3788 C3812 0.950 . S
H3789 C3813 0.951 . S
H3790 C3815 0.951 . S
H3791 C3817 0.950 . S
H3792 C3818 0.950 . S
H3793 C3820 0.950 . S
H3794 C3823 0.950 . S
H3795 C3824 0.950 . S
H3796 C3826 0.950 . S
H3797 C3827 0.950 . S
C3798 H3780 0.951 . S
C3798 C3799 1.366 . S
C3798 C3800 1.388 . S
C3799 C3798 1.366 . S
C3799 C3803 1.385 . S
C3800 H3781 0.951 . S
C3800 C3798 1.388 . S
C3800 C3801 1.366 . S
C3801 C3800 1.366 . S
C3801 C3802 1.414 . S
C3801 C3804 1.499 . S
C3802 H3782 0.950 . S
C3802 C3801 1.414 . S
C3802 C3803 1.374 . S
C3803 H3783 0.950 . S
C3803 C3799 1.385 . S
C3803 C3802 1.374 . S
C3804 C3801 1.499 . S
C3804 C3805 1.373 . S
C3804 C3806 1.389 . S
C3805 H3784 0.950 . S
C3805 C3804 1.373 . S
C3805 C3821 1.377 . S
C3806 C3804 1.389 . S
C3806 C3807 1.524 . S
C3806 C3820 1.377 . S
C3807 C3806 1.524 . S
C3807 C3808 1.397 . S
C3807 C3812 1.363 . S
C3808 H3785 0.950 . S
C3808 C3807 1.397 . S
C3808 C3809 1.334 . S
C3809 H3786 0.950 . S
C3809 C3808 1.334 . S
C3809 C3810 1.287 . S
C3810 C3809 1.287 . S
C3810 C3811 1.524 . S
C3810 H3829 0.913 . S
C3811 H3787 0.950 . S
C3811 C3810 1.524 . S
C3811 C3812 1.415 . S
C3812 H3788 0.950 . S
C3812 C3807 1.363 . S
C3812 C3811 1.415 . S
C3813 H3789 0.951 . S
C3813 C3814 1.366 . S
C3813 C3815 1.388 . S
C3814 C3813 1.366 . S
C3814 C3818 1.385 . S
C3815 H3790 0.951 . S
C3815 C3813 1.388 . S
C3815 C3816 1.366 . S
C3816 C3815 1.366 . S
C3816 C3817 1.414 . S
C3816 C3819 1.499 . S
C3817 H3791 0.950 . S
C3817 C3816 1.414 . S
C3817 C3818 1.374 . S
C3818 H3792 0.950 . S
C3818 C3814 1.385 . S
C3818 C3817 1.374 . S
C3819 C3816 1.499 . S
C3819 C3820 1.373 . S
C3819 C3821 1.389 . S
C3820 H3793 0.950 . S
C3820 C3806 1.377 . S
C3820 C3819 1.373 . S
C3821 C3805 1.377 . S
C3821 C3819 1.389 . S
C3821 C3822 1.524 . S
C3822 C3821 1.524 . S
C3822 C3823 1.397 . S
C3822 C3827 1.363 . S
C3823 H3794 0.950 . S
C3823 C3822 1.397 . S
C3823 C3824 1.334 . S
C3824 H3795 0.950 . S
C3824 C3823 1.334 . S
C3824 C3825 1.287 . S
C3825 C3824 1.287 . S
C3825 C3826 1.524 . S
C3825 H3828 0.999 . S
C3826 H3796 0.950 . S
C3826 C3825 1.524 . S
C3826 C3827 1.415 . S
C3827 H3797 0.950 . S
C3827 C3822 1.363 . S
C3827 C3826 1.415 . S
H3828 C3825 0.999 . S
H3829 C3810 0.913 . S
H3830 C3848 0.951 . S
H3831 C3850 0.951 . S
H3832 C3852 0.950 . S
H3833 C3853 0.950 . S
H3834 C3855 0.950 . S
H3835 C3858 0.950 . S
H3836 C3859 0.950 . S
H3837 C3861 0.950 . S
H3838 C3862 0.950 . S
H3839 C3863 0.951 . S
H3840 C3865 0.951 . S
H3841 C3867 0.950 . S
H3842 C3868 0.950 . S
H3843 C3870 0.950 . S
H3844 C3873 0.950 . S
H3845 C3874 0.950 . S
H3846 C3876 0.950 . S
H3847 C3877 0.950 . S
C3848 H3830 0.951 . S
C3848 C3849 1.366 . S
C3848 C3850 1.388 . S
C3849 C3848 1.366 . S
C3849 C3853 1.385 . S
C3850 H3831 0.951 . S
C3850 C3848 1.388 . S
C3850 C3851 1.366 . S
C3851 C3850 1.366 . S
C3851 C3852 1.414 . S
C3851 C3854 1.499 . S
C3852 H3832 0.950 . S
C3852 C3851 1.414 . S
C3852 C3853 1.374 . S
C3853 H3833 0.950 . S
C3853 C3849 1.385 . S
C3853 C3852 1.374 . S
C3854 C3851 1.499 . S
C3854 C3855 1.373 . S
C3854 C3856 1.389 . S
C3855 H3834 0.950 . S
C3855 C3854 1.373 . S
C3855 C3871 1.377 . S
C3856 C3854 1.389 . S
C3856 C3857 1.524 . S
C3856 C3870 1.377 . S
C3857 C3856 1.524 . S
C3857 C3858 1.397 . S
C3857 C3862 1.363 . S
C3858 H3835 0.950 . S
C3858 C3857 1.397 . S
C3858 C3859 1.334 . S
C3859 H3836 0.950 . S
C3859 C3858 1.334 . S
C3859 C3860 1.287 . S
C3860 C3859 1.287 . S
C3860 C3861 1.524 . S
C3860 H3879 0.913 . S
C3861 H3837 0.950 . S
C3861 C3860 1.524 . S
C3861 C3862 1.415 . S
C3862 H3838 0.950 . S
C3862 C3857 1.363 . S
C3862 C3861 1.415 . S
C3863 H3839 0.951 . S
C3863 C3864 1.366 . S
C3863 C3865 1.388 . S
C3864 C3863 1.366 . S
C3864 C3868 1.385 . S
C3865 H3840 0.951 . S
C3865 C3863 1.388 . S
C3865 C3866 1.366 . S
C3866 C3865 1.366 . S
C3866 C3867 1.414 . S
C3866 C3869 1.499 . S
C3867 H3841 0.950 . S
C3867 C3866 1.414 . S
C3867 C3868 1.374 . S
C3868 H3842 0.950 . S
C3868 C3864 1.385 . S
C3868 C3867 1.374 . S
C3869 C3866 1.499 . S
C3869 C3870 1.373 . S
C3869 C3871 1.389 . S
C3870 H3843 0.950 . S
C3870 C3856 1.377 . S
C3870 C3869 1.373 . S
C3871 C3855 1.377 . S
C3871 C3869 1.389 . S
C3871 C3872 1.524 . S
C3872 C3871 1.524 . S
C3872 C3873 1.397 . S
C3872 C3877 1.363 . S
C3873 H3844 0.950 . S
C3873 C3872 1.397 . S
C3873 C3874 1.334 . S
C3874 H3845 0.950 . S
C3874 C3873 1.334 . S
C3874 C3875 1.287 . S
C3875 C3874 1.287 . S
C3875 C3876 1.524 . S
C3875 H3878 0.999 . S
C3876 H3846 0.950 . S
C3876 C3875 1.524 . S
C3876 C3877 1.415 . S
C3877 H3847 0.950 . S
C3877 C3872 1.363 . S
C3877 C3876 1.415 . S
H3878 C3875 0.999 . S
H3879 C3860 0.913 . S
H3880 C3898 0.951 1_545 S
H3881 C3900 0.951 . S
H3882 C3902 0.950 . S
H3883 C3903 0.950 . S
H3884 C3905 0.950 . S
H3885 C3908 0.950 . S
H3886 C3909 0.950 . S
H3887 C3911 0.950 . S
H3888 C3912 0.950 . S
H3889 C3913 0.951 . S
H3890 C3915 0.951 . S
H3891 C3917 0.950 . S
H3892 C3918 0.950 . S
H3893 C3920 0.950 . S
H3894 C3923 0.950 . S
H3895 C3924 0.950 . S
H3896 C3926 0.950 . S
H3897 C3927 0.950 . S
C3898 H3880 0.951 1_565 S
C3898 C3899 1.355 1_565 S
C3898 C3900 1.388 . S
C3899 C3898 1.355 1_545 S
C3899 C3903 1.368 1_545 S
C3900 H3881 0.951 . S
C3900 C3898 1.388 . S
C3900 C3901 1.366 . S
C3901 C3900 1.366 . S
C3901 C3902 1.414 . S
C3901 C3904 1.499 . S
C3902 H3882 0.950 . S
C3902 C3901 1.414 . S
C3902 C3903 1.374 . S
C3903 H3883 0.950 . S
C3903 C3899 1.368 1_565 S
C3903 C3902 1.374 . S
C3904 C3901 1.499 . S
C3904 C3905 1.373 . S
C3904 C3906 1.389 . S
C3905 H3884 0.950 . S
C3905 C3904 1.373 . S
C3905 C3921 1.377 . S
C3906 C3904 1.389 . S
C3906 C3907 1.524 . S
C3906 C3920 1.377 . S
C3907 C3906 1.524 . S
C3907 C3908 1.397 . S
C3907 C3912 1.363 . S
C3908 H3885 0.950 . S
C3908 C3907 1.397 . S
C3908 C3909 1.334 . S
C3909 H3886 0.950 . S
C3909 C3908 1.334 . S
C3909 C3910 1.287 . S
C3910 C3909 1.287 . S
C3910 C3911 1.524 . S
C3910 H3929 0.913 . S
C3911 H3887 0.950 . S
C3911 C3910 1.524 . S
C3911 C3912 1.415 . S
C3912 H3888 0.950 . S
C3912 C3907 1.363 . S
C3912 C3911 1.415 . S
C3913 H3889 0.951 . S
C3913 C3914 1.366 . S
C3913 C3915 1.388 . S
C3914 C3913 1.366 . S
C3914 C3918 1.385 . S
C3915 H3890 0.951 . S
C3915 C3913 1.388 . S
C3915 C3916 1.366 . S
C3916 C3915 1.366 . S
C3916 C3917 1.414 . S
C3916 C3919 1.499 . S
C3917 H3891 0.950 . S
C3917 C3916 1.414 . S
C3917 C3918 1.374 . S
C3918 H3892 0.950 . S
C3918 C3914 1.385 . S
C3918 C3917 1.374 . S
C3919 C3916 1.499 . S
C3919 C3920 1.373 . S
C3919 C3921 1.389 . S
C3920 H3893 0.950 . S
C3920 C3906 1.377 . S
C3920 C3919 1.373 . S
C3921 C3905 1.377 . S
C3921 C3919 1.389 . S
C3921 C3922 1.524 . S
C3922 C3921 1.524 . S
C3922 C3923 1.397 . S
C3922 C3927 1.363 . S
C3923 H3894 0.950 . S
C3923 C3922 1.397 . S
C3923 C3924 1.334 . S
C3924 H3895 0.950 . S
C3924 C3923 1.334 . S
C3924 C3925 1.287 . S
C3925 C3924 1.287 . S
C3925 C3926 1.524 . S
C3925 H3928 0.999 . S
C3926 H3896 0.950 . S
C3926 C3925 1.524 . S
C3926 C3927 1.415 . S
C3927 H3897 0.950 . S
C3927 C3922 1.363 . S
C3927 C3926 1.415 . S
H3928 C3925 0.999 . S
H3929 C3910 0.913 . S
H3930 C3948 0.951 . S
H3931 C3950 0.951 . S
H3932 C3952 0.950 . S
H3933 C3953 0.950 . S
H3934 C3955 0.950 . S
H3935 C3958 0.950 . S
H3936 C3959 0.950 . S
H3937 C3961 0.950 1_545 S
H3938 C3962 0.950 . S
H3939 C3963 0.951 . S
H3940 C3965 0.951 . S
H3941 C3967 0.950 . S
H3942 C3968 0.950 1_545 S
H3943 C3970 0.950 . S
H3944 C3973 0.950 . S
H3945 C3974 0.950 . S
H3946 C3976 0.950 . S
H3947 C3977 0.950 . S
C3948 H3930 0.951 . S
C3948 C3949 1.366 . S
C3948 C3950 1.388 . S
C3949 C3948 1.366 . S
C3949 C3953 1.385 . S
C3950 H3931 0.951 . S
C3950 C3948 1.388 . S
C3950 C3951 1.366 . S
C3951 C3950 1.366 . S
C3951 C3952 1.414 . S
C3951 C3954 1.499 . S
C3952 H3932 0.950 . S
C3952 C3951 1.414 . S
C3952 C3953 1.374 . S
C3953 H3933 0.950 . S
C3953 C3949 1.385 . S
C3953 C3952 1.374 . S
C3954 C3951 1.499 . S
C3954 C3955 1.373 . S
C3954 C3956 1.389 . S
C3955 H3934 0.950 . S
C3955 C3954 1.373 . S
C3955 C3971 1.377 . S
C3956 C3954 1.389 . S
C3956 C3957 1.524 . S
C3956 C3970 1.377 . S
C3957 C3956 1.524 . S
C3957 C3958 1.397 . S
C3957 C3962 1.363 . S
C3958 H3935 0.950 . S
C3958 C3957 1.397 . S
C3958 C3959 1.334 . S
C3959 H3936 0.950 . S
C3959 C3958 1.334 . S
C3959 C3960 1.287 . S
C3960 C3959 1.287 . S
C3960 C3961 1.524 . S
C3960 H3979 0.913 . S
C3961 H3937 0.950 1_565 S
C3961 C3960 1.524 . S
C3961 C3962 1.415 . S
C3962 H3938 0.950 . S
C3962 C3957 1.363 . S
C3962 C3961 1.415 . S
C3963 H3939 0.951 . S
C3963 C3964 1.366 . S
C3963 C3965 1.388 . S
C3964 C3963 1.366 . S
C3964 C3968 1.385 . S
C3965 H3940 0.951 . S
C3965 C3963 1.388 . S
C3965 C3966 1.366 . S
C3966 C3965 1.366 . S
C3966 C3967 1.414 . S
C3966 C3969 1.499 . S
C3967 H3941 0.950 . S
C3967 C3966 1.414 . S
C3967 C3968 1.374 . S
C3968 H3942 0.950 1_565 S
C3968 C3964 1.385 . S
C3968 C3967 1.374 . S
C3969 C3966 1.499 . S
C3969 C3970 1.373 . S
C3969 C3971 1.389 . S
C3970 H3943 0.950 . S
C3970 C3956 1.377 . S
C3970 C3969 1.373 . S
C3971 C3955 1.377 . S
C3971 C3969 1.389 . S
C3971 C3972 1.524 . S
C3972 C3971 1.524 . S
C3972 C3973 1.397 . S
C3972 C3977 1.363 . S
C3973 H3944 0.950 . S
C3973 C3972 1.397 . S
C3973 C3974 1.334 . S
C3974 H3945 0.950 . S
C3974 C3973 1.334 . S
C3974 C3975 1.287 . S
C3975 C3974 1.287 . S
C3975 C3976 1.524 . S
C3975 H3978 0.999 . S
C3976 H3946 0.950 . S
C3976 C3975 1.524 . S
C3976 C3977 1.415 . S
C3977 H3947 0.950 . S
C3977 C3972 1.363 . S
C3977 C3976 1.415 . S
H3978 C3975 0.999 . S
H3979 C3960 0.913 . S
H3980 C3998 0.951 . S
H3981 C4000 0.951 . S
H3982 C4002 0.950 . S
H3983 C4003 0.950 . S
H3984 C4005 0.950 . S
H3985 C4008 0.950 . S
H3986 C4009 0.950 . S
H3987 C4011 0.950 . S
H3988 C4012 0.950 . S
H3989 C4013 0.951 . S
H3990 C4015 0.951 . S
H3991 C4017 0.950 . S
H3992 C4018 0.950 . S
H3993 C4020 0.950 . S
H3994 C4023 0.950 . S
H3995 C4024 0.950 . S
H3996 C4026 0.950 . S
H3997 C4027 0.950 . S
C3998 H3980 0.951 . S
C3998 C3999 1.366 . S
C3998 C4000 1.388 . S
C3999 C3998 1.366 . S
C3999 C4003 1.385 . S
C4000 H3981 0.951 . S
C4000 C3998 1.388 . S
C4000 C4001 1.366 . S
C4001 C4000 1.366 . S
C4001 C4002 1.414 . S
C4001 C4004 1.499 . S
C4002 H3982 0.950 . S
C4002 C4001 1.414 . S
C4002 C4003 1.374 . S
C4003 H3983 0.950 . S
C4003 C3999 1.385 . S
C4003 C4002 1.374 . S
C4004 C4001 1.499 . S
C4004 C4005 1.373 . S
C4004 C4006 1.389 . S
C4005 H3984 0.950 . S
C4005 C4004 1.373 . S
C4005 C4021 1.377 . S
C4006 C4004 1.389 . S
C4006 C4007 1.524 . S
C4006 C4020 1.377 . S
C4007 C4006 1.524 . S
C4007 C4008 1.397 . S
C4007 C4012 1.363 . S
C4008 H3985 0.950 . S
C4008 C4007 1.397 . S
C4008 C4009 1.334 . S
C4009 H3986 0.950 . S
C4009 C4008 1.334 . S
C4009 C4010 1.287 . S
C4010 C4009 1.287 . S
C4010 C4011 1.524 . S
C4010 H4029 0.913 . S
C4011 H3987 0.950 . S
C4011 C4010 1.524 . S
C4011 C4012 1.415 . S
C4012 H3988 0.950 . S
C4012 C4007 1.363 . S
C4012 C4011 1.415 . S
C4013 H3989 0.951 . S
C4013 C4014 1.366 . S
C4013 C4015 1.388 . S
C4014 C4013 1.366 . S
C4014 C4018 1.385 . S
C4015 H3990 0.951 . S
C4015 C4013 1.388 . S
C4015 C4016 1.366 . S
C4016 C4015 1.366 . S
C4016 C4017 1.414 . S
C4016 C4019 1.499 . S
C4017 H3991 0.950 . S
C4017 C4016 1.414 . S
C4017 C4018 1.374 . S
C4018 H3992 0.950 . S
C4018 C4014 1.385 . S
C4018 C4017 1.374 . S
C4019 C4016 1.499 . S
C4019 C4020 1.373 . S
C4019 C4021 1.389 . S
C4020 H3993 0.950 . S
C4020 C4006 1.377 . S
C4020 C4019 1.373 . S
C4021 C4005 1.377 . S
C4021 C4019 1.389 . S
C4021 C4022 1.524 . S
C4022 C4021 1.524 . S
C4022 C4023 1.397 . S
C4022 C4027 1.363 . S
C4023 H3994 0.950 . S
C4023 C4022 1.397 . S
C4023 C4024 1.334 . S
C4024 H3995 0.950 . S
C4024 C4023 1.334 . S
C4024 C4025 1.287 . S
C4025 C4024 1.287 . S
C4025 C4026 1.524 . S
C4025 H4028 0.999 . S
C4026 H3996 0.950 . S
C4026 C4025 1.524 . S
C4026 C4027 1.415 . S
C4027 H3997 0.950 . S
C4027 C4022 1.363 . S
C4027 C4026 1.415 . S
H4028 C4025 0.999 . S
H4029 C4010 0.913 . S
H4030 C4048 0.951 . S
H4031 C4050 0.951 . S
H4032 C4052 0.950 . S
H4033 C4053 0.950 . S
H4034 C4055 0.950 . S
H4035 C4058 0.950 . S
H4036 C4059 0.950 . S
H4037 C4061 0.950 . S
H4038 C4062 0.950 . S
H4039 C4063 0.951 . S
H4040 C4065 0.951 . S
H4041 C4067 0.950 . S
H4042 C4068 0.950 . S
H4043 C4070 0.950 . S
H4044 C4073 0.950 . S
H4045 C4074 0.950 . S
H4046 C4076 0.950 . S
H4047 C4077 0.950 . S
C4048 H4030 0.951 . S
C4048 C4049 1.366 . S
C4048 C4050 1.388 . S
C4049 C4048 1.366 . S
C4049 C4053 1.385 . S
C4050 H4031 0.951 . S
C4050 C4048 1.388 . S
C4050 C4051 1.366 . S
C4051 C4050 1.366 . S
C4051 C4052 1.414 . S
C4051 C4054 1.499 . S
C4052 H4032 0.950 . S
C4052 C4051 1.414 . S
C4052 C4053 1.374 . S
C4053 H4033 0.950 . S
C4053 C4049 1.385 . S
C4053 C4052 1.374 . S
C4054 C4051 1.499 . S
C4054 C4055 1.373 . S
C4054 C4056 1.389 . S
C4055 H4034 0.950 . S
C4055 C4054 1.373 . S
C4055 C4071 1.377 . S
C4056 C4054 1.389 . S
C4056 C4057 1.524 . S
C4056 C4070 1.377 . S
C4057 C4056 1.524 . S
C4057 C4058 1.397 . S
C4057 C4062 1.363 . S
C4058 H4035 0.950 . S
C4058 C4057 1.397 . S
C4058 C4059 1.334 . S
C4059 H4036 0.950 . S
C4059 C4058 1.334 . S
C4059 C4060 1.287 . S
C4060 C4059 1.287 . S
C4060 C4061 1.524 . S
C4060 H4079 0.913 . S
C4061 H4037 0.950 . S
C4061 C4060 1.524 . S
C4061 C4062 1.415 . S
C4062 H4038 0.950 . S
C4062 C4057 1.363 . S
C4062 C4061 1.415 . S
C4063 H4039 0.951 . S
C4063 C4064 1.366 . S
C4063 C4065 1.388 . S
C4064 C4063 1.366 . S
C4064 C4068 1.385 . S
C4065 H4040 0.951 . S
C4065 C4063 1.388 . S
C4065 C4066 1.366 . S
C4066 C4065 1.366 . S
C4066 C4067 1.414 . S
C4066 C4069 1.499 . S
C4067 H4041 0.950 . S
C4067 C4066 1.414 . S
C4067 C4068 1.374 . S
C4068 H4042 0.950 . S
C4068 C4064 1.385 . S
C4068 C4067 1.374 . S
C4069 C4066 1.499 . S
C4069 C4070 1.373 . S
C4069 C4071 1.389 . S
C4070 H4043 0.950 . S
C4070 C4056 1.377 . S
C4070 C4069 1.373 . S
C4071 C4055 1.377 . S
C4071 C4069 1.389 . S
C4071 C4072 1.524 . S
C4072 C4071 1.524 . S
C4072 C4073 1.397 . S
C4072 C4077 1.363 . S
C4073 H4044 0.950 . S
C4073 C4072 1.397 . S
C4073 C4074 1.334 . S
C4074 H4045 0.950 . S
C4074 C4073 1.334 . S
C4074 C4075 1.287 . S
C4075 C4074 1.287 . S
C4075 C4076 1.524 . S
C4075 H4078 0.999 . S
C4076 H4046 0.950 . S
C4076 C4075 1.524 . S
C4076 C4077 1.415 . S
C4077 H4047 0.950 . S
C4077 C4072 1.363 . S
C4077 C4076 1.415 . S
H4078 C4075 0.999 . S
H4079 C4060 0.913 . S
H4080 C4098 0.951 . S
H4081 C4100 0.951 . S
H4082 C4102 0.950 . S
H4083 C4103 0.950 . S
H4084 C4105 0.950 . S
H4085 C4108 0.950 . S
H4086 C4109 0.950 . S
H4087 C4111 0.950 . S
H4088 C4112 0.950 . S
H4089 C4113 0.951 . S
H4090 C4115 0.951 . S
H4091 C4117 0.950 . S
H4092 C4118 0.950 . S
H4093 C4120 0.950 . S
H4094 C4123 0.950 . S
H4095 C4124 0.950 . S
H4096 C4126 0.950 . S
H4097 C4127 0.950 . S
C4098 H4080 0.951 . S
C4098 C4099 1.366 . S
C4098 C4100 1.388 . S
C4099 C4098 1.366 . S
C4099 C4103 1.385 . S
C4100 H4081 0.951 . S
C4100 C4098 1.388 . S
C4100 C4101 1.366 . S
C4101 C4100 1.366 . S
C4101 C4102 1.414 . S
C4101 C4104 1.499 . S
C4102 H4082 0.950 . S
C4102 C4101 1.414 . S
C4102 C4103 1.374 . S
C4103 H4083 0.950 . S
C4103 C4099 1.385 . S
C4103 C4102 1.374 . S
C4104 C4101 1.499 . S
C4104 C4105 1.373 . S
C4104 C4106 1.389 . S
C4105 H4084 0.950 . S
C4105 C4104 1.373 . S
C4105 C4121 1.377 . S
C4106 C4104 1.389 . S
C4106 C4107 1.524 . S
C4106 C4120 1.377 . S
C4107 C4106 1.524 . S
C4107 C4108 1.397 . S
C4107 C4112 1.363 . S
C4108 H4085 0.950 . S
C4108 C4107 1.397 . S
C4108 C4109 1.334 . S
C4109 H4086 0.950 . S
C4109 C4108 1.334 . S
C4109 C4110 1.287 . S
C4110 C4109 1.287 . S
C4110 C4111 1.524 . S
C4110 H4129 0.913 . S
C4111 H4087 0.950 . S
C4111 C4110 1.524 . S
C4111 C4112 1.415 . S
C4112 H4088 0.950 . S
C4112 C4107 1.363 . S
C4112 C4111 1.415 . S
C4113 H4089 0.951 . S
C4113 C4114 1.366 . S
C4113 C4115 1.388 . S
C4114 C4113 1.366 . S
C4114 C4118 1.385 . S
C4115 H4090 0.951 . S
C4115 C4113 1.388 . S
C4115 C4116 1.366 . S
C4116 C4115 1.366 . S
C4116 C4117 1.414 . S
C4116 C4119 1.499 . S
C4117 H4091 0.950 . S
C4117 C4116 1.414 . S
C4117 C4118 1.374 . S
C4118 H4092 0.950 . S
C4118 C4114 1.385 . S
C4118 C4117 1.374 . S
C4119 C4116 1.499 . S
C4119 C4120 1.373 . S
C4119 C4121 1.389 . S
C4120 H4093 0.950 . S
C4120 C4106 1.377 . S
C4120 C4119 1.373 . S
C4121 C4105 1.377 . S
C4121 C4119 1.389 . S
C4121 C4122 1.524 . S
C4122 C4121 1.524 . S
C4122 C4123 1.397 . S
C4122 C4127 1.363 . S
C4123 H4094 0.950 . S
C4123 C4122 1.397 . S
C4123 C4124 1.334 . S
C4124 H4095 0.950 . S
C4124 C4123 1.334 . S
C4124 C4125 1.287 . S
C4125 C4124 1.287 . S
C4125 C4126 1.524 . S
C4125 H4128 0.999 . S
C4126 H4096 0.950 . S
C4126 C4125 1.524 . S
C4126 C4127 1.415 . S
C4127 H4097 0.950 . S
C4127 C4122 1.363 . S
C4127 C4126 1.415 . S
H4128 C4125 0.999 . S
H4129 C4110 0.913 . S
H4130 C4148 0.951 . S
H4131 C4150 0.951 . S
H4132 C4152 0.950 . S
H4133 C4153 0.950 . S
H4134 C4155 0.950 . S
H4135 C4158 0.950 . S
H4136 C4159 0.950 . S
H4137 C4161 0.950 . S
H4138 C4162 0.950 . S
H4139 C4163 0.951 . S
H4140 C4165 0.951 . S
H4141 C4167 0.950 . S
H4142 C4168 0.950 . S
H4143 C4170 0.950 . S
H4144 C4173 0.950 . S
H4145 C4174 0.950 . S
H4146 C4176 0.950 . S
H4147 C4177 0.950 . S
C4148 H4130 0.951 . S
C4148 C4149 1.366 . S
C4148 C4150 1.388 . S
C4149 C4148 1.366 . S
C4149 C4153 1.385 . S
C4150 H4131 0.951 . S
C4150 C4148 1.388 . S
C4150 C4151 1.366 . S
C4151 C4150 1.366 . S
C4151 C4152 1.414 . S
C4151 C4154 1.499 . S
C4152 H4132 0.950 . S
C4152 C4151 1.414 . S
C4152 C4153 1.374 . S
C4153 H4133 0.950 . S
C4153 C4149 1.385 . S
C4153 C4152 1.374 . S
C4154 C4151 1.499 . S
C4154 C4155 1.373 . S
C4154 C4156 1.389 . S
C4155 H4134 0.950 . S
C4155 C4154 1.373 . S
C4155 C4171 1.377 . S
C4156 C4154 1.389 . S
C4156 C4157 1.524 . S
C4156 C4170 1.377 . S
C4157 C4156 1.524 . S
C4157 C4158 1.397 . S
C4157 C4162 1.363 . S
C4158 H4135 0.950 . S
C4158 C4157 1.397 . S
C4158 C4159 1.334 . S
C4159 H4136 0.950 . S
C4159 C4158 1.334 . S
C4159 C4160 1.287 . S
C4160 C4159 1.287 . S
C4160 C4161 1.524 . S
C4160 H4179 0.913 . S
C4161 H4137 0.950 . S
C4161 C4160 1.524 . S
C4161 C4162 1.415 . S
C4162 H4138 0.950 . S
C4162 C4157 1.363 . S
C4162 C4161 1.415 . S
C4163 H4139 0.951 . S
C4163 C4164 1.366 . S
C4163 C4165 1.388 . S
C4164 C4163 1.366 . S
C4164 C4168 1.385 . S
C4165 H4140 0.951 . S
C4165 C4163 1.388 . S
C4165 C4166 1.366 . S
C4166 C4165 1.366 . S
C4166 C4167 1.414 . S
C4166 C4169 1.499 . S
C4167 H4141 0.950 . S
C4167 C4166 1.414 . S
C4167 C4168 1.374 . S
C4168 H4142 0.950 . S
C4168 C4164 1.385 . S
C4168 C4167 1.374 . S
C4169 C4166 1.499 . S
C4169 C4170 1.373 . S
C4169 C4171 1.389 . S
C4170 H4143 0.950 . S
C4170 C4156 1.377 . S
C4170 C4169 1.373 . S
C4171 C4155 1.377 . S
C4171 C4169 1.389 . S
C4171 C4172 1.524 . S
C4172 C4171 1.524 . S
C4172 C4173 1.397 . S
C4172 C4177 1.363 . S
C4173 H4144 0.950 . S
C4173 C4172 1.397 . S
C4173 C4174 1.334 . S
C4174 H4145 0.950 . S
C4174 C4173 1.334 . S
C4174 C4175 1.287 . S
C4175 C4174 1.287 . S
C4175 C4176 1.524 . S
C4175 H4178 0.999 . S
C4176 H4146 0.950 . S
C4176 C4175 1.524 . S
C4176 C4177 1.415 . S
C4177 H4147 0.950 . S
C4177 C4172 1.363 . S
C4177 C4176 1.415 . S
H4178 C4175 0.999 . S
H4179 C4160 0.913 . S
H4180 C4198 0.951 . S
H4181 C4200 0.951 . S
H4182 C4202 0.950 . S
H4183 C4203 0.950 . S
H4184 C4205 0.950 . S
H4185 C4208 0.950 1_556 S
H4186 C4209 0.950 . S
H4187 C4211 0.950 . S
H4188 C4212 0.950 . S
H4189 C4213 0.951 . S
H4190 C4215 0.951 1_556 S
H4191 C4217 0.950 . S
H4192 C4218 0.950 . S
H4193 C4220 0.950 . S
H4194 C4223 0.950 . S
H4195 C4224 0.950 . S
H4196 C4226 0.950 . S
H4197 C4227 0.950 . S
C4198 H4180 0.951 . S
C4198 C4199 1.366 . S
C4198 C4200 1.388 . S
C4199 C4198 1.366 . S
C4199 C4203 1.385 . S
C4200 H4181 0.951 . S
C4200 C4198 1.388 . S
C4200 C4201 1.366 . S
C4201 C4200 1.366 . S
C4201 C4202 1.414 . S
C4201 C4204 1.499 . S
C4202 H4182 0.950 . S
C4202 C4201 1.414 . S
C4202 C4203 1.374 . S
C4203 H4183 0.950 . S
C4203 C4199 1.385 . S
C4203 C4202 1.374 . S
C4204 C4201 1.499 . S
C4204 C4205 1.373 . S
C4204 C4206 1.389 1_556 S
C4205 H4184 0.950 . S
C4205 C4204 1.373 . S
C4205 C4221 1.377 . S
C4206 C4204 1.389 1_554 S
C4206 C4207 1.524 . S
C4206 C4220 1.377 . S
C4207 C4206 1.524 . S
C4207 C4208 1.397 . S
C4207 C4212 1.363 . S
C4208 H4185 0.950 1_554 S
C4208 C4207 1.397 . S
C4208 C4209 1.334 1_455 S
C4209 H4186 0.950 . S
C4209 C4208 1.334 1_655 S
C4209 C4210 1.287 1_655 S
C4210 C4209 1.287 1_455 S
C4210 C4211 1.524 . S
C4210 H4229 0.913 1_455 S
C4211 H4187 0.950 . S
C4211 C4210 1.524 . S
C4211 C4212 1.415 . S
C4212 H4188 0.950 . S
C4212 C4207 1.363 . S
C4212 C4211 1.415 . S
C4213 H4189 0.951 . S
C4213 C4214 1.366 . S
C4213 C4215 1.388 . S
C4214 C4213 1.366 . S
C4214 C4218 1.385 . S
C4215 H4190 0.951 1_554 S
C4215 C4213 1.388 . S
C4215 C4216 1.366 . S
C4216 C4215 1.366 . S
C4216 C4217 1.414 . S
C4216 C4219 1.499 . S
C4217 H4191 0.950 . S
C4217 C4216 1.414 . S
C4217 C4218 1.374 . S
C4218 H4192 0.950 . S
C4218 C4214 1.385 . S
C4218 C4217 1.374 . S
C4219 C4216 1.499 . S
C4219 C4220 1.373 . S
C4219 C4221 1.389 1_554 S
C4220 H4193 0.950 . S
C4220 C4206 1.377 . S
C4220 C4219 1.373 . S
C4221 C4205 1.377 . S
C4221 C4219 1.389 1_556 S
C4221 C4222 1.524 . S
C4222 C4221 1.524 . S
C4222 C4223 1.397 . S
C4222 C4227 1.363 . S
C4223 H4194 0.950 . S
C4223 C4222 1.397 . S
C4223 C4224 1.334 . S
C4224 H4195 0.950 . S
C4224 C4223 1.334 . S
C4224 C4225 1.287 . S
C4225 C4224 1.287 . S
C4225 C4226 1.524 . S
C4225 H4228 0.999 . S
C4226 H4196 0.950 . S
C4226 C4225 1.524 . S
C4226 C4227 1.415 . S
C4227 H4197 0.950 . S
C4227 C4222 1.363 . S
C4227 C4226 1.415 . S
H4228 C4225 0.999 . S
H4229 C4210 0.913 1_655 S
H4230 C4248 0.951 . S
H4231 C4250 0.951 . S
H4232 C4252 0.950 . S
H4233 C4253 0.950 . S
H4234 C4255 0.950 . S
H4235 C4258 0.950 . S
H4236 C4259 0.950 . S
H4237 C4261 0.950 . S
H4238 C4262 0.950 . S
H4239 C4263 0.951 . S
H4240 C4265 0.951 . S
H4241 C4267 0.950 . S
H4242 C4268 0.950 . S
H4243 C4270 0.950 . S
H4244 C4273 0.950 . S
H4245 C4274 0.950 . S
H4246 C4276 0.950 . S
H4247 C4277 0.950 . S
C4248 H4230 0.951 . S
C4248 C4249 1.366 . S
C4248 C4250 1.388 1_455 S
C4249 C4248 1.366 . S
C4249 C4253 1.385 . S
C4250 H4231 0.951 . S
C4250 C4248 1.388 1_655 S
C4250 C4251 1.366 . S
C4251 C4250 1.366 . S
C4251 C4252 1.414 1_655 S
C4251 C4254 1.499 . S
C4252 H4232 0.950 . S
C4252 C4251 1.414 1_455 S
C4252 C4253 1.374 . S
C4253 H4233 0.950 . S
C4253 C4249 1.385 . S
C4253 C4252 1.374 . S
C4254 C4251 1.499 . S
C4254 C4255 1.373 . S
C4254 C4256 1.389 . S
C4255 H4234 0.950 . S
C4255 C4254 1.373 . S
C4255 C4271 1.377 . S
C4256 C4254 1.389 . S
C4256 C4257 1.524 . S
C4256 C4270 1.377 . S
C4257 C4256 1.524 . S
C4257 C4258 1.397 . S
C4257 C4262 1.363 . S
C4258 H4235 0.950 . S
C4258 C4257 1.397 . S
C4258 C4259 1.334 . S
C4259 H4236 0.950 . S
C4259 C4258 1.334 . S
C4259 C4260 1.287 . S
C4260 C4259 1.287 . S
C4260 C4261 1.524 . S
C4260 H4279 0.913 . S
C4261 H4237 0.950 . S
C4261 C4260 1.524 . S
C4261 C4262 1.415 . S
C4262 H4238 0.950 . S
C4262 C4257 1.363 . S
C4262 C4261 1.415 . S
C4263 H4239 0.951 . S
C4263 C4264 1.366 . S
C4263 C4265 1.388 . S
C4264 C4263 1.366 . S
C4264 C4268 1.385 . S
C4265 H4240 0.951 . S
C4265 C4263 1.388 . S
C4265 C4266 1.366 . S
C4266 C4265 1.366 . S
C4266 C4267 1.414 . S
C4266 C4269 1.499 . S
C4267 H4241 0.950 . S
C4267 C4266 1.414 . S
C4267 C4268 1.374 . S
C4268 H4242 0.950 . S
C4268 C4264 1.385 . S
C4268 C4267 1.374 . S
C4269 C4266 1.499 . S
C4269 C4270 1.373 . S
C4269 C4271 1.389 . S
C4270 H4243 0.950 . S
C4270 C4256 1.377 . S
C4270 C4269 1.373 . S
C4271 C4255 1.377 . S
C4271 C4269 1.389 . S
C4271 C4272 1.524 . S
C4272 C4271 1.524 . S
C4272 C4273 1.397 . S
C4272 C4277 1.363 . S
C4273 H4244 0.950 . S
C4273 C4272 1.397 . S
C4273 C4274 1.334 . S
C4274 H4245 0.950 . S
C4274 C4273 1.334 . S
C4274 C4275 1.287 . S
C4275 C4274 1.287 . S
C4275 C4276 1.524 . S
C4275 H4278 0.999 . S
C4276 H4246 0.950 . S
C4276 C4275 1.524 . S
C4276 C4277 1.415 . S
C4277 H4247 0.950 . S
C4277 C4272 1.363 . S
C4277 C4276 1.415 . S
H4278 C4275 0.999 . S
H4279 C4260 0.913 . S
H4280 C4298 0.951 . S
H4281 C4300 0.951 . S
H4282 C4302 0.950 . S
H4283 C4303 0.950 . S
H4284 C4305 0.950 . S
H4285 C4308 0.950 . S
H4286 C4309 0.950 . S
H4287 C4311 0.950 . S
H4288 C4312 0.950 . S
H4289 C4313 0.951 . S
H4290 C4315 0.951 . S
H4291 C4317 0.950 . S
H4292 C4318 0.950 . S
H4293 C4320 0.950 . S
H4294 C4323 0.950 . S
H4295 C4324 0.950 . S
H4296 C4326 0.950 . S
H4297 C4327 0.950 . S
C4298 H4280 0.951 . S
C4298 C4299 1.366 . S
C4298 C4300 1.388 . S
C4299 C4298 1.366 . S
C4299 C4303 1.385 . S
C4300 H4281 0.951 . S
C4300 C4298 1.388 . S
C4300 C4301 1.366 . S
C4301 C4300 1.366 . S
C4301 C4302 1.414 . S
C4301 C4304 1.499 . S
C4302 H4282 0.950 . S
C4302 C4301 1.414 . S
C4302 C4303 1.374 . S
C4303 H4283 0.950 . S
C4303 C4299 1.385 . S
C4303 C4302 1.374 . S
C4304 C4301 1.499 . S
C4304 C4305 1.373 . S
C4304 C4306 1.389 . S
C4305 H4284 0.950 . S
C4305 C4304 1.373 . S
C4305 C4321 1.377 . S
C4306 C4304 1.389 . S
C4306 C4307 1.524 . S
C4306 C4320 1.377 . S
C4307 C4306 1.524 . S
C4307 C4308 1.397 . S
C4307 C4312 1.363 . S
C4308 H4285 0.950 . S
C4308 C4307 1.397 . S
C4308 C4309 1.334 . S
C4309 H4286 0.950 . S
C4309 C4308 1.334 . S
C4309 C4310 1.287 . S
C4310 C4309 1.287 . S
C4310 C4311 1.524 . S
C4310 H4329 0.913 . S
C4311 H4287 0.950 . S
C4311 C4310 1.524 . S
C4311 C4312 1.415 . S
C4312 H4288 0.950 . S
C4312 C4307 1.363 . S
C4312 C4311 1.415 . S
C4313 H4289 0.951 . S
C4313 C4314 1.366 . S
C4313 C4315 1.388 . S
C4314 C4313 1.366 . S
C4314 C4318 1.385 . S
C4315 H4290 0.951 . S
C4315 C4313 1.388 . S
C4315 C4316 1.366 . S
C4316 C4315 1.366 . S
C4316 C4317 1.414 . S
C4316 C4319 1.499 . S
C4317 H4291 0.950 . S
C4317 C4316 1.414 . S
C4317 C4318 1.374 . S
C4318 H4292 0.950 . S
C4318 C4314 1.385 . S
C4318 C4317 1.374 . S
C4319 C4316 1.499 . S
C4319 C4320 1.373 . S
C4319 C4321 1.389 . S
C4320 H4293 0.950 . S
C4320 C4306 1.377 . S
C4320 C4319 1.373 . S
C4321 C4305 1.377 . S
C4321 C4319 1.389 . S
C4321 C4322 1.524 . S
C4322 C4321 1.524 . S
C4322 C4323 1.397 . S
C4322 C4327 1.363 . S
C4323 H4294 0.950 . S
C4323 C4322 1.397 . S
C4323 C4324 1.334 . S
C4324 H4295 0.950 . S
C4324 C4323 1.334 . S
C4324 C4325 1.287 . S
C4325 C4324 1.287 . S
C4325 C4326 1.524 . S
C4325 H4328 0.999 . S
C4326 H4296 0.950 . S
C4326 C4325 1.524 . S
C4326 C4327 1.415 . S
C4327 H4297 0.950 . S
C4327 C4322 1.363 . S
C4327 C4326 1.415 . S
H4328 C4325 0.999 . S
H4329 C4310 0.913 . S
H4330 C4348 0.951 . S
H4331 C4350 0.951 . S
H4332 C4352 0.950 . S
H4333 C4353 0.950 . S
H4334 C4355 0.950 . S
H4335 C4358 0.950 . S
H4336 C4359 0.950 . S
H4337 C4361 0.950 . S
H4338 C4362 0.950 . S
H4339 C4363 0.951 . S
H4340 C4365 0.951 . S
H4341 C4367 0.950 . S
H4342 C4368 0.950 . S
H4343 C4370 0.950 . S
H4344 C4373 0.950 . S
H4345 C4374 0.950 . S
H4346 C4376 0.950 . S
H4347 C4377 0.950 . S
C4348 H4330 0.951 . S
C4348 C4349 1.366 . S
C4348 C4350 1.388 . S
C4349 C4348 1.366 . S
C4349 C4353 1.385 . S
C4350 H4331 0.951 . S
C4350 C4348 1.388 . S
C4350 C4351 1.366 . S
C4351 C4350 1.366 . S
C4351 C4352 1.414 . S
C4351 C4354 1.499 . S
C4352 H4332 0.950 . S
C4352 C4351 1.414 . S
C4352 C4353 1.374 . S
C4353 H4333 0.950 . S
C4353 C4349 1.385 . S
C4353 C4352 1.374 . S
C4354 C4351 1.499 . S
C4354 C4355 1.373 1_455 S
C4354 C4356 1.407 . S
C4355 H4334 0.950 . S
C4355 C4354 1.373 1_655 S
C4355 C4371 1.377 . S
C4356 C4354 1.407 . S
C4356 C4357 1.539 . S
C4356 C4370 1.343 1_455 S
C4357 C4356 1.539 . S
C4357 C4358 1.397 . S
C4357 C4362 1.363 . S
C4358 H4335 0.950 . S
C4358 C4357 1.397 . S
C4358 C4359 1.334 . S
C4359 H4336 0.950 . S
C4359 C4358 1.334 . S
C4359 C4360 1.287 . S
C4360 C4359 1.287 . S
C4360 C4361 1.524 . S
C4360 H4379 0.913 . S
C4361 H4337 0.950 . S
C4361 C4360 1.524 . S
C4361 C4362 1.415 . S
C4362 H4338 0.950 . S
C4362 C4357 1.363 . S
C4362 C4361 1.415 . S
C4363 H4339 0.951 . S
C4363 C4364 1.366 . S
C4363 C4365 1.388 . S
C4364 C4363 1.366 . S
C4364 C4368 1.385 . S
C4365 H4340 0.951 . S
C4365 C4363 1.388 . S
C4365 C4366 1.366 . S
C4366 C4365 1.366 . S
C4366 C4367 1.414 . S
C4366 C4369 1.499 . S
C4367 H4341 0.950 . S
C4367 C4366 1.414 . S
C4367 C4368 1.374 . S
C4368 H4342 0.950 . S
C4368 C4364 1.385 . S
C4368 C4367 1.374 . S
C4369 C4366 1.499 . S
C4369 C4370 1.373 . S
C4369 C4371 1.389 . S
C4370 H4343 0.950 . S
C4370 C4356 1.343 1_655 S
C4370 C4369 1.373 . S
C4371 C4355 1.377 . S
C4371 C4369 1.389 . S
C4371 C4372 1.524 . S
C4372 C4371 1.524 . S
C4372 C4373 1.397 . S
C4372 C4377 1.363 . S
C4373 H4344 0.950 . S
C4373 C4372 1.397 . S
C4373 C4374 1.334 . S
C4374 H4345 0.950 . S
C4374 C4373 1.334 . S
C4374 C4375 1.287 . S
C4375 C4374 1.287 . S
C4375 C4376 1.524 . S
C4375 H4378 0.999 . S
C4376 H4346 0.950 . S
C4376 C4375 1.524 . S
C4376 C4377 1.415 . S
C4377 H4347 0.950 . S
C4377 C4372 1.363 . S
C4377 C4376 1.415 . S
H4378 C4375 0.999 . S
H4379 C4360 0.913 . S
H4380 C4398 0.951 . S
H4381 C4400 0.951 . S
H4382 C4402 0.950 . S
H4383 C4403 0.950 . S
H4384 C4405 0.950 . S
H4385 C4408 0.950 . S
H4386 C4409 0.950 . S
H4387 C4411 0.950 . S
H4388 C4412 0.950 . S
H4389 C4413 0.951 . S
H4390 C4415 0.951 . S
H4391 C4417 0.950 . S
H4392 C4418 0.950 . S
H4393 C4420 0.940 1_655 S
H4394 C4423 0.950 . S
H4395 C4424 0.950 . S
H4396 C4426 0.950 . S
H4397 C4427 0.950 . S
C4398 H4380 0.951 . S
C4398 C4399 1.366 . S
C4398 C4400 1.388 . S
C4399 C4398 1.366 . S
C4399 C4403 1.385 1_655 S
C4400 H4381 0.951 . S
C4400 C4398 1.388 . S
C4400 C4401 1.366 1_655 S
C4401 C4400 1.366 1_455 S
C4401 C4402 1.414 . S
C4401 C4404 1.499 . S
C4402 H4382 0.950 . S
C4402 C4401 1.414 . S
C4402 C4403 1.374 . S
C4403 H4383 0.950 . S
C4403 C4399 1.385 1_455 S
C4403 C4402 1.374 . S
C4404 C4401 1.499 . S
C4404 C4405 1.373 . S
C4404 C4406 1.389 . S
C4405 H4384 0.950 . S
C4405 C4404 1.373 . S
C4405 C4421 1.377 . S
C4406 C4404 1.389 . S
C4406 C4407 1.524 1_455 S
C4406 C4420 1.377 . S
C4407 C4406 1.524 1_655 S
C4407 C4408 1.397 . S
C4407 C4412 1.363 . S
C4408 H4385 0.950 . S
C4408 C4407 1.397 . S
C4408 C4409 1.334 . S
C4409 H4386 0.950 . S
C4409 C4408 1.334 . S
C4409 C4410 1.287 . S
C4410 C4409 1.287 . S
C4410 C4411 1.524 . S
C4410 H4429 0.913 . S
C4411 H4387 0.950 . S
C4411 C4410 1.524 . S
C4411 C4412 1.415 . S
C4412 H4388 0.950 . S
C4412 C4407 1.363 . S
C4412 C4411 1.415 . S
C4413 H4389 0.951 . S
C4413 C4414 1.366 . S
C4413 C4415 1.388 . S
C4414 C4413 1.366 . S
C4414 C4418 1.385 . S
C4415 H4390 0.951 . S
C4415 C4413 1.388 . S
C4415 C4416 1.366 . S
C4416 C4415 1.366 . S
C4416 C4417 1.414 . S
C4416 C4419 1.499 . S
C4417 H4391 0.950 . S
C4417 C4416 1.414 . S
C4417 C4418 1.374 . S
C4418 H4392 0.950 . S
C4418 C4414 1.385 . S
C4418 C4417 1.374 . S
C4419 C4416 1.499 . S
C4419 C4420 1.373 . S
C4419 C4421 1.389 . S
C4420 H4393 0.940 1_455 S
C4420 C4406 1.377 . S
C4420 C4419 1.373 . S
C4421 C4405 1.377 . S
C4421 C4419 1.389 . S
C4421 C4422 1.524 . S
C4422 C4421 1.524 . S
C4422 C4423 1.397 . S
C4422 C4427 1.363 . S
C4423 H4394 0.950 . S
C4423 C4422 1.397 . S
C4423 C4424 1.334 . S
C4424 H4395 0.950 . S
C4424 C4423 1.334 . S
C4424 C4425 1.287 . S
C4425 C4424 1.287 . S
C4425 C4426 1.524 . S
C4425 H4428 0.999 . S
C4426 H4396 0.950 . S
C4426 C4425 1.524 . S
C4426 C4427 1.415 . S
C4427 H4397 0.950 . S
C4427 C4422 1.363 . S
C4427 C4426 1.415 . S
H4428 C4425 0.999 . S
H4429 C4410 0.913 . S
H4430 C4448 0.951 . S
H4431 C4450 0.951 . S
H4432 C4452 0.950 . S
H4433 C4453 0.950 . S
H4434 C4455 0.950 . S
H4435 C4458 0.950 . S
H4436 C4459 0.950 . S
H4437 C4461 0.950 . S
H4438 C4462 0.950 . S
H4439 C4463 0.951 . S
H4440 C4465 0.951 . S
H4441 C4467 0.950 . S
H4442 C4468 0.950 . S
H4443 C4470 0.950 . S
H4444 C4473 0.950 . S
H4445 C4474 0.950 . S
H4446 C4476 0.950 . S
H4447 C4477 0.950 . S
C4448 H4430 0.951 . S
C4448 C4449 1.366 . S
C4448 C4450 1.388 . S
C4449 C4448 1.366 . S
C4449 C4453 1.385 . S
C4450 H4431 0.951 . S
C4450 C4448 1.388 . S
C4450 C4451 1.366 . S
C4451 C4450 1.366 . S
C4451 C4452 1.414 . S
C4451 C4454 1.499 . S
C4452 H4432 0.950 . S
C4452 C4451 1.414 . S
C4452 C4453 1.374 . S
C4453 H4433 0.950 . S
C4453 C4449 1.385 . S
C4453 C4452 1.374 . S
C4454 C4451 1.499 . S
C4454 C4455 1.373 . S
C4454 C4456 1.389 . S
C4455 H4434 0.950 . S
C4455 C4454 1.373 . S
C4455 C4471 1.377 . S
C4456 C4454 1.389 . S
C4456 C4457 1.524 . S
C4456 C4470 1.377 . S
C4457 C4456 1.524 . S
C4457 C4458 1.397 . S
C4457 C4462 1.363 . S
C4458 H4435 0.950 . S
C4458 C4457 1.397 . S
C4458 C4459 1.334 . S
C4459 H4436 0.950 . S
C4459 C4458 1.334 . S
C4459 C4460 1.287 . S
C4460 C4459 1.287 . S
C4460 C4461 1.524 . S
C4460 H4479 0.913 . S
C4461 H4437 0.950 . S
C4461 C4460 1.524 . S
C4461 C4462 1.415 . S
C4462 H4438 0.950 . S
C4462 C4457 1.363 . S
C4462 C4461 1.415 . S
C4463 H4439 0.951 . S
C4463 C4464 1.366 . S
C4463 C4465 1.388 . S
C4464 C4463 1.366 . S
C4464 C4468 1.385 . S
C4465 H4440 0.951 . S
C4465 C4463 1.388 . S
C4465 C4466 1.366 . S
C4466 C4465 1.366 . S
C4466 C4467 1.414 . S
C4466 C4469 1.499 . S
C4467 H4441 0.950 . S
C4467 C4466 1.414 . S
C4467 C4468 1.374 . S
C4468 H4442 0.950 . S
C4468 C4464 1.385 . S
C4468 C4467 1.374 . S
C4469 C4466 1.499 . S
C4469 C4470 1.373 . S
C4469 C4471 1.389 . S
C4470 H4443 0.950 . S
C4470 C4456 1.377 . S
C4470 C4469 1.373 . S
C4471 C4455 1.377 . S
C4471 C4469 1.389 . S
C4471 C4472 1.524 . S
C4472 C4471 1.524 . S
C4472 C4473 1.397 . S
C4472 C4477 1.363 . S
C4473 H4444 0.950 . S
C4473 C4472 1.397 . S
C4473 C4474 1.334 . S
C4474 H4445 0.950 . S
C4474 C4473 1.334 . S
C4474 C4475 1.287 . S
C4475 C4474 1.287 . S
C4475 C4476 1.524 . S
C4475 H4478 0.999 . S
C4476 H4446 0.950 . S
C4476 C4475 1.524 . S
C4476 C4477 1.415 . S
C4477 H4447 0.950 . S
C4477 C4472 1.363 . S
C4477 C4476 1.415 . S
H4478 C4475 0.999 . S
H4479 C4460 0.913 . S
H4480 C4498 0.951 . S
H4481 C4500 0.951 . S
H4482 C4502 0.950 . S
H4483 C4503 0.950 . S
H4484 C4505 0.950 . S
H4485 C4508 0.950 . S
H4486 C4509 0.950 . S
H4487 C4511 0.950 . S
H4488 C4512 0.950 . S
H4489 C4513 0.951 . S
H4490 C4515 0.951 . S
H4491 C4517 0.950 . S
H4492 C4518 0.950 . S
H4493 C4520 0.950 . S
H4494 C4523 0.950 . S
H4495 C4524 0.950 . S
H4496 C4526 0.950 . S
H4497 C4527 0.950 . S
C4498 H4480 0.951 . S
C4498 C4499 1.366 . S
C4498 C4500 1.388 . S
C4499 C4498 1.366 . S
C4499 C4503 1.385 . S
C4500 H4481 0.951 . S
C4500 C4498 1.388 . S
C4500 C4501 1.366 . S
C4501 C4500 1.366 . S
C4501 C4502 1.414 . S
C4501 C4504 1.499 . S
C4502 H4482 0.950 . S
C4502 C4501 1.414 . S
C4502 C4503 1.374 . S
C4503 H4483 0.950 . S
C4503 C4499 1.385 . S
C4503 C4502 1.374 . S
C4504 C4501 1.499 . S
C4504 C4505 1.373 . S
C4504 C4506 1.389 . S
C4505 H4484 0.950 . S
C4505 C4504 1.373 . S
C4505 C4521 1.377 . S
C4506 C4504 1.389 . S
C4506 C4507 1.524 . S
C4506 C4520 1.377 . S
C4507 C4506 1.524 . S
C4507 C4508 1.397 . S
C4507 C4512 1.363 . S
C4508 H4485 0.950 . S
C4508 C4507 1.397 . S
C4508 C4509 1.334 . S
C4509 H4486 0.950 . S
C4509 C4508 1.334 . S
C4509 C4510 1.287 . S
C4510 C4509 1.287 . S
C4510 C4511 1.524 . S
C4510 H4529 0.913 . S
C4511 H4487 0.950 . S
C4511 C4510 1.524 . S
C4511 C4512 1.415 . S
C4512 H4488 0.950 . S
C4512 C4507 1.363 . S
C4512 C4511 1.415 . S
C4513 H4489 0.951 . S
C4513 C4514 1.366 . S
C4513 C4515 1.388 . S
C4514 C4513 1.366 . S
C4514 C4518 1.385 . S
C4515 H4490 0.951 . S
C4515 C4513 1.388 . S
C4515 C4516 1.366 . S
C4516 C4515 1.366 . S
C4516 C4517 1.414 . S
C4516 C4519 1.499 . S
C4517 H4491 0.950 . S
C4517 C4516 1.414 . S
C4517 C4518 1.374 . S
C4518 H4492 0.950 . S
C4518 C4514 1.385 . S
C4518 C4517 1.374 . S
C4519 C4516 1.499 . S
C4519 C4520 1.373 . S
C4519 C4521 1.389 . S
C4520 H4493 0.950 . S
C4520 C4506 1.377 . S
C4520 C4519 1.373 . S
C4521 C4505 1.377 . S
C4521 C4519 1.389 . S
C4521 C4522 1.524 . S
C4522 C4521 1.524 . S
C4522 C4523 1.397 . S
C4522 C4527 1.363 . S
C4523 H4494 0.950 . S
C4523 C4522 1.397 . S
C4523 C4524 1.334 . S
C4524 H4495 0.950 . S
C4524 C4523 1.334 . S
C4524 C4525 1.287 . S
C4525 C4524 1.287 . S
C4525 C4526 1.524 . S
C4525 H4528 0.999 . S
C4526 H4496 0.950 . S
C4526 C4525 1.524 . S
C4526 C4527 1.415 . S
C4527 H4497 0.950 . S
C4527 C4522 1.363 . S
C4527 C4526 1.415 . S
H4528 C4525 0.999 . S
H4529 C4510 0.913 . S
H4530 C4548 0.951 . S
H4531 C4550 0.951 . S
H4532 C4552 0.950 . S
H4533 C4553 0.950 . S
H4534 C4555 0.950 . S
H4535 C4558 0.950 . S
H4536 C4559 0.950 . S
H4537 C4561 0.950 . S
H4538 C4562 0.950 . S
H4539 C4563 0.951 . S
H4540 C4565 0.951 . S
H4541 C4567 0.950 . S
H4542 C4568 0.950 . S
H4543 C4570 0.950 . S
H4544 C4573 0.950 . S
H4545 C4574 0.950 . S
H4546 C4576 0.950 . S
H4547 C4577 0.950 . S
C4548 H4530 0.951 . S
C4548 C4549 1.366 . S
C4548 C4550 1.388 . S
C4549 C4548 1.366 . S
C4549 C4553 1.385 . S
C4550 H4531 0.951 . S
C4550 C4548 1.388 . S
C4550 C4551 1.366 . S
C4551 C4550 1.366 . S
C4551 C4552 1.414 . S
C4551 C4554 1.499 . S
C4552 H4532 0.950 . S
C4552 C4551 1.414 . S
C4552 C4553 1.374 . S
C4553 H4533 0.950 . S
C4553 C4549 1.385 . S
C4553 C4552 1.374 . S
C4554 C4551 1.499 . S
C4554 C4555 1.373 . S
C4554 C4556 1.389 . S
C4555 H4534 0.950 . S
C4555 C4554 1.373 . S
C4555 C4571 1.377 . S
C4556 C4554 1.389 . S
C4556 C4557 1.524 . S
C4556 C4570 1.377 . S
C4557 C4556 1.524 . S
C4557 C4558 1.397 . S
C4557 C4562 1.363 . S
C4558 H4535 0.950 . S
C4558 C4557 1.397 . S
C4558 C4559 1.334 . S
C4559 H4536 0.950 . S
C4559 C4558 1.334 . S
C4559 C4560 1.287 . S
C4560 C4559 1.287 . S
C4560 C4561 1.524 . S
C4560 H4579 0.913 . S
C4561 H4537 0.950 . S
C4561 C4560 1.524 . S
C4561 C4562 1.415 . S
C4562 H4538 0.950 . S
C4562 C4557 1.363 . S
C4562 C4561 1.415 . S
C4563 H4539 0.951 . S
C4563 C4564 1.366 . S
C4563 C4565 1.388 . S
C4564 C4563 1.366 . S
C4564 C4568 1.385 . S
C4565 H4540 0.951 . S
C4565 C4563 1.388 . S
C4565 C4566 1.366 . S
C4566 C4565 1.366 . S
C4566 C4567 1.414 . S
C4566 C4569 1.499 . S
C4567 H4541 0.950 . S
C4567 C4566 1.414 . S
C4567 C4568 1.374 . S
C4568 H4542 0.950 . S
C4568 C4564 1.385 . S
C4568 C4567 1.374 . S
C4569 C4566 1.499 . S
C4569 C4570 1.373 . S
C4569 C4571 1.389 . S
C4570 H4543 0.950 . S
C4570 C4556 1.377 . S
C4570 C4569 1.373 . S
C4571 C4555 1.377 . S
C4571 C4569 1.389 . S
C4571 C4572 1.524 . S
C4572 C4571 1.524 . S
C4572 C4573 1.397 . S
C4572 C4577 1.363 . S
C4573 H4544 0.950 . S
C4573 C4572 1.397 . S
C4573 C4574 1.334 . S
C4574 H4545 0.950 . S
C4574 C4573 1.334 . S
C4574 C4575 1.287 . S
C4575 C4574 1.287 . S
C4575 C4576 1.524 . S
C4575 H4578 0.999 . S
C4576 H4546 0.950 . S
C4576 C4575 1.524 . S
C4576 C4577 1.415 . S
C4577 H4547 0.950 . S
C4577 C4572 1.363 . S
C4577 C4576 1.415 . S
H4578 C4575 0.999 . S
H4579 C4560 0.913 . S
H4580 C4598 0.951 . S
H4581 C4600 0.951 . S
H4582 C4602 0.950 . S
H4583 C4603 0.950 . S
H4584 C4605 0.950 . S
H4585 C4608 0.950 . S
H4586 C4609 0.950 . S
H4587 C4611 0.950 . S
H4588 C4612 0.950 . S
H4589 C4613 0.951 . S
H4590 C4615 0.951 . S
H4591 C4617 0.950 . S
H4592 C4618 0.950 . S
H4593 C4620 0.950 . S
H4594 C4623 0.950 . S
H4595 C4624 0.950 . S
H4596 C4626 0.950 . S
H4597 C4627 0.950 . S
C4598 H4580 0.951 . S
C4598 C4599 1.366 . S
C4598 C4600 1.388 . S
C4599 C4598 1.366 . S
C4599 C4603 1.385 . S
C4600 H4581 0.951 . S
C4600 C4598 1.388 . S
C4600 C4601 1.366 . S
C4601 C4600 1.366 . S
C4601 C4602 1.414 . S
C4601 C4604 1.499 . S
C4602 H4582 0.950 . S
C4602 C4601 1.414 . S
C4602 C4603 1.374 . S
C4603 H4583 0.950 . S
C4603 C4599 1.385 . S
C4603 C4602 1.374 . S
C4604 C4601 1.499 . S
C4604 C4605 1.373 . S
C4604 C4606 1.389 . S
C4605 H4584 0.950 . S
C4605 C4604 1.373 . S
C4605 C4621 1.377 . S
C4606 C4604 1.389 . S
C4606 C4607 1.524 . S
C4606 C4620 1.377 . S
C4607 C4606 1.524 . S
C4607 C4608 1.397 . S
C4607 C4612 1.363 . S
C4608 H4585 0.950 . S
C4608 C4607 1.397 . S
C4608 C4609 1.334 . S
C4609 H4586 0.950 . S
C4609 C4608 1.334 . S
C4609 C4610 1.287 . S
C4610 C4609 1.287 . S
C4610 C4611 1.524 . S
C4610 H4629 0.913 . S
C4611 H4587 0.950 . S
C4611 C4610 1.524 . S
C4611 C4612 1.415 . S
C4612 H4588 0.950 . S
C4612 C4607 1.363 . S
C4612 C4611 1.415 . S
C4613 H4589 0.951 . S
C4613 C4614 1.366 . S
C4613 C4615 1.388 . S
C4614 C4613 1.366 . S
C4614 C4618 1.385 . S
C4615 H4590 0.951 . S
C4615 C4613 1.388 . S
C4615 C4616 1.366 . S
C4616 C4615 1.366 . S
C4616 C4617 1.414 . S
C4616 C4619 1.499 . S
C4617 H4591 0.950 . S
C4617 C4616 1.414 . S
C4617 C4618 1.374 . S
C4618 H4592 0.950 . S
C4618 C4614 1.385 . S
C4618 C4617 1.374 . S
C4619 C4616 1.499 . S
C4619 C4620 1.373 . S
C4619 C4621 1.389 . S
C4620 H4593 0.950 . S
C4620 C4606 1.377 . S
C4620 C4619 1.373 . S
C4621 C4605 1.377 . S
C4621 C4619 1.389 . S
C4621 C4622 1.524 . S
C4622 C4621 1.524 . S
C4622 C4623 1.397 . S
C4622 C4627 1.363 . S
C4623 H4594 0.950 . S
C4623 C4622 1.397 . S
C4623 C4624 1.334 . S
C4624 H4595 0.950 . S
C4624 C4623 1.334 . S
C4624 C4625 1.287 . S
C4625 C4624 1.287 . S
C4625 C4626 1.524 . S
C4625 H4628 0.999 . S
C4626 H4596 0.950 . S
C4626 C4625 1.524 . S
C4626 C4627 1.415 . S
C4627 H4597 0.950 . S
C4627 C4622 1.363 . S
C4627 C4626 1.415 . S
H4628 C4625 0.999 . S
H4629 C4610 0.913 . S
H4630 C4648 0.951 . S
H4631 C4650 0.951 . S
H4632 C4652 0.950 . S
H4633 C4653 0.950 . S
H4634 C4655 0.950 . S
H4635 C4658 0.950 . S
H4636 C4659 0.950 . S
H4637 C4661 0.950 . S
H4638 C4662 0.950 . S
H4639 C4663 0.951 . S
H4640 C4665 0.951 . S
H4641 C4667 0.950 . S
H4642 C4668 0.950 . S
H4643 C4670 0.950 . S
H4644 C4673 0.950 . S
H4645 C4674 0.950 . S
H4646 C4676 0.950 . S
H4647 C4677 0.950 . S
C4648 H4630 0.951 . S
C4648 C4649 1.366 . S
C4648 C4650 1.388 . S
C4649 C4648 1.366 . S
C4649 C4653 1.385 . S
C4650 H4631 0.951 . S
C4650 C4648 1.388 . S
C4650 C4651 1.366 . S
C4651 C4650 1.366 . S
C4651 C4652 1.414 . S
C4651 C4654 1.499 . S
C4652 H4632 0.950 . S
C4652 C4651 1.414 . S
C4652 C4653 1.374 . S
C4653 H4633 0.950 . S
C4653 C4649 1.385 . S
C4653 C4652 1.374 . S
C4654 C4651 1.499 . S
C4654 C4655 1.373 . S
C4654 C4656 1.389 . S
C4655 H4634 0.950 . S
C4655 C4654 1.373 . S
C4655 C4671 1.377 . S
C4656 C4654 1.389 . S
C4656 C4657 1.524 . S
C4656 C4670 1.377 . S
C4657 C4656 1.524 . S
C4657 C4658 1.397 . S
C4657 C4662 1.363 . S
C4658 H4635 0.950 . S
C4658 C4657 1.397 . S
C4658 C4659 1.334 . S
C4659 H4636 0.950 . S
C4659 C4658 1.334 . S
C4659 C4660 1.287 . S
C4660 C4659 1.287 . S
C4660 C4661 1.524 . S
C4660 H4679 0.913 . S
C4661 H4637 0.950 . S
C4661 C4660 1.524 . S
C4661 C4662 1.415 . S
C4662 H4638 0.950 . S
C4662 C4657 1.363 . S
C4662 C4661 1.415 . S
C4663 H4639 0.951 . S
C4663 C4664 1.366 . S
C4663 C4665 1.388 . S
C4664 C4663 1.366 . S
C4664 C4668 1.385 . S
C4665 H4640 0.951 . S
C4665 C4663 1.388 . S
C4665 C4666 1.366 . S
C4666 C4665 1.366 . S
C4666 C4667 1.414 . S
C4666 C4669 1.499 . S
C4667 H4641 0.950 . S
C4667 C4666 1.414 . S
C4667 C4668 1.374 . S
C4668 H4642 0.950 . S
C4668 C4664 1.385 . S
C4668 C4667 1.374 . S
C4669 C4666 1.499 . S
C4669 C4670 1.373 . S
C4669 C4671 1.389 . S
C4670 H4643 0.950 . S
C4670 C4656 1.377 . S
C4670 C4669 1.373 . S
C4671 C4655 1.377 . S
C4671 C4669 1.389 . S
C4671 C4672 1.524 . S
C4672 C4671 1.524 . S
C4672 C4673 1.397 . S
C4672 C4677 1.363 . S
C4673 H4644 0.950 . S
C4673 C4672 1.397 . S
C4673 C4674 1.334 . S
C4674 H4645 0.950 . S
C4674 C4673 1.334 . S
C4674 C4675 1.287 . S
C4675 C4674 1.287 . S
C4675 C4676 1.524 . S
C4675 H4678 0.999 . S
C4676 H4646 0.950 . S
C4676 C4675 1.524 . S
C4676 C4677 1.415 . S
C4677 H4647 0.950 . S
C4677 C4672 1.363 . S
C4677 C4676 1.415 . S
H4678 C4675 0.999 . S
H4679 C4660 0.913 . S
H4680 C4698 0.951 . S
H4681 C4700 0.951 . S
H4682 C4702 0.950 . S
H4683 C4703 0.950 . S
H4684 C4705 0.950 . S
H4685 C4708 0.950 . S
H4686 C4709 0.950 . S
H4687 C4711 0.950 . S
H4688 C4712 0.950 . S
H4689 C4713 0.951 . S
H4690 C4715 0.951 . S
H4691 C4717 0.950 . S
H4692 C4718 0.950 . S
H4693 C4720 0.950 . S
H4694 C4723 0.950 . S
H4695 C4724 0.950 . S
H4696 C4726 0.950 . S
H4697 C4727 0.950 . S
C4698 H4680 0.951 . S
C4698 C4699 1.366 . S
C4698 C4700 1.388 . S
C4699 C4698 1.366 . S
C4699 C4703 1.385 . S
C4700 H4681 0.951 . S
C4700 C4698 1.388 . S
C4700 C4701 1.366 . S
C4701 C4700 1.366 . S
C4701 C4702 1.414 . S
C4701 C4704 1.499 . S
C4702 H4682 0.950 . S
C4702 C4701 1.414 . S
C4702 C4703 1.374 . S
C4703 H4683 0.950 . S
C4703 C4699 1.385 . S
C4703 C4702 1.374 . S
C4704 C4701 1.499 . S
C4704 C4705 1.373 . S
C4704 C4706 1.389 . S
C4705 H4684 0.950 . S
C4705 C4704 1.373 . S
C4705 C4721 1.377 . S
C4706 C4704 1.389 . S
C4706 C4707 1.524 . S
C4706 C4720 1.377 . S
C4707 C4706 1.524 . S
C4707 C4708 1.397 . S
C4707 C4712 1.363 . S
C4708 H4685 0.950 . S
C4708 C4707 1.397 . S
C4708 C4709 1.334 . S
C4709 H4686 0.950 . S
C4709 C4708 1.334 . S
C4709 C4710 1.287 . S
C4710 C4709 1.287 . S
C4710 C4711 1.524 . S
C4710 H4729 0.913 . S
C4711 H4687 0.950 . S
C4711 C4710 1.524 . S
C4711 C4712 1.415 . S
C4712 H4688 0.950 . S
C4712 C4707 1.363 . S
C4712 C4711 1.415 . S
C4713 H4689 0.951 . S
C4713 C4714 1.366 . S
C4713 C4715 1.388 . S
C4714 C4713 1.366 . S
C4714 C4718 1.385 . S
C4715 H4690 0.951 . S
C4715 C4713 1.388 . S
C4715 C4716 1.366 . S
C4716 C4715 1.366 . S
C4716 C4717 1.414 . S
C4716 C4719 1.499 . S
C4717 H4691 0.950 . S
C4717 C4716 1.414 . S
C4717 C4718 1.374 . S
C4718 H4692 0.950 . S
C4718 C4714 1.385 . S
C4718 C4717 1.374 . S
C4719 C4716 1.499 . S
C4719 C4720 1.373 . S
C4719 C4721 1.389 . S
C4720 H4693 0.950 . S
C4720 C4706 1.377 . S
C4720 C4719 1.373 . S
C4721 C4705 1.377 . S
C4721 C4719 1.389 . S
C4721 C4722 1.524 . S
C4722 C4721 1.524 . S
C4722 C4723 1.397 . S
C4722 C4727 1.363 . S
C4723 H4694 0.950 . S
C4723 C4722 1.397 . S
C4723 C4724 1.334 . S
C4724 H4695 0.950 . S
C4724 C4723 1.334 . S
C4724 C4725 1.287 . S
C4725 C4724 1.287 . S
C4725 C4726 1.524 . S
C4725 H4728 0.999 . S
C4726 H4696 0.950 . S
C4726 C4725 1.524 . S
C4726 C4727 1.415 . S
C4727 H4697 0.950 . S
C4727 C4722 1.363 . S
C4727 C4726 1.415 . S
H4728 C4725 0.999 . S
H4729 C4710 0.913 . S
H4730 C4748 0.951 . S
H4731 C4750 0.951 . S
H4732 C4752 0.950 . S
H4733 C4753 0.950 . S
H4734 C4755 0.950 . S
H4735 C4758 0.950 . S
H4736 C4759 0.950 . S
H4737 C4761 0.950 . S
H4738 C4762 0.950 . S
H4739 C4763 0.951 . S
H4740 C4765 0.951 . S
H4741 C4767 0.950 . S
H4742 C4768 0.950 . S
H4743 C4770 0.950 . S
H4744 C4773 0.950 . S
H4745 C4774 0.950 . S
H4746 C4776 0.950 . S
H4747 C4777 0.950 . S
C4748 H4730 0.951 . S
C4748 C4749 1.366 . S
C4748 C4750 1.388 . S
C4749 C4748 1.366 . S
C4749 C4753 1.385 . S
C4750 H4731 0.951 . S
C4750 C4748 1.388 . S
C4750 C4751 1.366 . S
C4751 C4750 1.366 . S
C4751 C4752 1.414 . S
C4751 C4754 1.499 . S
C4752 H4732 0.950 . S
C4752 C4751 1.414 . S
C4752 C4753 1.374 . S
C4753 H4733 0.950 . S
C4753 C4749 1.385 . S
C4753 C4752 1.374 . S
C4754 C4751 1.499 . S
C4754 C4755 1.373 . S
C4754 C4756 1.389 . S
C4755 H4734 0.950 . S
C4755 C4754 1.373 . S
C4755 C4771 1.377 . S
C4756 C4754 1.389 . S
C4756 C4757 1.524 . S
C4756 C4770 1.377 . S
C4757 C4756 1.524 . S
C4757 C4758 1.397 . S
C4757 C4762 1.363 . S
C4758 H4735 0.950 . S
C4758 C4757 1.397 . S
C4758 C4759 1.334 . S
C4759 H4736 0.950 . S
C4759 C4758 1.334 . S
C4759 C4760 1.287 . S
C4760 C4759 1.287 . S
C4760 C4761 1.524 . S
C4760 H4779 0.913 . S
C4761 H4737 0.950 . S
C4761 C4760 1.524 . S
C4761 C4762 1.415 . S
C4762 H4738 0.950 . S
C4762 C4757 1.363 . S
C4762 C4761 1.415 . S
C4763 H4739 0.951 . S
C4763 C4764 1.366 . S
C4763 C4765 1.388 . S
C4764 C4763 1.366 . S
C4764 C4768 1.385 . S
C4765 H4740 0.951 . S
C4765 C4763 1.388 . S
C4765 C4766 1.366 . S
C4766 C4765 1.366 . S
C4766 C4767 1.414 . S
C4766 C4769 1.499 . S
C4767 H4741 0.950 . S
C4767 C4766 1.414 . S
C4767 C4768 1.374 . S
C4768 H4742 0.950 . S
C4768 C4764 1.385 . S
C4768 C4767 1.374 . S
C4769 C4766 1.499 . S
C4769 C4770 1.373 . S
C4769 C4771 1.389 . S
C4770 H4743 0.950 . S
C4770 C4756 1.377 . S
C4770 C4769 1.373 . S
C4771 C4755 1.377 . S
C4771 C4769 1.389 . S
C4771 C4772 1.524 . S
C4772 C4771 1.524 . S
C4772 C4773 1.397 . S
C4772 C4777 1.363 . S
C4773 H4744 0.950 . S
C4773 C4772 1.397 . S
C4773 C4774 1.334 . S
C4774 H4745 0.950 . S
C4774 C4773 1.334 . S
C4774 C4775 1.287 . S
C4775 C4774 1.287 . S
C4775 C4776 1.524 . S
C4775 H4778 0.999 . S
C4776 H4746 0.950 . S
C4776 C4775 1.524 . S
C4776 C4777 1.415 . S
C4777 H4747 0.950 . S
C4777 C4772 1.363 . S
C4777 C4776 1.415 . S
H4778 C4775 0.999 . S
H4779 C4760 0.913 . S
H4780 C4798 0.951 . S
H4781 C4800 0.951 . S
H4782 C4802 0.950 . S
H4783 C4803 0.950 . S
H4784 C4805 0.950 . S
H4785 C4808 0.950 . S
H4786 C4809 0.950 . S
H4787 C4811 0.950 . S
H4788 C4812 0.950 . S
H4789 C4813 0.951 . S
H4790 C4815 0.951 . S
H4791 C4817 0.950 . S
H4792 C4818 0.950 . S
H4793 C4820 0.950 . S
H4794 C4823 0.950 . S
H4795 C4824 0.950 . S
H4796 C4826 0.950 . S
H4797 C4827 0.950 . S
C4798 H4780 0.951 . S
C4798 C4799 1.366 . S
C4798 C4800 1.388 . S
C4799 C4798 1.366 . S
C4799 C4803 1.385 . S
C4800 H4781 0.951 . S
C4800 C4798 1.388 . S
C4800 C4801 1.366 . S
C4801 C4800 1.366 . S
C4801 C4802 1.414 . S
C4801 C4804 1.499 . S
C4802 H4782 0.950 . S
C4802 C4801 1.414 . S
C4802 C4803 1.374 . S
C4803 H4783 0.950 . S
C4803 C4799 1.385 . S
C4803 C4802 1.374 . S
C4804 C4801 1.499 . S
C4804 C4805 1.373 . S
C4804 C4806 1.389 . S
C4805 H4784 0.950 . S
C4805 C4804 1.373 . S
C4805 C4821 1.377 . S
C4806 C4804 1.389 . S
C4806 C4807 1.524 . S
C4806 C4820 1.377 . S
C4807 C4806 1.524 . S
C4807 C4808 1.397 . S
C4807 C4812 1.363 . S
C4808 H4785 0.950 . S
C4808 C4807 1.397 . S
C4808 C4809 1.334 . S
C4809 H4786 0.950 . S
C4809 C4808 1.334 . S
C4809 C4810 1.287 . S
C4810 C4809 1.287 . S
C4810 C4811 1.524 . S
C4810 H4829 0.913 . S
C4811 H4787 0.950 . S
C4811 C4810 1.524 . S
C4811 C4812 1.415 . S
C4812 H4788 0.950 . S
C4812 C4807 1.363 . S
C4812 C4811 1.415 . S
C4813 H4789 0.951 . S
C4813 C4814 1.366 . S
C4813 C4815 1.388 . S
C4814 C4813 1.366 . S
C4814 C4818 1.385 . S
C4815 H4790 0.951 . S
C4815 C4813 1.388 . S
C4815 C4816 1.366 . S
C4816 C4815 1.366 . S
C4816 C4817 1.414 . S
C4816 C4819 1.499 . S
C4817 H4791 0.950 . S
C4817 C4816 1.414 . S
C4817 C4818 1.374 . S
C4818 H4792 0.950 . S
C4818 C4814 1.385 . S
C4818 C4817 1.374 . S
C4819 C4816 1.499 . S
C4819 C4820 1.373 . S
C4819 C4821 1.389 . S
C4820 H4793 0.950 . S
C4820 C4806 1.377 . S
C4820 C4819 1.373 . S
C4821 C4805 1.377 . S
C4821 C4819 1.389 . S
C4821 C4822 1.524 . S
C4822 C4821 1.524 . S
C4822 C4823 1.397 . S
C4822 C4827 1.363 . S
C4823 H4794 0.950 . S
C4823 C4822 1.397 . S
C4823 C4824 1.334 . S
C4824 H4795 0.950 . S
C4824 C4823 1.334 . S
C4824 C4825 1.287 . S
C4825 C4824 1.287 . S
C4825 C4826 1.524 . S
C4825 H4828 0.999 . S
C4826 H4796 0.950 . S
C4826 C4825 1.524 . S
C4826 C4827 1.415 . S
C4827 H4797 0.950 . S
C4827 C4822 1.363 . S
C4827 C4826 1.415 . S
H4828 C4825 0.999 . S
H4829 C4810 0.913 . S
H4830 C4848 0.951 . S
H4831 C4850 0.951 . S
H4832 C4852 0.950 . S
H4833 C4853 0.950 . S
H4834 C4855 0.950 . S
H4835 C4858 0.950 . S
H4836 C4859 0.950 . S
H4837 C4861 0.950 . S
H4838 C4862 0.950 . S
H4839 C4863 0.951 . S
H4840 C4865 0.951 . S
H4841 C4867 0.950 . S
H4842 C4868 0.950 . S
H4843 C4870 0.950 . S
H4844 C4873 0.950 . S
H4845 C4874 0.950 . S
H4846 C4876 0.950 . S
H4847 C4877 0.950 . S
C4848 H4830 0.951 . S
C4848 C4849 1.366 . S
C4848 C4850 1.388 . S
C4849 C4848 1.366 . S
C4849 C4853 1.385 . S
C4850 H4831 0.951 . S
C4850 C4848 1.388 . S
C4850 C4851 1.366 . S
C4851 C4850 1.366 . S
C4851 C4852 1.414 . S
C4851 C4854 1.499 . S
C4852 H4832 0.950 . S
C4852 C4851 1.414 . S
C4852 C4853 1.374 . S
C4853 H4833 0.950 . S
C4853 C4849 1.385 . S
C4853 C4852 1.374 . S
C4854 C4851 1.499 . S
C4854 C4855 1.373 . S
C4854 C4856 1.389 . S
C4855 H4834 0.950 . S
C4855 C4854 1.373 . S
C4855 C4871 1.377 . S
C4856 C4854 1.389 . S
C4856 C4857 1.524 . S
C4856 C4870 1.377 . S
C4857 C4856 1.524 . S
C4857 C4858 1.397 . S
C4857 C4862 1.363 . S
C4858 H4835 0.950 . S
C4858 C4857 1.397 . S
C4858 C4859 1.334 . S
C4859 H4836 0.950 . S
C4859 C4858 1.334 . S
C4859 C4860 1.287 . S
C4860 C4859 1.287 . S
C4860 C4861 1.524 . S
C4860 H4879 0.913 . S
C4861 H4837 0.950 . S
C4861 C4860 1.524 . S
C4861 C4862 1.415 . S
C4862 H4838 0.950 . S
C4862 C4857 1.363 . S
C4862 C4861 1.415 . S
C4863 H4839 0.951 . S
C4863 C4864 1.366 . S
C4863 C4865 1.388 . S
C4864 C4863 1.366 . S
C4864 C4868 1.385 . S
C4865 H4840 0.951 . S
C4865 C4863 1.388 . S
C4865 C4866 1.366 . S
C4866 C4865 1.366 . S
C4866 C4867 1.414 . S
C4866 C4869 1.499 . S
C4867 H4841 0.950 . S
C4867 C4866 1.414 . S
C4867 C4868 1.374 . S
C4868 H4842 0.950 . S
C4868 C4864 1.385 . S
C4868 C4867 1.374 . S
C4869 C4866 1.499 . S
C4869 C4870 1.373 . S
C4869 C4871 1.389 . S
C4870 H4843 0.950 . S
C4870 C4856 1.377 . S
C4870 C4869 1.373 . S
C4871 C4855 1.377 . S
C4871 C4869 1.389 . S
C4871 C4872 1.524 . S
C4872 C4871 1.524 . S
C4872 C4873 1.397 . S
C4872 C4877 1.363 . S
C4873 H4844 0.950 . S
C4873 C4872 1.397 . S
C4873 C4874 1.334 . S
C4874 H4845 0.950 . S
C4874 C4873 1.334 . S
C4874 C4875 1.287 . S
C4875 C4874 1.287 . S
C4875 C4876 1.524 . S
C4875 H4878 0.999 . S
C4876 H4846 0.950 . S
C4876 C4875 1.524 . S
C4876 C4877 1.415 . S
C4877 H4847 0.950 . S
C4877 C4872 1.363 . S
C4877 C4876 1.415 . S
H4878 C4875 0.999 . S
H4879 C4860 0.913 . S
H4880 C4898 0.951 . S
H4881 C4900 0.951 . S
H4882 C4902 0.950 . S
H4883 C4903 0.950 . S
H4884 C4905 0.950 . S
H4885 C4908 0.950 . S
H4886 C4909 0.950 . S
H4887 C4911 0.950 . S
H4888 C4912 0.950 . S
H4889 C4913 0.951 . S
H4890 C4915 0.951 . S
H4891 C4917 0.950 . S
H4892 C4918 0.950 . S
H4893 C4920 0.950 . S
H4894 C4923 0.950 . S
H4895 C4924 0.950 . S
H4896 C4926 0.950 . S
H4897 C4927 0.950 . S
C4898 H4880 0.951 . S
C4898 C4899 1.366 . S
C4898 C4900 1.388 . S
C4899 C4898 1.366 . S
C4899 C4903 1.385 . S
C4900 H4881 0.951 . S
C4900 C4898 1.388 . S
C4900 C4901 1.366 . S
C4901 C4900 1.366 . S
C4901 C4902 1.414 . S
C4901 C4904 1.499 . S
C4902 H4882 0.950 . S
C4902 C4901 1.414 . S
C4902 C4903 1.374 . S
C4903 H4883 0.950 . S
C4903 C4899 1.385 . S
C4903 C4902 1.374 . S
C4904 C4901 1.499 . S
C4904 C4905 1.373 . S
C4904 C4906 1.389 . S
C4905 H4884 0.950 . S
C4905 C4904 1.373 . S
C4905 C4921 1.377 . S
C4906 C4904 1.389 . S
C4906 C4907 1.524 . S
C4906 C4920 1.377 . S
C4907 C4906 1.524 . S
C4907 C4908 1.397 . S
C4907 C4912 1.363 . S
C4908 H4885 0.950 . S
C4908 C4907 1.397 . S
C4908 C4909 1.334 . S
C4909 H4886 0.950 . S
C4909 C4908 1.334 . S
C4909 C4910 1.287 . S
C4910 C4909 1.287 . S
C4910 C4911 1.524 . S
C4910 H4929 0.913 . S
C4911 H4887 0.950 . S
C4911 C4910 1.524 . S
C4911 C4912 1.415 . S
C4912 H4888 0.950 . S
C4912 C4907 1.363 . S
C4912 C4911 1.415 . S
C4913 H4889 0.951 . S
C4913 C4914 1.366 . S
C4913 C4915 1.388 . S
C4914 C4913 1.366 . S
C4914 C4918 1.385 . S
C4915 H4890 0.951 . S
C4915 C4913 1.388 . S
C4915 C4916 1.366 . S
C4916 C4915 1.366 . S
C4916 C4917 1.414 . S
C4916 C4919 1.499 . S
C4917 H4891 0.950 . S
C4917 C4916 1.414 . S
C4917 C4918 1.374 . S
C4918 H4892 0.950 . S
C4918 C4914 1.385 . S
C4918 C4917 1.374 . S
C4919 C4916 1.499 . S
C4919 C4920 1.373 . S
C4919 C4921 1.389 . S
C4920 H4893 0.950 . S
C4920 C4906 1.377 . S
C4920 C4919 1.373 . S
C4921 C4905 1.377 . S
C4921 C4919 1.389 . S
C4921 C4922 1.524 . S
C4922 C4921 1.524 . S
C4922 C4923 1.397 . S
C4922 C4927 1.363 . S
C4923 H4894 0.950 . S
C4923 C4922 1.397 . S
C4923 C4924 1.334 . S
C4924 H4895 0.950 . S
C4924 C4923 1.334 . S
C4924 C4925 1.287 . S
C4925 C4924 1.287 . S
C4925 C4926 1.524 . S
C4925 H4928 0.999 . S
C4926 H4896 0.950 . S
C4926 C4925 1.524 . S
C4926 C4927 1.415 . S
C4927 H4897 0.950 . S
C4927 C4922 1.363 . S
C4927 C4926 1.415 . S
H4928 C4925 0.999 . S
H4929 C4910 0.913 . S
H4930 C4948 0.951 . S
H4931 C4950 0.951 . S
H4932 C4952 0.950 . S
H4933 C4953 0.950 . S
H4934 C4955 0.950 . S
H4935 C4958 0.950 . S
H4936 C4959 0.950 . S
H4937 C4961 0.950 . S
H4938 C4962 0.950 . S
H4939 C4963 0.951 . S
H4940 C4965 0.951 . S
H4941 C4967 0.950 . S
H4942 C4968 0.950 . S
H4943 C4970 0.950 . S
H4944 C4973 0.950 . S
H4945 C4974 0.950 . S
H4946 C4976 0.950 . S
H4947 C4977 0.950 . S
C4948 H4930 0.951 . S
C4948 C4949 1.366 . S
C4948 C4950 1.388 . S
C4949 C4948 1.366 . S
C4949 C4953 1.385 . S
C4950 H4931 0.951 . S
C4950 C4948 1.388 . S
C4950 C4951 1.366 . S
C4951 C4950 1.366 . S
C4951 C4952 1.414 . S
C4951 C4954 1.499 . S
C4952 H4932 0.950 . S
C4952 C4951 1.414 . S
C4952 C4953 1.374 . S
C4953 H4933 0.950 . S
C4953 C4949 1.385 . S
C4953 C4952 1.374 . S
C4954 C4951 1.499 . S
C4954 C4955 1.373 . S
C4954 C4956 1.389 . S
C4955 H4934 0.950 . S
C4955 C4954 1.373 . S
C4955 C4971 1.377 . S
C4956 C4954 1.389 . S
C4956 C4957 1.524 . S
C4956 C4970 1.377 . S
C4957 C4956 1.524 . S
C4957 C4958 1.397 . S
C4957 C4962 1.363 . S
C4958 H4935 0.950 . S
C4958 C4957 1.397 . S
C4958 C4959 1.334 . S
C4959 H4936 0.950 . S
C4959 C4958 1.334 . S
C4959 C4960 1.287 . S
C4960 C4959 1.287 . S
C4960 C4961 1.524 . S
C4960 H4979 0.913 . S
C4961 H4937 0.950 . S
C4961 C4960 1.524 . S
C4961 C4962 1.415 . S
C4962 H4938 0.950 . S
C4962 C4957 1.363 . S
C4962 C4961 1.415 . S
C4963 H4939 0.951 . S
C4963 C4964 1.366 . S
C4963 C4965 1.388 . S
C4964 C4963 1.366 . S
C4964 C4968 1.385 . S
C4965 H4940 0.951 . S
C4965 C4963 1.388 . S
C4965 C4966 1.366 . S
C4966 C4965 1.366 . S
C4966 C4967 1.414 . S
C4966 C4969 1.499 . S
C4967 H4941 0.950 . S
C4967 C4966 1.414 . S
C4967 C4968 1.374 . S
C4968 H4942 0.950 . S
C4968 C4964 1.385 . S
C4968 C4967 1.374 . S
C4969 C4966 1.499 . S
C4969 C4970 1.373 . S
C4969 C4971 1.389 . S
C4970 H4943 0.950 . S
C4970 C4956 1.377 . S
C4970 C4969 1.373 . S
C4971 C4955 1.377 . S
C4971 C4969 1.389 . S
C4971 C4972 1.524 . S
C4972 C4971 1.524 . S
C4972 C4973 1.397 . S
C4972 C4977 1.363 . S
C4973 H4944 0.950 . S
C4973 C4972 1.397 . S
C4973 C4974 1.334 . S
C4974 H4945 0.950 . S
C4974 C4973 1.334 . S
C4974 C4975 1.287 . S
C4975 C4974 1.287 . S
C4975 C4976 1.524 . S
C4975 H4978 0.999 . S
C4976 H4946 0.950 . S
C4976 C4975 1.524 . S
C4976 C4977 1.415 . S
C4977 H4947 0.950 . S
C4977 C4972 1.363 . S
C4977 C4976 1.415 . S
H4978 C4975 0.999 . S
H4979 C4960 0.913 . S
H4980 C4998 0.951 . S
H4981 C5000 0.951 . S
H4982 C5002 0.950 . S
H4983 C5003 0.950 . S
H4984 C5005 0.950 . S
H4985 C5008 0.950 . S
H4986 C5009 0.950 . S
H4987 C5011 0.950 . S
H4988 C5012 0.950 . S
H4989 C5013 0.951 . S
H4990 C5015 0.951 . S
H4991 C5017 0.950 . S
H4992 C5018 0.950 . S
H4993 C5020 0.950 . S
H4994 C5023 0.950 . S
H4995 C5024 0.950 . S
H4996 C5026 0.950 . S
H4997 C5027 0.950 . S
C4998 H4980 0.951 . S
C4998 C4999 1.366 . S
C4998 C5000 1.388 . S
C4999 C4998 1.366 . S
C4999 C5003 1.385 . S
C5000 H4981 0.951 . S
C5000 C4998 1.388 . S
C5000 C5001 1.366 . S
C5001 C5000 1.366 . S
C5001 C5002 1.414 . S
C5001 C5004 1.499 . S
C5002 H4982 0.950 . S
C5002 C5001 1.414 . S
C5002 C5003 1.374 . S
C5003 H4983 0.950 . S
C5003 C4999 1.385 . S
C5003 C5002 1.374 . S
C5004 C5001 1.499 . S
C5004 C5005 1.373 . S
C5004 C5006 1.389 . S
C5005 H4984 0.950 . S
C5005 C5004 1.373 . S
C5005 C5021 1.377 . S
C5006 C5004 1.389 . S
C5006 C5007 1.524 . S
C5006 C5020 1.377 . S
C5007 C5006 1.524 . S
C5007 C5008 1.397 . S
C5007 C5012 1.363 . S
C5008 H4985 0.950 . S
C5008 C5007 1.397 . S
C5008 C5009 1.334 . S
C5009 H4986 0.950 . S
C5009 C5008 1.334 . S
C5009 C5010 1.287 . S
C5010 C5009 1.287 . S
C5010 C5011 1.524 . S
C5010 H5029 0.913 . S
C5011 H4987 0.950 . S
C5011 C5010 1.524 . S
C5011 C5012 1.415 . S
C5012 H4988 0.950 . S
C5012 C5007 1.363 . S
C5012 C5011 1.415 . S
C5013 H4989 0.951 . S
C5013 C5014 1.366 . S
C5013 C5015 1.388 . S
C5014 C5013 1.366 . S
C5014 C5018 1.385 . S
C5015 H4990 0.951 . S
C5015 C5013 1.388 . S
C5015 C5016 1.366 . S
C5016 C5015 1.366 . S
C5016 C5017 1.414 . S
C5016 C5019 1.499 . S
C5017 H4991 0.950 . S
C5017 C5016 1.414 . S
C5017 C5018 1.374 . S
C5018 H4992 0.950 . S
C5018 C5014 1.385 . S
C5018 C5017 1.374 . S
C5019 C5016 1.499 . S
C5019 C5020 1.373 . S
C5019 C5021 1.389 . S
C5020 H4993 0.950 . S
C5020 C5006 1.377 . S
C5020 C5019 1.373 . S
C5021 C5005 1.377 . S
C5021 C5019 1.389 . S
C5021 C5022 1.524 . S
C5022 C5021 1.524 . S
C5022 C5023 1.397 . S
C5022 C5027 1.363 . S
C5023 H4994 0.950 . S
C5023 C5022 1.397 . S
C5023 C5024 1.334 . S
C5024 H4995 0.950 . S
C5024 C5023 1.334 . S
C5024 C5025 1.287 . S
C5025 C5024 1.287 . S
C5025 C5026 1.524 . S
C5025 H5028 0.999 . S
C5026 H4996 0.950 . S
C5026 C5025 1.524 . S
C5026 C5027 1.415 . S
C5027 H4997 0.950 . S
C5027 C5022 1.363 . S
C5027 C5026 1.415 . S
H5028 C5025 0.999 . S
H5029 C5010 0.913 . S
H5030 C5048 0.965 . S
H5031 C5050 0.951 1_556 S
H5032 C5052 0.950 . S
H5033 C5053 0.950 . S
H5034 C5055 0.950 . S
H5035 C5058 0.950 . S
H5036 C5059 0.950 . S
H5037 C5061 0.950 . S
H5038 C5062 0.950 . S
H5039 C5063 0.951 . S
H5040 C5065 0.981 . S
H5041 C5067 0.926 1_556 S
H5042 C5068 0.950 . S
H5043 C5070 0.950 1_556 S
H5044 C5073 0.950 . S
H5045 C5074 0.950 . S
H5046 C5076 0.950 . S
H5047 C5077 0.950 1_565 S
C5048 H5030 0.965 . S
C5048 C5049 1.350 1_556 S
C5048 C5050 1.389 1_556 S
C5049 C5048 1.350 1_554 S
C5049 C5053 1.385 . S
C5050 H5031 0.951 1_554 S
C5050 C5048 1.389 1_554 S
C5050 C5051 1.366 . S
C5051 C5050 1.366 . S
C5051 C5052 1.414 . S
C5051 C5054 1.499 . S
C5052 H5032 0.950 . S
C5052 C5051 1.414 . S
C5052 C5053 1.374 . S
C5053 H5033 0.950 . S
C5053 C5049 1.385 . S
C5053 C5052 1.374 . S
C5054 C5051 1.499 . S
C5054 C5055 1.373 . S
C5054 C5056 1.389 . S
C5055 H5034 0.950 . S
C5055 C5054 1.373 . S
C5055 C5071 1.377 . S
C5056 C5054 1.389 . S
C5056 C5057 1.524 1_554 S
C5056 C5070 1.377 . S
C5057 C5056 1.524 1_556 S
C5057 C5058 1.397 . S
C5057 C5062 1.363 . S
C5058 H5035 0.950 . S
C5058 C5057 1.397 . S
C5058 C5059 1.334 . S
C5059 H5036 0.950 . S
C5059 C5058 1.334 . S
C5059 C5060 1.287 . S
C5060 C5059 1.287 . S
C5060 C5061 1.524 . S
C5060 H5079 0.913 . S
C5061 H5037 0.950 . S
C5061 C5060 1.524 . S
C5061 C5062 1.415 . S
C5062 H5038 0.950 . S
C5062 C5057 1.363 . S
C5062 C5061 1.415 . S
C5063 H5039 0.951 . S
C5063 C5064 1.366 . S
C5063 C5065 1.388 . S
C5064 C5063 1.366 . S
C5064 C5068 1.385 . S
C5065 H5040 0.981 . S
C5065 C5063 1.388 . S
C5065 C5066 1.366 . S
C5066 C5065 1.366 . S
C5066 C5067 1.414 . S
C5066 C5069 1.499 1_545 S
C5067 H5041 0.926 1_554 S
C5067 C5066 1.414 . S
C5067 C5068 1.374 . S
C5068 H5042 0.950 . S
C5068 C5064 1.385 . S
C5068 C5067 1.374 . S
C5069 C5066 1.499 1_565 S
C5069 C5070 1.373 . S
C5069 C5071 1.389 . S
C5070 H5043 0.950 1_554 S
C5070 C5056 1.377 . S
C5070 C5069 1.373 . S
C5071 C5055 1.377 . S
C5071 C5069 1.389 . S
C5071 C5072 1.524 1_565 S
C5072 C5071 1.524 1_545 S
C5072 C5073 1.397 . S
C5072 C5077 1.363 . S
C5073 H5044 0.950 . S
C5073 C5072 1.397 . S
C5073 C5074 1.334 . S
C5074 H5045 0.950 . S
C5074 C5073 1.334 . S
C5074 C5075 1.287 . S
C5075 C5074 1.287 . S
C5075 C5076 1.524 . S
C5075 H5078 0.999 . S
C5076 H5046 0.950 . S
C5076 C5075 1.524 . S
C5076 C5077 1.415 . S
C5077 H5047 0.950 1_545 S
C5077 C5072 1.363 . S
C5077 C5076 1.415 . S
H5078 C5075 0.999 . S
H5079 C5060 0.913 . S
H5080 C5098 0.951 . S
H5081 C5100 0.951 . S
H5082 C5102 0.950 . S
H5083 C5103 0.950 . S
H5084 C5105 0.950 . S
H5085 C5108 0.950 . S
H5086 C5109 0.950 . S
H5087 C5111 0.950 . S
H5088 C5112 0.950 . S
H5089 C5113 0.951 . S
H5090 C5115 0.951 . S
H5091 C5117 0.950 . S
H5092 C5118 0.950 . S
H5093 C5120 0.950 . S
H5094 C5123 0.950 . S
H5095 C5124 0.950 . S
H5096 C5126 0.950 . S
H5097 C5127 0.950 . S
C5098 H5080 0.951 . S
C5098 C5099 1.366 . S
C5098 C5100 1.388 . S
C5099 C5098 1.366 . S
C5099 C5103 1.385 . S
C5100 H5081 0.951 . S
C5100 C5098 1.388 . S
C5100 C5101 1.366 . S
C5101 C5100 1.366 . S
C5101 C5102 1.414 . S
C5101 C5104 1.499 . S
C5102 H5082 0.950 . S
C5102 C5101 1.414 . S
C5102 C5103 1.374 . S
C5103 H5083 0.950 . S
C5103 C5099 1.385 . S
C5103 C5102 1.374 . S
C5104 C5101 1.499 . S
C5104 C5105 1.373 . S
C5104 C5106 1.389 . S
C5105 H5084 0.950 . S
C5105 C5104 1.373 . S
C5105 C5121 1.377 . S
C5106 C5104 1.389 . S
C5106 C5107 1.524 . S
C5106 C5120 1.377 . S
C5107 C5106 1.524 . S
C5107 C5108 1.397 . S
C5107 C5112 1.363 . S
C5108 H5085 0.950 . S
C5108 C5107 1.397 . S
C5108 C5109 1.334 . S
C5109 H5086 0.950 . S
C5109 C5108 1.334 . S
C5109 C5110 1.287 . S
C5110 C5109 1.287 . S
C5110 C5111 1.524 . S
C5110 H5129 0.913 . S
C5111 H5087 0.950 . S
C5111 C5110 1.524 . S
C5111 C5112 1.415 . S
C5112 H5088 0.950 . S
C5112 C5107 1.363 . S
C5112 C5111 1.415 . S
C5113 H5089 0.951 . S
C5113 C5114 1.366 . S
C5113 C5115 1.388 . S
C5114 C5113 1.366 . S
C5114 C5118 1.385 . S
C5115 H5090 0.951 . S
C5115 C5113 1.388 . S
C5115 C5116 1.366 . S
C5116 C5115 1.366 . S
C5116 C5117 1.414 . S
C5116 C5119 1.499 . S
C5117 H5091 0.950 . S
C5117 C5116 1.414 . S
C5117 C5118 1.374 . S
C5118 H5092 0.950 . S
C5118 C5114 1.385 . S
C5118 C5117 1.374 . S
C5119 C5116 1.499 . S
C5119 C5120 1.373 . S
C5119 C5121 1.389 . S
C5120 H5093 0.950 . S
C5120 C5106 1.377 . S
C5120 C5119 1.373 . S
C5121 C5105 1.377 . S
C5121 C5119 1.389 . S
C5121 C5122 1.524 . S
C5122 C5121 1.524 . S
C5122 C5123 1.397 . S
C5122 C5127 1.363 . S
C5123 H5094 0.950 . S
C5123 C5122 1.397 . S
C5123 C5124 1.334 . S
C5124 H5095 0.950 . S
C5124 C5123 1.334 . S
C5124 C5125 1.287 . S
C5125 C5124 1.287 . S
C5125 C5126 1.524 . S
C5125 H5128 0.999 . S
C5126 H5096 0.950 . S
C5126 C5125 1.524 . S
C5126 C5127 1.415 . S
C5127 H5097 0.950 . S
C5127 C5122 1.363 . S
C5127 C5126 1.415 . S
H5128 C5125 0.999 . S
H5129 C5110 0.913 . S
H5130 C5148 0.951 . S
H5131 C5150 0.951 . S
H5132 C5152 0.950 . S
H5133 C5153 0.950 . S
H5134 C5155 0.950 . S
H5135 C5158 0.950 . S
H5136 C5159 0.950 . S
H5137 C5161 0.950 . S
H5138 C5162 0.937 1_554 S
H5139 C5163 0.951 . S
H5140 C5165 0.951 . S
H5141 C5167 0.950 . S
H5142 C5168 0.950 . S
H5143 C5170 0.950 . S
H5144 C5173 0.950 . S
H5145 C5174 0.950 . S
H5146 C5176 0.950 . S
H5147 C5177 0.950 . S
C5148 H5130 0.951 . S
C5148 C5149 1.366 . S
C5148 C5150 1.388 . S
C5149 C5148 1.366 . S
C5149 C5153 1.385 . S
C5150 H5131 0.951 . S
C5150 C5148 1.388 . S
C5150 C5151 1.366 . S
C5151 C5150 1.366 . S
C5151 C5152 1.414 . S
C5151 C5154 1.499 . S
C5152 H5132 0.950 . S
C5152 C5151 1.414 . S
C5152 C5153 1.374 . S
C5153 H5133 0.950 . S
C5153 C5149 1.385 . S
C5153 C5152 1.374 . S
C5154 C5151 1.499 . S
C5154 C5155 1.373 . S
C5154 C5156 1.389 . S
C5155 H5134 0.950 . S
C5155 C5154 1.373 . S
C5155 C5171 1.377 . S
C5156 C5154 1.389 . S
C5156 C5157 1.524 1_554 S
C5156 C5170 1.377 . S
C5157 C5156 1.524 1_556 S
C5157 C5158 1.397 . S
C5157 C5162 1.360 . S
C5158 H5135 0.950 . S
C5158 C5157 1.397 . S
C5158 C5159 1.334 . S
C5159 H5136 0.950 . S
C5159 C5158 1.334 . S
C5159 C5160 1.287 . S
C5160 C5159 1.287 . S
C5160 C5161 1.524 . S
C5160 H5179 0.913 . S
C5161 H5137 0.950 . S
C5161 C5160 1.524 . S
C5161 C5162 1.431 . S
C5162 H5138 0.937 1_556 S
C5162 C5157 1.360 . S
C5162 C5161 1.431 . S
C5163 H5139 0.951 . S
C5163 C5164 1.366 . S
C5163 C5165 1.388 . S
C5164 C5163 1.366 . S
C5164 C5168 1.385 . S
C5165 H5140 0.951 . S
C5165 C5163 1.388 . S
C5165 C5166 1.366 . S
C5166 C5165 1.366 . S
C5166 C5167 1.414 . S
C5166 C5169 1.499 . S
C5167 H5141 0.950 . S
C5167 C5166 1.414 . S
C5167 C5168 1.374 . S
C5168 H5142 0.950 . S
C5168 C5164 1.385 . S
C5168 C5167 1.374 . S
C5169 C5166 1.499 . S
C5169 C5170 1.373 . S
C5169 C5171 1.389 . S
C5170 H5143 0.950 . S
C5170 C5156 1.377 . S
C5170 C5169 1.373 . S
C5171 C5155 1.377 . S
C5171 C5169 1.389 . S
C5171 C5172 1.524 . S
C5172 C5171 1.524 . S
C5172 C5173 1.397 . S
C5172 C5177 1.363 . S
C5173 H5144 0.950 . S
C5173 C5172 1.397 . S
C5173 C5174 1.334 . S
C5174 H5145 0.950 . S
C5174 C5173 1.334 . S
C5174 C5175 1.287 . S
C5175 C5174 1.287 . S
C5175 C5176 1.524 . S
C5175 H5178 0.999 . S
C5176 H5146 0.950 . S
C5176 C5175 1.524 . S
C5176 C5177 1.415 . S
C5177 H5147 0.950 . S
C5177 C5172 1.363 . S
C5177 C5176 1.415 . S
H5178 C5175 0.999 . S
H5179 C5160 0.913 . S
H5180 C5198 0.951 . S
H5181 C5200 0.951 . S
H5182 C5202 0.950 . S
H5183 C5203 0.950 . S
H5184 C5205 0.950 . S
H5185 C5208 0.950 . S
H5186 C5209 0.950 . S
H5187 C5211 0.950 . S
H5188 C5212 0.950 . S
H5189 C5213 0.951 . S
H5190 C5215 0.951 . S
H5191 C5217 0.950 . S
H5192 C5218 0.950 . S
H5193 C5220 0.950 . S
H5194 C5223 0.950 . S
H5195 C5224 0.950 . S
H5196 C5226 0.950 . S
H5197 C5227 0.950 . S
C5198 H5180 0.951 . S
C5198 C5199 1.366 . S
C5198 C5200 1.388 . S
C5199 C5198 1.366 . S
C5199 C5203 1.385 . S
C5200 H5181 0.951 . S
C5200 C5198 1.388 . S
C5200 C5201 1.366 . S
C5201 C5200 1.366 . S
C5201 C5202 1.414 . S
C5201 C5204 1.499 . S
C5202 H5182 0.950 . S
C5202 C5201 1.414 . S
C5202 C5203 1.374 . S
C5203 H5183 0.950 . S
C5203 C5199 1.385 . S
C5203 C5202 1.374 . S
C5204 C5201 1.499 . S
C5204 C5205 1.373 . S
C5204 C5206 1.389 . S
C5205 H5184 0.950 . S
C5205 C5204 1.373 . S
C5205 C5221 1.377 . S
C5206 C5204 1.389 . S
C5206 C5207 1.524 . S
C5206 C5220 1.377 . S
C5207 C5206 1.524 . S
C5207 C5208 1.397 . S
C5207 C5212 1.363 . S
C5208 H5185 0.950 . S
C5208 C5207 1.397 . S
C5208 C5209 1.334 . S
C5209 H5186 0.950 . S
C5209 C5208 1.334 . S
C5209 C5210 1.287 . S
C5210 C5209 1.287 . S
C5210 C5211 1.524 . S
C5210 H5229 0.913 . S
C5211 H5187 0.950 . S
C5211 C5210 1.524 . S
C5211 C5212 1.415 . S
C5212 H5188 0.950 . S
C5212 C5207 1.363 . S
C5212 C5211 1.415 . S
C5213 H5189 0.951 . S
C5213 C5214 1.366 . S
C5213 C5215 1.388 . S
C5214 C5213 1.366 . S
C5214 C5218 1.385 . S
C5215 H5190 0.951 . S
C5215 C5213 1.388 . S
C5215 C5216 1.366 . S
C5216 C5215 1.366 . S
C5216 C5217 1.414 . S
C5216 C5219 1.499 . S
C5217 H5191 0.950 . S
C5217 C5216 1.414 . S
C5217 C5218 1.374 . S
C5218 H5192 0.950 . S
C5218 C5214 1.385 . S
C5218 C5217 1.374 . S
C5219 C5216 1.499 . S
C5219 C5220 1.373 . S
C5219 C5221 1.389 . S
C5220 H5193 0.950 . S
C5220 C5206 1.377 . S
C5220 C5219 1.373 . S
C5221 C5205 1.377 . S
C5221 C5219 1.389 . S
C5221 C5222 1.524 . S
C5222 C5221 1.524 . S
C5222 C5223 1.397 . S
C5222 C5227 1.363 . S
C5223 H5194 0.950 . S
C5223 C5222 1.397 . S
C5223 C5224 1.334 . S
C5224 H5195 0.950 . S
C5224 C5223 1.334 . S
C5224 C5225 1.287 . S
C5225 C5224 1.287 . S
C5225 C5226 1.524 . S
C5225 H5228 0.999 . S
C5226 H5196 0.950 . S
C5226 C5225 1.524 . S
C5226 C5227 1.415 . S
C5227 H5197 0.950 . S
C5227 C5222 1.363 . S
C5227 C5226 1.415 . S
H5228 C5225 0.999 . S
H5229 C5210 0.913 . S
H5230 C5248 0.951 . S
H5231 C5250 0.951 . S
H5232 C5252 0.950 . S
H5233 C5253 0.950 . S
H5234 C5255 0.950 . S
H5235 C5258 0.950 . S
H5236 C5259 0.950 . S
H5237 C5261 0.950 . S
H5238 C5262 0.950 . S
H5239 C5263 0.951 . S
H5240 C5265 0.951 . S
H5241 C5267 0.950 . S
H5242 C5268 0.950 . S
H5243 C5270 0.950 . S
H5244 C5273 0.950 . S
H5245 C5274 0.950 . S
H5246 C5276 0.950 . S
H5247 C5277 0.950 . S
C5248 H5230 0.951 . S
C5248 C5249 1.366 . S
C5248 C5250 1.388 . S
C5249 C5248 1.366 . S
C5249 C5253 1.385 . S
C5250 H5231 0.951 . S
C5250 C5248 1.388 . S
C5250 C5251 1.366 . S
C5251 C5250 1.366 . S
C5251 C5252 1.414 . S
C5251 C5254 1.499 . S
C5252 H5232 0.950 . S
C5252 C5251 1.414 . S
C5252 C5253 1.374 . S
C5253 H5233 0.950 . S
C5253 C5249 1.385 . S
C5253 C5252 1.374 . S
C5254 C5251 1.499 . S
C5254 C5255 1.373 . S
C5254 C5256 1.389 . S
C5255 H5234 0.950 . S
C5255 C5254 1.373 . S
C5255 C5271 1.377 . S
C5256 C5254 1.389 . S
C5256 C5257 1.524 . S
C5256 C5270 1.377 . S
C5257 C5256 1.524 . S
C5257 C5258 1.397 . S
C5257 C5262 1.363 . S
C5258 H5235 0.950 . S
C5258 C5257 1.397 . S
C5258 C5259 1.334 . S
C5259 H5236 0.950 . S
C5259 C5258 1.334 . S
C5259 C5260 1.287 . S
C5260 C5259 1.287 . S
C5260 C5261 1.524 . S
C5260 H5279 0.913 . S
C5261 H5237 0.950 . S
C5261 C5260 1.524 . S
C5261 C5262 1.415 . S
C5262 H5238 0.950 . S
C5262 C5257 1.363 . S
C5262 C5261 1.415 . S
C5263 H5239 0.951 . S
C5263 C5264 1.366 . S
C5263 C5265 1.388 . S
C5264 C5263 1.366 . S
C5264 C5268 1.385 . S
C5265 H5240 0.951 . S
C5265 C5263 1.388 . S
C5265 C5266 1.366 . S
C5266 C5265 1.366 . S
C5266 C5267 1.414 . S
C5266 C5269 1.499 . S
C5267 H5241 0.950 . S
C5267 C5266 1.414 . S
C5267 C5268 1.374 . S
C5268 H5242 0.950 . S
C5268 C5264 1.385 . S
C5268 C5267 1.374 . S
C5269 C5266 1.499 . S
C5269 C5270 1.373 . S
C5269 C5271 1.389 . S
C5270 H5243 0.950 . S
C5270 C5256 1.377 . S
C5270 C5269 1.373 . S
C5271 C5255 1.377 . S
C5271 C5269 1.389 . S
C5271 C5272 1.524 . S
C5272 C5271 1.524 . S
C5272 C5273 1.397 . S
C5272 C5277 1.363 . S
C5273 H5244 0.950 . S
C5273 C5272 1.397 . S
C5273 C5274 1.334 . S
C5274 H5245 0.950 . S
C5274 C5273 1.334 . S
C5274 C5275 1.287 . S
C5275 C5274 1.287 . S
C5275 C5276 1.524 . S
C5275 H5278 0.999 . S
C5276 H5246 0.950 . S
C5276 C5275 1.524 . S
C5276 C5277 1.415 . S
C5277 H5247 0.950 . S
C5277 C5272 1.363 . S
C5277 C5276 1.415 . S
H5278 C5275 0.999 . S
H5279 C5260 0.913 . S
H5280 C5298 0.951 . S
H5281 C5300 0.951 . S
H5282 C5302 0.950 . S
H5283 C5303 0.950 . S
H5284 C5305 0.950 . S
H5285 C5308 0.950 . S
H5286 C5309 0.950 . S
H5287 C5311 0.950 . S
H5288 C5312 0.950 . S
H5289 C5313 0.951 . S
H5290 C5315 0.951 . S
H5291 C5317 0.950 . S
H5292 C5318 0.950 . S
H5293 C5320 0.950 . S
H5294 C5323 0.950 . S
H5295 C5324 0.950 . S
H5296 C5326 0.950 . S
H5297 C5327 0.950 . S
C5298 H5280 0.951 . S
C5298 C5299 1.366 . S
C5298 C5300 1.388 . S
C5299 C5298 1.366 . S
C5299 C5303 1.385 . S
C5300 H5281 0.951 . S
C5300 C5298 1.388 . S
C5300 C5301 1.366 . S
C5301 C5300 1.366 . S
C5301 C5302 1.414 . S
C5301 C5304 1.499 . S
C5302 H5282 0.950 . S
C5302 C5301 1.414 . S
C5302 C5303 1.374 . S
C5303 H5283 0.950 . S
C5303 C5299 1.385 . S
C5303 C5302 1.374 . S
C5304 C5301 1.499 . S
C5304 C5305 1.373 . S
C5304 C5306 1.389 . S
C5305 H5284 0.950 . S
C5305 C5304 1.373 . S
C5305 C5321 1.377 . S
C5306 C5304 1.389 . S
C5306 C5307 1.524 . S
C5306 C5320 1.377 . S
C5307 C5306 1.524 . S
C5307 C5308 1.397 . S
C5307 C5312 1.363 . S
C5308 H5285 0.950 . S
C5308 C5307 1.397 . S
C5308 C5309 1.334 . S
C5309 H5286 0.950 . S
C5309 C5308 1.334 . S
C5309 C5310 1.287 . S
C5310 C5309 1.287 . S
C5310 C5311 1.524 . S
C5310 H5329 0.913 . S
C5311 H5287 0.950 . S
C5311 C5310 1.524 . S
C5311 C5312 1.415 . S
C5312 H5288 0.950 . S
C5312 C5307 1.363 . S
C5312 C5311 1.415 . S
C5313 H5289 0.951 . S
C5313 C5314 1.366 . S
C5313 C5315 1.388 . S
C5314 C5313 1.366 . S
C5314 C5318 1.385 . S
C5315 H5290 0.951 . S
C5315 C5313 1.388 . S
C5315 C5316 1.366 . S
C5316 C5315 1.366 . S
C5316 C5317 1.414 . S
C5316 C5319 1.499 . S
C5317 H5291 0.950 . S
C5317 C5316 1.414 . S
C5317 C5318 1.374 . S
C5318 H5292 0.950 . S
C5318 C5314 1.385 . S
C5318 C5317 1.374 . S
C5319 C5316 1.499 . S
C5319 C5320 1.373 . S
C5319 C5321 1.389 . S
C5320 H5293 0.950 . S
C5320 C5306 1.377 . S
C5320 C5319 1.373 . S
C5321 C5305 1.377 . S
C5321 C5319 1.389 . S
C5321 C5322 1.524 . S
C5322 C5321 1.524 . S
C5322 C5323 1.397 . S
C5322 C5327 1.363 . S
C5323 H5294 0.950 . S
C5323 C5322 1.397 . S
C5323 C5324 1.334 . S
C5324 H5295 0.950 . S
C5324 C5323 1.334 . S
C5324 C5325 1.287 . S
C5325 C5324 1.287 . S
C5325 C5326 1.524 . S
C5325 H5328 0.999 . S
C5326 H5296 0.950 . S
C5326 C5325 1.524 . S
C5326 C5327 1.415 . S
C5327 H5297 0.950 . S
C5327 C5322 1.363 . S
C5327 C5326 1.415 . S
H5328 C5325 0.999 . S
H5329 C5310 0.913 . S
H5330 C5348 0.951 . S
H5331 C5350 0.951 . S
H5332 C5352 0.950 . S
H5333 C5353 0.950 . S
H5334 C5355 0.950 . S
H5335 C5358 0.950 . S
H5336 C5359 0.950 . S
H5337 C5361 0.950 . S
H5338 C5362 0.950 . S
H5339 C5363 0.951 . S
H5340 C5365 0.951 . S
H5341 C5367 0.950 . S
H5342 C5368 0.950 . S
H5343 C5370 0.950 . S
H5344 C5373 0.950 . S
H5345 C5374 0.950 . S
H5346 C5376 0.950 . S
H5347 C5377 0.950 . S
C5348 H5330 0.951 . S
C5348 C5349 1.366 . S
C5348 C5350 1.388 . S
C5349 C5348 1.366 . S
C5349 C5353 1.385 . S
C5350 H5331 0.951 . S
C5350 C5348 1.388 . S
C5350 C5351 1.366 . S
C5351 C5350 1.366 . S
C5351 C5352 1.414 . S
C5351 C5354 1.499 . S
C5352 H5332 0.950 . S
C5352 C5351 1.414 . S
C5352 C5353 1.374 . S
C5353 H5333 0.950 . S
C5353 C5349 1.385 . S
C5353 C5352 1.374 . S
C5354 C5351 1.499 . S
C5354 C5355 1.373 . S
C5354 C5356 1.389 . S
C5355 H5334 0.950 . S
C5355 C5354 1.373 . S
C5355 C5371 1.377 . S
C5356 C5354 1.389 . S
C5356 C5357 1.524 . S
C5356 C5370 1.377 . S
C5357 C5356 1.524 . S
C5357 C5358 1.397 . S
C5357 C5362 1.363 . S
C5358 H5335 0.950 . S
C5358 C5357 1.397 . S
C5358 C5359 1.334 . S
C5359 H5336 0.950 . S
C5359 C5358 1.334 . S
C5359 C5360 1.287 . S
C5360 C5359 1.287 . S
C5360 C5361 1.524 . S
C5360 H5379 0.913 . S
C5361 H5337 0.950 . S
C5361 C5360 1.524 . S
C5361 C5362 1.415 . S
C5362 H5338 0.950 . S
C5362 C5357 1.363 . S
C5362 C5361 1.415 . S
C5363 H5339 0.951 . S
C5363 C5364 1.366 . S
C5363 C5365 1.388 . S
C5364 C5363 1.366 . S
C5364 C5368 1.385 . S
C5365 H5340 0.951 . S
C5365 C5363 1.388 . S
C5365 C5366 1.366 . S
C5366 C5365 1.366 . S
C5366 C5367 1.414 . S
C5366 C5369 1.499 . S
C5367 H5341 0.950 . S
C5367 C5366 1.414 . S
C5367 C5368 1.374 . S
C5368 H5342 0.950 . S
C5368 C5364 1.385 . S
C5368 C5367 1.374 . S
C5369 C5366 1.499 . S
C5369 C5370 1.373 . S
C5369 C5371 1.389 . S
C5370 H5343 0.950 . S
C5370 C5356 1.377 . S
C5370 C5369 1.373 . S
C5371 C5355 1.377 . S
C5371 C5369 1.389 . S
C5371 C5372 1.524 . S
C5372 C5371 1.524 . S
C5372 C5373 1.397 . S
C5372 C5377 1.363 . S
C5373 H5344 0.950 . S
C5373 C5372 1.397 . S
C5373 C5374 1.334 . S
C5374 H5345 0.950 . S
C5374 C5373 1.334 . S
C5374 C5375 1.287 . S
C5375 C5374 1.287 . S
C5375 C5376 1.524 . S
C5375 H5378 0.999 . S
C5376 H5346 0.950 . S
C5376 C5375 1.524 . S
C5376 C5377 1.415 . S
C5377 H5347 0.950 . S
C5377 C5372 1.363 . S
C5377 C5376 1.415 . S
H5378 C5375 0.999 . S
H5379 C5360 0.913 . S
H5380 C5398 0.951 . S
H5381 C5400 0.951 . S
H5382 C5402 0.950 . S
H5383 C5403 0.950 . S
H5384 C5405 0.950 . S
H5385 C5408 0.950 . S
H5386 C5409 0.950 . S
H5387 C5411 0.950 . S
H5388 C5412 0.950 . S
H5389 C5413 0.951 . S
H5390 C5415 0.951 . S
H5391 C5417 0.950 . S
H5392 C5418 0.950 . S
H5393 C5420 0.950 . S
H5394 C5423 0.950 . S
H5395 C5424 0.950 . S
H5396 C5426 0.936 1_655 S
H5397 C5427 0.950 . S
C5398 H5380 0.951 . S
C5398 C5399 1.366 . S
C5398 C5400 1.388 . S
C5399 C5398 1.366 . S
C5399 C5403 1.385 . S
C5400 H5381 0.951 . S
C5400 C5398 1.388 . S
C5400 C5401 1.366 . S
C5401 C5400 1.366 . S
C5401 C5402 1.414 . S
C5401 C5404 1.499 . S
C5402 H5382 0.950 . S
C5402 C5401 1.414 . S
C5402 C5403 1.374 . S
C5403 H5383 0.950 . S
C5403 C5399 1.385 . S
C5403 C5402 1.374 . S
C5404 C5401 1.499 . S
C5404 C5405 1.373 . S
C5404 C5406 1.389 . S
C5405 H5384 0.950 . S
C5405 C5404 1.373 . S
C5405 C5421 1.377 . S
C5406 C5404 1.389 . S
C5406 C5407 1.524 . S
C5406 C5420 1.377 . S
C5407 C5406 1.524 . S
C5407 C5408 1.397 . S
C5407 C5412 1.363 . S
C5408 H5385 0.950 . S
C5408 C5407 1.397 . S
C5408 C5409 1.334 . S
C5409 H5386 0.950 . S
C5409 C5408 1.334 . S
C5409 C5410 1.287 . S
C5410 C5409 1.287 . S
C5410 C5411 1.524 . S
C5410 H5429 0.913 . S
C5411 H5387 0.950 . S
C5411 C5410 1.524 . S
C5411 C5412 1.415 . S
C5412 H5388 0.950 . S
C5412 C5407 1.363 . S
C5412 C5411 1.415 . S
C5413 H5389 0.951 . S
C5413 C5414 1.366 . S
C5413 C5415 1.388 . S
C5414 C5413 1.366 . S
C5414 C5418 1.385 . S
C5415 H5390 0.951 . S
C5415 C5413 1.388 . S
C5415 C5416 1.366 . S
C5416 C5415 1.366 . S
C5416 C5417 1.414 . S
C5416 C5419 1.499 . S
C5417 H5391 0.950 . S
C5417 C5416 1.414 . S
C5417 C5418 1.374 . S
C5418 H5392 0.950 . S
C5418 C5414 1.385 . S
C5418 C5417 1.374 . S
C5419 C5416 1.499 . S
C5419 C5420 1.373 . S
C5419 C5421 1.389 . S
C5420 H5393 0.950 . S
C5420 C5406 1.377 . S
C5420 C5419 1.373 . S
C5421 C5405 1.377 . S
C5421 C5419 1.389 . S
C5421 C5422 1.524 . S
C5422 C5421 1.524 . S
C5422 C5423 1.397 . S
C5422 C5427 1.363 . S
C5423 H5394 0.950 . S
C5423 C5422 1.397 . S
C5423 C5424 1.334 . S
C5424 H5395 0.950 . S
C5424 C5423 1.334 . S
C5424 C5425 1.247 1_455 S
C5425 C5424 1.247 1_655 S
C5425 C5426 1.530 1_655 S
C5425 H5428 1.042 . S
C5426 H5396 0.936 1_455 S
C5426 C5425 1.530 1_455 S
C5426 C5427 1.430 . S
C5427 H5397 0.950 . S
C5427 C5422 1.363 . S
C5427 C5426 1.430 . S
H5428 C5425 1.042 . S
H5429 C5410 0.913 . S
H5430 C5448 0.951 . S
H5431 C5450 0.951 . S
H5432 C5452 0.950 . S
H5433 C5453 0.950 . S
H5434 C5455 0.950 . S
H5435 C5458 0.950 . S
H5436 C5459 0.950 . S
H5437 C5461 0.950 . S
H5438 C5462 0.950 . S
H5439 C5463 0.951 . S
H5440 C5465 0.951 . S
H5441 C5467 0.950 . S
H5442 C5468 0.950 . S
H5443 C5470 0.950 . S
H5444 C5473 0.950 . S
H5445 C5474 0.950 . S
H5446 C5476 0.950 . S
H5447 C5477 0.950 . S
C5448 H5430 0.951 . S
C5448 C5449 1.366 . S
C5448 C5450 1.388 . S
C5449 C5448 1.366 . S
C5449 C5453 1.385 . S
C5450 H5431 0.951 . S
C5450 C5448 1.388 . S
C5450 C5451 1.366 . S
C5451 C5450 1.366 . S
C5451 C5452 1.414 . S
C5451 C5454 1.499 . S
C5452 H5432 0.950 . S
C5452 C5451 1.414 . S
C5452 C5453 1.374 . S
C5453 H5433 0.950 . S
C5453 C5449 1.385 . S
C5453 C5452 1.374 . S
C5454 C5451 1.499 . S
C5454 C5455 1.373 . S
C5454 C5456 1.389 . S
C5455 H5434 0.950 . S
C5455 C5454 1.373 . S
C5455 C5471 1.377 . S
C5456 C5454 1.389 . S
C5456 C5457 1.524 . S
C5456 C5470 1.377 . S
C5457 C5456 1.524 . S
C5457 C5458 1.397 . S
C5457 C5462 1.363 . S
C5458 H5435 0.950 . S
C5458 C5457 1.397 . S
C5458 C5459 1.334 . S
C5459 H5436 0.950 . S
C5459 C5458 1.334 . S
C5459 C5460 1.287 . S
C5460 C5459 1.287 . S
C5460 C5461 1.524 . S
C5460 H5479 0.913 . S
C5461 H5437 0.950 . S
C5461 C5460 1.524 . S
C5461 C5462 1.415 . S
C5462 H5438 0.950 . S
C5462 C5457 1.363 . S
C5462 C5461 1.415 . S
C5463 H5439 0.951 . S
C5463 C5464 1.366 . S
C5463 C5465 1.388 . S
C5464 C5463 1.366 . S
C5464 C5468 1.385 . S
C5465 H5440 0.951 . S
C5465 C5463 1.388 . S
C5465 C5466 1.366 . S
C5466 C5465 1.366 . S
C5466 C5467 1.414 . S
C5466 C5469 1.499 . S
C5467 H5441 0.950 . S
C5467 C5466 1.414 . S
C5467 C5468 1.374 . S
C5468 H5442 0.950 . S
C5468 C5464 1.385 . S
C5468 C5467 1.374 . S
C5469 C5466 1.499 . S
C5469 C5470 1.373 . S
C5469 C5471 1.389 . S
C5470 H5443 0.950 . S
C5470 C5456 1.377 . S
C5470 C5469 1.373 . S
C5471 C5455 1.377 . S
C5471 C5469 1.389 . S
C5471 C5472 1.524 . S
C5472 C5471 1.524 . S
C5472 C5473 1.397 . S
C5472 C5477 1.363 . S
C5473 H5444 0.950 . S
C5473 C5472 1.397 . S
C5473 C5474 1.334 . S
C5474 H5445 0.950 . S
C5474 C5473 1.334 . S
C5474 C5475 1.287 . S
C5475 C5474 1.287 . S
C5475 C5476 1.524 . S
C5475 H5478 0.999 . S
C5476 H5446 0.950 . S
C5476 C5475 1.524 . S
C5476 C5477 1.415 . S
C5477 H5447 0.950 . S
C5477 C5472 1.363 . S
C5477 C5476 1.415 . S
H5478 C5475 0.999 . S
H5479 C5460 0.913 . S
H5480 C5498 0.951 . S
H5481 C5500 0.951 . S
H5482 C5502 0.950 . S
H5483 C5503 0.950 . S
H5484 C5505 0.950 . S
H5485 C5508 0.950 . S
H5486 C5509 0.950 . S
H5487 C5511 0.950 . S
H5488 C5512 0.950 . S
H5489 C5513 0.951 . S
H5490 C5515 0.951 . S
H5491 C5517 0.950 . S
H5492 C5518 0.950 . S
H5493 C5520 0.950 . S
H5494 C5523 0.950 . S
H5495 C5524 0.950 . S
H5496 C5526 0.950 . S
H5497 C5527 0.950 . S
C5498 H5480 0.951 . S
C5498 C5499 1.366 . S
C5498 C5500 1.388 . S
C5499 C5498 1.366 . S
C5499 C5503 1.385 . S
C5500 H5481 0.951 . S
C5500 C5498 1.388 . S
C5500 C5501 1.366 . S
C5501 C5500 1.366 . S
C5501 C5502 1.414 . S
C5501 C5504 1.499 . S
C5502 H5482 0.950 . S
C5502 C5501 1.414 . S
C5502 C5503 1.374 . S
C5503 H5483 0.950 . S
C5503 C5499 1.385 . S
C5503 C5502 1.374 . S
C5504 C5501 1.499 . S
C5504 C5505 1.373 . S
C5504 C5506 1.389 . S
C5505 H5484 0.950 . S
C5505 C5504 1.373 . S
C5505 C5521 1.377 . S
C5506 C5504 1.389 . S
C5506 C5507 1.524 . S
C5506 C5520 1.377 . S
C5507 C5506 1.524 . S
C5507 C5508 1.397 . S
C5507 C5512 1.363 . S
C5508 H5485 0.950 . S
C5508 C5507 1.397 . S
C5508 C5509 1.334 . S
C5509 H5486 0.950 . S
C5509 C5508 1.334 . S
C5509 C5510 1.287 . S
C5510 C5509 1.287 . S
C5510 C5511 1.524 . S
C5510 H5529 0.913 . S
C5511 H5487 0.950 . S
C5511 C5510 1.524 . S
C5511 C5512 1.415 . S
C5512 H5488 0.950 . S
C5512 C5507 1.363 . S
C5512 C5511 1.415 . S
C5513 H5489 0.951 . S
C5513 C5514 1.366 1_554 S
C5513 C5515 1.388 1_554 S
C5514 C5513 1.366 1_556 S
C5514 C5518 1.385 . S
C5515 H5490 0.951 . S
C5515 C5513 1.388 1_556 S
C5515 C5516 1.366 . S
C5516 C5515 1.366 . S
C5516 C5517 1.414 . S
C5516 C5519 1.499 . S
C5517 H5491 0.950 . S
C5517 C5516 1.414 . S
C5517 C5518 1.374 . S
C5518 H5492 0.950 . S
C5518 C5514 1.385 . S
C5518 C5517 1.374 . S
C5519 C5516 1.499 . S
C5519 C5520 1.373 . S
C5519 C5521 1.389 . S
C5520 H5493 0.950 . S
C5520 C5506 1.377 . S
C5520 C5519 1.373 . S
C5521 C5505 1.377 . S
C5521 C5519 1.389 . S
C5521 C5522 1.524 . S
C5522 C5521 1.524 . S
C5522 C5523 1.397 . S
C5522 C5527 1.363 . S
C5523 H5494 0.950 . S
C5523 C5522 1.397 . S
C5523 C5524 1.334 . S
C5524 H5495 0.950 . S
C5524 C5523 1.334 . S
C5524 C5525 1.287 . S
C5525 C5524 1.287 . S
C5525 C5526 1.524 1_556 S
C5525 H5528 0.999 1_556 S
C5526 H5496 0.950 . S
C5526 C5525 1.524 1_554 S
C5526 C5527 1.415 1_554 S
C5527 H5497 0.950 . S
C5527 C5522 1.363 . S
C5527 C5526 1.415 1_556 S
H5528 C5525 0.999 1_554 S
H5529 C5510 0.913 . S
H5530 C5548 0.951 . S
H5531 C5550 0.951 . S
H5532 C5552 0.950 . S
H5533 C5553 0.950 . S
H5534 C5555 0.950 . S
H5535 C5558 0.950 . S
H5536 C5559 0.950 . S
H5537 C5561 0.950 . S
H5538 C5562 0.950 . S
H5539 C5563 0.951 . S
H5540 C5565 0.951 . S
H5541 C5567 0.950 . S
H5542 C5568 0.950 . S
H5543 C5570 0.950 . S
H5544 C5573 0.950 . S
H5545 C5574 0.950 . S
H5546 C5576 0.950 . S
H5547 C5577 0.950 . S
C5548 H5530 0.951 . S
C5548 C5549 1.366 . S
C5548 C5550 1.388 . S
C5549 C5548 1.366 . S
C5549 C5553 1.385 . S
C5550 H5531 0.951 . S
C5550 C5548 1.388 . S
C5550 C5551 1.366 . S
C5551 C5550 1.366 . S
C5551 C5552 1.414 . S
C5551 C5554 1.499 . S
C5552 H5532 0.950 . S
C5552 C5551 1.414 . S
C5552 C5553 1.374 . S
C5553 H5533 0.950 . S
C5553 C5549 1.385 . S
C5553 C5552 1.374 . S
C5554 C5551 1.499 . S
C5554 C5555 1.373 . S
C5554 C5556 1.389 . S
C5555 H5534 0.950 . S
C5555 C5554 1.373 . S
C5555 C5571 1.377 . S
C5556 C5554 1.389 . S
C5556 C5557 1.524 . S
C5556 C5570 1.377 . S
C5557 C5556 1.524 . S
C5557 C5558 1.397 . S
C5557 C5562 1.363 . S
C5558 H5535 0.950 . S
C5558 C5557 1.397 . S
C5558 C5559 1.334 . S
C5559 H5536 0.950 . S
C5559 C5558 1.334 . S
C5559 C5560 1.287 . S
C5560 C5559 1.287 . S
C5560 C5561 1.524 . S
C5560 H5579 0.913 . S
C5561 H5537 0.950 . S
C5561 C5560 1.524 . S
C5561 C5562 1.415 . S
C5562 H5538 0.950 . S
C5562 C5557 1.363 . S
C5562 C5561 1.415 . S
C5563 H5539 0.951 . S
C5563 C5564 1.366 . S
C5563 C5565 1.388 . S
C5564 C5563 1.366 . S
C5564 C5568 1.385 . S
C5565 H5540 0.951 . S
C5565 C5563 1.388 . S
C5565 C5566 1.366 . S
C5566 C5565 1.366 . S
C5566 C5567 1.414 . S
C5566 C5569 1.499 . S
C5567 H5541 0.950 . S
C5567 C5566 1.414 . S
C5567 C5568 1.374 . S
C5568 H5542 0.950 . S
C5568 C5564 1.385 . S
C5568 C5567 1.374 . S
C5569 C5566 1.499 . S
C5569 C5570 1.373 . S
C5569 C5571 1.389 . S
C5570 H5543 0.950 . S
C5570 C5556 1.377 . S
C5570 C5569 1.373 . S
C5571 C5555 1.377 . S
C5571 C5569 1.389 . S
C5571 C5572 1.524 . S
C5572 C5571 1.524 . S
C5572 C5573 1.397 . S
C5572 C5577 1.363 . S
C5573 H5544 0.950 . S
C5573 C5572 1.397 . S
C5573 C5574 1.334 . S
C5574 H5545 0.950 . S
C5574 C5573 1.334 . S
C5574 C5575 1.287 . S
C5575 C5574 1.287 . S
C5575 C5576 1.524 . S
C5575 H5578 0.999 . S
C5576 H5546 0.950 . S
C5576 C5575 1.524 . S
C5576 C5577 1.415 . S
C5577 H5547 0.950 . S
C5577 C5572 1.363 . S
C5577 C5576 1.415 . S
H5578 C5575 0.999 . S
H5579 C5560 0.913 . S
H5580 C5598 0.951 . S
H5581 C5600 0.951 . S
H5582 C5602 0.950 . S
H5583 C5603 0.950 . S
H5584 C5605 0.950 . S
H5585 C5608 0.950 . S
H5586 C5609 0.950 . S
H5587 C5611 0.950 . S
H5588 C5612 0.950 . S
H5589 C5613 0.951 . S
H5590 C5615 0.951 . S
H5591 C5617 0.950 . S
H5592 C5618 0.950 . S
H5593 C5620 0.950 . S
H5594 C5623 0.950 . S
H5595 C5624 0.950 . S
H5596 C5626 0.950 . S
H5597 C5627 0.950 . S
C5598 H5580 0.951 . S
C5598 C5599 1.366 . S
C5598 C5600 1.388 . S
C5599 C5598 1.366 . S
C5599 C5603 1.385 . S
C5600 H5581 0.951 . S
C5600 C5598 1.388 . S
C5600 C5601 1.366 . S
C5601 C5600 1.366 . S
C5601 C5602 1.414 . S
C5601 C5604 1.499 . S
C5602 H5582 0.950 . S
C5602 C5601 1.414 . S
C5602 C5603 1.374 . S
C5603 H5583 0.950 . S
C5603 C5599 1.385 . S
C5603 C5602 1.374 . S
C5604 C5601 1.499 . S
C5604 C5605 1.373 . S
C5604 C5606 1.389 . S
C5605 H5584 0.950 . S
C5605 C5604 1.373 . S
C5605 C5621 1.377 . S
C5606 C5604 1.389 . S
C5606 C5607 1.524 . S
C5606 C5620 1.377 . S
C5607 C5606 1.524 . S
C5607 C5608 1.397 . S
C5607 C5612 1.363 . S
C5608 H5585 0.950 . S
C5608 C5607 1.397 . S
C5608 C5609 1.334 . S
C5609 H5586 0.950 . S
C5609 C5608 1.334 . S
C5609 C5610 1.287 . S
C5610 C5609 1.287 . S
C5610 C5611 1.524 . S
C5610 H5629 0.913 . S
C5611 H5587 0.950 . S
C5611 C5610 1.524 . S
C5611 C5612 1.415 . S
C5612 H5588 0.950 . S
C5612 C5607 1.363 . S
C5612 C5611 1.415 . S
C5613 H5589 0.951 . S
C5613 C5614 1.366 . S
C5613 C5615 1.388 . S
C5614 C5613 1.366 . S
C5614 C5618 1.385 . S
C5615 H5590 0.951 . S
C5615 C5613 1.388 . S
C5615 C5616 1.366 . S
C5616 C5615 1.366 . S
C5616 C5617 1.414 . S
C5616 C5619 1.499 . S
C5617 H5591 0.950 . S
C5617 C5616 1.414 . S
C5617 C5618 1.374 . S
C5618 H5592 0.950 . S
C5618 C5614 1.385 . S
C5618 C5617 1.374 . S
C5619 C5616 1.499 . S
C5619 C5620 1.373 . S
C5619 C5621 1.389 . S
C5620 H5593 0.950 . S
C5620 C5606 1.377 . S
C5620 C5619 1.373 . S
C5621 C5605 1.377 . S
C5621 C5619 1.389 . S
C5621 C5622 1.524 . S
C5622 C5621 1.524 . S
C5622 C5623 1.397 . S
C5622 C5627 1.363 . S
C5623 H5594 0.950 . S
C5623 C5622 1.397 . S
C5623 C5624 1.334 . S
C5624 H5595 0.950 . S
C5624 C5623 1.334 . S
C5624 C5625 1.287 . S
C5625 C5624 1.287 . S
C5625 C5626 1.524 . S
C5625 H5628 0.999 . S
C5626 H5596 0.950 . S
C5626 C5625 1.524 . S
C5626 C5627 1.415 . S
C5627 H5597 0.950 . S
C5627 C5622 1.363 . S
C5627 C5626 1.415 . S
H5628 C5625 0.999 . S
H5629 C5610 0.913 . S
H5630 C5648 0.951 . S
H5631 C5650 0.951 . S
H5632 C5652 0.950 . S
H5633 C5653 0.950 . S
H5634 C5655 0.950 . S
H5635 C5658 0.950 . S
H5636 C5659 0.950 . S
H5637 C5661 0.950 . S
H5638 C5662 0.950 . S
H5639 C5663 0.951 . S
H5640 C5665 0.951 . S
H5641 C5667 0.950 . S
H5642 C5668 0.950 . S
H5643 C5670 0.950 . S
H5644 C5673 0.950 . S
H5645 C5674 0.950 . S
H5646 C5676 0.950 . S
H5647 C5677 0.950 . S
C5648 H5630 0.951 . S
C5648 C5649 1.366 . S
C5648 C5650 1.388 . S
C5649 C5648 1.366 . S
C5649 C5653 1.385 . S
C5650 H5631 0.951 . S
C5650 C5648 1.388 . S
C5650 C5651 1.366 . S
C5651 C5650 1.366 . S
C5651 C5652 1.414 . S
C5651 C5654 1.499 . S
C5652 H5632 0.950 . S
C5652 C5651 1.414 . S
C5652 C5653 1.374 . S
C5653 H5633 0.950 . S
C5653 C5649 1.385 . S
C5653 C5652 1.374 . S
C5654 C5651 1.499 . S
C5654 C5655 1.373 . S
C5654 C5656 1.389 . S
C5655 H5634 0.950 . S
C5655 C5654 1.373 . S
C5655 C5671 1.377 . S
C5656 C5654 1.389 . S
C5656 C5657 1.524 . S
C5656 C5670 1.377 . S
C5657 C5656 1.524 . S
C5657 C5658 1.397 . S
C5657 C5662 1.363 . S
C5658 H5635 0.950 . S
C5658 C5657 1.397 . S
C5658 C5659 1.334 . S
C5659 H5636 0.950 . S
C5659 C5658 1.334 . S
C5659 C5660 1.287 . S
C5660 C5659 1.287 . S
C5660 C5661 1.524 . S
C5660 H5679 0.913 . S
C5661 H5637 0.950 . S
C5661 C5660 1.524 . S
C5661 C5662 1.415 . S
C5662 H5638 0.950 . S
C5662 C5657 1.363 . S
C5662 C5661 1.415 . S
C5663 H5639 0.951 . S
C5663 C5664 1.366 . S
C5663 C5665 1.388 . S
C5664 C5663 1.366 . S
C5664 C5668 1.385 . S
C5665 H5640 0.951 . S
C5665 C5663 1.388 . S
C5665 C5666 1.366 . S
C5666 C5665 1.366 . S
C5666 C5667 1.414 . S
C5666 C5669 1.499 . S
C5667 H5641 0.950 . S
C5667 C5666 1.414 . S
C5667 C5668 1.374 . S
C5668 H5642 0.950 . S
C5668 C5664 1.385 . S
C5668 C5667 1.374 . S
C5669 C5666 1.499 . S
C5669 C5670 1.373 . S
C5669 C5671 1.389 . S
C5670 H5643 0.950 . S
C5670 C5656 1.377 . S
C5670 C5669 1.373 . S
C5671 C5655 1.377 . S
C5671 C5669 1.389 . S
C5671 C5672 1.524 . S
C5672 C5671 1.524 . S
C5672 C5673 1.397 . S
C5672 C5677 1.363 . S
C5673 H5644 0.950 . S
C5673 C5672 1.397 . S
C5673 C5674 1.334 . S
C5674 H5645 0.950 . S
C5674 C5673 1.334 . S
C5674 C5675 1.287 . S
C5675 C5674 1.287 . S
C5675 C5676 1.524 . S
C5675 H5678 0.999 . S
C5676 H5646 0.950 . S
C5676 C5675 1.524 . S
C5676 C5677 1.415 . S
C5677 H5647 0.950 . S
C5677 C5672 1.363 . S
C5677 C5676 1.415 . S
H5678 C5675 0.999 . S
H5679 C5660 0.913 . S
H5680 C5698 0.951 . S
H5681 C5700 0.951 . S
H5682 C5702 0.950 . S
H5683 C5703 0.950 . S
H5684 C5705 0.950 . S
H5685 C5708 0.950 . S
H5686 C5709 0.950 . S
H5687 C5711 0.950 . S
H5688 C5712 0.950 . S
H5689 C5713 0.951 . S
H5690 C5715 0.951 . S
H5691 C5717 0.950 . S
H5692 C5718 0.950 . S
H5693 C5720 0.950 . S
H5694 C5723 0.950 . S
H5695 C5724 0.950 . S
H5696 C5726 0.950 . S
H5697 C5727 0.950 . S
C5698 H5680 0.951 . S
C5698 C5699 1.366 . S
C5698 C5700 1.388 . S
C5699 C5698 1.366 . S
C5699 C5703 1.385 . S
C5700 H5681 0.951 . S
C5700 C5698 1.388 . S
C5700 C5701 1.366 . S
C5701 C5700 1.366 . S
C5701 C5702 1.414 . S
C5701 C5704 1.499 . S
C5702 H5682 0.950 . S
C5702 C5701 1.414 . S
C5702 C5703 1.374 . S
C5703 H5683 0.950 . S
C5703 C5699 1.385 . S
C5703 C5702 1.374 . S
C5704 C5701 1.499 . S
C5704 C5705 1.373 . S
C5704 C5706 1.389 . S
C5705 H5684 0.950 . S
C5705 C5704 1.373 . S
C5705 C5721 1.377 . S
C5706 C5704 1.389 . S
C5706 C5707 1.524 . S
C5706 C5720 1.377 . S
C5707 C5706 1.524 . S
C5707 C5708 1.397 . S
C5707 C5712 1.363 . S
C5708 H5685 0.950 . S
C5708 C5707 1.397 . S
C5708 C5709 1.334 . S
C5709 H5686 0.950 . S
C5709 C5708 1.334 . S
C5709 C5710 1.287 . S
C5710 C5709 1.287 . S
C5710 C5711 1.524 . S
C5710 H5729 0.913 . S
C5711 H5687 0.950 . S
C5711 C5710 1.524 . S
C5711 C5712 1.415 . S
C5712 H5688 0.950 . S
C5712 C5707 1.363 . S
C5712 C5711 1.415 . S
C5713 H5689 0.951 . S
C5713 C5714 1.366 . S
C5713 C5715 1.388 . S
C5714 C5713 1.366 . S
C5714 C5718 1.385 . S
C5715 H5690 0.951 . S
C5715 C5713 1.388 . S
C5715 C5716 1.366 . S
C5716 C5715 1.366 . S
C5716 C5717 1.414 . S
C5716 C5719 1.499 . S
C5717 H5691 0.950 . S
C5717 C5716 1.414 . S
C5717 C5718 1.374 . S
C5718 H5692 0.950 . S
C5718 C5714 1.385 . S
C5718 C5717 1.374 . S
C5719 C5716 1.499 . S
C5719 C5720 1.373 . S
C5719 C5721 1.389 . S
C5720 H5693 0.950 . S
C5720 C5706 1.377 . S
C5720 C5719 1.373 . S
C5721 C5705 1.377 . S
C5721 C5719 1.389 . S
C5721 C5722 1.524 . S
C5722 C5721 1.524 . S
C5722 C5723 1.397 . S
C5722 C5727 1.363 . S
C5723 H5694 0.950 . S
C5723 C5722 1.397 . S
C5723 C5724 1.334 . S
C5724 H5695 0.950 . S
C5724 C5723 1.334 . S
C5724 C5725 1.287 . S
C5725 C5724 1.287 . S
C5725 C5726 1.524 . S
C5725 H5728 0.999 . S
C5726 H5696 0.950 . S
C5726 C5725 1.524 . S
C5726 C5727 1.415 . S
C5727 H5697 0.950 . S
C5727 C5722 1.363 . S
C5727 C5726 1.415 . S
H5728 C5725 0.999 . S
H5729 C5710 0.913 . S
H5730 C5748 0.951 . S
H5731 C5750 0.951 . S
H5732 C5752 0.950 . S
H5733 C5753 0.950 . S
H5734 C5755 0.950 . S
H5735 C5758 0.950 . S
H5736 C5759 0.950 . S
H5737 C5761 0.950 . S
H5738 C5762 0.950 . S
H5739 C5763 0.951 . S
H5740 C5765 0.951 . S
H5741 C5767 0.950 . S
H5742 C5768 0.950 . S
H5743 C5770 0.950 . S
H5744 C5773 0.950 . S
H5745 C5774 0.950 . S
H5746 C5776 0.950 . S
H5747 C5777 0.950 . S
C5748 H5730 0.951 . S
C5748 C5749 1.366 . S
C5748 C5750 1.388 . S
C5749 C5748 1.366 . S
C5749 C5753 1.385 . S
C5750 H5731 0.951 . S
C5750 C5748 1.388 . S
C5750 C5751 1.366 . S
C5751 C5750 1.366 . S
C5751 C5752 1.414 . S
C5751 C5754 1.499 . S
C5752 H5732 0.950 . S
C5752 C5751 1.414 . S
C5752 C5753 1.374 . S
C5753 H5733 0.950 . S
C5753 C5749 1.385 . S
C5753 C5752 1.374 . S
C5754 C5751 1.499 . S
C5754 C5755 1.373 . S
C5754 C5756 1.389 . S
C5755 H5734 0.950 . S
C5755 C5754 1.373 . S
C5755 C5771 1.377 . S
C5756 C5754 1.389 . S
C5756 C5757 1.524 . S
C5756 C5770 1.377 . S
C5757 C5756 1.524 . S
C5757 C5758 1.397 . S
C5757 C5762 1.363 . S
C5758 H5735 0.950 . S
C5758 C5757 1.397 . S
C5758 C5759 1.334 . S
C5759 H5736 0.950 . S
C5759 C5758 1.334 . S
C5759 C5760 1.287 . S
C5760 C5759 1.287 . S
C5760 C5761 1.524 . S
C5760 H5779 0.913 . S
C5761 H5737 0.950 . S
C5761 C5760 1.524 . S
C5761 C5762 1.415 . S
C5762 H5738 0.950 . S
C5762 C5757 1.363 . S
C5762 C5761 1.415 . S
C5763 H5739 0.951 . S
C5763 C5764 1.366 . S
C5763 C5765 1.388 . S
C5764 C5763 1.366 . S
C5764 C5768 1.385 . S
C5765 H5740 0.951 . S
C5765 C5763 1.388 . S
C5765 C5766 1.366 . S
C5766 C5765 1.366 . S
C5766 C5767 1.414 . S
C5766 C5769 1.499 . S
C5767 H5741 0.950 . S
C5767 C5766 1.414 . S
C5767 C5768 1.374 . S
C5768 H5742 0.950 . S
C5768 C5764 1.385 . S
C5768 C5767 1.374 . S
C5769 C5766 1.499 . S
C5769 C5770 1.373 . S
C5769 C5771 1.389 . S
C5770 H5743 0.950 . S
C5770 C5756 1.377 . S
C5770 C5769 1.373 . S
C5771 C5755 1.377 . S
C5771 C5769 1.389 . S
C5771 C5772 1.524 . S
C5772 C5771 1.524 . S
C5772 C5773 1.397 . S
C5772 C5777 1.363 . S
C5773 H5744 0.950 . S
C5773 C5772 1.397 . S
C5773 C5774 1.334 . S
C5774 H5745 0.950 . S
C5774 C5773 1.334 . S
C5774 C5775 1.287 . S
C5775 C5774 1.287 . S
C5775 C5776 1.524 . S
C5775 H5778 0.999 . S
C5776 H5746 0.950 . S
C5776 C5775 1.524 . S
C5776 C5777 1.415 . S
C5777 H5747 0.950 . S
C5777 C5772 1.363 . S
C5777 C5776 1.415 . S
H5778 C5775 0.999 . S
H5779 C5760 0.913 . S
H5780 C5798 0.951 . S
H5781 C5800 0.951 . S
H5782 C5802 0.950 . S
H5783 C5803 0.950 . S
H5784 C5805 0.950 . S
H5785 C5808 0.953 . S
H5786 C5809 0.950 . S
H5787 C5811 0.950 . S
H5788 C5812 0.950 . S
H5789 C5813 0.951 . S
H5790 C5815 0.951 . S
H5791 C5817 0.950 . S
H5792 C5818 0.950 1_554 S
H5793 C5820 0.943 1_455 S
H5794 C5823 0.950 . S
H5795 C5824 0.950 . S
H5796 C5826 0.950 . S
H5797 C5827 0.950 . S
C5798 H5780 0.951 . S
C5798 C5799 1.366 . S
C5798 C5800 1.388 . S
C5799 C5798 1.366 . S
C5799 C5803 1.385 . S
C5800 H5781 0.951 . S
C5800 C5798 1.388 . S
C5800 C5801 1.366 . S
C5801 C5800 1.366 . S
C5801 C5802 1.414 . S
C5801 C5804 1.499 . S
C5802 H5782 0.950 . S
C5802 C5801 1.414 . S
C5802 C5803 1.374 . S
C5803 H5783 0.950 . S
C5803 C5799 1.385 . S
C5803 C5802 1.374 . S
C5804 C5801 1.499 . S
C5804 C5805 1.373 . S
C5804 C5806 1.389 . S
C5805 H5784 0.950 . S
C5805 C5804 1.373 . S
C5805 C5821 1.377 . S
C5806 C5804 1.389 . S
C5806 C5807 1.524 . S
C5806 C5820 1.385 . S
C5807 C5806 1.524 . S
C5807 C5808 1.390 1_655 S
C5807 C5812 1.363 . S
C5808 H5785 0.953 . S
C5808 C5807 1.390 1_455 S
C5808 C5809 1.336 . S
C5809 H5786 0.950 . S
C5809 C5808 1.336 . S
C5809 C5810 1.287 . S
C5810 C5809 1.287 . S
C5810 C5811 1.524 . S
C5810 H5829 0.913 . S
C5811 H5787 0.950 . S
C5811 C5810 1.524 . S
C5811 C5812 1.415 1_455 S
C5812 H5788 0.950 . S
C5812 C5807 1.363 . S
C5812 C5811 1.415 1_655 S
C5813 H5789 0.951 . S
C5813 C5814 1.366 . S
C5813 C5815 1.388 . S
C5814 C5813 1.366 . S
C5814 C5818 1.385 . S
C5815 H5790 0.951 . S
C5815 C5813 1.388 . S
C5815 C5816 1.366 . S
C5816 C5815 1.366 . S
C5816 C5817 1.414 . S
C5816 C5819 1.499 1_455 S
C5817 H5791 0.950 . S
C5817 C5816 1.414 . S
C5817 C5818 1.374 . S
C5818 H5792 0.950 1_556 S
C5818 C5814 1.385 . S
C5818 C5817 1.374 . S
C5819 C5816 1.499 1_655 S
C5819 C5820 1.372 . S
C5819 C5821 1.389 . S
C5820 H5793 0.943 1_655 S
C5820 C5806 1.385 . S
C5820 C5819 1.372 . S
C5821 C5805 1.377 . S
C5821 C5819 1.389 . S
C5821 C5822 1.524 . S
C5822 C5821 1.524 . S
C5822 C5823 1.397 . S
C5822 C5827 1.363 . S
C5823 H5794 0.950 . S
C5823 C5822 1.397 . S
C5823 C5824 1.334 . S
C5824 H5795 0.950 . S
C5824 C5823 1.334 . S
C5824 C5825 1.287 . S
C5825 C5824 1.287 . S
C5825 C5826 1.524 . S
C5825 H5828 0.999 . S
C5826 H5796 0.950 . S
C5826 C5825 1.524 . S
C5826 C5827 1.415 . S
C5827 H5797 0.950 . S
C5827 C5822 1.363 . S
C5827 C5826 1.415 . S
H5828 C5825 0.999 . S
H5829 C5810 0.913 . S
H5830 C5848 0.951 . S
H5831 C5850 0.951 . S
H5832 C5852 0.950 . S
H5833 C5853 0.950 . S
H5834 C5855 0.950 . S
H5835 C5858 0.950 . S
H5836 C5859 0.950 . S
H5837 C5861 0.950 . S
H5838 C5862 0.950 . S
H5839 C5863 0.951 . S
H5840 C5865 0.951 . S
H5841 C5867 0.950 . S
H5842 C5868 0.950 . S
H5843 C5870 0.950 . S
H5844 C5873 0.950 . S
H5845 C5874 0.950 . S
H5846 C5876 0.950 . S
H5847 C5877 0.950 . S
C5848 H5830 0.951 . S
C5848 C5849 1.366 . S
C5848 C5850 1.388 . S
C5849 C5848 1.366 . S
C5849 C5853 1.385 . S
C5850 H5831 0.951 . S
C5850 C5848 1.388 . S
C5850 C5851 1.366 . S
C5851 C5850 1.366 . S
C5851 C5852 1.414 . S
C5851 C5854 1.499 . S
C5852 H5832 0.950 . S
C5852 C5851 1.414 . S
C5852 C5853 1.374 . S
C5853 H5833 0.950 . S
C5853 C5849 1.385 . S
C5853 C5852 1.374 . S
C5854 C5851 1.499 . S
C5854 C5855 1.373 . S
C5854 C5856 1.389 . S
C5855 H5834 0.950 . S
C5855 C5854 1.373 . S
C5855 C5871 1.377 . S
C5856 C5854 1.389 . S
C5856 C5857 1.524 . S
C5856 C5870 1.377 . S
C5857 C5856 1.524 . S
C5857 C5858 1.397 . S
C5857 C5862 1.363 . S
C5858 H5835 0.950 . S
C5858 C5857 1.397 . S
C5858 C5859 1.334 . S
C5859 H5836 0.950 . S
C5859 C5858 1.334 . S
C5859 C5860 1.287 . S
C5860 C5859 1.287 . S
C5860 C5861 1.524 . S
C5860 H5879 0.913 . S
C5861 H5837 0.950 . S
C5861 C5860 1.524 . S
C5861 C5862 1.415 . S
C5862 H5838 0.950 . S
C5862 C5857 1.363 . S
C5862 C5861 1.415 . S
C5863 H5839 0.951 . S
C5863 C5864 1.366 . S
C5863 C5865 1.388 . S
C5864 C5863 1.366 . S
C5864 C5868 1.385 . S
C5865 H5840 0.951 . S
C5865 C5863 1.388 . S
C5865 C5866 1.366 . S
C5866 C5865 1.366 . S
C5866 C5867 1.414 . S
C5866 C5869 1.499 . S
C5867 H5841 0.950 . S
C5867 C5866 1.414 . S
C5867 C5868 1.374 . S
C5868 H5842 0.950 . S
C5868 C5864 1.385 . S
C5868 C5867 1.374 . S
C5869 C5866 1.499 . S
C5869 C5870 1.373 . S
C5869 C5871 1.389 . S
C5870 H5843 0.950 . S
C5870 C5856 1.377 . S
C5870 C5869 1.373 . S
C5871 C5855 1.377 . S
C5871 C5869 1.389 . S
C5871 C5872 1.524 . S
C5872 C5871 1.524 . S
C5872 C5873 1.397 . S
C5872 C5877 1.363 . S
C5873 H5844 0.950 . S
C5873 C5872 1.397 . S
C5873 C5874 1.334 . S
C5874 H5845 0.950 . S
C5874 C5873 1.334 . S
C5874 C5875 1.287 . S
C5875 C5874 1.287 . S
C5875 C5876 1.524 . S
C5875 H5878 0.999 . S
C5876 H5846 0.950 . S
C5876 C5875 1.524 . S
C5876 C5877 1.415 . S
C5877 H5847 0.950 . S
C5877 C5872 1.363 . S
C5877 C5876 1.415 . S
H5878 C5875 0.999 . S
H5879 C5860 0.913 . S
H5880 C5898 0.951 . S
H5881 C5900 0.951 . S
H5882 C5902 0.950 . S
H5883 C5903 0.950 . S
H5884 C5905 0.950 . S
H5885 C5908 0.950 . S
H5886 C5909 0.950 . S
H5887 C5911 0.950 . S
H5888 C5912 0.950 . S
H5889 C5913 0.951 . S
H5890 C5915 0.951 . S
H5891 C5917 0.950 . S
H5892 C5918 0.950 . S
H5893 C5920 0.950 . S
H5894 C5923 0.950 . S
H5895 C5924 0.950 . S
H5896 C5926 0.950 . S
H5897 C5927 0.950 . S
C5898 H5880 0.951 . S
C5898 C5899 1.366 . S
C5898 C5900 1.388 . S
C5899 C5898 1.366 . S
C5899 C5903 1.385 . S
C5900 H5881 0.951 . S
C5900 C5898 1.388 . S
C5900 C5901 1.366 . S
C5901 C5900 1.366 . S
C5901 C5902 1.414 . S
C5901 C5904 1.499 . S
C5902 H5882 0.950 . S
C5902 C5901 1.414 . S
C5902 C5903 1.374 . S
C5903 H5883 0.950 . S
C5903 C5899 1.385 . S
C5903 C5902 1.374 . S
C5904 C5901 1.499 . S
C5904 C5905 1.373 . S
C5904 C5906 1.389 . S
C5905 H5884 0.950 . S
C5905 C5904 1.373 . S
C5905 C5921 1.377 . S
C5906 C5904 1.389 . S
C5906 C5907 1.524 . S
C5906 C5920 1.377 . S
C5907 C5906 1.524 . S
C5907 C5908 1.397 . S
C5907 C5912 1.363 . S
C5908 H5885 0.950 . S
C5908 C5907 1.397 . S
C5908 C5909 1.334 . S
C5909 H5886 0.950 . S
C5909 C5908 1.334 . S
C5909 C5910 1.287 . S
C5910 C5909 1.287 . S
C5910 C5911 1.524 . S
C5910 H5929 0.913 . S
C5911 H5887 0.950 . S
C5911 C5910 1.524 . S
C5911 C5912 1.415 . S
C5912 H5888 0.950 . S
C5912 C5907 1.363 . S
C5912 C5911 1.415 . S
C5913 H5889 0.951 . S
C5913 C5914 1.366 . S
C5913 C5915 1.388 . S
C5914 C5913 1.366 . S
C5914 C5918 1.385 . S
C5915 H5890 0.951 . S
C5915 C5913 1.388 . S
C5915 C5916 1.366 . S
C5916 C5915 1.366 . S
C5916 C5917 1.414 . S
C5916 C5919 1.499 . S
C5917 H5891 0.950 . S
C5917 C5916 1.414 . S
C5917 C5918 1.374 . S
C5918 H5892 0.950 . S
C5918 C5914 1.385 . S
C5918 C5917 1.374 . S
C5919 C5916 1.499 . S
C5919 C5920 1.373 . S
C5919 C5921 1.389 . S
C5920 H5893 0.950 . S
C5920 C5906 1.377 . S
C5920 C5919 1.373 . S
C5921 C5905 1.377 . S
C5921 C5919 1.389 . S
C5921 C5922 1.524 . S
C5922 C5921 1.524 . S
C5922 C5923 1.397 . S
C5922 C5927 1.363 . S
C5923 H5894 0.950 . S
C5923 C5922 1.397 . S
C5923 C5924 1.334 . S
C5924 H5895 0.950 . S
C5924 C5923 1.334 . S
C5924 C5925 1.287 . S
C5925 C5924 1.287 . S
C5925 C5926 1.524 . S
C5925 H5928 0.999 . S
C5926 H5896 0.950 . S
C5926 C5925 1.524 . S
C5926 C5927 1.415 . S
C5927 H5897 0.950 . S
C5927 C5922 1.363 . S
C5927 C5926 1.415 . S
H5928 C5925 0.999 . S
H5929 C5910 0.913 . S
H5930 C5948 0.951 . S
H5931 C5950 0.951 . S
H5932 C5952 0.950 . S
H5933 C5953 0.950 . S
H5934 C5955 0.950 . S
H5935 C5958 0.950 . S
H5936 C5959 0.950 . S
H5937 C5961 0.950 . S
H5938 C5962 0.950 . S
H5939 C5963 0.951 . S
H5940 C5965 0.951 . S
H5941 C5967 0.950 . S
H5942 C5968 0.950 . S
H5943 C5970 0.950 . S
H5944 C5973 0.950 . S
H5945 C5974 0.950 . S
H5946 C5976 0.950 . S
H5947 C5977 0.950 . S
C5948 H5930 0.951 . S
C5948 C5949 1.366 . S
C5948 C5950 1.388 . S
C5949 C5948 1.366 . S
C5949 C5953 1.385 . S
C5950 H5931 0.951 . S
C5950 C5948 1.388 . S
C5950 C5951 1.366 . S
C5951 C5950 1.366 . S
C5951 C5952 1.414 . S
C5951 C5954 1.499 . S
C5952 H5932 0.950 . S
C5952 C5951 1.414 . S
C5952 C5953 1.374 . S
C5953 H5933 0.950 . S
C5953 C5949 1.385 . S
C5953 C5952 1.374 . S
C5954 C5951 1.499 . S
C5954 C5955 1.373 . S
C5954 C5956 1.389 . S
C5955 H5934 0.950 . S
C5955 C5954 1.373 . S
C5955 C5971 1.377 . S
C5956 C5954 1.389 . S
C5956 C5957 1.524 . S
C5956 C5970 1.377 . S
C5957 C5956 1.524 . S
C5957 C5958 1.397 . S
C5957 C5962 1.363 . S
C5958 H5935 0.950 . S
C5958 C5957 1.397 . S
C5958 C5959 1.334 . S
C5959 H5936 0.950 . S
C5959 C5958 1.334 . S
C5959 C5960 1.287 . S
C5960 C5959 1.287 . S
C5960 C5961 1.524 . S
C5960 H5979 0.913 . S
C5961 H5937 0.950 . S
C5961 C5960 1.524 . S
C5961 C5962 1.415 . S
C5962 H5938 0.950 . S
C5962 C5957 1.363 . S
C5962 C5961 1.415 . S
C5963 H5939 0.951 . S
C5963 C5964 1.366 . S
C5963 C5965 1.388 . S
C5964 C5963 1.366 . S
C5964 C5968 1.385 . S
C5965 H5940 0.951 . S
C5965 C5963 1.388 . S
C5965 C5966 1.366 . S
C5966 C5965 1.366 . S
C5966 C5967 1.414 . S
C5966 C5969 1.499 . S
C5967 H5941 0.950 . S
C5967 C5966 1.414 . S
C5967 C5968 1.374 . S
C5968 H5942 0.950 . S
C5968 C5964 1.385 . S
C5968 C5967 1.374 . S
C5969 C5966 1.499 . S
C5969 C5970 1.373 . S
C5969 C5971 1.389 . S
C5970 H5943 0.950 . S
C5970 C5956 1.377 . S
C5970 C5969 1.373 . S
C5971 C5955 1.377 . S
C5971 C5969 1.389 . S
C5971 C5972 1.524 . S
C5972 C5971 1.524 . S
C5972 C5973 1.397 . S
C5972 C5977 1.363 . S
C5973 H5944 0.950 . S
C5973 C5972 1.397 . S
C5973 C5974 1.334 . S
C5974 H5945 0.950 . S
C5974 C5973 1.334 . S
C5974 C5975 1.287 . S
C5975 C5974 1.287 . S
C5975 C5976 1.524 . S
C5975 H5978 0.999 . S
C5976 H5946 0.950 . S
C5976 C5975 1.524 . S
C5976 C5977 1.415 . S
C5977 H5947 0.950 . S
C5977 C5972 1.363 . S
C5977 C5976 1.415 . S
H5978 C5975 0.999 . S
H5979 C5960 0.913 . S
H5980 C5998 0.951 . S
H5981 C6000 0.951 . S
H5982 C6002 0.950 . S
H5983 C6003 0.950 . S
H5984 C6005 0.950 . S
H5985 C6008 0.950 . S
H5986 C6009 0.950 . S
H5987 C6011 0.950 . S
H5988 C6012 0.950 . S
H5989 C6013 0.951 . S
H5990 C6015 0.951 . S
H5991 C6017 0.950 . S
H5992 C6018 0.950 . S
H5993 C6020 0.950 . S
H5994 C6023 0.950 1_655 S
H5995 C6024 0.950 . S
H5996 C6026 0.950 . S
H5997 C6027 0.950 . S
C5998 H5980 0.951 . S
C5998 C5999 1.366 . S
C5998 C6000 1.388 . S
C5999 C5998 1.366 . S
C5999 C6003 1.385 . S
C6000 H5981 0.951 . S
C6000 C5998 1.388 . S
C6000 C6001 1.366 . S
C6001 C6000 1.366 . S
C6001 C6002 1.414 . S
C6001 C6004 1.499 . S
C6002 H5982 0.950 . S
C6002 C6001 1.414 . S
C6002 C6003 1.374 . S
C6003 H5983 0.950 . S
C6003 C5999 1.385 . S
C6003 C6002 1.374 . S
C6004 C6001 1.499 . S
C6004 C6005 1.373 . S
C6004 C6006 1.389 . S
C6005 H5984 0.950 . S
C6005 C6004 1.373 . S
C6005 C6021 1.377 . S
C6006 C6004 1.389 . S
C6006 C6007 1.524 . S
C6006 C6020 1.377 . S
C6007 C6006 1.524 . S
C6007 C6008 1.397 . S
C6007 C6012 1.363 . S
C6008 H5985 0.950 . S
C6008 C6007 1.397 . S
C6008 C6009 1.334 . S
C6009 H5986 0.950 . S
C6009 C6008 1.334 . S
C6009 C6010 1.287 . S
C6010 C6009 1.287 . S
C6010 C6011 1.524 . S
C6010 H6029 0.913 . S
C6011 H5987 0.950 . S
C6011 C6010 1.524 . S
C6011 C6012 1.415 . S
C6012 H5988 0.950 . S
C6012 C6007 1.363 . S
C6012 C6011 1.415 . S
C6013 H5989 0.951 . S
C6013 C6014 1.366 . S
C6013 C6015 1.388 . S
C6014 C6013 1.366 . S
C6014 C6018 1.385 1_455 S
C6015 H5990 0.951 . S
C6015 C6013 1.388 . S
C6015 C6016 1.366 1_455 S
C6016 C6015 1.366 1_655 S
C6016 C6017 1.414 . S
C6016 C6019 1.499 . S
C6017 H5991 0.950 . S
C6017 C6016 1.414 . S
C6017 C6018 1.374 . S
C6018 H5992 0.950 . S
C6018 C6014 1.385 1_655 S
C6018 C6017 1.374 . S
C6019 C6016 1.499 . S
C6019 C6020 1.373 . S
C6019 C6021 1.389 . S
C6020 H5993 0.950 . S
C6020 C6006 1.377 . S
C6020 C6019 1.373 . S
C6021 C6005 1.377 . S
C6021 C6019 1.389 . S
C6021 C6022 1.524 1_655 S
C6022 C6021 1.524 1_455 S
C6022 C6023 1.397 . S
C6022 C6027 1.363 . S
C6023 H5994 0.950 1_455 S
C6023 C6022 1.397 . S
C6023 C6024 1.334 . S
C6024 H5995 0.950 . S
C6024 C6023 1.334 . S
C6024 C6025 1.287 . S
C6025 C6024 1.287 . S
C6025 C6026 1.524 . S
C6025 H6028 0.999 . S
C6026 H5996 0.950 . S
C6026 C6025 1.524 . S
C6026 C6027 1.415 . S
C6027 H5997 0.950 . S
C6027 C6022 1.363 . S
C6027 C6026 1.415 . S
H6028 C6025 0.999 . S
H6029 C6010 0.913 . S
H6030 C6048 0.951 . S
H6031 C6050 0.951 . S
H6032 C6052 0.950 . S
H6033 C6053 0.950 . S
H6034 C6055 0.950 . S
H6035 C6058 0.950 . S
H6036 C6059 0.950 . S
H6037 C6061 0.950 . S
H6038 C6062 0.950 . S
H6039 C6063 0.951 . S
H6040 C6065 0.951 . S
H6041 C6067 0.950 . S
H6042 C6068 0.950 . S
H6043 C6070 0.950 . S
H6044 C6073 0.950 . S
H6045 C6074 0.950 . S
H6046 C6076 0.950 . S
H6047 C6077 0.950 . S
C6048 H6030 0.951 . S
C6048 C6049 1.366 . S
C6048 C6050 1.388 . S
C6049 C6048 1.366 . S
C6049 C6053 1.385 . S
C6050 H6031 0.951 . S
C6050 C6048 1.388 . S
C6050 C6051 1.366 . S
C6051 C6050 1.366 . S
C6051 C6052 1.414 . S
C6051 C6054 1.499 . S
C6052 H6032 0.950 . S
C6052 C6051 1.414 . S
C6052 C6053 1.374 . S
C6053 H6033 0.950 . S
C6053 C6049 1.385 . S
C6053 C6052 1.374 . S
C6054 C6051 1.499 . S
C6054 C6055 1.373 . S
C6054 C6056 1.389 . S
C6055 H6034 0.950 . S
C6055 C6054 1.373 . S
C6055 C6071 1.377 . S
C6056 C6054 1.389 . S
C6056 C6057 1.524 . S
C6056 C6070 1.377 . S
C6057 C6056 1.524 . S
C6057 C6058 1.397 . S
C6057 C6062 1.363 . S
C6058 H6035 0.950 . S
C6058 C6057 1.397 . S
C6058 C6059 1.334 . S
C6059 H6036 0.950 . S
C6059 C6058 1.334 . S
C6059 C6060 1.287 . S
C6060 C6059 1.287 . S
C6060 C6061 1.524 . S
C6060 H6079 0.913 . S
C6061 H6037 0.950 . S
C6061 C6060 1.524 . S
C6061 C6062 1.415 . S
C6062 H6038 0.950 . S
C6062 C6057 1.363 . S
C6062 C6061 1.415 . S
C6063 H6039 0.951 . S
C6063 C6064 1.366 . S
C6063 C6065 1.388 . S
C6064 C6063 1.366 . S
C6064 C6068 1.385 . S
C6065 H6040 0.951 . S
C6065 C6063 1.388 . S
C6065 C6066 1.366 . S
C6066 C6065 1.366 . S
C6066 C6067 1.414 . S
C6066 C6069 1.499 . S
C6067 H6041 0.950 . S
C6067 C6066 1.414 . S
C6067 C6068 1.374 . S
C6068 H6042 0.950 . S
C6068 C6064 1.385 . S
C6068 C6067 1.374 . S
C6069 C6066 1.499 . S
C6069 C6070 1.373 . S
C6069 C6071 1.389 . S
C6070 H6043 0.950 . S
C6070 C6056 1.377 . S
C6070 C6069 1.373 . S
C6071 C6055 1.377 . S
C6071 C6069 1.389 . S
C6071 C6072 1.524 . S
C6072 C6071 1.524 . S
C6072 C6073 1.397 . S
C6072 C6077 1.363 . S
C6073 H6044 0.950 . S
C6073 C6072 1.397 . S
C6073 C6074 1.334 . S
C6074 H6045 0.950 . S
C6074 C6073 1.334 . S
C6074 C6075 1.287 . S
C6075 C6074 1.287 . S
C6075 C6076 1.524 . S
C6075 H6078 0.999 . S
C6076 H6046 0.950 . S
C6076 C6075 1.524 . S
C6076 C6077 1.415 . S
C6077 H6047 0.950 . S
C6077 C6072 1.363 . S
C6077 C6076 1.415 . S
H6078 C6075 0.999 . S
H6079 C6060 0.913 . S
H6080 C6098 0.951 . S
H6081 C6100 0.951 . S
H6082 C6102 0.950 . S
H6083 C6103 0.950 . S
H6084 C6105 0.950 . S
H6085 C6108 0.950 . S
H6086 C6109 0.950 . S
H6087 C6111 0.950 . S
H6088 C6112 0.950 . S
H6089 C6113 0.951 . S
H6090 C6115 0.951 . S
H6091 C6117 0.950 . S
H6092 C6118 0.950 . S
H6093 C6120 0.950 . S
H6094 C6123 0.950 . S
H6095 C6124 0.950 . S
H6096 C6126 0.950 . S
H6097 C6127 0.950 . S
C6098 H6080 0.951 . S
C6098 C6099 1.366 . S
C6098 C6100 1.388 . S
C6099 C6098 1.366 . S
C6099 C6103 1.385 . S
C6100 H6081 0.951 . S
C6100 C6098 1.388 . S
C6100 C6101 1.366 . S
C6101 C6100 1.366 . S
C6101 C6102 1.414 . S
C6101 C6104 1.499 . S
C6102 H6082 0.950 . S
C6102 C6101 1.414 . S
C6102 C6103 1.374 . S
C6103 H6083 0.950 . S
C6103 C6099 1.385 . S
C6103 C6102 1.374 . S
C6104 C6101 1.499 . S
C6104 C6105 1.373 . S
C6104 C6106 1.389 . S
C6105 H6084 0.950 . S
C6105 C6104 1.373 . S
C6105 C6121 1.377 . S
C6106 C6104 1.389 . S
C6106 C6107 1.524 . S
C6106 C6120 1.377 . S
C6107 C6106 1.524 . S
C6107 C6108 1.397 . S
C6107 C6112 1.363 . S
C6108 H6085 0.950 . S
C6108 C6107 1.397 . S
C6108 C6109 1.334 . S
C6109 H6086 0.950 . S
C6109 C6108 1.334 . S
C6109 C6110 1.287 . S
C6110 C6109 1.287 . S
C6110 C6111 1.524 . S
C6110 H6129 0.913 . S
C6111 H6087 0.950 . S
C6111 C6110 1.524 . S
C6111 C6112 1.415 . S
C6112 H6088 0.950 . S
C6112 C6107 1.363 . S
C6112 C6111 1.415 . S
C6113 H6089 0.951 . S
C6113 C6114 1.366 . S
C6113 C6115 1.388 . S
C6114 C6113 1.366 . S
C6114 C6118 1.385 . S
C6115 H6090 0.951 . S
C6115 C6113 1.388 . S
C6115 C6116 1.366 . S
C6116 C6115 1.366 . S
C6116 C6117 1.414 . S
C6116 C6119 1.499 . S
C6117 H6091 0.950 . S
C6117 C6116 1.414 . S
C6117 C6118 1.374 . S
C6118 H6092 0.950 . S
C6118 C6114 1.385 . S
C6118 C6117 1.374 . S
C6119 C6116 1.499 . S
C6119 C6120 1.373 . S
C6119 C6121 1.389 . S
C6120 H6093 0.950 . S
C6120 C6106 1.377 . S
C6120 C6119 1.373 . S
C6121 C6105 1.377 . S
C6121 C6119 1.389 . S
C6121 C6122 1.524 . S
C6122 C6121 1.524 . S
C6122 C6123 1.397 . S
C6122 C6127 1.363 . S
C6123 H6094 0.950 . S
C6123 C6122 1.397 . S
C6123 C6124 1.334 . S
C6124 H6095 0.950 . S
C6124 C6123 1.334 . S
C6124 C6125 1.287 . S
C6125 C6124 1.287 . S
C6125 C6126 1.524 . S
C6125 H6128 0.999 . S
C6126 H6096 0.950 . S
C6126 C6125 1.524 . S
C6126 C6127 1.415 . S
C6127 H6097 0.950 . S
C6127 C6122 1.363 . S
C6127 C6126 1.415 . S
H6128 C6125 0.999 . S
H6129 C6110 0.913 . S
H6130 C6148 0.951 . S
H6131 C6150 0.951 . S
H6132 C6152 0.950 . S
H6133 C6153 0.950 . S
H6134 C6155 0.950 . S
H6135 C6158 0.950 . S
H6136 C6159 0.950 . S
H6137 C6161 0.950 . S
H6138 C6162 0.950 . S
H6139 C6163 0.951 1_455 S
H6140 C6165 0.951 . S
H6141 C6167 0.953 1_545 S
H6142 C6168 0.950 . S
H6143 C6170 0.950 . S
H6144 C6173 0.941 1_545 S
H6145 C6174 0.950 . S
H6146 C6176 0.950 . S
H6147 C6177 0.950 . S
C6148 H6130 0.951 . S
C6148 C6149 1.366 . S
C6148 C6150 1.388 . S
C6149 C6148 1.366 . S
C6149 C6153 1.385 . S
C6150 H6131 0.951 . S
C6150 C6148 1.388 . S
C6150 C6151 1.366 . S
C6151 C6150 1.366 . S
C6151 C6152 1.414 . S
C6151 C6154 1.499 . S
C6152 H6132 0.950 . S
C6152 C6151 1.414 . S
C6152 C6153 1.374 . S
C6153 H6133 0.950 . S
C6153 C6149 1.385 . S
C6153 C6152 1.374 . S
C6154 C6151 1.499 . S
C6154 C6155 1.373 . S
C6154 C6156 1.389 . S
C6155 H6134 0.950 . S
C6155 C6154 1.373 . S
C6155 C6171 1.377 . S
C6156 C6154 1.389 . S
C6156 C6157 1.524 . S
C6156 C6170 1.377 . S
C6157 C6156 1.524 . S
C6157 C6158 1.397 . S
C6157 C6162 1.363 . S
C6158 H6135 0.950 . S
C6158 C6157 1.397 . S
C6158 C6159 1.334 . S
C6159 H6136 0.950 . S
C6159 C6158 1.334 . S
C6159 C6160 1.287 . S
C6160 C6159 1.287 . S
C6160 C6161 1.524 . S
C6160 H6179 0.913 . S
C6161 H6137 0.950 . S
C6161 C6160 1.524 . S
C6161 C6162 1.415 . S
C6162 H6138 0.950 . S
C6162 C6157 1.363 . S
C6162 C6161 1.415 . S
C6163 H6139 0.951 1_655 S
C6163 C6164 1.365 1_565 S
C6163 C6165 1.388 . S
C6164 C6163 1.365 1_545 S
C6164 C6168 1.439 . S
C6165 H6140 0.951 . S
C6165 C6163 1.388 . S
C6165 C6166 1.366 . S
C6166 C6165 1.366 . S
C6166 C6167 1.410 . S
C6166 C6169 1.499 . S
C6167 H6141 0.953 1_565 S
C6167 C6166 1.410 . S
C6167 C6168 1.376 1_565 S
C6168 H6142 0.950 . S
C6168 C6164 1.439 . S
C6168 C6167 1.376 1_545 S
C6169 C6166 1.499 . S
C6169 C6170 1.373 . S
C6169 C6171 1.389 . S
C6170 H6143 0.950 . S
C6170 C6156 1.377 . S
C6170 C6169 1.373 . S
C6171 C6155 1.377 . S
C6171 C6169 1.389 . S
C6171 C6172 1.524 . S
C6172 C6171 1.524 . S
C6172 C6173 1.409 . S
C6172 C6177 1.363 . S
C6173 H6144 0.941 1_565 S
C6173 C6172 1.409 . S
C6173 C6174 1.331 1_565 S
C6174 H6145 0.950 . S
C6174 C6173 1.331 1_545 S
C6174 C6175 1.316 . S
C6175 C6174 1.316 . S
C6175 C6176 1.484 1_545 S
C6175 H6178 1.008 . S
C6176 H6146 0.950 . S
C6176 C6175 1.484 1_565 S
C6176 C6177 1.415 . S
C6177 H6147 0.950 . S
C6177 C6172 1.363 . S
C6177 C6176 1.415 . S
H6178 C6175 1.008 . S
H6179 C6160 0.913 . S
H6180 C6198 0.951 . S
H6181 C6200 0.951 . S
H6182 C6202 0.950 . S
H6183 C6203 0.950 . S
H6184 C6205 0.950 . S
H6185 C6208 0.950 . S
H6186 C6209 0.950 . S
H6187 C6211 0.950 . S
H6188 C6212 0.950 . S
H6189 C6213 0.951 . S
H6190 C6215 0.951 . S
H6191 C6217 0.950 . S
H6192 C6218 0.950 . S
H6193 C6220 0.950 . S
H6194 C6223 0.950 . S
H6195 C6224 0.950 . S
H6196 C6226 0.950 . S
H6197 C6227 0.950 . S
C6198 H6180 0.951 . S
C6198 C6199 1.366 . S
C6198 C6200 1.388 . S
C6199 C6198 1.366 . S
C6199 C6203 1.385 . S
C6200 H6181 0.951 . S
C6200 C6198 1.388 . S
C6200 C6201 1.366 . S
C6201 C6200 1.366 . S
C6201 C6202 1.414 . S
C6201 C6204 1.499 . S
C6202 H6182 0.950 . S
C6202 C6201 1.414 . S
C6202 C6203 1.374 . S
C6203 H6183 0.950 . S
C6203 C6199 1.385 . S
C6203 C6202 1.374 . S
C6204 C6201 1.499 . S
C6204 C6205 1.373 . S
C6204 C6206 1.389 . S
C6205 H6184 0.950 . S
C6205 C6204 1.373 . S
C6205 C6221 1.377 . S
C6206 C6204 1.389 . S
C6206 C6207 1.524 . S
C6206 C6220 1.377 . S
C6207 C6206 1.524 . S
C6207 C6208 1.397 . S
C6207 C6212 1.363 . S
C6208 H6185 0.950 . S
C6208 C6207 1.397 . S
C6208 C6209 1.334 . S
C6209 H6186 0.950 . S
C6209 C6208 1.334 . S
C6209 C6210 1.287 . S
C6210 C6209 1.287 . S
C6210 C6211 1.524 . S
C6210 H6229 0.913 . S
C6211 H6187 0.950 . S
C6211 C6210 1.524 . S
C6211 C6212 1.415 . S
C6212 H6188 0.950 . S
C6212 C6207 1.363 . S
C6212 C6211 1.415 . S
C6213 H6189 0.951 . S
C6213 C6214 1.366 . S
C6213 C6215 1.388 . S
C6214 C6213 1.366 . S
C6214 C6218 1.385 . S
C6215 H6190 0.951 . S
C6215 C6213 1.388 . S
C6215 C6216 1.366 . S
C6216 C6215 1.366 . S
C6216 C6217 1.414 . S
C6216 C6219 1.499 . S
C6217 H6191 0.950 . S
C6217 C6216 1.414 . S
C6217 C6218 1.374 . S
C6218 H6192 0.950 . S
C6218 C6214 1.385 . S
C6218 C6217 1.374 . S
C6219 C6216 1.499 . S
C6219 C6220 1.373 . S
C6219 C6221 1.389 . S
C6220 H6193 0.950 . S
C6220 C6206 1.377 . S
C6220 C6219 1.373 . S
C6221 C6205 1.377 . S
C6221 C6219 1.389 . S
C6221 C6222 1.524 . S
C6222 C6221 1.524 . S
C6222 C6223 1.397 . S
C6222 C6227 1.363 . S
C6223 H6194 0.950 . S
C6223 C6222 1.397 . S
C6223 C6224 1.334 . S
C6224 H6195 0.950 . S
C6224 C6223 1.334 . S
C6224 C6225 1.287 . S
C6225 C6224 1.287 . S
C6225 C6226 1.524 . S
C6225 H6228 0.999 . S
C6226 H6196 0.950 . S
C6226 C6225 1.524 . S
C6226 C6227 1.415 . S
C6227 H6197 0.950 . S
C6227 C6222 1.363 . S
C6227 C6226 1.415 . S
H6228 C6225 0.999 . S
H6229 C6210 0.913 . S
H6230 C6248 0.951 . S
H6231 C6250 0.951 . S
H6232 C6252 0.950 . S
H6233 C6253 0.950 . S
H6234 C6255 0.950 . S
H6235 C6258 0.950 . S
H6236 C6259 0.950 . S
H6237 C6261 0.950 . S
H6238 C6262 0.950 1_554 S
H6239 C6263 0.951 . S
H6240 C6265 0.951 . S
H6241 C6267 0.950 . S
H6242 C6268 0.950 . S
H6243 C6270 0.950 . S
H6244 C6273 0.950 . S
H6245 C6274 0.950 . S
H6246 C6276 0.950 . S
H6247 C6277 0.950 . S
C6248 H6230 0.951 . S
C6248 C6249 1.366 . S
C6248 C6250 1.388 . S
C6249 C6248 1.366 . S
C6249 C6253 1.385 . S
C6250 H6231 0.951 . S
C6250 C6248 1.388 . S
C6250 C6251 1.366 . S
C6251 C6250 1.366 . S
C6251 C6252 1.414 . S
C6251 C6254 1.499 . S
C6252 H6232 0.950 . S
C6252 C6251 1.414 . S
C6252 C6253 1.374 . S
C6253 H6233 0.950 . S
C6253 C6249 1.385 . S
C6253 C6252 1.374 . S
C6254 C6251 1.499 . S
C6254 C6255 1.373 . S
C6254 C6256 1.389 . S
C6255 H6234 0.950 . S
C6255 C6254 1.373 . S
C6255 C6271 1.377 . S
C6256 C6254 1.389 . S
C6256 C6257 1.524 1_554 S
C6256 C6270 1.377 . S
C6257 C6256 1.524 1_556 S
C6257 C6258 1.397 . S
C6257 C6262 1.363 . S
C6258 H6235 0.950 . S
C6258 C6257 1.397 . S
C6258 C6259 1.334 . S
C6259 H6236 0.950 . S
C6259 C6258 1.334 . S
C6259 C6260 1.287 . S
C6260 C6259 1.287 . S
C6260 C6261 1.524 . S
C6260 H6279 0.913 . S
C6261 H6237 0.950 . S
C6261 C6260 1.524 . S
C6261 C6262 1.415 . S
C6262 H6238 0.950 1_556 S
C6262 C6257 1.363 . S
C6262 C6261 1.415 . S
C6263 H6239 0.951 . S
C6263 C6264 1.366 . S
C6263 C6265 1.388 . S
C6264 C6263 1.366 . S
C6264 C6268 1.385 . S
C6265 H6240 0.951 . S
C6265 C6263 1.388 . S
C6265 C6266 1.366 . S
C6266 C6265 1.366 . S
C6266 C6267 1.414 . S
C6266 C6269 1.499 . S
C6267 H6241 0.950 . S
C6267 C6266 1.414 . S
C6267 C6268 1.374 . S
C6268 H6242 0.950 . S
C6268 C6264 1.385 . S
C6268 C6267 1.374 . S
C6269 C6266 1.499 . S
C6269 C6270 1.373 . S
C6269 C6271 1.389 . S
C6270 H6243 0.950 . S
C6270 C6256 1.377 . S
C6270 C6269 1.373 . S
C6271 C6255 1.377 . S
C6271 C6269 1.389 . S
C6271 C6272 1.524 . S
C6272 C6271 1.524 . S
C6272 C6273 1.397 . S
C6272 C6277 1.363 . S
C6273 H6244 0.950 . S
C6273 C6272 1.397 . S
C6273 C6274 1.334 . S
C6274 H6245 0.950 . S
C6274 C6273 1.334 . S
C6274 C6275 1.287 . S
C6275 C6274 1.287 . S
C6275 C6276 1.524 . S
C6275 H6278 0.999 . S
C6276 H6246 0.950 . S
C6276 C6275 1.524 . S
C6276 C6277 1.415 . S
C6277 H6247 0.950 . S
C6277 C6272 1.363 . S
C6277 C6276 1.415 . S
H6278 C6275 0.999 . S
H6279 C6260 0.913 . S
H6280 C6298 0.951 . S
H6281 C6300 0.951 . S
H6282 C6302 0.950 . S
H6283 C6303 0.950 . S
H6284 C6305 0.950 . S
H6285 C6308 0.950 . S
H6286 C6309 0.950 . S
H6287 C6311 0.950 . S
H6288 C6312 0.950 . S
H6289 C6313 0.951 . S
H6290 C6315 0.951 . S
H6291 C6317 0.950 . S
H6292 C6318 0.950 . S
H6293 C6320 0.950 . S
H6294 C6323 0.950 . S
H6295 C6324 0.950 . S
H6296 C6326 0.950 . S
H6297 C6327 0.950 . S
C6298 H6280 0.951 . S
C6298 C6299 1.366 . S
C6298 C6300 1.388 . S
C6299 C6298 1.366 . S
C6299 C6303 1.385 . S
C6300 H6281 0.951 . S
C6300 C6298 1.388 . S
C6300 C6301 1.366 . S
C6301 C6300 1.366 . S
C6301 C6302 1.414 . S
C6301 C6304 1.499 . S
C6302 H6282 0.950 . S
C6302 C6301 1.414 . S
C6302 C6303 1.374 . S
C6303 H6283 0.950 . S
C6303 C6299 1.385 . S
C6303 C6302 1.374 . S
C6304 C6301 1.499 . S
C6304 C6305 1.373 . S
C6304 C6306 1.389 . S
C6305 H6284 0.950 . S
C6305 C6304 1.373 . S
C6305 C6321 1.377 . S
C6306 C6304 1.389 . S
C6306 C6307 1.524 . S
C6306 C6320 1.377 . S
C6307 C6306 1.524 . S
C6307 C6308 1.397 . S
C6307 C6312 1.363 . S
C6308 H6285 0.950 . S
C6308 C6307 1.397 . S
C6308 C6309 1.334 . S
C6309 H6286 0.950 . S
C6309 C6308 1.334 . S
C6309 C6310 1.287 . S
C6310 C6309 1.287 . S
C6310 C6311 1.524 . S
C6310 H6329 0.913 . S
C6311 H6287 0.950 . S
C6311 C6310 1.524 . S
C6311 C6312 1.415 . S
C6312 H6288 0.950 . S
C6312 C6307 1.363 . S
C6312 C6311 1.415 . S
C6313 H6289 0.951 . S
C6313 C6314 1.366 . S
C6313 C6315 1.388 . S
C6314 C6313 1.366 . S
C6314 C6318 1.385 . S
C6315 H6290 0.951 . S
C6315 C6313 1.388 . S
C6315 C6316 1.366 . S
C6316 C6315 1.366 . S
C6316 C6317 1.414 . S
C6316 C6319 1.499 . S
C6317 H6291 0.950 . S
C6317 C6316 1.414 . S
C6317 C6318 1.374 . S
C6318 H6292 0.950 . S
C6318 C6314 1.385 . S
C6318 C6317 1.374 . S
C6319 C6316 1.499 . S
C6319 C6320 1.373 . S
C6319 C6321 1.389 . S
C6320 H6293 0.950 . S
C6320 C6306 1.377 . S
C6320 C6319 1.373 . S
C6321 C6305 1.377 . S
C6321 C6319 1.389 . S
C6321 C6322 1.524 . S
C6322 C6321 1.524 . S
C6322 C6323 1.397 . S
C6322 C6327 1.363 . S
C6323 H6294 0.950 . S
C6323 C6322 1.397 . S
C6323 C6324 1.334 . S
C6324 H6295 0.950 . S
C6324 C6323 1.334 . S
C6324 C6325 1.287 . S
C6325 C6324 1.287 . S
C6325 C6326 1.524 . S
C6325 H6328 0.999 . S
C6326 H6296 0.950 . S
C6326 C6325 1.524 . S
C6326 C6327 1.415 . S
C6327 H6297 0.950 . S
C6327 C6322 1.363 . S
C6327 C6326 1.415 . S
H6328 C6325 0.999 . S
H6329 C6310 0.913 . S
H6330 C6348 0.951 . S
H6331 C6350 0.951 . S
H6332 C6352 0.950 . S
H6333 C6353 0.950 . S
H6334 C6355 0.950 . S
H6335 C6358 0.950 . S
H6336 C6359 0.950 . S
H6337 C6361 0.950 . S
H6338 C6362 0.950 . S
H6339 C6363 0.951 . S
H6340 C6365 0.951 . S
H6341 C6367 0.950 . S
H6342 C6368 0.950 . S
H6343 C6370 0.950 . S
H6344 C6373 0.950 . S
H6345 C6374 0.950 . S
H6346 C6376 0.950 . S
H6347 C6377 0.950 1_554 S
C6348 H6330 0.951 . S
C6348 C6349 1.366 . S
C6348 C6350 1.388 . S
C6349 C6348 1.366 . S
C6349 C6353 1.385 . S
C6350 H6331 0.951 . S
C6350 C6348 1.388 . S
C6350 C6351 1.366 . S
C6351 C6350 1.366 . S
C6351 C6352 1.414 . S
C6351 C6354 1.499 . S
C6352 H6332 0.950 . S
C6352 C6351 1.414 . S
C6352 C6353 1.374 . S
C6353 H6333 0.950 . S
C6353 C6349 1.385 . S
C6353 C6352 1.374 . S
C6354 C6351 1.499 . S
C6354 C6355 1.373 . S
C6354 C6356 1.389 . S
C6355 H6334 0.950 . S
C6355 C6354 1.373 . S
C6355 C6371 1.377 . S
C6356 C6354 1.389 . S
C6356 C6357 1.524 . S
C6356 C6370 1.377 . S
C6357 C6356 1.524 . S
C6357 C6358 1.397 . S
C6357 C6362 1.363 . S
C6358 H6335 0.950 . S
C6358 C6357 1.397 . S
C6358 C6359 1.334 . S
C6359 H6336 0.950 . S
C6359 C6358 1.334 . S
C6359 C6360 1.287 . S
C6360 C6359 1.287 . S
C6360 C6361 1.524 . S
C6360 H6379 0.913 . S
C6361 H6337 0.950 . S
C6361 C6360 1.524 . S
C6361 C6362 1.415 . S
C6362 H6338 0.950 . S
C6362 C6357 1.363 . S
C6362 C6361 1.415 . S
C6363 H6339 0.951 . S
C6363 C6364 1.366 . S
C6363 C6365 1.388 . S
C6364 C6363 1.366 . S
C6364 C6368 1.385 . S
C6365 H6340 0.951 . S
C6365 C6363 1.388 . S
C6365 C6366 1.366 . S
C6366 C6365 1.366 . S
C6366 C6367 1.414 . S
C6366 C6369 1.499 . S
C6367 H6341 0.950 . S
C6367 C6366 1.414 . S
C6367 C6368 1.374 . S
C6368 H6342 0.950 . S
C6368 C6364 1.385 . S
C6368 C6367 1.374 . S
C6369 C6366 1.499 . S
C6369 C6370 1.373 . S
C6369 C6371 1.389 . S
C6370 H6343 0.950 . S
C6370 C6356 1.377 . S
C6370 C6369 1.373 . S
C6371 C6355 1.377 . S
C6371 C6369 1.389 . S
C6371 C6372 1.524 . S
C6372 C6371 1.524 . S
C6372 C6373 1.397 1_554 S
C6372 C6377 1.363 1_554 S
C6373 H6344 0.950 . S
C6373 C6372 1.397 1_556 S
C6373 C6374 1.334 . S
C6374 H6345 0.950 . S
C6374 C6373 1.334 . S
C6374 C6375 1.287 . S
C6375 C6374 1.287 . S
C6375 C6376 1.524 . S
C6375 H6378 0.999 . S
C6376 H6346 0.950 . S
C6376 C6375 1.524 . S
C6376 C6377 1.415 . S
C6377 H6347 0.950 1_556 S
C6377 C6372 1.363 1_556 S
C6377 C6376 1.415 . S
H6378 C6375 0.999 . S
H6379 C6360 0.913 . S
H6380 C6398 0.951 . S
H6381 C6400 0.951 . S
H6382 C6402 0.950 . S
H6383 C6403 0.948 1_545 S
H6384 C6405 0.950 . S
H6385 C6408 0.950 . S
H6386 C6409 0.950 . S
H6387 C6411 0.950 . S
H6388 C6412 0.950 . S
H6389 C6413 0.951 . S
H6390 C6415 0.951 . S
H6391 C6417 0.950 . S
H6392 C6418 0.950 . S
H6393 C6420 0.950 . S
H6394 C6423 0.950 . S
H6395 C6424 0.950 . S
H6396 C6426 0.950 . S
H6397 C6427 0.950 . S
C6398 H6380 0.951 . S
C6398 C6399 1.366 1_565 S
C6398 C6400 1.388 . S
C6399 C6398 1.366 1_545 S
C6399 C6403 1.384 1_545 S
C6400 H6381 0.951 . S
C6400 C6398 1.388 . S
C6400 C6401 1.366 . S
C6401 C6400 1.366 . S
C6401 C6402 1.414 . S
C6401 C6404 1.499 . S
C6402 H6382 0.950 . S
C6402 C6401 1.414 . S
C6402 C6403 1.375 . S
C6403 H6383 0.948 1_565 S
C6403 C6399 1.384 1_565 S
C6403 C6402 1.375 . S
C6404 C6401 1.499 . S
C6404 C6405 1.373 . S
C6404 C6406 1.389 . S
C6405 H6384 0.950 . S
C6405 C6404 1.373 . S
C6405 C6421 1.377 . S
C6406 C6404 1.389 . S
C6406 C6407 1.524 . S
C6406 C6420 1.377 . S
C6407 C6406 1.524 . S
C6407 C6408 1.397 . S
C6407 C6412 1.363 . S
C6408 H6385 0.950 . S
C6408 C6407 1.397 . S
C6408 C6409 1.334 . S
C6409 H6386 0.950 . S
C6409 C6408 1.334 . S
C6409 C6410 1.287 . S
C6410 C6409 1.287 . S
C6410 C6411 1.524 . S
C6410 H6429 0.913 . S
C6411 H6387 0.950 . S
C6411 C6410 1.524 . S
C6411 C6412 1.415 . S
C6412 H6388 0.950 . S
C6412 C6407 1.363 . S
C6412 C6411 1.415 . S
C6413 H6389 0.951 . S
C6413 C6414 1.366 . S
C6413 C6415 1.388 . S
C6414 C6413 1.366 . S
C6414 C6418 1.385 . S
C6415 H6390 0.951 . S
C6415 C6413 1.388 . S
C6415 C6416 1.366 . S
C6416 C6415 1.366 . S
C6416 C6417 1.414 . S
C6416 C6419 1.499 . S
C6417 H6391 0.950 . S
C6417 C6416 1.414 . S
C6417 C6418 1.374 . S
C6418 H6392 0.950 . S
C6418 C6414 1.385 . S
C6418 C6417 1.374 . S
C6419 C6416 1.499 . S
C6419 C6420 1.373 . S
C6419 C6421 1.389 . S
C6420 H6393 0.950 . S
C6420 C6406 1.377 . S
C6420 C6419 1.373 . S
C6421 C6405 1.377 . S
C6421 C6419 1.389 . S
C6421 C6422 1.524 . S
C6422 C6421 1.524 . S
C6422 C6423 1.397 . S
C6422 C6427 1.363 . S
C6423 H6394 0.950 . S
C6423 C6422 1.397 . S
C6423 C6424 1.334 . S
C6424 H6395 0.950 . S
C6424 C6423 1.334 . S
C6424 C6425 1.287 . S
C6425 C6424 1.287 . S
C6425 C6426 1.524 . S
C6425 H6428 0.999 . S
C6426 H6396 0.950 . S
C6426 C6425 1.524 . S
C6426 C6427 1.415 . S
C6427 H6397 0.950 . S
C6427 C6422 1.363 . S
C6427 C6426 1.415 . S
H6428 C6425 0.999 . S
H6429 C6410 0.913 . S
H6430 C6448 0.951 . S
H6431 C6450 0.951 . S
H6432 C6452 0.950 . S
H6433 C6453 0.950 . S
H6434 C6455 0.950 . S
H6435 C6458 0.950 . S
H6436 C6459 0.950 . S
H6437 C6461 0.950 . S
H6438 C6462 0.950 . S
H6439 C6463 0.951 . S
H6440 C6465 0.951 . S
H6441 C6467 0.950 . S
H6442 C6468 0.950 . S
H6443 C6470 0.950 . S
H6444 C6473 0.950 . S
H6445 C6474 0.950 . S
H6446 C6476 0.950 . S
H6447 C6477 0.950 . S
C6448 H6430 0.951 . S
C6448 C6449 1.366 . S
C6448 C6450 1.388 . S
C6449 C6448 1.366 . S
C6449 C6453 1.385 . S
C6450 H6431 0.951 . S
C6450 C6448 1.388 . S
C6450 C6451 1.366 . S
C6451 C6450 1.366 . S
C6451 C6452 1.414 . S
C6451 C6454 1.499 . S
C6452 H6432 0.950 . S
C6452 C6451 1.414 . S
C6452 C6453 1.374 . S
C6453 H6433 0.950 . S
C6453 C6449 1.385 . S
C6453 C6452 1.374 . S
C6454 C6451 1.499 . S
C6454 C6455 1.373 . S
C6454 C6456 1.389 . S
C6455 H6434 0.950 . S
C6455 C6454 1.373 . S
C6455 C6471 1.377 . S
C6456 C6454 1.389 . S
C6456 C6457 1.524 . S
C6456 C6470 1.377 . S
C6457 C6456 1.524 . S
C6457 C6458 1.397 . S
C6457 C6462 1.363 . S
C6458 H6435 0.950 . S
C6458 C6457 1.397 . S
C6458 C6459 1.334 . S
C6459 H6436 0.950 . S
C6459 C6458 1.334 . S
C6459 C6460 1.287 . S
C6460 C6459 1.287 . S
C6460 C6461 1.524 . S
C6460 H6479 0.913 . S
C6461 H6437 0.950 . S
C6461 C6460 1.524 . S
C6461 C6462 1.415 . S
C6462 H6438 0.950 . S
C6462 C6457 1.363 . S
C6462 C6461 1.415 . S
C6463 H6439 0.951 . S
C6463 C6464 1.366 . S
C6463 C6465 1.388 . S
C6464 C6463 1.366 . S
C6464 C6468 1.385 . S
C6465 H6440 0.951 . S
C6465 C6463 1.388 . S
C6465 C6466 1.366 . S
C6466 C6465 1.366 . S
C6466 C6467 1.414 . S
C6466 C6469 1.499 . S
C6467 H6441 0.950 . S
C6467 C6466 1.414 . S
C6467 C6468 1.374 . S
C6468 H6442 0.950 . S
C6468 C6464 1.385 . S
C6468 C6467 1.374 . S
C6469 C6466 1.499 . S
C6469 C6470 1.373 . S
C6469 C6471 1.389 . S
C6470 H6443 0.950 . S
C6470 C6456 1.377 . S
C6470 C6469 1.373 . S
C6471 C6455 1.377 . S
C6471 C6469 1.389 . S
C6471 C6472 1.524 . S
C6472 C6471 1.524 . S
C6472 C6473 1.397 . S
C6472 C6477 1.363 . S
C6473 H6444 0.950 . S
C6473 C6472 1.397 . S
C6473 C6474 1.334 . S
C6474 H6445 0.950 . S
C6474 C6473 1.334 . S
C6474 C6475 1.287 . S
C6475 C6474 1.287 . S
C6475 C6476 1.524 . S
C6475 H6478 0.999 . S
C6476 H6446 0.950 . S
C6476 C6475 1.524 . S
C6476 C6477 1.415 . S
C6477 H6447 0.950 . S
C6477 C6472 1.363 . S
C6477 C6476 1.415 . S
H6478 C6475 0.999 . S
H6479 C6460 0.913 . S
C1699 C106 1.935 . S
C1714 C392 1.808 . S
C1749 C65 2.197 . S
C1764 C483 2.120 . S
C1799 C79 1.769 . S
C1814 C560 1.660 1_565 S
C1864 C658 1.336 . S
C1849 C90 1.421 . S
C1899 C21 1.323 . S
C1914 C742 1.300 . S
C1964 C814 0.865 . S
C1949 C35 0.887 . S
C2014 C903 0.642 . S
C1999 C50 0.633 . S
C2049 C6 1.340 . S
C2064 C980 1.235 . S
C2114 C399 2.136 . S
C2099 C232 2.244 . S
C2149 C245 0.610 . S
C2164 C490 0.629 . S
C2214 C567 1.219 . S
C2199 C274 1.275 . S
C2264 C644 1.460 . S
C2249 C175 1.550 . S
C2299 C231 1.751 . S
C2314 C728 1.665 . S
C2364 C830 0.991 . S
C2349 C246 1.064 . S
C2414 C910 0.656 . S
C2399 C273 0.620 . S
C2464 C987 1.449 . S
C2449 C176 1.558 . S
C2514 C406 1.468 . S
C2499 C160 1.526 . S
C2549 C289 1.984 1_554 S
C2564 C1071 1.930 . S
C2614 C1159 2.198 . S
C2599 C328 2.311 . S
C2664 C1232 0.593 . S
C2649 C317 0.528 . S
C2699 C118 0.806 . S
C2714 C994 0.826 . S
C2749 C132 1.409 . S
C2764 C574 1.416 . S
C2799 C331 2.418 . S
C2814 C1323 2.338 . S
C2864 C1400 0.943 . S
C2849 C303 0.987 . S
C2914 C403 1.423 1_565 S
C2899 C63 1.536 . S
C2964 C1418 2.570 . S
C2949 C107 2.576 . S
C2999 C92 1.585 . S
C3014 C571 1.529 . S
C3049 C78 2.085 . S
C3064 C1318 1.903 . S
C3114 C730 1.810 . S
C3099 C8 1.924 . S
C3149 C51 1.203 . S
C3164 C1162 1.107 . S
C3214 C914 1.115 1_565 S
C3199 C37 1.098 . S
C3264 C1495 1.151 . S
C3249 C20 1.246 . S
C3314 C410 2.006 . S
C3299 C147 2.062 . S
C3364 C1402 0.754 . S
C3349 C316 0.757 . S
C3399 C119 1.142 . S
C3414 C578 1.153 . S
C3449 C288 1.740 . S
C3464 C1327 1.650 . S
C3499 C148 2.261 1_545 S
C3514 C739 2.084 . S
C3564 C1155 1.067 . S
C3549 C315 1.112 . S
C3599 C120 0.930 . S
C3614 C898 0.886 . S
C3649 C287 1.461 . S
C3664 C1502 1.388 . S
C3699 C188 1.392 . S
C3714 C394 1.307 . S
C3749 C177 2.355 . S
C3764 C1082 2.298 . S
C3799 C258 2.460 . S
C3814 C812 2.362 . S
C3849 C247 0.532 . S
C3864 C1243 0.598 . S
C3914 C1486 0.591 . S
C3899 C272 0.604 . S
C3949 C216 1.287 . S
C3964 C562 1.261 1_565 S
C4014 C662 2.586 . S
C3999 C261 2.658 . S
C4064 C487 0.877 . S
C4049 C205 0.912 . S
C4099 C76 1.527 . S
C4114 C1568 1.431 . S
C4164 C1407 2.204 . S
C4149 C93 2.283 . S
C4199 C105 1.368 . S
C4214 C1652 1.273 . S
C4249 C62 1.462 . S
C4264 C1330 1.377 . S
C4299 C49 1.297 . S
C4314 C1078 1.275 . S
C4364 C1150 1.212 . S
C4349 C9 1.288 . S
C4414 C1239 0.577 . S
C4399 C22 0.564 . S
C4464 C1484 1.579 . S
C4449 C36 1.752 . S
C4514 C1575 2.043 . S
C4499 C260 2.145 . S
C4549 C189 0.522 . S
C4564 C1414 0.574 . S
C4614 C1659 1.132 . S
C4599 C204 1.179 . S
C4664 C1316 1.299 . S
C4649 C217 1.375 . S
C4714 C1064 1.935 . S
C4699 C259 2.031 . S
C4749 C190 1.162 . S
C4764 C1166 1.088 . S
C4814 C1246 0.734 . S
C4799 C203 0.733 . S
C4849 C218 1.665 . S
C4864 C1491 1.548 . S
C4914 C1582 1.427 . S
C4899 C314 1.473 . S
C4949 C135 2.110 . S
C4964 C735 2.029 . S
C5014 C823 2.072 . S
C4999 C146 2.200 . S
C5064 C896 0.604 . S
C5049 C163 0.560 . S
C5114 C1498 0.824 . S
C5099 C300 0.808 . S
C5149 C286 1.361 . S
C5164 C1666 1.392 . S
C5214 C651 2.240 . S
C5199 C149 2.313 . S
C5264 C476 0.881 . S
C5249 C121 0.920 1_565 S
C5299 C91 1.511 . S
C5314 C1579 1.407 . S
C5364 C494 2.155 . S
C5349 C77 2.100 . S
C5399 C64 1.551 . S
C5414 C1663 1.514 . S
C5449 C104 1.679 . S
C5464 C646 1.584 . S
C5499 C34 1.491 . S
C5514 C1066 1.450 1_556 S
C5564 C826 1.080 . S
C5549 C23 1.190 . S
C5599 C7 0.784 . S
C5614 C1250 0.795 . S
C5649 C48 1.212 . S
C5664 C991 1.129 . S
C5714 C1586 1.982 . S
C5699 C329 2.042 . S
C5749 C162 0.787 . S
C5764 C478 0.777 . S
C5814 C1670 1.156 1_556 S
C5799 C301 1.145 . S
C5849 C134 1.766 . S
C5864 C655 1.679 . S
C5899 C330 2.232 . S
C5914 C1075 2.065 . S
C5964 C819 1.076 . S
C5949 C161 1.117 . S
C5999 C302 0.965 . S
C6014 C1234 0.913 . S
C6064 C998 1.385 . S
C6049 C133 1.459 . S
C6114 C1570 1.513 . S
C6099 C244 1.615 . S
C6164 C746 2.189 1_655 S
C6149 C219 2.284 . S
C6199 C230 2.102 . S
C6214 C1148 1.996 . S
C6264 C907 0.593 . S
C6249 C191 0.513 . S
C6299 C202 0.760 . S
C6314 C982 0.757 . S
C6349 C174 1.527 . S
C6364 C1654 1.478 . S
C6414 C1334 2.552 . S
C6399 C233 2.613 . S
C6464 C1411 0.866 . S
C6449 C275 0.902 . S
