# Generated by pormake.
# Topology ocu, (6,8)-cn, num edge types: 1
# Building blocks:
#     Node 0, Type 0, BuildingBlock: KUMJIN_clean_sbu_1, # of connection points: 6
#     Node 1, Type 0, BuildingBlock: KUMJIN_clean_sbu_1, # of connection points: 6
#     Node 2, Type 0, BuildingBlock: KUMJIN_clean_sbu_1, # of connection points: 6
#     Node 3, Type 0, BuildingBlock: KUMJIN_clean_sbu_1, # of connection points: 6
#     Node 4, Type 0, BuildingBlock: KUMJIN_clean_sbu_1, # of connection points: 6
#     Node 5, Type 0, BuildingBlock: KUMJIN_clean_sbu_1, # of connection points: 6
#     Node 6, Type 0, BuildingBlock: KUMJIN_clean_sbu_1, # of connection points: 6
#     Node 7, Type 0, BuildingBlock: KUMJIN_clean_sbu_1, # of connection points: 6
#     Node 8, Type 1, BuildingBlock: TAGTUT_clean_sbu_1, # of connection points: 8
#     Node 9, Type 1, BuildingBlock: TAGTUT_clean_sbu_1, # of connection points: 8
#     Node 10, Type 1, BuildingBlock: TAGTUT_clean_sbu_1, # of connection points: 8
#     Node 11, Type 1, BuildingBlock: TAGTUT_clean_sbu_1, # of connection points: 8
#     Node 12, Type 1, BuildingBlock: TAGTUT_clean_sbu_1, # of connection points: 8
#     Node 13, Type 1, BuildingBlock: TAGTUT_clean_sbu_1, # of connection points: 8
#     Edge 14, Type (0, 1), BuildingBlock: AJUNOK_clean_linker_0, # of connection points: 2
#     Edge 15, Type (0, 1), BuildingBlock: AJUNOK_clean_linker_0, # of connection points: 2
#     Edge 16, Type (0, 1), BuildingBlock: AJUNOK_clean_linker_0, # of connection points: 2
#     Edge 17, Type (0, 1), BuildingBlock: AJUNOK_clean_linker_0, # of connection points: 2
#     Edge 18, Type (0, 1), BuildingBlock: AJUNOK_clean_linker_0, # of connection points: 2
#     Edge 19, Type (0, 1), BuildingBlock: AJUNOK_clean_linker_0, # of connection points: 2
#     Edge 20, Type (0, 1), BuildingBlock: AJUNOK_clean_linker_0, # of connection points: 2
#     Edge 21, Type (0, 1), BuildingBlock: AJUNOK_clean_linker_0, # of connection points: 2
#     Edge 22, Type (0, 1), BuildingBlock: AJUNOK_clean_linker_0, # of connection points: 2
#     Edge 23, Type (0, 1), BuildingBlock: AJUNOK_clean_linker_0, # of connection points: 2
#     Edge 24, Type (0, 1), BuildingBlock: AJUNOK_clean_linker_0, # of connection points: 2
#     Edge 25, Type (0, 1), BuildingBlock: AJUNOK_clean_linker_0, # of connection points: 2
#     Edge 26, Type (0, 1), BuildingBlock: AJUNOK_clean_linker_0, # of connection points: 2
#     Edge 27, Type (0, 1), BuildingBlock: AJUNOK_clean_linker_0, # of connection points: 2
#     Edge 28, Type (0, 1), BuildingBlock: AJUNOK_clean_linker_0, # of connection points: 2
#     Edge 29, Type (0, 1), BuildingBlock: AJUNOK_clean_linker_0, # of connection points: 2
#     Edge 30, Type (0, 1), BuildingBlock: AJUNOK_clean_linker_0, # of connection points: 2
#     Edge 31, Type (0, 1), BuildingBlock: AJUNOK_clean_linker_0, # of connection points: 2
#     Edge 32, Type (0, 1), BuildingBlock: AJUNOK_clean_linker_0, # of connection points: 2
#     Edge 33, Type (0, 1), BuildingBlock: AJUNOK_clean_linker_0, # of connection points: 2
#     Edge 34, Type (0, 1), BuildingBlock: AJUNOK_clean_linker_0, # of connection points: 2
#     Edge 35, Type (0, 1), BuildingBlock: AJUNOK_clean_linker_0, # of connection points: 2
#     Edge 36, Type (0, 1), BuildingBlock: AJUNOK_clean_linker_0, # of connection points: 2
#     Edge 37, Type (0, 1), BuildingBlock: AJUNOK_clean_linker_0, # of connection points: 2
#     Edge 38, Type (0, 1), BuildingBlock: AJUNOK_clean_linker_0, # of connection points: 2
#     Edge 39, Type (0, 1), BuildingBlock: AJUNOK_clean_linker_0, # of connection points: 2
#     Edge 40, Type (0, 1), BuildingBlock: AJUNOK_clean_linker_0, # of connection points: 2
#     Edge 41, Type (0, 1), BuildingBlock: AJUNOK_clean_linker_0, # of connection points: 2
#     Edge 42, Type (0, 1), BuildingBlock: AJUNOK_clean_linker_0, # of connection points: 2
#     Edge 43, Type (0, 1), BuildingBlock: AJUNOK_clean_linker_0, # of connection points: 2
#     Edge 44, Type (0, 1), BuildingBlock: AJUNOK_clean_linker_0, # of connection points: 2
#     Edge 45, Type (0, 1), BuildingBlock: AJUNOK_clean_linker_0, # of connection points: 2
#     Edge 46, Type (0, 1), BuildingBlock: AJUNOK_clean_linker_0, # of connection points: 2
#     Edge 47, Type (0, 1), BuildingBlock: AJUNOK_clean_linker_0, # of connection points: 2
#     Edge 48, Type (0, 1), BuildingBlock: AJUNOK_clean_linker_0, # of connection points: 2
#     Edge 49, Type (0, 1), BuildingBlock: AJUNOK_clean_linker_0, # of connection points: 2
#     Edge 50, Type (0, 1), BuildingBlock: AJUNOK_clean_linker_0, # of connection points: 2
#     Edge 51, Type (0, 1), BuildingBlock: AJUNOK_clean_linker_0, # of connection points: 2
#     Edge 52, Type (0, 1), BuildingBlock: AJUNOK_clean_linker_0, # of connection points: 2
#     Edge 53, Type (0, 1), BuildingBlock: AJUNOK_clean_linker_0, # of connection points: 2
#     Edge 54, Type (0, 1), BuildingBlock: AJUNOK_clean_linker_0, # of connection points: 2
#     Edge 55, Type (0, 1), BuildingBlock: AJUNOK_clean_linker_0, # of connection points: 2
#     Edge 56, Type (0, 1), BuildingBlock: AJUNOK_clean_linker_0, # of connection points: 2
#     Edge 57, Type (0, 1), BuildingBlock: AJUNOK_clean_linker_0, # of connection points: 2
#     Edge 58, Type (0, 1), BuildingBlock: AJUNOK_clean_linker_0, # of connection points: 2
#     Edge 59, Type (0, 1), BuildingBlock: AJUNOK_clean_linker_0, # of connection points: 2
#     Edge 60, Type (0, 1), BuildingBlock: AJUNOK_clean_linker_0, # of connection points: 2
#     Edge 61, Type (0, 1), BuildingBlock: AJUNOK_clean_linker_0, # of connection points: 2
# Relax obj value: 0.098
# Max RMSD: 0.177
# Mean RMSD: 0.100
data_MOF--net-ocu--node1-KUMJIN_clean_sbu_1--node2-TAGTUT_clean_sbu_1--edge1-AJUNOK_clean_linker_0
_symmetry_space_group_name_H-M    P1
_symmetry_Int_Tables_number       1
_symmetry_cell_setting            triclinic
loop_
_symmetry_equiv_pos_as_xyz
'x, y, z'
_cell_length_a     31.751091
_cell_length_b     30.561772
_cell_length_c     32.931621
_cell_angle_alpha  102.04097
_cell_angle_beta   80.345359
_cell_angle_gamma 118.92688
loop_
_atom_site_label
_atom_site_type_symbol
_atom_site_fract_x
_atom_site_fract_y
_atom_site_fract_z
_atom_type_partial_charge
Eu0 Eu 0.22091 0.22771 0.22384 0.0
C1 C 0.37535 0.40179 0.34717 0.0
N2 N 0.38193 0.37664 0.3094 0.0
C3 C 0.45138 0.45214 0.29146 0.0
C4 C 0.4064 0.45363 0.35825 0.0
C5 C 0.42004 0.40057 0.28204 0.0
C6 C 0.44425 0.47879 0.32961 0.0
C7 C 0.33198 0.39977 0.41558 0.0
C8 C 0.33836 0.3753 0.37549 0.0
C9 C 0.36237 0.45164 0.42638 0.0
C10 C 0.39937 0.47853 0.39774 0.0
Eu11 Eu 0.32691 0.28974 0.29715 0.0
N12 N 0.30859 0.32545 0.36383 0.0
C13 C 0.29542 0.37123 0.4437 0.0
C14 C 0.27494 0.29688 0.39182 0.0
C15 C 0.26715 0.3194 0.4319 0.0
H16 H 0.42712 0.37981 0.25336 0.0
H17 H 0.23982 0.29666 0.4538 0.0
H18 H 0.13384 0.12615 0.26678 0.0
H19 H 0.32015 0.23844 0.0709 0.0
H20 H 0.2548 0.25668 0.3835 0.0
H21 H 0.2894 0.38861 0.47481 0.0
H22 H 0.29575 0.27209 0.14021 0.0
H23 H 0.48138 0.47112 0.2696 0.0
H24 H 0.35782 0.4712 0.45692 0.0
H25 H 0.42285 0.51845 0.40667 0.0
H26 H 0.09291 0.03377 0.24828 0.0
H27 H 0.46868 0.51845 0.33719 0.0
H28 H 0.28236 0.14611 0.04771 0.0
N29 N 0.17915 0.13876 0.21029 0.0
C30 C 0.18994 0.11773 0.17195 0.0
C31 C 0.12031 0.05688 0.22664 0.0
C32 C 0.16641 0.06492 0.15978 0.0
C33 C 0.14426 0.10939 0.23731 0.0
C34 C 0.13152 0.03451 0.18777 0.0
N35 N 0.24786 0.19992 0.15745 0.0
C36 C 0.28055 0.23194 0.13115 0.0
C37 C 0.23696 0.12815 0.10501 0.0
C38 C 0.22498 0.14909 0.14477 0.0
C39 C 0.27214 0.16074 0.0785 0.0
C40 C 0.29376 0.21288 0.09154 0.0
H41 H 0.11282 0.99378 0.17955 0.0
H42 H 0.1605 1.00358 0.11028 0.0
H43 H 0.22217 0.05884 0.06243 0.0
O44 O 0.20082 0.26402 0.18494 0.0
O45 O 0.27015 0.1898 0.21858 0.0
O46 O 0.34467 0.25555 0.23247 0.0
O47 O 0.14567 0.19697 0.21178 0.0
O48 O 0.27833 0.30898 0.21878 0.0
O49 O 0.34911 0.31446 0.23252 0.0
O50 O 0.33417 0.23914 0.33027 0.0
O51 O 0.27657 0.32726 0.31264 0.0
O52 O 0.20446 0.26991 0.28443 0.0
O53 O 0.39693 0.30838 0.31639 0.0
O54 O 0.2639 0.21072 0.30365 0.0
O55 O 0.19574 0.21006 0.28935 0.0
C56 C 0.31763 0.21018 0.21303 0.0
C57 C 0.11722 0.2326 0.17016 0.0
C58 C 0.08926 0.2763 0.13636 0.0
C59 C 0.0427 0.23524 0.13744 0.0
C60 C 0.07032 0.19183 0.17107 0.0
C61 C 0.03333 0.19322 0.15471 0.0
C62 C 0.12668 0.2749 0.15248 0.0
C63 C 0.32551 0.32811 0.21275 0.0
C64 C 0.15522 0.23154 0.18941 0.0
C65 C 0.17832 0.04408 0.12016 0.0
C66 C 0.21346 0.07556 0.0929 0.0
C67 C 0.2303 0.31144 0.30923 0.0
C68 C 0.40951 0.23997 0.32238 0.0
C69 C 0.44344 0.19353 0.34538 0.0
C70 C 0.46355 0.18721 0.30449 0.0
C71 C 0.42924 0.23272 0.28169 0.0
C72 C 0.41677 0.22053 0.35415 0.0
C73 C 0.45637 0.20663 0.27292 0.0
C74 C 0.21783 0.19813 0.31186 0.0
C75 C 0.38061 0.26694 0.33225 0.0
H76 H 1.01367 0.23557 0.12459 0.0
H77 H 0.06213 0.15889 0.18458 0.0
H78 H 0.99731 0.16169 0.15546 0.0
H79 H 0.16262 0.3067 0.15159 0.0
H80 H 0.48497 0.16738 0.29693 0.0
H81 H 0.42372 0.24724 0.25682 0.0
H82 H 0.40097 0.22567 0.38549 0.0
H83 H 0.47182 0.20134 0.24154 0.0
Eu84 Eu 0.74526 0.30484 0.27732 0.0
C85 C 0.86882 0.21868 0.16004 0.0
N86 N 0.82386 0.18929 0.17668 0.0
C87 C 0.80383 0.13402 0.11192 0.0
C88 C 0.88232 0.20756 0.11773 0.0
C89 C 0.79163 0.14709 0.15376 0.0
C90 C 0.84931 0.16448 0.09375 0.0
C91 C 0.94493 0.29587 0.16698 0.0
C92 C 0.9003 0.262 0.18471 0.0
C93 C 0.95801 0.28519 0.1246 0.0
C94 C 0.92728 0.24084 0.10028 0.0
Eu95 Eu 0.8067 0.21561 0.2466 0.0
N96 N 0.8855 0.27316 0.22508 0.0
C97 C 0.97418 0.34029 0.19214 0.0
C98 C 0.91556 0.31425 0.25045 0.0
C99 C 0.96008 0.34891 0.2342 0.0
H100 H 0.75674 0.12317 0.16795 0.0
H101 H 0.98326 0.38253 0.25398 0.0
H102 H 0.80396 0.40394 0.34907 0.0
H103 H 0.56064 0.1517 0.2834 0.0
H104 H 0.90547 0.32081 0.28304 0.0
H105 H 1.00754 0.3685 0.17966 0.0
H106 H 0.64062 0.20317 0.2496 0.0
H107 H 0.7781 0.10064 0.09368 0.0
H108 H 0.99162 0.311 0.11006 0.0
H109 H 0.93807 0.23335 0.06766 0.0
H110 H 0.78989 0.43509 0.42296 0.0
H111 H 0.85838 0.15475 0.06109 0.0
H112 H 0.54131 0.17661 0.35762 0.0
N113 N 0.73446 0.34026 0.34626 0.0
C114 C 0.69014 0.3155 0.36596 0.0
C115 C 0.76166 0.40122 0.40744 0.0
C116 C 0.68051 0.33187 0.40809 0.0
C117 C 0.76978 0.38317 0.36586 0.0
C118 C 0.71693 0.37521 0.42879 0.0
N119 N 0.66582 0.25621 0.30425 0.0
C120 C 0.63225 0.21462 0.28182 0.0
C121 C 0.60957 0.24433 0.36478 0.0
C122 C 0.6547 0.27256 0.34433 0.0
C123 C 0.57579 0.20005 0.34265 0.0
C124 C 0.58684 0.18556 0.30083 0.0
H125 H 0.71085 0.38894 0.46118 0.0
H126 H 0.62738 0.31555 0.46094 0.0
H127 H 0.56654 0.23857 0.4235 0.0
O128 O 0.71007 0.32165 0.23498 0.0
O129 O 0.72513 0.24622 0.32028 0.0
O130 O 0.73275 0.17835 0.28075 0.0
O131 O 0.75007 0.37946 0.28546 0.0
O132 O 0.7265 0.25029 0.21649 0.0
O133 O 0.73209 0.18 0.22434 0.0
O134 O 0.85342 0.20242 0.27829 0.0
O135 O 0.81687 0.2684 0.20147 0.0
O136 O 0.82056 0.33809 0.24521 0.0
O137 O 0.80301 0.1411 0.23692 0.0
O138 O 0.81727 0.26305 0.3109 0.0
O139 O 0.81907 0.33487 0.29889 0.0
C140 C 0.71459 0.19814 0.31366 0.0
C141 C 0.71325 0.40446 0.24251 0.0
C142 C 0.67274 0.42532 0.19929 0.0
C143 C 0.69118 0.47465 0.2211 0.0
C144 C 0.73167 0.45405 0.26416 0.0
C145 C 0.7208 0.48897 0.25326 0.0
C146 C 0.68404 0.39035 0.20972 0.0
C147 C 0.71839 0.20314 0.20408 0.0
C148 C 0.72429 0.36774 0.25448 0.0
C149 C 0.63534 0.30401 0.42841 0.0
C150 C 0.60031 0.26021 0.40693 0.0
C151 C 0.83092 0.31715 0.20872 0.0
C152 C 0.825 0.12063 0.2925 0.0
C153 C 0.8557 0.08586 0.33275 0.0
C154 C 0.80853 0.05714 0.34974 0.0
C155 C 0.77821 0.09308 0.31037 0.0
C156 C 0.86361 0.11725 0.30396 0.0
C157 C 0.77001 0.06115 0.3388 0.0
C158 C 0.82618 0.31032 0.32294 0.0
C159 C 0.83528 0.15465 0.26295 0.0
H160 H 0.68322 0.50222 0.21276 0.0
H161 H 0.7546 0.46593 0.28939 0.0
H162 H 0.73558 0.52728 0.2695 0.0
H163 H 0.66997 0.35242 0.19243 0.0
H164 H 0.80176 0.03272 0.37224 0.0
H165 H 0.74827 0.09603 0.30211 0.0
H166 H 0.89994 0.13939 0.29071 0.0
H167 H 0.73381 0.03948 0.35229 0.0
Eu168 Eu 0.75222 0.70965 0.29999 0.0
C169 C 0.91313 0.86894 0.18666 0.0
N170 N 0.88899 0.87811 0.22303 0.0
C171 C 0.96211 0.94921 0.24687 0.0
C172 C 0.96333 0.89921 0.1797 0.0
C173 C 0.91226 0.9189 0.25218 0.0
C174 C 0.98781 0.93893 0.21074 0.0
C175 C 0.91125 0.82268 0.1165 0.0
C176 C 0.88743 0.83071 0.15526 0.0
C177 C 0.96141 0.85198 0.11012 0.0
C178 C 0.98737 0.88994 0.14165 0.0
Eu179 Eu 0.80533 0.8232 0.22736 0.0
N180 N 0.83898 0.80187 0.16233 0.0
C181 C 0.88375 0.78618 0.08493 0.0
C182 C 0.81163 0.7681 0.13121 0.0
C183 C 0.83364 0.75941 0.09212 0.0
H184 H 0.89263 0.92898 0.27933 0.0
H185 H 0.81198 0.73215 0.06758 0.0
H186 H 0.65757 0.61018 0.25004 0.0
H187 H 0.7569 0.79215 0.46342 0.0
H188 H 0.77294 0.74792 0.1367 0.0
H189 H 0.90072 0.77921 0.05462 0.0
H190 H 0.79096 0.77373 0.39263 0.0
H191 H 0.98055 0.981 0.27034 0.0
H192 H 0.98038 0.84613 0.08062 0.0
H193 H 0.02597 0.91275 0.13593 0.0
H194 H 0.56904 0.569 0.25943 0.0
H195 H 0.0263 0.96285 0.20651 0.0
H196 H 0.66821 0.75494 0.47844 0.0
N197 N 0.66717 0.66122 0.30697 0.0
C198 C 0.64553 0.67171 0.34437 0.0
C199 C 0.59013 0.5983 0.28332 0.0
C200 C 0.59491 0.64699 0.35192 0.0
C201 C 0.64047 0.62274 0.27768 0.0
C202 C 0.56727 0.61151 0.32015 0.0
N203 N 0.72279 0.72971 0.36778 0.0
C204 C 0.7525 0.75869 0.39882 0.0
C205 C 0.65288 0.71495 0.41579 0.0
C206 C 0.67408 0.70576 0.37596 0.0
C207 C 0.68312 0.74716 0.44735 0.0
C208 C 0.73319 0.7684 0.43899 0.0
H209 H 0.52836 0.59331 0.3242 0.0
H210 H 0.53463 0.63885 0.39735 0.0
H211 H 0.58541 0.69787 0.45335 0.0
O212 O 0.8006 0.69949 0.33395 0.0
O213 O 0.72858 0.77223 0.32294 0.0
O214 O 0.7619 0.8397 0.28467 0.0
O215 O 0.73224 0.6354 0.31391 0.0
O216 O 0.82753 0.77479 0.29602 0.0
O217 O 0.82992 0.84888 0.29275 0.0
O218 O 0.76181 0.82757 0.18508 0.0
O219 O 0.83353 0.76343 0.20943 0.0
O220 O 0.78548 0.68835 0.23745 0.0
O221 O 0.82099 0.89598 0.21225 0.0
O222 O 0.72896 0.76076 0.23227 0.0
O223 O 0.72547 0.68627 0.23533 0.0
C224 C 0.73342 0.81543 0.31526 0.0
C225 C 0.77927 0.61661 0.35175 0.0
C226 C 0.83186 0.59591 0.38135 0.0
C227 C 0.79348 0.547 0.38368 0.0
C228 C 0.7414 0.56773 0.35507 0.0
C229 C 0.74859 0.53319 0.3708 0.0
C230 C 0.82451 0.63097 0.36562 0.0
C231 C 0.83769 0.82106 0.31284 0.0
C232 C 0.77087 0.65139 0.33315 0.0
C233 C 0.57351 0.65751 0.3911 0.0
C234 C 0.60242 0.6911 0.42303 0.0
C235 C 0.82148 0.71601 0.2124 0.0
C236 C 0.75167 0.90113 0.20063 0.0
C237 C 0.68621 0.91185 0.18154 0.0
C238 C 0.69556 0.95176 0.21484 0.0
C239 C 0.75905 0.93995 0.23449 0.0
C240 C 0.7145 0.88651 0.17487 0.0
C241 C 0.73098 0.96484 0.24144 0.0
C242 C 0.71649 0.71399 0.21608 0.0
C243 C 0.78333 0.8768 0.19085 0.0
H244 H 0.79808 0.51949 0.39601 0.0
H245 H 0.70614 0.55588 0.3451 0.0
H246 H 0.7193 0.49549 0.37287 0.0
H247 H 0.85397 0.66862 0.36346 0.0
H248 H 0.67654 0.97401 0.21987 0.0
H249 H 0.78687 0.95163 0.2553 0.0
H250 H 0.70837 0.85605 0.1491 0.0
H251 H 0.73721 0.99506 0.2671 0.0
Eu252 Eu 0.22541 0.77172 0.25936 0.0
C253 C 0.30648 0.67777 0.35026 0.0
N254 N 0.32886 0.72396 0.33743 0.0
C255 C 0.3652 0.76179 0.40243 0.0
C256 C 0.30995 0.67257 0.39098 0.0
C257 C 0.36007 0.76519 0.36201 0.0
C258 C 0.33898 0.7156 0.41742 0.0
C259 C 0.25863 0.58666 0.33408 0.0
C260 C 0.28184 0.63515 0.322 0.0
C261 C 0.26019 0.58165 0.37514 0.0
C262 C 0.2859 0.62448 0.40349 0.0
Eu263 Eu 0.31992 0.72511 0.26767 0.0
N264 N 0.27986 0.64129 0.28274 0.0
C265 C 0.2345 0.54467 0.30448 0.0
C266 C 0.25791 0.6004 0.25333 0.0
C267 C 0.23449 0.55157 0.26386 0.0
H268 H 0.38225 0.8005 0.35011 0.0
H269 H 0.21648 0.51929 0.24063 0.0
H270 H 0.17213 0.71388 0.17215 0.0
H271 H 0.32007 0.97669 0.31569 0.0
H272 H 0.25829 0.60533 0.22176 0.0
H273 H 0.21614 0.50681 0.31258 0.0
H274 H 0.27371 0.88759 0.324 0.0
H275 H 0.38975 0.79466 0.42188 0.0
H276 H 0.24223 0.54474 0.38512 0.0
H277 H 0.28777 0.6199 0.43479 0.0
H278 H 0.16849 0.73419 0.10419 0.0
H279 H 0.34297 0.71319 0.4488 0.0
H280 H 0.33353 1.00269 0.24655 0.0
N281 N 0.2221 0.78882 0.19427 0.0
C282 C 0.24569 0.83797 0.18836 0.0
C283 C 0.19084 0.76362 0.12733 0.0
C284 C 0.24514 0.85149 0.15013 0.0
C285 C 0.19348 0.75197 0.16536 0.0
C286 C 0.21721 0.81357 0.11948 0.0
N287 N 0.26505 0.86088 0.25897 0.0
C288 C 0.28116 0.89714 0.29302 0.0
C289 C 0.29387 0.92618 0.2155 0.0
C290 C 0.26902 0.87484 0.22114 0.0
C291 C 0.3141 0.9629 0.24963 0.0
C292 C 0.30679 0.94835 0.28867 0.0
H293 H 0.21542 0.82252 0.08986 0.0
H294 H 0.27239 0.91331 0.11457 0.0
H295 H 0.31565 0.97867 0.17156 0.0
O296 O 0.16844 0.79337 0.26511 0.0
O297 O 0.28127 0.77696 0.20491 0.0
O298 O 0.34613 0.79728 0.23907 0.0
O299 O 0.14947 0.71503 0.26363 0.0
O300 O 0.26604 0.80723 0.31901 0.0
O301 O 0.33806 0.8062 0.29573 0.0
O302 O 0.35996 0.68901 0.22821 0.0
O303 O 0.24277 0.68475 0.29694 0.0
O304 O 0.2197 0.74622 0.3213 0.0
O305 O 0.39602 0.75152 0.27566 0.0
O306 O 0.28206 0.69202 0.20608 0.0
O307 O 0.2114 0.69155 0.23477 0.0
C308 C 0.32793 0.80131 0.2079 0.0
C309 C 0.11391 0.75172 0.31691 0.0
C310 C 0.12606 0.7977 0.38658 0.0
C311 C 0.07741 0.76602 0.39871 0.0
C312 C 0.06565 0.72003 0.32849 0.0
C313 C 0.04776 0.72644 0.36994 0.0
C314 C 0.14442 0.78728 0.34686 0.0
C315 C 0.31193 0.82248 0.32334 0.0
C316 C 0.13528 0.7495 0.27445 0.0
C317 C 0.27156 0.90228 0.14402 0.0
C318 C 0.29623 0.93948 0.17649 0.0
C319 C 0.21673 0.70232 0.32345 0.0
C320 C 0.43479 0.75321 0.20905 0.0
C321 C 0.4379 0.76151 0.13765 0.0
C322 C 0.48798 0.77734 0.13368 0.0
C323 C 0.48412 0.76764 0.20563 0.0
C324 C 0.41468 0.75917 0.17731 0.0
C325 C 0.5113 0.78236 0.16827 0.0
C326 C 0.23563 0.67679 0.20394 0.0
C327 C 0.40134 0.72448 0.24125 0.0
H328 H 0.06171 0.77322 0.42957 0.0
H329 H 0.04213 0.69107 0.30577 0.0
H330 H 1.01038 0.70237 0.37928 0.0
H331 H 0.18239 0.81025 0.33837 0.0
H332 H 0.50796 0.78036 0.10346 0.0
H333 H 0.5008 0.76525 0.23064 0.0
H334 H 0.37649 0.74781 0.18009 0.0
H335 H 0.54932 0.79264 0.16487 0.0
Eu336 Eu 0.2538 0.80673 0.77541 0.0
C337 C 0.37371 0.71652 0.66071 0.0
N338 N 0.32842 0.68753 0.67696 0.0
C339 C 0.30758 0.6345 0.6113 0.0
C340 C 0.38668 0.70687 0.61801 0.0
C341 C 0.29546 0.64685 0.65331 0.0
C342 C 0.35334 0.66478 0.59348 0.0
C343 C 0.44929 0.79411 0.66819 0.0
C344 C 0.40551 0.75908 0.68596 0.0
C345 C 0.46089 0.78565 0.6254 0.0
C346 C 0.43081 0.74151 0.60057 0.0
Eu347 Eu 0.311 0.71318 0.74695 0.0
N348 N 0.3911 0.76927 0.72665 0.0
C349 C 0.47887 0.8381 0.69351 0.0
C350 C 0.42166 0.80964 0.75232 0.0
C351 C 0.46576 0.8451 0.73601 0.0
H352 H 0.25991 0.62376 0.66702 0.0
H353 H 0.48931 0.87811 0.75609 0.0
H354 H 0.30876 0.90584 0.84852 0.0
H355 H 0.07672 0.64463 0.7786 0.0
H356 H 0.41235 0.81517 0.78517 0.0
H357 H 0.51205 0.86672 0.68071 0.0
H358 H 0.15008 0.70582 0.74414 0.0
H359 H 0.28138 0.60219 0.59255 0.0
H360 H 0.49204 0.8142 0.61109 0.0
H361 H 0.44076 0.73594 0.5675 0.0
H362 H 0.29137 0.93611 0.92181 0.0
H363 H 0.3621 0.65613 0.56055 0.0
H364 H 0.05982 0.66195 0.8532 0.0
N365 N 0.23974 0.8416 0.84371 0.0
C366 C 0.19516 0.81546 0.86244 0.0
C367 C 0.26408 0.902 0.90559 0.0
C368 C 0.18421 0.83039 0.90458 0.0
C369 C 0.27398 0.8846 0.86428 0.0
C370 C 0.21906 0.87459 0.92597 0.0
N371 N 0.17402 0.75699 0.79996 0.0
C372 C 0.14238 0.71454 0.77688 0.0
C373 C 0.11897 0.73843 0.86093 0.0
C374 C 0.16168 0.77127 0.84028 0.0
C375 C 0.09001 0.69111 0.83863 0.0
C376 C 0.10033 0.68018 0.79616 0.0
H377 H 0.2119 0.88733 0.95838 0.0
H378 H 0.13142 0.80944 0.95728 0.0
H379 H 0.07696 0.728 0.92058 0.0
O380 O 0.21792 0.82682 0.73588 0.0
O381 O 0.23526 0.75135 0.82135 0.0
O382 O 0.23718 0.68042 0.7825 0.0
O383 O 0.2667 0.88396 0.78179 0.0
O384 O 0.23504 0.75238 0.7141 0.0
O385 O 0.23612 0.68176 0.72713 0.0
O386 O 0.35174 0.69327 0.78036 0.0
O387 O 0.32292 0.76553 0.70058 0.0
O388 O 0.32907 0.83599 0.74409 0.0
O389 O 0.30146 0.63601 0.73541 0.0
O390 O 0.32495 0.76255 0.81013 0.0
O391 O 0.32677 0.83462 0.79811 0.0
C392 C 0.22264 0.70279 0.81616 0.0
C393 C 0.23128 0.91392 0.74251 0.0
C394 C 0.18856 0.94092 0.70743 0.0
C395 C 0.21987 0.99157 0.72174 0.0
C396 C 0.26313 0.96479 0.75584 0.0
C397 C 0.25731 1.00337 0.74549 0.0
C398 C 0.19403 0.90205 0.71805 0.0
C399 C 0.22491 0.70436 0.70417 0.0
C400 C 0.23801 0.87389 0.75364 0.0
C401 C 0.14017 0.79924 0.92463 0.0
C402 C 0.10859 0.75267 0.90334 0.0
C403 C 0.33776 0.81442 0.70743 0.0
C404 C 0.34599 0.60941 0.76883 0.0
C405 C 0.39625 0.5888 0.8011 0.0
C406 C 0.3723 0.53849 0.78187 0.0
C407 C 0.32195 0.55886 0.75 0.0
C408 C 0.38291 0.62412 0.79466 0.0
C409 C 0.33492 0.5236 0.7569 0.0
C410 C 0.33351 0.80973 0.82217 0.0
C411 C 0.33339 0.64696 0.76095 0.0
H412 H 0.21688 0.02195 0.71255 0.0
H413 H 0.2928 0.97485 0.77405 0.0
H414 H 0.28236 0.04249 0.7553 0.0
H415 H 0.17071 0.86305 0.70585 0.0
H416 H 0.38098 0.51027 0.78774 0.0
H417 H 0.29291 0.54647 0.73033 0.0
H418 H 0.40111 0.66281 0.81008 0.0
H419 H 0.31511 0.48433 0.74398 0.0
Eu420 Eu 0.24012 0.19795 0.79874 0.0
C421 C 0.40663 0.36229 0.69115 0.0
N422 N 0.38162 0.36849 0.72782 0.0
C423 C 0.4536 0.43883 0.75428 0.0
C424 C 0.45649 0.39469 0.68473 0.0
C425 C 0.40395 0.40744 0.75857 0.0
C426 C 0.48004 0.43254 0.71723 0.0
C427 C 0.40665 0.31891 0.62025 0.0
C428 C 0.38216 0.32432 0.65933 0.0
C429 C 0.45623 0.35129 0.61384 0.0
C430 C 0.48114 0.3888 0.64607 0.0
Eu431 Eu 0.2983 0.31158 0.73132 0.0
N432 N 0.33433 0.29286 0.66645 0.0
C433 C 0.38039 0.28148 0.58858 0.0
C434 C 0.30811 0.25816 0.63518 0.0
C435 C 0.33079 0.25129 0.59599 0.0
H436 H 0.38382 0.41522 0.78638 0.0
H437 H 0.3099 0.22323 0.57139 0.0
H438 H 0.15173 0.0982 0.74209 0.0
H439 H 0.23436 0.27671 0.96109 0.0
H440 H 0.26972 0.23637 0.64039 0.0
H441 H 0.39788 0.27626 0.55809 0.0
H442 H 0.27177 0.27089 0.88938 0.0
H443 H 0.47119 0.46813 0.77948 0.0
H444 H 0.47566 0.34762 0.58405 0.0
H445 H 0.51941 0.41346 0.64062 0.0
H446 H 0.06409 0.04588 0.75057 0.0
H447 H 0.51838 0.45765 0.71378 0.0
H448 H 0.14719 0.22121 0.97566 0.0
N449 N 0.15589 0.14476 0.80115 0.0
C450 C 0.13187 0.15074 0.83854 0.0
C451 C 0.08264 0.07568 0.7753 0.0
C452 C 0.08189 0.11922 0.84544 0.0
C453 C 0.13241 0.10648 0.77029 0.0
C454 C 0.05722 0.08242 0.81285 0.0
N455 N 0.20572 0.21731 0.86374 0.0
C456 C 0.23331 0.24931 0.89529 0.0
C457 C 0.13474 0.18906 0.91124 0.0
C458 C 0.15772 0.18645 0.87101 0.0
C459 C 0.16295 0.22125 0.94391 0.0
C460 C 0.2123 0.25207 0.93587 0.0
H461 H 1.01889 0.05784 0.81684 0.0
H462 H 1.02 0.10009 0.89074 0.0
H463 H 0.06653 0.16029 0.94858 0.0
O464 O 0.28431 0.18761 0.83706 0.0
O465 O 0.20987 0.25633 0.81633 0.0
O466 O 0.26431 0.33258 0.79322 0.0
O467 O 0.21711 0.12447 0.81651 0.0
O468 O 0.31671 0.26176 0.8028 0.0
O469 O 0.31989 0.33587 0.79761 0.0
O470 O 0.25067 0.31638 0.69312 0.0
O471 O 0.32941 0.25446 0.71521 0.0
O472 O 0.27655 0.1771 0.73764 0.0
O473 O 0.31564 0.38441 0.71519 0.0
O474 O 0.22139 0.24902 0.72988 0.0
O475 O 0.21967 0.17513 0.73214 0.0
C476 C 0.22522 0.30522 0.81582 0.0
C477 C 0.26977 0.10359 0.84352 0.0
C478 C 0.32645 0.08414 0.86893 0.0
C479 C 0.29225 0.03267 0.86362 0.0
C480 C 0.23635 0.05194 0.83926 0.0
C481 C 0.2476 0.0169 0.84921 0.0
C482 C 0.31483 0.11956 0.8588 0.0
C483 C 0.32877 0.30908 0.8179 0.0
C484 C 0.25368 0.14017 0.83839 0.0
C485 C 0.05839 0.124 0.88497 0.0
C486 C 0.08487 0.15826 0.91792 0.0
C487 C 0.31547 0.20587 0.71547 0.0
C488 C 0.26783 0.39575 0.67208 0.0
C489 C 0.21151 0.40998 0.64182 0.0
C490 C 0.24868 0.45806 0.63493 0.0
C491 C 0.30492 0.44315 0.66355 0.0
C492 C 0.22115 0.37867 0.66027 0.0
C493 C 0.2952 0.47432 0.64548 0.0
C494 C 0.21015 0.20256 0.71317 0.0
C495 C 0.27824 0.36483 0.69349 0.0
H496 H 0.29946 1.00452 0.87179 0.0
H497 H 0.20093 0.0385 0.82888 0.0
H498 H 0.22142 0.97725 0.84595 0.0
H499 H 0.34019 0.15924 0.8635 0.0
H500 H 0.24182 0.48269 0.62068 0.0
H501 H 0.34137 0.45649 0.67147 0.0
H502 H 0.19237 0.34176 0.66594 0.0
H503 H 0.32377 0.5112 0.6397 0.0
Eu504 Eu 0.72928 0.28163 0.76614 0.0
C505 C 0.80207 0.15564 0.82994 0.0
N506 N 0.82501 0.20576 0.82748 0.0
C507 C 0.85703 0.22456 0.89335 0.0
C508 C 0.80348 0.13812 0.86576 0.0
C509 C 0.85316 0.24027 0.85782 0.0
C510 C 0.83173 0.17326 0.89752 0.0
C511 C 0.75467 0.06945 0.79768 0.0
C512 C 0.77882 0.12181 0.79585 0.0
C513 C 0.75275 0.05204 0.83455 0.0
C514 C 0.77752 0.08626 0.86837 0.0
Eu515 Eu 0.82025 0.22955 0.76607 0.0
N516 N 0.78239 0.13981 0.76021 0.0
C517 C 0.7346 0.03596 0.76196 0.0
C518 C 0.76664 0.10693 0.72435 0.0
C519 C 0.74145 0.05477 0.72495 0.0
H520 H 0.87271 0.27984 0.85439 0.0
H521 H 0.72802 0.02903 0.69666 0.0
H522 H 0.65181 0.20683 0.69289 0.0
H523 H 0.83634 0.48686 0.78344 0.0
H524 H 0.77381 0.12006 0.69479 0.0
H525 H 0.7156 0.99548 0.76217 0.0
H526 H 0.79365 0.40255 0.80641 0.0
H527 H 0.87907 0.25199 0.91762 0.0
H528 H 0.73353 0.01201 0.83664 0.0
H529 H 0.7771 0.07221 0.89611 0.0
H530 H 0.6394 0.20784 0.62119 0.0
H531 H 0.83424 0.1612 0.92532 0.0
H532 H 0.83544 0.49452 0.71021 0.0
N533 N 0.71177 0.2802 0.69849 0.0
C534 C 0.73688 0.32401 0.68207 0.0
C535 C 0.66792 0.24025 0.63746 0.0
C536 C 0.73083 0.32659 0.64134 0.0
C537 C 0.6755 0.23956 0.67789 0.0
C538 C 0.69674 0.28338 0.61854 0.0
N539 N 0.76891 0.36359 0.7469 0.0
C540 C 0.79258 0.40587 0.77461 0.0
C541 C 0.79019 0.41429 0.69259 0.0
C542 C 0.76577 0.36732 0.70731 0.0
C543 C 0.81627 0.45765 0.72028 0.0
C544 C 0.81678 0.4535 0.76167 0.0
H545 H 0.69063 0.28377 0.58725 0.0
H546 H 0.75354 0.37526 0.5941 0.0
H547 H 0.806 0.45209 0.63897 0.0
O548 O 0.70127 0.3211 0.81591 0.0
O549 O 0.80788 0.32372 0.74018 0.0
O550 O 0.82158 0.25856 0.7076 0.0
O551 O 0.6534 0.26493 0.77046 0.0
O552 O 0.76897 0.31019 0.82544 0.0
O553 O 0.84033 0.30892 0.79954 0.0
O554 O 0.87763 0.20762 0.75114 0.0
O555 O 0.76597 0.22201 0.82235 0.0
O556 O 0.70144 0.20673 0.7903 0.0
O557 O 0.89578 0.28694 0.76292 0.0
O558 O 0.77673 0.19933 0.70797 0.0
O559 O 0.70606 0.20009 0.73612 0.0
C560 C 0.82983 0.30519 0.70986 0.0
C561 C 0.62765 0.26097 0.84216 0.0
C562 C 0.60986 0.26237 0.91699 0.0
C563 C 0.57301 0.21233 0.91051 0.0
C564 C 0.59101 0.21075 0.83567 0.0
C565 C 0.5645 0.18623 0.86992 0.0
C566 C 0.63891 0.28458 0.88268 0.0
C567 C 0.81514 0.32573 0.82781 0.0
C568 C 0.65679 0.28971 0.80804 0.0
C569 C 0.75717 0.37271 0.62555 0.0
C570 C 0.78686 0.41652 0.65115 0.0
C571 C 0.71911 0.20115 0.82094 0.0
C572 C 0.92817 0.25847 0.70194 0.0
C573 C 0.91143 0.22719 0.62949 0.0
C574 C 0.95719 0.26581 0.6179 0.0
C575 C 0.9732 0.29709 0.69063 0.0
C576 C 0.89661 0.22633 0.67145 0.0
C577 C 0.98726 0.30111 0.64849 0.0
C578 C 0.73021 0.18363 0.70633 0.0
C579 C 0.90969 0.25343 0.74506 0.0
H580 H 0.54863 0.19521 0.93635 0.0
H581 H 0.58274 0.19065 0.80447 0.0
H582 H 0.53576 0.14782 0.86492 0.0
H583 H 0.66635 0.32385 0.88756 0.0
H584 H 0.97108 0.26723 0.5856 0.0
H585 H 0.99706 0.32387 0.71409 0.0
H586 H 0.86074 0.19797 0.68034 0.0
H587 H 1.0223 0.33025 0.63955 0.0
Eu588 Eu 0.71921 0.72642 0.72402 0.0
C589 C 0.86052 0.89582 0.85341 0.0
N590 N 0.8669 0.87608 0.81316 0.0
C591 C 0.92592 0.9585 0.79788 0.0
C592 C 0.88697 0.94805 0.86731 0.0
C593 C 0.89999 0.90638 0.78571 0.0
C594 C 0.91924 0.97946 0.83881 0.0
C595 C 0.82107 0.88316 0.92307 0.0
C596 C 0.82751 0.86371 0.88104 0.0
C597 C 0.84775 0.93507 0.93692 0.0
C598 C 0.88057 0.96739 0.90915 0.0
Eu599 Eu 0.82382 0.78703 0.79812 0.0
N600 N 0.80208 0.81348 0.86698 0.0
C601 C 0.7887 0.84966 0.95022 0.0
C602 C 0.77289 0.78043 0.89384 0.0
C603 C 0.76485 0.79799 0.9356 0.0
H604 H 0.9079 0.89073 0.75474 0.0
H605 H 0.74129 0.77153 0.95671 0.0
H606 H 0.63445 0.62437 0.76917 0.0
H607 H 0.81403 0.73387 0.56936 0.0
H608 H 0.75759 0.74045 0.88374 0.0
H609 H 0.78289 0.86313 0.98275 0.0
H610 H 0.79498 0.76811 0.64034 0.0
H611 H 0.95171 0.98234 0.77586 0.0
H612 H 0.84336 0.9506 0.96913 0.0
H613 H 0.90081 1.00738 0.92034 0.0
H614 H 0.59177 0.5319 0.75012 0.0
H615 H 0.93946 0.01983 0.84829 0.0
H616 H 0.76885 0.64235 0.54426 0.0
N617 N 0.67414 0.63732 0.71022 0.0
C618 C 0.68145 0.61609 0.67078 0.0
C619 C 0.61622 0.55543 0.72741 0.0
C620 C 0.65491 0.56359 0.65791 0.0
C621 C 0.64157 0.6079 0.73834 0.0
C622 C 0.62224 0.53329 0.68688 0.0
N623 N 0.7437 0.69673 0.65714 0.0
C624 C 0.77717 0.72807 0.63074 0.0
C625 C 0.72532 0.62546 0.60251 0.0
C626 C 0.71682 0.64663 0.64344 0.0
C627 C 0.76127 0.65717 0.57592 0.0
C628 C 0.78712 0.70877 0.59005 0.0
H629 H 0.60201 0.49271 0.67841 0.0
H630 H 0.64229 0.50249 0.60657 0.0
H631 H 0.70362 0.5567 0.55796 0.0
O632 O 0.70555 0.76587 0.68389 0.0
O633 O 0.7667 0.68607 0.71571 0.0
O634 O 0.84117 0.74799 0.73565 0.0
O635 O 0.64607 0.70048 0.70783 0.0
O636 O 0.77949 0.80697 0.71926 0.0
O637 O 0.84748 0.80682 0.73283 0.0
O638 O 0.84437 0.7466 0.83302 0.0
O639 O 0.77472 0.82591 0.80993 0.0
O640 O 0.70077 0.76638 0.78594 0.0
O641 O 0.89816 0.81787 0.81134 0.0
O642 O 0.76212 0.70758 0.80475 0.0
O643 O 0.69433 0.70778 0.78975 0.0
C644 C 0.81386 0.70356 0.71491 0.0
C645 C 0.63017 0.76454 0.69571 0.0
C646 C 0.59925 0.81296 0.67153 0.0
C647 C 0.57949 0.82071 0.7123 0.0
C648 C 0.60982 0.77228 0.73604 0.0
C649 C 0.58456 0.80027 0.74421 0.0
C650 C 0.62491 0.78494 0.66358 0.0
C651 C 0.82606 0.82191 0.71237 0.0
C652 C 0.65895 0.73744 0.68692 0.0
C653 C 0.66267 0.54267 0.61697 0.0
C654 C 0.69773 0.57352 0.58934 0.0
C655 C 0.72768 0.80888 0.80952 0.0
C656 C 0.92788 0.78249 0.85132 0.0
C657 C 0.95719 0.7431 0.88863 0.0
C658 C 1.00214 0.78689 0.89001 0.0
C659 C 0.97307 0.82597 0.85315 0.0
C660 C 0.91989 0.74105 0.86943 0.0
C661 C 1.00991 0.82804 0.87242 0.0
C662 C 0.71564 0.6938 0.8115 0.0
C663 C 0.88907 0.78221 0.83227 0.0
H664 H 0.5601 0.84262 0.71961 0.0
H665 H 0.61384 0.75712 0.76123 0.0
H666 H 0.56913 0.80643 0.77542 0.0
H667 H 0.64181 0.77998 0.63271 0.0
H668 H 0.03128 0.78929 0.90495 0.0
H669 H 0.97989 0.85871 0.84003 0.0
H670 H 0.88522 0.70734 0.86827 0.0
H671 H 0.04454 0.86168 0.87382 0.0
C672 C 0.94929 0.11109 0.5401 0.0
C673 C 0.97377 0.07042 0.43028 0.0
C674 C 0.94057 0.90703 0.46388 0.0
Mg675 Mg 0.03 0.11726 0.51152 0.0
O676 O 0.9839 0.05117 0.53218 0.0
Mg677 Mg 0.91693 0.99484 0.50521 0.0
Mg678 Mg 1.02202 0.01247 0.51374 0.0
O679 O 0.05989 0.9754 0.49538 0.0
Mg680 Mg 1.02005 0.90354 0.50613 0.0
Mg681 Mg 0.12984 0.02998 0.51724 0.0
C682 C 0.10379 0.11549 0.56372 0.0
C683 C 0.11465 0.08142 0.44829 0.0
O684 O 0.95555 0.07263 0.54077 0.0
O685 O 0.987 0.15346 0.53861 0.0
O686 O 0.9394 0.03565 0.44916 0.0
O687 O 1.01363 0.10225 0.4463 0.0
O688 O 0.09202 0.14244 0.54759 0.0
O689 O 0.08325 0.06719 0.55439 0.0
C690 C 0.92961 0.9468 0.57961 0.0
O691 O 0.97484 0.9628 0.5675 0.0
O692 O 0.90238 0.95574 0.56164 0.0
O693 O 0.08779 0.95924 0.47405 0.0
O694 O 0.06192 0.8779 0.4599 0.0
O695 O 0.11285 0.97967 0.56489 0.0
C696 C 0.09742 0.92215 0.46061 0.0
O697 O 0.0459 0.90487 0.56486 0.0
O698 O 0.95318 0.87975 0.47859 0.0
C699 C 0.08558 0.93899 0.58011 0.0
O700 O 0.96189 0.95546 0.47285 0.0
O701 O 0.06901 0.06191 0.45935 0.0
O702 O 0.14325 0.07499 0.46639 0.0
C703 C 0.41716 0.10466 0.09849 0.0
C704 C 0.45924 0.09156 0.96822 0.0
C705 C 0.43363 0.90588 0.96887 0.0
Mg706 Mg 0.51342 0.1144 0.04528 0.0
O707 O 0.48645 0.04509 0.04817 0.0
Mg708 Mg 0.41902 1.00191 0.03046 0.0
Mg709 Mg 0.52002 1.0046 0.01557 0.0
O710 O 0.55326 0.96392 0.98263 0.0
Mg711 Mg 0.52687 0.89409 0.98292 0.0
Mg712 Mg 0.62045 1.00645 1.00016 0.0
C713 C 0.6067 0.10338 0.06199 0.0
C714 C 0.60081 0.06951 0.94424 0.0
O715 O 0.39461 0.05812 0.08081 0.0
O716 O 0.46288 0.13123 0.0909 0.0
O717 O 0.43003 0.04968 0.98111 0.0
O718 O 0.49761 0.12321 0.98625 0.0
O719 O 0.58482 0.12958 0.06137 0.0
O720 O 0.58817 0.05551 0.0486 0.0
C721 C 0.43924 0.93911 0.08708 0.0
O722 O 0.48181 0.95188 0.06842 0.0
O723 O 0.41106 0.95421 0.07826 0.0
O724 O 0.64475 0.95196 0.94846 0.0
O725 O 0.57771 0.87844 0.93581 0.0
O726 O 0.60938 0.95721 0.04763 0.0
C727 C 0.62332 0.90641 0.92868 0.0
O728 O 0.54082 0.88455 0.04206 0.0
O729 O 0.45562 0.87946 0.96803 0.0
C730 C 0.57943 0.91526 0.05997 0.0
O731 O 0.45216 0.95345 0.98308 0.0
O732 O 0.55821 0.05759 0.96255 0.0
O733 O 0.6279 0.0534 0.95339 0.0
C734 C 0.92616 0.61255 0.107 0.0
C735 C 0.97201 0.61435 0.98198 0.0
C736 C 0.93788 0.42267 0.96054 0.0
Mg737 Mg 0.02433 0.62379 0.0582 0.0
O738 O 0.99394 0.5533 0.04988 0.0
Mg739 Mg 0.92638 0.51523 0.03117 0.0
Mg740 Mg 0.02556 0.51253 0.01401 0.0
O741 O 0.05646 0.47111 0.97839 0.0
Mg742 Mg 0.02448 0.40077 0.97519 0.0
Mg743 Mg 0.12318 0.50819 0.99849 0.0
C744 C 0.11239 0.60078 0.0702 0.0
C745 C 0.10957 0.57833 0.94494 0.0
O746 O 0.90414 0.5694 0.08389 0.0
O747 O 0.97246 0.63779 0.10489 0.0
O748 O 0.93999 0.57036 0.98869 0.0
O749 O 1.0105 0.63994 1.00158 0.0
O750 O 0.0925 0.63019 0.07647 0.0
O751 O 0.09328 0.55668 0.04841 0.0
C752 C 0.94222 0.44537 0.08275 0.0
O753 O 0.98443 0.45699 0.06379 0.0
O754 O 0.91512 0.46245 0.07529 0.0
O755 O 0.14407 0.45256 0.94615 0.0
O756 O 0.07492 0.38185 0.93103 0.0
O757 O 0.10684 0.4538 0.04352 0.0
C758 C 0.12105 0.40761 0.92589 0.0
O759 O 0.03421 0.38699 0.03379 0.0
O760 O 0.9568 0.39278 0.95663 0.0
C761 C 0.07267 0.41205 0.05319 0.0
O762 O 0.9577 0.46822 0.97981 0.0
O763 O 0.06746 0.56788 0.96386 0.0
O764 O 0.13586 0.56052 0.95301 0.0
C765 C 0.41861 0.61264 0.03178 0.0
C766 C 0.49014 0.58737 0.93098 0.0
C767 C 0.45616 0.41413 0.95322 0.0
Mg768 Mg 0.52175 0.62098 0.01881 0.0
O769 O 0.48349 0.5557 0.03293 0.0
Mg770 Mg 0.42622 0.50637 1.00005 0.0
Mg771 Mg 0.52142 0.51862 0.01798 0.0
O772 O 0.55978 0.48443 1.00625 0.0
Mg773 Mg 0.55061 0.42303 0.98056 0.0
Mg774 Mg 0.62476 0.53372 0.02584 0.0
C775 C 0.5979 0.62394 0.07319 0.0
C776 C 0.61476 0.58369 0.95249 0.0
O777 O 0.39644 0.5639 0.02513 0.0
O778 O 0.46443 0.63905 0.03342 0.0
O779 O 0.45509 0.54879 0.94483 0.0
O780 O 0.52523 0.61917 0.95266 0.0
O781 O 0.58178 0.64962 0.06015 0.0
O782 O 0.58063 0.57621 0.06116 0.0
C783 C 0.42633 0.45598 0.07981 0.0
O784 O 0.47199 0.47155 0.07085 0.0
O785 O 0.40183 0.46521 0.0584 0.0
O786 O 0.6616 0.48655 0.98697 0.0
O787 O 0.61177 0.46045 0.93964 0.0
O788 O 0.60186 0.47835 0.07196 0.0
C789 C 0.64295 0.45564 0.95463 0.0
O790 O 0.56501 0.40105 0.03417 0.0
O791 O 0.48395 0.39529 0.9546 0.0
C792 C 0.5836 0.43015 0.06758 0.0
O793 O 0.4647 0.45813 0.97351 0.0
O794 O 0.56921 0.56527 0.96306 0.0
O795 O 0.64245 0.57821 0.97264 0.0
C796 C 0.91723 0.60036 0.60287 0.0
C797 C 0.96411 0.59462 0.4728 0.0
C798 C 0.93427 0.40605 0.46592 0.0
Mg799 Mg 1.01465 0.61319 0.55079 0.0
O800 O 0.98742 0.54295 0.54988 0.0
Mg801 Mg 0.92046 0.50061 0.53111 0.0
Mg802 Mg 1.02098 0.50333 0.51593 0.0
O803 O 0.05421 0.46374 0.48191 0.0
Mg804 Mg 0.02674 0.39329 0.4785 0.0
Mg805 Mg 0.12093 0.50496 0.50071 0.0
C806 C 0.10703 0.60053 0.56599 0.0
C807 C 0.10214 0.56933 0.44545 0.0
O808 O 0.89571 0.55495 0.58279 0.0
O809 O 0.96304 0.62792 0.5968 0.0
O810 O 0.9342 0.55177 0.48385 0.0
O811 O 1.00145 0.6255 0.49242 0.0
O812 O 0.0855 0.62748 0.56709 0.0
O813 O 0.08867 0.55327 0.55018 0.0
C814 C 0.94011 0.4357 0.58575 0.0
O815 O 0.98262 0.44915 0.56696 0.0
O816 O 0.91143 0.45071 0.57785 0.0
O817 O 0.14595 0.45173 0.44807 0.0
O818 O 0.07811 0.38056 0.43148 0.0
O819 O 0.10588 0.45178 0.54663 0.0
C820 C 0.12401 0.40765 0.42611 0.0
O821 O 0.03936 0.37771 0.53508 0.0
O822 O 0.95586 0.37893 0.46342 0.0
C823 C 0.07595 0.40787 0.55573 0.0
O824 O 0.95311 0.45311 0.48205 0.0
O825 O 0.05985 0.55728 0.4645 0.0
O826 O 0.13035 0.55427 0.45413 0.0
C827 C 0.4245 0.11038 0.60244 0.0
C828 C 0.47807 0.113 0.47432 0.0
C829 C 0.43681 0.9207 0.45472 0.0
Mg830 Mg 0.52323 0.12112 0.55409 0.0
O831 O 0.49164 0.05031 0.54712 0.0
Mg832 Mg 0.42531 0.01332 0.52635 0.0
Mg833 Mg 0.52321 0.00929 0.51225 0.0
O834 O 0.55484 0.96832 0.47761 0.0
Mg835 Mg 0.52423 0.8976 0.4674 0.0
Mg836 Mg 0.62058 1.00491 0.49951 0.0
C837 C 0.60885 0.09722 0.57029 0.0
C838 C 0.60906 0.07615 0.44546 0.0
O839 O 0.40192 0.06698 0.57975 0.0
O840 O 0.47078 0.13534 0.59904 0.0
O841 O 0.44495 0.06959 0.48195 0.0
O842 O 0.51454 0.1394 0.49624 0.0
O843 O 0.58992 0.12721 0.5746 0.0
O844 O 0.58952 0.05258 0.54923 0.0
C845 C 0.438 0.9415 0.57864 0.0
O846 O 0.48058 0.95346 0.56063 0.0
O847 O 0.41126 0.95895 0.5708 0.0
O848 O 0.64448 0.95188 0.44766 0.0
O849 O 0.57746 0.88602 0.42141 0.0
O850 O 0.60068 0.9476 0.54277 0.0
C851 C 0.62358 0.9108 0.42204 0.0
O852 O 0.53403 0.87651 0.52318 0.0
O853 O 0.45634 0.89108 0.44913 0.0
C854 C 0.56903 0.9023 0.54679 0.0
O855 O 0.4562 0.96537 0.47588 0.0
O856 O 0.56643 0.06503 0.46323 0.0
O857 O 0.63523 0.05867 0.45441 0.0
C858 C 0.19425 0.12546 0.34998 0.0
C859 C 0.18892 0.16707 0.34526 0.0
C860 C 0.16814 0.09691 0.38237 0.0
C861 C 0.13633 0.10932 0.41184 0.0
H862 H 0.21873 0.11485 0.32848 0.0
H863 H 0.17362 0.06525 0.38485 0.0
S864 S 0.11613 0.22024 0.4167 0.0
N865 N 0.15173 0.22123 0.3738 0.0
N866 N 0.10645 0.17062 0.43678 0.0
C867 C 0.1319 0.15188 0.40807 0.0
C868 C 0.1572 0.1799 0.37421 0.0
C869 C 0.89684 0.03903 0.34539 0.0
C870 C 0.89681 0.08525 0.3472 0.0
C871 C 0.92906 0.03591 0.36736 0.0
C872 C 0.96111 0.07862 0.39269 0.0
H873 H 0.86972 1.00461 0.32923 0.0
H874 H 0.92529 0.99891 0.36818 0.0
S875 S 0.98157 0.21001 0.40061 0.0
N876 N 0.9369 0.17606 0.36994 0.0
N877 N 0.99653 0.16972 0.41252 0.0
C878 C 0.96548 0.12601 0.39046 0.0
C879 C 0.93309 0.12936 0.36762 0.0
C880 C 0.89168 0.82474 0.36213 0.0
C881 C 0.86283 0.84345 0.35175 0.0
C882 C 0.91456 0.84409 0.39944 0.0
C883 C 0.90922 0.88264 0.42827 0.0
H884 H 0.89729 0.79541 0.34096 0.0
H885 H 0.93795 0.82972 0.40504 0.0
S886 S 0.83029 0.93788 0.41875 0.0
N887 N 0.82666 0.89944 0.37457 0.0
N888 N 0.8671 0.93342 0.44572 0.0
C889 C 0.87847 0.89981 0.41901 0.0
C890 C 0.85602 0.8809 0.3805 0.0
C891 C 0.14945 0.85123 0.45491 0.0
C892 C 0.15425 0.8472 0.41134 0.0
C893 C 0.14842 0.89395 0.47899 0.0
C894 C 0.14624 0.9288 0.45877 0.0
H895 H 0.13743 0.81869 0.47008 0.0
H896 H 0.13287 0.88995 0.51065 0.0
S897 S 0.18965 0.95186 0.35107 0.0
N898 N 0.18244 0.89487 0.35233 0.0
N899 N 0.1777 0.97352 0.3995 0.0
C900 C 0.16907 0.93457 0.41897 0.0
C901 C 0.17113 0.89189 0.39369 0.0
C902 C 0.10928 0.91636 0.68089 0.0
C903 C 0.15879 0.93026 0.67368 0.0
C904 C 0.08374 0.91546 0.6494 0.0
C905 C 0.10761 0.92897 0.61054 0.0
H906 H 0.09104 0.90868 0.71142 0.0
H907 H 0.04642 0.90759 0.65638 0.0
S908 S 0.23662 0.96472 0.57669 0.0
N909 N 0.22963 0.95373 0.62492 0.0
N910 N 0.18316 0.9543 0.56652 0.0
C911 C 0.15669 0.94049 0.60291 0.0
C912 C 0.18197 0.94055 0.63436 0.0
C913 C 0.15843 0.20182 0.66276 0.0
C914 C 0.18402 0.18024 0.67465 0.0
C915 C 0.13469 0.18205 0.62579 0.0
C916 C 0.13577 0.14005 0.59895 0.0
H917 H 0.15595 0.23375 0.6825 0.0
H918 H 0.11398 0.1989 0.61896 0.0
S919 S 0.20535 0.07592 0.61255 0.0
N920 N 0.21319 0.11808 0.65478 0.0
N921 N 0.17039 0.0823 0.58488 0.0
C922 C 0.16332 0.11989 0.60967 0.0
C923 C 0.18686 0.13953 0.6476 0.0
C924 C 0.87119 0.13363 0.61242 0.0
C925 C 0.88517 0.18089 0.6001 0.0
C926 C 0.87768 0.09608 0.58412 0.0
C927 C 0.90137 0.10781 0.5451 0.0
H928 H 0.86394 0.12845 0.64484 0.0
H929 H 0.8763 0.06504 0.59633 0.0
S930 S 0.90701 0.20538 0.49167 0.0
N931 N 0.89445 0.22221 0.54134 0.0
N932 N 0.90925 0.15183 0.48871 0.0
C933 C 0.89761 0.14473 0.5292 0.0
C934 C 0.89023 0.18273 0.55743 0.0
C935 C 0.8416 0.89013 0.67147 0.0
C936 C 0.85503 0.85572 0.68034 0.0
C937 C 0.86696 0.92026 0.63983 0.0
C938 C 0.90665 0.91706 0.61525 0.0
H939 H 0.8111 0.89374 0.68903 0.0
H940 H 0.85492 0.94601 0.63428 0.0
S941 S 0.95201 0.82771 0.62235 0.0
N942 N 0.90871 0.81787 0.66028 0.0
N943 N 0.95482 0.87283 0.60008 0.0
C944 C 0.91987 0.88217 0.6235 0.0
C945 C 0.89449 0.85199 0.65614 0.0
C946 C 0.32092 0.12934 0.1752 0.0
C947 C 0.34165 0.18272 0.1828 0.0
C948 C 0.34474 0.10396 0.14797 0.0
C949 C 0.39032 0.13078 0.12684 0.0
H950 H 0.28638 0.10693 0.191 0.0
H951 H 0.32758 0.06307 0.14395 0.0
S952 S 0.45622 0.27066 0.13061 0.0
N953 N 0.40816 0.2608 0.16331 0.0
N954 N 0.45207 0.21428 0.11254 0.0
C955 C 0.41012 0.18411 0.13301 0.0
C956 C 0.38614 0.20965 0.16074 0.0
C957 C 0.89381 0.40055 0.18726 0.0
C958 C 0.8626 0.34874 0.17621 0.0
C959 C 0.92295 0.43115 0.15679 0.0
C960 C 0.92233 0.41098 0.11427 0.0
H961 H 0.89518 0.41784 0.21959 0.0
H962 H 0.94461 0.47132 0.1664 0.0
S963 S 0.84609 0.27875 0.06842 0.0
N964 N 0.83246 0.27925 0.1191 0.0
N965 N 0.88757 0.33689 0.06245 0.0
C966 C 0.89211 0.35936 0.10282 0.0
C967 C 0.86223 0.3282 0.13363 0.0
C968 C 0.66426 0.89316 0.10817 0.0
C969 C 0.65126 0.90098 0.15108 0.0
C970 C 0.63719 0.89255 0.07852 0.0
C971 C 0.59614 0.89971 0.09052 0.0
H972 H 0.69751 0.8912 0.09724 0.0
H973 H 0.65048 0.89013 0.046 0.0
S974 S 0.54206 0.91395 0.19773 0.0
N975 N 0.59026 0.90907 0.20351 0.0
N976 N 0.54078 0.91006 0.14711 0.0
C977 C 0.58051 0.90389 0.13274 0.0
C978 C 0.6078 0.90405 0.1632 0.0
C979 C 0.15749 0.61794 0.17371 0.0
C980 C 0.20813 0.6453 0.16694 0.0
C981 C 0.12739 0.60161 0.14137 0.0
C982 C 0.14647 0.61064 0.10061 0.0
H983 H 0.14058 0.61252 0.20496 0.0
H984 H 0.08866 0.58397 0.14879 0.0
S985 S 0.27572 0.66555 0.06341 0.0
N986 N 0.27579 0.67121 0.11448 0.0
N987 N 0.21855 0.63859 0.05317 0.0
C988 C 0.19671 0.63209 0.09212 0.0
C989 C 0.22774 0.64958 0.12543 0.0
C990 C 0.37891 0.88796 0.87146 0.0
C991 C 0.35183 0.83502 0.86355 0.0
C992 C 0.39991 0.91218 0.9093 0.0
C993 C 0.39542 0.88407 0.94004 0.0
H994 H 0.38625 0.91069 0.84744 0.0
H995 H 0.4237 0.95256 0.91264 0.0
S996 S 0.32326 0.74551 0.93714 0.0
N997 N 0.31738 0.75587 0.89167 0.0
N998 N 0.35769 0.80164 0.96237 0.0
C999 C 0.36539 0.8317 0.93389 0.0
C1000 C 0.34381 0.80702 0.89555 0.0
C1001 C 0.15507 0.30528 0.8664 0.0
C1002 C 0.19932 0.33226 0.84385 0.0
C1003 C 0.13021 0.32984 0.89236 0.0
C1004 C 0.14832 0.3828 0.89741 0.0
H1005 H 0.13895 0.26463 0.86371 0.0
H1006 H 0.09655 0.30695 0.90904 0.0
S1007 S 0.26118 0.47177 0.84433 0.0
N1008 N 0.25916 0.41601 0.82773 0.0
N1009 N 0.21256 0.46125 0.8765 0.0
C1010 C 0.19224 0.41035 0.87501 0.0
C1011 C 0.21751 0.38543 0.84827 0.0
C1012 C 0.63786 0.13443 0.84747 0.0
C1013 C 0.68618 0.17099 0.85424 0.0
C1014 C 0.60771 0.1035 0.87786 0.0
C1015 C 0.62486 0.10863 0.91619 0.0
H1016 H 0.62379 0.12829 0.81788 0.0
H1017 H 0.57196 0.07393 0.87049 0.0
S1018 S 0.74652 0.19855 0.95063 0.0
N1019 N 0.74819 0.21008 0.90343 0.0
N1020 N 0.69147 0.15407 0.96011 0.0
C1021 C 0.6719 0.14642 0.92394 0.0
C1022 C 0.70263 0.17687 0.89312 0.0
C1023 C 0.98501 0.68205 0.89429 0.0
C1024 C 0.95112 0.69999 0.90683 0.0
C1025 C 0.99001 0.65186 0.91792 0.0
C1026 C 0.96082 0.63841 0.95425 0.0
H1027 H 1.0093 0.69447 0.86725 0.0
H1028 H 1.018 0.64047 0.90946 0.0
S1029 S 0.85721 0.66365 0.99424 0.0
N1030 N 0.88148 0.69415 0.95366 0.0
N1031 N 0.88993 0.63598 0.99762 0.0
C1032 C 0.92253 0.65059 0.96442 0.0
C1033 C 0.9178 0.68183 0.94063 0.0
C1034 C 0.08663 0.35724 0.13993 0.0
C1035 C 0.09781 0.31938 0.11697 0.0
C1036 C 0.08115 0.39017 0.11958 0.0
C1037 C 0.08532 0.38446 0.07603 0.0
H1038 H 0.07947 0.3594 0.17343 0.0
H1039 H 0.07098 0.41805 0.13753 0.0
S1040 S 0.12816 0.30219 1.00342 0.0
N1041 N 0.12325 0.28593 0.04948 0.0
N1042 N 0.11184 0.34709 1.01145 0.0
C1043 C 0.10194 0.35094 0.05341 0.0
C1044 C 0.10828 0.31826 0.0739 0.0
C1045 C 0.16053 0.61987 0.83926 0.0
C1046 C 0.19011 0.67232 0.84926 0.0
C1047 C 0.13126 0.59006 0.87022 0.0
C1048 C 0.13002 0.61153 0.91231 0.0
H1049 H 0.1606 0.60147 0.80737 0.0
H1050 H 0.11092 0.54954 0.8614 0.0
S1051 S 0.20186 0.74584 0.95576 0.0
N1052 N 0.21674 0.74382 0.90513 0.0
N1053 N 0.1616 0.68758 0.96268 0.0
C1054 C 0.15861 0.66373 0.92273 0.0
C1055 C 0.18859 0.69416 0.89138 0.0
C1056 C 0.39675 0.07019 0.87421 0.0
C1057 C 0.37211 0.09925 0.88779 0.0
C1058 C 0.43054 0.0726 0.89823 0.0
C1059 C 0.44209 0.10516 0.93619 0.0
H1060 H 0.38692 0.04228 0.84643 0.0
H1061 H 0.44469 0.04576 0.88877 0.0
S1062 S 0.39314 0.1941 0.98341 0.0
N1063 N 0.3653 0.16513 0.94018 0.0
N1064 N 0.43033 0.1709 0.98435 0.0
C1065 C 0.42176 0.13829 0.94802 0.0
C1066 C 0.38647 0.13517 0.92399 0.0
C1067 C 0.88895 0.39699 0.85769 0.0
C1068 C 0.84061 0.36053 0.86427 0.0
C1069 C 0.91906 0.42109 0.89054 0.0
C1070 C 0.90211 0.40897 0.93097 0.0
H1071 H 0.90445 0.40458 0.82643 0.0
H1072 H 0.95688 0.4464 0.88363 0.0
S1073 S 0.77884 0.31958 0.96541 0.0
N1074 N 0.77629 0.31729 0.91523 0.0
N1075 N 0.83441 0.36097 0.97657 0.0
C1076 C 0.85352 0.37515 0.93858 0.0
C1077 C 0.82228 0.35145 0.9053 0.0
C1078 C 0.65234 0.81008 0.84948 0.0
C1079 C 0.70258 0.83595 0.83914 0.0
C1080 C 0.62761 0.83328 0.87764 0.0
C1081 C 0.65148 0.88388 0.89748 0.0
H1082 H 0.63165 0.77094 0.83616 0.0
H1083 H 0.58913 0.81074 0.88413 0.0
S1084 S 0.78253 0.97006 0.87971 0.0
N1085 N 0.77476 0.91664 0.84964 0.0
N1086 N 0.72902 0.95948 0.90331 0.0
C1087 C 0.7017 0.91051 0.88711 0.0
C1088 C 0.72689 0.88686 0.858 0.0
C1089 C 0.89031 0.69406 0.19708 0.0
C1090 C 0.84852 0.69089 0.18452 0.0
C1091 C 0.9147 0.66812 0.17235 0.0
C1092 C 0.89772 0.6368 0.13438 0.0
H1093 H 0.90421 0.71667 0.2264 0.0
H1094 H 0.94701 0.67236 0.18323 0.0
S1095 S 0.79083 0.61755 0.0868 0.0
N1096 N 0.79245 0.65565 0.13085 0.0
N1097 N 0.83682 0.60595 0.08518 0.0
C1098 C 0.85585 0.63342 0.12165 0.0
C1099 C 0.83167 0.6606 0.14646 0.0
C1100 C 0.4048 0.87599 0.18471 0.0
C1101 C 0.36013 0.83324 0.17535 0.0
C1102 C 0.4328 0.90918 0.15528 0.0
C1103 C 0.41741 0.90015 0.11531 0.0
H1104 H 0.41714 0.88516 0.21557 0.0
H1105 H 0.46525 0.94322 0.16453 0.0
S1106 S 0.30773 0.79082 0.07289 0.0
N1107 N 0.30514 0.78193 0.12122 0.0
N1108 N 0.35758 0.84367 0.06674 0.0
C1109 C 0.37462 0.85625 0.10493 0.0
C1110 C 0.34609 0.82295 0.13464 0.0
C1111 C 0.66994 0.12393 0.15632 0.0
C1112 C 0.69612 0.17701 0.16405 0.0
C1113 C 0.64529 0.09917 0.12005 0.0
C1114 C 0.64592 0.12673 0.09037 0.0
H1115 H 0.66643 0.10149 0.17937 0.0
H1116 H 0.6225 0.05862 0.11701 0.0
S1117 S 0.71616 0.2654 0.09208 0.0
N1118 N 0.72634 0.25564 0.1361 0.0
N1119 N 0.68015 0.20899 0.06825 0.0
C1120 C 0.67531 0.1793 0.09605 0.0
C1121 C 0.70014 0.20451 0.1329 0.0
C1122 C 0.65403 0.67468 0.87301 0.0
C1123 C 0.6865 0.6622 0.84472 0.0
C1124 C 0.63032 0.64905 0.90759 0.0
C1125 C 0.63659 0.6086 0.9143 0.0
H1126 H 0.64896 0.70633 0.86971 0.0
H1127 H 0.60927 0.66304 0.93021 0.0
S1128 S 0.71439 0.55826 0.84706 0.0
N1129 N 0.72218 0.60561 0.82479 0.0
N1130 N 0.67599 0.55592 0.88819 0.0
C1131 C 0.66773 0.59479 0.88528 0.0
C1132 C 0.69282 0.62171 0.85082 0.0
C1133 C 0.41731 0.61619 0.8741 0.0
C1134 C 0.43002 0.60219 0.83248 0.0
C1135 C 0.4412 0.61625 0.90595 0.0
C1136 C 0.47898 0.60329 0.89718 0.0
H1137 H 0.38609 0.62276 0.88226 0.0
H1138 H 0.42707 0.62182 0.93776 0.0
S1139 S 0.53135 0.57394 0.79326 0.0
N1140 N 0.48652 0.58213 0.78361 0.0
N1141 N 0.53204 0.58266 0.84437 0.0
C1142 C 0.49494 0.59392 0.85577 0.0
C1143 C 0.47025 0.59337 0.82312 0.0
C1144 C 0.36481 0.38218 0.87553 0.0
C1145 C 0.35888 0.33463 0.85411 0.0
C1146 C 0.39384 0.40697 0.90951 0.0
C1147 C 0.41744 0.38473 0.92366 0.0
H1148 H 0.3475 0.40081 0.8656 0.0
H1149 H 0.39911 0.44438 0.9237 0.0
S1150 S 0.41296 0.26024 0.87862 0.0
N1151 N 0.37989 0.26707 0.84934 0.0
N1152 N 0.43025 0.31051 0.91451 0.0
C1153 C 0.40968 0.336 0.90352 0.0
C1154 C 0.38166 0.31184 0.8684 0.0
C1155 C 0.57194 0.31315 0.94324 0.0
C1156 C 0.60514 0.29908 0.95161 0.0
C1157 C 0.58719 0.36315 0.93966 0.0
C1158 C 0.63151 0.4025 0.95411 0.0
H1159 H 0.53866 0.28489 0.92959 0.0
H1160 H 0.56358 0.37037 0.92496 0.0
S1161 S 0.72124 0.38595 0.99826 0.0
N1162 N 0.67911 0.32758 0.9842 0.0
N1163 N 0.70341 0.42392 0.98647 0.0
C1164 C 0.6606 0.38933 0.97103 0.0
C1165 C 0.64724 0.33732 0.97008 0.0
C1166 C 0.66653 0.41476 0.12379 0.0
C1167 C 0.64382 0.41189 0.16415 0.0
C1168 C 0.64351 0.41463 0.09113 0.0
C1169 C 0.5972 0.41112 0.0977 0.0
H1170 H 0.70359 0.42122 0.11816 0.0
H1171 H 0.6639 0.42239 0.06156 0.0
S1172 S 0.52143 0.39808 0.19725 0.0
N1173 N 0.57159 0.40129 0.20879 0.0
N1174 N 0.52846 0.40157 0.14695 0.0
C1175 C 0.57305 0.4049 0.13738 0.0
C1176 C 0.59641 0.40501 0.17076 0.0
C1177 C 0.66904 0.71763 0.16374 0.0
C1178 C 0.68744 0.691 0.17911 0.0
C1179 C 0.64227 0.69683 0.12839 0.0
C1180 C 0.63232 0.64825 0.10694 0.0
H1181 H 0.67441 0.75453 0.17954 0.0
H1182 H 0.62804 0.71854 0.1187 0.0
S1183 S 0.67219 0.56275 0.13506 0.0
N1184 N 0.69355 0.61344 0.17034 0.0
N1185 N 0.64447 0.57496 0.10422 0.0
C1186 C 0.65126 0.62177 0.12195 0.0
C1187 C 0.67822 0.6428 0.15796 0.0
C1188 C 0.37361 0.67671 0.11177 0.0
C1189 C 0.40784 0.72609 0.10353 0.0
C1190 C 0.3649 0.63476 0.08137 0.0
C1191 C 0.39187 0.64158 0.04314 0.0
H1192 H 0.35898 0.66889 0.14306 0.0
H1193 H 0.34561 0.59759 0.09091 0.0
S1194 S 0.46369 0.762 1.00015 0.0
N1195 N 0.45148 0.77911 0.04986 0.0
N1196 N 0.43635 0.69954 0.99266 0.0
C1197 C 0.41437 0.69009 0.03122 0.0
C1198 C 0.42308 0.73301 0.06204 0.0
C1199 C 0.39985 0.3755 0.16562 0.0
C1200 C 0.35192 0.3638 0.18102 0.0
C1201 C 0.42374 0.40576 0.13363 0.0
C1202 C 0.4009 0.42569 0.11522 0.0
H1203 H 0.41878 0.36011 0.17758 0.0
H1204 H 0.46012 0.41266 0.1225 0.0
S1205 S 0.27605 0.40825 0.14503 0.0
N1206 N 0.28315 0.37652 0.17585 0.0
N1207 N 0.32745 0.43232 0.11611 0.0
C1208 C 0.35321 0.41489 0.13077 0.0
C1209 C 0.329 0.38436 0.16343 0.0
C1210 C 0.8886 0.69994 0.67672 0.0
C1211 C 0.83839 0.6748 0.68714 0.0
C1212 C 0.91308 0.67544 0.6502 0.0
C1213 C 0.88906 0.62397 0.63253 0.0
H1214 H 0.90961 0.73943 0.68891 0.0
H1215 H 0.95153 0.69767 0.64331 0.0
S1216 S 0.75843 0.53845 0.65331 0.0
N1217 N 0.76615 0.59357 0.68008 0.0
N1218 N 0.81174 0.54789 0.62989 0.0
C1219 C 0.83895 0.59781 0.64345 0.0
C1220 C 0.81388 0.62296 0.67068 0.0
C1221 C 0.39595 0.89784 0.68401 0.0
C1222 C 0.36616 0.84549 0.67389 0.0
C1223 C 0.42155 0.92841 0.65284 0.0
C1224 C 0.41858 0.90768 0.61049 0.0
H1225 H 0.39899 0.91556 0.71625 0.0
H1226 H 0.44263 0.9688 0.66187 0.0
S1227 S 0.34488 0.77383 0.56691 0.0
N1228 N 0.33456 0.77485 0.61788 0.0
N1229 N 0.38356 0.83247 0.5597 0.0
C1230 C 0.38975 0.85559 0.59981 0.0
C1231 C 0.36338 0.82442 0.63142 0.0
C1232 C 0.13908 0.4219 0.64547 0.0
C1233 C 0.16341 0.39343 0.62831 0.0
C1234 C 0.10333 0.41983 0.62435 0.0
C1235 C 0.09134 0.38991 0.58545 0.0
H1236 H 0.15082 0.44927 0.67336 0.0
H1237 H 0.08798 0.44509 0.63638 0.0
S1238 S 0.13807 0.30125 0.53125 0.0
N1239 N 0.1678 0.32836 0.57368 0.0
N1240 N 0.10083 0.32531 0.53361 0.0
C1241 C 0.11092 0.35651 0.57061 0.0
C1242 C 0.14721 0.35827 0.59219 0.0
C1243 C 0.65535 0.11587 0.6739 0.0
C1244 C 0.70444 0.15116 0.66874 0.0
C1245 C 0.62575 0.09519 0.6405 0.0
C1246 C 0.64391 0.10911 0.60063 0.0
H1247 H 0.63887 0.10686 0.70465 0.0
H1248 H 0.58752 0.07081 0.64664 0.0
S1249 S 0.77081 0.19472 0.56915 0.0
N1250 N 0.77088 0.19424 0.61924 0.0
N1251 N 0.71473 0.15658 0.55684 0.0
C1252 C 0.69349 0.14121 0.59417 0.0
C1253 C 0.72395 0.16167 0.62812 0.0
C1254 C 0.87694 0.38891 0.36982 0.0
C1255 C 0.84653 0.33637 0.36362 0.0
C1256 C 0.9005 0.41321 0.4066 0.0
C1257 C 0.89521 0.38555 0.43798 0.0
H1258 H 0.8847 0.411 0.34521 0.0
H1259 H 0.92653 0.45292 0.40862 0.0
S1260 S 0.81401 0.24892 0.43989 0.0
N1261 N 0.8073 0.25887 0.39454 0.0
N1262 N 0.85327 0.30431 0.46277 0.0
C1263 C 0.86214 0.33386 0.43353 0.0
C1264 C 0.83764 0.30926 0.39644 0.0
C1265 C 0.70793 0.85116 0.3859 0.0
C1266 C 0.70486 0.83903 0.34248 0.0
C1267 C 0.6832 0.87629 0.41121 0.0
C1268 C 0.6531 0.88876 0.39425 0.0
H1269 H 0.73027 0.84205 0.40036 0.0
H1270 H 0.68669 0.88486 0.44447 0.0
S1271 S 0.62959 0.86163 0.2829 0.0
N1272 N 0.66826 0.84029 0.28392 0.0
N1273 N 0.62008 0.88485 0.33152 0.0
C1274 C 0.64877 0.87562 0.35107 0.0
C1275 C 0.67505 0.8515 0.32522 0.0
C1276 C 0.1646 0.61603 0.34372 0.0
C1277 C 0.18016 0.6685 0.35299 0.0
C1278 C 0.13628 0.58342 0.37291 0.0
C1279 C 0.12073 0.6015 0.41217 0.0
H1280 H 0.17568 0.60001 0.31407 0.0
H1281 H 0.12805 0.54399 0.36528 0.0
S1282 S 0.14826 0.73374 0.45177 0.0
N1283 N 0.17524 0.73602 0.40422 0.0
N1284 N 0.12101 0.67399 0.4586 0.0
C1285 C 0.13313 0.65289 0.42107 0.0
C1286 C 0.16281 0.68651 0.39154 0.0
C1287 C 0.46713 0.20219 0.4169 0.0
C1288 C 0.45038 0.17193 0.37868 0.0
C1289 C 0.47704 0.18323 0.44752 0.0
C1290 C 0.47099 0.13365 0.44077 0.0
H1291 H 0.47367 0.2411 0.42282 0.0
H1292 H 0.48964 0.20761 0.47659 0.0
S1293 S 0.423 0.0375 0.34816 0.0
N1294 N 0.42403 0.08851 0.33758 0.0
N1295 N 0.44382 0.05352 0.39456 0.0
C1296 C 0.45257 0.10252 0.40343 0.0
C1297 C 0.44212 0.12155 0.37248 0.0
C1298 C 0.60234 0.88586 0.64559 0.0
C1299 C 0.5939 0.83533 0.63791 0.0
C1300 C 0.59389 0.90702 0.61598 0.0
C1301 C 0.57682 0.87852 0.57746 0.0
H1302 H 0.61486 0.90909 0.67507 0.0
H1303 H 0.60004 0.94581 0.62359 0.0
S1304 S 0.55307 0.74606 0.54019 0.0
N1305 N 0.56973 0.75804 0.58785 0.0
N1306 N 0.55582 0.79872 0.53148 0.0
C1307 C 0.5709 0.82891 0.56823 0.0
C1308 C 0.5789 0.80706 0.59867 0.0
C1309 C 0.67593 0.18849 0.38683 0.0
C1310 C 0.68254 0.16591 0.34584 0.0
C1311 C 0.64913 0.15919 0.41868 0.0
C1312 C 0.62823 0.10627 0.4108 0.0
H1313 H 0.69312 0.22923 0.39491 0.0
H1314 H 0.64673 0.17813 0.45004 0.0
S1315 S 0.63076 0.02783 0.30894 0.0
N1316 N 0.66172 0.08657 0.29894 0.0
N1317 N 0.61378 0.03208 0.35922 0.0
C1318 C 0.63311 0.08308 0.36996 0.0
C1319 C 0.6596 0.11271 0.33738 0.0
C1320 C 0.89871 0.57565 0.3822 0.0
C1321 C 0.87865 0.60885 0.39631 0.0
C1322 C 0.9329 0.57611 0.40434 0.0
C1323 C 0.94867 0.61018 0.44107 0.0
H1324 H 0.88461 0.54607 0.356 0.0
H1325 H 0.94337 0.54633 0.39502 0.0
S1326 S 0.9132 0.7101 0.48751 0.0
N1327 N 0.88152 0.68088 0.44632 0.0
N1328 N 0.94649 0.68209 0.48775 0.0
C1329 C 0.93327 0.64743 0.45278 0.0
C1330 C 0.89798 0.6467 0.43039 0.0
C1331 C 0.38191 0.89883 0.35517 0.0
C1332 C 0.33578 0.85778 0.36066 0.0
C1333 C 0.41252 0.92316 0.3879 0.0
C1334 C 0.3985 0.90683 0.42716 0.0
H1335 H 0.39581 0.9098 0.32452 0.0
H1336 H 0.44902 0.95204 0.38133 0.0
S1337 S 0.28056 0.80373 0.45866 0.0
N1338 N 0.27636 0.80485 0.40957 0.0
N1339 N 0.33453 0.84961 0.47059 0.0
C1340 C 0.35137 0.86845 0.43401 0.0
C1341 C 0.31972 0.84433 0.40089 0.0
C1342 C 0.22769 0.38222 0.36587 0.0
C1343 C 0.2038 0.33787 0.33749 0.0
C1344 C 0.20238 0.40532 0.39372 0.0
C1345 C 0.1518 0.38549 0.39439 0.0
H1346 H 0.26636 0.39944 0.36671 0.0
H1347 H 0.22265 0.43859 0.41532 0.0
S1348 S 0.07213 0.2734 0.32325 0.0
N1349 N 0.12618 0.27751 0.31029 0.0
N1350 N 0.07954 0.32058 0.36124 0.0
C1351 C 0.1278 0.34229 0.36503 0.0
C1352 C 0.15341 0.31878 0.33701 0.0
C1353 C 0.32174 0.12928 0.67202 0.0
C1354 C 0.34371 0.1816 0.68748 0.0
C1355 C 0.34748 0.10643 0.64463 0.0
C1356 C 0.39691 0.13452 0.63212 0.0
H1357 H 0.28407 0.10565 0.68079 0.0
H1358 H 0.32847 0.06632 0.63345 0.0
S1359 S 0.47285 0.2719 0.66708 0.0
N1360 N 0.41892 0.25974 0.6903 0.0
N1361 N 0.46696 0.21791 0.63939 0.0
C1362 C 0.41947 0.18667 0.64836 0.0
C1363 C 0.39313 0.20981 0.6758 0.0
C1364 C 0.86867 0.31791 0.6371 0.0
C1365 C 0.86518 0.33791 0.67937 0.0
C1366 C 0.89614 0.34951 0.60681 0.0
C1367 C 0.92227 0.40216 0.61797 0.0
H1368 H 0.8483 0.27791 0.627 0.0
H1369 H 0.89506 0.33292 0.57429 0.0
S1370 S 0.93422 0.47236 0.72516 0.0
N1371 N 0.89664 0.41303 0.7313 0.0
N1372 N 0.94808 0.47222 0.6745 0.0
C1373 C 0.92229 0.42218 0.66037 0.0
C1374 C 0.89399 0.39012 0.69109 0.0
C1375 C 0.20613 0.69934 0.63205 0.0
C1376 C 0.1994 0.67507 0.66625 0.0
C1377 C 0.17958 0.67319 0.59705 0.0
C1378 C 0.14548 0.62178 0.59488 0.0
H1379 H 0.23099 0.73925 0.63287 0.0
H1380 H 0.18369 0.69407 0.57254 0.0
S1381 S 0.11334 0.54195 0.67715 0.0
N1382 N 0.15631 0.59716 0.69599 0.0
N1383 N 0.10624 0.54785 0.63036 0.0
C1384 C 0.13994 0.5966 0.62818 0.0
C1385 C 0.16687 0.62334 0.66388 0.0
loop_
_geom_bond_atom_site_label_1
_geom_bond_atom_site_label_2
_geom_bond_distance
_geom_bond_site_symmetry_2
_ccdc_geom_bond_type
Eu0 N29 2.600 . S
Eu0 N35 2.562 . S
Eu0 O44 2.462 . S
Eu0 O45 2.373 . S
Eu0 O47 2.432 . S
Eu0 O48 2.291 . S
Eu0 O52 2.335 . S
Eu0 O55 2.372 . S
Eu0 C64 2.787 . S
C1 N2 1.365 . S
C1 C4 1.405 . S
C1 C8 1.448 . S
N2 C1 1.365 . S
N2 C5 1.319 . S
N2 Eu11 2.600 . S
C3 C5 1.397 . S
C3 C6 1.367 . S
C3 H23 0.931 . S
C4 C1 1.405 . S
C4 C6 1.403 . S
C4 C10 1.439 . S
C5 N2 1.319 . S
C5 C3 1.397 . S
C5 H16 0.930 . S
C6 C3 1.367 . S
C6 C4 1.403 . S
C6 H27 0.929 . S
C7 C8 1.430 . S
C7 C9 1.387 . S
C7 C13 1.404 . S
C8 C1 1.448 . S
C8 C7 1.430 . S
C8 N12 1.351 . S
C9 C7 1.387 . S
C9 C10 1.374 . S
C9 H24 0.931 . S
C10 C4 1.439 . S
C10 C9 1.374 . S
C10 H25 0.931 . S
Eu11 N2 2.600 . S
Eu11 N12 2.562 . S
Eu11 O46 2.335 . S
Eu11 O49 2.372 . S
Eu11 O50 2.462 . S
Eu11 O51 2.373 . S
Eu11 O53 2.432 . S
Eu11 O54 2.291 . S
Eu11 C75 2.787 . S
N12 C8 1.351 . S
N12 Eu11 2.562 . S
N12 C14 1.325 . S
C13 C7 1.404 . S
C13 C15 1.366 . S
C13 H21 0.930 . S
C14 N12 1.325 . S
C14 C15 1.416 . S
C14 H20 0.929 . S
C15 C13 1.366 . S
C15 C14 1.416 . S
C15 H17 0.930 . S
H16 C5 0.930 . S
H17 C15 0.930 . S
H18 C33 0.930 . S
H19 C40 0.930 . S
H20 C14 0.929 . S
H21 C13 0.930 . S
H22 C36 0.929 . S
H23 C3 0.931 . S
H24 C9 0.931 . S
H25 C10 0.931 . S
H26 C31 0.931 . S
H27 C6 0.929 . S
H28 C39 0.930 . S
N29 Eu0 2.600 . S
N29 C30 1.365 . S
N29 C33 1.319 . S
C30 N29 1.365 . S
C30 C32 1.405 . S
C30 C38 1.448 . S
C31 H26 0.931 . S
C31 C33 1.397 . S
C31 C34 1.367 . S
C32 C30 1.405 . S
C32 C34 1.403 . S
C32 C65 1.439 . S
C33 H18 0.930 . S
C33 N29 1.319 . S
C33 C31 1.397 . S
C34 C31 1.367 . S
C34 C32 1.403 . S
C34 H41 0.929 1_545 S
N35 Eu0 2.562 . S
N35 C36 1.325 . S
N35 C38 1.351 . S
C36 H22 0.929 . S
C36 N35 1.325 . S
C36 C40 1.416 . S
C37 C38 1.430 . S
C37 C39 1.404 . S
C37 C66 1.387 . S
C38 C30 1.448 . S
C38 N35 1.351 . S
C38 C37 1.430 . S
C39 H28 0.930 . S
C39 C37 1.404 . S
C39 C40 1.366 . S
C40 H19 0.930 . S
C40 C36 1.416 . S
C40 C39 1.366 . S
H41 C34 0.929 1_565 S
H42 C65 0.931 . S
H43 C66 0.931 . S
O44 Eu0 2.462 . S
O44 C64 1.252 . S
O45 Eu0 2.373 . S
O45 C56 1.249 . S
O46 Eu11 2.335 . S
O46 C56 1.264 . S
O47 Eu0 2.432 . S
O47 C64 1.268 . S
O48 Eu0 2.291 . S
O48 C63 1.255 . S
O49 Eu11 2.372 . S
O49 C63 1.257 . S
O50 Eu11 2.462 . S
O50 C75 1.252 . S
O51 Eu11 2.373 . S
O51 C67 1.249 . S
O52 Eu0 2.335 . S
O52 C67 1.264 . S
O53 Eu11 2.432 . S
O53 C75 1.268 . S
O54 Eu11 2.291 . S
O54 C74 1.255 . S
O55 Eu0 2.372 . S
O55 C74 1.257 . S
C56 O45 1.249 . S
C56 O46 1.264 . S
C57 C60 1.382 . S
C57 C62 1.390 . S
C57 C64 1.506 . S
C58 C59 1.398 . S
C58 C62 1.392 . S
C59 C58 1.398 . S
C59 C61 1.372 . S
C59 H76 0.931 . S
C60 C57 1.382 . S
C60 C61 1.390 . S
C60 H77 0.931 . S
C61 C59 1.372 . S
C61 C60 1.390 . S
C61 H78 0.929 1_455 S
C62 C57 1.390 . S
C62 C58 1.392 . S
C62 H79 0.930 . S
C63 O48 1.255 . S
C63 O49 1.257 . S
C64 Eu0 2.787 . S
C64 O44 1.252 . S
C64 O47 1.268 . S
C64 C57 1.506 . S
C65 C32 1.439 . S
C65 H42 0.931 . S
C65 C66 1.374 . S
C66 C37 1.387 . S
C66 H43 0.931 . S
C66 C65 1.374 . S
C67 O51 1.249 . S
C67 O52 1.264 . S
C68 C71 1.382 . S
C68 C72 1.390 . S
C68 C75 1.506 . S
C69 C70 1.398 . S
C69 C72 1.392 . S
C70 C69 1.398 . S
C70 C73 1.372 . S
C70 H80 0.931 . S
C71 C68 1.382 . S
C71 C73 1.390 . S
C71 H81 0.931 . S
C72 C68 1.390 . S
C72 C69 1.392 . S
C72 H82 0.930 . S
C73 C70 1.372 . S
C73 C71 1.390 . S
C73 H83 0.929 . S
C74 O54 1.255 . S
C74 O55 1.257 . S
C75 Eu11 2.787 . S
C75 O50 1.252 . S
C75 O53 1.268 . S
C75 C68 1.506 . S
H76 C59 0.931 . S
H77 C60 0.931 . S
H78 C61 0.929 1_655 S
H79 C62 0.930 . S
H80 C70 0.931 . S
H81 C71 0.931 . S
H82 C72 0.930 . S
H83 C73 0.929 . S
Eu84 N113 2.600 . S
Eu84 N119 2.562 . S
Eu84 O128 2.462 . S
Eu84 O129 2.373 . S
Eu84 O131 2.432 . S
Eu84 O132 2.291 . S
Eu84 O136 2.335 . S
Eu84 O139 2.372 . S
Eu84 C148 2.787 . S
C85 N86 1.365 . S
C85 C88 1.405 . S
C85 C92 1.448 . S
N86 C85 1.365 . S
N86 C89 1.319 . S
N86 Eu95 2.600 . S
C87 C89 1.397 . S
C87 C90 1.367 . S
C87 H107 0.931 . S
C88 C85 1.405 . S
C88 C90 1.403 . S
C88 C94 1.439 . S
C89 N86 1.319 . S
C89 C87 1.397 . S
C89 H100 0.930 . S
C90 C87 1.367 . S
C90 C88 1.403 . S
C90 H111 0.929 . S
C91 C92 1.430 . S
C91 C93 1.387 . S
C91 C97 1.404 . S
C92 C85 1.448 . S
C92 C91 1.430 . S
C92 N96 1.351 . S
C93 C91 1.387 . S
C93 C94 1.374 . S
C93 H108 0.931 . S
C94 C88 1.439 . S
C94 C93 1.374 . S
C94 H109 0.931 . S
Eu95 N86 2.600 . S
Eu95 N96 2.562 . S
Eu95 O130 2.335 . S
Eu95 O133 2.372 . S
Eu95 O134 2.462 . S
Eu95 O135 2.373 . S
Eu95 O137 2.432 . S
Eu95 O138 2.291 . S
Eu95 C159 2.787 . S
N96 C92 1.351 . S
N96 Eu95 2.562 . S
N96 C98 1.325 . S
C97 C91 1.404 . S
C97 C99 1.366 . S
C97 H105 0.930 1_655 S
C98 N96 1.325 . S
C98 C99 1.416 . S
C98 H104 0.929 . S
C99 C97 1.366 . S
C99 C98 1.416 . S
C99 H101 0.930 . S
H100 C89 0.930 . S
H101 C99 0.930 . S
H102 C117 0.930 . S
H103 C124 0.930 . S
H104 C98 0.929 . S
H105 C97 0.930 1_455 S
H106 C120 0.929 . S
H107 C87 0.931 . S
H108 C93 0.931 . S
H109 C94 0.931 . S
H110 C115 0.931 . S
H111 C90 0.929 . S
H112 C123 0.930 . S
N113 Eu84 2.600 . S
N113 C114 1.365 . S
N113 C117 1.319 . S
C114 N113 1.365 . S
C114 C116 1.405 . S
C114 C122 1.448 . S
C115 H110 0.931 . S
C115 C117 1.397 . S
C115 C118 1.367 . S
C116 C114 1.405 . S
C116 C118 1.403 . S
C116 C149 1.439 . S
C117 H102 0.930 . S
C117 N113 1.319 . S
C117 C115 1.397 . S
C118 C115 1.367 . S
C118 C116 1.403 . S
C118 H125 0.929 . S
N119 Eu84 2.562 . S
N119 C120 1.325 . S
N119 C122 1.351 . S
C120 H106 0.929 . S
C120 N119 1.325 . S
C120 C124 1.416 . S
C121 C122 1.430 . S
C121 C123 1.404 . S
C121 C150 1.387 . S
C122 C114 1.448 . S
C122 N119 1.351 . S
C122 C121 1.430 . S
C123 H112 0.930 . S
C123 C121 1.404 . S
C123 C124 1.366 . S
C124 H103 0.930 . S
C124 C120 1.416 . S
C124 C123 1.366 . S
H125 C118 0.929 . S
H126 C149 0.931 . S
H127 C150 0.931 . S
O128 Eu84 2.462 . S
O128 C148 1.252 . S
O129 Eu84 2.373 . S
O129 C140 1.249 . S
O130 Eu95 2.335 . S
O130 C140 1.264 . S
O131 Eu84 2.432 . S
O131 C148 1.268 . S
O132 Eu84 2.291 . S
O132 C147 1.255 . S
O133 Eu95 2.372 . S
O133 C147 1.257 . S
O134 Eu95 2.462 . S
O134 C159 1.252 . S
O135 Eu95 2.373 . S
O135 C151 1.249 . S
O136 Eu84 2.335 . S
O136 C151 1.264 . S
O137 Eu95 2.432 . S
O137 C159 1.268 . S
O138 Eu95 2.291 . S
O138 C158 1.255 . S
O139 Eu84 2.372 . S
O139 C158 1.257 . S
C140 O129 1.249 . S
C140 O130 1.264 . S
C141 C144 1.382 . S
C141 C146 1.390 . S
C141 C148 1.506 . S
C142 C143 1.398 . S
C142 C146 1.392 . S
C143 C142 1.398 . S
C143 C145 1.372 . S
C143 H160 0.931 . S
C144 C141 1.382 . S
C144 C145 1.390 . S
C144 H161 0.931 . S
C145 C143 1.372 . S
C145 C144 1.390 . S
C145 H162 0.929 . S
C146 C141 1.390 . S
C146 C142 1.392 . S
C146 H163 0.930 . S
C147 O132 1.255 . S
C147 O133 1.257 . S
C148 Eu84 2.787 . S
C148 O128 1.252 . S
C148 O131 1.268 . S
C148 C141 1.506 . S
C149 C116 1.439 . S
C149 H126 0.931 . S
C149 C150 1.374 . S
C150 C121 1.387 . S
C150 H127 0.931 . S
C150 C149 1.374 . S
C151 O135 1.249 . S
C151 O136 1.264 . S
C152 C155 1.382 . S
C152 C156 1.390 . S
C152 C159 1.506 . S
C153 C154 1.398 . S
C153 C156 1.392 . S
C154 C153 1.398 . S
C154 C157 1.372 . S
C154 H164 0.931 . S
C155 C152 1.382 . S
C155 C157 1.390 . S
C155 H165 0.931 . S
C156 C152 1.390 . S
C156 C153 1.392 . S
C156 H166 0.930 . S
C157 C154 1.372 . S
C157 C155 1.390 . S
C157 H167 0.929 . S
C158 O138 1.255 . S
C158 O139 1.257 . S
C159 Eu95 2.787 . S
C159 O134 1.252 . S
C159 O137 1.268 . S
C159 C152 1.506 . S
H160 C143 0.931 . S
H161 C144 0.931 . S
H162 C145 0.929 . S
H163 C146 0.930 . S
H164 C154 0.931 . S
H165 C155 0.931 . S
H166 C156 0.930 . S
H167 C157 0.929 . S
Eu168 N197 2.600 . S
Eu168 N203 2.562 . S
Eu168 O212 2.462 . S
Eu168 O213 2.373 . S
Eu168 O215 2.432 . S
Eu168 O216 2.291 . S
Eu168 O220 2.335 . S
Eu168 O223 2.372 . S
Eu168 C232 2.787 . S
C169 N170 1.365 . S
C169 C172 1.405 . S
C169 C176 1.448 . S
N170 C169 1.365 . S
N170 C173 1.319 . S
N170 Eu179 2.600 . S
C171 C173 1.397 . S
C171 C174 1.367 . S
C171 H191 0.931 . S
C172 C169 1.405 . S
C172 C174 1.403 . S
C172 C178 1.439 . S
C173 N170 1.319 . S
C173 C171 1.397 . S
C173 H184 0.930 . S
C174 C171 1.367 . S
C174 C172 1.403 . S
C174 H195 0.929 . S
C175 C176 1.430 . S
C175 C177 1.387 . S
C175 C181 1.404 . S
C176 C169 1.448 . S
C176 C175 1.430 . S
C176 N180 1.351 . S
C177 C175 1.387 . S
C177 C178 1.374 . S
C177 H192 0.931 . S
C178 C172 1.439 . S
C178 C177 1.374 . S
C178 H193 0.931 . S
Eu179 N170 2.600 . S
Eu179 N180 2.562 . S
Eu179 O214 2.335 . S
Eu179 O217 2.372 . S
Eu179 O218 2.462 . S
Eu179 O219 2.373 . S
Eu179 O221 2.432 . S
Eu179 O222 2.291 . S
Eu179 C243 2.787 . S
N180 C176 1.351 . S
N180 Eu179 2.562 . S
N180 C182 1.325 . S
C181 C175 1.404 . S
C181 C183 1.366 . S
C181 H189 0.930 . S
C182 N180 1.325 . S
C182 C183 1.416 . S
C182 H188 0.929 . S
C183 C181 1.366 . S
C183 C182 1.416 . S
C183 H185 0.930 . S
H184 C173 0.930 . S
H185 C183 0.930 . S
H186 C201 0.930 . S
H187 C208 0.930 . S
H188 C182 0.929 . S
H189 C181 0.930 . S
H190 C204 0.929 . S
H191 C171 0.931 . S
H192 C177 0.931 . S
H193 C178 0.931 . S
H194 C199 0.931 . S
H195 C174 0.929 . S
H196 C207 0.930 . S
N197 Eu168 2.600 . S
N197 C198 1.365 . S
N197 C201 1.319 . S
C198 N197 1.365 . S
C198 C200 1.405 . S
C198 C206 1.448 . S
C199 H194 0.931 . S
C199 C201 1.397 . S
C199 C202 1.367 . S
C200 C198 1.405 . S
C200 C202 1.403 . S
C200 C233 1.439 . S
C201 H186 0.930 . S
C201 N197 1.319 . S
C201 C199 1.397 . S
C202 C199 1.367 . S
C202 C200 1.403 . S
C202 H209 0.929 . S
N203 Eu168 2.562 . S
N203 C204 1.325 . S
N203 C206 1.351 . S
C204 H190 0.929 . S
C204 N203 1.325 . S
C204 C208 1.416 . S
C205 C206 1.430 . S
C205 C207 1.404 . S
C205 C234 1.387 . S
C206 C198 1.448 . S
C206 N203 1.351 . S
C206 C205 1.430 . S
C207 H196 0.930 . S
C207 C205 1.404 . S
C207 C208 1.366 . S
C208 H187 0.930 . S
C208 C204 1.416 . S
C208 C207 1.366 . S
H209 C202 0.929 . S
H210 C233 0.931 . S
H211 C234 0.931 . S
O212 Eu168 2.462 . S
O212 C232 1.252 . S
O213 Eu168 2.373 . S
O213 C224 1.249 . S
O214 Eu179 2.335 . S
O214 C224 1.264 . S
O215 Eu168 2.432 . S
O215 C232 1.268 . S
O216 Eu168 2.291 . S
O216 C231 1.255 . S
O217 Eu179 2.372 . S
O217 C231 1.257 . S
O218 Eu179 2.462 . S
O218 C243 1.252 . S
O219 Eu179 2.373 . S
O219 C235 1.249 . S
O220 Eu168 2.335 . S
O220 C235 1.264 . S
O221 Eu179 2.432 . S
O221 C243 1.268 . S
O222 Eu179 2.291 . S
O222 C242 1.255 . S
O223 Eu168 2.372 . S
O223 C242 1.257 . S
C224 O213 1.249 . S
C224 O214 1.264 . S
C225 C228 1.382 . S
C225 C230 1.390 . S
C225 C232 1.506 . S
C226 C227 1.398 . S
C226 C230 1.392 . S
C227 C226 1.398 . S
C227 C229 1.372 . S
C227 H244 0.931 . S
C228 C225 1.382 . S
C228 C229 1.390 . S
C228 H245 0.931 . S
C229 C227 1.372 . S
C229 C228 1.390 . S
C229 H246 0.929 . S
C230 C225 1.390 . S
C230 C226 1.392 . S
C230 H247 0.930 . S
C231 O216 1.255 . S
C231 O217 1.257 . S
C232 Eu168 2.787 . S
C232 O212 1.252 . S
C232 O215 1.268 . S
C232 C225 1.506 . S
C233 C200 1.439 . S
C233 H210 0.931 . S
C233 C234 1.374 . S
C234 C205 1.387 . S
C234 H211 0.931 . S
C234 C233 1.374 . S
C235 O219 1.249 . S
C235 O220 1.264 . S
C236 C239 1.382 . S
C236 C240 1.390 . S
C236 C243 1.506 . S
C237 C238 1.398 . S
C237 C240 1.392 . S
C238 C237 1.398 . S
C238 C241 1.372 . S
C238 H248 0.931 . S
C239 C236 1.382 . S
C239 C241 1.390 . S
C239 H249 0.931 . S
C240 C236 1.390 . S
C240 C237 1.392 . S
C240 H250 0.930 . S
C241 C238 1.372 . S
C241 C239 1.390 . S
C241 H251 0.929 1_565 S
C242 O222 1.255 . S
C242 O223 1.257 . S
C243 Eu179 2.787 . S
C243 O218 1.252 . S
C243 O221 1.268 . S
C243 C236 1.506 . S
H244 C227 0.931 . S
H245 C228 0.931 . S
H246 C229 0.929 . S
H247 C230 0.930 . S
H248 C238 0.931 . S
H249 C239 0.931 . S
H250 C240 0.930 . S
H251 C241 0.929 1_545 S
Eu252 N281 2.600 . S
Eu252 N287 2.562 . S
Eu252 O296 2.462 . S
Eu252 O297 2.373 . S
Eu252 O299 2.432 . S
Eu252 O300 2.291 . S
Eu252 O304 2.335 . S
Eu252 O307 2.372 . S
Eu252 C316 2.787 . S
C253 N254 1.365 . S
C253 C256 1.405 . S
C253 C260 1.448 . S
N254 C253 1.365 . S
N254 C257 1.319 . S
N254 Eu263 2.600 . S
C255 C257 1.397 . S
C255 C258 1.367 . S
C255 H275 0.931 . S
C256 C253 1.405 . S
C256 C258 1.403 . S
C256 C262 1.439 . S
C257 N254 1.319 . S
C257 C255 1.397 . S
C257 H268 0.930 . S
C258 C255 1.367 . S
C258 C256 1.403 . S
C258 H279 0.929 . S
C259 C260 1.430 . S
C259 C261 1.387 . S
C259 C265 1.404 . S
C260 C253 1.448 . S
C260 C259 1.430 . S
C260 N264 1.351 . S
C261 C259 1.387 . S
C261 C262 1.374 . S
C261 H276 0.931 . S
C262 C256 1.439 . S
C262 C261 1.374 . S
C262 H277 0.931 . S
Eu263 N254 2.600 . S
Eu263 N264 2.562 . S
Eu263 O298 2.335 . S
Eu263 O301 2.372 . S
Eu263 O302 2.462 . S
Eu263 O303 2.373 . S
Eu263 O305 2.432 . S
Eu263 O306 2.291 . S
Eu263 C327 2.787 . S
N264 C260 1.351 . S
N264 Eu263 2.562 . S
N264 C266 1.325 . S
C265 C259 1.404 . S
C265 C267 1.366 . S
C265 H273 0.930 . S
C266 N264 1.325 . S
C266 C267 1.416 . S
C266 H272 0.929 . S
C267 C265 1.366 . S
C267 C266 1.416 . S
C267 H269 0.930 . S
H268 C257 0.930 . S
H269 C267 0.930 . S
H270 C285 0.930 . S
H271 C292 0.930 . S
H272 C266 0.929 . S
H273 C265 0.930 . S
H274 C288 0.929 . S
H275 C255 0.931 . S
H276 C261 0.931 . S
H277 C262 0.931 . S
H278 C283 0.931 . S
H279 C258 0.929 . S
H280 C291 0.930 1_545 S
N281 Eu252 2.600 . S
N281 C282 1.365 . S
N281 C285 1.319 . S
C282 N281 1.365 . S
C282 C284 1.405 . S
C282 C290 1.448 . S
C283 H278 0.931 . S
C283 C285 1.397 . S
C283 C286 1.367 . S
C284 C282 1.405 . S
C284 C286 1.403 . S
C284 C317 1.439 . S
C285 H270 0.930 . S
C285 N281 1.319 . S
C285 C283 1.397 . S
C286 C283 1.367 . S
C286 C284 1.403 . S
C286 H293 0.929 . S
N287 Eu252 2.562 . S
N287 C288 1.325 . S
N287 C290 1.351 . S
C288 H274 0.929 . S
C288 N287 1.325 . S
C288 C292 1.416 . S
C289 C290 1.430 . S
C289 C291 1.404 . S
C289 C318 1.387 . S
C290 C282 1.448 . S
C290 N287 1.351 . S
C290 C289 1.430 . S
C291 H280 0.930 1_565 S
C291 C289 1.404 . S
C291 C292 1.366 . S
C292 H271 0.930 . S
C292 C288 1.416 . S
C292 C291 1.366 . S
H293 C286 0.929 . S
H294 C317 0.931 . S
H295 C318 0.931 . S
O296 Eu252 2.462 . S
O296 C316 1.252 . S
O297 Eu252 2.373 . S
O297 C308 1.249 . S
O298 Eu263 2.335 . S
O298 C308 1.264 . S
O299 Eu252 2.432 . S
O299 C316 1.268 . S
O300 Eu252 2.291 . S
O300 C315 1.255 . S
O301 Eu263 2.372 . S
O301 C315 1.257 . S
O302 Eu263 2.462 . S
O302 C327 1.252 . S
O303 Eu263 2.373 . S
O303 C319 1.249 . S
O304 Eu252 2.335 . S
O304 C319 1.264 . S
O305 Eu263 2.432 . S
O305 C327 1.268 . S
O306 Eu263 2.291 . S
O306 C326 1.255 . S
O307 Eu252 2.372 . S
O307 C326 1.257 . S
C308 O297 1.249 . S
C308 O298 1.264 . S
C309 C312 1.382 . S
C309 C314 1.390 . S
C309 C316 1.506 . S
C310 C311 1.398 . S
C310 C314 1.392 . S
C311 C310 1.398 . S
C311 C313 1.372 . S
C311 H328 0.931 . S
C312 C309 1.382 . S
C312 C313 1.390 . S
C312 H329 0.931 . S
C313 C311 1.372 . S
C313 C312 1.390 . S
C313 H330 0.929 . S
C314 C309 1.390 . S
C314 C310 1.392 . S
C314 H331 0.930 . S
C315 O300 1.255 . S
C315 O301 1.257 . S
C316 Eu252 2.787 . S
C316 O296 1.252 . S
C316 O299 1.268 . S
C316 C309 1.506 . S
C317 C284 1.439 . S
C317 H294 0.931 . S
C317 C318 1.374 . S
C318 C289 1.387 . S
C318 H295 0.931 . S
C318 C317 1.374 . S
C319 O303 1.249 . S
C319 O304 1.264 . S
C320 C323 1.382 . S
C320 C324 1.390 . S
C320 C327 1.506 . S
C321 C322 1.398 . S
C321 C324 1.392 . S
C322 C321 1.398 . S
C322 C325 1.372 . S
C322 H332 0.931 . S
C323 C320 1.382 . S
C323 C325 1.390 . S
C323 H333 0.931 . S
C324 C320 1.390 . S
C324 C321 1.392 . S
C324 H334 0.930 . S
C325 C322 1.372 . S
C325 C323 1.390 . S
C325 H335 0.929 . S
C326 O306 1.255 . S
C326 O307 1.257 . S
C327 Eu263 2.787 . S
C327 O302 1.252 . S
C327 O305 1.268 . S
C327 C320 1.506 . S
H328 C311 0.931 . S
H329 C312 0.931 . S
H330 C313 0.929 . S
H331 C314 0.930 . S
H332 C322 0.931 . S
H333 C323 0.931 . S
H334 C324 0.930 . S
H335 C325 0.929 . S
Eu336 N365 2.600 . S
Eu336 N371 2.562 . S
Eu336 O380 2.462 . S
Eu336 O381 2.373 . S
Eu336 O383 2.432 . S
Eu336 O384 2.291 . S
Eu336 O388 2.335 . S
Eu336 O391 2.372 . S
Eu336 C400 2.787 . S
C337 N338 1.365 . S
C337 C340 1.405 . S
C337 C344 1.448 . S
N338 C337 1.365 . S
N338 C341 1.319 . S
N338 Eu347 2.600 . S
C339 C341 1.397 . S
C339 C342 1.367 . S
C339 H359 0.931 . S
C340 C337 1.405 . S
C340 C342 1.403 . S
C340 C346 1.439 . S
C341 N338 1.319 . S
C341 C339 1.397 . S
C341 H352 0.930 . S
C342 C339 1.367 . S
C342 C340 1.403 . S
C342 H363 0.929 . S
C343 C344 1.430 . S
C343 C345 1.387 . S
C343 C349 1.404 . S
C344 C337 1.448 . S
C344 C343 1.430 . S
C344 N348 1.351 . S
C345 C343 1.387 . S
C345 C346 1.374 . S
C345 H360 0.931 . S
C346 C340 1.439 . S
C346 C345 1.374 . S
C346 H361 0.931 . S
Eu347 N338 2.600 . S
Eu347 N348 2.562 . S
Eu347 O382 2.335 . S
Eu347 O385 2.372 . S
Eu347 O386 2.462 . S
Eu347 O387 2.373 . S
Eu347 O389 2.432 . S
Eu347 O390 2.291 . S
Eu347 C411 2.787 . S
N348 C344 1.351 . S
N348 Eu347 2.562 . S
N348 C350 1.325 . S
C349 C343 1.404 . S
C349 C351 1.366 . S
C349 H357 0.930 . S
C350 N348 1.325 . S
C350 C351 1.416 . S
C350 H356 0.929 . S
C351 C349 1.366 . S
C351 C350 1.416 . S
C351 H353 0.930 . S
H352 C341 0.930 . S
H353 C351 0.930 . S
H354 C369 0.930 . S
H355 C376 0.930 . S
H356 C350 0.929 . S
H357 C349 0.930 . S
H358 C372 0.929 . S
H359 C339 0.931 . S
H360 C345 0.931 . S
H361 C346 0.931 . S
H362 C367 0.931 . S
H363 C342 0.929 . S
H364 C375 0.930 . S
N365 Eu336 2.600 . S
N365 C366 1.365 . S
N365 C369 1.319 . S
C366 N365 1.365 . S
C366 C368 1.405 . S
C366 C374 1.448 . S
C367 H362 0.931 . S
C367 C369 1.397 . S
C367 C370 1.367 . S
C368 C366 1.405 . S
C368 C370 1.403 . S
C368 C401 1.439 . S
C369 H354 0.930 . S
C369 N365 1.319 . S
C369 C367 1.397 . S
C370 C367 1.367 . S
C370 C368 1.403 . S
C370 H377 0.929 . S
N371 Eu336 2.562 . S
N371 C372 1.325 . S
N371 C374 1.351 . S
C372 H358 0.929 . S
C372 N371 1.325 . S
C372 C376 1.416 . S
C373 C374 1.430 . S
C373 C375 1.404 . S
C373 C402 1.387 . S
C374 C366 1.448 . S
C374 N371 1.351 . S
C374 C373 1.430 . S
C375 H364 0.930 . S
C375 C373 1.404 . S
C375 C376 1.366 . S
C376 H355 0.930 . S
C376 C372 1.416 . S
C376 C375 1.366 . S
H377 C370 0.929 . S
H378 C401 0.931 . S
H379 C402 0.931 . S
O380 Eu336 2.462 . S
O380 C400 1.252 . S
O381 Eu336 2.373 . S
O381 C392 1.249 . S
O382 Eu347 2.335 . S
O382 C392 1.264 . S
O383 Eu336 2.432 . S
O383 C400 1.268 . S
O384 Eu336 2.291 . S
O384 C399 1.255 . S
O385 Eu347 2.372 . S
O385 C399 1.257 . S
O386 Eu347 2.462 . S
O386 C411 1.252 . S
O387 Eu347 2.373 . S
O387 C403 1.249 . S
O388 Eu336 2.335 . S
O388 C403 1.264 . S
O389 Eu347 2.432 . S
O389 C411 1.268 . S
O390 Eu347 2.291 . S
O390 C410 1.255 . S
O391 Eu336 2.372 . S
O391 C410 1.257 . S
C392 O381 1.249 . S
C392 O382 1.264 . S
C393 C396 1.382 . S
C393 C398 1.390 . S
C393 C400 1.506 . S
C394 C395 1.398 . S
C394 C398 1.392 . S
C395 C394 1.398 . S
C395 C397 1.372 . S
C395 H412 0.931 . S
C396 C393 1.382 . S
C396 C397 1.390 . S
C396 H413 0.931 . S
C397 C395 1.372 . S
C397 C396 1.390 . S
C397 H414 0.929 . S
C398 C393 1.390 . S
C398 C394 1.392 . S
C398 H415 0.930 . S
C399 O384 1.255 . S
C399 O385 1.257 . S
C400 Eu336 2.787 . S
C400 O380 1.252 . S
C400 O383 1.268 . S
C400 C393 1.506 . S
C401 C368 1.439 . S
C401 H378 0.931 . S
C401 C402 1.374 . S
C402 C373 1.387 . S
C402 H379 0.931 . S
C402 C401 1.374 . S
C403 O387 1.249 . S
C403 O388 1.264 . S
C404 C407 1.382 . S
C404 C408 1.390 . S
C404 C411 1.506 . S
C405 C406 1.398 . S
C405 C408 1.392 . S
C406 C405 1.398 . S
C406 C409 1.372 . S
C406 H416 0.931 . S
C407 C404 1.382 . S
C407 C409 1.390 . S
C407 H417 0.931 . S
C408 C404 1.390 . S
C408 C405 1.392 . S
C408 H418 0.930 . S
C409 C406 1.372 . S
C409 C407 1.390 . S
C409 H419 0.929 . S
C410 O390 1.255 . S
C410 O391 1.257 . S
C411 Eu347 2.787 . S
C411 O386 1.252 . S
C411 O389 1.268 . S
C411 C404 1.506 . S
H412 C395 0.931 . S
H413 C396 0.931 . S
H414 C397 0.929 . S
H415 C398 0.930 . S
H416 C406 0.931 . S
H417 C407 0.931 . S
H418 C408 0.930 . S
H419 C409 0.929 . S
Eu420 N449 2.600 . S
Eu420 N455 2.562 . S
Eu420 O464 2.462 . S
Eu420 O465 2.373 . S
Eu420 O467 2.432 . S
Eu420 O468 2.291 . S
Eu420 O472 2.335 . S
Eu420 O475 2.372 . S
Eu420 C484 2.787 . S
C421 N422 1.365 . S
C421 C424 1.405 . S
C421 C428 1.448 . S
N422 C421 1.365 . S
N422 C425 1.319 . S
N422 Eu431 2.600 . S
C423 C425 1.397 . S
C423 C426 1.367 . S
C423 H443 0.931 . S
C424 C421 1.405 . S
C424 C426 1.403 . S
C424 C430 1.439 . S
C425 N422 1.319 . S
C425 C423 1.397 . S
C425 H436 0.930 . S
C426 C423 1.367 . S
C426 C424 1.403 . S
C426 H447 0.929 . S
C427 C428 1.430 . S
C427 C429 1.387 . S
C427 C433 1.404 . S
C428 C421 1.448 . S
C428 C427 1.430 . S
C428 N432 1.351 . S
C429 C427 1.387 . S
C429 C430 1.374 . S
C429 H444 0.931 . S
C430 C424 1.439 . S
C430 C429 1.374 . S
C430 H445 0.931 . S
Eu431 N422 2.600 . S
Eu431 N432 2.562 . S
Eu431 O466 2.335 . S
Eu431 O469 2.372 . S
Eu431 O470 2.462 . S
Eu431 O471 2.373 . S
Eu431 O473 2.432 . S
Eu431 O474 2.291 . S
Eu431 C495 2.787 . S
N432 C428 1.351 . S
N432 Eu431 2.562 . S
N432 C434 1.325 . S
C433 C427 1.404 . S
C433 C435 1.366 . S
C433 H441 0.930 . S
C434 N432 1.325 . S
C434 C435 1.416 . S
C434 H440 0.929 . S
C435 C433 1.366 . S
C435 C434 1.416 . S
C435 H437 0.930 . S
H436 C425 0.930 . S
H437 C435 0.930 . S
H438 C453 0.930 . S
H439 C460 0.930 . S
H440 C434 0.929 . S
H441 C433 0.930 . S
H442 C456 0.929 . S
H443 C423 0.931 . S
H444 C429 0.931 . S
H445 C430 0.931 . S
H446 C451 0.931 . S
H447 C426 0.929 . S
H448 C459 0.930 . S
N449 Eu420 2.600 . S
N449 C450 1.365 . S
N449 C453 1.319 . S
C450 N449 1.365 . S
C450 C452 1.405 . S
C450 C458 1.448 . S
C451 H446 0.931 . S
C451 C453 1.397 . S
C451 C454 1.367 . S
C452 C450 1.405 . S
C452 C454 1.403 . S
C452 C485 1.439 . S
C453 H438 0.930 . S
C453 N449 1.319 . S
C453 C451 1.397 . S
C454 C451 1.367 . S
C454 C452 1.403 . S
C454 H461 0.929 . S
N455 Eu420 2.562 . S
N455 C456 1.325 . S
N455 C458 1.351 . S
C456 H442 0.929 . S
C456 N455 1.325 . S
C456 C460 1.416 . S
C457 C458 1.430 . S
C457 C459 1.404 . S
C457 C486 1.387 . S
C458 C450 1.448 . S
C458 N455 1.351 . S
C458 C457 1.430 . S
C459 H448 0.930 . S
C459 C457 1.404 . S
C459 C460 1.366 . S
C460 H439 0.930 . S
C460 C456 1.416 . S
C460 C459 1.366 . S
H461 C454 0.929 . S
H462 C485 0.931 . S
H463 C486 0.931 . S
O464 Eu420 2.462 . S
O464 C484 1.252 . S
O465 Eu420 2.373 . S
O465 C476 1.249 . S
O466 Eu431 2.335 . S
O466 C476 1.264 . S
O467 Eu420 2.432 . S
O467 C484 1.268 . S
O468 Eu420 2.291 . S
O468 C483 1.255 . S
O469 Eu431 2.372 . S
O469 C483 1.257 . S
O470 Eu431 2.462 . S
O470 C495 1.252 . S
O471 Eu431 2.373 . S
O471 C487 1.249 . S
O472 Eu420 2.335 . S
O472 C487 1.264 . S
O473 Eu431 2.432 . S
O473 C495 1.268 . S
O474 Eu431 2.291 . S
O474 C494 1.255 . S
O475 Eu420 2.372 . S
O475 C494 1.257 . S
C476 O465 1.249 . S
C476 O466 1.264 . S
C477 C480 1.382 . S
C477 C482 1.390 . S
C477 C484 1.506 . S
C478 C479 1.398 . S
C478 C482 1.392 . S
C479 C478 1.398 . S
C479 C481 1.372 . S
C479 H496 0.931 . S
C480 C477 1.382 . S
C480 C481 1.390 . S
C480 H497 0.931 . S
C481 C479 1.372 . S
C481 C480 1.390 . S
C481 H498 0.929 1_545 S
C482 C477 1.390 . S
C482 C478 1.392 . S
C482 H499 0.930 . S
C483 O468 1.255 . S
C483 O469 1.257 . S
C484 Eu420 2.787 . S
C484 O464 1.252 . S
C484 O467 1.268 . S
C484 C477 1.506 . S
C485 C452 1.439 . S
C485 H462 0.931 . S
C485 C486 1.374 . S
C486 C457 1.387 . S
C486 H463 0.931 . S
C486 C485 1.374 . S
C487 O471 1.249 . S
C487 O472 1.264 . S
C488 C491 1.382 . S
C488 C492 1.390 . S
C488 C495 1.506 . S
C489 C490 1.398 . S
C489 C492 1.392 . S
C490 C489 1.398 . S
C490 C493 1.372 . S
C490 H500 0.931 . S
C491 C488 1.382 . S
C491 C493 1.390 . S
C491 H501 0.931 . S
C492 C488 1.390 . S
C492 C489 1.392 . S
C492 H502 0.930 . S
C493 C490 1.372 . S
C493 C491 1.390 . S
C493 H503 0.929 . S
C494 O474 1.255 . S
C494 O475 1.257 . S
C495 Eu431 2.787 . S
C495 O470 1.252 . S
C495 O473 1.268 . S
C495 C488 1.506 . S
H496 C479 0.931 . S
H497 C480 0.931 . S
H498 C481 0.929 1_565 S
H499 C482 0.930 . S
H500 C490 0.931 . S
H501 C491 0.931 . S
H502 C492 0.930 . S
H503 C493 0.929 . S
Eu504 N533 2.600 . S
Eu504 N539 2.562 . S
Eu504 O548 2.462 . S
Eu504 O549 2.373 . S
Eu504 O551 2.432 . S
Eu504 O552 2.291 . S
Eu504 O556 2.335 . S
Eu504 O559 2.372 . S
Eu504 C568 2.787 . S
C505 N506 1.365 . S
C505 C508 1.405 . S
C505 C512 1.448 . S
N506 C505 1.365 . S
N506 C509 1.319 . S
N506 Eu515 2.600 . S
C507 C509 1.397 . S
C507 C510 1.367 . S
C507 H527 0.931 . S
C508 C505 1.405 . S
C508 C510 1.403 . S
C508 C514 1.439 . S
C509 N506 1.319 . S
C509 C507 1.397 . S
C509 H520 0.930 . S
C510 C507 1.367 . S
C510 C508 1.403 . S
C510 H531 0.929 . S
C511 C512 1.430 . S
C511 C513 1.387 . S
C511 C517 1.404 . S
C512 C505 1.448 . S
C512 C511 1.430 . S
C512 N516 1.351 . S
C513 C511 1.387 . S
C513 C514 1.374 . S
C513 H528 0.931 . S
C514 C508 1.439 . S
C514 C513 1.374 . S
C514 H529 0.931 . S
Eu515 N506 2.600 . S
Eu515 N516 2.562 . S
Eu515 O550 2.335 . S
Eu515 O553 2.372 . S
Eu515 O554 2.462 . S
Eu515 O555 2.373 . S
Eu515 O557 2.432 . S
Eu515 O558 2.291 . S
Eu515 C579 2.787 . S
N516 C512 1.351 . S
N516 Eu515 2.562 . S
N516 C518 1.325 . S
C517 C511 1.404 . S
C517 C519 1.366 . S
C517 H525 0.930 1_545 S
C518 N516 1.325 . S
C518 C519 1.416 . S
C518 H524 0.929 . S
C519 C517 1.366 . S
C519 C518 1.416 . S
C519 H521 0.930 . S
H520 C509 0.930 . S
H521 C519 0.930 . S
H522 C537 0.930 . S
H523 C544 0.930 . S
H524 C518 0.929 . S
H525 C517 0.930 1_565 S
H526 C540 0.929 . S
H527 C507 0.931 . S
H528 C513 0.931 . S
H529 C514 0.931 . S
H530 C535 0.931 . S
H531 C510 0.929 . S
H532 C543 0.930 . S
N533 Eu504 2.600 . S
N533 C534 1.365 . S
N533 C537 1.319 . S
C534 N533 1.365 . S
C534 C536 1.405 . S
C534 C542 1.448 . S
C535 H530 0.931 . S
C535 C537 1.397 . S
C535 C538 1.367 . S
C536 C534 1.405 . S
C536 C538 1.403 . S
C536 C569 1.439 . S
C537 H522 0.930 . S
C537 N533 1.319 . S
C537 C535 1.397 . S
C538 C535 1.367 . S
C538 C536 1.403 . S
C538 H545 0.929 . S
N539 Eu504 2.562 . S
N539 C540 1.325 . S
N539 C542 1.351 . S
C540 H526 0.929 . S
C540 N539 1.325 . S
C540 C544 1.416 . S
C541 C542 1.430 . S
C541 C543 1.404 . S
C541 C570 1.387 . S
C542 C534 1.448 . S
C542 N539 1.351 . S
C542 C541 1.430 . S
C543 H532 0.930 . S
C543 C541 1.404 . S
C543 C544 1.366 . S
C544 H523 0.930 . S
C544 C540 1.416 . S
C544 C543 1.366 . S
H545 C538 0.929 . S
H546 C569 0.931 . S
H547 C570 0.931 . S
O548 Eu504 2.462 . S
O548 C568 1.252 . S
O549 Eu504 2.373 . S
O549 C560 1.249 . S
O550 Eu515 2.335 . S
O550 C560 1.264 . S
O551 Eu504 2.432 . S
O551 C568 1.268 . S
O552 Eu504 2.291 . S
O552 C567 1.255 . S
O553 Eu515 2.372 . S
O553 C567 1.257 . S
O554 Eu515 2.462 . S
O554 C579 1.252 . S
O555 Eu515 2.373 . S
O555 C571 1.249 . S
O556 Eu504 2.335 . S
O556 C571 1.264 . S
O557 Eu515 2.432 . S
O557 C579 1.268 . S
O558 Eu515 2.291 . S
O558 C578 1.255 . S
O559 Eu504 2.372 . S
O559 C578 1.257 . S
C560 O549 1.249 . S
C560 O550 1.264 . S
C561 C564 1.382 . S
C561 C566 1.390 . S
C561 C568 1.506 . S
C562 C563 1.398 . S
C562 C566 1.392 . S
C563 C562 1.398 . S
C563 C565 1.372 . S
C563 H580 0.931 . S
C564 C561 1.382 . S
C564 C565 1.390 . S
C564 H581 0.931 . S
C565 C563 1.372 . S
C565 C564 1.390 . S
C565 H582 0.929 . S
C566 C561 1.390 . S
C566 C562 1.392 . S
C566 H583 0.930 . S
C567 O552 1.255 . S
C567 O553 1.257 . S
C568 Eu504 2.787 . S
C568 O548 1.252 . S
C568 O551 1.268 . S
C568 C561 1.506 . S
C569 C536 1.439 . S
C569 H546 0.931 . S
C569 C570 1.374 . S
C570 C541 1.387 . S
C570 H547 0.931 . S
C570 C569 1.374 . S
C571 O555 1.249 . S
C571 O556 1.264 . S
C572 C575 1.382 . S
C572 C576 1.390 . S
C572 C579 1.506 . S
C573 C574 1.398 . S
C573 C576 1.392 . S
C574 C573 1.398 . S
C574 C577 1.372 . S
C574 H584 0.931 . S
C575 C572 1.382 . S
C575 C577 1.390 . S
C575 H585 0.931 . S
C576 C572 1.390 . S
C576 C573 1.392 . S
C576 H586 0.930 . S
C577 C574 1.372 . S
C577 C575 1.390 . S
C577 H587 0.929 . S
C578 O558 1.255 . S
C578 O559 1.257 . S
C579 Eu515 2.787 . S
C579 O554 1.252 . S
C579 O557 1.268 . S
C579 C572 1.506 . S
H580 C563 0.931 . S
H581 C564 0.931 . S
H582 C565 0.929 . S
H583 C566 0.930 . S
H584 C574 0.931 . S
H585 C575 0.931 . S
H586 C576 0.930 . S
H587 C577 0.929 . S
Eu588 N617 2.600 . S
Eu588 N623 2.562 . S
Eu588 O632 2.462 . S
Eu588 O633 2.373 . S
Eu588 O635 2.432 . S
Eu588 O636 2.291 . S
Eu588 O640 2.335 . S
Eu588 O643 2.372 . S
Eu588 C652 2.787 . S
C589 N590 1.365 . S
C589 C592 1.405 . S
C589 C596 1.448 . S
N590 C589 1.365 . S
N590 C593 1.319 . S
N590 Eu599 2.600 . S
C591 C593 1.397 . S
C591 C594 1.367 . S
C591 H611 0.931 . S
C592 C589 1.405 . S
C592 C594 1.403 . S
C592 C598 1.439 . S
C593 N590 1.319 . S
C593 C591 1.397 . S
C593 H604 0.930 . S
C594 C591 1.367 . S
C594 C592 1.403 . S
C594 H615 0.929 1_565 S
C595 C596 1.430 . S
C595 C597 1.387 . S
C595 C601 1.404 . S
C596 C589 1.448 . S
C596 C595 1.430 . S
C596 N600 1.351 . S
C597 C595 1.387 . S
C597 C598 1.374 . S
C597 H612 0.931 . S
C598 C592 1.439 . S
C598 C597 1.374 . S
C598 H613 0.931 . S
Eu599 N590 2.600 . S
Eu599 N600 2.562 . S
Eu599 O634 2.335 . S
Eu599 O637 2.372 . S
Eu599 O638 2.462 . S
Eu599 O639 2.373 . S
Eu599 O641 2.432 . S
Eu599 O642 2.291 . S
Eu599 C663 2.787 . S
N600 C596 1.351 . S
N600 Eu599 2.562 . S
N600 C602 1.325 . S
C601 C595 1.404 . S
C601 C603 1.366 . S
C601 H609 0.930 . S
C602 N600 1.325 . S
C602 C603 1.416 . S
C602 H608 0.929 . S
C603 C601 1.366 . S
C603 C602 1.416 . S
C603 H605 0.930 . S
H604 C593 0.930 . S
H605 C603 0.930 . S
H606 C621 0.930 . S
H607 C628 0.930 . S
H608 C602 0.929 . S
H609 C601 0.930 . S
H610 C624 0.929 . S
H611 C591 0.931 . S
H612 C597 0.931 . S
H613 C598 0.931 . S
H614 C619 0.931 . S
H615 C594 0.929 1_545 S
H616 C627 0.930 . S
N617 Eu588 2.600 . S
N617 C618 1.365 . S
N617 C621 1.319 . S
C618 N617 1.365 . S
C618 C620 1.405 . S
C618 C626 1.448 . S
C619 H614 0.931 . S
C619 C621 1.397 . S
C619 C622 1.367 . S
C620 C618 1.405 . S
C620 C622 1.403 . S
C620 C653 1.439 . S
C621 H606 0.930 . S
C621 N617 1.319 . S
C621 C619 1.397 . S
C622 C619 1.367 . S
C622 C620 1.403 . S
C622 H629 0.929 . S
N623 Eu588 2.562 . S
N623 C624 1.325 . S
N623 C626 1.351 . S
C624 H610 0.929 . S
C624 N623 1.325 . S
C624 C628 1.416 . S
C625 C626 1.430 . S
C625 C627 1.404 . S
C625 C654 1.387 . S
C626 C618 1.448 . S
C626 N623 1.351 . S
C626 C625 1.430 . S
C627 H616 0.930 . S
C627 C625 1.404 . S
C627 C628 1.366 . S
C628 H607 0.930 . S
C628 C624 1.416 . S
C628 C627 1.366 . S
H629 C622 0.929 . S
H630 C653 0.931 . S
H631 C654 0.931 . S
O632 Eu588 2.462 . S
O632 C652 1.252 . S
O633 Eu588 2.373 . S
O633 C644 1.249 . S
O634 Eu599 2.335 . S
O634 C644 1.264 . S
O635 Eu588 2.432 . S
O635 C652 1.268 . S
O636 Eu588 2.291 . S
O636 C651 1.255 . S
O637 Eu599 2.372 . S
O637 C651 1.257 . S
O638 Eu599 2.462 . S
O638 C663 1.252 . S
O639 Eu599 2.373 . S
O639 C655 1.249 . S
O640 Eu588 2.335 . S
O640 C655 1.264 . S
O641 Eu599 2.432 . S
O641 C663 1.268 . S
O642 Eu599 2.291 . S
O642 C662 1.255 . S
O643 Eu588 2.372 . S
O643 C662 1.257 . S
C644 O633 1.249 . S
C644 O634 1.264 . S
C645 C648 1.382 . S
C645 C650 1.390 . S
C645 C652 1.506 . S
C646 C647 1.398 . S
C646 C650 1.392 . S
C647 C646 1.398 . S
C647 C649 1.372 . S
C647 H664 0.931 . S
C648 C645 1.382 . S
C648 C649 1.390 . S
C648 H665 0.931 . S
C649 C647 1.372 . S
C649 C648 1.390 . S
C649 H666 0.929 . S
C650 C645 1.390 . S
C650 C646 1.392 . S
C650 H667 0.930 . S
C651 O636 1.255 . S
C651 O637 1.257 . S
C652 Eu588 2.787 . S
C652 O632 1.252 . S
C652 O635 1.268 . S
C652 C645 1.506 . S
C653 C620 1.439 . S
C653 H630 0.931 . S
C653 C654 1.374 . S
C654 C625 1.387 . S
C654 H631 0.931 . S
C654 C653 1.374 . S
C655 O639 1.249 . S
C655 O640 1.264 . S
C656 C659 1.382 . S
C656 C660 1.390 . S
C656 C663 1.506 . S
C657 C658 1.398 . S
C657 C660 1.392 . S
C658 C657 1.398 . S
C658 C661 1.372 . S
C658 H668 0.931 . S
C659 C656 1.382 . S
C659 C661 1.390 . S
C659 H669 0.931 . S
C660 C656 1.390 . S
C660 C657 1.392 . S
C660 H670 0.930 . S
C661 C658 1.372 . S
C661 C659 1.390 . S
C661 H671 0.929 1_655 S
C662 O642 1.255 . S
C662 O643 1.257 . S
C663 Eu599 2.787 . S
C663 O638 1.252 . S
C663 O641 1.268 . S
C663 C656 1.506 . S
H664 C647 0.931 . S
H665 C648 0.931 . S
H666 C649 0.929 . S
H667 C650 0.930 . S
H668 C658 0.931 . S
H669 C659 0.931 . S
H670 C660 0.930 . S
H671 C661 0.929 1_455 S
C672 O684 1.241 . S
C672 O685 1.280 . S
C673 O686 1.277 . S
C673 O687 1.245 . S
C674 O698 1.247 . S
C674 O700 1.289 . S
Mg675 O676 1.926 1_455 S
Mg675 O685 1.984 1_455 S
Mg675 O687 1.988 1_455 S
Mg675 O688 2.061 . S
O676 Mg675 1.926 1_655 S
O676 Mg677 1.986 1_545 S
O676 Mg678 1.926 1_655 S
Mg677 O676 1.986 1_565 S
Mg677 O684 2.042 1_565 S
Mg677 O686 2.041 1_565 S
Mg677 O692 2.038 . S
Mg677 O700 2.238 . S
Mg678 O676 1.926 1_455 S
Mg678 O679 1.908 1_545 S
Mg678 O689 2.107 . S
Mg678 O691 2.073 1_445 S
Mg678 O700 2.106 1_445 S
Mg678 O701 2.084 . S
O679 Mg678 1.908 1_565 S
O679 Mg680 1.924 . S
O679 Mg681 1.986 1_565 S
Mg680 O679 1.924 . S
Mg680 O694 1.999 . S
Mg680 O697 1.997 . S
Mg680 O698 2.042 1_455 S
Mg681 O679 1.986 1_545 S
Mg681 O689 2.238 . S
Mg681 O693 2.042 1_545 S
Mg681 O695 2.041 1_545 S
Mg681 O702 2.038 . S
C682 O688 1.247 . S
C682 O689 1.289 . S
C683 O701 1.245 . S
C683 O702 1.274 . S
O684 C672 1.241 . S
O684 Mg677 2.042 1_545 S
O685 C672 1.280 . S
O685 Mg675 1.984 1_655 S
O686 C673 1.277 . S
O686 Mg677 2.041 1_545 S
O687 C673 1.245 . S
O687 Mg675 1.988 1_655 S
O688 Mg675 2.061 . S
O688 C682 1.247 . S
O689 Mg678 2.107 . S
O689 Mg681 2.238 . S
O689 C682 1.289 . S
C690 O691 1.245 . S
C690 O692 1.274 . S
O691 Mg678 2.073 1_665 S
O691 C690 1.245 . S
O692 Mg677 2.038 . S
O692 C690 1.274 . S
O693 Mg681 2.042 1_565 S
O693 C696 1.241 . S
O694 Mg680 1.999 . S
O694 C696 1.280 . S
O695 Mg681 2.041 1_565 S
O695 C699 1.277 . S
C696 O693 1.241 . S
C696 O694 1.280 . S
O697 Mg680 1.997 . S
O697 C699 1.245 . S
O698 C674 1.247 . S
O698 Mg680 2.042 1_655 S
C699 O695 1.277 . S
C699 O697 1.245 . S
O700 C674 1.289 . S
O700 Mg677 2.238 . S
O700 Mg678 2.106 1_665 S
O701 Mg678 2.084 . S
O701 C683 1.245 . S
O702 Mg681 2.038 . S
O702 C683 1.274 . S
C703 O715 1.241 . S
C703 O716 1.280 . S
C704 O717 1.277 . S
C704 O718 1.245 . S
C705 O729 1.247 . S
C705 O731 1.289 . S
Mg706 O707 1.926 . S
Mg706 O716 1.984 . S
Mg706 O718 1.988 1_554 S
Mg706 O719 2.061 . S
O707 Mg706 1.926 . S
O707 Mg708 1.986 1_545 S
O707 Mg709 1.930 . S
Mg708 O707 1.986 1_565 S
Mg708 O715 2.042 1_565 S
Mg708 O717 2.041 1_564 S
Mg708 O723 2.038 . S
Mg708 O731 2.238 1_554 S
Mg709 O707 1.930 . S
Mg709 O710 1.904 1_544 S
Mg709 O720 2.120 . S
Mg709 O722 2.093 1_545 S
Mg709 O731 2.093 1_544 S
Mg709 O732 2.065 1_554 S
O710 Mg709 1.904 1_566 S
O710 Mg711 1.926 . S
O710 Mg712 1.986 1_565 S
Mg711 O710 1.926 . S
Mg711 O725 1.984 . S
Mg711 O728 1.988 1_556 S
Mg711 O729 2.061 . S
Mg712 O710 1.986 1_545 S
Mg712 O720 2.238 1_556 S
Mg712 O724 2.042 1_545 S
Mg712 O726 2.041 1_546 S
Mg712 O733 2.038 . S
C713 O719 1.247 . S
C713 O720 1.289 . S
C714 O732 1.245 . S
C714 O733 1.274 . S
O715 C703 1.241 . S
O715 Mg708 2.042 1_545 S
O716 C703 1.280 . S
O716 Mg706 1.984 . S
O717 C704 1.277 . S
O717 Mg708 2.041 1_546 S
O718 C704 1.245 . S
O718 Mg706 1.988 1_556 S
O719 Mg706 2.061 . S
O719 C713 1.247 . S
O720 Mg709 2.120 . S
O720 Mg712 2.238 1_554 S
O720 C713 1.289 . S
C721 O722 1.245 . S
C721 O723 1.274 . S
O722 Mg709 2.093 1_565 S
O722 C721 1.245 . S
O723 Mg708 2.038 . S
O723 C721 1.274 . S
O724 Mg712 2.042 1_565 S
O724 C727 1.241 . S
O725 Mg711 1.984 . S
O725 C727 1.280 . S
O726 Mg712 2.041 1_564 S
O726 C730 1.277 . S
C727 O724 1.241 . S
C727 O725 1.280 . S
O728 Mg711 1.988 1_554 S
O728 C730 1.245 . S
O729 C705 1.247 . S
O729 Mg711 2.061 . S
C730 O726 1.277 . S
C730 O728 1.245 . S
O731 C705 1.289 . S
O731 Mg708 2.238 1_556 S
O731 Mg709 2.093 1_566 S
O732 Mg709 2.065 1_556 S
O732 C714 1.245 . S
O733 Mg712 2.038 . S
O733 C714 1.274 . S
C734 O746 1.241 . S
C734 O747 1.280 . S
C735 O748 1.277 . S
C735 O749 1.245 . S
C736 O760 1.247 . S
C736 O762 1.289 . S
Mg737 O738 1.926 1_455 S
Mg737 O747 1.984 1_455 S
Mg737 O749 1.988 1_454 S
Mg737 O750 2.061 . S
O738 Mg737 1.926 1_655 S
O738 Mg739 1.986 . S
O738 Mg740 1.921 1_655 S
Mg739 O738 1.986 . S
Mg739 O746 2.042 . S
Mg739 O748 2.041 1_554 S
Mg739 O754 2.038 . S
Mg739 O762 2.238 1_554 S
Mg740 O738 1.921 1_455 S
Mg740 O741 1.913 1_554 S
Mg740 O751 2.120 . S
Mg740 O753 2.098 1_455 S
Mg740 O762 2.093 1_454 S
Mg740 O763 2.059 1_554 S
O741 Mg740 1.913 1_556 S
O741 Mg742 1.924 . S
O741 Mg743 1.986 . S
Mg742 O741 1.924 . S
Mg742 O756 1.999 . S
Mg742 O759 1.997 1_556 S
Mg742 O760 2.042 1_455 S
Mg743 O741 1.986 . S
Mg743 O751 2.238 1_556 S
Mg743 O755 2.042 . S
Mg743 O757 2.041 1_556 S
Mg743 O764 2.038 . S
C744 O750 1.247 . S
C744 O751 1.289 . S
C745 O763 1.245 . S
C745 O764 1.274 . S
O746 C734 1.241 . S
O746 Mg739 2.042 . S
O747 C734 1.280 . S
O747 Mg737 1.984 1_655 S
O748 C735 1.277 . S
O748 Mg739 2.041 1_556 S
O749 C735 1.245 . S
O749 Mg737 1.988 1_656 S
O750 Mg737 2.061 . S
O750 C744 1.247 . S
O751 Mg740 2.120 . S
O751 Mg743 2.238 1_554 S
O751 C744 1.289 . S
C752 O753 1.245 . S
C752 O754 1.274 . S
O753 Mg740 2.098 1_655 S
O753 C752 1.245 . S
O754 Mg739 2.038 . S
O754 C752 1.274 . S
O755 Mg743 2.042 . S
O755 C758 1.241 . S
O756 Mg742 1.999 . S
O756 C758 1.280 . S
O757 Mg743 2.041 1_554 S
O757 C761 1.277 . S
C758 O755 1.241 . S
C758 O756 1.280 . S
O759 Mg742 1.997 1_554 S
O759 C761 1.245 . S
O760 C736 1.247 . S
O760 Mg742 2.042 1_655 S
C761 O757 1.277 . S
C761 O759 1.245 . S
O762 C736 1.289 . S
O762 Mg739 2.238 1_556 S
O762 Mg740 2.093 1_656 S
O763 Mg740 2.059 1_556 S
O763 C745 1.245 . S
O764 Mg743 2.038 . S
O764 C745 1.274 . S
C765 O777 1.241 . S
C765 O778 1.280 . S
C766 O779 1.277 . S
C766 O780 1.245 . S
C767 O791 1.247 . S
C767 O793 1.289 . S
Mg768 O769 1.926 . S
Mg768 O778 1.984 . S
Mg768 O780 1.988 1_554 S
Mg768 O781 2.061 . S
O769 Mg768 1.926 . S
O769 Mg770 1.986 . S
O769 Mg771 1.921 . S
Mg770 O769 1.986 . S
Mg770 O777 2.042 . S
Mg770 O779 2.041 1_554 S
Mg770 O785 2.038 . S
Mg770 O793 2.238 1_554 S
Mg771 O769 1.921 . S
Mg771 O772 1.913 1_554 S
Mg771 O782 2.120 . S
Mg771 O784 2.098 . S
Mg771 O793 2.093 1_554 S
Mg771 O794 2.059 1_554 S
O772 Mg771 1.913 1_556 S
O772 Mg773 1.926 . S
O772 Mg774 1.986 . S
Mg773 O772 1.926 . S
Mg773 O787 1.984 . S
Mg773 O790 1.988 1_556 S
Mg773 O791 2.061 . S
Mg774 O772 1.986 . S
Mg774 O782 2.238 1_556 S
Mg774 O786 2.042 . S
Mg774 O788 2.041 1_556 S
Mg774 O795 2.038 . S
C775 O781 1.247 . S
C775 O782 1.289 . S
C776 O794 1.245 . S
C776 O795 1.274 . S
O777 C765 1.241 . S
O777 Mg770 2.042 . S
O778 C765 1.280 . S
O778 Mg768 1.984 . S
O779 C766 1.277 . S
O779 Mg770 2.041 1_556 S
O780 C766 1.245 . S
O780 Mg768 1.988 1_556 S
O781 Mg768 2.061 . S
O781 C775 1.247 . S
O782 Mg771 2.120 . S
O782 Mg774 2.238 1_554 S
O782 C775 1.289 . S
C783 O784 1.245 . S
C783 O785 1.274 . S
O784 Mg771 2.098 . S
O784 C783 1.245 . S
O785 Mg770 2.038 . S
O785 C783 1.274 . S
O786 Mg774 2.042 . S
O786 C789 1.241 . S
O787 Mg773 1.984 . S
O787 C789 1.280 . S
O788 Mg774 2.041 1_554 S
O788 C792 1.277 . S
C789 O786 1.241 . S
C789 O787 1.280 . S
O790 Mg773 1.988 1_554 S
O790 C792 1.245 . S
O791 C767 1.247 . S
O791 Mg773 2.061 . S
C792 O788 1.277 . S
C792 O790 1.245 . S
O793 C767 1.289 . S
O793 Mg770 2.238 1_556 S
O793 Mg771 2.093 1_556 S
O794 Mg771 2.059 1_556 S
O794 C776 1.245 . S
O795 Mg774 2.038 . S
O795 C776 1.274 . S
C796 O808 1.241 . S
C796 O809 1.280 . S
C797 O810 1.277 . S
C797 O811 1.245 . S
C798 O822 1.247 . S
C798 O824 1.289 . S
Mg799 O800 1.926 1_455 S
Mg799 O809 1.984 1_455 S
Mg799 O811 1.988 1_455 S
Mg799 O812 2.061 . S
O800 Mg799 1.926 1_655 S
O800 Mg801 1.986 . S
O800 Mg802 1.917 1_655 S
Mg801 O800 1.986 . S
Mg801 O808 2.042 . S
Mg801 O810 2.041 . S
Mg801 O816 2.038 . S
Mg801 O824 2.238 . S
Mg802 O800 1.917 1_455 S
Mg802 O803 1.917 . S
Mg802 O813 2.106 . S
Mg802 O815 2.079 1_455 S
Mg802 O824 2.106 1_455 S
Mg802 O825 2.079 . S
O803 Mg802 1.917 . S
O803 Mg804 1.924 . S
O803 Mg805 1.986 . S
Mg804 O803 1.924 . S
Mg804 O818 1.999 . S
Mg804 O821 1.997 . S
Mg804 O822 2.043 1_455 S
Mg805 O803 1.986 . S
Mg805 O813 2.238 . S
Mg805 O817 2.042 . S
Mg805 O819 2.041 . S
Mg805 O826 2.038 . S
C806 O812 1.247 . S
C806 O813 1.289 . S
C807 O825 1.245 . S
C807 O826 1.274 . S
O808 C796 1.241 . S
O808 Mg801 2.042 . S
O809 C796 1.280 . S
O809 Mg799 1.984 1_655 S
O810 C797 1.277 . S
O810 Mg801 2.041 . S
O811 C797 1.245 . S
O811 Mg799 1.988 1_655 S
O812 Mg799 2.061 . S
O812 C806 1.247 . S
O813 Mg802 2.106 . S
O813 Mg805 2.238 . S
O813 C806 1.289 . S
C814 O815 1.245 . S
C814 O816 1.274 . S
O815 Mg802 2.079 1_655 S
O815 C814 1.245 . S
O816 Mg801 2.038 . S
O816 C814 1.274 . S
O817 Mg805 2.042 . S
O817 C820 1.241 . S
O818 Mg804 1.999 . S
O818 C820 1.280 . S
O819 Mg805 2.041 . S
O819 C823 1.277 . S
C820 O817 1.241 . S
C820 O818 1.280 . S
O821 Mg804 1.997 . S
O821 C823 1.245 . S
O822 C798 1.247 . S
O822 Mg804 2.043 1_655 S
C823 O819 1.277 . S
C823 O821 1.245 . S
O824 C798 1.289 . S
O824 Mg801 2.238 . S
O824 Mg802 2.106 1_655 S
O825 Mg802 2.079 . S
O825 C807 1.245 . S
O826 Mg805 2.038 . S
O826 C807 1.274 . S
C827 O839 1.241 . S
C827 O840 1.280 . S
C828 O841 1.277 . S
C828 O842 1.245 . S
C829 O853 1.247 . S
C829 O855 1.289 . S
Mg830 O831 1.926 . S
Mg830 O840 1.984 . S
Mg830 O842 1.988 . S
Mg830 O843 2.061 . S
O831 Mg830 1.926 . S
O831 Mg832 1.986 1_545 S
O831 Mg833 1.926 . S
Mg832 O831 1.986 1_565 S
Mg832 O839 2.042 1_565 S
Mg832 O841 2.041 1_565 S
Mg832 O847 2.038 . S
Mg832 O855 2.238 . S
Mg833 O831 1.926 . S
Mg833 O834 1.908 1_545 S
Mg833 O844 2.107 . S
Mg833 O846 2.073 1_545 S
Mg833 O855 2.106 1_545 S
Mg833 O856 2.084 . S
O834 Mg833 1.908 1_565 S
O834 Mg835 1.926 . S
O834 Mg836 1.986 1_565 S
Mg835 O834 1.926 . S
Mg835 O849 1.984 . S
Mg835 O852 1.988 . S
Mg835 O853 2.061 . S
Mg836 O834 1.986 1_545 S
Mg836 O844 2.238 . S
Mg836 O848 2.042 1_545 S
Mg836 O850 2.041 1_545 S
Mg836 O857 2.038 . S
C837 O843 1.247 . S
C837 O844 1.289 . S
C838 O856 1.245 . S
C838 O857 1.274 . S
O839 C827 1.241 . S
O839 Mg832 2.042 1_545 S
O840 C827 1.280 . S
O840 Mg830 1.984 . S
O841 C828 1.277 . S
O841 Mg832 2.041 1_545 S
O842 C828 1.245 . S
O842 Mg830 1.988 . S
O843 Mg830 2.061 . S
O843 C837 1.247 . S
O844 Mg833 2.107 . S
O844 Mg836 2.238 . S
O844 C837 1.289 . S
C845 O846 1.245 . S
C845 O847 1.274 . S
O846 Mg833 2.073 1_565 S
O846 C845 1.245 . S
O847 Mg832 2.038 . S
O847 C845 1.274 . S
O848 Mg836 2.042 1_565 S
O848 C851 1.241 . S
O849 Mg835 1.984 . S
O849 C851 1.280 . S
O850 Mg836 2.041 1_565 S
O850 C854 1.277 . S
C851 O848 1.241 . S
C851 O849 1.280 . S
O852 Mg835 1.988 . S
O852 C854 1.245 . S
O853 C829 1.247 . S
O853 Mg835 2.061 . S
C854 O850 1.277 . S
C854 O852 1.245 . S
O855 C829 1.289 . S
O855 Mg832 2.238 . S
O855 Mg833 2.106 1_565 S
O856 Mg833 2.084 . S
O856 C838 1.245 . S
O857 Mg836 2.038 . S
O857 C838 1.274 . S
C858 C859 1.369 . S
C858 C860 1.419 . S
C858 H862 0.930 . S
C859 C858 1.369 . S
C859 C868 1.429 . S
C860 C858 1.419 . S
C860 C861 1.363 . S
C860 H863 0.929 . S
C861 C860 1.363 . S
C861 C867 1.428 . S
H862 C858 0.930 . S
H863 C860 0.929 . S
S864 N865 1.613 . S
S864 N866 1.610 . S
N865 S864 1.613 . S
N865 C868 1.350 . S
N866 S864 1.610 . S
N866 C867 1.351 . S
C867 C861 1.428 . S
C867 N866 1.351 . S
C867 C868 1.434 . S
C868 C859 1.429 . S
C868 N865 1.350 . S
C868 C867 1.434 . S
C869 C870 1.369 . S
C869 C871 1.419 . S
C869 H873 0.930 . S
C870 C869 1.369 . S
C870 C879 1.429 . S
C871 C869 1.419 . S
C871 C872 1.363 . S
C871 H874 0.929 . S
C872 C871 1.363 . S
C872 C878 1.428 . S
H873 C869 0.930 . S
H874 C871 0.929 . S
S875 N876 1.613 . S
S875 N877 1.610 . S
N876 S875 1.613 . S
N876 C879 1.350 . S
N877 S875 1.610 . S
N877 C878 1.351 . S
C878 C872 1.428 . S
C878 N877 1.351 . S
C878 C879 1.434 . S
C879 C870 1.429 . S
C879 N876 1.350 . S
C879 C878 1.434 . S
C880 C881 1.369 . S
C880 C882 1.419 . S
C880 H884 0.930 . S
C881 C880 1.369 . S
C881 C890 1.429 . S
C882 C880 1.419 . S
C882 C883 1.363 . S
C882 H885 0.929 . S
C883 C882 1.363 . S
C883 C889 1.428 . S
H884 C880 0.930 . S
H885 C882 0.929 . S
S886 N887 1.613 . S
S886 N888 1.610 . S
N887 S886 1.613 . S
N887 C890 1.350 . S
N888 S886 1.610 . S
N888 C889 1.351 . S
C889 C883 1.428 . S
C889 N888 1.351 . S
C889 C890 1.434 . S
C890 C881 1.429 . S
C890 N887 1.350 . S
C890 C889 1.434 . S
C891 C892 1.369 . S
C891 C893 1.419 . S
C891 H895 0.930 . S
C892 C891 1.369 . S
C892 C901 1.429 . S
C893 C891 1.419 . S
C893 C894 1.363 . S
C893 H896 0.929 . S
C894 C893 1.363 . S
C894 C900 1.428 . S
H895 C891 0.930 . S
H896 C893 0.929 . S
S897 N898 1.613 . S
S897 N899 1.610 . S
N898 S897 1.613 . S
N898 C901 1.350 . S
N899 S897 1.610 . S
N899 C900 1.351 . S
C900 C894 1.428 . S
C900 N899 1.351 . S
C900 C901 1.434 . S
C901 C892 1.429 . S
C901 N898 1.350 . S
C901 C900 1.434 . S
C902 C903 1.369 . S
C902 C904 1.419 . S
C902 H906 0.930 . S
C903 C902 1.369 . S
C903 C912 1.429 . S
C904 C902 1.419 . S
C904 C905 1.363 . S
C904 H907 0.929 . S
C905 C904 1.363 . S
C905 C911 1.428 . S
H906 C902 0.930 . S
H907 C904 0.929 . S
S908 N909 1.613 1_545 S
S908 N910 1.610 1_545 S
N909 S908 1.613 1_565 S
N909 C912 1.350 . S
N910 S908 1.610 1_565 S
N910 C911 1.351 . S
C911 C905 1.428 . S
C911 N910 1.351 . S
C911 C912 1.434 . S
C912 C903 1.429 . S
C912 N909 1.350 . S
C912 C911 1.434 . S
C913 C914 1.369 . S
C913 C915 1.419 . S
C913 H917 0.930 . S
C914 C913 1.369 . S
C914 C923 1.429 . S
C915 C913 1.419 . S
C915 C916 1.363 . S
C915 H918 0.929 . S
C916 C915 1.363 . S
C916 C922 1.428 . S
H917 C913 0.930 . S
H918 C915 0.929 . S
S919 N920 1.613 . S
S919 N921 1.610 . S
N920 S919 1.613 . S
N920 C923 1.350 . S
N921 S919 1.610 . S
N921 C922 1.351 . S
C922 C916 1.428 . S
C922 N921 1.351 . S
C922 C923 1.434 . S
C923 C914 1.429 . S
C923 N920 1.350 . S
C923 C922 1.434 . S
C924 C925 1.369 . S
C924 C926 1.419 . S
C924 H928 0.930 . S
C925 C924 1.369 . S
C925 C934 1.429 . S
C926 C924 1.419 . S
C926 C927 1.363 . S
C926 H929 0.929 . S
C927 C926 1.363 . S
C927 C933 1.428 . S
H928 C924 0.930 . S
H929 C926 0.929 . S
S930 N931 1.613 . S
S930 N932 1.610 . S
N931 S930 1.613 . S
N931 C934 1.350 . S
N932 S930 1.610 . S
N932 C933 1.351 . S
C933 C927 1.428 . S
C933 N932 1.351 . S
C933 C934 1.434 . S
C934 C925 1.429 . S
C934 N931 1.350 . S
C934 C933 1.434 . S
C935 C936 1.369 . S
C935 C937 1.419 . S
C935 H939 0.930 . S
C936 C935 1.369 . S
C936 C945 1.429 . S
C937 C935 1.419 . S
C937 C938 1.363 . S
C937 H940 0.929 . S
C938 C937 1.363 . S
C938 C944 1.428 . S
H939 C935 0.930 . S
H940 C937 0.929 . S
S941 N942 1.613 . S
S941 N943 1.610 . S
N942 S941 1.613 . S
N942 C945 1.350 . S
N943 S941 1.610 . S
N943 C944 1.351 . S
C944 C938 1.428 . S
C944 N943 1.351 . S
C944 C945 1.434 . S
C945 C936 1.429 . S
C945 N942 1.350 . S
C945 C944 1.434 . S
C946 C947 1.369 . S
C946 C948 1.419 . S
C946 H950 0.930 . S
C947 C946 1.369 . S
C947 C956 1.429 . S
C948 C946 1.419 . S
C948 C949 1.363 . S
C948 H951 0.929 . S
C949 C948 1.363 . S
C949 C955 1.428 . S
H950 C946 0.930 . S
H951 C948 0.929 . S
S952 N953 1.613 . S
S952 N954 1.610 . S
N953 S952 1.613 . S
N953 C956 1.350 . S
N954 S952 1.610 . S
N954 C955 1.351 . S
C955 C949 1.428 . S
C955 N954 1.351 . S
C955 C956 1.434 . S
C956 C947 1.429 . S
C956 N953 1.350 . S
C956 C955 1.434 . S
C957 C958 1.369 . S
C957 C959 1.419 . S
C957 H961 0.930 . S
C958 C957 1.369 . S
C958 C967 1.429 . S
C959 C957 1.419 . S
C959 C960 1.363 . S
C959 H962 0.929 . S
C960 C959 1.363 . S
C960 C966 1.428 . S
H961 C957 0.930 . S
H962 C959 0.929 . S
S963 N964 1.613 . S
S963 N965 1.610 . S
N964 S963 1.613 . S
N964 C967 1.350 . S
N965 S963 1.610 . S
N965 C966 1.351 . S
C966 C960 1.428 . S
C966 N965 1.351 . S
C966 C967 1.434 . S
C967 C958 1.429 . S
C967 N964 1.350 . S
C967 C966 1.434 . S
C968 C969 1.369 . S
C968 C970 1.419 . S
C968 H972 0.930 . S
C969 C968 1.369 . S
C969 C978 1.429 . S
C970 C968 1.419 . S
C970 C971 1.363 . S
C970 H973 0.929 . S
C971 C970 1.363 . S
C971 C977 1.428 . S
H972 C968 0.930 . S
H973 C970 0.929 . S
S974 N975 1.613 . S
S974 N976 1.610 . S
N975 S974 1.613 . S
N975 C978 1.350 . S
N976 S974 1.610 . S
N976 C977 1.351 . S
C977 C971 1.428 . S
C977 N976 1.351 . S
C977 C978 1.434 . S
C978 C969 1.429 . S
C978 N975 1.350 . S
C978 C977 1.434 . S
C979 C980 1.369 . S
C979 C981 1.419 . S
C979 H983 0.930 . S
C980 C979 1.369 . S
C980 C989 1.429 . S
C981 C979 1.419 . S
C981 C982 1.363 . S
C981 H984 0.929 . S
C982 C981 1.363 . S
C982 C988 1.428 . S
H983 C979 0.930 . S
H984 C981 0.929 . S
S985 N986 1.613 . S
S985 N987 1.610 . S
N986 S985 1.613 . S
N986 C989 1.350 . S
N987 S985 1.610 . S
N987 C988 1.351 . S
C988 C982 1.428 . S
C988 N987 1.351 . S
C988 C989 1.434 . S
C989 C980 1.429 . S
C989 N986 1.350 . S
C989 C988 1.434 . S
C990 C991 1.369 . S
C990 C992 1.419 . S
C990 H994 0.930 . S
C991 C990 1.369 . S
C991 C1000 1.429 . S
C992 C990 1.419 . S
C992 C993 1.363 . S
C992 H995 0.929 . S
C993 C992 1.363 . S
C993 C999 1.428 . S
H994 C990 0.930 . S
H995 C992 0.929 . S
S996 N997 1.613 . S
S996 N998 1.610 . S
N997 S996 1.613 . S
N997 C1000 1.350 . S
N998 S996 1.610 . S
N998 C999 1.351 . S
C999 C993 1.428 . S
C999 N998 1.351 . S
C999 C1000 1.434 . S
C1000 C991 1.429 . S
C1000 N997 1.350 . S
C1000 C999 1.434 . S
C1001 C1002 1.369 . S
C1001 C1003 1.419 . S
C1001 H1005 0.930 . S
C1002 C1001 1.369 . S
C1002 C1011 1.429 . S
C1003 C1001 1.419 . S
C1003 C1004 1.363 . S
C1003 H1006 0.929 . S
C1004 C1003 1.363 . S
C1004 C1010 1.428 . S
H1005 C1001 0.930 . S
H1006 C1003 0.929 . S
S1007 N1008 1.613 . S
S1007 N1009 1.610 . S
N1008 S1007 1.613 . S
N1008 C1011 1.350 . S
N1009 S1007 1.610 . S
N1009 C1010 1.351 . S
C1010 C1004 1.428 . S
C1010 N1009 1.351 . S
C1010 C1011 1.434 . S
C1011 C1002 1.429 . S
C1011 N1008 1.350 . S
C1011 C1010 1.434 . S
C1012 C1013 1.369 . S
C1012 C1014 1.419 . S
C1012 H1016 0.930 . S
C1013 C1012 1.369 . S
C1013 C1022 1.429 . S
C1014 C1012 1.419 . S
C1014 C1015 1.363 . S
C1014 H1017 0.929 . S
C1015 C1014 1.363 . S
C1015 C1021 1.428 . S
H1016 C1012 0.930 . S
H1017 C1014 0.929 . S
S1018 N1019 1.613 . S
S1018 N1020 1.610 . S
N1019 S1018 1.613 . S
N1019 C1022 1.350 . S
N1020 S1018 1.610 . S
N1020 C1021 1.351 . S
C1021 C1015 1.428 . S
C1021 N1020 1.351 . S
C1021 C1022 1.434 . S
C1022 C1013 1.429 . S
C1022 N1019 1.350 . S
C1022 C1021 1.434 . S
C1023 C1024 1.369 . S
C1023 C1025 1.419 . S
C1023 H1027 0.930 . S
C1024 C1023 1.369 . S
C1024 C1033 1.429 . S
C1025 C1023 1.419 . S
C1025 C1026 1.363 . S
C1025 H1028 0.929 . S
C1026 C1025 1.363 . S
C1026 C1032 1.428 . S
H1027 C1023 0.930 . S
H1028 C1025 0.929 . S
S1029 N1030 1.613 . S
S1029 N1031 1.610 . S
N1030 S1029 1.613 . S
N1030 C1033 1.350 . S
N1031 S1029 1.610 . S
N1031 C1032 1.351 . S
C1032 C1026 1.428 . S
C1032 N1031 1.351 . S
C1032 C1033 1.434 . S
C1033 C1024 1.429 . S
C1033 N1030 1.350 . S
C1033 C1032 1.434 . S
C1034 C1035 1.369 . S
C1034 C1036 1.419 . S
C1034 H1038 0.930 . S
C1035 C1034 1.369 . S
C1035 C1044 1.429 . S
C1036 C1034 1.419 . S
C1036 C1037 1.363 . S
C1036 H1039 0.929 . S
C1037 C1036 1.363 . S
C1037 C1043 1.428 . S
H1038 C1034 0.930 . S
H1039 C1036 0.929 . S
S1040 N1041 1.613 . S
S1040 N1042 1.610 . S
N1041 S1040 1.613 . S
N1041 C1044 1.350 . S
N1042 S1040 1.610 . S
N1042 C1043 1.351 . S
C1043 C1037 1.428 . S
C1043 N1042 1.351 . S
C1043 C1044 1.434 . S
C1044 C1035 1.429 . S
C1044 N1041 1.350 . S
C1044 C1043 1.434 . S
C1045 C1046 1.369 . S
C1045 C1047 1.419 . S
C1045 H1049 0.930 . S
C1046 C1045 1.369 . S
C1046 C1055 1.429 . S
C1047 C1045 1.419 . S
C1047 C1048 1.363 . S
C1047 H1050 0.929 . S
C1048 C1047 1.363 . S
C1048 C1054 1.428 . S
H1049 C1045 0.930 . S
H1050 C1047 0.929 . S
S1051 N1052 1.613 . S
S1051 N1053 1.610 . S
N1052 S1051 1.613 . S
N1052 C1055 1.350 . S
N1053 S1051 1.610 . S
N1053 C1054 1.351 . S
C1054 C1048 1.428 . S
C1054 N1053 1.351 . S
C1054 C1055 1.434 . S
C1055 C1046 1.429 . S
C1055 N1052 1.350 . S
C1055 C1054 1.434 . S
C1056 C1057 1.369 . S
C1056 C1058 1.419 . S
C1056 H1060 0.930 . S
C1057 C1056 1.369 . S
C1057 C1066 1.429 . S
C1058 C1056 1.419 . S
C1058 C1059 1.363 . S
C1058 H1061 0.929 . S
C1059 C1058 1.363 . S
C1059 C1065 1.428 . S
H1060 C1056 0.930 . S
H1061 C1058 0.929 . S
S1062 N1063 1.613 1_554 S
S1062 N1064 1.610 1_554 S
N1063 S1062 1.613 1_556 S
N1063 C1066 1.350 . S
N1064 S1062 1.610 1_556 S
N1064 C1065 1.351 . S
C1065 C1059 1.428 . S
C1065 N1064 1.351 . S
C1065 C1066 1.434 . S
C1066 C1057 1.429 . S
C1066 N1063 1.350 . S
C1066 C1065 1.434 . S
C1067 C1068 1.369 . S
C1067 C1069 1.419 . S
C1067 H1071 0.930 . S
C1068 C1067 1.369 . S
C1068 C1077 1.429 . S
C1069 C1067 1.419 . S
C1069 C1070 1.363 . S
C1069 H1072 0.929 . S
C1070 C1069 1.363 . S
C1070 C1076 1.428 . S
H1071 C1067 0.930 . S
H1072 C1069 0.929 . S
S1073 N1074 1.613 . S
S1073 N1075 1.610 . S
N1074 S1073 1.613 . S
N1074 C1077 1.350 . S
N1075 S1073 1.610 . S
N1075 C1076 1.351 . S
C1076 C1070 1.428 . S
C1076 N1075 1.351 . S
C1076 C1077 1.434 . S
C1077 C1068 1.429 . S
C1077 N1074 1.350 . S
C1077 C1076 1.434 . S
C1078 C1079 1.369 . S
C1078 C1080 1.419 . S
C1078 H1082 0.930 . S
C1079 C1078 1.369 . S
C1079 C1088 1.429 . S
C1080 C1078 1.419 . S
C1080 C1081 1.363 . S
C1080 H1083 0.929 . S
C1081 C1080 1.363 . S
C1081 C1087 1.428 . S
H1082 C1078 0.930 . S
H1083 C1080 0.929 . S
S1084 N1085 1.613 . S
S1084 N1086 1.610 . S
N1085 S1084 1.613 . S
N1085 C1088 1.350 . S
N1086 S1084 1.610 . S
N1086 C1087 1.351 . S
C1087 C1081 1.428 . S
C1087 N1086 1.351 . S
C1087 C1088 1.434 . S
C1088 C1079 1.429 . S
C1088 N1085 1.350 . S
C1088 C1087 1.434 . S
C1089 C1090 1.369 . S
C1089 C1091 1.419 . S
C1089 H1093 0.930 . S
C1090 C1089 1.369 . S
C1090 C1099 1.429 . S
C1091 C1089 1.419 . S
C1091 C1092 1.363 . S
C1091 H1094 0.929 . S
C1092 C1091 1.363 . S
C1092 C1098 1.428 . S
H1093 C1089 0.930 . S
H1094 C1091 0.929 . S
S1095 N1096 1.613 . S
S1095 N1097 1.610 . S
N1096 S1095 1.613 . S
N1096 C1099 1.350 . S
N1097 S1095 1.610 . S
N1097 C1098 1.351 . S
C1098 C1092 1.428 . S
C1098 N1097 1.351 . S
C1098 C1099 1.434 . S
C1099 C1090 1.429 . S
C1099 N1096 1.350 . S
C1099 C1098 1.434 . S
C1100 C1101 1.369 . S
C1100 C1102 1.419 . S
C1100 H1104 0.930 . S
C1101 C1100 1.369 . S
C1101 C1110 1.429 . S
C1102 C1100 1.419 . S
C1102 C1103 1.363 . S
C1102 H1105 0.929 . S
C1103 C1102 1.363 . S
C1103 C1109 1.428 . S
H1104 C1100 0.930 . S
H1105 C1102 0.929 . S
S1106 N1107 1.613 . S
S1106 N1108 1.610 . S
N1107 S1106 1.613 . S
N1107 C1110 1.350 . S
N1108 S1106 1.610 . S
N1108 C1109 1.351 . S
C1109 C1103 1.428 . S
C1109 N1108 1.351 . S
C1109 C1110 1.434 . S
C1110 C1101 1.429 . S
C1110 N1107 1.350 . S
C1110 C1109 1.434 . S
C1111 C1112 1.369 . S
C1111 C1113 1.419 . S
C1111 H1115 0.930 . S
C1112 C1111 1.369 . S
C1112 C1121 1.429 . S
C1113 C1111 1.419 . S
C1113 C1114 1.363 . S
C1113 H1116 0.929 . S
C1114 C1113 1.363 . S
C1114 C1120 1.428 . S
H1115 C1111 0.930 . S
H1116 C1113 0.929 . S
S1117 N1118 1.613 . S
S1117 N1119 1.610 . S
N1118 S1117 1.613 . S
N1118 C1121 1.350 . S
N1119 S1117 1.610 . S
N1119 C1120 1.351 . S
C1120 C1114 1.428 . S
C1120 N1119 1.351 . S
C1120 C1121 1.434 . S
C1121 C1112 1.429 . S
C1121 N1118 1.350 . S
C1121 C1120 1.434 . S
C1122 C1123 1.369 . S
C1122 C1124 1.419 . S
C1122 H1126 0.930 . S
C1123 C1122 1.369 . S
C1123 C1132 1.429 . S
C1124 C1122 1.419 . S
C1124 C1125 1.363 . S
C1124 H1127 0.929 . S
C1125 C1124 1.363 . S
C1125 C1131 1.428 . S
H1126 C1122 0.930 . S
H1127 C1124 0.929 . S
S1128 N1129 1.613 . S
S1128 N1130 1.610 . S
N1129 S1128 1.613 . S
N1129 C1132 1.350 . S
N1130 S1128 1.610 . S
N1130 C1131 1.351 . S
C1131 C1125 1.428 . S
C1131 N1130 1.351 . S
C1131 C1132 1.434 . S
C1132 C1123 1.429 . S
C1132 N1129 1.350 . S
C1132 C1131 1.434 . S
C1133 C1134 1.369 . S
C1133 C1135 1.419 . S
C1133 H1137 0.930 . S
C1134 C1133 1.369 . S
C1134 C1143 1.429 . S
C1135 C1133 1.419 . S
C1135 C1136 1.363 . S
C1135 H1138 0.929 . S
C1136 C1135 1.363 . S
C1136 C1142 1.428 . S
H1137 C1133 0.930 . S
H1138 C1135 0.929 . S
S1139 N1140 1.613 . S
S1139 N1141 1.610 . S
N1140 S1139 1.613 . S
N1140 C1143 1.350 . S
N1141 S1139 1.610 . S
N1141 C1142 1.351 . S
C1142 C1136 1.428 . S
C1142 N1141 1.351 . S
C1142 C1143 1.434 . S
C1143 C1134 1.429 . S
C1143 N1140 1.350 . S
C1143 C1142 1.434 . S
C1144 C1145 1.369 . S
C1144 C1146 1.419 . S
C1144 H1148 0.930 . S
C1145 C1144 1.369 . S
C1145 C1154 1.429 . S
C1146 C1144 1.419 . S
C1146 C1147 1.363 . S
C1146 H1149 0.929 . S
C1147 C1146 1.363 . S
C1147 C1153 1.428 . S
H1148 C1144 0.930 . S
H1149 C1146 0.929 . S
S1150 N1151 1.613 . S
S1150 N1152 1.610 . S
N1151 S1150 1.613 . S
N1151 C1154 1.350 . S
N1152 S1150 1.610 . S
N1152 C1153 1.351 . S
C1153 C1147 1.428 . S
C1153 N1152 1.351 . S
C1153 C1154 1.434 . S
C1154 C1145 1.429 . S
C1154 N1151 1.350 . S
C1154 C1153 1.434 . S
C1155 C1156 1.369 . S
C1155 C1157 1.419 . S
C1155 H1159 0.930 . S
C1156 C1155 1.369 . S
C1156 C1165 1.429 . S
C1157 C1155 1.419 . S
C1157 C1158 1.363 . S
C1157 H1160 0.929 . S
C1158 C1157 1.363 . S
C1158 C1164 1.428 . S
H1159 C1155 0.930 . S
H1160 C1157 0.929 . S
S1161 N1162 1.613 . S
S1161 N1163 1.610 . S
N1162 S1161 1.613 . S
N1162 C1165 1.350 . S
N1163 S1161 1.610 . S
N1163 C1164 1.351 . S
C1164 C1158 1.428 . S
C1164 N1163 1.351 . S
C1164 C1165 1.434 . S
C1165 C1156 1.429 . S
C1165 N1162 1.350 . S
C1165 C1164 1.434 . S
C1166 C1167 1.369 . S
C1166 C1168 1.419 . S
C1166 H1170 0.930 . S
C1167 C1166 1.369 . S
C1167 C1176 1.429 . S
C1168 C1166 1.419 . S
C1168 C1169 1.363 . S
C1168 H1171 0.929 . S
C1169 C1168 1.363 . S
C1169 C1175 1.428 . S
H1170 C1166 0.930 . S
H1171 C1168 0.929 . S
S1172 N1173 1.613 . S
S1172 N1174 1.610 . S
N1173 S1172 1.613 . S
N1173 C1176 1.350 . S
N1174 S1172 1.610 . S
N1174 C1175 1.351 . S
C1175 C1169 1.428 . S
C1175 N1174 1.351 . S
C1175 C1176 1.434 . S
C1176 C1167 1.429 . S
C1176 N1173 1.350 . S
C1176 C1175 1.434 . S
C1177 C1178 1.369 . S
C1177 C1179 1.419 . S
C1177 H1181 0.930 . S
C1178 C1177 1.369 . S
C1178 C1187 1.429 . S
C1179 C1177 1.419 . S
C1179 C1180 1.363 . S
C1179 H1182 0.929 . S
C1180 C1179 1.363 . S
C1180 C1186 1.428 . S
H1181 C1177 0.930 . S
H1182 C1179 0.929 . S
S1183 N1184 1.613 . S
S1183 N1185 1.610 . S
N1184 S1183 1.613 . S
N1184 C1187 1.350 . S
N1185 S1183 1.610 . S
N1185 C1186 1.351 . S
C1186 C1180 1.428 . S
C1186 N1185 1.351 . S
C1186 C1187 1.434 . S
C1187 C1178 1.429 . S
C1187 N1184 1.350 . S
C1187 C1186 1.434 . S
C1188 C1189 1.369 . S
C1188 C1190 1.419 . S
C1188 H1192 0.930 . S
C1189 C1188 1.369 . S
C1189 C1198 1.429 . S
C1190 C1188 1.419 . S
C1190 C1191 1.363 . S
C1190 H1193 0.929 . S
C1191 C1190 1.363 . S
C1191 C1197 1.428 . S
H1192 C1188 0.930 . S
H1193 C1190 0.929 . S
S1194 N1195 1.613 . S
S1194 N1196 1.610 . S
N1195 S1194 1.613 . S
N1195 C1198 1.350 . S
N1196 S1194 1.610 . S
N1196 C1197 1.351 . S
C1197 C1191 1.428 . S
C1197 N1196 1.351 . S
C1197 C1198 1.434 . S
C1198 C1189 1.429 . S
C1198 N1195 1.350 . S
C1198 C1197 1.434 . S
C1199 C1200 1.369 . S
C1199 C1201 1.419 . S
C1199 H1203 0.930 . S
C1200 C1199 1.369 . S
C1200 C1209 1.429 . S
C1201 C1199 1.419 . S
C1201 C1202 1.363 . S
C1201 H1204 0.929 . S
C1202 C1201 1.363 . S
C1202 C1208 1.428 . S
H1203 C1199 0.930 . S
H1204 C1201 0.929 . S
S1205 N1206 1.613 . S
S1205 N1207 1.610 . S
N1206 S1205 1.613 . S
N1206 C1209 1.350 . S
N1207 S1205 1.610 . S
N1207 C1208 1.351 . S
C1208 C1202 1.428 . S
C1208 N1207 1.351 . S
C1208 C1209 1.434 . S
C1209 C1200 1.429 . S
C1209 N1206 1.350 . S
C1209 C1208 1.434 . S
C1210 C1211 1.369 . S
C1210 C1212 1.419 . S
C1210 H1214 0.930 . S
C1211 C1210 1.369 . S
C1211 C1220 1.429 . S
C1212 C1210 1.419 . S
C1212 C1213 1.363 . S
C1212 H1215 0.929 . S
C1213 C1212 1.363 . S
C1213 C1219 1.428 . S
H1214 C1210 0.930 . S
H1215 C1212 0.929 . S
S1216 N1217 1.613 . S
S1216 N1218 1.610 . S
N1217 S1216 1.613 . S
N1217 C1220 1.350 . S
N1218 S1216 1.610 . S
N1218 C1219 1.351 . S
C1219 C1213 1.428 . S
C1219 N1218 1.351 . S
C1219 C1220 1.434 . S
C1220 C1211 1.429 . S
C1220 N1217 1.350 . S
C1220 C1219 1.434 . S
C1221 C1222 1.369 . S
C1221 C1223 1.419 . S
C1221 H1225 0.930 . S
C1222 C1221 1.369 . S
C1222 C1231 1.429 . S
C1223 C1221 1.419 . S
C1223 C1224 1.363 . S
C1223 H1226 0.929 . S
C1224 C1223 1.363 . S
C1224 C1230 1.428 . S
H1225 C1221 0.930 . S
H1226 C1223 0.929 . S
S1227 N1228 1.613 . S
S1227 N1229 1.610 . S
N1228 S1227 1.613 . S
N1228 C1231 1.350 . S
N1229 S1227 1.610 . S
N1229 C1230 1.351 . S
C1230 C1224 1.428 . S
C1230 N1229 1.351 . S
C1230 C1231 1.434 . S
C1231 C1222 1.429 . S
C1231 N1228 1.350 . S
C1231 C1230 1.434 . S
C1232 C1233 1.369 . S
C1232 C1234 1.419 . S
C1232 H1236 0.930 . S
C1233 C1232 1.369 . S
C1233 C1242 1.429 . S
C1234 C1232 1.419 . S
C1234 C1235 1.363 . S
C1234 H1237 0.929 . S
C1235 C1234 1.363 . S
C1235 C1241 1.428 . S
H1236 C1232 0.930 . S
H1237 C1234 0.929 . S
S1238 N1239 1.613 . S
S1238 N1240 1.610 . S
N1239 S1238 1.613 . S
N1239 C1242 1.350 . S
N1240 S1238 1.610 . S
N1240 C1241 1.351 . S
C1241 C1235 1.428 . S
C1241 N1240 1.351 . S
C1241 C1242 1.434 . S
C1242 C1233 1.429 . S
C1242 N1239 1.350 . S
C1242 C1241 1.434 . S
C1243 C1244 1.369 . S
C1243 C1245 1.419 . S
C1243 H1247 0.930 . S
C1244 C1243 1.369 . S
C1244 C1253 1.429 . S
C1245 C1243 1.419 . S
C1245 C1246 1.363 . S
C1245 H1248 0.929 . S
C1246 C1245 1.363 . S
C1246 C1252 1.428 . S
H1247 C1243 0.930 . S
H1248 C1245 0.929 . S
S1249 N1250 1.613 . S
S1249 N1251 1.610 . S
N1250 S1249 1.613 . S
N1250 C1253 1.350 . S
N1251 S1249 1.610 . S
N1251 C1252 1.351 . S
C1252 C1246 1.428 . S
C1252 N1251 1.351 . S
C1252 C1253 1.434 . S
C1253 C1244 1.429 . S
C1253 N1250 1.350 . S
C1253 C1252 1.434 . S
C1254 C1255 1.369 . S
C1254 C1256 1.419 . S
C1254 H1258 0.930 . S
C1255 C1254 1.369 . S
C1255 C1264 1.429 . S
C1256 C1254 1.419 . S
C1256 C1257 1.363 . S
C1256 H1259 0.929 . S
C1257 C1256 1.363 . S
C1257 C1263 1.428 . S
H1258 C1254 0.930 . S
H1259 C1256 0.929 . S
S1260 N1261 1.613 . S
S1260 N1262 1.610 . S
N1261 S1260 1.613 . S
N1261 C1264 1.350 . S
N1262 S1260 1.610 . S
N1262 C1263 1.351 . S
C1263 C1257 1.428 . S
C1263 N1262 1.351 . S
C1263 C1264 1.434 . S
C1264 C1255 1.429 . S
C1264 N1261 1.350 . S
C1264 C1263 1.434 . S
C1265 C1266 1.369 . S
C1265 C1267 1.419 . S
C1265 H1269 0.930 . S
C1266 C1265 1.369 . S
C1266 C1275 1.429 . S
C1267 C1265 1.419 . S
C1267 C1268 1.363 . S
C1267 H1270 0.929 . S
C1268 C1267 1.363 . S
C1268 C1274 1.428 . S
H1269 C1265 0.930 . S
H1270 C1267 0.929 . S
S1271 N1272 1.613 . S
S1271 N1273 1.610 . S
N1272 S1271 1.613 . S
N1272 C1275 1.350 . S
N1273 S1271 1.610 . S
N1273 C1274 1.351 . S
C1274 C1268 1.428 . S
C1274 N1273 1.351 . S
C1274 C1275 1.434 . S
C1275 C1266 1.429 . S
C1275 N1272 1.350 . S
C1275 C1274 1.434 . S
C1276 C1277 1.369 . S
C1276 C1278 1.419 . S
C1276 H1280 0.930 . S
C1277 C1276 1.369 . S
C1277 C1286 1.429 . S
C1278 C1276 1.419 . S
C1278 C1279 1.363 . S
C1278 H1281 0.929 . S
C1279 C1278 1.363 . S
C1279 C1285 1.428 . S
H1280 C1276 0.930 . S
H1281 C1278 0.929 . S
S1282 N1283 1.613 . S
S1282 N1284 1.610 . S
N1283 S1282 1.613 . S
N1283 C1286 1.350 . S
N1284 S1282 1.610 . S
N1284 C1285 1.351 . S
C1285 C1279 1.428 . S
C1285 N1284 1.351 . S
C1285 C1286 1.434 . S
C1286 C1277 1.429 . S
C1286 N1283 1.350 . S
C1286 C1285 1.434 . S
C1287 C1288 1.369 . S
C1287 C1289 1.419 . S
C1287 H1291 0.930 . S
C1288 C1287 1.369 . S
C1288 C1297 1.429 . S
C1289 C1287 1.419 . S
C1289 C1290 1.363 . S
C1289 H1292 0.929 . S
C1290 C1289 1.363 . S
C1290 C1296 1.428 . S
H1291 C1287 0.930 . S
H1292 C1289 0.929 . S
S1293 N1294 1.613 . S
S1293 N1295 1.610 . S
N1294 S1293 1.613 . S
N1294 C1297 1.350 . S
N1295 S1293 1.610 . S
N1295 C1296 1.351 . S
C1296 C1290 1.428 . S
C1296 N1295 1.351 . S
C1296 C1297 1.434 . S
C1297 C1288 1.429 . S
C1297 N1294 1.350 . S
C1297 C1296 1.434 . S
C1298 C1299 1.369 . S
C1298 C1300 1.419 . S
C1298 H1302 0.930 . S
C1299 C1298 1.369 . S
C1299 C1308 1.429 . S
C1300 C1298 1.419 . S
C1300 C1301 1.363 . S
C1300 H1303 0.929 . S
C1301 C1300 1.363 . S
C1301 C1307 1.428 . S
H1302 C1298 0.930 . S
H1303 C1300 0.929 . S
S1304 N1305 1.613 . S
S1304 N1306 1.610 . S
N1305 S1304 1.613 . S
N1305 C1308 1.350 . S
N1306 S1304 1.610 . S
N1306 C1307 1.351 . S
C1307 C1301 1.428 . S
C1307 N1306 1.351 . S
C1307 C1308 1.434 . S
C1308 C1299 1.429 . S
C1308 N1305 1.350 . S
C1308 C1307 1.434 . S
C1309 C1310 1.369 . S
C1309 C1311 1.419 . S
C1309 H1313 0.930 . S
C1310 C1309 1.369 . S
C1310 C1319 1.429 . S
C1311 C1309 1.419 . S
C1311 C1312 1.363 . S
C1311 H1314 0.929 . S
C1312 C1311 1.363 . S
C1312 C1318 1.428 . S
H1313 C1309 0.930 . S
H1314 C1311 0.929 . S
S1315 N1316 1.613 . S
S1315 N1317 1.610 . S
N1316 S1315 1.613 . S
N1316 C1319 1.350 . S
N1317 S1315 1.610 . S
N1317 C1318 1.351 . S
C1318 C1312 1.428 . S
C1318 N1317 1.351 . S
C1318 C1319 1.434 . S
C1319 C1310 1.429 . S
C1319 N1316 1.350 . S
C1319 C1318 1.434 . S
C1320 C1321 1.369 . S
C1320 C1322 1.419 . S
C1320 H1324 0.930 . S
C1321 C1320 1.369 . S
C1321 C1330 1.429 . S
C1322 C1320 1.419 . S
C1322 C1323 1.363 . S
C1322 H1325 0.929 . S
C1323 C1322 1.363 . S
C1323 C1329 1.428 . S
H1324 C1320 0.930 . S
H1325 C1322 0.929 . S
S1326 N1327 1.613 . S
S1326 N1328 1.610 . S
N1327 S1326 1.613 . S
N1327 C1330 1.350 . S
N1328 S1326 1.610 . S
N1328 C1329 1.351 . S
C1329 C1323 1.428 . S
C1329 N1328 1.351 . S
C1329 C1330 1.434 . S
C1330 C1321 1.429 . S
C1330 N1327 1.350 . S
C1330 C1329 1.434 . S
C1331 C1332 1.369 . S
C1331 C1333 1.419 . S
C1331 H1335 0.930 . S
C1332 C1331 1.369 . S
C1332 C1341 1.429 . S
C1333 C1331 1.419 . S
C1333 C1334 1.363 . S
C1333 H1336 0.929 . S
C1334 C1333 1.363 . S
C1334 C1340 1.428 . S
H1335 C1331 0.930 . S
H1336 C1333 0.929 . S
S1337 N1338 1.613 . S
S1337 N1339 1.610 . S
N1338 S1337 1.613 . S
N1338 C1341 1.350 . S
N1339 S1337 1.610 . S
N1339 C1340 1.351 . S
C1340 C1334 1.428 . S
C1340 N1339 1.351 . S
C1340 C1341 1.434 . S
C1341 C1332 1.429 . S
C1341 N1338 1.350 . S
C1341 C1340 1.434 . S
C1342 C1343 1.369 . S
C1342 C1344 1.419 . S
C1342 H1346 0.930 . S
C1343 C1342 1.369 . S
C1343 C1352 1.429 . S
C1344 C1342 1.419 . S
C1344 C1345 1.363 . S
C1344 H1347 0.929 . S
C1345 C1344 1.363 . S
C1345 C1351 1.428 . S
H1346 C1342 0.930 . S
H1347 C1344 0.929 . S
S1348 N1349 1.613 . S
S1348 N1350 1.610 . S
N1349 S1348 1.613 . S
N1349 C1352 1.350 . S
N1350 S1348 1.610 . S
N1350 C1351 1.351 . S
C1351 C1345 1.428 . S
C1351 N1350 1.351 . S
C1351 C1352 1.434 . S
C1352 C1343 1.429 . S
C1352 N1349 1.350 . S
C1352 C1351 1.434 . S
C1353 C1354 1.369 . S
C1353 C1355 1.419 . S
C1353 H1357 0.930 . S
C1354 C1353 1.369 . S
C1354 C1363 1.429 . S
C1355 C1353 1.419 . S
C1355 C1356 1.363 . S
C1355 H1358 0.929 . S
C1356 C1355 1.363 . S
C1356 C1362 1.428 . S
H1357 C1353 0.930 . S
H1358 C1355 0.929 . S
S1359 N1360 1.613 . S
S1359 N1361 1.610 . S
N1360 S1359 1.613 . S
N1360 C1363 1.350 . S
N1361 S1359 1.610 . S
N1361 C1362 1.351 . S
C1362 C1356 1.428 . S
C1362 N1361 1.351 . S
C1362 C1363 1.434 . S
C1363 C1354 1.429 . S
C1363 N1360 1.350 . S
C1363 C1362 1.434 . S
C1364 C1365 1.369 . S
C1364 C1366 1.419 . S
C1364 H1368 0.930 . S
C1365 C1364 1.369 . S
C1365 C1374 1.429 . S
C1366 C1364 1.419 . S
C1366 C1367 1.363 . S
C1366 H1369 0.929 . S
C1367 C1366 1.363 . S
C1367 C1373 1.428 . S
H1368 C1364 0.930 . S
H1369 C1366 0.929 . S
S1370 N1371 1.613 . S
S1370 N1372 1.610 . S
N1371 S1370 1.613 . S
N1371 C1374 1.350 . S
N1372 S1370 1.610 . S
N1372 C1373 1.351 . S
C1373 C1367 1.428 . S
C1373 N1372 1.351 . S
C1373 C1374 1.434 . S
C1374 C1365 1.429 . S
C1374 N1371 1.350 . S
C1374 C1373 1.434 . S
C1375 C1376 1.369 . S
C1375 C1377 1.419 . S
C1375 H1379 0.930 . S
C1376 C1375 1.369 . S
C1376 C1385 1.429 . S
C1377 C1375 1.419 . S
C1377 C1378 1.363 . S
C1377 H1380 0.929 . S
C1378 C1377 1.363 . S
C1378 C1384 1.428 . S
H1379 C1375 0.930 . S
H1380 C1377 0.929 . S
S1381 N1382 1.613 . S
S1381 N1383 1.610 . S
N1382 S1381 1.613 . S
N1382 C1385 1.350 . S
N1383 S1381 1.610 . S
N1383 C1384 1.351 . S
C1384 C1378 1.428 . S
C1384 N1383 1.351 . S
C1384 C1385 1.434 . S
C1385 C1376 1.429 . S
C1385 N1382 1.350 . S
C1385 C1384 1.434 . S
C861 C683 1.744 . S
C859 C74 1.722 . S
C872 C673 1.303 . S
C870 C153 1.264 . S
C883 C674 1.434 . S
C881 C231 1.412 . S
C892 C310 0.899 . S
C894 C696 0.863 . S
C903 C394 1.250 . S
C905 C699 1.305 . S
C916 C682 1.431 . S
C914 C494 1.414 . S
C925 C573 0.924 . S
C927 C672 0.841 . S
C936 C651 1.722 . S
C938 C690 1.744 . S
C949 C703 2.420 . S
C947 C56 2.520 . S
C958 C151 1.680 . S
C960 C752 1.653 . S
C971 C730 1.365 . S
C969 C237 1.381 . S
C982 C744 1.419 . S
C980 C326 1.400 . S
C991 C410 1.413 . S
C993 C705 1.397 . S
C1004 C758 2.427 . S
C1002 C476 2.541 . S
C1013 C571 1.686 . S
C1015 C714 1.673 . S
C1024 C657 1.285 . S
C1026 C735 1.311 . S
C1035 C58 1.285 . S
C1037 C761 1.311 . S
C1046 C392 1.679 . S
C1048 C745 1.651 . S
C1059 C704 1.359 . S
C1057 C478 1.383 . S
C1070 C736 1.421 . S
C1068 C567 1.402 . S
C1079 C655 2.521 . S
C1081 C727 2.420 . S
C1090 C235 2.541 . S
C1092 C734 2.423 . S
C1103 C721 1.673 . S
C1101 C308 1.688 . S
C1112 C147 1.411 . S
C1114 C713 1.398 . S
C1123 C662 1.725 . S
C1125 C776 1.746 . S
C1134 C405 1.250 . S
C1136 C766 1.307 . S
C1147 C767 1.430 . S
C1145 C483 1.414 . S
C1158 C789 0.849 . S
C1156 C562 0.926 . S
C1167 C142 1.263 . S
C1169 C792 1.306 . S
C1180 C775 1.433 . S
C1178 C242 1.413 . S
C1189 C321 0.916 . S
C1191 C765 0.843 . S
C1200 C63 1.727 . S
C1202 C783 1.742 . S
C1211 C644 2.520 . S
C1213 C796 2.425 . S
C1224 C845 1.652 . S
C1222 C403 1.679 . S
C1233 C489 1.379 . S
C1235 C823 1.357 . S
C1244 C578 1.401 . S
C1246 C837 1.419 . S
C1257 C798 1.397 . S
C1255 C158 1.412 . S
C1266 C224 2.541 . S
C1268 C851 2.427 . S
C1279 C807 1.674 . S
C1277 C319 1.688 . S
C1290 C828 1.313 . S
C1288 C69 1.285 . S
C1301 C854 1.310 . S
C1299 C646 1.284 . S
C1310 C140 1.681 . S
C1312 C838 1.653 . S
C1321 C226 1.382 . S
C1323 C797 1.358 . S
C1334 C829 1.418 . S
C1332 C315 1.399 . S
C1343 C67 2.520 . S
C1345 C820 2.424 . S
C1354 C487 2.542 . S
C1356 C827 2.422 . S
C1367 C814 1.674 . S
C1365 C560 1.687 . S
C1378 C806 1.401 . S
C1376 C399 1.409 . S
