# Generated by pormake.
# Topology scu, (8,4)-cn, num edge types: 1
# Building blocks:
#     Node 0, Type 0, BuildingBlock: TAGTUT_clean_sbu_3, # of connection points: 8
#     Node 1, Type 1, BuildingBlock: KOZSID_clean_sbu_0, # of connection points: 4
#     Node 2, Type 1, BuildingBlock: KOZSID_clean_sbu_0, # of connection points: 4
#     Edge 3, Type (0, 1), BuildingBlock: FUNLAD_clean_linker_0, # of connection points: 2
#     Edge 4, Type (0, 1), BuildingBlock: FUNLAD_clean_linker_0, # of connection points: 2
#     Edge 5, Type (0, 1), BuildingBlock: FUNLAD_clean_linker_0, # of connection points: 2
#     Edge 6, Type (0, 1), BuildingBlock: FUNLAD_clean_linker_0, # of connection points: 2
#     Edge 7, Type (0, 1), BuildingBlock: FUNLAD_clean_linker_0, # of connection points: 2
#     Edge 8, Type (0, 1), BuildingBlock: FUNLAD_clean_linker_0, # of connection points: 2
#     Edge 9, Type (0, 1), BuildingBlock: FUNLAD_clean_linker_0, # of connection points: 2
#     Edge 10, Type (0, 1), BuildingBlock: FUNLAD_clean_linker_0, # of connection points: 2
# Relax obj value: 0.023
# Max RMSD: 0.103
# Mean RMSD: 0.061
data_MOF--net-scu--node1-TAGTUT_clean_sbu_3--node2-KOZSID_clean_sbu_0--edge1-FUNLAD_clean_linker_0
_symmetry_space_group_name_H-M    P1
_symmetry_Int_Tables_number       1
_symmetry_cell_setting            triclinic
loop_
_symmetry_equiv_pos_as_xyz
'x, y, z'
_cell_length_a     34.739201
_cell_length_b     29.684924
_cell_length_c     24.220929
_cell_angle_alpha  85.452338
_cell_angle_beta   87.454392
_cell_angle_gamma 89.95938
loop_
_atom_site_label
_atom_site_type_symbol
_atom_site_fract_x
_atom_site_fract_y
_atom_site_fract_z
_atom_type_partial_charge
C0 C 0.00902 0.90049 0.06458 0.0
C1 C 0.86664 0.97371 0.06703 0.0
C2 C 0.90249 0.02721 0.90507 0.0
Mg3 Mg 0.08734 0.94418 0.00183 0.0
Mg4 Mg 0.09657 0.0547 0.98881 0.0
O5 O 0.06804 0.00439 0.97117 0.0
Mg6 Mg 0.01324 0.00056 0.00023 0.0
O7 O 0.95846 0.99324 0.02866 0.0
Mg8 Mg 0.94175 0.9419 0.98561 0.0
Mg9 Mg 0.92781 0.04535 0.0197 0.0
C10 C 0.02195 0.10267 0.93917 0.0
O11 O 0.02172 0.05026 0.06667 0.0
O12 O 0.14414 0.96224 0.94777 0.0
O13 O 0.96673 0.09059 0.05737 0.0
O14 O 0.1154 0.972 0.07635 0.0
O15 O 0.14713 0.03841 0.94045 0.0
O16 O 0.11282 0.047 0.07442 0.0
O17 O 1.00017 0.95242 0.93547 0.0
O18 O 0.05684 0.91715 0.9288 0.0
C19 C 0.02223 0.92361 0.91357 0.0
C20 C 0.1609 -0.00026 0.92996 0.0
O21 O 1.00231 0.0657 0.94529 0.0
O22 O 0.8846 0.94213 0.04265 0.0
O23 O 0.05604 0.1061 0.95733 0.0
O24 O 0.91123 0.98639 0.91948 0.0
O25 O 0.87889 0.01463 0.06397 0.0
O26 O 0.90975 0.05893 0.93563 0.0
O27 O 0.02881 0.93662 0.05263 0.0
O28 O 0.97473 0.89659 0.04798 0.0
C29 C 0.12171 0.00879 0.09844 0.0
C30 C 1.00072 0.08481 0.07586 0.0
C31 C 0.04749 0.56766 0.44453 0.0
C32 C 0.08618 0.57976 0.44073 0.0
C33 C 0.10429 0.55154 0.47833 0.0
C34 C 0.07577 0.52406 0.50298 0.0
N35 N 0.04046 0.53278 0.48326 0.0
Co36 Co 0.99068 0.50164 0.50853 0.0
N37 N 0.01708 0.46239 0.56655 0.0
C38 C 0.05496 0.46256 0.57749 0.0
C39 C 0.06461 0.43173 0.61966 0.0
C40 C 0.03094 0.41042 0.63671 0.0
C41 C 1.00255 0.42964 0.60378 0.0
N42 N 0.94096 0.47025 0.53354 0.0
C43 C 0.9338 0.43628 0.57347 0.0
C44 C 0.89521 0.42389 0.57722 0.0
C45 C 0.87727 0.45087 0.53806 0.0
C46 C 0.90581 0.47807 0.51279 0.0
N47 N 0.96425 0.54134 0.45091 0.0
C48 C 0.92641 0.54101 0.43973 0.0
C49 C 0.91666 0.57269 0.39851 0.0
C50 C 0.95016 0.59498 0.38273 0.0
C51 C 0.9785 0.57561 0.41555 0.0
N52 N 1.00075 0.45595 0.45415 0.0
C53 C 0.01526 0.39403 0.37358 0.0
C54 C 0.97921 0.41423 0.37964 0.0
C55 C 0.97262 0.44465 0.41986 0.0
C56 C 0.04375 0.40441 0.4094 0.0
C57 C 0.03595 0.43535 0.44904 0.0
N58 N 0.98064 0.54752 0.5624 0.0
C59 C 0.93886 0.60368 0.60024 0.0
C60 C 0.96916 0.62024 0.62872 0.0
C61 C 0.00461 0.59814 0.62611 0.0
C62 C 0.00963 0.56202 0.59316 0.0
C63 C 0.94518 0.56744 0.56764 0.0
H64 H 0.03746 0.54702 0.59229 0.0
H65 H 0.9212 0.55695 0.546 0.0
H66 H 0.94453 0.45859 0.42218 0.0
H67 H 0.05894 0.44221 0.47472 0.0
C68 C 0.08093 0.49149 0.54676 0.0
C69 C 0.01838 0.59136 0.41194 0.0
C70 C 0.96248 0.41474 0.60868 0.0
C71 C 0.90055 0.51118 0.4695 0.0
H72 H 0.09986 0.60673 0.41422 0.0
H73 H 0.1345 0.55171 0.4875 0.0
H74 H 0.09283 0.42525 0.63573 0.0
H75 H 0.02774 0.38344 0.66938 0.0
H76 H 0.8815 0.39797 0.60536 0.0
H77 H 0.84704 0.45063 0.529 0.0
H78 H 0.88847 0.57915 0.3823 0.0
H79 H 0.9533 0.62265 0.35096 0.0
H80 H 0.95592 0.40637 0.35364 0.0
H81 H 0.07213 0.38945 0.40622 0.0
H82 H 0.91081 0.61964 0.60132 0.0
H83 H 0.02865 0.60908 0.64879 0.0
C84 C 0.46595 0.95187 0.59748 0.0
C85 C 0.45577 0.9116 0.62765 0.0
C86 C 0.47442 0.87802 0.60207 0.0
C87 C 0.49502 0.89969 0.55824 0.0
N88 N 0.49117 0.94513 0.55476 0.0
Co89 Co 0.51626 0.98974 0.49791 0.0
N90 N 0.5389 0.94 0.45552 0.0
C91 C 0.53341 0.89507 0.467 0.0
C92 C 0.55157 0.86909 0.42953 0.0
C93 C 0.57004 0.89917 0.39197 0.0
C94 C 0.56233 0.94194 0.40916 0.0
N95 N 0.54273 0.03432 0.44206 0.0
C96 C 0.56745 0.0273 0.39859 0.0
C97 C 0.58158 0.06779 0.37286 0.0
C98 C 0.56521 0.10153 0.40093 0.0
C99 C 0.54235 0.07991 0.44234 0.0
N100 N 0.49207 0.03936 0.53923 0.0
C101 C 0.49561 0.08437 0.52615 0.0
C102 C 0.473 0.10997 0.55931 0.0
C103 C 0.45317 0.07948 0.595 0.0
C104 C 0.46508 0.03691 0.58165 0.0
N105 N 0.56277 0.99031 0.54321 0.0
C106 C 0.63068 0.99298 0.60335 0.0
C107 C 0.61087 0.03244 0.58721 0.0
C108 C 0.57735 0.03032 0.5579 0.0
C109 C 0.61556 0.95191 0.5892 0.0
C110 C 0.58188 0.95134 0.55937 0.0
N111 N 0.46973 0.98979 0.45292 0.0
C112 C 0.42266 0.03204 0.39956 0.0
C113 C 0.39899 0.99406 0.39959 0.0
C114 C 0.41231 0.95316 0.42455 0.0
C115 C 0.44762 0.95174 0.45069 0.0
C116 C 0.45747 0.02917 0.42601 0.0
H117 H 0.45613 0.91981 0.46978 0.0
H118 H 0.47357 0.05968 0.42489 0.0
H119 H 0.56409 0.06181 0.54719 0.0
H120 H 0.57195 0.91904 0.54966 0.0
C121 C 0.51383 0.87817 0.51571 0.0
C122 C 0.44863 0.99509 0.60837 0.0
C123 C 0.57922 0.98307 0.38131 0.0
C124 C 0.51957 0.1014 0.48141 0.0
H125 H 0.43575 0.90688 0.66319 0.0
H126 H 0.47178 0.84199 0.61254 0.0
H127 H 0.55214 0.83259 0.43024 0.0
H128 H 0.58783 0.89053 0.35655 0.0
H129 H 0.60196 0.07254 0.3378 0.0
H130 H 0.56967 0.13754 0.39242 0.0
H131 H 0.47046 0.14641 0.55687 0.0
H132 H 0.43174 0.08764 0.62642 0.0
H133 H 0.62147 0.06526 0.59614 0.0
H134 H 0.62941 0.92019 0.60135 0.0
H135 H 0.41436 0.06419 0.37929 0.0
H136 H 0.39516 0.92264 0.42531 0.0
C137 C 0.00826 0.16603 0.08938 0.0
C138 C 0.01661 0.12097 0.1062 0.0
C139 C 0.02014 0.20081 0.12 0.0
C140 C 0.03955 0.19113 0.16938 0.0
C141 C 0.05014 0.14618 0.1841 0.0
C142 C 0.03896 0.11129 0.1525 0.0
C143 C 0.04722 0.22664 0.20759 0.0
C144 C 0.02577 0.26446 0.20868 0.0
C145 C 0.02861 0.29867 0.24971 0.0
C146 C 0.01166 0.34098 0.23737 0.0
C147 C 0.00874 0.37249 0.27694 0.0
C148 C 0.02253 0.36234 0.33007 0.0
H149 H 0.05659 0.2566 0.3138 0.0
C150 C 0.04107 0.32083 0.34195 0.0
C151 C 0.04399 0.28911 0.30218 0.0
H152 H 0.05169 0.31203 0.38277 0.0
H153 H 0.99225 0.17439 0.05256 0.0
H154 H 0.01346 0.23506 0.10495 0.0
H155 H 0.06576 0.13783 0.22126 0.0
H156 H 0.04626 0.07671 0.16563 0.0
H157 H 0.06923 0.21993 0.23755 0.0
H158 H 1.00334 0.27047 0.17925 0.0
H159 H 0.99964 0.3493 0.1973 0.0
H160 H 0.99492 0.40455 0.26629 0.0
C161 C 0.80506 0.00012 0.10956 0.0
C162 C 0.83012 0.9641 0.09978 0.0
C163 C 0.77205 0.99347 0.14388 0.0
C164 C 0.76289 0.95042 0.16939 0.0
C165 C 0.78753 0.91408 0.1591 0.0
C166 C 0.82071 0.92072 0.12407 0.0
C167 C 0.7297 0.94399 0.21028 0.0
C168 C 0.69832 0.97081 0.2083 0.0
C169 C 0.66754 0.97076 0.25295 0.0
C170 C 0.63149 0.98939 0.24019 0.0
C171 C 0.60274 0.99335 0.28177 0.0
C172 C 0.60977 0.97939 0.33702 0.0
H173 H 0.70207 0.94317 0.32033 0.0
C174 C 0.64567 0.96072 0.35007 0.0
C175 C 0.67436 0.95643 0.30848 0.0
H176 H 0.65155 0.94979 0.39261 0.0
H177 H 0.81129 0.03402 0.09142 0.0
H178 H 0.75467 0.02269 0.15196 0.0
H179 H 0.78137 0.88064 0.17875 0.0
H180 H 0.83957 0.89238 0.11757 0.0
H181 H 0.73161 0.91705 0.24307 0.0
H182 H 0.69495 0.99454 0.17234 0.0
H183 H 0.6256 0.00116 0.19792 0.0
H184 H 0.57509 0.00754 0.27091 0.0
C185 C 0.0494 0.86742 0.14096 0.0
C186 C 0.02548 0.86155 0.09683 0.0
C187 C 0.05971 0.83009 0.17632 0.0
C188 C 0.04677 0.78645 0.16715 0.0
C189 C 0.02536 0.78054 0.12056 0.0
C190 C 0.01439 0.81772 0.08618 0.0
C191 C 0.05269 0.74659 0.20664 0.0
C192 C 0.05102 0.74913 0.26196 0.0
C193 C 0.04624 0.70852 0.30173 0.0
C194 C 0.02627 0.71292 0.35274 0.0
C195 C 0.01769 0.67488 0.38893 0.0
C196 C 0.02928 0.63189 0.37487 0.0
H197 H 0.07571 0.66078 0.25084 0.0
C198 C 0.05052 0.6274 0.32507 0.0
C199 C 0.05918 0.66542 0.28887 0.0
H200 H 0.05999 0.59439 0.31398 0.0
H201 H 0.05848 0.90093 0.14972 0.0
H202 H 0.07708 0.8355 0.21125 0.0
H203 H 0.01538 0.74726 0.11229 0.0
H204 H 0.99637 0.81226 0.05192 0.0
H205 H 0.05215 0.71374 0.1899 0.0
H206 H 0.04775 0.782 0.27842 0.0
H207 H 0.01616 0.74568 0.36385 0.0
H208 H 1.00146 0.67886 0.42747 0.0
C209 C 0.166 0.0438 0.16248 0.0
C210 C 0.14465 0.00636 0.14885 0.0
C211 C 0.19399 0.0387 0.20247 0.0
C212 C 0.20088 0.99601 0.23023 0.0
C213 C 0.17766 0.95943 0.21899 0.0
C214 C 0.14994 0.96448 0.17893 0.0
C215 C 0.23389 0.98688 0.26702 0.0
C216 C 0.25524 0.01913 0.2874 0.0
C217 C 0.29052 0.00952 0.31925 0.0
C218 C 0.30334 0.04223 0.35299 0.0
C219 C 0.33783 0.03645 0.38021 0.0
C220 C 0.36078 0.99795 0.37393 0.0
H221 H 0.30483 0.94486 0.28709 0.0
C222 C 0.34764 0.96462 0.34113 0.0
C223 C 0.31299 0.97037 0.31387 0.0
H224 H 0.36483 0.93485 0.33484 0.0
H225 H 0.16284 0.07646 0.13986 0.0
H226 H 0.2113 0.06787 0.209 0.0
H227 H 0.182 0.92623 0.23972 0.0
H228 H 0.13383 0.93492 0.1698 0.0
H229 H 0.24098 0.95167 0.27724 0.0
H230 H 0.24662 0.05422 0.28136 0.0
H231 H 0.28678 0.07272 0.35791 0.0
H232 H 0.34669 0.06248 0.40592 0.0
C233 C 0.97018 0.88517 0.86623 0.0
C234 C 0.00878 0.8989 0.86783 0.0
C235 C 0.95874 0.85909 0.82409 0.0
C236 C 0.98565 0.84761 0.78245 0.0
C237 C 0.02359 0.86352 0.78263 0.0
C238 C 0.03522 0.88834 0.82535 0.0
C239 C 0.97636 0.81674 0.74011 0.0
C240 C 0.95632 0.7783 0.75289 0.0
C241 C 0.95813 0.73994 0.71712 0.0
C242 C 0.9288 0.70716 0.72239 0.0
C243 C 0.93185 0.66845 0.69305 0.0
C244 C 0.96466 0.6616 0.65867 0.0
H245 H 0.0147 0.75649 0.67825 0.0
C246 C 0.99374 0.6946 0.65301 0.0
C247 C 0.99068 0.73314 0.68203 0.0
H248 H 0.01917 0.69047 0.62635 0.0
H249 H 0.94926 0.89325 0.8984 0.0
H250 H 0.92913 0.84769 0.8243 0.0
H251 H 0.04474 0.85513 0.75083 0.0
H252 H 0.06501 0.89916 0.82523 0.0
H253 H 0.99147 0.82243 0.69996 0.0
H254 H 0.941 0.77291 0.79299 0.0
H255 H 0.90376 0.71121 0.74982 0.0
H256 H 0.90909 0.64336 0.6984 0.0
C257 C 0.21013 0.96092 0.87042 0.0
C258 C 0.19771 -0.00066 0.89654 0.0
C259 C 0.2444 0.96217 0.8374 0.0
C260 C 0.26694 0.00186 0.83031 0.0
C261 C 0.25496 0.03963 0.85766 0.0
C262 C 0.22071 0.03856 0.88995 0.0
C263 C 0.30344 0.00532 0.7958 0.0
C264 C 0.31068 0.98129 0.75164 0.0
C265 C 0.34625 0.98726 0.71516 0.0
C266 C 0.3455 0.97468 0.66052 0.0
C267 C 0.37848 0.97881 0.62528 0.0
C268 C 0.41287 0.99546 0.64412 0.0
H269 H 0.38324 0.01266 0.77614 0.0
C270 C 0.41395 0.00805 0.69855 0.0
C271 C 0.38097 0.00395 0.73389 0.0
H272 H 0.44057 0.01994 0.71408 0.0
H273 H 0.19318 0.93013 0.87492 0.0
H274 H 0.2533 0.93196 0.81813 0.0
H275 H 0.2719 0.07045 0.85342 0.0
H276 H 0.21235 0.06869 0.90992 0.0
H277 H 0.32369 0.03129 0.80485 0.0
H278 H 0.28879 0.95836 0.73954 0.0
H279 H 0.31935 0.96142 0.64508 0.0
H280 H 0.37738 0.96826 0.58356 0.0
C281 C 0.97413 0.13874 0.87486 0.0
C282 C 0.0049 0.14297 0.90991 0.0
C283 C 0.95964 0.17672 0.84481 0.0
C284 C 0.97589 0.2197 0.84901 0.0
C285 C 0.00547 0.22404 0.88588 0.0
C286 C 0.01997 0.18614 0.91577 0.0
C287 C 0.96421 0.26054 0.81433 0.0
C288 C 0.94878 0.25898 0.76441 0.0
C289 C 0.94577 0.29964 0.72494 0.0
C290 C 0.9492 0.29426 0.66782 0.0
C291 C 0.95247 0.33196 0.62954 0.0
C292 C 0.95185 0.37552 0.64787 0.0
H293 H 0.93828 0.34908 0.78625 0.0
C294 C 0.94566 0.38125 0.70441 0.0
C295 C 0.94239 0.34358 0.74276 0.0
H296 H 0.94497 0.41482 0.71901 0.0
H297 H 0.96192 0.10595 0.86941 0.0
H298 H 0.93602 0.17208 0.81817 0.0
H299 H 0.01827 0.25675 0.89041 0.0
H300 H 0.04329 0.19067 0.94308 0.0
H301 H 0.9731 0.2929 0.82757 0.0
H302 H 0.94304 0.22651 0.74874 0.0
H303 H 0.95148 0.26085 0.65293 0.0
H304 H 0.95729 0.32713 0.5859 0.0
C305 C 0.8766 0.0027 0.8176 0.0
C306 C 0.87865 0.03564 0.85603 0.0
C307 C 0.84818 0.00479 0.77844 0.0
C308 C 0.82066 0.03968 0.77721 0.0
C309 C 0.82477 0.07461 0.81257 0.0
C310 C 0.85347 0.07268 0.85159 0.0
C311 C 0.78648 0.03989 0.74184 0.0
C312 C 0.77289 0.00272 0.72021 0.0
C313 C 0.73656 0.00178 0.68985 0.0
C314 C 0.73213 0.9691 0.65169 0.0
C315 C 0.69788 0.96601 0.62384 0.0
C316 C 0.6669 0.9952 0.63407 0.0
H317 H 0.70711 0.05512 0.73129 0.0
C318 C 0.67113 0.02734 0.67318 0.0
C319 C 0.70548 0.03067 0.70064 0.0
H320 H 0.64763 0.04965 0.68332 0.0
H321 H 0.89606 0.97412 0.81923 0.0
H322 H 0.84755 0.97832 0.75034 0.0
H323 H 0.80451 0.10239 0.81197 0.0
H324 H 0.85432 0.09869 0.88046 0.0
H325 H 0.7708 0.07145 0.73604 0.0
H326 H 0.78837 0.97105 0.72521 0.0
H327 H 0.75543 0.94605 0.643 0.0
H328 H 0.69596 0.94117 0.59366 0.0
loop_
_geom_bond_atom_site_label_1
_geom_bond_atom_site_label_2
_geom_bond_distance
_geom_bond_site_symmetry_2
_ccdc_geom_bond_type
C0 O27 1.312 1_655 S
C0 O28 1.208 . S
C1 O22 1.331 . S
C1 O25 1.244 1_565 S
C2 O24 1.264 1_545 S
C2 O26 1.273 . S
Mg3 O5 1.936 1_565 S
Mg3 O12 2.081 . S
Mg3 O14 2.023 1_556 S
Mg3 O18 2.031 . S
Mg3 O27 2.291 1_556 S
Mg4 O5 1.963 . S
Mg4 O15 1.942 . S
Mg4 O16 1.955 1_556 S
Mg4 O23 1.986 . S
O5 Mg3 1.936 1_545 S
O5 Mg4 1.963 . S
O5 Mg6 1.910 1_556 S
Mg6 O5 1.910 1_554 S
Mg6 O7 1.920 1_455 S
Mg6 O11 2.027 . S
Mg6 O17 2.102 1_444 S
Mg6 O21 2.000 1_454 S
Mg6 O27 2.125 1_545 S
O7 Mg6 1.920 1_655 S
O7 Mg8 1.936 1_545 S
O7 Mg9 1.963 . S
Mg8 O7 1.936 1_565 S
Mg8 O17 2.291 1_554 S
Mg8 O22 2.081 . S
Mg8 O24 2.023 1_554 S
Mg8 O28 2.031 . S
Mg9 O7 1.963 . S
Mg9 O13 1.986 . S
Mg9 O25 1.942 . S
Mg9 O26 1.955 1_554 S
C10 O21 1.191 1_455 S
C10 O23 1.307 . S
O11 Mg6 2.027 . S
O11 C30 1.191 1_455 S
O12 Mg3 2.081 . S
O12 C20 1.331 . S
O13 Mg9 1.986 . S
O13 C30 1.307 . S
O14 Mg3 2.023 1_554 S
O14 C29 1.264 1_565 S
O15 Mg4 1.942 . S
O15 C20 1.244 1_545 S
O16 Mg4 1.955 1_554 S
O16 C29 1.273 . S
O17 Mg6 2.102 1_666 S
O17 Mg8 2.291 1_556 S
O17 C19 1.312 1_655 S
O18 Mg3 2.031 . S
O18 C19 1.208 . S
C19 O17 1.312 1_455 S
C19 O18 1.208 . S
C20 O12 1.331 . S
C20 O15 1.244 1_565 S
O21 Mg6 2.000 1_656 S
O21 C10 1.191 1_655 S
O22 C1 1.331 . S
O22 Mg8 2.081 . S
O23 Mg4 1.986 . S
O23 C10 1.307 . S
O24 C2 1.264 1_565 S
O24 Mg8 2.023 1_556 S
O25 C1 1.244 1_545 S
O25 Mg9 1.942 . S
O26 C2 1.273 . S
O26 Mg9 1.955 1_556 S
O27 C0 1.312 1_455 S
O27 Mg3 2.291 1_554 S
O27 Mg6 2.125 1_565 S
O28 C0 1.208 . S
O28 Mg8 2.031 . S
C29 O14 1.264 1_545 S
C29 O16 1.273 . S
C30 O11 1.191 1_655 S
C30 O13 1.307 . S
C31 C32 1.443 . S
C31 N35 1.376 . S
C31 C69 1.389 . S
C32 C31 1.443 . S
C32 C33 1.340 . S
C32 H72 0.951 . S
C33 C32 1.340 . S
C33 C34 1.439 . S
C33 H73 0.950 . S
C34 C33 1.439 . S
C34 N35 1.374 . S
C34 C68 1.395 . S
N35 C31 1.376 . S
N35 C34 1.374 . S
N35 Co36 2.008 . S
Co36 N35 2.008 . S
Co36 N37 1.995 . S
Co36 N42 2.008 1_455 S
Co36 N47 1.995 1_455 S
Co36 N52 2.282 . S
Co36 N58 2.282 . S
N37 Co36 1.995 . S
N37 C38 1.376 . S
N37 C41 1.383 . S
C38 N37 1.376 . S
C38 C39 1.446 . S
C38 C68 1.391 . S
C39 C38 1.446 . S
C39 C40 1.339 . S
C39 H74 0.949 . S
C40 C39 1.339 . S
C40 C41 1.439 . S
C40 H75 0.950 . S
C41 N37 1.383 . S
C41 C40 1.439 . S
C41 C70 1.392 . S
N42 Co36 2.008 1_655 S
N42 C43 1.376 . S
N42 C46 1.374 . S
C43 N42 1.376 . S
C43 C44 1.443 . S
C43 C70 1.389 1_655 S
C44 C43 1.443 . S
C44 C45 1.340 . S
C44 H76 0.951 . S
C45 C44 1.340 . S
C45 C46 1.439 . S
C45 H77 0.950 . S
C46 N42 1.374 . S
C46 C45 1.439 . S
C46 C71 1.395 . S
N47 Co36 1.995 1_655 S
N47 C48 1.376 . S
N47 C51 1.383 . S
C48 N47 1.376 . S
C48 C49 1.446 . S
C48 C71 1.391 . S
C49 C48 1.446 . S
C49 C50 1.339 . S
C49 H78 0.949 . S
C50 C49 1.339 . S
C50 C51 1.439 . S
C50 H79 0.950 . S
C51 N47 1.383 . S
C51 C50 1.439 . S
C51 C69 1.392 1_655 S
N52 Co36 2.282 . S
N52 C55 1.332 1_455 S
N52 C57 1.332 . S
C53 C54 1.386 1_455 S
C53 C56 1.388 . S
C54 C53 1.386 1_655 S
C54 C55 1.382 . S
C54 H80 0.950 . S
C55 N52 1.332 1_655 S
C55 C54 1.382 . S
C55 H66 0.952 . S
C56 C53 1.388 . S
C56 C57 1.382 . S
C56 H81 0.950 . S
C57 N52 1.332 . S
C57 C56 1.382 . S
C57 H67 0.948 . S
N58 Co36 2.282 . S
N58 C62 1.332 . S
N58 C63 1.332 1_455 S
C59 C60 1.388 1_655 S
C59 C63 1.382 . S
C59 H82 0.950 . S
C60 C59 1.388 1_455 S
C60 C61 1.386 . S
C61 C60 1.386 . S
C61 C62 1.382 . S
C61 H83 0.950 . S
C62 N58 1.332 . S
C62 C61 1.382 . S
C62 H64 0.952 . S
C63 N58 1.332 1_655 S
C63 C59 1.382 . S
C63 H65 0.948 . S
H64 C62 0.952 . S
H65 C63 0.948 . S
H66 C55 0.952 . S
H67 C57 0.948 . S
C68 C34 1.395 . S
C68 C38 1.391 . S
C69 C31 1.389 . S
C69 C51 1.392 1_455 S
C70 C41 1.392 . S
C70 C43 1.389 1_455 S
C71 C46 1.395 . S
C71 C48 1.391 . S
H72 C32 0.951 . S
H73 C33 0.950 . S
H74 C39 0.949 . S
H75 C40 0.950 . S
H76 C44 0.951 . S
H77 C45 0.950 . S
H78 C49 0.949 . S
H79 C50 0.950 . S
H80 C54 0.950 . S
H81 C56 0.950 . S
H82 C59 0.950 . S
H83 C61 0.950 . S
C84 C85 1.443 . S
C84 N88 1.376 . S
C84 C122 1.365 1_565 S
C85 C84 1.443 . S
C85 C86 1.340 . S
C85 H125 0.951 . S
C86 C85 1.340 . S
C86 C87 1.439 . S
C86 H126 0.950 . S
C87 C86 1.439 . S
C87 N88 1.374 . S
C87 C121 1.395 . S
N88 C84 1.376 . S
N88 C87 1.374 . S
N88 Co89 2.008 1_565 S
Co89 N88 2.008 1_545 S
Co89 N90 1.995 1_545 S
Co89 N95 2.008 . S
Co89 N100 1.995 . S
Co89 N105 2.282 1_545 S
Co89 N111 2.282 . S
N90 Co89 1.995 1_565 S
N90 C91 1.376 . S
N90 C94 1.383 . S
C91 N90 1.376 . S
C91 C92 1.446 . S
C91 C121 1.391 . S
C92 C91 1.446 . S
C92 C93 1.339 . S
C92 H127 0.949 . S
C93 C92 1.339 . S
C93 C94 1.439 . S
C93 H128 0.950 . S
C94 N90 1.383 . S
C94 C93 1.439 . S
C94 C123 1.392 1_565 S
N95 Co89 2.008 . S
N95 C96 1.376 . S
N95 C99 1.374 . S
C96 N95 1.376 . S
C96 C97 1.443 . S
C96 C123 1.389 . S
C97 C96 1.443 . S
C97 C98 1.340 . S
C97 H129 0.951 . S
C98 C97 1.340 . S
C98 C99 1.439 . S
C98 H130 0.950 . S
C99 N95 1.374 . S
C99 C98 1.439 . S
C99 C124 1.395 . S
N100 Co89 1.995 . S
N100 C101 1.376 . S
N100 C104 1.383 . S
C101 N100 1.376 . S
C101 C102 1.446 . S
C101 C124 1.391 . S
C102 C101 1.446 . S
C102 C103 1.339 . S
C102 H131 0.949 . S
C103 C102 1.339 . S
C103 C104 1.439 . S
C103 H132 0.950 . S
C104 N100 1.383 . S
C104 C103 1.439 . S
C104 C122 1.415 . S
N105 Co89 2.282 1_565 S
N105 C108 1.332 1_565 S
N105 C110 1.332 . S
C106 C107 1.386 . S
C106 C109 1.388 1_545 S
C107 C106 1.386 . S
C107 C108 1.382 . S
C107 H133 0.950 . S
C108 N105 1.332 1_545 S
C108 C107 1.382 . S
C108 H119 0.952 . S
C109 C106 1.388 1_565 S
C109 C110 1.382 . S
C109 H134 0.950 . S
C110 N105 1.332 . S
C110 C109 1.382 . S
C110 H120 0.948 . S
N111 Co89 2.282 . S
N111 C115 1.332 1_545 S
N111 C116 1.332 . S
C112 C113 1.388 . S
C112 C116 1.382 . S
C112 H135 0.950 . S
C113 C112 1.388 . S
C113 C114 1.386 1_545 S
C114 C113 1.386 1_565 S
C114 C115 1.382 . S
C114 H136 0.950 . S
C115 N111 1.332 1_565 S
C115 C114 1.382 . S
C115 H117 0.952 . S
C116 N111 1.332 . S
C116 C112 1.382 . S
C116 H118 0.948 . S
H117 C115 0.952 . S
H118 C116 0.948 . S
H119 C108 0.952 . S
H120 C110 0.948 . S
C121 C87 1.395 . S
C121 C91 1.391 . S
C122 C84 1.365 1_545 S
C122 C104 1.415 . S
C123 C94 1.392 1_545 S
C123 C96 1.389 . S
C124 C99 1.395 . S
C124 C101 1.391 . S
H125 C85 0.951 . S
H126 C86 0.950 . S
H127 C92 0.949 . S
H128 C93 0.950 . S
H129 C97 0.951 . S
H130 C98 0.950 . S
H131 C102 0.949 . S
H132 C103 0.950 . S
H133 C107 0.950 . S
H134 C109 0.950 . S
H135 C112 0.950 . S
H136 C114 0.950 . S
C137 C138 1.386 1_655 S
C137 C139 1.383 . S
C137 H153 0.951 . S
C138 C137 1.386 1_455 S
C138 C142 1.383 . S
C139 C137 1.383 . S
C139 C140 1.402 1_655 S
C139 H154 0.951 . S
C140 C139 1.402 1_455 S
C140 C141 1.375 . S
C140 C143 1.481 . S
C141 C140 1.375 . S
C141 C142 1.367 . S
C141 H155 0.951 . S
C142 C138 1.383 . S
C142 C141 1.367 . S
C142 H156 0.950 . S
C143 C140 1.481 . S
C143 C144 1.297 1_455 S
C143 H157 0.950 . S
C144 C143 1.297 1_655 S
C144 C145 1.479 . S
C144 H158 0.950 . S
C145 C144 1.479 . S
C145 C146 1.375 . S
C145 C151 1.404 1_655 S
C146 C145 1.375 . S
C146 C147 1.369 . S
C146 H159 0.950 . S
C147 C146 1.369 . S
C147 C148 1.392 1_655 S
C147 H160 0.951 . S
C148 C147 1.392 1_455 S
C148 C150 1.384 . S
H149 C151 0.949 . S
C150 C148 1.384 . S
C150 C151 1.385 . S
C150 H152 0.950 . S
C151 C145 1.404 1_455 S
C151 H149 0.949 . S
C151 C150 1.385 . S
H152 C150 0.950 . S
H153 C137 0.951 . S
H154 C139 0.951 . S
H155 C141 0.951 . S
H156 C142 0.950 . S
H157 C143 0.950 . S
H158 C144 0.950 . S
H159 C146 0.950 . S
H160 C147 0.951 . S
C161 C162 1.386 1_545 S
C161 C163 1.383 . S
C161 H177 0.951 . S
C162 C161 1.386 1_565 S
C162 C166 1.383 . S
C163 C161 1.383 . S
C163 C164 1.402 1_545 S
C163 H178 0.951 . S
C164 C163 1.402 1_565 S
C164 C165 1.375 . S
C164 C167 1.481 . S
C165 C164 1.375 . S
C165 C166 1.367 . S
C165 H179 0.951 . S
C166 C162 1.383 . S
C166 C165 1.367 . S
C166 H180 0.950 . S
C167 C164 1.481 . S
C167 C168 1.297 . S
C167 H181 0.950 . S
C168 C167 1.297 . S
C168 C169 1.479 . S
C168 H182 0.950 1_565 S
C169 C168 1.479 . S
C169 C170 1.375 1_565 S
C169 C175 1.404 . S
C170 C169 1.375 1_545 S
C170 C171 1.369 . S
C170 H183 0.950 . S
C171 C170 1.369 . S
C171 C172 1.392 1_545 S
C171 H184 0.951 . S
C172 C171 1.392 1_565 S
C172 C174 1.384 . S
H173 C175 0.949 . S
C174 C172 1.384 . S
C174 C175 1.385 . S
C174 H176 0.950 . S
C175 C169 1.404 . S
C175 H173 0.949 . S
C175 C174 1.385 . S
H176 C174 0.950 . S
H177 C161 0.951 . S
H178 C163 0.951 . S
H179 C165 0.951 . S
H180 C166 0.950 . S
H181 C167 0.950 . S
H182 C168 0.950 1_545 S
H183 C170 0.950 . S
H184 C171 0.951 . S
C185 C186 1.386 1_655 S
C185 C187 1.383 . S
C185 H201 0.951 . S
C186 C185 1.386 1_455 S
C186 C190 1.383 . S
C187 C185 1.383 . S
C187 C188 1.402 1_655 S
C187 H202 0.951 . S
C188 C187 1.402 1_455 S
C188 C189 1.375 . S
C188 C191 1.481 . S
C189 C188 1.375 . S
C189 C190 1.367 . S
C189 H203 0.951 . S
C190 C186 1.383 . S
C190 C189 1.367 . S
C190 H204 0.950 . S
C191 C188 1.481 . S
C191 C192 1.297 1_455 S
C191 H205 0.950 . S
C192 C191 1.297 1_655 S
C192 C193 1.479 . S
C192 H206 0.950 . S
C193 C192 1.479 . S
C193 C194 1.375 . S
C193 C199 1.404 1_655 S
C194 C193 1.375 . S
C194 C195 1.369 . S
C194 H207 0.950 . S
C195 C194 1.369 . S
C195 C196 1.392 1_655 S
C195 H208 0.951 . S
C196 C195 1.392 1_455 S
C196 C198 1.384 . S
H197 C199 0.949 . S
C198 C196 1.384 . S
C198 C199 1.385 . S
C198 H200 0.950 . S
C199 C193 1.404 1_455 S
C199 H197 0.949 . S
C199 C198 1.385 . S
H200 C198 0.950 . S
H201 C185 0.951 . S
H202 C187 0.951 . S
H203 C189 0.951 . S
H204 C190 0.950 . S
H205 C191 0.950 . S
H206 C192 0.950 . S
H207 C194 0.950 . S
H208 C195 0.951 . S
C209 C210 1.386 . S
C209 C211 1.383 . S
C209 H225 0.951 . S
C210 C209 1.386 . S
C210 C214 1.383 1_545 S
C211 C209 1.383 . S
C211 C212 1.402 1_545 S
C211 H226 0.951 . S
C212 C211 1.402 1_565 S
C212 C213 1.375 . S
C212 C215 1.481 . S
C213 C212 1.375 . S
C213 C214 1.367 . S
C213 H227 0.951 . S
C214 C210 1.383 1_565 S
C214 C213 1.367 . S
C214 H228 0.950 . S
C215 C212 1.481 . S
C215 C216 1.297 . S
C215 H229 0.950 . S
C216 C215 1.297 . S
C216 C217 1.479 . S
C216 H230 0.950 . S
C217 C216 1.479 . S
C217 C218 1.375 1_565 S
C217 C223 1.404 . S
C218 C217 1.375 1_545 S
C218 C219 1.369 . S
C218 H231 0.950 . S
C219 C218 1.369 . S
C219 C220 1.392 1_545 S
C219 H232 0.951 . S
C220 C219 1.392 1_565 S
C220 C222 1.384 . S
H221 C223 0.949 . S
C222 C220 1.384 . S
C222 C223 1.385 . S
C222 H224 0.950 . S
C223 C217 1.404 . S
C223 H221 0.949 . S
C223 C222 1.385 . S
H224 C222 0.950 . S
H225 C209 0.951 . S
H226 C211 0.951 . S
H227 C213 0.951 . S
H228 C214 0.950 . S
H229 C215 0.950 . S
H230 C216 0.950 . S
H231 C218 0.950 . S
H232 C219 0.951 . S
C233 C234 1.386 1_655 S
C233 C235 1.383 . S
C233 H249 0.951 . S
C234 C233 1.386 1_455 S
C234 C238 1.383 . S
C235 C233 1.383 . S
C235 C236 1.402 1_655 S
C235 H250 0.951 . S
C236 C235 1.402 1_455 S
C236 C237 1.375 . S
C236 C239 1.481 . S
C237 C236 1.375 . S
C237 C238 1.367 . S
C237 H251 0.951 . S
C238 C234 1.383 . S
C238 C237 1.367 . S
C238 H252 0.950 . S
C239 C236 1.481 . S
C239 C240 1.297 1_455 S
C239 H253 0.950 . S
C240 C239 1.297 1_655 S
C240 C241 1.479 . S
C240 H254 0.950 . S
C241 C240 1.479 . S
C241 C242 1.375 . S
C241 C247 1.404 1_655 S
C242 C241 1.375 . S
C242 C243 1.369 . S
C242 H255 0.950 . S
C243 C242 1.369 . S
C243 C244 1.383 1_655 S
C243 H256 0.951 . S
C244 C243 1.383 1_455 S
C244 C246 1.391 . S
H245 C247 0.949 . S
C246 C244 1.391 . S
C246 C247 1.385 . S
C246 H248 0.950 . S
C247 C241 1.404 1_455 S
C247 H245 0.949 . S
C247 C246 1.385 . S
H248 C246 0.950 . S
H249 C233 0.951 . S
H250 C235 0.951 . S
H251 C237 0.951 . S
H252 C238 0.950 . S
H253 C239 0.950 . S
H254 C240 0.950 . S
H255 C242 0.950 . S
H256 C243 0.951 . S
C257 C258 1.389 . S
C257 C259 1.383 . S
C257 H273 0.951 . S
C258 C257 1.389 . S
C258 C262 1.379 1_565 S
C259 C257 1.383 . S
C259 C260 1.402 1_565 S
C259 H274 0.951 . S
C260 C259 1.402 1_545 S
C260 C261 1.375 . S
C260 C263 1.481 . S
C261 C260 1.375 . S
C261 C262 1.367 . S
C261 H275 0.951 . S
C262 C258 1.379 1_545 S
C262 C261 1.367 . S
C262 H276 0.950 . S
C263 C260 1.481 . S
C263 C264 1.297 . S
C263 H277 0.950 . S
C264 C263 1.297 . S
C264 C265 1.479 . S
C264 H278 0.951 1_545 S
C265 C264 1.479 . S
C265 C266 1.375 1_545 S
C265 C271 1.404 . S
C266 C265 1.375 1_565 S
C266 C267 1.369 . S
C266 H279 0.950 . S
C267 C266 1.369 . S
C267 C268 1.392 1_565 S
C267 H280 0.951 . S
C268 C267 1.392 1_545 S
C268 C270 1.384 . S
H269 C271 0.949 . S
C270 C268 1.384 . S
C270 C271 1.385 . S
C270 H272 0.950 . S
C271 C265 1.404 . S
C271 H269 0.949 . S
C271 C270 1.385 . S
H272 C270 0.950 . S
H273 C257 0.951 . S
H274 C259 0.951 . S
H275 C261 0.951 . S
H276 C262 0.950 . S
H277 C263 0.950 . S
H278 C264 0.951 1_565 S
H279 C266 0.950 . S
H280 C267 0.951 . S
C281 C282 1.386 1_655 S
C281 C283 1.383 . S
C281 H297 0.951 . S
C282 C281 1.386 1_455 S
C282 C286 1.383 . S
C283 C281 1.383 . S
C283 C284 1.402 1_655 S
C283 H298 0.951 . S
C284 C283 1.402 1_455 S
C284 C285 1.375 . S
C284 C287 1.481 . S
C285 C284 1.375 . S
C285 C286 1.367 . S
C285 H299 0.951 . S
C286 C282 1.383 . S
C286 C285 1.367 . S
C286 H300 0.950 . S
C287 C284 1.481 . S
C287 C288 1.297 1_455 S
C287 H301 0.950 . S
C288 C287 1.297 1_655 S
C288 C289 1.479 . S
C288 H302 0.950 . S
C289 C288 1.479 . S
C289 C290 1.375 . S
C289 C295 1.404 1_655 S
C290 C289 1.375 . S
C290 C291 1.369 . S
C290 H303 0.950 . S
C291 C290 1.369 . S
C291 C292 1.400 . S
C291 H304 0.951 . S
C292 C291 1.400 . S
C292 C294 1.380 1_655 S
H293 C295 0.949 . S
C294 C292 1.380 1_455 S
C294 C295 1.385 . S
C294 H296 0.950 . S
C295 C289 1.404 1_455 S
C295 H293 0.949 . S
C295 C294 1.385 . S
H296 C294 0.950 . S
H297 C281 0.951 . S
H298 C283 0.951 . S
H299 C285 0.951 . S
H300 C286 0.950 . S
H301 C287 0.950 . S
H302 C288 0.950 . S
H303 C290 0.950 . S
H304 C291 0.951 . S
C305 C306 1.386 . S
C305 C307 1.383 . S
C305 H321 0.951 . S
C306 C305 1.386 . S
C306 C310 1.383 . S
C307 C305 1.383 . S
C307 C308 1.400 1_545 S
C307 H322 0.951 . S
C308 C307 1.400 1_565 S
C308 C309 1.373 1_565 S
C308 C311 1.484 . S
C309 C308 1.373 1_545 S
C309 C310 1.367 . S
C309 H323 0.951 1_545 S
C310 C306 1.383 . S
C310 C309 1.367 . S
C310 H324 0.950 . S
C311 C308 1.484 . S
C311 C312 1.297 . S
C311 H325 0.950 . S
C312 C311 1.297 . S
C312 C313 1.479 . S
C312 H326 0.950 . S
C313 C312 1.479 . S
C313 C314 1.375 . S
C313 C319 1.404 . S
C314 C313 1.375 . S
C314 C315 1.370 . S
C314 H327 0.950 . S
C315 C314 1.370 . S
C315 C316 1.393 . S
C315 H328 0.949 1_565 S
C316 C315 1.393 . S
C316 C318 1.384 . S
H317 C319 0.949 . S
C318 C316 1.384 . S
C318 C319 1.385 . S
C318 H320 0.950 . S
C319 C313 1.404 . S
C319 H317 0.949 . S
C319 C318 1.385 . S
H320 C318 0.950 . S
H321 C305 0.951 . S
H322 C307 0.951 . S
H323 C309 0.951 1_565 S
H324 C310 0.950 . S
H325 C311 0.950 . S
H326 C312 0.950 . S
H327 C314 0.950 . S
H328 C315 0.949 1_545 S
C138 C30 1.292 1_455 S
C148 C53 1.296 . S
C162 C1 1.654 . S
C172 C123 1.670 1_565 S
C186 C0 1.345 1_455 S
C196 C69 1.411 . S
C210 C29 1.532 . S
C220 C113 1.573 1_565 S
C234 C19 1.280 . S
C244 C60 1.305 . S
C258 C20 1.624 . S
C268 C122 1.672 . S
C292 C70 1.403 1_655 S
C282 C10 1.364 . S
C306 C2 1.533 . S
C316 C106 1.580 1_565 S
