# Generated by pormake.
# Topology gar, (4,6)-cn, num edge types: 1
# Building blocks:
#     Node 0, Type 0, BuildingBlock: UXUYUI_clean_sbu_0, # of connection points: 4
#     Node 1, Type 0, BuildingBlock: UXUYUI_clean_sbu_0, # of connection points: 4
#     Node 2, Type 0, BuildingBlock: UXUYUI_clean_sbu_0, # of connection points: 4
#     Node 3, Type 0, BuildingBlock: UXUYUI_clean_sbu_0, # of connection points: 4
#     Node 4, Type 0, BuildingBlock: UXUYUI_clean_sbu_0, # of connection points: 4
#     Node 5, Type 0, BuildingBlock: UXUYUI_clean_sbu_0, # of connection points: 4
#     Node 6, Type 0, BuildingBlock: UXUYUI_clean_sbu_0, # of connection points: 4
#     Node 7, Type 0, BuildingBlock: UXUYUI_clean_sbu_0, # of connection points: 4
#     Node 8, Type 0, BuildingBlock: UXUYUI_clean_sbu_0, # of connection points: 4
#     Node 9, Type 0, BuildingBlock: UXUYUI_clean_sbu_0, # of connection points: 4
#     Node 10, Type 0, BuildingBlock: UXUYUI_clean_sbu_0, # of connection points: 4
#     Node 11, Type 0, BuildingBlock: UXUYUI_clean_sbu_0, # of connection points: 4
#     Node 12, Type 0, BuildingBlock: UXUYUI_clean_sbu_0, # of connection points: 4
#     Node 13, Type 0, BuildingBlock: UXUYUI_clean_sbu_0, # of connection points: 4
#     Node 14, Type 0, BuildingBlock: UXUYUI_clean_sbu_0, # of connection points: 4
#     Node 15, Type 0, BuildingBlock: UXUYUI_clean_sbu_0, # of connection points: 4
#     Node 16, Type 0, BuildingBlock: UXUYUI_clean_sbu_0, # of connection points: 4
#     Node 17, Type 0, BuildingBlock: UXUYUI_clean_sbu_0, # of connection points: 4
#     Node 18, Type 0, BuildingBlock: UXUYUI_clean_sbu_0, # of connection points: 4
#     Node 19, Type 0, BuildingBlock: UXUYUI_clean_sbu_0, # of connection points: 4
#     Node 20, Type 0, BuildingBlock: UXUYUI_clean_sbu_0, # of connection points: 4
#     Node 21, Type 0, BuildingBlock: UXUYUI_clean_sbu_0, # of connection points: 4
#     Node 22, Type 0, BuildingBlock: UXUYUI_clean_sbu_0, # of connection points: 4
#     Node 23, Type 0, BuildingBlock: UXUYUI_clean_sbu_0, # of connection points: 4
#     Node 24, Type 1, BuildingBlock: KUMBUR_clean_sbu_0, # of connection points: 6
#     Node 25, Type 1, BuildingBlock: KUMBUR_clean_sbu_0, # of connection points: 6
#     Node 26, Type 1, BuildingBlock: KUMBUR_clean_sbu_0, # of connection points: 6
#     Node 27, Type 1, BuildingBlock: KUMBUR_clean_sbu_0, # of connection points: 6
#     Node 28, Type 1, BuildingBlock: KUMBUR_clean_sbu_0, # of connection points: 6
#     Node 29, Type 1, BuildingBlock: KUMBUR_clean_sbu_0, # of connection points: 6
#     Node 30, Type 1, BuildingBlock: KUMBUR_clean_sbu_0, # of connection points: 6
#     Node 31, Type 1, BuildingBlock: KUMBUR_clean_sbu_0, # of connection points: 6
#     Node 32, Type 1, BuildingBlock: KUMBUR_clean_sbu_0, # of connection points: 6
#     Node 33, Type 1, BuildingBlock: KUMBUR_clean_sbu_0, # of connection points: 6
#     Node 34, Type 1, BuildingBlock: KUMBUR_clean_sbu_0, # of connection points: 6
#     Node 35, Type 1, BuildingBlock: KUMBUR_clean_sbu_0, # of connection points: 6
#     Node 36, Type 1, BuildingBlock: KUMBUR_clean_sbu_0, # of connection points: 6
#     Node 37, Type 1, BuildingBlock: KUMBUR_clean_sbu_0, # of connection points: 6
#     Node 38, Type 1, BuildingBlock: KUMBUR_clean_sbu_0, # of connection points: 6
#     Node 39, Type 1, BuildingBlock: KUMBUR_clean_sbu_0, # of connection points: 6
#     Edge 40, Type (0, 1), None
#     Edge 41, Type (0, 1), None
#     Edge 42, Type (0, 1), None
#     Edge 43, Type (0, 1), None
#     Edge 44, Type (0, 1), None
#     Edge 45, Type (0, 1), None
#     Edge 46, Type (0, 1), None
#     Edge 47, Type (0, 1), None
#     Edge 48, Type (0, 1), None
#     Edge 49, Type (0, 1), None
#     Edge 50, Type (0, 1), None
#     Edge 51, Type (0, 1), None
#     Edge 52, Type (0, 1), None
#     Edge 53, Type (0, 1), None
#     Edge 54, Type (0, 1), None
#     Edge 55, Type (0, 1), None
#     Edge 56, Type (0, 1), None
#     Edge 57, Type (0, 1), None
#     Edge 58, Type (0, 1), None
#     Edge 59, Type (0, 1), None
#     Edge 60, Type (0, 1), None
#     Edge 61, Type (0, 1), None
#     Edge 62, Type (0, 1), None
#     Edge 63, Type (0, 1), None
#     Edge 64, Type (0, 1), None
#     Edge 65, Type (0, 1), None
#     Edge 66, Type (0, 1), None
#     Edge 67, Type (0, 1), None
#     Edge 68, Type (0, 1), None
#     Edge 69, Type (0, 1), None
#     Edge 70, Type (0, 1), None
#     Edge 71, Type (0, 1), None
#     Edge 72, Type (0, 1), None
#     Edge 73, Type (0, 1), None
#     Edge 74, Type (0, 1), None
#     Edge 75, Type (0, 1), None
#     Edge 76, Type (0, 1), None
#     Edge 77, Type (0, 1), None
#     Edge 78, Type (0, 1), None
#     Edge 79, Type (0, 1), None
#     Edge 80, Type (0, 1), None
#     Edge 81, Type (0, 1), None
#     Edge 82, Type (0, 1), None
#     Edge 83, Type (0, 1), None
#     Edge 84, Type (0, 1), None
#     Edge 85, Type (0, 1), None
#     Edge 86, Type (0, 1), None
#     Edge 87, Type (0, 1), None
#     Edge 88, Type (0, 1), None
#     Edge 89, Type (0, 1), None
#     Edge 90, Type (0, 1), None
#     Edge 91, Type (0, 1), None
#     Edge 92, Type (0, 1), None
#     Edge 93, Type (0, 1), None
#     Edge 94, Type (0, 1), None
#     Edge 95, Type (0, 1), None
#     Edge 96, Type (0, 1), None
#     Edge 97, Type (0, 1), None
#     Edge 98, Type (0, 1), None
#     Edge 99, Type (0, 1), None
#     Edge 100, Type (0, 1), None
#     Edge 101, Type (0, 1), None
#     Edge 102, Type (0, 1), None
#     Edge 103, Type (0, 1), None
#     Edge 104, Type (0, 1), None
#     Edge 105, Type (0, 1), None
#     Edge 106, Type (0, 1), None
#     Edge 107, Type (0, 1), None
#     Edge 108, Type (0, 1), None
#     Edge 109, Type (0, 1), None
#     Edge 110, Type (0, 1), None
#     Edge 111, Type (0, 1), None
#     Edge 112, Type (0, 1), None
#     Edge 113, Type (0, 1), None
#     Edge 114, Type (0, 1), None
#     Edge 115, Type (0, 1), None
#     Edge 116, Type (0, 1), None
#     Edge 117, Type (0, 1), None
#     Edge 118, Type (0, 1), None
#     Edge 119, Type (0, 1), None
#     Edge 120, Type (0, 1), None
#     Edge 121, Type (0, 1), None
#     Edge 122, Type (0, 1), None
#     Edge 123, Type (0, 1), None
#     Edge 124, Type (0, 1), None
#     Edge 125, Type (0, 1), None
#     Edge 126, Type (0, 1), None
#     Edge 127, Type (0, 1), None
#     Edge 128, Type (0, 1), None
#     Edge 129, Type (0, 1), None
#     Edge 130, Type (0, 1), None
#     Edge 131, Type (0, 1), None
#     Edge 132, Type (0, 1), None
#     Edge 133, Type (0, 1), None
#     Edge 134, Type (0, 1), None
#     Edge 135, Type (0, 1), None
# Relax obj value: 0.181
# Max RMSD: 0.354
# Mean RMSD: 0.202
data_MOF--net-gar--node1-UXUYUI_clean_sbu_0--node2-KUMBUR_clean_sbu_0--edge1-none
_symmetry_space_group_name_H-M    P1
_symmetry_Int_Tables_number       1
_symmetry_cell_setting            triclinic
loop_
_symmetry_equiv_pos_as_xyz
'x, y, z'
_cell_length_a     44.471303
_cell_length_b     39.850907
_cell_length_c     39.928671
_cell_angle_alpha  102.33213
_cell_angle_beta   94.188417
_cell_angle_gamma 103.35031
loop_
_atom_site_label
_atom_site_type_symbol
_atom_site_fract_x
_atom_site_fract_y
_atom_site_fract_z
_atom_type_partial_charge
Li0 Li 0.12445 0.33698 0.34957 0.0
Li1 Li 0.15349 0.38233 0.3975 0.0
Li2 Li 0.1791 0.34338 0.35915 0.0
Li3 Li 0.14463 0.31878 0.40148 0.0
C4 C 0.1791 0.40952 0.34649 0.0
N5 N 0.22025 0.47426 0.35037 0.0
C6 C 0.20764 0.41954 0.36764 0.0
C7 C 0.1717 0.43231 0.3268 0.0
C8 C 0.22804 0.45235 0.3694 0.0
C9 C 0.19283 0.46495 0.32917 0.0
C10 C 0.09241 0.36123 0.41121 0.0
C11 C 0.06119 0.37112 0.4575 0.0
N12 N 0.04798 0.39175 0.44105 0.0
C13 C 0.07832 0.38227 0.39461 0.0
C14 C 0.08383 0.35561 0.44293 0.0
C15 C 0.05605 0.39765 0.41021 0.0
C16 C 0.05981 0.3129 0.32325 0.0
N17 N 0.08841 0.33056 0.31796 0.0
C18 C 0.06576 0.35512 0.27605 0.0
C19 C 0.09183 0.35069 0.29438 0.0
C20 C 0.03569 0.33841 0.28175 0.0
C21 C 0.03295 0.31619 0.30505 0.0
H22 H 0.05786 0.29793 0.34297 0.0
H23 H 0.11484 0.36501 0.29127 0.0
C24 C 0.15422 0.43091 0.45957 0.0
N25 N 0.15075 0.42677 0.42479 0.0
C26 C 0.14331 0.45704 0.4806 0.0
C27 C 0.1269 0.47548 0.42991 0.0
C28 C 0.13823 0.44895 0.40976 0.0
C29 C 0.12826 0.47879 0.4657 0.0
H30 H 0.16355 0.41239 0.47073 0.0
H31 H 0.13466 0.44426 0.38193 0.0
C32 C 0.13025 0.27398 0.32158 0.0
N33 N 0.09737 0.22681 0.26204 0.0
C34 C 0.11484 0.23947 0.32249 0.0
C35 C 0.12951 0.28427 0.29024 0.0
C36 C 0.09856 0.21592 0.29204 0.0
C37 C 0.11219 0.26027 0.26058 0.0
C38 C 0.21156 0.35242 0.42629 0.0
C39 C 0.214 0.3182 0.42693 0.0
C40 C 0.23688 0.38145 0.44049 0.0
C41 C 0.24208 0.31356 0.44088 0.0
C42 C 0.2645 0.37574 0.45435 0.0
N43 N 0.26654 0.34218 0.45417 0.0
C44 C 0.23368 0.31759 0.34395 0.0
C45 C 0.22174 0.35379 0.30779 0.0
C46 C 0.25982 0.31356 0.32747 0.0
N47 N 0.21556 0.33824 0.33471 0.0
C48 C 0.24754 0.35013 0.29032 0.0
C49 C 0.26695 0.32966 0.29999 0.0
H50 H 0.2278 0.30378 0.3639 0.0
H51 H 0.20667 0.36908 0.29968 0.0
C52 C 0.11448 0.25942 0.42833 0.0
N53 N 0.13592 0.29129 0.43564 0.0
C54 C 0.10664 0.24189 0.45462 0.0
C55 C 0.14266 0.2905 0.49557 0.0
C56 C 0.14982 0.30702 0.46855 0.0
C57 C 0.12068 0.25747 0.48893 0.0
H58 H 0.10278 0.24804 0.40231 0.0
H59 H 0.16613 0.33284 0.47398 0.0
O60 O 0.15707 0.37972 0.34808 0.0
O61 O 0.11442 0.34607 0.39649 0.0
O62 O 0.14644 0.29744 0.35103 0.0
O63 O 0.1844 0.35768 0.41245 0.0
H64 H 0.21387 0.40242 0.38291 0.0
H65 H 0.14946 0.42544 0.31077 0.0
H66 H 0.24983 0.46055 0.38634 0.0
H67 H 0.18727 0.48318 0.31465 0.0
H68 H 0.05408 0.36673 0.48186 0.0
H69 H 0.08483 0.38714 0.37016 0.0
H70 H 0.09445 0.33934 0.45611 0.0
H71 H 0.04519 0.41427 0.3978 0.0
H72 H 0.06933 0.37309 0.25903 0.0
H73 H 1.01035 0.30237 0.31 0.0
H74 H 0.14575 0.45927 0.50818 0.0
H75 H 0.1156 0.49173 0.4174 0.0
H76 H 0.11576 0.23078 0.3463 0.0
H77 H 0.14192 0.31066 0.28896 0.0
H78 H 0.08664 0.18907 0.29233 0.0
H79 H 0.11092 0.2681 0.23629 0.0
H80 H 0.1947 0.29536 0.41596 0.0
H81 H 0.23521 0.40812 0.44069 0.0
H82 H 0.24453 0.28721 0.44084 0.0
H83 H 0.28433 0.39799 0.4652 0.0
H84 H 0.27422 0.29786 0.33621 0.0
H85 H 0.25234 0.3633 0.26949 0.0
H86 H 0.08907 0.21686 0.44823 0.0
H87 H 0.15437 0.3035 0.52141 0.0
Li88 Li 0.03302 0.78225 0.65995 0.0
Li89 Li 0.0503 0.75769 0.70874 0.0
Li90 Li 0.01897 0.71627 0.65804 0.0
Li91 Li 0.99468 0.75533 0.69924 0.0
C92 C 0.08429 0.73698 0.65108 0.0
N93 N 0.13378 0.70999 0.63064 0.0
C94 C 0.09223 0.71051 0.66524 0.0
C95 C 0.10158 0.74975 0.62654 0.0
C96 C 0.11721 0.69708 0.65447 0.0
C97 C 0.12662 0.73589 0.61668 0.0
C98 C 0.04725 0.82126 0.74084 0.0
C99 C 0.06316 0.83342 0.80217 0.0
N100 N 0.07991 0.8664 0.80148 0.0
C101 C 0.06478 0.85517 0.74066 0.0
C102 C 0.04619 0.81033 0.77184 0.0
C103 C 0.08093 0.87771 0.77166 0.0
C104 C 0.03006 0.82159 0.60624 0.0
N105 N 0.04713 0.8173 0.63404 0.0
C106 C 0.09201 0.85878 0.62434 0.0
C107 C 0.07734 0.83589 0.64366 0.0
C108 C 0.07565 0.86241 0.59432 0.0
C109 C 0.04394 0.84412 0.58591 0.0
H110 H 1.00601 0.80668 0.59912 0.0
H111 H 0.0904 0.83188 0.66576 0.0
C112 C 0.08446 0.73281 0.75483 0.0
N113 N 0.08615 0.76024 0.73931 0.0
C114 C 0.11107 0.7283 0.7719 0.0
C115 C 0.14115 0.78054 0.75692 0.0
C116 C 0.11368 0.78414 0.74017 0.0
C117 C 0.14002 0.75194 0.77265 0.0
H118 H 0.06292 0.71284 0.75178 0.0
H119 H 0.11449 0.80479 0.72631 0.0
C120 C 0.96762 0.72744 0.62081 0.0
N121 N 0.92007 0.69007 0.56836 0.0
C122 C 0.93969 0.70794 0.62852 0.0
C123 C 0.97133 0.72796 0.58644 0.0
C124 C 0.91585 0.6894 0.60163 0.0
C125 C 0.94711 0.70872 0.56028 0.0
C126 C 0.99662 0.69182 0.72033 0.0
C127 C 0.97494 0.66299 0.6984 0.0
C128 C 1.0009 0.69353 0.75575 0.0
C129 C 0.95883 0.63569 0.71217 0.0
C130 C 0.98378 0.66618 0.76856 0.0
N131 N 0.96356 0.63782 0.74664 0.0
C132 C 0.02883 0.64641 0.64296 0.0
C133 C 0.02241 0.67071 0.59454 0.0
C134 C 0.04102 0.62016 0.62348 0.0
N135 N 0.02073 0.6717 0.62853 0.0
C136 C 0.03397 0.64474 0.57413 0.0
C137 C 0.045 0.62009 0.58892 0.0
H138 H 0.02864 0.64847 0.67036 0.0
H139 H 0.01716 0.69169 0.58385 0.0
C140 C 0.93673 0.77514 0.7064 0.0
N141 N 0.95786 0.76143 0.72178 0.0
C142 C 0.91032 0.78036 0.72194 0.0
C143 C 0.92744 0.75697 0.76878 0.0
C144 C 0.95394 0.75318 0.75286 0.0
C145 C 0.90542 0.77118 0.75359 0.0
H146 H 0.94037 0.78207 0.68198 0.0
H147 H 0.97144 0.74395 0.76566 0.0
O148 O 0.05973 0.75034 0.66109 0.0
O149 O 0.03066 0.79913 0.71095 0.0
O150 O 0.99073 0.7471 0.64683 0.0
O151 O 0.01492 0.71717 0.70707 0.0
H152 H 0.07907 0.70019 0.68414 0.0
H153 H 0.09571 0.77012 0.61516 0.0
H154 H 0.12342 0.67642 0.66507 0.0
H155 H 0.14029 0.74563 0.59782 0.0
H156 H 0.06273 0.82525 0.82632 0.0
H157 H 0.06559 0.86415 0.71693 0.0
H158 H 0.0325 0.78423 0.7724 0.0
H159 H 0.09434 0.90416 0.77199 0.0
H160 H 0.11625 0.87283 0.63244 0.0
H161 H 0.03036 0.84591 0.56302 0.0
H162 H 0.10918 0.70527 0.78268 0.0
H163 H 0.16304 0.79931 0.75684 0.0
H164 H 0.93636 0.70727 0.65498 0.0
H165 H 0.99281 0.74285 0.57999 0.0
H166 H 0.89404 0.67438 0.60713 0.0
H167 H 0.94975 0.70875 0.53356 0.0
H168 H 0.97124 0.66127 0.67095 0.0
H169 H 0.01699 0.71602 0.77335 0.0
H170 H 0.94273 0.61267 0.69554 0.0
H171 H 0.98661 0.66755 0.79594 0.0
H172 H 0.049 0.60162 0.63596 0.0
H173 H 0.03552 0.6451 0.54733 0.0
H174 H 0.89374 0.79099 0.70905 0.0
H175 H 0.92446 0.74948 0.79309 0.0
Li176 Li 0.62441 0.83697 0.84958 0.0
Li177 Li 0.65345 0.8823 0.89755 0.0
Li178 Li 0.67907 0.84338 0.85917 0.0
Li179 Li 0.64459 0.81874 0.90147 0.0
C180 C 0.67902 0.90954 0.84655 0.0
N181 N 0.72006 0.97438 0.85051 0.0
C182 C 0.70755 0.91961 0.86771 0.0
C183 C 0.67158 0.93234 0.82687 0.0
C184 C 0.7279 0.95247 0.86952 0.0
C185 C 0.69265 0.96502 0.82928 0.0
C186 C 0.59234 0.86117 0.91117 0.0
C187 C 0.56099 0.87098 0.95735 0.0
N188 N 0.54784 0.89165 0.9409 0.0
C189 C 0.57831 0.88227 0.89457 0.0
C190 C 0.58366 0.85548 0.94284 0.0
C191 C 0.55601 0.89762 0.91012 0.0
C192 C 0.55977 0.81292 0.82323 0.0
N193 N 0.58838 0.83058 0.81797 0.0
C194 C 0.56576 0.85526 0.77614 0.0
C195 C 0.59181 0.85076 0.79443 0.0
C196 C 0.53569 0.83857 0.78183 0.0
C197 C 0.53292 0.81629 0.80507 0.0
H198 H 0.5578 0.79792 0.84292 0.0
H199 H 0.61483 0.86506 0.79133 0.0
C200 C 0.65413 0.93082 0.95965 0.0
N201 N 0.65071 0.92673 0.92488 0.0
C202 C 0.64324 0.95695 0.9807 0.0
C203 C 0.62692 0.9755 0.93004 0.0
C204 C 0.63823 0.94896 0.90987 0.0
C205 C 0.62825 0.97876 0.96582 0.0
H206 H 0.66342 0.91226 0.9708 0.0
H207 H 0.63468 0.94431 0.88204 0.0
C208 C 0.63021 0.77398 0.82157 0.0
N209 N 0.5973 0.72681 0.76204 0.0
C210 C 0.61479 0.73947 0.82248 0.0
C211 C 0.62946 0.78426 0.79023 0.0
C212 C 0.59849 0.71592 0.79205 0.0
C213 C 0.61213 0.76027 0.76057 0.0
C214 C 0.71153 0.85235 0.92626 0.0
C215 C 0.71394 0.81812 0.92687 0.0
C216 C 0.73688 0.88135 0.94042 0.0
C217 C 0.74203 0.81344 0.94076 0.0
C218 C 0.76451 0.8756 0.95423 0.0
N219 N 0.76652 0.84203 0.95402 0.0
C220 C 0.73361 0.81753 0.8439 0.0
C221 C 0.72175 0.85386 0.80784 0.0
C222 C 0.75974 0.81349 0.82741 0.0
N223 N 0.71553 0.83825 0.83471 0.0
C224 C 0.74754 0.85018 0.79036 0.0
C225 C 0.7669 0.82964 0.79998 0.0
H226 H 0.7277 0.80368 0.86381 0.0
H227 H 0.70672 0.86921 0.79977 0.0
C228 C 0.61444 0.75937 0.92831 0.0
N229 N 0.63588 0.79125 0.93562 0.0
C230 C 0.6066 0.74184 0.9546 0.0
C231 C 0.64262 0.79046 0.99556 0.0
C232 C 0.64978 0.80697 0.96853 0.0
C233 C 0.62064 0.75743 0.98892 0.0
H234 H 0.60274 0.748 0.90229 0.0
H235 H 0.66609 0.8328 0.97396 0.0
O236 O 0.65703 0.87973 0.84814 0.0
O237 O 0.61438 0.84604 0.8965 0.0
O238 O 0.64641 0.79744 0.85102 0.0
O239 O 0.68437 0.85764 0.91246 0.0
H240 H 0.71381 0.9025 0.88297 0.0
H241 H 0.64934 0.92543 0.81083 0.0
H242 H 0.74967 0.96072 0.88649 0.0
H243 H 0.68706 0.98325 0.81478 0.0
H244 H 0.5538 0.86653 0.98167 0.0
H245 H 0.58489 0.88719 0.87017 0.0
H246 H 0.59423 0.83917 0.95602 0.0
H247 H 0.54519 0.91427 0.89771 0.0
H248 H 0.56935 0.87329 0.75917 0.0
H249 H 0.51032 0.80247 0.81001 0.0
H250 H 0.64564 0.95914 0.00828 0.0
H251 H 0.61566 0.99178 0.91754 0.0
H252 H 0.61571 0.73077 0.8463 0.0
H253 H 0.64187 0.81065 0.78895 0.0
H254 H 0.58657 0.68907 0.79234 0.0
H255 H 0.61085 0.76809 0.73629 0.0
H256 H 0.69463 0.7953 0.91591 0.0
H257 H 0.73523 0.90803 0.94065 0.0
H258 H 0.74446 0.78707 0.94069 0.0
H259 H 0.78435 0.89783 0.96506 0.0
H260 H 0.77411 0.79775 0.83611 0.0
H261 H 0.75236 0.8634 0.76956 0.0
H262 H 0.58903 0.71682 0.94822 0.0
H263 H 0.65432 0.80346 0.02139 0.0
Li264 Li 0.53304 0.28226 0.15997 0.0
Li265 Li 0.55032 0.25771 0.20875 0.0
Li266 Li 0.51896 0.21627 0.15808 0.0
Li267 Li 0.49471 0.25538 0.19928 0.0
C268 C 0.58432 0.23698 0.15115 0.0
N269 N 0.63387 0.21003 0.13085 0.0
C270 C 0.5922 0.21047 0.16528 0.0
C271 C 0.6017 0.24982 0.1267 0.0
C272 C 0.61721 0.19707 0.15459 0.0
C273 C 0.62676 0.23597 0.11691 0.0
C274 C 0.54728 0.32128 0.24087 0.0
C275 C 0.56315 0.33338 0.30221 0.0
N276 N 0.57992 0.36637 0.30155 0.0
C277 C 0.56483 0.35518 0.24073 0.0
C278 C 0.54619 0.31031 0.27186 0.0
C279 C 0.58096 0.3777 0.27174 0.0
C280 C 0.53011 0.32152 0.1062 0.0
N281 N 0.54716 0.31729 0.13404 0.0
C282 C 0.59202 0.35882 0.12439 0.0
C283 C 0.57735 0.33593 0.1437 0.0
C284 C 0.57569 0.3624 0.09434 0.0
C285 C 0.54399 0.34406 0.08587 0.0
H286 H 0.50607 0.30656 0.09904 0.0
H287 H 0.59039 0.33196 0.16584 0.0
C288 C 0.58447 0.23279 0.2548 0.0
N289 N 0.58616 0.26024 0.23932 0.0
C290 C 0.61107 0.22827 0.27187 0.0
C291 C 0.64115 0.28055 0.25697 0.0
C292 C 0.61369 0.28416 0.24021 0.0
C293 C 0.64002 0.25192 0.27265 0.0
H294 H 0.56293 0.21281 0.25172 0.0
H295 H 0.6145 0.30483 0.22638 0.0
C296 C 0.46756 0.22745 0.12093 0.0
N297 N 0.41985 0.19009 0.06865 0.0
C298 C 0.43964 0.20803 0.12877 0.0
C299 C 0.47118 0.22788 0.08652 0.0
C300 C 0.41573 0.18951 0.10196 0.0
C301 C 0.44687 0.20865 0.06045 0.0
C302 C 0.49661 0.19186 0.22035 0.0
C303 C 0.47489 0.16307 0.1984 0.0
C304 C 0.5009 0.19351 0.25576 0.0
C305 C 0.45874 0.13577 0.21215 0.0
C306 C 0.48376 0.16615 0.26854 0.0
N307 N 0.46349 0.13785 0.2466 0.0
C308 C 0.52876 0.14639 0.143 0.0
C309 C 0.52238 0.1707 0.09459 0.0
C310 C 0.54094 0.12012 0.12353 0.0
N311 N 0.52069 0.17169 0.12858 0.0
C312 C 0.53393 0.14472 0.07418 0.0
C313 C 0.54493 0.12006 0.08897 0.0
H314 H 0.52856 0.14844 0.17041 0.0
H315 H 0.51714 0.19168 0.0839 0.0
C316 C 0.4368 0.27524 0.20647 0.0
N317 N 0.45792 0.2615 0.22184 0.0
C318 C 0.41039 0.28046 0.22201 0.0
C319 C 0.4275 0.25703 0.26882 0.0
C320 C 0.45399 0.25323 0.25291 0.0
C321 C 0.40548 0.27125 0.25364 0.0
H322 H 0.44044 0.28218 0.18206 0.0
H323 H 0.47148 0.24398 0.26569 0.0
O324 O 0.55973 0.25032 0.16109 0.0
O325 O 0.53071 0.29916 0.21097 0.0
O326 O 0.49075 0.24712 0.14687 0.0
O327 O 0.51493 0.21721 0.20712 0.0
H328 H 0.57899 0.20011 0.18413 0.0
H329 H 0.59587 0.27022 0.11534 0.0
H330 H 0.62339 0.17637 0.16517 0.0
H331 H 0.64049 0.24576 0.09811 0.0
H332 H 0.56271 0.32519 0.32635 0.0
H333 H 0.56565 0.36418 0.21701 0.0
H334 H 0.5325 0.28421 0.27239 0.0
H335 H 0.59439 0.40416 0.27209 0.0
H336 H 0.61624 0.37291 0.13252 0.0
H337 H 0.53043 0.3458 0.06295 0.0
H338 H 0.60918 0.20522 0.28262 0.0
H339 H 0.66305 0.29933 0.25691 0.0
H340 H 0.43639 0.20743 0.15525 0.0
H341 H 0.49264 0.2427 0.07998 0.0
H342 H 0.39392 0.17456 0.10756 0.0
H343 H 0.44944 0.20861 0.0337 0.0
H344 H 0.47118 0.1614 0.17097 0.0
H345 H 0.51702 0.21596 0.27337 0.0
H346 H 0.44261 0.11279 0.19551 0.0
H347 H 0.4866 0.16748 0.29591 0.0
H348 H 0.5489 0.10157 0.13601 0.0
H349 H 0.5355 0.14508 0.04738 0.0
H350 H 0.39381 0.2911 0.20913 0.0
H351 H 0.42451 0.24952 0.29313 0.0
Li352 Li 0.13336 0.85954 0.0962 0.0
Li353 Li 0.16944 0.8317 0.1413 0.0
Li354 Li 0.12875 0.7823 0.09112 0.0
Li355 Li 0.11061 0.82346 0.1388 0.0
C356 C 0.19436 0.82446 0.07734 0.0
N357 N 0.25309 0.82206 0.06049 0.0
C358 C 0.21888 0.85514 0.08665 0.0
C359 C 0.19962 0.79261 0.05931 0.0
C360 C 0.24848 0.85329 0.07811 0.0
C361 C 0.22946 0.79199 0.05089 0.0
C362 C 0.13249 0.89051 0.17439 0.0
C363 C 0.13607 0.92506 0.23272 0.0
N364 N 0.10726 0.92993 0.22532 0.0
C365 C 0.10299 0.89608 0.16731 0.0
C366 C 0.14926 0.90529 0.20729 0.0
C367 C 0.09062 0.91601 0.19341 0.0
C368 C 0.11883 0.90882 0.04253 0.0
N369 N 0.12546 0.90652 0.07627 0.0
C370 C 0.11893 0.96743 0.09366 0.0
C371 C 0.126 0.93635 0.10126 0.0
C372 C 0.11147 0.97077 0.0595 0.0
C373 C 0.11255 0.94037 0.03372 0.0
H374 H 0.11823 0.88616 0.02175 0.0
H375 H 0.13206 0.93663 0.12797 0.0
C376 C 0.23106 0.81253 0.1557 0.0
N377 N 0.21176 0.83232 0.17019 0.0
C378 C 0.25768 0.8088 0.17532 0.0
C379 C 0.24506 0.84544 0.2252 0.0
C380 C 0.21883 0.84873 0.20465 0.0
C381 C 0.26511 0.82484 0.21104 0.0
H382 H 0.22544 0.79836 0.12889 0.0
H383 H 0.20352 0.86357 0.21693 0.0
C384 C 0.06669 0.80375 0.07473 0.0
N385 N 1.00467 0.78394 0.04742 0.0
C386 C 0.05058 0.76791 0.0657 0.0
C387 C 0.05135 0.82956 0.06978 0.0
C388 C 0.01919 0.75842 0.05192 0.0
C389 C 0.01989 0.81897 0.05608 0.0
C390 C 0.12432 0.77023 0.16457 0.0
C391 C 0.09552 0.74525 0.155 0.0
C392 C 0.14042 0.77576 0.19747 0.0
C393 C 0.08323 0.72625 0.17863 0.0
C394 C 0.12737 0.75616 0.22034 0.0
N395 N 0.09928 0.73205 0.21053 0.0
C396 C 0.13187 0.70827 0.09098 0.0
C397 C 0.10383 0.70717 0.03848 0.0
C398 C 0.1237 0.67055 0.0837 0.0
N399 N 0.1211 0.72658 0.0693 0.0
C400 C 0.09593 0.66913 0.02974 0.0
C401 C 0.1056 0.64971 0.05252 0.0
H402 H 0.14568 0.72288 0.11533 0.0
H403 H 0.0946 0.72088 0.02113 0.0
C404 C 0.04576 0.808 0.15701 0.0
N405 N 0.07674 0.81959 0.16943 0.0
C406 C 0.02295 0.80327 0.17937 0.0
C407 C 0.06383 0.82362 0.22739 0.0
C408 C 0.08582 0.82759 0.20414 0.0
C409 C 0.03174 0.81054 0.21523 0.0
H410 H 0.03834 0.80152 0.12971 0.0
H411 H 0.11035 0.83665 0.21391 0.0
O412 O 0.16557 0.82515 0.08687 0.0
O413 O 0.14472 0.87058 0.14919 0.0
O414 O 0.09757 0.81337 0.08744 0.0
O415 O 0.13657 0.78927 0.14183 0.0
H416 H 0.2152 0.87991 0.10086 0.0
H417 H 0.18088 0.76859 0.05212 0.0
H418 H 0.26784 0.87663 0.08563 0.0
H419 H 0.23389 0.76754 0.03697 0.0
H420 H 0.14876 0.93656 0.25833 0.0
H421 H 0.08967 0.88478 0.14198 0.0
H422 H 0.17223 0.9017 0.21312 0.0
H423 H 0.06775 0.9203 0.18831 0.0
H424 H 0.11955 0.98939 0.11525 0.0
H425 H 0.10828 0.94058 1.00676 0.0
H426 H 0.27173 0.79232 0.16263 0.0
H427 H 0.24931 0.85876 0.25236 0.0
H428 H 0.06214 0.74768 0.06948 0.0
H429 H 0.06359 0.8574 0.07649 0.0
H430 H 1.00637 0.7308 0.04484 0.0
H431 H 1.00755 0.83856 0.05228 0.0
H432 H 0.08271 0.74079 0.12967 0.0
H433 H 0.16269 0.79502 0.20531 0.0
H434 H 0.06092 0.70693 0.17163 0.0
H435 H 0.13955 0.76014 0.24589 0.0
H436 H 0.13068 0.65769 0.10319 0.0
H437 H 0.08056 0.65501 1.00616 0.0
H438 H 0.99872 0.79282 0.16841 0.0
H439 H 0.07211 0.8305 0.25475 0.0
Li440 Li 0.54118 0.8129 0.45745 0.0
Li441 Li 0.49961 0.76529 0.40924 0.0
Li442 Li 0.53823 0.73732 0.45308 0.0
Li443 Li 0.55873 0.77195 0.40707 0.0
C444 C 0.49049 0.78155 0.49078 0.0
N445 N 0.46182 0.80471 0.54724 0.0
C446 C 0.47425 0.80763 0.49055 0.0
C447 C 0.4924 0.76744 0.51982 0.0
C448 C 0.4598 0.81889 0.51929 0.0
C449 C 0.47772 0.77949 0.54811 0.0
C450 C 0.52047 0.82408 0.38551 0.0
C451 C 0.51409 0.83976 0.33082 0.0
N452 N 0.49337 0.85822 0.34291 0.0
C453 C 0.49941 0.84362 0.39756 0.0
C454 C 0.52793 0.82219 0.35189 0.0
C455 C 0.48581 0.86049 0.37556 0.0
C456 C 0.56151 0.88762 0.45542 0.0
N457 N 0.55213 0.86919 0.47963 0.0
C458 C 0.56045 0.927 0.52108 0.0
C459 C 0.55135 0.88872 0.51235 0.0
C460 C 0.56877 0.94629 0.49563 0.0
C461 C 0.56902 0.92509 0.46251 0.0
H462 H 0.56412 0.87334 0.43011 0.0
H463 H 0.54456 0.87495 0.53227 0.0
C464 C 0.45676 0.75648 0.34331 0.0
N465 N 0.45786 0.76426 0.37858 0.0
C466 C 0.43184 0.76059 0.32134 0.0
C467 C 0.40854 0.78095 0.37128 0.0
C468 C 0.43374 0.77603 0.39243 0.0
C469 C 0.40717 0.77378 0.33482 0.0
H470 H 0.47592 0.74817 0.33182 0.0
H471 H 0.43433 0.78294 0.42019 0.0
C472 C 0.60443 0.78979 0.47017 0.0
N473 N 0.66724 0.80452 0.49302 0.0
C474 C 0.61944 0.76228 0.46697 0.0
C475 C 0.62121 0.82468 0.48536 0.0
C476 C 0.6513 0.77034 0.4785 0.0
C477 C 0.65296 0.83159 0.49672 0.0
C478 C 0.53099 0.70304 0.37266 0.0
C479 C 0.55963 0.69418 0.37426 0.0
C480 C 0.50935 0.68827 0.34296 0.0
C481 C 0.56624 0.67089 0.34594 0.0
C482 C 0.51684 0.66511 0.31517 0.0
N483 N 0.5449 0.657 0.31722 0.0
C484 C 0.5452 0.65997 0.44774 0.0
C485 C 0.55658 0.68911 0.50608 0.0
C486 C 0.55259 0.62895 0.4552 0.0
N487 N 0.5475 0.6905 0.47257 0.0
C488 C 0.56339 0.65775 0.51482 0.0
C489 C 0.56232 0.62643 0.48911 0.0
H490 H 0.53743 0.65908 0.42128 0.0
H491 H 0.55874 0.71238 0.52674 0.0
C492 C 0.62149 0.79376 0.38812 0.0
N493 N 0.59144 0.77544 0.37564 0.0
C494 C 0.64452 0.79771 0.36598 0.0
C495 C 0.60558 0.76441 0.31804 0.0
C496 C 0.58334 0.76104 0.34109 0.0
C497 C 0.63672 0.7833 0.33025 0.0
H498 H 0.62772 0.80642 0.41516 0.0
H499 H 0.55937 0.74741 0.33113 0.0
O500 O 0.50459 0.7699 0.46282 0.0
O501 O 0.53346 0.80667 0.40649 0.0
O502 O 0.57341 0.78269 0.45872 0.0
O503 O 0.52423 0.72611 0.39998 0.0
H504 H 0.47285 0.8191 0.46847 0.0
H505 H 0.50502 0.74731 0.52042 0.0
H506 H 0.44694 0.83885 0.51933 0.0
H507 H 0.47892 0.76876 0.57073 0.0
H508 H 0.51993 0.83882 0.30488 0.0
H509 H 0.49346 0.84549 0.42356 0.0
H510 H 0.54426 0.80741 0.34216 0.0
H511 H 0.46928 0.87543 0.38445 0.0
H512 H 0.5616 0.94121 0.54766 0.0
H513 H 0.57669 0.93762 0.44198 0.0
H514 H 0.43231 0.75386 0.29374 0.0
H515 H 0.39054 0.79113 0.38367 0.0
H516 H 0.6067 0.73509 0.45554 0.0
H517 H 0.60984 0.84621 0.48813 0.0
H518 H 0.66334 0.74942 0.47594 0.0
H519 H 0.66624 0.85849 0.50839 0.0
H520 H 0.57668 0.70546 0.39703 0.0
H521 H 0.48692 0.69444 0.34148 0.0
H522 H 0.58838 0.66398 0.34677 0.0
H523 H 0.50033 0.65353 0.292 0.0
H524 H 0.55035 0.60637 0.4337 0.0
H525 H 0.56965 0.65835 0.54167 0.0
H526 H 0.66794 0.81316 0.37666 0.0
H527 H 0.59827 0.75261 0.29075 0.0
Li528 Li 0.63334 0.35952 0.59621 0.0
Li529 Li 0.66942 0.33167 0.64132 0.0
Li530 Li 0.62873 0.28227 0.59113 0.0
Li531 Li 0.61059 0.32344 0.6388 0.0
C532 C 0.69434 0.32446 0.57733 0.0
N533 N 0.75306 0.32213 0.56041 0.0
C534 C 0.71883 0.35517 0.58658 0.0
C535 C 0.69962 0.29262 0.55933 0.0
C536 C 0.74843 0.35335 0.57801 0.0
C537 C 0.72946 0.29203 0.55087 0.0
C538 C 0.63247 0.39048 0.6744 0.0
C539 C 0.63606 0.42504 0.73273 0.0
N540 N 0.60725 0.42991 0.72534 0.0
C541 C 0.60297 0.39606 0.66733 0.0
C542 C 0.64924 0.40527 0.7073 0.0
C543 C 0.5906 0.41599 0.69343 0.0
C544 C 0.61886 0.40881 0.54253 0.0
N545 N 0.62545 0.4065 0.57628 0.0
C546 C 0.6189 0.4674 0.59366 0.0
C547 C 0.62597 0.43632 0.60127 0.0
C548 C 0.61147 0.47075 0.5595 0.0
C549 C 0.61258 0.44036 0.53372 0.0
H550 H 0.61828 0.38616 0.52176 0.0
H551 H 0.63201 0.4366 0.62797 0.0
C552 C 0.73105 0.31254 0.65573 0.0
N553 N 0.71172 0.33229 0.67022 0.0
C554 C 0.75766 0.3088 0.67536 0.0
C555 C 0.74498 0.34536 0.72526 0.0
C556 C 0.71876 0.34866 0.7047 0.0
C557 C 0.76505 0.32479 0.71109 0.0
H558 H 0.72546 0.29841 0.62891 0.0
H559 H 0.70343 0.36347 0.71697 0.0
C560 C 0.56668 0.30373 0.57473 0.0
N561 N 0.50465 0.28392 0.54741 0.0
C562 C 0.55056 0.26789 0.56569 0.0
C563 C 0.55134 0.32954 0.56978 0.0
C564 C 0.51918 0.2584 0.5519 0.0
C565 C 0.51987 0.31895 0.55608 0.0
C566 C 0.62428 0.2702 0.66457 0.0
C567 C 0.59548 0.24522 0.655 0.0
C568 C 0.64037 0.27573 0.69748 0.0
C569 C 0.58318 0.22623 0.67862 0.0
C570 C 0.62731 0.25613 0.72034 0.0
N571 N 0.59922 0.23202 0.71053 0.0
C572 C 0.63185 0.20825 0.591 0.0
C573 C 0.60381 0.20714 0.53849 0.0
C574 C 0.62368 0.17052 0.58372 0.0
N575 N 0.62108 0.22655 0.56932 0.0
C576 C 0.59592 0.1691 0.52975 0.0
C577 C 0.60559 0.14968 0.55254 0.0
H578 H 0.64566 0.22285 0.61535 0.0
H579 H 0.59459 0.22084 0.52114 0.0
C580 C 0.54573 0.30797 0.65701 0.0
N581 N 0.57671 0.31957 0.66943 0.0
C582 C 0.52292 0.30323 0.67936 0.0
C583 C 0.5638 0.32359 0.72739 0.0
C584 C 0.58579 0.32756 0.70414 0.0
C585 C 0.53171 0.3105 0.71522 0.0
H586 H 0.53831 0.30149 0.62971 0.0
H587 H 0.61032 0.33663 0.71391 0.0
O588 O 0.66555 0.32512 0.58689 0.0
O589 O 0.64469 0.37056 0.6492 0.0
O590 O 0.59756 0.31334 0.58744 0.0
O591 O 0.63654 0.28924 0.64184 0.0
H592 H 0.71513 0.37994 0.60077 0.0
H593 H 0.6809 0.26857 0.55219 0.0
H594 H 0.76777 0.37672 0.58548 0.0
H595 H 0.7339 0.26758 0.53697 0.0
H596 H 0.64875 0.43654 0.75834 0.0
H597 H 0.58964 0.38475 0.642 0.0
H598 H 0.67222 0.40168 0.71312 0.0
H599 H 0.56773 0.42028 0.68834 0.0
H600 H 0.6195 0.48936 0.61525 0.0
H601 H 0.60834 0.44058 0.50676 0.0
H602 H 0.77173 0.29235 0.66267 0.0
H603 H 0.7492 0.35864 0.75242 0.0
H604 H 0.56212 0.24766 0.56946 0.0
H605 H 0.56357 0.35738 0.57649 0.0
H606 H 0.50635 0.23078 0.54482 0.0
H607 H 0.50754 0.33855 0.55227 0.0
H608 H 0.58268 0.24076 0.62966 0.0
H609 H 0.66264 0.29499 0.70533 0.0
H610 H 0.56087 0.20691 0.67161 0.0
H611 H 0.63948 0.26011 0.7459 0.0
H612 H 0.63066 0.15766 0.60321 0.0
H613 H 0.58055 0.15497 0.50617 0.0
H614 H 0.49869 0.29278 0.6684 0.0
H615 H 0.57209 0.33046 0.75475 0.0
Li616 Li 0.04118 0.31293 0.95746 0.0
Li617 Li 0.99961 0.26531 0.90927 0.0
Li618 Li 0.03823 0.23735 0.9531 0.0
Li619 Li 0.05873 0.27197 0.90708 0.0
C620 C 0.99048 0.28158 0.99079 0.0
N621 N 0.96175 0.30473 0.0472 0.0
C622 C 0.97427 0.30769 0.99055 0.0
C623 C 0.99233 0.26743 0.01981 0.0
C624 C 0.95979 0.31894 0.01927 0.0
C625 C 0.97762 0.27948 0.04808 0.0
C626 C 0.02046 0.32407 0.8855 0.0
C627 C 0.01402 0.33966 0.83076 0.0
N628 N 0.99333 0.35816 0.84286 0.0
C629 C 0.99942 0.34366 0.89756 0.0
C630 C 0.02787 0.32212 0.85186 0.0
C631 C 0.98581 0.3605 0.87553 0.0
C632 C 0.06151 0.38764 0.95541 0.0
N633 N 0.05214 0.36922 0.97964 0.0
C634 C 0.06047 0.42704 0.02107 0.0
C635 C 0.05137 0.38876 0.01235 0.0
C636 C 0.06878 0.44632 0.99561 0.0
C637 C 0.06901 0.42512 0.96249 0.0
H638 H 0.06411 0.37336 0.9301 0.0
H639 H 0.04459 0.375 0.03228 0.0
C640 C 0.95672 0.25645 0.84335 0.0
N641 N 0.95785 0.26428 0.87862 0.0
C642 C 0.9318 0.26055 0.82138 0.0
C643 C 0.90855 0.28101 0.87134 0.0
C644 C 0.93376 0.2761 0.89248 0.0
C645 C 0.90715 0.27378 0.83488 0.0
H646 H 0.97586 0.2481 0.83185 0.0
H647 H 0.93436 0.28304 0.92024 0.0
C648 C 0.10443 0.28981 0.97017 0.0
N649 N 0.16725 0.30454 0.99302 0.0
C650 C 0.11945 0.26231 0.96698 0.0
C651 C 0.12121 0.32471 0.98536 0.0
C652 C 0.1513 0.27036 0.97849 0.0
C653 C 0.15297 0.33161 0.99671 0.0
C654 C 0.03098 0.20304 0.87269 0.0
C655 C 0.05963 0.19419 0.8743 0.0
C656 C 1.00933 0.18825 0.84301 0.0
C657 C 0.06624 0.17089 0.846 0.0
C658 C 0.01683 0.16508 0.81522 0.0
N659 N 0.04489 0.15698 0.81727 0.0
C660 C 0.04518 0.16 0.94777 0.0
C661 C 0.05659 0.18915 1.00611 0.0
C662 C 0.05257 0.12897 0.95523 0.0
N663 N 0.0475 0.19053 0.9726 0.0
C664 C 0.0634 0.15778 0.01484 0.0
C665 C 0.06231 0.12646 0.98914 0.0
H666 H 0.0374 0.1591 0.92132 0.0
H667 H 0.05877 0.21243 0.02677 0.0
C668 C 0.12147 0.29379 0.88813 0.0
N669 N 0.09143 0.27545 0.87565 0.0
C670 C 0.1445 0.29773 0.86599 0.0
C671 C 0.10557 0.26439 0.81805 0.0
C672 C 0.08333 0.26102 0.8411 0.0
C673 C 0.13671 0.2833 0.83026 0.0
H674 H 0.1277 0.30646 0.91516 0.0
H675 H 0.05936 0.24738 0.83115 0.0
O676 O 1.0046 0.26994 0.96285 0.0
O677 O 0.03345 0.30669 0.9065 0.0
O678 O 0.07341 0.28272 0.95873 0.0
O679 O 0.02423 0.22612 0.9 0.0
H680 H 0.97292 0.31919 0.96848 0.0
H681 H 1.00491 0.24728 0.02042 0.0
H682 H 0.94696 0.33892 0.01931 0.0
H683 H 0.97878 0.26872 0.07069 0.0
H684 H 0.01983 0.33866 0.80481 0.0
H685 H 0.9935 0.34558 0.92356 0.0
H686 H 0.04418 0.3073 0.84212 0.0
H687 H 0.9693 0.37547 0.88443 0.0
H688 H 0.06163 0.44125 0.04765 0.0
H689 H 0.07668 0.43764 0.94196 0.0
H690 H 0.93223 0.25377 0.79379 0.0
H691 H 0.89057 0.29122 0.88374 0.0
H692 H 0.1067 0.23512 0.95555 0.0
H693 H 0.10984 0.34623 0.98813 0.0
H694 H 0.16334 0.24945 0.97594 0.0
H695 H 0.16624 0.35852 0.00838 0.0
H696 H 0.07668 0.20548 0.89707 0.0
H697 H 0.98691 0.19442 0.84152 0.0
H698 H 0.08837 0.16398 0.84682 0.0
H699 H 1.00031 0.15349 0.79205 0.0
H700 H 0.05031 0.10638 0.93373 0.0
H701 H 0.06967 0.1584 0.04169 0.0
H702 H 0.16792 0.31319 0.87666 0.0
H703 H 0.09827 0.25257 0.79076 0.0
Li704 Li 0.46534 0.04808 0.35066 0.0
Li705 Li 0.41918 1.00398 0.32574 0.0
Li706 Li 0.45785 0.02229 0.29064 0.0
Li707 Li 0.42535 0.062 0.31308 0.0
C708 C 0.4904 0.99113 0.32953 0.0
N709 N 0.54842 0.97723 0.33548 0.0
C710 C 0.4936 0.9595 0.33747 0.0
C711 C 0.51677 1.01553 0.32437 0.0
C712 C 0.52313 0.95302 0.34045 0.0
C713 C 0.54587 1.00806 0.32755 0.0
C714 C 0.39771 0.03899 0.37669 0.0
C715 C 0.34259 0.01665 0.37769 0.0
N716 N 0.34848 1.01424 0.41089 0.0
C717 C 0.40316 0.03669 0.41097 0.0
C718 C 0.36715 0.02929 0.36003 0.0
C719 C 0.37799 0.02396 0.42775 0.0
C720 C 0.52503 0.08095 0.39606 0.0
N721 N 0.49572 0.05905 0.38981 0.0
C722 C 0.50764 0.03026 0.43358 0.0
C723 C 0.48686 0.03423 0.40807 0.0
C724 C 0.53799 0.05243 0.44094 0.0
C725 C 0.54667 0.07829 0.42204 0.0
H726 H 0.53229 0.09916 0.38003 0.0
H727 H 0.46409 1.01586 0.40114 0.0
C728 C 0.40723 0.94324 0.34769 0.0
N729 N 0.39235 0.96189 0.33051 0.0
C730 C 0.39776 0.90641 0.33932 0.0
C731 C 0.3542 0.90925 0.30086 0.0
C732 C 0.36543 0.94618 0.30879 0.0
C733 C 0.37176 0.88914 0.31461 0.0
H734 H 0.42871 0.95664 0.36452 0.0
H735 H 0.35474 0.96172 0.29473 0.0
C736 C 0.49106 0.10633 0.32812 0.0
N737 N 0.53001 0.17175 0.36103 0.0
C738 C 0.48219 0.12776 0.35622 0.0
C739 C 0.51991 0.11805 0.31698 0.0
C740 C 0.50216 0.16078 0.37244 0.0
C741 C 0.53923 0.15124 0.3339 0.0
C742 C 0.40801 1.00867 0.24571 0.0
C743 C 0.3906 0.97588 0.22538 0.0
C744 C 0.42261 0.035 0.2298 0.0
C745 C 0.38807 0.97003 0.18938 0.0
C746 C 0.42016 0.02775 0.19378 0.0
N747 N 0.40295 0.99576 0.17447 0.0
C748 C 0.46611 0.968 0.23855 0.0
C749 C 0.49784 0.02481 0.23884 0.0
C750 C 0.47755 0.9525 0.20916 0.0
N751 N 0.47607 1.00354 0.2523 0.0
C752 C 0.51038 1.01039 0.20991 0.0
C753 C 0.49981 0.97386 0.19428 0.0
H754 H 0.44871 0.95187 0.25006 0.0
H755 H 0.50513 0.05295 0.25034 0.0
C756 C 0.375 0.07474 0.27845 0.0
N757 N 0.40258 0.09246 0.29832 0.0
C758 C 0.36054 0.0912 0.25691 0.0
C759 C 0.40119 0.14517 0.27946 0.0
C760 C 0.41514 0.12748 0.30037 0.0
C761 C 0.3744 0.12632 0.25644 0.0
H762 H 0.36551 0.0469 0.27715 0.0
H763 H 0.43709 0.14101 0.31608 0.0
O764 O 0.46167 0.99829 0.32752 0.0
O765 O 0.42208 0.051 0.35964 0.0
O766 O 0.47189 0.07379 0.31213 0.0
O767 O 0.41187 1.01458 0.281 0.0
H768 H 0.47355 0.94015 0.34143 0.0
H769 H 0.51492 0.04015 0.31827 0.0
H770 H 0.52599 0.9288 0.34681 0.0
H771 H 0.56644 0.02684 0.32383 0.0
H772 H 0.31886 1.00871 0.36499 0.0
H773 H 0.42653 0.04491 0.42464 0.0
H774 H 0.3625 0.03105 0.33359 0.0
H775 H 0.38191 0.0219 0.45422 0.0
H776 H 0.50003 1.00929 0.44672 0.0
H777 H 0.56997 0.0957 0.42681 0.0
H778 H 0.41198 0.89151 0.34996 0.0
H779 H 0.33446 0.89656 0.28107 0.0
H780 H 0.46013 0.11893 0.36545 0.0
H781 H 0.52739 0.10176 0.29557 0.0
H782 H 0.49554 0.17766 0.39415 0.0
H783 H 0.56154 0.1607 0.32547 0.0
H784 H 0.3793 0.95513 0.23724 0.0
H785 H 0.43648 0.06039 0.24515 0.0
H786 H 0.3744 0.94501 0.1733 0.0
H787 H 0.43212 0.04745 0.18119 0.0
H788 H 0.46846 0.92439 0.19779 0.0
H789 H 0.52796 0.02777 0.19974 0.0
H790 H 0.33983 0.07606 0.23931 0.0
H791 H 0.41239 0.17237 0.27944 0.0
Li792 Li 0.31386 0.22582 0.55136 0.0
Li793 Li 0.33338 0.17873 0.50969 0.0
Li794 Li 0.31288 0.22239 0.47869 0.0
Li795 Li 0.27626 0.1757 0.50412 0.0
C796 C 0.37878 0.2496 0.53153 0.0
N797 N 0.4393 0.28739 0.55677 0.0
C798 C 0.39025 0.25341 0.56604 0.0
C799 C 0.39803 0.26494 0.50982 0.0
C800 C 0.42097 0.27256 0.57829 0.0
C801 C 0.42861 0.28394 0.52309 0.0
C802 C 0.30968 0.14708 0.55847 0.0
C803 C 0.29649 0.08639 0.56378 0.0
N804 N 0.32261 0.09362 0.58675 0.0
C805 C 0.33637 0.15392 0.58222 0.0
C806 C 0.28955 0.11304 0.54918 0.0
C807 C 0.34251 0.12653 0.59618 0.0
C808 C 0.30834 0.22294 0.62252 0.0
N809 N 0.31798 0.24822 0.60456 0.0
C810 C 0.33386 0.29193 0.65995 0.0
C811 C 0.33023 0.28267 0.62294 0.0
C812 C 0.32563 0.26549 0.67867 0.0
C813 C 0.31312 0.23061 0.65889 0.0
H814 H 0.29731 0.19607 0.60871 0.0
H815 H 0.33804 0.30305 0.60919 0.0
C816 C 0.39465 0.16305 0.52216 0.0
N817 N 0.36368 0.14934 0.51047 0.0
C818 C 0.41391 0.14069 0.52765 0.0
C819 C 0.3696 0.09041 0.50761 0.0
C820 C 0.35133 0.11358 0.50235 0.0
C821 C 0.40124 0.10381 0.52134 0.0
H822 H 0.40435 0.1914 0.52858 0.0
H823 H 0.32673 0.10299 0.49352 0.0
C824 C 0.25102 0.23436 0.51284 0.0
N825 N 0.19107 0.24291 0.51163 0.0
C826 C 0.23396 0.23317 0.48161 0.0
C827 C 0.23783 0.24065 0.54355 0.0
C828 C 0.20364 0.23746 0.48152 0.0
C829 C 0.20737 0.24461 0.54237 0.0
C830 C 0.2871 0.14681 0.4362 0.0
C831 C 0.26531 0.15817 0.41734 0.0
C832 C 0.29211 0.11323 0.42386 0.0
C833 C 0.24855 0.13556 0.38668 0.0
C834 C 0.2749 0.09139 0.39306 0.0
N835 N 0.25363 0.1029 0.37529 0.0
C836 C 0.32716 0.22296 0.40659 0.0
C837 C 0.31761 0.27756 0.43256 0.0
C838 C 0.33131 0.23371 0.37513 0.0
N839 N 0.32003 0.24443 0.43497 0.0
C840 C 0.32214 0.2896 0.40157 0.0
C841 C 0.32892 0.26757 0.37173 0.0
H842 H 0.32955 0.19691 0.40803 0.0
H843 H 0.31197 0.29494 0.45461 0.0
C844 C 0.22086 0.15163 0.53192 0.0
N845 N 0.23386 0.14413 0.50226 0.0
C846 C 0.1917 0.13124 0.53588 0.0
C847 C 0.18978 0.09372 0.47946 0.0
C848 C 0.21894 0.11542 0.47627 0.0
C849 C 0.17555 0.10165 0.50956 0.0
H850 H 0.23347 0.1733 0.55303 0.0
H851 H 0.2297 0.10879 0.45321 0.0
O852 O 0.34838 0.23237 0.51955 0.0
O853 O 0.30352 0.17352 0.54418 0.0
O854 O 0.28064 0.2299 0.51348 0.0
O855 O 0.30378 0.16867 0.46627 0.0
H856 H 0.37557 0.2418 0.58317 0.0
H857 H 0.38933 0.26243 0.48312 0.0
H858 H 0.4302 0.27578 0.60494 0.0
H859 H 0.44383 0.29607 0.50666 0.0
H860 H 0.28116 0.05991 0.55675 0.0
H861 H 0.3523 0.18005 0.58955 0.0
H862 H 0.26894 0.10712 0.53068 0.0
H863 H 0.36314 0.13142 0.61443 0.0
H864 H 0.34447 0.31916 0.67368 0.0
H865 H 0.30668 0.20905 0.67164 0.0
H866 H 0.43808 0.15239 0.53839 0.0
H867 H 0.35871 0.06221 0.50189 0.0
H868 H 0.24408 0.22928 0.45775 0.0
H869 H 0.25092 0.24196 0.56794 0.0
H870 H 0.19014 0.23658 0.45753 0.0
H871 H 0.19665 0.24902 0.56583 0.0
H872 H 0.26149 0.1842 0.42621 0.0
H873 H 0.30924 0.10416 0.43766 0.0
H874 H 0.23152 0.14398 0.37193 0.0
H875 H 0.27853 0.06534 0.38325 0.0
H876 H 0.33664 0.21541 0.35353 0.0
H877 H 0.31977 0.31589 0.40089 0.0
H878 H 0.18215 0.13846 0.55977 0.0
H879 H 0.1784 0.0712 0.45843 0.0
Li880 Li 0.23335 0.06265 0.7779 0.0
Li881 Li 0.18905 0.02572 0.81117 0.0
Li882 Li 0.23198 0.98903 0.77116 0.0
Li883 Li 0.18601 0.02088 0.73181 0.0
C884 C 0.2655 0.04927 0.83591 0.0
N885 N 0.32159 0.08424 0.87656 0.0
C886 C 0.26686 0.07752 0.86405 0.0
C887 C 0.29267 0.03887 0.82835 0.0
C888 C 0.29544 0.09485 0.88431 0.0
C889 C 0.3208 0.05685 0.84925 0.0
C890 C 0.18172 0.09282 0.78729 0.0
C891 C 0.16228 0.14141 0.77557 0.0
N892 N 0.17281 0.16008 0.80869 0.0
C893 C 0.19215 0.1124 0.82125 0.0
C894 C 0.16649 0.10729 0.76423 0.0
C895 C 0.18751 0.1464 0.83156 0.0
C896 C 0.24783 0.13687 0.76076 0.0
N897 N 0.26088 0.11744 0.77959 0.0
C898 C 0.30585 0.16999 0.79772 0.0
C899 C 0.28991 0.1341 0.79783 0.0
C900 C 0.29245 0.19081 0.77908 0.0
C901 C 0.26265 0.17281 0.76053 0.0
H902 H 0.2255 0.12454 0.74526 0.0
H903 H 0.30119 0.11976 0.81278 0.0
C904 C 0.17541 0.05453 0.89144 0.0
N905 N 0.16291 0.02914 0.86109 0.0
C906 C 0.16051 0.05793 0.92289 0.0
C907 C 0.11879 1.00949 0.89409 0.0
C908 C 0.13448 1.00682 0.86308 0.0
C909 C 0.1312 0.03544 0.92578 0.0
H910 H 0.19753 0.07301 0.89197 0.0
H911 H 0.12323 0.98621 0.84041 0.0
C912 C 0.25846 0.03832 0.71968 0.0
N913 N 0.30839 0.07218 0.69166 0.0
C914 C 0.28738 0.03069 0.72444 0.0
C915 C 0.2549 0.06317 0.70073 0.0
C916 C 0.31234 0.04807 0.71002 0.0
C917 C 0.28044 0.08002 0.68677 0.0
C918 C 0.16903 0.9456 0.76041 0.0
C919 C 0.15845 0.92426 0.72712 0.0
C920 C 0.17 0.92996 0.78851 0.0
C921 C 0.14908 0.88744 0.72248 0.0
C922 C 0.16048 0.89303 0.78277 0.0
N923 N 0.15039 0.87274 0.75015 0.0
C924 C 0.26712 0.93204 0.80196 0.0
C925 C 0.26512 0.91871 0.74251 0.0
C926 C 0.28206 0.90314 0.80393 0.0
N927 N 0.25804 0.94056 0.77147 0.0
C928 C 0.28009 0.88942 0.74355 0.0
C929 C 0.29018 0.88039 0.77478 0.0
H930 H 0.26238 0.94731 0.82593 0.0
H931 H 0.25871 0.92303 0.7174 0.0
C932 C 0.13167 0.03317 0.67408 0.0
N933 N 0.16029 0.02519 0.6791 0.0
C934 C 0.11814 0.03746 0.64105 0.0
C935 C 0.16276 0.02607 0.61702 0.0
C936 C 0.17527 0.02174 0.64997 0.0
C937 C 0.13351 0.03436 0.61071 0.0
H938 H 0.11858 0.03658 0.69581 0.0
H939 H 0.19772 1.01565 0.65178 0.0
O940 O 0.23791 0.03207 0.81543 0.0
O941 O 0.18633 0.05959 0.77696 0.0
O942 O 0.23399 0.02223 0.73432 0.0
O943 O 0.18083 0.98135 0.76519 0.0
H944 H 0.24615 0.08612 0.87008 0.0
H945 H 0.29202 0.01713 0.80655 0.0
H946 H 0.29685 0.11679 0.90616 0.0
H947 H 0.342 0.04905 0.84374 0.0
H948 H 0.1507 0.15311 0.7581 0.0
H949 H 0.20386 0.10149 0.83938 0.0
H950 H 0.15827 0.09248 0.73784 0.0
H951 H 0.19559 0.1619 0.85775 0.0
H952 H 0.32858 0.18148 0.81274 0.0
H953 H 0.25064 0.18631 0.74527 0.0
H954 H 0.17233 0.07872 0.94521 0.0
H955 H 0.09669 0.99068 0.89302 0.0
H956 H 0.2905 1.01161 0.73919 0.0
H957 H 0.23273 0.06965 0.69719 0.0
H958 H 0.33488 0.04245 0.71349 0.0
H959 H 0.27807 0.09941 0.67214 0.0
H960 H 0.158 0.936 0.70507 0.0
H961 H 0.17855 0.94616 0.81438 0.0
H962 H 0.14112 0.87053 0.69686 0.0
H963 H 0.16123 0.88047 0.80421 0.0
H964 H 0.28682 0.89823 0.82918 0.0
H965 H 0.28316 0.87328 0.71919 0.0
H966 H 0.09554 0.04324 0.6396 0.0
H967 H 0.1766 0.02267 0.59592 0.0
Li968 Li 0.36209 0.01871 0.01025 0.0
Li969 Li 0.38023 0.97317 0.03075 0.0
Li970 Li 0.41058 1.00608 0.99365 0.0
Li971 Li 0.36471 0.96363 0.96806 0.0
C972 C 0.40575 0.04936 0.07087 0.0
N973 N 0.41481 0.10019 0.13203 0.0
C974 C 0.39098 0.04138 0.0989 0.0
C975 C 0.42567 0.08294 0.07419 0.0
C976 C 0.39541 0.06763 0.12939 0.0
C977 C 0.43012 0.1082 0.10541 0.0
C978 C 0.31416 0.958 0.02437 0.0
C979 C 0.2663 0.91724 0.02959 0.0
N980 N 0.26457 0.93899 0.06027 0.0
C981 C 0.31186 0.97991 0.05596 0.0
C982 C 0.2912 0.92635 0.01109 0.0
C983 C 0.28667 0.96983 0.07375 0.0
C984 C 0.30565 0.03569 0.01034 0.0
N985 N 0.33614 0.05085 0.02247 0.0
C986 C 0.32297 0.10173 0.0559 0.0
C987 C 0.34525 0.08377 0.04412 0.0
C988 C 0.29087 0.08526 0.04621 0.0
C989 C 0.28267 0.05183 0.02248 0.0
H990 H 0.29897 1.00973 0.99275 0.0
H991 H 0.36963 0.09585 0.05304 0.0
C992 C 0.41549 0.95696 0.08204 0.0
N993 N 0.38578 0.94931 0.06621 0.0
C994 C 0.42372 0.93635 0.10362 0.0
C995 C 0.37035 0.90103 0.09301 0.0
C996 C 0.36319 0.92222 0.0715 0.0
C997 C 0.40109 0.9076 0.10884 0.0
H998 H 0.43309 0.97821 0.07671 0.0
H999 H 0.34003 0.9158 0.05774 0.0
C1000 C 0.39517 0.04072 0.95259 0.0
N1001 N 0.43553 0.09464 0.93259 0.0
C1002 C 0.40759 0.03365 0.92144 0.0
C1003 C 0.4031 0.07525 0.97343 0.0
C1004 C 0.42802 0.06127 0.91183 0.0
C1005 C 0.42356 0.10214 0.96289 0.0
C1006 C 0.39953 0.92051 0.99095 0.0
C1007 C 0.42695 0.90939 0.99446 0.0
C1008 C 0.37072 0.89599 0.98767 0.0
C1009 C 0.42508 0.87383 0.99412 0.0
C1010 C 0.36981 0.86066 0.98735 0.0
N1011 N 0.39678 0.85039 0.99055 0.0
C1012 C 0.46094 0.98974 0.96504 0.0
C1013 C 0.47215 0.04962 0.99656 0.0
C1014 C 0.49244 0.99103 0.96553 0.0
N1015 N 0.45156 0.01795 0.98258 0.0
C1016 C 0.50393 0.05221 0.99725 0.0
C1017 C 0.51426 0.02175 0.98412 0.0
H1018 H 0.44419 0.9649 0.95373 0.0
H1019 H 0.46417 0.0719 0.00963 0.0
C1020 C 0.32624 0.90484 0.91621 0.0
N1021 N 0.35356 0.92993 0.92633 0.0
C1022 C 0.32392 0.87666 0.88786 0.0
C1023 C 0.37736 0.90134 0.88079 0.0
C1024 C 0.37854 0.92923 0.90883 0.0
C1025 C 0.35001 0.87407 0.87057 0.0
H1026 H 0.3067 0.90624 0.93052 0.0
H1027 H 0.39978 0.94983 0.91754 0.0
O1028 O 0.4017 0.02407 0.04073 0.0
O1029 O 0.33821 0.96771 1.00597 0.0
O1030 O 0.37607 1.01389 0.96325 0.0
O1031 O 0.40107 0.95544 0.99169 0.0
H1032 H 0.37649 1.01515 0.09732 0.0
H1033 H 0.43737 0.08962 0.05288 0.0
H1034 H 0.38371 0.06191 0.15108 0.0
H1035 H 0.44574 0.13413 0.10845 0.0
H1036 H 0.24834 0.89287 0.01953 0.0
H1037 H 0.32892 1.00482 0.0663 0.0
H1038 H 0.29251 0.90898 0.98674 0.0
H1039 H 0.28457 0.98667 0.09813 0.0
H1040 H 0.3311 0.12786 0.07304 0.0
H1041 H 0.25878 0.03687 0.01427 0.0
H1042 H 0.44756 0.94251 0.11569 0.0
H1043 H 0.3523 0.87884 0.09606 0.0
H1044 H 0.40168 1.00713 0.90494 0.0
H1045 H 0.39393 0.08111 0.99774 0.0
H1046 H 0.43797 0.05617 0.8879 0.0
H1047 H 0.43008 0.12892 0.97891 0.0
H1048 H 0.44949 0.92807 0.99765 0.0
H1049 H 0.34926 0.90412 0.9857 0.0
H1050 H 0.44612 0.86488 0.99678 0.0
H1051 H 0.34765 0.84144 0.98472 0.0
H1052 H 0.49949 0.96713 0.95468 0.0
H1053 H 0.51972 0.07684 0.01078 0.0
H1054 H 0.30183 0.8579 0.87927 0.0
H1055 H 0.39772 0.90091 0.86752 0.0
Li1056 Li 0.34197 0.42102 0.03984 0.0
Li1057 Li 0.35784 0.37485 0.07049 0.0
Li1058 Li 0.39755 0.41855 0.04515 0.0
Li1059 Li 0.35787 0.37094 0.99927 0.0
C1060 C 0.38573 0.45514 0.11008 0.0
N1061 N 0.41683 0.50931 0.16566 0.0
C1062 C 0.40708 0.44896 0.13402 0.0
C1063 C 0.38008 0.48879 0.1144 0.0
C1064 C 0.4226 0.47672 0.16195 0.0
C1065 C 0.39607 0.51585 0.14268 0.0
C1066 C 0.29198 0.36764 0.02896 0.0
C1067 C 0.2444 0.36953 0.99728 0.0
N1068 N 0.2309 0.37208 0.0269 0.0
C1069 C 0.27763 0.37013 0.05907 0.0
C1070 C 0.2753 0.36722 0.99777 0.0
C1071 C 0.24669 0.37235 0.05748 0.0
C1072 C 0.30967 0.45862 1.00463 0.0
N1073 N 0.31283 0.45077 0.03603 0.0
C1074 C 0.27599 0.48412 0.05553 0.0
C1075 C 0.29613 0.4627 0.06129 0.0
C1076 C 0.27346 0.49385 0.02373 0.0
C1077 C 0.29038 0.48026 0.99805 0.0
H1078 H 0.3224 0.44824 0.98455 0.0
H1079 H 0.29854 0.45582 0.08596 0.0
C1080 C 0.35088 0.32088 0.11801 0.0
N1081 N 0.35067 0.35459 0.11538 0.0
C1082 C 0.34681 0.30995 0.14958 0.0
C1083 C 0.3425 0.36805 0.17629 0.0
C1084 C 0.34622 0.37776 0.14423 0.0
C1085 C 0.34274 0.33361 0.17989 0.0
H1086 H 0.3544 0.30209 0.0957 0.0
H1087 H 0.34565 0.40437 0.1427 0.0
C1088 C 0.38903 0.45025 0.99447 0.0
N1089 N 0.42769 0.50565 0.97471 0.0
C1090 C 0.40648 0.44333 0.96721 0.0
C1091 C 0.39128 0.48535 0.01169 0.0
C1092 C 0.42585 0.4717 0.95758 0.0
C1093 C 0.41096 0.51299 1.00132 0.0
C1094 C 0.39508 0.33181 0.02769 0.0
C1095 C 0.42404 0.32652 0.01993 0.0
C1096 C 0.37003 0.30256 0.0256 0.0
C1097 C 0.4275 0.2919 0.01044 0.0
C1098 C 0.37445 0.26837 0.01603 0.0
N1099 N 0.40284 0.2638 0.00872 0.0
C1100 C 0.45203 0.48169 0.06874 0.0
C1101 C 0.45855 0.43499 0.02461 0.0
C1102 C 0.4812 0.50319 0.0656 0.0
N1103 N 0.44106 0.44817 0.04824 0.0
C1104 C 0.48745 0.45577 0.02016 0.0
C1105 C 0.49916 0.49067 0.04047 0.0
H1106 H 0.43786 0.49251 0.0868 0.0
H1107 H 0.44938 0.40875 1.00793 0.0
C1108 C 0.34384 0.3734 0.9293 0.0
N1109 N 0.35003 0.34885 0.9461 0.0
C1110 C 0.34008 0.36698 0.89305 0.0
C1111 C 0.34601 0.30818 0.8896 0.0
C1112 C 0.35106 0.31632 0.92665 0.0
C1113 C 0.34129 0.33421 0.872 0.0
H1114 H 0.34192 0.39868 0.94409 0.0
H1115 H 0.35565 0.29642 0.93956 0.0
O1116 O 0.3701 0.42828 0.08276 0.0
O1117 O 0.3226 0.36694 0.03032 0.0
O1118 O 0.37077 0.4228 1.00515 0.0
O1119 O 0.39112 0.36545 0.03659 0.0
H1120 H 0.41162 0.423 0.13101 0.0
H1121 H 0.36356 0.49394 0.0961 0.0
H1122 H 0.43922 0.47236 0.18069 0.0
H1123 H 0.39198 0.54205 0.14636 0.0
H1124 H 0.23119 0.36942 0.97339 0.0
H1125 H 0.29039 0.37076 0.08344 0.0
H1126 H 0.28624 0.36559 0.97433 0.0
H1127 H 0.23528 0.37447 0.08058 0.0
H1128 H 0.26327 0.49377 0.07603 0.0
H1129 H 0.28882 0.48643 0.97294 0.0
H1130 H 0.34734 0.28308 0.15029 0.0
H1131 H 0.33926 0.38761 0.19819 0.0
H1132 H 0.40555 0.41632 0.95406 0.0
H1133 H 0.37828 0.49116 0.03314 0.0
H1134 H 0.4396 0.46672 0.93667 0.0
H1135 H 0.41307 0.54027 0.01455 0.0
H1136 H 0.44364 0.34889 0.02129 0.0
H1137 H 0.34741 0.30624 0.03123 0.0
H1138 H 0.44978 0.28739 1.00442 0.0
H1139 H 0.35528 0.24547 0.01436 0.0
H1140 H 0.48918 0.52964 0.08215 0.0
H1141 H 0.5003 0.44457 1.00055 0.0
H1142 H 0.33575 0.38792 0.88145 0.0
H1143 H 0.34575 0.28186 0.87507 0.0
Li1144 Li 0.80608 0.15123 0.07803 0.0
Li1145 Li 0.81766 0.09908 0.03888 0.0
Li1146 Li 0.78664 0.13631 0.01693 0.0
Li1147 Li 0.76681 0.09921 0.05544 0.0
C1148 C 0.85897 0.17466 0.05139 0.0
N1149 N 0.91553 0.22251 0.07872 0.0
C1150 C 0.88357 0.16306 0.0649 0.0
C1151 C 0.86325 0.21061 0.05161 0.0
C1152 C 0.91197 0.18765 0.07857 0.0
C1153 C 0.89197 0.23439 0.06564 0.0
C1154 C 0.79325 0.08373 0.10813 0.0
C1155 C 0.77293 0.02676 0.12056 0.0
N1156 N 0.7663 0.04336 0.15156 0.0
C1157 C 0.78652 0.10025 0.14025 0.0
C1158 C 0.78668 0.04672 0.0983 0.0
C1159 C 0.7728 0.07937 0.16179 0.0
C1160 C 0.79012 0.19681 0.13114 0.0
N1161 N 0.81545 0.18758 0.11848 0.0
C1162 C 0.84881 0.22645 0.16742 0.0
C1163 C 0.84447 0.20137 0.13618 0.0
C1164 C 0.82307 0.23716 0.18004 0.0
C1165 C 0.79343 0.22186 0.16201 0.0
H1166 H 0.76706 0.18419 0.11787 0.0
H1167 H 0.86395 0.19213 0.12674 0.0
C1168 C 0.85176 0.0743 0.98987 0.0
N1169 N 0.847 0.07402 0.02303 0.0
C1170 C 0.87368 0.05824 0.97465 0.0
C1171 C 0.88539 0.04166 0.02807 0.0
C1172 C 0.86305 0.05804 0.04228 0.0
C1173 C 0.89099 0.04177 0.99381 0.0
H1174 H 0.83866 0.08747 0.9754 0.0
H1175 H 0.85873 0.05835 0.06865 0.0
C1176 C 0.75125 0.17385 0.05116 0.0
N1177 N 0.72381 0.22714 0.04127 0.0
C1178 C 0.71885 0.16688 0.04415 0.0
C1179 C 0.76967 0.20792 0.05307 0.0
C1180 C 0.70542 0.19423 0.03944 0.0
C1181 C 0.75538 0.23445 0.04783 0.0
C1182 C 0.75971 0.05129 0.99101 0.0
C1183 C 0.7331 0.04786 0.96834 0.0
C1184 C 0.7685 0.02096 0.99562 0.0
C1185 C 0.71551 1.01396 0.9509 0.0
C1186 C 0.75018 0.98756 0.9779 0.0
N1187 N 0.7243 0.98476 0.95607 0.0
C1188 C 0.80166 0.17872 0.97102 0.0
C1189 C 0.74748 0.15297 0.96782 0.0
C1190 C 0.79589 0.20011 0.94925 0.0
N1191 N 0.77755 0.15645 0.9804 0.0
C1192 C 0.74062 0.17419 0.94628 0.0
C1193 C 0.76498 0.19849 0.93722 0.0
H1194 H 0.82529 0.18092 0.98159 0.0
H1195 H 0.72879 0.13509 0.97595 0.0
C1196 C 0.7198 0.1038 0.09374 0.0
N1197 N 0.72879 0.07916 0.07015 0.0
C1198 C 0.68829 0.10231 0.09472 0.0
C1199 C 0.6764 0.04592 0.05322 0.0
C1200 C 0.70811 0.04905 0.05207 0.0
C1201 C 0.66628 0.07449 0.07201 0.0
H1202 H 0.7369 0.1272 0.10827 0.0
H1203 H 0.71575 0.02945 0.03398 0.0
O1204 O 0.83095 0.15098 0.03784 0.0
O1205 O 0.80617 0.10372 0.08643 0.0
O1206 O 0.76484 0.14744 0.05618 0.0
O1207 O 0.77766 0.08423 1.00765 0.0
H1208 H 0.88071 0.13548 0.06525 0.0
H1209 H 0.84465 0.22012 0.04103 0.0
H1210 H 0.93115 0.17904 0.08923 0.0
H1211 H 0.89555 0.26228 0.06609 0.0
H1212 H 0.76753 0.99808 0.11319 0.0
H1213 H 0.79165 0.12888 0.14839 0.0
H1214 H 0.79204 0.03354 0.07372 0.0
H1215 H 0.76729 0.09179 0.18663 0.0
H1216 H 0.87166 0.23609 0.18215 0.0
H1217 H 0.77308 0.22891 0.17185 0.0
H1218 H 0.87745 0.05934 0.94837 0.0
H1219 H 0.89796 0.02887 0.0436 0.0
H1220 H 0.70423 0.14057 0.04208 0.0
H1221 H 0.79472 0.21378 0.0586 0.0
H1222 H 0.68039 0.18932 0.03442 0.0
H1223 H 0.76938 0.2609 0.04913 0.0
H1224 H 0.72615 0.07108 0.9642 0.0
H1225 H 0.78933 0.02316 0.01256 0.0
H1226 H 0.69495 1.01091 0.93318 0.0
H1227 H 0.75666 0.96391 0.98148 0.0
H1228 H 0.81535 0.2187 0.94304 0.0
H1229 H 0.71663 0.1721 0.93734 0.0
H1230 H 0.68147 0.12464 0.10995 0.0
H1231 H 0.66058 0.0234 0.03627 0.0
Li1232 Li 0.25566 0.59573 0.23109 0.0
Li1233 Li 0.21534 0.57977 0.26555 0.0
Li1234 Li 0.24512 0.53965 0.24617 0.0
Li1235 Li 0.20681 0.5514 0.20515 0.0
C1236 C 0.26723 0.5877 0.31134 0.0
N1237 N 0.27933 0.59035 0.38091 0.0
C1238 C 0.24866 0.56273 0.32604 0.0
C1239 C 0.2919 0.61403 0.33208 0.0
C1240 C 0.25515 0.56457 0.36128 0.0
C1241 C 0.2977 0.61486 0.36716 0.0
C1242 C 0.19445 0.62378 0.23419 0.0
C1243 C 0.14308 0.63398 0.23513 0.0
N1244 N 0.15605 0.66889 0.25016 0.0
C1245 C 0.20725 0.65977 0.24974 0.0
C1246 C 0.16209 0.61074 0.22693 0.0
C1247 C 0.18746 0.68213 0.25761 0.0
C1248 C 0.26854 0.65289 0.20321 0.0
N1249 N 0.28269 0.63667 0.22395 0.0
C1250 C 0.32001 0.69095 0.25081 0.0
C1251 C 0.30895 0.65426 0.24615 0.0
C1252 C 0.30292 0.70898 0.23332 0.0
C1253 C 0.27778 0.68953 0.20825 0.0
H1254 H 0.24739 0.63819 0.1863 0.0
H1255 H 0.31917 0.64066 0.26285 0.0
C1256 C 0.1692 0.58033 0.30991 0.0
N1257 N 0.19617 0.59942 0.3023 0.0
C1258 C 0.15616 0.59425 0.3387 0.0
C1259 C 0.1982 0.64771 0.35 0.0
C1260 C 0.21067 0.63256 0.32136 0.0
C1261 C 0.17104 0.62812 0.35934 0.0
H1262 H 0.15831 0.55405 0.2941 0.0
H1263 H 0.23229 0.64687 0.31467 0.0
C1264 C 0.27241 0.55792 0.17778 0.0
N1265 N 0.31599 0.58003 0.13585 0.0
C1266 C 0.26321 0.55523 0.14286 0.0
C1267 C 0.30393 0.57104 0.19112 0.0
C1268 C 0.28554 0.56682 0.12217 0.0
C1269 C 0.32557 0.58229 0.16957 0.0
C1270 C 0.18477 0.49298 0.23086 0.0
C1271 C 0.19596 0.47453 0.20259 0.0
C1272 C 0.15982 0.47503 0.24493 0.0
C1273 C 0.18229 0.43834 0.18929 0.0
C1274 C 0.14685 0.43881 0.23095 0.0
N1275 N 0.15827 0.42137 0.20366 0.0
C1276 C 0.25058 0.47851 0.27145 0.0
C1277 C 0.29708 0.52236 0.27221 0.0
C1278 C 0.2664 0.46247 0.2923 0.0
N1279 N 0.26595 0.50842 0.26254 0.0
C1280 C 0.31369 0.50741 0.2934 0.0
C1281 C 0.29795 0.47789 0.30442 0.0
H1282 H 0.22576 0.46838 0.2646 0.0
H1283 H 0.30849 0.54676 0.26579 0.0
C1284 C 0.1856 0.566 0.14802 0.0
N1285 N 0.17709 0.54096 0.16611 0.0
C1286 C 0.16512 0.56871 0.12156 0.0
C1287 C 0.12684 0.51955 0.13246 0.0
C1288 C 0.14831 0.51794 0.15924 0.0
C1289 C 0.13531 0.54535 0.11339 0.0
H1290 H 0.20806 0.58492 0.15523 0.0
H1291 H 0.1416 0.49937 0.17518 0.0
O1292 O 0.26038 0.5878 0.27734 0.0
O1293 O 0.21347 0.60141 0.22634 0.0
O1294 O 0.25077 0.54742 0.1987 0.0
O1295 O 0.19763 0.52846 0.24463 0.0
H1296 H 0.22914 0.54252 0.31057 0.0
H1297 H 0.30622 0.63387 0.32128 0.0
H1298 H 0.24079 0.54578 0.37314 0.0
H1299 H 0.31665 0.63516 0.38351 0.0
H1300 H 0.118 0.62424 0.22962 0.0
H1301 H 0.23219 0.67025 0.25624 0.0
H1302 H 0.15172 0.58293 0.21531 0.0
H1303 H 0.19706 0.70999 0.26977 0.0
H1304 H 0.33909 0.70539 0.27092 0.0
H1305 H 0.26378 0.70281 0.19494 0.0
H1306 H 0.13513 0.57846 0.34527 0.0
H1307 H 0.2104 0.6737 0.36553 0.0
H1308 H 0.23914 0.54406 0.13172 0.0
H1309 H 0.31154 0.57318 0.21799 0.0
H1310 H 0.27867 0.56516 0.09518 0.0
H1311 H 0.34997 0.59293 0.17969 0.0
H1312 H 0.21502 0.48774 0.19104 0.0
H1313 H 0.15063 0.48892 0.26655 0.0
H1314 H 0.19081 0.42373 0.16754 0.0
H1315 H 0.12769 0.42458 0.2418 0.0
H1316 H 0.25382 0.43949 0.30042 0.0
H1317 H 0.33808 0.51988 0.3026 0.0
H1318 H 0.17257 0.58951 0.10815 0.0
H1319 H 0.10396 0.5012 0.12699 0.0
Li1320 Li 0.84198 0.92102 0.53984 0.0
Li1321 Li 0.85785 0.87485 0.57048 0.0
Li1322 Li 0.89756 0.91856 0.54516 0.0
Li1323 Li 0.85789 0.87095 0.49926 0.0
C1324 C 0.88573 0.95512 0.61009 0.0
N1325 N 0.91683 1.00927 0.66568 0.0
C1326 C 0.90709 0.94893 0.63402 0.0
C1327 C 0.88009 0.98877 0.61442 0.0
C1328 C 0.92261 0.97669 0.66196 0.0
C1329 C 0.89608 1.01583 0.6427 0.0
C1330 C 0.79199 0.86763 0.52894 0.0
C1331 C 0.74442 0.86952 0.49725 0.0
N1332 N 0.7309 0.87206 0.52686 0.0
C1333 C 0.77763 0.87011 0.55904 0.0
C1334 C 0.77532 0.86723 0.49775 0.0
C1335 C 0.74669 0.87232 0.55744 0.0
C1336 C 0.80968 0.95863 0.50465 0.0
N1337 N 0.81284 0.95077 0.53604 0.0
C1338 C 0.776 0.9841 0.55556 0.0
C1339 C 0.79613 0.96268 0.5613 0.0
C1340 C 0.77347 0.99385 0.52377 0.0
C1341 C 0.79039 0.98028 0.49808 0.0
H1342 H 0.82241 0.94827 0.48457 0.0
H1343 H 0.79854 0.95578 0.58596 0.0
C1344 C 0.85086 0.82085 0.61798 0.0
N1345 N 0.85066 0.85457 0.61536 0.0
C1346 C 0.84678 0.80991 0.64955 0.0
C1347 C 0.84247 0.86801 0.67626 0.0
C1348 C 0.84621 0.87774 0.64421 0.0
C1349 C 0.84271 0.83357 0.67985 0.0
H1350 H 0.85438 0.80207 0.59566 0.0
H1351 H 0.84565 0.90434 0.64268 0.0
C1352 C 0.88904 0.95026 0.49448 0.0
N1353 N 0.92771 1.00566 0.47473 0.0
C1354 C 0.9065 0.94334 0.46722 0.0
C1355 C 0.89129 0.98536 0.51169 0.0
C1356 C 0.92587 0.97172 0.45759 0.0
C1357 C 0.91098 1.013 0.50133 0.0
C1358 C 0.89511 0.83182 0.5277 0.0
C1359 C 0.92408 0.82654 0.52 0.0
C1360 C 0.87006 0.80257 0.52557 0.0
C1361 C 0.92756 0.79193 0.51053 0.0
C1362 C 0.87448 0.76838 0.51602 0.0
N1363 N 0.9029 0.76382 0.50877 0.0
C1364 C 0.95203 0.98171 0.56875 0.0
C1365 C 0.95857 0.93502 0.52463 0.0
C1366 C 0.9812 1.00322 0.56561 0.0
N1367 N 0.94106 0.94819 0.54826 0.0
C1368 C 0.98746 0.9558 0.52018 0.0
C1369 C 0.99916 0.99071 0.54049 0.0
H1370 H 0.93785 0.99253 0.5868 0.0
H1371 H 0.9494 0.90876 0.50796 0.0
C1372 C 0.84386 0.87342 0.42929 0.0
N1373 N 0.85005 0.84887 0.44609 0.0
C1374 C 0.84011 0.86701 0.39304 0.0
C1375 C 0.84602 0.8082 0.38959 0.0
C1376 C 0.85107 0.81634 0.42663 0.0
C1377 C 0.84131 0.83424 0.37199 0.0
H1378 H 0.84194 0.8987 0.44409 0.0
H1379 H 0.85566 0.79643 0.43954 0.0
O1380 O 0.87011 0.92827 0.58276 0.0
O1381 O 0.82261 0.86694 0.53031 0.0
O1382 O 0.87078 0.92281 0.50516 0.0
O1383 O 0.89114 0.86546 0.53658 0.0
H1384 H 0.91163 0.92297 0.631 0.0
H1385 H 0.86356 0.99393 0.59613 0.0
H1386 H 0.93922 0.97232 0.68069 0.0
H1387 H 0.89199 0.04202 0.6464 0.0
H1388 H 0.73121 0.86943 0.47336 0.0
H1389 H 0.79039 0.87073 0.58341 0.0
H1390 H 0.78626 0.8656 0.47431 0.0
H1391 H 0.73527 0.87443 0.58054 0.0
H1392 H 0.76327 0.99374 0.57606 0.0
H1393 H 0.78883 0.98647 0.47298 0.0
H1394 H 0.8473 0.78304 0.65024 0.0
H1395 H 0.83923 0.88757 0.69816 0.0
H1396 H 0.90558 0.91633 0.45408 0.0
H1397 H 0.87829 0.99117 0.53314 0.0
H1398 H 0.93963 0.96674 0.43669 0.0
H1399 H 0.91308 0.04028 0.51456 0.0
H1400 H 0.94368 0.84892 0.52139 0.0
H1401 H 0.84742 0.80624 0.53116 0.0
H1402 H 0.94985 0.78742 0.50456 0.0
H1403 H 0.85531 0.74548 0.51433 0.0
H1404 H 0.98917 0.02968 0.58216 0.0
H1405 H 1.00032 0.9446 0.50058 0.0
H1406 H 0.83577 0.88795 0.38145 0.0
H1407 H 0.84576 0.78188 0.37505 0.0
Li1408 Li 0.98788 0.07904 0.31715 0.0
Li1409 Li 0.93926 0.03728 0.27062 0.0
Li1410 Li 0.98633 0.07562 0.23827 0.0
Li1411 Li 0.94381 0.11275 0.27836 0.0
C1412 C 0.99547 1.00977 0.27168 0.0
N1413 N 1.01096 0.94625 0.26994 0.0
C1414 C 0.9903 0.99316 0.29898 0.0
C1415 C 1.00902 0.99446 0.24378 0.0
C1416 C 0.99788 0.96079 0.29736 0.0
C1417 C 0.0168 0.96237 0.24346 0.0
C1418 C 0.91653 0.06601 0.33227 0.0
C1419 C 0.86591 0.06561 0.35031 0.0
N1420 N 0.86891 0.04083 0.3682 0.0
C1421 C 0.9191 0.04047 0.35072 0.0
C1422 C 0.88974 0.07867 0.33195 0.0
C1423 C 0.89478 0.02811 0.36878 0.0
C1424 C 0.99841 0.07455 0.39811 0.0
N1425 N 0.01355 0.07263 0.36909 0.0
C1426 C 0.05584 0.05933 0.40613 0.0
C1427 C 0.04228 0.06476 0.37361 0.0
C1428 C 0.04028 0.06079 0.43634 0.0
C1429 C 1.01084 0.06881 0.43044 0.0
H1430 H 0.97591 0.08054 0.39676 0.0
H1431 H 0.05547 0.06242 0.35189 0.0
C1432 C 0.92181 0.95357 0.25412 0.0
N1433 N 0.91038 0.98239 0.26698 0.0
C1434 C 0.90657 0.91799 0.25525 0.0
C1435 C 0.86542 0.93946 0.27966 0.0
C1436 C 0.88199 0.97499 0.2792 0.0
C1437 C 0.87762 0.90963 0.26816 0.0
H1438 H 0.94331 0.95771 0.24294 0.0
H1439 H 0.87188 0.99669 0.28928 0.0
C1440 C 1.00794 0.15497 0.29082 0.0
N1441 N 0.03024 0.22773 0.30377 0.0
C1442 C 1.00811 0.17205 0.26366 0.0
C1443 C 0.0192 0.17482 0.32454 0.0
C1444 C 0.01945 0.20891 0.27076 0.0
C1445 C 0.03044 0.21163 0.33055 0.0
C1446 C 0.91246 0.06224 0.20925 0.0
C1447 C 0.91648 0.05702 0.17429 0.0
C1448 C 0.88279 0.0613 0.21905 0.0
C1449 C 0.89061 0.0508 0.14961 0.0
C1450 C 0.85752 0.05506 0.19358 0.0
N1451 N 0.86193 0.04998 0.15968 0.0
C1452 C 1.00225 0.042 0.16038 0.0
C1453 C 0.03761 0.09647 0.18368 0.0
C1454 C 0.0169 0.03795 0.12876 0.0
N1455 N 1.01213 0.0711 0.18827 0.0
C1456 C 0.05295 0.09328 0.15245 0.0
C1457 C 0.0432 0.06359 0.12322 0.0
H1458 H 0.98245 0.02105 0.16207 0.0
H1459 H 0.04664 0.12005 0.20434 0.0
C1460 C 0.91618 0.18726 0.30765 0.0
N1461 N 0.91843 0.162 0.27848 0.0
C1462 C 0.90163 0.21695 0.30707 0.0
C1463 C 0.89034 0.19694 0.2468 0.0
C1464 C 0.90496 0.16763 0.24831 0.0
C1465 C 0.88709 0.22314 0.27634 0.0
H1466 H 0.92626 0.18542 0.33248 0.0
H1467 H 0.90573 0.14958 0.22412 0.0
O1468 O 0.9866 0.04043 0.27192 0.0
O1469 O 0.93996 0.07832 0.31426 0.0
O1470 O 0.9948 0.11933 0.28472 0.0
O1471 O 0.93757 0.06942 0.23392 0.0
H1472 H 0.97973 1.00464 0.32068 0.0
H1473 H 0.01322 1.00707 0.22251 0.0
H1474 H 0.99316 0.94712 0.31781 0.0
H1475 H 0.02722 0.95012 0.22202 0.0
H1476 H 0.84504 0.07518 0.35033 0.0
H1477 H 0.93953 0.03009 0.35084 0.0
H1478 H 0.88739 0.09836 0.31765 0.0
H1479 H 0.89642 1.00832 0.38316 0.0
H1480 H 0.07863 0.05402 0.40729 0.0
H1481 H 0.99679 0.07099 0.45145 0.0
H1482 H 0.91749 0.89688 0.24548 0.0
H1483 H 0.84349 0.93571 0.29015 0.0
H1484 H 0.99913 0.15702 0.23747 0.0
H1485 H 0.01889 0.16196 0.34586 0.0
H1486 H 0.01962 0.22258 0.25007 0.0
H1487 H 0.03923 0.22741 0.3565 0.0
H1488 H 0.93935 0.05802 0.16635 0.0
H1489 H 0.87938 0.06556 0.24606 0.0
H1490 H 0.89336 0.04676 0.12245 0.0
H1491 H 0.83443 0.05434 0.20075 0.0
H1492 H 1.0073 1.01419 0.10845 0.0
H1493 H 0.07263 0.11466 0.15136 0.0
H1494 H 0.90243 0.23569 0.33133 0.0
H1495 H 0.88177 0.19915 0.22153 0.0
Li1496 Li 0.3062 0.65125 0.57795 0.0
Li1497 Li 0.31774 0.59912 0.53872 0.0
Li1498 Li 0.28676 0.63641 0.51684 0.0
Li1499 Li 0.26691 0.59925 0.55528 0.0
C1500 C 0.35909 0.67471 0.55138 0.0
N1501 N 0.41564 0.72251 0.57881 0.0
C1502 C 0.38368 0.66306 0.56482 0.0
C1503 C 0.36336 0.71068 0.55172 0.0
C1504 C 0.41209 0.68763 0.57855 0.0
C1505 C 0.39209 0.73444 0.5658 0.0
C1506 C 0.29325 0.58377 0.608 0.0
C1507 C 0.27257 0.52687 0.6204 0.0
N1508 N 0.26612 0.54356 0.65146 0.0
C1509 C 0.28669 0.60038 0.64017 0.0
C1510 C 0.28641 0.54674 0.59813 0.0
C1511 C 0.27287 0.57958 0.66173 0.0
C1512 C 0.29024 0.6968 0.63106 0.0
N1513 N 0.31557 0.68754 0.61843 0.0
C1514 C 0.3489 0.72629 0.66745 0.0
C1515 C 0.34457 0.70125 0.63618 0.0
C1516 C 0.32317 0.73705 0.68004 0.0
C1517 C 0.29354 0.72182 0.66195 0.0
H1518 H 0.26719 0.68424 0.61775 0.0
H1519 H 0.36404 0.69198 0.62676 0.0
C1520 C 0.3519 0.57446 0.48973 0.0
N1521 N 0.34707 0.57408 0.52285 0.0
C1522 C 0.37383 0.55841 0.47451 0.0
C1523 C 0.38541 0.54163 0.52785 0.0
C1524 C 0.36306 0.558 0.54207 0.0
C1525 C 0.39107 0.54185 0.49362 0.0
H1526 H 0.33885 0.58771 0.47529 0.0
H1527 H 0.35869 0.55823 0.5684 0.0
C1528 C 0.25134 0.67387 0.55102 0.0
N1529 N 0.22382 0.72706 0.54102 0.0
C1530 C 0.21894 0.66681 0.54388 0.0
C1531 C 0.26971 0.70798 0.55301 0.0
C1532 C 0.20547 0.69411 0.53911 0.0
C1533 C 0.25538 0.73446 0.54771 0.0
C1534 C 0.25986 0.55135 0.49085 0.0
C1535 C 0.23324 0.54782 0.46817 0.0
C1536 C 0.26873 0.52107 0.49549 0.0
C1537 C 0.21571 0.51389 0.45074 0.0
C1538 C 0.25048 0.48763 0.47778 0.0
N1539 N 0.22457 0.48474 0.45593 0.0
C1540 C 0.30175 0.67901 0.47108 0.0
C1541 C 0.2476 0.65295 0.46767 0.0
C1542 C 0.29593 0.70037 0.44931 0.0
N1543 N 0.27767 0.65659 0.48036 0.0
C1544 C 0.24069 0.67414 0.44612 0.0
C1545 C 0.26501 0.69857 0.43716 0.0
H1546 H 0.32538 0.68132 0.48173 0.0
H1547 H 0.22894 0.63497 0.47572 0.0
C1548 C 0.21987 0.60386 0.59356 0.0
N1549 N 0.22886 0.57923 0.56995 0.0
C1550 C 0.18837 0.60238 0.59451 0.0
C1551 C 0.17648 0.54603 0.55295 0.0
C1552 C 0.20818 0.54914 0.55183 0.0
C1553 C 0.16636 0.57458 0.57176 0.0
H1554 H 0.23698 0.62723 0.60811 0.0
H1555 H 0.21583 0.52954 0.53374 0.0
O1556 O 0.33107 0.65104 0.53777 0.0
O1557 O 0.30625 0.60369 0.58628 0.0
O1558 O 0.26497 0.64751 0.5561 0.0
O1559 O 0.27775 0.58432 0.50748 0.0
H1560 H 0.38083 0.63546 0.56507 0.0
H1561 H 0.34476 0.72023 0.5412 0.0
H1562 H 0.43126 0.67899 0.58916 0.0
H1563 H 0.39567 0.76235 0.56633 0.0
H1564 H 0.26696 0.49818 0.613 0.0
H1565 H 0.29203 0.62902 0.64835 0.0
H1566 H 0.29163 0.53349 0.5735 0.0
H1567 H 0.2675 0.59207 0.68661 0.0
H1568 H 0.37174 0.73588 0.68221 0.0
H1569 H 0.27319 0.72891 0.67177 0.0
H1570 H 0.37765 0.55959 0.44826 0.0
H1571 H 0.39792 0.52876 0.54334 0.0
H1572 H 0.20437 0.64047 0.54174 0.0
H1573 H 0.29476 0.71392 0.55865 0.0
H1574 H 0.18045 0.68914 0.53398 0.0
H1575 H 0.26935 0.76094 0.54908 0.0
H1576 H 0.22623 0.57101 0.464 0.0
H1577 H 0.28957 0.52333 0.51243 0.0
H1578 H 0.19513 0.51077 0.43302 0.0
H1579 H 0.25702 0.46402 0.48137 0.0
H1580 H 0.31535 0.71906 0.44316 0.0
H1581 H 0.21669 0.67191 0.43707 0.0
H1582 H 0.18154 0.6247 0.60975 0.0
H1583 H 0.16066 0.52353 0.53597 0.0
Li1584 Li 0.43926 0.53723 0.77061 0.0
Li1585 Li 0.48788 0.57898 0.81713 0.0
Li1586 Li 0.44382 0.61269 0.77836 0.0
Li1587 Li 0.48633 0.57557 0.73826 0.0
C1588 C 0.41654 0.56594 0.83226 0.0
N1589 N 0.36893 0.54073 0.86818 0.0
C1590 C 0.41912 0.54039 0.8507 0.0
C1591 C 0.38974 0.57858 0.83194 0.0
C1592 C 0.3948 0.52802 0.86877 0.0
C1593 C 0.36592 0.56551 0.8503 0.0
C1594 C 0.49548 0.50972 0.77165 0.0
C1595 C 0.5168 0.46231 0.74341 0.0
N1596 N 0.51096 0.44619 0.76989 0.0
C1597 C 0.49032 0.49311 0.79895 0.0
C1598 C 0.50901 0.4944 0.74374 0.0
C1599 C 0.4979 0.46073 0.79732 0.0
C1600 C 0.42181 0.45352 0.75412 0.0
N1601 N 0.41038 0.48234 0.76697 0.0
C1602 C 0.36542 0.43942 0.77965 0.0
C1603 C 0.38199 0.47494 0.77918 0.0
C1604 C 0.37762 0.40958 0.76816 0.0
C1605 C 0.40657 0.41794 0.75526 0.0
H1606 H 0.44332 0.45765 0.74295 0.0
H1607 H 0.37188 0.49664 0.78925 0.0
C1608 C 0.49841 0.57449 0.8981 0.0
N1609 N 0.51355 0.57258 0.86907 0.0
C1610 C 0.51084 0.56876 0.93042 0.0
C1611 C 0.55585 0.55928 0.90611 0.0
C1612 C 0.54229 0.56471 0.8736 0.0
C1613 C 0.54029 0.56073 0.93632 0.0
H1614 H 0.47592 0.58048 0.89674 0.0
H1615 H 0.55548 0.56237 0.85187 0.0
C1616 C 0.41247 0.56223 0.70925 0.0
N1617 N 0.36195 0.55008 0.65969 0.0
C1618 C 0.4165 0.55718 0.6743 0.0
C1619 C 0.38278 0.56117 0.71904 0.0
C1620 C 0.39064 0.55102 0.64962 0.0
C1621 C 0.35752 0.55499 0.69358 0.0
C1622 C 0.50791 0.65493 0.79082 0.0
C1623 C 0.50809 0.67201 0.76366 0.0
C1624 C 0.51914 0.67478 0.82455 0.0
C1625 C 0.5194 0.70888 0.77078 0.0
C1626 C 0.53035 0.71159 0.83057 0.0
N1627 N 0.53015 0.7277 0.80379 0.0
C1628 C 0.41658 0.68745 0.80766 0.0
C1629 C 0.40456 0.66731 0.74842 0.0
C1630 C 0.40204 0.71715 0.80713 0.0
N1631 N 0.41843 0.66193 0.77851 0.0
C1632 C 0.38993 0.69663 0.74697 0.0
C1633 C 0.3871 0.72311 0.77649 0.0
H1634 H 0.42699 0.68581 0.83242 0.0
H1635 H 0.40499 0.64906 0.72425 0.0
C1636 C 0.50223 0.54197 0.66035 0.0
N1637 N 0.51213 0.57105 0.68824 0.0
C1638 C 0.51688 0.53792 0.62873 0.0
C1639 C 0.55296 0.59323 0.65244 0.0
C1640 C 0.53761 0.59642 0.68367 0.0
C1641 C 0.54319 0.56356 0.6232 0.0
H1642 H 0.48242 0.52103 0.66203 0.0
H1643 H 0.54665 0.61999 0.70433 0.0
O1644 O 0.43997 0.57826 0.81425 0.0
O1645 O 0.48661 0.54038 0.7719 0.0
O1646 O 0.43756 0.56936 0.73392 0.0
O1647 O 0.4948 0.61928 0.78471 0.0
H1648 H 0.43955 0.53002 0.85082 0.0
H1649 H 0.38739 0.59827 0.81764 0.0
H1650 H 0.39645 0.50822 0.88313 0.0
H1651 H 0.34504 0.57507 0.85032 0.0
H1652 H 0.52721 0.45006 0.72196 0.0
H1653 H 0.47976 0.50458 0.82066 0.0
H1654 H 0.5132 0.50702 0.72246 0.0
H1655 H 0.49319 0.44706 0.81777 0.0
H1656 H 0.34348 0.43567 0.79014 0.0
H1657 H 0.41749 0.39682 0.74549 0.0
H1658 H 0.49679 0.57093 0.95143 0.0
H1659 H 0.57865 0.55398 0.90728 0.0
H1660 H 0.43939 0.55828 0.66636 0.0
H1661 H 0.37935 0.5653 0.74604 0.0
H1662 H 0.39341 0.54711 0.62247 0.0
H1663 H 0.33441 0.55418 0.70075 0.0
H1664 H 0.49913 0.65698 0.73747 0.0
H1665 H 0.51883 0.66192 0.84586 0.0
H1666 H 0.51956 0.72255 0.75009 0.0
H1667 H 0.53912 0.72737 0.85652 0.0
H1668 H 0.40318 0.73611 0.83135 0.0
H1669 H 0.38103 0.69865 0.72174 0.0
H1670 H 0.50727 0.51417 0.6084 0.0
H1671 H 0.57264 0.61461 0.65136 0.0
Li1672 Li 0.71524 0.07972 0.76569 0.0
Li1673 Li 0.75554 0.09569 0.73121 0.0
Li1674 Li 0.70669 0.05137 0.70528 0.0
Li1675 Li 0.74499 0.03959 0.74627 0.0
C1676 C 0.69428 0.12369 0.73434 0.0
N1677 N 0.65578 0.16869 0.7503 0.0
C1678 C 0.70703 0.1597 0.74986 0.0
C1679 C 0.66193 0.11057 0.72711 0.0
C1680 C 0.68719 0.182 0.75772 0.0
C1681 C 0.64287 0.13376 0.73531 0.0
C1682 C 0.76718 0.08766 0.81145 0.0
C1683 C 0.79771 0.11488 0.86722 0.0
N1684 N 0.77937 0.09039 0.88102 0.0
C1685 C 0.74864 0.06271 0.8262 0.0
C1686 C 0.79186 0.11401 0.83214 0.0
C1687 C 0.75517 0.0646 0.86143 0.0
C1688 C 0.66916 0.0803 0.81013 0.0
N1689 N 0.69611 0.09938 0.80247 0.0
C1690 C 0.69818 0.14769 0.85016 0.0
C1691 C 0.71062 0.13253 0.8215 0.0
C1692 C 0.67104 0.12811 0.85955 0.0
C1693 C 0.65615 0.09423 0.83894 0.0
H1694 H 0.65827 0.054 0.79434 0.0
H1695 H 0.73222 0.14683 0.81477 0.0
C1696 C 0.76838 0.15287 0.70338 0.0
N1697 N 0.78256 0.13663 0.72408 0.0
C1698 C 0.77764 0.18951 0.70843 0.0
C1699 C 0.81992 0.1909 0.7509 0.0
C1700 C 0.80885 0.15422 0.74625 0.0
C1701 C 0.80281 0.20894 0.73346 0.0
H1702 H 0.74722 0.13818 0.68649 0.0
H1703 H 0.81909 0.1406 0.76291 0.0
C1704 C 0.68463 0.99294 0.73097 0.0
N1705 N 0.6581 0.92134 0.70375 0.0
C1706 C 0.69585 0.97448 0.70273 0.0
C1707 C 0.65964 0.97501 0.74499 0.0
C1708 C 0.68217 0.93829 0.68942 0.0
C1709 C 0.64666 0.9388 0.73101 0.0
C1710 C 0.77226 0.05788 0.67787 0.0
C1711 C 0.76304 0.05516 0.64295 0.0
C1712 C 0.80378 0.07104 0.69118 0.0
C1713 C 0.78535 0.06677 0.62224 0.0
C1714 C 0.8254 0.0823 0.66962 0.0
N1715 N 0.8158 0.08001 0.6359 0.0
C1716 C 0.6855 0.06599 0.64815 0.0
C1717 C 0.6482 0.01791 0.65933 0.0
C1718 C 0.66505 0.06869 0.62166 0.0
N1719 N 0.67698 0.04095 0.66623 0.0
C1720 C 0.62676 0.01951 0.63252 0.0
C1721 C 0.63525 0.04533 0.61346 0.0
H1722 H 0.70796 0.08493 0.65538 0.0
H1723 H 0.64148 0.99933 0.67525 0.0
C1724 C 0.75041 0.9785 0.77162 0.0
N1725 N 0.76581 1.00833 0.76262 0.0
C1726 C 0.76624 0.96245 0.79246 0.0
C1727 C 0.81358 1.00722 0.79333 0.0
C1728 C 0.79697 0.02218 0.77217 0.0
C1729 C 0.79782 0.97777 0.80446 0.0
H1730 H 0.72558 0.96844 0.76487 0.0
H1731 H 0.8084 0.04654 0.76568 0.0
O1732 O 0.71335 0.10137 0.72649 0.0
O1733 O 0.76029 0.08773 0.77744 0.0
O1734 O 0.69751 0.02842 0.74476 0.0
O1735 O 0.75064 0.04738 0.6988 0.0
H1736 H 0.73197 0.17024 0.75633 0.0
H1737 H 0.6516 0.08274 0.71553 0.0
H1738 H 0.69675 0.20987 0.76984 0.0
H1739 H 0.61779 0.12395 0.72983 0.0
H1740 H 0.81667 0.1352 0.88354 0.0
H1741 H 0.7291 0.0425 0.81076 0.0
H1742 H 0.80617 0.13383 0.8213 0.0
H1743 H 0.74083 0.04583 0.87334 0.0
H1744 H 0.71038 0.17369 0.86567 0.0
H1745 H 0.63514 0.07844 0.84555 0.0
H1746 H 0.76362 0.20281 0.69515 0.0
H1747 H 0.83902 0.20533 0.77099 0.0
H1748 H 0.71495 0.98767 0.69122 0.0
H1749 H 0.65043 0.98891 0.76659 0.0
H1750 H 0.69071 0.92367 0.6677 0.0
H1751 H 0.62746 0.92458 0.74182 0.0
H1752 H 0.73896 0.04396 0.63181 0.0
H1753 H 0.81141 0.0732 0.71806 0.0
H1754 H 0.77846 0.06509 0.59525 0.0
H1755 H 0.8498 0.09297 0.67973 0.0
H1756 H 0.67251 0.0895 0.60826 0.0
H1757 H 0.60388 1.00116 0.62702 0.0
H1758 H 0.75364 0.93952 0.80066 0.0
H1759 H 0.838 0.01962 0.80244 0.0
Li1760 Li 0.81385 0.72582 0.05135 0.0
Li1761 Li 0.83338 0.67872 0.00969 0.0
Li1762 Li 0.81286 0.72237 0.97868 0.0
Li1763 Li 0.77625 0.67569 1.00412 0.0
C1764 C 0.87877 0.74959 0.0315 0.0
N1765 N 0.93929 0.78738 0.0567 0.0
C1766 C 0.89025 0.75343 0.066 0.0
C1767 C 0.89801 0.76491 0.00977 0.0
C1768 C 0.92097 0.77258 0.07824 0.0
C1769 C 0.9286 0.78391 0.02302 0.0
C1770 C 0.80969 0.64709 0.05848 0.0
C1771 C 0.79651 0.5864 0.06379 0.0
N1772 N 0.82263 0.59364 0.08676 0.0
C1773 C 0.83638 0.65394 0.08222 0.0
C1774 C 0.78957 0.61305 0.04919 0.0
C1775 C 0.84253 0.62656 0.09618 0.0
C1776 C 0.80835 0.72296 0.12251 0.0
N1777 N 0.81798 0.74823 0.10455 0.0
C1778 C 0.83386 0.79196 0.15993 0.0
C1779 C 0.83023 0.78269 0.12292 0.0
C1780 C 0.82564 0.76552 0.17866 0.0
C1781 C 0.81314 0.73064 0.15888 0.0
H1782 H 0.79732 0.69608 0.10871 0.0
H1783 H 0.83803 0.80307 0.10917 0.0
C1784 C 0.89465 0.66306 0.02216 0.0
N1785 N 0.86368 0.64935 0.01047 0.0
C1786 C 0.91391 0.64071 0.02766 0.0
C1787 C 0.86961 0.59042 1.00761 0.0
C1788 C 0.85134 0.61358 1.00235 0.0
C1789 C 0.90125 0.60382 0.02135 0.0
H1790 H 0.90435 0.69141 0.02858 0.0
H1791 H 0.82674 0.60299 0.99351 0.0
C1792 C 0.751 0.73434 0.01283 0.0
N1793 N 0.69104 0.74287 0.01163 0.0
C1794 C 0.73393 0.73314 0.98161 0.0
C1795 C 0.73781 0.74062 0.04354 0.0
C1796 C 0.70361 0.73742 0.98151 0.0
C1797 C 0.70735 0.74457 0.04237 0.0
C1798 C 0.7871 0.64679 0.9362 0.0
C1799 C 0.76529 0.65812 0.91734 0.0
C1800 C 0.79214 0.61323 0.92384 0.0
C1801 C 0.74854 0.63551 0.88668 0.0
C1802 C 0.77494 0.59138 0.89305 0.0
N1803 N 0.75365 0.60287 0.87528 0.0
C1804 C 0.8271 0.72292 0.90655 0.0
C1805 C 0.81758 0.77753 0.93253 0.0
C1806 C 0.83125 0.73366 0.87509 0.0
N1807 N 0.82 0.7444 0.93494 0.0
C1808 C 0.8221 0.78957 0.90154 0.0
C1809 C 0.82886 0.76753 0.87169 0.0
H1810 H 0.82949 0.69687 0.90799 0.0
H1811 H 0.81196 0.79492 0.95459 0.0
C1812 C 0.72085 0.65161 0.03192 0.0
N1813 N 0.73385 0.64412 1.00226 0.0
C1814 C 0.69169 0.63121 0.03588 0.0
C1815 C 0.68978 0.5937 0.97945 0.0
C1816 C 0.71894 0.6154 0.97627 0.0
C1817 C 0.67555 0.60163 0.00956 0.0
H1818 H 0.73346 0.67328 0.05303 0.0
H1819 H 0.7297 0.60878 0.95321 0.0
O1820 O 0.84837 0.73237 0.01953 0.0
O1821 O 0.80352 0.67352 0.04418 0.0
O1822 O 0.78063 0.72988 0.01347 0.0
O1823 O 0.80377 0.66865 0.96627 0.0
H1824 H 0.87557 0.74184 0.08315 0.0
H1825 H 0.88931 0.76239 0.98307 0.0
H1826 H 0.93021 0.77581 0.10489 0.0
H1827 H 0.94381 0.79602 1.00658 0.0
H1828 H 0.78119 0.55992 0.05677 0.0
H1829 H 0.85231 0.68007 0.08954 0.0
H1830 H 0.76895 0.60711 0.03069 0.0
H1831 H 0.86316 0.63146 0.11443 0.0
H1832 H 0.84448 0.81918 0.17365 0.0
H1833 H 0.8067 0.70908 0.17164 0.0
H1834 H 0.93808 0.65241 0.03841 0.0
H1835 H 0.85872 0.56222 1.0019 0.0
H1836 H 0.74405 0.72926 0.95774 0.0
H1837 H 0.75091 0.74193 0.06793 0.0
H1838 H 0.69011 0.73654 0.95753 0.0
H1839 H 0.69663 0.74897 0.06583 0.0
H1840 H 0.76144 0.68414 0.92622 0.0
H1841 H 0.80929 0.60418 0.93764 0.0
H1842 H 0.73149 0.64391 0.87194 0.0
H1843 H 0.7786 0.56534 0.88323 0.0
H1844 H 0.83656 0.71536 0.85349 0.0
H1845 H 0.81974 0.81586 0.90086 0.0
H1846 H 0.68214 0.63844 0.05977 0.0
H1847 H 0.6784 0.57118 0.95843 0.0
Li1848 Li 0.91919 0.50398 0.82567 0.0
Li1849 Li 0.96532 0.5481 0.85064 0.0
Li1850 Li 0.92536 0.56202 0.81301 0.0
Li1851 Li 0.95788 0.52231 0.79063 0.0
C1852 C 0.89764 0.53897 0.87658 0.0
N1853 N 0.84836 0.5142 0.91068 0.0
C1854 C 0.90305 0.53665 0.91085 0.0
C1855 C 0.86711 0.52929 0.85987 0.0
C1856 C 0.87785 0.52391 0.92759 0.0
C1857 C 0.84252 0.51663 0.87748 0.0
C1858 C 0.99041 0.49117 0.82955 0.0
C1859 C 0.04589 0.50811 0.82763 0.0
N1860 N 0.04844 0.47727 0.83555 0.0
C1861 C 0.99361 0.45953 0.83747 0.0
C1862 C 0.01679 0.51558 0.82442 0.0
C1863 C 0.02314 0.45305 0.84049 0.0
C1864 C 0.90724 0.44324 0.84761 0.0
N1865 N 0.89236 0.46188 0.83043 0.0
C1866 C 0.85422 0.40923 0.80078 0.0
C1867 C 0.86544 0.44616 0.80869 0.0
C1868 C 0.87178 0.38912 0.81455 0.0
C1869 C 0.89778 0.40641 0.83926 0.0
H1870 H 0.92872 0.45665 0.86445 0.0
H1871 H 0.85475 0.46169 0.79463 0.0
C1872 C 0.025 0.58099 0.89607 0.0
N1873 N 0.99568 0.55908 0.88982 0.0
C1874 C 0.04664 0.57833 0.92204 0.0
C1875 C 1.00761 0.5303 0.93359 0.0
C1876 C 0.98682 0.53426 0.90809 0.0
C1877 C 0.03796 0.55247 0.94094 0.0
H1878 H 0.03225 0.59919 0.88004 0.0
H1879 H 0.96406 0.51589 0.90115 0.0
C1880 C 0.90812 0.50863 0.74564 0.0
N1881 N 0.90327 0.49559 0.6744 0.0
C1882 C 0.89081 0.47579 0.72532 0.0
C1883 C 0.92272 0.53494 0.72972 0.0
C1884 C 0.88839 0.46987 0.68933 0.0
C1885 C 0.92038 0.52763 0.6937 0.0
C1886 C 0.99106 0.60636 0.82811 0.0
C1887 C 0.98217 0.62778 0.8562 0.0
C1888 C 0.01991 0.61809 0.81699 0.0
C1889 C 1.00212 0.66082 0.87242 0.0
C1890 C 0.03922 0.65129 0.83392 0.0
N1891 N 0.02998 0.67179 0.86103 0.0
C1892 C 0.87505 0.57474 0.77829 0.0
C1893 C 0.91514 0.6275 0.80031 0.0
C1894 C 0.86061 0.59121 0.75675 0.0
N1895 N 0.9026 0.59246 0.79821 0.0
C1896 C 0.90121 0.6452 0.7794 0.0
C1897 C 0.87445 0.62634 0.75633 0.0
H1898 H 0.86557 0.54689 0.77695 0.0
H1899 H 0.93707 0.64104 0.81606 0.0
C1900 C 0.96625 0.46802 0.7386 0.0
N1901 N 0.97616 0.50358 0.75232 0.0
C1902 C 0.97772 0.45254 0.70923 0.0
C1903 C 1.01046 0.51046 0.70993 0.0
C1904 C 0.9979 0.52487 0.73885 0.0
C1905 C 0.99995 0.47392 0.69433 0.0
H1906 H 0.94887 0.45188 0.75012 0.0
H1907 H 1.00514 0.55302 0.75032 0.0
O1908 O 0.92205 0.551 0.85956 0.0
O1909 O 0.96168 0.49832 0.82751 0.0
O1910 O 0.91189 0.5146 0.78093 0.0
O1911 O 0.97191 0.57381 0.81212 0.0
H1912 H 0.92641 0.54486 0.92455 0.0
H1913 H 0.86249 0.53107 0.83342 0.0
H1914 H 0.88173 0.52183 0.95405 0.0
H1915 H 0.8188 0.5087 0.86474 0.0
H1916 H 0.06647 0.52689 0.82394 0.0
H1917 H 0.97355 0.44017 0.84141 0.0
H1918 H 0.01495 0.5402 0.81833 0.0
H1919 H 0.02599 0.42882 0.84683 0.0
H1920 H 0.83448 0.39653 0.781 0.0
H1921 H 0.912 0.39151 0.8499 0.0
H1922 H 0.06993 0.59574 0.92681 0.0
H1923 H 1.00001 0.50932 0.94674 0.0
H1924 H 0.87951 0.45504 0.73719 0.0
H1925 H 0.93651 0.56037 0.74507 0.0
H1926 H 0.87479 0.44481 0.67325 0.0
H1927 H 0.93235 0.54733 0.6811 0.0
H1928 H 0.9601 0.61895 0.86541 0.0
H1929 H 0.02742 0.60181 0.7956 0.0
H1930 H 0.99548 0.67769 0.89412 0.0
H1931 H 0.06154 0.66076 0.8255 0.0
H1932 H 0.83992 0.57607 0.73911 0.0
H1933 H 0.9124 0.67242 0.77942 0.0
H1934 H 0.96866 0.42442 0.69787 0.0
H1935 H 0.02802 0.52785 0.69975 0.0
Li1936 Li 0.88017 0.47301 0.53075 0.0
Li1937 Li 0.86207 0.51863 0.51035 0.0
Li1938 Li 0.86467 0.46362 0.46808 0.0
Li1939 Li 0.91054 0.50599 0.49372 0.0
C1940 C 0.81409 0.45801 0.52441 0.0
N1941 N 0.76447 0.43922 0.56035 0.0
C1942 C 0.8119 0.47993 0.55605 0.0
C1943 C 0.79101 0.42647 0.51112 0.0
C1944 C 0.78669 0.46996 0.57385 0.0
C1945 C 0.7661 0.41747 0.52963 0.0
C1946 C 0.90574 0.54921 0.57096 0.0
C1947 C 0.93012 0.60807 0.60545 0.0
N1948 N 0.91485 0.60008 0.6321 0.0
C1949 C 0.89103 0.54124 0.59902 0.0
C1950 C 0.92564 0.5828 0.57423 0.0
C1951 C 0.89547 0.56752 0.6295 0.0
C1952 C 0.91542 0.45669 0.58194 0.0
N1953 N 0.8857 0.44908 0.56614 0.0
C1954 C 0.87026 0.40079 0.59292 0.0
C1955 C 0.8631 0.422 0.57144 0.0
C1956 C 0.90101 0.40732 0.60871 0.0
C1957 C 0.92365 0.43605 0.60348 0.0
H1958 H 0.93303 0.47793 0.57659 0.0
H1959 H 0.83993 0.41563 0.55771 0.0
C1960 C 0.80566 0.53568 0.51043 0.0
N1961 N 0.83614 0.5508 0.52262 0.0
C1962 C 0.78268 0.55183 0.52256 0.0
C1963 C 0.82298 0.60166 0.55611 0.0
C1964 C 0.84525 0.58369 0.54432 0.0
C1965 C 0.79087 0.58522 0.54635 0.0
H1966 H 0.79897 0.50975 0.49279 0.0
H1967 H 0.86963 0.59574 0.55329 0.0
C1968 C 0.89931 0.42032 0.49075 0.0
N1969 N 0.89627 0.35003 0.48984 0.0
C1970 C 0.92665 0.40897 0.4939 0.0
C1971 C 0.87044 0.39594 0.48757 0.0
C1972 C 0.92462 0.37332 0.49331 0.0
C1973 C 0.86938 0.36052 0.487 0.0
C1974 C 0.89516 0.54079 0.45278 0.0
C1975 C 0.90759 0.53382 0.42162 0.0
C1976 C 0.90306 0.57529 0.47369 0.0
C1977 C 0.92801 0.5615 0.41208 0.0
C1978 C 0.92351 0.60224 0.46322 0.0
N1979 N 0.93548 0.59483 0.43291 0.0
C1980 C 0.82624 0.40481 0.41626 0.0
C1981 C 0.87848 0.42931 0.4088 0.0
C1982 C 0.82394 0.3766 0.38795 0.0
N1983 N 0.85351 0.42997 0.42632 0.0
C1984 C 0.87733 0.40139 0.38079 0.0
C1985 C 0.85002 0.37406 0.37063 0.0
H1986 H 0.80671 0.40617 0.43061 0.0
H1987 H 0.89971 0.44994 0.41748 0.0
C1988 C 0.96091 0.48967 0.4651 0.0
N1989 N 0.95153 0.51787 0.48266 0.0
C1990 C 0.99241 0.49097 0.46559 0.0
C1991 C 1.0039 0.55214 0.49732 0.0
C1992 C 0.97211 0.54954 0.49664 0.0
C1993 C 0.01423 0.52169 0.48418 0.0
H1994 H 0.94416 0.46485 0.45375 0.0
H1995 H 0.96414 0.57183 0.50971 0.0
O1996 O 0.83815 0.46764 0.50599 0.0
O1997 O 0.90166 0.5239 0.54082 0.0
O1998 O 0.90101 0.45531 0.49166 0.0
O1999 O 0.87607 0.5139 0.46336 0.0
H2000 H 0.82904 0.50476 0.5664 0.0
H2001 H 0.79225 0.4091 0.48673 0.0
H2002 H 0.78467 0.48681 0.59826 0.0
H2003 H 0.74806 0.39318 0.51955 0.0
H2004 H 0.94572 0.63401 0.60845 0.0
H2005 H 0.87657 0.51501 0.59748 0.0
H2006 H 0.9373 0.58947 0.5529 0.0
H2007 H 0.88381 0.56182 0.65123 0.0
H2008 H 0.8522 0.37861 0.59597 0.0
H2009 H 0.9475 0.44219 0.61554 0.0
H2010 H 0.75879 0.53689 0.5143 0.0
H2011 H 0.83111 0.62775 0.5733 0.0
H2012 H 0.94924 0.42752 0.497 0.0
H2013 H 0.84904 0.40423 0.48586 0.0
H2014 H 0.9456 0.3642 0.49568 0.0
H2015 H 0.84717 0.34141 0.48443 0.0
H2016 H 0.9017 0.50732 0.40507 0.0
H2017 H 0.89388 0.58107 0.498 0.0
H2018 H 0.93796 0.55647 0.38815 0.0
H2019 H 0.93 0.629 0.4793 0.0
H2020 H 0.80188 0.35777 0.37943 0.0
H2021 H 0.89769 0.401 0.3675 0.0
H2022 H 0.99947 0.46707 0.45472 0.0
H2023 H 0.01969 0.57677 0.51084 0.0
Li2024 Li 0.68908 0.52576 0.31117 0.0
Li2025 Li 0.73338 0.56268 0.27788 0.0
Li2026 Li 0.68603 0.5209 0.23181 0.0
Li2027 Li 0.73199 0.48907 0.27116 0.0
C2028 C 0.68176 0.59286 0.28728 0.0
N2029 N 0.6729 0.66015 0.30865 0.0
C2030 C 0.69222 0.61246 0.32123 0.0
C2031 C 0.66654 0.60733 0.26421 0.0
C2032 C 0.6876 0.64647 0.33152 0.0
C2033 C 0.66236 0.64147 0.27553 0.0
C2034 C 0.76553 0.54929 0.3359 0.0
C2035 C 0.82083 0.55684 0.34922 0.0
N2036 N 0.82163 0.58423 0.37654 0.0
C2037 C 0.7669 0.57754 0.36405 0.0
C2038 C 0.79269 0.53888 0.32833 0.0
C2039 C 0.79549 0.59486 0.38431 0.0
C2040 C 0.67544 0.55459 0.39143 0.0
N2041 N 0.66294 0.52918 0.36109 0.0
C2042 C 0.61885 0.50949 0.39411 0.0
C2043 C 0.63454 0.50683 0.3631 0.0
C2044 C 0.63124 0.53546 0.42578 0.0
C2045 C 0.66054 0.55798 0.42289 0.0
H2046 H 0.69754 0.57309 0.39195 0.0
H2047 H 0.6233 0.4862 0.34044 0.0
C2048 C 0.74786 0.63689 0.26072 0.0
N2049 N 0.7609 0.61748 0.27957 0.0
C2050 C 0.76268 0.67283 0.2605 0.0
C2051 C 0.80587 0.67003 0.29772 0.0
C2052 C 0.78992 0.63414 0.29782 0.0
C2053 C 0.79247 0.69084 0.27906 0.0
H2054 H 0.72555 0.62456 0.24521 0.0
H2055 H 0.80121 0.61981 0.3128 0.0
C2056 C 0.66906 0.44563 0.26044 0.0
N2057 N 0.65044 0.37278 0.25022 0.0
C2058 C 0.65847 0.42428 0.22716 0.0
C2059 C 0.67005 0.43001 0.28855 0.0
C2060 C 0.64911 0.38746 0.22254 0.0
C2061 C 0.66054 0.39308 0.28283 0.0
C2062 C 0.75848 0.53831 0.21966 0.0
C2063 C 0.78738 0.53064 0.22441 0.0
C2064 C 0.75494 0.56316 0.20071 0.0
C2065 C 0.81236 0.54799 0.20998 0.0
C2066 C 0.78049 0.57998 0.18673 0.0
N2067 N 0.80842 0.5721 0.19161 0.0
C2068 C 0.63168 0.53316 0.17407 0.0
C2069 C 0.67529 0.52175 0.14997 0.0
C2070 C 0.61815 0.53744 0.14104 0.0
N2071 N 0.6603 0.52519 0.1791 0.0
C2072 C 0.66278 0.52607 0.11702 0.0
C2073 C 0.63352 0.53435 0.1107 0.0
H2074 H 0.61859 0.53657 0.1958 0.0
H2075 H 0.69775 0.51567 0.15178 0.0
C2076 C 0.76692 0.43194 0.30197 0.0
N2077 N 0.75804 0.44059 0.27148 0.0
C2078 C 0.78186 0.40304 0.30396 0.0
C2079 C 0.78027 0.38958 0.24362 0.0
C2080 C 0.7653 0.41887 0.24256 0.0
C2081 C 0.79016 0.38042 0.27485 0.0
H2082 H 0.76203 0.4471 0.32592 0.0
H2083 H 0.75906 0.4233 0.21746 0.0
O2084 O 0.68636 0.55962 0.27695 0.0
O2085 O 0.73793 0.53211 0.31543 0.0
O2086 O 0.68085 0.48139 0.26519 0.0
O2087 O 0.73401 0.52225 0.23432 0.0
H2088 H 0.70392 0.60155 0.33936 0.0
H2089 H 0.6583 0.59251 0.23782 0.0
H2090 H 0.6957 0.66198 0.3577 0.0
H2091 H 0.65079 0.65317 0.25806 0.0
H2092 H 0.84202 0.54904 0.3437 0.0
H2093 H 0.7462 0.58615 0.37009 0.0
H2094 H 0.79203 0.51714 0.30652 0.0
H2095 H 0.7969 0.61679 0.40616 0.0
H2096 H 0.59677 0.49066 0.39304 0.0
H2097 H 0.67234 0.5788 0.44519 0.0
H2098 H 0.75067 0.68633 0.24522 0.0
H2099 H 0.82859 0.68153 0.31275 0.0
H2100 H 0.658 0.436 0.20509 0.0
H2101 H 0.67861 0.44623 0.31441 0.0
H2102 H 0.64115 0.37053 0.19692 0.0
H2103 H 0.66131 0.38054 0.30428 0.0
H2104 H 0.79049 0.51155 0.23916 0.0
H2105 H 0.73278 0.56967 0.19717 0.0
H2106 H 0.83488 0.54233 0.21343 0.0
H2107 H 0.77813 0.59937 0.1721 0.0
H2108 H 0.59554 0.5432 0.13958 0.0
H2109 H 0.67662 0.52268 0.09592 0.0
H2110 H 0.78646 0.39803 0.32919 0.0
H2111 H 0.78349 0.37354 0.21928 0.0
Tb2112 Tb 0.05317 0.0214 1.00286 0.0
C2113 C 0.13477 0.15063 0.10101 0.0
C2114 C 0.13866 0.19602 0.06879 0.0
C2115 C 0.14502 0.2127 0.13155 0.0
C2116 C 0.1331 0.15993 0.06982 0.0
C2117 C 0.14147 0.17695 0.13233 0.0
C2118 C 0.14372 0.22225 0.0998 0.0
C2119 C 0.14414 0.13122 0.16258 0.0
N2120 N 0.1319 0.11593 0.10055 0.0
C2121 C 0.13781 0.10619 0.13087 0.0
C2122 C 0.14557 0.16671 0.16338 0.0
Tb2123 Tb 0.12079 0.0765 0.04706 0.0
N2124 N 0.12846 0.13381 0.04054 0.0
C2125 C 0.13218 0.14257 0.00946 0.0
C2126 C 0.14029 0.20475 0.03678 0.0
C2127 C 0.13765 0.17794 1.00704 0.0
H2128 H 0.13692 0.07894 0.13092 0.0
H2129 H 0.13962 0.18442 0.98219 0.0
H2130 H 0.14763 0.25005 0.09951 0.0
H2131 H 0.14803 0.12312 0.1864 0.0
H2132 H 0.13023 0.12237 0.9861 0.0
H2133 H 0.03582 0.90788 0.06001 0.0
H2134 H 0.14452 0.23212 0.0349 0.0
H2135 H 0.02946 0.02141 0.92008 0.0
H2136 H 0.04229 0.97068 0.06005 0.0
H2137 H 0.02046 0.97989 0.86331 0.0
H2138 H 0.14976 0.23322 0.15532 0.0
H2139 H 0.03631 0.86425 1.00583 0.0
H2140 H 0.03597 0.85087 0.94164 0.0
H2141 H 0.15075 0.18611 0.18797 0.0
H2142 H 0.03187 0.87073 0.88771 0.0
N2143 N 0.04831 0.96378 1.00664 0.0
C2144 C 0.0429 0.95233 0.03617 0.0
C2145 C 0.03935 0.89198 1.00572 0.0
C2146 C 0.04179 0.9032 0.97493 0.0
C2147 C 0.03896 0.91649 0.03628 0.0
C2148 C 0.04563 0.93963 0.97609 0.0
H2149 H 0.02505 0.91847 0.85827 0.0
N2150 N 0.04194 0.98509 0.94778 0.0
C2151 C 0.02705 0.97147 0.8862 0.0
C2152 C 0.04248 0.95068 0.94563 0.0
C2153 C 0.03251 0.99512 0.91868 0.0
C2154 C 0.02974 0.93685 0.88345 0.0
C2155 C 0.03659 0.92574 0.91341 0.0
O2156 O 1.00771 0.98884 0.99732 0.0
O2157 O 0.07599 0.07862 0.02127 0.0
O2158 O 0.08565 0.08322 0.08548 0.0
O2159 O 0.04805 0.03153 0.06107 0.0
O2160 O 0.05375 0.06132 0.97216 0.0
O2161 O 0.01557 0.04521 0.01154 0.0
O2162 O 0.16089 0.06644 0.06977 0.0
O2163 O 0.09807 0.01905 0.02775 0.0
O2164 O 0.08578 0.01911 0.96101 0.0
O2165 O 0.12898 0.06273 0.98991 0.0
O2166 O 0.11926 0.03564 0.07691 0.0
O2167 O 0.1634 0.09199 0.02739 0.0
C2168 C 0.06844 0.09007 0.99436 0.0
C2169 C 0.96578 1.01218 0.98237 0.0
C2170 C 0.91469 0.02488 0.97797 0.0
C2171 C 0.9436 0.02865 0.99711 0.0
C2172 C 0.90856 1.00487 0.94352 0.0
C2173 C 0.95881 0.99144 0.94827 0.0
C2174 C 0.93044 0.98816 0.92888 0.0
C2175 C 0.05961 0.05946 0.08827 0.0
C2176 C 0.99485 1.01507 1.00413 0.0
C2177 C 0.03591 0.89011 0.91222 0.0
C2178 C 0.03835 0.87882 0.94295 0.0
C2179 C 0.10537 1.00712 0.05432 0.0
C2180 C 0.21075 0.09971 0.06351 0.0
C2181 C 0.23485 0.08978 0.0463 0.0
C2182 C 0.26612 0.10123 0.0621 0.0
C2183 C 0.2727 0.12567 0.09464 0.0
C2184 C 0.21789 0.1242 0.09559 0.0
C2185 C 0.24888 0.13755 0.11077 0.0
C2186 C 0.11449 0.03909 0.96055 0.0
C2187 C 0.17865 0.07993 0.04909 0.0
H2188 H 0.94889 0.04436 0.02356 0.0
H2189 H 0.88662 1.00161 0.9281 0.0
H2190 H 0.97491 0.97728 0.93678 0.0
H2191 H 0.9252 0.97223 0.90256 0.0
H2192 H 0.22856 0.07184 0.02098 0.0
H2193 H 0.29595 0.13484 0.10847 0.0
H2194 H 0.19961 0.13222 0.10924 0.0
H2195 H 0.25437 0.1561 0.13584 0.0
Tb2196 Tb 0.36215 0.80121 0.2395 0.0
C2197 C 0.27125 0.85209 0.33257 0.0
C2198 C 0.30424 0.89863 0.37831 0.0
C2199 C 0.25151 0.90143 0.36091 0.0
C2200 C 0.29957 0.86679 0.35273 0.0
C2201 C 0.24649 0.86856 0.33703 0.0
C2202 C 0.28041 0.9165 0.3815 0.0
C2203 C 0.21305 0.81712 0.29675 0.0
N2204 N 0.26741 0.82028 0.3101 0.0
C2205 C 0.23836 0.80188 0.2933 0.0
C2206 C 0.21724 0.85089 0.31828 0.0
Tb2207 Tb 0.31069 0.79822 0.30453 0.0
N2208 N 0.32164 0.84829 0.34914 0.0
C2209 C 0.34776 0.85843 0.37294 0.0
C2210 C 0.33208 0.9106 0.40089 0.0
C2211 C 0.35358 0.88992 0.39873 0.0
H2212 H 0.23492 0.77593 0.2763 0.0
H2213 H 0.37479 0.89833 0.41674 0.0
H2214 H 0.2837 0.94126 0.40066 0.0
H2215 H 0.19038 0.80289 0.28267 0.0
H2216 H 0.36488 0.84315 0.37165 0.0
H2217 H 0.29748 0.69716 0.13037 0.0
H2218 H 0.33664 0.93495 0.42088 0.0
H2219 H 0.43859 0.82697 0.26372 0.0
H2220 H 0.30722 0.75329 0.17408 0.0
H2221 H 0.48411 0.80199 0.25579 0.0
H2222 H 0.23294 0.91479 0.36444 0.0
H2223 H 0.33659 0.66177 0.12644 0.0
H2224 H 0.39058 0.65771 0.14563 0.0
H2225 H 0.19759 0.86261 0.32095 0.0
H2226 H 0.44205 0.68681 0.17959 0.0
N2227 N 0.35136 0.75001 0.19607 0.0
C2228 C 0.32477 0.73859 0.17287 0.0
C2229 C 0.34107 0.68656 0.14582 0.0
C2230 C 0.36935 0.69984 0.16759 0.0
C2231 C 0.31904 0.70654 0.14785 0.0
C2232 C 0.3739 0.73223 0.19238 0.0
H2233 H 0.47749 0.74135 0.21995 0.0
N2234 N 0.40614 0.78076 0.23261 0.0
C2235 C 0.46122 0.78647 0.24344 0.0
C2236 C 0.40255 0.74838 0.21125 0.0
C2237 C 0.4353 0.80055 0.24774 0.0
C2238 C 0.45739 0.75218 0.22321 0.0
C2239 C 0.42785 0.73289 0.20628 0.0
O2240 O 0.39171 0.84758 0.23184 0.0
O2241 O 0.344 0.83048 0.28148 0.0
O2242 O 0.29115 0.82474 0.26772 0.0
O2243 O 0.31419 0.80511 0.21921 0.0
O2244 O 0.39091 0.8447 0.28028 0.0
O2245 O 0.3545 0.81563 0.19238 0.0
O2246 O 0.27794 0.75386 0.31159 0.0
O2247 O 0.3294 0.76889 0.26319 0.0
O2248 O 0.38401 0.77741 0.27761 0.0
O2249 O 0.35778 0.79235 0.32518 0.0
O2250 O 0.28254 0.75439 0.26353 0.0
O2251 O 0.31718 0.78165 0.35049 0.0
C2252 C 0.36881 0.85214 0.29702 0.0
C2253 C 0.3977 0.85135 0.17454 0.0
C2254 C 0.40951 0.88416 0.1302 0.0
C2255 C 0.38997 0.8732 0.15395 0.0
C2256 C 0.43689 0.87243 0.12694 0.0
C2257 C 0.42487 0.83948 0.17083 0.0
C2258 C 0.44437 0.85002 0.14703 0.0
C2259 C 0.29186 0.81857 0.23371 0.0
C2260 C 0.37781 0.84366 0.20103 0.0
C2261 C 0.42304 0.69944 0.18345 0.0
C2262 C 0.39374 0.68286 0.16414 0.0
C2263 C 0.30499 0.74654 0.24769 0.0
C2264 C 0.27187 0.75154 0.3691 0.0
C2265 C 0.27671 0.72809 0.3891 0.0
C2266 C 0.25847 0.72239 0.41546 0.0
C2267 C 0.23464 0.74 0.42117 0.0
C2268 C 0.24827 0.76931 0.37507 0.0
C2269 C 0.22959 0.76332 0.40095 0.0
C2270 C 0.38141 0.78106 0.3113 0.0
C2271 C 0.29178 0.75608 0.34206 0.0
H2272 H 0.36896 0.88233 0.15707 0.0
H2273 H 0.45226 0.88017 0.10856 0.0
H2274 H 0.43117 0.82248 0.18642 0.0
H2275 H 0.46543 0.841 0.1443 0.0
H2276 H 0.2947 0.71404 0.38392 0.0
H2277 H 0.22032 0.7362 0.44153 0.0
H2278 H 0.24423 0.78761 0.35987 0.0
H2279 H 0.21132 0.77695 0.40552 0.0
Tb2280 Tb 0.62384 0.05313 0.50834 0.0
C2281 C 0.52769 1.01202 0.60674 0.0
C2282 C 0.49631 0.95224 0.58256 0.0
C2283 C 0.50451 0.9761 0.64484 0.0
C2284 C 0.5151 0.98443 0.57847 0.0
C2285 C 0.52264 1.00836 0.64034 0.0
C2286 C 0.49128 0.94809 0.61596 0.0
C2287 C 0.55315 0.06893 0.66215 0.0
N2288 N 0.54497 0.04262 0.60113 0.0
C2289 C 0.55728 0.07129 0.62824 0.0
C2290 C 0.5358 0.0373 0.66826 0.0
Tb2291 Tb 0.55031 0.04404 0.54474 0.0
N2292 N 0.52059 0.9896 0.5468 0.0
C2293 C 0.50671 0.964 0.51774 0.0
C2294 C 0.48272 0.92553 0.55294 0.0
C2295 C 0.48772 0.93157 0.52035 0.0
H2296 H 0.57106 0.09571 0.6239 0.0
H2297 H 0.47711 0.91121 0.49725 0.0
H2298 H 0.47701 0.92351 0.61971 0.0
H2299 H 0.56337 0.09149 0.68355 0.0
H2300 H 0.51049 0.96841 0.49243 0.0
H2301 H 0.6945 0.18726 0.55552 0.0
H2302 H 0.46805 0.90046 0.55498 0.0
H2303 H 0.60428 1.00127 0.42892 0.0
H2304 H 0.66435 0.12846 0.56033 0.0
H2305 H 0.61103 1.00617 0.36936 0.0
H2306 H 0.50034 0.97267 0.67044 0.0
H2307 H 0.70076 0.19946 0.49784 0.0
H2308 H 0.69108 0.17669 0.43296 0.0
H2309 H 0.53258 0.03557 0.69453 0.0
H2310 H 0.66871 0.12716 0.38224 0.0
N2311 N 0.65246 0.10811 0.50607 0.0
C2312 C 0.6666 0.13363 0.53503 0.0
C2313 C 0.68733 0.17372 0.49983 0.0
C2314 C 0.67407 0.14685 0.47022 0.0
C2315 C 0.68386 0.16691 0.53241 0.0
C2316 C 0.65678 0.11391 0.47437 0.0
H2317 H 0.63893 0.06327 0.35825 0.0
N2318 N 0.62873 0.05499 0.45183 0.0
C2319 C 0.62055 0.02894 0.39074 0.0
C2320 C 0.64467 0.0862 0.44612 0.0
C2321 C 0.61705 0.02619 0.42467 0.0
C2322 C 0.63633 0.06122 0.38456 0.0
C2323 C 0.64879 0.09036 0.41247 0.0
O2324 O 0.65258 0.01756 0.49842 0.0
O2325 O 0.58221 1.01625 0.51828 0.0
O2326 O 0.58437 0.03136 0.57937 0.0
O2327 O 0.62611 0.06892 0.56448 0.0
O2328 O 0.61022 0.99502 0.48785 0.0
O2329 O 0.66667 0.06405 0.54 0.0
O2330 O 0.52242 0.08059 0.55438 0.0
O2331 O 0.59211 0.08026 0.53503 0.0
O2332 O 0.5893 0.0655 0.47396 0.0
O2333 O 0.54796 0.02749 0.48875 0.0
O2334 O 0.56417 0.10279 0.56453 0.0
O2335 O 0.50742 0.03364 0.51337 0.0
C2336 C 0.5859 0.98589 0.5025 0.0
C2337 C 0.7069 0.03999 0.51659 0.0
C2338 C 0.75508 0.01958 0.51744 0.0
C2339 C 0.72403 1.01628 0.52484 0.0
C2340 C 0.76874 0.0475 0.50257 0.0
C2341 C 0.72119 0.06731 0.50159 0.0
C2342 C 0.75197 0.07111 0.49484 0.0
C2343 C 0.61434 0.04782 0.58425 0.0
C2344 C 0.67419 0.03589 0.52364 0.0
C2345 C 0.66533 0.12333 0.4079 0.0
C2346 C 0.678 0.15154 0.43676 0.0
C2347 C 0.58869 0.11086 0.54993 0.0
C2348 C 0.46797 0.05957 0.53629 0.0
C2349 C 0.45123 0.08274 0.52603 0.0
C2350 C 0.41972 0.07963 0.53167 0.0
C2351 C 0.40562 0.05318 0.54809 0.0
C2352 C 0.45316 0.03361 0.55257 0.0
C2353 C 0.4222 0.0305 0.55841 0.0
C2354 C 0.5594 0.04876 0.46908 0.0
C2355 C 0.50059 0.06243 0.52932 0.0
H2356 H 0.71301 0.99493 0.5362 0.0
H2357 H 0.79259 0.05117 0.49695 0.0
H2358 H 0.70858 0.08573 0.49509 0.0
H2359 H 0.76287 0.09238 0.48337 0.0
H2360 H 0.46258 0.10272 0.51325 0.0
H2361 H 0.38178 0.05031 0.55353 0.0
H2362 H 0.4655 1.01569 0.5607 0.0
H2363 H 0.41098 1.01042 0.57109 0.0
Tb2364 Tb 0.29746 0.30914 0.77102 0.0
C2365 C 0.39927 0.25724 0.83403 0.0
C2366 C 0.41957 0.30362 0.88596 0.0
C2367 C 0.42229 0.24318 0.88478 0.0
C2368 C 0.40449 0.29218 0.85164 0.0
C2369 C 0.40903 0.23251 0.84995 0.0
C2370 C 0.42756 0.27872 0.90278 0.0
C2371 C 0.3959 0.19009 0.79466 0.0
N2372 N 0.3872 0.2483 0.80024 0.0
C2373 C 0.38696 0.21574 0.77997 0.0
C2374 C 0.40649 0.19831 0.82996 0.0
Tb2375 Tb 0.37198 0.2917 0.77868 0.0
N2376 N 0.39655 0.31538 0.83438 0.0
C2377 C 0.40542 0.35106 0.84934 0.0
C2378 C 0.42697 0.33983 0.90198 0.0
C2379 C 0.42029 0.3637 0.88336 0.0
H2380 H 0.37858 0.20911 0.75267 0.0
H2381 H 0.42646 0.39187 0.89524 0.0
H2382 H 0.43869 0.28688 0.9293 0.0
H2383 H 0.39465 0.16404 0.77875 0.0
H2384 H 0.40029 0.37012 0.83579 0.0
H2385 H 0.2371 0.21746 0.65193 0.0
H2386 H 0.43844 0.34969 0.92833 0.0
H2387 H 0.28905 0.39024 0.80311 0.0
H2388 H 0.26341 0.23452 0.71131 0.0
H2389 H 0.27519 0.43873 0.78114 0.0
H2390 H 0.42956 0.22448 0.89763 0.0
H2391 H 0.23055 0.26353 0.62136 0.0
H2392 H 0.23536 0.32805 0.62367 0.0
H2393 H 0.41368 0.17852 0.84122 0.0
H2394 H 0.24571 0.38909 0.65935 0.0
N2395 N 0.27297 0.29032 0.71492 0.0
C2396 C 0.2609 0.25525 0.69874 0.0
C2397 C 0.24247 0.27131 0.64746 0.0
C2398 C 0.25257 0.30704 0.66493 0.0
C2399 C 0.24586 0.24527 0.66478 0.0
C2400 C 0.26739 0.31566 0.69924 0.0
H2401 H 0.25966 0.43045 0.71855 0.0
N2402 N 0.28278 0.35507 0.75325 0.0
C2403 C 0.27451 0.41383 0.76337 0.0
C2404 C 0.27258 0.34953 0.71926 0.0
C2405 C 0.28216 0.38615 0.77573 0.0
C2406 C 0.26597 0.40914 0.72802 0.0
C2407 C 0.264 0.37632 0.70559 0.0
O2408 O 0.26687 0.32413 0.80634 0.0
O2409 O 0.33416 0.30323 0.80747 0.0
O2410 O 0.33921 0.24357 0.7891 0.0
O2411 O 0.29165 0.25015 0.76718 0.0
O2412 O 0.31435 0.34451 0.82194 0.0
O2413 O 0.25531 0.27244 0.77271 0.0
O2414 O 0.40114 0.27359 0.74309 0.0
O2415 O 0.33517 0.29743 0.7425 0.0
O2416 O 0.33016 0.35915 0.7642 0.0
O2417 O 0.37887 0.34949 0.77711 0.0
O2418 O 0.35401 0.2552 0.72806 0.0
O2419 O 0.41563 0.32557 0.77656 0.0
C2420 C 0.33394 0.32896 0.83288 0.0
C2421 C 0.21304 0.29632 0.78904 0.0
C2422 C 0.16005 0.29013 0.80557 0.0
C2423 C 0.19162 0.28955 0.81284 0.0
C2424 C 0.15069 0.29806 0.77433 0.0
C2425 C 0.20274 0.30396 0.75818 0.0
C2426 C 0.17185 0.3049 0.75097 0.0
C2427 C 0.30867 0.23015 0.77863 0.0
C2428 C 0.24574 0.29432 0.79595 0.0
C2429 C 0.25205 0.36878 0.6705 0.0
C2430 C 0.24623 0.33406 0.65017 0.0
C2431 C 0.33449 0.27109 0.71743 0.0
C2432 C 0.45581 0.29839 0.75805 0.0
C2433 C 0.47724 0.30625 0.73445 0.0
C2434 C 0.50818 0.30252 0.73967 0.0
C2435 C 0.51669 0.29022 0.76864 0.0
C2436 C 0.46559 0.28703 0.78688 0.0
C2437 C 0.49568 0.28279 0.79198 0.0
C2438 C 0.36124 0.37081 0.77002 0.0
C2439 C 0.42351 0.30249 0.75279 0.0
H2440 H 0.19939 0.28327 0.83658 0.0
H2441 H 0.127 0.29955 0.76807 0.0
H2442 H 0.21852 0.30899 0.7395 0.0
H2443 H 0.16423 0.31097 0.72708 0.0
H2444 H 0.46992 0.31568 0.71247 0.0
H2445 H 0.53958 0.28577 0.77322 0.0
H2446 H 0.45004 0.28144 0.80554 0.0
H2447 H 0.50277 0.27358 0.81419 0.0
Tb2448 Tb 0.07923 0.08566 0.54392 0.0
C2449 C 0.12471 0.98989 0.43702 0.0
C2450 C 0.0853 0.97701 0.38766 0.0
C2451 C 0.13874 0.97729 0.37865 0.0
C2452 C 0.09414 0.98659 0.4238 0.0
C2453 C 0.14713 0.9845 0.41451 0.0
C2454 C 0.10787 0.97346 0.36525 0.0
C2455 C 0.18379 0.98994 0.46417 0.0
N2456 N 0.13203 0.99632 0.47188 0.0
C2457 C 0.16083 0.99481 0.48549 0.0
C2458 C 0.17709 0.98533 0.4286 0.0
Tb2459 Tb 0.09282 1.00762 0.50375 0.0
N2460 N 0.07269 0.9899 0.44615 0.0
C2461 C 0.04159 0.98032 0.43363 0.0
C2462 C 0.05382 0.96977 0.37499 0.0
C2463 C 0.03182 0.97075 0.39804 0.0
H2464 H 0.16675 0.99811 0.51283 0.0
H2465 H 1.00727 0.96415 0.38843 0.0
H2466 H 0.10148 0.96662 0.33747 0.0
H2467 H 0.20667 0.98968 0.47523 0.0
H2468 H 0.02376 0.9804 0.4504 0.0
H2469 H 0.16512 0.13121 0.65828 0.0
H2470 H 0.04628 0.96218 0.34747 0.0
H2471 H 1.00437 0.08907 0.53438 0.0
H2472 H 0.14702 0.10972 0.59663 0.0
H2473 H 0.96497 0.10199 0.57114 0.0
H2474 H 0.15572 0.97345 0.36102 0.0
H2475 H 0.12775 0.14121 0.69981 0.0
H2476 H 0.07293 0.14175 0.71024 0.0
H2477 H 0.19492 0.98135 0.41215 0.0
H2478 H 0.01844 0.13401 0.68651 0.0
N2479 N 0.0989 0.10632 0.60176 0.0
C2480 C 0.12997 0.11377 0.61377 0.0
C2481 C 0.11947 0.1316 0.67249 0.0
C2482 C 0.08802 0.12555 0.6602 0.0
C2483 C 0.1406 0.1261 0.64911 0.0
C2484 C 0.07846 0.11309 0.62428 0.0
H2485 H 0.97809 0.11961 0.63471 0.0
N2486 N 0.04055 0.0986 0.57628 0.0
C2487 C 0.98829 0.10409 0.58278 0.0
C2488 C 0.04815 0.10911 0.61105 0.0
C2489 C 1.01104 0.0968 0.56192 0.0
C2490 C 0.99574 0.11391 0.61861 0.0
C2491 C 0.02606 0.11692 0.6332 0.0
O2492 O 0.0647 0.12717 0.52761 0.0
O2493 O 0.07787 0.05338 0.49009 0.0
O2494 O 0.13212 0.04816 0.49434 0.0
O2495 O 0.12903 0.09467 0.53798 0.0
O2496 O 0.04177 0.07417 0.50015 0.0
O2497 O 0.1128 0.1334 0.54638 0.0
O2498 O 0.09122 0.95322 0.48633 0.0
O2499 O 0.09549 0.04031 0.55694 0.0
O2500 O 0.04327 0.04387 0.55687 0.0
O2501 O 0.04282 1.00164 0.50765 0.0
O2502 O 0.13125 0.01861 0.54652 0.0
O2503 O 0.07302 0.9715 0.53277 0.0
C2504 C 0.0523 0.05736 0.47447 0.0
C2505 C 0.09835 0.18562 0.53905 0.0
C2506 C 0.11224 0.23968 0.51762 0.0
C2507 C 0.10633 0.20253 0.51225 0.0
C2508 C 0.11007 0.25959 0.55066 0.0
C2509 C 0.09635 0.20582 0.57169 0.0
C2510 C 0.10222 0.24274 0.57739 0.0
C2511 C 0.14399 0.0804 0.51375 0.0
C2512 C 0.09299 0.14691 0.53174 0.0
C2513 C 0.03508 0.12807 0.66907 0.0
C2514 C 0.06607 0.13243 0.68257 0.0
C2515 C 0.12127 0.03653 0.57222 0.0
C2516 C 0.09467 0.92261 0.53116 0.0
C2517 C 0.07834 0.90382 0.55336 0.0
C2518 C 0.09243 0.88294 0.57091 0.0
C2519 C 0.123 0.88105 0.56549 0.0
C2520 C 0.12515 0.92019 0.52653 0.0
C2521 C 0.13914 0.89956 0.54361 0.0
C2522 C 0.02968 1.01323 0.53498 0.0
C2523 C 0.07968 0.9446 0.51317 0.0
H2524 H 0.10843 0.18662 0.48728 0.0
H2525 H 0.11402 0.28817 0.55581 0.0
H2526 H 0.09035 0.19309 0.59257 0.0
H2527 H 0.1006 0.25839 0.60261 0.0
H2528 H 0.05488 0.90583 0.5572 0.0
H2529 H 0.13441 0.86471 0.57773 0.0
H2530 H 0.13818 0.93402 0.50957 0.0
H2531 H 0.16258 0.89771 0.53968 0.0
Tb2532 Tb 0.37205 0.82771 0.76391 0.0
C2533 C 0.30154 0.75723 0.86185 0.0
C2534 C 0.3233 0.70687 0.86031 0.0
C2535 C 0.30462 0.73329 0.91276 0.0
C2536 C 0.31605 0.73309 0.84465 0.0
C2537 C 0.2943 0.75665 0.89555 0.0
C2538 C 0.3191 0.70831 0.89509 0.0
C2539 C 0.26164 0.79617 0.88951 0.0
N2540 N 0.29105 0.77833 0.84371 0.0
C2541 C 0.26929 0.79545 0.856 0.0
C2542 C 0.27498 0.77755 0.9098 0.0
Tb2543 Tb 0.30543 0.77656 0.78921 0.0
N2544 N 0.31838 0.73188 0.81077 0.0
C2545 C 0.32317 0.70203 0.78998 0.0
C2546 C 0.33178 0.67833 0.83974 0.0
C2547 C 0.33048 0.67519 0.80415 0.0
H2548 H 0.2584 0.80954 0.84051 0.0
H2549 H 0.33525 0.65221 0.7876 0.0
H2550 H 0.3251 0.68885 0.9078 0.0
H2551 H 0.24535 0.81094 0.89956 0.0
H2552 H 0.32173 0.69899 0.76234 0.0
H2553 H 0.34728 0.95591 0.77314 0.0
H2554 H 0.33731 0.65746 0.85063 0.0
H2555 H 0.41102 0.78746 0.70576 0.0
H2556 H 0.35765 0.9062 0.79528 0.0
H2557 H 0.42042 0.78605 0.64568 0.0
H2558 H 0.29979 0.73282 0.93889 0.0
H2559 H 0.34667 0.95436 0.71086 0.0
H2560 H 0.35691 0.92424 0.65237 0.0
H2561 H 0.26874 0.7778 0.93557 0.0
H2562 H 0.37706 0.87759 0.61734 0.0
N2563 N 0.36146 0.87529 0.74581 0.0
C2564 C 0.35712 0.90464 0.76795 0.0
C2565 C 0.35103 0.93219 0.72038 0.0
C2566 C 0.35808 0.90353 0.6983 0.0
C2567 C 0.3515 0.93322 0.75555 0.0
C2568 C 0.36377 0.87546 0.71211 0.0
H2569 H 0.4014 0.82621 0.6148 0.0
N2570 N 0.38381 0.82539 0.70826 0.0
C2571 C 0.40731 0.8037 0.65838 0.0
C2572 C 0.37554 0.84966 0.69261 0.0
C2573 C 0.40155 0.80429 0.69246 0.0
C2574 C 0.39652 0.82639 0.64103 0.0
C2575 C 0.38129 0.85056 0.65849 0.0
O2576 O 0.41485 0.83141 0.79341 0.0
O2577 O 0.35473 0.77685 0.77979 0.0
O2578 O 0.32819 0.81459 0.83685 0.0
O2579 O 0.36288 0.85469 0.81435 0.0
O2580 O 0.39505 0.78257 0.76036 0.0
O2581 O 0.40839 0.87409 0.77185 0.0
O2582 O 0.26174 0.7719 0.76102 0.0
O2583 O 0.32291 0.82727 0.77304 0.0
O2584 O 0.34542 0.79379 0.71657 0.0
O2585 O 0.31506 0.75015 0.7388 0.0
O2586 O 0.2815 0.8206 0.78997 0.0
O2587 O 0.27142 0.72795 0.77794 0.0
C2588 C 0.37709 0.75976 0.7735 0.0
C2589 C 0.45692 0.86 0.76803 0.0
C2590 C 0.50786 0.8465 0.76516 0.0
C2591 C 0.48183 0.84946 0.78285 0.0
C2592 C 0.50797 0.85332 0.73197 0.0
C2593 C 0.45869 0.8686 0.73569 0.0
C2594 C 0.48375 0.86466 0.71763 0.0
C2595 C 0.348 0.84554 0.83974 0.0
C2596 C 0.42862 0.86053 0.78542 0.0
C2597 C 0.37316 0.87669 0.64365 0.0
C2598 C 0.36163 0.90321 0.66357 0.0
C2599 C 0.29996 0.84366 0.77756 0.0
C2600 C 0.22127 0.73683 0.78343 0.0
C2601 C 0.19542 0.74726 0.77068 0.0
C2602 C 0.16869 0.74481 0.78787 0.0
C2603 C 0.16853 0.73273 0.81851 0.0
C2604 C 0.21995 0.72359 0.81346 0.0
C2605 C 0.19395 0.72209 0.83106 0.0
C2606 C 0.32683 0.76222 0.71307 0.0
C2607 C 0.24983 0.74084 0.7662 0.0
H2608 H 0.48106 0.84424 0.80836 0.0
H2609 H 0.52696 0.85024 0.71708 0.0
H2610 H 0.44042 0.87773 0.72384 0.0
H2611 H 0.48439 0.87044 0.69236 0.0
H2612 H 0.19591 0.75645 0.74701 0.0
H2613 H 0.14852 0.73109 0.83257 0.0
H2614 H 0.23923 0.71494 0.82387 0.0
H2615 H 0.19345 0.71248 0.85446 0.0
Tb2616 Tb 0.57882 0.01809 0.05521 0.0
C2617 C 0.56178 0.13231 0.98024 0.0
C2618 C 0.52762 0.09795 0.92829 0.0
C2619 C 0.5261 0.15887 0.95223 0.0
C2620 C 0.55091 0.10091 0.95549 0.0
C2621 C 0.55009 0.16198 0.97849 0.0
C2622 C 0.51483 0.12686 0.9272 0.0
C2623 C 0.58812 0.19615 0.02731 0.0
N2624 N 0.58463 0.13408 1.00545 0.0
C2625 C 0.59878 0.1659 0.02815 0.0
C2626 C 0.56336 0.19406 1.00271 0.0
Tb2627 Tb 0.60063 0.08306 1.00434 0.0
N2628 N 0.564 0.0737 0.95737 0.0
C2629 C 0.55646 0.04363 0.93109 0.0
C2630 C 0.51845 0.06635 0.9026 0.0
C2631 C 0.53327 0.03927 0.90376 0.0
H2632 H 0.61782 0.16758 0.04741 0.0
H2633 H 0.52683 1.01499 0.88362 0.0
H2634 H 0.49675 0.125 0.90668 0.0
H2635 H 0.59895 0.22107 0.04556 0.0
H2636 H 0.56745 0.02225 0.93142 0.0
H2637 H 0.64416 0.10259 0.17595 0.0
H2638 H 0.50056 0.06295 0.88134 0.0
H2639 H 0.57131 0.93241 0.02127 0.0
H2640 H 0.60372 0.08546 0.12644 0.0
H2641 H 0.59849 0.88633 0.02881 0.0
H2642 H 0.51655 0.18124 0.95065 0.0
H2643 H 0.67822 0.0631 0.18378 0.0
H2644 H 0.69165 1.00483 0.1635 0.0
H2645 H 0.55511 0.21752 1.00218 0.0
H2646 H 0.67924 0.94583 0.12335 0.0
N2647 N 0.61387 0.03586 0.10513 0.0
C2648 C 0.61764 0.06723 0.12919 0.0
C2649 C 0.66016 0.05511 0.16184 0.0
C2650 C 0.65533 0.02239 0.13821 0.0
C2651 C 0.64091 0.07738 0.15756 0.0
C2652 C 0.63157 1.01336 0.11 0.0
H2653 H 0.64403 0.9011 0.07346 0.0
N2654 N 0.6014 0.97291 0.06128 0.0
C2655 C 0.6063 0.91284 0.04528 0.0
C2656 C 0.62503 0.98063 0.08728 0.0
C2657 C 0.59088 0.93891 0.04128 0.0
C2658 C 0.63207 0.92129 0.07047 0.0
C2659 C 0.64144 0.95538 0.09226 0.0
O2660 O 0.54012 0.97502 0.05161 0.0
O2661 O 0.5646 0.04403 0.01729 0.0
O2662 O 0.57114 0.10432 0.03996 0.0
O2663 O 0.56559 0.06763 0.07898 0.0
O2664 O 0.54674 0.99093 1.00788 0.0
O2665 O 0.55052 0.02069 0.09491 0.0
O2666 O 0.64228 0.12103 1.00472 0.0
O2667 O 0.61481 0.05622 0.04132 0.0
O2668 O 0.60669 0.99647 0.01781 0.0
O2669 O 0.60799 0.03127 0.97721 0.0
O2670 O 0.63551 0.10836 0.05011 0.0
O2671 O 0.62356 0.07733 0.9602 0.0
C2672 C 0.54519 0.01872 0.99695 0.0
C2673 C 0.52715 0.96561 0.10609 0.0
C2674 C 0.51093 0.95874 0.16174 0.0
C2675 C 0.51602 0.97868 0.13675 0.0
C2676 C 0.51629 0.92465 0.15512 0.0
C2677 C 0.53207 0.93134 0.09959 0.0
C2678 C 0.52662 0.91102 0.12408 0.0
C2679 C 0.56185 0.09623 0.06864 0.0
C2680 C 0.53317 0.98864 0.08177 0.0
C2681 C 0.66602 0.96466 0.11938 0.0
C2682 C 0.67304 0.9982 0.14227 0.0
C2683 C 0.63584 0.08024 0.06089 0.0
C2684 C 0.64869 0.13184 0.94915 0.0
C2685 C 0.65575 0.11918 0.91602 0.0
C2686 C 0.66054 0.14123 0.89284 0.0
C2687 C 0.65795 0.17632 0.90295 0.0
C2688 C 0.64628 0.16708 0.95907 0.0
C2689 C 0.65072 0.18907 0.93595 0.0
C2690 C 0.61304 1.00325 0.9877 0.0
C2691 C 0.64416 0.10754 0.97245 0.0
H2692 H 0.51108 1.00457 0.14095 0.0
H2693 H 0.51274 0.90865 0.17395 0.0
H2694 H 0.54 0.92019 0.07576 0.0
H2695 H 0.53056 0.8847 0.11906 0.0
H2696 H 0.6585 0.09233 0.90864 0.0
H2697 H 0.66189 0.19388 0.88553 0.0
H2698 H 0.64121 0.17781 0.98457 0.0
H2699 H 0.64894 0.2162 0.94379 0.0
Tb2700 Tb 0.35837 0.34341 0.29772 0.0
C2701 C 0.24407 0.26142 0.23946 0.0
C2702 C 0.21535 0.23582 0.28101 0.0
C2703 C 0.18884 0.25913 0.23955 0.0
C2704 C 0.24352 0.24589 0.26718 0.0
C2705 C 0.21644 0.26746 0.22483 0.0
C2706 C 0.18827 0.24308 0.26745 0.0
C2707 C 0.24344 0.28269 0.17815 0.0
N2708 N 0.27101 0.26809 0.22523 0.0
C2709 C 0.26985 0.27531 0.19307 0.0
C2710 C 0.21684 0.27977 0.19465 0.0
Tb2711 Tb 0.31433 0.25828 0.25431 0.0
N2712 N 0.27003 0.23859 0.27918 0.0
C2713 C 0.26847 0.21733 0.30232 0.0
C2714 C 0.21486 0.21755 0.30723 0.0
C2715 C 0.24144 0.20766 0.31745 0.0
H2716 H 0.28837 0.27411 0.17738 0.0
H2717 H 0.24095 0.19182 0.33639 0.0
H2718 H 0.16655 0.23498 0.27752 0.0
H2719 H 0.24333 0.28949 0.15331 0.0
H2720 H 0.2877 0.20664 0.30885 0.0
H2721 H 0.43403 0.40109 0.21219 0.0
H2722 H 0.19375 0.20958 0.3186 0.0
H2723 H 0.38252 0.33035 0.37649 0.0
H2724 H 0.38725 0.39064 0.24036 0.0
H2725 H 0.42707 0.31628 0.40337 0.0
H2726 H 0.16754 0.26349 0.22847 0.0
H2727 H 0.47998 0.38211 0.23185 0.0
H2728 H 0.50594 0.35838 0.27553 0.0
H2729 H 0.19621 0.28487 0.18272 0.0
H2730 H 0.50391 0.3344 0.32742 0.0
N2731 N 0.40317 0.35943 0.27219 0.0
C2732 C 0.40567 0.37916 0.24769 0.0
C2733 C 0.45873 0.37593 0.24348 0.0
C2734 C 0.45753 0.35968 0.27121 0.0
C2735 C 0.43284 0.38645 0.2322 0.0
C2736 C 0.4292 0.35197 0.28538 0.0
H2737 H 0.4747 0.31842 0.37501 0.0
N2738 N 0.40089 0.33374 0.32858 0.0
C2739 C 0.42746 0.32154 0.37788 0.0
C2740 C 0.42805 0.33874 0.31457 0.0
C2741 C 0.4014 0.32828 0.36146 0.0
C2742 C 0.45432 0.32301 0.36195 0.0
C2743 C 0.45528 0.33299 0.33055 0.0
O2744 O 0.35839 0.37459 0.3475 0.0
O2745 O 0.3126 0.30739 0.28863 0.0
O2746 O 0.3324 0.28839 0.21502 0.0
O2747 O 0.34448 0.34766 0.24404 0.0
O2748 O 0.31525 0.35777 0.28356 0.0
O2749 O 0.37338 0.39884 0.30649 0.0
O2750 O 0.31778 0.22899 0.20473 0.0
O2751 O 0.36011 0.29428 0.26355 0.0
O2752 O 0.33932 0.31343 0.33698 0.0
O2753 O 0.32803 0.25424 0.308 0.0
O2754 O 0.35709 0.24436 0.27041 0.0
O2755 O 0.29879 0.20277 0.24288 0.0
C2756 C 0.29601 0.32825 0.28393 0.0
C2757 C 0.34696 0.42925 0.34711 0.0
C2758 C 0.31368 0.46527 0.33099 0.0
C2759 C 0.33181 0.44127 0.32162 0.0
C2760 C 0.31083 0.47768 0.36591 0.0
C2761 C 0.34346 0.4413 0.38196 0.0
C2762 C 0.32546 0.46544 0.39127 0.0
C2763 C 0.33925 0.32277 0.2146 0.0
C2764 C 0.36633 0.40417 0.33785 0.0
C2765 C 0.48298 0.33891 0.31557 0.0
C2766 C 0.48412 0.35235 0.286 0.0
C2767 C 0.37646 0.27354 0.2693 0.0
C2768 C 0.33071 0.17557 0.20746 0.0
C2769 C 0.34206 0.16234 0.2345 0.0
C2770 C 0.3632 0.14131 0.22887 0.0
C2771 C 0.37297 0.13329 0.19623 0.0
C2772 C 0.34078 0.16742 0.17488 0.0
C2773 C 0.36171 0.14616 0.16929 0.0
C2774 C 0.33281 0.27901 0.3374 0.0
C2775 C 0.30933 0.19883 0.21325 0.0
H2776 H 0.33401 0.43211 0.29454 0.0
H2777 H 0.29736 0.49687 0.37345 0.0
H2778 H 0.35486 0.43223 0.40196 0.0
H2779 H 0.32306 0.47491 0.41821 0.0
H2780 H 0.33465 0.1683 0.25989 0.0
H2781 H 0.3892 0.11693 0.19179 0.0
H2782 H 0.33263 0.17773 0.15391 0.0
H2783 H 0.36913 0.13959 0.14406 0.0
Tb2784 Tb 0.57923 0.58562 0.04391 0.0
C2785 C 0.62472 0.48987 0.937 0.0
C2786 C 0.58529 0.47696 0.88765 0.0
C2787 C 0.63874 0.47726 0.87863 0.0
C2788 C 0.59414 0.48655 0.92378 0.0
C2789 C 0.64714 0.48448 0.91449 0.0
C2790 C 0.60787 0.47342 0.86523 0.0
C2791 C 0.68381 0.48995 0.96415 0.0
N2792 N 0.63204 0.4963 0.97186 0.0
C2793 C 0.66085 0.49481 0.98547 0.0
C2794 C 0.6771 0.48533 0.92857 0.0
Tb2795 Tb 0.59283 0.50759 1.00374 0.0
N2796 N 0.57269 0.48985 0.94614 0.0
C2797 C 0.54159 0.48027 0.93362 0.0
C2798 C 0.55381 0.46971 0.87498 0.0
C2799 C 0.53182 0.47069 0.89803 0.0
H2800 H 0.66677 0.49812 0.01281 0.0
H2801 H 0.50726 0.46409 0.88843 0.0
H2802 H 0.60148 0.46657 0.83745 0.0
H2803 H 0.70669 0.48971 0.97521 0.0
H2804 H 0.52376 0.48034 0.9504 0.0
H2805 H 0.66508 0.63118 0.15829 0.0
H2806 H 0.54627 0.46211 0.84746 0.0
H2807 H 0.50436 0.58903 0.03433 0.0
H2808 H 0.647 0.6097 0.09664 0.0
H2809 H 0.46495 0.60193 0.07108 0.0
H2810 H 0.65572 0.47342 0.861 0.0
H2811 H 0.62769 0.64115 0.19981 0.0
H2812 H 0.57286 0.64167 0.21021 0.0
H2813 H 0.69493 0.48135 0.91213 0.0
H2814 H 0.51837 0.63392 0.18646 0.0
N2815 N 0.59888 0.60627 0.10175 0.0
C2816 C 0.62994 0.61374 0.11377 0.0
C2817 C 0.61942 0.63154 0.17249 0.0
C2818 C 0.58797 0.62549 0.16019 0.0
C2819 C 0.64056 0.62606 0.14912 0.0
C2820 C 0.57843 0.61304 0.12426 0.0
H2821 H 0.47805 0.61953 0.13464 0.0
N2822 N 0.54053 0.59855 0.07624 0.0
C2823 C 0.48827 0.60402 0.08272 0.0
C2824 C 0.54812 0.60905 0.11102 0.0
C2825 C 0.51102 0.59675 0.06187 0.0
C2826 C 0.4957 0.61384 0.11855 0.0
C2827 C 0.52602 0.61685 0.13316 0.0
O2828 O 0.5647 0.62712 0.02756 0.0
O2829 O 0.57788 0.55334 0.99008 0.0
O2830 O 0.63212 0.54814 0.99432 0.0
O2831 O 0.62903 0.59463 0.03798 0.0
O2832 O 0.54177 0.57412 1.00013 0.0
O2833 O 0.61279 0.63337 0.0464 0.0
O2834 O 0.59127 0.45319 0.98633 0.0
O2835 O 0.59549 0.54028 0.05693 0.0
O2836 O 0.54327 0.54383 0.05685 0.0
O2837 O 0.54283 0.50159 1.00765 0.0
O2838 O 0.63126 0.51858 0.04651 0.0
O2839 O 0.57302 0.47145 0.03274 0.0
C2840 C 0.55231 0.55731 0.97445 0.0
C2841 C 0.59833 0.68558 0.03904 0.0
C2842 C 0.6122 0.73963 0.01761 0.0
C2843 C 0.60631 0.70249 0.01224 0.0
C2844 C 0.61002 0.75955 0.05064 0.0
C2845 C 0.59632 0.70577 0.07167 0.0
C2846 C 0.60217 0.74269 0.07737 0.0
C2847 C 0.64399 0.58037 0.01375 0.0
C2848 C 0.59299 0.64687 0.03173 0.0
C2849 C 0.53503 0.62799 0.16903 0.0
C2850 C 0.56601 0.63236 0.18254 0.0
C2851 C 0.62128 0.5365 0.07221 0.0
C2852 C 0.59471 0.4226 0.03118 0.0
C2853 C 0.57837 0.40379 0.05336 0.0
C2854 C 0.59247 0.38295 0.07094 0.0
C2855 C 0.62307 0.38111 0.06558 0.0
C2856 C 0.62521 0.42023 0.0266 0.0
C2857 C 0.63921 0.39964 0.04371 0.0
C2858 C 0.52969 0.51318 0.03497 0.0
C2859 C 0.57971 0.44456 0.01316 0.0
H2860 H 0.60842 0.68658 0.98727 0.0
H2861 H 0.61396 0.78812 0.05579 0.0
H2862 H 0.59032 0.69305 0.09255 0.0
H2863 H 0.60054 0.75835 0.10259 0.0
H2864 H 0.5549 0.40576 0.05716 0.0
H2865 H 0.63449 0.36479 0.07784 0.0
H2866 H 0.63825 0.43408 0.00965 0.0
H2867 H 0.66267 0.39782 0.03982 0.0
Tb2868 Tb 0.872 0.32778 0.2639 0.0
C2869 C 0.80149 0.25712 0.36182 0.0
C2870 C 0.82319 0.20671 0.36018 0.0
C2871 C 0.80451 0.23306 0.41266 0.0
C2872 C 0.816 0.23299 0.34458 0.0
C2873 C 0.79423 0.25647 0.3955 0.0
C2874 C 0.81897 0.20808 0.39494 0.0
C2875 C 0.7616 0.29604 0.38952 0.0
N2876 N 0.79103 0.27828 0.34372 0.0
C2877 C 0.76926 0.29538 0.35603 0.0
C2878 C 0.77491 0.27736 0.40977 0.0
Tb2879 Tb 0.80543 0.27658 0.28924 0.0
N2880 N 0.81836 0.23184 0.31072 0.0
C2881 C 0.82313 0.20201 0.28988 0.0
C2882 C 0.83164 0.17816 0.33956 0.0
C2883 C 0.83037 0.1751 0.30399 0.0
H2884 H 0.7584 0.30951 0.34056 0.0
H2885 H 0.83512 0.15213 0.2874 0.0
H2886 H 0.82493 0.18857 0.40761 0.0
H2887 H 0.7453 0.3108 0.39958 0.0
H2888 H 0.82173 0.19902 0.26225 0.0
H2889 H 0.84755 0.45628 0.27422 0.0
H2890 H 0.83712 0.15725 0.35041 0.0
H2891 H 0.91071 0.28777 0.20528 0.0
H2892 H 0.8579 0.40635 0.29593 0.0
H2893 H 0.91973 0.28659 0.14512 0.0
H2894 H 0.79965 0.23254 0.43877 0.0
H2895 H 0.84659 0.45501 0.21197 0.0
H2896 H 0.8564 0.42506 0.15321 0.0
H2897 H 0.76865 0.27756 0.43553 0.0
H2898 H 0.87625 0.37842 0.11773 0.0
N2899 N 0.86141 0.37559 0.24625 0.0
C2900 C 0.85724 0.4049 0.26861 0.0
C2901 C 0.85096 0.43274 0.2213 0.0
C2902 C 0.85781 0.4041 0.19899 0.0
C2903 C 0.85162 0.43362 0.25646 0.0
C2904 C 0.86353 0.3759 0.21255 0.0
H2905 H 0.90052 0.32693 0.11465 0.0
N2906 N 0.88349 0.32572 0.2082 0.0
C2907 C 0.90669 0.30421 0.15802 0.0
C2908 C 0.87514 0.35011 0.19279 0.0
C2909 C 0.90115 0.30466 0.19214 0.0
C2910 C 0.8958 0.327 0.14091 0.0
C2911 C 0.88069 0.35115 0.15865 0.0
O2912 O 0.91482 0.33137 0.29332 0.0
O2913 O 0.85477 0.27696 0.27988 0.0
O2914 O 0.82816 0.31459 0.33689 0.0
O2915 O 0.86295 0.35464 0.31444 0.0
O2916 O 0.89486 0.28248 0.25996 0.0
O2917 O 0.90845 0.37403 0.27166 0.0
O2918 O 0.76175 0.27195 0.26106 0.0
O2919 O 0.82289 0.3273 0.27308 0.0
O2920 O 0.84527 0.29393 0.21658 0.0
O2921 O 0.81506 0.2502 0.23883 0.0
O2922 O 0.78151 0.32064 0.29006 0.0
O2923 O 0.77143 0.22797 0.27789 0.0
C2924 C 0.87703 0.25977 0.27333 0.0
C2925 C 0.95691 0.35976 0.26783 0.0
C2926 C 1.00785 0.34625 0.26501 0.0
C2927 C 0.98183 0.34926 0.2827 0.0
C2928 C 1.00794 0.35294 0.23178 0.0
C2929 C 0.95867 0.36825 0.23544 0.0
C2930 C 0.98371 0.36423 0.21738 0.0
C2931 C 0.84802 0.34551 0.33981 0.0
C2932 C 0.92865 0.36042 0.28525 0.0
C2933 C 0.87251 0.37741 0.14405 0.0
C2934 C 0.86114 0.40393 0.16423 0.0
C2935 C 0.79995 0.3437 0.27763 0.0
C2936 C 0.72127 0.23682 0.28341 0.0
C2937 C 0.69543 0.24727 0.27067 0.0
C2938 C 0.66869 0.24478 0.28786 0.0
C2939 C 0.66852 0.23264 0.31846 0.0
C2940 C 0.71995 0.22352 0.3134 0.0
C2941 C 0.69394 0.22199 0.331 0.0
C2942 C 0.82674 0.26232 0.21308 0.0
C2943 C 0.74984 0.24087 0.26618 0.0
H2944 H 0.98107 0.34415 0.30825 0.0
H2945 H 0.02693 0.34981 0.2169 0.0
H2946 H 0.94041 0.37736 0.22355 0.0
H2947 H 0.98435 0.36992 0.19208 0.0
H2948 H 0.69592 0.2565 0.24703 0.0
H2949 H 0.64851 0.23097 0.33253 0.0
H2950 H 0.73923 0.21486 0.32379 0.0
H2951 H 0.69344 0.21233 0.35437 0.0
Tb2952 Tb 0.07893 0.51816 0.55518 0.0
C2953 C 0.06163 0.63222 0.4801 0.0
C2954 C 0.02741 0.59779 0.42823 0.0
C2955 C 0.02588 0.65872 0.45212 0.0
C2956 C 0.05075 0.6008 0.45539 0.0
C2957 C 0.04992 0.66187 0.47835 0.0
C2958 C 0.01459 0.62668 0.42714 0.0
C2959 C 0.08802 0.69612 0.52707 0.0
N2960 N 0.08454 0.63404 0.50527 0.0
C2961 C 0.09871 0.66588 0.52793 0.0
C2962 C 0.06321 0.69398 0.50251 0.0
Tb2963 Tb 0.10058 0.58305 0.50418 0.0
N2964 N 0.06386 0.5736 0.45728 0.0
C2965 C 0.0563 0.54351 0.43103 0.0
C2966 C 0.01821 0.56616 0.40257 0.0
C2967 C 0.03305 0.53911 0.40373 0.0
H2968 H 0.11779 0.66761 0.54715 0.0
H2969 H 0.0266 0.5148 0.38362 0.0
H2970 H 0.99647 0.62479 0.40664 0.0
H2971 H 0.09887 0.72106 0.54528 0.0
H2972 H 0.0673 0.52214 0.43135 0.0
H2973 H 0.14435 0.60292 0.67577 0.0
H2974 H 1.00028 0.56272 0.38135 0.0
H2975 H 0.07153 0.43246 0.52139 0.0
H2976 H 0.10381 0.58562 0.62634 0.0
H2977 H 0.09887 0.38651 0.52893 0.0
H2978 H 0.01631 0.68107 0.45054 0.0
H2979 H 0.17858 0.56359 0.68357 0.0
H2980 H 0.19213 0.50539 0.6633 0.0
H2981 H 0.05495 0.71742 0.50198 0.0
H2982 H 0.17977 0.44635 0.62322 0.0
N2983 N 0.11405 0.53606 0.60506 0.0
C2984 C 0.1178 0.56745 0.62909 0.0
C2985 C 0.16046 0.55551 0.66167 0.0
C2986 C 0.15567 0.52278 0.63807 0.0
C2987 C 0.14113 0.5777 0.65741 0.0
C2988 C 0.13184 0.51364 0.60992 0.0
H2989 H 0.14453 0.40148 0.57347 0.0
N2990 N 0.10164 0.47308 0.56129 0.0
C2991 C 0.10665 0.41304 0.54536 0.0
C2992 C 0.12533 0.4809 0.58724 0.0
C2993 C 0.09115 0.43905 0.54136 0.0
C2994 C 0.13249 0.42161 0.57048 0.0
C2995 C 0.14184 0.45572 0.59221 0.0
O2996 O 0.04029 0.47504 0.55167 0.0
O2997 O 0.06462 0.54402 0.51724 0.0
O2998 O 0.07117 0.60434 0.53988 0.0
O2999 O 0.06566 0.56767 0.57892 0.0
O3000 O 0.04678 0.49093 0.50792 0.0
O3001 O 0.05069 0.52074 0.59494 0.0
O3002 O 0.14222 0.62099 0.50447 0.0
O3003 O 0.11485 0.55627 0.54117 0.0
O3004 O 0.10673 0.49651 0.51772 0.0
O3005 O 0.10794 0.53125 0.47706 0.0
O3006 O 0.13553 0.60841 0.54987 0.0
O3007 O 0.12342 0.57731 0.45997 0.0
C3008 C 0.04519 0.51868 0.49696 0.0
C3009 C 0.02737 0.46567 0.60618 0.0
C3010 C 1.0111 0.4588 0.66181 0.0
C3011 C 0.01618 0.47873 0.63681 0.0
C3012 C 0.01652 0.42474 0.65524 0.0
C3013 C 0.03236 0.43143 0.59973 0.0
C3014 C 0.02691 0.41113 0.62423 0.0
C3015 C 0.06191 0.59626 0.56857 0.0
C3016 C 0.03337 0.48867 0.58183 0.0
C3017 C 0.16648 0.46511 0.61927 0.0
C3018 C 0.17347 0.49868 0.64211 0.0
C3019 C 0.1359 0.58031 0.56069 0.0
C3020 C 0.14858 0.6318 0.44889 0.0
C3021 C 0.15567 0.61915 0.41577 0.0
C3022 C 0.1605 0.64122 0.39262 0.0
C3023 C 0.15792 0.67631 0.40273 0.0
C3024 C 0.14617 0.66703 0.45882 0.0
C3025 C 0.15066 0.68905 0.43572 0.0
C3026 C 0.11304 0.50326 0.48757 0.0
C3027 C 0.14405 0.60749 0.47219 0.0
H3028 H 1.0112 0.50459 0.64096 0.0
H3029 H 0.01297 0.40875 0.67408 0.0
H3030 H 0.04034 0.4203 0.57593 0.0
H3031 H 0.0309 0.38483 0.61925 0.0
H3032 H 0.15842 0.5923 0.40839 0.0
H3033 H 0.16189 0.69388 0.38532 0.0
H3034 H 0.14109 0.67776 0.48432 0.0
H3035 H 0.14889 0.71618 0.44356 0.0
Tb3036 Tb 0.79748 0.80917 0.27101 0.0
C3037 C 0.89929 0.75729 0.33402 0.0
C3038 C 0.91959 0.80367 0.38596 0.0
C3039 C 0.92231 0.74324 0.38478 0.0
C3040 C 0.90451 0.79224 0.35164 0.0
C3041 C 0.90905 0.73257 0.34995 0.0
C3042 C 0.92757 0.77878 0.40277 0.0
C3043 C 0.89592 0.69014 0.29466 0.0
N3044 N 0.88722 0.74834 0.30023 0.0
C3045 C 0.88698 0.71578 0.27997 0.0
C3046 C 0.90651 0.69837 0.32996 0.0
Tb3047 Tb 0.872 0.79174 0.27867 0.0
N3048 N 0.89657 0.81543 0.33437 0.0
C3049 C 0.90543 0.85111 0.34933 0.0
C3050 C 0.92698 0.83989 0.40197 0.0
C3051 C 0.9203 0.86375 0.38335 0.0
H3052 H 0.8786 0.70915 0.25267 0.0
H3053 H 0.92647 0.89192 0.39522 0.0
H3054 H 0.93871 0.78694 0.4293 0.0
H3055 H 0.89467 0.66408 0.27876 0.0
H3056 H 0.9003 0.87016 0.33578 0.0
H3057 H 0.73712 0.71754 0.15189 0.0
H3058 H 0.93845 0.84975 0.42832 0.0
H3059 H 0.78906 0.89026 0.30314 0.0
H3060 H 0.76342 0.73458 0.21128 0.0
H3061 H 0.77519 0.93877 0.2812 0.0
H3062 H 0.92958 0.72454 0.39764 0.0
H3063 H 0.73058 0.76363 0.12135 0.0
H3064 H 0.73538 0.82815 0.12369 0.0
H3065 H 0.9137 0.67857 0.34123 0.0
H3066 H 0.74573 0.88918 0.15939 0.0
N3067 N 0.77299 0.79038 0.21491 0.0
C3068 C 0.76092 0.75531 0.19872 0.0
C3069 C 0.7425 0.7714 0.14745 0.0
C3070 C 0.75259 0.80712 0.16494 0.0
C3071 C 0.74588 0.74535 0.16476 0.0
C3072 C 0.76741 0.81573 0.19925 0.0
H3073 H 0.75967 0.93052 0.21861 0.0
N3074 N 0.7828 0.85512 0.25326 0.0
C3075 C 0.77452 0.91387 0.26342 0.0
C3076 C 0.77259 0.84959 0.21927 0.0
C3077 C 0.78217 0.88619 0.27576 0.0
C3078 C 0.76598 0.9092 0.22807 0.0
C3079 C 0.76402 0.87639 0.20562 0.0
O3080 O 0.76688 0.82414 0.30634 0.0
O3081 O 0.83418 0.80326 0.30746 0.0
O3082 O 0.83923 0.74361 0.28909 0.0
O3083 O 0.79167 0.75018 0.26716 0.0
O3084 O 0.81436 0.84453 0.32194 0.0
O3085 O 0.75533 0.77247 0.27268 0.0
O3086 O 0.90116 0.77363 0.24309 0.0
O3087 O 0.83519 0.79747 0.24248 0.0
O3088 O 0.83016 0.85919 0.2642 0.0
O3089 O 0.87888 0.84953 0.2771 0.0
O3090 O 0.85403 0.75525 0.22805 0.0
O3091 O 0.91565 0.82561 0.27655 0.0
C3092 C 0.83396 0.82899 0.33287 0.0
C3093 C 0.71305 0.79634 0.28903 0.0
C3094 C 0.66006 0.79015 0.30557 0.0
C3095 C 0.69163 0.78956 0.31283 0.0
C3096 C 0.6507 0.7981 0.27433 0.0
C3097 C 0.70276 0.80399 0.25818 0.0
C3098 C 0.67186 0.80494 0.25098 0.0
C3099 C 0.80869 0.73019 0.27861 0.0
C3100 C 0.74576 0.79433 0.29593 0.0
C3101 C 0.75207 0.86886 0.17053 0.0
C3102 C 0.74625 0.83415 0.15019 0.0
C3103 C 0.8345 0.77113 0.21742 0.0
C3104 C 0.95583 0.79844 0.25805 0.0
C3105 C 0.97727 0.8063 0.23445 0.0
C3106 C 1.0082 0.80257 0.23967 0.0
C3107 C 0.01671 0.79028 0.26866 0.0
C3108 C 0.96562 0.7871 0.28689 0.0
C3109 C 0.9957 0.78286 0.292 0.0
C3110 C 0.86125 0.87085 0.27001 0.0
C3111 C 0.92353 0.80254 0.25278 0.0
H3112 H 0.6994 0.78326 0.33656 0.0
H3113 H 0.62702 0.7996 0.26808 0.0
H3114 H 0.71853 0.80904 0.2395 0.0
H3115 H 0.66425 0.81103 0.2271 0.0
H3116 H 0.96994 0.81572 0.21246 0.0
H3117 H 0.03961 0.78584 0.27325 0.0
H3118 H 0.95006 0.78151 0.30555 0.0
H3119 H 1.00279 0.77366 0.31421 0.0
Tb3120 Tb 0.86208 0.3011 0.73952 0.0
C3121 C 0.77127 0.35217 0.83264 0.0
C3122 C 0.80429 0.39876 0.8783 0.0
C3123 C 0.75155 0.40154 0.86094 0.0
C3124 C 0.7996 0.36689 0.85276 0.0
C3125 C 0.74651 0.36864 0.83711 0.0
C3126 C 0.78047 0.41664 0.88149 0.0
C3127 C 0.71303 0.31714 0.79694 0.0
N3128 N 0.76741 0.32032 0.81022 0.0
C3129 C 0.73835 0.3019 0.79348 0.0
C3130 C 0.71724 0.35094 0.81841 0.0
Tb3131 Tb 0.81068 0.29825 0.80463 0.0
N3132 N 0.82167 0.34839 0.84917 0.0
C3133 C 0.8478 0.35855 0.87295 0.0
C3134 C 0.83215 0.41076 0.90085 0.0
C3135 C 0.85365 0.39007 0.8987 0.0
H3136 H 0.73488 0.27592 0.77653 0.0
H3137 H 0.87487 0.3985 0.9167 0.0
H3138 H 0.78378 0.44142 0.90061 0.0
H3139 H 0.69035 0.30288 0.7829 0.0
H3140 H 0.86492 0.34326 0.87167 0.0
H3141 H 0.79728 0.197 0.63051 0.0
H3142 H 0.83673 0.43513 0.92081 0.0
H3143 H 0.93852 0.3268 0.76366 0.0
H3144 H 0.80709 0.25317 0.67417 0.0
H3145 H 0.98401 0.30176 0.75572 0.0
H3146 H 0.73298 0.41491 0.86447 0.0
H3147 H 0.83635 0.16155 0.62659 0.0
H3148 H 0.89033 0.15744 0.64575 0.0
H3149 H 0.69759 0.36266 0.82109 0.0
H3150 H 0.94183 0.18653 0.67966 0.0
N3151 N 0.85122 0.24987 0.69613 0.0
C3152 C 0.82462 0.23845 0.67296 0.0
C3153 C 0.84086 0.18636 0.64595 0.0
C3154 C 0.86915 0.19963 0.66769 0.0
C3155 C 0.81885 0.20638 0.64797 0.0
C3156 C 0.87373 0.23205 0.69245 0.0
H3157 H 0.97733 0.24108 0.71994 0.0
N3158 N 0.90603 0.28059 0.73262 0.0
C3159 C 0.96111 0.28625 0.74341 0.0
C3160 C 0.9024 0.24819 0.71129 0.0
C3161 C 0.93521 0.30037 0.74771 0.0
C3162 C 0.95724 0.25194 0.72321 0.0
C3163 C 0.92768 0.23267 0.70631 0.0
O3164 O 0.89165 0.34743 0.73178 0.0
O3165 O 0.84397 0.33045 0.7815 0.0
O3166 O 0.7911 0.32471 0.76778 0.0
O3167 O 0.81412 0.30504 0.71926 0.0
O3168 O 0.89088 0.34463 0.78024 0.0
O3169 O 0.85441 0.31545 0.69236 0.0
O3170 O 0.77798 0.2539 0.81177 0.0
O3171 O 0.82933 0.26886 0.76328 0.0
O3172 O 0.88394 0.27734 0.77766 0.0
O3173 O 0.85778 0.2924 0.82525 0.0
O3174 O 0.78248 0.2544 0.76369 0.0
O3175 O 0.81721 0.28178 0.85064 0.0
C3176 C 0.86879 0.35211 0.79699 0.0
C3177 C 0.89761 0.35111 0.67446 0.0
C3178 C 0.90942 0.38388 0.63008 0.0
C3179 C 0.88987 0.37292 0.65382 0.0
C3180 C 0.93683 0.3722 0.62688 0.0
C3181 C 0.92481 0.33928 0.6708 0.0
C3182 C 0.94432 0.34983 0.64702 0.0
C3183 C 0.7918 0.31851 0.73377 0.0
C3184 C 0.87773 0.34348 0.70097 0.0
C3185 C 0.92283 0.19918 0.68352 0.0
C3186 C 0.89352 0.18262 0.66424 0.0
C3187 C 0.8049 0.24651 0.74783 0.0
C3188 C 0.77195 0.25164 0.8693 0.0
C3189 C 0.77672 0.22809 0.88921 0.0
C3190 C 0.75849 0.22239 0.91559 0.0
C3191 C 0.73475 0.24012 0.92139 0.0
C3192 C 0.74843 0.26952 0.87537 0.0
C3193 C 0.72976 0.26353 0.90126 0.0
C3194 C 0.88138 0.28106 0.81135 0.0
C3195 C 0.79184 0.25618 0.84224 0.0
H3196 H 0.86884 0.38202 0.65691 0.0
H3197 H 0.95223 0.37995 0.60853 0.0
H3198 H 0.93112 0.32232 0.68643 0.0
H3199 H 0.9654 0.34085 0.64433 0.0
H3200 H 0.79464 0.21395 0.88394 0.0
H3201 H 0.72044 0.23633 0.94177 0.0
H3202 H 0.74445 0.2879 0.86024 0.0
H3203 H 0.71157 0.27725 0.90592 0.0
Tb3204 Tb 0.85833 0.84336 0.79768 0.0
C3205 C 0.74401 0.76138 0.73945 0.0
C3206 C 0.7153 0.73574 0.78098 0.0
C3207 C 0.68878 0.7591 0.73957 0.0
C3208 C 0.74346 0.74582 0.76715 0.0
C3209 C 0.71638 0.76744 0.72485 0.0
C3210 C 0.68822 0.74302 0.76745 0.0
C3211 C 0.74337 0.78273 0.67819 0.0
N3212 N 0.77095 0.76807 0.72522 0.0
C3213 C 0.76978 0.77533 0.69307 0.0
C3214 C 0.71678 0.77979 0.69469 0.0
Tb3215 Tb 0.81427 0.75824 0.75426 0.0
N3216 N 0.76997 0.73851 0.77912 0.0
C3217 C 0.76842 0.71722 0.80224 0.0
C3218 C 0.71482 0.71744 0.80718 0.0
C3219 C 0.74139 0.70753 0.81737 0.0
H3220 H 0.7883 0.77415 0.67738 0.0
H3221 H 0.74091 0.69167 0.83629 0.0
H3222 H 0.6665 0.73492 0.77753 0.0
H3223 H 0.74326 0.78956 0.65336 0.0
H3224 H 0.78766 0.70653 0.80875 0.0
H3225 H 0.93398 0.90107 0.71216 0.0
H3226 H 0.69371 0.70945 0.81855 0.0
H3227 H 0.88248 0.83025 0.87642 0.0
H3228 H 0.8872 0.89062 0.74034 0.0
H3229 H 0.92703 0.81616 0.90328 0.0
H3230 H 0.66748 0.76348 0.72851 0.0
H3231 H 0.97992 0.88208 0.73179 0.0
H3232 H 1.00589 0.85832 0.77545 0.0
H3233 H 0.69614 0.78491 0.68278 0.0
H3234 H 1.00386 0.83432 0.82733 0.0
N3235 N 0.90312 0.85938 0.77215 0.0
C3236 C 0.90562 0.87913 0.74766 0.0
C3237 C 0.95868 0.87589 0.74343 0.0
C3238 C 0.95748 0.85963 0.77115 0.0
C3239 C 0.93279 0.88642 0.73216 0.0
C3240 C 0.92915 0.85192 0.78532 0.0
H3241 H 0.97466 0.81832 0.87491 0.0
N3242 N 0.90084 0.83367 0.82851 0.0
C3243 C 0.92742 0.82144 0.87779 0.0
C3244 C 0.928 0.83867 0.81451 0.0
C3245 C 0.90136 0.82818 0.86139 0.0
C3246 C 0.95428 0.82292 0.86186 0.0
C3247 C 0.95523 0.83291 0.83047 0.0
O3248 O 0.85838 0.87453 0.84747 0.0
O3249 O 0.81255 0.80734 0.78859 0.0
O3250 O 0.83235 0.78834 0.71498 0.0
O3251 O 0.84444 0.84761 0.744 0.0
O3252 O 0.81521 0.85773 0.78353 0.0
O3253 O 0.87331 0.89879 0.80645 0.0
O3254 O 0.8177 0.72897 0.70467 0.0
O3255 O 0.86006 0.79423 0.7635 0.0
O3256 O 0.83927 0.81339 0.83694 0.0
O3257 O 0.82796 0.7542 0.80796 0.0
O3258 O 0.85703 0.74431 0.77037 0.0
O3259 O 0.79877 0.70272 0.74282 0.0
C3260 C 0.79596 0.82821 0.7839 0.0
C3261 C 0.8469 0.92917 0.8471 0.0
C3262 C 0.81357 0.96515 0.83101 0.0
C3263 C 0.83175 0.94121 0.82163 0.0
C3264 C 0.8107 0.97751 0.86593 0.0
C3265 C 0.84338 0.94116 0.88195 0.0
C3266 C 0.82534 0.96526 0.89128 0.0
C3267 C 0.83921 0.82272 0.71456 0.0
C3268 C 0.86629 0.90412 0.83781 0.0
C3269 C 0.98293 0.83883 0.81548 0.0
C3270 C 0.98406 0.85229 0.78592 0.0
C3271 C 0.8764 0.77348 0.76926 0.0
C3272 C 0.83072 0.67559 0.70738 0.0
C3273 C 0.84206 0.66231 0.73439 0.0
C3274 C 0.86326 0.64137 0.72878 0.0
C3275 C 0.87311 0.63347 0.69617 0.0
C3276 C 0.84087 0.66756 0.67483 0.0
C3277 C 0.86186 0.64638 0.66925 0.0
C3278 C 0.83274 0.77897 0.83736 0.0
C3279 C 0.8093 0.6988 0.71318 0.0
H3280 H 0.83396 0.93209 0.79454 0.0
H3281 H 0.7972 0.99667 0.87349 0.0
H3282 H 0.85478 0.93208 0.90194 0.0
H3283 H 0.82292 0.97469 0.91821 0.0
H3284 H 0.83459 0.66819 0.75977 0.0
H3285 H 0.88939 0.61717 0.69173 0.0
H3286 H 0.83274 0.6779 0.65388 0.0
H3287 H 0.86935 0.63989 0.64405 0.0
Tb3288 Tb 0.5532 0.52137 0.50283 0.0
C3289 C 0.63474 0.65061 0.60102 0.0
C3290 C 0.63863 0.696 0.56882 0.0
C3291 C 0.64498 0.71267 0.63158 0.0
C3292 C 0.63308 0.65991 0.56984 0.0
C3293 C 0.64144 0.67692 0.63234 0.0
C3294 C 0.64368 0.72223 0.59982 0.0
C3295 C 0.64413 0.63119 0.66259 0.0
N3296 N 0.63189 0.61591 0.60055 0.0
C3297 C 0.6378 0.60616 0.63087 0.0
C3298 C 0.64554 0.66668 0.6634 0.0
Tb3299 Tb 0.62079 0.57649 0.54705 0.0
N3300 N 0.62845 0.6338 0.54055 0.0
C3301 C 0.63217 0.64257 0.50948 0.0
C3302 C 0.64027 0.70475 0.5368 0.0
C3303 C 0.63763 0.67795 0.50707 0.0
H3304 H 0.63692 0.57891 0.63092 0.0
H3305 H 0.63961 0.68443 0.48221 0.0
H3306 H 0.64759 0.75003 0.59955 0.0
H3307 H 0.64801 0.62308 0.6864 0.0
H3308 H 0.63024 0.62238 0.48611 0.0
H3309 H 0.53581 0.40788 0.56003 0.0
H3310 H 0.64449 0.73212 0.53494 0.0
H3311 H 0.52956 0.52135 0.42002 0.0
H3312 H 0.54227 0.47066 0.56004 0.0
H3313 H 0.52061 0.47981 0.36326 0.0
H3314 H 0.64971 0.73318 0.65535 0.0
H3315 H 0.53637 0.36425 0.50587 0.0
H3316 H 0.53611 0.35085 0.44169 0.0
H3317 H 0.65072 0.68607 0.68798 0.0
H3318 H 0.53205 0.37069 0.38774 0.0
N3319 N 0.54834 0.46376 0.50664 0.0
C3320 C 0.5429 0.45232 0.53617 0.0
C3321 C 0.5394 0.39197 0.50574 0.0
C3322 C 0.54187 0.40318 0.47496 0.0
C3323 C 0.53897 0.41648 0.5363 0.0
C3324 C 0.5457 0.43961 0.4761 0.0
H3325 H 0.52523 0.4184 0.35826 0.0
N3326 N 0.54202 0.48505 0.44775 0.0
C3327 C 0.52719 0.4714 0.38617 0.0
C3328 C 0.54257 0.45064 0.44563 0.0
C3329 C 0.53261 0.49506 0.41864 0.0
C3330 C 0.5299 0.43679 0.38344 0.0
C3331 C 0.53673 0.4257 0.41341 0.0
O3332 O 0.50773 0.48879 0.49716 0.0
O3333 O 0.576 0.57859 0.52124 0.0
O3334 O 0.58565 0.58319 0.58547 0.0
O3335 O 0.54805 0.5315 0.56104 0.0
O3336 O 0.55376 0.56129 0.47213 0.0
O3337 O 0.51559 0.54516 0.51156 0.0
O3338 O 0.66089 0.56638 0.56975 0.0
O3339 O 0.59809 0.51904 0.52774 0.0
O3340 O 0.58583 0.51912 0.46101 0.0
O3341 O 0.62901 0.56274 0.48992 0.0
O3342 O 0.61926 0.53563 0.57691 0.0
O3343 O 0.66343 0.59205 0.52746 0.0
C3344 C 0.56844 0.59004 0.49433 0.0
C3345 C 0.46584 0.51219 0.48224 0.0
C3346 C 0.41478 0.52498 0.47779 0.0
C3347 C 0.44365 0.52866 0.49697 0.0
C3348 C 0.40869 0.50505 0.44331 0.0
C3349 C 0.4589 0.49153 0.44811 0.0
C3350 C 0.43057 0.48834 0.42868 0.0
C3351 C 0.55961 0.55943 0.58825 0.0
C3352 C 0.49487 0.51501 0.50403 0.0
C3353 C 0.53605 0.39007 0.41225 0.0
C3354 C 0.53847 0.37879 0.44298 0.0
C3355 C 0.60538 0.50711 0.55431 0.0
C3356 C 0.71076 0.5997 0.56359 0.0
C3357 C 0.73487 0.58978 0.5464 0.0
C3358 C 0.76612 0.60119 0.56224 0.0
C3359 C 0.77268 0.62557 0.59482 0.0
C3360 C 0.71788 0.62414 0.5957 0.0
C3361 C 0.74885 0.63744 0.61093 0.0
C3362 C 0.61454 0.5391 0.46056 0.0
C3363 C 0.67866 0.57994 0.54912 0.0
H3364 H 0.44891 0.54431 0.52344 0.0
H3365 H 0.38678 0.50186 0.42786 0.0
H3366 H 0.475 0.47736 0.43662 0.0
H3367 H 0.42536 0.47247 0.40234 0.0
H3368 H 0.72859 0.57189 0.52105 0.0
H3369 H 0.79592 0.6347 0.60868 0.0
H3370 H 0.69958 0.63214 0.60934 0.0
H3371 H 0.75433 0.65594 0.63602 0.0
Tb3372 Tb 0.12384 0.55316 0.00829 0.0
C3373 C 0.02774 0.51206 0.10675 0.0
C3374 C 0.99635 0.45227 0.08258 0.0
C3375 C 1.00457 0.47614 0.14486 0.0
C3376 C 0.01514 0.48446 0.07848 0.0
C3377 C 0.0227 0.5084 0.14035 0.0
C3378 C 0.99134 0.44813 0.11598 0.0
C3379 C 0.05322 0.56896 0.16215 0.0
N3380 N 0.04501 0.54265 0.10114 0.0
C3381 C 0.05734 0.57132 0.12824 0.0
C3382 C 0.03587 0.53734 0.16827 0.0
Tb3383 Tb 0.05033 0.54407 0.04474 0.0
N3384 N 0.02061 0.48963 0.04681 0.0
C3385 C 1.00673 0.46404 0.01776 0.0
C3386 C 0.98275 0.42557 0.05297 0.0
C3387 C 0.98774 0.4316 0.02037 0.0
H3388 H 0.0711 0.59574 0.12389 0.0
H3389 H 0.97712 0.41124 0.99727 0.0
H3390 H 0.97707 0.42354 0.11974 0.0
H3391 H 0.06345 0.59153 0.18355 0.0
H3392 H 1.01049 0.46844 0.99244 0.0
H3393 H 0.1945 0.68729 0.05546 0.0
H3394 H 0.96808 0.40049 0.05501 0.0
H3395 H 0.10427 0.5013 0.92888 0.0
H3396 H 0.16436 0.62849 0.06028 0.0
H3397 H 0.11103 0.50619 0.86932 0.0
H3398 H 1.00042 0.47271 0.17047 0.0
H3399 H 0.20074 0.69949 0.99778 0.0
H3400 H 0.19104 0.67672 0.9329 0.0
H3401 H 0.03266 0.53561 0.19454 0.0
H3402 H 0.16867 0.62719 0.88219 0.0
N3403 N 0.15245 0.60814 1.00602 0.0
C3404 C 0.16661 0.63366 0.03498 0.0
C3405 C 0.18732 0.67375 0.99977 0.0
C3406 C 0.17405 0.64687 0.97016 0.0
C3407 C 0.18386 0.66694 0.03236 0.0
C3408 C 0.15676 0.61394 0.97432 0.0
H3409 H 0.13891 0.56329 0.8582 0.0
N3410 N 0.12872 0.55502 0.95179 0.0
C3411 C 0.12054 0.52897 0.89069 0.0
C3412 C 0.14465 0.58622 0.94608 0.0
C3413 C 0.11704 0.52622 0.92463 0.0
C3414 C 0.1363 0.56124 0.88451 0.0
C3415 C 0.14876 0.59039 0.91242 0.0
O3416 O 0.15257 0.51758 0.99837 0.0
O3417 O 0.08222 0.51628 0.01826 0.0
O3418 O 0.08441 0.5314 0.07935 0.0
O3419 O 0.12613 0.56896 0.06444 0.0
O3420 O 0.11022 0.49504 0.98781 0.0
O3421 O 0.16668 0.56408 0.03994 0.0
O3422 O 0.02244 0.58062 0.0544 0.0
O3423 O 0.09212 0.58029 0.03501 0.0
O3424 O 0.08929 0.56552 0.97393 0.0
O3425 O 0.04795 0.52752 0.98874 0.0
O3426 O 0.06419 0.60282 0.06453 0.0
O3427 O 1.00743 0.53367 0.01338 0.0
C3428 C 0.0859 0.48592 1.00247 0.0
C3429 C 0.20689 0.53999 0.01652 0.0
C3430 C 0.25508 0.51957 0.01739 0.0
C3431 C 0.22403 0.51629 0.02479 0.0
C3432 C 0.26873 0.54747 1.00249 0.0
C3433 C 0.22118 0.56729 1.00149 0.0
C3434 C 0.25196 0.57107 0.99474 0.0
C3435 C 0.11438 0.54785 0.08421 0.0
C3436 C 0.17419 0.53591 0.02359 0.0
C3437 C 0.1653 0.62335 0.90784 0.0
C3438 C 0.17797 0.65157 0.93671 0.0
C3439 C 0.0887 0.61089 0.04991 0.0
C3440 C 0.96798 0.55961 0.03632 0.0
C3441 C 0.95124 0.58277 0.02605 0.0
C3442 C 0.91974 0.57966 0.03168 0.0
C3443 C 0.90564 0.5532 0.04811 0.0
C3444 C 0.95318 0.53364 0.0526 0.0
C3445 C 0.92222 0.53054 0.05844 0.0
C3446 C 0.05939 0.54879 0.96906 0.0
C3447 C 1.0006 0.56246 0.02935 0.0
H3448 H 0.213 0.49496 0.03617 0.0
H3449 H 0.29258 0.55113 0.99686 0.0
H3450 H 0.20857 0.58571 0.99499 0.0
H3451 H 0.26286 0.59233 0.98325 0.0
H3452 H 0.96259 0.60275 0.01327 0.0
H3453 H 0.88179 0.55034 0.05356 0.0
H3454 H 0.96553 0.51573 0.06074 0.0
H3455 H 0.911 0.51046 0.07113 0.0
loop_
_geom_bond_atom_site_label_1
_geom_bond_atom_site_label_2
_geom_bond_distance
_geom_bond_site_symmetry_2
_ccdc_geom_bond_type
Li0 N17 1.990 . S
Li0 O60 1.956 . S
Li0 O61 1.970 . S
Li0 O62 1.961 . S
Li1 N25 1.990 . S
Li1 O60 1.970 . S
Li1 O61 1.956 . S
Li1 O63 1.961 . S
Li2 N47 1.990 . S
Li2 O60 1.961 . S
Li2 O62 1.956 . S
Li2 O63 1.970 . S
Li3 N53 1.990 . S
Li3 O61 1.961 . S
Li3 O62 1.970 . S
Li3 O63 1.956 . S
C4 C6 1.348 . S
C4 C7 1.356 . S
C4 O60 1.325 . S
N5 C8 1.314 . S
N5 C9 1.279 . S
C6 C4 1.348 . S
C6 C8 1.353 . S
C6 H64 0.929 . S
C7 C4 1.356 . S
C7 C9 1.358 . S
C7 H65 0.930 . S
C8 N5 1.314 . S
C8 C6 1.353 . S
C8 H66 0.930 . S
C9 N5 1.279 . S
C9 C7 1.358 . S
C9 H67 0.930 . S
C10 C13 1.348 . S
C10 C14 1.356 . S
C10 O61 1.325 . S
C11 N12 1.279 . S
C11 C14 1.358 . S
C11 H68 0.930 . S
N12 C11 1.279 . S
N12 C15 1.314 . S
C13 C10 1.348 . S
C13 C15 1.353 . S
C13 H69 0.929 . S
C14 C10 1.356 . S
C14 C11 1.358 . S
C14 H70 0.930 . S
C15 N12 1.314 . S
C15 C13 1.353 . S
C15 H71 0.930 . S
C16 N17 1.314 . S
C16 C21 1.353 . S
C16 H22 0.930 . S
N17 Li0 1.990 . S
N17 C16 1.314 . S
N17 C19 1.279 . S
C18 C19 1.358 . S
C18 C20 1.356 . S
C18 H72 0.930 . S
C19 N17 1.279 . S
C19 C18 1.358 . S
C19 H23 0.930 . S
C20 C18 1.356 . S
C20 C21 1.348 . S
C21 C16 1.353 . S
C21 C20 1.348 . S
C21 H73 0.929 . S
H22 C16 0.930 . S
H23 C19 0.930 . S
C24 N25 1.314 . S
C24 C26 1.353 . S
C24 H30 0.930 . S
N25 Li1 1.990 . S
N25 C24 1.314 . S
N25 C28 1.279 . S
C26 C24 1.353 . S
C26 C29 1.348 . S
C26 H74 0.929 . S
C27 C28 1.358 . S
C27 C29 1.356 . S
C27 H75 0.930 . S
C28 N25 1.279 . S
C28 C27 1.358 . S
C28 H31 0.930 . S
C29 C26 1.348 . S
C29 C27 1.356 . S
H30 C24 0.930 . S
H31 C28 0.930 . S
C32 C34 1.348 . S
C32 C35 1.356 . S
C32 O62 1.325 . S
N33 C36 1.314 . S
N33 C37 1.279 . S
C34 C32 1.348 . S
C34 C36 1.353 . S
C34 H76 0.929 . S
C35 C32 1.356 . S
C35 C37 1.358 . S
C35 H77 0.930 . S
C36 N33 1.314 . S
C36 C34 1.353 . S
C36 H78 0.930 . S
C37 N33 1.279 . S
C37 C35 1.358 . S
C37 H79 0.930 . S
C38 C39 1.348 . S
C38 C40 1.356 . S
C38 O63 1.325 . S
C39 C38 1.348 . S
C39 C41 1.353 . S
C39 H80 0.929 . S
C40 C38 1.356 . S
C40 C42 1.358 . S
C40 H81 0.930 . S
C41 C39 1.353 . S
C41 N43 1.314 . S
C41 H82 0.930 . S
C42 C40 1.358 . S
C42 N43 1.279 . S
C42 H83 0.930 . S
N43 C41 1.314 . S
N43 C42 1.279 . S
C44 C46 1.353 . S
C44 N47 1.314 . S
C44 H50 0.930 . S
C45 N47 1.279 . S
C45 C48 1.358 . S
C45 H51 0.930 . S
C46 C44 1.353 . S
C46 C49 1.348 . S
C46 H84 0.929 . S
N47 Li2 1.990 . S
N47 C44 1.314 . S
N47 C45 1.279 . S
C48 C45 1.358 . S
C48 C49 1.356 . S
C48 H85 0.930 . S
C49 C46 1.348 . S
C49 C48 1.356 . S
H50 C44 0.930 . S
H51 C45 0.930 . S
C52 N53 1.314 . S
C52 C54 1.353 . S
C52 H58 0.930 . S
N53 Li3 1.990 . S
N53 C52 1.314 . S
N53 C56 1.279 . S
C54 C52 1.353 . S
C54 C57 1.348 . S
C54 H86 0.929 . S
C55 C56 1.358 . S
C55 C57 1.356 . S
C55 H87 0.930 . S
C56 N53 1.279 . S
C56 C55 1.358 . S
C56 H59 0.930 . S
C57 C54 1.348 . S
C57 C55 1.356 . S
H58 C52 0.930 . S
H59 C56 0.930 . S
O60 Li0 1.956 . S
O60 Li1 1.970 . S
O60 Li2 1.961 . S
O60 C4 1.325 . S
O61 Li0 1.970 . S
O61 Li1 1.956 . S
O61 Li3 1.961 . S
O61 C10 1.325 . S
O62 Li0 1.961 . S
O62 Li2 1.956 . S
O62 Li3 1.970 . S
O62 C32 1.325 . S
O63 Li1 1.961 . S
O63 Li2 1.970 . S
O63 Li3 1.956 . S
O63 C38 1.325 . S
H64 C6 0.929 . S
H65 C7 0.930 . S
H66 C8 0.930 . S
H67 C9 0.930 . S
H68 C11 0.930 . S
H69 C13 0.929 . S
H70 C14 0.930 . S
H71 C15 0.930 . S
H72 C18 0.930 . S
H73 C21 0.929 . S
H74 C26 0.929 . S
H75 C27 0.930 . S
H76 C34 0.929 . S
H77 C35 0.930 . S
H78 C36 0.930 . S
H79 C37 0.930 . S
H80 C39 0.929 . S
H81 C40 0.930 . S
H82 C41 0.930 . S
H83 C42 0.930 . S
H84 C46 0.929 . S
H85 C48 0.930 . S
H86 C54 0.929 . S
H87 C55 0.930 . S
Li88 N105 1.990 . S
Li88 O148 1.956 . S
Li88 O149 1.970 . S
Li88 O150 1.961 1_455 S
Li89 N113 1.990 . S
Li89 O148 1.970 . S
Li89 O149 1.956 . S
Li89 O151 1.961 1_455 S
Li90 N135 1.990 . S
Li90 O148 1.961 1_655 S
Li90 O150 1.956 . S
Li90 O151 1.970 . S
Li91 N141 1.990 . S
Li91 O149 1.961 1_655 S
Li91 O150 1.970 . S
Li91 O151 1.956 . S
C92 C94 1.348 . S
C92 C95 1.356 . S
C92 O148 1.325 . S
N93 C96 1.314 . S
N93 C97 1.279 . S
C94 C92 1.348 . S
C94 C96 1.353 . S
C94 H152 0.929 . S
C95 C92 1.356 . S
C95 C97 1.358 . S
C95 H153 0.930 . S
C96 N93 1.314 . S
C96 C94 1.353 . S
C96 H154 0.930 . S
C97 N93 1.279 . S
C97 C95 1.358 . S
C97 H155 0.930 . S
C98 C101 1.348 . S
C98 C102 1.356 . S
C98 O149 1.325 . S
C99 N100 1.279 . S
C99 C102 1.358 . S
C99 H156 0.930 . S
N100 C99 1.279 . S
N100 C103 1.314 . S
C101 C98 1.348 . S
C101 C103 1.353 . S
C101 H157 0.929 . S
C102 C98 1.356 . S
C102 C99 1.358 . S
C102 H158 0.930 . S
C103 N100 1.314 . S
C103 C101 1.353 . S
C103 H159 0.930 . S
C104 N105 1.314 1_655 S
C104 C109 1.353 . S
C104 H110 0.930 . S
N105 Li88 1.990 . S
N105 C104 1.314 1_455 S
N105 C107 1.279 . S
C106 C107 1.358 . S
C106 C108 1.356 . S
C106 H160 0.930 . S
C107 N105 1.279 . S
C107 C106 1.358 . S
C107 H111 0.930 . S
C108 C106 1.356 . S
C108 C109 1.348 1_455 S
C109 C104 1.353 . S
C109 C108 1.348 1_655 S
C109 H161 0.929 . S
H110 C104 0.930 . S
H111 C107 0.930 . S
C112 N113 1.314 . S
C112 C114 1.353 . S
C112 H118 0.930 . S
N113 Li89 1.990 . S
N113 C112 1.314 . S
N113 C116 1.279 . S
C114 C112 1.353 . S
C114 C117 1.348 . S
C114 H162 0.929 . S
C115 C116 1.358 . S
C115 C117 1.356 . S
C115 H163 0.930 . S
C116 N113 1.279 . S
C116 C115 1.358 . S
C116 H119 0.930 . S
C117 C114 1.348 . S
C117 C115 1.356 . S
H118 C112 0.930 . S
H119 C116 0.930 . S
C120 C122 1.348 . S
C120 C123 1.356 . S
C120 O150 1.325 . S
N121 C124 1.314 . S
N121 C125 1.279 . S
C122 C120 1.348 . S
C122 C124 1.353 . S
C122 H164 0.929 . S
C123 C120 1.356 . S
C123 C125 1.358 . S
C123 H165 0.930 . S
C124 N121 1.314 . S
C124 C122 1.353 . S
C124 H166 0.930 . S
C125 N121 1.279 . S
C125 C123 1.358 . S
C125 H167 0.930 . S
C126 C127 1.348 . S
C126 C128 1.356 1_655 S
C126 O151 1.325 . S
C127 C126 1.348 . S
C127 C129 1.353 . S
C127 H168 0.929 . S
C128 C126 1.356 1_455 S
C128 C130 1.358 . S
C128 H169 0.930 . S
C129 C127 1.353 . S
C129 N131 1.314 . S
C129 H170 0.930 . S
C130 C128 1.358 . S
C130 N131 1.279 1_455 S
C130 H171 0.932 . S
N131 C129 1.314 . S
N131 C130 1.279 1_655 S
C132 C134 1.353 . S
C132 N135 1.314 1_455 S
C132 H138 0.930 . S
C133 N135 1.279 . S
C133 C136 1.358 . S
C133 H139 0.930 . S
C134 C132 1.353 . S
C134 C137 1.348 1_455 S
C134 H172 0.929 . S
N135 Li90 1.990 . S
N135 C132 1.314 1_655 S
N135 C133 1.279 . S
C136 C133 1.358 . S
C136 C137 1.356 . S
C136 H173 0.930 . S
C137 C134 1.348 1_655 S
C137 C136 1.356 . S
H138 C132 0.930 . S
H139 C133 0.930 . S
C140 N141 1.314 . S
C140 C142 1.353 . S
C140 H146 0.930 . S
N141 Li91 1.990 . S
N141 C140 1.314 . S
N141 C144 1.279 . S
C142 C140 1.353 . S
C142 C145 1.348 . S
C142 H174 0.929 . S
C143 C144 1.358 . S
C143 C145 1.356 . S
C143 H175 0.930 . S
C144 N141 1.279 . S
C144 C143 1.358 . S
C144 H147 0.930 . S
C145 C142 1.348 . S
C145 C143 1.356 . S
H146 C140 0.930 . S
H147 C144 0.930 . S
O148 Li88 1.956 . S
O148 Li89 1.970 . S
O148 Li90 1.961 1_455 S
O148 C92 1.325 . S
O149 Li88 1.970 . S
O149 Li89 1.956 . S
O149 Li91 1.961 1_455 S
O149 C98 1.325 . S
O150 Li88 1.961 1_655 S
O150 Li90 1.956 . S
O150 Li91 1.970 . S
O150 C120 1.325 . S
O151 Li89 1.961 1_655 S
O151 Li90 1.970 . S
O151 Li91 1.956 . S
O151 C126 1.325 . S
H152 C94 0.929 . S
H153 C95 0.930 . S
H154 C96 0.930 . S
H155 C97 0.930 . S
H156 C99 0.930 . S
H157 C101 0.929 . S
H158 C102 0.930 . S
H159 C103 0.930 . S
H160 C106 0.930 . S
H161 C109 0.929 . S
H162 C114 0.929 . S
H163 C115 0.930 . S
H164 C122 0.929 . S
H165 C123 0.930 . S
H166 C124 0.930 . S
H167 C125 0.930 . S
H168 C127 0.929 . S
H169 C128 0.930 . S
H170 C129 0.930 . S
H171 C130 0.932 . S
H172 C134 0.929 . S
H173 C136 0.930 . S
H174 C142 0.929 . S
H175 C143 0.930 . S
Li176 N193 1.990 . S
Li176 O236 1.956 . S
Li176 O237 1.970 . S
Li176 O238 1.961 . S
Li177 N201 1.990 . S
Li177 O236 1.970 . S
Li177 O237 1.956 . S
Li177 O239 1.961 . S
Li178 N223 1.990 . S
Li178 O236 1.961 . S
Li178 O238 1.956 . S
Li178 O239 1.970 . S
Li179 N229 1.990 . S
Li179 O237 1.961 . S
Li179 O238 1.970 . S
Li179 O239 1.956 . S
C180 C182 1.348 . S
C180 C183 1.356 . S
C180 O236 1.325 . S
N181 C184 1.314 . S
N181 C185 1.279 . S
C182 C180 1.348 . S
C182 C184 1.353 . S
C182 H240 0.929 . S
C183 C180 1.356 . S
C183 C185 1.358 . S
C183 H241 0.930 . S
C184 N181 1.314 . S
C184 C182 1.353 . S
C184 H242 0.930 . S
C185 N181 1.279 . S
C185 C183 1.358 . S
C185 H243 0.930 . S
C186 C189 1.348 . S
C186 C190 1.356 . S
C186 O237 1.325 . S
C187 N188 1.279 . S
C187 C190 1.358 . S
C187 H244 0.930 1_556 S
N188 C187 1.279 . S
N188 C191 1.314 . S
C189 C186 1.348 . S
C189 C191 1.353 . S
C189 H245 0.929 . S
C190 C186 1.356 . S
C190 C187 1.358 . S
C190 H246 0.930 . S
C191 N188 1.314 . S
C191 C189 1.353 . S
C191 H247 0.930 . S
C192 N193 1.314 . S
C192 C197 1.353 . S
C192 H198 0.930 . S
N193 Li176 1.990 . S
N193 C192 1.314 . S
N193 C195 1.279 . S
C194 C195 1.358 . S
C194 C196 1.356 . S
C194 H248 0.930 . S
C195 N193 1.279 . S
C195 C194 1.358 . S
C195 H199 0.930 . S
C196 C194 1.356 . S
C196 C197 1.348 . S
C197 C192 1.353 . S
C197 C196 1.348 . S
C197 H249 0.929 . S
H198 C192 0.930 . S
H199 C195 0.930 . S
C200 N201 1.314 . S
C200 C202 1.353 . S
C200 H206 0.930 . S
N201 Li177 1.990 . S
N201 C200 1.314 . S
N201 C204 1.279 . S
C202 C200 1.353 . S
C202 C205 1.348 1_565 S
C202 H250 0.929 1_565 S
C203 C204 1.358 . S
C203 C205 1.356 1_565 S
C203 H251 0.925 1_556 S
C204 N201 1.279 . S
C204 C203 1.358 . S
C204 H207 0.930 . S
C205 C202 1.348 1_545 S
C205 C203 1.356 1_545 S
H206 C200 0.930 . S
H207 C204 0.930 . S
C208 C210 1.348 . S
C208 C211 1.356 . S
C208 O238 1.325 . S
N209 C212 1.314 . S
N209 C213 1.279 . S
C210 C208 1.348 . S
C210 C212 1.353 . S
C210 H252 0.929 . S
C211 C208 1.356 . S
C211 C213 1.358 . S
C211 H253 0.930 . S
C212 N209 1.314 . S
C212 C210 1.353 . S
C212 H254 0.930 . S
C213 N209 1.279 . S
C213 C211 1.358 . S
C213 H255 0.930 . S
C214 C215 1.348 . S
C214 C216 1.356 . S
C214 O239 1.325 . S
C215 C214 1.348 . S
C215 C217 1.353 . S
C215 H256 0.929 . S
C216 C214 1.356 . S
C216 C218 1.358 . S
C216 H257 0.930 . S
C217 C215 1.353 . S
C217 N219 1.314 . S
C217 H258 0.930 . S
C218 C216 1.358 . S
C218 N219 1.279 . S
C218 H259 0.930 1_556 S
N219 C217 1.314 . S
N219 C218 1.279 . S
C220 C222 1.353 . S
C220 N223 1.314 . S
C220 H226 0.930 . S
C221 N223 1.279 . S
C221 C224 1.358 . S
C221 H227 0.930 . S
C222 C220 1.353 . S
C222 C225 1.348 . S
C222 H260 0.929 . S
N223 Li178 1.990 . S
N223 C220 1.314 . S
N223 C221 1.279 . S
C224 C221 1.358 . S
C224 C225 1.356 . S
C224 H261 0.930 . S
C225 C222 1.348 . S
C225 C224 1.356 . S
H226 C220 0.930 . S
H227 C221 0.930 . S
C228 N229 1.314 . S
C228 C230 1.353 . S
C228 H234 0.930 . S
N229 Li179 1.990 . S
N229 C228 1.314 . S
N229 C232 1.279 . S
C230 C228 1.353 . S
C230 C233 1.348 . S
C230 H262 0.929 . S
C231 C232 1.358 . S
C231 C233 1.356 . S
C231 H263 0.930 . S
C232 N229 1.279 . S
C232 C231 1.358 . S
C232 H235 0.930 . S
C233 C230 1.348 . S
C233 C231 1.356 . S
H234 C228 0.930 . S
H235 C232 0.930 . S
O236 Li176 1.956 . S
O236 Li177 1.970 . S
O236 Li178 1.961 . S
O236 C180 1.325 . S
O237 Li176 1.970 . S
O237 Li177 1.956 . S
O237 Li179 1.961 . S
O237 C186 1.325 . S
O238 Li176 1.961 . S
O238 Li178 1.956 . S
O238 Li179 1.970 . S
O238 C208 1.325 . S
O239 Li177 1.961 . S
O239 Li178 1.970 . S
O239 Li179 1.956 . S
O239 C214 1.325 . S
H240 C182 0.929 . S
H241 C183 0.930 . S
H242 C184 0.930 . S
H243 C185 0.930 . S
H244 C187 0.930 1_554 S
H245 C189 0.929 . S
H246 C190 0.930 . S
H247 C191 0.930 . S
H248 C194 0.930 . S
H249 C197 0.929 . S
H250 C202 0.929 1_545 S
H251 C203 0.925 1_554 S
H252 C210 0.929 . S
H253 C211 0.930 . S
H254 C212 0.930 . S
H255 C213 0.930 . S
H256 C215 0.929 . S
H257 C216 0.930 . S
H258 C217 0.930 . S
H259 C218 0.930 1_554 S
H260 C222 0.929 . S
H261 C224 0.930 . S
H262 C230 0.929 . S
H263 C231 0.930 . S
Li264 N281 1.990 . S
Li264 O324 1.956 . S
Li264 O325 1.970 . S
Li264 O326 1.961 . S
Li265 N289 1.990 . S
Li265 O324 1.970 . S
Li265 O325 1.956 . S
Li265 O327 1.961 . S
Li266 N311 1.990 . S
Li266 O324 1.961 . S
Li266 O326 1.956 . S
Li266 O327 1.970 . S
Li267 N317 1.990 . S
Li267 O325 1.961 . S
Li267 O326 1.970 . S
Li267 O327 1.956 . S
C268 C270 1.348 . S
C268 C271 1.356 . S
C268 O324 1.325 . S
N269 C272 1.314 . S
N269 C273 1.279 . S
C270 C268 1.348 . S
C270 C272 1.353 . S
C270 H328 0.929 . S
C271 C268 1.356 . S
C271 C273 1.358 . S
C271 H329 0.930 . S
C272 N269 1.314 . S
C272 C270 1.353 . S
C272 H330 0.930 . S
C273 N269 1.279 . S
C273 C271 1.358 . S
C273 H331 0.930 . S
C274 C277 1.348 . S
C274 C278 1.356 . S
C274 O325 1.325 . S
C275 N276 1.279 . S
C275 C278 1.358 . S
C275 H332 0.930 . S
N276 C275 1.279 . S
N276 C279 1.314 . S
C277 C274 1.348 . S
C277 C279 1.353 . S
C277 H333 0.929 . S
C278 C274 1.356 . S
C278 C275 1.358 . S
C278 H334 0.930 . S
C279 N276 1.314 . S
C279 C277 1.353 . S
C279 H335 0.930 . S
C280 N281 1.314 . S
C280 C285 1.353 . S
C280 H286 0.930 . S
N281 Li264 1.990 . S
N281 C280 1.314 . S
N281 C283 1.279 . S
C282 C283 1.358 . S
C282 C284 1.356 . S
C282 H336 0.930 . S
C283 N281 1.279 . S
C283 C282 1.358 . S
C283 H287 0.930 . S
C284 C282 1.356 . S
C284 C285 1.348 . S
C285 C280 1.353 . S
C285 C284 1.348 . S
C285 H337 0.929 . S
H286 C280 0.930 . S
H287 C283 0.930 . S
C288 N289 1.314 . S
C288 C290 1.353 . S
C288 H294 0.930 . S
N289 Li265 1.990 . S
N289 C288 1.314 . S
N289 C292 1.279 . S
C290 C288 1.353 . S
C290 C293 1.348 . S
C290 H338 0.929 . S
C291 C292 1.358 . S
C291 C293 1.356 . S
C291 H339 0.930 . S
C292 N289 1.279 . S
C292 C291 1.358 . S
C292 H295 0.930 . S
C293 C290 1.348 . S
C293 C291 1.356 . S
H294 C288 0.930 . S
H295 C292 0.930 . S
C296 C298 1.348 . S
C296 C299 1.356 . S
C296 O326 1.325 . S
N297 C300 1.314 . S
N297 C301 1.279 . S
C298 C296 1.348 . S
C298 C300 1.353 . S
C298 H340 0.929 . S
C299 C296 1.356 . S
C299 C301 1.358 . S
C299 H341 0.930 . S
C300 N297 1.314 . S
C300 C298 1.353 . S
C300 H342 0.930 . S
C301 N297 1.279 . S
C301 C299 1.358 . S
C301 H343 0.930 . S
C302 C303 1.348 . S
C302 C304 1.356 . S
C302 O327 1.325 . S
C303 C302 1.348 . S
C303 C305 1.353 . S
C303 H344 0.929 . S
C304 C302 1.356 . S
C304 C306 1.358 . S
C304 H345 0.930 . S
C305 C303 1.353 . S
C305 N307 1.314 . S
C305 H346 0.930 . S
C306 C304 1.358 . S
C306 N307 1.279 . S
C306 H347 0.930 . S
N307 C305 1.314 . S
N307 C306 1.279 . S
C308 C310 1.353 . S
C308 N311 1.314 . S
C308 H314 0.930 . S
C309 N311 1.279 . S
C309 C312 1.358 . S
C309 H315 0.930 . S
C310 C308 1.353 . S
C310 C313 1.348 . S
C310 H348 0.929 . S
N311 Li266 1.990 . S
N311 C308 1.314 . S
N311 C309 1.279 . S
C312 C309 1.358 . S
C312 C313 1.356 . S
C312 H349 0.930 . S
C313 C310 1.348 . S
C313 C312 1.356 . S
H314 C308 0.930 . S
H315 C309 0.930 . S
C316 N317 1.314 . S
C316 C318 1.353 . S
C316 H322 0.930 . S
N317 Li267 1.990 . S
N317 C316 1.314 . S
N317 C320 1.279 . S
C318 C316 1.353 . S
C318 C321 1.348 . S
C318 H350 0.929 . S
C319 C320 1.358 . S
C319 C321 1.356 . S
C319 H351 0.930 . S
C320 N317 1.279 . S
C320 C319 1.358 . S
C320 H323 0.930 . S
C321 C318 1.348 . S
C321 C319 1.356 . S
H322 C316 0.930 . S
H323 C320 0.930 . S
O324 Li264 1.956 . S
O324 Li265 1.970 . S
O324 Li266 1.961 . S
O324 C268 1.325 . S
O325 Li264 1.970 . S
O325 Li265 1.956 . S
O325 Li267 1.961 . S
O325 C274 1.325 . S
O326 Li264 1.961 . S
O326 Li266 1.956 . S
O326 Li267 1.970 . S
O326 C296 1.325 . S
O327 Li265 1.961 . S
O327 Li266 1.970 . S
O327 Li267 1.956 . S
O327 C302 1.325 . S
H328 C270 0.929 . S
H329 C271 0.930 . S
H330 C272 0.930 . S
H331 C273 0.930 . S
H332 C275 0.930 . S
H333 C277 0.929 . S
H334 C278 0.930 . S
H335 C279 0.930 . S
H336 C282 0.930 . S
H337 C285 0.929 . S
H338 C290 0.929 . S
H339 C291 0.930 . S
H340 C298 0.929 . S
H341 C299 0.930 . S
H342 C300 0.930 . S
H343 C301 0.930 . S
H344 C303 0.929 . S
H345 C304 0.930 . S
H346 C305 0.930 . S
H347 C306 0.930 . S
H348 C310 0.929 . S
H349 C312 0.930 . S
H350 C318 0.929 . S
H351 C319 0.930 . S
Li352 N369 1.990 . S
Li352 O412 1.956 . S
Li352 O413 1.970 . S
Li352 O414 1.961 . S
Li353 N377 1.990 . S
Li353 O412 1.970 . S
Li353 O413 1.956 . S
Li353 O415 1.961 . S
Li354 N399 1.990 . S
Li354 O412 1.961 . S
Li354 O414 1.956 . S
Li354 O415 1.970 . S
Li355 N405 1.990 . S
Li355 O413 1.961 . S
Li355 O414 1.970 . S
Li355 O415 1.956 . S
C356 C358 1.348 . S
C356 C359 1.356 . S
C356 O412 1.325 . S
N357 C360 1.314 . S
N357 C361 1.279 1_554 S
C358 C356 1.348 . S
C358 C360 1.353 . S
C358 H416 0.929 . S
C359 C356 1.356 . S
C359 C361 1.358 1_554 S
C359 H417 0.930 . S
C360 N357 1.314 . S
C360 C358 1.353 . S
C360 H418 0.930 . S
C361 N357 1.279 1_556 S
C361 C359 1.358 1_556 S
C361 H419 0.930 . S
C362 C365 1.348 . S
C362 C366 1.356 . S
C362 O413 1.325 . S
C363 N364 1.279 . S
C363 C366 1.358 . S
C363 H420 0.930 . S
N364 C363 1.279 . S
N364 C367 1.314 . S
C365 C362 1.348 . S
C365 C367 1.353 . S
C365 H421 0.929 . S
C366 C362 1.356 . S
C366 C363 1.358 . S
C366 H422 0.930 . S
C367 N364 1.314 . S
C367 C365 1.353 . S
C367 H423 0.930 . S
C368 N369 1.314 . S
C368 C373 1.353 . S
C368 H374 0.930 . S
N369 Li352 1.990 . S
N369 C368 1.314 . S
N369 C371 1.279 . S
C370 C371 1.358 . S
C370 C372 1.356 . S
C370 H424 0.930 . S
C371 N369 1.279 . S
C371 C370 1.358 . S
C371 H375 0.930 . S
C372 C370 1.356 . S
C372 C373 1.348 . S
C373 C368 1.353 . S
C373 C372 1.348 . S
C373 H425 0.929 . S
H374 C368 0.930 . S
H375 C371 0.930 . S
C376 N377 1.314 . S
C376 C378 1.353 . S
C376 H382 0.930 . S
N377 Li353 1.990 . S
N377 C376 1.314 . S
N377 C380 1.279 . S
C378 C376 1.353 . S
C378 C381 1.348 . S
C378 H426 0.929 . S
C379 C380 1.358 . S
C379 C381 1.356 . S
C379 H427 0.930 . S
C380 N377 1.279 . S
C380 C379 1.358 . S
C380 H383 0.930 . S
C381 C378 1.348 . S
C381 C379 1.356 . S
H382 C376 0.930 . S
H383 C380 0.930 . S
C384 C386 1.348 . S
C384 C387 1.356 . S
C384 O414 1.325 . S
N385 C388 1.314 1_556 S
N385 C389 1.279 . S
C386 C384 1.348 . S
C386 C388 1.353 . S
C386 H428 0.929 . S
C387 C384 1.356 . S
C387 C389 1.358 1_554 S
C387 H429 0.930 . S
C388 N385 1.314 1_554 S
C388 C386 1.353 . S
C388 H430 0.930 1_455 S
C389 N385 1.279 . S
C389 C387 1.358 1_556 S
C389 H431 0.930 . S
C390 C391 1.348 . S
C390 C392 1.356 . S
C390 O415 1.325 . S
C391 C390 1.348 . S
C391 C393 1.353 . S
C391 H432 0.929 . S
C392 C390 1.356 . S
C392 C394 1.358 . S
C392 H433 0.930 . S
C393 C391 1.353 . S
C393 N395 1.314 . S
C393 H434 0.930 . S
C394 C392 1.358 . S
C394 N395 1.279 . S
C394 H435 0.930 . S
N395 C393 1.314 . S
N395 C394 1.279 . S
C396 C398 1.353 . S
C396 N399 1.314 . S
C396 H402 0.930 . S
C397 N399 1.279 . S
C397 C400 1.358 1_554 S
C397 H403 0.930 . S
C398 C396 1.353 . S
C398 C401 1.348 1_554 S
C398 H436 0.929 1_554 S
N399 Li354 1.990 . S
N399 C396 1.314 . S
N399 C397 1.279 . S
C400 C397 1.358 1_556 S
C400 C401 1.356 . S
C400 H437 0.930 . S
C401 C398 1.348 1_556 S
C401 C400 1.356 . S
H402 C396 0.930 . S
H403 C397 0.930 . S
C404 N405 1.314 . S
C404 C406 1.353 . S
C404 H410 0.930 . S
N405 Li355 1.990 . S
N405 C404 1.314 . S
N405 C408 1.279 . S
C406 C404 1.353 . S
C406 C409 1.348 . S
C406 H438 0.929 . S
C407 C408 1.358 . S
C407 C409 1.356 . S
C407 H439 0.930 . S
C408 N405 1.279 . S
C408 C407 1.358 . S
C408 H411 0.930 . S
C409 C406 1.348 . S
C409 C407 1.356 . S
H410 C404 0.930 . S
H411 C408 0.930 . S
O412 Li352 1.956 . S
O412 Li353 1.970 . S
O412 Li354 1.961 . S
O412 C356 1.325 . S
O413 Li352 1.970 . S
O413 Li353 1.956 . S
O413 Li355 1.961 . S
O413 C362 1.325 . S
O414 Li352 1.961 . S
O414 Li354 1.956 . S
O414 Li355 1.970 . S
O414 C384 1.325 . S
O415 Li353 1.961 . S
O415 Li354 1.970 . S
O415 Li355 1.956 . S
O415 C390 1.325 . S
H416 C358 0.929 . S
H417 C359 0.930 . S
H418 C360 0.930 . S
H419 C361 0.930 . S
H420 C363 0.930 . S
H421 C365 0.929 . S
H422 C366 0.930 . S
H423 C367 0.930 . S
H424 C370 0.930 . S
H425 C373 0.929 . S
H426 C378 0.929 . S
H427 C379 0.930 . S
H428 C386 0.929 . S
H429 C387 0.930 . S
H430 C388 0.930 1_655 S
H431 C389 0.930 . S
H432 C391 0.929 . S
H433 C392 0.930 . S
H434 C393 0.930 . S
H435 C394 0.930 . S
H436 C398 0.929 1_556 S
H437 C400 0.930 . S
H438 C406 0.929 . S
H439 C407 0.930 . S
Li440 N457 1.990 . S
Li440 O500 1.956 . S
Li440 O501 1.970 . S
Li440 O502 1.961 . S
Li441 N465 1.990 . S
Li441 O500 1.970 . S
Li441 O501 1.956 . S
Li441 O503 1.961 . S
Li442 N487 1.990 . S
Li442 O500 1.961 . S
Li442 O502 1.956 . S
Li442 O503 1.970 . S
Li443 N493 1.990 . S
Li443 O501 1.961 . S
Li443 O502 1.970 . S
Li443 O503 1.956 . S
C444 C446 1.348 . S
C444 C447 1.356 . S
C444 O500 1.325 . S
N445 C448 1.314 . S
N445 C449 1.279 . S
C446 C444 1.348 . S
C446 C448 1.353 . S
C446 H504 0.929 . S
C447 C444 1.356 . S
C447 C449 1.358 . S
C447 H505 0.930 . S
C448 N445 1.314 . S
C448 C446 1.353 . S
C448 H506 0.930 . S
C449 N445 1.279 . S
C449 C447 1.358 . S
C449 H507 0.930 . S
C450 C453 1.348 . S
C450 C454 1.356 . S
C450 O501 1.325 . S
C451 N452 1.279 . S
C451 C454 1.358 . S
C451 H508 0.930 . S
N452 C451 1.279 . S
N452 C455 1.314 . S
C453 C450 1.348 . S
C453 C455 1.353 . S
C453 H509 0.929 . S
C454 C450 1.356 . S
C454 C451 1.358 . S
C454 H510 0.930 . S
C455 N452 1.314 . S
C455 C453 1.353 . S
C455 H511 0.930 . S
C456 N457 1.314 . S
C456 C461 1.353 . S
C456 H462 0.930 . S
N457 Li440 1.990 . S
N457 C456 1.314 . S
N457 C459 1.279 . S
C458 C459 1.358 . S
C458 C460 1.356 . S
C458 H512 0.930 . S
C459 N457 1.279 . S
C459 C458 1.358 . S
C459 H463 0.930 . S
C460 C458 1.356 . S
C460 C461 1.348 . S
C461 C456 1.353 . S
C461 C460 1.348 . S
C461 H513 0.929 . S
H462 C456 0.930 . S
H463 C459 0.930 . S
C464 N465 1.314 . S
C464 C466 1.353 . S
C464 H470 0.930 . S
N465 Li441 1.990 . S
N465 C464 1.314 . S
N465 C468 1.279 . S
C466 C464 1.353 . S
C466 C469 1.348 . S
C466 H514 0.929 . S
C467 C468 1.358 . S
C467 C469 1.356 . S
C467 H515 0.930 . S
C468 N465 1.279 . S
C468 C467 1.358 . S
C468 H471 0.930 . S
C469 C466 1.348 . S
C469 C467 1.356 . S
H470 C464 0.930 . S
H471 C468 0.930 . S
C472 C474 1.348 . S
C472 C475 1.356 . S
C472 O502 1.325 . S
N473 C476 1.314 . S
N473 C477 1.279 . S
C474 C472 1.348 . S
C474 C476 1.353 . S
C474 H516 0.929 . S
C475 C472 1.356 . S
C475 C477 1.358 . S
C475 H517 0.930 . S
C476 N473 1.314 . S
C476 C474 1.353 . S
C476 H518 0.930 . S
C477 N473 1.279 . S
C477 C475 1.358 . S
C477 H519 0.930 . S
C478 C479 1.348 . S
C478 C480 1.356 . S
C478 O503 1.325 . S
C479 C478 1.348 . S
C479 C481 1.353 . S
C479 H520 0.929 . S
C480 C478 1.356 . S
C480 C482 1.358 . S
C480 H521 0.930 . S
C481 C479 1.353 . S
C481 N483 1.314 . S
C481 H522 0.930 . S
C482 C480 1.358 . S
C482 N483 1.279 . S
C482 H523 0.930 . S
N483 C481 1.314 . S
N483 C482 1.279 . S
C484 C486 1.353 . S
C484 N487 1.314 . S
C484 H490 0.930 . S
C485 N487 1.279 . S
C485 C488 1.358 . S
C485 H491 0.930 . S
C486 C484 1.353 . S
C486 C489 1.348 . S
C486 H524 0.929 . S
N487 Li442 1.990 . S
N487 C484 1.314 . S
N487 C485 1.279 . S
C488 C485 1.358 . S
C488 C489 1.356 . S
C488 H525 0.930 . S
C489 C486 1.348 . S
C489 C488 1.356 . S
H490 C484 0.930 . S
H491 C485 0.930 . S
C492 N493 1.314 . S
C492 C494 1.353 . S
C492 H498 0.930 . S
N493 Li443 1.990 . S
N493 C492 1.314 . S
N493 C496 1.279 . S
C494 C492 1.353 . S
C494 C497 1.348 . S
C494 H526 0.929 . S
C495 C496 1.358 . S
C495 C497 1.356 . S
C495 H527 0.930 . S
C496 N493 1.279 . S
C496 C495 1.358 . S
C496 H499 0.930 . S
C497 C494 1.348 . S
C497 C495 1.356 . S
H498 C492 0.930 . S
H499 C496 0.930 . S
O500 Li440 1.956 . S
O500 Li441 1.970 . S
O500 Li442 1.961 . S
O500 C444 1.325 . S
O501 Li440 1.970 . S
O501 Li441 1.956 . S
O501 Li443 1.961 . S
O501 C450 1.325 . S
O502 Li440 1.961 . S
O502 Li442 1.956 . S
O502 Li443 1.970 . S
O502 C472 1.325 . S
O503 Li441 1.961 . S
O503 Li442 1.970 . S
O503 Li443 1.956 . S
O503 C478 1.325 . S
H504 C446 0.929 . S
H505 C447 0.930 . S
H506 C448 0.930 . S
H507 C449 0.930 . S
H508 C451 0.930 . S
H509 C453 0.929 . S
H510 C454 0.930 . S
H511 C455 0.930 . S
H512 C458 0.930 . S
H513 C461 0.929 . S
H514 C466 0.929 . S
H515 C467 0.930 . S
H516 C474 0.929 . S
H517 C475 0.930 . S
H518 C476 0.930 . S
H519 C477 0.930 . S
H520 C479 0.929 . S
H521 C480 0.930 . S
H522 C481 0.930 . S
H523 C482 0.930 . S
H524 C486 0.929 . S
H525 C488 0.930 . S
H526 C494 0.929 . S
H527 C495 0.930 . S
Li528 N545 1.990 . S
Li528 O588 1.956 . S
Li528 O589 1.970 . S
Li528 O590 1.961 . S
Li529 N553 1.990 . S
Li529 O588 1.970 . S
Li529 O589 1.956 . S
Li529 O591 1.961 . S
Li530 N575 1.990 . S
Li530 O588 1.961 . S
Li530 O590 1.956 . S
Li530 O591 1.970 . S
Li531 N581 1.990 . S
Li531 O589 1.961 . S
Li531 O590 1.970 . S
Li531 O591 1.956 . S
C532 C534 1.348 . S
C532 C535 1.356 . S
C532 O588 1.325 . S
N533 C536 1.314 . S
N533 C537 1.279 . S
C534 C532 1.348 . S
C534 C536 1.353 . S
C534 H592 0.929 . S
C535 C532 1.356 . S
C535 C537 1.358 . S
C535 H593 0.930 . S
C536 N533 1.314 . S
C536 C534 1.353 . S
C536 H594 0.930 . S
C537 N533 1.279 . S
C537 C535 1.358 . S
C537 H595 0.930 . S
C538 C541 1.348 . S
C538 C542 1.356 . S
C538 O589 1.325 . S
C539 N540 1.279 . S
C539 C542 1.358 . S
C539 H596 0.930 . S
N540 C539 1.279 . S
N540 C543 1.314 . S
C541 C538 1.348 . S
C541 C543 1.353 . S
C541 H597 0.929 . S
C542 C538 1.356 . S
C542 C539 1.358 . S
C542 H598 0.930 . S
C543 N540 1.314 . S
C543 C541 1.353 . S
C543 H599 0.930 . S
C544 N545 1.314 . S
C544 C549 1.353 . S
C544 H550 0.930 . S
N545 Li528 1.990 . S
N545 C544 1.314 . S
N545 C547 1.279 . S
C546 C547 1.358 . S
C546 C548 1.356 . S
C546 H600 0.930 . S
C547 N545 1.279 . S
C547 C546 1.358 . S
C547 H551 0.930 . S
C548 C546 1.356 . S
C548 C549 1.348 . S
C549 C544 1.353 . S
C549 C548 1.348 . S
C549 H601 0.929 . S
H550 C544 0.930 . S
H551 C547 0.930 . S
C552 N553 1.314 . S
C552 C554 1.353 . S
C552 H558 0.930 . S
N553 Li529 1.990 . S
N553 C552 1.314 . S
N553 C556 1.279 . S
C554 C552 1.353 . S
C554 C557 1.348 . S
C554 H602 0.929 . S
C555 C556 1.358 . S
C555 C557 1.356 . S
C555 H603 0.930 . S
C556 N553 1.279 . S
C556 C555 1.358 . S
C556 H559 0.930 . S
C557 C554 1.348 . S
C557 C555 1.356 . S
H558 C552 0.930 . S
H559 C556 0.930 . S
C560 C562 1.348 . S
C560 C563 1.356 . S
C560 O590 1.325 . S
N561 C564 1.314 . S
N561 C565 1.279 . S
C562 C560 1.348 . S
C562 C564 1.353 . S
C562 H604 0.929 . S
C563 C560 1.356 . S
C563 C565 1.358 . S
C563 H605 0.930 . S
C564 N561 1.314 . S
C564 C562 1.353 . S
C564 H606 0.930 . S
C565 N561 1.279 . S
C565 C563 1.358 . S
C565 H607 0.930 . S
C566 C567 1.348 . S
C566 C568 1.356 . S
C566 O591 1.325 . S
C567 C566 1.348 . S
C567 C569 1.353 . S
C567 H608 0.929 . S
C568 C566 1.356 . S
C568 C570 1.358 . S
C568 H609 0.930 . S
C569 C567 1.353 . S
C569 N571 1.314 . S
C569 H610 0.930 . S
C570 C568 1.358 . S
C570 N571 1.279 . S
C570 H611 0.930 . S
N571 C569 1.314 . S
N571 C570 1.279 . S
C572 C574 1.353 . S
C572 N575 1.314 . S
C572 H578 0.930 . S
C573 N575 1.279 . S
C573 C576 1.358 . S
C573 H579 0.930 . S
C574 C572 1.353 . S
C574 C577 1.348 . S
C574 H612 0.929 . S
N575 Li530 1.990 . S
N575 C572 1.314 . S
N575 C573 1.279 . S
C576 C573 1.358 . S
C576 C577 1.356 . S
C576 H613 0.930 . S
C577 C574 1.348 . S
C577 C576 1.356 . S
H578 C572 0.930 . S
H579 C573 0.930 . S
C580 N581 1.314 . S
C580 C582 1.353 . S
C580 H586 0.930 . S
N581 Li531 1.990 . S
N581 C580 1.314 . S
N581 C584 1.279 . S
C582 C580 1.353 . S
C582 C585 1.348 . S
C582 H614 0.929 . S
C583 C584 1.358 . S
C583 C585 1.356 . S
C583 H615 0.930 . S
C584 N581 1.279 . S
C584 C583 1.358 . S
C584 H587 0.930 . S
C585 C582 1.348 . S
C585 C583 1.356 . S
H586 C580 0.930 . S
H587 C584 0.930 . S
O588 Li528 1.956 . S
O588 Li529 1.970 . S
O588 Li530 1.961 . S
O588 C532 1.325 . S
O589 Li528 1.970 . S
O589 Li529 1.956 . S
O589 Li531 1.961 . S
O589 C538 1.325 . S
O590 Li528 1.961 . S
O590 Li530 1.956 . S
O590 Li531 1.970 . S
O590 C560 1.325 . S
O591 Li529 1.961 . S
O591 Li530 1.970 . S
O591 Li531 1.956 . S
O591 C566 1.325 . S
H592 C534 0.929 . S
H593 C535 0.930 . S
H594 C536 0.930 . S
H595 C537 0.930 . S
H596 C539 0.930 . S
H597 C541 0.929 . S
H598 C542 0.930 . S
H599 C543 0.930 . S
H600 C546 0.930 . S
H601 C549 0.929 . S
H602 C554 0.929 . S
H603 C555 0.930 . S
H604 C562 0.929 . S
H605 C563 0.930 . S
H606 C564 0.930 . S
H607 C565 0.930 . S
H608 C567 0.929 . S
H609 C568 0.930 . S
H610 C569 0.930 . S
H611 C570 0.930 . S
H612 C574 0.929 . S
H613 C576 0.930 . S
H614 C582 0.929 . S
H615 C583 0.930 . S
Li616 N633 1.990 1_556 S
Li616 O676 1.936 1_455 S
Li616 O677 1.970 . S
Li616 O678 1.961 . S
Li617 N641 2.002 . S
Li617 O676 1.969 . S
Li617 O677 1.947 1_655 S
Li617 O679 1.950 1_655 S
Li618 N663 1.990 . S
Li618 O676 1.935 1_455 S
Li618 O678 1.956 . S
Li618 O679 1.970 . S
Li619 N669 1.990 . S
Li619 O677 1.961 . S
Li619 O678 1.970 . S
Li619 O679 1.956 . S
C620 C622 1.348 . S
C620 C623 1.356 1_556 S
C620 O676 1.350 . S
N621 C624 1.314 1_554 S
N621 C625 1.279 . S
C622 C620 1.348 . S
C622 C624 1.353 . S
C622 H680 0.929 . S
C623 C620 1.356 1_554 S
C623 C625 1.358 . S
C623 H681 0.930 . S
C624 N621 1.314 1_556 S
C624 C622 1.353 . S
C624 H682 0.930 . S
C625 N621 1.279 . S
C625 C623 1.358 . S
C625 H683 0.930 . S
C626 C629 1.348 . S
C626 C630 1.356 . S
C626 O677 1.325 . S
C627 N628 1.279 . S
C627 C630 1.358 . S
C627 H684 0.930 . S
N628 C627 1.279 . S
N628 C631 1.314 . S
C629 C626 1.348 . S
C629 C631 1.353 . S
C629 H685 0.929 . S
C630 C626 1.356 . S
C630 C627 1.358 . S
C630 H686 0.930 . S
C631 N628 1.314 . S
C631 C629 1.353 . S
C631 H687 0.930 . S
C632 N633 1.314 . S
C632 C637 1.353 . S
C632 H638 0.930 . S
N633 Li616 1.990 1_554 S
N633 C632 1.314 . S
N633 C635 1.279 . S
C634 C635 1.358 . S
C634 C636 1.356 . S
C634 H688 0.930 . S
C635 N633 1.279 . S
C635 C634 1.358 . S
C635 H639 0.930 . S
C636 C634 1.356 . S
C636 C637 1.348 . S
C637 C632 1.353 . S
C637 C636 1.348 . S
C637 H689 0.929 . S
H638 C632 0.930 . S
H639 C635 0.930 . S
C640 N641 1.314 . S
C640 C642 1.353 . S
C640 H646 0.930 . S
N641 Li617 2.002 . S
N641 C640 1.314 . S
N641 C644 1.279 . S
C642 C640 1.353 . S
C642 C645 1.348 . S
C642 H690 0.929 . S
C643 C644 1.358 . S
C643 C645 1.356 . S
C643 H691 0.930 . S
C644 N641 1.279 . S
C644 C643 1.358 . S
C644 H647 0.930 . S
C645 C642 1.348 . S
C645 C643 1.356 . S
H646 C640 0.930 . S
H647 C644 0.930 . S
C648 C650 1.348 . S
C648 C651 1.356 1_556 S
C648 O678 1.325 . S
N649 C652 1.314 . S
N649 C653 1.279 . S
C650 C648 1.348 . S
C650 C652 1.353 1_556 S
C650 H692 0.929 . S
C651 C648 1.356 1_554 S
C651 C653 1.358 . S
C651 H693 0.930 . S
C652 N649 1.314 . S
C652 C650 1.353 1_554 S
C652 H694 0.927 1_554 S
C653 N649 1.279 . S
C653 C651 1.358 . S
C653 H695 0.930 . S
C654 C655 1.348 . S
C654 C656 1.356 . S
C654 O679 1.325 . S
C655 C654 1.348 . S
C655 C657 1.353 . S
C655 H696 0.929 . S
C656 C654 1.356 . S
C656 C658 1.358 . S
C656 H697 0.930 . S
C657 C655 1.353 . S
C657 N659 1.314 . S
C657 H698 0.930 . S
C658 C656 1.358 . S
C658 N659 1.279 . S
C658 H699 0.930 . S
N659 C657 1.314 . S
N659 C658 1.279 . S
C660 C662 1.354 1_456 S
C660 N663 1.335 . S
C660 H666 0.905 1_455 S
C661 N663 1.279 1_554 S
C661 C664 1.358 . S
C661 H667 0.930 . S
C662 C660 1.354 1_654 S
C662 C665 1.348 1_655 S
C662 H700 0.929 . S
N663 Li618 1.990 . S
N663 C660 1.335 . S
N663 C661 1.279 1_556 S
C664 C661 1.358 . S
C664 C665 1.356 . S
C664 H701 0.930 . S
C665 C662 1.348 1_455 S
C665 C664 1.356 . S
H666 C660 0.905 1_655 S
H667 C661 0.930 . S
C668 N669 1.314 . S
C668 C670 1.353 . S
C668 H674 0.930 . S
N669 Li619 1.990 . S
N669 C668 1.314 . S
N669 C672 1.279 . S
C670 C668 1.353 . S
C670 C673 1.348 . S
C670 H702 0.929 . S
C671 C672 1.358 . S
C671 C673 1.356 . S
C671 H703 0.930 . S
C672 N669 1.279 . S
C672 C671 1.358 . S
C672 H675 0.930 . S
C673 C670 1.348 . S
C673 C671 1.356 . S
H674 C668 0.930 . S
H675 C672 0.930 . S
O676 Li616 1.936 1_655 S
O676 Li617 1.969 . S
O676 Li618 1.935 1_655 S
O676 C620 1.350 . S
O677 Li616 1.970 . S
O677 Li617 1.947 1_455 S
O677 Li619 1.961 . S
O677 C626 1.325 . S
O678 Li616 1.961 . S
O678 Li618 1.956 . S
O678 Li619 1.970 . S
O678 C648 1.325 . S
O679 Li617 1.950 1_455 S
O679 Li618 1.970 . S
O679 Li619 1.956 . S
O679 C654 1.325 . S
H680 C622 0.929 . S
H681 C623 0.930 . S
H682 C624 0.930 . S
H683 C625 0.930 . S
H684 C627 0.930 . S
H685 C629 0.929 . S
H686 C630 0.930 . S
H687 C631 0.930 . S
H688 C634 0.930 . S
H689 C637 0.929 . S
H690 C642 0.929 . S
H691 C643 0.930 . S
H692 C650 0.929 . S
H693 C651 0.930 . S
H694 C652 0.927 1_556 S
H695 C653 0.930 . S
H696 C655 0.929 . S
H697 C656 0.930 . S
H698 C657 0.930 . S
H699 C658 0.930 . S
H700 C662 0.929 . S
H701 C664 0.930 . S
H702 C670 0.929 . S
H703 C671 0.930 . S
Li704 N721 1.990 . S
Li704 O764 1.956 1_545 S
Li704 O765 1.970 . S
Li704 O766 1.961 . S
Li705 N729 1.990 . S
Li705 O764 1.970 . S
Li705 O765 1.956 1_565 S
Li705 O767 1.961 . S
Li706 N751 1.990 . S
Li706 O764 1.961 1_545 S
Li706 O766 1.956 . S
Li706 O767 1.970 1_545 S
Li707 N757 1.990 . S
Li707 O765 1.961 . S
Li707 O766 1.970 . S
Li707 O767 1.956 1_545 S
C708 C710 1.348 . S
C708 C711 1.356 . S
C708 O764 1.325 . S
N709 C712 1.314 . S
N709 C713 1.279 . S
C710 C708 1.348 . S
C710 C712 1.353 . S
C710 H768 0.929 . S
C711 C708 1.356 . S
C711 C713 1.358 . S
C711 H769 0.930 . S
C712 N709 1.314 . S
C712 C710 1.353 . S
C712 H770 0.930 . S
C713 N709 1.279 . S
C713 C711 1.358 . S
C713 H771 0.930 . S
C714 C717 1.348 1_545 S
C714 C718 1.356 . S
C714 O765 1.325 . S
C715 N716 1.276 1_545 S
C715 C718 1.358 . S
C715 H772 0.930 . S
N716 C715 1.276 1_565 S
N716 C719 1.317 . S
C717 C714 1.348 1_565 S
C717 C719 1.353 . S
C717 H773 0.929 . S
C718 C714 1.356 . S
C718 C715 1.358 . S
C718 H774 0.930 . S
C719 N716 1.317 . S
C719 C717 1.353 . S
C719 H775 0.930 . S
C720 N721 1.314 . S
C720 C725 1.353 . S
C720 H726 0.930 . S
N721 Li704 1.990 . S
N721 C720 1.314 . S
N721 C723 1.279 1_545 S
C722 C723 1.358 1_545 S
C722 C724 1.356 . S
C722 H776 0.930 1_545 S
C723 N721 1.279 1_565 S
C723 C722 1.358 1_565 S
C723 H727 0.930 . S
C724 C722 1.356 . S
C724 C725 1.348 . S
C725 C720 1.353 . S
C725 C724 1.348 . S
C725 H777 0.929 . S
H726 C720 0.930 . S
H727 C723 0.930 . S
C728 N729 1.314 . S
C728 C730 1.353 . S
C728 H734 0.930 . S
N729 Li705 1.990 . S
N729 C728 1.314 . S
N729 C732 1.279 . S
C730 C728 1.353 . S
C730 C733 1.348 . S
C730 H778 0.929 . S
C731 C732 1.358 . S
C731 C733 1.356 . S
C731 H779 0.930 . S
C732 N729 1.279 . S
C732 C731 1.358 . S
C732 H735 0.930 . S
C733 C730 1.348 . S
C733 C731 1.356 . S
H734 C728 0.930 . S
H735 C732 0.930 . S
C736 C738 1.348 . S
C736 C739 1.356 . S
C736 O766 1.325 . S
N737 C740 1.314 . S
N737 C741 1.279 . S
C738 C736 1.348 . S
C738 C740 1.353 . S
C738 H780 0.929 . S
C739 C736 1.356 . S
C739 C741 1.358 . S
C739 H781 0.930 . S
C740 N737 1.314 . S
C740 C738 1.353 . S
C740 H782 0.930 . S
C741 N737 1.279 . S
C741 C739 1.358 . S
C741 H783 0.930 . S
C742 C743 1.348 . S
C742 C744 1.356 . S
C742 O767 1.325 . S
C743 C742 1.348 . S
C743 C745 1.353 . S
C743 H784 0.929 1_565 S
C744 C742 1.356 . S
C744 C746 1.358 . S
C744 H785 0.930 . S
C745 C743 1.353 . S
C745 N747 1.314 . S
C745 H786 0.930 . S
C746 C744 1.358 . S
C746 N747 1.279 . S
C746 H787 0.930 . S
N747 C745 1.314 . S
N747 C746 1.279 . S
C748 C750 1.353 . S
C748 N751 1.314 1_565 S
C748 H754 0.930 . S
C749 N751 1.279 . S
C749 C752 1.358 . S
C749 H755 0.930 . S
C750 C748 1.353 . S
C750 C753 1.350 . S
C750 H788 0.929 . S
N751 Li706 1.990 . S
N751 C748 1.314 1_545 S
N751 C749 1.279 . S
C752 C749 1.358 . S
C752 C753 1.354 1_545 S
C752 H789 0.930 . S
C753 C750 1.350 . S
C753 C752 1.354 1_565 S
H754 C748 0.930 . S
H755 C749 0.930 . S
C756 N757 1.314 . S
C756 C758 1.353 . S
C756 H762 0.930 . S
N757 Li707 1.990 . S
N757 C756 1.314 . S
N757 C760 1.279 . S
C758 C756 1.353 . S
C758 C761 1.348 . S
C758 H790 0.929 . S
C759 C760 1.358 . S
C759 C761 1.356 . S
C759 H791 0.930 . S
C760 N757 1.279 . S
C760 C759 1.358 . S
C760 H763 0.930 . S
C761 C758 1.348 . S
C761 C759 1.356 . S
H762 C756 0.930 . S
H763 C760 0.930 . S
O764 Li704 1.956 1_565 S
O764 Li705 1.970 . S
O764 Li706 1.961 1_565 S
O764 C708 1.325 . S
O765 Li704 1.970 . S
O765 Li705 1.956 1_545 S
O765 Li707 1.961 . S
O765 C714 1.325 . S
O766 Li704 1.961 . S
O766 Li706 1.956 . S
O766 Li707 1.970 . S
O766 C736 1.325 . S
O767 Li705 1.961 . S
O767 Li706 1.970 1_565 S
O767 Li707 1.956 1_565 S
O767 C742 1.325 . S
H768 C710 0.929 . S
H769 C711 0.930 . S
H770 C712 0.930 . S
H771 C713 0.930 . S
H772 C715 0.930 . S
H773 C717 0.929 . S
H774 C718 0.930 . S
H775 C719 0.930 . S
H776 C722 0.930 1_565 S
H777 C725 0.929 . S
H778 C730 0.929 . S
H779 C731 0.930 . S
H780 C738 0.929 . S
H781 C739 0.930 . S
H782 C740 0.930 . S
H783 C741 0.930 . S
H784 C743 0.929 1_545 S
H785 C744 0.930 . S
H786 C745 0.930 . S
H787 C746 0.930 . S
H788 C750 0.929 . S
H789 C752 0.930 . S
H790 C758 0.929 . S
H791 C759 0.930 . S
Li792 N809 1.990 . S
Li792 O852 1.956 . S
Li792 O853 1.970 . S
Li792 O854 1.961 . S
Li793 N817 1.990 . S
Li793 O852 1.970 . S
Li793 O853 1.956 . S
Li793 O855 1.961 . S
Li794 N839 1.990 . S
Li794 O852 1.961 . S
Li794 O854 1.956 . S
Li794 O855 1.970 . S
Li795 N845 1.990 . S
Li795 O853 1.961 . S
Li795 O854 1.970 . S
Li795 O855 1.956 . S
C796 C798 1.348 . S
C796 C799 1.356 . S
C796 O852 1.325 . S
N797 C800 1.314 . S
N797 C801 1.279 . S
C798 C796 1.348 . S
C798 C800 1.353 . S
C798 H856 0.929 . S
C799 C796 1.356 . S
C799 C801 1.358 . S
C799 H857 0.930 . S
C800 N797 1.314 . S
C800 C798 1.353 . S
C800 H858 0.930 . S
C801 N797 1.279 . S
C801 C799 1.358 . S
C801 H859 0.930 . S
C802 C805 1.348 . S
C802 C806 1.356 . S
C802 O853 1.325 . S
C803 N804 1.279 . S
C803 C806 1.358 . S
C803 H860 0.930 . S
N804 C803 1.279 . S
N804 C807 1.314 . S
C805 C802 1.348 . S
C805 C807 1.353 . S
C805 H861 0.929 . S
C806 C802 1.356 . S
C806 C803 1.358 . S
C806 H862 0.930 . S
C807 N804 1.314 . S
C807 C805 1.353 . S
C807 H863 0.930 . S
C808 N809 1.314 . S
C808 C813 1.353 . S
C808 H814 0.930 . S
N809 Li792 1.990 . S
N809 C808 1.314 . S
N809 C811 1.279 . S
C810 C811 1.358 . S
C810 C812 1.356 . S
C810 H864 0.930 . S
C811 N809 1.279 . S
C811 C810 1.358 . S
C811 H815 0.930 . S
C812 C810 1.356 . S
C812 C813 1.348 . S
C813 C808 1.353 . S
C813 C812 1.348 . S
C813 H865 0.929 . S
H814 C808 0.930 . S
H815 C811 0.930 . S
C816 N817 1.314 . S
C816 C818 1.353 . S
C816 H822 0.930 . S
N817 Li793 1.990 . S
N817 C816 1.314 . S
N817 C820 1.279 . S
C818 C816 1.353 . S
C818 C821 1.348 . S
C818 H866 0.929 . S
C819 C820 1.358 . S
C819 C821 1.356 . S
C819 H867 0.930 . S
C820 N817 1.279 . S
C820 C819 1.358 . S
C820 H823 0.930 . S
C821 C818 1.348 . S
C821 C819 1.356 . S
H822 C816 0.930 . S
H823 C820 0.930 . S
C824 C826 1.348 . S
C824 C827 1.356 . S
C824 O854 1.325 . S
N825 C828 1.314 . S
N825 C829 1.279 . S
C826 C824 1.348 . S
C826 C828 1.353 . S
C826 H868 0.929 . S
C827 C824 1.356 . S
C827 C829 1.358 . S
C827 H869 0.930 . S
C828 N825 1.314 . S
C828 C826 1.353 . S
C828 H870 0.930 . S
C829 N825 1.279 . S
C829 C827 1.358 . S
C829 H871 0.930 . S
C830 C831 1.348 . S
C830 C832 1.356 . S
C830 O855 1.325 . S
C831 C830 1.348 . S
C831 C833 1.353 . S
C831 H872 0.929 . S
C832 C830 1.356 . S
C832 C834 1.358 . S
C832 H873 0.930 . S
C833 C831 1.353 . S
C833 N835 1.314 . S
C833 H874 0.930 . S
C834 C832 1.358 . S
C834 N835 1.279 . S
C834 H875 0.930 . S
N835 C833 1.314 . S
N835 C834 1.279 . S
C836 C838 1.353 . S
C836 N839 1.314 . S
C836 H842 0.930 . S
C837 N839 1.279 . S
C837 C840 1.358 . S
C837 H843 0.930 . S
C838 C836 1.353 . S
C838 C841 1.348 . S
C838 H876 0.929 . S
N839 Li794 1.990 . S
N839 C836 1.314 . S
N839 C837 1.279 . S
C840 C837 1.358 . S
C840 C841 1.356 . S
C840 H877 0.930 . S
C841 C838 1.348 . S
C841 C840 1.356 . S
H842 C836 0.930 . S
H843 C837 0.930 . S
C844 N845 1.314 . S
C844 C846 1.353 . S
C844 H850 0.930 . S
N845 Li795 1.990 . S
N845 C844 1.314 . S
N845 C848 1.279 . S
C846 C844 1.353 . S
C846 C849 1.348 . S
C846 H878 0.929 . S
C847 C848 1.358 . S
C847 C849 1.356 . S
C847 H879 0.930 . S
C848 N845 1.279 . S
C848 C847 1.358 . S
C848 H851 0.930 . S
C849 C846 1.348 . S
C849 C847 1.356 . S
H850 C844 0.930 . S
H851 C848 0.930 . S
O852 Li792 1.956 . S
O852 Li793 1.970 . S
O852 Li794 1.961 . S
O852 C796 1.325 . S
O853 Li792 1.970 . S
O853 Li793 1.956 . S
O853 Li795 1.961 . S
O853 C802 1.325 . S
O854 Li792 1.961 . S
O854 Li794 1.956 . S
O854 Li795 1.970 . S
O854 C824 1.325 . S
O855 Li793 1.961 . S
O855 Li794 1.970 . S
O855 Li795 1.956 . S
O855 C830 1.325 . S
H856 C798 0.929 . S
H857 C799 0.930 . S
H858 C800 0.930 . S
H859 C801 0.930 . S
H860 C803 0.930 . S
H861 C805 0.929 . S
H862 C806 0.930 . S
H863 C807 0.930 . S
H864 C810 0.930 . S
H865 C813 0.929 . S
H866 C818 0.929 . S
H867 C819 0.930 . S
H868 C826 0.929 . S
H869 C827 0.930 . S
H870 C828 0.930 . S
H871 C829 0.930 . S
H872 C831 0.929 . S
H873 C832 0.930 . S
H874 C833 0.930 . S
H875 C834 0.930 . S
H876 C838 0.929 . S
H877 C840 0.930 . S
H878 C846 0.929 . S
H879 C847 0.930 . S
Li880 N897 1.990 . S
Li880 O940 1.956 . S
Li880 O941 1.970 . S
Li880 O942 1.961 . S
Li881 N905 1.990 . S
Li881 O940 1.970 . S
Li881 O941 1.956 . S
Li881 O943 1.961 1_545 S
Li882 N927 1.990 . S
Li882 O940 1.961 1_565 S
Li882 O942 1.956 1_565 S
Li882 O943 1.970 . S
Li883 N933 1.990 . S
Li883 O941 1.961 1_565 S
Li883 O942 1.970 1_565 S
Li883 O943 1.956 . S
C884 C886 1.348 . S
C884 C887 1.356 . S
C884 O940 1.325 . S
N885 C888 1.314 . S
N885 C889 1.279 . S
C886 C884 1.348 . S
C886 C888 1.353 . S
C886 H944 0.929 . S
C887 C884 1.356 . S
C887 C889 1.358 . S
C887 H945 0.930 . S
C888 N885 1.314 . S
C888 C886 1.353 . S
C888 H946 0.930 . S
C889 N885 1.279 . S
C889 C887 1.358 . S
C889 H947 0.930 . S
C890 C893 1.348 . S
C890 C894 1.356 . S
C890 O941 1.325 . S
C891 N892 1.279 . S
C891 C894 1.358 . S
C891 H948 0.930 . S
N892 C891 1.279 . S
N892 C895 1.314 . S
C893 C890 1.348 . S
C893 C895 1.353 . S
C893 H949 0.929 . S
C894 C890 1.356 . S
C894 C891 1.358 . S
C894 H950 0.930 . S
C895 N892 1.314 . S
C895 C893 1.353 . S
C895 H951 0.930 . S
C896 N897 1.314 . S
C896 C901 1.353 . S
C896 H902 0.930 . S
N897 Li880 1.990 . S
N897 C896 1.314 . S
N897 C899 1.279 . S
C898 C899 1.358 . S
C898 C900 1.356 . S
C898 H952 0.930 . S
C899 N897 1.279 . S
C899 C898 1.358 . S
C899 H903 0.930 . S
C900 C898 1.356 . S
C900 C901 1.348 . S
C901 C896 1.353 . S
C901 C900 1.348 . S
C901 H953 0.929 . S
H902 C896 0.930 . S
H903 C899 0.930 . S
C904 N905 1.314 1_565 S
C904 C906 1.353 . S
C904 H910 0.930 . S
N905 Li881 1.990 . S
N905 C904 1.314 1_545 S
N905 C908 1.279 . S
C906 C904 1.353 . S
C906 C909 1.348 1_565 S
C906 H954 0.929 . S
C907 C908 1.358 . S
C907 C909 1.356 . S
C907 H955 0.930 . S
C908 N905 1.279 . S
C908 C907 1.358 . S
C908 H911 0.930 . S
C909 C906 1.348 1_545 S
C909 C907 1.356 . S
H910 C904 0.930 . S
H911 C908 0.930 . S
C912 C914 1.347 1_545 S
C912 C915 1.356 . S
C912 O942 1.325 . S
N913 C916 1.314 . S
N913 C917 1.279 1_565 S
C914 C912 1.347 1_565 S
C914 C916 1.353 . S
C914 H956 0.929 . S
C915 C912 1.356 . S
C915 C917 1.358 . S
C915 H957 0.930 . S
C916 N913 1.314 . S
C916 C914 1.353 . S
C916 H958 0.930 . S
C917 N913 1.279 1_545 S
C917 C915 1.358 . S
C917 H959 0.930 . S
C918 C919 1.348 . S
C918 C920 1.356 . S
C918 O943 1.325 . S
C919 C918 1.348 . S
C919 C921 1.353 . S
C919 H960 0.929 . S
C920 C918 1.356 . S
C920 C922 1.358 . S
C920 H961 0.930 . S
C921 C919 1.353 . S
C921 N923 1.314 . S
C921 H962 0.930 . S
C922 C920 1.358 . S
C922 N923 1.279 . S
C922 H963 0.930 . S
N923 C921 1.314 . S
N923 C922 1.279 . S
C924 C926 1.353 . S
C924 N927 1.314 . S
C924 H930 0.930 . S
C925 N927 1.279 . S
C925 C928 1.358 . S
C925 H931 0.930 . S
C926 C924 1.353 . S
C926 C929 1.348 . S
C926 H964 0.929 . S
N927 Li882 1.990 . S
N927 C924 1.314 . S
N927 C925 1.279 . S
C928 C925 1.358 . S
C928 C929 1.356 . S
C928 H965 0.930 . S
C929 C926 1.348 . S
C929 C928 1.356 . S
H930 C924 0.930 . S
H931 C925 0.930 . S
C932 N933 1.314 1_545 S
C932 C934 1.353 . S
C932 H938 0.930 . S
N933 Li883 1.990 . S
N933 C932 1.314 1_565 S
N933 C936 1.279 . S
C934 C932 1.353 . S
C934 C937 1.347 1_545 S
C934 H966 0.931 . S
C935 C936 1.358 . S
C935 C937 1.356 . S
C935 H967 0.930 . S
C936 N933 1.279 . S
C936 C935 1.358 . S
C936 H939 0.930 . S
C937 C934 1.347 1_565 S
C937 C935 1.356 . S
H938 C932 0.930 . S
H939 C936 0.930 . S
O940 Li880 1.956 . S
O940 Li881 1.970 . S
O940 Li882 1.961 1_545 S
O940 C884 1.325 . S
O941 Li880 1.970 . S
O941 Li881 1.956 . S
O941 Li883 1.961 1_545 S
O941 C890 1.325 . S
O942 Li880 1.961 . S
O942 Li882 1.956 1_545 S
O942 Li883 1.970 1_545 S
O942 C912 1.325 . S
O943 Li881 1.961 1_565 S
O943 Li882 1.970 . S
O943 Li883 1.956 . S
O943 C918 1.325 . S
H944 C886 0.929 . S
H945 C887 0.930 . S
H946 C888 0.930 . S
H947 C889 0.930 . S
H948 C891 0.930 . S
H949 C893 0.929 . S
H950 C894 0.930 . S
H951 C895 0.930 . S
H952 C898 0.930 . S
H953 C901 0.929 . S
H954 C906 0.929 . S
H955 C907 0.930 . S
H956 C914 0.929 . S
H957 C915 0.930 . S
H958 C916 0.930 . S
H959 C917 0.930 . S
H960 C919 0.929 . S
H961 C920 0.930 . S
H962 C921 0.930 . S
H963 C922 0.930 . S
H964 C926 0.929 . S
H965 C928 0.930 . S
H966 C934 0.931 . S
H967 C935 0.930 . S
Li968 N985 1.990 . S
Li968 O1028 1.956 . S
Li968 O1029 1.970 1_554 S
Li968 O1030 1.961 1_554 S
Li969 N993 1.990 . S
Li969 O1028 1.970 . S
Li969 O1029 1.956 1_554 S
Li969 O1031 1.961 1_554 S
Li970 N1015 1.990 1_565 S
Li970 O1028 1.961 . S
Li970 O1030 1.956 1_554 S
Li970 O1031 1.970 1_554 S
Li971 N1021 1.990 . S
Li971 O1029 1.961 . S
Li971 O1030 1.970 . S
Li971 O1031 1.956 . S
C972 C974 1.348 . S
C972 C975 1.356 1_565 S
C972 O1028 1.325 . S
N973 C976 1.314 . S
N973 C977 1.279 . S
C974 C972 1.348 . S
C974 C976 1.353 1_565 S
C974 H1032 0.929 . S
C975 C972 1.356 1_545 S
C975 C977 1.358 . S
C975 H1033 0.930 . S
C976 N973 1.314 . S
C976 C974 1.353 1_545 S
C976 H1034 0.930 . S
C977 N973 1.279 . S
C977 C975 1.358 . S
C977 H1035 0.930 . S
C978 C981 1.348 . S
C978 C982 1.356 . S
C978 O1029 1.325 . S
C979 N980 1.279 . S
C979 C982 1.358 . S
C979 H1036 0.930 . S
N980 C979 1.279 . S
N980 C983 1.314 . S
C981 C978 1.348 . S
C981 C983 1.353 . S
C981 H1037 0.929 1_556 S
C982 C978 1.356 . S
C982 C979 1.358 . S
C982 H1038 0.930 . S
C983 N980 1.314 . S
C983 C981 1.353 . S
C983 H1039 0.929 . S
C984 N985 1.314 1_556 S
C984 C989 1.353 1_565 S
C984 H990 0.930 . S
N985 Li968 1.990 . S
N985 C984 1.314 1_554 S
N985 C987 1.279 1_565 S
C986 C987 1.358 . S
C986 C988 1.356 . S
C986 H1040 0.930 . S
C987 N985 1.279 1_545 S
C987 C986 1.358 . S
C987 H991 0.930 . S
C988 C986 1.356 . S
C988 C989 1.348 1_554 S
C989 C984 1.353 1_545 S
C989 C988 1.348 1_556 S
C989 H1041 0.929 . S
H990 C984 0.930 . S
H991 C987 0.930 . S
C992 N993 1.314 . S
C992 C994 1.353 . S
C992 H998 0.930 . S
N993 Li969 1.990 . S
N993 C992 1.314 . S
N993 C996 1.279 . S
C994 C992 1.353 . S
C994 C997 1.348 . S
C994 H1042 0.929 . S
C995 C996 1.358 . S
C995 C997 1.356 . S
C995 H1043 0.930 . S
C996 N993 1.279 . S
C996 C995 1.358 . S
C996 H999 0.930 . S
C997 C994 1.348 . S
C997 C995 1.356 . S
H998 C992 0.930 . S
H999 C996 0.930 . S
C1000 C1002 1.348 . S
C1000 C1003 1.356 1_565 S
C1000 O1030 1.325 . S
N1001 C1004 1.314 1_545 S
N1001 C1005 1.279 . S
C1002 C1000 1.348 . S
C1002 C1004 1.353 . S
C1002 H1044 0.929 . S
C1003 C1000 1.356 1_545 S
C1003 C1005 1.358 . S
C1003 H1045 0.930 . S
C1004 N1001 1.314 1_565 S
C1004 C1002 1.353 . S
C1004 H1046 0.930 . S
C1005 N1001 1.279 . S
C1005 C1003 1.358 . S
C1005 H1047 0.930 . S
C1006 C1007 1.348 . S
C1006 C1008 1.356 . S
C1006 O1031 1.325 . S
C1007 C1006 1.348 . S
C1007 C1009 1.353 . S
C1007 H1048 0.929 . S
C1008 C1006 1.356 . S
C1008 C1010 1.358 . S
C1008 H1049 0.930 . S
C1009 C1007 1.353 . S
C1009 N1011 1.314 . S
C1009 H1050 0.930 . S
C1010 C1008 1.358 . S
C1010 N1011 1.279 . S
C1010 H1051 0.930 . S
N1011 C1009 1.314 . S
N1011 C1010 1.279 . S
C1012 C1014 1.353 . S
C1012 N1015 1.314 . S
C1012 H1018 0.930 . S
C1013 N1015 1.279 1_556 S
C1013 C1016 1.358 . S
C1013 H1019 0.930 . S
C1014 C1012 1.353 . S
C1014 C1017 1.348 . S
C1014 H1052 0.929 . S
N1015 Li970 1.990 1_545 S
N1015 C1012 1.314 . S
N1015 C1013 1.279 1_554 S
C1016 C1013 1.358 . S
C1016 C1017 1.356 1_556 S
C1016 H1053 0.930 . S
C1017 C1014 1.348 . S
C1017 C1016 1.356 1_554 S
H1018 C1012 0.930 . S
H1019 C1013 0.930 . S
C1020 N1021 1.314 . S
C1020 C1022 1.353 . S
C1020 H1026 0.930 . S
N1021 Li971 1.990 . S
N1021 C1020 1.314 . S
N1021 C1024 1.279 . S
C1022 C1020 1.353 . S
C1022 C1025 1.348 . S
C1022 H1054 0.929 . S
C1023 C1024 1.358 . S
C1023 C1025 1.356 . S
C1023 H1055 0.930 . S
C1024 N1021 1.279 . S
C1024 C1023 1.358 . S
C1024 H1027 0.930 . S
C1025 C1022 1.348 . S
C1025 C1023 1.356 . S
H1026 C1020 0.930 . S
H1027 C1024 0.930 . S
O1028 Li968 1.956 . S
O1028 Li969 1.970 . S
O1028 Li970 1.961 . S
O1028 C972 1.325 . S
O1029 Li968 1.970 1_556 S
O1029 Li969 1.956 1_556 S
O1029 Li971 1.961 . S
O1029 C978 1.325 . S
O1030 Li968 1.961 1_556 S
O1030 Li970 1.956 1_556 S
O1030 Li971 1.970 . S
O1030 C1000 1.325 . S
O1031 Li969 1.961 1_556 S
O1031 Li970 1.970 1_556 S
O1031 Li971 1.956 . S
O1031 C1006 1.325 . S
H1032 C974 0.929 . S
H1033 C975 0.930 . S
H1034 C976 0.930 . S
H1035 C977 0.930 . S
H1036 C979 0.930 . S
H1037 C981 0.929 1_554 S
H1038 C982 0.930 . S
H1039 C983 0.929 . S
H1040 C986 0.930 . S
H1041 C989 0.929 . S
H1042 C994 0.929 . S
H1043 C995 0.930 . S
H1044 C1002 0.929 . S
H1045 C1003 0.930 . S
H1046 C1004 0.930 . S
H1047 C1005 0.930 . S
H1048 C1007 0.929 . S
H1049 C1008 0.930 . S
H1050 C1009 0.930 . S
H1051 C1010 0.930 . S
H1052 C1014 0.929 . S
H1053 C1016 0.930 . S
H1054 C1022 0.929 . S
H1055 C1023 0.930 . S
Li1056 N1073 1.990 . S
Li1056 O1116 1.956 . S
Li1056 O1117 1.970 . S
Li1056 O1118 1.961 . S
Li1057 N1081 1.990 . S
Li1057 O1116 1.970 . S
Li1057 O1117 1.956 . S
Li1057 O1119 1.961 . S
Li1058 N1103 1.990 . S
Li1058 O1116 1.961 . S
Li1058 O1118 1.956 . S
Li1058 O1119 1.970 . S
Li1059 N1109 1.975 1_554 S
Li1059 O1117 1.975 . S
Li1059 O1118 1.967 . S
Li1059 O1119 1.970 . S
C1060 C1062 1.348 . S
C1060 C1063 1.356 . S
C1060 O1116 1.325 . S
N1061 C1064 1.314 . S
N1061 C1065 1.279 . S
C1062 C1060 1.348 . S
C1062 C1064 1.353 . S
C1062 H1120 0.929 . S
C1063 C1060 1.356 . S
C1063 C1065 1.358 . S
C1063 H1121 0.930 . S
C1064 N1061 1.314 . S
C1064 C1062 1.353 . S
C1064 H1122 0.930 . S
C1065 N1061 1.279 . S
C1065 C1063 1.358 . S
C1065 H1123 0.930 . S
C1066 C1069 1.348 . S
C1066 C1070 1.356 . S
C1066 O1117 1.325 . S
C1067 N1068 1.279 . S
C1067 C1070 1.358 . S
C1067 H1124 0.930 . S
N1068 C1067 1.279 . S
N1068 C1071 1.314 . S
C1069 C1066 1.348 . S
C1069 C1071 1.353 . S
C1069 H1125 0.929 . S
C1070 C1066 1.356 . S
C1070 C1067 1.358 . S
C1070 H1126 0.930 . S
C1071 N1068 1.314 . S
C1071 C1069 1.353 . S
C1071 H1127 0.930 . S
C1072 N1073 1.314 . S
C1072 C1077 1.353 . S
C1072 H1078 0.930 1_554 S
N1073 Li1056 1.990 . S
N1073 C1072 1.314 . S
N1073 C1075 1.279 . S
C1074 C1075 1.358 . S
C1074 C1076 1.356 . S
C1074 H1128 0.930 . S
C1075 N1073 1.279 . S
C1075 C1074 1.358 . S
C1075 H1079 0.930 . S
C1076 C1074 1.356 . S
C1076 C1077 1.348 . S
C1077 C1072 1.353 . S
C1077 C1076 1.348 . S
C1077 H1129 0.929 1_554 S
H1078 C1072 0.930 1_556 S
H1079 C1075 0.930 . S
C1080 N1081 1.314 . S
C1080 C1082 1.353 . S
C1080 H1086 0.930 . S
N1081 Li1057 1.990 . S
N1081 C1080 1.314 . S
N1081 C1084 1.279 . S
C1082 C1080 1.353 . S
C1082 C1085 1.348 . S
C1082 H1130 0.929 . S
C1083 C1084 1.358 . S
C1083 C1085 1.356 . S
C1083 H1131 0.930 . S
C1084 N1081 1.279 . S
C1084 C1083 1.358 . S
C1084 H1087 0.930 . S
C1085 C1082 1.348 . S
C1085 C1083 1.356 . S
H1086 C1080 0.930 . S
H1087 C1084 0.930 . S
C1088 C1090 1.348 . S
C1088 C1091 1.356 . S
C1088 O1118 1.325 1_556 S
N1089 C1092 1.314 . S
N1089 C1093 1.279 . S
C1090 C1088 1.348 . S
C1090 C1092 1.353 . S
C1090 H1132 0.929 . S
C1091 C1088 1.356 . S
C1091 C1093 1.358 . S
C1091 H1133 0.930 1_556 S
C1092 N1089 1.314 . S
C1092 C1090 1.353 . S
C1092 H1134 0.930 . S
C1093 N1089 1.279 . S
C1093 C1091 1.358 . S
C1093 H1135 0.930 . S
C1094 C1095 1.348 . S
C1094 C1096 1.356 . S
C1094 O1119 1.325 . S
C1095 C1094 1.348 . S
C1095 C1097 1.353 . S
C1095 H1136 0.929 . S
C1096 C1094 1.356 . S
C1096 C1098 1.358 . S
C1096 H1137 0.930 . S
C1097 C1095 1.353 . S
C1097 N1099 1.314 . S
C1097 H1138 0.930 . S
C1098 C1096 1.358 . S
C1098 N1099 1.279 . S
C1098 H1139 0.930 . S
N1099 C1097 1.314 . S
N1099 C1098 1.279 . S
C1100 C1102 1.353 . S
C1100 N1103 1.314 . S
C1100 H1106 0.930 . S
C1101 N1103 1.279 . S
C1101 C1104 1.358 . S
C1101 H1107 0.930 . S
C1102 C1100 1.353 . S
C1102 C1105 1.348 . S
C1102 H1140 0.929 . S
N1103 Li1058 1.990 . S
N1103 C1100 1.314 . S
N1103 C1101 1.279 . S
C1104 C1101 1.358 . S
C1104 C1105 1.356 . S
C1104 H1141 0.930 . S
C1105 C1102 1.348 . S
C1105 C1104 1.356 . S
H1106 C1100 0.930 . S
H1107 C1101 0.930 . S
C1108 N1109 1.314 . S
C1108 C1110 1.353 . S
C1108 H1114 0.930 . S
N1109 Li1059 1.975 1_556 S
N1109 C1108 1.314 . S
N1109 C1112 1.279 . S
C1110 C1108 1.353 . S
C1110 C1113 1.348 . S
C1110 H1142 0.929 . S
C1111 C1112 1.358 . S
C1111 C1113 1.356 . S
C1111 H1143 0.930 . S
C1112 N1109 1.279 . S
C1112 C1111 1.358 . S
C1112 H1115 0.930 . S
C1113 C1110 1.348 . S
C1113 C1111 1.356 . S
H1114 C1108 0.930 . S
H1115 C1112 0.930 . S
O1116 Li1056 1.956 . S
O1116 Li1057 1.970 . S
O1116 Li1058 1.961 . S
O1116 C1060 1.325 . S
O1117 Li1056 1.970 . S
O1117 Li1057 1.956 . S
O1117 Li1059 1.975 . S
O1117 C1066 1.325 . S
O1118 Li1056 1.961 . S
O1118 Li1058 1.956 . S
O1118 Li1059 1.967 . S
O1118 C1088 1.325 1_554 S
O1119 Li1057 1.961 . S
O1119 Li1058 1.970 . S
O1119 Li1059 1.970 . S
O1119 C1094 1.325 . S
H1120 C1062 0.929 . S
H1121 C1063 0.930 . S
H1122 C1064 0.930 . S
H1123 C1065 0.930 . S
H1124 C1067 0.930 . S
H1125 C1069 0.929 . S
H1126 C1070 0.930 . S
H1127 C1071 0.930 . S
H1128 C1074 0.930 . S
H1129 C1077 0.929 1_556 S
H1130 C1082 0.929 . S
H1131 C1083 0.930 . S
H1132 C1090 0.929 . S
H1133 C1091 0.930 1_554 S
H1134 C1092 0.930 . S
H1135 C1093 0.930 . S
H1136 C1095 0.929 . S
H1137 C1096 0.930 . S
H1138 C1097 0.930 . S
H1139 C1098 0.930 . S
H1140 C1102 0.929 . S
H1141 C1104 0.930 . S
H1142 C1110 0.929 . S
H1143 C1111 0.930 . S
Li1144 N1161 1.990 . S
Li1144 O1204 1.956 . S
Li1144 O1205 1.970 . S
Li1144 O1206 1.961 . S
Li1145 N1169 1.990 . S
Li1145 O1204 1.970 . S
Li1145 O1205 1.956 . S
Li1145 O1207 1.961 1_554 S
Li1146 N1191 1.990 1_554 S
Li1146 O1204 1.961 . S
Li1146 O1206 1.956 . S
Li1146 O1207 1.970 1_554 S
Li1147 N1197 1.990 . S
Li1147 O1205 1.961 . S
Li1147 O1206 1.970 . S
Li1147 O1207 1.956 1_554 S
C1148 C1150 1.348 . S
C1148 C1151 1.356 . S
C1148 O1204 1.325 . S
N1149 C1152 1.314 . S
N1149 C1153 1.279 . S
C1150 C1148 1.348 . S
C1150 C1152 1.353 . S
C1150 H1208 0.929 . S
C1151 C1148 1.356 . S
C1151 C1153 1.358 . S
C1151 H1209 0.930 . S
C1152 N1149 1.314 . S
C1152 C1150 1.353 . S
C1152 H1210 0.930 . S
C1153 N1149 1.279 . S
C1153 C1151 1.358 . S
C1153 H1211 0.930 . S
C1154 C1157 1.348 . S
C1154 C1158 1.356 . S
C1154 O1205 1.325 . S
C1155 N1156 1.279 . S
C1155 C1158 1.358 . S
C1155 H1212 0.930 . S
N1156 C1155 1.279 . S
N1156 C1159 1.314 . S
C1157 C1154 1.348 . S
C1157 C1159 1.353 . S
C1157 H1213 0.929 . S
C1158 C1154 1.356 . S
C1158 C1155 1.358 . S
C1158 H1214 0.930 . S
C1159 N1156 1.314 . S
C1159 C1157 1.353 . S
C1159 H1215 0.930 . S
C1160 N1161 1.314 . S
C1160 C1165 1.353 . S
C1160 H1166 0.930 . S
N1161 Li1144 1.990 . S
N1161 C1160 1.314 . S
N1161 C1163 1.279 . S
C1162 C1163 1.358 . S
C1162 C1164 1.356 . S
C1162 H1216 0.930 . S
C1163 N1161 1.279 . S
C1163 C1162 1.358 . S
C1163 H1167 0.930 . S
C1164 C1162 1.356 . S
C1164 C1165 1.348 . S
C1165 C1160 1.353 . S
C1165 C1164 1.348 . S
C1165 H1217 0.929 . S
H1166 C1160 0.930 . S
H1167 C1163 0.930 . S
C1168 N1169 1.314 . S
C1168 C1170 1.353 . S
C1168 H1174 0.930 1_554 S
N1169 Li1145 1.990 . S
N1169 C1168 1.314 . S
N1169 C1172 1.279 . S
C1170 C1168 1.353 . S
C1170 C1173 1.348 . S
C1170 H1218 0.929 1_554 S
C1171 C1172 1.358 . S
C1171 C1173 1.356 . S
C1171 H1219 0.930 . S
C1172 N1169 1.279 . S
C1172 C1171 1.358 . S
C1172 H1175 0.930 . S
C1173 C1170 1.348 . S
C1173 C1171 1.356 . S
H1174 C1168 0.930 1_556 S
H1175 C1172 0.930 . S
C1176 C1178 1.348 . S
C1176 C1179 1.356 . S
C1176 O1206 1.325 . S
N1177 C1180 1.314 . S
N1177 C1181 1.279 . S
C1178 C1176 1.348 . S
C1178 C1180 1.353 . S
C1178 H1220 0.929 . S
C1179 C1176 1.356 . S
C1179 C1181 1.358 . S
C1179 H1221 0.930 . S
C1180 N1177 1.314 . S
C1180 C1178 1.353 . S
C1180 H1222 0.930 . S
C1181 N1177 1.279 . S
C1181 C1179 1.358 . S
C1181 H1223 0.930 . S
C1182 C1183 1.348 . S
C1182 C1184 1.356 . S
C1182 O1207 1.325 . S
C1183 C1182 1.348 . S
C1183 C1185 1.353 . S
C1183 H1224 0.929 . S
C1184 C1182 1.356 . S
C1184 C1186 1.358 . S
C1184 H1225 0.930 . S
C1185 C1183 1.353 . S
C1185 N1187 1.314 . S
C1185 H1226 0.930 . S
C1186 C1184 1.358 . S
C1186 N1187 1.279 . S
C1186 H1227 0.930 1_545 S
N1187 C1185 1.314 . S
N1187 C1186 1.279 . S
C1188 C1190 1.353 . S
C1188 N1191 1.314 . S
C1188 H1194 0.930 . S
C1189 N1191 1.279 . S
C1189 C1192 1.358 . S
C1189 H1195 0.930 . S
C1190 C1188 1.353 . S
C1190 C1193 1.348 . S
C1190 H1228 0.929 . S
N1191 Li1146 1.990 1_556 S
N1191 C1188 1.314 . S
N1191 C1189 1.279 . S
C1192 C1189 1.358 . S
C1192 C1193 1.356 . S
C1192 H1229 0.930 . S
C1193 C1190 1.348 . S
C1193 C1192 1.356 . S
H1194 C1188 0.930 . S
H1195 C1189 0.930 . S
C1196 N1197 1.314 . S
C1196 C1198 1.353 . S
C1196 H1202 0.930 . S
N1197 Li1147 1.990 . S
N1197 C1196 1.314 . S
N1197 C1200 1.279 1_554 S
C1198 C1196 1.353 . S
C1198 C1201 1.348 . S
C1198 H1230 0.929 . S
C1199 C1200 1.358 . S
C1199 C1201 1.356 1_556 S
C1199 H1231 0.930 . S
C1200 N1197 1.279 1_556 S
C1200 C1199 1.358 . S
C1200 H1203 0.930 . S
C1201 C1198 1.348 . S
C1201 C1199 1.356 1_554 S
H1202 C1196 0.930 . S
H1203 C1200 0.930 . S
O1204 Li1144 1.956 . S
O1204 Li1145 1.970 . S
O1204 Li1146 1.961 . S
O1204 C1148 1.325 . S
O1205 Li1144 1.970 . S
O1205 Li1145 1.956 . S
O1205 Li1147 1.961 . S
O1205 C1154 1.325 . S
O1206 Li1144 1.961 . S
O1206 Li1146 1.956 . S
O1206 Li1147 1.970 . S
O1206 C1176 1.325 . S
O1207 Li1145 1.961 1_556 S
O1207 Li1146 1.970 1_556 S
O1207 Li1147 1.956 1_556 S
O1207 C1182 1.325 . S
H1208 C1150 0.929 . S
H1209 C1151 0.930 . S
H1210 C1152 0.930 . S
H1211 C1153 0.930 . S
H1212 C1155 0.930 . S
H1213 C1157 0.929 . S
H1214 C1158 0.930 . S
H1215 C1159 0.930 . S
H1216 C1162 0.930 . S
H1217 C1165 0.929 . S
H1218 C1170 0.929 1_556 S
H1219 C1171 0.930 . S
H1220 C1178 0.929 . S
H1221 C1179 0.930 . S
H1222 C1180 0.930 . S
H1223 C1181 0.930 . S
H1224 C1183 0.929 . S
H1225 C1184 0.930 . S
H1226 C1185 0.930 . S
H1227 C1186 0.930 1_565 S
H1228 C1190 0.929 . S
H1229 C1192 0.930 . S
H1230 C1198 0.929 . S
H1231 C1199 0.930 . S
Li1232 N1249 1.990 . S
Li1232 O1292 1.956 . S
Li1232 O1293 1.970 . S
Li1232 O1294 1.961 . S
Li1233 N1257 1.990 . S
Li1233 O1292 1.970 . S
Li1233 O1293 1.956 . S
Li1233 O1295 1.961 . S
Li1234 N1279 1.990 . S
Li1234 O1292 1.961 . S
Li1234 O1294 1.956 . S
Li1234 O1295 1.970 . S
Li1235 N1285 1.990 . S
Li1235 O1293 1.961 . S
Li1235 O1294 1.970 . S
Li1235 O1295 1.956 . S
C1236 C1238 1.348 . S
C1236 C1239 1.356 . S
C1236 O1292 1.325 . S
N1237 C1240 1.314 . S
N1237 C1241 1.279 . S
C1238 C1236 1.348 . S
C1238 C1240 1.353 . S
C1238 H1296 0.929 . S
C1239 C1236 1.356 . S
C1239 C1241 1.358 . S
C1239 H1297 0.930 . S
C1240 N1237 1.314 . S
C1240 C1238 1.353 . S
C1240 H1298 0.930 . S
C1241 N1237 1.279 . S
C1241 C1239 1.358 . S
C1241 H1299 0.930 . S
C1242 C1245 1.348 . S
C1242 C1246 1.356 . S
C1242 O1293 1.325 . S
C1243 N1244 1.279 . S
C1243 C1246 1.358 . S
C1243 H1300 0.930 . S
N1244 C1243 1.279 . S
N1244 C1247 1.314 . S
C1245 C1242 1.348 . S
C1245 C1247 1.353 . S
C1245 H1301 0.929 . S
C1246 C1242 1.356 . S
C1246 C1243 1.358 . S
C1246 H1302 0.930 . S
C1247 N1244 1.314 . S
C1247 C1245 1.353 . S
C1247 H1303 0.930 . S
C1248 N1249 1.314 . S
C1248 C1253 1.353 . S
C1248 H1254 0.930 . S
N1249 Li1232 1.990 . S
N1249 C1248 1.314 . S
N1249 C1251 1.279 . S
C1250 C1251 1.358 . S
C1250 C1252 1.356 . S
C1250 H1304 0.930 . S
C1251 N1249 1.279 . S
C1251 C1250 1.358 . S
C1251 H1255 0.930 . S
C1252 C1250 1.356 . S
C1252 C1253 1.348 . S
C1253 C1248 1.353 . S
C1253 C1252 1.348 . S
C1253 H1305 0.929 . S
H1254 C1248 0.930 . S
H1255 C1251 0.930 . S
C1256 N1257 1.314 . S
C1256 C1258 1.353 . S
C1256 H1262 0.930 . S
N1257 Li1233 1.990 . S
N1257 C1256 1.314 . S
N1257 C1260 1.279 . S
C1258 C1256 1.353 . S
C1258 C1261 1.348 . S
C1258 H1306 0.929 . S
C1259 C1260 1.358 . S
C1259 C1261 1.356 . S
C1259 H1307 0.930 . S
C1260 N1257 1.279 . S
C1260 C1259 1.358 . S
C1260 H1263 0.930 . S
C1261 C1258 1.348 . S
C1261 C1259 1.356 . S
H1262 C1256 0.930 . S
H1263 C1260 0.930 . S
C1264 C1266 1.348 . S
C1264 C1267 1.356 . S
C1264 O1294 1.325 . S
N1265 C1268 1.314 . S
N1265 C1269 1.279 . S
C1266 C1264 1.348 . S
C1266 C1268 1.353 . S
C1266 H1308 0.929 . S
C1267 C1264 1.356 . S
C1267 C1269 1.358 . S
C1267 H1309 0.930 . S
C1268 N1265 1.314 . S
C1268 C1266 1.353 . S
C1268 H1310 0.930 . S
C1269 N1265 1.279 . S
C1269 C1267 1.358 . S
C1269 H1311 0.930 . S
C1270 C1271 1.348 . S
C1270 C1272 1.356 . S
C1270 O1295 1.325 . S
C1271 C1270 1.348 . S
C1271 C1273 1.353 . S
C1271 H1312 0.929 . S
C1272 C1270 1.356 . S
C1272 C1274 1.358 . S
C1272 H1313 0.930 . S
C1273 C1271 1.353 . S
C1273 N1275 1.314 . S
C1273 H1314 0.930 . S
C1274 C1272 1.358 . S
C1274 N1275 1.279 . S
C1274 H1315 0.930 . S
N1275 C1273 1.314 . S
N1275 C1274 1.279 . S
C1276 C1278 1.353 . S
C1276 N1279 1.314 . S
C1276 H1282 0.930 . S
C1277 N1279 1.279 . S
C1277 C1280 1.358 . S
C1277 H1283 0.930 . S
C1278 C1276 1.353 . S
C1278 C1281 1.348 . S
C1278 H1316 0.929 . S
N1279 Li1234 1.990 . S
N1279 C1276 1.314 . S
N1279 C1277 1.279 . S
C1280 C1277 1.358 . S
C1280 C1281 1.356 . S
C1280 H1317 0.930 . S
C1281 C1278 1.348 . S
C1281 C1280 1.356 . S
H1282 C1276 0.930 . S
H1283 C1277 0.930 . S
C1284 N1285 1.314 . S
C1284 C1286 1.353 . S
C1284 H1290 0.930 . S
N1285 Li1235 1.990 . S
N1285 C1284 1.314 . S
N1285 C1288 1.279 . S
C1286 C1284 1.353 . S
C1286 C1289 1.348 . S
C1286 H1318 0.929 . S
C1287 C1288 1.358 . S
C1287 C1289 1.356 . S
C1287 H1319 0.930 . S
C1288 N1285 1.279 . S
C1288 C1287 1.358 . S
C1288 H1291 0.930 . S
C1289 C1286 1.348 . S
C1289 C1287 1.356 . S
H1290 C1284 0.930 . S
H1291 C1288 0.930 . S
O1292 Li1232 1.956 . S
O1292 Li1233 1.970 . S
O1292 Li1234 1.961 . S
O1292 C1236 1.325 . S
O1293 Li1232 1.970 . S
O1293 Li1233 1.956 . S
O1293 Li1235 1.961 . S
O1293 C1242 1.325 . S
O1294 Li1232 1.961 . S
O1294 Li1234 1.956 . S
O1294 Li1235 1.970 . S
O1294 C1264 1.325 . S
O1295 Li1233 1.961 . S
O1295 Li1234 1.970 . S
O1295 Li1235 1.956 . S
O1295 C1270 1.325 . S
H1296 C1238 0.929 . S
H1297 C1239 0.930 . S
H1298 C1240 0.930 . S
H1299 C1241 0.930 . S
H1300 C1243 0.930 . S
H1301 C1245 0.929 . S
H1302 C1246 0.930 . S
H1303 C1247 0.930 . S
H1304 C1250 0.930 . S
H1305 C1253 0.929 . S
H1306 C1258 0.929 . S
H1307 C1259 0.930 . S
H1308 C1266 0.929 . S
H1309 C1267 0.930 . S
H1310 C1268 0.930 . S
H1311 C1269 0.930 . S
H1312 C1271 0.929 . S
H1313 C1272 0.930 . S
H1314 C1273 0.930 . S
H1315 C1274 0.930 . S
H1316 C1278 0.929 . S
H1317 C1280 0.930 . S
H1318 C1286 0.929 . S
H1319 C1287 0.930 . S
Li1320 N1337 1.990 . S
Li1320 O1380 1.956 . S
Li1320 O1381 1.970 . S
Li1320 O1382 1.961 . S
Li1321 N1345 1.990 . S
Li1321 O1380 1.970 . S
Li1321 O1381 1.956 . S
Li1321 O1383 1.961 . S
Li1322 N1367 1.990 . S
Li1322 O1380 1.961 . S
Li1322 O1382 1.956 . S
Li1322 O1383 1.970 . S
Li1323 N1373 1.990 . S
Li1323 O1381 1.961 . S
Li1323 O1382 1.970 . S
Li1323 O1383 1.956 . S
C1324 C1326 1.348 . S
C1324 C1327 1.356 . S
C1324 O1380 1.325 . S
N1325 C1328 1.314 . S
N1325 C1329 1.279 . S
C1326 C1324 1.348 . S
C1326 C1328 1.353 . S
C1326 H1384 0.929 . S
C1327 C1324 1.356 . S
C1327 C1329 1.358 . S
C1327 H1385 0.930 . S
C1328 N1325 1.314 . S
C1328 C1326 1.353 . S
C1328 H1386 0.930 . S
C1329 N1325 1.279 . S
C1329 C1327 1.358 . S
C1329 H1387 0.930 1_565 S
C1330 C1333 1.348 . S
C1330 C1334 1.356 . S
C1330 O1381 1.325 . S
C1331 N1332 1.279 . S
C1331 C1334 1.358 . S
C1331 H1388 0.930 . S
N1332 C1331 1.279 . S
N1332 C1335 1.314 . S
C1333 C1330 1.348 . S
C1333 C1335 1.353 . S
C1333 H1389 0.929 . S
C1334 C1330 1.356 . S
C1334 C1331 1.358 . S
C1334 H1390 0.930 . S
C1335 N1332 1.314 . S
C1335 C1333 1.353 . S
C1335 H1391 0.930 . S
C1336 N1337 1.314 . S
C1336 C1341 1.353 . S
C1336 H1342 0.930 . S
N1337 Li1320 1.990 . S
N1337 C1336 1.314 . S
N1337 C1339 1.279 . S
C1338 C1339 1.358 . S
C1338 C1340 1.356 . S
C1338 H1392 0.930 . S
C1339 N1337 1.279 . S
C1339 C1338 1.358 . S
C1339 H1343 0.930 . S
C1340 C1338 1.356 . S
C1340 C1341 1.348 . S
C1341 C1336 1.353 . S
C1341 C1340 1.348 . S
C1341 H1393 0.929 . S
H1342 C1336 0.930 . S
H1343 C1339 0.930 . S
C1344 N1345 1.314 . S
C1344 C1346 1.353 . S
C1344 H1350 0.930 . S
N1345 Li1321 1.990 . S
N1345 C1344 1.314 . S
N1345 C1348 1.279 . S
C1346 C1344 1.353 . S
C1346 C1349 1.348 . S
C1346 H1394 0.929 . S
C1347 C1348 1.358 . S
C1347 C1349 1.356 . S
C1347 H1395 0.930 . S
C1348 N1345 1.279 . S
C1348 C1347 1.358 . S
C1348 H1351 0.930 . S
C1349 C1346 1.348 . S
C1349 C1347 1.356 . S
H1350 C1344 0.930 . S
H1351 C1348 0.930 . S
C1352 C1354 1.348 . S
C1352 C1355 1.356 . S
C1352 O1382 1.325 . S
N1353 C1356 1.314 . S
N1353 C1357 1.279 . S
C1354 C1352 1.348 . S
C1354 C1356 1.353 . S
C1354 H1396 0.929 . S
C1355 C1352 1.356 . S
C1355 C1357 1.358 . S
C1355 H1397 0.930 . S
C1356 N1353 1.314 . S
C1356 C1354 1.353 . S
C1356 H1398 0.930 . S
C1357 N1353 1.279 . S
C1357 C1355 1.358 . S
C1357 H1399 0.930 . S
C1358 C1359 1.348 . S
C1358 C1360 1.356 . S
C1358 O1383 1.325 . S
C1359 C1358 1.348 . S
C1359 C1361 1.353 . S
C1359 H1400 0.929 . S
C1360 C1358 1.356 . S
C1360 C1362 1.358 . S
C1360 H1401 0.930 . S
C1361 C1359 1.353 . S
C1361 N1363 1.314 . S
C1361 H1402 0.930 . S
C1362 C1360 1.358 . S
C1362 N1363 1.279 . S
C1362 H1403 0.930 . S
N1363 C1361 1.314 . S
N1363 C1362 1.279 . S
C1364 C1366 1.353 . S
C1364 N1367 1.314 . S
C1364 H1370 0.930 . S
C1365 N1367 1.279 . S
C1365 C1368 1.358 . S
C1365 H1371 0.930 . S
C1366 C1364 1.353 . S
C1366 C1369 1.348 . S
C1366 H1404 0.929 . S
N1367 Li1322 1.990 . S
N1367 C1364 1.314 . S
N1367 C1365 1.279 . S
C1368 C1365 1.358 . S
C1368 C1369 1.356 . S
C1368 H1405 0.930 . S
C1369 C1366 1.348 . S
C1369 C1368 1.356 . S
H1370 C1364 0.930 . S
H1371 C1365 0.930 . S
C1372 N1373 1.314 . S
C1372 C1374 1.353 . S
C1372 H1378 0.930 . S
N1373 Li1323 1.990 . S
N1373 C1372 1.314 . S
N1373 C1376 1.279 . S
C1374 C1372 1.353 . S
C1374 C1377 1.348 . S
C1374 H1406 0.929 . S
C1375 C1376 1.358 . S
C1375 C1377 1.356 . S
C1375 H1407 0.930 . S
C1376 N1373 1.279 . S
C1376 C1375 1.358 . S
C1376 H1379 0.930 . S
C1377 C1374 1.348 . S
C1377 C1375 1.356 . S
H1378 C1372 0.930 . S
H1379 C1376 0.930 . S
O1380 Li1320 1.956 . S
O1380 Li1321 1.970 . S
O1380 Li1322 1.961 . S
O1380 C1324 1.325 . S
O1381 Li1320 1.970 . S
O1381 Li1321 1.956 . S
O1381 Li1323 1.961 . S
O1381 C1330 1.325 . S
O1382 Li1320 1.961 . S
O1382 Li1322 1.956 . S
O1382 Li1323 1.970 . S
O1382 C1352 1.325 . S
O1383 Li1321 1.961 . S
O1383 Li1322 1.970 . S
O1383 Li1323 1.956 . S
O1383 C1358 1.325 . S
H1384 C1326 0.929 . S
H1385 C1327 0.930 . S
H1386 C1328 0.930 . S
H1387 C1329 0.930 1_545 S
H1388 C1331 0.930 . S
H1389 C1333 0.929 . S
H1390 C1334 0.930 . S
H1391 C1335 0.930 . S
H1392 C1338 0.930 . S
H1393 C1341 0.929 . S
H1394 C1346 0.929 . S
H1395 C1347 0.930 . S
H1396 C1354 0.929 . S
H1397 C1355 0.930 . S
H1398 C1356 0.930 . S
H1399 C1357 0.930 . S
H1400 C1359 0.929 . S
H1401 C1360 0.930 . S
H1402 C1361 0.930 . S
H1403 C1362 0.930 . S
H1404 C1366 0.929 . S
H1405 C1368 0.930 . S
H1406 C1374 0.929 . S
H1407 C1375 0.930 . S
Li1408 N1425 1.990 1_655 S
Li1408 O1468 1.956 . S
Li1408 O1469 1.970 . S
Li1408 O1470 1.961 . S
Li1409 N1433 1.990 1_545 S
Li1409 O1468 1.970 . S
Li1409 O1469 1.956 . S
Li1409 O1471 1.961 . S
Li1410 N1455 1.990 1_655 S
Li1410 O1468 1.961 . S
Li1410 O1470 1.956 . S
Li1410 O1471 1.970 . S
Li1411 N1461 1.990 . S
Li1411 O1469 1.961 . S
Li1411 O1470 1.970 . S
Li1411 O1471 1.956 . S
C1412 C1414 1.348 1_545 S
C1412 C1415 1.356 1_655 S
C1412 O1468 1.325 . S
N1413 C1416 1.314 . S
N1413 C1417 1.279 . S
C1414 C1412 1.348 1_565 S
C1414 C1416 1.353 1_655 S
C1414 H1472 0.929 . S
C1415 C1412 1.356 1_455 S
C1415 C1417 1.358 1_545 S
C1415 H1473 0.930 . S
C1416 N1413 1.314 . S
C1416 C1414 1.353 1_455 S
C1416 H1474 0.930 1_455 S
C1417 N1413 1.279 . S
C1417 C1415 1.358 1_565 S
C1417 H1475 0.932 . S
C1418 C1421 1.348 . S
C1418 C1422 1.356 . S
C1418 O1469 1.325 . S
C1419 N1420 1.279 . S
C1419 C1422 1.358 . S
C1419 H1476 0.930 . S
N1420 C1419 1.279 . S
N1420 C1423 1.314 . S
C1421 C1418 1.348 . S
C1421 C1423 1.353 . S
C1421 H1477 0.929 . S
C1422 C1418 1.356 . S
C1422 C1419 1.358 . S
C1422 H1478 0.930 . S
C1423 N1420 1.314 . S
C1423 C1421 1.353 . S
C1423 H1479 0.930 . S
C1424 N1425 1.314 . S
C1424 C1429 1.353 . S
C1424 H1430 0.930 . S
N1425 Li1408 1.990 1_455 S
N1425 C1424 1.314 . S
N1425 C1427 1.279 . S
C1426 C1427 1.358 . S
C1426 C1428 1.356 . S
C1426 H1480 0.930 . S
C1427 N1425 1.279 . S
C1427 C1426 1.358 . S
C1427 H1431 0.930 . S
C1428 C1426 1.356 . S
C1428 C1429 1.348 . S
C1429 C1424 1.353 . S
C1429 C1428 1.348 . S
C1429 H1481 0.929 . S
H1430 C1424 0.930 . S
H1431 C1427 0.930 . S
C1432 N1433 1.314 . S
C1432 C1434 1.353 . S
C1432 H1438 0.930 . S
N1433 Li1409 1.990 1_565 S
N1433 C1432 1.314 . S
N1433 C1436 1.279 . S
C1434 C1432 1.353 . S
C1434 C1437 1.348 . S
C1434 H1482 0.929 . S
C1435 C1436 1.358 . S
C1435 C1437 1.356 . S
C1435 H1483 0.930 . S
C1436 N1433 1.279 . S
C1436 C1435 1.358 . S
C1436 H1439 0.930 . S
C1437 C1434 1.348 . S
C1437 C1435 1.356 . S
H1438 C1432 0.930 . S
H1439 C1436 0.930 . S
C1440 C1442 1.348 . S
C1440 C1443 1.356 . S
C1440 O1470 1.325 1_455 S
N1441 C1444 1.314 . S
N1441 C1445 1.279 . S
C1442 C1440 1.348 . S
C1442 C1444 1.353 . S
C1442 H1484 0.929 1_455 S
C1443 C1440 1.356 . S
C1443 C1445 1.358 . S
C1443 H1485 0.930 . S
C1444 N1441 1.314 . S
C1444 C1442 1.353 . S
C1444 H1486 0.930 . S
C1445 N1441 1.279 . S
C1445 C1443 1.358 . S
C1445 H1487 0.930 . S
C1446 C1447 1.348 . S
C1446 C1448 1.356 . S
C1446 O1471 1.325 . S
C1447 C1446 1.348 . S
C1447 C1449 1.353 . S
C1447 H1488 0.929 . S
C1448 C1446 1.356 . S
C1448 C1450 1.358 . S
C1448 H1489 0.930 . S
C1449 C1447 1.353 . S
C1449 N1451 1.314 . S
C1449 H1490 0.930 . S
C1450 C1448 1.358 . S
C1450 N1451 1.279 . S
C1450 H1491 0.930 . S
N1451 C1449 1.314 . S
N1451 C1450 1.279 . S
C1452 C1454 1.353 . S
C1452 N1455 1.314 . S
C1452 H1458 0.930 1_455 S
C1453 N1455 1.279 . S
C1453 C1456 1.358 . S
C1453 H1459 0.930 . S
C1454 C1452 1.353 . S
C1454 C1457 1.348 . S
C1454 H1492 0.929 . S
N1455 Li1410 1.990 1_455 S
N1455 C1452 1.314 . S
N1455 C1453 1.279 . S
C1456 C1453 1.358 . S
C1456 C1457 1.356 . S
C1456 H1493 0.930 . S
C1457 C1454 1.348 . S
C1457 C1456 1.356 . S
H1458 C1452 0.930 1_655 S
H1459 C1453 0.930 . S
C1460 N1461 1.314 . S
C1460 C1462 1.353 . S
C1460 H1466 0.930 . S
N1461 Li1411 1.990 . S
N1461 C1460 1.314 . S
N1461 C1464 1.279 . S
C1462 C1460 1.353 . S
C1462 C1465 1.348 . S
C1462 H1494 0.929 . S
C1463 C1464 1.358 . S
C1463 C1465 1.356 . S
C1463 H1495 0.930 . S
C1464 N1461 1.279 . S
C1464 C1463 1.358 . S
C1464 H1467 0.930 . S
C1465 C1462 1.348 . S
C1465 C1463 1.356 . S
H1466 C1460 0.930 . S
H1467 C1464 0.930 . S
O1468 Li1408 1.956 . S
O1468 Li1409 1.970 . S
O1468 Li1410 1.961 . S
O1468 C1412 1.325 . S
O1469 Li1408 1.970 . S
O1469 Li1409 1.956 . S
O1469 Li1411 1.961 . S
O1469 C1418 1.325 . S
O1470 Li1408 1.961 . S
O1470 Li1410 1.956 . S
O1470 Li1411 1.970 . S
O1470 C1440 1.325 1_655 S
O1471 Li1409 1.961 . S
O1471 Li1410 1.970 . S
O1471 Li1411 1.956 . S
O1471 C1446 1.325 . S
H1472 C1414 0.929 . S
H1473 C1415 0.930 . S
H1474 C1416 0.930 1_655 S
H1475 C1417 0.932 . S
H1476 C1419 0.930 . S
H1477 C1421 0.929 . S
H1478 C1422 0.930 . S
H1479 C1423 0.930 . S
H1480 C1426 0.930 . S
H1481 C1429 0.929 . S
H1482 C1434 0.929 . S
H1483 C1435 0.930 . S
H1484 C1442 0.929 1_655 S
H1485 C1443 0.930 . S
H1486 C1444 0.930 . S
H1487 C1445 0.930 . S
H1488 C1447 0.929 . S
H1489 C1448 0.930 . S
H1490 C1449 0.930 . S
H1491 C1450 0.930 . S
H1492 C1454 0.929 . S
H1493 C1456 0.930 . S
H1494 C1462 0.929 . S
H1495 C1463 0.930 . S
Li1496 N1513 1.990 . S
Li1496 O1556 1.956 . S
Li1496 O1557 1.970 . S
Li1496 O1558 1.961 . S
Li1497 N1521 1.990 . S
Li1497 O1556 1.970 . S
Li1497 O1557 1.956 . S
Li1497 O1559 1.961 . S
Li1498 N1543 1.990 . S
Li1498 O1556 1.961 . S
Li1498 O1558 1.956 . S
Li1498 O1559 1.970 . S
Li1499 N1549 1.990 . S
Li1499 O1557 1.961 . S
Li1499 O1558 1.970 . S
Li1499 O1559 1.956 . S
C1500 C1502 1.348 . S
C1500 C1503 1.356 . S
C1500 O1556 1.325 . S
N1501 C1504 1.314 . S
N1501 C1505 1.279 . S
C1502 C1500 1.348 . S
C1502 C1504 1.353 . S
C1502 H1560 0.929 . S
C1503 C1500 1.356 . S
C1503 C1505 1.358 . S
C1503 H1561 0.930 . S
C1504 N1501 1.314 . S
C1504 C1502 1.353 . S
C1504 H1562 0.930 . S
C1505 N1501 1.279 . S
C1505 C1503 1.358 . S
C1505 H1563 0.930 . S
C1506 C1509 1.348 . S
C1506 C1510 1.356 . S
C1506 O1557 1.325 . S
C1507 N1508 1.279 . S
C1507 C1510 1.358 . S
C1507 H1564 0.930 . S
N1508 C1507 1.279 . S
N1508 C1511 1.314 . S
C1509 C1506 1.348 . S
C1509 C1511 1.353 . S
C1509 H1565 0.929 . S
C1510 C1506 1.356 . S
C1510 C1507 1.358 . S
C1510 H1566 0.930 . S
C1511 N1508 1.314 . S
C1511 C1509 1.353 . S
C1511 H1567 0.930 . S
C1512 N1513 1.314 . S
C1512 C1517 1.353 . S
C1512 H1518 0.930 . S
N1513 Li1496 1.990 . S
N1513 C1512 1.314 . S
N1513 C1515 1.279 . S
C1514 C1515 1.358 . S
C1514 C1516 1.356 . S
C1514 H1568 0.930 . S
C1515 N1513 1.279 . S
C1515 C1514 1.358 . S
C1515 H1519 0.930 . S
C1516 C1514 1.356 . S
C1516 C1517 1.348 . S
C1517 C1512 1.353 . S
C1517 C1516 1.348 . S
C1517 H1569 0.929 . S
H1518 C1512 0.930 . S
H1519 C1515 0.930 . S
C1520 N1521 1.314 . S
C1520 C1522 1.353 . S
C1520 H1526 0.930 . S
N1521 Li1497 1.990 . S
N1521 C1520 1.314 . S
N1521 C1524 1.279 . S
C1522 C1520 1.353 . S
C1522 C1525 1.348 . S
C1522 H1570 0.929 . S
C1523 C1524 1.358 . S
C1523 C1525 1.356 . S
C1523 H1571 0.930 . S
C1524 N1521 1.279 . S
C1524 C1523 1.358 . S
C1524 H1527 0.930 . S
C1525 C1522 1.348 . S
C1525 C1523 1.356 . S
H1526 C1520 0.930 . S
H1527 C1524 0.930 . S
C1528 C1530 1.348 . S
C1528 C1531 1.356 . S
C1528 O1558 1.325 . S
N1529 C1532 1.314 . S
N1529 C1533 1.279 . S
C1530 C1528 1.348 . S
C1530 C1532 1.353 . S
C1530 H1572 0.929 . S
C1531 C1528 1.356 . S
C1531 C1533 1.358 . S
C1531 H1573 0.930 . S
C1532 N1529 1.314 . S
C1532 C1530 1.353 . S
C1532 H1574 0.930 . S
C1533 N1529 1.279 . S
C1533 C1531 1.358 . S
C1533 H1575 0.930 . S
C1534 C1535 1.348 . S
C1534 C1536 1.356 . S
C1534 O1559 1.325 . S
C1535 C1534 1.348 . S
C1535 C1537 1.353 . S
C1535 H1576 0.929 . S
C1536 C1534 1.356 . S
C1536 C1538 1.358 . S
C1536 H1577 0.930 . S
C1537 C1535 1.353 . S
C1537 N1539 1.314 . S
C1537 H1578 0.930 . S
C1538 C1536 1.358 . S
C1538 N1539 1.279 . S
C1538 H1579 0.930 . S
N1539 C1537 1.314 . S
N1539 C1538 1.279 . S
C1540 C1542 1.353 . S
C1540 N1543 1.314 . S
C1540 H1546 0.930 . S
C1541 N1543 1.279 . S
C1541 C1544 1.358 . S
C1541 H1547 0.930 . S
C1542 C1540 1.353 . S
C1542 C1545 1.348 . S
C1542 H1580 0.929 . S
N1543 Li1498 1.990 . S
N1543 C1540 1.314 . S
N1543 C1541 1.279 . S
C1544 C1541 1.358 . S
C1544 C1545 1.356 . S
C1544 H1581 0.930 . S
C1545 C1542 1.348 . S
C1545 C1544 1.356 . S
H1546 C1540 0.930 . S
H1547 C1541 0.930 . S
C1548 N1549 1.314 . S
C1548 C1550 1.353 . S
C1548 H1554 0.930 . S
N1549 Li1499 1.990 . S
N1549 C1548 1.314 . S
N1549 C1552 1.279 . S
C1550 C1548 1.353 . S
C1550 C1553 1.348 . S
C1550 H1582 0.929 . S
C1551 C1552 1.358 . S
C1551 C1553 1.356 . S
C1551 H1583 0.930 . S
C1552 N1549 1.279 . S
C1552 C1551 1.358 . S
C1552 H1555 0.930 . S
C1553 C1550 1.348 . S
C1553 C1551 1.356 . S
H1554 C1548 0.930 . S
H1555 C1552 0.930 . S
O1556 Li1496 1.956 . S
O1556 Li1497 1.970 . S
O1556 Li1498 1.961 . S
O1556 C1500 1.325 . S
O1557 Li1496 1.970 . S
O1557 Li1497 1.956 . S
O1557 Li1499 1.961 . S
O1557 C1506 1.325 . S
O1558 Li1496 1.961 . S
O1558 Li1498 1.956 . S
O1558 Li1499 1.970 . S
O1558 C1528 1.325 . S
O1559 Li1497 1.961 . S
O1559 Li1498 1.970 . S
O1559 Li1499 1.956 . S
O1559 C1534 1.325 . S
H1560 C1502 0.929 . S
H1561 C1503 0.930 . S
H1562 C1504 0.930 . S
H1563 C1505 0.930 . S
H1564 C1507 0.930 . S
H1565 C1509 0.929 . S
H1566 C1510 0.930 . S
H1567 C1511 0.930 . S
H1568 C1514 0.930 . S
H1569 C1517 0.929 . S
H1570 C1522 0.929 . S
H1571 C1523 0.930 . S
H1572 C1530 0.929 . S
H1573 C1531 0.930 . S
H1574 C1532 0.930 . S
H1575 C1533 0.930 . S
H1576 C1535 0.929 . S
H1577 C1536 0.930 . S
H1578 C1537 0.930 . S
H1579 C1538 0.930 . S
H1580 C1542 0.929 . S
H1581 C1544 0.930 . S
H1582 C1550 0.929 . S
H1583 C1551 0.930 . S
Li1584 N1601 1.990 . S
Li1584 O1644 1.956 . S
Li1584 O1645 1.970 . S
Li1584 O1646 1.961 . S
Li1585 N1609 1.990 . S
Li1585 O1644 1.970 . S
Li1585 O1645 1.956 . S
Li1585 O1647 1.961 . S
Li1586 N1631 1.990 . S
Li1586 O1644 1.961 . S
Li1586 O1646 1.956 . S
Li1586 O1647 1.970 . S
Li1587 N1637 1.990 . S
Li1587 O1645 1.961 . S
Li1587 O1646 1.970 . S
Li1587 O1647 1.956 . S
C1588 C1590 1.348 . S
C1588 C1591 1.356 . S
C1588 O1644 1.325 . S
N1589 C1592 1.314 . S
N1589 C1593 1.279 . S
C1590 C1588 1.348 . S
C1590 C1592 1.353 . S
C1590 H1648 0.929 . S
C1591 C1588 1.356 . S
C1591 C1593 1.358 . S
C1591 H1649 0.930 . S
C1592 N1589 1.314 . S
C1592 C1590 1.353 . S
C1592 H1650 0.930 . S
C1593 N1589 1.279 . S
C1593 C1591 1.358 . S
C1593 H1651 0.930 . S
C1594 C1597 1.348 . S
C1594 C1598 1.356 . S
C1594 O1645 1.325 . S
C1595 N1596 1.279 . S
C1595 C1598 1.358 . S
C1595 H1652 0.930 . S
N1596 C1595 1.279 . S
N1596 C1599 1.314 . S
C1597 C1594 1.348 . S
C1597 C1599 1.353 . S
C1597 H1653 0.929 . S
C1598 C1594 1.356 . S
C1598 C1595 1.358 . S
C1598 H1654 0.930 . S
C1599 N1596 1.314 . S
C1599 C1597 1.353 . S
C1599 H1655 0.930 . S
C1600 N1601 1.314 . S
C1600 C1605 1.353 . S
C1600 H1606 0.930 . S
N1601 Li1584 1.990 . S
N1601 C1600 1.314 . S
N1601 C1603 1.279 . S
C1602 C1603 1.358 . S
C1602 C1604 1.356 . S
C1602 H1656 0.930 . S
C1603 N1601 1.279 . S
C1603 C1602 1.358 . S
C1603 H1607 0.930 . S
C1604 C1602 1.356 . S
C1604 C1605 1.348 . S
C1605 C1600 1.353 . S
C1605 C1604 1.348 . S
C1605 H1657 0.929 . S
H1606 C1600 0.930 . S
H1607 C1603 0.930 . S
C1608 N1609 1.314 . S
C1608 C1610 1.353 . S
C1608 H1614 0.930 . S
N1609 Li1585 1.990 . S
N1609 C1608 1.314 . S
N1609 C1612 1.279 . S
C1610 C1608 1.353 . S
C1610 C1613 1.348 . S
C1610 H1658 0.929 . S
C1611 C1612 1.358 . S
C1611 C1613 1.356 . S
C1611 H1659 0.930 . S
C1612 N1609 1.279 . S
C1612 C1611 1.358 . S
C1612 H1615 0.930 . S
C1613 C1610 1.348 . S
C1613 C1611 1.356 . S
H1614 C1608 0.930 . S
H1615 C1612 0.930 . S
C1616 C1618 1.348 . S
C1616 C1619 1.356 . S
C1616 O1646 1.325 . S
N1617 C1620 1.314 . S
N1617 C1621 1.279 . S
C1618 C1616 1.348 . S
C1618 C1620 1.353 . S
C1618 H1660 0.929 . S
C1619 C1616 1.356 . S
C1619 C1621 1.358 . S
C1619 H1661 0.930 . S
C1620 N1617 1.314 . S
C1620 C1618 1.353 . S
C1620 H1662 0.930 . S
C1621 N1617 1.279 . S
C1621 C1619 1.358 . S
C1621 H1663 0.930 . S
C1622 C1623 1.348 . S
C1622 C1624 1.356 . S
C1622 O1647 1.325 . S
C1623 C1622 1.348 . S
C1623 C1625 1.353 . S
C1623 H1664 0.929 . S
C1624 C1622 1.356 . S
C1624 C1626 1.358 . S
C1624 H1665 0.930 . S
C1625 C1623 1.353 . S
C1625 N1627 1.314 . S
C1625 H1666 0.930 . S
C1626 C1624 1.358 . S
C1626 N1627 1.279 . S
C1626 H1667 0.930 . S
N1627 C1625 1.314 . S
N1627 C1626 1.279 . S
C1628 C1630 1.353 . S
C1628 N1631 1.314 . S
C1628 H1634 0.930 . S
C1629 N1631 1.279 . S
C1629 C1632 1.358 . S
C1629 H1635 0.930 . S
C1630 C1628 1.353 . S
C1630 C1633 1.348 . S
C1630 H1668 0.929 . S
N1631 Li1586 1.990 . S
N1631 C1628 1.314 . S
N1631 C1629 1.279 . S
C1632 C1629 1.358 . S
C1632 C1633 1.356 . S
C1632 H1669 0.930 . S
C1633 C1630 1.348 . S
C1633 C1632 1.356 . S
H1634 C1628 0.930 . S
H1635 C1629 0.930 . S
C1636 N1637 1.314 . S
C1636 C1638 1.353 . S
C1636 H1642 0.930 . S
N1637 Li1587 1.990 . S
N1637 C1636 1.314 . S
N1637 C1640 1.279 . S
C1638 C1636 1.353 . S
C1638 C1641 1.348 . S
C1638 H1670 0.929 . S
C1639 C1640 1.358 . S
C1639 C1641 1.356 . S
C1639 H1671 0.930 . S
C1640 N1637 1.279 . S
C1640 C1639 1.358 . S
C1640 H1643 0.930 . S
C1641 C1638 1.348 . S
C1641 C1639 1.356 . S
H1642 C1636 0.930 . S
H1643 C1640 0.930 . S
O1644 Li1584 1.956 . S
O1644 Li1585 1.970 . S
O1644 Li1586 1.961 . S
O1644 C1588 1.325 . S
O1645 Li1584 1.970 . S
O1645 Li1585 1.956 . S
O1645 Li1587 1.961 . S
O1645 C1594 1.325 . S
O1646 Li1584 1.961 . S
O1646 Li1586 1.956 . S
O1646 Li1587 1.970 . S
O1646 C1616 1.325 . S
O1647 Li1585 1.961 . S
O1647 Li1586 1.970 . S
O1647 Li1587 1.956 . S
O1647 C1622 1.325 . S
H1648 C1590 0.929 . S
H1649 C1591 0.930 . S
H1650 C1592 0.930 . S
H1651 C1593 0.930 . S
H1652 C1595 0.930 . S
H1653 C1597 0.929 . S
H1654 C1598 0.930 . S
H1655 C1599 0.930 . S
H1656 C1602 0.930 . S
H1657 C1605 0.929 . S
H1658 C1610 0.929 . S
H1659 C1611 0.930 . S
H1660 C1618 0.929 . S
H1661 C1619 0.930 . S
H1662 C1620 0.930 . S
H1663 C1621 0.930 . S
H1664 C1623 0.929 . S
H1665 C1624 0.930 . S
H1666 C1625 0.930 . S
H1667 C1626 0.930 . S
H1668 C1630 0.929 . S
H1669 C1632 0.930 . S
H1670 C1638 0.929 . S
H1671 C1639 0.930 . S
Li1672 N1689 1.990 . S
Li1672 O1732 1.956 . S
Li1672 O1733 1.970 . S
Li1672 O1734 1.961 . S
Li1673 N1697 1.990 . S
Li1673 O1732 1.970 . S
Li1673 O1733 1.956 . S
Li1673 O1735 1.961 . S
Li1674 N1719 1.990 . S
Li1674 O1732 1.961 . S
Li1674 O1734 1.956 . S
Li1674 O1735 1.970 . S
Li1675 N1725 1.990 . S
Li1675 O1733 1.961 . S
Li1675 O1734 1.970 . S
Li1675 O1735 1.956 . S
C1676 C1678 1.348 . S
C1676 C1679 1.356 . S
C1676 O1732 1.325 . S
N1677 C1680 1.314 . S
N1677 C1681 1.279 . S
C1678 C1676 1.348 . S
C1678 C1680 1.353 . S
C1678 H1736 0.929 . S
C1679 C1676 1.356 . S
C1679 C1681 1.358 . S
C1679 H1737 0.930 . S
C1680 N1677 1.314 . S
C1680 C1678 1.353 . S
C1680 H1738 0.930 . S
C1681 N1677 1.279 . S
C1681 C1679 1.358 . S
C1681 H1739 0.930 . S
C1682 C1685 1.348 . S
C1682 C1686 1.356 . S
C1682 O1733 1.325 . S
C1683 N1684 1.279 . S
C1683 C1686 1.358 . S
C1683 H1740 0.930 . S
N1684 C1683 1.279 . S
N1684 C1687 1.314 . S
C1685 C1682 1.348 . S
C1685 C1687 1.353 . S
C1685 H1741 0.929 . S
C1686 C1682 1.356 . S
C1686 C1683 1.358 . S
C1686 H1742 0.930 . S
C1687 N1684 1.314 . S
C1687 C1685 1.353 . S
C1687 H1743 0.930 . S
C1688 N1689 1.314 . S
C1688 C1693 1.353 . S
C1688 H1694 0.930 . S
N1689 Li1672 1.990 . S
N1689 C1688 1.314 . S
N1689 C1691 1.279 . S
C1690 C1691 1.358 . S
C1690 C1692 1.356 . S
C1690 H1744 0.930 . S
C1691 N1689 1.279 . S
C1691 C1690 1.358 . S
C1691 H1695 0.930 . S
C1692 C1690 1.356 . S
C1692 C1693 1.348 . S
C1693 C1688 1.353 . S
C1693 C1692 1.348 . S
C1693 H1745 0.929 . S
H1694 C1688 0.930 . S
H1695 C1691 0.930 . S
C1696 N1697 1.314 . S
C1696 C1698 1.353 . S
C1696 H1702 0.930 . S
N1697 Li1673 1.990 . S
N1697 C1696 1.314 . S
N1697 C1700 1.279 . S
C1698 C1696 1.353 . S
C1698 C1701 1.348 . S
C1698 H1746 0.929 . S
C1699 C1700 1.358 . S
C1699 C1701 1.356 . S
C1699 H1747 0.930 . S
C1700 N1697 1.279 . S
C1700 C1699 1.358 . S
C1700 H1703 0.930 . S
C1701 C1698 1.348 . S
C1701 C1699 1.356 . S
H1702 C1696 0.930 . S
H1703 C1700 0.930 . S
C1704 C1706 1.348 . S
C1704 C1707 1.356 . S
C1704 O1734 1.325 1_565 S
N1705 C1708 1.314 . S
N1705 C1709 1.279 . S
C1706 C1704 1.348 . S
C1706 C1708 1.353 . S
C1706 H1748 0.929 . S
C1707 C1704 1.356 . S
C1707 C1709 1.358 . S
C1707 H1749 0.930 1_565 S
C1708 N1705 1.314 . S
C1708 C1706 1.353 . S
C1708 H1750 0.930 . S
C1709 N1705 1.279 . S
C1709 C1707 1.358 . S
C1709 H1751 0.930 . S
C1710 C1711 1.348 . S
C1710 C1712 1.356 . S
C1710 O1735 1.325 . S
C1711 C1710 1.348 . S
C1711 C1713 1.353 . S
C1711 H1752 0.929 . S
C1712 C1710 1.356 . S
C1712 C1714 1.358 . S
C1712 H1753 0.930 . S
C1713 C1711 1.353 . S
C1713 N1715 1.314 . S
C1713 H1754 0.930 . S
C1714 C1712 1.358 . S
C1714 N1715 1.279 . S
C1714 H1755 0.930 . S
N1715 C1713 1.314 . S
N1715 C1714 1.279 . S
C1716 C1718 1.353 . S
C1716 N1719 1.314 . S
C1716 H1722 0.930 . S
C1717 N1719 1.279 . S
C1717 C1720 1.358 . S
C1717 H1723 0.902 1_545 S
C1718 C1716 1.353 . S
C1718 C1721 1.348 . S
C1718 H1756 0.929 . S
N1719 Li1674 1.990 . S
N1719 C1716 1.314 . S
N1719 C1717 1.279 . S
C1720 C1717 1.358 . S
C1720 C1721 1.356 . S
C1720 H1757 0.930 1_545 S
C1721 C1718 1.348 . S
C1721 C1720 1.356 . S
H1722 C1716 0.930 . S
H1723 C1717 0.902 1_565 S
C1724 N1725 1.314 1_565 S
C1724 C1726 1.353 . S
C1724 H1730 0.930 . S
N1725 Li1675 1.990 . S
N1725 C1724 1.314 1_545 S
N1725 C1728 1.279 1_545 S
C1726 C1724 1.353 . S
C1726 C1729 1.348 . S
C1726 H1758 0.929 . S
C1727 C1728 1.358 . S
C1727 C1729 1.356 . S
C1727 H1759 0.930 . S
C1728 N1725 1.279 1_565 S
C1728 C1727 1.358 . S
C1728 H1731 0.932 1_565 S
C1729 C1726 1.348 . S
C1729 C1727 1.356 . S
H1730 C1724 0.930 . S
H1731 C1728 0.932 1_545 S
O1732 Li1672 1.956 . S
O1732 Li1673 1.970 . S
O1732 Li1674 1.961 . S
O1732 C1676 1.325 . S
O1733 Li1672 1.970 . S
O1733 Li1673 1.956 . S
O1733 Li1675 1.961 . S
O1733 C1682 1.325 . S
O1734 Li1672 1.961 . S
O1734 Li1674 1.956 . S
O1734 Li1675 1.970 . S
O1734 C1704 1.325 1_545 S
O1735 Li1673 1.961 . S
O1735 Li1674 1.970 . S
O1735 Li1675 1.956 . S
O1735 C1710 1.325 . S
H1736 C1678 0.929 . S
H1737 C1679 0.930 . S
H1738 C1680 0.930 . S
H1739 C1681 0.930 . S
H1740 C1683 0.930 . S
H1741 C1685 0.929 . S
H1742 C1686 0.930 . S
H1743 C1687 0.930 . S
H1744 C1690 0.930 . S
H1745 C1693 0.929 . S
H1746 C1698 0.929 . S
H1747 C1699 0.930 . S
H1748 C1706 0.929 . S
H1749 C1707 0.930 1_545 S
H1750 C1708 0.930 . S
H1751 C1709 0.930 . S
H1752 C1711 0.929 . S
H1753 C1712 0.930 . S
H1754 C1713 0.930 . S
H1755 C1714 0.930 . S
H1756 C1718 0.929 . S
H1757 C1720 0.930 1_565 S
H1758 C1726 0.929 . S
H1759 C1727 0.930 . S
Li1760 N1777 1.990 . S
Li1760 O1820 1.956 . S
Li1760 O1821 1.970 . S
Li1760 O1822 1.961 . S
Li1761 N1785 1.989 . S
Li1761 O1820 1.974 1_556 S
Li1761 O1821 1.937 1_556 S
Li1761 O1823 1.980 . S
Li1762 N1807 1.990 . S
Li1762 O1820 1.961 1_556 S
Li1762 O1822 1.956 1_556 S
Li1762 O1823 1.970 . S
Li1763 N1813 1.990 . S
Li1763 O1821 1.961 1_556 S
Li1763 O1822 1.970 1_556 S
Li1763 O1823 1.956 . S
C1764 C1766 1.348 . S
C1764 C1767 1.356 . S
C1764 O1820 1.325 . S
N1765 C1768 1.314 . S
N1765 C1769 1.279 . S
C1766 C1764 1.348 . S
C1766 C1768 1.353 . S
C1766 H1824 0.929 . S
C1767 C1764 1.356 . S
C1767 C1769 1.358 . S
C1767 H1825 0.930 . S
C1768 N1765 1.314 . S
C1768 C1766 1.353 . S
C1768 H1826 0.930 . S
C1769 N1765 1.279 . S
C1769 C1767 1.358 . S
C1769 H1827 0.930 . S
C1770 C1773 1.348 . S
C1770 C1774 1.356 . S
C1770 O1821 1.325 . S
C1771 N1772 1.279 . S
C1771 C1774 1.358 . S
C1771 H1828 0.930 . S
N1772 C1771 1.279 . S
N1772 C1775 1.314 . S
C1773 C1770 1.348 . S
C1773 C1775 1.353 . S
C1773 H1829 0.929 . S
C1774 C1770 1.356 . S
C1774 C1771 1.358 . S
C1774 H1830 0.930 . S
C1775 N1772 1.314 . S
C1775 C1773 1.353 . S
C1775 H1831 0.930 . S
C1776 N1777 1.314 . S
C1776 C1781 1.353 . S
C1776 H1782 0.930 . S
N1777 Li1760 1.990 . S
N1777 C1776 1.314 . S
N1777 C1779 1.279 . S
C1778 C1779 1.358 . S
C1778 C1780 1.356 . S
C1778 H1832 0.930 . S
C1779 N1777 1.279 . S
C1779 C1778 1.358 . S
C1779 H1783 0.930 . S
C1780 C1778 1.356 . S
C1780 C1781 1.348 . S
C1781 C1776 1.353 . S
C1781 C1780 1.348 . S
C1781 H1833 0.929 . S
H1782 C1776 0.930 . S
H1783 C1779 0.930 . S
C1784 N1785 1.314 . S
C1784 C1786 1.353 . S
C1784 H1790 0.930 . S
N1785 Li1761 1.989 . S
N1785 C1784 1.314 . S
N1785 C1788 1.279 1_556 S
C1786 C1784 1.353 . S
C1786 C1789 1.348 . S
C1786 H1834 0.929 . S
C1787 C1788 1.358 . S
C1787 C1789 1.356 1_554 S
C1787 H1835 0.930 . S
C1788 N1785 1.279 1_554 S
C1788 C1787 1.358 . S
C1788 H1791 0.930 . S
C1789 C1786 1.348 . S
C1789 C1787 1.356 1_556 S
H1790 C1784 0.930 . S
H1791 C1788 0.930 . S
C1792 C1794 1.348 1_554 S
C1792 C1795 1.356 . S
C1792 O1822 1.325 . S
N1793 C1796 1.314 1_554 S
N1793 C1797 1.279 . S
C1794 C1792 1.348 1_556 S
C1794 C1796 1.353 . S
C1794 H1836 0.929 . S
C1795 C1792 1.356 . S
C1795 C1797 1.358 . S
C1795 H1837 0.930 . S
C1796 N1793 1.314 1_556 S
C1796 C1794 1.353 . S
C1796 H1838 0.930 . S
C1797 N1793 1.279 . S
C1797 C1795 1.358 . S
C1797 H1839 0.930 . S
C1798 C1799 1.348 . S
C1798 C1800 1.356 . S
C1798 O1823 1.325 . S
C1799 C1798 1.348 . S
C1799 C1801 1.353 . S
C1799 H1840 0.929 . S
C1800 C1798 1.356 . S
C1800 C1802 1.358 . S
C1800 H1841 0.930 . S
C1801 C1799 1.353 . S
C1801 N1803 1.314 . S
C1801 H1842 0.930 . S
C1802 C1800 1.358 . S
C1802 N1803 1.279 . S
C1802 H1843 0.930 . S
N1803 C1801 1.314 . S
N1803 C1802 1.279 . S
C1804 C1806 1.353 . S
C1804 N1807 1.314 . S
C1804 H1810 0.930 . S
C1805 N1807 1.279 . S
C1805 C1808 1.358 . S
C1805 H1811 0.930 . S
C1806 C1804 1.353 . S
C1806 C1809 1.348 . S
C1806 H1844 0.929 . S
N1807 Li1762 1.990 . S
N1807 C1804 1.314 . S
N1807 C1805 1.279 . S
C1808 C1805 1.358 . S
C1808 C1809 1.356 . S
C1808 H1845 0.930 . S
C1809 C1806 1.348 . S
C1809 C1808 1.356 . S
H1810 C1804 0.930 . S
H1811 C1805 0.930 . S
C1812 N1813 1.314 1_554 S
C1812 C1814 1.353 . S
C1812 H1818 0.930 . S
N1813 Li1763 1.990 . S
N1813 C1812 1.314 1_556 S
N1813 C1816 1.279 . S
C1814 C1812 1.353 . S
C1814 C1817 1.348 1_554 S
C1814 H1846 0.929 . S
C1815 C1816 1.358 . S
C1815 C1817 1.356 . S
C1815 H1847 0.930 . S
C1816 N1813 1.279 . S
C1816 C1815 1.358 . S
C1816 H1819 0.930 . S
C1817 C1814 1.348 1_556 S
C1817 C1815 1.356 . S
H1818 C1812 0.930 . S
H1819 C1816 0.930 . S
O1820 Li1760 1.956 . S
O1820 Li1761 1.974 1_554 S
O1820 Li1762 1.961 1_554 S
O1820 C1764 1.325 . S
O1821 Li1760 1.970 . S
O1821 Li1761 1.937 1_554 S
O1821 Li1763 1.961 1_554 S
O1821 C1770 1.325 . S
O1822 Li1760 1.961 . S
O1822 Li1762 1.956 1_554 S
O1822 Li1763 1.970 1_554 S
O1822 C1792 1.325 . S
O1823 Li1761 1.980 . S
O1823 Li1762 1.970 . S
O1823 Li1763 1.956 . S
O1823 C1798 1.325 . S
H1824 C1766 0.929 . S
H1825 C1767 0.930 . S
H1826 C1768 0.930 . S
H1827 C1769 0.930 . S
H1828 C1771 0.930 . S
H1829 C1773 0.929 . S
H1830 C1774 0.930 . S
H1831 C1775 0.930 . S
H1832 C1778 0.930 . S
H1833 C1781 0.929 . S
H1834 C1786 0.929 . S
H1835 C1787 0.930 . S
H1836 C1794 0.929 . S
H1837 C1795 0.930 . S
H1838 C1796 0.930 . S
H1839 C1797 0.930 . S
H1840 C1799 0.929 . S
H1841 C1800 0.930 . S
H1842 C1801 0.930 . S
H1843 C1802 0.930 . S
H1844 C1806 0.929 . S
H1845 C1808 0.930 . S
H1846 C1814 0.929 . S
H1847 C1815 0.930 . S
Li1848 N1865 1.990 . S
Li1848 O1908 1.956 . S
Li1848 O1909 1.970 . S
Li1848 O1910 1.961 . S
Li1849 N1873 1.990 . S
Li1849 O1908 1.970 . S
Li1849 O1909 1.956 . S
Li1849 O1911 1.961 . S
Li1850 N1895 1.990 . S
Li1850 O1908 1.961 . S
Li1850 O1910 1.956 . S
Li1850 O1911 1.970 . S
Li1851 N1901 1.990 . S
Li1851 O1909 1.961 . S
Li1851 O1910 1.970 . S
Li1851 O1911 1.956 . S
C1852 C1854 1.348 . S
C1852 C1855 1.356 . S
C1852 O1908 1.325 . S
N1853 C1856 1.314 . S
N1853 C1857 1.279 . S
C1854 C1852 1.348 . S
C1854 C1856 1.353 . S
C1854 H1912 0.929 . S
C1855 C1852 1.356 . S
C1855 C1857 1.358 . S
C1855 H1913 0.930 . S
C1856 N1853 1.314 . S
C1856 C1854 1.353 . S
C1856 H1914 0.930 . S
C1857 N1853 1.279 . S
C1857 C1855 1.358 . S
C1857 H1915 0.930 . S
C1858 C1861 1.348 . S
C1858 C1862 1.356 . S
C1858 O1909 1.325 . S
C1859 N1860 1.279 1_455 S
C1859 C1862 1.358 1_455 S
C1859 H1916 0.930 . S
N1860 C1859 1.279 1_655 S
N1860 C1863 1.314 . S
C1861 C1858 1.348 . S
C1861 C1863 1.353 . S
C1861 H1917 0.929 . S
C1862 C1858 1.356 . S
C1862 C1859 1.358 1_655 S
C1862 H1918 0.930 1_655 S
C1863 N1860 1.314 . S
C1863 C1861 1.353 . S
C1863 H1919 0.930 . S
C1864 N1865 1.314 . S
C1864 C1869 1.353 . S
C1864 H1870 0.930 . S
N1865 Li1848 1.990 . S
N1865 C1864 1.314 . S
N1865 C1867 1.279 . S
C1866 C1867 1.358 . S
C1866 C1868 1.356 . S
C1866 H1920 0.930 . S
C1867 N1865 1.279 . S
C1867 C1866 1.358 . S
C1867 H1871 0.930 . S
C1868 C1866 1.356 . S
C1868 C1869 1.348 . S
C1869 C1864 1.353 . S
C1869 C1868 1.348 . S
C1869 H1921 0.929 . S
H1870 C1864 0.930 . S
H1871 C1867 0.930 . S
C1872 N1873 1.314 . S
C1872 C1874 1.353 1_655 S
C1872 H1878 0.930 . S
N1873 Li1849 1.990 . S
N1873 C1872 1.314 . S
N1873 C1876 1.279 . S
C1874 C1872 1.353 1_455 S
C1874 C1877 1.348 . S
C1874 H1922 0.929 . S
C1875 C1876 1.358 1_455 S
C1875 C1877 1.356 . S
C1875 H1923 0.930 . S
C1876 N1873 1.279 . S
C1876 C1875 1.358 1_655 S
C1876 H1879 0.930 . S
C1877 C1874 1.348 . S
C1877 C1875 1.356 . S
H1878 C1872 0.930 . S
H1879 C1876 0.930 . S
C1880 C1882 1.348 . S
C1880 C1883 1.356 . S
C1880 O1910 1.325 . S
N1881 C1884 1.314 . S
N1881 C1885 1.279 . S
C1882 C1880 1.348 . S
C1882 C1884 1.353 . S
C1882 H1924 0.929 . S
C1883 C1880 1.356 . S
C1883 C1885 1.358 . S
C1883 H1925 0.930 . S
C1884 N1881 1.314 . S
C1884 C1882 1.353 . S
C1884 H1926 0.930 . S
C1885 N1881 1.279 . S
C1885 C1883 1.358 . S
C1885 H1927 0.930 . S
C1886 C1887 1.348 . S
C1886 C1888 1.356 1_655 S
C1886 O1911 1.325 . S
C1887 C1886 1.348 . S
C1887 C1889 1.353 . S
C1887 H1928 0.929 . S
C1888 C1886 1.356 1_455 S
C1888 C1890 1.358 . S
C1888 H1929 0.930 . S
C1889 C1887 1.353 . S
C1889 N1891 1.314 1_655 S
C1889 H1930 0.930 . S
C1890 C1888 1.358 . S
C1890 N1891 1.279 . S
C1890 H1931 0.930 . S
N1891 C1889 1.314 1_455 S
N1891 C1890 1.279 . S
C1892 C1894 1.353 . S
C1892 N1895 1.314 . S
C1892 H1898 0.930 . S
C1893 N1895 1.279 . S
C1893 C1896 1.358 . S
C1893 H1899 0.930 . S
C1894 C1892 1.353 . S
C1894 C1897 1.348 . S
C1894 H1932 0.929 . S
N1895 Li1850 1.990 . S
N1895 C1892 1.314 . S
N1895 C1893 1.279 . S
C1896 C1893 1.358 . S
C1896 C1897 1.356 . S
C1896 H1933 0.930 . S
C1897 C1894 1.348 . S
C1897 C1896 1.356 . S
H1898 C1892 0.930 . S
H1899 C1893 0.930 . S
C1900 N1901 1.314 . S
C1900 C1902 1.353 . S
C1900 H1906 0.930 . S
N1901 Li1851 1.990 . S
N1901 C1900 1.314 . S
N1901 C1904 1.279 . S
C1902 C1900 1.353 . S
C1902 C1905 1.348 1_655 S
C1902 H1934 0.929 . S
C1903 C1904 1.358 1_455 S
C1903 C1905 1.356 . S
C1903 H1935 0.930 . S
C1904 N1901 1.279 . S
C1904 C1903 1.358 1_655 S
C1904 H1907 0.930 . S
C1905 C1902 1.348 1_455 S
C1905 C1903 1.356 . S
H1906 C1900 0.930 . S
H1907 C1904 0.930 . S
O1908 Li1848 1.956 . S
O1908 Li1849 1.970 . S
O1908 Li1850 1.961 . S
O1908 C1852 1.325 . S
O1909 Li1848 1.970 . S
O1909 Li1849 1.956 . S
O1909 Li1851 1.961 . S
O1909 C1858 1.325 . S
O1910 Li1848 1.961 . S
O1910 Li1850 1.956 . S
O1910 Li1851 1.970 . S
O1910 C1880 1.325 . S
O1911 Li1849 1.961 . S
O1911 Li1850 1.970 . S
O1911 Li1851 1.956 . S
O1911 C1886 1.325 . S
H1912 C1854 0.929 . S
H1913 C1855 0.930 . S
H1914 C1856 0.930 . S
H1915 C1857 0.930 . S
H1916 C1859 0.930 . S
H1917 C1861 0.929 . S
H1918 C1862 0.930 1_455 S
H1919 C1863 0.930 . S
H1920 C1866 0.930 . S
H1921 C1869 0.929 . S
H1922 C1874 0.929 . S
H1923 C1875 0.930 . S
H1924 C1882 0.929 . S
H1925 C1883 0.930 . S
H1926 C1884 0.930 . S
H1927 C1885 0.930 . S
H1928 C1887 0.929 . S
H1929 C1888 0.930 . S
H1930 C1889 0.930 . S
H1931 C1890 0.930 . S
H1932 C1894 0.929 . S
H1933 C1896 0.930 . S
H1934 C1902 0.929 . S
H1935 C1903 0.930 . S
Li1936 N1953 1.990 . S
Li1936 O1996 1.956 . S
Li1936 O1997 1.970 . S
Li1936 O1998 1.961 . S
Li1937 N1961 1.990 . S
Li1937 O1996 1.970 . S
Li1937 O1997 1.956 . S
Li1937 O1999 1.961 . S
Li1938 N1983 1.990 . S
Li1938 O1996 1.961 . S
Li1938 O1998 1.956 . S
Li1938 O1999 1.970 . S
Li1939 N1989 1.990 . S
Li1939 O1997 1.961 . S
Li1939 O1998 1.970 . S
Li1939 O1999 1.956 . S
C1940 C1942 1.348 . S
C1940 C1943 1.356 . S
C1940 O1996 1.325 . S
N1941 C1944 1.314 . S
N1941 C1945 1.279 . S
C1942 C1940 1.348 . S
C1942 C1944 1.353 . S
C1942 H2000 0.929 . S
C1943 C1940 1.356 . S
C1943 C1945 1.358 . S
C1943 H2001 0.930 . S
C1944 N1941 1.314 . S
C1944 C1942 1.353 . S
C1944 H2002 0.930 . S
C1945 N1941 1.279 . S
C1945 C1943 1.358 . S
C1945 H2003 0.930 . S
C1946 C1949 1.348 . S
C1946 C1950 1.356 . S
C1946 O1997 1.325 . S
C1947 N1948 1.279 . S
C1947 C1950 1.358 . S
C1947 H2004 0.930 . S
N1948 C1947 1.279 . S
N1948 C1951 1.314 . S
C1949 C1946 1.348 . S
C1949 C1951 1.353 . S
C1949 H2005 0.929 . S
C1950 C1946 1.356 . S
C1950 C1947 1.358 . S
C1950 H2006 0.930 . S
C1951 N1948 1.314 . S
C1951 C1949 1.353 . S
C1951 H2007 0.930 . S
C1952 N1953 1.314 . S
C1952 C1957 1.353 . S
C1952 H1958 0.930 . S
N1953 Li1936 1.990 . S
N1953 C1952 1.314 . S
N1953 C1955 1.279 . S
C1954 C1955 1.358 . S
C1954 C1956 1.356 . S
C1954 H2008 0.930 . S
C1955 N1953 1.279 . S
C1955 C1954 1.358 . S
C1955 H1959 0.930 . S
C1956 C1954 1.356 . S
C1956 C1957 1.348 . S
C1957 C1952 1.353 . S
C1957 C1956 1.348 . S
C1957 H2009 0.929 . S
H1958 C1952 0.930 . S
H1959 C1955 0.930 . S
C1960 N1961 1.314 . S
C1960 C1962 1.353 . S
C1960 H1966 0.930 . S
N1961 Li1937 1.990 . S
N1961 C1960 1.314 . S
N1961 C1964 1.279 . S
C1962 C1960 1.353 . S
C1962 C1965 1.348 . S
C1962 H2010 0.929 . S
C1963 C1964 1.358 . S
C1963 C1965 1.356 . S
C1963 H2011 0.930 . S
C1964 N1961 1.279 . S
C1964 C1963 1.358 . S
C1964 H1967 0.930 . S
C1965 C1962 1.348 . S
C1965 C1963 1.356 . S
H1966 C1960 0.930 . S
H1967 C1964 0.930 . S
C1968 C1970 1.348 . S
C1968 C1971 1.356 . S
C1968 O1998 1.325 . S
N1969 C1972 1.314 . S
N1969 C1973 1.279 . S
C1970 C1968 1.348 . S
C1970 C1972 1.353 . S
C1970 H2012 0.929 . S
C1971 C1968 1.356 . S
C1971 C1973 1.358 . S
C1971 H2013 0.930 . S
C1972 N1969 1.314 . S
C1972 C1970 1.353 . S
C1972 H2014 0.930 . S
C1973 N1969 1.279 . S
C1973 C1971 1.358 . S
C1973 H2015 0.930 . S
C1974 C1975 1.348 . S
C1974 C1976 1.356 . S
C1974 O1999 1.325 . S
C1975 C1974 1.348 . S
C1975 C1977 1.353 . S
C1975 H2016 0.929 . S
C1976 C1974 1.356 . S
C1976 C1978 1.358 . S
C1976 H2017 0.930 . S
C1977 C1975 1.353 . S
C1977 N1979 1.314 . S
C1977 H2018 0.930 . S
C1978 C1976 1.358 . S
C1978 N1979 1.279 . S
C1978 H2019 0.930 . S
N1979 C1977 1.314 . S
N1979 C1978 1.279 . S
C1980 C1982 1.353 . S
C1980 N1983 1.314 . S
C1980 H1986 0.930 . S
C1981 N1983 1.279 . S
C1981 C1984 1.358 . S
C1981 H1987 0.930 . S
C1982 C1980 1.353 . S
C1982 C1985 1.348 . S
C1982 H2020 0.929 . S
N1983 Li1938 1.990 . S
N1983 C1980 1.314 . S
N1983 C1981 1.279 . S
C1984 C1981 1.358 . S
C1984 C1985 1.356 . S
C1984 H2021 0.930 . S
C1985 C1982 1.348 . S
C1985 C1984 1.356 . S
H1986 C1980 0.930 . S
H1987 C1981 0.930 . S
C1988 N1989 1.314 . S
C1988 C1990 1.353 1_655 S
C1988 H1994 0.930 . S
N1989 Li1939 1.990 . S
N1989 C1988 1.314 . S
N1989 C1992 1.279 . S
C1990 C1988 1.353 1_455 S
C1990 C1993 1.348 . S
C1990 H2022 0.929 . S
C1991 C1992 1.358 . S
C1991 C1993 1.356 1_655 S
C1991 H2023 0.930 1_655 S
C1992 N1989 1.279 . S
C1992 C1991 1.358 . S
C1992 H1995 0.930 . S
C1993 C1990 1.348 . S
C1993 C1991 1.356 1_455 S
H1994 C1988 0.930 . S
H1995 C1992 0.930 . S
O1996 Li1936 1.956 . S
O1996 Li1937 1.970 . S
O1996 Li1938 1.961 . S
O1996 C1940 1.325 . S
O1997 Li1936 1.970 . S
O1997 Li1937 1.956 . S
O1997 Li1939 1.961 . S
O1997 C1946 1.325 . S
O1998 Li1936 1.961 . S
O1998 Li1938 1.956 . S
O1998 Li1939 1.970 . S
O1998 C1968 1.325 . S
O1999 Li1937 1.961 . S
O1999 Li1938 1.970 . S
O1999 Li1939 1.956 . S
O1999 C1974 1.325 . S
H2000 C1942 0.929 . S
H2001 C1943 0.930 . S
H2002 C1944 0.930 . S
H2003 C1945 0.930 . S
H2004 C1947 0.930 . S
H2005 C1949 0.929 . S
H2006 C1950 0.930 . S
H2007 C1951 0.930 . S
H2008 C1954 0.930 . S
H2009 C1957 0.929 . S
H2010 C1962 0.929 . S
H2011 C1963 0.930 . S
H2012 C1970 0.929 . S
H2013 C1971 0.930 . S
H2014 C1972 0.930 . S
H2015 C1973 0.930 . S
H2016 C1975 0.929 . S
H2017 C1976 0.930 . S
H2018 C1977 0.930 . S
H2019 C1978 0.930 . S
H2020 C1982 0.929 . S
H2021 C1984 0.930 . S
H2022 C1990 0.929 . S
H2023 C1991 0.930 1_455 S
Li2024 N2041 1.990 . S
Li2024 O2084 1.956 . S
Li2024 O2085 1.970 . S
Li2024 O2086 1.961 . S
Li2025 N2049 1.990 . S
Li2025 O2084 1.970 . S
Li2025 O2085 1.956 . S
Li2025 O2087 1.961 . S
Li2026 N2071 1.990 . S
Li2026 O2084 1.961 . S
Li2026 O2086 1.956 . S
Li2026 O2087 1.970 . S
Li2027 N2077 1.990 . S
Li2027 O2085 1.961 . S
Li2027 O2086 1.970 . S
Li2027 O2087 1.956 . S
C2028 C2030 1.348 . S
C2028 C2031 1.356 . S
C2028 O2084 1.325 . S
N2029 C2032 1.314 . S
N2029 C2033 1.279 . S
C2030 C2028 1.348 . S
C2030 C2032 1.353 . S
C2030 H2088 0.929 . S
C2031 C2028 1.356 . S
C2031 C2033 1.358 . S
C2031 H2089 0.930 . S
C2032 N2029 1.314 . S
C2032 C2030 1.353 . S
C2032 H2090 0.930 . S
C2033 N2029 1.279 . S
C2033 C2031 1.358 . S
C2033 H2091 0.930 . S
C2034 C2037 1.348 . S
C2034 C2038 1.356 . S
C2034 O2085 1.325 . S
C2035 N2036 1.279 . S
C2035 C2038 1.358 . S
C2035 H2092 0.930 . S
N2036 C2035 1.279 . S
N2036 C2039 1.314 . S
C2037 C2034 1.348 . S
C2037 C2039 1.353 . S
C2037 H2093 0.929 . S
C2038 C2034 1.356 . S
C2038 C2035 1.358 . S
C2038 H2094 0.930 . S
C2039 N2036 1.314 . S
C2039 C2037 1.353 . S
C2039 H2095 0.930 . S
C2040 N2041 1.314 . S
C2040 C2045 1.353 . S
C2040 H2046 0.930 . S
N2041 Li2024 1.990 . S
N2041 C2040 1.314 . S
N2041 C2043 1.279 . S
C2042 C2043 1.358 . S
C2042 C2044 1.356 . S
C2042 H2096 0.930 . S
C2043 N2041 1.279 . S
C2043 C2042 1.358 . S
C2043 H2047 0.930 . S
C2044 C2042 1.356 . S
C2044 C2045 1.348 . S
C2045 C2040 1.353 . S
C2045 C2044 1.348 . S
C2045 H2097 0.929 . S
H2046 C2040 0.930 . S
H2047 C2043 0.930 . S
C2048 N2049 1.314 . S
C2048 C2050 1.353 . S
C2048 H2054 0.930 . S
N2049 Li2025 1.990 . S
N2049 C2048 1.314 . S
N2049 C2052 1.279 . S
C2050 C2048 1.353 . S
C2050 C2053 1.348 . S
C2050 H2098 0.929 . S
C2051 C2052 1.358 . S
C2051 C2053 1.356 . S
C2051 H2099 0.930 . S
C2052 N2049 1.279 . S
C2052 C2051 1.358 . S
C2052 H2055 0.930 . S
C2053 C2050 1.348 . S
C2053 C2051 1.356 . S
H2054 C2048 0.930 . S
H2055 C2052 0.930 . S
C2056 C2058 1.348 . S
C2056 C2059 1.356 . S
C2056 O2086 1.325 . S
N2057 C2060 1.314 . S
N2057 C2061 1.279 . S
C2058 C2056 1.348 . S
C2058 C2060 1.353 . S
C2058 H2100 0.929 . S
C2059 C2056 1.356 . S
C2059 C2061 1.358 . S
C2059 H2101 0.930 . S
C2060 N2057 1.314 . S
C2060 C2058 1.353 . S
C2060 H2102 0.930 . S
C2061 N2057 1.279 . S
C2061 C2059 1.358 . S
C2061 H2103 0.930 . S
C2062 C2063 1.348 . S
C2062 C2064 1.356 . S
C2062 O2087 1.325 . S
C2063 C2062 1.348 . S
C2063 C2065 1.353 . S
C2063 H2104 0.929 . S
C2064 C2062 1.356 . S
C2064 C2066 1.358 . S
C2064 H2105 0.930 . S
C2065 C2063 1.353 . S
C2065 N2067 1.314 . S
C2065 H2106 0.930 . S
C2066 C2064 1.358 . S
C2066 N2067 1.279 . S
C2066 H2107 0.930 . S
N2067 C2065 1.314 . S
N2067 C2066 1.279 . S
C2068 C2070 1.353 . S
C2068 N2071 1.314 . S
C2068 H2074 0.930 . S
C2069 N2071 1.279 . S
C2069 C2072 1.358 . S
C2069 H2075 0.930 . S
C2070 C2068 1.353 . S
C2070 C2073 1.348 . S
C2070 H2108 0.929 . S
N2071 Li2026 1.990 . S
N2071 C2068 1.314 . S
N2071 C2069 1.279 . S
C2072 C2069 1.358 . S
C2072 C2073 1.356 . S
C2072 H2109 0.930 . S
C2073 C2070 1.348 . S
C2073 C2072 1.356 . S
H2074 C2068 0.930 . S
H2075 C2069 0.930 . S
C2076 N2077 1.314 . S
C2076 C2078 1.353 . S
C2076 H2082 0.930 . S
N2077 Li2027 1.990 . S
N2077 C2076 1.314 . S
N2077 C2080 1.279 . S
C2078 C2076 1.353 . S
C2078 C2081 1.348 . S
C2078 H2110 0.929 . S
C2079 C2080 1.358 . S
C2079 C2081 1.356 . S
C2079 H2111 0.930 . S
C2080 N2077 1.279 . S
C2080 C2079 1.358 . S
C2080 H2083 0.930 . S
C2081 C2078 1.348 . S
C2081 C2079 1.356 . S
H2082 C2076 0.930 . S
H2083 C2080 0.930 . S
O2084 Li2024 1.956 . S
O2084 Li2025 1.970 . S
O2084 Li2026 1.961 . S
O2084 C2028 1.325 . S
O2085 Li2024 1.970 . S
O2085 Li2025 1.956 . S
O2085 Li2027 1.961 . S
O2085 C2034 1.325 . S
O2086 Li2024 1.961 . S
O2086 Li2026 1.956 . S
O2086 Li2027 1.970 . S
O2086 C2056 1.325 . S
O2087 Li2025 1.961 . S
O2087 Li2026 1.970 . S
O2087 Li2027 1.956 . S
O2087 C2062 1.325 . S
H2088 C2030 0.929 . S
H2089 C2031 0.930 . S
H2090 C2032 0.930 . S
H2091 C2033 0.930 . S
H2092 C2035 0.930 . S
H2093 C2037 0.929 . S
H2094 C2038 0.930 . S
H2095 C2039 0.930 . S
H2096 C2042 0.930 . S
H2097 C2045 0.929 . S
H2098 C2050 0.929 . S
H2099 C2051 0.930 . S
H2100 C2058 0.929 . S
H2101 C2059 0.930 . S
H2102 C2060 0.930 . S
H2103 C2061 0.930 . S
H2104 C2063 0.929 . S
H2105 C2064 0.930 . S
H2106 C2065 0.930 . S
H2107 C2066 0.930 . S
H2108 C2070 0.929 . S
H2109 C2072 0.930 . S
H2110 C2078 0.929 . S
H2111 C2079 0.930 . S
Tb2112 N2143 2.660 1_546 S
Tb2112 N2150 2.600 1_545 S
Tb2112 O2156 2.546 1_455 S
Tb2112 O2157 2.610 1_556 S
Tb2112 O2159 2.320 1_556 S
Tb2112 O2160 2.552 . S
Tb2112 O2161 2.413 1_456 S
Tb2112 O2163 2.362 1_546 S
Tb2112 O2164 2.421 . S
Tb2112 C2176 2.833 1_455 S
C2113 C2116 1.432 . S
C2113 C2117 1.414 . S
C2113 N2120 1.359 . S
C2114 C2116 1.417 . S
C2114 C2118 1.432 . S
C2114 C2126 1.410 1_554 S
C2115 C2117 1.444 . S
C2115 C2118 1.317 . S
C2115 H2138 0.929 . S
C2116 C2113 1.432 . S
C2116 C2114 1.417 . S
C2116 N2124 1.360 . S
C2117 C2113 1.414 . S
C2117 C2115 1.444 . S
C2117 C2122 1.385 . S
C2118 C2114 1.432 . S
C2118 C2115 1.317 . S
C2118 H2130 0.930 . S
C2119 C2121 1.392 . S
C2119 C2122 1.370 . S
C2119 H2131 0.931 . S
N2120 C2113 1.359 . S
N2120 C2121 1.327 . S
N2120 Tb2123 2.600 . S
C2121 C2119 1.392 . S
C2121 N2120 1.327 . S
C2121 H2128 0.930 . S
C2122 C2117 1.385 . S
C2122 C2119 1.370 . S
C2122 H2141 0.930 . S
Tb2123 N2120 2.600 . S
Tb2123 N2124 2.660 . S
Tb2123 O2157 2.362 . S
Tb2123 O2158 2.421 . S
Tb2123 O2162 2.546 . S
Tb2123 O2163 2.610 1_545 S
Tb2123 O2165 2.320 1_554 S
Tb2123 O2166 2.552 1_545 S
Tb2123 O2167 2.413 . S
Tb2123 C2187 2.833 . S
N2124 C2116 1.360 . S
N2124 Tb2123 2.660 . S
N2124 C2125 1.305 1_554 S
C2125 N2124 1.305 1_556 S
C2125 C2127 1.407 . S
C2125 H2132 0.930 . S
C2126 C2114 1.410 1_556 S
C2126 C2127 1.345 . S
C2126 H2134 0.930 . S
C2127 C2125 1.407 . S
C2127 C2126 1.345 . S
C2127 H2129 0.930 . S
H2128 C2121 0.930 . S
H2129 C2127 0.930 . S
H2130 C2118 0.930 . S
H2131 C2119 0.931 . S
H2132 C2125 0.930 . S
H2133 C2147 0.930 . S
H2134 C2126 0.930 . S
H2135 C2153 0.930 . S
H2136 C2144 0.930 . S
H2137 C2151 0.931 . S
H2138 C2115 0.929 . S
H2139 C2145 0.930 . S
H2140 C2178 0.930 . S
H2141 C2122 0.930 . S
H2142 C2177 0.929 . S
N2143 Tb2112 2.660 1_564 S
N2143 C2144 1.305 . S
N2143 C2148 1.360 1_454 S
C2144 H2136 0.930 . S
C2144 N2143 1.305 . S
C2144 C2147 1.407 . S
C2145 H2139 0.930 . S
C2145 C2146 1.410 . S
C2145 C2147 1.345 1_655 S
C2146 C2145 1.410 . S
C2146 C2148 1.417 1_554 S
C2146 C2178 1.432 1_554 S
C2147 H2133 0.930 . S
C2147 C2144 1.407 . S
C2147 C2145 1.345 1_455 S
C2148 N2143 1.360 1_656 S
C2148 C2146 1.417 1_556 S
C2148 C2152 1.432 . S
H2149 C2154 0.930 . S
N2150 Tb2112 2.600 1_565 S
N2150 C2152 1.359 1_455 S
N2150 C2153 1.327 . S
C2151 H2137 0.931 . S
C2151 C2153 1.392 1_655 S
C2151 C2154 1.370 . S
C2152 C2148 1.432 . S
C2152 N2150 1.359 1_655 S
C2152 C2155 1.414 . S
C2153 H2135 0.930 . S
C2153 N2150 1.327 . S
C2153 C2151 1.392 1_455 S
C2154 H2149 0.930 . S
C2154 C2151 1.370 . S
C2154 C2155 1.385 . S
C2155 C2152 1.414 . S
C2155 C2154 1.385 . S
C2155 C2177 1.444 . S
O2156 Tb2112 2.546 1_655 S
O2156 C2176 1.251 . S
O2157 Tb2112 2.610 1_554 S
O2157 Tb2123 2.362 . S
O2157 C2168 1.283 . S
O2158 Tb2123 2.421 . S
O2158 C2175 1.262 . S
O2159 Tb2112 2.320 1_554 S
O2159 C2175 1.260 . S
O2160 Tb2112 2.552 . S
O2160 C2168 1.243 1_556 S
O2161 Tb2112 2.413 1_654 S
O2161 C2176 1.256 1_554 S
O2162 Tb2123 2.546 . S
O2162 C2187 1.251 . S
O2163 Tb2112 2.362 1_564 S
O2163 Tb2123 2.610 1_565 S
O2163 C2179 1.283 . S
O2164 Tb2112 2.421 . S
O2164 C2186 1.262 . S
O2165 Tb2123 2.320 1_556 S
O2165 C2186 1.260 . S
O2166 Tb2123 2.552 1_565 S
O2166 C2179 1.243 . S
O2167 Tb2123 2.413 . S
O2167 C2187 1.256 . S
C2168 O2157 1.283 . S
C2168 O2160 1.243 1_554 S
C2169 C2171 1.382 . S
C2169 C2173 1.393 . S
C2169 C2176 1.500 . S
C2170 C2171 1.400 . S
C2170 C2172 1.384 . S
C2171 C2169 1.382 . S
C2171 C2170 1.400 . S
C2171 H2188 0.930 1_556 S
C2172 C2170 1.384 . S
C2172 C2174 1.392 . S
C2172 H2189 0.931 . S
C2173 C2169 1.393 . S
C2173 C2174 1.401 . S
C2173 H2190 0.930 1_545 S
C2174 C2172 1.392 . S
C2174 C2173 1.401 . S
C2174 H2191 0.930 1_545 S
C2175 O2158 1.262 . S
C2175 O2159 1.260 . S
C2176 Tb2112 2.833 1_655 S
C2176 O2156 1.251 . S
C2176 O2161 1.256 1_556 S
C2176 C2169 1.500 . S
C2177 H2142 0.929 . S
C2177 C2155 1.444 . S
C2177 C2178 1.317 . S
C2178 H2140 0.930 . S
C2178 C2146 1.432 1_556 S
C2178 C2177 1.317 . S
C2179 O2163 1.283 . S
C2179 O2166 1.243 . S
C2180 C2181 1.382 . S
C2180 C2184 1.393 . S
C2180 C2187 1.500 . S
C2181 C2180 1.382 . S
C2181 C2182 1.400 . S
C2181 H2192 0.930 . S
C2182 C2181 1.400 . S
C2182 C2183 1.384 . S
C2183 C2182 1.384 . S
C2183 C2185 1.392 . S
C2183 H2193 0.931 . S
C2184 C2180 1.393 . S
C2184 C2185 1.401 . S
C2184 H2194 0.930 . S
C2185 C2183 1.392 . S
C2185 C2184 1.401 . S
C2185 H2195 0.930 . S
C2186 O2164 1.262 . S
C2186 O2165 1.260 . S
C2187 Tb2123 2.833 . S
C2187 O2162 1.251 . S
C2187 O2167 1.256 . S
C2187 C2180 1.500 . S
H2188 C2171 0.930 1_554 S
H2189 C2172 0.931 . S
H2190 C2173 0.930 1_565 S
H2191 C2174 0.930 1_565 S
H2192 C2181 0.930 . S
H2193 C2183 0.931 . S
H2194 C2184 0.930 . S
H2195 C2185 0.930 . S
Tb2196 N2227 2.660 . S
Tb2196 N2234 2.600 . S
Tb2196 O2240 2.546 . S
Tb2196 O2241 2.610 . S
Tb2196 O2243 2.320 . S
Tb2196 O2244 2.552 . S
Tb2196 O2245 2.413 . S
Tb2196 O2247 2.362 . S
Tb2196 O2248 2.421 . S
Tb2196 C2260 2.833 . S
C2197 C2200 1.432 . S
C2197 C2201 1.414 . S
C2197 N2204 1.359 . S
C2198 C2200 1.417 . S
C2198 C2202 1.432 . S
C2198 C2210 1.410 . S
C2199 C2201 1.444 . S
C2199 C2202 1.317 . S
C2199 H2222 0.929 . S
C2200 C2197 1.432 . S
C2200 C2198 1.417 . S
C2200 N2208 1.360 . S
C2201 C2197 1.414 . S
C2201 C2199 1.444 . S
C2201 C2206 1.385 . S
C2202 C2198 1.432 . S
C2202 C2199 1.317 . S
C2202 H2214 0.930 . S
C2203 C2205 1.392 . S
C2203 C2206 1.370 . S
C2203 H2215 0.931 . S
N2204 C2197 1.359 . S
N2204 C2205 1.327 . S
N2204 Tb2207 2.600 . S
C2205 C2203 1.392 . S
C2205 N2204 1.327 . S
C2205 H2212 0.930 . S
C2206 C2201 1.385 . S
C2206 C2203 1.370 . S
C2206 H2225 0.930 . S
Tb2207 N2204 2.600 . S
Tb2207 N2208 2.660 . S
Tb2207 O2241 2.362 . S
Tb2207 O2242 2.421 . S
Tb2207 O2246 2.546 . S
Tb2207 O2247 2.610 . S
Tb2207 O2249 2.320 . S
Tb2207 O2250 2.552 . S
Tb2207 O2251 2.413 . S
Tb2207 C2271 2.833 . S
N2208 C2200 1.360 . S
N2208 Tb2207 2.660 . S
N2208 C2209 1.305 . S
C2209 N2208 1.305 . S
C2209 C2211 1.407 . S
C2209 H2216 0.930 . S
C2210 C2198 1.410 . S
C2210 C2211 1.345 . S
C2210 H2218 0.930 . S
C2211 C2209 1.407 . S
C2211 C2210 1.345 . S
C2211 H2213 0.930 . S
H2212 C2205 0.930 . S
H2213 C2211 0.930 . S
H2214 C2202 0.930 . S
H2215 C2203 0.931 . S
H2216 C2209 0.930 . S
H2217 C2231 0.930 . S
H2218 C2210 0.930 . S
H2219 C2237 0.930 . S
H2220 C2228 0.930 . S
H2221 C2235 0.931 . S
H2222 C2199 0.929 . S
H2223 C2229 0.930 . S
H2224 C2262 0.930 . S
H2225 C2206 0.930 . S
H2226 C2261 0.929 . S
N2227 Tb2196 2.660 . S
N2227 C2228 1.305 . S
N2227 C2232 1.360 . S
C2228 H2220 0.930 . S
C2228 N2227 1.305 . S
C2228 C2231 1.407 . S
C2229 H2223 0.930 . S
C2229 C2230 1.410 . S
C2229 C2231 1.345 . S
C2230 C2229 1.410 . S
C2230 C2232 1.417 . S
C2230 C2262 1.432 . S
C2231 H2217 0.930 . S
C2231 C2228 1.407 . S
C2231 C2229 1.345 . S
C2232 N2227 1.360 . S
C2232 C2230 1.417 . S
C2232 C2236 1.432 . S
H2233 C2238 0.930 . S
N2234 Tb2196 2.600 . S
N2234 C2236 1.359 . S
N2234 C2237 1.327 . S
C2235 H2221 0.931 . S
C2235 C2237 1.392 . S
C2235 C2238 1.370 . S
C2236 C2232 1.432 . S
C2236 N2234 1.359 . S
C2236 C2239 1.414 . S
C2237 H2219 0.930 . S
C2237 N2234 1.327 . S
C2237 C2235 1.392 . S
C2238 H2233 0.930 . S
C2238 C2235 1.370 . S
C2238 C2239 1.385 . S
C2239 C2236 1.414 . S
C2239 C2238 1.385 . S
C2239 C2261 1.444 . S
O2240 Tb2196 2.546 . S
O2240 C2260 1.251 . S
O2241 Tb2196 2.610 . S
O2241 Tb2207 2.362 . S
O2241 C2252 1.283 . S
O2242 Tb2207 2.421 . S
O2242 C2259 1.262 . S
O2243 Tb2196 2.320 . S
O2243 C2259 1.260 . S
O2244 Tb2196 2.552 . S
O2244 C2252 1.243 . S
O2245 Tb2196 2.413 . S
O2245 C2260 1.256 . S
O2246 Tb2207 2.546 . S
O2246 C2271 1.251 . S
O2247 Tb2196 2.362 . S
O2247 Tb2207 2.610 . S
O2247 C2263 1.283 . S
O2248 Tb2196 2.421 . S
O2248 C2270 1.262 . S
O2249 Tb2207 2.320 . S
O2249 C2270 1.260 . S
O2250 Tb2207 2.552 . S
O2250 C2263 1.243 . S
O2251 Tb2207 2.413 . S
O2251 C2271 1.256 . S
C2252 O2241 1.283 . S
C2252 O2244 1.243 . S
C2253 C2255 1.382 . S
C2253 C2257 1.393 . S
C2253 C2260 1.500 . S
C2254 C2255 1.400 . S
C2254 C2256 1.384 . S
C2255 C2253 1.382 . S
C2255 C2254 1.400 . S
C2255 H2272 0.930 . S
C2256 C2254 1.384 . S
C2256 C2258 1.392 . S
C2256 H2273 0.931 . S
C2257 C2253 1.393 . S
C2257 C2258 1.401 . S
C2257 H2274 0.930 . S
C2258 C2256 1.392 . S
C2258 C2257 1.401 . S
C2258 H2275 0.930 . S
C2259 O2242 1.262 . S
C2259 O2243 1.260 . S
C2260 Tb2196 2.833 . S
C2260 O2240 1.251 . S
C2260 O2245 1.256 . S
C2260 C2253 1.500 . S
C2261 H2226 0.929 . S
C2261 C2239 1.444 . S
C2261 C2262 1.317 . S
C2262 H2224 0.930 . S
C2262 C2230 1.432 . S
C2262 C2261 1.317 . S
C2263 O2247 1.283 . S
C2263 O2250 1.243 . S
C2264 C2265 1.382 . S
C2264 C2268 1.393 . S
C2264 C2271 1.500 . S
C2265 C2264 1.382 . S
C2265 C2266 1.400 . S
C2265 H2276 0.930 . S
C2266 C2265 1.400 . S
C2266 C2267 1.384 . S
C2267 C2266 1.384 . S
C2267 C2269 1.392 . S
C2267 H2277 0.931 . S
C2268 C2264 1.393 . S
C2268 C2269 1.401 . S
C2268 H2278 0.930 . S
C2269 C2267 1.392 . S
C2269 C2268 1.401 . S
C2269 H2279 0.930 . S
C2270 O2248 1.262 . S
C2270 O2249 1.260 . S
C2271 Tb2207 2.833 . S
C2271 O2246 1.251 . S
C2271 O2251 1.256 . S
C2271 C2264 1.500 . S
H2272 C2255 0.930 . S
H2273 C2256 0.931 . S
H2274 C2257 0.930 . S
H2275 C2258 0.930 . S
H2276 C2265 0.930 . S
H2277 C2267 0.931 . S
H2278 C2268 0.930 . S
H2279 C2269 0.930 . S
Tb2280 N2311 2.660 . S
Tb2280 N2318 2.600 . S
Tb2280 O2324 2.546 . S
Tb2280 O2325 2.610 1_545 S
Tb2280 O2327 2.320 . S
Tb2280 O2328 2.552 1_545 S
Tb2280 O2329 2.413 . S
Tb2280 O2331 2.362 . S
Tb2280 O2332 2.421 . S
Tb2280 C2344 2.833 . S
C2281 C2284 1.432 . S
C2281 C2285 1.414 . S
C2281 N2288 1.360 . S
C2282 C2284 1.417 . S
C2282 C2286 1.432 . S
C2282 C2294 1.410 . S
C2283 C2285 1.444 . S
C2283 C2286 1.317 . S
C2283 H2306 0.929 . S
C2284 C2281 1.432 . S
C2284 C2282 1.417 . S
C2284 N2292 1.360 . S
C2285 C2281 1.414 . S
C2285 C2283 1.444 . S
C2285 C2290 1.385 . S
C2286 C2282 1.432 . S
C2286 C2283 1.317 . S
C2286 H2298 0.930 . S
C2287 C2289 1.392 1_565 S
C2287 C2290 1.370 . S
C2287 H2299 0.931 1_565 S
N2288 C2281 1.360 . S
N2288 C2289 1.327 1_565 S
N2288 Tb2291 2.599 1_565 S
C2289 C2287 1.392 1_545 S
C2289 N2288 1.327 1_545 S
C2289 H2296 0.930 . S
C2290 C2285 1.385 . S
C2290 C2287 1.370 . S
C2290 H2309 0.930 . S
Tb2291 N2288 2.599 1_545 S
Tb2291 N2292 2.660 1_545 S
Tb2291 O2325 2.362 1_545 S
Tb2291 O2326 2.421 . S
Tb2291 O2330 2.546 . S
Tb2291 O2331 2.610 . S
Tb2291 O2333 2.320 . S
Tb2291 O2334 2.552 . S
Tb2291 O2335 2.413 . S
Tb2291 C2355 2.833 . S
N2292 C2284 1.360 . S
N2292 Tb2291 2.660 1_565 S
N2292 C2293 1.305 . S
C2293 N2292 1.305 . S
C2293 C2295 1.407 . S
C2293 H2300 0.930 . S
C2294 C2282 1.410 . S
C2294 C2295 1.345 . S
C2294 H2302 0.930 . S
C2295 C2293 1.407 . S
C2295 C2294 1.345 . S
C2295 H2297 0.930 . S
H2296 C2289 0.930 . S
H2297 C2295 0.930 . S
H2298 C2286 0.930 . S
H2299 C2287 0.931 1_545 S
H2300 C2293 0.930 . S
H2301 C2315 0.930 . S
H2302 C2294 0.930 . S
H2303 C2321 0.930 . S
H2304 C2312 0.930 . S
H2305 C2319 0.931 . S
H2306 C2283 0.929 . S
H2307 C2313 0.930 . S
H2308 C2346 0.930 . S
H2309 C2290 0.930 . S
H2310 C2345 0.929 . S
N2311 Tb2280 2.660 . S
N2311 C2312 1.305 . S
N2311 C2316 1.360 . S
C2312 H2304 0.930 . S
C2312 N2311 1.305 . S
C2312 C2315 1.407 . S
C2313 H2307 0.930 . S
C2313 C2314 1.410 . S
C2313 C2315 1.345 . S
C2314 C2313 1.410 . S
C2314 C2316 1.417 . S
C2314 C2346 1.432 . S
C2315 H2301 0.930 . S
C2315 C2312 1.407 . S
C2315 C2313 1.345 . S
C2316 N2311 1.360 . S
C2316 C2314 1.417 . S
C2316 C2320 1.432 . S
H2317 C2322 0.930 . S
N2318 Tb2280 2.600 . S
N2318 C2320 1.359 . S
N2318 C2321 1.327 . S
C2319 H2305 0.931 . S
C2319 C2321 1.392 . S
C2319 C2322 1.370 . S
C2320 C2316 1.432 . S
C2320 N2318 1.359 . S
C2320 C2323 1.414 . S
C2321 H2303 0.930 . S
C2321 N2318 1.327 . S
C2321 C2319 1.392 . S
C2322 H2317 0.930 . S
C2322 C2319 1.370 . S
C2322 C2323 1.385 . S
C2323 C2320 1.414 . S
C2323 C2322 1.385 . S
C2323 C2345 1.444 . S
O2324 Tb2280 2.546 . S
O2324 C2344 1.251 . S
O2325 Tb2280 2.610 1_565 S
O2325 Tb2291 2.362 1_565 S
O2325 C2336 1.283 . S
O2326 Tb2291 2.421 . S
O2326 C2343 1.262 . S
O2327 Tb2280 2.320 . S
O2327 C2343 1.260 . S
O2328 Tb2280 2.552 1_565 S
O2328 C2336 1.243 . S
O2329 Tb2280 2.413 . S
O2329 C2344 1.256 . S
O2330 Tb2291 2.546 . S
O2330 C2355 1.251 . S
O2331 Tb2280 2.362 . S
O2331 Tb2291 2.610 . S
O2331 C2347 1.283 . S
O2332 Tb2280 2.421 . S
O2332 C2354 1.262 . S
O2333 Tb2291 2.320 . S
O2333 C2354 1.260 . S
O2334 Tb2291 2.552 . S
O2334 C2347 1.243 . S
O2335 Tb2291 2.413 . S
O2335 C2355 1.256 . S
C2336 O2325 1.283 . S
C2336 O2328 1.243 . S
C2337 C2339 1.382 . S
C2337 C2341 1.393 . S
C2337 C2344 1.500 1_565 S
C2338 C2339 1.400 . S
C2338 C2340 1.384 . S
C2339 C2337 1.382 . S
C2339 C2338 1.400 . S
C2339 H2356 0.930 . S
C2340 C2338 1.384 . S
C2340 C2342 1.392 . S
C2340 H2357 0.931 . S
C2341 C2337 1.393 . S
C2341 C2342 1.401 . S
C2341 H2358 0.930 . S
C2342 C2340 1.392 . S
C2342 C2341 1.401 . S
C2342 H2359 0.930 . S
C2343 O2326 1.262 . S
C2343 O2327 1.260 . S
C2344 Tb2280 2.833 . S
C2344 O2324 1.251 . S
C2344 O2329 1.256 . S
C2344 C2337 1.500 1_545 S
C2345 H2310 0.929 . S
C2345 C2323 1.444 . S
C2345 C2346 1.317 . S
C2346 H2308 0.930 . S
C2346 C2314 1.432 . S
C2346 C2345 1.317 . S
C2347 O2331 1.283 . S
C2347 O2334 1.243 . S
C2348 C2349 1.382 . S
C2348 C2352 1.393 . S
C2348 C2355 1.500 . S
C2349 C2348 1.382 . S
C2349 C2350 1.400 . S
C2349 H2360 0.930 . S
C2350 C2349 1.400 . S
C2350 C2351 1.384 . S
C2351 C2350 1.384 . S
C2351 C2353 1.392 . S
C2351 H2361 0.931 . S
C2352 C2348 1.393 . S
C2352 C2353 1.401 . S
C2352 H2362 0.930 . S
C2353 C2351 1.392 . S
C2353 C2352 1.401 . S
C2353 H2363 0.930 . S
C2354 O2332 1.262 . S
C2354 O2333 1.260 . S
C2355 Tb2291 2.833 . S
C2355 O2330 1.251 . S
C2355 O2335 1.256 . S
C2355 C2348 1.500 . S
H2356 C2339 0.930 . S
H2357 C2340 0.931 . S
H2358 C2341 0.930 . S
H2359 C2342 0.930 . S
H2360 C2349 0.930 . S
H2361 C2351 0.931 . S
H2362 C2352 0.930 . S
H2363 C2353 0.930 . S
Tb2364 N2395 2.660 . S
Tb2364 N2402 2.600 . S
Tb2364 O2408 2.546 . S
Tb2364 O2409 2.610 . S
Tb2364 O2411 2.320 . S
Tb2364 O2412 2.552 . S
Tb2364 O2413 2.413 . S
Tb2364 O2415 2.362 . S
Tb2364 O2416 2.421 . S
Tb2364 C2428 2.833 . S
C2365 C2368 1.432 . S
C2365 C2369 1.414 . S
C2365 N2372 1.359 . S
C2366 C2368 1.417 . S
C2366 C2370 1.432 . S
C2366 C2378 1.410 . S
C2367 C2369 1.444 . S
C2367 C2370 1.317 . S
C2367 H2390 0.929 . S
C2368 C2365 1.432 . S
C2368 C2366 1.417 . S
C2368 N2376 1.360 . S
C2369 C2365 1.414 . S
C2369 C2367 1.444 . S
C2369 C2374 1.385 . S
C2370 C2366 1.432 . S
C2370 C2367 1.317 . S
C2370 H2382 0.930 . S
C2371 C2373 1.392 . S
C2371 C2374 1.370 . S
C2371 H2383 0.931 . S
N2372 C2365 1.359 . S
N2372 C2373 1.327 . S
N2372 Tb2375 2.600 . S
C2373 C2371 1.392 . S
C2373 N2372 1.327 . S
C2373 H2380 0.930 . S
C2374 C2369 1.385 . S
C2374 C2371 1.370 . S
C2374 H2393 0.930 . S
Tb2375 N2372 2.600 . S
Tb2375 N2376 2.660 . S
Tb2375 O2409 2.362 . S
Tb2375 O2410 2.421 . S
Tb2375 O2414 2.546 . S
Tb2375 O2415 2.610 . S
Tb2375 O2417 2.320 . S
Tb2375 O2418 2.552 . S
Tb2375 O2419 2.413 . S
Tb2375 C2439 2.833 . S
N2376 C2368 1.360 . S
N2376 Tb2375 2.660 . S
N2376 C2377 1.305 . S
C2377 N2376 1.305 . S
C2377 C2379 1.407 . S
C2377 H2384 0.930 . S
C2378 C2366 1.410 . S
C2378 C2379 1.345 . S
C2378 H2386 0.930 . S
C2379 C2377 1.407 . S
C2379 C2378 1.345 . S
C2379 H2381 0.930 . S
H2380 C2373 0.930 . S
H2381 C2379 0.930 . S
H2382 C2370 0.930 . S
H2383 C2371 0.931 . S
H2384 C2377 0.930 . S
H2385 C2399 0.930 . S
H2386 C2378 0.930 . S
H2387 C2405 0.930 . S
H2388 C2396 0.930 . S
H2389 C2403 0.931 . S
H2390 C2367 0.929 . S
H2391 C2397 0.930 . S
H2392 C2430 0.930 . S
H2393 C2374 0.930 . S
H2394 C2429 0.929 . S
N2395 Tb2364 2.660 . S
N2395 C2396 1.305 . S
N2395 C2400 1.360 . S
C2396 H2388 0.930 . S
C2396 N2395 1.305 . S
C2396 C2399 1.407 . S
C2397 H2391 0.930 . S
C2397 C2398 1.410 . S
C2397 C2399 1.345 . S
C2398 C2397 1.410 . S
C2398 C2400 1.417 . S
C2398 C2430 1.432 . S
C2399 H2385 0.930 . S
C2399 C2396 1.407 . S
C2399 C2397 1.345 . S
C2400 N2395 1.360 . S
C2400 C2398 1.417 . S
C2400 C2404 1.432 . S
H2401 C2406 0.930 . S
N2402 Tb2364 2.600 . S
N2402 C2404 1.359 . S
N2402 C2405 1.327 . S
C2403 H2389 0.931 . S
C2403 C2405 1.392 . S
C2403 C2406 1.370 . S
C2404 C2400 1.432 . S
C2404 N2402 1.359 . S
C2404 C2407 1.414 . S
C2405 H2387 0.930 . S
C2405 N2402 1.327 . S
C2405 C2403 1.392 . S
C2406 H2401 0.930 . S
C2406 C2403 1.370 . S
C2406 C2407 1.385 . S
C2407 C2404 1.414 . S
C2407 C2406 1.385 . S
C2407 C2429 1.444 . S
O2408 Tb2364 2.546 . S
O2408 C2428 1.251 . S
O2409 Tb2364 2.610 . S
O2409 Tb2375 2.362 . S
O2409 C2420 1.283 . S
O2410 Tb2375 2.421 . S
O2410 C2427 1.262 . S
O2411 Tb2364 2.320 . S
O2411 C2427 1.260 . S
O2412 Tb2364 2.552 . S
O2412 C2420 1.243 . S
O2413 Tb2364 2.413 . S
O2413 C2428 1.256 . S
O2414 Tb2375 2.546 . S
O2414 C2439 1.251 . S
O2415 Tb2364 2.362 . S
O2415 Tb2375 2.610 . S
O2415 C2431 1.283 . S
O2416 Tb2364 2.421 . S
O2416 C2438 1.262 . S
O2417 Tb2375 2.320 . S
O2417 C2438 1.260 . S
O2418 Tb2375 2.552 . S
O2418 C2431 1.243 . S
O2419 Tb2375 2.413 . S
O2419 C2439 1.256 . S
C2420 O2409 1.283 . S
C2420 O2412 1.243 . S
C2421 C2423 1.382 . S
C2421 C2425 1.393 . S
C2421 C2428 1.500 . S
C2422 C2423 1.400 . S
C2422 C2424 1.384 . S
C2423 C2421 1.382 . S
C2423 C2422 1.400 . S
C2423 H2440 0.930 . S
C2424 C2422 1.384 . S
C2424 C2426 1.392 . S
C2424 H2441 0.931 . S
C2425 C2421 1.393 . S
C2425 C2426 1.401 . S
C2425 H2442 0.930 . S
C2426 C2424 1.392 . S
C2426 C2425 1.401 . S
C2426 H2443 0.930 . S
C2427 O2410 1.262 . S
C2427 O2411 1.260 . S
C2428 Tb2364 2.833 . S
C2428 O2408 1.251 . S
C2428 O2413 1.256 . S
C2428 C2421 1.500 . S
C2429 H2394 0.929 . S
C2429 C2407 1.444 . S
C2429 C2430 1.317 . S
C2430 H2392 0.930 . S
C2430 C2398 1.432 . S
C2430 C2429 1.317 . S
C2431 O2415 1.283 . S
C2431 O2418 1.243 . S
C2432 C2433 1.382 . S
C2432 C2436 1.393 . S
C2432 C2439 1.500 . S
C2433 C2432 1.382 . S
C2433 C2434 1.400 . S
C2433 H2444 0.930 . S
C2434 C2433 1.400 . S
C2434 C2435 1.384 . S
C2435 C2434 1.384 . S
C2435 C2437 1.392 . S
C2435 H2445 0.931 . S
C2436 C2432 1.393 . S
C2436 C2437 1.401 . S
C2436 H2446 0.930 . S
C2437 C2435 1.392 . S
C2437 C2436 1.401 . S
C2437 H2447 0.930 . S
C2438 O2416 1.262 . S
C2438 O2417 1.260 . S
C2439 Tb2375 2.833 . S
C2439 O2414 1.251 . S
C2439 O2419 1.256 . S
C2439 C2432 1.500 . S
H2440 C2423 0.930 . S
H2441 C2424 0.931 . S
H2442 C2425 0.930 . S
H2443 C2426 0.930 . S
H2444 C2433 0.930 . S
H2445 C2435 0.931 . S
H2446 C2436 0.930 . S
H2447 C2437 0.930 . S
Tb2448 N2479 2.660 . S
Tb2448 N2486 2.600 . S
Tb2448 O2492 2.546 . S
Tb2448 O2493 2.610 . S
Tb2448 O2495 2.320 . S
Tb2448 O2496 2.552 . S
Tb2448 O2497 2.413 . S
Tb2448 O2499 2.362 . S
Tb2448 O2500 2.421 . S
Tb2448 C2512 2.833 . S
C2449 C2452 1.432 . S
C2449 C2453 1.414 . S
C2449 N2456 1.359 . S
C2450 C2452 1.417 . S
C2450 C2454 1.432 . S
C2450 C2462 1.410 . S
C2451 C2453 1.444 . S
C2451 C2454 1.317 . S
C2451 H2474 0.929 . S
C2452 C2449 1.432 . S
C2452 C2450 1.417 . S
C2452 N2460 1.360 . S
C2453 C2449 1.414 . S
C2453 C2451 1.444 . S
C2453 C2458 1.385 . S
C2454 C2450 1.432 . S
C2454 C2451 1.317 . S
C2454 H2466 0.930 . S
C2455 C2457 1.392 . S
C2455 C2458 1.370 . S
C2455 H2467 0.931 . S
N2456 C2449 1.359 . S
N2456 C2457 1.327 . S
N2456 Tb2459 2.600 . S
C2457 C2455 1.392 . S
C2457 N2456 1.327 . S
C2457 H2464 0.930 . S
C2458 C2453 1.385 . S
C2458 C2455 1.370 . S
C2458 H2477 0.930 . S
Tb2459 N2456 2.600 . S
Tb2459 N2460 2.660 . S
Tb2459 O2493 2.362 1_565 S
Tb2459 O2494 2.421 1_565 S
Tb2459 O2498 2.546 . S
Tb2459 O2499 2.610 1_565 S
Tb2459 O2501 2.320 . S
Tb2459 O2502 2.552 . S
Tb2459 O2503 2.413 . S
Tb2459 C2523 2.833 . S
N2460 C2452 1.360 . S
N2460 Tb2459 2.660 . S
N2460 C2461 1.305 . S
C2461 N2460 1.305 . S
C2461 C2463 1.407 1_455 S
C2461 H2468 0.930 . S
C2462 C2450 1.410 . S
C2462 C2463 1.345 1_455 S
C2462 H2470 0.930 1_455 S
C2463 C2461 1.407 1_655 S
C2463 C2462 1.345 1_655 S
C2463 H2465 0.930 . S
H2464 C2457 0.930 . S
H2465 C2463 0.930 . S
H2466 C2454 0.930 . S
H2467 C2455 0.931 . S
H2468 C2461 0.930 . S
H2469 C2483 0.930 . S
H2470 C2462 0.930 1_655 S
H2471 C2489 0.930 . S
H2472 C2480 0.930 . S
H2473 C2487 0.931 1_655 S
H2474 C2451 0.929 . S
H2475 C2481 0.930 . S
H2476 C2514 0.930 . S
H2477 C2458 0.930 . S
H2478 C2513 0.929 . S
N2479 Tb2448 2.660 . S
N2479 C2480 1.305 . S
N2479 C2484 1.360 . S
C2480 H2472 0.930 . S
C2480 N2479 1.305 . S
C2480 C2483 1.407 . S
C2481 H2475 0.930 . S
C2481 C2482 1.410 . S
C2481 C2483 1.345 . S
C2482 C2481 1.410 . S
C2482 C2484 1.417 . S
C2482 C2514 1.432 . S
C2483 H2469 0.930 . S
C2483 C2480 1.407 . S
C2483 C2481 1.345 . S
C2484 N2479 1.360 . S
C2484 C2482 1.417 . S
C2484 C2488 1.432 . S
H2485 C2490 0.930 . S
N2486 Tb2448 2.600 . S
N2486 C2488 1.359 . S
N2486 C2489 1.327 . S
C2487 H2473 0.931 1_455 S
C2487 C2489 1.392 . S
C2487 C2490 1.370 . S
C2488 C2484 1.432 . S
C2488 N2486 1.359 . S
C2488 C2491 1.414 . S
C2489 H2471 0.930 . S
C2489 N2486 1.327 . S
C2489 C2487 1.392 . S
C2490 H2485 0.930 . S
C2490 C2487 1.370 . S
C2490 C2491 1.385 . S
C2491 C2488 1.414 . S
C2491 C2490 1.385 . S
C2491 C2513 1.444 . S
O2492 Tb2448 2.546 . S
O2492 C2512 1.251 . S
O2493 Tb2448 2.610 . S
O2493 Tb2459 2.362 1_545 S
O2493 C2504 1.283 . S
O2494 Tb2459 2.421 1_545 S
O2494 C2511 1.262 . S
O2495 Tb2448 2.320 . S
O2495 C2511 1.260 . S
O2496 Tb2448 2.552 . S
O2496 C2504 1.243 . S
O2497 Tb2448 2.413 . S
O2497 C2512 1.256 . S
O2498 Tb2459 2.546 . S
O2498 C2523 1.251 . S
O2499 Tb2448 2.362 . S
O2499 Tb2459 2.610 1_545 S
O2499 C2515 1.283 . S
O2500 Tb2448 2.421 . S
O2500 C2522 1.262 . S
O2501 Tb2459 2.320 . S
O2501 C2522 1.260 1_565 S
O2502 Tb2459 2.552 . S
O2502 C2515 1.243 1_565 S
O2503 Tb2459 2.413 . S
O2503 C2523 1.256 . S
C2504 O2493 1.283 . S
C2504 O2496 1.243 . S
C2505 C2507 1.382 . S
C2505 C2509 1.393 . S
C2505 C2512 1.500 . S
C2506 C2507 1.400 . S
C2506 C2508 1.384 . S
C2507 C2505 1.382 . S
C2507 C2506 1.400 . S
C2507 H2524 0.930 . S
C2508 C2506 1.384 . S
C2508 C2510 1.392 . S
C2508 H2525 0.931 . S
C2509 C2505 1.393 . S
C2509 C2510 1.401 . S
C2509 H2526 0.930 . S
C2510 C2508 1.392 . S
C2510 C2509 1.401 . S
C2510 H2527 0.930 . S
C2511 O2494 1.262 . S
C2511 O2495 1.260 . S
C2512 Tb2448 2.833 . S
C2512 O2492 1.251 . S
C2512 O2497 1.256 . S
C2512 C2505 1.500 . S
C2513 H2478 0.929 . S
C2513 C2491 1.444 . S
C2513 C2514 1.317 . S
C2514 H2476 0.930 . S
C2514 C2482 1.432 . S
C2514 C2513 1.317 . S
C2515 O2499 1.283 . S
C2515 O2502 1.243 1_545 S
C2516 C2517 1.382 . S
C2516 C2520 1.393 . S
C2516 C2523 1.500 . S
C2517 C2516 1.382 . S
C2517 C2518 1.400 . S
C2517 H2528 0.930 . S
C2518 C2517 1.400 . S
C2518 C2519 1.384 . S
C2519 C2518 1.384 . S
C2519 C2521 1.392 . S
C2519 H2529 0.931 . S
C2520 C2516 1.393 . S
C2520 C2521 1.401 . S
C2520 H2530 0.930 . S
C2521 C2519 1.392 . S
C2521 C2520 1.401 . S
C2521 H2531 0.930 . S
C2522 O2500 1.262 . S
C2522 O2501 1.260 1_545 S
C2523 Tb2459 2.833 . S
C2523 O2498 1.251 . S
C2523 O2503 1.256 . S
C2523 C2516 1.500 . S
H2524 C2507 0.930 . S
H2525 C2508 0.931 . S
H2526 C2509 0.930 . S
H2527 C2510 0.930 . S
H2528 C2517 0.930 . S
H2529 C2519 0.931 . S
H2530 C2520 0.930 . S
H2531 C2521 0.930 . S
Tb2532 N2563 2.660 . S
Tb2532 N2570 2.600 . S
Tb2532 O2576 2.546 . S
Tb2532 O2577 2.610 . S
Tb2532 O2579 2.320 . S
Tb2532 O2580 2.552 . S
Tb2532 O2581 2.413 . S
Tb2532 O2583 2.362 . S
Tb2532 O2584 2.421 . S
Tb2532 C2596 2.833 . S
C2533 C2536 1.432 . S
C2533 C2537 1.414 . S
C2533 N2540 1.359 . S
C2534 C2536 1.417 . S
C2534 C2538 1.432 . S
C2534 C2546 1.410 . S
C2535 C2537 1.444 . S
C2535 C2538 1.317 . S
C2535 H2558 0.929 . S
C2536 C2533 1.432 . S
C2536 C2534 1.417 . S
C2536 N2544 1.360 . S
C2537 C2533 1.414 . S
C2537 C2535 1.444 . S
C2537 C2542 1.385 . S
C2538 C2534 1.432 . S
C2538 C2535 1.317 . S
C2538 H2550 0.930 . S
C2539 C2541 1.392 . S
C2539 C2542 1.370 . S
C2539 H2551 0.931 . S
N2540 C2533 1.359 . S
N2540 C2541 1.327 . S
N2540 Tb2543 2.600 . S
C2541 C2539 1.392 . S
C2541 N2540 1.327 . S
C2541 H2548 0.930 . S
C2542 C2537 1.385 . S
C2542 C2539 1.370 . S
C2542 H2561 0.930 . S
Tb2543 N2540 2.600 . S
Tb2543 N2544 2.660 . S
Tb2543 O2577 2.362 . S
Tb2543 O2578 2.421 . S
Tb2543 O2582 2.546 . S
Tb2543 O2583 2.610 . S
Tb2543 O2585 2.320 . S
Tb2543 O2586 2.552 . S
Tb2543 O2587 2.413 . S
Tb2543 C2607 2.833 . S
N2544 C2536 1.360 . S
N2544 Tb2543 2.660 . S
N2544 C2545 1.305 . S
C2545 N2544 1.305 . S
C2545 C2547 1.407 . S
C2545 H2552 0.930 . S
C2546 C2534 1.410 . S
C2546 C2547 1.345 . S
C2546 H2554 0.930 . S
C2547 C2545 1.407 . S
C2547 C2546 1.345 . S
C2547 H2549 0.930 . S
H2548 C2541 0.930 . S
H2549 C2547 0.930 . S
H2550 C2538 0.930 . S
H2551 C2539 0.931 . S
H2552 C2545 0.930 . S
H2553 C2567 0.930 . S
H2554 C2546 0.930 . S
H2555 C2573 0.930 . S
H2556 C2564 0.930 . S
H2557 C2571 0.931 . S
H2558 C2535 0.929 . S
H2559 C2565 0.930 . S
H2560 C2598 0.930 . S
H2561 C2542 0.930 . S
H2562 C2597 0.929 . S
N2563 Tb2532 2.660 . S
N2563 C2564 1.305 . S
N2563 C2568 1.360 . S
C2564 H2556 0.930 . S
C2564 N2563 1.305 . S
C2564 C2567 1.407 . S
C2565 H2559 0.930 . S
C2565 C2566 1.410 . S
C2565 C2567 1.345 . S
C2566 C2565 1.410 . S
C2566 C2568 1.417 . S
C2566 C2598 1.432 . S
C2567 H2553 0.930 . S
C2567 C2564 1.407 . S
C2567 C2565 1.345 . S
C2568 N2563 1.360 . S
C2568 C2566 1.417 . S
C2568 C2572 1.432 . S
H2569 C2574 0.930 . S
N2570 Tb2532 2.600 . S
N2570 C2572 1.359 . S
N2570 C2573 1.327 . S
C2571 H2557 0.931 . S
C2571 C2573 1.392 . S
C2571 C2574 1.370 . S
C2572 C2568 1.432 . S
C2572 N2570 1.359 . S
C2572 C2575 1.414 . S
C2573 H2555 0.930 . S
C2573 N2570 1.327 . S
C2573 C2571 1.392 . S
C2574 H2569 0.930 . S
C2574 C2571 1.370 . S
C2574 C2575 1.385 . S
C2575 C2572 1.414 . S
C2575 C2574 1.385 . S
C2575 C2597 1.444 . S
O2576 Tb2532 2.546 . S
O2576 C2596 1.251 . S
O2577 Tb2532 2.610 . S
O2577 Tb2543 2.362 . S
O2577 C2588 1.283 . S
O2578 Tb2543 2.421 . S
O2578 C2595 1.262 . S
O2579 Tb2532 2.320 . S
O2579 C2595 1.260 . S
O2580 Tb2532 2.552 . S
O2580 C2588 1.243 . S
O2581 Tb2532 2.413 . S
O2581 C2596 1.256 . S
O2582 Tb2543 2.546 . S
O2582 C2607 1.251 . S
O2583 Tb2532 2.362 . S
O2583 Tb2543 2.610 . S
O2583 C2599 1.283 . S
O2584 Tb2532 2.421 . S
O2584 C2606 1.262 . S
O2585 Tb2543 2.320 . S
O2585 C2606 1.260 . S
O2586 Tb2543 2.552 . S
O2586 C2599 1.243 . S
O2587 Tb2543 2.413 . S
O2587 C2607 1.256 . S
C2588 O2577 1.283 . S
C2588 O2580 1.243 . S
C2589 C2591 1.382 . S
C2589 C2593 1.393 . S
C2589 C2596 1.500 . S
C2590 C2591 1.400 . S
C2590 C2592 1.384 . S
C2591 C2589 1.382 . S
C2591 C2590 1.400 . S
C2591 H2608 0.930 . S
C2592 C2590 1.384 . S
C2592 C2594 1.392 . S
C2592 H2609 0.931 . S
C2593 C2589 1.393 . S
C2593 C2594 1.401 . S
C2593 H2610 0.930 . S
C2594 C2592 1.392 . S
C2594 C2593 1.401 . S
C2594 H2611 0.930 . S
C2595 O2578 1.262 . S
C2595 O2579 1.260 . S
C2596 Tb2532 2.833 . S
C2596 O2576 1.251 . S
C2596 O2581 1.256 . S
C2596 C2589 1.500 . S
C2597 H2562 0.929 . S
C2597 C2575 1.444 . S
C2597 C2598 1.317 . S
C2598 H2560 0.930 . S
C2598 C2566 1.432 . S
C2598 C2597 1.317 . S
C2599 O2583 1.283 . S
C2599 O2586 1.243 . S
C2600 C2601 1.382 . S
C2600 C2604 1.393 . S
C2600 C2607 1.500 . S
C2601 C2600 1.382 . S
C2601 C2602 1.400 . S
C2601 H2612 0.930 . S
C2602 C2601 1.400 . S
C2602 C2603 1.384 . S
C2603 C2602 1.384 . S
C2603 C2605 1.392 . S
C2603 H2613 0.931 . S
C2604 C2600 1.393 . S
C2604 C2605 1.401 . S
C2604 H2614 0.930 . S
C2605 C2603 1.392 . S
C2605 C2604 1.401 . S
C2605 H2615 0.930 . S
C2606 O2584 1.262 . S
C2606 O2585 1.260 . S
C2607 Tb2543 2.833 . S
C2607 O2582 1.251 . S
C2607 O2587 1.256 . S
C2607 C2600 1.500 . S
H2608 C2591 0.930 . S
H2609 C2592 0.931 . S
H2610 C2593 0.930 . S
H2611 C2594 0.930 . S
H2612 C2601 0.930 . S
H2613 C2603 0.931 . S
H2614 C2604 0.930 . S
H2615 C2605 0.930 . S
Tb2616 N2647 2.660 . S
Tb2616 N2654 2.600 1_545 S
Tb2616 O2660 2.546 1_545 S
Tb2616 O2661 2.610 . S
Tb2616 O2663 2.320 . S
Tb2616 O2664 2.552 1_545 S
Tb2616 O2665 2.413 . S
Tb2616 O2667 2.362 . S
Tb2616 O2668 2.421 1_545 S
Tb2616 C2680 2.833 1_545 S
C2617 C2620 1.432 . S
C2617 C2621 1.414 . S
C2617 N2624 1.359 . S
C2618 C2620 1.417 1_565 S
C2618 C2622 1.432 1_565 S
C2618 C2630 1.410 . S
C2619 C2621 1.444 . S
C2619 C2622 1.317 . S
C2619 H2642 0.929 . S
C2620 C2617 1.432 . S
C2620 C2618 1.417 1_545 S
C2620 N2628 1.360 . S
C2621 C2617 1.414 . S
C2621 C2619 1.444 . S
C2621 C2626 1.385 . S
C2622 C2618 1.432 1_545 S
C2622 C2619 1.317 . S
C2622 H2634 0.930 1_545 S
C2623 C2625 1.392 . S
C2623 C2626 1.370 . S
C2623 H2635 0.931 . S
N2624 C2617 1.359 . S
N2624 C2625 1.327 . S
N2624 Tb2627 2.600 . S
C2625 C2623 1.392 . S
C2625 N2624 1.327 . S
C2625 H2632 0.930 . S
C2626 C2621 1.385 . S
C2626 C2623 1.370 . S
C2626 H2645 0.930 . S
Tb2627 N2624 2.600 . S
Tb2627 N2628 2.660 . S
Tb2627 O2661 2.362 1_556 S
Tb2627 O2662 2.421 1_556 S
Tb2627 O2666 2.546 . S
Tb2627 O2667 2.610 1_556 S
Tb2627 O2669 2.320 1_545 S
Tb2627 O2670 2.552 . S
Tb2627 O2671 2.413 . S
Tb2627 C2691 2.833 . S
N2628 C2620 1.360 . S
N2628 Tb2627 2.660 . S
N2628 C2629 1.305 1_545 S
C2629 N2628 1.305 1_565 S
C2629 C2631 1.407 . S
C2629 H2636 0.930 . S
C2630 C2618 1.410 . S
C2630 C2631 1.345 . S
C2630 H2638 0.930 . S
C2631 C2629 1.407 . S
C2631 C2630 1.345 . S
C2631 H2633 0.930 . S
H2632 C2625 0.930 . S
H2633 C2631 0.930 . S
H2634 C2622 0.930 1_565 S
H2635 C2623 0.931 . S
H2636 C2629 0.930 . S
H2637 C2651 0.930 . S
H2638 C2630 0.930 . S
H2639 C2657 0.930 . S
H2640 C2648 0.930 . S
H2641 C2655 0.931 . S
H2642 C2619 0.929 . S
H2643 C2649 0.930 . S
H2644 C2682 0.930 . S
H2645 C2626 0.930 . S
H2646 C2681 0.929 . S
N2647 Tb2616 2.660 . S
N2647 C2648 1.305 . S
N2647 C2652 1.360 . S
C2648 H2640 0.930 . S
C2648 N2647 1.305 . S
C2648 C2651 1.407 . S
C2649 H2643 0.930 . S
C2649 C2650 1.410 . S
C2649 C2651 1.345 . S
C2650 C2649 1.410 . S
C2650 C2652 1.417 . S
C2650 C2682 1.432 . S
C2651 H2637 0.930 . S
C2651 C2648 1.407 . S
C2651 C2649 1.345 . S
C2652 N2647 1.360 . S
C2652 C2650 1.417 . S
C2652 C2656 1.432 . S
H2653 C2658 0.930 . S
N2654 Tb2616 2.600 1_565 S
N2654 C2656 1.359 1_565 S
N2654 C2657 1.327 . S
C2655 H2641 0.931 . S
C2655 C2657 1.392 . S
C2655 C2658 1.370 . S
C2656 C2652 1.432 . S
C2656 N2654 1.359 1_545 S
C2656 C2659 1.414 . S
C2657 H2639 0.930 . S
C2657 N2654 1.327 . S
C2657 C2655 1.392 . S
C2658 H2653 0.930 . S
C2658 C2655 1.370 . S
C2658 C2659 1.385 1_565 S
C2659 C2656 1.414 . S
C2659 C2658 1.385 1_545 S
C2659 C2681 1.444 . S
O2660 Tb2616 2.546 1_565 S
O2660 C2680 1.251 . S
O2661 Tb2616 2.610 . S
O2661 Tb2627 2.362 1_554 S
O2661 C2672 1.283 . S
O2662 Tb2627 2.421 1_554 S
O2662 C2679 1.262 . S
O2663 Tb2616 2.320 . S
O2663 C2679 1.260 . S
O2664 Tb2616 2.552 1_565 S
O2664 C2672 1.243 1_565 S
O2665 Tb2616 2.413 . S
O2665 C2680 1.256 1_545 S
O2666 Tb2627 2.546 . S
O2666 C2691 1.251 . S
O2667 Tb2616 2.362 . S
O2667 Tb2627 2.610 1_554 S
O2667 C2683 1.283 . S
O2668 Tb2616 2.421 1_565 S
O2668 C2690 1.262 1_554 S
O2669 Tb2627 2.320 1_565 S
O2669 C2690 1.260 . S
O2670 Tb2627 2.552 . S
O2670 C2683 1.243 1_556 S
O2671 Tb2627 2.413 . S
O2671 C2691 1.256 . S
C2672 O2661 1.283 . S
C2672 O2664 1.243 1_545 S
C2673 C2675 1.382 1_565 S
C2673 C2677 1.393 . S
C2673 C2680 1.500 . S
C2674 C2675 1.400 1_565 S
C2674 C2676 1.384 . S
C2675 C2673 1.382 1_545 S
C2675 C2674 1.400 1_545 S
C2675 H2692 0.930 . S
C2676 C2674 1.384 . S
C2676 C2678 1.392 . S
C2676 H2693 0.931 . S
C2677 C2673 1.393 . S
C2677 C2678 1.401 . S
C2677 H2694 0.930 . S
C2678 C2676 1.392 . S
C2678 C2677 1.401 . S
C2678 H2695 0.930 . S
C2679 O2662 1.262 . S
C2679 O2663 1.260 . S
C2680 Tb2616 2.833 1_565 S
C2680 O2660 1.251 . S
C2680 O2665 1.256 1_565 S
C2680 C2673 1.500 . S
C2681 H2646 0.929 . S
C2681 C2659 1.444 . S
C2681 C2682 1.317 . S
C2682 H2644 0.930 . S
C2682 C2650 1.432 . S
C2682 C2681 1.317 . S
C2683 O2667 1.283 . S
C2683 O2670 1.243 1_554 S
C2684 C2685 1.382 . S
C2684 C2688 1.393 . S
C2684 C2691 1.500 . S
C2685 C2684 1.382 . S
C2685 C2686 1.400 . S
C2685 H2696 0.930 . S
C2686 C2685 1.400 . S
C2686 C2687 1.384 . S
C2687 C2686 1.384 . S
C2687 C2689 1.392 . S
C2687 H2697 0.931 . S
C2688 C2684 1.393 . S
C2688 C2689 1.401 . S
C2688 H2698 0.930 . S
C2689 C2687 1.392 . S
C2689 C2688 1.401 . S
C2689 H2699 0.930 . S
C2690 O2668 1.262 1_556 S
C2690 O2669 1.260 . S
C2691 Tb2627 2.833 . S
C2691 O2666 1.251 . S
C2691 O2671 1.256 . S
C2691 C2684 1.500 . S
H2692 C2675 0.930 . S
H2693 C2676 0.931 . S
H2694 C2677 0.930 . S
H2695 C2678 0.930 . S
H2696 C2685 0.930 . S
H2697 C2687 0.931 . S
H2698 C2688 0.930 . S
H2699 C2689 0.930 . S
Tb2700 N2731 2.660 . S
Tb2700 N2738 2.600 . S
Tb2700 O2744 2.546 . S
Tb2700 O2745 2.610 . S
Tb2700 O2747 2.320 . S
Tb2700 O2748 2.552 . S
Tb2700 O2749 2.413 . S
Tb2700 O2751 2.362 . S
Tb2700 O2752 2.421 . S
Tb2700 C2764 2.833 . S
C2701 C2704 1.432 . S
C2701 C2705 1.414 . S
C2701 N2708 1.359 . S
C2702 C2704 1.417 . S
C2702 C2706 1.432 . S
C2702 C2714 1.410 . S
C2703 C2705 1.444 . S
C2703 C2706 1.317 . S
C2703 H2726 0.929 . S
C2704 C2701 1.432 . S
C2704 C2702 1.417 . S
C2704 N2712 1.360 . S
C2705 C2701 1.414 . S
C2705 C2703 1.444 . S
C2705 C2710 1.385 . S
C2706 C2702 1.432 . S
C2706 C2703 1.317 . S
C2706 H2718 0.930 . S
C2707 C2709 1.392 . S
C2707 C2710 1.370 . S
C2707 H2719 0.931 . S
N2708 C2701 1.359 . S
N2708 C2709 1.327 . S
N2708 Tb2711 2.600 . S
C2709 C2707 1.392 . S
C2709 N2708 1.327 . S
C2709 H2716 0.930 . S
C2710 C2705 1.385 . S
C2710 C2707 1.370 . S
C2710 H2729 0.930 . S
Tb2711 N2708 2.600 . S
Tb2711 N2712 2.660 . S
Tb2711 O2745 2.362 . S
Tb2711 O2746 2.421 . S
Tb2711 O2750 2.546 . S
Tb2711 O2751 2.610 . S
Tb2711 O2753 2.320 . S
Tb2711 O2754 2.552 . S
Tb2711 O2755 2.413 . S
Tb2711 C2775 2.833 . S
N2712 C2704 1.360 . S
N2712 Tb2711 2.660 . S
N2712 C2713 1.305 . S
C2713 N2712 1.305 . S
C2713 C2715 1.407 . S
C2713 H2720 0.930 . S
C2714 C2702 1.410 . S
C2714 C2715 1.345 . S
C2714 H2722 0.930 . S
C2715 C2713 1.407 . S
C2715 C2714 1.345 . S
C2715 H2717 0.930 . S
H2716 C2709 0.930 . S
H2717 C2715 0.930 . S
H2718 C2706 0.930 . S
H2719 C2707 0.931 . S
H2720 C2713 0.930 . S
H2721 C2735 0.930 . S
H2722 C2714 0.930 . S
H2723 C2741 0.930 . S
H2724 C2732 0.930 . S
H2725 C2739 0.931 . S
H2726 C2703 0.929 . S
H2727 C2733 0.930 . S
H2728 C2766 0.930 . S
H2729 C2710 0.930 . S
H2730 C2765 0.929 . S
N2731 Tb2700 2.660 . S
N2731 C2732 1.305 . S
N2731 C2736 1.360 . S
C2732 H2724 0.930 . S
C2732 N2731 1.305 . S
C2732 C2735 1.407 . S
C2733 H2727 0.930 . S
C2733 C2734 1.410 . S
C2733 C2735 1.345 . S
C2734 C2733 1.410 . S
C2734 C2736 1.417 . S
C2734 C2766 1.432 . S
C2735 H2721 0.930 . S
C2735 C2732 1.407 . S
C2735 C2733 1.345 . S
C2736 N2731 1.360 . S
C2736 C2734 1.417 . S
C2736 C2740 1.432 . S
H2737 C2742 0.930 . S
N2738 Tb2700 2.600 . S
N2738 C2740 1.359 . S
N2738 C2741 1.327 . S
C2739 H2725 0.931 . S
C2739 C2741 1.392 . S
C2739 C2742 1.370 . S
C2740 C2736 1.432 . S
C2740 N2738 1.359 . S
C2740 C2743 1.414 . S
C2741 H2723 0.930 . S
C2741 N2738 1.327 . S
C2741 C2739 1.392 . S
C2742 H2737 0.930 . S
C2742 C2739 1.370 . S
C2742 C2743 1.385 . S
C2743 C2740 1.414 . S
C2743 C2742 1.385 . S
C2743 C2765 1.444 . S
O2744 Tb2700 2.546 . S
O2744 C2764 1.251 . S
O2745 Tb2700 2.610 . S
O2745 Tb2711 2.362 . S
O2745 C2756 1.283 . S
O2746 Tb2711 2.421 . S
O2746 C2763 1.262 . S
O2747 Tb2700 2.320 . S
O2747 C2763 1.260 . S
O2748 Tb2700 2.552 . S
O2748 C2756 1.243 . S
O2749 Tb2700 2.413 . S
O2749 C2764 1.256 . S
O2750 Tb2711 2.546 . S
O2750 C2775 1.251 . S
O2751 Tb2700 2.362 . S
O2751 Tb2711 2.610 . S
O2751 C2767 1.283 . S
O2752 Tb2700 2.421 . S
O2752 C2774 1.262 . S
O2753 Tb2711 2.320 . S
O2753 C2774 1.260 . S
O2754 Tb2711 2.552 . S
O2754 C2767 1.243 . S
O2755 Tb2711 2.413 . S
O2755 C2775 1.256 . S
C2756 O2745 1.283 . S
C2756 O2748 1.243 . S
C2757 C2759 1.382 . S
C2757 C2761 1.393 . S
C2757 C2764 1.500 . S
C2758 C2759 1.400 . S
C2758 C2760 1.384 . S
C2759 C2757 1.382 . S
C2759 C2758 1.400 . S
C2759 H2776 0.930 . S
C2760 C2758 1.384 . S
C2760 C2762 1.392 . S
C2760 H2777 0.931 . S
C2761 C2757 1.393 . S
C2761 C2762 1.401 . S
C2761 H2778 0.930 . S
C2762 C2760 1.392 . S
C2762 C2761 1.401 . S
C2762 H2779 0.930 . S
C2763 O2746 1.262 . S
C2763 O2747 1.260 . S
C2764 Tb2700 2.833 . S
C2764 O2744 1.251 . S
C2764 O2749 1.256 . S
C2764 C2757 1.500 . S
C2765 H2730 0.929 . S
C2765 C2743 1.444 . S
C2765 C2766 1.317 . S
C2766 H2728 0.930 . S
C2766 C2734 1.432 . S
C2766 C2765 1.317 . S
C2767 O2751 1.283 . S
C2767 O2754 1.243 . S
C2768 C2769 1.382 . S
C2768 C2772 1.393 . S
C2768 C2775 1.500 . S
C2769 C2768 1.382 . S
C2769 C2770 1.400 . S
C2769 H2780 0.930 . S
C2770 C2769 1.400 . S
C2770 C2771 1.384 . S
C2771 C2770 1.384 . S
C2771 C2773 1.392 . S
C2771 H2781 0.931 . S
C2772 C2768 1.393 . S
C2772 C2773 1.401 . S
C2772 H2782 0.930 . S
C2773 C2771 1.392 . S
C2773 C2772 1.401 . S
C2773 H2783 0.930 . S
C2774 O2752 1.262 . S
C2774 O2753 1.260 . S
C2775 Tb2711 2.833 . S
C2775 O2750 1.251 . S
C2775 O2755 1.256 . S
C2775 C2768 1.500 . S
H2776 C2759 0.930 . S
H2777 C2760 0.931 . S
H2778 C2761 0.930 . S
H2779 C2762 0.930 . S
H2780 C2769 0.930 . S
H2781 C2771 0.931 . S
H2782 C2772 0.930 . S
H2783 C2773 0.930 . S
Tb2784 N2815 2.660 . S
Tb2784 N2822 2.600 . S
Tb2784 O2828 2.546 . S
Tb2784 O2829 2.610 1_554 S
Tb2784 O2831 2.320 . S
Tb2784 O2832 2.552 1_554 S
Tb2784 O2833 2.413 . S
Tb2784 O2835 2.362 . S
Tb2784 O2836 2.421 . S
Tb2784 C2848 2.833 . S
C2785 C2788 1.432 . S
C2785 C2789 1.414 . S
C2785 N2792 1.359 . S
C2786 C2788 1.417 . S
C2786 C2790 1.432 . S
C2786 C2798 1.410 . S
C2787 C2789 1.444 . S
C2787 C2790 1.317 . S
C2787 H2810 0.929 . S
C2788 C2785 1.432 . S
C2788 C2786 1.417 . S
C2788 N2796 1.360 . S
C2789 C2785 1.414 . S
C2789 C2787 1.444 . S
C2789 C2794 1.385 . S
C2790 C2786 1.432 . S
C2790 C2787 1.317 . S
C2790 H2802 0.930 . S
C2791 C2793 1.392 . S
C2791 C2794 1.370 . S
C2791 H2803 0.931 . S
N2792 C2785 1.359 . S
N2792 C2793 1.327 . S
N2792 Tb2795 2.600 1_556 S
C2793 C2791 1.392 . S
C2793 N2792 1.327 . S
C2793 H2800 0.930 . S
C2794 C2789 1.385 . S
C2794 C2791 1.370 . S
C2794 H2813 0.930 . S
Tb2795 N2792 2.600 1_554 S
Tb2795 N2796 2.660 1_554 S
Tb2795 O2829 2.362 1_554 S
Tb2795 O2830 2.421 . S
Tb2795 O2834 2.546 . S
Tb2795 O2835 2.610 . S
Tb2795 O2837 2.320 . S
Tb2795 O2838 2.552 . S
Tb2795 O2839 2.413 . S
Tb2795 C2859 2.833 . S
N2796 C2788 1.360 . S
N2796 Tb2795 2.660 1_556 S
N2796 C2797 1.305 . S
C2797 N2796 1.305 . S
C2797 C2799 1.407 . S
C2797 H2804 0.930 . S
C2798 C2786 1.410 . S
C2798 C2799 1.345 . S
C2798 H2806 0.930 . S
C2799 C2797 1.407 . S
C2799 C2798 1.345 . S
C2799 H2801 0.930 . S
H2800 C2793 0.930 . S
H2801 C2799 0.930 . S
H2802 C2790 0.930 . S
H2803 C2791 0.931 . S
H2804 C2797 0.930 . S
H2805 C2819 0.930 . S
H2806 C2798 0.930 . S
H2807 C2825 0.930 . S
H2808 C2816 0.930 . S
H2809 C2823 0.931 . S
H2810 C2787 0.929 . S
H2811 C2817 0.930 . S
H2812 C2850 0.930 . S
H2813 C2794 0.930 . S
H2814 C2849 0.929 . S
N2815 Tb2784 2.660 . S
N2815 C2816 1.305 . S
N2815 C2820 1.360 . S
C2816 H2808 0.930 . S
C2816 N2815 1.305 . S
C2816 C2819 1.407 . S
C2817 H2811 0.930 . S
C2817 C2818 1.410 . S
C2817 C2819 1.345 . S
C2818 C2817 1.410 . S
C2818 C2820 1.417 . S
C2818 C2850 1.432 . S
C2819 H2805 0.930 . S
C2819 C2816 1.407 . S
C2819 C2817 1.345 . S
C2820 N2815 1.360 . S
C2820 C2818 1.417 . S
C2820 C2824 1.432 . S
H2821 C2826 0.930 . S
N2822 Tb2784 2.600 . S
N2822 C2824 1.359 . S
N2822 C2825 1.327 . S
C2823 H2809 0.931 . S
C2823 C2825 1.392 . S
C2823 C2826 1.370 . S
C2824 C2820 1.432 . S
C2824 N2822 1.359 . S
C2824 C2827 1.414 . S
C2825 H2807 0.930 . S
C2825 N2822 1.327 . S
C2825 C2823 1.392 . S
C2826 H2821 0.930 . S
C2826 C2823 1.370 . S
C2826 C2827 1.385 . S
C2827 C2824 1.414 . S
C2827 C2826 1.385 . S
C2827 C2849 1.444 . S
O2828 Tb2784 2.546 . S
O2828 C2848 1.251 . S
O2829 Tb2784 2.610 1_556 S
O2829 Tb2795 2.362 1_556 S
O2829 C2840 1.283 . S
O2830 Tb2795 2.421 . S
O2830 C2847 1.262 . S
O2831 Tb2784 2.320 . S
O2831 C2847 1.260 . S
O2832 Tb2784 2.552 1_556 S
O2832 C2840 1.243 . S
O2833 Tb2784 2.413 . S
O2833 C2848 1.256 . S
O2834 Tb2795 2.546 . S
O2834 C2859 1.251 . S
O2835 Tb2784 2.362 . S
O2835 Tb2795 2.610 . S
O2835 C2851 1.283 . S
O2836 Tb2784 2.421 . S
O2836 C2858 1.262 . S
O2837 Tb2795 2.320 . S
O2837 C2858 1.260 . S
O2838 Tb2795 2.552 . S
O2838 C2851 1.243 . S
O2839 Tb2795 2.413 . S
O2839 C2859 1.256 . S
C2840 O2829 1.283 . S
C2840 O2832 1.243 . S
C2841 C2843 1.382 . S
C2841 C2845 1.393 . S
C2841 C2848 1.500 . S
C2842 C2843 1.400 1_556 S
C2842 C2844 1.384 1_556 S
C2843 C2841 1.382 . S
C2843 C2842 1.400 1_554 S
C2843 H2860 0.930 1_554 S
C2844 C2842 1.384 1_554 S
C2844 C2846 1.392 . S
C2844 H2861 0.931 . S
C2845 C2841 1.393 . S
C2845 C2846 1.401 . S
C2845 H2862 0.930 . S
C2846 C2844 1.392 . S
C2846 C2845 1.401 . S
C2846 H2863 0.930 . S
C2847 O2830 1.262 . S
C2847 O2831 1.260 . S
C2848 Tb2784 2.833 . S
C2848 O2828 1.251 . S
C2848 O2833 1.256 . S
C2848 C2841 1.500 . S
C2849 H2814 0.929 . S
C2849 C2827 1.444 . S
C2849 C2850 1.317 . S
C2850 H2812 0.930 . S
C2850 C2818 1.432 . S
C2850 C2849 1.317 . S
C2851 O2835 1.283 . S
C2851 O2838 1.243 . S
C2852 C2853 1.382 . S
C2852 C2856 1.393 . S
C2852 C2859 1.500 . S
C2853 C2852 1.382 . S
C2853 C2854 1.400 . S
C2853 H2864 0.930 . S
C2854 C2853 1.400 . S
C2854 C2855 1.384 . S
C2855 C2854 1.384 . S
C2855 C2857 1.392 . S
C2855 H2865 0.931 . S
C2856 C2852 1.393 . S
C2856 C2857 1.401 . S
C2856 H2866 0.930 1_554 S
C2857 C2855 1.392 . S
C2857 C2856 1.401 . S
C2857 H2867 0.930 . S
C2858 O2836 1.262 . S
C2858 O2837 1.260 . S
C2859 Tb2795 2.833 . S
C2859 O2834 1.251 . S
C2859 O2839 1.256 . S
C2859 C2852 1.500 . S
H2860 C2843 0.930 1_556 S
H2861 C2844 0.931 . S
H2862 C2845 0.930 . S
H2863 C2846 0.930 . S
H2864 C2853 0.930 . S
H2865 C2855 0.931 . S
H2866 C2856 0.930 1_556 S
H2867 C2857 0.930 . S
Tb2868 N2899 2.660 . S
Tb2868 N2906 2.600 . S
Tb2868 O2912 2.546 . S
Tb2868 O2913 2.610 . S
Tb2868 O2915 2.320 . S
Tb2868 O2916 2.552 . S
Tb2868 O2917 2.413 . S
Tb2868 O2919 2.362 . S
Tb2868 O2920 2.421 . S
Tb2868 C2932 2.833 . S
C2869 C2872 1.432 . S
C2869 C2873 1.414 . S
C2869 N2876 1.359 . S
C2870 C2872 1.417 . S
C2870 C2874 1.432 . S
C2870 C2882 1.410 . S
C2871 C2873 1.444 . S
C2871 C2874 1.317 . S
C2871 H2894 0.929 . S
C2872 C2869 1.432 . S
C2872 C2870 1.417 . S
C2872 N2880 1.360 . S
C2873 C2869 1.414 . S
C2873 C2871 1.444 . S
C2873 C2878 1.385 . S
C2874 C2870 1.432 . S
C2874 C2871 1.317 . S
C2874 H2886 0.930 . S
C2875 C2877 1.392 . S
C2875 C2878 1.370 . S
C2875 H2887 0.931 . S
N2876 C2869 1.359 . S
N2876 C2877 1.327 . S
N2876 Tb2879 2.600 . S
C2877 C2875 1.392 . S
C2877 N2876 1.327 . S
C2877 H2884 0.930 . S
C2878 C2873 1.385 . S
C2878 C2875 1.370 . S
C2878 H2897 0.930 . S
Tb2879 N2876 2.600 . S
Tb2879 N2880 2.660 . S
Tb2879 O2913 2.362 . S
Tb2879 O2914 2.421 . S
Tb2879 O2918 2.546 . S
Tb2879 O2919 2.610 . S
Tb2879 O2921 2.320 . S
Tb2879 O2922 2.552 . S
Tb2879 O2923 2.413 . S
Tb2879 C2943 2.833 . S
N2880 C2872 1.360 . S
N2880 Tb2879 2.660 . S
N2880 C2881 1.305 . S
C2881 N2880 1.305 . S
C2881 C2883 1.407 . S
C2881 H2888 0.930 . S
C2882 C2870 1.410 . S
C2882 C2883 1.345 . S
C2882 H2890 0.930 . S
C2883 C2881 1.407 . S
C2883 C2882 1.345 . S
C2883 H2885 0.930 . S
H2884 C2877 0.930 . S
H2885 C2883 0.930 . S
H2886 C2874 0.930 . S
H2887 C2875 0.931 . S
H2888 C2881 0.930 . S
H2889 C2903 0.930 . S
H2890 C2882 0.930 . S
H2891 C2909 0.930 . S
H2892 C2900 0.930 . S
H2893 C2907 0.931 . S
H2894 C2871 0.929 . S
H2895 C2901 0.930 . S
H2896 C2934 0.930 . S
H2897 C2878 0.930 . S
H2898 C2933 0.929 . S
N2899 Tb2868 2.660 . S
N2899 C2900 1.305 . S
N2899 C2904 1.360 . S
C2900 H2892 0.930 . S
C2900 N2899 1.305 . S
C2900 C2903 1.407 . S
C2901 H2895 0.930 . S
C2901 C2902 1.410 . S
C2901 C2903 1.345 . S
C2902 C2901 1.410 . S
C2902 C2904 1.417 . S
C2902 C2934 1.432 . S
C2903 H2889 0.930 . S
C2903 C2900 1.407 . S
C2903 C2901 1.345 . S
C2904 N2899 1.360 . S
C2904 C2902 1.417 . S
C2904 C2908 1.432 . S
H2905 C2910 0.930 . S
N2906 Tb2868 2.600 . S
N2906 C2908 1.359 . S
N2906 C2909 1.327 . S
C2907 H2893 0.931 . S
C2907 C2909 1.392 . S
C2907 C2910 1.370 . S
C2908 C2904 1.432 . S
C2908 N2906 1.359 . S
C2908 C2911 1.414 . S
C2909 H2891 0.930 . S
C2909 N2906 1.327 . S
C2909 C2907 1.392 . S
C2910 H2905 0.930 . S
C2910 C2907 1.370 . S
C2910 C2911 1.385 . S
C2911 C2908 1.414 . S
C2911 C2910 1.385 . S
C2911 C2933 1.444 . S
O2912 Tb2868 2.546 . S
O2912 C2932 1.251 . S
O2913 Tb2868 2.610 . S
O2913 Tb2879 2.362 . S
O2913 C2924 1.283 . S
O2914 Tb2879 2.421 . S
O2914 C2931 1.262 . S
O2915 Tb2868 2.320 . S
O2915 C2931 1.260 . S
O2916 Tb2868 2.552 . S
O2916 C2924 1.243 . S
O2917 Tb2868 2.413 . S
O2917 C2932 1.256 . S
O2918 Tb2879 2.546 . S
O2918 C2943 1.251 . S
O2919 Tb2868 2.362 . S
O2919 Tb2879 2.610 . S
O2919 C2935 1.283 . S
O2920 Tb2868 2.421 . S
O2920 C2942 1.262 . S
O2921 Tb2879 2.320 . S
O2921 C2942 1.260 . S
O2922 Tb2879 2.552 . S
O2922 C2935 1.243 . S
O2923 Tb2879 2.413 . S
O2923 C2943 1.256 . S
C2924 O2913 1.283 . S
C2924 O2916 1.243 . S
C2925 C2927 1.382 . S
C2925 C2929 1.393 . S
C2925 C2932 1.500 . S
C2926 C2927 1.400 1_455 S
C2926 C2928 1.384 . S
C2927 C2925 1.382 . S
C2927 C2926 1.400 1_655 S
C2927 H2944 0.930 . S
C2928 C2926 1.384 . S
C2928 C2930 1.392 . S
C2928 H2945 0.931 . S
C2929 C2925 1.393 . S
C2929 C2930 1.401 1_655 S
C2929 H2946 0.930 . S
C2930 C2928 1.392 . S
C2930 C2929 1.401 1_455 S
C2930 H2947 0.930 . S
C2931 O2914 1.262 . S
C2931 O2915 1.260 . S
C2932 Tb2868 2.833 . S
C2932 O2912 1.251 . S
C2932 O2917 1.256 . S
C2932 C2925 1.500 . S
C2933 H2898 0.929 . S
C2933 C2911 1.444 . S
C2933 C2934 1.317 . S
C2934 H2896 0.930 . S
C2934 C2902 1.432 . S
C2934 C2933 1.317 . S
C2935 O2919 1.283 . S
C2935 O2922 1.243 . S
C2936 C2937 1.382 . S
C2936 C2940 1.393 . S
C2936 C2943 1.500 . S
C2937 C2936 1.382 . S
C2937 C2938 1.400 . S
C2937 H2948 0.930 . S
C2938 C2937 1.400 . S
C2938 C2939 1.384 . S
C2939 C2938 1.384 . S
C2939 C2941 1.392 . S
C2939 H2949 0.931 . S
C2940 C2936 1.393 . S
C2940 C2941 1.401 . S
C2940 H2950 0.930 . S
C2941 C2939 1.392 . S
C2941 C2940 1.401 . S
C2941 H2951 0.930 . S
C2942 O2920 1.262 . S
C2942 O2921 1.260 . S
C2943 Tb2879 2.833 . S
C2943 O2918 1.251 . S
C2943 O2923 1.256 . S
C2943 C2936 1.500 . S
H2944 C2927 0.930 . S
H2945 C2928 0.931 . S
H2946 C2929 0.930 . S
H2947 C2930 0.930 . S
H2948 C2937 0.930 . S
H2949 C2939 0.931 . S
H2950 C2940 0.930 . S
H2951 C2941 0.930 . S
Tb2952 N2983 2.660 . S
Tb2952 N2990 2.600 . S
Tb2952 O2996 2.546 . S
Tb2952 O2997 2.610 . S
Tb2952 O2999 2.320 . S
Tb2952 O3000 2.552 . S
Tb2952 O3001 2.413 . S
Tb2952 O3003 2.362 . S
Tb2952 O3004 2.421 . S
Tb2952 C3016 2.833 . S
C2953 C2956 1.425 . S
C2953 C2957 1.414 1_455 S
C2953 N2960 1.359 . S
C2954 C2956 1.395 1_655 S
C2954 C2958 1.432 . S
C2954 C2966 1.410 . S
C2955 C2957 1.444 . S
C2955 C2958 1.317 . S
C2955 H2978 0.929 . S
C2956 C2953 1.425 . S
C2956 C2954 1.395 1_455 S
C2956 N2964 1.389 . S
C2957 C2953 1.414 1_655 S
C2957 C2955 1.444 . S
C2957 C2962 1.385 . S
C2958 C2954 1.432 . S
C2958 C2955 1.317 . S
C2958 H2970 0.930 . S
C2959 C2961 1.392 . S
C2959 C2962 1.370 1_455 S
C2959 H2971 0.931 . S
N2960 C2953 1.359 . S
N2960 C2961 1.327 . S
N2960 Tb2963 2.600 . S
C2961 C2959 1.392 . S
C2961 N2960 1.327 . S
C2961 H2968 0.930 . S
C2962 C2957 1.385 . S
C2962 C2959 1.370 1_655 S
C2962 H2981 0.930 . S
Tb2963 N2960 2.600 . S
Tb2963 N2964 2.660 . S
Tb2963 O2997 2.362 . S
Tb2963 O2998 2.421 . S
Tb2963 O3002 2.546 . S
Tb2963 O3003 2.610 . S
Tb2963 O3005 2.320 . S
Tb2963 O3006 2.552 . S
Tb2963 O3007 2.413 . S
Tb2963 C3027 2.833 . S
N2964 C2956 1.389 . S
N2964 Tb2963 2.660 . S
N2964 C2965 1.305 . S
C2965 N2964 1.305 . S
C2965 C2967 1.407 1_455 S
C2965 H2972 0.930 . S
C2966 C2954 1.410 . S
C2966 C2967 1.345 . S
C2966 H2974 0.930 . S
C2967 C2965 1.407 1_655 S
C2967 C2966 1.345 . S
C2967 H2969 0.930 . S
H2968 C2961 0.930 . S
H2969 C2967 0.930 . S
H2970 C2958 0.930 . S
H2971 C2959 0.931 . S
H2972 C2965 0.930 . S
H2973 C2987 0.930 . S
H2974 C2966 0.930 . S
H2975 C2993 0.930 . S
H2976 C2984 0.930 . S
H2977 C2991 0.931 . S
H2978 C2955 0.929 . S
H2979 C2985 0.930 . S
H2980 C3018 0.930 . S
H2981 C2962 0.930 . S
H2982 C3017 0.929 . S
N2983 Tb2952 2.660 . S
N2983 C2984 1.305 . S
N2983 C2988 1.360 . S
C2984 H2976 0.930 . S
C2984 N2983 1.305 . S
C2984 C2987 1.407 . S
C2985 H2979 0.930 . S
C2985 C2986 1.410 . S
C2985 C2987 1.345 . S
C2986 C2985 1.410 . S
C2986 C2988 1.417 . S
C2986 C3018 1.432 . S
C2987 H2973 0.930 . S
C2987 C2984 1.407 . S
C2987 C2985 1.345 . S
C2988 N2983 1.360 . S
C2988 C2986 1.417 . S
C2988 C2992 1.432 . S
H2989 C2994 0.930 . S
N2990 Tb2952 2.600 . S
N2990 C2992 1.359 . S
N2990 C2993 1.327 . S
C2991 H2977 0.931 . S
C2991 C2993 1.392 . S
C2991 C2994 1.370 . S
C2992 C2988 1.432 . S
C2992 N2990 1.359 . S
C2992 C2995 1.414 . S
C2993 H2975 0.930 . S
C2993 N2990 1.327 . S
C2993 C2991 1.392 . S
C2994 H2989 0.930 . S
C2994 C2991 1.370 . S
C2994 C2995 1.385 . S
C2995 C2992 1.414 . S
C2995 C2994 1.385 . S
C2995 C3017 1.444 . S
O2996 Tb2952 2.546 . S
O2996 C3016 1.251 . S
O2997 Tb2952 2.610 . S
O2997 Tb2963 2.362 . S
O2997 C3008 1.283 . S
O2998 Tb2963 2.421 . S
O2998 C3015 1.262 . S
O2999 Tb2952 2.320 . S
O2999 C3015 1.260 . S
O3000 Tb2952 2.552 . S
O3000 C3008 1.243 . S
O3001 Tb2952 2.413 . S
O3001 C3016 1.256 . S
O3002 Tb2963 2.546 . S
O3002 C3027 1.251 . S
O3003 Tb2952 2.362 . S
O3003 Tb2963 2.610 . S
O3003 C3019 1.283 . S
O3004 Tb2952 2.421 . S
O3004 C3026 1.262 . S
O3005 Tb2963 2.320 . S
O3005 C3026 1.260 . S
O3006 Tb2963 2.552 . S
O3006 C3019 1.243 . S
O3007 Tb2963 2.413 . S
O3007 C3027 1.256 . S
C3008 O2997 1.283 . S
C3008 O3000 1.243 . S
C3009 C3011 1.382 . S
C3009 C3013 1.393 . S
C3009 C3016 1.500 . S
C3010 C3011 1.400 . S
C3010 C3012 1.384 . S
C3011 C3009 1.382 . S
C3011 C3010 1.400 . S
C3011 H3028 0.930 . S
C3012 C3010 1.384 . S
C3012 C3014 1.392 . S
C3012 H3029 0.921 1_455 S
C3013 C3009 1.393 . S
C3013 C3014 1.401 . S
C3013 H3030 0.930 . S
C3014 C3012 1.392 . S
C3014 C3013 1.401 . S
C3014 H3031 0.930 . S
C3015 O2998 1.262 . S
C3015 O2999 1.260 . S
C3016 Tb2952 2.833 . S
C3016 O2996 1.251 . S
C3016 O3001 1.256 . S
C3016 C3009 1.500 . S
C3017 H2982 0.929 . S
C3017 C2995 1.444 . S
C3017 C3018 1.317 . S
C3018 H2980 0.930 . S
C3018 C2986 1.432 . S
C3018 C3017 1.317 . S
C3019 O3003 1.283 . S
C3019 O3006 1.243 . S
C3020 C3021 1.382 . S
C3020 C3024 1.393 . S
C3020 C3027 1.500 . S
C3021 C3020 1.382 . S
C3021 C3022 1.400 . S
C3021 H3032 0.930 . S
C3022 C3021 1.400 . S
C3022 C3023 1.384 . S
C3023 C3022 1.384 . S
C3023 C3025 1.392 . S
C3023 H3033 0.931 . S
C3024 C3020 1.393 . S
C3024 C3025 1.401 . S
C3024 H3034 0.930 . S
C3025 C3023 1.392 . S
C3025 C3024 1.401 . S
C3025 H3035 0.930 . S
C3026 O3004 1.262 . S
C3026 O3005 1.260 . S
C3027 Tb2963 2.833 . S
C3027 O3002 1.251 . S
C3027 O3007 1.256 . S
C3027 C3020 1.500 . S
H3028 C3011 0.930 . S
H3029 C3012 0.921 1_655 S
H3030 C3013 0.930 . S
H3031 C3014 0.930 . S
H3032 C3021 0.930 . S
H3033 C3023 0.931 . S
H3034 C3024 0.930 . S
H3035 C3025 0.930 . S
Tb3036 N3067 2.660 . S
Tb3036 N3074 2.600 . S
Tb3036 O3080 2.546 . S
Tb3036 O3081 2.610 . S
Tb3036 O3083 2.320 . S
Tb3036 O3084 2.552 . S
Tb3036 O3085 2.413 . S
Tb3036 O3087 2.362 . S
Tb3036 O3088 2.421 . S
Tb3036 C3100 2.833 . S
C3037 C3040 1.432 . S
C3037 C3041 1.414 . S
C3037 N3044 1.359 . S
C3038 C3040 1.417 . S
C3038 C3042 1.432 . S
C3038 C3050 1.410 . S
C3039 C3041 1.444 . S
C3039 C3042 1.317 . S
C3039 H3062 0.929 . S
C3040 C3037 1.432 . S
C3040 C3038 1.417 . S
C3040 N3048 1.360 . S
C3041 C3037 1.414 . S
C3041 C3039 1.444 . S
C3041 C3046 1.385 . S
C3042 C3038 1.432 . S
C3042 C3039 1.317 . S
C3042 H3054 0.930 . S
C3043 C3045 1.392 . S
C3043 C3046 1.370 . S
C3043 H3055 0.931 . S
N3044 C3037 1.359 . S
N3044 C3045 1.327 . S
N3044 Tb3047 2.600 . S
C3045 C3043 1.392 . S
C3045 N3044 1.327 . S
C3045 H3052 0.930 . S
C3046 C3041 1.385 . S
C3046 C3043 1.370 . S
C3046 H3065 0.930 . S
Tb3047 N3044 2.600 . S
Tb3047 N3048 2.660 . S
Tb3047 O3081 2.362 . S
Tb3047 O3082 2.421 . S
Tb3047 O3086 2.546 . S
Tb3047 O3087 2.610 . S
Tb3047 O3089 2.320 . S
Tb3047 O3090 2.552 . S
Tb3047 O3091 2.413 . S
Tb3047 C3111 2.833 . S
N3048 C3040 1.360 . S
N3048 Tb3047 2.660 . S
N3048 C3049 1.305 . S
C3049 N3048 1.305 . S
C3049 C3051 1.407 . S
C3049 H3056 0.930 . S
C3050 C3038 1.410 . S
C3050 C3051 1.345 . S
C3050 H3058 0.930 . S
C3051 C3049 1.407 . S
C3051 C3050 1.345 . S
C3051 H3053 0.930 . S
H3052 C3045 0.930 . S
H3053 C3051 0.930 . S
H3054 C3042 0.930 . S
H3055 C3043 0.931 . S
H3056 C3049 0.930 . S
H3057 C3071 0.930 . S
H3058 C3050 0.930 . S
H3059 C3077 0.930 . S
H3060 C3068 0.930 . S
H3061 C3075 0.931 . S
H3062 C3039 0.929 . S
H3063 C3069 0.930 . S
H3064 C3102 0.930 . S
H3065 C3046 0.930 . S
H3066 C3101 0.929 . S
N3067 Tb3036 2.660 . S
N3067 C3068 1.305 . S
N3067 C3072 1.360 . S
C3068 H3060 0.930 . S
C3068 N3067 1.305 . S
C3068 C3071 1.407 . S
C3069 H3063 0.930 . S
C3069 C3070 1.410 . S
C3069 C3071 1.345 . S
C3070 C3069 1.410 . S
C3070 C3072 1.417 . S
C3070 C3102 1.432 . S
C3071 H3057 0.930 . S
C3071 C3068 1.407 . S
C3071 C3069 1.345 . S
C3072 N3067 1.360 . S
C3072 C3070 1.417 . S
C3072 C3076 1.432 . S
H3073 C3078 0.930 . S
N3074 Tb3036 2.600 . S
N3074 C3076 1.359 . S
N3074 C3077 1.327 . S
C3075 H3061 0.931 . S
C3075 C3077 1.392 . S
C3075 C3078 1.370 . S
C3076 C3072 1.432 . S
C3076 N3074 1.359 . S
C3076 C3079 1.414 . S
C3077 H3059 0.930 . S
C3077 N3074 1.327 . S
C3077 C3075 1.392 . S
C3078 H3073 0.930 . S
C3078 C3075 1.370 . S
C3078 C3079 1.385 . S
C3079 C3076 1.414 . S
C3079 C3078 1.385 . S
C3079 C3101 1.444 . S
O3080 Tb3036 2.546 . S
O3080 C3100 1.251 . S
O3081 Tb3036 2.610 . S
O3081 Tb3047 2.362 . S
O3081 C3092 1.283 . S
O3082 Tb3047 2.421 . S
O3082 C3099 1.262 . S
O3083 Tb3036 2.320 . S
O3083 C3099 1.260 . S
O3084 Tb3036 2.552 . S
O3084 C3092 1.243 . S
O3085 Tb3036 2.413 . S
O3085 C3100 1.256 . S
O3086 Tb3047 2.546 . S
O3086 C3111 1.251 . S
O3087 Tb3036 2.362 . S
O3087 Tb3047 2.610 . S
O3087 C3103 1.283 . S
O3088 Tb3036 2.421 . S
O3088 C3110 1.262 . S
O3089 Tb3047 2.320 . S
O3089 C3110 1.260 . S
O3090 Tb3047 2.552 . S
O3090 C3103 1.243 . S
O3091 Tb3047 2.413 . S
O3091 C3111 1.256 . S
C3092 O3081 1.283 . S
C3092 O3084 1.243 . S
C3093 C3095 1.382 . S
C3093 C3097 1.393 . S
C3093 C3100 1.500 . S
C3094 C3095 1.400 . S
C3094 C3096 1.384 . S
C3095 C3093 1.382 . S
C3095 C3094 1.400 . S
C3095 H3112 0.930 . S
C3096 C3094 1.384 . S
C3096 C3098 1.392 . S
C3096 H3113 0.931 . S
C3097 C3093 1.393 . S
C3097 C3098 1.401 . S
C3097 H3114 0.930 . S
C3098 C3096 1.392 . S
C3098 C3097 1.401 . S
C3098 H3115 0.930 . S
C3099 O3082 1.262 . S
C3099 O3083 1.260 . S
C3100 Tb3036 2.833 . S
C3100 O3080 1.251 . S
C3100 O3085 1.256 . S
C3100 C3093 1.500 . S
C3101 H3066 0.929 . S
C3101 C3079 1.444 . S
C3101 C3102 1.317 . S
C3102 H3064 0.930 . S
C3102 C3070 1.432 . S
C3102 C3101 1.317 . S
C3103 O3087 1.283 . S
C3103 O3090 1.243 . S
C3104 C3105 1.382 . S
C3104 C3108 1.393 . S
C3104 C3111 1.500 . S
C3105 C3104 1.382 . S
C3105 C3106 1.400 . S
C3105 H3116 0.930 . S
C3106 C3105 1.400 . S
C3106 C3107 1.384 . S
C3107 C3106 1.384 . S
C3107 C3109 1.392 . S
C3107 H3117 0.931 1_655 S
C3108 C3104 1.393 . S
C3108 C3109 1.401 . S
C3108 H3118 0.930 . S
C3109 C3107 1.392 . S
C3109 C3108 1.401 . S
C3109 H3119 0.930 . S
C3110 O3088 1.262 . S
C3110 O3089 1.260 . S
C3111 Tb3047 2.833 . S
C3111 O3086 1.251 . S
C3111 O3091 1.256 . S
C3111 C3104 1.500 . S
H3112 C3095 0.930 . S
H3113 C3096 0.931 . S
H3114 C3097 0.930 . S
H3115 C3098 0.930 . S
H3116 C3105 0.930 . S
H3117 C3107 0.931 1_455 S
H3118 C3108 0.930 . S
H3119 C3109 0.930 . S
Tb3120 N3151 2.660 . S
Tb3120 N3158 2.600 . S
Tb3120 O3164 2.546 . S
Tb3120 O3165 2.610 . S
Tb3120 O3167 2.320 . S
Tb3120 O3168 2.552 . S
Tb3120 O3169 2.413 . S
Tb3120 O3171 2.362 . S
Tb3120 O3172 2.421 . S
Tb3120 C3184 2.833 . S
C3121 C3124 1.432 . S
C3121 C3125 1.414 . S
C3121 N3128 1.359 . S
C3122 C3124 1.417 . S
C3122 C3126 1.432 . S
C3122 C3134 1.410 . S
C3123 C3125 1.444 . S
C3123 C3126 1.317 . S
C3123 H3146 0.929 . S
C3124 C3121 1.432 . S
C3124 C3122 1.417 . S
C3124 N3132 1.360 . S
C3125 C3121 1.414 . S
C3125 C3123 1.444 . S
C3125 C3130 1.385 . S
C3126 C3122 1.432 . S
C3126 C3123 1.317 . S
C3126 H3138 0.930 . S
C3127 C3129 1.392 . S
C3127 C3130 1.370 . S
C3127 H3139 0.931 . S
N3128 C3121 1.359 . S
N3128 C3129 1.327 . S
N3128 Tb3131 2.600 . S
C3129 C3127 1.392 . S
C3129 N3128 1.327 . S
C3129 H3136 0.930 . S
C3130 C3125 1.385 . S
C3130 C3127 1.370 . S
C3130 H3149 0.930 . S
Tb3131 N3128 2.600 . S
Tb3131 N3132 2.660 . S
Tb3131 O3165 2.362 . S
Tb3131 O3166 2.421 . S
Tb3131 O3170 2.546 . S
Tb3131 O3171 2.610 . S
Tb3131 O3173 2.320 . S
Tb3131 O3174 2.552 . S
Tb3131 O3175 2.413 . S
Tb3131 C3195 2.833 . S
N3132 C3124 1.360 . S
N3132 Tb3131 2.660 . S
N3132 C3133 1.305 . S
C3133 N3132 1.305 . S
C3133 C3135 1.407 . S
C3133 H3140 0.930 . S
C3134 C3122 1.410 . S
C3134 C3135 1.345 . S
C3134 H3142 0.930 . S
C3135 C3133 1.407 . S
C3135 C3134 1.345 . S
C3135 H3137 0.930 . S
H3136 C3129 0.930 . S
H3137 C3135 0.930 . S
H3138 C3126 0.930 . S
H3139 C3127 0.931 . S
H3140 C3133 0.930 . S
H3141 C3155 0.930 . S
H3142 C3134 0.930 . S
H3143 C3161 0.930 . S
H3144 C3152 0.930 . S
H3145 C3159 0.931 . S
H3146 C3123 0.929 . S
H3147 C3153 0.930 . S
H3148 C3186 0.930 . S
H3149 C3130 0.930 . S
H3150 C3185 0.929 . S
N3151 Tb3120 2.660 . S
N3151 C3152 1.305 . S
N3151 C3156 1.360 . S
C3152 H3144 0.930 . S
C3152 N3151 1.305 . S
C3152 C3155 1.407 . S
C3153 H3147 0.930 . S
C3153 C3154 1.410 . S
C3153 C3155 1.345 . S
C3154 C3153 1.410 . S
C3154 C3156 1.417 . S
C3154 C3186 1.432 . S
C3155 H3141 0.930 . S
C3155 C3152 1.407 . S
C3155 C3153 1.345 . S
C3156 N3151 1.360 . S
C3156 C3154 1.417 . S
C3156 C3160 1.432 . S
H3157 C3162 0.930 . S
N3158 Tb3120 2.600 . S
N3158 C3160 1.359 . S
N3158 C3161 1.327 . S
C3159 H3145 0.931 . S
C3159 C3161 1.392 . S
C3159 C3162 1.370 . S
C3160 C3156 1.432 . S
C3160 N3158 1.359 . S
C3160 C3163 1.414 . S
C3161 H3143 0.930 . S
C3161 N3158 1.327 . S
C3161 C3159 1.392 . S
C3162 H3157 0.930 . S
C3162 C3159 1.370 . S
C3162 C3163 1.385 . S
C3163 C3160 1.414 . S
C3163 C3162 1.385 . S
C3163 C3185 1.444 . S
O3164 Tb3120 2.546 . S
O3164 C3184 1.251 . S
O3165 Tb3120 2.610 . S
O3165 Tb3131 2.362 . S
O3165 C3176 1.283 . S
O3166 Tb3131 2.421 . S
O3166 C3183 1.262 . S
O3167 Tb3120 2.320 . S
O3167 C3183 1.260 . S
O3168 Tb3120 2.552 . S
O3168 C3176 1.243 . S
O3169 Tb3120 2.413 . S
O3169 C3184 1.256 . S
O3170 Tb3131 2.546 . S
O3170 C3195 1.251 . S
O3171 Tb3120 2.362 . S
O3171 Tb3131 2.610 . S
O3171 C3187 1.283 . S
O3172 Tb3120 2.421 . S
O3172 C3194 1.262 . S
O3173 Tb3131 2.320 . S
O3173 C3194 1.260 . S
O3174 Tb3131 2.552 . S
O3174 C3187 1.243 . S
O3175 Tb3131 2.413 . S
O3175 C3195 1.256 . S
C3176 O3165 1.283 . S
C3176 O3168 1.243 . S
C3177 C3179 1.382 . S
C3177 C3181 1.393 . S
C3177 C3184 1.500 . S
C3178 C3179 1.400 . S
C3178 C3180 1.384 . S
C3179 C3177 1.382 . S
C3179 C3178 1.400 . S
C3179 H3196 0.930 . S
C3180 C3178 1.384 . S
C3180 C3182 1.392 . S
C3180 H3197 0.931 . S
C3181 C3177 1.393 . S
C3181 C3182 1.401 . S
C3181 H3198 0.930 . S
C3182 C3180 1.392 . S
C3182 C3181 1.401 . S
C3182 H3199 0.930 . S
C3183 O3166 1.262 . S
C3183 O3167 1.260 . S
C3184 Tb3120 2.833 . S
C3184 O3164 1.251 . S
C3184 O3169 1.256 . S
C3184 C3177 1.500 . S
C3185 H3150 0.929 . S
C3185 C3163 1.444 . S
C3185 C3186 1.317 . S
C3186 H3148 0.930 . S
C3186 C3154 1.432 . S
C3186 C3185 1.317 . S
C3187 O3171 1.283 . S
C3187 O3174 1.243 . S
C3188 C3189 1.382 . S
C3188 C3192 1.393 . S
C3188 C3195 1.500 . S
C3189 C3188 1.382 . S
C3189 C3190 1.400 . S
C3189 H3200 0.930 . S
C3190 C3189 1.400 . S
C3190 C3191 1.384 . S
C3191 C3190 1.384 . S
C3191 C3193 1.392 . S
C3191 H3201 0.931 . S
C3192 C3188 1.393 . S
C3192 C3193 1.401 . S
C3192 H3202 0.930 . S
C3193 C3191 1.392 . S
C3193 C3192 1.401 . S
C3193 H3203 0.930 . S
C3194 O3172 1.262 . S
C3194 O3173 1.260 . S
C3195 Tb3131 2.833 . S
C3195 O3170 1.251 . S
C3195 O3175 1.256 . S
C3195 C3188 1.500 . S
H3196 C3179 0.930 . S
H3197 C3180 0.931 . S
H3198 C3181 0.930 . S
H3199 C3182 0.930 . S
H3200 C3189 0.930 . S
H3201 C3191 0.931 . S
H3202 C3192 0.930 . S
H3203 C3193 0.930 . S
Tb3204 N3235 2.660 . S
Tb3204 N3242 2.600 . S
Tb3204 O3248 2.546 . S
Tb3204 O3249 2.610 . S
Tb3204 O3251 2.320 . S
Tb3204 O3252 2.552 . S
Tb3204 O3253 2.413 . S
Tb3204 O3255 2.362 . S
Tb3204 O3256 2.421 . S
Tb3204 C3268 2.833 . S
C3205 C3208 1.432 . S
C3205 C3209 1.414 . S
C3205 N3212 1.359 . S
C3206 C3208 1.417 . S
C3206 C3210 1.432 . S
C3206 C3218 1.410 . S
C3207 C3209 1.444 . S
C3207 C3210 1.317 . S
C3207 H3230 0.929 . S
C3208 C3205 1.432 . S
C3208 C3206 1.417 . S
C3208 N3216 1.360 . S
C3209 C3205 1.414 . S
C3209 C3207 1.444 . S
C3209 C3214 1.385 . S
C3210 C3206 1.432 . S
C3210 C3207 1.317 . S
C3210 H3222 0.930 . S
C3211 C3213 1.392 . S
C3211 C3214 1.370 . S
C3211 H3223 0.931 . S
N3212 C3205 1.359 . S
N3212 C3213 1.327 . S
N3212 Tb3215 2.600 . S
C3213 C3211 1.392 . S
C3213 N3212 1.327 . S
C3213 H3220 0.930 . S
C3214 C3209 1.385 . S
C3214 C3211 1.370 . S
C3214 H3233 0.930 . S
Tb3215 N3212 2.600 . S
Tb3215 N3216 2.660 . S
Tb3215 O3249 2.362 . S
Tb3215 O3250 2.421 . S
Tb3215 O3254 2.546 . S
Tb3215 O3255 2.610 . S
Tb3215 O3257 2.320 . S
Tb3215 O3258 2.552 . S
Tb3215 O3259 2.413 . S
Tb3215 C3279 2.833 . S
N3216 C3208 1.360 . S
N3216 Tb3215 2.660 . S
N3216 C3217 1.305 . S
C3217 N3216 1.305 . S
C3217 C3219 1.407 . S
C3217 H3224 0.930 . S
C3218 C3206 1.410 . S
C3218 C3219 1.345 . S
C3218 H3226 0.930 . S
C3219 C3217 1.407 . S
C3219 C3218 1.345 . S
C3219 H3221 0.930 . S
H3220 C3213 0.930 . S
H3221 C3219 0.930 . S
H3222 C3210 0.930 . S
H3223 C3211 0.931 . S
H3224 C3217 0.930 . S
H3225 C3239 0.930 . S
H3226 C3218 0.930 . S
H3227 C3245 0.930 . S
H3228 C3236 0.930 . S
H3229 C3243 0.931 . S
H3230 C3207 0.929 . S
H3231 C3237 0.930 . S
H3232 C3270 0.930 . S
H3233 C3214 0.930 . S
H3234 C3269 0.929 . S
N3235 Tb3204 2.660 . S
N3235 C3236 1.305 . S
N3235 C3240 1.360 . S
C3236 H3228 0.930 . S
C3236 N3235 1.305 . S
C3236 C3239 1.407 . S
C3237 H3231 0.930 . S
C3237 C3238 1.410 . S
C3237 C3239 1.345 . S
C3238 C3237 1.410 . S
C3238 C3240 1.417 . S
C3238 C3270 1.432 . S
C3239 H3225 0.930 . S
C3239 C3236 1.407 . S
C3239 C3237 1.345 . S
C3240 N3235 1.360 . S
C3240 C3238 1.417 . S
C3240 C3244 1.432 . S
H3241 C3246 0.930 . S
N3242 Tb3204 2.600 . S
N3242 C3244 1.359 . S
N3242 C3245 1.327 . S
C3243 H3229 0.931 . S
C3243 C3245 1.392 . S
C3243 C3246 1.370 . S
C3244 C3240 1.432 . S
C3244 N3242 1.359 . S
C3244 C3247 1.414 . S
C3245 H3227 0.930 . S
C3245 N3242 1.327 . S
C3245 C3243 1.392 . S
C3246 H3241 0.930 . S
C3246 C3243 1.370 . S
C3246 C3247 1.385 . S
C3247 C3244 1.414 . S
C3247 C3246 1.385 . S
C3247 C3269 1.444 . S
O3248 Tb3204 2.546 . S
O3248 C3268 1.251 . S
O3249 Tb3204 2.610 . S
O3249 Tb3215 2.362 . S
O3249 C3260 1.283 . S
O3250 Tb3215 2.421 . S
O3250 C3267 1.262 . S
O3251 Tb3204 2.320 . S
O3251 C3267 1.260 . S
O3252 Tb3204 2.552 . S
O3252 C3260 1.243 . S
O3253 Tb3204 2.413 . S
O3253 C3268 1.256 . S
O3254 Tb3215 2.546 . S
O3254 C3279 1.251 . S
O3255 Tb3204 2.362 . S
O3255 Tb3215 2.610 . S
O3255 C3271 1.283 . S
O3256 Tb3204 2.421 . S
O3256 C3278 1.262 . S
O3257 Tb3215 2.320 . S
O3257 C3278 1.260 . S
O3258 Tb3215 2.552 . S
O3258 C3271 1.243 . S
O3259 Tb3215 2.413 . S
O3259 C3279 1.256 . S
C3260 O3249 1.283 . S
C3260 O3252 1.243 . S
C3261 C3263 1.382 . S
C3261 C3265 1.393 . S
C3261 C3268 1.500 . S
C3262 C3263 1.400 . S
C3262 C3264 1.384 1_565 S
C3263 C3261 1.382 . S
C3263 C3262 1.400 . S
C3263 H3280 0.930 . S
C3264 C3262 1.384 1_545 S
C3264 C3266 1.378 1_545 S
C3264 H3281 0.931 . S
C3265 C3261 1.393 . S
C3265 C3266 1.425 . S
C3265 H3282 0.930 . S
C3266 C3264 1.378 1_565 S
C3266 C3265 1.425 . S
C3266 H3283 0.921 1_565 S
C3267 O3250 1.262 . S
C3267 O3251 1.260 . S
C3268 Tb3204 2.833 . S
C3268 O3248 1.251 . S
C3268 O3253 1.256 . S
C3268 C3261 1.500 . S
C3269 H3234 0.929 . S
C3269 C3247 1.444 . S
C3269 C3270 1.317 . S
C3270 H3232 0.930 . S
C3270 C3238 1.432 . S
C3270 C3269 1.317 . S
C3271 O3255 1.283 . S
C3271 O3258 1.243 . S
C3272 C3273 1.382 . S
C3272 C3276 1.393 . S
C3272 C3279 1.500 . S
C3273 C3272 1.382 . S
C3273 C3274 1.400 . S
C3273 H3284 0.930 . S
C3274 C3273 1.400 . S
C3274 C3275 1.384 . S
C3275 C3274 1.384 . S
C3275 C3277 1.392 . S
C3275 H3285 0.931 . S
C3276 C3272 1.393 . S
C3276 C3277 1.401 . S
C3276 H3286 0.930 . S
C3277 C3275 1.392 . S
C3277 C3276 1.401 . S
C3277 H3287 0.930 . S
C3278 O3256 1.262 . S
C3278 O3257 1.260 . S
C3279 Tb3215 2.833 . S
C3279 O3254 1.251 . S
C3279 O3259 1.256 . S
C3279 C3272 1.500 . S
H3280 C3263 0.930 . S
H3281 C3264 0.931 . S
H3282 C3265 0.930 . S
H3283 C3266 0.921 1_545 S
H3284 C3273 0.930 . S
H3285 C3275 0.931 . S
H3286 C3276 0.930 . S
H3287 C3277 0.930 . S
Tb3288 N3319 2.660 . S
Tb3288 N3326 2.600 . S
Tb3288 O3332 2.546 . S
Tb3288 O3333 2.610 . S
Tb3288 O3335 2.320 . S
Tb3288 O3336 2.552 . S
Tb3288 O3337 2.413 . S
Tb3288 O3339 2.362 . S
Tb3288 O3340 2.421 . S
Tb3288 C3352 2.833 . S
C3289 C3292 1.432 . S
C3289 C3293 1.414 . S
C3289 N3296 1.359 . S
C3290 C3292 1.417 . S
C3290 C3294 1.432 . S
C3290 C3302 1.410 . S
C3291 C3293 1.444 . S
C3291 C3294 1.317 . S
C3291 H3314 0.929 . S
C3292 C3289 1.432 . S
C3292 C3290 1.417 . S
C3292 N3300 1.360 . S
C3293 C3289 1.414 . S
C3293 C3291 1.444 . S
C3293 C3298 1.385 . S
C3294 C3290 1.432 . S
C3294 C3291 1.317 . S
C3294 H3306 0.930 . S
C3295 C3297 1.392 . S
C3295 C3298 1.370 . S
C3295 H3307 0.931 . S
N3296 C3289 1.359 . S
N3296 C3297 1.327 . S
N3296 Tb3299 2.600 . S
C3297 C3295 1.392 . S
C3297 N3296 1.327 . S
C3297 H3304 0.930 . S
C3298 C3293 1.385 . S
C3298 C3295 1.370 . S
C3298 H3317 0.930 . S
Tb3299 N3296 2.600 . S
Tb3299 N3300 2.660 . S
Tb3299 O3333 2.362 . S
Tb3299 O3334 2.421 . S
Tb3299 O3338 2.546 . S
Tb3299 O3339 2.610 . S
Tb3299 O3341 2.320 . S
Tb3299 O3342 2.552 . S
Tb3299 O3343 2.413 . S
Tb3299 C3363 2.833 . S
N3300 C3292 1.360 . S
N3300 Tb3299 2.660 . S
N3300 C3301 1.305 . S
C3301 N3300 1.305 . S
C3301 C3303 1.407 . S
C3301 H3308 0.930 . S
C3302 C3290 1.410 . S
C3302 C3303 1.345 . S
C3302 H3310 0.930 . S
C3303 C3301 1.407 . S
C3303 C3302 1.345 . S
C3303 H3305 0.930 . S
H3304 C3297 0.930 . S
H3305 C3303 0.930 . S
H3306 C3294 0.930 . S
H3307 C3295 0.931 . S
H3308 C3301 0.930 . S
H3309 C3323 0.930 . S
H3310 C3302 0.930 . S
H3311 C3329 0.930 . S
H3312 C3320 0.930 . S
H3313 C3327 0.931 . S
H3314 C3291 0.929 . S
H3315 C3321 0.930 . S
H3316 C3354 0.930 . S
H3317 C3298 0.930 . S
H3318 C3353 0.929 . S
N3319 Tb3288 2.660 . S
N3319 C3320 1.305 . S
N3319 C3324 1.360 . S
C3320 H3312 0.930 . S
C3320 N3319 1.305 . S
C3320 C3323 1.407 . S
C3321 H3315 0.930 . S
C3321 C3322 1.410 . S
C3321 C3323 1.345 . S
C3322 C3321 1.410 . S
C3322 C3324 1.417 . S
C3322 C3354 1.432 . S
C3323 H3309 0.930 . S
C3323 C3320 1.407 . S
C3323 C3321 1.345 . S
C3324 N3319 1.360 . S
C3324 C3322 1.417 . S
C3324 C3328 1.432 . S
H3325 C3330 0.930 . S
N3326 Tb3288 2.600 . S
N3326 C3328 1.359 . S
N3326 C3329 1.327 . S
C3327 H3313 0.931 . S
C3327 C3329 1.392 . S
C3327 C3330 1.370 . S
C3328 C3324 1.432 . S
C3328 N3326 1.359 . S
C3328 C3331 1.414 . S
C3329 H3311 0.930 . S
C3329 N3326 1.327 . S
C3329 C3327 1.392 . S
C3330 H3325 0.930 . S
C3330 C3327 1.370 . S
C3330 C3331 1.385 . S
C3331 C3328 1.414 . S
C3331 C3330 1.385 . S
C3331 C3353 1.444 . S
O3332 Tb3288 2.546 . S
O3332 C3352 1.251 . S
O3333 Tb3288 2.610 . S
O3333 Tb3299 2.362 . S
O3333 C3344 1.283 . S
O3334 Tb3299 2.421 . S
O3334 C3351 1.262 . S
O3335 Tb3288 2.320 . S
O3335 C3351 1.260 . S
O3336 Tb3288 2.552 . S
O3336 C3344 1.243 . S
O3337 Tb3288 2.413 . S
O3337 C3352 1.256 . S
O3338 Tb3299 2.546 . S
O3338 C3363 1.251 . S
O3339 Tb3288 2.362 . S
O3339 Tb3299 2.610 . S
O3339 C3355 1.283 . S
O3340 Tb3288 2.421 . S
O3340 C3362 1.262 . S
O3341 Tb3299 2.320 . S
O3341 C3362 1.260 . S
O3342 Tb3299 2.552 . S
O3342 C3355 1.243 . S
O3343 Tb3299 2.413 . S
O3343 C3363 1.256 . S
C3344 O3333 1.283 . S
C3344 O3336 1.243 . S
C3345 C3347 1.382 . S
C3345 C3349 1.393 . S
C3345 C3352 1.500 . S
C3346 C3347 1.400 . S
C3346 C3348 1.384 . S
C3347 C3345 1.382 . S
C3347 C3346 1.400 . S
C3347 H3364 0.930 . S
C3348 C3346 1.384 . S
C3348 C3350 1.392 . S
C3348 H3365 0.931 . S
C3349 C3345 1.393 . S
C3349 C3350 1.401 . S
C3349 H3366 0.930 . S
C3350 C3348 1.392 . S
C3350 C3349 1.401 . S
C3350 H3367 0.930 . S
C3351 O3334 1.262 . S
C3351 O3335 1.260 . S
C3352 Tb3288 2.833 . S
C3352 O3332 1.251 . S
C3352 O3337 1.256 . S
C3352 C3345 1.500 . S
C3353 H3318 0.929 . S
C3353 C3331 1.444 . S
C3353 C3354 1.317 . S
C3354 H3316 0.930 . S
C3354 C3322 1.432 . S
C3354 C3353 1.317 . S
C3355 O3339 1.283 . S
C3355 O3342 1.243 . S
C3356 C3357 1.382 . S
C3356 C3360 1.393 . S
C3356 C3363 1.500 . S
C3357 C3356 1.382 . S
C3357 C3358 1.400 . S
C3357 H3368 0.930 . S
C3358 C3357 1.400 . S
C3358 C3359 1.384 . S
C3359 C3358 1.384 . S
C3359 C3361 1.392 . S
C3359 H3369 0.931 . S
C3360 C3356 1.393 . S
C3360 C3361 1.401 . S
C3360 H3370 0.930 . S
C3361 C3359 1.392 . S
C3361 C3360 1.401 . S
C3361 H3371 0.930 . S
C3362 O3340 1.262 . S
C3362 O3341 1.260 . S
C3363 Tb3299 2.833 . S
C3363 O3338 1.251 . S
C3363 O3343 1.256 . S
C3363 C3356 1.500 . S
H3364 C3347 0.930 . S
H3365 C3348 0.931 . S
H3366 C3349 0.930 . S
H3367 C3350 0.930 . S
H3368 C3357 0.930 . S
H3369 C3359 0.931 . S
H3370 C3360 0.930 . S
H3371 C3361 0.930 . S
Tb3372 N3403 2.660 1_556 S
Tb3372 N3410 2.600 . S
Tb3372 O3416 2.546 . S
Tb3372 O3417 2.610 1_556 S
Tb3372 O3419 2.320 1_556 S
Tb3372 O3420 2.552 . S
Tb3372 O3421 2.413 1_556 S
Tb3372 O3423 2.362 1_556 S
Tb3372 O3424 2.421 . S
Tb3372 C3436 2.833 . S
C3373 C3376 1.432 . S
C3373 C3377 1.414 . S
C3373 N3380 1.359 1_655 S
C3374 C3376 1.417 . S
C3374 C3378 1.432 . S
C3374 C3386 1.410 1_554 S
C3375 C3377 1.444 . S
C3375 C3378 1.317 . S
C3375 H3398 0.929 . S
C3376 C3373 1.432 . S
C3376 C3374 1.417 . S
C3376 N3384 1.360 . S
C3377 C3373 1.414 . S
C3377 C3375 1.444 . S
C3377 C3382 1.385 . S
C3378 C3374 1.432 . S
C3378 C3375 1.317 . S
C3378 H3390 0.930 . S
C3379 C3381 1.392 . S
C3379 C3382 1.370 1_455 S
C3379 H3391 0.931 . S
N3380 C3373 1.359 1_455 S
N3380 C3381 1.327 . S
N3380 Tb3383 2.600 . S
C3381 C3379 1.392 . S
C3381 N3380 1.327 . S
C3381 H3388 0.930 . S
C3382 C3377 1.385 . S
C3382 C3379 1.370 1_655 S
C3382 H3401 0.930 . S
Tb3383 N3380 2.600 . S
Tb3383 N3384 2.660 1_455 S
Tb3383 O3417 2.362 . S
Tb3383 O3418 2.421 . S
Tb3383 O3422 2.546 . S
Tb3383 O3423 2.610 . S
Tb3383 O3425 2.320 1_554 S
Tb3383 O3426 2.552 . S
Tb3383 O3427 2.413 1_455 S
Tb3383 C3447 2.833 1_455 S
N3384 C3376 1.360 . S
N3384 Tb3383 2.660 1_655 S
N3384 C3385 1.305 1_554 S
C3385 N3384 1.305 1_556 S
C3385 C3387 1.407 . S
C3385 H3392 0.930 . S
C3386 C3374 1.410 1_556 S
C3386 C3387 1.345 . S
C3386 H3394 0.930 . S
C3387 C3385 1.407 . S
C3387 C3386 1.345 . S
C3387 H3389 0.930 . S
H3388 C3381 0.930 . S
H3389 C3387 0.930 . S
H3390 C3378 0.930 . S
H3391 C3379 0.931 . S
H3392 C3385 0.930 . S
H3393 C3407 0.930 . S
H3394 C3386 0.930 . S
H3395 C3413 0.930 . S
H3396 C3404 0.930 . S
H3397 C3411 0.931 . S
H3398 C3375 0.929 . S
H3399 C3405 0.930 . S
H3400 C3438 0.930 . S
H3401 C3382 0.930 . S
H3402 C3437 0.929 . S
N3403 Tb3372 2.660 1_554 S
N3403 C3404 1.305 . S
N3403 C3408 1.360 1_554 S
C3404 H3396 0.930 . S
C3404 N3403 1.305 . S
C3404 C3407 1.407 . S
C3405 H3399 0.930 . S
C3405 C3406 1.410 . S
C3405 C3407 1.345 . S
C3406 C3405 1.410 . S
C3406 C3408 1.417 1_554 S
C3406 C3438 1.432 1_554 S
C3407 H3393 0.930 . S
C3407 C3404 1.407 . S
C3407 C3405 1.345 . S
C3408 N3403 1.360 1_556 S
C3408 C3406 1.417 1_556 S
C3408 C3412 1.432 . S
H3409 C3414 0.930 . S
N3410 Tb3372 2.600 . S
N3410 C3412 1.359 . S
N3410 C3413 1.327 . S
C3411 H3397 0.931 . S
C3411 C3413 1.392 . S
C3411 C3414 1.370 . S
C3412 C3408 1.432 . S
C3412 N3410 1.359 . S
C3412 C3415 1.414 . S
C3413 H3395 0.930 . S
C3413 N3410 1.327 . S
C3413 C3411 1.392 . S
C3414 H3409 0.930 . S
C3414 C3411 1.370 . S
C3414 C3415 1.385 . S
C3415 C3412 1.414 . S
C3415 C3414 1.385 . S
C3415 C3437 1.444 . S
O3416 Tb3372 2.546 . S
O3416 C3436 1.251 . S
O3417 Tb3372 2.610 1_554 S
O3417 Tb3383 2.362 . S
O3417 C3428 1.283 . S
O3418 Tb3383 2.421 . S
O3418 C3435 1.262 . S
O3419 Tb3372 2.320 1_554 S
O3419 C3435 1.260 . S
O3420 Tb3372 2.552 . S
O3420 C3428 1.243 1_556 S
O3421 Tb3372 2.413 1_554 S
O3421 C3436 1.256 1_554 S
O3422 Tb3383 2.546 . S
O3422 C3447 1.251 1_455 S
O3423 Tb3372 2.362 1_554 S
O3423 Tb3383 2.610 . S
O3423 C3439 1.283 . S
O3424 Tb3372 2.421 . S
O3424 C3446 1.262 . S
O3425 Tb3383 2.320 1_556 S
O3425 C3446 1.260 . S
O3426 Tb3383 2.552 . S
O3426 C3439 1.243 . S
O3427 Tb3383 2.413 1_655 S
O3427 C3447 1.256 . S
C3428 O3417 1.283 . S
C3428 O3420 1.243 1_554 S
C3429 C3431 1.382 . S
C3429 C3433 1.393 . S
C3429 C3436 1.500 . S
C3430 C3431 1.400 . S
C3430 C3432 1.384 . S
C3431 C3429 1.382 . S
C3431 C3430 1.400 . S
C3431 H3448 0.930 1_556 S
C3432 C3430 1.384 . S
C3432 C3434 1.392 . S
C3432 H3449 0.931 . S
C3433 C3429 1.393 . S
C3433 C3434 1.401 . S
C3433 H3450 0.930 . S
C3434 C3432 1.392 . S
C3434 C3433 1.401 . S
C3434 H3451 0.930 . S
C3435 O3418 1.262 . S
C3435 O3419 1.260 . S
C3436 Tb3372 2.833 . S
C3436 O3416 1.251 . S
C3436 O3421 1.256 1_556 S
C3436 C3429 1.500 . S
C3437 H3402 0.929 . S
C3437 C3415 1.444 . S
C3437 C3438 1.317 . S
C3438 H3400 0.930 . S
C3438 C3406 1.432 1_556 S
C3438 C3437 1.317 . S
C3439 O3423 1.283 . S
C3439 O3426 1.243 . S
C3440 C3441 1.382 . S
C3440 C3444 1.393 . S
C3440 C3447 1.500 . S
C3441 C3440 1.382 . S
C3441 C3442 1.400 . S
C3441 H3452 0.930 . S
C3442 C3441 1.400 . S
C3442 C3443 1.384 . S
C3443 C3442 1.384 . S
C3443 C3445 1.392 . S
C3443 H3453 0.931 . S
C3444 C3440 1.393 . S
C3444 C3445 1.401 . S
C3444 H3454 0.930 . S
C3445 C3443 1.392 . S
C3445 C3444 1.401 . S
C3445 H3455 0.930 . S
C3446 O3424 1.262 . S
C3446 O3425 1.260 . S
C3447 Tb3383 2.833 1_655 S
C3447 O3422 1.251 1_655 S
C3447 O3427 1.256 . S
C3447 C3440 1.500 . S
H3448 C3431 0.930 1_554 S
H3449 C3432 0.931 . S
H3450 C3433 0.930 . S
H3451 C3434 0.930 . S
H3452 C3441 0.930 . S
H3453 C3443 0.931 . S
H3454 C3444 0.930 . S
H3455 C3445 0.930 . S
C665 C2168 3.189 . S
C381 C2259 3.284 . S
C460 C2336 3.298 . S
C2434 C585 1.381 . S
C108 C2518 2.805 . S
C2590 C196 1.300 . S
C2679 C313 3.552 . S
C49 C2756 2.424 . S
C2175 C1457 2.805 . S
C1545 C2266 0.698 . S
C2343 C1721 1.073 . S
C2420 C1113 2.975 . S
C1428 C2504 3.343 . S
C2606 C1516 1.046 . S
C2686 C1692 0.297 . S
C2763 C1085 2.466 . S
C2182 C988 2.071 . S
C1817 C2847 2.354 1_556 S
C2935 C2081 3.201 . S
C3008 C1993 2.061 . S
C761 C2770 3.384 . S
C821 C2350 2.673 . S
C2053 C3099 3.013 . S
C3176 C1868 1.266 . S
C2179 C372 3.190 . S
C3194 C645 3.273 . S
C577 C2347 3.287 . S
C497 C3094 1.387 . S
C2506 C57 2.824 . S
C293 C2938 1.302 . S
C2690 C205 3.535 1_565 S
C3271 C145 2.440 . S
C2186 C909 2.798 . S
C3178 C1956 0.721 . S
C724 C2354 1.074 . S
C1780 C3103 2.965 . S
C937 C2515 3.347 1_565 S
C2931 C1985 1.052 . S
C753 C2674 0.311 . S
C1809 C3278 2.466 . S
C1173 C2170 2.086 1_554 S
C1105 C2858 2.343 . S
C1633 C2588 3.196 . S
C1553 C3019 2.047 . S
C3262 C1729 3.409 . S
C1340 C2338 2.689 . S
C2438 C1604 3.005 . S
C2263 C1252 1.246 . S
C489 C3344 3.188 . S
C3183 C557 3.284 . S
C636 C3428 3.298 . S
C409 C3106 1.382 1_455 S
C284 C2854 2.810 . S
C2926 C20 1.298 . S
C3015 C137 3.546 1_455 S
C3260 C225 2.423 . S
C3351 C1641 2.805 . S
C1193 C3190 0.699 . S
C3435 C1289 1.073 . S
C3092 C1377 2.975 . S
C2840 C1613 3.343 . S
C1164 C2942 1.045 . S
C3022 C1261 0.298 . S
C1349 C3267 2.466 . S
C3358 C1965 2.077 . S
C849 C2511 2.353 . S
C2599 C929 3.201 . S
C2672 C1017 2.063 . S
C3274 C1897 3.381 . S
C1789 C3442 2.672 1_556 S
C2427 C900 3.013 . S
C2252 C733 1.266 . S
C548 C3355 3.191 . S
C2270 C469 3.272 . S
C401 C3439 3.286 1_556 S
C673 C2422 1.388 . S
C233 C2842 2.824 . S
C2602 C117 1.298 . S
C29 C3026 3.534 . S
C321 C2767 2.437 . S
C3362 C2044 2.799 . S
C997 C2254 0.725 . S
C3446 C1877 1.074 . S
C812 C2431 2.965 . S
C2073 C2851 3.347 . S
C2595 C1025 1.055 . S
C1905 C3010 0.308 . S
C2774 C841 2.465 . S
C3346 C1525 2.086 . S
C2522 C1369 2.343 1_445 S
C1465 C2924 3.196 . S
C2683 C1201 2.048 . S
C1281 C2758 3.407 . S
C1076 C3430 2.689 1_554 S
C3110 C1437 3.005 . S
C3187 C1701 1.245 . S
