# Generated by pormake.
# Topology fgl, (4,4)-cn, num edge types: 1
# Building blocks:
#     Node 0, Type 0, BuildingBlock: ESEHIV_clean_sbu_0, # of connection points: 4
#     Node 1, Type 0, BuildingBlock: ESEHIV_clean_sbu_0, # of connection points: 4
#     Node 2, Type 0, BuildingBlock: ESEHIV_clean_sbu_0, # of connection points: 4
#     Node 3, Type 0, BuildingBlock: ESEHIV_clean_sbu_0, # of connection points: 4
#     Node 4, Type 0, BuildingBlock: ESEHIV_clean_sbu_0, # of connection points: 4
#     Node 5, Type 0, BuildingBlock: ESEHIV_clean_sbu_0, # of connection points: 4
#     Node 6, Type 0, BuildingBlock: ESEHIV_clean_sbu_0, # of connection points: 4
#     Node 7, Type 0, BuildingBlock: ESEHIV_clean_sbu_0, # of connection points: 4
#     Node 8, Type 0, BuildingBlock: ESEHIV_clean_sbu_0, # of connection points: 4
#     Node 9, Type 0, BuildingBlock: ESEHIV_clean_sbu_0, # of connection points: 4
#     Node 10, Type 0, BuildingBlock: ESEHIV_clean_sbu_0, # of connection points: 4
#     Node 11, Type 0, BuildingBlock: ESEHIV_clean_sbu_0, # of connection points: 4
#     Node 12, Type 0, BuildingBlock: ESEHIV_clean_sbu_0, # of connection points: 4
#     Node 13, Type 0, BuildingBlock: ESEHIV_clean_sbu_0, # of connection points: 4
#     Node 14, Type 0, BuildingBlock: ESEHIV_clean_sbu_0, # of connection points: 4
#     Node 15, Type 0, BuildingBlock: ESEHIV_clean_sbu_0, # of connection points: 4
#     Node 16, Type 0, BuildingBlock: ESEHIV_clean_sbu_0, # of connection points: 4
#     Node 17, Type 0, BuildingBlock: ESEHIV_clean_sbu_0, # of connection points: 4
#     Node 18, Type 1, BuildingBlock: CEKHIL_clean_sbu_0, # of connection points: 4
#     Node 19, Type 1, BuildingBlock: CEKHIL_clean_sbu_0, # of connection points: 4
#     Node 20, Type 1, BuildingBlock: CEKHIL_clean_sbu_0, # of connection points: 4
#     Node 21, Type 1, BuildingBlock: CEKHIL_clean_sbu_0, # of connection points: 4
#     Node 22, Type 1, BuildingBlock: CEKHIL_clean_sbu_0, # of connection points: 4
#     Node 23, Type 1, BuildingBlock: CEKHIL_clean_sbu_0, # of connection points: 4
#     Node 24, Type 1, BuildingBlock: CEKHIL_clean_sbu_0, # of connection points: 4
#     Node 25, Type 1, BuildingBlock: CEKHIL_clean_sbu_0, # of connection points: 4
#     Node 26, Type 1, BuildingBlock: CEKHIL_clean_sbu_0, # of connection points: 4
#     Node 27, Type 1, BuildingBlock: CEKHIL_clean_sbu_0, # of connection points: 4
#     Node 28, Type 1, BuildingBlock: CEKHIL_clean_sbu_0, # of connection points: 4
#     Node 29, Type 1, BuildingBlock: CEKHIL_clean_sbu_0, # of connection points: 4
#     Node 30, Type 1, BuildingBlock: CEKHIL_clean_sbu_0, # of connection points: 4
#     Node 31, Type 1, BuildingBlock: CEKHIL_clean_sbu_0, # of connection points: 4
#     Node 32, Type 1, BuildingBlock: CEKHIL_clean_sbu_0, # of connection points: 4
#     Node 33, Type 1, BuildingBlock: CEKHIL_clean_sbu_0, # of connection points: 4
#     Node 34, Type 1, BuildingBlock: CEKHIL_clean_sbu_0, # of connection points: 4
#     Node 35, Type 1, BuildingBlock: CEKHIL_clean_sbu_0, # of connection points: 4
#     Edge 36, Type (0, 1), BuildingBlock: UVAHIK_clean_linker_0, # of connection points: 2
#     Edge 37, Type (0, 1), BuildingBlock: UVAHIK_clean_linker_0, # of connection points: 2
#     Edge 38, Type (0, 1), BuildingBlock: UVAHIK_clean_linker_0, # of connection points: 2
#     Edge 39, Type (0, 1), BuildingBlock: UVAHIK_clean_linker_0, # of connection points: 2
#     Edge 40, Type (0, 1), BuildingBlock: UVAHIK_clean_linker_0, # of connection points: 2
#     Edge 41, Type (0, 1), BuildingBlock: UVAHIK_clean_linker_0, # of connection points: 2
#     Edge 42, Type (0, 1), BuildingBlock: UVAHIK_clean_linker_0, # of connection points: 2
#     Edge 43, Type (0, 1), BuildingBlock: UVAHIK_clean_linker_0, # of connection points: 2
#     Edge 44, Type (0, 1), BuildingBlock: UVAHIK_clean_linker_0, # of connection points: 2
#     Edge 45, Type (0, 1), BuildingBlock: UVAHIK_clean_linker_0, # of connection points: 2
#     Edge 46, Type (0, 1), BuildingBlock: UVAHIK_clean_linker_0, # of connection points: 2
#     Edge 47, Type (0, 1), BuildingBlock: UVAHIK_clean_linker_0, # of connection points: 2
#     Edge 48, Type (0, 1), BuildingBlock: UVAHIK_clean_linker_0, # of connection points: 2
#     Edge 49, Type (0, 1), BuildingBlock: UVAHIK_clean_linker_0, # of connection points: 2
#     Edge 50, Type (0, 1), BuildingBlock: UVAHIK_clean_linker_0, # of connection points: 2
#     Edge 51, Type (0, 1), BuildingBlock: UVAHIK_clean_linker_0, # of connection points: 2
#     Edge 52, Type (0, 1), BuildingBlock: UVAHIK_clean_linker_0, # of connection points: 2
#     Edge 53, Type (0, 1), BuildingBlock: UVAHIK_clean_linker_0, # of connection points: 2
#     Edge 54, Type (0, 1), BuildingBlock: UVAHIK_clean_linker_0, # of connection points: 2
#     Edge 55, Type (0, 1), BuildingBlock: UVAHIK_clean_linker_0, # of connection points: 2
#     Edge 56, Type (0, 1), BuildingBlock: UVAHIK_clean_linker_0, # of connection points: 2
#     Edge 57, Type (0, 1), BuildingBlock: UVAHIK_clean_linker_0, # of connection points: 2
#     Edge 58, Type (0, 1), BuildingBlock: UVAHIK_clean_linker_0, # of connection points: 2
#     Edge 59, Type (0, 1), BuildingBlock: UVAHIK_clean_linker_0, # of connection points: 2
#     Edge 60, Type (0, 1), BuildingBlock: UVAHIK_clean_linker_0, # of connection points: 2
#     Edge 61, Type (0, 1), BuildingBlock: UVAHIK_clean_linker_0, # of connection points: 2
#     Edge 62, Type (0, 1), BuildingBlock: UVAHIK_clean_linker_0, # of connection points: 2
#     Edge 63, Type (0, 1), BuildingBlock: UVAHIK_clean_linker_0, # of connection points: 2
#     Edge 64, Type (0, 1), BuildingBlock: UVAHIK_clean_linker_0, # of connection points: 2
#     Edge 65, Type (0, 1), BuildingBlock: UVAHIK_clean_linker_0, # of connection points: 2
#     Edge 66, Type (0, 1), BuildingBlock: UVAHIK_clean_linker_0, # of connection points: 2
#     Edge 67, Type (0, 1), BuildingBlock: UVAHIK_clean_linker_0, # of connection points: 2
#     Edge 68, Type (0, 1), BuildingBlock: UVAHIK_clean_linker_0, # of connection points: 2
#     Edge 69, Type (0, 1), BuildingBlock: UVAHIK_clean_linker_0, # of connection points: 2
#     Edge 70, Type (0, 1), BuildingBlock: UVAHIK_clean_linker_0, # of connection points: 2
#     Edge 71, Type (0, 1), BuildingBlock: UVAHIK_clean_linker_0, # of connection points: 2
#     Edge 72, Type (0, 1), BuildingBlock: UVAHIK_clean_linker_0, # of connection points: 2
#     Edge 73, Type (0, 1), BuildingBlock: UVAHIK_clean_linker_0, # of connection points: 2
#     Edge 74, Type (0, 1), BuildingBlock: UVAHIK_clean_linker_0, # of connection points: 2
#     Edge 75, Type (0, 1), BuildingBlock: UVAHIK_clean_linker_0, # of connection points: 2
#     Edge 76, Type (0, 1), BuildingBlock: UVAHIK_clean_linker_0, # of connection points: 2
#     Edge 77, Type (0, 1), BuildingBlock: UVAHIK_clean_linker_0, # of connection points: 2
#     Edge 78, Type (0, 1), BuildingBlock: UVAHIK_clean_linker_0, # of connection points: 2
#     Edge 79, Type (0, 1), BuildingBlock: UVAHIK_clean_linker_0, # of connection points: 2
#     Edge 80, Type (0, 1), BuildingBlock: UVAHIK_clean_linker_0, # of connection points: 2
#     Edge 81, Type (0, 1), BuildingBlock: UVAHIK_clean_linker_0, # of connection points: 2
#     Edge 82, Type (0, 1), BuildingBlock: UVAHIK_clean_linker_0, # of connection points: 2
#     Edge 83, Type (0, 1), BuildingBlock: UVAHIK_clean_linker_0, # of connection points: 2
#     Edge 84, Type (0, 1), BuildingBlock: UVAHIK_clean_linker_0, # of connection points: 2
#     Edge 85, Type (0, 1), BuildingBlock: UVAHIK_clean_linker_0, # of connection points: 2
#     Edge 86, Type (0, 1), BuildingBlock: UVAHIK_clean_linker_0, # of connection points: 2
#     Edge 87, Type (0, 1), BuildingBlock: UVAHIK_clean_linker_0, # of connection points: 2
#     Edge 88, Type (0, 1), BuildingBlock: UVAHIK_clean_linker_0, # of connection points: 2
#     Edge 89, Type (0, 1), BuildingBlock: UVAHIK_clean_linker_0, # of connection points: 2
#     Edge 90, Type (0, 1), BuildingBlock: UVAHIK_clean_linker_0, # of connection points: 2
#     Edge 91, Type (0, 1), BuildingBlock: UVAHIK_clean_linker_0, # of connection points: 2
#     Edge 92, Type (0, 1), BuildingBlock: UVAHIK_clean_linker_0, # of connection points: 2
#     Edge 93, Type (0, 1), BuildingBlock: UVAHIK_clean_linker_0, # of connection points: 2
#     Edge 94, Type (0, 1), BuildingBlock: UVAHIK_clean_linker_0, # of connection points: 2
#     Edge 95, Type (0, 1), BuildingBlock: UVAHIK_clean_linker_0, # of connection points: 2
#     Edge 96, Type (0, 1), BuildingBlock: UVAHIK_clean_linker_0, # of connection points: 2
#     Edge 97, Type (0, 1), BuildingBlock: UVAHIK_clean_linker_0, # of connection points: 2
#     Edge 98, Type (0, 1), BuildingBlock: UVAHIK_clean_linker_0, # of connection points: 2
#     Edge 99, Type (0, 1), BuildingBlock: UVAHIK_clean_linker_0, # of connection points: 2
#     Edge 100, Type (0, 1), BuildingBlock: UVAHIK_clean_linker_0, # of connection points: 2
#     Edge 101, Type (0, 1), BuildingBlock: UVAHIK_clean_linker_0, # of connection points: 2
#     Edge 102, Type (0, 1), BuildingBlock: UVAHIK_clean_linker_0, # of connection points: 2
#     Edge 103, Type (0, 1), BuildingBlock: UVAHIK_clean_linker_0, # of connection points: 2
#     Edge 104, Type (0, 1), BuildingBlock: UVAHIK_clean_linker_0, # of connection points: 2
#     Edge 105, Type (0, 1), BuildingBlock: UVAHIK_clean_linker_0, # of connection points: 2
#     Edge 106, Type (0, 1), BuildingBlock: UVAHIK_clean_linker_0, # of connection points: 2
#     Edge 107, Type (0, 1), BuildingBlock: UVAHIK_clean_linker_0, # of connection points: 2
# Relax obj value: 0.013
# Max RMSD: 0.132
# Mean RMSD: 0.075
data_MOF--net-fgl--node1-ESEHIV_clean_sbu_0--node2-CEKHIL_clean_sbu_0--edge1-UVAHIK_clean_linker_0
_symmetry_space_group_name_H-M    P1
_symmetry_Int_Tables_number       1
_symmetry_cell_setting            triclinic
loop_
_symmetry_equiv_pos_as_xyz
'x, y, z'
_cell_length_a     97.085512
_cell_length_b     96.423382
_cell_length_c     65.469665
_cell_angle_alpha  90.656086
_cell_angle_beta   90.707625
_cell_angle_gamma 119.88357
loop_
_atom_site_label
_atom_site_type_symbol
_atom_site_fract_x
_atom_site_fract_y
_atom_site_fract_z
_atom_type_partial_charge
Cu0 Cu 0.01887 0.55203 1.00031 0.0
N1 N 1.00445 0.55241 0.01865 0.0
N2 N 0.99629 0.5608 0.04552 0.0
C3 C 0.00884 0.5627 0.03468 0.0
C4 C 0.98343 0.54875 0.03586 0.0
C5 C 0.9885 0.54364 0.01921 0.0
O6 O 0.03359 0.57449 0.99564 0.0
C7 C 0.01865 0.52652 0.01843 0.0
O8 O 1.00337 0.52136 0.01634 0.0
H9 H 0.02112 0.57133 0.03839 0.0
H10 H 0.98111 0.53427 0.00828 0.0
N11 N 0.00935 0.54144 0.97557 0.0
N12 N 0.00643 0.52798 0.94624 0.0
C13 C 0.01407 0.53272 0.96455 0.0
C14 C 0.99826 0.54222 0.96392 0.0
C15 C 0.99643 0.53393 0.94579 0.0
C16 C 0.03778 0.58048 0.97806 0.0
O17 O 0.03499 0.57094 0.96217 0.0
H18 H 0.0235 0.53056 0.96953 0.0
H19 H 0.99231 0.54878 0.96805 0.0
O20 O 0.02847 0.54055 0.01258 0.0
H21 H 0.97123 0.54412 0.04028 0.0
H22 H 0.98849 0.53254 0.9332 0.0
Cu23 Cu 0.53195 0.55127 0.01585 0.0
N24 N 0.54488 0.55154 0.99292 0.0
N25 N 0.55834 0.5581 0.96377 0.0
C26 C 0.54917 0.56105 0.97652 0.0
C27 C 0.55977 0.54627 0.97264 0.0
C28 C 0.55149 0.54228 0.99058 0.0
O29 O 0.54867 0.57457 0.02311 0.0
C30 C 0.51399 0.51592 0.01623 0.0
O31 O 0.52494 0.51782 0.02975 0.0
H32 H 0.54582 0.57008 0.97422 0.0
H33 H 0.55036 0.53326 1.00117 0.0
N34 N 0.51887 0.55094 0.03862 0.0
N35 N 0.50369 0.54285 0.06625 0.0
C36 C 0.51475 0.54163 0.05521 0.0
C37 C 0.51031 0.5584 0.03926 0.0
C38 C 0.50094 0.55345 0.05628 0.0
C39 C 0.56166 0.57835 0.03259 0.0
O40 O 0.56433 0.56689 0.03843 0.0
H41 H 0.51915 0.53357 0.05859 0.0
H42 H 0.51045 0.56643 0.02774 0.0
O43 O 0.51482 0.52824 0.00801 0.0
H44 H 0.56617 0.54068 0.96652 0.0
H45 H 0.49255 0.55715 0.06076 0.0
Cu46 Cu 0.52342 0.05864 0.02101 0.0
N47 N 0.52111 0.06787 0.99732 0.0
N48 N 0.51185 0.06888 0.96634 0.0
C49 C 0.50895 0.06062 0.98376 0.0
C50 C 0.52634 0.08195 0.96917 0.0
C51 C 0.53202 0.0813 0.98836 0.0
O52 O 0.50237 0.04525 0.03258 0.0
C53 C 0.54004 0.04694 0.99688 0.0
O54 O 0.53217 0.04813 0.98118 0.0
H55 H 0.49873 0.04892 0.98604 0.0
H56 H 0.54363 0.08953 0.99486 0.0
N57 N 0.53588 0.07427 0.0405 0.0
N58 N 0.55294 0.08513 0.06688 0.0
C59 C 0.54486 0.07218 0.05451 0.0
C60 C 0.53833 0.08913 0.04401 0.0
C61 C 0.54882 0.09584 0.06045 0.0
C62 C 0.49513 0.05287 0.03694 0.0
O63 O 0.50213 0.06817 0.03282 0.0
H64 H 0.54524 0.06119 0.05573 0.0
H65 H 0.53294 0.09468 0.03524 0.0
O66 O 0.53606 0.04847 0.0149 0.0
H67 H 0.5326 0.09103 0.95794 0.0
H68 H 0.55322 0.10771 0.06696 0.0
Cu69 Cu 0.52276 0.03911 0.51656 0.0
N70 N 0.52355 0.02943 0.49203 0.0
N71 N 0.53419 0.02643 0.4633 0.0
C72 C 0.53643 0.03555 0.48021 0.0
C73 C 0.5192 0.014 0.46468 0.0
C74 C 0.51269 0.01586 0.48243 0.0
O75 O 0.54397 0.04633 0.52892 0.0
C76 C 0.50376 0.04978 0.49934 0.0
O77 O 0.49651 0.03463 0.49369 0.0
H78 H 0.54732 0.04643 0.48424 0.0
H79 H 0.50086 0.00796 0.48782 0.0
N80 N 0.50701 0.02465 0.53372 0.0
N81 N 0.49036 0.01641 0.55993 0.0
C82 C 0.50075 0.02903 0.54901 0.0
C83 C 0.5003 0.00866 0.53482 0.0
C84 C 0.48996 0.00352 0.55096 0.0
C85 C 0.54608 0.04034 0.54518 0.0
O86 O 0.53389 0.03184 0.55681 0.0
H87 H 0.50397 0.04133 0.55214 0.0
H88 H 0.50305 1.00131 0.52499 0.0
O89 O 0.51661 0.05529 0.51003 0.0
H90 H 0.51321 0.00433 0.45357 0.0
H91 H 0.48312 0.99134 0.55609 0.0
Cu92 Cu 0.0383 0.5521 0.51345 0.0
N93 N 0.05143 0.54928 0.53233 0.0
N94 N 0.05744 0.53866 0.55894 0.0
C95 C 0.04576 0.53807 0.54688 0.0
C96 C 0.07105 0.55073 0.55165 0.0
C97 C 0.06732 0.55717 0.53513 0.0
O98 O 0.02156 0.53013 0.50744 0.0
C99 C 0.0428 0.57944 0.53268 0.0
O100 O 0.05733 0.58182 0.53229 0.0
H101 H 0.03322 0.52983 0.54881 0.0
H102 H 0.0756 0.56701 0.52599 0.0
N103 N 0.04842 0.56249 0.48947 0.0
N104 N 0.05242 0.5765 0.46082 0.0
C105 C 0.04314 0.57008 0.47721 0.0
C106 C 0.06158 0.56415 0.48065 0.0
C107 C 0.06406 0.57276 0.46298 0.0
C108 C 0.01985 0.52328 0.49008 0.0
O109 O 0.02683 0.53203 0.47417 0.0
H110 H 0.03245 0.57057 0.48018 0.0
H111 H 0.0688 0.5594 0.48657 0.0
O112 O 0.03144 0.5662 0.52568 0.0
H113 H 0.08286 0.55453 0.55769 0.0
H114 H 0.0738 0.57609 0.45267 0.0
Cu115 Cu 0.52144 0.54511 0.51144 0.0
N116 N 0.53914 0.54808 0.49699 0.0
N117 N 0.5637 0.56139 0.48461 0.0
C118 C 0.55318 0.56177 0.49759 0.0
C119 C 0.55586 0.54675 0.47548 0.0
C120 C 0.54069 0.53857 0.48313 0.0
O121 O 0.5294 0.55774 0.53666 0.0
C122 C 0.51121 0.55509 0.47614 0.0
O123 O 0.52612 0.56231 0.47065 0.0
H124 H 0.55531 0.57207 0.50679 0.0
H125 H 0.53135 0.52676 0.47847 0.0
N126 N 0.50824 0.52401 0.51898 0.0
N127 N 0.48589 0.50335 0.53044 0.0
C128 C 0.49422 0.51932 0.52778 0.0
C129 C 0.50907 0.51062 0.51604 0.0
C130 C 0.49527 0.49783 0.52314 0.0
C131 C 0.53686 0.553 0.54818 0.0
O132 O 0.53803 0.54061 0.54205 0.0
H133 H 0.49022 0.52761 0.53184 0.0
H134 H 0.51878 0.51011 0.50887 0.0
O135 O 0.50768 0.54945 0.49402 0.0
H136 H 0.56061 0.54228 0.46393 0.0
H137 H 0.49223 0.48541 0.52229 0.0
Cu138 Cu 0.70804 0.89801 0.33537 0.0
N139 N 0.71857 0.91899 0.326 0.0
N140 N 0.72145 0.9427 0.31758 0.0
C141 C 0.7112 0.92743 0.32254 0.0
C142 C 0.7359 0.94383 0.31774 0.0
C143 C 0.73409 0.92918 0.32301 0.0
O144 O 0.69501 0.89845 0.35821 0.0
C145 C 0.70791 0.88559 0.29738 0.0
O146 O 0.72289 0.8964 0.3007 0.0
H147 H 0.6985 0.92238 0.32389 0.0
H148 H 0.74344 0.92628 0.32493 0.0
N149 N 0.72197 0.89177 0.34612 0.0
N150 N 0.73022 0.87497 0.356 0.0
C151 C 0.71873 0.87649 0.34628 0.0
C152 C 0.73606 0.9003 0.35602 0.0
C153 C 0.74116 0.88992 0.36222 0.0
C154 C 0.70306 0.90975 0.37128 0.0
O155 O 0.71839 0.91879 0.36861 0.0
H156 H 0.70785 0.8666 0.33998 0.0
H157 H 0.74206 0.91307 0.35888 0.0
O158 O 0.69794 0.88383 0.31117 0.0
H159 H 0.74704 0.95455 0.31484 0.0
H160 H 0.752 0.89312 0.37072 0.0
Cu161 Cu 0.20375 0.88459 0.36251 0.0
N162 N 0.20316 0.86595 0.35308 0.0
N163 N 0.19172 0.84093 0.34055 0.0
C164 C 0.19008 0.85132 0.35281 0.0
C165 C 0.20644 0.84929 0.33291 0.0
C166 C 0.21352 0.86473 0.34078 0.0
O167 O 0.18472 0.87705 0.37919 0.0
C168 C 0.20055 0.89119 0.3207 0.0
O169 O 0.19117 0.87565 0.31871 0.0
H170 H 0.17904 0.84878 0.3598 0.0
H171 H 0.22484 0.87468 0.33648 0.0
N172 N 0.22212 0.89713 0.37844 0.0
N173 N 0.24348 0.91892 0.39147 0.0
C174 C 0.23205 0.913 0.37667 0.0
C175 C 0.22752 0.89282 0.39481 0.0
C176 C 0.24066 0.90625 0.40293 0.0
C177 C 0.18467 0.88246 0.39705 0.0
O178 O 0.19718 0.89575 0.4036 0.0
H179 H 0.23053 0.92016 0.36521 0.0
H180 H 0.22201 0.88084 0.40073 0.0
O181 O 0.20546 0.89732 0.33852 0.0
H182 H 0.21133 0.84482 0.32153 0.0
H183 H 0.24752 0.90667 0.41631 0.0
Cu184 Cu 0.19959 0.39883 0.34703 0.0
N185 N 0.19795 0.41032 0.32533 0.0
N186 N 0.1884 0.41458 0.29632 0.0
C187 C 0.18557 0.40463 0.31204 0.0
C188 C 0.20313 0.42708 0.29998 0.0
C189 C 0.20904 0.42436 0.31782 0.0
O190 O 0.17809 0.38476 0.35676 0.0
C191 C 0.21651 0.38889 0.3206 0.0
O192 O 0.21002 0.39271 0.30558 0.0
H193 H 0.1749 0.39315 0.31359 0.0
H194 H 0.22089 0.43168 0.32422 0.0
N195 N 0.2114 0.41207 0.36901 0.0
N196 N 0.22366 0.41812 0.39956 0.0
C197 C 0.21398 0.40634 0.38636 0.0
C198 C 0.21969 0.42812 0.37127 0.0
C199 C 0.22737 0.43189 0.39014 0.0
C200 C 0.17213 0.39201 0.36649 0.0
O201 O 0.18064 0.40763 0.36886 0.0
H202 H 0.20924 0.3937 0.3889 0.0
H203 H 0.22029 0.43648 0.36 0.0
O204 O 0.21184 0.38868 0.33877 0.0
H205 H 0.2095 0.43706 0.28994 0.0
H206 H 0.23509 0.4438 0.39641 0.0
Cu207 Cu 0.18104 0.3546 0.8672 0.0
N208 N 0.18101 0.34208 0.84523 0.0
N209 N 0.19064 0.33663 0.81729 0.0
C210 C 0.19332 0.34725 0.83255 0.0
C211 C 0.17593 0.32421 0.82054 0.0
C212 C 0.17001 0.32761 0.83783 0.0
O213 O 0.20278 0.36394 0.87882 0.0
C214 C 0.159 0.36114 0.85075 0.0
O215 O 0.1515 0.34545 0.85151 0.0
H216 H 0.20388 0.35889 0.83425 0.0
H217 H 0.15844 0.32018 0.84425 0.0
N218 N 0.16659 0.34296 0.8876 0.0
N219 N 0.1516 0.33906 0.91502 0.0
C220 C 0.16251 0.34988 0.90248 0.0
C221 C 0.15794 0.32713 0.89069 0.0
C222 C 0.14868 0.32468 0.90761 0.0
C223 C 0.20537 0.35453 0.8898 0.0
O224 O 0.19338 0.34036 0.89383 0.0
H225 H 0.16724 0.36267 0.90369 0.0
H226 H 0.15837 0.31801 0.88141 0.0
O227 O 0.17361 0.36885 0.85654 0.0
H228 H 0.16982 0.31346 0.8111 0.0
H229 H 0.14055 0.31321 0.91402 0.0
Cu230 Cu 0.68276 0.8764 0.83983 0.0
N231 N 0.67032 0.85591 0.82843 0.0
N232 N 0.66387 0.83124 0.81792 0.0
C233 C 0.67551 0.84549 0.82528 0.0
C234 C 0.65082 0.8328 0.81636 0.0
C235 C 0.65485 0.84806 0.82284 0.0
O236 O 0.69409 0.87388 0.86376 0.0
C237 C 0.68489 0.89219 0.80437 0.0
O238 O 0.66952 0.88324 0.80694 0.0
H239 H 0.68751 0.8482 0.82895 0.0
H240 H 0.64702 0.853 0.8236 0.0
N241 N 0.67039 0.88465 0.85019 0.0
N242 N 0.66466 0.90354 0.85935 0.0
C243 C 0.67553 0.90041 0.85128 0.0
C244 C 0.65566 0.87746 0.85787 0.0
C245 C 0.65213 0.88915 0.8637 0.0
C246 C 0.68453 0.86384 0.87659 0.0
O247 O 0.66926 0.8566 0.87211 0.0
H248 H 0.68721 0.90945 0.84654 0.0
H249 H 0.64804 0.86468 0.85922 0.0
O250 O 0.69432 0.89097 0.81719 0.0
H251 H 0.63921 0.82361 0.81091 0.0
H252 H 0.64122 0.88724 0.87049 0.0
Cu253 Cu 0.18128 0.88656 0.85716 0.0
N254 N 0.16899 0.86731 0.84251 0.0
N255 N 0.15479 0.85026 0.81692 0.0
C256 C 0.16257 0.86568 0.82362 0.0
C257 C 0.15644 0.84193 0.8323 0.0
C258 C 0.16523 0.85245 0.84794 0.0
O259 O 0.17227 0.9004 0.85366 0.0
C260 C 0.20525 0.90453 0.829 0.0
O261 O 0.19327 0.90341 0.81808 0.0
H262 H 0.16388 0.87569 0.81486 0.0
H263 H 0.16886 0.84947 0.86212 0.0
N264 N 0.18332 0.88368 0.88508 0.0
N265 N 0.19322 0.88949 0.91715 0.0
C266 C 0.1948 0.89456 0.89768 0.0
C267 C 0.17412 0.87123 0.89695 0.0
C268 C 0.18019 0.87477 0.9167 0.0
C269 C 0.15766 0.89642 0.85421 0.0
O270 O 0.1535 0.90711 0.84991 0.0
H271 H 0.20418 0.90596 0.89252 0.0
H272 H 0.16353 0.86048 0.89178 0.0
O273 O 0.20254 0.89771 0.84619 0.0
H274 H 0.15168 0.82912 0.83234 0.0
H275 H 0.17514 0.86722 0.92976 0.0
Cu276 Cu 0.37945 0.23158 0.69889 0.0
N277 N 0.38855 0.25232 0.68915 0.0
N278 N 0.38834 0.27414 0.67863 0.0
C279 C 0.37961 0.25896 0.68485 0.0
C280 C 0.40351 0.27717 0.67881 0.0
C281 C 0.40362 0.26364 0.68546 0.0
O282 O 0.367 0.23167 0.72257 0.0
C283 C 0.37857 0.2198 0.66054 0.0
O284 O 0.39347 0.23097 0.66346 0.0
H285 H 0.36681 0.25259 0.68616 0.0
H286 H 0.4139 0.2622 0.68754 0.0
N287 N 0.39425 0.22598 0.70803 0.0
N288 N 0.40333 0.20938 0.71529 0.0
C289 C 0.39141 0.21086 0.70691 0.0
C290 C 0.40856 0.2345 0.71742 0.0
C291 C 0.41417 0.22421 0.72206 0.0
C292 C 0.37533 0.24313 0.7353 0.0
O293 O 0.39056 0.25222 0.73188 0.0
H294 H 0.3805 0.20101 0.70062 0.0
H295 H 0.4144 0.24718 0.72093 0.0
O296 O 0.36885 0.21738 0.67495 0.0
H297 H 0.41377 0.28838 0.67477 0.0
H298 H 0.42528 0.22736 0.72984 0.0
Cu299 Cu 0.86247 0.20046 0.68915 0.0
N300 N 0.87825 0.20287 0.67089 0.0
N301 N 0.89482 0.21373 0.64475 0.0
C302 C 0.88218 0.21256 0.65475 0.0
C303 C 0.89888 0.20419 0.65509 0.0
C304 C 0.88868 0.19754 0.67122 0.0
O305 O 0.86947 0.22265 0.69771 0.0
C306 C 0.83975 0.17553 0.66564 0.0
O307 O 0.85173 0.17287 0.66463 0.0
H308 H 0.87589 0.2188 0.65075 0.0
H309 H 0.88911 0.18972 0.68259 0.0
N310 N 0.86062 0.18862 0.71261 0.0
N311 N 0.84922 0.17496 0.74081 0.0
C312 C 0.84724 0.18135 0.72356 0.0
C313 C 0.87142 0.18655 0.72321 0.0
C314 C 0.86445 0.17824 0.7407 0.0
C315 C 0.88289 0.22926 0.70722 0.0
O316 O 0.88956 0.22057 0.71096 0.0
H317 H 0.83641 0.18134 0.71936 0.0
H318 H 0.88364 0.19116 0.71892 0.0
O319 O 0.84172 0.18804 0.67522 0.0
H320 H 0.90882 0.20246 0.65174 0.0
H321 H 0.87016 0.17499 0.75252 0.0
Cu322 Cu 0.86941 0.72222 0.67614 0.0
N323 N 0.86768 0.73404 0.65497 0.0
N324 N 0.85923 0.73887 0.62544 0.0
C325 C 0.85619 0.72824 0.64037 0.0
C326 C 0.87308 0.75197 0.63107 0.0
C327 C 0.87831 0.74891 0.64925 0.0
O328 O 0.84788 0.70728 0.68516 0.0
C329 C 0.88602 0.71263 0.64862 0.0
O330 O 0.87866 0.71576 0.634 0.0
H331 H 0.84614 0.71619 0.64036 0.0
H332 H 0.88945 0.75667 0.65718 0.0
N333 N 0.88126 0.73556 0.69806 0.0
N334 N 0.89682 0.74353 0.72613 0.0
C335 C 0.88865 0.73156 0.71234 0.0
C336 C 0.88484 0.75061 0.70288 0.0
C337 C 0.89439 0.75555 0.72028 0.0
C338 C 0.84123 0.71333 0.69592 0.0
O339 O 0.84925 0.72868 0.7005 0.0
H340 H 0.88794 0.72 0.7126 0.0
H341 H 0.88083 0.75752 0.69433 0.0
O342 O 0.88207 0.71272 0.66709 0.0
H343 H 0.87943 0.76265 0.62217 0.0
H344 H 0.89939 0.76716 0.72778 0.0
Cu345 Cu 0.85532 0.7081 0.1644 0.0
N346 N 0.85677 0.69802 0.14059 0.0
N347 N 0.86835 0.69373 0.11373 0.0
C348 C 0.87045 0.70268 0.13075 0.0
C349 C 0.85264 0.68294 0.11291 0.0
C350 C 0.84553 0.68563 0.12947 0.0
O351 O 0.87604 0.71619 0.17851 0.0
C352 C 0.83347 0.71639 0.15115 0.0
O353 O 0.82574 0.70074 0.14896 0.0
H354 H 0.88175 0.71245 0.13617 0.0
H355 H 0.83304 0.6791 0.13298 0.0
N356 N 0.84002 0.69415 0.18249 0.0
N357 N 0.82473 0.68745 0.21004 0.0
C358 C 0.83676 0.69935 0.1999 0.0
C359 C 0.82978 0.6783 0.18146 0.0
C360 C 0.82033 0.67412 0.19849 0.0
C361 C 0.87796 0.70519 0.18647 0.0
O362 O 0.86627 0.69033 0.18499 0.0
H363 H 0.84319 0.71176 0.20489 0.0
H364 H 0.82906 0.6704 0.16914 0.0
O365 O 0.84804 0.7233 0.15716 0.0
H366 H 0.84659 0.67394 0.10101 0.0
H367 H 0.81073 0.66226 0.20175 0.0
Cu368 Cu 0.38018 0.22701 0.1992 0.0
N369 N 0.38766 0.21451 0.18696 0.0
N370 N 0.38802 0.19237 0.17707 0.0
C371 C 0.37981 0.19841 0.18659 0.0
C372 C 0.40163 0.20533 0.17124 0.0
C373 C 0.40137 0.21895 0.1774 0.0
O374 O 0.36985 0.21531 0.22432 0.0
C375 C 0.3655 0.22677 0.16039 0.0
O376 O 0.36868 0.21549 0.15517 0.0
H377 H 0.36815 0.19133 0.19297 0.0
H378 H 0.41055 0.23121 0.17514 0.0
N379 N 0.39707 0.24719 0.20648 0.0
N380 N 0.4095 0.27332 0.21437 0.0
C381 C 0.39612 0.26065 0.20672 0.0
C382 C 0.41161 0.25145 0.21407 0.0
C383 C 0.41931 0.26759 0.21904 0.0
C384 C 0.37377 0.22154 0.24231 0.0
O385 O 0.38262 0.23715 0.24433 0.0
H386 H 0.38546 0.26091 0.20236 0.0
H387 H 0.41607 0.24329 0.21646 0.0
O388 O 0.36774 0.23173 0.179 0.0
H389 H 0.4112 0.20505 0.16332 0.0
H390 H 0.43107 0.27448 0.2259 0.0
Cu391 Cu 0.86151 0.21989 0.18911 0.0
N392 N 0.85654 0.20335 0.17029 0.0
N393 N 0.84465 0.18667 0.14364 0.0
C394 C 0.84493 0.19818 0.15588 0.0
C395 C 0.85659 0.18454 0.15071 0.0
C396 C 0.8639 0.19485 0.16716 0.0
O397 O 0.84141 0.21887 0.19494 0.0
C398 C 0.88168 0.25367 0.18279 0.0
O399 O 0.87455 0.25596 0.19832 0.0
H400 H 0.83717 0.20316 0.15408 0.0
H401 H 0.874 0.19623 0.17603 0.0
N402 N 0.87029 0.21687 0.21307 0.0
N403 N 0.88305 0.22251 0.24337 0.0
C404 C 0.88026 0.22848 0.22623 0.0
C405 C 0.86678 0.20302 0.22199 0.0
C406 C 0.87468 0.20645 0.24067 0.0
C407 C 0.83706 0.22018 0.21278 0.0
O408 O 0.84743 0.22504 0.22803 0.0
H409 H 0.88499 0.24107 0.22352 0.0
H410 H 0.85856 0.19127 0.21572 0.0
O411 O 0.87722 0.23949 0.17656 0.0
H412 H 0.85983 0.17614 0.14446 0.0
H413 H 0.87371 0.1978 0.25178 0.0
Co414 Co 0.02528 0.66676 0.25992 0.0
O415 O 0.03546 0.65617 0.27263 0.0
O416 O 0.01884 0.66185 0.2883 0.0
C417 C 0.01805 0.65179 0.2306 0.0
O418 O 0.01198 0.67703 0.25107 0.0
Co419 Co 0.03914 0.68534 0.22002 0.0
O420 O 0.01983 0.68745 0.21991 0.0
C421 C 0.0565 0.6981 0.25896 0.0
C422 C 0.02804 0.6556 0.28918 0.0
C423 C 0.01056 0.68396 0.23501 0.0
O424 O 0.04396 0.6883 0.26861 0.0
O425 O 0.0576 0.6976 0.23954 0.0
O426 O 0.00939 0.64655 0.24674 0.0
O427 O 0.03126 0.66503 0.2333 0.0
Co428 Co 0.41128 0.44763 0.27636 0.0
O429 O 0.43113 0.45806 0.26207 0.0
O430 O 0.40754 0.45018 0.24786 0.0
C431 C 0.41985 0.46461 0.30376 0.0
O432 O 0.38825 0.43718 0.286 0.0
Co433 Co 0.40847 0.43247 0.31878 0.0
O434 O 0.387 0.43013 0.31882 0.0
C435 C 0.41217 0.41689 0.28177 0.0
C436 C 0.42286 0.45714 0.24585 0.0
C437 C 0.38053 0.43174 0.30265 0.0
O438 O 0.40931 0.42602 0.27035 0.0
O439 O 0.4138 0.41866 0.30124 0.0
O440 O 0.41528 0.46845 0.28707 0.0
O441 O 0.42023 0.45144 0.30281 0.0
Co442 Co 0.65264 0.07131 0.26551 0.0
O443 O 0.63423 0.05517 0.27903 0.0
O444 O 0.6543 0.0761 0.29461 0.0
C445 C 0.63915 0.07486 0.2397 0.0
O446 O 0.67326 0.09071 0.25638 0.0
Co447 Co 0.66029 0.06504 0.22156 0.0
O448 O 0.6755 0.08837 0.22252 0.0
C449 C 0.66644 0.04965 0.25652 0.0
C450 C 0.64044 0.06326 0.29586 0.0
C451 C 0.68007 0.09642 0.23927 0.0
O452 O 0.66359 0.05826 0.26908 0.0
O453 O 0.66449 0.04968 0.23713 0.0
O454 O 0.64094 0.08205 0.25724 0.0
O455 O 0.64428 0.06482 0.23897 0.0
Co456 Co 0.02763 0.41674 0.75434 0.0
O457 O 0.01882 0.42703 0.73759 0.0
O458 O 0.04405 0.43345 0.73824 0.0
C459 C 0.00784 0.39136 0.74644 0.0
O460 O 0.04162 0.40895 0.76847 0.0
Co461 Co 0.01021 0.39469 0.79033 0.0
O462 O 0.02734 0.38926 0.79015 0.0
C463 C 0.02496 0.42991 0.79564 0.0
C464 C 0.03301 0.43585 0.7306 0.0
C465 C 0.04021 0.39802 0.78089 0.0
O466 O 0.03126 0.43228 0.77784 0.0
O467 O 0.01572 0.41599 0.80261 0.0
O468 O 0.01974 0.39885 0.73431 0.0
O469 O 0.00802 0.39949 0.7623 0.0
Co470 Co 0.65074 0.65906 0.75821 0.0
O471 O 0.63109 0.65078 0.7728 0.0
O472 O 0.64687 0.64039 0.77351 0.0
C473 C 0.65972 0.68485 0.76776 0.0
O474 O 0.67234 0.6645 0.74635 0.0
Co475 Co 0.65983 0.68371 0.72362 0.0
O476 O 0.681 0.68553 0.72566 0.0
C477 C 0.63631 0.64955 0.71532 0.0
C478 C 0.63416 0.64014 0.78012 0.0
C479 C 0.6831 0.67521 0.73504 0.0
O480 O 0.63882 0.64558 0.73317 0.0
O481 O 0.64277 0.66403 0.7094 0.0
O482 O 0.66158 0.6753 0.77988 0.0
O483 O 0.6519 0.6784 0.75099 0.0
Co484 Co 0.39594 0.03688 0.75752 0.0
O485 O 0.41571 0.0453 0.74331 0.0
O486 O 0.39592 0.02035 0.74039 0.0
C487 C 0.39248 0.05789 0.75069 0.0
O488 O 0.37346 0.02376 0.76868 0.0
Co489 Co 0.39108 0.05436 0.79443 0.0
O490 O 0.36826 0.03876 0.79023 0.0
C491 C 0.40879 0.03691 0.79996 0.0
C492 C 0.40997 0.03122 0.73478 0.0
C493 C 0.36383 0.02592 0.77987 0.0
O494 O 0.40555 0.03134 0.78146 0.0
O495 O 0.40479 0.0467 0.80739 0.0
O496 O 0.38818 0.04635 0.73728 0.0
O497 O 0.39921 0.05669 0.76714 0.0
Co498 Co 0.6904 0.98906 0.59105 0.0
O499 O 0.70195 0.98067 0.60625 0.0
O500 O 0.68243 0.98338 0.61865 0.0
C501 C 0.68686 0.97433 0.56169 0.0
O502 O 0.67507 0.99649 0.58043 0.0
Co503 Co 0.70287 0.00774 0.55086 0.0
O504 O 0.68191 0.00654 0.54901 0.0
C505 C 0.71749 0.02371 0.59058 0.0
C506 C 0.69284 0.97882 0.62156 0.0
C507 C 0.67258 1.00241 0.56408 0.0
O508 O 0.7065 0.01187 0.60038 0.0
O509 O 0.71876 0.02348 0.57114 0.0
O510 O 0.67746 0.96805 0.577 0.0
O511 O 0.69849 0.98862 0.56515 0.0
Co512 Co 0.07803 0.76843 0.58882 0.0
O513 O 0.09745 0.77816 0.57354 0.0
O514 O 0.07439 0.77431 0.56173 0.0
C515 C 0.08908 0.78287 0.61817 0.0
O516 O 0.05564 0.75946 0.6002 0.0
Co517 Co 0.07492 0.74965 0.62862 0.0
O518 O 0.05492 0.75021 0.6318 0.0
C519 C 0.0736 0.7349 0.58813 0.0
C520 C 0.08948 0.77997 0.55876 0.0
C521 C 0.04847 0.75364 0.6171 0.0
O522 O 0.07272 0.74618 0.57879 0.0
O523 O 0.0761 0.73518 0.60743 0.0
O524 O 0.08484 0.78893 0.60339 0.0
O525 O 0.08761 0.7691 0.61412 0.0
Co526 Co 0.29592 0.37699 0.60657 0.0
O527 O 0.27714 0.36305 0.62121 0.0
O528 O 0.29892 0.383 0.63541 0.0
C529 C 0.28352 0.38165 0.58045 0.0
O530 O 0.31733 0.39397 0.59574 0.0
Co531 Co 0.30034 0.36606 0.56339 0.0
O532 O 0.31777 0.38859 0.56226 0.0
C533 C 0.30756 0.35306 0.59986 0.0
C534 C 0.28446 0.37125 0.63757 0.0
C535 C 0.32384 0.39758 0.57808 0.0
O536 O 0.30477 0.3623 0.61125 0.0
O537 O 0.30534 0.35186 0.58044 0.0
O538 O 0.2864 0.38962 0.5976 0.0
O539 O 0.28657 0.37004 0.58052 0.0
Co540 Co 0.69538 0.77123 0.08381 0.0
O541 O 0.68433 0.77956 0.06752 0.0
O542 O 0.71026 0.78957 0.06806 0.0
C543 C 0.67856 0.74498 0.07484 0.0
O544 O 0.71139 0.76571 0.09722 0.0
Co545 Co 0.6795 0.74749 0.11896 0.0
O546 O 0.69852 0.74495 0.11807 0.0
C547 C 0.68869 0.78157 0.12513 0.0
C548 C 0.69802 0.78991 0.06037 0.0
C549 C 0.71107 0.75484 0.10894 0.0
O550 O 0.6967 0.78534 0.1084 0.0
O551 O 0.68005 0.76706 0.13064 0.0
O552 O 0.68998 0.75427 0.06292 0.0
O553 O 0.67713 0.75198 0.0909 0.0
Co554 Co 0.30922 0.99771 0.12528 0.0
O555 O 0.28977 0.99109 0.13976 0.0
O556 O 0.30338 0.97836 0.14051 0.0
C557 C 0.32073 0.02385 0.13507 0.0
O558 O 0.3303 1.00153 0.11325 0.0
Co559 Co 0.31957 0.02274 0.09087 0.0
O560 O 0.34051 0.02434 0.09561 0.0
C561 C 0.29402 0.9893 0.08252 0.0
C562 C 0.29133 0.97948 0.147 0.0
C563 C 0.34186 0.01316 0.10388 0.0
O564 O 0.29666 0.98489 0.10002 0.0
O565 O 0.3011 0.00392 0.07703 0.0
O566 O 0.32128 0.0135 0.14708 0.0
O567 O 0.31236 0.01793 0.11853 0.0
Co568 Co 0.06405 0.38976 0.09425 0.0
O569 O 0.08274 0.39643 0.07811 0.0
O570 O 0.06403 0.37129 0.08235 0.0
C571 C 0.05793 0.40784 0.08183 0.0
O572 O 0.04274 0.37804 0.10864 0.0
Co573 Co 0.06102 0.41236 0.12581 0.0
O574 O 0.03851 0.39522 0.12728 0.0
C575 C 0.08284 0.3999 0.13391 0.0
C576 C 0.07731 0.38137 0.07394 0.0
C577 C 0.03381 0.38129 0.11978 0.0
O578 O 0.07617 0.38935 0.11941 0.0
O579 O 0.07951 0.41099 0.13739 0.0
O580 O 0.05374 0.39461 0.07167 0.0
O581 O 0.06643 0.41009 0.09812 0.0
Co582 Co 0.36096 0.32488 0.9521 0.0
O583 O 0.37218 0.31665 0.96827 0.0
O584 O 0.35229 0.3193 0.9794 0.0
C585 C 0.35804 0.30992 0.92324 0.0
O586 O 0.34565 0.33198 0.94036 0.0
Co587 Co 0.37377 0.34313 0.91173 0.0
O588 O 0.35256 0.34113 0.90858 0.0
C589 C 0.38709 0.36014 0.95139 0.0
C590 C 0.36259 0.3147 0.98302 0.0
C591 C 0.3431 0.33725 0.92347 0.0
O592 O 0.37695 0.34782 0.96137 0.0
O593 O 0.38816 0.36012 0.93192 0.0
O594 O 0.34834 0.30379 0.9383 0.0
O595 O 0.36959 0.32428 0.92662 0.0
Co596 Co 0.7311 0.09574 0.93805 0.0
O597 O 0.74963 0.1003 0.92259 0.0
O598 O 0.72945 0.10253 0.91065 0.0
C599 C 0.74485 0.10945 0.96658 0.0
O600 O 0.71002 0.09224 0.94966 0.0
Co601 Co 0.72373 0.07675 0.97839 0.0
O602 O 0.70769 0.08349 0.98184 0.0
C603 C 0.71633 0.05952 0.93838 0.0
C604 C 0.74332 0.10396 0.90755 0.0
C605 C 0.70277 0.08829 0.96686 0.0
O606 O 0.72044 0.07256 0.92877 0.0
O607 O 0.71772 0.05899 0.9578 0.0
O608 O 0.74269 0.11688 0.95155 0.0
O609 O 0.73964 0.09441 0.96333 0.0
Co610 Co 0.99173 0.72362 0.92642 0.0
O611 O 0.97336 0.70851 0.94097 0.0
O612 O 0.99398 0.72969 0.95524 0.0
C613 C 0.97805 0.72669 0.9004 0.0
O614 O 0.01245 0.74218 0.91577 0.0
Co615 Co 0.99778 0.71479 0.8829 0.0
O616 O 0.01298 0.73805 0.88194 0.0
C617 C 1.00523 0.70138 0.91901 0.0
C618 C 0.9799 0.71727 0.95724 0.0
C619 C 0.01845 0.7469 0.89797 0.0
O620 O 1.00216 0.71017 0.93099 0.0
O621 O 1.00313 0.70075 0.8996 0.0
O622 O 0.9805 0.73463 0.91747 0.0
O623 O 0.9826 0.71618 0.90031 0.0
Co624 Co 0.36915 0.112 0.44271 0.0
O625 O 0.35713 0.11954 0.4271 0.0
O626 O 0.38322 0.13112 0.42746 0.0
C627 C 0.3538 0.08586 0.43282 0.0
O628 O 0.38577 0.10707 0.45573 0.0
Co629 Co 0.35336 0.08725 0.4771 0.0
O630 O 0.3728 0.08554 0.47547 0.0
C631 C 0.36125 0.12077 0.48431 0.0
C632 C 0.37048 0.13063 0.42004 0.0
C633 C 0.38541 0.09585 0.46681 0.0
O634 O 0.36955 0.12515 0.46785 0.0
O635 O 0.35287 0.1061 0.48929 0.0
O636 O 0.36489 0.09591 0.42109 0.0
O637 O 0.35161 0.09212 0.44907 0.0
Co638 Co 0.98675 0.33781 0.45362 0.0
O639 O 0.96789 0.32788 0.47001 0.0
O640 O 0.98603 0.32045 0.46908 0.0
C641 C 0.99332 0.36339 0.46189 0.0
O642 O 0.00806 0.3452 0.43974 0.0
Co643 Co 0.99092 0.3604 0.41783 0.0
O644 O 0.01284 0.364 0.41655 0.0
C645 C 0.96908 0.32549 0.41314 0.0
C646 C 0.97287 0.31847 0.47665 0.0
C647 C 0.01705 0.35537 0.42646 0.0
O648 O 0.97471 0.32285 0.42969 0.0
O649 O 0.9729 0.33956 0.40727 0.0
O650 O 0.99718 0.3553 0.47415 0.0
O651 O 0.985 0.35557 0.446 0.0
Co652 Co 0.74307 0.71607 0.41526 0.0
O653 O 0.76178 0.72561 0.39869 0.0
O654 O 0.74486 0.69963 0.40046 0.0
C655 C 0.73489 0.73345 0.40631 0.0
O656 O 0.72215 0.70148 0.42913 0.0
Co657 Co 0.73704 0.73401 0.45045 0.0
O658 O 0.71564 0.71479 0.45179 0.0
C659 C 0.76171 0.72475 0.45488 0.0
C660 C 0.75751 0.71115 0.39244 0.0
C661 C 0.71247 0.70205 0.44192 0.0
O662 O 0.75597 0.71519 0.43923 0.0
O663 O 0.75685 0.73437 0.46029 0.0
O664 O 0.73164 0.72122 0.39449 0.0
O665 O 0.74344 0.73511 0.42235 0.0
C666 C 0.03931 0.51822 0.02285 0.0
C667 C 0.02394 0.51559 0.02634 0.0
C668 C 0.04359 0.50699 0.02907 0.0
C669 C 0.03275 0.4741 0.06484 0.0
H670 H 0.05304 0.45922 0.02664 0.0
C671 C 0.05688 0.43278 0.08853 0.0
C672 C 0.05354 0.4198 0.0754 0.0
C673 C 0.05344 0.44457 0.08248 0.0
C674 C 0.0473 0.46321 0.03741 0.0
H675 H 1.00117 0.49938 0.03954 0.0
H676 H 0.00869 0.48003 0.05055 0.0
H677 H 0.04736 0.4803 0.01665 0.0
H678 H 0.04399 0.40897 0.04563 0.0
H679 H 0.03798 0.42973 0.03496 0.0
H680 H 0.03256 0.457 0.08553 0.0
C681 C 0.01743 0.4907 0.043 0.0
C682 C 0.04423 0.47539 0.03179 0.0
C683 C 0.01311 0.50177 0.03659 0.0
C684 C 0.04663 0.41882 0.05608 0.0
C685 C 0.04331 0.43074 0.04993 0.0
C686 C 0.03595 0.46206 0.07051 0.0
C687 C 0.03264 0.49309 0.03915 0.0
C688 C 0.03682 0.48087 0.04541 0.0
C689 C 0.04669 0.44374 0.0631 0.0
C690 C 0.04319 0.45643 0.05684 0.0
H691 H 0.04787 0.52873 0.01489 0.0
H692 H 0.05544 0.50919 0.02605 0.0
H693 H 0.02711 0.47814 0.07569 0.0
H694 H 0.06225 0.43393 0.1035 0.0
H695 H 0.05633 0.45451 0.09288 0.0
C696 C 0.5877 0.59947 0.04823 0.0
C697 C 0.57384 0.59547 0.03671 0.0
C698 C 0.59927 0.6155 0.05204 0.0
C699 C 0.61415 0.6568 0.03342 0.0
H700 H 0.63442 0.6693 0.08707 0.0
C701 C 0.66774 0.72054 0.05156 0.0
C702 C 0.66753 0.72765 0.07034 0.0
C703 C 0.65669 0.70438 0.04716 0.0
C704 C 0.62886 0.66606 0.07201 0.0
H705 H 0.5614 0.60539 0.02008 0.0
H706 H 0.58155 0.63335 0.02676 0.0
H707 H 0.61421 0.64154 0.08008 0.0
H708 H 0.65558 0.72321 0.0993 0.0
H709 H 0.63648 0.69522 0.09172 0.0
H710 H 0.62868 0.68142 0.02548 0.0
C711 C 0.58353 0.62405 0.03275 0.0
C712 C 0.61734 0.65006 0.06793 0.0
C713 C 0.5719 0.60799 0.02903 0.0
C714 C 0.65615 0.71815 0.0847 0.0
C715 C 0.64521 0.70202 0.08038 0.0
C716 C 0.62576 0.67281 0.03748 0.0
C717 C 0.59738 0.62805 0.04436 0.0
C718 C 0.60976 0.64518 0.0486 0.0
C719 C 0.64523 0.69489 0.06151 0.0
C720 C 0.63323 0.6777 0.05688 0.0
H721 H 0.58968 0.59021 0.05436 0.0
H722 H 0.60984 0.61806 0.06081 0.0
H723 H 0.60872 0.6535 0.0183 0.0
H724 H 0.67632 0.7275 0.04014 0.0
H725 H 0.6572 0.69928 0.03256 0.0
C726 C 0.46957 0.02863 0.04812 0.0
C727 C 0.4794 0.04532 0.04691 0.0
C728 C 0.45454 0.02209 0.05713 0.0
C729 C 0.43169 0.03306 0.09255 0.0
H730 H 0.39393 1.00086 0.06358 0.0
C731 C 0.37129 0.02881 0.10079 0.0
C732 C 0.3574 0.01382 0.10197 0.0
C733 C 0.38594 0.02995 0.09714 0.0
C734 C 0.40437 0.00962 0.07208 0.0
H735 H 0.48117 0.06814 0.05452 0.0
H736 H 0.45543 0.05689 0.07003 0.0
H737 H 0.4203 0.00767 0.05124 0.0
H738 H 0.34807 0.98821 0.10047 0.0
H739 H 0.37392 0.99022 0.09361 0.0
H740 H 0.4159 0.03557 0.11283 0.0
C741 C 0.4592 0.04877 0.06422 0.0
C742 C 0.41947 0.01353 0.06501 0.0
C743 C 0.47398 0.05524 0.05512 0.0
C744 C 0.35859 0.99992 0.09978 0.0
C745 C 0.37333 1.00107 0.09571 0.0
C746 C 0.41668 0.02922 0.09953 0.0
C747 C 0.44924 0.03214 0.06538 0.0
C748 C 0.43331 0.02573 0.07475 0.0
C749 C 0.38716 0.01614 0.09428 0.0
C750 C 0.40283 0.01787 0.08899 0.0
H751 H 0.47337 0.02066 0.04188 0.0
H752 H 0.44713 0.00921 0.05778 0.0
H753 H 0.44208 0.04226 0.1007 0.0
H754 H 0.3708 0.03975 0.10246 0.0
H755 H 0.39629 0.04173 0.0959 0.0
C756 C 0.48591 0.05451 0.47645 0.0
C757 C 0.49608 0.05934 0.49376 0.0
C758 C 0.4762 0.06108 0.47246 0.0
C759 C 0.46735 0.0935 0.48506 0.0
H760 H 0.42428 0.06037 0.47123 0.0
C761 C 0.41461 0.10465 0.46096 0.0
C762 C 0.39994 0.09434 0.46998 0.0
C763 C 0.42775 0.10229 0.46373 0.0
C764 C 0.43623 0.06982 0.47509 0.0
H765 H 0.50464 0.07563 0.51989 0.0
H766 H 0.48742 0.08717 0.51297 0.0
H767 H 0.44479 0.05329 0.47629 0.0
H768 H 0.38803 0.07376 0.4896 0.0
H769 H 0.41052 0.06977 0.49418 0.0
H770 H 0.45844 0.10998 0.48404 0.0
C771 C 0.48711 0.07828 0.50241 0.0
C772 C 0.44808 0.06576 0.47783 0.0
C773 C 0.49699 0.0717 0.50638 0.0
C774 C 0.39896 0.08192 0.48216 0.0
C775 C 0.41193 0.07955 0.48479 0.0
C776 C 0.45542 0.09761 0.48211 0.0
C777 C 0.47618 0.07263 0.48575 0.0
C778 C 0.46382 0.07749 0.48289 0.0
C779 C 0.42644 0.08949 0.4754 0.0
C780 C 0.43965 0.08575 0.47729 0.0
H781 H 0.48503 0.04518 0.46623 0.0
H782 H 0.46829 0.05671 0.45921 0.0
H783 H 0.47935 0.10285 0.48886 0.0
H784 H 0.41589 0.11436 0.45155 0.0
H785 H 0.43877 0.11016 0.45625 0.0
C786 C 0.01021 0.49797 0.46948 0.0
C787 C 0.01359 0.50575 0.48868 0.0
C788 C 0.00729 0.48227 0.46759 0.0
C789 C 0.99895 0.44587 0.49681 0.0
H790 H 0.01793 0.43775 0.44971 0.0
C791 C 1.00227 0.38743 0.48535 0.0
C792 C 0.99737 0.38019 0.46585 0.0
C793 C 1.00465 0.40286 0.48911 0.0
C794 C 0.01249 0.43978 0.4629 0.0
H795 H 0.01583 0.50279 0.52113 0.0
H796 H 0.01098 0.4755 0.51782 0.0
H797 H 0.02012 0.46382 0.45441 0.0
H798 H 0.99152 0.38362 0.43493 0.0
H799 H 0.99589 0.41041 0.44136 0.0
H800 H 0.99153 0.42173 0.50531 0.0
C801 C 0.01037 0.48143 0.50419 0.0
C802 C 0.01364 0.45473 0.46555 0.0
C803 C 0.01313 0.49713 0.5061 0.0
C804 C 0.99532 0.38884 0.45012 0.0
C805 C 0.99788 0.40425 0.45379 0.0
C806 C 0.9979 0.4309 0.49422 0.0
C807 C 0.00786 0.47395 0.48483 0.0
C808 C 0.00671 0.45795 0.48238 0.0
C809 C 1.00242 0.41141 0.47335 0.0
C810 C 1.0045 0.42763 0.47708 0.0
H811 H 0.01036 0.50423 0.45577 0.0
H812 H 1.00494 0.47678 0.45248 0.0
H813 H 0.99338 0.44783 0.50989 0.0
H814 H 1.00386 0.38102 0.4978 0.0
H815 H 0.00826 0.4081 0.50431 0.0
C816 C 0.58696 0.57494 0.46204 0.0
C817 C 0.57946 0.57441 0.48051 0.0
C818 C 0.60183 0.58804 0.4577 0.0
C819 C 0.6367 0.62352 0.48222 0.0
H820 H 0.64437 0.63957 0.42705 0.0
C821 C 0.68812 0.68618 0.46273 0.0
C822 C 0.69726 0.68718 0.44572 0.0
C823 C 0.67407 0.67201 0.4667 0.0
C824 C 0.64245 0.63514 0.44249 0.0
H825 H 0.58225 0.58712 0.50923 0.0
H826 H 0.60767 0.61004 0.50138 0.0
H827 H 0.61947 0.61544 0.43461 0.0
H828 H 0.69858 0.67406 0.41935 0.0
H829 H 0.67392 0.6494 0.42621 0.0
H830 H 0.65954 0.64352 0.49014 0.0
C831 C 0.60221 0.60027 0.4903 0.0
C832 C 0.62821 0.62126 0.44683 0.0
C833 C 0.58743 0.58716 0.49469 0.0
C834 C 0.69187 0.67372 0.43262 0.0
C835 C 0.6777 0.6596 0.43647 0.0
C836 C 0.65086 0.63748 0.47791 0.0
C837 C 0.60958 0.60097 0.47169 0.0
C838 C 0.62508 0.61531 0.4668 0.0
C839 C 0.66872 0.65856 0.45365 0.0
C840 C 0.65385 0.64349 0.45803 0.0
H841 H 0.58122 0.56543 0.45068 0.0
H842 H 0.60724 0.58801 0.44334 0.0
H843 H 0.63491 0.61916 0.49767 0.0
H844 H 0.69191 0.69629 0.47316 0.0
H845 H 0.6673 0.67162 0.47994 0.0
C846 C 0.04113 0.6065 0.9914 0.0
C847 C 0.04166 0.59726 0.97496 0.0
C848 C 0.04116 0.6208 0.98789 0.0
C849 C 0.04721 0.65065 0.94826 0.0
H850 H 0.01274 0.65226 0.97545 0.0
C851 C 0.01674 0.68337 0.91471 0.0
C852 C 0.01182 0.69169 0.92778 0.0
C853 C 0.02295 0.67421 0.92259 0.0
C854 C 0.02261 0.6522 0.968 0.0
H855 H 0.04401 0.59652 0.94212 0.0
H856 H 0.04402 0.62135 0.93601 0.0
H857 H 0.0201 0.63255 0.9856 0.0
H858 H 0.00973 0.69691 0.95955 0.0
H859 H 0.02059 0.68077 0.97336 0.0
H860 H 0.04935 0.66997 0.9302 0.0
C861 C 0.04358 0.6176 0.95163 0.0
C862 C 0.02687 0.64091 0.97383 0.0
C863 C 0.04353 0.6033 0.95513 0.0
C864 C 0.01337 0.69065 0.94903 0.0
C865 C 0.01955 0.68137 0.95694 0.0
C866 C 0.04296 0.66194 0.94242 0.0
C867 C 0.04179 0.6262 0.96789 0.0
C868 C 0.03895 0.63973 0.96368 0.0
C869 C 0.02441 0.67305 0.94378 0.0
C870 C 0.03033 0.66256 0.95185 0.0
H871 H 0.0398 0.60228 0.00691 0.0
H872 H 0.04007 0.6273 1.00078 0.0
H873 H 0.05674 0.65024 0.94036 0.0
H874 H 0.01576 0.68385 0.89826 0.0
H875 H 0.02628 0.66772 0.91201 0.0
C876 C 0.48935 0.49712 0.99564 0.0
C877 C 0.50043 0.49959 0.0113 0.0
C878 C 0.47646 0.48179 0.99133 0.0
C879 C 0.46173 0.43829 0.99964 0.0
H880 H 0.42166 0.43401 0.98131 0.0
C881 C 0.40507 0.37627 0.98132 0.0
C882 C 0.39797 0.37555 0.9622 0.0
C883 C 0.41679 0.39109 0.98976 0.0
C884 C 0.43277 0.43498 0.98641 0.0
H885 H 0.50648 0.48774 0.03481 0.0
H886 H 0.48392 0.46118 0.02761 0.0
H887 H 0.44371 0.46034 0.99084 0.0
H888 H 0.39706 0.38988 0.93747 0.0
H889 H 0.41701 0.41541 0.95221 0.0
H890 H 0.45062 0.41282 0.99513 0.0
C891 C 0.48531 0.471 0.01832 0.0
C892 C 0.4455 0.45014 0.99175 0.0
C893 C 0.49826 0.48631 0.02253 0.0
C894 C 0.40233 0.38997 0.95219 0.0
C895 C 0.41373 0.40466 0.96071 0.0
C896 C 0.44892 0.42308 0.99443 0.0
C897 C 0.47417 0.46848 1.00267 0.0
C898 C 0.4603 0.4521 0.99809 0.0
C899 C 0.42133 0.40546 0.97944 0.0
C900 C 0.43436 0.42128 0.98738 0.0
H901 H 0.49066 0.50703 0.9866 0.0
H902 H 0.46838 0.48038 0.97889 0.0
H903 H 0.47292 0.43924 1.00423 0.0
H904 H 0.40203 0.36538 0.98935 0.0
H905 H 0.42237 0.39131 1.00428 0.0
C906 C 0.56622 0.05078 0.01003 0.0
C907 C 0.55564 0.04793 0.99354 0.0
C908 C 0.58193 0.05459 0.00659 0.0
C909 C 0.61269 0.07185 0.96705 0.0
H910 H 0.63532 0.05752 1.0022 0.0
C911 C 0.67712 0.08472 0.95182 0.0
C912 C 0.68701 0.08716 0.96897 0.0
C913 C 0.66116 0.08053 0.95426 0.0
C914 C 0.62926 0.06183 0.99238 0.0
H915 H 0.55317 0.04603 0.96049 0.0
H916 H 0.58042 0.05241 0.95454 0.0
H917 H 0.60721 0.0478 0.00749 0.0
H918 H 0.68813 0.08828 1.00211 0.0
H919 H 0.66064 0.08144 0.00631 0.0
H920 H 0.6348 0.08594 0.952 0.0
C921 C 0.57667 0.05203 0.97014 0.0
C922 C 0.61309 0.0562 0.9954 0.0
C923 C 0.56097 0.0482 0.97357 0.0
C924 C 0.68083 0.08631 0.98854 0.0
C925 C 0.66498 0.08222 0.99097 0.0
C926 C 0.6289 0.07751 0.96404 0.0
C927 C 0.58748 0.05566 0.98657 0.0
C928 C 0.60459 0.06118 0.98285 0.0
C929 C 0.65477 0.07876 0.9739 0.0
C930 C 0.63744 0.07267 0.97677 0.0
H931 H 0.5626 0.05079 0.02562 0.0
H932 H 0.58991 0.0574 0.01963 0.0
H933 H 0.6066 0.07615 0.95727 0.0
H934 H 0.68145 0.08516 0.93653 0.0
H935 H 0.65366 0.07794 0.94076 0.0
C936 C 0.57209 0.0433 0.53334 0.0
C937 C 0.56108 0.03995 0.54894 0.0
C938 C 0.58469 0.04019 0.53592 0.0
C939 C 0.59625 0.01517 0.56696 0.0
H940 H 0.63733 0.0411 0.54265 0.0
C941 C 0.64936 0.00358 0.57976 0.0
C942 C 0.65903 0.00566 0.56289 0.0
C943 C 0.6375 0.0079 0.57873 0.0
C944 C 0.62587 0.03361 0.54939 0.0
H945 H 0.55531 0.03149 0.57992 0.0
H946 H 0.57737 0.02651 0.58459 0.0
H947 H 0.61723 0.04913 0.53983 0.0
H948 H 0.66329 0.01356 0.53149 0.0
H949 H 0.64273 0.02083 0.52973 0.0
H950 H 0.6049 0.99963 0.57648 0.0
C951 C 0.57608 0.03112 0.57012 0.0
C952 C 0.6143 0.03824 0.54776 0.0
C953 C 0.56348 0.03415 0.56751 0.0
C954 C 0.65623 0.01184 0.54489 0.0
C955 C 0.64446 0.01617 0.5439 0.0
C956 C 0.60783 0.01056 0.56864 0.0
C957 C 0.58667 0.0337 0.5542 0.0
C958 C 0.59926 0.02906 0.55643 0.0
C959 C 0.63502 0.01447 0.56085 0.0
C960 C 0.62279 0.01964 0.55974 0.0
H961 H 0.57055 0.0476 0.51876 0.0
H962 H 0.59248 0.04225 0.52323 0.0
H963 H 0.58475 0.00758 0.57355 0.0
H964 H 0.65116 0.99893 0.5939 0.0
H965 H 0.63054 0.00648 0.59215 0.0
C966 C 0.05064 0.60327 0.55491 0.0
C967 C 0.04057 0.59286 0.53941 0.0
C968 C 0.05104 0.61766 0.55922 0.0
C969 C 0.04548 0.64852 0.53521 0.0
H970 H 0.05133 0.6647 0.59099 0.0
C971 C 0.05878 0.7131 0.56144 0.0
C972 C 0.07048 0.72008 0.57704 0.0
C973 C 0.05342 0.69727 0.55468 0.0
C974 C 0.04974 0.66038 0.5753 0.0
H975 H 0.02278 0.58916 0.51641 0.0
H976 H 0.02353 0.61464 0.5239 0.0
H977 H 0.04339 0.63677 0.58455 0.0
H978 H 0.08671 0.71655 0.59639 0.0
H979 H 0.07763 0.68935 0.58451 0.0
H980 H 0.05227 0.67243 0.5261 0.0
C981 C 0.03104 0.61152 0.53279 0.0
C982 C 0.04514 0.64436 0.57162 0.0
C983 C 0.03045 0.59688 0.52868 0.0
C984 C 0.07754 0.71145 0.58455 0.0
C985 C 0.07224 0.6958 0.57785 0.0
C986 C 0.05007 0.66465 0.53892 0.0
C987 C 0.04152 0.62216 0.54795 0.0
C988 C 0.04348 0.63834 0.55156 0.0
C989 C 0.0597 0.68828 0.56348 0.0
C990 C 0.05278 0.67086 0.55903 0.0
H991 H 0.05865 0.60053 0.56329 0.0
H992 H 0.05939 0.62562 0.5708 0.0
H993 H 0.04436 0.64425 0.51957 0.0
H994 H 0.05306 0.71943 0.55546 0.0
H995 H 0.0438 0.6918 0.54347 0.0
C996 C 0.46381 0.47836 0.54439 0.0
C997 C 0.46993 0.49424 0.53809 0.0
C998 C 0.44818 0.46948 0.55113 0.0
C999 C 0.40952 0.4683 0.54731 0.0
H1000 H 0.39753 0.43698 0.58992 0.0
C1001 C 0.34549 0.41747 0.55642 0.0
C1002 C 0.33976 0.41189 0.57599 0.0
C1003 C 0.36125 0.42929 0.55379 0.0
C1004 C 0.40071 0.44586 0.57821 0.0
H1005 H 0.46406 0.5131 0.53424 0.0
H1006 H 0.43734 0.49794 0.54658 0.0
H1007 H 0.42555 0.45397 0.58203 0.0
H1008 H 0.34597 0.41497 0.60831 0.0
H1009 H 0.37361 0.43588 0.60371 0.0
H1010 H 0.38477 0.46035 0.54357 0.0
C1011 C 0.4445 0.49222 0.54596 0.0
C1012 C 0.41675 0.45543 0.57347 0.0
C1013 C 0.46003 0.50103 0.5391 0.0
C1014 C 0.35 0.41902 0.59302 0.0
C1015 C 0.36587 0.43087 0.59037 0.0
C1016 C 0.39354 0.45881 0.55209 0.0
C1017 C 0.43828 0.47626 0.55182 0.0
C1018 C 0.42134 0.46662 0.55776 0.0
C1019 C 0.37174 0.43591 0.57067 0.0
C1020 C 0.38889 0.44727 0.56734 0.0
H1021 H 0.47105 0.47273 0.54407 0.0
H1022 H 0.44374 0.45716 0.55533 0.0
H1023 H 0.41254 0.47665 0.53496 0.0
H1024 H 0.33793 0.41232 0.54295 0.0
H1025 H 0.36536 0.43272 0.53838 0.0
C1026 C 0.72256 0.8472 0.34612 0.0
C1027 C 0.73008 0.86024 0.35997 0.0
C1028 C 0.72167 0.83261 0.35042 0.0
C1029 C 0.7222 0.80876 0.39334 0.0
H1030 H 0.73272 0.78605 0.35282 0.0
C1031 C 0.73476 0.7586 0.41485 0.0
C1032 C 0.73068 0.74578 0.4011 0.0
C1033 C 0.73264 0.77136 0.40943 0.0
C1034 C 0.72943 0.79206 0.3642 0.0
H1035 H 0.74265 0.86821 0.3891 0.0
H1036 H 0.7411 0.84271 0.39665 0.0
H1037 H 0.73362 0.81101 0.3439 0.0
H1038 H 0.72058 0.73597 0.37112 0.0
H1039 H 0.71657 0.75825 0.36169 0.0
H1040 H 0.71795 0.78989 0.41364 0.0
C1041 C 0.73584 0.84379 0.38249 0.0
C1042 C 0.73004 0.80641 0.3591 0.0
C1043 C 0.73689 0.85843 0.37808 0.0
C1044 C 0.72384 0.74569 0.38203 0.0
C1045 C 0.72168 0.75852 0.37658 0.0
C1046 C 0.72146 0.79437 0.39838 0.0
C1047 C 0.72813 0.83069 0.36877 0.0
C1048 C 0.72671 0.81505 0.37374 0.0
C1049 C 0.7263 0.77163 0.39013 0.0
C1050 C 0.72537 0.78598 0.38401 0.0
H1051 H 0.71735 0.84829 0.33195 0.0
H1052 H 0.71562 0.82272 0.33959 0.0
H1053 H 0.71925 0.81499 0.40481 0.0
H1054 H 0.74008 0.75906 0.42966 0.0
H1055 H 0.73657 0.78131 0.42016 0.0
C1056 C 0.2622 0.94583 0.37852 0.0
C1057 C 0.25555 0.93545 0.39496 0.0
C1058 C 0.27379 0.9619 0.38193 0.0
C1059 C 0.30181 0.99013 0.42237 0.0
H1060 H 0.30263 0.02247 0.38693 0.0
C1061 C 0.33494 0.0578 0.44321 0.0
C1062 C 0.34412 0.06848 0.42801 0.0
C1063 C 0.32519 0.04148 0.43864 0.0
C1064 C 0.30266 0.01356 0.39683 0.0
H1065 H 0.25566 0.93391 0.42791 0.0
H1066 H 0.27537 0.96192 0.434 0.0
H1067 H 0.28338 0.99434 0.38016 0.0
H1068 H 0.35031 0.07039 0.39608 0.0
H1069 H 0.33295 0.04185 0.38797 0.0
H1070 H 0.32072 0.00954 0.43946 0.0
C1071 C 0.27212 0.95764 0.41836 0.0
C1072 C 0.29164 0.99737 0.39293 0.0
C1073 C 0.26072 0.94153 0.4149 0.0
C1074 C 0.34342 0.06245 0.40813 0.0
C1075 C 0.33342 0.04614 0.40347 0.0
C1076 C 0.31265 0.00632 0.42643 0.0
C1077 C 0.27888 0.9681 0.40193 0.0
C1078 C 0.29097 0.98539 0.4057 0.0
C1079 C 0.32417 0.03548 0.41868 0.0
C1080 C 0.31315 0.01823 0.41377 0.0
H1081 H 0.2586 0.94145 0.36296 0.0
H1082 H 0.27885 0.96939 0.36882 0.0
H1083 H 0.30201 0.98134 0.43232 0.0
H1084 H 0.3352 0.06204 0.45867 0.0
H1085 H 0.31812 0.03361 0.45065 0.0
C1086 C 0.15233 0.39071 0.39128 0.0
C1087 C 0.15588 0.38363 0.37481 0.0
C1088 C 0.13679 0.3843 0.39802 0.0
C1089 C 0.10362 0.36496 0.41486 0.0
H1090 H 0.07211 0.35697 0.37254 0.0
C1091 C 0.03854 0.34829 0.43276 0.0
C1092 C 0.03258 0.35661 0.42157 0.0
C1093 C 0.05293 0.34918 0.42751 0.0
C1094 C 0.08076 0.35912 0.38456 0.0
H1095 H 0.14595 0.36392 0.35284 0.0
H1096 H 0.11849 0.35271 0.36449 0.0
H1097 H 0.09849 0.36214 0.36307 0.0
H1098 H 0.03725 0.37242 0.396 0.0
H1099 H 0.06216 0.37396 0.387 0.0
H1100 H 0.08608 0.36251 0.43632 0.0
C1101 C 0.12786 0.36326 0.37221 0.0
C1102 C 0.09583 0.36189 0.37912 0.0
C1103 C 0.14357 0.36959 0.36563 0.0
C1104 C 0.0414 0.36584 0.40503 0.0
C1105 C 0.05566 0.36661 0.39971 0.0
C1106 C 0.08852 0.36207 0.4203 0.0
C1107 C 0.12428 0.3707 0.38832 0.0
C1108 C 0.10758 0.36526 0.39419 0.0
C1109 C 0.06161 0.35828 0.41082 0.0
C1110 C 0.07703 0.35952 0.40519 0.0
H1111 H 0.16156 0.40152 0.39874 0.0
H1112 H 0.13448 0.39045 0.41029 0.0
H1113 H 0.11236 0.36737 0.42685 0.0
H1114 H 0.03208 0.34104 0.44555 0.0
H1115 H 0.05716 0.34257 0.43635 0.0
C1116 C 0.1332 0.36063 0.84815 0.0
C1117 C 0.14964 0.36892 0.84478 0.0
C1118 C 0.12353 0.36663 0.84151 0.0
C1119 C 0.11934 0.39167 0.80325 0.0
H1120 H 0.08575 0.38726 0.83873 0.0
C1121 C 0.06966 0.40699 0.7795 0.0
C1122 C 0.05423 0.3961 0.78602 0.0
C1123 C 0.08284 0.40571 0.78615 0.0
C1124 C 0.09498 0.38849 0.82853 0.0
H1125 H 0.16886 0.39025 0.8318 0.0
H1126 H 0.1517 0.40081 0.81975 0.0
H1127 H 0.10635 0.38223 0.85195 0.0
H1128 H 0.04069 0.37488 0.80404 0.0
H1129 H 0.06335 0.37264 0.81531 0.0
H1130 H 0.10759 0.39755 0.77965 0.0
C1131 C 0.14642 0.3896 0.82772 0.0
C1132 C 0.10686 0.38568 0.83617 0.0
C1133 C 0.15625 0.38363 0.83475 0.0
C1134 C 0.05233 0.38364 0.7988 0.0
C1135 C 0.06541 0.3824 0.80543 0.0
C1136 C 0.10736 0.3945 0.79555 0.0
C1137 C 0.1299 0.38111 0.83105 0.0
C1138 C 0.11895 0.38676 0.82352 0.0
C1139 C 0.0809 0.39357 0.79957 0.0
C1140 C 0.09475 0.39247 0.80796 0.0
H1141 H 0.12767 0.34928 0.85587 0.0
H1142 H 0.11089 0.35965 0.84414 0.0
H1143 H 0.12844 0.39255 0.79307 0.0
H1144 H 0.07162 0.41675 0.76967 0.0
H1145 H 0.09458 0.41452 0.7813 0.0
C1146 C 0.67972 0.81873 0.80781 0.0
C1147 C 0.66511 0.81723 0.81345 0.0
C1148 C 0.68103 0.80517 0.8038 0.0
C1149 C 0.66167 0.76187 0.81342 0.0
H1150 H 0.68439 0.76075 0.76568 0.0
C1151 C 0.66867 0.70714 0.79378 0.0
C1152 C 0.66452 0.70155 0.77348 0.0
C1153 C 0.67103 0.72223 0.79952 0.0
C1154 C 0.67804 0.7609 0.7791 0.0
H1155 H 0.64046 0.80024 0.81947 0.0
H1156 H 0.64269 0.77656 0.81223 0.0
H1157 H 0.68329 0.78493 0.77398 0.0
H1158 H 0.66041 0.70763 0.74309 0.0
H1159 H 0.6646 0.73386 0.75303 0.0
H1160 H 0.65603 0.73769 0.8182 0.0
C1161 C 0.65317 0.78826 0.81107 0.0
C1162 C 0.67751 0.77479 0.78393 0.0
C1163 C 0.65184 0.80183 0.81497 0.0
C1164 C 0.66357 0.7116 0.75886 0.0
C1165 C 0.66605 0.72669 0.76455 0.0
C1166 C 0.66228 0.74802 0.80864 0.0
C1167 C 0.66778 0.78978 0.80544 0.0
C1168 C 0.66911 0.77534 0.80097 0.0
C1169 C 0.66946 0.73203 0.78501 0.0
C1170 C 0.67026 0.74729 0.79125 0.0
H1171 H 0.69014 0.83041 0.80629 0.0
H1172 H 0.69248 0.80675 0.7996 0.0
H1173 H 0.65528 0.762 0.82679 0.0
H1174 H 0.66948 0.69964 0.80537 0.0
H1175 H 0.67381 0.72611 0.81537 0.0
C1176 C 0.23476 0.91733 0.83466 0.0
C1177 C 0.22179 0.91472 0.82213 0.0
C1178 C 0.25033 0.92797 0.82889 0.0
C1179 C 0.27515 0.95018 0.78499 0.0
H1180 H 0.30276 0.97981 0.82732 0.0
C1181 C 0.34189 0.99746 0.77319 0.0
C1182 C 0.34721 0.01267 0.78218 0.0
C1183 C 0.3266 0.98476 0.77696 0.0
C1184 C 0.29519 0.97167 0.81529 0.0
H1185 H 0.21509 0.92085 0.79332 0.0
H1186 H 0.24221 0.93946 0.78336 0.0
H1187 H 0.27627 0.9587 0.8359 0.0
H1188 H 0.34025 0.0265 0.80156 0.0
H1189 H 0.3138 0.00452 0.80794 0.0
H1190 H 0.29408 0.96349 0.76431 0.0
C1191 C 0.24037 0.9332 0.79758 0.0
C1192 C 0.28006 0.95943 0.82026 0.0
C1193 C 0.22479 0.92259 0.80337 0.0
C1194 C 0.3367 0.01496 0.79449 0.0
C1195 C 0.32151 1.0023 0.79828 0.0
C1196 C 0.29037 0.96242 0.78003 0.0
C1197 C 0.25332 0.93623 0.81043 0.0
C1198 C 0.26977 0.94862 0.80516 0.0
C1199 C 0.31636 0.98699 0.78987 0.0
C1200 C 0.30048 0.97343 0.79509 0.0
H1201 H 0.2329 0.91141 0.84916 0.0
H1202 H 0.26005 0.92984 0.83901 0.0
H1203 H 0.26758 0.94197 0.77303 0.0
H1204 H 0.34965 0.99525 0.76362 0.0
H1205 H 0.32299 0.97308 0.77028 0.0
C1206 C 0.72779 0.96856 0.30216 0.0
C1207 C 0.71763 0.95513 0.31359 0.0
C1208 C 0.72369 0.98022 0.29764 0.0
C1209 C 0.6959 0.99481 0.31203 0.0
H1210 H 0.70405 0.0116 0.2573 0.0
C1211 C 0.67854 0.04132 0.28473 0.0
C1212 C 0.67265 0.03944 0.26455 0.0
C1213 C 0.68503 0.03208 0.29175 0.0
C1214 C 0.70157 0.00696 0.27261 0.0
H1215 H 0.69546 0.94392 0.32998 0.0
H1216 H 0.68807 0.96375 0.32146 0.0
H1217 H 0.71352 0.99369 0.26778 0.0
H1218 H 0.66854 0.02595 0.23615 0.0
H1219 H 0.67939 0.00968 0.24847 0.0
H1220 H 0.68328 0.00751 0.31649 0.0
C1221 C 0.69933 0.96545 0.31617 0.0
C1222 C 0.70724 0.99685 0.27874 0.0
C1223 C 0.70346 0.95388 0.32078 0.0
C1224 C 0.67312 0.02789 0.25172 0.0
C1225 C 0.67947 0.01861 0.25875 0.0
C1226 C 0.69013 0.00485 0.30583 0.0
C1227 C 0.7093 0.97871 0.30438 0.0
C1228 C 0.70431 0.99047 0.29844 0.0
C1229 C 0.68568 0.02068 0.27877 0.0
C1230 C 0.69268 0.01086 0.28593 0.0
H1231 H 0.73877 0.96994 0.29632 0.0
H1232 H 0.73179 0.99038 0.28877 0.0
H1233 H 0.69364 0.99034 0.32743 0.0
H1234 H 0.67841 0.05014 0.29501 0.0
H1235 H 0.6898 0.03408 0.30722 0.0
C1236 C 0.16873 0.81447 0.34772 0.0
C1237 C 0.17912 0.82549 0.33369 0.0
C1238 C 0.15591 0.79981 0.34095 0.0
C1239 C 0.13919 0.77339 0.29385 0.0
H1240 H 0.1009 0.75363 0.3256 0.0
C1241 C 0.08562 0.71381 0.26623 0.0
C1242 C 0.07027 0.71083 0.27046 0.0
C1243 C 0.09892 0.72668 0.27564 0.0
C1244 C 0.11137 0.75903 0.3163 0.0
H1245 H 0.18411 0.83012 0.30164 0.0
H1246 H 0.1614 0.80513 0.28962 0.0
H1247 H 0.12359 0.77836 0.33782 0.0
H1248 H 0.05666 0.71881 0.2879 0.0
H1249 H 0.07982 0.74194 0.30338 0.0
H1250 H 0.12665 0.75491 0.27153 0.0
C1251 C 0.1634 0.80722 0.30593 0.0
C1252 C 0.12463 0.77318 0.32358 0.0
C1253 C 0.17644 0.82165 0.31277 0.0
C1254 C 0.06841 0.7208 0.28455 0.0
C1255 C 0.08175 0.73404 0.2935 0.0
C1256 C 0.12583 0.75953 0.28632 0.0
C1257 C 0.15289 0.796 0.3199 0.0
C1258 C 0.13878 0.78063 0.31246 0.0
C1259 C 0.09728 0.73733 0.28899 0.0
C1260 C 0.11166 0.75205 0.29741 0.0
H1261 H 0.17062 0.81722 0.36395 0.0
H1262 H 0.14843 0.79149 0.35231 0.0
H1263 H 0.14986 0.77839 0.28492 0.0
H1264 H 0.08734 0.70616 0.25555 0.0
H1265 H 0.11049 0.72829 0.27221 0.0
C1266 C 0.23791 0.39114 0.29741 0.0
C1267 C 0.23151 0.38865 0.31708 0.0
C1268 C 0.25333 0.39388 0.29451 0.0
C1269 C 0.28665 0.39124 0.31924 0.0
H1270 H 0.31287 0.42685 0.28452 0.0
C1271 C 0.35499 0.42147 0.32151 0.0
C1272 C 0.36327 0.42654 0.30311 0.0
C1273 C 0.33868 0.41596 0.3221 0.0
C1274 C 0.3057 0.41673 0.29403 0.0
H1275 H 0.2361 0.38623 0.34898 0.0
H1276 H 0.26292 0.39097 0.34391 0.0
H1277 H 0.28468 0.41793 0.28738 0.0
H1278 H 0.36072 0.42986 0.27086 0.0
H1279 H 0.33218 0.42013 0.27186 0.0
H1280 H 0.30769 0.39012 0.32604 0.0
C1281 C 0.25601 0.39077 0.33069 0.0
C1282 C 0.28949 0.41159 0.29567 0.0
C1283 C 0.24059 0.38805 0.33361 0.0
C1284 C 0.35478 0.42611 0.28532 0.0
C1285 C 0.33839 0.42056 0.28591 0.0
C1286 C 0.30285 0.39636 0.31757 0.0
C1287 C 0.26274 0.39416 0.31118 0.0
C1288 C 0.27977 0.39888 0.30846 0.0
C1289 C 0.33011 0.41531 0.30431 0.0
C1290 C 0.31265 0.4093 0.30514 0.0
H1291 H 0.23126 0.39161 0.28429 0.0
H1292 H 0.258 0.39612 0.27922 0.0
H1293 H 0.2795 0.38128 0.32898 0.0
H1294 H 0.36108 0.4217 0.33559 0.0
H1295 H 0.33283 0.41236 0.33663 0.0
C1296 C 0.23435 0.36486 0.88272 0.0
C1297 C 0.22152 0.35792 0.89609 0.0
C1298 C 0.24833 0.3643 0.88695 0.0
C1299 C 0.26155 0.34017 0.91711 0.0
H1300 H 0.30368 0.37228 0.90095 0.0
C1301 C 0.31784 0.33555 0.9367 0.0
C1302 C 0.32913 0.33975 0.92126 0.0
C1303 C 0.30508 0.33848 0.9345 0.0
C1304 C 0.29196 0.36313 0.90544 0.0
H1305 H 0.21368 0.34597 0.92494 0.0
H1306 H 0.23807 0.34565 0.93274 0.0
H1307 H 0.28137 0.37696 0.89579 0.0
H1308 H 0.33561 0.35034 0.89129 0.0
H1309 H 0.31354 0.35529 0.88753 0.0
H1310 H 0.27211 0.32634 0.92671 0.0
C1311 C 0.23729 0.35101 0.91864 0.0
C1312 C 0.27914 0.36581 0.90245 0.0
C1313 C 0.22335 0.35139 0.91431 0.0
C1314 C 0.32723 0.34691 0.90358 0.0
C1315 C 0.31459 0.34991 0.90146 0.0
C1316 C 0.27437 0.33753 0.92019 0.0
C1317 C 0.24978 0.35688 0.90469 0.0
C1318 C 0.2637 0.35436 0.9082 0.0
C1319 C 0.30333 0.34578 0.91687 0.0
C1320 C 0.28976 0.34892 0.91431 0.0
H1321 H 0.23318 0.36972 0.86839 0.0
H1322 H 0.25761 0.36891 0.87575 0.0
H1323 H 0.24984 0.33085 0.92133 0.0
H1324 H 0.31888 0.33008 0.95055 0.0
H1325 H 0.2967 0.33523 0.94677 0.0
C1326 C 0.67572 0.93177 0.85013 0.0
C1327 C 0.66667 0.91915 0.8633 0.0
C1328 C 0.67911 0.94732 0.85493 0.0
C1329 C 0.66847 0.97111 0.8901 0.0
H1330 H 0.71194 0.00441 0.88129 0.0
C1331 C 0.69973 0.02976 0.93691 0.0
C1332 C 0.70919 0.04416 0.92676 0.0
C1333 C 0.69309 0.01512 0.9264 0.0
C1334 C 0.69969 0.9953 0.88353 0.0
H1335 H 0.65368 0.91276 0.89146 0.0
H1336 H 0.65988 0.93995 0.90021 0.0
H1337 H 0.70273 0.97743 0.86804 0.0
H1338 H 0.71896 0.05447 0.89752 0.0
H1339 H 0.70754 0.02864 0.87913 0.0
H1340 H 0.66576 0.98893 0.9065 0.0
C1341 C 0.6641 0.93786 0.88592 0.0
C1342 C 0.69437 0.97982 0.87591 0.0
C1343 C 0.66057 0.92226 0.88098 0.0
C1344 C 0.71173 0.04358 0.90574 0.0
C1345 C 0.70524 0.02883 0.89525 0.0
C1346 C 0.67384 0.98655 0.89789 0.0
C1347 C 0.67367 0.95064 0.87314 0.0
C1348 C 0.67877 0.96744 0.87944 0.0
C1349 C 0.69587 0.01447 0.90553 0.0
C1350 C 0.68959 0.99872 0.89502 0.0
H1351 H 0.68032 0.92963 0.8362 0.0
H1352 H 0.68619 0.95678 0.84448 0.0
H1353 H 0.65629 0.96198 0.89274 0.0
H1354 H 0.69742 0.02976 0.95305 0.0
H1355 H 0.68608 0.00425 0.93476 0.0
C1356 C 0.14356 0.87477 0.87925 0.0
C1357 C 0.14525 0.88012 0.85913 0.0
C1358 C 0.13038 0.8602 0.88455 0.0
C1359 C 0.089 0.83294 0.86721 0.0
H1360 H 0.09054 0.8032 0.90527 0.0
C1361 C 0.03665 0.76945 0.87596 0.0
C1362 C 0.03259 0.76299 0.89558 0.0
C1363 C 0.05037 0.78408 0.87299 0.0
C1364 C 0.08991 0.81151 0.89484 0.0
H1365 H 0.13478 0.87468 0.82871 0.0
H1366 H 0.11196 0.84903 0.83767 0.0
H1367 H 0.11511 0.82751 0.89658 0.0
H1368 H 0.0398 0.76706 0.92756 0.0
H1369 H 0.06399 0.79284 0.92232 0.0
H1370 H 0.06391 0.81697 0.86526 0.0
C1371 C 0.12065 0.85607 0.8495 0.0
C1372 C 0.10398 0.82541 0.88981 0.0
C1373 C 0.13376 0.87065 0.84429 0.0
C1374 C 0.04255 0.77172 0.91227 0.0
C1375 C 0.05645 0.7864 0.90925 0.0
C1376 C 0.07501 0.81909 0.87218 0.0
C1377 C 0.11858 0.85084 0.86981 0.0
C1378 C 0.10371 0.83618 0.87569 0.0
C1379 C 0.0605 0.79271 0.88953 0.0
C1380 C 0.0753 0.80809 0.88582 0.0
H1381 H 0.15204 0.88222 0.89105 0.0
H1382 H 0.12909 0.85666 0.90036 0.0
H1383 H 0.08826 0.84117 0.85674 0.0
H1384 H 0.02927 0.76313 0.86272 0.0
H1385 H 0.05321 0.78847 0.85758 0.0
C1386 C 0.39602 0.18232 0.70278 0.0
C1387 C 0.40353 0.19466 0.71757 0.0
C1388 C 0.39479 0.16743 0.70576 0.0
C1389 C 0.39344 0.14131 0.74664 0.0
H1390 H 0.40112 0.1182 0.70356 0.0
C1391 C 0.39684 0.08454 0.76203 0.0
C1392 C 0.39124 0.07233 0.747 0.0
C1393 C 0.39734 0.09896 0.75818 0.0
C1394 C 0.39866 0.12436 0.71565 0.0
H1395 H 0.416 0.20122 0.74683 0.0
H1396 H 0.41386 0.17512 0.75211 0.0
H1397 H 0.40503 0.1448 0.69713 0.0
H1398 H 0.38123 0.06543 0.71634 0.0
H1399 H 0.38176 0.09062 0.70967 0.0
H1400 H 0.38688 0.12089 0.7651 0.0
C1401 C 0.40886 0.17699 0.73824 0.0
C1402 C 0.401 0.13964 0.71199 0.0
C1403 C 0.41023 0.19196 0.73515 0.0
C1404 C 0.38563 0.07464 0.72821 0.0
C1405 C 0.38607 0.08912 0.72435 0.0
C1406 C 0.39098 0.126 0.75024 0.0
C1407 C 0.40093 0.16451 0.7237 0.0
C1408 C 0.39855 0.14833 0.72751 0.0
C1409 C 0.39215 0.10154 0.73921 0.0
C1410 C 0.39371 0.11738 0.73487 0.0
H1411 H 0.39091 0.18414 0.68899 0.0
H1412 H 0.38857 0.15805 0.69432 0.0
H1413 H 0.39114 0.14758 0.75876 0.0
H1414 H 0.4013 0.08316 0.77668 0.0
H1415 H 0.40231 0.1083 0.76988 0.0
C1416 C 0.90322 0.25145 0.729 0.0
C1417 C 0.89205 0.24656 0.71279 0.0
C1418 C 0.91413 0.2676 0.73266 0.0
C1419 C 0.93487 0.30638 0.70685 0.0
H1420 H 0.94919 0.32218 0.7622 0.0
C1421 C 0.99397 0.36578 0.72515 0.0
C1422 C 0.99425 0.37501 0.7421 0.0
C1423 C 0.98073 0.35057 0.7211 0.0
C1424 C 0.94529 0.31813 0.74661 0.0
H1425 H 0.8833 0.2549 0.68798 0.0
H1426 H 0.90243 0.28345 0.69453 0.0
H1427 H 0.92649 0.29565 0.75652 0.0
H1428 H 0.98068 0.37554 0.76786 0.0
H1429 H 0.95771 0.34947 0.76066 0.0
H1430 H 0.95361 0.32907 0.69701 0.0
C1431 C 0.90274 0.27464 0.70433 0.0
C1432 C 0.9323 0.30276 0.74334 0.0
C1433 C 0.89164 0.25833 0.70074 0.0
C1434 C 0.98098 0.36872 0.75479 0.0
C1435 C 0.96777 0.35366 0.75069 0.0
C1436 C 0.94788 0.32185 0.71013 0.0
C1437 C 0.9143 0.27944 0.72019 0.0
C1438 C 0.92704 0.29653 0.72344 0.0
C1439 C 0.96743 0.34427 0.73387 0.0
C1440 C 0.95337 0.32791 0.73009 0.0
H1441 H 0.9039 0.2427 0.73854 0.0
H1442 H 0.92292 0.2707 0.7448 0.0
H1443 H 0.93127 0.30196 0.69131 0.0
H1444 H 1.00398 0.3703 0.71504 0.0
H1445 H 0.98103 0.34366 0.70814 0.0
C1446 C 0.81313 0.69042 0.69111 0.0
C1447 C 0.82446 0.70395 0.70228 0.0
C1448 C 0.79693 0.68329 0.69567 0.0
C1449 C 0.76417 0.68073 0.69857 0.0
H1450 H 0.74941 0.67847 0.75389 0.0
C1451 C 0.70875 0.68503 0.71674 0.0
C1452 C 0.69836 0.67537 0.73192 0.0
C1453 C 0.72306 0.68532 0.71336 0.0
C1454 C 0.75325 0.67879 0.73836 0.0
H1455 H 0.82779 0.72 0.72772 0.0
H1456 H 0.79982 0.70761 0.73571 0.0
H1457 H 0.77645 0.68382 0.74824 0.0
H1458 H 0.69502 0.65838 0.75544 0.0
H1459 H 0.72026 0.65905 0.74966 0.0
H1460 H 0.74113 0.67612 0.68868 0.0
C1461 C 0.8033 0.70243 0.72345 0.0
C1462 C 0.7688 0.68198 0.7351 0.0
C1463 C 0.81937 0.70963 0.71875 0.0
C1464 C 0.70272 0.66597 0.74365 0.0
C1465 C 0.71719 0.66638 0.74037 0.0
C1466 C 0.74867 0.67763 0.70182 0.0
C1467 C 0.7918 0.68942 0.71169 0.0
C1468 C 0.77459 0.68342 0.71517 0.0
C1469 C 0.72751 0.67603 0.72511 0.0
C1470 C 0.74316 0.67706 0.72175 0.0
H1471 H 0.81669 0.68581 0.67828 0.0
H1472 H 0.78837 0.67321 0.6864 0.0
H1473 H 0.76824 0.68183 0.68302 0.0
H1474 H 0.70586 0.69243 0.70733 0.0
H1475 H 0.73081 0.69311 0.70174 0.0
C1476 C 0.80831 0.71687 0.15511 0.0
C1477 C 0.82422 0.72483 0.14898 0.0
C1478 C 0.79846 0.72333 0.15155 0.0
C1479 C 0.79139 0.74886 0.11724 0.0
H1480 H 0.76197 0.74534 0.1591 0.0
C1481 C 0.74051 0.76454 0.10421 0.0
C1482 C 0.72578 0.7538 0.11277 0.0
C1483 C 0.75419 0.76343 0.10861 0.0
C1484 C 0.77001 0.74634 0.14714 0.0
H1485 H 0.84232 0.746 0.13436 0.0
H1486 H 0.82481 0.75734 0.12771 0.0
H1487 H 0.78314 0.73965 0.16732 0.0
H1488 H 0.71409 0.73324 0.1324 0.0
H1489 H 0.73753 0.73131 0.13978 0.0
H1490 H 0.77782 0.75506 0.09688 0.0
C1491 C 0.8201 0.74607 0.13548 0.0
C1492 C 0.78223 0.74314 0.15191 0.0
C1493 C 0.83016 0.73967 0.13943 0.0
C1494 C 0.72514 0.74186 0.12559 0.0
C1495 C 0.73871 0.7408 0.12999 0.0
C1496 C 0.77905 0.75203 0.11242 0.0
C1497 C 0.80408 0.73789 0.14146 0.0
C1498 C 0.79283 0.74391 0.13692 0.0
C1499 C 0.7535 0.75164 0.12179 0.0
C1500 C 0.76789 0.75034 0.12718 0.0
H1501 H 0.80335 0.70541 0.1625 0.0
H1502 H 0.7862 0.71658 0.15618 0.0
H1503 H 0.7993 0.7495 0.1053 0.0
H1504 H 0.74151 0.77387 0.09425 0.0
H1505 H 0.76536 0.772 0.10201 0.0
C1506 C 0.38999 0.17086 0.15837 0.0
C1507 C 0.38307 0.17565 0.17367 0.0
C1508 C 0.3848 0.15464 0.1547 0.0
C1509 C 0.36143 0.11425 0.17751 0.0
H1510 H 0.35764 0.09949 0.12133 0.0
C1511 C 0.33963 0.04775 0.15668 0.0
C1512 C 0.3294 0.0413 0.13955 0.0
C1513 C 0.34749 0.06425 0.16092 0.0
C1514 C 0.35851 0.10336 0.13711 0.0
H1515 H 0.36552 0.16684 0.19752 0.0
H1516 H 0.35615 0.13876 0.19064 0.0
H1517 H 0.36854 0.12785 0.12878 0.0
H1518 H 0.3194 0.04708 0.11341 0.0
H1519 H 0.33272 0.07563 0.12099 0.0
H1520 H 0.35073 0.08966 0.18576 0.0
C1521 C 0.36576 0.14753 0.18163 0.0
C1522 C 0.365 0.11971 0.14143 0.0
C1523 C 0.371 0.16373 0.18538 0.0
C1524 C 0.32726 0.05167 0.12669 0.0
C1525 C 0.33502 0.06811 0.13098 0.0
C1526 C 0.35484 0.09788 0.17319 0.0
C1527 C 0.37251 0.14273 0.16616 0.0
C1528 C 0.36641 0.12538 0.16167 0.0
C1529 C 0.34523 0.07465 0.14816 0.0
C1530 C 0.35312 0.09218 0.15291 0.0
H1531 H 0.39923 0.17959 0.14893 0.0
H1532 H 0.39046 0.15144 0.14284 0.0
H1533 H 0.36254 0.11815 0.19332 0.0
H1534 H 0.34157 0.04006 0.16682 0.0
H1535 H 0.35542 0.06886 0.17414 0.0
C1536 C 0.90217 0.28294 0.18177 0.0
C1537 C 0.89594 0.26728 0.17387 0.0
C1538 C 0.91642 0.29545 0.17446 0.0
C1539 C 0.95307 0.30255 0.14917 0.0
H1540 H 0.95956 0.34509 0.14064 0.0
C1541 C 0.01132 0.35285 0.11586 0.0
C1542 C 0.01752 0.36828 0.12454 0.0
C1543 C 0.99609 0.34061 0.12073 0.0
C1544 C 0.958 0.33332 0.14314 0.0
H1545 H 0.89957 0.25265 0.15153 0.0
H1546 H 0.92426 0.27441 0.13878 0.0
H1547 H 0.93363 0.32378 0.15121 0.0
H1548 H 0.01238 0.38286 0.14515 0.0
H1549 H 0.98608 0.36154 0.15384 0.0
H1550 H 0.97745 0.31207 0.14146 0.0
C1551 C 0.91828 0.277 0.15084 0.0
C1552 C 0.94312 0.3211 0.14918 0.0
C1553 C 0.90404 0.26453 0.15808 0.0
C1554 C 0.00803 0.37116 0.13808 0.0
C1555 C 0.99285 0.35893 0.14299 0.0
C1556 C 0.96795 0.31477 0.14321 0.0
C1557 C 0.92478 0.29257 0.15914 0.0
C1558 C 0.94048 0.30557 0.15231 0.0
C1559 C 0.98668 0.34347 0.13444 0.0
C1560 C 0.97065 0.33034 0.14018 0.0
H1561 H 0.89626 0.28549 0.19396 0.0
H1562 H 0.92115 0.30728 0.18129 0.0
H1563 H 0.95153 0.29079 0.15177 0.0
H1564 H 0.01823 0.35019 0.10529 0.0
H1565 H 0.99166 0.32892 0.11362 0.0
C1566 C 0.36794 0.28213 0.68111 0.0
C1567 C 0.38225 0.28449 0.67293 0.0
C1568 C 0.36101 0.29091 0.67425 0.0
C1569 C 0.36026 0.31379 0.62992 0.0
H1570 H 0.33528 0.3242 0.66615 0.0
C1571 C 0.31639 0.33262 0.5986 0.0
C1572 C 0.31511 0.34458 0.60943 0.0
C1573 C 0.32494 0.32583 0.60694 0.0
C1574 C 0.34234 0.32157 0.65581 0.0
H1575 H 0.40092 0.29853 0.6518 0.0
H1576 H 0.38903 0.31432 0.64015 0.0
H1577 H 0.35102 0.31322 0.6801 0.0
H1578 H 0.32167 0.35863 0.63769 0.0
H1579 H 0.33683 0.34712 0.65193 0.0
H1580 H 0.35197 0.32263 0.60571 0.0
C1581 C 0.38297 0.30533 0.65156 0.0
C1582 C 0.35124 0.31507 0.6638 0.0
C1583 C 0.38989 0.29643 0.65838 0.0
C1584 C 0.32228 0.34934 0.62897 0.0
C1585 C 0.33097 0.34269 0.63719 0.0
C1586 C 0.35149 0.32046 0.62195 0.0
C1587 C 0.36829 0.30247 0.65918 0.0
C1588 C 0.36011 0.31085 0.65092 0.0
C1589 C 0.33256 0.33096 0.62621 0.0
C1590 C 0.34224 0.32424 0.63475 0.0
H1591 H 0.3619 0.27329 0.69266 0.0
H1592 H 0.34964 0.28821 0.68035 0.0
H1593 H 0.36682 0.31054 0.6195 0.0
H1594 H 0.31095 0.32863 0.58356 0.0
H1595 H 0.32559 0.31656 0.59824 0.0
C1596 C 0.81037 0.15682 0.66913 0.0
C1597 C 0.82414 0.16299 0.65738 0.0
C1598 C 0.79663 0.14251 0.66306 0.0
C1599 C 0.77736 0.11491 0.61852 0.0
H1600 H 0.75968 0.08097 0.65801 0.0
C1601 C 0.74311 0.04966 0.59185 0.0
C1602 C 0.72897 0.03887 0.60152 0.0
C1603 C 0.75316 0.06487 0.6002 0.0
C1604 C 0.76429 0.09036 0.64687 0.0
H1605 H 0.83416 0.15947 0.6298 0.0
H1606 H 0.81025 0.13504 0.61888 0.0
H1607 H 0.77935 0.10826 0.66917 0.0
H1608 H 0.71477 0.03552 0.62825 0.0
H1609 H 0.73251 0.06237 0.64298 0.0
H1610 H 0.76267 0.09716 0.59615 0.0
C1611 C 0.80993 0.14107 0.63277 0.0
C1612 C 0.77555 0.10602 0.65327 0.0
C1613 C 0.82365 0.1551 0.63901 0.0
C1614 C 0.72556 0.04351 0.62041 0.0
C1615 C 0.73571 0.0589 0.62881 0.0
C1616 C 0.76615 0.09937 0.61217 0.0
C1617 C 0.79636 0.13434 0.64494 0.0
C1618 C 0.78256 0.11838 0.63903 0.0
C1619 C 0.74943 0.06992 0.61848 0.0
C1620 C 0.75983 0.08676 0.6261 0.0
H1621 H 0.81054 0.1625 0.68358 0.0
H1622 H 0.78634 0.13766 0.67273 0.0
H1623 H 0.78229 0.12419 0.60722 0.0
H1624 H 0.74632 0.04648 0.57747 0.0
H1625 H 0.76385 0.0728 0.59211 0.0
C1626 C 0.91089 0.71265 0.66 0.0
C1627 C 0.90104 0.71271 0.6441 0.0
C1628 C 0.92625 0.71557 0.65602 0.0
C1629 C 0.95812 0.73602 0.61881 0.0
H1630 H 0.9777 0.71497 0.64714 0.0
C1631 C 0.02244 0.74954 0.60258 0.0
C1632 C 0.03168 0.74975 0.61942 0.0
C1633 C 1.00627 0.74456 0.60475 0.0
C1634 C 0.97248 0.72111 0.63925 0.0
H1635 H 0.89937 0.71497 0.61134 0.0
H1636 H 0.92602 0.71987 0.60443 0.0
H1637 H 0.94973 0.70616 0.65232 0.0
H1638 H 0.03119 0.74543 0.65197 0.0
H1639 H 1.00332 0.73713 0.65577 0.0
H1640 H 0.98092 0.75114 0.60598 0.0
C1641 C 0.92198 0.71787 0.62003 0.0
C1642 C 0.95641 0.71601 0.6422 0.0
C1643 C 0.90663 0.71491 0.62399 0.0
C1644 C 0.02446 0.74529 0.63857 0.0
C1645 C 0.00838 0.74038 0.64074 0.0
C1646 C 0.97422 0.74116 0.61591 0.0
C1647 C 0.93214 0.71864 0.63605 0.0
C1648 C 0.94904 0.72347 0.63213 0.0
C1649 C 0.99898 0.73971 0.62384 0.0
C1650 C 0.98167 0.73387 0.62624 0.0
H1651 H 0.90703 0.71107 0.67568 0.0
H1652 H 0.93376 0.71615 0.66875 0.0
H1653 H 0.95291 0.74221 0.61104 0.0
H1654 H 0.02757 0.75282 0.58759 0.0
H1655 H 0.9994 0.74411 0.59136 0.0
C1656 C 0.89233 0.69891 0.21312 0.0
C1657 C 0.89306 0.70808 0.19622 0.0
C1658 C 0.90575 0.69843 0.22003 0.0
C1659 C 0.94978 0.71682 0.21481 0.0
H1660 H 0.94097 0.67443 0.22998 0.0
C1661 C 0.99822 0.6985 0.21806 0.0
C1662 C 0.99776 0.68824 0.23353 0.0
C1663 C 0.98605 0.70215 0.21568 0.0
C1664 C 0.94367 0.6864 0.22612 0.0
H1665 H 0.90862 0.72445 0.17372 0.0
H1666 H 0.9322 0.72345 0.18552 0.0
H1667 H 0.91911 0.67902 0.22178 0.0
H1668 H 0.98405 0.67401 0.25889 0.0
H1669 H 0.96266 0.68034 0.25466 0.0
H1670 H 0.97444 0.72401 0.21863 0.0
C1671 C 0.92127 0.71683 0.19375 0.0
C1672 C 0.93109 0.68909 0.22141 0.0
C1673 C 0.90778 0.71748 0.18699 0.0
C1674 C 0.98483 0.68194 0.24681 0.0
C1675 C 0.97252 0.6855 0.2443 0.0
C1676 C 0.9624 0.7141 0.21942 0.0
C1677 C 0.9203 0.70685 0.20997 0.0
C1678 C 0.93391 0.70432 0.21562 0.0
C1679 C 0.97293 0.6956 0.2286 0.0
C1680 C 0.95952 0.69882 0.22502 0.0
H1681 H 0.88113 0.69156 0.22056 0.0
H1682 H 0.90456 0.69101 0.23293 0.0
H1683 H 0.95249 0.72874 0.21069 0.0
H1684 H 0.00797 0.70368 0.20755 0.0
H1685 H 0.98672 0.70979 0.20328 0.0
C1686 C 0.404 0.29522 0.20685 0.0
C1687 C 0.41184 0.28907 0.21872 0.0
C1688 C 0.40514 0.30988 0.21207 0.0
C1689 C 0.41204 0.33589 0.25678 0.0
H1690 H 0.4177 0.36799 0.21743 0.0
C1691 C 0.42098 0.39661 0.28351 0.0
C1692 C 0.41347 0.40348 0.27245 0.0
C1693 C 0.4215 0.38336 0.27572 0.0
C1694 C 0.41591 0.35907 0.22858 0.0
H1695 H 0.42733 0.29373 0.24512 0.0
H1696 H 0.42935 0.31931 0.25423 0.0
H1697 H 0.41756 0.34367 0.20599 0.0
H1698 H 0.40098 0.40204 0.24412 0.0
H1699 H 0.40153 0.37852 0.23062 0.0
H1700 H 0.41001 0.35091 0.27931 0.0
C1701 C 0.42225 0.31274 0.24092 0.0
C1702 C 0.4159 0.34516 0.22202 0.0
C1703 C 0.42123 0.29816 0.23559 0.0
C1704 C 0.40686 0.39702 0.25304 0.0
C1705 C 0.40723 0.38358 0.24528 0.0
C1706 C 0.41193 0.34967 0.26329 0.0
C1707 C 0.41402 0.31865 0.22941 0.0
C1708 C 0.41409 0.33348 0.2361 0.0
C1709 C 0.41435 0.37642 0.25671 0.0
C1710 C 0.41402 0.36154 0.24935 0.0
H1711 H 0.39683 0.2886 0.19362 0.0
H1712 H 0.39861 0.31407 0.20294 0.0
H1713 H 0.41025 0.32697 0.26794 0.0
H1714 H 0.42646 0.40142 0.29836 0.0
H1715 H 0.4275 0.37852 0.28471 0.0
C1716 C 0.81465 0.21158 0.23719 0.0
C1717 C 0.81988 0.21302 0.21698 0.0
C1718 C 0.7985 0.20222 0.24152 0.0
C1719 C 0.75781 0.18072 0.2181 0.0
H1720 H 0.74968 0.15021 0.26085 0.0
C1721 C 0.70079 0.11957 0.22 0.0
C1722 C 0.69436 0.11263 0.23884 0.0
C1723 C 0.71498 0.13413 0.21924 0.0
C1724 C 0.75165 0.15882 0.24915 0.0
H1725 H 0.81207 0.20665 0.18534 0.0
H1726 H 0.78401 0.19035 0.1929 0.0
H1727 H 0.7766 0.17205 0.25595 0.0
H1728 H 0.69758 0.11601 0.27172 0.0
H1729 H 0.72242 0.14157 0.27038 0.0
H1730 H 0.7329 0.16718 0.21092 0.0
C1731 C 0.79235 0.19647 0.20543 0.0
C1732 C 0.76713 0.17137 0.24632 0.0
C1733 C 0.80848 0.20579 0.20109 0.0
C1734 C 0.70221 0.12097 0.25695 0.0
C1735 C 0.7165 0.13557 0.25618 0.0
C1736 C 0.74233 0.16818 0.22095 0.0
C1737 C 0.78722 0.19416 0.22575 0.0
C1738 C 0.77046 0.18224 0.23044 0.0
C1739 C 0.72317 0.1422 0.2373 0.0
C1740 C 0.73912 0.15683 0.23616 0.0
H1741 H 0.82307 0.21706 0.2498 0.0
H1742 H 0.79491 0.20091 0.25731 0.0
H1743 H 0.75993 0.18903 0.20594 0.0
H1744 H 0.69507 0.11358 0.20571 0.0
H1745 H 0.71984 0.13872 0.20443 0.0
C1746 C 0.01456 0.50852 0.93518 0.0
C1747 C 0.00911 0.51915 0.93027 0.0
C1748 C 0.01738 0.50009 0.91982 0.0
C1749 C 0.02549 0.49996 0.86479 0.0
H1750 H 0.0108 0.45508 0.87349 0.0
C1751 C 0.02584 0.45611 0.80228 0.0
C1752 C 0.02799 0.44357 0.8092 0.0
C1753 C 0.02504 0.46681 0.81636 0.0
C1754 C 0.01525 0.46766 0.87088 0.0
H1755 H 1.00262 0.52941 0.90521 0.0
H1756 H 0.00747 0.51458 0.87835 0.0
H1757 H 1.00607 0.47048 0.89918 0.0
H1758 H 0.03228 0.43312 0.83591 0.0
H1759 H 0.03167 0.45205 0.8602 0.0
H1760 H 0.03476 0.49707 0.83642 0.0
C1761 C 0.00959 0.51283 0.89414 0.0
C1762 C 0.01246 0.47649 0.88565 0.0
C1763 C 0.00664 0.52119 0.90955 0.0
C1764 C 0.0305 0.44263 0.83018 0.0
C1765 C 0.02994 0.45337 0.84412 0.0
C1766 C 0.02838 0.49111 0.84998 0.0
C1767 C 0.01492 0.50211 0.89911 0.0
C1768 C 0.01763 0.49277 0.88291 0.0
C1769 C 0.02651 0.46518 0.83755 0.0
C1770 C 0.02343 0.47485 0.85294 0.0
H1771 H 0.01648 0.50655 0.95094 0.0
H1772 H 0.02163 0.49205 0.9242 0.0
H1773 H 0.02971 0.51251 0.86226 0.0
H1774 H 0.02371 0.45698 0.78619 0.0
H1775 H 0.02239 0.47574 0.81071 0.0
C1776 C 0.55886 0.57383 0.93364 0.0
C1777 C 0.56526 0.56587 0.94477 0.0
C1778 C 0.56547 0.58113 0.91512 0.0
C1779 C 0.59101 0.58102 0.87339 0.0
H1780 H 0.59625 0.62267 0.8617 0.0
C1781 C 0.62945 0.61988 0.80699 0.0
C1782 C 0.62451 0.62941 0.79667 0.0
C1783 C 0.62133 0.61122 0.82413 0.0
C1784 C 0.59467 0.61092 0.86453 0.0
H1785 H 0.584 0.5598 0.94509 0.0
H1786 H 0.59539 0.5724 0.91295 0.0
H1787 H 0.58391 0.6096 0.89335 0.0
H1788 H 0.60675 0.63679 0.79581 0.0
H1789 H 0.59244 0.62149 0.82536 0.0
H1790 H 0.60182 0.58235 0.8446 0.0
C1791 C 0.58507 0.57276 0.91836 0.0
C1792 C 0.5876 0.60343 0.88275 0.0
C1793 C 0.5785 0.56551 0.93687 0.0
C1794 C 0.61093 0.62962 0.80345 0.0
C1795 C 0.6028 0.62095 0.82053 0.0
C1796 C 0.59806 0.58849 0.85515 0.0
C1797 C 0.57864 0.58065 0.9072 0.0
C1798 C 0.58575 0.58842 0.88749 0.0
C1799 C 0.60804 0.61186 0.83136 0.0
C1800 C 0.60006 0.60359 0.85049 0.0
H1801 H 0.54857 0.57422 0.93903 0.0
H1802 H 0.56009 0.58694 0.90684 0.0
H1803 H 0.58956 0.56934 0.87638 0.0
H1804 H 0.63991 0.61951 0.80224 0.0
H1805 H 0.62583 0.60449 0.83214 0.0
C1806 C 0.50938 0.06706 0.92863 0.0
C1807 C 0.50228 0.06361 0.94787 0.0
C1808 C 0.50005 0.0612 0.91076 0.0
C1809 C 0.45928 0.031 0.8922 0.0
H1810 H 0.4697 0.05897 0.8459 0.0
C1811 C 0.4141 0.02944 0.834 0.0
C1812 C 0.41834 0.03276 0.81348 0.0
C1813 C 0.4248 0.02937 0.84835 0.0
C1814 C 0.46682 0.05086 0.85851 0.0
H1815 H 0.47988 0.05165 0.96347 0.0
H1816 H 0.46356 0.04184 0.9324 0.0
H1817 H 0.48778 0.06732 0.87538 0.0
H1818 H 0.43664 0.03775 0.79152 0.0
H1819 H 0.45566 0.03798 0.81685 0.0
H1820 H 0.43782 0.01499 0.87567 0.0
C1821 C 0.47634 0.04862 0.93102 0.0
C1822 C 0.47717 0.05566 0.87547 0.0
C1823 C 0.48567 0.05434 0.94886 0.0
C1824 C 0.43308 0.03499 0.80724 0.0
C1825 C 0.44396 0.03525 0.82173 0.0
C1826 C 0.44885 0.0263 0.87533 0.0
C1827 C 0.4834 0.05188 0.91172 0.0
C1828 C 0.47333 0.04598 0.89276 0.0
C1829 C 0.44008 0.03295 0.84251 0.0
C1830 C 0.45234 0.03636 0.85854 0.0
H1831 H 0.52217 0.07395 0.92741 0.0
H1832 H 0.50593 0.0638 0.8962 0.0
H1833 H 0.45612 0.02304 0.905 0.0
H1834 H 0.40281 0.02776 0.83915 0.0
H1835 H 0.42151 0.02769 0.86426 0.0
C1836 C 0.48858 0.03077 0.59044 0.0
C1837 C 0.48219 0.01688 0.578 0.0
C1838 C 0.48062 0.03144 0.60772 0.0
C1839 C 0.44972 0.00642 0.64452 0.0
H1840 H 0.44931 0.04584 0.65533 0.0
C1841 C 0.41164 0.01353 0.70755 0.0
C1842 C 0.41865 0.02819 0.71846 0.0
C1843 C 0.41936 0.01134 0.69091 0.0
C1844 C 0.44946 0.0348 0.6527 0.0
H1845 H 0.4624 0.99271 0.5742 0.0
H1846 H 0.44842 0.99389 0.60441 0.0
H1847 H 0.46253 0.0435 0.62527 0.0
H1848 H 0.43952 0.05181 0.72094 0.0
H1849 H 0.45299 0.04795 0.6922 0.0
H1850 H 0.43654 0.99775 0.67203 0.0
C1851 C 0.45971 0.00423 0.60084 0.0
C1852 C 0.45705 0.03346 0.63543 0.0
C1853 C 0.46772 0.00355 0.58351 0.0
C1854 C 0.43373 0.0404 0.71279 0.0
C1855 C 0.44142 0.03823 0.6962 0.0
C1856 C 0.44208 0.00777 0.66184 0.0
C1857 C 0.46602 0.01825 0.61307 0.0
C1858 C 0.45741 0.01932 0.63119 0.0
C1859 C 0.43422 0.02379 0.6848 0.0
C1860 C 0.442 0.02204 0.66624 0.0
H1861 H 0.49987 0.04113 0.587 0.0
H1862 H 0.48602 0.04231 0.61702 0.0
H1863 H 0.44989 0.99541 0.64182 0.0
H1864 H 0.40002 0.00389 0.71152 0.0
H1865 H 0.41344 1.0001 0.6824 0.0
C1866 C 0.04325 0.51262 0.57624 0.0
C1867 C 0.05559 0.52863 0.57615 0.0
C1868 C 0.04123 0.50294 0.59303 0.0
C1869 C 0.03353 0.48681 0.63405 0.0
H1870 H 0.06978 0.49317 0.66685 0.0
C1871 C 0.02499 0.45204 0.70874 0.0
C1872 C 0.03623 0.44751 0.71409 0.0
C1873 C 0.02767 0.46244 0.69256 0.0
C1874 C 0.05949 0.49104 0.65778 0.0
H1875 H 0.07541 0.54704 0.59379 0.0
H1876 H 0.07165 0.53043 0.62336 0.0
H1877 H 0.07388 0.50953 0.63713 0.0
H1878 H 0.05917 0.45041 0.70656 0.0
H1879 H 0.06365 0.46801 0.67796 0.0
H1880 H 0.01921 0.46781 0.65404 0.0
C1881 C 0.06374 0.5251 0.61024 0.0
C1882 C 0.06183 0.50068 0.6408 0.0
C1883 C 0.0659 0.53471 0.59329 0.0
C1884 C 0.05031 0.45375 0.70295 0.0
C1885 C 0.0529 0.46396 0.68656 0.0
C1886 C 0.03121 0.47705 0.65085 0.0
C1887 C 0.05135 0.50904 0.61043 0.0
C1888 C 0.04889 0.49874 0.62863 0.0
C1889 C 0.04159 0.46843 0.68099 0.0
C1890 C 0.04413 0.479 0.66306 0.0
H1891 H 0.03526 0.5075 0.56315 0.0
H1892 H 0.03179 0.49059 0.5922 0.0
H1893 H 0.02318 0.48502 0.62542 0.0
H1894 H 0.01406 0.44754 0.71709 0.0
H1895 H 0.0188 0.46581 0.68921 0.0
C1896 C 0.5448 0.57518 0.57458 0.0
C1897 C 0.54493 0.56141 0.56756 0.0
C1898 C 0.55339 0.58335 0.59238 0.0
C1899 C 0.58848 0.59028 0.62204 0.0
H1900 H 0.57279 0.60632 0.66519 0.0
C1901 C 0.62933 0.63945 0.67949 0.0
C1902 C 0.62571 0.6371 0.70031 0.0
C1903 C 0.61884 0.62883 0.66467 0.0
C1904 C 0.57723 0.60175 0.65332 0.0
H1905 H 0.55371 0.54512 0.57421 0.0
H1906 H 0.5686 0.55933 0.60482 0.0
H1907 H 0.55506 0.59071 0.63642 0.0
H1908 H 0.60831 0.62169 0.72203 0.0
H1909 H 0.58959 0.60306 0.6958 0.0
H1910 H 0.6107 0.60156 0.63854 0.0
C1911 C 0.56202 0.56392 0.59657 0.0
C1912 C 0.56717 0.593 0.6368 0.0
C1913 C 0.55342 0.55576 0.579 0.0
C1914 C 0.61143 0.62368 0.70609 0.0
C1915 C 0.6007 0.61315 0.69112 0.0
C1916 C 0.59854 0.59917 0.63833 0.0
C1917 C 0.56233 0.57793 0.6033 0.0
C1918 C 0.57273 0.58721 0.62098 0.0
C1919 C 0.60433 0.61571 0.67027 0.0
C1920 C 0.59308 0.60507 0.65408 0.0
H1921 H 0.53834 0.57981 0.56615 0.0
H1922 H 0.55348 0.59418 0.5972 0.0
H1923 H 0.59314 0.58609 0.61 0.0
H1924 H 0.64027 0.64968 0.67459 0.0
H1925 H 0.6219 0.63115 0.64873 0.0
C1926 C 0.00933 0.58563 0.06679 0.0
C1927 C 0.99674 0.56991 0.06348 0.0
C1928 C 0.0101 0.59436 0.0844 0.0
C1929 C 0.99595 0.58948 0.13738 0.0
H1930 H 0.01084 0.63491 0.1343 0.0
C1931 C 0.99998 0.62763 0.20883 0.0
C1932 C 0.01375 0.64273 0.21088 0.0
C1933 C 0.99655 0.6187 0.19054 0.0
C1934 C 0.00678 0.62226 0.13548 0.0
H1935 H 0.975 0.55112 0.07618 0.0
H1936 H 0.97625 0.56642 0.10688 0.0
H1937 H 0.00731 0.61939 0.10307 0.0
H1938 H 0.03456 0.66041 0.1952 0.0
H1939 H 0.02868 0.64487 0.1635 0.0
H1940 H 0.99564 0.5924 0.16983 0.0
C1941 C 0.98561 0.57194 0.09587 0.0
C1942 C 1.00475 0.61335 0.11755 0.0
C1943 C 0.98481 0.56321 0.07816 0.0
C1944 C 0.02383 0.64884 0.19412 0.0
C1945 C 0.0204 0.63994 0.17587 0.0
C1946 C 0.998 0.59841 0.15534 0.0
C1947 C 0.9983 0.58762 0.09924 0.0
C1948 C 0.9995 0.59688 0.11826 0.0
C1949 C 0.00679 0.62469 0.17387 0.0
C1950 C 1.00363 0.61496 0.15466 0.0
H1951 H 0.01862 0.59127 0.05572 0.0
H1952 H 0.02014 0.60632 0.08654 0.0
H1953 H 0.99206 0.57687 0.13855 0.0
H1954 H 0.99196 0.6226 0.22145 0.0
H1955 H 0.98586 0.6071 0.18948 0.0
C1956 C 0.4797 0.5297 0.08741 0.0
C1957 C 0.49552 0.53375 0.08392 0.0
C1958 C 0.47169 0.52081 0.10441 0.0
C1959 C 0.47345 0.49452 0.14464 0.0
H1960 H 0.44348 0.50381 0.17145 0.0
C1961 C 0.44696 0.46997 0.22397 0.0
C1962 C 0.43066 0.46438 0.22638 0.0
C1963 C 0.45459 0.47764 0.20609 0.0
C1964 C 0.45168 0.50095 0.16401 0.0
H1965 H 0.51535 0.53172 0.09572 0.0
H1966 H 0.50157 0.51657 0.1257 0.0
H1967 H 0.45758 0.51904 0.14179 0.0
H1968 H 0.40955 0.46231 0.21174 0.0
H1969 H 0.42291 0.47585 0.18058 0.0
H1970 H 0.46776 0.47668 0.16734 0.0
C1971 C 0.49517 0.51991 0.11504 0.0
C1972 C 0.45977 0.50967 0.14692 0.0
C1973 C 0.50313 0.52867 0.09788 0.0
C1974 C 0.42211 0.46645 0.21037 0.0
C1975 C 0.42978 0.4743 0.19257 0.0
C1976 C 0.46547 0.48592 0.16188 0.0
C1977 C 0.47931 0.51585 0.11857 0.0
C1978 C 0.47076 0.50657 0.13693 0.0
C1979 C 0.44614 0.48008 0.19028 0.0
C1980 C 0.45446 0.48901 0.17174 0.0
H1981 H 0.47337 0.53314 0.07677 0.0
H1982 H 0.4594 0.51764 0.10625 0.0
H1983 H 0.48157 0.49154 0.13722 0.0
H1984 H 0.4539 0.46857 0.23602 0.0
H1985 H 0.46721 0.48205 0.20489 0.0
C1986 C 0.57182 0.07827 0.08287 0.0
C1987 C 0.56347 0.08668 0.08356 0.0
C1988 C 0.58089 0.07845 0.09964 0.0
C1989 C 0.60033 0.09956 0.14805 0.0
H1990 H 0.59521 0.05828 0.16198 0.0
C1991 C 0.62531 0.08806 0.22323 0.0
C1992 C 0.63172 0.07786 0.22173 0.0
C1993 C 0.61758 0.09019 0.20638 0.0
C1994 C 0.59694 0.06994 0.15817 0.0
H1995 H 0.5586 0.10242 0.10213 0.0
H1996 H 0.57451 0.10273 0.13166 0.0
H1997 H 0.58085 0.06035 0.13259 0.0
H1998 H 0.63552 0.06228 0.20128 0.0
H1999 H 0.62226 0.06612 0.17191 0.0
H2000 H 0.61646 0.1091 0.17378 0.0
C2001 C 0.57405 0.09604 0.11802 0.0
C2002 C 0.5887 0.07112 0.14132 0.0
C2003 C 0.56495 0.09588 0.10113 0.0
C2004 C 0.6306 0.07013 0.20297 0.0
C2005 C 0.62291 0.07226 0.18616 0.0
C2006 C 0.60863 0.09837 0.16497 0.0
C2007 C 0.58184 0.08704 0.11758 0.0
C2008 C 0.5904 0.08595 0.13592 0.0
C2009 C 0.61611 0.08214 0.18773 0.0
C2010 C 0.60713 0.08355 0.1701 0.0
H2011 H 0.57125 0.07141 0.06936 0.0
H2012 H 0.58707 0.07172 0.09861 0.0
H2013 H 0.60194 0.11116 0.1442 0.0
H2014 H 0.62601 0.09418 0.23751 0.0
H2015 H 0.61238 0.09779 0.20813 0.0
C2016 C 0.54335 0.01727 0.43342 0.0
C2017 C 0.54544 0.0295 0.44725 0.0
C2018 C 0.55421 0.02032 0.41787 0.0
C2019 C 0.5954 0.0482 0.40274 0.0
H2020 H 0.57915 0.03276 0.34785 0.0
C2021 C 0.6353 0.06939 0.33144 0.0
C2022 C 0.63145 0.05847 0.31505 0.0
C2023 C 0.62549 0.06531 0.34846 0.0
C2024 C 0.58396 0.03694 0.36313 0.0
H2025 H 0.56078 0.0547 0.45507 0.0
H2026 H 0.5797 0.05983 0.42829 0.0
H2027 H 0.5607 0.02649 0.37566 0.0
H2028 H 0.61484 0.03441 0.30412 0.0
H2029 H 0.59813 0.0271 0.33394 0.0
H2030 H 0.61868 0.05859 0.39025 0.0
C2031 C 0.56971 0.04784 0.42966 0.0
C2032 C 0.57333 0.03337 0.37908 0.0
C2033 C 0.55879 0.04484 0.44508 0.0
C2034 C 0.61804 0.04316 0.31642 0.0
C2035 C 0.60837 0.03902 0.33347 0.0
C2036 C 0.60606 0.05168 0.3868 0.0
C2037 C 0.56752 0.03564 0.41582 0.0
C2038 C 0.57891 0.03902 0.39904 0.0
C2039 C 0.61171 0.05015 0.34952 0.0
C2040 C 0.60048 0.04614 0.36674 0.0
H2041 H 0.53341 0.00527 0.43466 0.0
H2042 H 0.55229 0.01063 0.40756 0.0
H2043 H 0.60007 0.05259 0.41802 0.0
H2044 H 0.64552 0.08131 0.33077 0.0
H2045 H 0.62841 0.07425 0.36041 0.0
C2046 C 0.04065 0.59235 0.44702 0.0
C2047 C 0.05013 0.58519 0.44439 0.0
C2048 C 0.03823 0.60053 0.43104 0.0
C2049 C 0.05523 0.62031 0.38197 0.0
H2050 H 0.0134 0.61493 0.37169 0.0
C2051 C 0.04014 0.64141 0.3073 0.0
C2052 C 0.0302 0.64814 0.30785 0.0
C2053 C 0.04247 0.63436 0.32456 0.0
C2054 C 0.02521 0.61677 0.37449 0.0
H2055 H 0.06436 0.58107 0.42248 0.0
H2056 H 0.06022 0.59533 0.39481 0.0
H2057 H 0.0177 0.6015 0.40044 0.0
H2058 H 0.01485 0.65266 0.32718 0.0
H2059 H 0.01903 0.64042 0.35755 0.0
H2060 H 0.06278 0.63554 0.3561 0.0
C2061 C 0.0548 0.59478 0.40935 0.0
C2062 C 0.02768 0.60903 0.391 0.0
C2063 C 0.05718 0.58657 0.4253 0.0
C2064 C 0.02258 0.64758 0.32621 0.0
C2065 C 0.02492 0.64048 0.34359 0.0
C2066 C 0.05277 0.62806 0.36553 0.0
C2067 C 0.04527 0.60186 0.41196 0.0
C2068 C 0.04269 0.61056 0.39484 0.0
C2069 C 0.03498 0.63383 0.34301 0.0
C2070 C 0.03769 0.62626 0.36137 0.0
H2071 H 0.03521 0.59185 0.46151 0.0
H2072 H 0.03101 0.60601 0.43375 0.0
H2073 H 0.06702 0.62207 0.38466 0.0
H2074 H 0.04616 0.64151 0.29343 0.0
H2075 H 0.05003 0.6291 0.32329 0.0
C2076 C 0.48339 0.53624 0.46374 0.0
C2077 C 0.49846 0.54949 0.46015 0.0
C2078 C 0.47259 0.52846 0.44756 0.0
C2079 C 0.46095 0.53032 0.39484 0.0
H2080 H 0.4522 0.48656 0.39003 0.0
C2081 C 0.43373 0.49172 0.32079 0.0
C2082 C 0.42539 0.475 0.32228 0.0
C2083 C 0.4409 0.50144 0.33819 0.0
C2084 C 0.45407 0.49858 0.39124 0.0
H2085 H 0.51341 0.56575 0.437 0.0
H2086 H 0.49426 0.55234 0.4088 0.0
H2087 H 0.46705 0.50286 0.41948 0.0
H2088 H 0.41697 0.45532 0.34317 0.0
H2089 H 0.42837 0.47211 0.3736 0.0
H2090 H 0.44766 0.526 0.36686 0.0
C2091 C 0.49097 0.54792 0.42414 0.0
C2092 C 0.46274 0.50797 0.40815 0.0
C2093 C 0.50192 0.55557 0.44028 0.0
C2094 C 0.42353 0.46819 0.34157 0.0
C2095 C 0.43027 0.47788 0.35901 0.0
C2096 C 0.45191 0.52078 0.37807 0.0
C2097 C 0.47648 0.53392 0.42752 0.0
C2098 C 0.46637 0.52395 0.41006 0.0
C2099 C 0.43955 0.49464 0.35755 0.0
C2100 C 0.44844 0.50477 0.37591 0.0
H2101 H 0.48029 0.53119 0.47881 0.0
H2102 H 0.46144 0.51773 0.45057 0.0
H2103 H 0.46361 0.54263 0.396 0.0
H2104 H 0.43543 0.49725 0.30603 0.0
H2105 H 0.44804 0.51422 0.33622 0.0
C2106 C 0.71485 0.88043 0.26251 0.0
C2107 C 0.70362 0.87567 0.27814 0.0
C2108 C 0.71204 0.87093 0.24495 0.0
C2109 C 0.68843 0.82908 0.2256 0.0
H2110 H 0.7044 0.84831 0.17313 0.0
C2111 C 0.67696 0.78983 0.15334 0.0
C2112 C 0.68943 0.79408 0.13957 0.0
C2113 C 0.678 0.80034 0.16895 0.0
C2114 C 0.70001 0.84273 0.18768 0.0
H2115 H 0.68033 0.85711 0.28712 0.0
H2116 H 0.67528 0.8404 0.25619 0.0
H2117 H 0.70661 0.86519 0.20249 0.0
H2118 H 0.71258 0.81321 0.13111 0.0
H2119 H 0.71449 0.83172 0.15862 0.0
H2120 H 0.68197 0.80665 0.21091 0.0
C2121 C 0.68641 0.85155 0.25773 0.0
C2122 C 0.70124 0.85243 0.2046 0.0
C2123 C 0.68923 0.86118 0.27542 0.0
C2124 C 0.70274 0.80955 0.14135 0.0
C2125 C 0.70381 0.82014 0.15717 0.0
C2126 C 0.68719 0.81939 0.20871 0.0
C2127 C 0.69787 0.85624 0.2423 0.0
C2128 C 0.69556 0.84577 0.22388 0.0
C2129 C 0.69158 0.81551 0.17151 0.0
C2130 C 0.69299 0.82605 0.18947 0.0
H2131 H 0.72609 0.8915 0.26394 0.0
H2132 H 0.72128 0.87493 0.23372 0.0
H2133 H 0.68419 0.82348 0.24019 0.0
H2134 H 0.66638 0.77813 0.15233 0.0
H2135 H 0.66812 0.79645 0.17919 0.0
C2136 C 0.21991 0.91698 0.30397 0.0
C2137 C 0.20772 0.9009 0.30221 0.0
C2138 C 0.2281 0.92538 0.28669 0.0
C2139 C 0.23794 0.91847 0.23429 0.0
H2140 H 0.25169 0.96336 0.22761 0.0
C2141 C 0.26808 0.97122 0.16985 0.0
C2142 C 0.28058 0.96902 0.16309 0.0
C2143 C 0.25873 0.96255 0.18621 0.0
C2144 C 0.24785 0.95079 0.22913 0.0
H2145 H 0.19425 0.88132 0.2806 0.0
H2146 H 0.20834 0.89599 0.2506 0.0
H2147 H 0.23587 0.94934 0.25698 0.0
H2148 H 0.29276 0.95564 0.16805 0.0
H2149 H 0.27641 0.94045 0.19668 0.0
H2150 H 0.24981 0.91989 0.20632 0.0
C2151 C 0.21178 0.90204 0.26538 0.0
C2152 C 0.23891 0.94278 0.24613 0.0
C2153 C 0.20357 0.89366 0.28261 0.0
C2154 C 0.2832 0.95758 0.17279 0.0
C2155 C 0.27379 0.94885 0.1892 0.0
C2156 C 0.24695 0.9265 0.21732 0.0
C2157 C 0.22436 0.91793 0.26719 0.0
C2158 C 0.23379 0.92649 0.24895 0.0
C2159 C 0.26157 0.9514 0.19633 0.0
C2160 C 0.25201 0.94277 0.21446 0.0
H2161 H 0.22351 0.92293 0.3188 0.0
H2162 H 0.23777 0.93756 0.28875 0.0
H2163 H 0.23441 0.90598 0.23605 0.0
H2164 H 0.26565 0.97987 0.16271 0.0
H2165 H 0.24925 0.96463 0.19097 0.0
C2166 C 0.16789 0.39605 0.27138 0.0
C2167 C 0.17843 0.41174 0.27846 0.0
C2168 C 0.15838 0.39331 0.25391 0.0
C2169 C 0.15462 0.41359 0.20799 0.0
H2170 H 0.11051 0.37982 0.20786 0.0
C2171 C 0.10654 0.4139 0.15708 0.0
C2172 C 0.09505 0.39962 0.14739 0.0
C2173 C 0.11762 0.41392 0.17082 0.0
C2174 C 0.12287 0.3891 0.20752 0.0
H2175 H 0.18709 0.4368 0.27286 0.0
H2176 H 0.17035 0.43209 0.2426 0.0
H2177 H 0.12799 0.38284 0.23677 0.0
H2178 H 0.08634 0.37417 0.1442 0.0
H2179 H 0.10569 0.37416 0.16882 0.0
H2180 H 0.14929 0.42023 0.17912 0.0
C2181 C 0.16967 0.42187 0.25026 0.0
C2182 C 0.13291 0.39086 0.22409 0.0
C2183 C 0.17923 0.42461 0.26766 0.0
C2184 C 0.09508 0.38535 0.15144 0.0
C2185 C 0.10608 0.38533 0.16555 0.0
C2186 C 0.14457 0.4119 0.19154 0.0
C2187 C 0.15914 0.40619 0.24312 0.0
C2188 C 0.14882 0.40337 0.22473 0.0
C2189 C 0.1174 0.39964 0.17543 0.0
C2190 C 0.12852 0.39986 0.19134 0.0
H2191 H 0.16718 0.38587 0.27912 0.0
H2192 H 0.15058 0.38109 0.2487 0.0
H2193 H 0.1669 0.42309 0.20772 0.0
H2194 H 0.10693 0.42512 0.15418 0.0
H2195 H 0.12607 0.4251 0.17835 0.0
C2196 C 0.12949 0.33073 0.93931 0.0
C2197 C 0.14444 0.34235 0.93228 0.0
C2198 C 0.12233 0.33427 0.95546 0.0
C2199 C 0.12269 0.36856 0.98152 0.0
H2200 H 0.10118 0.33875 0.02487 0.0
C2201 C 0.10038 0.38722 0.05185 0.0
C2202 C 0.08549 0.37609 0.05947 0.0
C2203 C 0.1077 0.38258 0.03716 0.0
C2204 C 0.10698 0.34715 0.01276 0.0
H2205 H 0.16382 0.36662 0.93753 0.0
H2206 H 0.15131 0.37278 0.96538 0.0
H2207 H 0.1135 0.33148 0.99757 0.0
H2208 H 0.06676 0.35127 0.05794 0.0
H2209 H 0.0794 0.34321 0.03201 0.0
H2210 H 0.11607 0.38415 0.99638 0.0
C2211 C 0.14499 0.36101 0.95817 0.0
C2212 C 0.11405 0.34297 0.99713 0.0
C2213 C 0.15216 0.35747 0.94213 0.0
C2214 C 0.07825 0.36012 0.05241 0.0
C2215 C 0.08555 0.35549 0.0376 0.0
C2216 C 0.11557 0.37269 0.99704 0.0
C2217 C 0.12992 0.34953 0.9649 0.0
C2218 C 0.12209 0.35369 0.9814 0.0
C2219 C 0.10028 0.36672 0.02957 0.0
C2220 C 0.10771 0.3621 0.01297 0.0
H2221 H 0.12311 0.31901 0.93203 0.0
H2222 H 0.11065 0.32519 0.96019 0.0
H2223 H 0.12851 0.37697 0.96942 0.0
H2224 H 0.10634 0.39959 0.05708 0.0
H2225 H 0.11919 0.39149 0.03169 0.0
C2226 C 0.678 0.85285 0.91166 0.0
C2227 C 0.68951 0.86004 0.89652 0.0
C2228 C 0.68141 0.84779 0.92997 0.0
C2229 C 0.70798 0.83515 0.95403 0.0
H2230 H 0.68767 0.83812 1.00324 0.0
C2231 C 0.71353 0.80916 0.03242 0.0
C2232 C 0.69932 0.80059 0.04321 0.0
C2233 C 0.71424 0.81813 0.01523 0.0
C2234 C 0.69337 0.83707 0.98965 0.0
H2235 H 0.71393 0.8677 0.88917 0.0
H2236 H 0.72001 0.85878 0.92155 0.0
H2237 H 0.68619 0.85119 0.97239 0.0
H2238 H 0.6748 0.79504 0.04437 0.0
H2239 H 0.67607 0.81071 0.01477 0.0
H2240 H 0.71503 0.82086 0.97146 0.0
C2241 C 0.70822 0.85705 0.919 0.0
C2242 C 0.69253 0.84461 0.97187 0.0
C2243 C 0.70479 0.8623 0.9005 0.0
C2244 C 0.68597 0.80152 0.03657 0.0
C2245 C 0.68672 0.81059 0.01956 0.0
C2246 C 0.70889 0.82764 0.97194 0.0
C2247 C 0.6965 0.84967 0.934 0.0
C2248 C 0.69944 0.84343 0.95359 0.0
C2249 C 0.70082 0.81894 0.0085 0.0
C2250 C 0.70126 0.82817 0.98989 0.0
H2251 H 0.66609 0.85088 0.90931 0.0
H2252 H 0.67194 0.84194 0.94078 0.0
H2253 H 0.71338 0.83386 0.94031 0.0
H2254 H 0.72403 0.80867 0.037 0.0
H2255 H 0.72534 0.82448 0.00725 0.0
C2256 C 0.20374 0.89004 0.95217 0.0
C2257 C 0.20315 0.89815 0.93471 0.0
C2258 C 0.21348 0.89849 0.96907 0.0
C2259 C 0.2488 0.93745 0.98316 0.0
H2260 H 0.23387 0.92736 0.03865 0.0
C2261 C 0.27969 0.98239 0.04867 0.0
C2262 C 0.28273 0.97719 0.06733 0.0
C2263 C 0.26997 0.97146 0.03357 0.0
C2264 C 0.23828 0.93016 0.02326 0.0
H2265 H 0.2121 0.92167 0.92183 0.0
H2266 H 0.22902 0.93628 0.95103 0.0
H2267 H 0.21691 0.91072 0.01005 0.0
H2268 H 0.27735 0.95618 0.08483 0.0
H2269 H 0.26015 0.93691 0.05817 0.0
H2270 H 0.27001 0.95697 0.99617 0.0
C2271 C 0.22219 0.92335 0.95154 0.0
C2272 C 0.22857 0.92065 0.00687 0.0
C2273 C 0.21246 0.91494 0.93472 0.0
C2274 C 0.27533 0.96062 0.07065 0.0
C2275 C 0.26546 0.94959 0.05541 0.0
C2276 C 0.25844 0.94691 0.99945 0.0
C2277 C 0.22292 0.91525 0.96889 0.0
C2278 C 0.23359 0.92441 0.98657 0.0
C2279 C 0.26292 0.95494 0.03655 0.0
C2280 C 0.25319 0.94363 0.01967 0.0
H2281 H 0.19688 0.87713 0.95269 0.0
H2282 H 0.21385 0.89186 0.9821 0.0
H2283 H 0.25323 0.94045 0.9678 0.0
H2284 H 0.28495 0.995 0.04549 0.0
H2285 H 0.26799 0.97601 0.01945 0.0
C2286 C 0.703 0.93024 0.39455 0.0
C2287 C 0.69598 0.91403 0.38862 0.0
C2288 C 0.69852 0.93494 0.41234 0.0
C2289 C 0.68175 0.92083 0.46316 0.0
H2290 H 0.68214 0.96124 0.465 0.0
C2291 C 0.67395 0.94948 0.5388 0.0
C2292 C 0.68475 0.96594 0.54159 0.0
C2293 C 0.67276 0.9417 0.51995 0.0
C2294 C 0.68205 0.94996 0.46483 0.0
H2295 H 0.6784 0.88997 0.39673 0.0
H2296 H 0.67045 0.89821 0.42826 0.0
H2297 H 0.68382 0.94998 0.43229 0.0
H2298 H 0.70264 0.98709 0.52658 0.0
H2299 H 0.70049 0.97372 0.49402 0.0
H2300 H 0.68023 0.92104 0.4959 0.0
C2301 C 0.67951 0.9073 0.41892 0.0
C2302 C 0.683 0.94346 0.44601 0.0
C2303 C 0.68391 0.90257 0.40076 0.0
C2304 C 0.69414 0.97443 0.52503 0.0
C2305 C 0.69284 0.96674 0.50624 0.0
C2306 C 0.68073 0.92733 0.48208 0.0
C2307 C 0.6869 0.92359 0.42504 0.0
C2308 C 0.68334 0.92904 0.44488 0.0
C2309 C 0.68219 0.95025 0.50338 0.0
C2310 C 0.68132 0.94223 0.48322 0.0
H2311 H 0.71235 0.93941 0.38559 0.0
H2312 H 0.70469 0.94754 0.41654 0.0
H2313 H 0.68207 0.90976 0.46297 0.0
H2314 H 0.66657 0.94256 0.55125 0.0
H2315 H 0.66438 0.92902 0.51832 0.0
C2316 C 0.17194 0.87849 0.43131 0.0
C2317 C 0.17199 0.87246 0.41167 0.0
C2318 C 0.1616 0.86853 0.44619 0.0
C2319 C 0.12569 0.82856 0.45472 0.0
H2320 H 0.1443 0.83481 0.50912 0.0
C2321 C 0.08963 0.79322 0.52559 0.0
C2322 C 0.09761 0.78904 0.54021 0.0
C2323 C 0.09785 0.80298 0.50913 0.0
C2324 C 0.13891 0.83276 0.49401 0.0
H2325 H 0.16064 0.85121 0.39213 0.0
H2326 H 0.14273 0.83381 0.41811 0.0
H2327 H 0.15971 0.85257 0.48206 0.0
H2328 H 0.12038 0.79139 0.54848 0.0
H2329 H 0.13453 0.80803 0.51984 0.0
H2330 H 0.10499 0.80843 0.46672 0.0
C2331 C 0.15058 0.84632 0.42199 0.0
C2332 C 0.1477 0.84315 0.47848 0.0
C2333 C 0.1609 0.85632 0.40704 0.0
C2334 C 0.11385 0.79445 0.53762 0.0
C2335 C 0.12203 0.80413 0.52123 0.0
C2336 C 0.11685 0.81813 0.47033 0.0
C2337 C 0.15105 0.85219 0.44195 0.0
C2338 C 0.14128 0.84123 0.45856 0.0
C2339 C 0.11424 0.80879 0.50691 0.0
C2340 C 0.12339 0.82001 0.49018 0.0
H2341 H 0.18021 0.89086 0.43543 0.0
H2342 H 0.16208 0.87362 0.46119 0.0
H2343 H 0.12026 0.82674 0.43966 0.0
H2344 H 0.07713 0.78931 0.52713 0.0
H2345 H 0.09144 0.80636 0.49853 0.0
C2346 C 0.24498 0.42687 0.42594 0.0
C2347 C 0.22947 0.41605 0.41896 0.0
C2348 C 0.25105 0.42389 0.44383 0.0
C2349 C 0.25859 0.41833 0.48734 0.0
H2350 H 0.24696 0.3742 0.49667 0.0
C2351 C 0.27362 0.39802 0.56301 0.0
C2352 C 0.27789 0.38609 0.56195 0.0
C2353 C 0.26814 0.40216 0.54558 0.0
C2354 C 0.25047 0.38661 0.49422 0.0
H2355 H 0.20783 0.3942 0.42582 0.0
H2356 H 0.21821 0.38915 0.45716 0.0
H2357 H 0.23675 0.38079 0.46648 0.0
H2358 H 0.28006 0.36935 0.54174 0.0
H2359 H 0.27081 0.37678 0.51121 0.0
H2360 H 0.2727 0.42418 0.51483 0.0
C2361 C 0.22592 0.39966 0.44854 0.0
C2362 C 0.24442 0.39037 0.47703 0.0
C2363 C 0.21993 0.40257 0.43063 0.0
C2364 C 0.27675 0.37851 0.54306 0.0
C2365 C 0.27137 0.38272 0.52559 0.0
C2366 C 0.26472 0.41458 0.50451 0.0
C2367 C 0.24166 0.4101 0.45516 0.0
C2368 C 0.24831 0.40626 0.47342 0.0
C2369 C 0.26691 0.39454 0.52665 0.0
C2370 C 0.26069 0.39866 0.5082 0.0
H2371 H 0.25263 0.43728 0.41714 0.0
H2372 H 0.26326 0.43212 0.44838 0.0
H2373 H 0.26176 0.43068 0.48511 0.0
H2374 H 0.27434 0.40405 0.57738 0.0
H2375 H 0.2646 0.41114 0.54703 0.0
C2376 C 0.21751 0.34959 0.80256 0.0
C2377 C 0.20108 0.33877 0.80059 0.0
C2378 C 0.22752 0.35256 0.78604 0.0
C2379 C 0.23055 0.33621 0.73608 0.0
H2380 H 0.26068 0.38046 0.72433 0.0
C2381 C 0.26049 0.35483 0.65829 0.0
C2382 C 0.27633 0.36731 0.65743 0.0
C2383 C 0.25239 0.35109 0.67666 0.0
C2384 C 0.25254 0.36803 0.72756 0.0
H2385 H 0.18245 0.32233 0.7796 0.0
H2386 H 0.19996 0.32739 0.75083 0.0
H2387 H 0.24444 0.37414 0.75467 0.0
H2388 H 0.29617 0.38556 0.6753 0.0
H2389 H 0.28202 0.37888 0.70765 0.0
H2390 H 0.23857 0.33006 0.709 0.0
C2391 C 0.20507 0.33354 0.76526 0.0
C2392 C 0.24319 0.3644 0.74494 0.0
C2393 C 0.19503 0.33062 0.78179 0.0
C2394 C 0.28396 0.3759 0.67547 0.0
C2395 C 0.27582 0.37212 0.69396 0.0
C2396 C 0.23994 0.33982 0.71878 0.0
C2397 C 0.22141 0.34471 0.76712 0.0
C2398 C 0.23193 0.34847 0.74925 0.0
C2399 C 0.2599 0.35967 0.69475 0.0
C2400 C 0.25089 0.3558 0.71411 0.0
H2401 H 0.2227 0.35582 0.8169 0.0
H2402 H 0.24009 0.36101 0.78808 0.0
H2403 H 0.22219 0.3238 0.73917 0.0
H2404 H 0.25421 0.348 0.64468 0.0
H2405 H 0.24008 0.34165 0.67654 0.0
C2406 C 0.70174 0.90664 0.77383 0.0
C2407 C 0.69014 0.9044 0.78812 0.0
C2408 C 0.7038 0.91581 0.75625 0.0
C2409 C 0.68066 0.92914 0.72406 0.0
H2410 H 0.72069 0.95703 0.69843 0.0
C2411 C 0.68385 0.96942 0.65733 0.0
C2412 C 0.69396 0.97144 0.64105 0.0
C2413 C 0.68444 0.96191 0.67531 0.0
C2414 C 0.70937 0.94917 0.70526 0.0
H2415 H 0.67248 0.91094 0.7959 0.0
H2416 H 0.67635 0.9271 0.76606 0.0
H2417 H 0.72035 0.94307 0.72964 0.0
H2418 H 0.71285 0.96725 0.63123 0.0
H2419 H 0.71378 0.95403 0.66244 0.0
H2420 H 0.66959 0.93501 0.69983 0.0
C2421 C 0.68353 0.92146 0.7678 0.0
C2422 C 0.70919 0.94114 0.72321 0.0
C2423 C 0.68142 0.91229 0.78509 0.0
C2424 C 0.70487 0.96594 0.64343 0.0
C2425 C 0.70547 0.95841 0.66144 0.0
C2426 C 0.68083 0.93711 0.70621 0.0
C2427 C 0.69432 0.92293 0.75268 0.0
C2428 C 0.69483 0.93115 0.73304 0.0
C2429 C 0.69514 0.95611 0.67762 0.0
C2430 C 0.69517 0.9474 0.69658 0.0
H2431 H 0.70853 0.90058 0.77562 0.0
H2432 H 0.71226 0.91668 0.745 0.0
H2433 H 0.66929 0.92123 0.73074 0.0
H2434 H 0.67535 0.97356 0.65615 0.0
H2435 H 0.67648 0.96069 0.68748 0.0
C2436 C 0.14205 0.85276 0.78501 0.0
C2437 C 0.14701 0.84405 0.79722 0.0
C2438 C 0.13474 0.84677 0.76583 0.0
C2439 C 0.1131 0.80902 0.73549 0.0
H2440 H 0.12606 0.83643 0.68841 0.0
C2441 C 0.09867 0.78296 0.65375 0.0
C2442 C 0.09457 0.7906 0.63867 0.0
C2443 C 0.10401 0.78998 0.67311 0.0
C2444 C 0.12211 0.82866 0.70144 0.0
H2445 H 0.14825 0.8222 0.79836 0.0
H2446 H 0.13543 0.81179 0.76528 0.0
H2447 H 0.13728 0.84777 0.72224 0.0
H2448 H 0.09289 0.81169 0.63214 0.0
H2449 H 0.10218 0.82401 0.66622 0.0
H2450 H 0.09803 0.7899 0.71485 0.0
C2451 C 0.13701 0.82317 0.77064 0.0
C2452 C 0.12857 0.83516 0.72084 0.0
C2453 C 0.14438 0.82917 0.78971 0.0
C2454 C 0.09596 0.8055 0.64344 0.0
C2455 C 0.10135 0.81258 0.66293 0.0
C2456 C 0.10663 0.80255 0.71618 0.0
C2457 C 0.13209 0.83187 0.75843 0.0
C2458 C 0.12436 0.82535 0.73804 0.0
C2459 C 0.1054 0.80486 0.67804 0.0
C2460 C 0.11127 0.8122 0.69881 0.0
H2461 H 0.14365 0.86414 0.79032 0.0
H2462 H 0.13095 0.85371 0.7569 0.0
H2463 H 0.10933 0.80118 0.74846 0.0
H2464 H 0.09786 0.77152 0.65059 0.0
H2465 H 0.10731 0.78381 0.68415 0.0
C2466 C 0.38496 0.21581 0.6249 0.0
C2467 C 0.37412 0.2103 0.641 0.0
C2468 C 0.38209 0.20675 0.60694 0.0
C2469 C 0.35957 0.16517 0.58666 0.0
H2470 H 0.37405 0.18567 0.53447 0.0
C2471 C 0.34885 0.12784 0.51288 0.0
C2472 C 0.36144 0.13276 0.49914 0.0
C2473 C 0.34949 0.13786 0.52888 0.0
C2474 C 0.37007 0.17976 0.54893 0.0
H2475 H 0.35141 0.19093 0.65042 0.0
H2476 H 0.34623 0.17498 0.61873 0.0
H2477 H 0.37585 0.20168 0.56461 0.0
H2478 H 0.38431 0.15259 0.49108 0.0
H2479 H 0.3855 0.17026 0.51926 0.0
H2480 H 0.35389 0.14328 0.57104 0.0
C2481 C 0.35712 0.18637 0.62023 0.0
C2482 C 0.37107 0.18894 0.56628 0.0
C2483 C 0.36 0.19555 0.63835 0.0
C2484 C 0.3744 0.14841 0.5013 0.0
C2485 C 0.37506 0.15852 0.5175 0.0
C2486 C 0.35853 0.156 0.56932 0.0
C2487 C 0.36824 0.1918 0.60433 0.0
C2488 C 0.36596 0.18181 0.58547 0.0
C2489 C 0.36276 0.15319 0.53182 0.0
C2490 C 0.36383 0.16315 0.5502 0.0
H2491 H 0.39597 0.22713 0.62626 0.0
H2492 H 0.39107 0.2113 0.59534 0.0
H2493 H 0.35579 0.15924 0.60114 0.0
H2494 H 0.33852 0.11597 0.51157 0.0
H2495 H 0.33959 0.13346 0.53916 0.0
C2496 C 0.9136 0.22153 0.61585 0.0
C2497 C 0.90269 0.22375 0.62744 0.0
C2498 C 0.92131 0.23138 0.59931 0.0
C2499 C 0.93096 0.2707 0.57718 0.0
H2500 H 0.93963 0.25344 0.52836 0.0
C2501 C 0.95163 0.30657 0.5029 0.0
C2502 C 0.96436 0.30664 0.49278 0.0
C2503 C 0.94416 0.29611 0.51894 0.0
C2504 C 0.9374 0.25847 0.54196 0.0
H2505 H 0.89159 0.23845 0.6303 0.0
H2506 H 0.9044 0.25497 0.60137 0.0
H2507 H 0.9266 0.23595 0.55701 0.0
H2508 H 0.97896 0.29548 0.49133 0.0
H2509 H 0.96579 0.27708 0.51924 0.0
H2510 H 0.94151 0.29313 0.56198 0.0
C2511 C 0.9073 0.24582 0.60526 0.0
C2512 C 0.92996 0.24844 0.55845 0.0
C2513 C 0.8997 0.23609 0.62184 0.0
C2514 C 0.9692 0.29573 0.4988 0.0
C2515 C 0.96161 0.28515 0.51474 0.0
C2516 C 0.93824 0.28065 0.56066 0.0
C2517 C 0.9183 0.24371 0.5938 0.0
C2518 C 0.92656 0.2544 0.57629 0.0
C2519 C 0.94912 0.28535 0.52518 0.0
C2520 C 0.9415 0.27466 0.5428 0.0
H2521 H 0.91621 0.21215 0.61944 0.0
H2522 H 0.92981 0.22944 0.59103 0.0
H2523 H 0.92892 0.27587 0.59077 0.0
H2524 H 0.94758 0.31479 0.49866 0.0
H2525 H 0.93445 0.29644 0.52647 0.0
C2526 C 0.84145 0.72069 0.59792 0.0
C2527 C 0.85048 0.7362 0.60646 0.0
C2528 C 0.83323 0.71815 0.57931 0.0
C2529 C 0.83141 0.73938 0.53332 0.0
H2530 H 0.78821 0.70396 0.52775 0.0
C2531 C 0.78532 0.73908 0.478 0.0
C2532 C 0.77436 0.72484 0.46775 0.0
C2533 C 0.79622 0.73921 0.49215 0.0
C2534 C 0.80038 0.71371 0.52889 0.0
H2535 H 0.85774 0.76115 0.60224 0.0
H2536 H 0.84328 0.75675 0.56993 0.0
H2537 H 0.80387 0.70672 0.55855 0.0
H2538 H 0.76657 0.69965 0.46369 0.0
H2539 H 0.78563 0.69981 0.48895 0.0
H2540 H 0.82767 0.74671 0.50401 0.0
C2541 C 0.84282 0.74656 0.57739 0.0
C2542 C 0.80935 0.71533 0.54657 0.0
C2543 C 0.85107 0.7491 0.59596 0.0
C2544 C 0.77493 0.71079 0.47136 0.0
C2545 C 0.78574 0.71087 0.48586 0.0
C2546 C 0.82243 0.7378 0.51572 0.0
C2547 C 0.83382 0.73106 0.56881 0.0
C2548 C 0.82484 0.72841 0.54921 0.0
C2549 C 0.79633 0.72507 0.49659 0.0
C2550 C 0.80668 0.72518 0.51354 0.0
H2551 H 0.84097 0.71051 0.60538 0.0
H2552 H 0.82659 0.70609 0.57302 0.0
H2553 H 0.84343 0.74938 0.53463 0.0
H2554 H 0.78523 0.75012 0.47544 0.0
H2555 H 0.80408 0.7503 0.5003 0.0
C2556 C 0.80861 0.67564 0.24093 0.0
C2557 C 0.8178 0.68899 0.22878 0.0
C2558 C 0.80203 0.6773 0.2591 0.0
C2559 C 0.79186 0.70522 0.28585 0.0
H2560 H 0.79051 0.68155 0.33399 0.0
C2561 C 0.77753 0.72089 0.36472 0.0
C2562 C 0.76584 0.70809 0.37572 0.0
C2563 C 0.78416 0.71803 0.34749 0.0
C2564 C 0.79074 0.68816 0.32061 0.0
H2565 H 0.82694 0.71456 0.22637 0.0
H2566 H 0.81613 0.7175 0.25806 0.0
H2567 H 0.80114 0.67737 0.30227 0.0
H2568 H 0.75245 0.68224 0.37777 0.0
H2569 H 0.76423 0.67725 0.34773 0.0
H2570 H 0.78175 0.71621 0.30427 0.0
C2571 C 0.81373 0.70567 0.25346 0.0
C2572 C 0.79675 0.68573 0.30241 0.0
C2573 C 0.82018 0.704 0.23531 0.0
C2574 C 0.76142 0.69236 0.3696 0.0
C2575 C 0.76818 0.6895 0.35244 0.0
C2576 C 0.78602 0.70776 0.30405 0.0
C2577 C 0.80449 0.69236 0.26559 0.0
C2578 C 0.79751 0.69433 0.28482 0.0
C2579 C 0.77937 0.7023 0.34095 0.0
C2580 C 0.78549 0.69935 0.32167 0.0
H2581 H 0.80659 0.66391 0.23654 0.0
H2582 H 0.79485 0.66674 0.26793 0.0
H2583 H 0.79186 0.71178 0.27253 0.0
H2584 H 0.78122 0.73315 0.36905 0.0
H2585 H 0.79292 0.72814 0.33909 0.0
C2586 C 0.37504 0.21873 0.28036 0.0
C2587 C 0.37079 0.21146 0.26077 0.0
C2588 C 0.3744 0.20994 0.2976 0.0
C2589 C 0.35791 0.16852 0.31732 0.0
H2590 H 0.39203 0.18963 0.35768 0.0
C2591 C 0.38508 0.15186 0.39368 0.0
C2592 C 0.37081 0.14105 0.40306 0.0
C2593 C 0.38503 0.16057 0.37659 0.0
C2594 C 0.38245 0.18346 0.34655 0.0
H2595 H 0.36207 0.18891 0.24428 0.0
H2596 H 0.36091 0.17355 0.27438 0.0
H2597 H 0.39168 0.20395 0.32744 0.0
H2598 H 0.34527 0.13125 0.40185 0.0
H2599 H 0.34519 0.14647 0.37247 0.0
H2600 H 0.34885 0.14793 0.33627 0.0
C2601 C 0.36467 0.1861 0.27642 0.0
C2602 C 0.38213 0.19178 0.32923 0.0
C2603 C 0.36532 0.19493 0.25909 0.0
C2604 C 0.35653 0.13943 0.39508 0.0
C2605 C 0.35646 0.14808 0.37802 0.0
C2606 C 0.35821 0.16021 0.33468 0.0
C2607 C 0.3695 0.19355 0.29591 0.0
C2608 C 0.36983 0.18449 0.31434 0.0
C2609 C 0.37068 0.15868 0.36832 0.0
C2610 C 0.37046 0.16755 0.34963 0.0
H2611 H 0.37925 0.23139 0.28238 0.0
H2612 H 0.37786 0.21609 0.31231 0.0
H2613 H 0.34818 0.16247 0.30636 0.0
H2614 H 0.3963 0.15336 0.39928 0.0
H2615 H 0.39623 0.16847 0.36953 0.0
C2616 C 0.89363 0.24656 0.26586 0.0
C2617 C 0.8918 0.23142 0.26146 0.0
C2618 C 0.90208 0.25528 0.28325 0.0
C2619 C 0.91672 0.25206 0.33428 0.0
H2620 H 0.94398 0.29777 0.32823 0.0
C2621 C 0.95848 0.29752 0.39853 0.0
C2622 C 0.95833 0.31204 0.39923 0.0
C2623 C 0.95009 0.28611 0.38292 0.0
C2624 C 0.93636 0.28503 0.33021 0.0
H2625 H 0.89736 0.21354 0.2722 0.0
H2626 H 0.91223 0.22888 0.30273 0.0
H2627 H 0.93043 0.28105 0.29836 0.0
H2628 H 0.94819 0.32532 0.38519 0.0
H2629 H 0.93366 0.30558 0.35843 0.0
H2630 H 0.92275 0.25626 0.36635 0.0
C2631 C 0.90698 0.2339 0.29266 0.0
C2632 C 0.92857 0.27544 0.31309 0.0
C2633 C 0.89848 0.22513 0.27516 0.0
C2634 C 0.94884 0.31443 0.3849 0.0
C2635 C 0.94053 0.30313 0.36948 0.0
C2636 C 0.92461 0.26171 0.35152 0.0
C2637 C 0.90899 0.24916 0.29679 0.0
C2638 C 0.91835 0.2589 0.31494 0.0
C2639 C 0.94148 0.2891 0.36786 0.0
C2640 C 0.9342 0.27836 0.34969 0.0
H2641 H 0.88832 0.25163 0.25603 0.0
H2642 H 0.90306 0.26682 0.2862 0.0
H2643 H 0.90891 0.23935 0.33622 0.0
H2644 H 0.96567 0.29533 0.40936 0.0
H2645 H 0.95095 0.27535 0.38208 0.0
C2646 C 0.37626 0.26385 0.75908 0.0
C2647 C 0.36862 0.24767 0.75281 0.0
C2648 C 0.37168 0.26875 0.77659 0.0
C2649 C 0.3532 0.25508 0.82645 0.0
H2650 H 0.35495 0.29616 0.827 0.0
C2651 C 0.34509 0.28494 0.90066 0.0
C2652 C 0.35618 0.30133 0.9034 0.0
C2653 C 0.34403 0.27695 0.88206 0.0
C2654 C 0.35446 0.28469 0.8272 0.0
H2655 H 0.34983 0.2239 0.76002 0.0
H2656 H 0.34175 0.2325 0.79115 0.0
H2657 H 0.35695 0.28451 0.79478 0.0
H2658 H 0.37473 0.32214 0.88856 0.0
H2659 H 0.37283 0.30838 0.8564 0.0
H2660 H 0.35104 0.25553 0.85907 0.0
C2661 C 0.35137 0.24139 0.78227 0.0
C2662 C 0.35558 0.27797 0.80866 0.0
C2663 C 0.35588 0.23646 0.76437 0.0
C2664 C 0.36601 0.30954 0.88704 0.0
C2665 C 0.36485 0.30163 0.86848 0.0
C2666 C 0.35203 0.26183 0.84509 0.0
C2667 C 0.35931 0.25764 0.78864 0.0
C2668 C 0.35545 0.2633 0.80804 0.0
C2669 C 0.35389 0.28522 0.86567 0.0
C2670 C 0.35312 0.27696 0.84577 0.0
H2671 H 0.38609 0.27285 0.75055 0.0
H2672 H 0.37825 0.28129 0.78105 0.0
H2673 H 0.35313 0.24382 0.82661 0.0
H2674 H 0.33737 0.27824 0.91297 0.0
H2675 H 0.3354 0.26433 0.88044 0.0
C2676 C 0.84241 0.17024 0.77734 0.0
C2677 C 0.83774 0.16727 0.75661 0.0
C2678 C 0.83115 0.16326 0.79267 0.0
C2679 C 0.79338 0.12859 0.80436 0.0
H2680 H 0.79009 0.15508 0.8469 0.0
C2681 C 0.76326 0.10562 0.88246 0.0
C2682 C 0.75196 0.10992 0.8882 0.0
C2683 C 0.77239 0.11203 0.86508 0.0
C2684 C 0.79083 0.14756 0.83505 0.0
H2685 H 0.81772 0.15444 0.73569 0.0
H2686 H 0.79809 0.14172 0.76255 0.0
H2687 H 0.80913 0.16762 0.81938 0.0
H2688 H 0.74133 0.12429 0.88018 0.0
H2689 H 0.7578 0.13601 0.85005 0.0
H2690 H 0.77555 0.10849 0.8205 0.0
C2691 C 0.81042 0.14967 0.76688 0.0
C2692 C 0.80177 0.15471 0.81941 0.0
C2693 C 0.82162 0.15697 0.75154 0.0
C2694 C 0.74987 0.12068 0.87604 0.0
C2695 C 0.75933 0.12744 0.8589 0.0
C2696 C 0.78272 0.12142 0.82027 0.0
C2697 C 0.81506 0.15285 0.7876 0.0
C2698 C 0.80318 0.14529 0.80392 0.0
C2699 C 0.77072 0.12321 0.85331 0.0
C2700 C 0.78134 0.13083 0.83579 0.0
H2701 H 0.85472 0.17824 0.78167 0.0
H2702 H 0.83505 0.16585 0.80853 0.0
H2703 H 0.79427 0.12105 0.79266 0.0
H2704 H 0.76514 0.09735 0.89152 0.0
H2705 H 0.78114 0.10863 0.86119 0.0
C2706 C 0.90866 0.75304 0.76075 0.0
C2707 C 0.9062 0.74338 0.7433 0.0
C2708 C 0.91735 0.75246 0.77761 0.0
C2709 C 0.94631 0.73987 0.79303 0.0
H2710 H 0.93019 0.73861 0.84727 0.0
C2711 C 0.96881 0.72123 0.86382 0.0
C2712 C 0.97088 0.72976 0.88221 0.0
C2713 C 0.96171 0.7239 0.84676 0.0
C2714 C 0.93497 0.73917 0.83225 0.0
H2715 H 0.91142 0.72593 0.72971 0.0
H2716 H 0.92621 0.72467 0.75915 0.0
H2717 H 0.91648 0.74166 0.8177 0.0
H2718 H 0.96733 0.74791 0.89709 0.0
H2719 H 0.955 0.75262 0.86728 0.0
H2720 H 0.96469 0.73718 0.80757 0.0
C2721 C 0.92154 0.73278 0.75979 0.0
C2722 C 0.92712 0.74093 0.8153 0.0
C2723 C 0.91286 0.73335 0.74298 0.0
C2724 C 0.96584 0.74111 0.88315 0.0
C2725 C 0.9587 0.74375 0.8661 0.0
C2726 C 0.95414 0.73809 0.80997 0.0
C2727 C 0.92382 0.74225 0.77736 0.0
C2728 C 0.93262 0.74117 0.79547 0.0
C2729 C 0.95649 0.73512 0.84773 0.0
C2730 C 0.9485 0.7376 0.82977 0.0
H2731 H 0.90363 0.76083 0.76155 0.0
H2732 H 0.91903 0.76003 0.79083 0.0
H2733 H 0.95101 0.74029 0.77799 0.0
H2734 H 0.97256 0.71239 0.86264 0.0
H2735 H 0.96001 0.71692 0.83292 0.0
C2736 C 0.87789 0.68288 0.08616 0.0
C2737 C 0.88034 0.69559 0.09932 0.0
C2738 C 0.8894 0.68478 0.07205 0.0
C2739 C 0.93209 0.71007 0.06011 0.0
H2740 H 0.91783 0.693 1.00521 0.0
C2741 C 0.97475 0.72578 0.99147 0.0
C2742 C 0.97081 0.71386 0.97634 0.0
C2743 C 0.96454 0.72311 0.00781 0.0
C2744 C 0.92206 0.69764 0.02055 0.0
H2745 H 0.897 0.72037 0.10765 0.0
H2746 H 0.91699 0.72359 0.08322 0.0
H2747 H 0.8984 0.68912 0.03085 0.0
H2748 H 0.95367 0.68948 0.9672 0.0
H2749 H 0.93623 0.68469 0.9958 0.0
H2750 H 0.9558 0.71864 0.04971 0.0
C2751 C 0.90623 0.71208 0.08401 0.0
C2752 C 0.91088 0.69542 0.03527 0.0
C2753 C 0.89471 0.7102 0.09807 0.0
C2754 C 0.95697 0.69897 0.97849 0.0
C2755 C 0.94688 0.69627 0.99483 0.0
C2756 C 0.94331 0.71225 0.04536 0.0
C2757 C 0.9037 0.69942 0.07074 0.0
C2758 C 0.91572 0.70161 0.05524 0.0
C2759 C 0.95024 0.70845 0.00938 0.0
C2760 C 0.93844 0.70604 0.02537 0.0
H2761 H 0.86714 0.67139 0.08684 0.0
H2762 H 0.88715 0.67471 0.06227 0.0
H2763 H 0.93623 0.71486 0.07541 0.0
H2764 H 0.98529 0.7374 0.99018 0.0
H2765 H 0.96751 0.7328 0.01867 0.0
C2766 C 0.35748 0.22831 0.12421 0.0
C2767 C 0.36206 0.2353 0.14389 0.0
C2768 C 0.35657 0.23698 0.10771 0.0
C2769 C 0.3563 0.27446 0.0933 0.0
H2770 H 0.37035 0.26657 0.04152 0.0
C2771 C 0.35114 0.30299 0.01726 0.0
C2772 C 0.3629 0.3069 1.00252 0.0
C2773 C 0.35094 0.29479 0.035 0.0
C2774 C 0.36654 0.26912 0.05585 0.0
H2775 H 0.36882 0.25695 0.16162 0.0
H2776 H 0.36743 0.27219 0.13279 0.0
H2777 H 0.36994 0.25157 0.07122 0.0
H2778 H 0.38393 0.30556 0.99533 0.0
H2779 H 0.38384 0.29169 0.02625 0.0
H2780 H 0.35337 0.2924 0.07792 0.0
C2781 C 0.36431 0.25985 0.13013 0.0
C2782 C 0.36604 0.26026 0.07295 0.0
C2783 C 0.3651 0.25109 0.14674 0.0
C2784 C 0.37463 0.30269 0.00624 0.0
C2785 C 0.37449 0.29458 0.02399 0.0
C2786 C 0.35684 0.28338 0.07615 0.0
C2787 C 0.36038 0.25305 0.11021 0.0
C2788 C 0.36086 0.26269 0.09199 0.0
C2789 C 0.36253 0.29029 0.03859 0.0
C2790 C 0.36198 0.28087 0.05711 0.0
H2791 H 0.35494 0.21616 0.1214 0.0
H2792 H 0.35306 0.23107 0.09285 0.0
H2793 H 0.35213 0.27668 0.10756 0.0
H2794 H 0.34187 0.30597 0.01491 0.0
H2795 H 0.34142 0.29162 0.04564 0.0
C2796 C 0.81906 0.17743 0.12509 0.0
C2797 C 0.83419 0.17886 0.12624 0.0
C2798 C 0.80902 0.17011 0.10808 0.0
C2799 C 0.8022 0.14246 0.06446 0.0
H2800 H 0.77663 0.1597 0.04264 0.0
C2801 C 0.76141 0.13437 0.98783 0.0
C2802 C 0.75348 0.11762 0.98575 0.0
C2803 C 0.77068 0.14201 1.00536 0.0
C2804 C 0.78377 0.15479 0.04846 0.0
H2805 H 0.85067 0.17385 0.11017 0.0
H2806 H 0.83324 0.16115 0.08051 0.0
H2807 H 0.79437 0.17288 0.07201 0.0
H2808 H 0.7485 0.09571 1.00076 0.0
H2809 H 0.76432 0.10894 0.03136 0.0
H2810 H 0.79194 0.12463 0.04067 0.0
C2811 C 0.829 0.16545 0.09293 0.0
C2812 C 0.79381 0.16224 0.06545 0.0
C2813 C 0.83902 0.17274 0.10996 0.0
C2814 C 0.75457 0.10865 1.00181 0.0
C2815 C 0.76375 0.11625 0.01932 0.0
C2816 C 0.79219 0.13503 0.0475 0.0
C2817 C 0.81387 0.16404 0.09176 0.0
C2818 C 0.80316 0.15616 0.07367 0.0
C2819 C 0.77216 0.13304 0.02119 0.0
C2820 C 0.7828 0.14107 0.03929 0.0
H2821 H 0.81486 0.18178 0.13747 0.0
H2822 H 0.79735 0.16899 0.10788 0.0
H2823 H 0.80907 0.13733 0.07049 0.0
H2824 H 0.76083 0.14161 0.97568 0.0
H2825 H 0.77708 0.15496 0.00622 0.0
loop_
_geom_bond_atom_site_label_1
_geom_bond_atom_site_label_2
_geom_bond_distance
_geom_bond_site_symmetry_2
_ccdc_geom_bond_type
Cu0 N1 1.999 . S
Cu0 O6 1.974 1_554 S
Cu0 N11 1.985 1_554 S
Cu0 O20 1.959 . S
N1 Cu0 1.999 . S
N1 C3 1.263 . S
N1 C5 1.389 . S
N2 C3 1.358 . S
N2 C4 1.400 . S
C3 N1 1.263 . S
C3 N2 1.358 . S
C3 H9 0.930 . S
C4 N2 1.400 . S
C4 C5 1.351 . S
C4 H21 0.930 . S
C5 N1 1.389 . S
C5 C4 1.351 . S
C5 H10 0.930 . S
O6 Cu0 1.974 1_556 S
O6 C16 1.282 . S
C7 O8 1.261 . S
C7 O20 1.251 . S
O8 C7 1.261 . S
H9 C3 0.930 . S
H10 C5 0.930 . S
N11 Cu0 1.985 1_556 S
N11 C13 1.335 . S
N11 C14 1.390 . S
N12 C13 1.345 . S
N12 C15 1.336 . S
C13 N11 1.335 . S
C13 N12 1.345 . S
C13 H18 0.930 . S
C14 N11 1.390 . S
C14 C15 1.346 . S
C14 H19 0.930 . S
C15 N12 1.336 . S
C15 C14 1.346 . S
C15 H22 0.929 . S
C16 O6 1.282 . S
C16 O17 1.216 . S
O17 C16 1.216 . S
H18 C13 0.930 . S
H19 C14 0.930 . S
O20 Cu0 1.959 . S
O20 C7 1.251 . S
H21 C4 0.930 . S
H22 C15 0.929 . S
Cu23 N24 1.999 1_554 S
Cu23 O29 1.974 . S
Cu23 N34 1.985 . S
Cu23 O43 1.959 1_554 S
N24 Cu23 1.999 1_556 S
N24 C26 1.263 . S
N24 C28 1.389 . S
N25 C26 1.358 . S
N25 C27 1.400 . S
C26 N24 1.263 . S
C26 N25 1.358 . S
C26 H32 0.930 . S
C27 N25 1.400 . S
C27 C28 1.351 . S
C27 H44 0.930 . S
C28 N24 1.389 . S
C28 C27 1.351 . S
C28 H33 0.930 . S
O29 Cu23 1.974 . S
O29 C39 1.282 . S
C30 O31 1.258 1_556 S
C30 O43 1.251 . S
O31 C30 1.258 1_554 S
H32 C26 0.930 . S
H33 C28 0.930 . S
N34 Cu23 1.985 . S
N34 C36 1.335 . S
N34 C37 1.390 . S
N35 C36 1.345 . S
N35 C38 1.336 . S
C36 N34 1.335 . S
C36 N35 1.345 . S
C36 H41 0.930 . S
C37 N34 1.390 . S
C37 C38 1.346 . S
C37 H42 0.930 . S
C38 N35 1.336 . S
C38 C37 1.346 . S
C38 H45 0.929 . S
C39 O29 1.282 . S
C39 O40 1.216 . S
O40 C39 1.216 . S
H41 C36 0.930 . S
H42 C37 0.930 . S
O43 Cu23 1.959 1_556 S
O43 C30 1.251 . S
H44 C27 0.930 . S
H45 C38 0.929 . S
Cu46 N47 1.999 1_554 S
Cu46 O52 1.974 . S
Cu46 N57 1.985 . S
Cu46 O66 1.959 . S
N47 Cu46 1.999 1_556 S
N47 C49 1.263 . S
N47 C51 1.404 . S
N48 C49 1.358 . S
N48 C50 1.429 . S
C49 N47 1.263 . S
C49 N48 1.358 . S
C49 H55 0.930 . S
C50 N48 1.429 . S
C50 C51 1.347 . S
C50 H67 0.918 1_545 S
C51 N47 1.404 . S
C51 C50 1.347 . S
C51 H56 0.910 1_545 S
O52 Cu46 1.974 . S
O52 C62 1.282 . S
C53 O54 1.261 . S
C53 O66 1.251 . S
O54 C53 1.261 . S
H55 C49 0.930 . S
H56 C51 0.910 1_565 S
N57 Cu46 1.985 . S
N57 C59 1.335 . S
N57 C60 1.390 . S
N58 C59 1.345 . S
N58 C61 1.336 . S
C59 N57 1.335 . S
C59 N58 1.345 . S
C59 H64 0.930 . S
C60 N57 1.390 . S
C60 C61 1.346 . S
C60 H65 0.930 . S
C61 N58 1.336 . S
C61 C60 1.346 . S
C61 H68 0.929 . S
C62 O52 1.282 . S
C62 O63 1.216 . S
O63 C62 1.216 . S
H64 C59 0.930 . S
H65 C60 0.930 . S
O66 Cu46 1.959 . S
O66 C53 1.251 . S
H67 C50 0.918 1_565 S
H68 C61 0.929 . S
Cu69 N70 1.999 . S
Cu69 O75 1.974 . S
Cu69 N80 1.985 . S
Cu69 O89 1.959 . S
N70 Cu69 1.999 . S
N70 C72 1.263 . S
N70 C74 1.389 . S
N71 C72 1.358 . S
N71 C73 1.400 . S
C72 N70 1.263 . S
C72 N71 1.358 . S
C72 H78 0.930 . S
C73 N71 1.400 . S
C73 C74 1.351 . S
C73 H90 0.930 . S
C74 N70 1.389 . S
C74 C73 1.351 . S
C74 H79 0.930 . S
O75 Cu69 1.974 . S
O75 C85 1.282 . S
C76 O77 1.261 . S
C76 O89 1.251 . S
O77 C76 1.261 . S
H78 C72 0.930 . S
H79 C74 0.930 . S
N80 Cu69 1.985 . S
N80 C82 1.335 . S
N80 C83 1.390 . S
N81 C82 1.345 . S
N81 C84 1.336 . S
C82 N80 1.335 . S
C82 N81 1.345 . S
C82 H87 0.930 . S
C83 N80 1.390 . S
C83 C84 1.346 . S
C83 H88 0.930 . S
C84 N81 1.336 . S
C84 C83 1.346 . S
C84 H91 0.930 . S
C85 O75 1.282 . S
C85 O86 1.216 1_545 S
O86 C85 1.216 1_565 S
H87 C82 0.930 . S
H88 C83 0.930 . S
O89 Cu69 1.959 . S
O89 C76 1.251 . S
H90 C73 0.930 . S
H91 C84 0.930 . S
Cu92 N93 1.999 . S
Cu92 O98 1.974 . S
Cu92 N103 1.985 . S
Cu92 O112 1.959 . S
N93 Cu92 1.999 . S
N93 C95 1.263 . S
N93 C97 1.389 . S
N94 C95 1.358 . S
N94 C96 1.400 . S
C95 N93 1.263 . S
C95 N94 1.358 . S
C95 H101 0.930 . S
C96 N94 1.400 . S
C96 C97 1.351 . S
C96 H113 0.930 . S
C97 N93 1.389 . S
C97 C96 1.351 . S
C97 H102 0.930 . S
O98 Cu92 1.974 . S
O98 C108 1.282 . S
C99 O100 1.261 . S
C99 O112 1.251 . S
O100 C99 1.261 . S
H101 C95 0.930 . S
H102 C97 0.930 . S
N103 Cu92 1.985 . S
N103 C105 1.335 . S
N103 C106 1.390 . S
N104 C105 1.345 . S
N104 C107 1.336 . S
C105 N103 1.335 . S
C105 N104 1.345 . S
C105 H110 0.930 . S
C106 N103 1.390 . S
C106 C107 1.346 . S
C106 H111 0.930 . S
C107 N104 1.336 . S
C107 C106 1.346 . S
C107 H114 0.929 . S
C108 O98 1.282 . S
C108 O109 1.216 . S
O109 C108 1.216 . S
H110 C105 0.930 . S
H111 C106 0.930 . S
O112 Cu92 1.959 . S
O112 C99 1.251 . S
H113 C96 0.930 . S
H114 C107 0.929 . S
Cu115 N116 1.999 . S
Cu115 O121 1.974 . S
Cu115 N126 1.985 . S
Cu115 O135 1.959 . S
N116 Cu115 1.999 . S
N116 C118 1.263 . S
N116 C120 1.389 . S
N117 C118 1.358 . S
N117 C119 1.400 . S
C118 N116 1.263 . S
C118 N117 1.358 . S
C118 H124 0.930 . S
C119 N117 1.400 . S
C119 C120 1.351 . S
C119 H136 0.930 . S
C120 N116 1.389 . S
C120 C119 1.351 . S
C120 H125 0.930 . S
O121 Cu115 1.974 . S
O121 C131 1.282 . S
C122 O123 1.261 . S
C122 O135 1.251 . S
O123 C122 1.261 . S
H124 C118 0.930 . S
H125 C120 0.930 . S
N126 Cu115 1.985 . S
N126 C128 1.335 . S
N126 C129 1.390 . S
N127 C128 1.345 . S
N127 C130 1.336 . S
C128 N126 1.335 . S
C128 N127 1.345 . S
C128 H133 0.930 . S
C129 N126 1.390 . S
C129 C130 1.346 . S
C129 H134 0.930 . S
C130 N127 1.336 . S
C130 C129 1.346 . S
C130 H137 0.929 . S
C131 O121 1.282 . S
C131 O132 1.216 . S
O132 C131 1.216 . S
H133 C128 0.930 . S
H134 C129 0.930 . S
O135 Cu115 1.959 . S
O135 C122 1.251 . S
H136 C119 0.930 . S
H137 C130 0.929 . S
Cu138 N139 1.999 . S
Cu138 O144 1.974 . S
Cu138 N149 1.985 . S
Cu138 O158 1.959 . S
N139 Cu138 1.999 . S
N139 C141 1.263 . S
N139 C143 1.389 . S
N140 C141 1.358 . S
N140 C142 1.400 . S
C141 N139 1.263 . S
C141 N140 1.358 . S
C141 H147 0.930 . S
C142 N140 1.400 . S
C142 C143 1.351 . S
C142 H159 0.930 . S
C143 N139 1.389 . S
C143 C142 1.351 . S
C143 H148 0.930 . S
O144 Cu138 1.974 . S
O144 C154 1.282 . S
C145 O146 1.261 . S
C145 O158 1.251 . S
O146 C145 1.261 . S
H147 C141 0.930 . S
H148 C143 0.930 . S
N149 Cu138 1.985 . S
N149 C151 1.335 . S
N149 C152 1.390 . S
N150 C151 1.345 . S
N150 C153 1.336 . S
C151 N149 1.335 . S
C151 N150 1.345 . S
C151 H156 0.930 . S
C152 N149 1.390 . S
C152 C153 1.346 . S
C152 H157 0.930 . S
C153 N150 1.336 . S
C153 C152 1.346 . S
C153 H160 0.929 . S
C154 O144 1.282 . S
C154 O155 1.216 . S
O155 C154 1.216 . S
H156 C151 0.930 . S
H157 C152 0.930 . S
O158 Cu138 1.959 . S
O158 C145 1.251 . S
H159 C142 0.930 . S
H160 C153 0.929 . S
Cu161 N162 1.999 . S
Cu161 O167 1.974 . S
Cu161 N172 1.985 . S
Cu161 O181 1.959 . S
N162 Cu161 1.999 . S
N162 C164 1.263 . S
N162 C166 1.389 . S
N163 C164 1.358 . S
N163 C165 1.400 . S
C164 N162 1.263 . S
C164 N163 1.358 . S
C164 H170 0.930 . S
C165 N163 1.400 . S
C165 C166 1.351 . S
C165 H182 0.930 . S
C166 N162 1.389 . S
C166 C165 1.351 . S
C166 H171 0.930 . S
O167 Cu161 1.974 . S
O167 C177 1.282 . S
C168 O169 1.261 . S
C168 O181 1.251 . S
O169 C168 1.261 . S
H170 C164 0.930 . S
H171 C166 0.930 . S
N172 Cu161 1.985 . S
N172 C174 1.335 . S
N172 C175 1.390 . S
N173 C174 1.345 . S
N173 C176 1.336 . S
C174 N172 1.335 . S
C174 N173 1.345 . S
C174 H179 0.930 . S
C175 N172 1.390 . S
C175 C176 1.346 . S
C175 H180 0.930 . S
C176 N173 1.336 . S
C176 C175 1.346 . S
C176 H183 0.929 . S
C177 O167 1.282 . S
C177 O178 1.216 . S
O178 C177 1.216 . S
H179 C174 0.930 . S
H180 C175 0.930 . S
O181 Cu161 1.959 . S
O181 C168 1.251 . S
H182 C165 0.930 . S
H183 C176 0.929 . S
Cu184 N185 1.999 . S
Cu184 O190 1.974 . S
Cu184 N195 1.985 . S
Cu184 O204 1.959 . S
N185 Cu184 1.999 . S
N185 C187 1.263 . S
N185 C189 1.389 . S
N186 C187 1.358 . S
N186 C188 1.400 . S
C187 N185 1.263 . S
C187 N186 1.358 . S
C187 H193 0.930 . S
C188 N186 1.400 . S
C188 C189 1.351 . S
C188 H205 0.930 . S
C189 N185 1.389 . S
C189 C188 1.351 . S
C189 H194 0.930 . S
O190 Cu184 1.974 . S
O190 C200 1.282 . S
C191 O192 1.261 . S
C191 O204 1.251 . S
O192 C191 1.261 . S
H193 C187 0.930 . S
H194 C189 0.930 . S
N195 Cu184 1.985 . S
N195 C197 1.335 . S
N195 C198 1.390 . S
N196 C197 1.345 . S
N196 C199 1.336 . S
C197 N195 1.335 . S
C197 N196 1.345 . S
C197 H202 0.930 . S
C198 N195 1.390 . S
C198 C199 1.346 . S
C198 H203 0.930 . S
C199 N196 1.336 . S
C199 C198 1.346 . S
C199 H206 0.929 . S
C200 O190 1.282 . S
C200 O201 1.216 . S
O201 C200 1.216 . S
H202 C197 0.930 . S
H203 C198 0.930 . S
O204 Cu184 1.959 . S
O204 C191 1.251 . S
H205 C188 0.930 . S
H206 C199 0.929 . S
Cu207 N208 1.999 . S
Cu207 O213 1.974 . S
Cu207 N218 1.985 . S
Cu207 O227 1.959 . S
N208 Cu207 1.999 . S
N208 C210 1.263 . S
N208 C212 1.389 . S
N209 C210 1.358 . S
N209 C211 1.400 . S
C210 N208 1.263 . S
C210 N209 1.358 . S
C210 H216 0.930 . S
C211 N209 1.400 . S
C211 C212 1.351 . S
C211 H228 0.930 . S
C212 N208 1.389 . S
C212 C211 1.351 . S
C212 H217 0.930 . S
O213 Cu207 1.974 . S
O213 C223 1.282 . S
C214 O215 1.261 . S
C214 O227 1.251 . S
O215 C214 1.261 . S
H216 C210 0.930 . S
H217 C212 0.930 . S
N218 Cu207 1.985 . S
N218 C220 1.335 . S
N218 C221 1.390 . S
N219 C220 1.345 . S
N219 C222 1.336 . S
C220 N218 1.335 . S
C220 N219 1.345 . S
C220 H225 0.930 . S
C221 N218 1.390 . S
C221 C222 1.346 . S
C221 H226 0.930 . S
C222 N219 1.336 . S
C222 C221 1.346 . S
C222 H229 0.929 . S
C223 O213 1.282 . S
C223 O224 1.216 . S
O224 C223 1.216 . S
H225 C220 0.930 . S
H226 C221 0.930 . S
O227 Cu207 1.959 . S
O227 C214 1.251 . S
H228 C211 0.930 . S
H229 C222 0.929 . S
Cu230 N231 1.999 . S
Cu230 O236 1.974 . S
Cu230 N241 1.985 . S
Cu230 O250 1.959 . S
N231 Cu230 1.999 . S
N231 C233 1.263 . S
N231 C235 1.389 . S
N232 C233 1.358 . S
N232 C234 1.400 . S
C233 N231 1.263 . S
C233 N232 1.358 . S
C233 H239 0.930 . S
C234 N232 1.400 . S
C234 C235 1.351 . S
C234 H251 0.930 . S
C235 N231 1.389 . S
C235 C234 1.351 . S
C235 H240 0.930 . S
O236 Cu230 1.974 . S
O236 C246 1.282 . S
C237 O238 1.261 . S
C237 O250 1.251 . S
O238 C237 1.261 . S
H239 C233 0.930 . S
H240 C235 0.930 . S
N241 Cu230 1.985 . S
N241 C243 1.335 . S
N241 C244 1.390 . S
N242 C243 1.345 . S
N242 C245 1.336 . S
C243 N241 1.335 . S
C243 N242 1.345 . S
C243 H248 0.930 . S
C244 N241 1.390 . S
C244 C245 1.346 . S
C244 H249 0.930 . S
C245 N242 1.336 . S
C245 C244 1.346 . S
C245 H252 0.929 . S
C246 O236 1.282 . S
C246 O247 1.216 . S
O247 C246 1.216 . S
H248 C243 0.930 . S
H249 C244 0.930 . S
O250 Cu230 1.959 . S
O250 C237 1.251 . S
H251 C234 0.930 . S
H252 C245 0.929 . S
Cu253 N254 1.999 . S
Cu253 O259 1.974 . S
Cu253 N264 1.985 . S
Cu253 O273 1.959 . S
N254 Cu253 1.999 . S
N254 C256 1.263 . S
N254 C258 1.389 . S
N255 C256 1.358 . S
N255 C257 1.400 . S
C256 N254 1.263 . S
C256 N255 1.358 . S
C256 H262 0.930 . S
C257 N255 1.400 . S
C257 C258 1.351 . S
C257 H274 0.930 . S
C258 N254 1.389 . S
C258 C257 1.351 . S
C258 H263 0.930 . S
O259 Cu253 1.974 . S
O259 C269 1.282 . S
C260 O261 1.261 . S
C260 O273 1.251 . S
O261 C260 1.261 . S
H262 C256 0.930 . S
H263 C258 0.930 . S
N264 Cu253 1.985 . S
N264 C266 1.335 . S
N264 C267 1.390 . S
N265 C266 1.345 . S
N265 C268 1.336 . S
C266 N264 1.335 . S
C266 N265 1.345 . S
C266 H271 0.930 . S
C267 N264 1.390 . S
C267 C268 1.346 . S
C267 H272 0.930 . S
C268 N265 1.336 . S
C268 C267 1.346 . S
C268 H275 0.929 . S
C269 O259 1.282 . S
C269 O270 1.216 . S
O270 C269 1.216 . S
H271 C266 0.930 . S
H272 C267 0.930 . S
O273 Cu253 1.959 . S
O273 C260 1.251 . S
H274 C257 0.930 . S
H275 C268 0.929 . S
Cu276 N277 1.999 . S
Cu276 O282 1.974 . S
Cu276 N287 1.985 . S
Cu276 O296 1.959 . S
N277 Cu276 1.999 . S
N277 C279 1.263 . S
N277 C281 1.389 . S
N278 C279 1.358 . S
N278 C280 1.400 . S
C279 N277 1.263 . S
C279 N278 1.358 . S
C279 H285 0.930 . S
C280 N278 1.400 . S
C280 C281 1.351 . S
C280 H297 0.930 . S
C281 N277 1.389 . S
C281 C280 1.351 . S
C281 H286 0.930 . S
O282 Cu276 1.974 . S
O282 C292 1.282 . S
C283 O284 1.261 . S
C283 O296 1.251 . S
O284 C283 1.261 . S
H285 C279 0.930 . S
H286 C281 0.930 . S
N287 Cu276 1.985 . S
N287 C289 1.335 . S
N287 C290 1.390 . S
N288 C289 1.345 . S
N288 C291 1.336 . S
C289 N287 1.335 . S
C289 N288 1.345 . S
C289 H294 0.930 . S
C290 N287 1.390 . S
C290 C291 1.346 . S
C290 H295 0.930 . S
C291 N288 1.336 . S
C291 C290 1.346 . S
C291 H298 0.929 . S
C292 O282 1.282 . S
C292 O293 1.216 . S
O293 C292 1.216 . S
H294 C289 0.930 . S
H295 C290 0.930 . S
O296 Cu276 1.959 . S
O296 C283 1.251 . S
H297 C280 0.930 . S
H298 C291 0.929 . S
Cu299 N300 1.999 . S
Cu299 O305 1.974 . S
Cu299 N310 1.985 . S
Cu299 O319 1.959 . S
N300 Cu299 1.999 . S
N300 C302 1.263 . S
N300 C304 1.389 . S
N301 C302 1.358 . S
N301 C303 1.400 . S
C302 N300 1.263 . S
C302 N301 1.358 . S
C302 H308 0.930 . S
C303 N301 1.400 . S
C303 C304 1.351 . S
C303 H320 0.930 . S
C304 N300 1.389 . S
C304 C303 1.351 . S
C304 H309 0.930 . S
O305 Cu299 1.974 . S
O305 C315 1.282 . S
C306 O307 1.261 . S
C306 O319 1.251 . S
O307 C306 1.261 . S
H308 C302 0.930 . S
H309 C304 0.930 . S
N310 Cu299 1.985 . S
N310 C312 1.335 . S
N310 C313 1.390 . S
N311 C312 1.345 . S
N311 C314 1.336 . S
C312 N310 1.335 . S
C312 N311 1.345 . S
C312 H317 0.930 . S
C313 N310 1.390 . S
C313 C314 1.346 . S
C313 H318 0.930 . S
C314 N311 1.336 . S
C314 C313 1.346 . S
C314 H321 0.929 . S
C315 O305 1.282 . S
C315 O316 1.216 . S
O316 C315 1.216 . S
H317 C312 0.930 . S
H318 C313 0.930 . S
O319 Cu299 1.959 . S
O319 C306 1.251 . S
H320 C303 0.930 . S
H321 C314 0.929 . S
Cu322 N323 1.999 . S
Cu322 O328 1.974 . S
Cu322 N333 1.985 . S
Cu322 O342 1.959 . S
N323 Cu322 1.999 . S
N323 C325 1.263 . S
N323 C327 1.389 . S
N324 C325 1.358 . S
N324 C326 1.400 . S
C325 N323 1.263 . S
C325 N324 1.358 . S
C325 H331 0.930 . S
C326 N324 1.400 . S
C326 C327 1.351 . S
C326 H343 0.930 . S
C327 N323 1.389 . S
C327 C326 1.351 . S
C327 H332 0.930 . S
O328 Cu322 1.974 . S
O328 C338 1.282 . S
C329 O330 1.261 . S
C329 O342 1.251 . S
O330 C329 1.261 . S
H331 C325 0.930 . S
H332 C327 0.930 . S
N333 Cu322 1.985 . S
N333 C335 1.335 . S
N333 C336 1.390 . S
N334 C335 1.345 . S
N334 C337 1.336 . S
C335 N333 1.335 . S
C335 N334 1.345 . S
C335 H340 0.930 . S
C336 N333 1.390 . S
C336 C337 1.346 . S
C336 H341 0.930 . S
C337 N334 1.336 . S
C337 C336 1.346 . S
C337 H344 0.929 . S
C338 O328 1.282 . S
C338 O339 1.216 . S
O339 C338 1.216 . S
H340 C335 0.930 . S
H341 C336 0.930 . S
O342 Cu322 1.959 . S
O342 C329 1.251 . S
H343 C326 0.930 . S
H344 C337 0.929 . S
Cu345 N346 1.999 . S
Cu345 O351 1.974 . S
Cu345 N356 1.985 . S
Cu345 O365 1.959 . S
N346 Cu345 1.999 . S
N346 C348 1.263 . S
N346 C350 1.389 . S
N347 C348 1.358 . S
N347 C349 1.400 . S
C348 N346 1.263 . S
C348 N347 1.358 . S
C348 H354 0.930 . S
C349 N347 1.400 . S
C349 C350 1.351 . S
C349 H366 0.930 . S
C350 N346 1.389 . S
C350 C349 1.351 . S
C350 H355 0.930 . S
O351 Cu345 1.974 . S
O351 C361 1.282 . S
C352 O353 1.261 . S
C352 O365 1.251 . S
O353 C352 1.261 . S
H354 C348 0.930 . S
H355 C350 0.930 . S
N356 Cu345 1.985 . S
N356 C358 1.335 . S
N356 C359 1.390 . S
N357 C358 1.345 . S
N357 C360 1.336 . S
C358 N356 1.335 . S
C358 N357 1.345 . S
C358 H363 0.930 . S
C359 N356 1.390 . S
C359 C360 1.346 . S
C359 H364 0.930 . S
C360 N357 1.336 . S
C360 C359 1.346 . S
C360 H367 0.929 . S
C361 O351 1.282 . S
C361 O362 1.216 . S
O362 C361 1.216 . S
H363 C358 0.930 . S
H364 C359 0.930 . S
O365 Cu345 1.959 . S
O365 C352 1.251 . S
H366 C349 0.930 . S
H367 C360 0.929 . S
Cu368 N369 1.999 . S
Cu368 O374 1.974 . S
Cu368 N379 1.985 . S
Cu368 O388 1.959 . S
N369 Cu368 1.999 . S
N369 C371 1.263 . S
N369 C373 1.389 . S
N370 C371 1.358 . S
N370 C372 1.400 . S
C371 N369 1.263 . S
C371 N370 1.358 . S
C371 H377 0.930 . S
C372 N370 1.400 . S
C372 C373 1.351 . S
C372 H389 0.930 . S
C373 N369 1.389 . S
C373 C372 1.351 . S
C373 H378 0.930 . S
O374 Cu368 1.974 . S
O374 C384 1.282 . S
C375 O376 1.261 . S
C375 O388 1.251 . S
O376 C375 1.261 . S
H377 C371 0.930 . S
H378 C373 0.930 . S
N379 Cu368 1.985 . S
N379 C381 1.335 . S
N379 C382 1.390 . S
N380 C381 1.345 . S
N380 C383 1.336 . S
C381 N379 1.335 . S
C381 N380 1.345 . S
C381 H386 0.930 . S
C382 N379 1.390 . S
C382 C383 1.346 . S
C382 H387 0.930 . S
C383 N380 1.336 . S
C383 C382 1.346 . S
C383 H390 0.929 . S
C384 O374 1.282 . S
C384 O385 1.216 . S
O385 C384 1.216 . S
H386 C381 0.930 . S
H387 C382 0.930 . S
O388 Cu368 1.959 . S
O388 C375 1.251 . S
H389 C372 0.930 . S
H390 C383 0.929 . S
Cu391 N392 1.999 . S
Cu391 O397 1.974 . S
Cu391 N402 1.985 . S
Cu391 O411 1.959 . S
N392 Cu391 1.999 . S
N392 C394 1.263 . S
N392 C396 1.389 . S
N393 C394 1.358 . S
N393 C395 1.400 . S
C394 N392 1.263 . S
C394 N393 1.358 . S
C394 H400 0.930 . S
C395 N393 1.400 . S
C395 C396 1.351 . S
C395 H412 0.930 . S
C396 N392 1.389 . S
C396 C395 1.351 . S
C396 H401 0.930 . S
O397 Cu391 1.974 . S
O397 C407 1.282 . S
C398 O399 1.261 . S
C398 O411 1.251 . S
O399 C398 1.261 . S
H400 C394 0.930 . S
H401 C396 0.930 . S
N402 Cu391 1.985 . S
N402 C404 1.335 . S
N402 C405 1.390 . S
N403 C404 1.345 . S
N403 C406 1.336 . S
C404 N402 1.335 . S
C404 N403 1.345 . S
C404 H409 0.930 . S
C405 N402 1.390 . S
C405 C406 1.346 . S
C405 H410 0.930 . S
C406 N403 1.336 . S
C406 C405 1.346 . S
C406 H413 0.929 . S
C407 O397 1.282 . S
C407 O408 1.216 . S
O408 C407 1.216 . S
H409 C404 0.930 . S
H410 C405 0.930 . S
O411 Cu391 1.959 . S
O411 C398 1.251 . S
H412 C395 0.930 . S
H413 C406 0.929 . S
Co414 O415 2.216 . S
Co414 O416 2.091 . S
Co414 O418 2.004 1_455 S
Co414 O424 2.021 . S
Co414 O426 2.137 . S
Co414 O427 2.244 . S
O415 Co414 2.216 . S
O415 C422 1.247 . S
O416 Co414 2.091 . S
O416 C422 1.261 . S
C417 O426 1.247 . S
C417 O427 1.272 . S
O418 Co414 2.004 1_655 S
O418 C423 1.259 . S
Co419 O420 2.061 . S
Co419 O425 2.052 . S
Co419 O427 2.135 . S
O420 Co419 2.061 . S
O420 C423 1.235 1_455 S
C421 O424 1.238 . S
C421 O425 1.241 . S
C422 O415 1.247 . S
C422 O416 1.261 . S
C423 O418 1.259 . S
C423 O420 1.235 1_655 S
O424 Co414 2.021 . S
O424 C421 1.238 . S
O425 Co419 2.052 . S
O425 C421 1.241 . S
O426 Co414 2.137 . S
O426 C417 1.247 . S
O427 Co414 2.244 . S
O427 C417 1.272 . S
O427 Co419 2.135 . S
Co428 O429 2.216 . S
Co428 O430 2.091 . S
Co428 O432 2.004 . S
Co428 O438 2.021 . S
Co428 O440 2.137 . S
Co428 O441 2.244 . S
O429 Co428 2.216 . S
O429 C436 1.247 . S
O430 Co428 2.091 . S
O430 C436 1.261 . S
C431 O440 1.247 . S
C431 O441 1.272 . S
O432 Co428 2.004 . S
O432 C437 1.259 . S
Co433 O434 2.061 . S
Co433 O439 2.052 . S
Co433 O441 2.135 . S
O434 Co433 2.061 . S
O434 C437 1.235 . S
C435 O438 1.238 . S
C435 O439 1.241 . S
C436 O429 1.247 . S
C436 O430 1.261 . S
C437 O432 1.259 . S
C437 O434 1.235 . S
O438 Co428 2.021 . S
O438 C435 1.238 . S
O439 Co433 2.052 . S
O439 C435 1.241 . S
O440 Co428 2.137 . S
O440 C431 1.247 . S
O441 Co428 2.244 . S
O441 C431 1.272 . S
O441 Co433 2.135 . S
Co442 O443 2.216 . S
Co442 O444 2.091 . S
Co442 O446 2.004 . S
Co442 O452 2.021 . S
Co442 O454 2.137 . S
Co442 O455 2.244 . S
O443 Co442 2.216 . S
O443 C450 1.247 . S
O444 Co442 2.091 . S
O444 C450 1.261 . S
C445 O454 1.247 . S
C445 O455 1.272 . S
O446 Co442 2.004 . S
O446 C451 1.259 . S
Co447 O448 2.061 . S
Co447 O453 2.052 . S
Co447 O455 2.135 . S
O448 Co447 2.061 . S
O448 C451 1.235 . S
C449 O452 1.238 . S
C449 O453 1.241 . S
C450 O443 1.247 . S
C450 O444 1.261 . S
C451 O446 1.259 . S
C451 O448 1.235 . S
O452 Co442 2.021 . S
O452 C449 1.238 . S
O453 Co447 2.052 . S
O453 C449 1.241 . S
O454 Co442 2.137 . S
O454 C445 1.247 . S
O455 Co442 2.244 . S
O455 C445 1.272 . S
O455 Co447 2.135 . S
Co456 O457 2.216 . S
Co456 O458 2.091 . S
Co456 O460 2.004 . S
Co456 O466 2.021 . S
Co456 O468 2.137 . S
Co456 O469 2.244 . S
O457 Co456 2.216 . S
O457 C464 1.247 . S
O458 Co456 2.091 . S
O458 C464 1.261 . S
C459 O468 1.247 . S
C459 O469 1.272 . S
O460 Co456 2.004 . S
O460 C465 1.259 . S
Co461 O462 2.061 . S
Co461 O467 2.052 . S
Co461 O469 2.135 . S
O462 Co461 2.061 . S
O462 C465 1.235 . S
C463 O466 1.238 . S
C463 O467 1.241 . S
C464 O457 1.247 . S
C464 O458 1.261 . S
C465 O460 1.259 . S
C465 O462 1.235 . S
O466 Co456 2.021 . S
O466 C463 1.238 . S
O467 Co461 2.052 . S
O467 C463 1.241 . S
O468 Co456 2.137 . S
O468 C459 1.247 . S
O469 Co456 2.244 . S
O469 C459 1.272 . S
O469 Co461 2.135 . S
Co470 O471 2.216 . S
Co470 O472 2.091 . S
Co470 O474 2.004 . S
Co470 O480 2.021 . S
Co470 O482 2.137 . S
Co470 O483 2.244 . S
O471 Co470 2.216 . S
O471 C478 1.247 . S
O472 Co470 2.091 . S
O472 C478 1.261 . S
C473 O482 1.247 . S
C473 O483 1.272 . S
O474 Co470 2.004 . S
O474 C479 1.259 . S
Co475 O476 2.061 . S
Co475 O481 2.052 . S
Co475 O483 2.135 . S
O476 Co475 2.061 . S
O476 C479 1.235 . S
C477 O480 1.238 . S
C477 O481 1.241 . S
C478 O471 1.247 . S
C478 O472 1.261 . S
C479 O474 1.259 . S
C479 O476 1.235 . S
O480 Co470 2.021 . S
O480 C477 1.238 . S
O481 Co475 2.052 . S
O481 C477 1.241 . S
O482 Co470 2.137 . S
O482 C473 1.247 . S
O483 Co470 2.244 . S
O483 C473 1.272 . S
O483 Co475 2.135 . S
Co484 O485 2.216 . S
Co484 O486 2.091 . S
Co484 O488 2.004 . S
Co484 O494 2.021 . S
Co484 O496 2.137 . S
Co484 O497 2.244 . S
O485 Co484 2.216 . S
O485 C492 1.247 . S
O486 Co484 2.091 . S
O486 C492 1.261 . S
C487 O496 1.247 . S
C487 O497 1.272 . S
O488 Co484 2.004 . S
O488 C493 1.259 . S
Co489 O490 2.061 . S
Co489 O495 2.052 . S
Co489 O497 2.135 . S
O490 Co489 2.061 . S
O490 C493 1.235 . S
C491 O494 1.238 . S
C491 O495 1.241 . S
C492 O485 1.247 . S
C492 O486 1.261 . S
C493 O488 1.259 . S
C493 O490 1.235 . S
O494 Co484 2.021 . S
O494 C491 1.238 . S
O495 Co489 2.052 . S
O495 C491 1.241 . S
O496 Co484 2.137 . S
O496 C487 1.247 . S
O497 Co484 2.244 . S
O497 C487 1.272 . S
O497 Co489 2.135 . S
Co498 O499 2.216 . S
Co498 O500 2.091 . S
Co498 O502 2.004 . S
Co498 O508 2.021 1_565 S
Co498 O510 2.137 . S
Co498 O511 2.244 . S
O499 Co498 2.216 . S
O499 C506 1.247 . S
O500 Co498 2.091 . S
O500 C506 1.261 . S
C501 O510 1.247 . S
C501 O511 1.339 . S
O502 Co498 2.004 . S
O502 C507 1.259 1_565 S
Co503 O504 2.061 . S
Co503 O509 2.052 . S
Co503 O511 2.063 1_545 S
O504 Co503 2.061 . S
O504 C507 1.235 . S
C505 O508 1.238 . S
C505 O509 1.241 . S
C506 O499 1.247 . S
C506 O500 1.261 . S
C507 O502 1.259 1_545 S
C507 O504 1.235 . S
O508 Co498 2.021 1_545 S
O508 C505 1.238 . S
O509 Co503 2.052 . S
O509 C505 1.241 . S
O510 Co498 2.137 . S
O510 C501 1.247 . S
O511 Co498 2.244 . S
O511 C501 1.339 . S
O511 Co503 2.063 1_565 S
Co512 O513 2.216 . S
Co512 O514 2.091 . S
Co512 O516 2.004 . S
Co512 O522 2.021 . S
Co512 O524 2.137 . S
Co512 O525 2.244 . S
O513 Co512 2.216 . S
O513 C520 1.247 . S
O514 Co512 2.091 . S
O514 C520 1.261 . S
C515 O524 1.247 . S
C515 O525 1.272 . S
O516 Co512 2.004 . S
O516 C521 1.259 . S
Co517 O518 2.061 . S
Co517 O523 2.052 . S
Co517 O525 2.135 . S
O518 Co517 2.061 . S
O518 C521 1.235 . S
C519 O522 1.238 . S
C519 O523 1.241 . S
C520 O513 1.247 . S
C520 O514 1.261 . S
C521 O516 1.259 . S
C521 O518 1.235 . S
O522 Co512 2.021 . S
O522 C519 1.238 . S
O523 Co517 2.052 . S
O523 C519 1.241 . S
O524 Co512 2.137 . S
O524 C515 1.247 . S
O525 Co512 2.244 . S
O525 C515 1.272 . S
O525 Co517 2.135 . S
Co526 O527 2.216 . S
Co526 O528 2.091 . S
Co526 O530 2.004 . S
Co526 O536 2.021 . S
Co526 O538 2.137 . S
Co526 O539 2.244 . S
O527 Co526 2.216 . S
O527 C534 1.247 . S
O528 Co526 2.091 . S
O528 C534 1.261 . S
C529 O538 1.247 . S
C529 O539 1.272 . S
O530 Co526 2.004 . S
O530 C535 1.259 . S
Co531 O532 2.061 . S
Co531 O537 2.052 . S
Co531 O539 2.135 . S
O532 Co531 2.061 . S
O532 C535 1.235 . S
C533 O536 1.238 . S
C533 O537 1.241 . S
C534 O527 1.247 . S
C534 O528 1.261 . S
C535 O530 1.259 . S
C535 O532 1.235 . S
O536 Co526 2.021 . S
O536 C533 1.238 . S
O537 Co531 2.052 . S
O537 C533 1.241 . S
O538 Co526 2.137 . S
O538 C529 1.247 . S
O539 Co526 2.244 . S
O539 C529 1.272 . S
O539 Co531 2.135 . S
Co540 O541 2.216 . S
Co540 O542 2.091 . S
Co540 O544 2.004 . S
Co540 O550 2.021 . S
Co540 O552 2.137 . S
Co540 O553 2.244 . S
O541 Co540 2.216 . S
O541 C548 1.247 . S
O542 Co540 2.091 . S
O542 C548 1.261 . S
C543 O552 1.247 . S
C543 O553 1.272 . S
O544 Co540 2.004 . S
O544 C549 1.259 . S
Co545 O546 2.061 . S
Co545 O551 2.052 . S
Co545 O553 2.135 . S
O546 Co545 2.061 . S
O546 C549 1.235 . S
C547 O550 1.238 . S
C547 O551 1.241 . S
C548 O541 1.247 . S
C548 O542 1.261 . S
C549 O544 1.259 . S
C549 O546 1.235 . S
O550 Co540 2.021 . S
O550 C547 1.238 . S
O551 Co545 2.052 . S
O551 C547 1.241 . S
O552 Co540 2.137 . S
O552 C543 1.247 . S
O553 Co540 2.244 . S
O553 C543 1.272 . S
O553 Co545 2.135 . S
Co554 O555 2.216 . S
Co554 O556 2.091 . S
Co554 O558 2.004 . S
Co554 O564 2.021 . S
Co554 O566 2.137 1_565 S
Co554 O567 2.244 1_565 S
O555 Co554 2.216 . S
O555 C562 1.247 . S
O556 Co554 2.091 . S
O556 C562 1.261 . S
C557 O566 1.247 . S
C557 O567 1.272 . S
O558 Co554 2.004 . S
O558 C563 1.259 1_565 S
Co559 O560 2.061 . S
Co559 O565 2.052 1_545 S
Co559 O567 2.135 . S
O560 Co559 2.061 . S
O560 C563 1.235 . S
C561 O564 1.238 . S
C561 O565 1.241 . S
C562 O555 1.247 . S
C562 O556 1.261 . S
C563 O558 1.259 1_545 S
C563 O560 1.235 . S
O564 Co554 2.021 . S
O564 C561 1.238 . S
O565 Co559 2.052 1_565 S
O565 C561 1.241 . S
O566 Co554 2.137 1_545 S
O566 C557 1.247 . S
O567 Co554 2.244 1_545 S
O567 C557 1.272 . S
O567 Co559 2.135 . S
Co568 O569 2.216 . S
Co568 O570 2.091 . S
Co568 O572 2.004 . S
Co568 O578 2.021 . S
Co568 O580 2.137 . S
Co568 O581 2.244 . S
O569 Co568 2.216 . S
O569 C576 1.247 . S
O570 Co568 2.091 . S
O570 C576 1.261 . S
C571 O580 1.247 . S
C571 O581 1.272 . S
O572 Co568 2.004 . S
O572 C577 1.259 . S
Co573 O574 2.061 . S
Co573 O579 2.052 . S
Co573 O581 2.135 . S
O574 Co573 2.061 . S
O574 C577 1.235 . S
C575 O578 1.238 . S
C575 O579 1.241 . S
C576 O569 1.247 . S
C576 O570 1.261 . S
C577 O572 1.259 . S
C577 O574 1.235 . S
O578 Co568 2.021 . S
O578 C575 1.238 . S
O579 Co573 2.052 . S
O579 C575 1.241 . S
O580 Co568 2.137 . S
O580 C571 1.247 . S
O581 Co568 2.244 . S
O581 C571 1.272 . S
O581 Co573 2.135 . S
Co582 O583 2.216 . S
Co582 O584 2.091 . S
Co582 O586 2.004 . S
Co582 O592 2.021 . S
Co582 O594 2.137 . S
Co582 O595 2.244 . S
O583 Co582 2.216 . S
O583 C590 1.247 . S
O584 Co582 2.091 . S
O584 C590 1.261 . S
C585 O594 1.247 . S
C585 O595 1.272 . S
O586 Co582 2.004 . S
O586 C591 1.259 . S
Co587 O588 2.061 . S
Co587 O593 2.052 . S
Co587 O595 2.135 . S
O588 Co587 2.061 . S
O588 C591 1.235 . S
C589 O592 1.238 . S
C589 O593 1.241 . S
C590 O583 1.247 . S
C590 O584 1.261 . S
C591 O586 1.259 . S
C591 O588 1.235 . S
O592 Co582 2.021 . S
O592 C589 1.238 . S
O593 Co587 2.052 . S
O593 C589 1.241 . S
O594 Co582 2.137 . S
O594 C585 1.247 . S
O595 Co582 2.244 . S
O595 C585 1.272 . S
O595 Co587 2.135 . S
Co596 O597 2.216 . S
Co596 O598 2.091 . S
Co596 O600 2.004 . S
Co596 O606 2.021 . S
Co596 O608 2.137 . S
Co596 O609 2.244 . S
O597 Co596 2.216 . S
O597 C604 1.247 . S
O598 Co596 2.091 . S
O598 C604 1.261 . S
C599 O608 1.247 . S
C599 O609 1.272 . S
O600 Co596 2.004 . S
O600 C605 1.259 . S
Co601 O602 2.061 . S
Co601 O607 2.052 . S
Co601 O609 2.135 . S
O602 Co601 2.061 . S
O602 C605 1.235 . S
C603 O606 1.238 . S
C603 O607 1.241 . S
C604 O597 1.247 . S
C604 O598 1.261 . S
C605 O600 1.259 . S
C605 O602 1.235 . S
O606 Co596 2.021 . S
O606 C603 1.238 . S
O607 Co601 2.052 . S
O607 C603 1.241 . S
O608 Co596 2.137 . S
O608 C599 1.247 . S
O609 Co596 2.244 . S
O609 C599 1.272 . S
O609 Co601 2.135 . S
Co610 O611 2.216 . S
Co610 O612 2.091 . S
Co610 O614 2.004 . S
Co610 O620 2.021 . S
Co610 O622 2.137 . S
Co610 O623 2.244 . S
O611 Co610 2.216 . S
O611 C618 1.247 . S
O612 Co610 2.091 . S
O612 C618 1.261 . S
C613 O622 1.247 . S
C613 O623 1.272 . S
O614 Co610 2.004 . S
O614 C619 1.259 1_655 S
Co615 O616 2.061 1_655 S
Co615 O621 2.052 . S
Co615 O623 2.135 . S
O616 Co615 2.061 1_455 S
O616 C619 1.235 . S
C617 O620 1.238 . S
C617 O621 1.241 . S
C618 O611 1.247 . S
C618 O612 1.261 . S
C619 O614 1.259 1_455 S
C619 O616 1.235 . S
O620 Co610 2.021 . S
O620 C617 1.238 . S
O621 Co615 2.052 . S
O621 C617 1.241 . S
O622 Co610 2.137 . S
O622 C613 1.247 . S
O623 Co610 2.244 . S
O623 C613 1.272 . S
O623 Co615 2.135 . S
Co624 O625 2.216 . S
Co624 O626 2.091 . S
Co624 O628 2.004 . S
Co624 O634 2.021 . S
Co624 O636 2.137 . S
Co624 O637 2.244 . S
O625 Co624 2.216 . S
O625 C632 1.247 . S
O626 Co624 2.091 . S
O626 C632 1.261 . S
C627 O636 1.247 . S
C627 O637 1.272 . S
O628 Co624 2.004 . S
O628 C633 1.259 . S
Co629 O630 2.061 . S
Co629 O635 2.052 . S
Co629 O637 2.135 . S
O630 Co629 2.061 . S
O630 C633 1.235 . S
C631 O634 1.238 . S
C631 O635 1.241 . S
C632 O625 1.247 . S
C632 O626 1.261 . S
C633 O628 1.259 . S
C633 O630 1.235 . S
O634 Co624 2.021 . S
O634 C631 1.238 . S
O635 Co629 2.052 . S
O635 C631 1.241 . S
O636 Co624 2.137 . S
O636 C627 1.247 . S
O637 Co624 2.244 . S
O637 C627 1.272 . S
O637 Co629 2.135 . S
Co638 O639 2.216 . S
Co638 O640 2.091 . S
Co638 O642 2.004 . S
Co638 O648 2.021 . S
Co638 O650 2.137 . S
Co638 O651 2.244 . S
O639 Co638 2.216 . S
O639 C646 1.247 . S
O640 Co638 2.091 . S
O640 C646 1.261 . S
C641 O650 1.247 . S
C641 O651 1.272 . S
O642 Co638 2.004 . S
O642 C647 1.259 1_655 S
Co643 O644 2.061 1_655 S
Co643 O649 2.052 . S
Co643 O651 2.135 . S
O644 Co643 2.061 1_455 S
O644 C647 1.235 . S
C645 O648 1.238 . S
C645 O649 1.241 . S
C646 O639 1.247 . S
C646 O640 1.261 . S
C647 O642 1.259 1_455 S
C647 O644 1.235 . S
O648 Co638 2.021 . S
O648 C645 1.238 . S
O649 Co643 2.052 . S
O649 C645 1.241 . S
O650 Co638 2.137 . S
O650 C641 1.247 . S
O651 Co638 2.244 . S
O651 C641 1.272 . S
O651 Co643 2.135 . S
Co652 O653 2.216 . S
Co652 O654 2.091 . S
Co652 O656 2.004 . S
Co652 O662 2.021 . S
Co652 O664 2.137 . S
Co652 O665 2.244 . S
O653 Co652 2.216 . S
O653 C660 1.247 . S
O654 Co652 2.091 . S
O654 C660 1.261 . S
C655 O664 1.247 . S
C655 O665 1.272 . S
O656 Co652 2.004 . S
O656 C661 1.259 . S
Co657 O658 2.061 . S
Co657 O663 2.052 . S
Co657 O665 2.135 . S
O658 Co657 2.061 . S
O658 C661 1.235 . S
C659 O662 1.238 . S
C659 O663 1.241 . S
C660 O653 1.247 . S
C660 O654 1.261 . S
C661 O656 1.259 . S
C661 O658 1.235 . S
O662 Co652 2.021 . S
O662 C659 1.238 . S
O663 Co657 2.052 . S
O663 C659 1.241 . S
O664 Co652 2.137 . S
O664 C655 1.247 . S
O665 Co652 2.244 . S
O665 C655 1.272 . S
O665 Co657 2.135 . S
C666 C667 1.349 . S
C666 C668 1.327 . S
C666 H691 0.950 . S
C667 C666 1.349 . S
C667 C683 1.349 . S
C668 C666 1.327 . S
C668 C687 1.429 . S
C668 H692 0.950 . S
C669 C686 1.574 . S
C669 C688 1.368 . S
C669 H693 0.949 . S
H670 C674 0.949 . S
C671 C672 1.349 . S
C671 C673 1.327 . S
C671 H694 0.950 . S
C672 C671 1.349 . S
C672 C684 1.349 . S
C673 C671 1.327 . S
C673 C689 1.429 . S
C673 H695 0.950 . S
C674 H670 0.949 . S
C674 C682 1.574 . S
C674 C690 1.368 . S
H675 C683 0.950 . S
H676 C681 0.950 . S
H677 C682 0.949 . S
H678 C684 0.950 . S
H679 C685 0.950 . S
H680 C686 0.949 . S
C681 H676 0.950 . S
C681 C683 1.327 . S
C681 C687 1.429 . S
C682 C674 1.574 . S
C682 H677 0.949 . S
C682 C688 1.368 . S
C683 C667 1.349 . S
C683 H675 0.950 . S
C683 C681 1.327 . S
C684 C672 1.349 . S
C684 H678 0.950 . S
C684 C685 1.327 . S
C685 H679 0.950 . S
C685 C684 1.327 . S
C685 C689 1.429 . S
C686 C669 1.574 . S
C686 H680 0.949 . S
C686 C690 1.368 . S
C687 C668 1.429 . S
C687 C681 1.429 . S
C687 C688 1.523 . S
C688 C669 1.368 . S
C688 C682 1.368 . S
C688 C687 1.523 . S
C689 C673 1.429 . S
C689 C685 1.429 . S
C689 C690 1.523 . S
C690 C674 1.368 . S
C690 C686 1.368 . S
C690 C689 1.523 . S
H691 C666 0.950 . S
H692 C668 0.950 . S
H693 C669 0.949 . S
H694 C671 0.950 . S
H695 C673 0.950 . S
C696 C697 1.349 . S
C696 C698 1.327 . S
C696 H721 0.950 . S
C697 C696 1.349 . S
C697 C713 1.349 . S
C698 C696 1.327 . S
C698 C717 1.429 . S
C698 H722 0.950 . S
C699 C716 1.574 . S
C699 C718 1.368 . S
C699 H723 0.949 . S
H700 C704 0.949 . S
C701 C702 1.349 . S
C701 C703 1.327 . S
C701 H724 0.950 . S
C702 C701 1.349 . S
C702 C714 1.349 . S
C703 C701 1.327 . S
C703 C719 1.429 . S
C703 H725 0.950 . S
C704 H700 0.949 . S
C704 C712 1.574 . S
C704 C720 1.368 . S
H705 C713 0.950 . S
H706 C711 0.950 . S
H707 C712 0.949 . S
H708 C714 0.950 . S
H709 C715 0.950 . S
H710 C716 0.949 . S
C711 H706 0.950 . S
C711 C713 1.327 . S
C711 C717 1.429 . S
C712 C704 1.574 . S
C712 H707 0.949 . S
C712 C718 1.368 . S
C713 C697 1.349 . S
C713 H705 0.950 . S
C713 C711 1.327 . S
C714 C702 1.349 . S
C714 H708 0.950 . S
C714 C715 1.327 . S
C715 H709 0.950 . S
C715 C714 1.327 . S
C715 C719 1.429 . S
C716 C699 1.574 . S
C716 H710 0.949 . S
C716 C720 1.368 . S
C717 C698 1.429 . S
C717 C711 1.429 . S
C717 C718 1.523 . S
C718 C699 1.368 . S
C718 C712 1.368 . S
C718 C717 1.523 . S
C719 C703 1.429 . S
C719 C715 1.429 . S
C719 C720 1.523 . S
C720 C704 1.368 . S
C720 C716 1.368 . S
C720 C719 1.523 . S
H721 C696 0.950 . S
H722 C698 0.950 . S
H723 C699 0.949 . S
H724 C701 0.950 . S
H725 C703 0.950 . S
C726 C727 1.349 1_565 S
C726 C728 1.327 . S
C726 H751 0.950 . S
C727 C726 1.349 1_545 S
C727 C743 1.349 . S
C728 C726 1.327 . S
C728 C747 1.429 1_565 S
C728 H752 0.950 . S
C729 C746 1.574 . S
C729 C748 1.368 . S
C729 H753 0.949 . S
H730 C734 0.949 . S
C731 C732 1.375 . S
C731 C733 1.327 . S
C731 H754 0.950 . S
C732 C731 1.375 . S
C732 C744 1.292 1_545 S
C733 C731 1.327 . S
C733 C749 1.429 . S
C733 H755 0.950 . S
C734 H730 0.949 . S
C734 C742 1.574 . S
C734 C750 1.368 1_565 S
H735 C743 0.950 . S
H736 C741 0.950 . S
H737 C742 0.949 . S
H738 C744 0.950 . S
H739 C745 0.950 . S
H740 C746 0.949 . S
C741 H736 0.950 . S
C741 C743 1.327 . S
C741 C747 1.429 . S
C742 C734 1.574 . S
C742 H737 0.949 . S
C742 C748 1.368 1_565 S
C743 C727 1.349 . S
C743 H735 0.950 . S
C743 C741 1.327 . S
C744 C732 1.292 1_565 S
C744 H738 0.950 . S
C744 C745 1.327 . S
C745 H739 0.950 . S
C745 C744 1.327 . S
C745 C749 1.429 1_565 S
C746 C729 1.574 . S
C746 H740 0.949 . S
C746 C750 1.368 . S
C747 C728 1.429 1_545 S
C747 C741 1.429 . S
C747 C748 1.523 . S
C748 C729 1.368 . S
C748 C742 1.368 1_545 S
C748 C747 1.523 . S
C749 C733 1.429 . S
C749 C745 1.429 1_545 S
C749 C750 1.523 . S
C750 C734 1.368 1_545 S
C750 C746 1.368 . S
C750 C749 1.523 . S
H751 C726 0.950 . S
H752 C728 0.950 . S
H753 C729 0.949 . S
H754 C731 0.950 . S
H755 C733 0.950 . S
C756 C757 1.349 . S
C756 C758 1.327 . S
C756 H781 0.950 . S
C757 C756 1.349 . S
C757 C773 1.349 . S
C758 C756 1.327 . S
C758 C777 1.429 . S
C758 H782 0.950 . S
C759 C776 1.574 . S
C759 C778 1.368 . S
C759 H783 0.949 . S
H760 C764 0.949 . S
C761 C762 1.349 . S
C761 C763 1.327 . S
C761 H784 0.950 . S
C762 C761 1.349 . S
C762 C774 1.349 . S
C763 C761 1.327 . S
C763 C779 1.429 . S
C763 H785 0.950 . S
C764 H760 0.949 . S
C764 C772 1.574 . S
C764 C780 1.368 . S
H765 C773 0.950 . S
H766 C771 0.950 . S
H767 C772 0.949 . S
H768 C774 0.950 . S
H769 C775 0.950 . S
H770 C776 0.949 . S
C771 H766 0.950 . S
C771 C773 1.327 . S
C771 C777 1.429 . S
C772 C764 1.574 . S
C772 H767 0.949 . S
C772 C778 1.368 . S
C773 C757 1.349 . S
C773 H765 0.950 . S
C773 C771 1.327 . S
C774 C762 1.349 . S
C774 H768 0.950 . S
C774 C775 1.327 . S
C775 H769 0.950 . S
C775 C774 1.327 . S
C775 C779 1.429 . S
C776 C759 1.574 . S
C776 H770 0.949 . S
C776 C780 1.368 . S
C777 C758 1.429 . S
C777 C771 1.429 . S
C777 C778 1.523 . S
C778 C759 1.368 . S
C778 C772 1.368 . S
C778 C777 1.523 . S
C779 C763 1.429 . S
C779 C775 1.429 . S
C779 C780 1.523 . S
C780 C764 1.368 . S
C780 C776 1.368 . S
C780 C779 1.523 . S
H781 C756 0.950 . S
H782 C758 0.950 . S
H783 C759 0.949 . S
H784 C761 0.950 . S
H785 C763 0.950 . S
C786 C787 1.349 . S
C786 C788 1.327 . S
C786 H811 0.950 . S
C787 C786 1.349 . S
C787 C803 1.349 . S
C788 C786 1.327 . S
C788 C807 1.429 . S
C788 H812 0.950 . S
C789 C806 1.574 . S
C789 C808 1.368 . S
C789 H813 0.949 . S
H790 C794 0.949 . S
C791 C792 1.349 . S
C791 C793 1.327 . S
C791 H814 0.950 . S
C792 C791 1.349 . S
C792 C804 1.349 1_655 S
C793 C791 1.327 . S
C793 C809 1.429 1_655 S
C793 H815 0.950 . S
C794 H790 0.949 . S
C794 C802 1.574 . S
C794 C810 1.368 . S
H795 C803 0.950 . S
H796 C801 0.950 . S
H797 C802 0.949 . S
H798 C804 0.950 . S
H799 C805 0.950 . S
H800 C806 0.973 . S
C801 H796 0.950 . S
C801 C803 1.327 . S
C801 C807 1.429 . S
C802 C794 1.574 . S
C802 H797 0.949 . S
C802 C808 1.368 . S
C803 C787 1.349 . S
C803 H795 0.950 . S
C803 C801 1.327 . S
C804 C792 1.349 1_455 S
C804 H798 0.950 . S
C804 C805 1.327 . S
C805 H799 0.950 . S
C805 C804 1.327 . S
C805 C809 1.429 . S
C806 C789 1.574 . S
C806 H800 0.973 . S
C806 C810 1.368 . S
C807 C788 1.429 . S
C807 C801 1.429 . S
C807 C808 1.523 . S
C808 C789 1.368 . S
C808 C802 1.368 . S
C808 C807 1.523 . S
C809 C793 1.429 1_455 S
C809 C805 1.429 . S
C809 C810 1.523 . S
C810 C794 1.368 . S
C810 C806 1.368 . S
C810 C809 1.523 . S
H811 C786 0.950 . S
H812 C788 0.950 . S
H813 C789 0.949 . S
H814 C791 0.950 . S
H815 C793 0.950 . S
C816 C817 1.349 . S
C816 C818 1.327 . S
C816 H841 0.950 . S
C817 C816 1.349 . S
C817 C833 1.349 . S
C818 C816 1.327 . S
C818 C837 1.429 . S
C818 H842 0.950 . S
C819 C836 1.574 . S
C819 C838 1.368 . S
C819 H843 0.949 . S
H820 C824 0.949 . S
C821 C822 1.349 . S
C821 C823 1.327 . S
C821 H844 0.950 . S
C822 C821 1.349 . S
C822 C834 1.349 . S
C823 C821 1.327 . S
C823 C839 1.429 . S
C823 H845 0.950 . S
C824 H820 0.949 . S
C824 C832 1.574 . S
C824 C840 1.368 . S
H825 C833 0.950 . S
H826 C831 0.950 . S
H827 C832 0.949 . S
H828 C834 0.950 . S
H829 C835 0.950 . S
H830 C836 0.949 . S
C831 H826 0.950 . S
C831 C833 1.327 . S
C831 C837 1.429 . S
C832 C824 1.574 . S
C832 H827 0.949 . S
C832 C838 1.368 . S
C833 C817 1.349 . S
C833 H825 0.950 . S
C833 C831 1.327 . S
C834 C822 1.349 . S
C834 H828 0.950 . S
C834 C835 1.327 . S
C835 H829 0.950 . S
C835 C834 1.327 . S
C835 C839 1.429 . S
C836 C819 1.574 . S
C836 H830 0.949 . S
C836 C840 1.368 . S
C837 C818 1.429 . S
C837 C831 1.429 . S
C837 C838 1.523 . S
C838 C819 1.368 . S
C838 C832 1.368 . S
C838 C837 1.523 . S
C839 C823 1.429 . S
C839 C835 1.429 . S
C839 C840 1.523 . S
C840 C824 1.368 . S
C840 C836 1.368 . S
C840 C839 1.523 . S
H841 C816 0.950 . S
H842 C818 0.950 . S
H843 C819 0.949 . S
H844 C821 0.950 . S
H845 C823 0.950 . S
C846 C847 1.349 . S
C846 C848 1.327 . S
C846 H871 0.950 1_556 S
C847 C846 1.349 . S
C847 C863 1.349 . S
C848 C846 1.327 . S
C848 C867 1.429 . S
C848 H872 0.950 . S
C849 C866 1.564 1_455 S
C849 C868 1.368 . S
C849 H873 0.949 . S
H850 C854 0.949 . S
C851 C852 1.349 . S
C851 C853 1.327 . S
C851 H874 0.950 . S
C852 C851 1.349 . S
C852 C864 1.349 1_655 S
C853 C851 1.327 . S
C853 C869 1.429 1_655 S
C853 H875 0.950 . S
C854 H850 0.949 . S
C854 C862 1.574 . S
C854 C870 1.368 . S
H855 C863 0.950 . S
H856 C861 0.950 . S
H857 C862 0.949 . S
H858 C864 0.950 . S
H859 C865 0.950 . S
H860 C866 0.958 . S
C861 H856 0.950 . S
C861 C863 1.327 . S
C861 C867 1.429 . S
C862 C854 1.574 . S
C862 H857 0.949 . S
C862 C868 1.368 . S
C863 C847 1.349 . S
C863 H855 0.950 . S
C863 C861 1.327 . S
C864 C852 1.349 1_455 S
C864 H858 0.950 . S
C864 C865 1.327 . S
C865 H859 0.950 . S
C865 C864 1.327 . S
C865 C869 1.429 . S
C866 C849 1.564 1_655 S
C866 H860 0.958 . S
C866 C870 1.368 1_655 S
C867 C848 1.429 . S
C867 C861 1.429 . S
C867 C868 1.523 . S
C868 C849 1.368 . S
C868 C862 1.368 . S
C868 C867 1.523 . S
C869 C853 1.429 1_455 S
C869 C865 1.429 . S
C869 C870 1.523 . S
C870 C854 1.368 . S
C870 C866 1.368 1_455 S
C870 C869 1.523 . S
H871 C846 0.950 1_554 S
H872 C848 0.950 . S
H873 C849 0.949 . S
H874 C851 0.950 . S
H875 C853 0.950 . S
C876 C877 1.349 1_554 S
C876 C878 1.327 1_554 S
C876 H901 0.950 . S
C877 C876 1.349 1_556 S
C877 C893 1.349 . S
C878 C876 1.327 1_556 S
C878 C897 1.429 . S
C878 H902 0.950 1_556 S
C879 C896 1.574 . S
C879 C898 1.368 . S
C879 H903 0.949 . S
H880 C884 0.949 . S
C881 C882 1.349 . S
C881 C883 1.327 . S
C881 H904 0.950 . S
C882 C881 1.349 . S
C882 C894 1.349 . S
C883 C881 1.327 . S
C883 C899 1.429 . S
C883 H905 0.950 . S
C884 H880 0.949 . S
C884 C892 1.574 . S
C884 C900 1.368 . S
H885 C893 0.950 . S
H886 C891 0.950 . S
H887 C892 0.932 1_554 S
H888 C894 0.950 . S
H889 C895 0.950 . S
H890 C896 0.949 . S
C891 H886 0.950 . S
C891 C893 1.327 . S
C891 C897 1.429 . S
C892 C884 1.574 . S
C892 H887 0.932 1_556 S
C892 C898 1.368 . S
C893 C877 1.349 . S
C893 H885 0.950 . S
C893 C891 1.327 . S
C894 C882 1.349 . S
C894 H888 0.950 . S
C894 C895 1.327 . S
C895 H889 0.950 . S
C895 C894 1.327 . S
C895 C899 1.429 . S
C896 C879 1.574 . S
C896 H890 0.949 . S
C896 C900 1.368 . S
C897 C878 1.429 . S
C897 C891 1.429 . S
C897 C898 1.523 . S
C898 C879 1.368 . S
C898 C892 1.368 . S
C898 C897 1.523 . S
C899 C883 1.429 . S
C899 C895 1.429 . S
C899 C900 1.523 . S
C900 C884 1.368 . S
C900 C896 1.368 . S
C900 C899 1.523 . S
H901 C876 0.950 . S
H902 C878 0.950 1_554 S
H903 C879 0.949 . S
H904 C881 0.950 . S
H905 C883 0.950 . S
C906 C907 1.349 1_554 S
C906 C908 1.324 1_554 S
C906 H931 0.950 . S
C907 C906 1.349 1_556 S
C907 C923 1.349 . S
C908 C906 1.324 1_556 S
C908 C927 1.438 . S
C908 H932 0.944 1_556 S
C909 C926 1.574 . S
C909 C928 1.368 . S
C909 H933 0.949 . S
H910 C914 0.949 . S
C911 C912 1.349 . S
C911 C913 1.327 . S
C911 H934 0.950 . S
C912 C911 1.349 . S
C912 C924 1.349 . S
C913 C911 1.327 . S
C913 C929 1.429 . S
C913 H935 0.950 . S
C914 H910 0.949 . S
C914 C922 1.574 . S
C914 C930 1.368 . S
H915 C923 0.950 . S
H916 C921 0.950 . S
H917 C922 0.989 . S
H918 C924 0.950 . S
H919 C925 0.950 . S
H920 C926 0.949 . S
C921 H916 0.950 . S
C921 C923 1.327 . S
C921 C927 1.429 . S
C922 C914 1.574 . S
C922 H917 0.989 . S
C922 C928 1.368 . S
C923 C907 1.349 . S
C923 H915 0.950 . S
C923 C921 1.327 . S
C924 C912 1.349 . S
C924 H918 0.950 . S
C924 C925 1.327 . S
C925 H919 0.950 . S
C925 C924 1.327 . S
C925 C929 1.429 . S
C926 C909 1.574 . S
C926 H920 0.949 . S
C926 C930 1.368 . S
C927 C908 1.438 . S
C927 C921 1.429 . S
C927 C928 1.523 . S
C928 C909 1.368 . S
C928 C922 1.368 . S
C928 C927 1.523 . S
C929 C913 1.429 . S
C929 C925 1.429 . S
C929 C930 1.523 . S
C930 C914 1.368 . S
C930 C926 1.368 . S
C930 C929 1.523 . S
H931 C906 0.950 . S
H932 C908 0.944 1_554 S
H933 C909 0.949 . S
H934 C911 0.950 . S
H935 C913 0.950 . S
C936 C937 1.349 1_565 S
C936 C938 1.327 . S
C936 H961 0.950 . S
C937 C936 1.349 1_545 S
C937 C953 1.349 . S
C938 C936 1.327 . S
C938 C957 1.429 1_565 S
C938 H962 0.950 . S
C939 C956 1.574 . S
C939 C958 1.368 . S
C939 H963 0.949 . S
H940 C944 0.949 . S
C941 C942 1.349 . S
C941 C943 1.327 . S
C941 H964 0.950 . S
C942 C941 1.349 . S
C942 C954 1.349 1_545 S
C943 C941 1.327 . S
C943 C959 1.429 . S
C943 H965 0.950 . S
C944 H940 0.949 . S
C944 C952 1.574 . S
C944 C960 1.368 1_565 S
H945 C953 0.950 . S
H946 C951 0.950 . S
H947 C952 0.949 . S
H948 C954 0.950 . S
H949 C955 0.950 . S
H950 C956 0.949 . S
C951 H946 0.950 . S
C951 C953 1.327 . S
C951 C957 1.429 . S
C952 C944 1.574 . S
C952 H947 0.949 . S
C952 C958 1.368 1_565 S
C953 C937 1.349 . S
C953 H945 0.950 . S
C953 C951 1.327 . S
C954 C942 1.349 1_565 S
C954 H948 0.950 . S
C954 C955 1.327 . S
C955 H949 0.950 . S
C955 C954 1.327 . S
C955 C959 1.429 1_565 S
C956 C939 1.574 . S
C956 H950 0.949 . S
C956 C960 1.368 . S
C957 C938 1.429 1_545 S
C957 C951 1.429 . S
C957 C958 1.523 . S
C958 C939 1.368 . S
C958 C952 1.368 1_545 S
C958 C957 1.523 . S
C959 C943 1.429 . S
C959 C955 1.429 1_545 S
C959 C960 1.523 . S
C960 C944 1.368 1_545 S
C960 C956 1.368 . S
C960 C959 1.523 . S
H961 C936 0.950 . S
H962 C938 0.950 . S
H963 C939 0.949 . S
H964 C941 0.950 . S
H965 C943 0.950 . S
C966 C967 1.349 . S
C966 C968 1.327 . S
C966 H991 0.950 . S
C967 C966 1.349 . S
C967 C983 1.349 . S
C968 C966 1.327 . S
C968 C987 1.429 . S
C968 H992 0.950 . S
C969 C986 1.574 . S
C969 C988 1.368 . S
C969 H993 0.949 . S
H970 C974 0.949 . S
C971 C972 1.349 . S
C971 C973 1.327 . S
C971 H994 0.950 . S
C972 C971 1.349 . S
C972 C984 1.349 . S
C973 C971 1.327 . S
C973 C989 1.429 . S
C973 H995 0.950 . S
C974 H970 0.949 . S
C974 C982 1.574 . S
C974 C990 1.368 . S
H975 C983 0.950 . S
H976 C981 0.950 . S
H977 C982 0.949 . S
H978 C984 0.950 . S
H979 C985 0.950 . S
H980 C986 0.949 . S
C981 H976 0.950 . S
C981 C983 1.327 . S
C981 C987 1.429 . S
C982 C974 1.574 . S
C982 H977 0.949 . S
C982 C988 1.368 . S
C983 C967 1.349 . S
C983 H975 0.950 . S
C983 C981 1.327 . S
C984 C972 1.349 . S
C984 H978 0.950 . S
C984 C985 1.327 . S
C985 H979 0.950 . S
C985 C984 1.327 . S
C985 C989 1.429 . S
C986 C969 1.574 . S
C986 H980 0.949 . S
C986 C990 1.368 . S
C987 C968 1.429 . S
C987 C981 1.429 . S
C987 C988 1.523 . S
C988 C969 1.368 . S
C988 C982 1.368 . S
C988 C987 1.523 . S
C989 C973 1.429 . S
C989 C985 1.429 . S
C989 C990 1.523 . S
C990 C974 1.368 . S
C990 C986 1.368 . S
C990 C989 1.523 . S
H991 C966 0.950 . S
H992 C968 0.950 . S
H993 C969 0.949 . S
H994 C971 0.950 . S
H995 C973 0.950 . S
C996 C997 1.349 . S
C996 C998 1.327 . S
C996 H1021 0.950 . S
C997 C996 1.349 . S
C997 C1013 1.349 . S
C998 C996 1.327 . S
C998 C1017 1.429 . S
C998 H1022 0.950 . S
C999 C1016 1.574 . S
C999 C1018 1.368 . S
C999 H1023 0.949 . S
H1000 C1004 0.949 . S
C1001 C1002 1.349 . S
C1001 C1003 1.327 . S
C1001 H1024 0.950 . S
C1002 C1001 1.349 . S
C1002 C1014 1.349 . S
C1003 C1001 1.327 . S
C1003 C1019 1.429 . S
C1003 H1025 0.950 . S
C1004 H1000 0.949 . S
C1004 C1012 1.574 . S
C1004 C1020 1.368 . S
H1005 C1013 0.950 . S
H1006 C1011 0.950 . S
H1007 C1012 0.949 . S
H1008 C1014 0.950 . S
H1009 C1015 0.950 . S
H1010 C1016 0.949 . S
C1011 H1006 0.950 . S
C1011 C1013 1.327 . S
C1011 C1017 1.429 . S
C1012 C1004 1.574 . S
C1012 H1007 0.949 . S
C1012 C1018 1.368 . S
C1013 C997 1.349 . S
C1013 H1005 0.950 . S
C1013 C1011 1.327 . S
C1014 C1002 1.349 . S
C1014 H1008 0.950 . S
C1014 C1015 1.327 . S
C1015 H1009 0.950 . S
C1015 C1014 1.327 . S
C1015 C1019 1.429 . S
C1016 C999 1.574 . S
C1016 H1010 0.949 . S
C1016 C1020 1.368 . S
C1017 C998 1.429 . S
C1017 C1011 1.429 . S
C1017 C1018 1.523 . S
C1018 C999 1.368 . S
C1018 C1012 1.368 . S
C1018 C1017 1.523 . S
C1019 C1003 1.429 . S
C1019 C1015 1.429 . S
C1019 C1020 1.523 . S
C1020 C1004 1.368 . S
C1020 C1016 1.368 . S
C1020 C1019 1.523 . S
H1021 C996 0.950 . S
H1022 C998 0.950 . S
H1023 C999 0.949 . S
H1024 C1001 0.950 . S
H1025 C1003 0.950 . S
C1026 C1027 1.349 . S
C1026 C1028 1.327 . S
C1026 H1051 0.950 . S
C1027 C1026 1.349 . S
C1027 C1043 1.349 . S
C1028 C1026 1.327 . S
C1028 C1047 1.429 . S
C1028 H1052 0.950 . S
C1029 C1046 1.574 . S
C1029 C1048 1.368 . S
C1029 H1053 0.949 . S
H1030 C1034 0.949 . S
C1031 C1032 1.349 . S
C1031 C1033 1.327 . S
C1031 H1054 0.950 . S
C1032 C1031 1.349 . S
C1032 C1044 1.349 . S
C1033 C1031 1.327 . S
C1033 C1049 1.429 . S
C1033 H1055 0.950 . S
C1034 H1030 0.949 . S
C1034 C1042 1.574 . S
C1034 C1050 1.368 . S
H1035 C1043 0.950 . S
H1036 C1041 0.950 . S
H1037 C1042 0.949 . S
H1038 C1044 0.950 . S
H1039 C1045 0.950 . S
H1040 C1046 0.949 . S
C1041 H1036 0.950 . S
C1041 C1043 1.327 . S
C1041 C1047 1.429 . S
C1042 C1034 1.574 . S
C1042 H1037 0.949 . S
C1042 C1048 1.368 . S
C1043 C1027 1.349 . S
C1043 H1035 0.950 . S
C1043 C1041 1.327 . S
C1044 C1032 1.349 . S
C1044 H1038 0.950 . S
C1044 C1045 1.327 . S
C1045 H1039 0.950 . S
C1045 C1044 1.327 . S
C1045 C1049 1.429 . S
C1046 C1029 1.574 . S
C1046 H1040 0.949 . S
C1046 C1050 1.368 . S
C1047 C1028 1.429 . S
C1047 C1041 1.429 . S
C1047 C1048 1.523 . S
C1048 C1029 1.368 . S
C1048 C1042 1.368 . S
C1048 C1047 1.523 . S
C1049 C1033 1.429 . S
C1049 C1045 1.429 . S
C1049 C1050 1.523 . S
C1050 C1034 1.368 . S
C1050 C1046 1.368 . S
C1050 C1049 1.523 . S
H1051 C1026 0.950 . S
H1052 C1028 0.950 . S
H1053 C1029 0.949 . S
H1054 C1031 0.950 . S
H1055 C1033 0.950 . S
C1056 C1057 1.349 . S
C1056 C1058 1.327 . S
C1056 H1081 0.950 . S
C1057 C1056 1.349 . S
C1057 C1073 1.349 . S
C1058 C1056 1.327 . S
C1058 C1077 1.429 . S
C1058 H1082 0.950 . S
C1059 C1076 1.574 1_565 S
C1059 C1078 1.368 . S
C1059 H1083 0.949 . S
H1060 C1064 0.949 . S
C1061 C1062 1.349 . S
C1061 C1063 1.327 . S
C1061 H1084 0.950 . S
C1062 C1061 1.349 . S
C1062 C1074 1.349 . S
C1063 C1061 1.327 . S
C1063 C1079 1.429 . S
C1063 H1085 0.950 . S
C1064 H1060 0.949 . S
C1064 C1072 1.574 . S
C1064 C1080 1.368 . S
H1065 C1073 0.950 . S
H1066 C1071 0.950 . S
H1067 C1072 0.949 . S
H1068 C1074 0.950 . S
H1069 C1075 0.950 . S
H1070 C1076 0.949 . S
C1071 H1066 0.950 . S
C1071 C1073 1.327 . S
C1071 C1077 1.429 . S
C1072 C1064 1.574 . S
C1072 H1067 0.949 . S
C1072 C1078 1.368 1_545 S
C1073 C1057 1.349 . S
C1073 H1065 0.950 . S
C1073 C1071 1.327 . S
C1074 C1062 1.349 . S
C1074 H1068 0.950 . S
C1074 C1075 1.327 . S
C1075 H1069 0.950 . S
C1075 C1074 1.327 . S
C1075 C1079 1.429 . S
C1076 C1059 1.574 1_545 S
C1076 H1070 0.949 . S
C1076 C1080 1.368 . S
C1077 C1058 1.429 . S
C1077 C1071 1.429 . S
C1077 C1078 1.523 . S
C1078 C1059 1.368 . S
C1078 C1072 1.368 1_565 S
C1078 C1077 1.523 . S
C1079 C1063 1.429 . S
C1079 C1075 1.429 . S
C1079 C1080 1.523 . S
C1080 C1064 1.368 . S
C1080 C1076 1.368 . S
C1080 C1079 1.523 . S
H1081 C1056 0.950 . S
H1082 C1058 0.950 . S
H1083 C1059 0.949 . S
H1084 C1061 0.950 . S
H1085 C1063 0.950 . S
C1086 C1087 1.349 . S
C1086 C1088 1.327 . S
C1086 H1111 0.950 . S
C1087 C1086 1.349 . S
C1087 C1103 1.349 . S
C1088 C1086 1.327 . S
C1088 C1107 1.429 . S
C1088 H1112 0.950 . S
C1089 C1106 1.574 . S
C1089 C1108 1.368 . S
C1089 H1113 0.949 . S
H1090 C1094 0.949 . S
C1091 C1092 1.349 . S
C1091 C1093 1.327 . S
C1091 H1114 0.950 . S
C1092 C1091 1.349 . S
C1092 C1104 1.349 . S
C1093 C1091 1.327 . S
C1093 C1109 1.429 . S
C1093 H1115 0.950 . S
C1094 H1090 0.949 . S
C1094 C1102 1.574 . S
C1094 C1110 1.368 . S
H1095 C1103 0.950 . S
H1096 C1101 0.950 . S
H1097 C1102 0.949 . S
H1098 C1104 0.950 . S
H1099 C1105 0.950 . S
H1100 C1106 0.949 . S
C1101 H1096 0.950 . S
C1101 C1103 1.327 . S
C1101 C1107 1.429 . S
C1102 C1094 1.574 . S
C1102 H1097 0.949 . S
C1102 C1108 1.368 . S
C1103 C1087 1.349 . S
C1103 H1095 0.950 . S
C1103 C1101 1.327 . S
C1104 C1092 1.349 . S
C1104 H1098 0.950 . S
C1104 C1105 1.327 . S
C1105 H1099 0.950 . S
C1105 C1104 1.327 . S
C1105 C1109 1.429 . S
C1106 C1089 1.574 . S
C1106 H1100 0.949 . S
C1106 C1110 1.368 . S
C1107 C1088 1.429 . S
C1107 C1101 1.429 . S
C1107 C1108 1.523 . S
C1108 C1089 1.368 . S
C1108 C1102 1.368 . S
C1108 C1107 1.523 . S
C1109 C1093 1.429 . S
C1109 C1105 1.429 . S
C1109 C1110 1.523 . S
C1110 C1094 1.368 . S
C1110 C1106 1.368 . S
C1110 C1109 1.523 . S
H1111 C1086 0.950 . S
H1112 C1088 0.950 . S
H1113 C1089 0.949 . S
H1114 C1091 0.950 . S
H1115 C1093 0.950 . S
C1116 C1117 1.349 . S
C1116 C1118 1.327 . S
C1116 H1141 0.950 . S
C1117 C1116 1.349 . S
C1117 C1133 1.349 . S
C1118 C1116 1.327 . S
C1118 C1137 1.429 . S
C1118 H1142 0.950 . S
C1119 C1136 1.574 . S
C1119 C1138 1.368 . S
C1119 H1143 0.949 . S
H1120 C1124 0.949 . S
C1121 C1122 1.349 . S
C1121 C1123 1.327 . S
C1121 H1144 0.950 . S
C1122 C1121 1.349 . S
C1122 C1134 1.349 . S
C1123 C1121 1.327 . S
C1123 C1139 1.429 . S
C1123 H1145 0.950 . S
C1124 H1120 0.949 . S
C1124 C1132 1.574 . S
C1124 C1140 1.368 . S
H1125 C1133 0.950 . S
H1126 C1131 0.950 . S
H1127 C1132 0.949 . S
H1128 C1134 0.950 . S
H1129 C1135 0.950 . S
H1130 C1136 0.949 . S
C1131 H1126 0.950 . S
C1131 C1133 1.327 . S
C1131 C1137 1.429 . S
C1132 C1124 1.574 . S
C1132 H1127 0.949 . S
C1132 C1138 1.368 . S
C1133 C1117 1.349 . S
C1133 H1125 0.950 . S
C1133 C1131 1.327 . S
C1134 C1122 1.349 . S
C1134 H1128 0.950 . S
C1134 C1135 1.327 . S
C1135 H1129 0.950 . S
C1135 C1134 1.327 . S
C1135 C1139 1.429 . S
C1136 C1119 1.574 . S
C1136 H1130 0.949 . S
C1136 C1140 1.368 . S
C1137 C1118 1.429 . S
C1137 C1131 1.429 . S
C1137 C1138 1.523 . S
C1138 C1119 1.368 . S
C1138 C1132 1.368 . S
C1138 C1137 1.523 . S
C1139 C1123 1.429 . S
C1139 C1135 1.429 . S
C1139 C1140 1.523 . S
C1140 C1124 1.368 . S
C1140 C1136 1.368 . S
C1140 C1139 1.523 . S
H1141 C1116 0.950 . S
H1142 C1118 0.950 . S
H1143 C1119 0.949 . S
H1144 C1121 0.950 . S
H1145 C1123 0.950 . S
C1146 C1147 1.349 . S
C1146 C1148 1.327 . S
C1146 H1171 0.950 . S
C1147 C1146 1.349 . S
C1147 C1163 1.349 . S
C1148 C1146 1.327 . S
C1148 C1167 1.429 . S
C1148 H1172 0.950 . S
C1149 C1166 1.574 . S
C1149 C1168 1.368 . S
C1149 H1173 0.949 . S
H1150 C1154 0.949 . S
C1151 C1152 1.349 . S
C1151 C1153 1.327 . S
C1151 H1174 0.950 . S
C1152 C1151 1.349 . S
C1152 C1164 1.349 . S
C1153 C1151 1.327 . S
C1153 C1169 1.429 . S
C1153 H1175 0.950 . S
C1154 H1150 0.949 . S
C1154 C1162 1.574 . S
C1154 C1170 1.368 . S
H1155 C1163 0.950 . S
H1156 C1161 0.950 . S
H1157 C1162 0.949 . S
H1158 C1164 0.950 . S
H1159 C1165 0.950 . S
H1160 C1166 0.949 . S
C1161 H1156 0.950 . S
C1161 C1163 1.327 . S
C1161 C1167 1.429 . S
C1162 C1154 1.574 . S
C1162 H1157 0.949 . S
C1162 C1168 1.368 . S
C1163 C1147 1.349 . S
C1163 H1155 0.950 . S
C1163 C1161 1.327 . S
C1164 C1152 1.349 . S
C1164 H1158 0.950 . S
C1164 C1165 1.327 . S
C1165 H1159 0.950 . S
C1165 C1164 1.327 . S
C1165 C1169 1.429 . S
C1166 C1149 1.574 . S
C1166 H1160 0.949 . S
C1166 C1170 1.368 . S
C1167 C1148 1.429 . S
C1167 C1161 1.429 . S
C1167 C1168 1.523 . S
C1168 C1149 1.368 . S
C1168 C1162 1.368 . S
C1168 C1167 1.523 . S
C1169 C1153 1.429 . S
C1169 C1165 1.429 . S
C1169 C1170 1.523 . S
C1170 C1154 1.368 . S
C1170 C1166 1.368 . S
C1170 C1169 1.523 . S
H1171 C1146 0.950 . S
H1172 C1148 0.950 . S
H1173 C1149 0.949 . S
H1174 C1151 0.950 . S
H1175 C1153 0.950 . S
C1176 C1177 1.349 . S
C1176 C1178 1.327 . S
C1176 H1201 0.950 . S
C1177 C1176 1.349 . S
C1177 C1193 1.349 . S
C1178 C1176 1.327 . S
C1178 C1197 1.429 . S
C1178 H1202 0.950 . S
C1179 C1196 1.574 . S
C1179 C1198 1.368 . S
C1179 H1203 0.949 . S
H1180 C1184 0.949 . S
C1181 C1182 1.347 . S
C1181 C1183 1.327 1_545 S
C1181 H1204 0.950 . S
C1182 C1181 1.347 . S
C1182 C1194 1.350 1_545 S
C1183 C1181 1.327 1_565 S
C1183 C1199 1.429 . S
C1183 H1205 0.950 . S
C1184 H1180 0.949 . S
C1184 C1192 1.574 . S
C1184 C1200 1.368 . S
H1185 C1193 0.950 . S
H1186 C1191 0.950 . S
H1187 C1192 0.949 . S
H1188 C1194 0.950 . S
H1189 C1195 0.950 . S
H1190 C1196 0.949 . S
C1191 H1186 0.950 . S
C1191 C1193 1.327 . S
C1191 C1197 1.429 . S
C1192 C1184 1.574 . S
C1192 H1187 0.949 . S
C1192 C1198 1.368 . S
C1193 C1177 1.349 . S
C1193 H1185 0.950 . S
C1193 C1191 1.327 . S
C1194 C1182 1.350 1_565 S
C1194 H1188 0.950 . S
C1194 C1195 1.327 . S
C1195 H1189 0.950 . S
C1195 C1194 1.327 . S
C1195 C1199 1.429 . S
C1196 C1179 1.574 . S
C1196 H1190 0.949 . S
C1196 C1200 1.368 . S
C1197 C1178 1.429 . S
C1197 C1191 1.429 . S
C1197 C1198 1.523 . S
C1198 C1179 1.368 . S
C1198 C1192 1.368 . S
C1198 C1197 1.523 . S
C1199 C1183 1.429 . S
C1199 C1195 1.429 . S
C1199 C1200 1.523 . S
C1200 C1184 1.368 . S
C1200 C1196 1.368 . S
C1200 C1199 1.523 . S
H1201 C1176 0.950 . S
H1202 C1178 0.950 . S
H1203 C1179 0.949 . S
H1204 C1181 0.950 . S
H1205 C1183 0.950 . S
C1206 C1207 1.349 . S
C1206 C1208 1.327 . S
C1206 H1231 0.950 . S
C1207 C1206 1.349 . S
C1207 C1223 1.349 . S
C1208 C1206 1.327 . S
C1208 C1227 1.429 . S
C1208 H1232 0.950 . S
C1209 C1226 1.597 . S
C1209 C1228 1.368 . S
C1209 H1233 0.949 . S
H1210 C1214 0.949 . S
C1211 C1212 1.349 . S
C1211 C1213 1.327 . S
C1211 H1234 0.950 . S
C1212 C1211 1.349 . S
C1212 C1224 1.349 . S
C1213 C1211 1.327 . S
C1213 C1229 1.429 . S
C1213 H1235 0.950 . S
C1214 H1210 0.949 . S
C1214 C1222 1.574 . S
C1214 C1230 1.368 . S
H1215 C1223 0.950 . S
H1216 C1221 0.950 . S
H1217 C1222 0.949 . S
H1218 C1224 0.950 . S
H1219 C1225 0.950 1_565 S
H1220 C1226 0.928 1_545 S
C1221 H1216 0.950 . S
C1221 C1223 1.327 . S
C1221 C1227 1.429 . S
C1222 C1214 1.574 . S
C1222 H1217 0.949 . S
C1222 C1228 1.368 . S
C1223 C1207 1.349 . S
C1223 H1215 0.950 . S
C1223 C1221 1.327 . S
C1224 C1212 1.349 . S
C1224 H1218 0.950 . S
C1224 C1225 1.327 . S
C1225 H1219 0.950 1_545 S
C1225 C1224 1.327 . S
C1225 C1229 1.429 . S
C1226 C1209 1.597 . S
C1226 H1220 0.928 1_565 S
C1226 C1230 1.368 . S
C1227 C1208 1.429 . S
C1227 C1221 1.429 . S
C1227 C1228 1.523 . S
C1228 C1209 1.368 . S
C1228 C1222 1.368 . S
C1228 C1227 1.523 . S
C1229 C1213 1.429 . S
C1229 C1225 1.429 . S
C1229 C1230 1.523 1_545 S
C1230 C1214 1.368 . S
C1230 C1226 1.368 . S
C1230 C1229 1.523 1_565 S
H1231 C1206 0.950 . S
H1232 C1208 0.950 . S
H1233 C1209 0.949 . S
H1234 C1211 0.950 . S
H1235 C1213 0.950 . S
C1236 C1237 1.349 . S
C1236 C1238 1.327 . S
C1236 H1261 0.950 . S
C1237 C1236 1.349 . S
C1237 C1253 1.349 . S
C1238 C1236 1.327 . S
C1238 C1257 1.429 . S
C1238 H1262 0.950 . S
C1239 C1256 1.574 . S
C1239 C1258 1.368 . S
C1239 H1263 0.949 . S
H1240 C1244 0.949 . S
C1241 C1242 1.349 . S
C1241 C1243 1.327 . S
C1241 H1264 0.950 . S
C1242 C1241 1.349 . S
C1242 C1254 1.349 . S
C1243 C1241 1.327 . S
C1243 C1259 1.429 . S
C1243 H1265 0.950 . S
C1244 H1240 0.949 . S
C1244 C1252 1.574 . S
C1244 C1260 1.368 . S
H1245 C1253 0.950 . S
H1246 C1251 0.950 . S
H1247 C1252 0.949 . S
H1248 C1254 0.950 . S
H1249 C1255 0.950 . S
H1250 C1256 0.949 . S
C1251 H1246 0.950 . S
C1251 C1253 1.327 . S
C1251 C1257 1.429 . S
C1252 C1244 1.574 . S
C1252 H1247 0.949 . S
C1252 C1258 1.368 . S
C1253 C1237 1.349 . S
C1253 H1245 0.950 . S
C1253 C1251 1.327 . S
C1254 C1242 1.349 . S
C1254 H1248 0.950 . S
C1254 C1255 1.327 . S
C1255 H1249 0.950 . S
C1255 C1254 1.327 . S
C1255 C1259 1.429 . S
C1256 C1239 1.574 . S
C1256 H1250 0.949 . S
C1256 C1260 1.368 . S
C1257 C1238 1.429 . S
C1257 C1251 1.429 . S
C1257 C1258 1.523 . S
C1258 C1239 1.368 . S
C1258 C1252 1.368 . S
C1258 C1257 1.523 . S
C1259 C1243 1.429 . S
C1259 C1255 1.429 . S
C1259 C1260 1.523 . S
C1260 C1244 1.368 . S
C1260 C1256 1.368 . S
C1260 C1259 1.523 . S
H1261 C1236 0.950 . S
H1262 C1238 0.950 . S
H1263 C1239 0.949 . S
H1264 C1241 0.950 . S
H1265 C1243 0.950 . S
C1266 C1267 1.349 . S
C1266 C1268 1.327 . S
C1266 H1291 0.950 . S
C1267 C1266 1.349 . S
C1267 C1283 1.349 . S
C1268 C1266 1.327 . S
C1268 C1287 1.429 . S
C1268 H1292 0.950 . S
C1269 C1286 1.574 . S
C1269 C1288 1.368 . S
C1269 H1293 0.949 . S
H1270 C1274 0.949 . S
C1271 C1272 1.349 . S
C1271 C1273 1.327 . S
C1271 H1294 0.950 . S
C1272 C1271 1.349 . S
C1272 C1284 1.349 . S
C1273 C1271 1.327 . S
C1273 C1289 1.429 . S
C1273 H1295 0.950 . S
C1274 H1270 0.949 . S
C1274 C1282 1.574 . S
C1274 C1290 1.368 . S
H1275 C1283 0.950 . S
H1276 C1281 0.950 . S
H1277 C1282 0.949 . S
H1278 C1284 0.950 . S
H1279 C1285 0.950 . S
H1280 C1286 0.949 . S
C1281 H1276 0.950 . S
C1281 C1283 1.327 . S
C1281 C1287 1.429 . S
C1282 C1274 1.574 . S
C1282 H1277 0.949 . S
C1282 C1288 1.368 . S
C1283 C1267 1.349 . S
C1283 H1275 0.950 . S
C1283 C1281 1.327 . S
C1284 C1272 1.349 . S
C1284 H1278 0.950 . S
C1284 C1285 1.327 . S
C1285 H1279 0.950 . S
C1285 C1284 1.327 . S
C1285 C1289 1.429 . S
C1286 C1269 1.574 . S
C1286 H1280 0.949 . S
C1286 C1290 1.368 . S
C1287 C1268 1.429 . S
C1287 C1281 1.429 . S
C1287 C1288 1.523 . S
C1288 C1269 1.368 . S
C1288 C1282 1.368 . S
C1288 C1287 1.523 . S
C1289 C1273 1.429 . S
C1289 C1285 1.429 . S
C1289 C1290 1.523 . S
C1290 C1274 1.368 . S
C1290 C1286 1.368 . S
C1290 C1289 1.523 . S
H1291 C1266 0.950 . S
H1292 C1268 0.950 . S
H1293 C1269 0.949 . S
H1294 C1271 0.950 . S
H1295 C1273 0.950 . S
C1296 C1297 1.349 . S
C1296 C1298 1.327 . S
C1296 H1321 0.950 . S
C1297 C1296 1.349 . S
C1297 C1313 1.349 . S
C1298 C1296 1.327 . S
C1298 C1317 1.429 . S
C1298 H1322 0.950 . S
C1299 C1316 1.574 . S
C1299 C1318 1.368 . S
C1299 H1323 0.949 . S
H1300 C1304 0.949 . S
C1301 C1302 1.349 . S
C1301 C1303 1.327 . S
C1301 H1324 0.950 . S
C1302 C1301 1.349 . S
C1302 C1314 1.349 . S
C1303 C1301 1.327 . S
C1303 C1319 1.429 . S
C1303 H1325 0.950 . S
C1304 H1300 0.949 . S
C1304 C1312 1.574 . S
C1304 C1320 1.368 . S
H1305 C1313 0.950 . S
H1306 C1311 0.950 . S
H1307 C1312 0.949 . S
H1308 C1314 0.950 . S
H1309 C1315 0.950 . S
H1310 C1316 0.949 . S
C1311 H1306 0.950 . S
C1311 C1313 1.327 . S
C1311 C1317 1.429 . S
C1312 C1304 1.574 . S
C1312 H1307 0.949 . S
C1312 C1318 1.368 . S
C1313 C1297 1.349 . S
C1313 H1305 0.950 . S
C1313 C1311 1.327 . S
C1314 C1302 1.349 . S
C1314 H1308 0.950 . S
C1314 C1315 1.327 . S
C1315 H1309 0.950 . S
C1315 C1314 1.327 . S
C1315 C1319 1.429 . S
C1316 C1299 1.574 . S
C1316 H1310 0.949 . S
C1316 C1320 1.368 . S
C1317 C1298 1.429 . S
C1317 C1311 1.429 . S
C1317 C1318 1.523 . S
C1318 C1299 1.368 . S
C1318 C1312 1.368 . S
C1318 C1317 1.523 . S
C1319 C1303 1.429 . S
C1319 C1315 1.429 . S
C1319 C1320 1.523 . S
C1320 C1304 1.368 . S
C1320 C1316 1.368 . S
C1320 C1319 1.523 . S
H1321 C1296 0.950 . S
H1322 C1298 0.950 . S
H1323 C1299 0.949 . S
H1324 C1301 0.950 . S
H1325 C1303 0.950 . S
C1326 C1327 1.349 . S
C1326 C1328 1.327 . S
C1326 H1351 0.950 . S
C1327 C1326 1.349 . S
C1327 C1343 1.349 . S
C1328 C1326 1.327 . S
C1328 C1347 1.429 . S
C1328 H1352 0.950 . S
C1329 C1346 1.574 1_565 S
C1329 C1348 1.368 . S
C1329 H1353 0.949 . S
H1330 C1334 0.949 . S
C1331 C1332 1.349 . S
C1331 C1333 1.327 . S
C1331 H1354 0.950 . S
C1332 C1331 1.349 . S
C1332 C1344 1.349 . S
C1333 C1331 1.327 . S
C1333 C1349 1.429 . S
C1333 H1355 0.950 . S
C1334 H1330 0.949 . S
C1334 C1342 1.574 . S
C1334 C1350 1.368 . S
H1335 C1343 0.950 . S
H1336 C1341 0.950 . S
H1337 C1342 0.948 1_565 S
H1338 C1344 0.950 . S
H1339 C1345 0.950 . S
H1340 C1346 0.949 . S
C1341 H1336 0.950 . S
C1341 C1343 1.327 . S
C1341 C1347 1.429 . S
C1342 C1334 1.574 . S
C1342 H1337 0.948 1_545 S
C1342 C1348 1.368 1_545 S
C1343 C1327 1.349 . S
C1343 H1335 0.950 . S
C1343 C1341 1.327 . S
C1344 C1332 1.349 . S
C1344 H1338 0.950 . S
C1344 C1345 1.327 . S
C1345 H1339 0.950 . S
C1345 C1344 1.327 . S
C1345 C1349 1.429 . S
C1346 C1329 1.574 1_545 S
C1346 H1340 0.949 . S
C1346 C1350 1.368 . S
C1347 C1328 1.429 . S
C1347 C1341 1.429 . S
C1347 C1348 1.523 . S
C1348 C1329 1.368 . S
C1348 C1342 1.368 1_565 S
C1348 C1347 1.523 . S
C1349 C1333 1.429 . S
C1349 C1345 1.429 . S
C1349 C1350 1.523 . S
C1350 C1334 1.368 . S
C1350 C1346 1.368 . S
C1350 C1349 1.523 . S
H1351 C1326 0.950 . S
H1352 C1328 0.950 . S
H1353 C1329 0.949 . S
H1354 C1331 0.950 . S
H1355 C1333 0.950 . S
C1356 C1357 1.349 . S
C1356 C1358 1.327 . S
C1356 H1381 0.950 . S
C1357 C1356 1.349 . S
C1357 C1373 1.349 . S
C1358 C1356 1.327 . S
C1358 C1377 1.429 . S
C1358 H1382 0.950 . S
C1359 C1376 1.574 . S
C1359 C1378 1.368 . S
C1359 H1383 0.949 . S
H1360 C1364 0.949 . S
C1361 C1362 1.349 . S
C1361 C1363 1.327 . S
C1361 H1384 0.950 . S
C1362 C1361 1.349 . S
C1362 C1374 1.349 . S
C1363 C1361 1.327 . S
C1363 C1379 1.429 . S
C1363 H1385 0.950 . S
C1364 H1360 0.949 . S
C1364 C1372 1.574 . S
C1364 C1380 1.368 . S
H1365 C1373 0.950 . S
H1366 C1371 0.950 . S
H1367 C1372 0.949 . S
H1368 C1374 0.950 . S
H1369 C1375 0.950 . S
H1370 C1376 0.949 . S
C1371 H1366 0.950 . S
C1371 C1373 1.327 . S
C1371 C1377 1.429 . S
C1372 C1364 1.574 . S
C1372 H1367 0.949 . S
C1372 C1378 1.368 . S
C1373 C1357 1.349 . S
C1373 H1365 0.950 . S
C1373 C1371 1.327 . S
C1374 C1362 1.349 . S
C1374 H1368 0.950 . S
C1374 C1375 1.327 . S
C1375 H1369 0.950 . S
C1375 C1374 1.327 . S
C1375 C1379 1.429 . S
C1376 C1359 1.574 . S
C1376 H1370 0.949 . S
C1376 C1380 1.368 . S
C1377 C1358 1.429 . S
C1377 C1371 1.429 . S
C1377 C1378 1.523 . S
C1378 C1359 1.368 . S
C1378 C1372 1.368 . S
C1378 C1377 1.523 . S
C1379 C1363 1.429 . S
C1379 C1375 1.429 . S
C1379 C1380 1.523 . S
C1380 C1364 1.368 . S
C1380 C1376 1.368 . S
C1380 C1379 1.523 . S
H1381 C1356 0.950 . S
H1382 C1358 0.950 . S
H1383 C1359 0.949 . S
H1384 C1361 0.950 . S
H1385 C1363 0.950 . S
C1386 C1387 1.349 . S
C1386 C1388 1.327 . S
C1386 H1411 0.950 . S
C1387 C1386 1.349 . S
C1387 C1403 1.349 . S
C1388 C1386 1.327 . S
C1388 C1407 1.429 . S
C1388 H1412 0.950 . S
C1389 C1406 1.574 . S
C1389 C1408 1.368 . S
C1389 H1413 0.949 . S
H1390 C1394 0.949 . S
C1391 C1392 1.349 . S
C1391 C1393 1.327 . S
C1391 H1414 0.950 . S
C1392 C1391 1.349 . S
C1392 C1404 1.349 . S
C1393 C1391 1.327 . S
C1393 C1409 1.429 . S
C1393 H1415 0.950 . S
C1394 H1390 0.949 . S
C1394 C1402 1.574 . S
C1394 C1410 1.368 . S
H1395 C1403 0.950 . S
H1396 C1401 0.950 . S
H1397 C1402 0.949 . S
H1398 C1404 0.950 . S
H1399 C1405 0.950 . S
H1400 C1406 0.949 . S
C1401 H1396 0.950 . S
C1401 C1403 1.327 . S
C1401 C1407 1.429 . S
C1402 C1394 1.574 . S
C1402 H1397 0.949 . S
C1402 C1408 1.368 . S
C1403 C1387 1.349 . S
C1403 H1395 0.950 . S
C1403 C1401 1.327 . S
C1404 C1392 1.349 . S
C1404 H1398 0.950 . S
C1404 C1405 1.327 . S
C1405 H1399 0.950 . S
C1405 C1404 1.327 . S
C1405 C1409 1.429 . S
C1406 C1389 1.574 . S
C1406 H1400 0.949 . S
C1406 C1410 1.368 . S
C1407 C1388 1.429 . S
C1407 C1401 1.429 . S
C1407 C1408 1.523 . S
C1408 C1389 1.368 . S
C1408 C1402 1.368 . S
C1408 C1407 1.523 . S
C1409 C1393 1.429 . S
C1409 C1405 1.429 . S
C1409 C1410 1.523 . S
C1410 C1394 1.368 . S
C1410 C1406 1.368 . S
C1410 C1409 1.523 . S
H1411 C1386 0.950 . S
H1412 C1388 0.950 . S
H1413 C1389 0.949 . S
H1414 C1391 0.950 . S
H1415 C1393 0.950 . S
C1416 C1417 1.349 . S
C1416 C1418 1.327 . S
C1416 H1441 0.950 . S
C1417 C1416 1.349 . S
C1417 C1433 1.349 . S
C1418 C1416 1.327 . S
C1418 C1437 1.429 . S
C1418 H1442 0.950 . S
C1419 C1436 1.574 . S
C1419 C1438 1.368 . S
C1419 H1443 0.949 . S
H1420 C1424 0.949 . S
C1421 C1422 1.349 . S
C1421 C1423 1.327 . S
C1421 H1444 0.950 . S
C1422 C1421 1.349 . S
C1422 C1434 1.349 . S
C1423 C1421 1.327 . S
C1423 C1439 1.429 . S
C1423 H1445 0.950 . S
C1424 H1420 0.949 . S
C1424 C1432 1.574 . S
C1424 C1440 1.368 . S
H1425 C1433 0.950 . S
H1426 C1431 0.950 . S
H1427 C1432 0.949 . S
H1428 C1434 0.950 . S
H1429 C1435 0.950 . S
H1430 C1436 0.949 . S
C1431 H1426 0.950 . S
C1431 C1433 1.327 . S
C1431 C1437 1.429 . S
C1432 C1424 1.574 . S
C1432 H1427 0.949 . S
C1432 C1438 1.368 . S
C1433 C1417 1.349 . S
C1433 H1425 0.950 . S
C1433 C1431 1.327 . S
C1434 C1422 1.349 . S
C1434 H1428 0.950 . S
C1434 C1435 1.327 . S
C1435 H1429 0.950 . S
C1435 C1434 1.327 . S
C1435 C1439 1.429 . S
C1436 C1419 1.574 . S
C1436 H1430 0.949 . S
C1436 C1440 1.368 . S
C1437 C1418 1.429 . S
C1437 C1431 1.429 . S
C1437 C1438 1.523 . S
C1438 C1419 1.368 . S
C1438 C1432 1.368 . S
C1438 C1437 1.523 . S
C1439 C1423 1.429 . S
C1439 C1435 1.429 . S
C1439 C1440 1.523 . S
C1440 C1424 1.368 . S
C1440 C1436 1.368 . S
C1440 C1439 1.523 . S
H1441 C1416 0.950 . S
H1442 C1418 0.950 . S
H1443 C1419 0.949 . S
H1444 C1421 0.950 . S
H1445 C1423 0.950 . S
C1446 C1447 1.349 . S
C1446 C1448 1.327 . S
C1446 H1471 0.950 . S
C1447 C1446 1.349 . S
C1447 C1463 1.349 . S
C1448 C1446 1.327 . S
C1448 C1467 1.429 . S
C1448 H1472 0.950 . S
C1449 C1466 1.574 . S
C1449 C1468 1.368 . S
C1449 H1473 0.949 . S
H1450 C1454 0.949 . S
C1451 C1452 1.349 . S
C1451 C1453 1.327 . S
C1451 H1474 0.950 . S
C1452 C1451 1.349 . S
C1452 C1464 1.349 . S
C1453 C1451 1.327 . S
C1453 C1469 1.429 . S
C1453 H1475 0.950 . S
C1454 H1450 0.949 . S
C1454 C1462 1.574 . S
C1454 C1470 1.368 . S
H1455 C1463 0.950 . S
H1456 C1461 0.950 . S
H1457 C1462 0.949 . S
H1458 C1464 0.950 . S
H1459 C1465 0.950 . S
H1460 C1466 0.949 . S
C1461 H1456 0.950 . S
C1461 C1463 1.327 . S
C1461 C1467 1.429 . S
C1462 C1454 1.574 . S
C1462 H1457 0.949 . S
C1462 C1468 1.368 . S
C1463 C1447 1.349 . S
C1463 H1455 0.950 . S
C1463 C1461 1.327 . S
C1464 C1452 1.349 . S
C1464 H1458 0.950 . S
C1464 C1465 1.327 . S
C1465 H1459 0.950 . S
C1465 C1464 1.327 . S
C1465 C1469 1.429 . S
C1466 C1449 1.574 . S
C1466 H1460 0.949 . S
C1466 C1470 1.368 . S
C1467 C1448 1.429 . S
C1467 C1461 1.429 . S
C1467 C1468 1.523 . S
C1468 C1449 1.368 . S
C1468 C1462 1.368 . S
C1468 C1467 1.523 . S
C1469 C1453 1.429 . S
C1469 C1465 1.429 . S
C1469 C1470 1.523 . S
C1470 C1454 1.368 . S
C1470 C1466 1.368 . S
C1470 C1469 1.523 . S
H1471 C1446 0.950 . S
H1472 C1448 0.950 . S
H1473 C1449 0.949 . S
H1474 C1451 0.950 . S
H1475 C1453 0.950 . S
C1476 C1477 1.349 . S
C1476 C1478 1.327 . S
C1476 H1501 0.950 . S
C1477 C1476 1.349 . S
C1477 C1493 1.349 . S
C1478 C1476 1.327 . S
C1478 C1497 1.429 . S
C1478 H1502 0.950 . S
C1479 C1496 1.574 . S
C1479 C1498 1.368 . S
C1479 H1503 0.949 . S
H1480 C1484 0.949 . S
C1481 C1482 1.349 . S
C1481 C1483 1.327 . S
C1481 H1504 0.950 . S
C1482 C1481 1.349 . S
C1482 C1494 1.349 . S
C1483 C1481 1.327 . S
C1483 C1499 1.429 . S
C1483 H1505 0.950 . S
C1484 H1480 0.949 . S
C1484 C1492 1.574 . S
C1484 C1500 1.368 . S
H1485 C1493 0.950 . S
H1486 C1491 0.950 . S
H1487 C1492 0.949 . S
H1488 C1494 0.950 . S
H1489 C1495 0.950 . S
H1490 C1496 0.949 . S
C1491 H1486 0.950 . S
C1491 C1493 1.327 . S
C1491 C1497 1.429 . S
C1492 C1484 1.574 . S
C1492 H1487 0.949 . S
C1492 C1498 1.368 . S
C1493 C1477 1.349 . S
C1493 H1485 0.950 . S
C1493 C1491 1.327 . S
C1494 C1482 1.349 . S
C1494 H1488 0.950 . S
C1494 C1495 1.327 . S
C1495 H1489 0.950 . S
C1495 C1494 1.327 . S
C1495 C1499 1.429 . S
C1496 C1479 1.574 . S
C1496 H1490 0.949 . S
C1496 C1500 1.368 . S
C1497 C1478 1.429 . S
C1497 C1491 1.429 . S
C1497 C1498 1.523 . S
C1498 C1479 1.368 . S
C1498 C1492 1.368 . S
C1498 C1497 1.523 . S
C1499 C1483 1.429 . S
C1499 C1495 1.429 . S
C1499 C1500 1.523 . S
C1500 C1484 1.368 . S
C1500 C1496 1.368 . S
C1500 C1499 1.523 . S
H1501 C1476 0.950 . S
H1502 C1478 0.950 . S
H1503 C1479 0.949 . S
H1504 C1481 0.950 . S
H1505 C1483 0.950 . S
C1506 C1507 1.349 . S
C1506 C1508 1.327 . S
C1506 H1531 0.950 . S
C1507 C1506 1.349 . S
C1507 C1523 1.349 . S
C1508 C1506 1.327 . S
C1508 C1527 1.429 . S
C1508 H1532 0.950 . S
C1509 C1526 1.574 . S
C1509 C1528 1.368 . S
C1509 H1533 0.949 . S
H1510 C1514 0.949 . S
C1511 C1512 1.349 . S
C1511 C1513 1.327 . S
C1511 H1534 0.950 . S
C1512 C1511 1.349 . S
C1512 C1524 1.349 . S
C1513 C1511 1.327 . S
C1513 C1529 1.429 . S
C1513 H1535 0.950 . S
C1514 H1510 0.949 . S
C1514 C1522 1.574 . S
C1514 C1530 1.368 . S
H1515 C1523 0.950 . S
H1516 C1521 0.950 . S
H1517 C1522 0.949 . S
H1518 C1524 0.950 . S
H1519 C1525 0.950 . S
H1520 C1526 0.949 . S
C1521 H1516 0.950 . S
C1521 C1523 1.327 . S
C1521 C1527 1.429 . S
C1522 C1514 1.574 . S
C1522 H1517 0.949 . S
C1522 C1528 1.368 . S
C1523 C1507 1.349 . S
C1523 H1515 0.950 . S
C1523 C1521 1.327 . S
C1524 C1512 1.349 . S
C1524 H1518 0.950 . S
C1524 C1525 1.327 . S
C1525 H1519 0.950 . S
C1525 C1524 1.327 . S
C1525 C1529 1.429 . S
C1526 C1509 1.574 . S
C1526 H1520 0.949 . S
C1526 C1530 1.368 . S
C1527 C1508 1.429 . S
C1527 C1521 1.429 . S
C1527 C1528 1.523 . S
C1528 C1509 1.368 . S
C1528 C1522 1.368 . S
C1528 C1527 1.523 . S
C1529 C1513 1.429 . S
C1529 C1525 1.429 . S
C1529 C1530 1.523 . S
C1530 C1514 1.368 . S
C1530 C1526 1.368 . S
C1530 C1529 1.523 . S
H1531 C1506 0.950 . S
H1532 C1508 0.950 . S
H1533 C1509 0.949 . S
H1534 C1511 0.950 . S
H1535 C1513 0.950 . S
C1536 C1537 1.349 . S
C1536 C1538 1.327 . S
C1536 H1561 0.950 . S
C1537 C1536 1.349 . S
C1537 C1553 1.349 . S
C1538 C1536 1.327 . S
C1538 C1557 1.429 . S
C1538 H1562 0.950 . S
C1539 C1556 1.574 . S
C1539 C1558 1.368 . S
C1539 H1563 0.949 . S
H1540 C1544 0.949 . S
C1541 C1542 1.349 1_655 S
C1541 C1543 1.327 . S
C1541 H1564 0.950 1_655 S
C1542 C1541 1.349 1_455 S
C1542 C1554 1.349 . S
C1543 C1541 1.327 . S
C1543 C1559 1.429 . S
C1543 H1565 0.950 . S
C1544 H1540 0.949 . S
C1544 C1552 1.574 . S
C1544 C1560 1.368 . S
H1545 C1553 0.950 . S
H1546 C1551 0.950 . S
H1547 C1552 0.949 . S
H1548 C1554 0.950 . S
H1549 C1555 0.950 . S
H1550 C1556 0.949 . S
C1551 H1546 0.950 . S
C1551 C1553 1.327 . S
C1551 C1557 1.429 . S
C1552 C1544 1.574 . S
C1552 H1547 0.949 . S
C1552 C1558 1.368 . S
C1553 C1537 1.349 . S
C1553 H1545 0.950 . S
C1553 C1551 1.327 . S
C1554 C1542 1.349 . S
C1554 H1548 0.950 . S
C1554 C1555 1.327 1_455 S
C1555 H1549 0.950 . S
C1555 C1554 1.327 1_655 S
C1555 C1559 1.429 . S
C1556 C1539 1.574 . S
C1556 H1550 0.949 . S
C1556 C1560 1.368 . S
C1557 C1538 1.429 . S
C1557 C1551 1.429 . S
C1557 C1558 1.523 . S
C1558 C1539 1.368 . S
C1558 C1552 1.368 . S
C1558 C1557 1.523 . S
C1559 C1543 1.429 . S
C1559 C1555 1.429 . S
C1559 C1560 1.523 . S
C1560 C1544 1.368 . S
C1560 C1556 1.368 . S
C1560 C1559 1.523 . S
H1561 C1536 0.950 . S
H1562 C1538 0.950 . S
H1563 C1539 0.949 . S
H1564 C1541 0.950 1_455 S
H1565 C1543 0.950 . S
C1566 C1567 1.349 . S
C1566 C1568 1.327 . S
C1566 H1591 0.950 . S
C1567 C1566 1.349 . S
C1567 C1583 1.349 . S
C1568 C1566 1.327 . S
C1568 C1587 1.429 . S
C1568 H1592 0.950 . S
C1569 C1586 1.574 . S
C1569 C1588 1.368 . S
C1569 H1593 0.949 . S
H1570 C1574 0.949 . S
C1571 C1572 1.349 . S
C1571 C1573 1.327 . S
C1571 H1594 0.950 . S
C1572 C1571 1.349 . S
C1572 C1584 1.349 . S
C1573 C1571 1.327 . S
C1573 C1589 1.429 . S
C1573 H1595 0.950 . S
C1574 H1570 0.949 . S
C1574 C1582 1.574 . S
C1574 C1590 1.368 . S
H1575 C1583 0.950 . S
H1576 C1581 0.950 . S
H1577 C1582 0.949 . S
H1578 C1584 0.950 . S
H1579 C1585 0.950 . S
H1580 C1586 0.949 . S
C1581 H1576 0.950 . S
C1581 C1583 1.327 . S
C1581 C1587 1.429 . S
C1582 C1574 1.574 . S
C1582 H1577 0.949 . S
C1582 C1588 1.368 . S
C1583 C1567 1.349 . S
C1583 H1575 0.950 . S
C1583 C1581 1.327 . S
C1584 C1572 1.349 . S
C1584 H1578 0.950 . S
C1584 C1585 1.327 . S
C1585 H1579 0.950 . S
C1585 C1584 1.327 . S
C1585 C1589 1.429 . S
C1586 C1569 1.574 . S
C1586 H1580 0.949 . S
C1586 C1590 1.368 . S
C1587 C1568 1.429 . S
C1587 C1581 1.429 . S
C1587 C1588 1.523 . S
C1588 C1569 1.368 . S
C1588 C1582 1.368 . S
C1588 C1587 1.523 . S
C1589 C1573 1.429 . S
C1589 C1585 1.429 . S
C1589 C1590 1.523 . S
C1590 C1574 1.368 . S
C1590 C1586 1.368 . S
C1590 C1589 1.523 . S
H1591 C1566 0.950 . S
H1592 C1568 0.950 . S
H1593 C1569 0.949 . S
H1594 C1571 0.950 . S
H1595 C1573 0.950 . S
C1596 C1597 1.349 . S
C1596 C1598 1.327 . S
C1596 H1621 0.950 . S
C1597 C1596 1.349 . S
C1597 C1613 1.349 . S
C1598 C1596 1.327 . S
C1598 C1617 1.429 . S
C1598 H1622 0.950 . S
C1599 C1616 1.574 . S
C1599 C1618 1.368 . S
C1599 H1623 0.949 . S
H1600 C1604 0.949 . S
C1601 C1602 1.349 . S
C1601 C1603 1.327 . S
C1601 H1624 0.950 . S
C1602 C1601 1.349 . S
C1602 C1614 1.349 . S
C1603 C1601 1.327 . S
C1603 C1619 1.429 . S
C1603 H1625 0.950 . S
C1604 H1600 0.949 . S
C1604 C1612 1.574 . S
C1604 C1620 1.368 . S
H1605 C1613 0.950 . S
H1606 C1611 0.950 . S
H1607 C1612 0.949 . S
H1608 C1614 0.950 . S
H1609 C1615 0.950 . S
H1610 C1616 0.949 . S
C1611 H1606 0.950 . S
C1611 C1613 1.327 . S
C1611 C1617 1.429 . S
C1612 C1604 1.574 . S
C1612 H1607 0.949 . S
C1612 C1618 1.368 . S
C1613 C1597 1.349 . S
C1613 H1605 0.950 . S
C1613 C1611 1.327 . S
C1614 C1602 1.349 . S
C1614 H1608 0.950 . S
C1614 C1615 1.327 . S
C1615 H1609 0.950 . S
C1615 C1614 1.327 . S
C1615 C1619 1.429 . S
C1616 C1599 1.574 . S
C1616 H1610 0.949 . S
C1616 C1620 1.368 . S
C1617 C1598 1.429 . S
C1617 C1611 1.429 . S
C1617 C1618 1.523 . S
C1618 C1599 1.368 . S
C1618 C1612 1.368 . S
C1618 C1617 1.523 . S
C1619 C1603 1.429 . S
C1619 C1615 1.429 . S
C1619 C1620 1.523 . S
C1620 C1604 1.368 . S
C1620 C1616 1.368 . S
C1620 C1619 1.523 . S
H1621 C1596 0.950 . S
H1622 C1598 0.950 . S
H1623 C1599 0.949 . S
H1624 C1601 0.950 . S
H1625 C1603 0.950 . S
C1626 C1627 1.349 . S
C1626 C1628 1.327 . S
C1626 H1651 0.950 . S
C1627 C1626 1.349 . S
C1627 C1643 1.349 . S
C1628 C1626 1.327 . S
C1628 C1647 1.429 . S
C1628 H1652 0.950 . S
C1629 C1646 1.574 . S
C1629 C1648 1.368 . S
C1629 H1653 0.949 . S
H1630 C1634 0.949 . S
C1631 C1632 1.349 . S
C1631 C1633 1.327 1_455 S
C1631 H1654 0.950 . S
C1632 C1631 1.349 . S
C1632 C1644 1.349 . S
C1633 C1631 1.327 1_655 S
C1633 C1649 1.429 . S
C1633 H1655 0.950 . S
C1634 H1630 0.949 . S
C1634 C1642 1.574 . S
C1634 C1650 1.368 . S
H1635 C1643 0.950 . S
H1636 C1641 0.950 . S
H1637 C1642 0.949 . S
H1638 C1644 0.950 . S
H1639 C1645 0.970 . S
H1640 C1646 0.949 . S
C1641 H1636 0.950 . S
C1641 C1643 1.327 . S
C1641 C1647 1.429 . S
C1642 C1634 1.574 . S
C1642 H1637 0.949 . S
C1642 C1648 1.368 . S
C1643 C1627 1.349 . S
C1643 H1635 0.950 . S
C1643 C1641 1.327 . S
C1644 C1632 1.349 . S
C1644 H1638 0.950 . S
C1644 C1645 1.290 1_455 S
C1645 H1639 0.970 . S
C1645 C1644 1.290 1_655 S
C1645 C1649 1.447 . S
C1646 C1629 1.574 . S
C1646 H1640 0.949 . S
C1646 C1650 1.368 . S
C1647 C1628 1.429 . S
C1647 C1641 1.429 . S
C1647 C1648 1.523 . S
C1648 C1629 1.368 . S
C1648 C1642 1.368 . S
C1648 C1647 1.523 . S
C1649 C1633 1.429 . S
C1649 C1645 1.447 . S
C1649 C1650 1.523 . S
C1650 C1634 1.368 . S
C1650 C1646 1.368 . S
C1650 C1649 1.523 . S
H1651 C1626 0.950 . S
H1652 C1628 0.950 . S
H1653 C1629 0.949 . S
H1654 C1631 0.950 . S
H1655 C1633 0.950 . S
C1656 C1657 1.349 . S
C1656 C1658 1.327 . S
C1656 H1681 0.950 . S
C1657 C1656 1.349 . S
C1657 C1673 1.349 . S
C1658 C1656 1.327 . S
C1658 C1677 1.429 . S
C1658 H1682 0.950 . S
C1659 C1676 1.574 . S
C1659 C1678 1.368 . S
C1659 H1683 0.949 . S
H1660 C1664 0.949 . S
C1661 C1662 1.349 . S
C1661 C1663 1.327 . S
C1661 H1684 0.950 . S
C1662 C1661 1.349 . S
C1662 C1674 1.349 . S
C1663 C1661 1.327 . S
C1663 C1679 1.429 . S
C1663 H1685 0.950 . S
C1664 H1660 0.949 . S
C1664 C1672 1.574 . S
C1664 C1680 1.368 . S
H1665 C1673 0.950 . S
H1666 C1671 0.950 . S
H1667 C1672 0.949 . S
H1668 C1674 0.950 . S
H1669 C1675 0.950 . S
H1670 C1676 0.949 . S
C1671 H1666 0.950 . S
C1671 C1673 1.327 . S
C1671 C1677 1.429 . S
C1672 C1664 1.574 . S
C1672 H1667 0.949 . S
C1672 C1678 1.368 . S
C1673 C1657 1.349 . S
C1673 H1665 0.950 . S
C1673 C1671 1.327 . S
C1674 C1662 1.349 . S
C1674 H1668 0.950 . S
C1674 C1675 1.327 . S
C1675 H1669 0.950 . S
C1675 C1674 1.327 . S
C1675 C1679 1.429 . S
C1676 C1659 1.574 . S
C1676 H1670 0.949 . S
C1676 C1680 1.368 . S
C1677 C1658 1.429 . S
C1677 C1671 1.429 . S
C1677 C1678 1.523 . S
C1678 C1659 1.368 . S
C1678 C1672 1.368 . S
C1678 C1677 1.523 . S
C1679 C1663 1.429 . S
C1679 C1675 1.429 . S
C1679 C1680 1.523 . S
C1680 C1664 1.368 . S
C1680 C1676 1.368 . S
C1680 C1679 1.523 . S
H1681 C1656 0.950 . S
H1682 C1658 0.950 . S
H1683 C1659 0.949 . S
H1684 C1661 0.950 . S
H1685 C1663 0.950 . S
C1686 C1687 1.349 . S
C1686 C1688 1.327 . S
C1686 H1711 0.950 . S
C1687 C1686 1.349 . S
C1687 C1703 1.349 . S
C1688 C1686 1.327 . S
C1688 C1707 1.429 . S
C1688 H1712 0.950 . S
C1689 C1706 1.574 . S
C1689 C1708 1.368 . S
C1689 H1713 0.949 . S
H1690 C1694 0.949 . S
C1691 C1692 1.349 . S
C1691 C1693 1.327 . S
C1691 H1714 0.950 . S
C1692 C1691 1.349 . S
C1692 C1704 1.349 . S
C1693 C1691 1.327 . S
C1693 C1709 1.429 . S
C1693 H1715 0.950 . S
C1694 H1690 0.949 . S
C1694 C1702 1.574 . S
C1694 C1710 1.368 . S
H1695 C1703 0.950 . S
H1696 C1701 0.950 . S
H1697 C1702 0.949 . S
H1698 C1704 0.950 . S
H1699 C1705 0.950 . S
H1700 C1706 0.949 . S
C1701 H1696 0.950 . S
C1701 C1703 1.327 . S
C1701 C1707 1.429 . S
C1702 C1694 1.574 . S
C1702 H1697 0.949 . S
C1702 C1708 1.368 . S
C1703 C1687 1.349 . S
C1703 H1695 0.950 . S
C1703 C1701 1.327 . S
C1704 C1692 1.349 . S
C1704 H1698 0.950 . S
C1704 C1705 1.327 . S
C1705 H1699 0.950 . S
C1705 C1704 1.327 . S
C1705 C1709 1.429 . S
C1706 C1689 1.574 . S
C1706 H1700 0.949 . S
C1706 C1710 1.368 . S
C1707 C1688 1.429 . S
C1707 C1701 1.429 . S
C1707 C1708 1.523 . S
C1708 C1689 1.368 . S
C1708 C1702 1.368 . S
C1708 C1707 1.523 . S
C1709 C1693 1.429 . S
C1709 C1705 1.429 . S
C1709 C1710 1.523 . S
C1710 C1694 1.368 . S
C1710 C1706 1.368 . S
C1710 C1709 1.523 . S
H1711 C1686 0.950 . S
H1712 C1688 0.950 . S
H1713 C1689 0.949 . S
H1714 C1691 0.950 . S
H1715 C1693 0.950 . S
C1716 C1717 1.349 . S
C1716 C1718 1.327 . S
C1716 H1741 0.950 . S
C1717 C1716 1.349 . S
C1717 C1733 1.349 . S
C1718 C1716 1.327 . S
C1718 C1737 1.429 . S
C1718 H1742 0.950 . S
C1719 C1736 1.574 . S
C1719 C1738 1.368 . S
C1719 H1743 0.949 . S
H1720 C1724 0.949 . S
C1721 C1722 1.349 . S
C1721 C1723 1.327 . S
C1721 H1744 0.950 . S
C1722 C1721 1.349 . S
C1722 C1734 1.349 . S
C1723 C1721 1.327 . S
C1723 C1739 1.429 . S
C1723 H1745 0.950 . S
C1724 H1720 0.949 . S
C1724 C1732 1.574 . S
C1724 C1740 1.368 . S
H1725 C1733 0.950 . S
H1726 C1731 0.950 . S
H1727 C1732 0.949 . S
H1728 C1734 0.950 . S
H1729 C1735 0.950 . S
H1730 C1736 0.949 . S
C1731 H1726 0.950 . S
C1731 C1733 1.327 . S
C1731 C1737 1.429 . S
C1732 C1724 1.574 . S
C1732 H1727 0.949 . S
C1732 C1738 1.368 . S
C1733 C1717 1.349 . S
C1733 H1725 0.950 . S
C1733 C1731 1.327 . S
C1734 C1722 1.349 . S
C1734 H1728 0.950 . S
C1734 C1735 1.327 . S
C1735 H1729 0.950 . S
C1735 C1734 1.327 . S
C1735 C1739 1.429 . S
C1736 C1719 1.574 . S
C1736 H1730 0.949 . S
C1736 C1740 1.368 . S
C1737 C1718 1.429 . S
C1737 C1731 1.429 . S
C1737 C1738 1.523 . S
C1738 C1719 1.368 . S
C1738 C1732 1.368 . S
C1738 C1737 1.523 . S
C1739 C1723 1.429 . S
C1739 C1735 1.429 . S
C1739 C1740 1.523 . S
C1740 C1724 1.368 . S
C1740 C1736 1.368 . S
C1740 C1739 1.523 . S
H1741 C1716 0.950 . S
H1742 C1718 0.950 . S
H1743 C1719 0.949 . S
H1744 C1721 0.950 . S
H1745 C1723 0.950 . S
C1746 C1747 1.349 . S
C1746 C1748 1.327 . S
C1746 H1771 0.950 . S
C1747 C1746 1.349 . S
C1747 C1763 1.349 . S
C1748 C1746 1.327 . S
C1748 C1767 1.429 . S
C1748 H1772 0.950 . S
C1749 C1766 1.574 . S
C1749 C1768 1.368 . S
C1749 H1773 0.949 . S
H1750 C1754 0.949 . S
C1751 C1752 1.349 . S
C1751 C1753 1.327 . S
C1751 H1774 0.950 . S
C1752 C1751 1.349 . S
C1752 C1764 1.349 . S
C1753 C1751 1.327 . S
C1753 C1769 1.429 . S
C1753 H1775 0.950 . S
C1754 H1750 0.949 . S
C1754 C1762 1.574 . S
C1754 C1770 1.368 . S
H1755 C1763 0.950 . S
H1756 C1761 0.950 . S
H1757 C1762 0.949 . S
H1758 C1764 0.950 . S
H1759 C1765 0.950 . S
H1760 C1766 0.949 . S
C1761 H1756 0.950 . S
C1761 C1763 1.327 . S
C1761 C1767 1.429 . S
C1762 C1754 1.574 . S
C1762 H1757 0.949 . S
C1762 C1768 1.368 . S
C1763 C1747 1.349 . S
C1763 H1755 0.950 . S
C1763 C1761 1.327 . S
C1764 C1752 1.349 . S
C1764 H1758 0.950 . S
C1764 C1765 1.327 . S
C1765 H1759 0.950 . S
C1765 C1764 1.327 . S
C1765 C1769 1.429 . S
C1766 C1749 1.574 . S
C1766 H1760 0.949 . S
C1766 C1770 1.368 . S
C1767 C1748 1.429 . S
C1767 C1761 1.429 . S
C1767 C1768 1.523 . S
C1768 C1749 1.368 . S
C1768 C1762 1.368 . S
C1768 C1767 1.523 . S
C1769 C1753 1.429 . S
C1769 C1765 1.429 . S
C1769 C1770 1.523 . S
C1770 C1754 1.368 . S
C1770 C1766 1.368 . S
C1770 C1769 1.523 . S
H1771 C1746 0.950 . S
H1772 C1748 0.950 . S
H1773 C1749 0.949 . S
H1774 C1751 0.950 . S
H1775 C1753 0.950 . S
C1776 C1777 1.349 . S
C1776 C1778 1.327 . S
C1776 H1801 0.950 . S
C1777 C1776 1.349 . S
C1777 C1793 1.349 . S
C1778 C1776 1.327 . S
C1778 C1797 1.429 . S
C1778 H1802 0.950 . S
C1779 C1796 1.574 . S
C1779 C1798 1.368 . S
C1779 H1803 0.949 . S
H1780 C1784 0.949 . S
C1781 C1782 1.349 . S
C1781 C1783 1.327 . S
C1781 H1804 0.950 . S
C1782 C1781 1.349 . S
C1782 C1794 1.349 . S
C1783 C1781 1.327 . S
C1783 C1799 1.429 . S
C1783 H1805 0.950 . S
C1784 H1780 0.949 . S
C1784 C1792 1.574 . S
C1784 C1800 1.368 . S
H1785 C1793 0.950 . S
H1786 C1791 0.950 . S
H1787 C1792 0.949 . S
H1788 C1794 0.950 . S
H1789 C1795 0.950 . S
H1790 C1796 0.949 . S
C1791 H1786 0.950 . S
C1791 C1793 1.327 . S
C1791 C1797 1.429 . S
C1792 C1784 1.574 . S
C1792 H1787 0.949 . S
C1792 C1798 1.368 . S
C1793 C1777 1.349 . S
C1793 H1785 0.950 . S
C1793 C1791 1.327 . S
C1794 C1782 1.349 . S
C1794 H1788 0.950 . S
C1794 C1795 1.327 . S
C1795 H1789 0.950 . S
C1795 C1794 1.327 . S
C1795 C1799 1.429 . S
C1796 C1779 1.574 . S
C1796 H1790 0.949 . S
C1796 C1800 1.368 . S
C1797 C1778 1.429 . S
C1797 C1791 1.429 . S
C1797 C1798 1.523 . S
C1798 C1779 1.368 . S
C1798 C1792 1.368 . S
C1798 C1797 1.523 . S
C1799 C1783 1.429 . S
C1799 C1795 1.429 . S
C1799 C1800 1.523 . S
C1800 C1784 1.368 . S
C1800 C1796 1.368 . S
C1800 C1799 1.523 . S
H1801 C1776 0.950 . S
H1802 C1778 0.950 . S
H1803 C1779 0.949 . S
H1804 C1781 0.950 . S
H1805 C1783 0.950 . S
C1806 C1807 1.324 1_565 S
C1806 C1808 1.284 1_565 S
C1806 H1831 0.994 . S
C1807 C1806 1.324 1_545 S
C1807 C1823 1.349 . S
C1808 C1806 1.284 1_545 S
C1808 C1827 1.507 . S
C1808 H1832 0.904 1_545 S
C1809 C1826 1.574 . S
C1809 C1828 1.368 . S
C1809 H1833 0.949 . S
H1810 C1814 0.931 1_565 S
C1811 C1812 1.349 . S
C1811 C1813 1.327 . S
C1811 H1834 0.950 . S
C1812 C1811 1.349 . S
C1812 C1824 1.349 . S
C1813 C1811 1.327 . S
C1813 C1829 1.429 . S
C1813 H1835 0.950 . S
C1814 H1810 0.931 1_545 S
C1814 C1822 1.574 . S
C1814 C1830 1.368 . S
H1815 C1823 0.950 . S
H1816 C1821 0.950 . S
H1817 C1822 0.949 1_565 S
H1818 C1824 0.950 . S
H1819 C1825 0.950 . S
H1820 C1826 0.949 . S
C1821 H1816 0.950 . S
C1821 C1823 1.327 . S
C1821 C1827 1.429 . S
C1822 C1814 1.574 . S
C1822 H1817 0.949 1_545 S
C1822 C1828 1.368 . S
C1823 C1807 1.349 . S
C1823 H1815 0.950 . S
C1823 C1821 1.327 . S
C1824 C1812 1.349 . S
C1824 H1818 0.950 . S
C1824 C1825 1.327 . S
C1825 H1819 0.950 . S
C1825 C1824 1.327 . S
C1825 C1829 1.429 . S
C1826 C1809 1.574 . S
C1826 H1820 0.949 . S
C1826 C1830 1.368 . S
C1827 C1808 1.507 . S
C1827 C1821 1.429 . S
C1827 C1828 1.523 . S
C1828 C1809 1.368 . S
C1828 C1822 1.368 . S
C1828 C1827 1.523 . S
C1829 C1813 1.429 . S
C1829 C1825 1.429 . S
C1829 C1830 1.523 . S
C1830 C1814 1.368 . S
C1830 C1826 1.368 . S
C1830 C1829 1.523 . S
H1831 C1806 0.994 . S
H1832 C1808 0.904 1_565 S
H1833 C1809 0.949 . S
H1834 C1811 0.950 . S
H1835 C1813 0.950 . S
C1836 C1837 1.349 . S
C1836 C1838 1.327 . S
C1836 H1861 0.950 . S
C1837 C1836 1.349 . S
C1837 C1853 1.349 . S
C1838 C1836 1.327 . S
C1838 C1857 1.429 . S
C1838 H1862 0.950 . S
C1839 C1856 1.574 . S
C1839 C1858 1.368 . S
C1839 H1863 0.949 . S
H1840 C1844 0.949 . S
C1841 C1842 1.349 . S
C1841 C1843 1.327 . S
C1841 H1864 0.950 . S
C1842 C1841 1.349 . S
C1842 C1854 1.349 . S
C1843 C1841 1.327 . S
C1843 C1859 1.429 . S
C1843 H1865 0.950 . S
C1844 H1840 0.949 . S
C1844 C1852 1.574 . S
C1844 C1860 1.368 . S
H1845 C1853 0.950 1_565 S
H1846 C1851 0.943 1_565 S
H1847 C1852 0.949 . S
H1848 C1854 0.950 . S
H1849 C1855 0.950 . S
H1850 C1856 0.949 . S
C1851 H1846 0.943 1_545 S
C1851 C1853 1.327 . S
C1851 C1857 1.429 . S
C1852 C1844 1.574 . S
C1852 H1847 0.949 . S
C1852 C1858 1.368 . S
C1853 C1837 1.349 . S
C1853 H1845 0.950 1_545 S
C1853 C1851 1.327 . S
C1854 C1842 1.349 . S
C1854 H1848 0.950 . S
C1854 C1855 1.327 . S
C1855 H1849 0.950 . S
C1855 C1854 1.327 . S
C1855 C1859 1.429 . S
C1856 C1839 1.574 . S
C1856 H1850 0.949 . S
C1856 C1860 1.368 . S
C1857 C1838 1.429 . S
C1857 C1851 1.429 . S
C1857 C1858 1.523 . S
C1858 C1839 1.368 . S
C1858 C1852 1.368 . S
C1858 C1857 1.523 . S
C1859 C1843 1.429 . S
C1859 C1855 1.429 . S
C1859 C1860 1.523 . S
C1860 C1844 1.368 . S
C1860 C1856 1.368 . S
C1860 C1859 1.523 . S
H1861 C1836 0.950 . S
H1862 C1838 0.950 . S
H1863 C1839 0.949 . S
H1864 C1841 0.950 . S
H1865 C1843 0.950 . S
C1866 C1867 1.349 . S
C1866 C1868 1.327 . S
C1866 H1891 0.950 . S
C1867 C1866 1.349 . S
C1867 C1883 1.349 . S
C1868 C1866 1.327 . S
C1868 C1887 1.429 . S
C1868 H1892 0.950 . S
C1869 C1886 1.574 . S
C1869 C1888 1.368 . S
C1869 H1893 0.949 . S
H1870 C1874 0.949 . S
C1871 C1872 1.349 . S
C1871 C1873 1.327 . S
C1871 H1894 0.950 . S
C1872 C1871 1.349 . S
C1872 C1884 1.349 . S
C1873 C1871 1.327 . S
C1873 C1889 1.429 . S
C1873 H1895 0.950 . S
C1874 H1870 0.949 . S
C1874 C1882 1.574 . S
C1874 C1890 1.368 . S
H1875 C1883 0.950 . S
H1876 C1881 0.950 . S
H1877 C1882 0.949 . S
H1878 C1884 0.950 . S
H1879 C1885 0.950 . S
H1880 C1886 0.949 . S
C1881 H1876 0.950 . S
C1881 C1883 1.327 . S
C1881 C1887 1.429 . S
C1882 C1874 1.574 . S
C1882 H1877 0.949 . S
C1882 C1888 1.368 . S
C1883 C1867 1.349 . S
C1883 H1875 0.950 . S
C1883 C1881 1.327 . S
C1884 C1872 1.349 . S
C1884 H1878 0.950 . S
C1884 C1885 1.327 . S
C1885 H1879 0.950 . S
C1885 C1884 1.327 . S
C1885 C1889 1.429 . S
C1886 C1869 1.574 . S
C1886 H1880 0.949 . S
C1886 C1890 1.368 . S
C1887 C1868 1.429 . S
C1887 C1881 1.429 . S
C1887 C1888 1.523 . S
C1888 C1869 1.368 . S
C1888 C1882 1.368 . S
C1888 C1887 1.523 . S
C1889 C1873 1.429 . S
C1889 C1885 1.429 . S
C1889 C1890 1.523 . S
C1890 C1874 1.368 . S
C1890 C1886 1.368 . S
C1890 C1889 1.523 . S
H1891 C1866 0.950 . S
H1892 C1868 0.950 . S
H1893 C1869 0.949 . S
H1894 C1871 0.950 . S
H1895 C1873 0.950 . S
C1896 C1897 1.349 . S
C1896 C1898 1.327 . S
C1896 H1921 0.950 . S
C1897 C1896 1.349 . S
C1897 C1913 1.349 . S
C1898 C1896 1.327 . S
C1898 C1917 1.429 . S
C1898 H1922 0.950 . S
C1899 C1916 1.574 . S
C1899 C1918 1.368 . S
C1899 H1923 0.949 . S
H1900 C1904 0.949 . S
C1901 C1902 1.349 . S
C1901 C1903 1.327 . S
C1901 H1924 0.950 . S
C1902 C1901 1.349 . S
C1902 C1914 1.349 . S
C1903 C1901 1.327 . S
C1903 C1919 1.429 . S
C1903 H1925 0.950 . S
C1904 H1900 0.949 . S
C1904 C1912 1.574 . S
C1904 C1920 1.368 . S
H1905 C1913 0.950 . S
H1906 C1911 0.950 . S
H1907 C1912 0.949 . S
H1908 C1914 0.950 . S
H1909 C1915 0.950 . S
H1910 C1916 0.949 . S
C1911 H1906 0.950 . S
C1911 C1913 1.327 . S
C1911 C1917 1.429 . S
C1912 C1904 1.574 . S
C1912 H1907 0.949 . S
C1912 C1918 1.368 . S
C1913 C1897 1.349 . S
C1913 H1905 0.950 . S
C1913 C1911 1.327 . S
C1914 C1902 1.349 . S
C1914 H1908 0.950 . S
C1914 C1915 1.327 . S
C1915 H1909 0.950 . S
C1915 C1914 1.327 . S
C1915 C1919 1.429 . S
C1916 C1899 1.574 . S
C1916 H1910 0.949 . S
C1916 C1920 1.368 . S
C1917 C1898 1.429 . S
C1917 C1911 1.429 . S
C1917 C1918 1.523 . S
C1918 C1899 1.368 . S
C1918 C1912 1.368 . S
C1918 C1917 1.523 . S
C1919 C1903 1.429 . S
C1919 C1915 1.429 . S
C1919 C1920 1.523 . S
C1920 C1904 1.368 . S
C1920 C1916 1.368 . S
C1920 C1919 1.523 . S
H1921 C1896 0.950 . S
H1922 C1898 0.950 . S
H1923 C1899 0.949 . S
H1924 C1901 0.950 . S
H1925 C1903 0.950 . S
C1926 C1927 1.349 . S
C1926 C1928 1.327 . S
C1926 H1951 0.950 . S
C1927 C1926 1.349 . S
C1927 C1943 1.349 . S
C1928 C1926 1.327 . S
C1928 C1947 1.429 . S
C1928 H1952 0.950 . S
C1929 C1946 1.574 . S
C1929 C1948 1.368 . S
C1929 H1953 0.949 . S
H1930 C1934 0.949 . S
C1931 C1932 1.349 . S
C1931 C1933 1.327 . S
C1931 H1954 0.950 . S
C1932 C1931 1.349 . S
C1932 C1944 1.349 . S
C1933 C1931 1.327 . S
C1933 C1949 1.429 . S
C1933 H1955 0.950 . S
C1934 H1930 0.949 . S
C1934 C1942 1.574 . S
C1934 C1950 1.368 . S
H1935 C1943 0.950 . S
H1936 C1941 0.950 . S
H1937 C1942 0.949 . S
H1938 C1944 0.950 . S
H1939 C1945 0.950 . S
H1940 C1946 0.949 . S
C1941 H1936 0.950 . S
C1941 C1943 1.327 . S
C1941 C1947 1.429 . S
C1942 C1934 1.574 . S
C1942 H1937 0.949 . S
C1942 C1948 1.368 . S
C1943 C1927 1.349 . S
C1943 H1935 0.950 . S
C1943 C1941 1.327 . S
C1944 C1932 1.349 . S
C1944 H1938 0.950 . S
C1944 C1945 1.327 . S
C1945 H1939 0.950 . S
C1945 C1944 1.327 . S
C1945 C1949 1.429 . S
C1946 C1929 1.574 . S
C1946 H1940 0.949 . S
C1946 C1950 1.368 . S
C1947 C1928 1.429 . S
C1947 C1941 1.429 . S
C1947 C1948 1.523 . S
C1948 C1929 1.368 . S
C1948 C1942 1.368 . S
C1948 C1947 1.523 . S
C1949 C1933 1.429 . S
C1949 C1945 1.429 . S
C1949 C1950 1.523 . S
C1950 C1934 1.368 . S
C1950 C1946 1.368 . S
C1950 C1949 1.523 . S
H1951 C1926 0.950 . S
H1952 C1928 0.950 . S
H1953 C1929 0.949 . S
H1954 C1931 0.950 . S
H1955 C1933 0.950 . S
C1956 C1957 1.349 . S
C1956 C1958 1.327 . S
C1956 H1981 0.950 . S
C1957 C1956 1.349 . S
C1957 C1973 1.349 . S
C1958 C1956 1.327 . S
C1958 C1977 1.429 . S
C1958 H1982 0.950 . S
C1959 C1976 1.574 . S
C1959 C1978 1.368 . S
C1959 H1983 0.949 . S
H1960 C1964 0.949 . S
C1961 C1962 1.349 . S
C1961 C1963 1.327 . S
C1961 H1984 0.950 . S
C1962 C1961 1.349 . S
C1962 C1974 1.349 . S
C1963 C1961 1.327 . S
C1963 C1979 1.429 . S
C1963 H1985 0.950 . S
C1964 H1960 0.949 . S
C1964 C1972 1.574 . S
C1964 C1980 1.368 . S
H1965 C1973 0.950 . S
H1966 C1971 0.950 . S
H1967 C1972 0.949 . S
H1968 C1974 0.950 . S
H1969 C1975 0.950 . S
H1970 C1976 0.949 . S
C1971 H1966 0.950 . S
C1971 C1973 1.327 . S
C1971 C1977 1.429 . S
C1972 C1964 1.574 . S
C1972 H1967 0.949 . S
C1972 C1978 1.368 . S
C1973 C1957 1.349 . S
C1973 H1965 0.950 . S
C1973 C1971 1.327 . S
C1974 C1962 1.349 . S
C1974 H1968 0.950 . S
C1974 C1975 1.327 . S
C1975 H1969 0.950 . S
C1975 C1974 1.327 . S
C1975 C1979 1.429 . S
C1976 C1959 1.574 . S
C1976 H1970 0.949 . S
C1976 C1980 1.368 . S
C1977 C1958 1.429 . S
C1977 C1971 1.429 . S
C1977 C1978 1.523 . S
C1978 C1959 1.368 . S
C1978 C1972 1.368 . S
C1978 C1977 1.523 . S
C1979 C1963 1.429 . S
C1979 C1975 1.429 . S
C1979 C1980 1.523 . S
C1980 C1964 1.368 . S
C1980 C1976 1.368 . S
C1980 C1979 1.523 . S
H1981 C1956 0.950 . S
H1982 C1958 0.950 . S
H1983 C1959 0.949 . S
H1984 C1961 0.950 . S
H1985 C1963 0.950 . S
C1986 C1987 1.349 . S
C1986 C1988 1.327 . S
C1986 H2011 0.950 . S
C1987 C1986 1.349 . S
C1987 C2003 1.349 . S
C1988 C1986 1.327 . S
C1988 C2007 1.429 . S
C1988 H2012 0.950 . S
C1989 C2006 1.574 . S
C1989 C2008 1.368 . S
C1989 H2013 0.949 . S
H1990 C1994 0.949 . S
C1991 C1992 1.349 . S
C1991 C1993 1.327 . S
C1991 H2014 0.950 . S
C1992 C1991 1.349 . S
C1992 C2004 1.349 . S
C1993 C1991 1.327 . S
C1993 C2009 1.429 . S
C1993 H2015 0.950 . S
C1994 H1990 0.949 . S
C1994 C2002 1.574 . S
C1994 C2010 1.368 . S
H1995 C2003 0.950 . S
H1996 C2001 0.950 . S
H1997 C2002 0.949 . S
H1998 C2004 0.950 . S
H1999 C2005 0.950 . S
H2000 C2006 0.949 . S
C2001 H1996 0.950 . S
C2001 C2003 1.327 . S
C2001 C2007 1.429 . S
C2002 C1994 1.574 . S
C2002 H1997 0.949 . S
C2002 C2008 1.368 . S
C2003 C1987 1.349 . S
C2003 H1995 0.950 . S
C2003 C2001 1.327 . S
C2004 C1992 1.349 . S
C2004 H1998 0.950 . S
C2004 C2005 1.327 . S
C2005 H1999 0.950 . S
C2005 C2004 1.327 . S
C2005 C2009 1.429 . S
C2006 C1989 1.574 . S
C2006 H2000 0.949 . S
C2006 C2010 1.368 . S
C2007 C1988 1.429 . S
C2007 C2001 1.429 . S
C2007 C2008 1.523 . S
C2008 C1989 1.368 . S
C2008 C2002 1.368 . S
C2008 C2007 1.523 . S
C2009 C1993 1.429 . S
C2009 C2005 1.429 . S
C2009 C2010 1.523 . S
C2010 C1994 1.368 . S
C2010 C2006 1.368 . S
C2010 C2009 1.523 . S
H2011 C1986 0.950 . S
H2012 C1988 0.950 . S
H2013 C1989 0.949 . S
H2014 C1991 0.950 . S
H2015 C1993 0.950 . S
C2016 C2017 1.349 . S
C2016 C2018 1.327 . S
C2016 H2041 0.950 . S
C2017 C2016 1.349 . S
C2017 C2033 1.349 . S
C2018 C2016 1.327 . S
C2018 C2037 1.429 . S
C2018 H2042 0.950 . S
C2019 C2036 1.574 . S
C2019 C2038 1.368 . S
C2019 H2043 0.949 . S
H2020 C2024 0.949 . S
C2021 C2022 1.349 . S
C2021 C2023 1.327 . S
C2021 H2044 0.950 . S
C2022 C2021 1.349 . S
C2022 C2034 1.349 . S
C2023 C2021 1.327 . S
C2023 C2039 1.429 . S
C2023 H2045 0.950 . S
C2024 H2020 0.949 . S
C2024 C2032 1.574 . S
C2024 C2040 1.368 . S
H2025 C2033 0.950 . S
H2026 C2031 0.950 . S
H2027 C2032 0.949 . S
H2028 C2034 0.950 . S
H2029 C2035 0.950 . S
H2030 C2036 0.949 . S
C2031 H2026 0.950 . S
C2031 C2033 1.327 . S
C2031 C2037 1.429 . S
C2032 C2024 1.574 . S
C2032 H2027 0.949 . S
C2032 C2038 1.368 . S
C2033 C2017 1.349 . S
C2033 H2025 0.950 . S
C2033 C2031 1.327 . S
C2034 C2022 1.349 . S
C2034 H2028 0.950 . S
C2034 C2035 1.327 . S
C2035 H2029 0.950 . S
C2035 C2034 1.327 . S
C2035 C2039 1.429 . S
C2036 C2019 1.574 . S
C2036 H2030 0.949 . S
C2036 C2040 1.368 . S
C2037 C2018 1.429 . S
C2037 C2031 1.429 . S
C2037 C2038 1.523 . S
C2038 C2019 1.368 . S
C2038 C2032 1.368 . S
C2038 C2037 1.523 . S
C2039 C2023 1.429 . S
C2039 C2035 1.429 . S
C2039 C2040 1.523 . S
C2040 C2024 1.368 . S
C2040 C2036 1.368 . S
C2040 C2039 1.523 . S
H2041 C2016 0.950 . S
H2042 C2018 0.950 . S
H2043 C2019 0.949 . S
H2044 C2021 0.950 . S
H2045 C2023 0.950 . S
C2046 C2047 1.349 . S
C2046 C2048 1.327 . S
C2046 H2071 0.950 . S
C2047 C2046 1.349 . S
C2047 C2063 1.349 . S
C2048 C2046 1.327 . S
C2048 C2067 1.429 . S
C2048 H2072 0.950 . S
C2049 C2066 1.574 . S
C2049 C2068 1.368 . S
C2049 H2073 0.949 . S
H2050 C2054 0.949 . S
C2051 C2052 1.349 . S
C2051 C2053 1.327 . S
C2051 H2074 0.950 . S
C2052 C2051 1.349 . S
C2052 C2064 1.349 . S
C2053 C2051 1.327 . S
C2053 C2069 1.429 . S
C2053 H2075 0.950 . S
C2054 H2050 0.949 . S
C2054 C2062 1.574 . S
C2054 C2070 1.368 . S
H2055 C2063 0.950 . S
H2056 C2061 0.950 . S
H2057 C2062 0.949 . S
H2058 C2064 0.950 . S
H2059 C2065 0.950 . S
H2060 C2066 0.949 . S
C2061 H2056 0.950 . S
C2061 C2063 1.327 . S
C2061 C2067 1.429 . S
C2062 C2054 1.574 . S
C2062 H2057 0.949 . S
C2062 C2068 1.368 . S
C2063 C2047 1.349 . S
C2063 H2055 0.950 . S
C2063 C2061 1.327 . S
C2064 C2052 1.349 . S
C2064 H2058 0.950 . S
C2064 C2065 1.327 . S
C2065 H2059 0.950 . S
C2065 C2064 1.327 . S
C2065 C2069 1.429 . S
C2066 C2049 1.574 . S
C2066 H2060 0.949 . S
C2066 C2070 1.368 . S
C2067 C2048 1.429 . S
C2067 C2061 1.429 . S
C2067 C2068 1.523 . S
C2068 C2049 1.368 . S
C2068 C2062 1.368 . S
C2068 C2067 1.523 . S
C2069 C2053 1.429 . S
C2069 C2065 1.429 . S
C2069 C2070 1.523 . S
C2070 C2054 1.368 . S
C2070 C2066 1.368 . S
C2070 C2069 1.523 . S
H2071 C2046 0.950 . S
H2072 C2048 0.950 . S
H2073 C2049 0.949 . S
H2074 C2051 0.950 . S
H2075 C2053 0.950 . S
C2076 C2077 1.349 . S
C2076 C2078 1.327 . S
C2076 H2101 0.950 . S
C2077 C2076 1.349 . S
C2077 C2093 1.349 . S
C2078 C2076 1.327 . S
C2078 C2097 1.429 . S
C2078 H2102 0.950 . S
C2079 C2096 1.574 . S
C2079 C2098 1.368 . S
C2079 H2103 0.949 . S
H2080 C2084 0.949 . S
C2081 C2082 1.349 . S
C2081 C2083 1.327 . S
C2081 H2104 0.950 . S
C2082 C2081 1.349 . S
C2082 C2094 1.349 . S
C2083 C2081 1.327 . S
C2083 C2099 1.429 . S
C2083 H2105 0.950 . S
C2084 H2080 0.949 . S
C2084 C2092 1.574 . S
C2084 C2100 1.368 . S
H2085 C2093 0.950 . S
H2086 C2091 0.950 . S
H2087 C2092 0.949 . S
H2088 C2094 0.950 . S
H2089 C2095 0.950 . S
H2090 C2096 0.949 . S
C2091 H2086 0.950 . S
C2091 C2093 1.327 . S
C2091 C2097 1.429 . S
C2092 C2084 1.574 . S
C2092 H2087 0.949 . S
C2092 C2098 1.368 . S
C2093 C2077 1.349 . S
C2093 H2085 0.950 . S
C2093 C2091 1.327 . S
C2094 C2082 1.349 . S
C2094 H2088 0.950 . S
C2094 C2095 1.327 . S
C2095 H2089 0.950 . S
C2095 C2094 1.327 . S
C2095 C2099 1.429 . S
C2096 C2079 1.574 . S
C2096 H2090 0.949 . S
C2096 C2100 1.368 . S
C2097 C2078 1.429 . S
C2097 C2091 1.429 . S
C2097 C2098 1.523 . S
C2098 C2079 1.368 . S
C2098 C2092 1.368 . S
C2098 C2097 1.523 . S
C2099 C2083 1.429 . S
C2099 C2095 1.429 . S
C2099 C2100 1.523 . S
C2100 C2084 1.368 . S
C2100 C2096 1.368 . S
C2100 C2099 1.523 . S
H2101 C2076 0.950 . S
H2102 C2078 0.950 . S
H2103 C2079 0.949 . S
H2104 C2081 0.950 . S
H2105 C2083 0.950 . S
C2106 C2107 1.349 . S
C2106 C2108 1.327 . S
C2106 H2131 0.950 . S
C2107 C2106 1.349 . S
C2107 C2123 1.349 . S
C2108 C2106 1.327 . S
C2108 C2127 1.429 . S
C2108 H2132 0.950 . S
C2109 C2126 1.574 . S
C2109 C2128 1.368 . S
C2109 H2133 0.949 . S
H2110 C2114 0.949 . S
C2111 C2112 1.349 . S
C2111 C2113 1.327 . S
C2111 H2134 0.950 . S
C2112 C2111 1.349 . S
C2112 C2124 1.349 . S
C2113 C2111 1.327 . S
C2113 C2129 1.429 . S
C2113 H2135 0.950 . S
C2114 H2110 0.949 . S
C2114 C2122 1.574 . S
C2114 C2130 1.368 . S
H2115 C2123 0.950 . S
H2116 C2121 0.950 . S
H2117 C2122 0.949 . S
H2118 C2124 0.950 . S
H2119 C2125 0.950 . S
H2120 C2126 0.949 . S
C2121 H2116 0.950 . S
C2121 C2123 1.327 . S
C2121 C2127 1.429 . S
C2122 C2114 1.574 . S
C2122 H2117 0.949 . S
C2122 C2128 1.368 . S
C2123 C2107 1.349 . S
C2123 H2115 0.950 . S
C2123 C2121 1.327 . S
C2124 C2112 1.349 . S
C2124 H2118 0.950 . S
C2124 C2125 1.327 . S
C2125 H2119 0.950 . S
C2125 C2124 1.327 . S
C2125 C2129 1.429 . S
C2126 C2109 1.574 . S
C2126 H2120 0.949 . S
C2126 C2130 1.368 . S
C2127 C2108 1.429 . S
C2127 C2121 1.429 . S
C2127 C2128 1.523 . S
C2128 C2109 1.368 . S
C2128 C2122 1.368 . S
C2128 C2127 1.523 . S
C2129 C2113 1.429 . S
C2129 C2125 1.429 . S
C2129 C2130 1.523 . S
C2130 C2114 1.368 . S
C2130 C2126 1.368 . S
C2130 C2129 1.523 . S
H2131 C2106 0.950 . S
H2132 C2108 0.950 . S
H2133 C2109 0.949 . S
H2134 C2111 0.950 . S
H2135 C2113 0.950 . S
C2136 C2137 1.349 . S
C2136 C2138 1.327 . S
C2136 H2161 0.950 . S
C2137 C2136 1.349 . S
C2137 C2153 1.349 . S
C2138 C2136 1.327 . S
C2138 C2157 1.429 . S
C2138 H2162 0.950 . S
C2139 C2156 1.574 . S
C2139 C2158 1.368 . S
C2139 H2163 0.949 . S
H2140 C2144 0.949 . S
C2141 C2142 1.349 . S
C2141 C2143 1.327 . S
C2141 H2164 0.950 . S
C2142 C2141 1.349 . S
C2142 C2154 1.349 . S
C2143 C2141 1.327 . S
C2143 C2159 1.429 . S
C2143 H2165 0.950 . S
C2144 H2140 0.949 . S
C2144 C2152 1.574 . S
C2144 C2160 1.368 . S
H2145 C2153 0.950 . S
H2146 C2151 0.950 . S
H2147 C2152 0.949 . S
H2148 C2154 0.950 . S
H2149 C2155 0.950 . S
H2150 C2156 0.949 . S
C2151 H2146 0.950 . S
C2151 C2153 1.327 . S
C2151 C2157 1.429 . S
C2152 C2144 1.574 . S
C2152 H2147 0.949 . S
C2152 C2158 1.368 . S
C2153 C2137 1.349 . S
C2153 H2145 0.950 . S
C2153 C2151 1.327 . S
C2154 C2142 1.349 . S
C2154 H2148 0.950 . S
C2154 C2155 1.327 . S
C2155 H2149 0.950 . S
C2155 C2154 1.327 . S
C2155 C2159 1.429 . S
C2156 C2139 1.574 . S
C2156 H2150 0.949 . S
C2156 C2160 1.368 . S
C2157 C2138 1.429 . S
C2157 C2151 1.429 . S
C2157 C2158 1.523 . S
C2158 C2139 1.368 . S
C2158 C2152 1.368 . S
C2158 C2157 1.523 . S
C2159 C2143 1.429 . S
C2159 C2155 1.429 . S
C2159 C2160 1.523 . S
C2160 C2144 1.368 . S
C2160 C2156 1.368 . S
C2160 C2159 1.523 . S
H2161 C2136 0.950 . S
H2162 C2138 0.950 . S
H2163 C2139 0.949 . S
H2164 C2141 0.950 . S
H2165 C2143 0.950 . S
C2166 C2167 1.349 . S
C2166 C2168 1.327 . S
C2166 H2191 0.950 . S
C2167 C2166 1.349 . S
C2167 C2183 1.349 . S
C2168 C2166 1.327 . S
C2168 C2187 1.429 . S
C2168 H2192 0.950 . S
C2169 C2186 1.574 . S
C2169 C2188 1.368 . S
C2169 H2193 0.949 . S
H2170 C2174 0.949 . S
C2171 C2172 1.349 . S
C2171 C2173 1.327 . S
C2171 H2194 0.950 . S
C2172 C2171 1.349 . S
C2172 C2184 1.349 . S
C2173 C2171 1.327 . S
C2173 C2189 1.429 . S
C2173 H2195 0.950 . S
C2174 H2170 0.949 . S
C2174 C2182 1.574 . S
C2174 C2190 1.368 . S
H2175 C2183 0.950 . S
H2176 C2181 0.950 . S
H2177 C2182 0.949 . S
H2178 C2184 0.950 . S
H2179 C2185 0.950 . S
H2180 C2186 0.949 . S
C2181 H2176 0.950 . S
C2181 C2183 1.327 . S
C2181 C2187 1.429 . S
C2182 C2174 1.574 . S
C2182 H2177 0.949 . S
C2182 C2188 1.368 . S
C2183 C2167 1.349 . S
C2183 H2175 0.950 . S
C2183 C2181 1.327 . S
C2184 C2172 1.349 . S
C2184 H2178 0.950 . S
C2184 C2185 1.327 . S
C2185 H2179 0.950 . S
C2185 C2184 1.327 . S
C2185 C2189 1.429 . S
C2186 C2169 1.574 . S
C2186 H2180 0.949 . S
C2186 C2190 1.368 . S
C2187 C2168 1.429 . S
C2187 C2181 1.429 . S
C2187 C2188 1.523 . S
C2188 C2169 1.368 . S
C2188 C2182 1.368 . S
C2188 C2187 1.523 . S
C2189 C2173 1.429 . S
C2189 C2185 1.429 . S
C2189 C2190 1.523 . S
C2190 C2174 1.368 . S
C2190 C2186 1.368 . S
C2190 C2189 1.523 . S
H2191 C2166 0.950 . S
H2192 C2168 0.950 . S
H2193 C2169 0.949 . S
H2194 C2171 0.950 . S
H2195 C2173 0.950 . S
C2196 C2197 1.349 . S
C2196 C2198 1.327 . S
C2196 H2221 0.950 . S
C2197 C2196 1.349 . S
C2197 C2213 1.349 . S
C2198 C2196 1.327 . S
C2198 C2217 1.429 . S
C2198 H2222 0.950 . S
C2199 C2216 1.574 . S
C2199 C2218 1.368 . S
C2199 H2223 0.949 . S
H2200 C2204 0.949 . S
C2201 C2202 1.349 . S
C2201 C2203 1.327 . S
C2201 H2224 0.950 . S
C2202 C2201 1.349 . S
C2202 C2214 1.349 . S
C2203 C2201 1.327 . S
C2203 C2219 1.429 . S
C2203 H2225 0.950 . S
C2204 H2200 0.949 . S
C2204 C2212 1.574 1_554 S
C2204 C2220 1.368 1_554 S
H2205 C2213 0.950 . S
H2206 C2211 0.950 . S
H2207 C2212 0.949 . S
H2208 C2214 0.950 . S
H2209 C2215 0.950 . S
H2210 C2216 0.949 . S
C2211 H2206 0.950 . S
C2211 C2213 1.327 . S
C2211 C2217 1.429 . S
C2212 C2204 1.574 1_556 S
C2212 H2207 0.949 . S
C2212 C2218 1.368 . S
C2213 C2197 1.349 . S
C2213 H2205 0.950 . S
C2213 C2211 1.327 . S
C2214 C2202 1.349 . S
C2214 H2208 0.950 . S
C2214 C2215 1.327 . S
C2215 H2209 0.950 . S
C2215 C2214 1.327 . S
C2215 C2219 1.429 . S
C2216 C2199 1.574 . S
C2216 H2210 0.949 . S
C2216 C2220 1.368 . S
C2217 C2198 1.429 . S
C2217 C2211 1.429 . S
C2217 C2218 1.523 . S
C2218 C2199 1.368 . S
C2218 C2212 1.368 . S
C2218 C2217 1.523 . S
C2219 C2203 1.429 . S
C2219 C2215 1.429 . S
C2219 C2220 1.523 1_554 S
C2220 C2204 1.368 1_556 S
C2220 C2216 1.368 . S
C2220 C2219 1.523 1_556 S
H2221 C2196 0.950 . S
H2222 C2198 0.950 . S
H2223 C2199 0.949 . S
H2224 C2201 0.950 . S
H2225 C2203 0.950 . S
C2226 C2227 1.349 . S
C2226 C2228 1.327 . S
C2226 H2251 0.950 . S
C2227 C2226 1.349 . S
C2227 C2243 1.349 . S
C2228 C2226 1.327 . S
C2228 C2247 1.429 . S
C2228 H2252 0.950 . S
C2229 C2246 1.574 . S
C2229 C2248 1.368 . S
C2229 H2253 0.949 . S
H2230 C2234 0.937 1_554 S
C2231 C2232 1.349 . S
C2231 C2233 1.327 . S
C2231 H2254 0.950 . S
C2232 C2231 1.349 . S
C2232 C2244 1.349 . S
C2233 C2231 1.327 . S
C2233 C2249 1.429 . S
C2233 H2255 0.950 1_554 S
C2234 H2230 0.937 1_556 S
C2234 C2242 1.574 . S
C2234 C2250 1.368 . S
H2235 C2243 0.950 . S
H2236 C2241 0.950 . S
H2237 C2242 0.949 . S
H2238 C2244 0.950 . S
H2239 C2245 0.950 . S
H2240 C2246 0.949 . S
C2241 H2236 0.950 . S
C2241 C2243 1.327 . S
C2241 C2247 1.429 . S
C2242 C2234 1.574 . S
C2242 H2237 0.949 . S
C2242 C2248 1.368 . S
C2243 C2227 1.349 . S
C2243 H2235 0.950 . S
C2243 C2241 1.327 . S
C2244 C2232 1.349 . S
C2244 H2238 0.950 . S
C2244 C2245 1.327 . S
C2245 H2239 0.950 . S
C2245 C2244 1.327 . S
C2245 C2249 1.429 . S
C2246 C2229 1.574 . S
C2246 H2240 0.949 . S
C2246 C2250 1.368 . S
C2247 C2228 1.429 . S
C2247 C2241 1.429 . S
C2247 C2248 1.523 . S
C2248 C2229 1.368 . S
C2248 C2242 1.368 . S
C2248 C2247 1.523 . S
C2249 C2233 1.429 . S
C2249 C2245 1.429 . S
C2249 C2250 1.523 1_554 S
C2250 C2234 1.368 . S
C2250 C2246 1.368 . S
C2250 C2249 1.523 1_556 S
H2251 C2226 0.950 . S
H2252 C2228 0.950 . S
H2253 C2229 0.949 . S
H2254 C2231 0.950 . S
H2255 C2233 0.950 1_556 S
C2256 C2257 1.349 . S
C2256 C2258 1.327 . S
C2256 H2281 0.950 . S
C2257 C2256 1.349 . S
C2257 C2273 1.349 . S
C2258 C2256 1.327 . S
C2258 C2277 1.429 . S
C2258 H2282 0.950 . S
C2259 C2276 1.574 . S
C2259 C2278 1.368 . S
C2259 H2283 0.949 . S
H2260 C2264 0.935 1_554 S
C2261 C2262 1.349 . S
C2261 C2263 1.327 . S
C2261 H2284 0.950 . S
C2262 C2261 1.349 . S
C2262 C2274 1.349 . S
C2263 C2261 1.327 . S
C2263 C2279 1.429 . S
C2263 H2285 0.950 . S
C2264 H2260 0.935 1_556 S
C2264 C2272 1.598 . S
C2264 C2280 1.361 1_556 S
H2265 C2273 0.950 . S
H2266 C2271 0.950 . S
H2267 C2272 0.949 . S
H2268 C2274 0.950 . S
H2269 C2275 0.950 . S
H2270 C2276 0.949 1_554 S
C2271 H2266 0.950 . S
C2271 C2273 1.327 . S
C2271 C2277 1.429 . S
C2272 C2264 1.598 . S
C2272 H2267 0.949 . S
C2272 C2278 1.368 . S
C2273 C2257 1.349 . S
C2273 H2265 0.950 . S
C2273 C2271 1.327 . S
C2274 C2262 1.349 . S
C2274 H2268 0.950 . S
C2274 C2275 1.327 . S
C2275 H2269 0.950 . S
C2275 C2274 1.327 . S
C2275 C2279 1.429 . S
C2276 C2259 1.574 . S
C2276 H2270 0.949 1_556 S
C2276 C2280 1.368 1_556 S
C2277 C2258 1.429 . S
C2277 C2271 1.429 . S
C2277 C2278 1.523 . S
C2278 C2259 1.368 . S
C2278 C2272 1.368 . S
C2278 C2277 1.523 . S
C2279 C2263 1.429 . S
C2279 C2275 1.429 . S
C2279 C2280 1.523 . S
C2280 C2264 1.361 1_554 S
C2280 C2276 1.368 1_554 S
C2280 C2279 1.523 . S
H2281 C2256 0.950 . S
H2282 C2258 0.950 . S
H2283 C2259 0.949 . S
H2284 C2261 0.950 . S
H2285 C2263 0.950 . S
C2286 C2287 1.349 . S
C2286 C2288 1.327 . S
C2286 H2311 0.950 . S
C2287 C2286 1.349 . S
C2287 C2303 1.349 . S
C2288 C2286 1.327 . S
C2288 C2307 1.429 . S
C2288 H2312 0.950 . S
C2289 C2306 1.574 . S
C2289 C2308 1.368 . S
C2289 H2313 0.949 . S
H2290 C2294 0.949 . S
C2291 C2292 1.349 . S
C2291 C2293 1.327 . S
C2291 H2314 0.950 . S
C2292 C2291 1.349 . S
C2292 C2304 1.349 . S
C2293 C2291 1.327 . S
C2293 C2309 1.429 . S
C2293 H2315 0.950 . S
C2294 H2290 0.949 . S
C2294 C2302 1.574 . S
C2294 C2310 1.368 . S
H2295 C2303 0.950 . S
H2296 C2301 0.950 . S
H2297 C2302 0.949 . S
H2298 C2304 0.950 . S
H2299 C2305 0.950 . S
H2300 C2306 0.949 . S
C2301 H2296 0.950 . S
C2301 C2303 1.327 . S
C2301 C2307 1.429 . S
C2302 C2294 1.574 . S
C2302 H2297 0.949 . S
C2302 C2308 1.368 . S
C2303 C2287 1.349 . S
C2303 H2295 0.950 . S
C2303 C2301 1.327 . S
C2304 C2292 1.349 . S
C2304 H2298 0.950 . S
C2304 C2305 1.327 . S
C2305 H2299 0.950 . S
C2305 C2304 1.327 . S
C2305 C2309 1.429 . S
C2306 C2289 1.574 . S
C2306 H2300 0.949 . S
C2306 C2310 1.368 . S
C2307 C2288 1.429 . S
C2307 C2301 1.429 . S
C2307 C2308 1.523 . S
C2308 C2289 1.368 . S
C2308 C2302 1.368 . S
C2308 C2307 1.523 . S
C2309 C2293 1.429 . S
C2309 C2305 1.429 . S
C2309 C2310 1.523 . S
C2310 C2294 1.368 . S
C2310 C2306 1.368 . S
C2310 C2309 1.523 . S
H2311 C2286 0.950 . S
H2312 C2288 0.950 . S
H2313 C2289 0.949 . S
H2314 C2291 0.950 . S
H2315 C2293 0.950 . S
C2316 C2317 1.349 . S
C2316 C2318 1.327 . S
C2316 H2341 0.950 . S
C2317 C2316 1.349 . S
C2317 C2333 1.349 . S
C2318 C2316 1.327 . S
C2318 C2337 1.429 . S
C2318 H2342 0.950 . S
C2319 C2336 1.574 . S
C2319 C2338 1.368 . S
C2319 H2343 0.949 . S
H2320 C2324 0.949 . S
C2321 C2322 1.349 . S
C2321 C2323 1.327 . S
C2321 H2344 0.950 . S
C2322 C2321 1.349 . S
C2322 C2334 1.349 . S
C2323 C2321 1.327 . S
C2323 C2339 1.429 . S
C2323 H2345 0.950 . S
C2324 H2320 0.949 . S
C2324 C2332 1.574 . S
C2324 C2340 1.368 . S
H2325 C2333 0.950 . S
H2326 C2331 0.950 . S
H2327 C2332 0.949 . S
H2328 C2334 0.950 . S
H2329 C2335 0.950 . S
H2330 C2336 0.949 . S
C2331 H2326 0.950 . S
C2331 C2333 1.327 . S
C2331 C2337 1.429 . S
C2332 C2324 1.574 . S
C2332 H2327 0.949 . S
C2332 C2338 1.368 . S
C2333 C2317 1.349 . S
C2333 H2325 0.950 . S
C2333 C2331 1.327 . S
C2334 C2322 1.349 . S
C2334 H2328 0.950 . S
C2334 C2335 1.327 . S
C2335 H2329 0.950 . S
C2335 C2334 1.327 . S
C2335 C2339 1.429 . S
C2336 C2319 1.574 . S
C2336 H2330 0.949 . S
C2336 C2340 1.368 . S
C2337 C2318 1.429 . S
C2337 C2331 1.429 . S
C2337 C2338 1.523 . S
C2338 C2319 1.368 . S
C2338 C2332 1.368 . S
C2338 C2337 1.523 . S
C2339 C2323 1.429 . S
C2339 C2335 1.429 . S
C2339 C2340 1.523 . S
C2340 C2324 1.368 . S
C2340 C2336 1.368 . S
C2340 C2339 1.523 . S
H2341 C2316 0.950 . S
H2342 C2318 0.950 . S
H2343 C2319 0.949 . S
H2344 C2321 0.950 . S
H2345 C2323 0.950 . S
C2346 C2347 1.349 . S
C2346 C2348 1.327 . S
C2346 H2371 0.950 . S
C2347 C2346 1.349 . S
C2347 C2363 1.349 . S
C2348 C2346 1.327 . S
C2348 C2367 1.429 . S
C2348 H2372 0.950 . S
C2349 C2366 1.574 . S
C2349 C2368 1.368 . S
C2349 H2373 0.949 . S
H2350 C2354 0.949 . S
C2351 C2352 1.349 . S
C2351 C2353 1.327 . S
C2351 H2374 0.950 . S
C2352 C2351 1.349 . S
C2352 C2364 1.349 . S
C2353 C2351 1.327 . S
C2353 C2369 1.429 . S
C2353 H2375 0.950 . S
C2354 H2350 0.949 . S
C2354 C2362 1.574 . S
C2354 C2370 1.368 . S
H2355 C2363 0.950 . S
H2356 C2361 0.950 . S
H2357 C2362 0.949 . S
H2358 C2364 0.950 . S
H2359 C2365 0.950 . S
H2360 C2366 0.949 . S
C2361 H2356 0.950 . S
C2361 C2363 1.327 . S
C2361 C2367 1.429 . S
C2362 C2354 1.574 . S
C2362 H2357 0.949 . S
C2362 C2368 1.368 . S
C2363 C2347 1.349 . S
C2363 H2355 0.950 . S
C2363 C2361 1.327 . S
C2364 C2352 1.349 . S
C2364 H2358 0.950 . S
C2364 C2365 1.327 . S
C2365 H2359 0.950 . S
C2365 C2364 1.327 . S
C2365 C2369 1.429 . S
C2366 C2349 1.574 . S
C2366 H2360 0.949 . S
C2366 C2370 1.368 . S
C2367 C2348 1.429 . S
C2367 C2361 1.429 . S
C2367 C2368 1.523 . S
C2368 C2349 1.368 . S
C2368 C2362 1.368 . S
C2368 C2367 1.523 . S
C2369 C2353 1.429 . S
C2369 C2365 1.429 . S
C2369 C2370 1.523 . S
C2370 C2354 1.368 . S
C2370 C2366 1.368 . S
C2370 C2369 1.523 . S
H2371 C2346 0.950 . S
H2372 C2348 0.950 . S
H2373 C2349 0.949 . S
H2374 C2351 0.950 . S
H2375 C2353 0.950 . S
C2376 C2377 1.349 . S
C2376 C2378 1.327 . S
C2376 H2401 0.950 . S
C2377 C2376 1.349 . S
C2377 C2393 1.349 . S
C2378 C2376 1.327 . S
C2378 C2397 1.429 . S
C2378 H2402 0.950 . S
C2379 C2396 1.574 . S
C2379 C2398 1.368 . S
C2379 H2403 0.949 . S
H2380 C2384 0.949 . S
C2381 C2382 1.349 . S
C2381 C2383 1.327 . S
C2381 H2404 0.950 . S
C2382 C2381 1.349 . S
C2382 C2394 1.349 . S
C2383 C2381 1.327 . S
C2383 C2399 1.429 . S
C2383 H2405 0.950 . S
C2384 H2380 0.949 . S
C2384 C2392 1.574 . S
C2384 C2400 1.368 . S
H2385 C2393 0.950 . S
H2386 C2391 0.950 . S
H2387 C2392 0.949 . S
H2388 C2394 0.950 . S
H2389 C2395 0.950 . S
H2390 C2396 0.949 . S
C2391 H2386 0.950 . S
C2391 C2393 1.327 . S
C2391 C2397 1.429 . S
C2392 C2384 1.574 . S
C2392 H2387 0.949 . S
C2392 C2398 1.368 . S
C2393 C2377 1.349 . S
C2393 H2385 0.950 . S
C2393 C2391 1.327 . S
C2394 C2382 1.349 . S
C2394 H2388 0.950 . S
C2394 C2395 1.327 . S
C2395 H2389 0.950 . S
C2395 C2394 1.327 . S
C2395 C2399 1.429 . S
C2396 C2379 1.574 . S
C2396 H2390 0.949 . S
C2396 C2400 1.368 . S
C2397 C2378 1.429 . S
C2397 C2391 1.429 . S
C2397 C2398 1.523 . S
C2398 C2379 1.368 . S
C2398 C2392 1.368 . S
C2398 C2397 1.523 . S
C2399 C2383 1.429 . S
C2399 C2395 1.429 . S
C2399 C2400 1.523 . S
C2400 C2384 1.368 . S
C2400 C2396 1.368 . S
C2400 C2399 1.523 . S
H2401 C2376 0.950 . S
H2402 C2378 0.950 . S
H2403 C2379 0.949 . S
H2404 C2381 0.950 . S
H2405 C2383 0.950 . S
C2406 C2407 1.349 . S
C2406 C2408 1.327 . S
C2406 H2431 0.950 . S
C2407 C2406 1.349 . S
C2407 C2423 1.349 . S
C2408 C2406 1.327 . S
C2408 C2427 1.429 . S
C2408 H2432 0.950 . S
C2409 C2426 1.574 . S
C2409 C2428 1.368 . S
C2409 H2433 0.949 . S
H2410 C2414 0.949 . S
C2411 C2412 1.349 . S
C2411 C2413 1.327 . S
C2411 H2434 0.950 . S
C2412 C2411 1.349 . S
C2412 C2424 1.349 . S
C2413 C2411 1.327 . S
C2413 C2429 1.429 . S
C2413 H2435 0.950 . S
C2414 H2410 0.949 . S
C2414 C2422 1.574 . S
C2414 C2430 1.368 . S
H2415 C2423 0.950 . S
H2416 C2421 0.950 . S
H2417 C2422 0.949 . S
H2418 C2424 0.950 . S
H2419 C2425 0.950 . S
H2420 C2426 0.949 . S
C2421 H2416 0.950 . S
C2421 C2423 1.327 . S
C2421 C2427 1.429 . S
C2422 C2414 1.574 . S
C2422 H2417 0.949 . S
C2422 C2428 1.368 . S
C2423 C2407 1.349 . S
C2423 H2415 0.950 . S
C2423 C2421 1.327 . S
C2424 C2412 1.349 . S
C2424 H2418 0.950 . S
C2424 C2425 1.327 . S
C2425 H2419 0.950 . S
C2425 C2424 1.327 . S
C2425 C2429 1.429 . S
C2426 C2409 1.574 . S
C2426 H2420 0.949 . S
C2426 C2430 1.368 . S
C2427 C2408 1.429 . S
C2427 C2421 1.429 . S
C2427 C2428 1.523 . S
C2428 C2409 1.368 . S
C2428 C2422 1.368 . S
C2428 C2427 1.523 . S
C2429 C2413 1.429 . S
C2429 C2425 1.429 . S
C2429 C2430 1.523 . S
C2430 C2414 1.368 . S
C2430 C2426 1.368 . S
C2430 C2429 1.523 . S
H2431 C2406 0.950 . S
H2432 C2408 0.950 . S
H2433 C2409 0.949 . S
H2434 C2411 0.950 . S
H2435 C2413 0.950 . S
C2436 C2437 1.349 . S
C2436 C2438 1.327 . S
C2436 H2461 0.950 . S
C2437 C2436 1.349 . S
C2437 C2453 1.349 . S
C2438 C2436 1.327 . S
C2438 C2457 1.429 . S
C2438 H2462 0.950 . S
C2439 C2456 1.574 . S
C2439 C2458 1.368 . S
C2439 H2463 0.949 . S
H2440 C2444 0.949 . S
C2441 C2442 1.349 . S
C2441 C2443 1.327 . S
C2441 H2464 0.950 . S
C2442 C2441 1.349 . S
C2442 C2454 1.349 . S
C2443 C2441 1.327 . S
C2443 C2459 1.429 . S
C2443 H2465 0.950 . S
C2444 H2440 0.949 . S
C2444 C2452 1.574 . S
C2444 C2460 1.368 . S
H2445 C2453 0.950 . S
H2446 C2451 0.950 . S
H2447 C2452 0.949 . S
H2448 C2454 0.950 . S
H2449 C2455 0.950 . S
H2450 C2456 0.949 . S
C2451 H2446 0.950 . S
C2451 C2453 1.327 . S
C2451 C2457 1.429 . S
C2452 C2444 1.574 . S
C2452 H2447 0.949 . S
C2452 C2458 1.368 . S
C2453 C2437 1.349 . S
C2453 H2445 0.950 . S
C2453 C2451 1.327 . S
C2454 C2442 1.349 . S
C2454 H2448 0.950 . S
C2454 C2455 1.327 . S
C2455 H2449 0.950 . S
C2455 C2454 1.327 . S
C2455 C2459 1.429 . S
C2456 C2439 1.574 . S
C2456 H2450 0.949 . S
C2456 C2460 1.368 . S
C2457 C2438 1.429 . S
C2457 C2451 1.429 . S
C2457 C2458 1.523 . S
C2458 C2439 1.368 . S
C2458 C2452 1.368 . S
C2458 C2457 1.523 . S
C2459 C2443 1.429 . S
C2459 C2455 1.429 . S
C2459 C2460 1.523 . S
C2460 C2444 1.368 . S
C2460 C2456 1.368 . S
C2460 C2459 1.523 . S
H2461 C2436 0.950 . S
H2462 C2438 0.950 . S
H2463 C2439 0.949 . S
H2464 C2441 0.950 . S
H2465 C2443 0.950 . S
C2466 C2467 1.349 . S
C2466 C2468 1.327 . S
C2466 H2491 0.950 . S
C2467 C2466 1.349 . S
C2467 C2483 1.349 . S
C2468 C2466 1.327 . S
C2468 C2487 1.429 . S
C2468 H2492 0.950 . S
C2469 C2486 1.574 . S
C2469 C2488 1.368 . S
C2469 H2493 0.949 . S
H2470 C2474 0.949 . S
C2471 C2472 1.349 . S
C2471 C2473 1.327 . S
C2471 H2494 0.950 . S
C2472 C2471 1.349 . S
C2472 C2484 1.349 . S
C2473 C2471 1.327 . S
C2473 C2489 1.429 . S
C2473 H2495 0.950 . S
C2474 H2470 0.949 . S
C2474 C2482 1.574 . S
C2474 C2490 1.368 . S
H2475 C2483 0.950 . S
H2476 C2481 0.950 . S
H2477 C2482 0.949 . S
H2478 C2484 0.950 . S
H2479 C2485 0.950 . S
H2480 C2486 0.949 . S
C2481 H2476 0.950 . S
C2481 C2483 1.327 . S
C2481 C2487 1.429 . S
C2482 C2474 1.574 . S
C2482 H2477 0.949 . S
C2482 C2488 1.368 . S
C2483 C2467 1.349 . S
C2483 H2475 0.950 . S
C2483 C2481 1.327 . S
C2484 C2472 1.349 . S
C2484 H2478 0.950 . S
C2484 C2485 1.327 . S
C2485 H2479 0.950 . S
C2485 C2484 1.327 . S
C2485 C2489 1.429 . S
C2486 C2469 1.574 . S
C2486 H2480 0.949 . S
C2486 C2490 1.368 . S
C2487 C2468 1.429 . S
C2487 C2481 1.429 . S
C2487 C2488 1.523 . S
C2488 C2469 1.368 . S
C2488 C2482 1.368 . S
C2488 C2487 1.523 . S
C2489 C2473 1.429 . S
C2489 C2485 1.429 . S
C2489 C2490 1.523 . S
C2490 C2474 1.368 . S
C2490 C2486 1.368 . S
C2490 C2489 1.523 . S
H2491 C2466 0.950 . S
H2492 C2468 0.950 . S
H2493 C2469 0.949 . S
H2494 C2471 0.950 . S
H2495 C2473 0.950 . S
C2496 C2497 1.349 . S
C2496 C2498 1.327 . S
C2496 H2521 0.950 . S
C2497 C2496 1.349 . S
C2497 C2513 1.349 . S
C2498 C2496 1.327 . S
C2498 C2517 1.429 . S
C2498 H2522 0.950 . S
C2499 C2516 1.574 . S
C2499 C2518 1.368 . S
C2499 H2523 0.949 . S
H2500 C2504 0.949 . S
C2501 C2502 1.349 . S
C2501 C2503 1.327 . S
C2501 H2524 0.950 . S
C2502 C2501 1.349 . S
C2502 C2514 1.349 . S
C2503 C2501 1.327 . S
C2503 C2519 1.429 . S
C2503 H2525 0.950 . S
C2504 H2500 0.949 . S
C2504 C2512 1.574 . S
C2504 C2520 1.368 . S
H2505 C2513 0.950 . S
H2506 C2511 0.950 . S
H2507 C2512 0.949 . S
H2508 C2514 0.950 . S
H2509 C2515 0.950 . S
H2510 C2516 0.949 . S
C2511 H2506 0.950 . S
C2511 C2513 1.327 . S
C2511 C2517 1.429 . S
C2512 C2504 1.574 . S
C2512 H2507 0.949 . S
C2512 C2518 1.368 . S
C2513 C2497 1.349 . S
C2513 H2505 0.950 . S
C2513 C2511 1.327 . S
C2514 C2502 1.349 . S
C2514 H2508 0.950 . S
C2514 C2515 1.327 . S
C2515 H2509 0.950 . S
C2515 C2514 1.327 . S
C2515 C2519 1.429 . S
C2516 C2499 1.574 . S
C2516 H2510 0.949 . S
C2516 C2520 1.368 . S
C2517 C2498 1.429 . S
C2517 C2511 1.429 . S
C2517 C2518 1.523 . S
C2518 C2499 1.368 . S
C2518 C2512 1.368 . S
C2518 C2517 1.523 . S
C2519 C2503 1.429 . S
C2519 C2515 1.429 . S
C2519 C2520 1.523 . S
C2520 C2504 1.368 . S
C2520 C2516 1.368 . S
C2520 C2519 1.523 . S
H2521 C2496 0.950 . S
H2522 C2498 0.950 . S
H2523 C2499 0.949 . S
H2524 C2501 0.950 . S
H2525 C2503 0.950 . S
C2526 C2527 1.349 . S
C2526 C2528 1.327 . S
C2526 H2551 0.950 . S
C2527 C2526 1.349 . S
C2527 C2543 1.349 . S
C2528 C2526 1.327 . S
C2528 C2547 1.429 . S
C2528 H2552 0.950 . S
C2529 C2546 1.574 . S
C2529 C2548 1.368 . S
C2529 H2553 0.949 . S
H2530 C2534 0.949 . S
C2531 C2532 1.349 . S
C2531 C2533 1.327 . S
C2531 H2554 0.950 . S
C2532 C2531 1.349 . S
C2532 C2544 1.349 . S
C2533 C2531 1.327 . S
C2533 C2549 1.429 . S
C2533 H2555 0.950 . S
C2534 H2530 0.949 . S
C2534 C2542 1.574 . S
C2534 C2550 1.368 . S
H2535 C2543 0.950 . S
H2536 C2541 0.950 . S
H2537 C2542 0.949 . S
H2538 C2544 0.950 . S
H2539 C2545 0.950 . S
H2540 C2546 0.949 . S
C2541 H2536 0.950 . S
C2541 C2543 1.327 . S
C2541 C2547 1.429 . S
C2542 C2534 1.574 . S
C2542 H2537 0.949 . S
C2542 C2548 1.368 . S
C2543 C2527 1.349 . S
C2543 H2535 0.950 . S
C2543 C2541 1.327 . S
C2544 C2532 1.349 . S
C2544 H2538 0.950 . S
C2544 C2545 1.327 . S
C2545 H2539 0.950 . S
C2545 C2544 1.327 . S
C2545 C2549 1.429 . S
C2546 C2529 1.574 . S
C2546 H2540 0.949 . S
C2546 C2550 1.368 . S
C2547 C2528 1.429 . S
C2547 C2541 1.429 . S
C2547 C2548 1.523 . S
C2548 C2529 1.368 . S
C2548 C2542 1.368 . S
C2548 C2547 1.523 . S
C2549 C2533 1.429 . S
C2549 C2545 1.429 . S
C2549 C2550 1.523 . S
C2550 C2534 1.368 . S
C2550 C2546 1.368 . S
C2550 C2549 1.523 . S
H2551 C2526 0.950 . S
H2552 C2528 0.950 . S
H2553 C2529 0.949 . S
H2554 C2531 0.950 . S
H2555 C2533 0.950 . S
C2556 C2557 1.349 . S
C2556 C2558 1.327 . S
C2556 H2581 0.950 . S
C2557 C2556 1.349 . S
C2557 C2573 1.349 . S
C2558 C2556 1.327 . S
C2558 C2577 1.429 . S
C2558 H2582 0.950 . S
C2559 C2576 1.574 . S
C2559 C2578 1.368 . S
C2559 H2583 0.949 . S
H2560 C2564 0.949 . S
C2561 C2562 1.349 . S
C2561 C2563 1.327 . S
C2561 H2584 0.950 . S
C2562 C2561 1.349 . S
C2562 C2574 1.349 . S
C2563 C2561 1.327 . S
C2563 C2579 1.429 . S
C2563 H2585 0.950 . S
C2564 H2560 0.949 . S
C2564 C2572 1.574 . S
C2564 C2580 1.368 . S
H2565 C2573 0.950 . S
H2566 C2571 0.950 . S
H2567 C2572 0.949 . S
H2568 C2574 0.950 . S
H2569 C2575 0.950 . S
H2570 C2576 0.949 . S
C2571 H2566 0.950 . S
C2571 C2573 1.327 . S
C2571 C2577 1.429 . S
C2572 C2564 1.574 . S
C2572 H2567 0.949 . S
C2572 C2578 1.368 . S
C2573 C2557 1.349 . S
C2573 H2565 0.950 . S
C2573 C2571 1.327 . S
C2574 C2562 1.349 . S
C2574 H2568 0.950 . S
C2574 C2575 1.327 . S
C2575 H2569 0.950 . S
C2575 C2574 1.327 . S
C2575 C2579 1.429 . S
C2576 C2559 1.574 . S
C2576 H2570 0.949 . S
C2576 C2580 1.368 . S
C2577 C2558 1.429 . S
C2577 C2571 1.429 . S
C2577 C2578 1.523 . S
C2578 C2559 1.368 . S
C2578 C2572 1.368 . S
C2578 C2577 1.523 . S
C2579 C2563 1.429 . S
C2579 C2575 1.429 . S
C2579 C2580 1.523 . S
C2580 C2564 1.368 . S
C2580 C2576 1.368 . S
C2580 C2579 1.523 . S
H2581 C2556 0.950 . S
H2582 C2558 0.950 . S
H2583 C2559 0.949 . S
H2584 C2561 0.950 . S
H2585 C2563 0.950 . S
C2586 C2587 1.349 . S
C2586 C2588 1.327 . S
C2586 H2611 0.950 . S
C2587 C2586 1.349 . S
C2587 C2603 1.349 . S
C2588 C2586 1.327 . S
C2588 C2607 1.429 . S
C2588 H2612 0.950 . S
C2589 C2606 1.574 . S
C2589 C2608 1.368 . S
C2589 H2613 0.949 . S
H2590 C2594 0.949 . S
C2591 C2592 1.349 . S
C2591 C2593 1.327 . S
C2591 H2614 0.950 . S
C2592 C2591 1.349 . S
C2592 C2604 1.349 . S
C2593 C2591 1.327 . S
C2593 C2609 1.429 . S
C2593 H2615 0.950 . S
C2594 H2590 0.949 . S
C2594 C2602 1.574 . S
C2594 C2610 1.368 . S
H2595 C2603 0.950 . S
H2596 C2601 0.950 . S
H2597 C2602 0.949 . S
H2598 C2604 0.950 . S
H2599 C2605 0.950 . S
H2600 C2606 0.949 . S
C2601 H2596 0.950 . S
C2601 C2603 1.327 . S
C2601 C2607 1.429 . S
C2602 C2594 1.574 . S
C2602 H2597 0.949 . S
C2602 C2608 1.368 . S
C2603 C2587 1.349 . S
C2603 H2595 0.950 . S
C2603 C2601 1.327 . S
C2604 C2592 1.349 . S
C2604 H2598 0.950 . S
C2604 C2605 1.327 . S
C2605 H2599 0.950 . S
C2605 C2604 1.327 . S
C2605 C2609 1.429 . S
C2606 C2589 1.574 . S
C2606 H2600 0.949 . S
C2606 C2610 1.368 . S
C2607 C2588 1.429 . S
C2607 C2601 1.429 . S
C2607 C2608 1.523 . S
C2608 C2589 1.368 . S
C2608 C2602 1.368 . S
C2608 C2607 1.523 . S
C2609 C2593 1.429 . S
C2609 C2605 1.429 . S
C2609 C2610 1.523 . S
C2610 C2594 1.368 . S
C2610 C2606 1.368 . S
C2610 C2609 1.523 . S
H2611 C2586 0.950 . S
H2612 C2588 0.950 . S
H2613 C2589 0.949 . S
H2614 C2591 0.950 . S
H2615 C2593 0.950 . S
C2616 C2617 1.349 . S
C2616 C2618 1.327 . S
C2616 H2641 0.950 . S
C2617 C2616 1.349 . S
C2617 C2633 1.349 . S
C2618 C2616 1.327 . S
C2618 C2637 1.429 . S
C2618 H2642 0.950 . S
C2619 C2636 1.574 . S
C2619 C2638 1.368 . S
C2619 H2643 0.949 . S
H2620 C2624 0.949 . S
C2621 C2622 1.349 . S
C2621 C2623 1.327 . S
C2621 H2644 0.950 . S
C2622 C2621 1.349 . S
C2622 C2634 1.349 . S
C2623 C2621 1.327 . S
C2623 C2639 1.429 . S
C2623 H2645 0.950 . S
C2624 H2620 0.949 . S
C2624 C2632 1.574 . S
C2624 C2640 1.368 . S
H2625 C2633 0.950 . S
H2626 C2631 0.950 . S
H2627 C2632 0.949 . S
H2628 C2634 0.950 . S
H2629 C2635 0.950 . S
H2630 C2636 0.949 . S
C2631 H2626 0.950 . S
C2631 C2633 1.327 . S
C2631 C2637 1.429 . S
C2632 C2624 1.574 . S
C2632 H2627 0.949 . S
C2632 C2638 1.368 . S
C2633 C2617 1.349 . S
C2633 H2625 0.950 . S
C2633 C2631 1.327 . S
C2634 C2622 1.349 . S
C2634 H2628 0.950 . S
C2634 C2635 1.327 . S
C2635 H2629 0.950 . S
C2635 C2634 1.327 . S
C2635 C2639 1.429 . S
C2636 C2619 1.574 . S
C2636 H2630 0.949 . S
C2636 C2640 1.368 . S
C2637 C2618 1.429 . S
C2637 C2631 1.429 . S
C2637 C2638 1.523 . S
C2638 C2619 1.368 . S
C2638 C2632 1.368 . S
C2638 C2637 1.523 . S
C2639 C2623 1.429 . S
C2639 C2635 1.429 . S
C2639 C2640 1.523 . S
C2640 C2624 1.368 . S
C2640 C2636 1.368 . S
C2640 C2639 1.523 . S
H2641 C2616 0.950 . S
H2642 C2618 0.950 . S
H2643 C2619 0.949 . S
H2644 C2621 0.950 . S
H2645 C2623 0.950 . S
C2646 C2647 1.349 . S
C2646 C2648 1.327 . S
C2646 H2671 0.950 . S
C2647 C2646 1.349 . S
C2647 C2663 1.349 . S
C2648 C2646 1.327 . S
C2648 C2667 1.429 . S
C2648 H2672 0.950 . S
C2649 C2666 1.574 . S
C2649 C2668 1.368 . S
C2649 H2673 0.949 . S
H2650 C2654 0.949 . S
C2651 C2652 1.349 . S
C2651 C2653 1.327 . S
C2651 H2674 0.950 . S
C2652 C2651 1.349 . S
C2652 C2664 1.349 . S
C2653 C2651 1.327 . S
C2653 C2669 1.429 . S
C2653 H2675 0.950 . S
C2654 H2650 0.949 . S
C2654 C2662 1.574 . S
C2654 C2670 1.368 . S
H2655 C2663 0.950 . S
H2656 C2661 0.950 . S
H2657 C2662 0.949 . S
H2658 C2664 0.950 . S
H2659 C2665 0.950 . S
H2660 C2666 0.949 . S
C2661 H2656 0.950 . S
C2661 C2663 1.327 . S
C2661 C2667 1.429 . S
C2662 C2654 1.574 . S
C2662 H2657 0.949 . S
C2662 C2668 1.368 . S
C2663 C2647 1.349 . S
C2663 H2655 0.950 . S
C2663 C2661 1.327 . S
C2664 C2652 1.349 . S
C2664 H2658 0.950 . S
C2664 C2665 1.327 . S
C2665 H2659 0.950 . S
C2665 C2664 1.327 . S
C2665 C2669 1.429 . S
C2666 C2649 1.574 . S
C2666 H2660 0.949 . S
C2666 C2670 1.368 . S
C2667 C2648 1.429 . S
C2667 C2661 1.429 . S
C2667 C2668 1.523 . S
C2668 C2649 1.368 . S
C2668 C2662 1.368 . S
C2668 C2667 1.523 . S
C2669 C2653 1.429 . S
C2669 C2665 1.429 . S
C2669 C2670 1.523 . S
C2670 C2654 1.368 . S
C2670 C2666 1.368 . S
C2670 C2669 1.523 . S
H2671 C2646 0.950 . S
H2672 C2648 0.950 . S
H2673 C2649 0.949 . S
H2674 C2651 0.950 . S
H2675 C2653 0.950 . S
C2676 C2677 1.349 . S
C2676 C2678 1.327 . S
C2676 H2701 0.950 . S
C2677 C2676 1.349 . S
C2677 C2693 1.349 . S
C2678 C2676 1.327 . S
C2678 C2697 1.429 . S
C2678 H2702 0.950 . S
C2679 C2696 1.574 . S
C2679 C2698 1.368 . S
C2679 H2703 0.949 . S
H2680 C2684 0.949 . S
C2681 C2682 1.349 . S
C2681 C2683 1.327 . S
C2681 H2704 0.950 . S
C2682 C2681 1.349 . S
C2682 C2694 1.349 . S
C2683 C2681 1.327 . S
C2683 C2699 1.429 . S
C2683 H2705 0.950 . S
C2684 H2680 0.949 . S
C2684 C2692 1.574 . S
C2684 C2700 1.368 . S
H2685 C2693 0.950 . S
H2686 C2691 0.950 . S
H2687 C2692 0.949 . S
H2688 C2694 0.950 . S
H2689 C2695 0.950 . S
H2690 C2696 0.949 . S
C2691 H2686 0.950 . S
C2691 C2693 1.327 . S
C2691 C2697 1.429 . S
C2692 C2684 1.574 . S
C2692 H2687 0.949 . S
C2692 C2698 1.368 . S
C2693 C2677 1.349 . S
C2693 H2685 0.950 . S
C2693 C2691 1.327 . S
C2694 C2682 1.349 . S
C2694 H2688 0.950 . S
C2694 C2695 1.327 . S
C2695 H2689 0.950 . S
C2695 C2694 1.327 . S
C2695 C2699 1.429 . S
C2696 C2679 1.574 . S
C2696 H2690 0.949 . S
C2696 C2700 1.368 . S
C2697 C2678 1.429 . S
C2697 C2691 1.429 . S
C2697 C2698 1.523 . S
C2698 C2679 1.368 . S
C2698 C2692 1.368 . S
C2698 C2697 1.523 . S
C2699 C2683 1.429 . S
C2699 C2695 1.429 . S
C2699 C2700 1.523 . S
C2700 C2684 1.368 . S
C2700 C2696 1.368 . S
C2700 C2699 1.523 . S
H2701 C2676 0.950 . S
H2702 C2678 0.950 . S
H2703 C2679 0.949 . S
H2704 C2681 0.950 . S
H2705 C2683 0.950 . S
C2706 C2707 1.349 . S
C2706 C2708 1.327 . S
C2706 H2731 0.950 . S
C2707 C2706 1.349 . S
C2707 C2723 1.349 . S
C2708 C2706 1.327 . S
C2708 C2727 1.429 . S
C2708 H2732 0.950 . S
C2709 C2726 1.574 . S
C2709 C2728 1.368 . S
C2709 H2733 0.949 . S
H2710 C2714 0.949 . S
C2711 C2712 1.349 . S
C2711 C2713 1.327 . S
C2711 H2734 0.950 . S
C2712 C2711 1.349 . S
C2712 C2724 1.349 . S
C2713 C2711 1.327 . S
C2713 C2729 1.429 . S
C2713 H2735 0.950 . S
C2714 H2710 0.949 . S
C2714 C2722 1.574 . S
C2714 C2730 1.368 . S
H2715 C2723 0.950 . S
H2716 C2721 0.950 . S
H2717 C2722 0.949 . S
H2718 C2724 0.950 . S
H2719 C2725 0.950 . S
H2720 C2726 0.949 . S
C2721 H2716 0.950 . S
C2721 C2723 1.327 . S
C2721 C2727 1.429 . S
C2722 C2714 1.574 . S
C2722 H2717 0.949 . S
C2722 C2728 1.368 . S
C2723 C2707 1.349 . S
C2723 H2715 0.950 . S
C2723 C2721 1.327 . S
C2724 C2712 1.349 . S
C2724 H2718 0.950 . S
C2724 C2725 1.327 . S
C2725 H2719 0.950 . S
C2725 C2724 1.327 . S
C2725 C2729 1.429 . S
C2726 C2709 1.574 . S
C2726 H2720 0.949 . S
C2726 C2730 1.368 . S
C2727 C2708 1.429 . S
C2727 C2721 1.429 . S
C2727 C2728 1.523 . S
C2728 C2709 1.368 . S
C2728 C2722 1.368 . S
C2728 C2727 1.523 . S
C2729 C2713 1.429 . S
C2729 C2725 1.429 . S
C2729 C2730 1.523 . S
C2730 C2714 1.368 . S
C2730 C2726 1.368 . S
C2730 C2729 1.523 . S
H2731 C2706 0.950 . S
H2732 C2708 0.950 . S
H2733 C2709 0.949 . S
H2734 C2711 0.950 . S
H2735 C2713 0.950 . S
C2736 C2737 1.349 . S
C2736 C2738 1.327 . S
C2736 H2761 0.950 . S
C2737 C2736 1.349 . S
C2737 C2753 1.349 . S
C2738 C2736 1.327 . S
C2738 C2757 1.429 . S
C2738 H2762 0.950 . S
C2739 C2756 1.574 . S
C2739 C2758 1.368 . S
C2739 H2763 0.949 . S
H2740 C2744 0.949 . S
C2741 C2742 1.349 . S
C2741 C2743 1.327 1_556 S
C2741 H2764 0.950 . S
C2742 C2741 1.349 . S
C2742 C2754 1.349 . S
C2743 C2741 1.327 1_554 S
C2743 C2759 1.429 . S
C2743 H2765 0.950 . S
C2744 H2740 0.949 . S
C2744 C2752 1.574 . S
C2744 C2760 1.368 . S
H2745 C2753 0.950 . S
H2746 C2751 0.950 . S
H2747 C2752 0.949 . S
H2748 C2754 0.950 . S
H2749 C2755 0.950 . S
H2750 C2756 0.949 . S
C2751 H2746 0.950 . S
C2751 C2753 1.327 . S
C2751 C2757 1.429 . S
C2752 C2744 1.574 . S
C2752 H2747 0.949 . S
C2752 C2758 1.368 . S
C2753 C2737 1.349 . S
C2753 H2745 0.950 . S
C2753 C2751 1.327 . S
C2754 C2742 1.349 . S
C2754 H2748 0.950 . S
C2754 C2755 1.327 . S
C2755 H2749 0.950 . S
C2755 C2754 1.327 . S
C2755 C2759 1.429 1_556 S
C2756 C2739 1.574 . S
C2756 H2750 0.949 . S
C2756 C2760 1.368 . S
C2757 C2738 1.429 . S
C2757 C2751 1.429 . S
C2757 C2758 1.523 . S
C2758 C2739 1.368 . S
C2758 C2752 1.368 . S
C2758 C2757 1.523 . S
C2759 C2743 1.429 . S
C2759 C2755 1.429 1_554 S
C2759 C2760 1.523 . S
C2760 C2744 1.368 . S
C2760 C2756 1.368 . S
C2760 C2759 1.523 . S
H2761 C2736 0.950 . S
H2762 C2738 0.950 . S
H2763 C2739 0.949 . S
H2764 C2741 0.950 . S
H2765 C2743 0.950 . S
C2766 C2767 1.349 . S
C2766 C2768 1.327 . S
C2766 H2791 0.950 . S
C2767 C2766 1.349 . S
C2767 C2783 1.349 . S
C2768 C2766 1.327 . S
C2768 C2787 1.429 . S
C2768 H2792 0.950 . S
C2769 C2786 1.574 . S
C2769 C2788 1.368 . S
C2769 H2793 0.949 . S
H2770 C2774 0.949 . S
C2771 C2772 1.349 1_554 S
C2771 C2773 1.327 . S
C2771 H2794 0.950 . S
C2772 C2771 1.349 1_556 S
C2772 C2784 1.349 . S
C2773 C2771 1.327 . S
C2773 C2789 1.429 . S
C2773 H2795 0.950 . S
C2774 H2770 0.949 . S
C2774 C2782 1.574 . S
C2774 C2790 1.368 . S
H2775 C2783 0.950 . S
H2776 C2781 0.950 . S
H2777 C2782 0.949 . S
H2778 C2784 0.950 . S
H2779 C2785 0.950 . S
H2780 C2786 0.949 . S
C2781 H2776 0.950 . S
C2781 C2783 1.327 . S
C2781 C2787 1.429 . S
C2782 C2774 1.574 . S
C2782 H2777 0.949 . S
C2782 C2788 1.368 . S
C2783 C2767 1.349 . S
C2783 H2775 0.950 . S
C2783 C2781 1.327 . S
C2784 C2772 1.349 . S
C2784 H2778 0.950 . S
C2784 C2785 1.327 1_556 S
C2785 H2779 0.950 . S
C2785 C2784 1.327 1_554 S
C2785 C2789 1.429 . S
C2786 C2769 1.574 . S
C2786 H2780 0.949 . S
C2786 C2790 1.368 . S
C2787 C2768 1.429 . S
C2787 C2781 1.429 . S
C2787 C2788 1.523 . S
C2788 C2769 1.368 . S
C2788 C2782 1.368 . S
C2788 C2787 1.523 . S
C2789 C2773 1.429 . S
C2789 C2785 1.429 . S
C2789 C2790 1.523 . S
C2790 C2774 1.368 . S
C2790 C2786 1.368 . S
C2790 C2789 1.523 . S
H2791 C2766 0.950 . S
H2792 C2768 0.950 . S
H2793 C2769 0.949 . S
H2794 C2771 0.950 . S
H2795 C2773 0.950 . S
C2796 C2797 1.349 . S
C2796 C2798 1.327 . S
C2796 H2821 0.950 . S
C2797 C2796 1.349 . S
C2797 C2813 1.349 . S
C2798 C2796 1.327 . S
C2798 C2817 1.429 . S
C2798 H2822 0.950 . S
C2799 C2816 1.574 . S
C2799 C2818 1.368 . S
C2799 H2823 0.949 . S
H2800 C2804 0.949 . S
C2801 C2802 1.349 . S
C2801 C2803 1.327 . S
C2801 H2824 0.950 . S
C2802 C2801 1.349 . S
C2802 C2814 1.349 . S
C2803 C2801 1.327 . S
C2803 C2819 1.429 1_556 S
C2803 H2825 0.950 . S
C2804 H2800 0.949 . S
C2804 C2812 1.574 . S
C2804 C2820 1.368 . S
H2805 C2813 0.950 . S
H2806 C2811 0.950 . S
H2807 C2812 0.949 . S
H2808 C2814 0.950 . S
H2809 C2815 0.950 . S
H2810 C2816 0.949 . S
C2811 H2806 0.950 . S
C2811 C2813 1.327 . S
C2811 C2817 1.429 . S
C2812 C2804 1.574 . S
C2812 H2807 0.949 . S
C2812 C2818 1.368 . S
C2813 C2797 1.349 . S
C2813 H2805 0.950 . S
C2813 C2811 1.327 . S
C2814 C2802 1.349 . S
C2814 H2808 0.950 . S
C2814 C2815 1.327 1_556 S
C2815 H2809 0.950 . S
C2815 C2814 1.327 1_554 S
C2815 C2819 1.429 . S
C2816 C2799 1.574 . S
C2816 H2810 0.949 . S
C2816 C2820 1.368 . S
C2817 C2798 1.429 . S
C2817 C2811 1.429 . S
C2817 C2818 1.523 . S
C2818 C2799 1.368 . S
C2818 C2812 1.368 . S
C2818 C2817 1.523 . S
C2819 C2803 1.429 1_554 S
C2819 C2815 1.429 . S
C2819 C2820 1.523 . S
C2820 C2804 1.368 . S
C2820 C2816 1.368 . S
C2820 C2819 1.523 . S
H2821 C2796 0.950 . S
H2822 C2798 0.950 . S
H2823 C2799 0.949 . S
H2824 C2801 0.950 . S
H2825 C2803 0.950 . S
C667 C7 1.500 . S
C672 C571 1.501 . S
C702 C543 1.767 . S
C697 C39 1.746 . S
C732 C563 1.608 . S
C727 C62 1.557 . S
C757 C76 1.817 . S
C762 C633 1.810 . S
C787 C108 1.503 . S
C792 C641 1.503 . S
C817 N117 1.380 . S
C822 C661 1.377 . S
C852 C617 1.452 . S
C847 C16 1.462 . S
C877 C30 1.806 . S
C882 C589 1.770 . S
C912 C605 1.501 . S
C907 C53 1.509 1_556 S
C937 C85 1.778 . S
C942 C507 1.770 . S
C972 C519 1.649 . S
C967 C99 1.674 . S
C997 N127 1.318 . S
C1002 C535 1.356 . S
C1027 N150 1.207 . S
C1032 C655 1.225 . S
C1062 C627 1.547 . S
C1057 N173 1.527 . S
C1092 C647 1.403 . S
C1087 C200 1.392 . S
C1117 C214 1.644 . S
C1122 C465 1.642 . S
C1147 N232 1.552 . S
C1152 C473 1.567 . S
C1177 C260 1.540 . S
C1182 C493 1.533 . S
C1212 C449 1.291 . S
C1207 N140 1.272 . S
C1237 N163 1.267 . S
C1242 C421 1.286 . S
C1272 C437 1.584 . S
C1267 C191 1.589 . S
C1302 C591 1.867 . S
C1297 C223 1.876 . S
C1332 C603 1.473 . S
C1327 N242 1.441 . S
C1362 C619 1.529 . S
C1357 C269 1.536 . S
C1387 N288 1.339 . S
C1392 C487 1.358 . S
C1417 C315 1.498 . S
C1422 C459 1.522 1_655 S
C1447 C338 1.631 . S
C1452 C479 1.639 . S
C1477 C352 1.834 . S
C1482 C549 1.831 . S
C1512 C557 1.613 . S
C1507 N370 1.599 . S
C1542 C577 1.602 . S
C1537 C398 1.605 . S
C1572 C533 1.255 . S
C1567 N278 1.222 . S
C1597 C306 1.710 . S
C1602 C505 1.677 . S
C1627 C329 1.612 . S
C1632 C521 1.606 . S
C1662 C423 1.521 . S
C1657 C361 1.530 . S
C1687 N380 1.479 . S
C1692 C435 1.508 . S
C1722 C451 1.499 . S
C1717 C407 1.508 . S
C1752 C463 1.365 . S
C1747 N12 1.353 . S
C1777 N25 1.522 . S
C1782 C478 1.540 . S
C1812 C491 1.316 . S
C1807 N48 1.325 . S
C1842 C492 1.369 . S
C1837 N81 1.354 . S
C1872 C464 1.519 . S
C1867 N94 1.470 . S
C1902 C477 1.562 . S
C1897 C131 1.584 . S
C1932 C417 1.398 . S
C1927 N2 1.382 . S
C1957 N35 1.457 . S
C1962 C436 1.495 . S
C1987 N58 1.302 . S
C1992 C445 1.341 . S
C2022 C450 1.329 . S
C2017 N71 1.284 . S
C2052 C422 1.352 . S
C2047 N104 1.325 . S
C2082 C431 1.597 . S
C2077 C122 1.593 . S
C2107 C145 1.984 . S
C2112 C547 1.947 . S
C2137 C168 1.680 . S
C2142 C562 1.683 . S
C2167 N186 1.440 . S
C2172 C575 1.434 . S
C2202 C576 1.390 . S
C2197 N219 1.377 . S
C2232 C548 1.758 . S
C2227 C246 1.746 . S
C2262 C561 1.473 . S
C2257 N265 1.492 . S
C2292 C501 1.892 . S
C2287 C154 1.890 . S
C2317 C177 1.791 . S
C2322 C520 1.783 . S
C2347 N196 1.308 . S
C2352 C529 1.344 . S
C2377 N209 1.195 . S
C2382 C534 1.248 . S
C2407 C237 1.774 . S
C2412 C506 1.773 . S
C2442 C515 1.452 . S
C2437 N255 1.401 . S
C2467 C283 1.762 . S
C2472 C631 1.718 . S
C2497 N301 1.405 . S
C2502 C646 1.421 . S
C2527 N324 1.319 . S
C2532 C659 1.309 . S
C2562 C660 1.213 . S
C2557 N357 1.196 . S
C2592 C632 1.724 . S
C2587 C384 1.717 . S
C2617 N403 1.347 . S
C2622 C645 1.334 . S
C2647 C292 1.856 . S
C2652 C585 1.859 . S
C2682 C604 1.361 . S
C2677 N311 1.327 . S
C2707 N334 1.406 . S
C2712 C613 1.451 . S
C2737 N347 1.324 . S
C2742 C618 1.365 . S
C2772 C590 1.818 . S
C2767 C375 1.820 . S
C2797 N393 1.345 . S
C2802 C599 1.396 . S
