# Generated by pormake.
# Topology gar, (4,6)-cn, num edge types: 1
# Building blocks:
#     Node 0, Type 0, BuildingBlock: QUQFOY_clean_sbu_1, # of connection points: 4
#     Node 1, Type 0, BuildingBlock: QUQFOY_clean_sbu_1, # of connection points: 4
#     Node 2, Type 0, BuildingBlock: QUQFOY_clean_sbu_1, # of connection points: 4
#     Node 3, Type 0, BuildingBlock: QUQFOY_clean_sbu_1, # of connection points: 4
#     Node 4, Type 0, BuildingBlock: QUQFOY_clean_sbu_1, # of connection points: 4
#     Node 5, Type 0, BuildingBlock: QUQFOY_clean_sbu_1, # of connection points: 4
#     Node 6, Type 0, BuildingBlock: QUQFOY_clean_sbu_1, # of connection points: 4
#     Node 7, Type 0, BuildingBlock: QUQFOY_clean_sbu_1, # of connection points: 4
#     Node 8, Type 0, BuildingBlock: QUQFOY_clean_sbu_1, # of connection points: 4
#     Node 9, Type 0, BuildingBlock: QUQFOY_clean_sbu_1, # of connection points: 4
#     Node 10, Type 0, BuildingBlock: QUQFOY_clean_sbu_1, # of connection points: 4
#     Node 11, Type 0, BuildingBlock: QUQFOY_clean_sbu_1, # of connection points: 4
#     Node 12, Type 0, BuildingBlock: QUQFOY_clean_sbu_1, # of connection points: 4
#     Node 13, Type 0, BuildingBlock: QUQFOY_clean_sbu_1, # of connection points: 4
#     Node 14, Type 0, BuildingBlock: QUQFOY_clean_sbu_1, # of connection points: 4
#     Node 15, Type 0, BuildingBlock: QUQFOY_clean_sbu_1, # of connection points: 4
#     Node 16, Type 0, BuildingBlock: QUQFOY_clean_sbu_1, # of connection points: 4
#     Node 17, Type 0, BuildingBlock: QUQFOY_clean_sbu_1, # of connection points: 4
#     Node 18, Type 0, BuildingBlock: QUQFOY_clean_sbu_1, # of connection points: 4
#     Node 19, Type 0, BuildingBlock: QUQFOY_clean_sbu_1, # of connection points: 4
#     Node 20, Type 0, BuildingBlock: QUQFOY_clean_sbu_1, # of connection points: 4
#     Node 21, Type 0, BuildingBlock: QUQFOY_clean_sbu_1, # of connection points: 4
#     Node 22, Type 0, BuildingBlock: QUQFOY_clean_sbu_1, # of connection points: 4
#     Node 23, Type 0, BuildingBlock: QUQFOY_clean_sbu_1, # of connection points: 4
#     Node 24, Type 1, BuildingBlock: BETDEL_clean_sbu_0, # of connection points: 6
#     Node 25, Type 1, BuildingBlock: BETDEL_clean_sbu_0, # of connection points: 6
#     Node 26, Type 1, BuildingBlock: BETDEL_clean_sbu_0, # of connection points: 6
#     Node 27, Type 1, BuildingBlock: BETDEL_clean_sbu_0, # of connection points: 6
#     Node 28, Type 1, BuildingBlock: BETDEL_clean_sbu_0, # of connection points: 6
#     Node 29, Type 1, BuildingBlock: BETDEL_clean_sbu_0, # of connection points: 6
#     Node 30, Type 1, BuildingBlock: BETDEL_clean_sbu_0, # of connection points: 6
#     Node 31, Type 1, BuildingBlock: BETDEL_clean_sbu_0, # of connection points: 6
#     Node 32, Type 1, BuildingBlock: BETDEL_clean_sbu_0, # of connection points: 6
#     Node 33, Type 1, BuildingBlock: BETDEL_clean_sbu_0, # of connection points: 6
#     Node 34, Type 1, BuildingBlock: BETDEL_clean_sbu_0, # of connection points: 6
#     Node 35, Type 1, BuildingBlock: BETDEL_clean_sbu_0, # of connection points: 6
#     Node 36, Type 1, BuildingBlock: BETDEL_clean_sbu_0, # of connection points: 6
#     Node 37, Type 1, BuildingBlock: BETDEL_clean_sbu_0, # of connection points: 6
#     Node 38, Type 1, BuildingBlock: BETDEL_clean_sbu_0, # of connection points: 6
#     Node 39, Type 1, BuildingBlock: BETDEL_clean_sbu_0, # of connection points: 6
#     Edge 40, Type (0, 1), BuildingBlock: EZIPEK_clean_linker_0, # of connection points: 2
#     Edge 41, Type (0, 1), BuildingBlock: EZIPEK_clean_linker_0, # of connection points: 2
#     Edge 42, Type (0, 1), BuildingBlock: EZIPEK_clean_linker_0, # of connection points: 2
#     Edge 43, Type (0, 1), BuildingBlock: EZIPEK_clean_linker_0, # of connection points: 2
#     Edge 44, Type (0, 1), BuildingBlock: EZIPEK_clean_linker_0, # of connection points: 2
#     Edge 45, Type (0, 1), BuildingBlock: EZIPEK_clean_linker_0, # of connection points: 2
#     Edge 46, Type (0, 1), BuildingBlock: EZIPEK_clean_linker_0, # of connection points: 2
#     Edge 47, Type (0, 1), BuildingBlock: EZIPEK_clean_linker_0, # of connection points: 2
#     Edge 48, Type (0, 1), BuildingBlock: EZIPEK_clean_linker_0, # of connection points: 2
#     Edge 49, Type (0, 1), BuildingBlock: EZIPEK_clean_linker_0, # of connection points: 2
#     Edge 50, Type (0, 1), BuildingBlock: EZIPEK_clean_linker_0, # of connection points: 2
#     Edge 51, Type (0, 1), BuildingBlock: EZIPEK_clean_linker_0, # of connection points: 2
#     Edge 52, Type (0, 1), BuildingBlock: EZIPEK_clean_linker_0, # of connection points: 2
#     Edge 53, Type (0, 1), BuildingBlock: EZIPEK_clean_linker_0, # of connection points: 2
#     Edge 54, Type (0, 1), BuildingBlock: EZIPEK_clean_linker_0, # of connection points: 2
#     Edge 55, Type (0, 1), BuildingBlock: EZIPEK_clean_linker_0, # of connection points: 2
#     Edge 56, Type (0, 1), BuildingBlock: EZIPEK_clean_linker_0, # of connection points: 2
#     Edge 57, Type (0, 1), BuildingBlock: EZIPEK_clean_linker_0, # of connection points: 2
#     Edge 58, Type (0, 1), BuildingBlock: EZIPEK_clean_linker_0, # of connection points: 2
#     Edge 59, Type (0, 1), BuildingBlock: EZIPEK_clean_linker_0, # of connection points: 2
#     Edge 60, Type (0, 1), BuildingBlock: EZIPEK_clean_linker_0, # of connection points: 2
#     Edge 61, Type (0, 1), BuildingBlock: EZIPEK_clean_linker_0, # of connection points: 2
#     Edge 62, Type (0, 1), BuildingBlock: EZIPEK_clean_linker_0, # of connection points: 2
#     Edge 63, Type (0, 1), BuildingBlock: EZIPEK_clean_linker_0, # of connection points: 2
#     Edge 64, Type (0, 1), BuildingBlock: EZIPEK_clean_linker_0, # of connection points: 2
#     Edge 65, Type (0, 1), BuildingBlock: EZIPEK_clean_linker_0, # of connection points: 2
#     Edge 66, Type (0, 1), BuildingBlock: EZIPEK_clean_linker_0, # of connection points: 2
#     Edge 67, Type (0, 1), BuildingBlock: EZIPEK_clean_linker_0, # of connection points: 2
#     Edge 68, Type (0, 1), BuildingBlock: EZIPEK_clean_linker_0, # of connection points: 2
#     Edge 69, Type (0, 1), BuildingBlock: EZIPEK_clean_linker_0, # of connection points: 2
#     Edge 70, Type (0, 1), BuildingBlock: EZIPEK_clean_linker_0, # of connection points: 2
#     Edge 71, Type (0, 1), BuildingBlock: EZIPEK_clean_linker_0, # of connection points: 2
#     Edge 72, Type (0, 1), BuildingBlock: EZIPEK_clean_linker_0, # of connection points: 2
#     Edge 73, Type (0, 1), BuildingBlock: EZIPEK_clean_linker_0, # of connection points: 2
#     Edge 74, Type (0, 1), BuildingBlock: EZIPEK_clean_linker_0, # of connection points: 2
#     Edge 75, Type (0, 1), BuildingBlock: EZIPEK_clean_linker_0, # of connection points: 2
#     Edge 76, Type (0, 1), BuildingBlock: EZIPEK_clean_linker_0, # of connection points: 2
#     Edge 77, Type (0, 1), BuildingBlock: EZIPEK_clean_linker_0, # of connection points: 2
#     Edge 78, Type (0, 1), BuildingBlock: EZIPEK_clean_linker_0, # of connection points: 2
#     Edge 79, Type (0, 1), BuildingBlock: EZIPEK_clean_linker_0, # of connection points: 2
#     Edge 80, Type (0, 1), BuildingBlock: EZIPEK_clean_linker_0, # of connection points: 2
#     Edge 81, Type (0, 1), BuildingBlock: EZIPEK_clean_linker_0, # of connection points: 2
#     Edge 82, Type (0, 1), BuildingBlock: EZIPEK_clean_linker_0, # of connection points: 2
#     Edge 83, Type (0, 1), BuildingBlock: EZIPEK_clean_linker_0, # of connection points: 2
#     Edge 84, Type (0, 1), BuildingBlock: EZIPEK_clean_linker_0, # of connection points: 2
#     Edge 85, Type (0, 1), BuildingBlock: EZIPEK_clean_linker_0, # of connection points: 2
#     Edge 86, Type (0, 1), BuildingBlock: EZIPEK_clean_linker_0, # of connection points: 2
#     Edge 87, Type (0, 1), BuildingBlock: EZIPEK_clean_linker_0, # of connection points: 2
#     Edge 88, Type (0, 1), BuildingBlock: EZIPEK_clean_linker_0, # of connection points: 2
#     Edge 89, Type (0, 1), BuildingBlock: EZIPEK_clean_linker_0, # of connection points: 2
#     Edge 90, Type (0, 1), BuildingBlock: EZIPEK_clean_linker_0, # of connection points: 2
#     Edge 91, Type (0, 1), BuildingBlock: EZIPEK_clean_linker_0, # of connection points: 2
#     Edge 92, Type (0, 1), BuildingBlock: EZIPEK_clean_linker_0, # of connection points: 2
#     Edge 93, Type (0, 1), BuildingBlock: EZIPEK_clean_linker_0, # of connection points: 2
#     Edge 94, Type (0, 1), BuildingBlock: EZIPEK_clean_linker_0, # of connection points: 2
#     Edge 95, Type (0, 1), BuildingBlock: EZIPEK_clean_linker_0, # of connection points: 2
#     Edge 96, Type (0, 1), BuildingBlock: EZIPEK_clean_linker_0, # of connection points: 2
#     Edge 97, Type (0, 1), BuildingBlock: EZIPEK_clean_linker_0, # of connection points: 2
#     Edge 98, Type (0, 1), BuildingBlock: EZIPEK_clean_linker_0, # of connection points: 2
#     Edge 99, Type (0, 1), BuildingBlock: EZIPEK_clean_linker_0, # of connection points: 2
#     Edge 100, Type (0, 1), BuildingBlock: EZIPEK_clean_linker_0, # of connection points: 2
#     Edge 101, Type (0, 1), BuildingBlock: EZIPEK_clean_linker_0, # of connection points: 2
#     Edge 102, Type (0, 1), BuildingBlock: EZIPEK_clean_linker_0, # of connection points: 2
#     Edge 103, Type (0, 1), BuildingBlock: EZIPEK_clean_linker_0, # of connection points: 2
#     Edge 104, Type (0, 1), BuildingBlock: EZIPEK_clean_linker_0, # of connection points: 2
#     Edge 105, Type (0, 1), BuildingBlock: EZIPEK_clean_linker_0, # of connection points: 2
#     Edge 106, Type (0, 1), BuildingBlock: EZIPEK_clean_linker_0, # of connection points: 2
#     Edge 107, Type (0, 1), BuildingBlock: EZIPEK_clean_linker_0, # of connection points: 2
#     Edge 108, Type (0, 1), BuildingBlock: EZIPEK_clean_linker_0, # of connection points: 2
#     Edge 109, Type (0, 1), BuildingBlock: EZIPEK_clean_linker_0, # of connection points: 2
#     Edge 110, Type (0, 1), BuildingBlock: EZIPEK_clean_linker_0, # of connection points: 2
#     Edge 111, Type (0, 1), BuildingBlock: EZIPEK_clean_linker_0, # of connection points: 2
#     Edge 112, Type (0, 1), BuildingBlock: EZIPEK_clean_linker_0, # of connection points: 2
#     Edge 113, Type (0, 1), BuildingBlock: EZIPEK_clean_linker_0, # of connection points: 2
#     Edge 114, Type (0, 1), BuildingBlock: EZIPEK_clean_linker_0, # of connection points: 2
#     Edge 115, Type (0, 1), BuildingBlock: EZIPEK_clean_linker_0, # of connection points: 2
#     Edge 116, Type (0, 1), BuildingBlock: EZIPEK_clean_linker_0, # of connection points: 2
#     Edge 117, Type (0, 1), BuildingBlock: EZIPEK_clean_linker_0, # of connection points: 2
#     Edge 118, Type (0, 1), BuildingBlock: EZIPEK_clean_linker_0, # of connection points: 2
#     Edge 119, Type (0, 1), BuildingBlock: EZIPEK_clean_linker_0, # of connection points: 2
#     Edge 120, Type (0, 1), BuildingBlock: EZIPEK_clean_linker_0, # of connection points: 2
#     Edge 121, Type (0, 1), BuildingBlock: EZIPEK_clean_linker_0, # of connection points: 2
#     Edge 122, Type (0, 1), BuildingBlock: EZIPEK_clean_linker_0, # of connection points: 2
#     Edge 123, Type (0, 1), BuildingBlock: EZIPEK_clean_linker_0, # of connection points: 2
#     Edge 124, Type (0, 1), BuildingBlock: EZIPEK_clean_linker_0, # of connection points: 2
#     Edge 125, Type (0, 1), BuildingBlock: EZIPEK_clean_linker_0, # of connection points: 2
#     Edge 126, Type (0, 1), BuildingBlock: EZIPEK_clean_linker_0, # of connection points: 2
#     Edge 127, Type (0, 1), BuildingBlock: EZIPEK_clean_linker_0, # of connection points: 2
#     Edge 128, Type (0, 1), BuildingBlock: EZIPEK_clean_linker_0, # of connection points: 2
#     Edge 129, Type (0, 1), BuildingBlock: EZIPEK_clean_linker_0, # of connection points: 2
#     Edge 130, Type (0, 1), BuildingBlock: EZIPEK_clean_linker_0, # of connection points: 2
#     Edge 131, Type (0, 1), BuildingBlock: EZIPEK_clean_linker_0, # of connection points: 2
#     Edge 132, Type (0, 1), BuildingBlock: EZIPEK_clean_linker_0, # of connection points: 2
#     Edge 133, Type (0, 1), BuildingBlock: EZIPEK_clean_linker_0, # of connection points: 2
#     Edge 134, Type (0, 1), BuildingBlock: EZIPEK_clean_linker_0, # of connection points: 2
#     Edge 135, Type (0, 1), BuildingBlock: EZIPEK_clean_linker_0, # of connection points: 2
# Relax obj value: 0.166
# Max RMSD: 0.291
# Mean RMSD: 0.182
data_MOF--net-gar--node1-QUQFOY_clean_sbu_1--node2-BETDEL_clean_sbu_0--edge1-EZIPEK_clean_linker_0
_symmetry_space_group_name_H-M    P1
_symmetry_Int_Tables_number       1
_symmetry_cell_setting            triclinic
loop_
_symmetry_equiv_pos_as_xyz
'x, y, z'
_cell_length_a     42.699439
_cell_length_b     40.023572
_cell_length_c     41.616814
_cell_angle_alpha  96.206572
_cell_angle_beta   92.623588
_cell_angle_gamma 104.08183
loop_
_atom_site_label
_atom_site_type_symbol
_atom_site_fract_x
_atom_site_fract_y
_atom_site_fract_z
_atom_type_partial_charge
O0 O 0.04498 0.22004 0.40846 0.0
Cd1 Cd 0.04662 0.25483 0.3741 0.0
Cd2 Cd 0.01611 0.28249 0.42697 0.0
O3 O 0.01989 0.23992 0.44847 0.0
O4 O 0.06712 0.23287 0.33799 0.0
O5 O 0.09098 0.28343 0.36636 0.0
C6 C 0.09196 0.25895 0.3438 0.0
C7 C 0.0295 0.3384 0.45295 0.0
C8 C 0.03323 0.21714 0.43592 0.0
C9 C 0.98078 0.2718 0.36257 0.0
O10 O 0.97912 0.27697 0.39289 0.0
O11 O 0.00551 0.26426 0.35065 0.0
O12 O 0.00575 0.31507 0.46126 0.0
O13 O 0.04794 0.32915 0.43173 0.0
O14 O 0.97723 0.70483 0.61587 0.0
Cd15 Cd 0.98836 0.74859 0.65 0.0
Cd16 Cd 0.01791 0.78125 0.60027 0.0
O17 O 1.00191 0.732 0.57692 0.0
O18 O 0.9636 0.73804 0.68906 0.0
O19 O 0.95668 0.77829 0.65931 0.0
C20 C 0.94893 0.76177 0.68396 0.0
C21 C 0.01464 0.82721 0.57111 0.0
C22 C 0.98724 0.7043 0.5875 0.0
C23 C 0.06127 0.77402 0.65555 0.0
O24 O 0.05951 0.78682 0.62912 0.0
O25 O 0.03592 0.75943 0.66844 0.0
O26 O 0.99703 0.82069 0.59518 0.0
O27 O 0.03355 0.80749 0.56356 0.0
O28 O 0.60439 0.76883 0.88537 0.0
Cd29 Cd 0.57618 0.77126 0.92492 0.0
Cd30 Cd 0.54147 0.79957 0.87567 0.0
O31 O 0.57605 0.78603 0.84743 0.0
O32 O 0.58846 0.73909 0.95424 0.0
O33 O 0.53884 0.7319 0.93289 0.0
C34 C 0.55868 0.72135 0.95133 0.0
C35 C 0.49056 0.79612 0.85193 0.0
C36 C 0.60023 0.77506 0.85629 0.0
C37 C 0.5651 0.84193 0.94198 0.0
O38 O 0.5522 0.83884 0.91343 0.0
O39 O 0.57674 0.81817 0.95187 0.0
O40 O 0.51527 0.81982 0.84622 0.0
O41 O 0.49487 0.77279 0.86963 0.0
O42 O 0.47863 0.19194 0.09967 0.0
Cd43 Cd 0.48492 0.23321 0.13708 0.0
Cd44 Cd 0.52022 0.26842 0.09224 0.0
O45 O 0.50646 0.22158 0.06377 0.0
O46 O 0.45137 0.22201 0.16952 0.0
O47 O 0.45733 0.26773 0.14278 0.0
C48 C 0.44281 0.24985 0.16431 0.0
C49 C 0.5155 0.31888 0.07042 0.0
C50 C 0.49053 0.19308 0.07209 0.0
C51 C 0.55651 0.25693 0.1523 0.0
O52 O 0.55794 0.26979 0.12561 0.0
O53 O 0.52939 0.24332 0.16271 0.0
O54 O 0.53829 0.30407 0.06303 0.0
O55 O 0.49524 0.305 0.09027 0.0
O56 O 0.03874 0.74108 0.14041 0.0
Cd57 Cd 0.0413 0.78537 0.1725 0.0
Cd58 Cd 0.08056 0.81619 0.12913 0.0
O59 O 0.06976 0.76662 0.1045 0.0
O60 O 0.00713 0.77051 0.20296 0.0
O61 O 0.0073 0.81298 0.17307 0.0
C62 C 0.99391 0.79421 0.19447 0.0
C63 C 0.06778 0.86114 0.10296 0.0
C64 C 0.05285 0.7394 0.11423 0.0
C65 C 0.1118 0.81556 0.19473 0.0
O66 O 0.11671 0.82471 0.1666 0.0
O67 O 0.08345 0.80145 0.20204 0.0
O68 O 0.09135 0.84783 0.09478 0.0
O69 O 0.05178 0.84925 0.12667 0.0
O70 O 0.55895 0.76306 0.37339 0.0
Cd71 Cd 0.52481 0.75908 0.40727 0.0
Cd72 Cd 0.48973 0.77517 0.3482 0.0
O73 O 0.5303 0.7649 0.32811 0.0
O74 O 0.54621 0.74278 0.44411 0.0
O75 O 0.50179 0.71108 0.41559 0.0
C76 C 0.52432 0.71397 0.43828 0.0
C77 C 0.44311 0.76878 0.31418 0.0
C78 C 0.55641 0.76295 0.34282 0.0
C79 C 0.50129 0.82399 0.41239 0.0
O80 O 0.49385 0.81792 0.38207 0.0
O81 O 0.5122 0.80285 0.42757 0.0
O82 O 0.46933 0.79179 0.31124 0.0
O83 O 0.44376 0.74725 0.33501 0.0
O84 O 0.53626 0.23642 0.63629 0.0
Cd85 Cd 0.54331 0.28059 0.6695 0.0
Cd86 Cd 0.57967 0.30897 0.6237 0.0
O87 O 0.57071 0.25829 0.60138 0.0
O88 O 0.51087 0.26645 0.7019 0.0
O89 O 0.51007 0.30894 0.67228 0.0
C90 C 0.49723 0.28995 0.69371 0.0
C91 C 0.55833 0.35011 0.59938 0.0
C92 C 0.55144 0.23241 0.61113 0.0
C93 C 0.61516 0.31062 0.68761 0.0
O94 O 0.61757 0.32118 0.65982 0.0
O95 O 0.58774 0.29476 0.69607 0.0
O96 O 0.58566 0.34411 0.5918 0.0
O97 O 0.54337 0.33298 0.62109 0.0
O98 O 1.00189 0.20265 0.88825 0.0
Cd99 Cd 1.00196 0.23568 0.8532 0.0
Cd100 Cd 0.96796 0.26504 0.90528 0.0
O101 O 0.97888 0.22577 0.92864 0.0
O102 O 0.02862 0.21885 0.82006 0.0
O103 O 0.04396 0.2705 0.84947 0.0
C104 C 0.05002 0.24779 0.82774 0.0
C105 C 0.97215 0.32007 0.93295 0.0
C106 C 0.9929 0.20306 0.91699 0.0
C107 C 0.93585 0.24755 0.83691 0.0
O108 O 0.93378 0.25617 0.86681 0.0
O109 O 0.96072 0.23889 0.82677 0.0
O110 O 0.94936 0.2937 0.93731 0.0
O111 O 0.99472 0.31407 0.91518 0.0
O112 O 0.43621 0.06253 0.22186 0.0
Cd113 Cd 0.4014 0.06439 0.25431 0.0
Cd114 Cd 0.4537 0.04943 0.29135 0.0
O115 O 0.47979 0.06584 0.254 0.0
O116 O 0.36387 0.06227 0.22332 0.0
O117 O 0.38338 0.10616 0.26184 0.0
C118 C 0.36204 0.09134 0.23841 0.0
C119 C 0.4752 0.06721 0.34376 0.0
C120 C 0.46644 0.06544 0.22614 0.0
C121 C 0.3914 0.99748 0.28249 0.0
O122 O 0.42173 1.00086 0.28479 0.0
O123 O 0.37983 0.02241 0.27605 0.0
O124 O 0.4856 0.04495 0.3253 0.0
O125 O 0.45358 0.08107 0.33188 0.0
O126 O 0.2705 0.16636 0.55429 0.0
Cd127 Cd 0.27116 0.13084 0.51449 0.0
Cd128 Cd 0.24661 0.18097 0.48352 0.0
O129 O 0.25535 0.20779 0.53093 0.0
O130 O 0.29393 0.09791 0.53253 0.0
O131 O 0.31216 0.12809 0.49282 0.0
C132 C 0.31546 0.1058 0.51212 0.0
C133 C 0.26329 0.20736 0.436 0.0
C134 C 0.26362 0.19567 0.55632 0.0
C135 C 0.20268 0.10842 0.48526 0.0
O136 O 0.20575 0.13911 0.47796 0.0
O137 O 0.22656 0.09934 0.49772 0.0
O138 O 0.23847 0.21239 0.45055 0.0
O139 O 0.27947 0.18816 0.44896 0.0
O140 O 0.14177 0.00385 0.71967 0.0
Cd141 Cd 0.17523 0.00539 0.75808 0.0
Cd142 Cd 0.12908 0.03166 0.79122 0.0
O143 O 0.10312 0.01928 0.74705 0.0
O144 O 0.20801 0.98199 0.73918 0.0
O145 O 0.17954 0.96318 0.77937 0.0
C146 C 0.20147 0.95991 0.75974 0.0
C147 C 0.10343 0.01924 0.83891 0.0
C148 C 0.11419 0.01073 0.7204 0.0
C149 C 0.19322 0.0809 0.78341 0.0
O150 O 0.16466 0.0773 0.79239 0.0
O151 O 0.2032 0.05474 0.77258 0.0
O152 O 0.09805 0.04318 0.8227 0.0
O153 O 0.12321 0.0017 0.82796 0.0
O154 O 0.25275 0.9124 0.05176 0.0
Cd155 Cd 0.25643 0.94156 0.01342 0.0
Cd156 Cd 0.26225 0.87562 0.98484 0.0
O157 O 0.24074 0.85948 0.02529 0.0
O158 O 0.25111 0.98668 0.03499 0.0
O159 O 0.21741 0.95486 0.99494 0.0
C160 C 0.22533 0.98212 0.01613 0.0
C161 C 0.25192 0.83934 0.93586 0.0
C162 C 0.24389 0.87968 0.05151 0.0
C163 C 0.32008 0.93595 0.99195 0.0
O164 O 0.30978 0.90337 0.9915 0.0
O165 O 0.30098 0.95572 0.99516 0.0
O166 O 0.26582 0.83108 0.96082 0.0
O167 O 0.24187 0.86737 0.93923 0.0
O168 O 0.259 0.38236 0.0868 0.0
Cd169 Cd 0.26314 0.41812 0.05298 0.0
Cd170 Cd 0.28763 0.364 0.02001 0.0
O171 O 0.26983 0.33693 0.05824 0.0
O172 O 0.23967 0.4534 0.07017 0.0
O173 O 0.22428 0.41934 0.02379 0.0
C174 C 0.21989 0.44379 0.04467 0.0
C175 C 0.28067 0.34186 0.96448 0.0
C176 C 0.26116 0.35095 0.08422 0.0
C177 C 0.33307 0.43508 0.0372 0.0
O178 O 0.32979 0.40263 0.03047 0.0
O179 O 0.30881 0.44694 0.0441 0.0
O180 O 0.30012 0.33264 0.98439 0.0
O181 O 0.26302 0.36146 0.97656 0.0
O182 O 0.80817 0.16355 0.08375 0.0
Cd183 Cd 0.79786 0.12098 0.04855 0.0
Cd184 Cd 0.78132 0.16518 0.01027 0.0
O185 O 0.7952 0.19925 0.05148 0.0
O186 O 0.81644 0.08341 0.06233 0.0
O187 O 0.83063 0.1094 0.01903 0.0
C188 C 0.83306 0.08576 0.0372 0.0
C189 C 0.7956 0.18712 0.96257 0.0
C190 C 0.80428 0.19328 0.07922 0.0
C191 C 0.72907 0.10483 0.02256 0.0
O192 O 0.7363 0.13151 0.00792 0.0
O193 O 0.75016 0.09617 0.03992 0.0
O194 O 0.77417 0.19692 0.9793 0.0
O195 O 0.8096 0.16476 0.97297 0.0
O196 O 0.1403 0.48861 0.16886 0.0
Cd197 Cd 0.17807 0.50245 0.20447 0.0
Cd198 Cd 0.13376 0.51879 0.24356 0.0
O199 O 0.10434 0.49662 0.2033 0.0
O200 O 0.20914 0.47308 0.20213 0.0
O201 O 0.17925 0.47891 0.24394 0.0
C202 C 0.2016 0.46641 0.23094 0.0
C203 C 0.10581 0.51701 0.29045 0.0
C204 C 0.11134 0.48833 0.17483 0.0
C205 C 0.19091 0.5757 0.22788 0.0
O206 O 0.16477 0.56665 0.24165 0.0
O207 O 0.20207 0.55346 0.2112 0.0
O208 O 0.09966 0.53399 0.26755 0.0
O209 O 0.12795 0.50028 0.28683 0.0
O210 O 0.76029 0.8837 0.59538 0.0
Cd211 Cd 0.76311 0.91884 0.56079 0.0
Cd212 Cd 0.78557 0.86548 0.52595 0.0
O213 O 0.76957 0.83859 0.5649 0.0
O214 O 0.73926 0.95461 0.57586 0.0
O215 O 0.7233 0.91733 0.53167 0.0
C216 C 0.71891 0.94311 0.55092 0.0
C217 C 0.77588 0.84372 0.47042 0.0
C218 C 0.76222 0.85218 0.59179 0.0
C219 C 0.83219 0.93561 0.54159 0.0
O220 O 0.82854 0.90315 0.53458 0.0
O221 O 0.80839 0.94756 0.55008 0.0
O222 O 0.79555 0.83348 0.48925 0.0
O223 O 0.75939 0.86399 0.48359 0.0
O224 O 0.8985 0.04317 0.16195 0.0
Cd225 Cd 0.86364 0.03892 0.1967 0.0
Cd226 Cd 0.91086 0.0137 0.22715 0.0
O227 O 0.93903 0.03589 0.19313 0.0
O228 O 0.83045 0.06404 0.18396 0.0
O229 O 0.86388 0.08147 0.22798 0.0
C230 C 0.84032 0.08593 0.20965 0.0
C231 C 0.93016 0.01748 0.28038 0.0
C232 C 0.92829 0.04321 0.16656 0.0
C233 C 0.84829 0.96427 0.21132 0.0
O234 O 0.87845 0.96715 0.21426 0.0
O235 O 0.83726 0.99046 0.20732 0.0
O236 O 0.94123 1.00028 0.25757 0.0
O237 O 0.90974 0.03495 0.27271 0.0
O238 O 0.30775 0.67131 0.58995 0.0
Cd239 Cd 0.29811 0.6282 0.55529 0.0
Cd240 Cd 0.28274 0.673 0.51569 0.0
O241 O 0.29474 0.70672 0.55742 0.0
O242 O 0.32433 0.59501 0.56484 0.0
O243 O 0.32706 0.62087 0.52007 0.0
C244 C 0.33598 0.59904 0.537 0.0
C245 C 0.29326 0.69904 0.46863 0.0
C246 C 0.30344 0.70084 0.58532 0.0
C247 C 0.23082 0.60845 0.52706 0.0
O248 O 0.23979 0.6355 0.51303 0.0
O249 O 0.25053 0.6013 0.54731 0.0
O250 O 0.2709 0.70475 0.48643 0.0
O251 O 0.31008 0.67831 0.47727 0.0
O252 O 0.39874 0.54779 0.6711 0.0
Cd253 Cd 0.36308 0.54494 0.70444 0.0
Cd254 Cd 0.41153 0.52787 0.74185 0.0
O255 O 0.43925 0.54686 0.70579 0.0
O256 O 0.33125 0.5714 0.69166 0.0
O257 O 0.36348 0.58654 0.73677 0.0
C258 C 0.34074 0.59221 0.71812 0.0
C259 C 0.4351 0.5318 0.7942 0.0
C260 C 0.4287 0.5498 0.67746 0.0
C261 C 0.34917 0.47318 0.72167 0.0
O262 O 0.37892 0.4807 0.73122 0.0
O263 O 0.3363 0.49613 0.712 0.0
O264 O 0.44244 0.51247 0.7705 0.0
O265 O 0.41614 0.55132 0.78792 0.0
O266 O 0.62135 0.97329 0.66282 0.0
Cd267 Cd 0.66241 0.99101 0.6936 0.0
Cd268 Cd 0.62509 0.00848 0.73794 0.0
O269 O 0.5921 0.9937 0.69869 0.0
O270 O 0.69556 0.96446 0.6871 0.0
O271 O 0.67083 0.96959 0.73282 0.0
C272 C 0.69232 0.95852 0.71685 0.0
C273 C 0.60385 0.99663 0.78687 0.0
C274 C 0.59498 0.98027 0.67029 0.0
C275 C 0.67839 0.06467 0.71789 0.0
O276 O 0.65834 0.05573 0.7389 0.0
O277 O 0.68307 0.04264 0.69559 0.0
O278 O 0.59678 0.02022 0.77141 0.0
O279 O 0.62334 0.97943 0.77481 0.0
O280 O 0.77287 0.66652 0.06053 0.0
Cd281 Cd 0.77408 0.63387 0.01915 0.0
Cd282 Cd 0.7519 0.68577 0.9924 0.0
O283 O 0.766 0.7125 0.03884 0.0
O284 O 0.79468 0.59901 0.03635 0.0
O285 O 0.81652 0.63257 1.00017 0.0
C286 C 0.81807 0.60882 0.01839 0.0
C287 C 0.76558 0.71137 0.94405 0.0
C288 C 0.77037 0.69765 0.06368 0.0
C289 C 0.70543 0.6154 0.9935 0.0
O290 O 0.7087 0.64744 0.99062 0.0
O291 O 0.72984 0.60387 1.00018 0.0
O292 O 0.74582 0.72129 0.96326 0.0
O293 O 0.7785 0.68738 0.95273 0.0
O294 O 0.93284 0.55377 0.73277 0.0
Cd295 Cd 0.90252 0.55311 0.77052 0.0
Cd296 Cd 0.95663 0.54011 0.79808 0.0
O297 O 0.97972 0.55995 0.76031 0.0
O298 O 0.86189 0.55622 0.74696 0.0
O299 O 0.88834 0.59604 0.78637 0.0
C300 C 0.86402 0.58487 0.76511 0.0
C301 C 0.97476 0.5599 0.85072 0.0
C302 C 0.96349 0.55903 0.73386 0.0
C303 C 0.89811 0.48382 0.79122 0.0
O304 O 0.92855 0.48984 0.79015 0.0
O305 O 0.88407 0.50815 0.78996 0.0
O306 O 0.98906 0.54038 0.83322 0.0
O307 O 0.95122 0.57012 0.83761 0.0
O308 O 0.76209 0.3985 0.54733 0.0
Cd309 Cd 0.75962 0.43392 0.51519 0.0
Cd310 Cd 0.77362 0.37616 0.47493 0.0
O311 O 0.76646 0.35221 0.51521 0.0
O312 O 0.75227 0.47287 0.54544 0.0
O313 O 0.71754 0.44541 0.50426 0.0
C314 C 0.72532 0.46921 0.5288 0.0
C315 C 0.75639 0.34047 0.42612 0.0
C316 C 0.76364 0.36706 0.54294 0.0
C317 C 0.82216 0.44584 0.48421 0.0
O318 O 0.8163 0.41337 0.47595 0.0
O319 O 0.80072 0.45939 0.4961 0.0
O320 O 0.78265 0.34035 0.44247 0.0
O321 O 0.73945 0.3609 0.43784 0.0
O322 O 0.64717 0.50555 0.22977 0.0
Cd323 Cd 0.68362 0.5063 0.26507 0.0
Cd324 Cd 0.6376 0.53254 0.30464 0.0
O325 O 0.61115 0.52226 0.26036 0.0
O326 O 0.71463 0.48286 0.24185 0.0
O327 O 0.69099 0.46398 0.28468 0.0
C328 C 0.71055 0.46068 0.26247 0.0
C329 C 0.60962 0.51987 0.35136 0.0
C330 C 0.62033 0.51384 0.23264 0.0
C331 C 0.70285 0.58126 0.29584 0.0
O332 O 0.67547 0.57708 0.30789 0.0
O333 O 0.71096 0.55612 0.27987 0.0
O334 O 0.60631 0.54504 0.33578 0.0
O335 O 0.62872 0.50145 0.34049 0.0
Dy336 Dy 0.99278 0.0147 1.00163 0.0
C337 C 0.12765 0.05497 0.02288 0.0
C338 C 0.92957 0.01305 0.0095 0.0
Dy339 Dy 0.0639 0.05365 0.02446 0.0
O340 O 0.93939 0.99586 0.98504 0.0
O341 O 0.95405 0.02911 0.02945 0.0
O342 O 0.00825 0.98809 0.95662 0.0
O343 O 0.03613 0.03612 0.97828 0.0
C344 C 0.0361 0.01104 0.95704 0.0
C345 C 0.02092 0.05788 0.06799 0.0
O346 O 0.05022 0.09677 1.00086 0.0
O347 O 0.99561 0.06868 0.98893 0.0
O348 O 0.11646 0.07688 0.04184 0.0
O349 O 0.10428 0.03373 0.00462 0.0
O350 O 0.04803 0.08176 0.06838 0.0
O351 O 0.02104 0.03232 0.04746 0.0
O352 O 0.00612 0.96991 0.02213 0.0
O353 O 0.05904 1.00005 0.03965 0.0
C354 C 0.02047 0.0962 0.98944 0.0
C355 C 0.03514 0.97116 0.03603 0.0
Dy356 Dy 0.27155 0.79629 0.22493 0.0
C357 C 0.28818 0.76899 0.35675 0.0
C358 C 0.25461 0.81689 0.16811 0.0
Dy359 Dy 0.27568 0.79065 0.29892 0.0
O360 O 0.27584 0.79888 0.17174 0.0
O361 O 0.24252 0.82344 0.19541 0.0
O362 O 0.31399 0.77239 0.21825 0.0
O363 O 0.30973 0.8014 0.2622 0.0
C364 C 0.3254 0.78196 0.2483 0.0
C365 C 0.22258 0.80597 0.27433 0.0
O366 O 0.30095 0.84648 0.30186 0.0
O367 O 0.28963 0.85172 0.24785 0.0
O368 O 0.25951 0.76498 0.3427 0.0
O369 O 0.31012 0.78563 0.33967 0.0
O370 O 0.23425 0.81671 0.30417 0.0
O371 O 0.23753 0.7853 0.26139 0.0
O372 O 0.24341 0.74179 0.22492 0.0
O373 O 0.26831 0.73624 0.27405 0.0
C374 C 0.30042 0.86578 0.278 0.0
C375 C 0.25048 0.7225 0.24673 0.0
Dy376 Dy 0.55411 0.02423 0.51532 0.0
C377 C 0.42404 0.04282 0.51431 0.0
C378 C 0.61023 0.00436 0.52749 0.0
Dy379 Dy 0.47938 0.02041 0.52039 0.0
O380 O 0.6066 0.026 0.50712 0.0
O381 O 0.58355 0.99457 0.54152 0.0
O382 O 0.55603 0.0564 0.47389 0.0
O383 O 0.51265 0.02291 0.48254 0.0
C384 C 0.52471 0.0476 0.46696 0.0
C385 C 0.50832 0.99731 0.56791 0.0
O386 O 0.47566 0.96986 0.48859 0.0
O387 O 0.53037 0.96955 0.49397 0.0
O388 O 0.42549 0.01349 0.52445 0.0
O389 O 0.45242 0.05943 0.50729 0.0
O390 O 0.47712 0.98731 0.56117 0.0
O391 O 0.52043 0.02236 0.55286 0.0
O392 O 0.55951 0.07665 0.54298 0.0
O393 O 0.50438 0.07539 0.54145 0.0
C394 C 0.4997 0.95443 0.48417 0.0
C395 C 0.53541 0.09171 0.54844 0.0
Dy396 Dy 0.23637 0.27929 0.75718 0.0
C397 C 0.37534 0.29572 0.74634 0.0
C398 C 0.17344 0.26814 0.77132 0.0
Dy399 Dy 0.31195 0.27854 0.75963 0.0
O400 O 0.19343 0.2985 0.77225 0.0
O401 O 0.18754 0.24379 0.7617 0.0
O402 O 0.24681 0.32445 0.72846 0.0
O403 O 0.28307 0.31676 0.76008 0.0
C404 C 0.27757 0.33422 0.73789 0.0
C405 C 0.27337 0.2168 0.76914 0.0
O406 O 0.30933 0.30158 0.81095 0.0
O407 O 0.25281 0.29252 0.81045 0.0
O408 O 0.36424 0.27908 0.77031 0.0
O409 O 0.35188 0.30346 0.73012 0.0
O410 O 0.30467 0.22218 0.76901 0.0
O411 O 0.2661 0.2443 0.76386 0.0
O412 O 0.23852 0.25421 0.70653 0.0
O413 O 0.29481 0.26237 0.70681 0.0
C414 C 0.2823 0.30168 0.82569 0.0
C415 C 0.26528 0.25278 0.69169 0.0
Dy416 Dy 0.00621 0.00855 0.4698 0.0
C417 C 0.05847 0.03572 0.59882 0.0
C418 C 0.9745 0.00548 0.41063 0.0
Dy419 Dy 0.02837 0.03219 0.53864 0.0
O420 O 0.99904 0.99241 0.41579 0.0
O421 O 0.96641 0.01855 0.43783 0.0
O422 O 0.05461 0.99972 0.45819 0.0
O423 O 0.05255 0.04017 0.49368 0.0
C424 C 0.07124 0.02405 0.47984 0.0
C425 C 0.96272 0.01548 0.52659 0.0
O426 O 0.04001 0.08466 0.52071 0.0
O427 O 1.00297 0.06415 0.47691 0.0
O428 O 0.03392 0.04856 0.59286 0.0
O429 O 0.06728 0.02277 0.57194 0.0
O430 O 0.97904 0.03987 0.54847 0.0
O431 O 0.98248 0.99983 0.51444 0.0
O432 O 0.99817 0.95558 0.48578 0.0
O433 O 0.03148 0.9767 0.53255 0.0
C434 C 0.02276 0.09038 0.49548 0.0
C435 C 0.01463 0.9505 0.51178 0.0
Dy436 Dy 0.30779 0.79463 0.76758 0.0
C437 C 0.18103 0.75185 0.70799 0.0
C438 C 0.36616 0.80778 0.80207 0.0
Dy439 Dy 0.23851 0.76036 0.74272 0.0
O440 O 0.36154 0.81806 0.7741 0.0
O441 O 0.33882 0.79122 0.81152 0.0
O442 O 0.31888 0.813 0.71933 0.0
O443 O 0.28507 0.76603 0.72184 0.0
C444 C 0.29823 0.78674 0.70285 0.0
C445 C 0.2488 0.76831 0.80748 0.0
O446 O 0.25672 0.71247 0.73417 0.0
O447 O 0.30558 0.73689 0.76447 0.0
O448 O 0.18456 0.73831 0.73456 0.0
O449 O 0.20895 0.76814 0.69964 0.0
O450 O 0.22716 0.7427 0.79131 0.0
O451 O 0.26145 0.78918 0.78845 0.0
O452 O 0.28889 0.84256 0.77424 0.0
O453 O 0.24132 0.81716 0.74236 0.0
C454 C 0.28457 0.70972 0.74779 0.0
C455 C 0.26173 0.84471 0.75864 0.0
Dy456 Dy 0.52576 0.01903 0.04254 0.0
C457 C 0.54453 1.00053 0.90676 0.0
C458 C 0.51577 0.04249 0.10357 0.0
Dy459 Dy 0.52787 0.0143 0.968 0.0
O460 O 0.51018 0.00992 0.09202 0.0
O461 O 0.52741 0.06222 0.08201 0.0
O462 O 0.54998 0.97575 0.04582 0.0
O463 O 0.52139 0.97725 0.00343 0.0
C464 C 0.54134 0.96247 0.01579 0.0
C465 C 0.5139 0.07163 0.99671 0.0
O466 O 0.47511 0.99075 0.9692 0.0
O467 O 0.47329 0.00165 0.02522 0.0
O468 O 0.54307 0.03083 0.92029 0.0
O469 O 0.53569 0.9773 0.92628 0.0
O470 O 0.50443 0.05906 0.96673 0.0
O471 O 0.53323 0.05539 0.00742 0.0
O472 O 0.57828 0.04127 0.0405 0.0
O473 O 0.58029 0.02577 0.98571 0.0
C474 C 0.45892 0.99073 0.99568 0.0
C475 C 0.5948 0.03627 0.01514 0.0
Dy476 Dy 0.28154 0.30814 0.26914 0.0
C477 C 0.26908 0.1681 0.23052 0.0
C478 C 0.26612 0.37007 0.27208 0.0
Dy479 Dy 0.26276 0.23409 0.24188 0.0
O480 O 0.29256 0.36585 0.28644 0.0
O481 O 0.24934 0.34118 0.25636 0.0
O482 O 0.30819 0.29899 0.31376 0.0
O483 O 0.26838 0.26047 0.29188 0.0
C484 C 0.29091 0.2673 0.31435 0.0
C485 C 0.25233 0.2783 0.19951 0.0
O486 O 0.21589 0.23221 0.26404 0.0
O487 O 0.22864 0.29164 0.2792 0.0
O488 O 0.25473 0.18297 0.2101 0.0
O489 O 0.27756 0.18843 0.25743 0.0
O490 O 0.2346 0.24679 0.19949 0.0
O491 O 0.27606 0.28227 0.22004 0.0
O492 O 0.32739 0.30687 0.24392 0.0
O493 O 0.31638 0.24704 0.23666 0.0
C494 C 0.20799 0.26064 0.27647 0.0
C495 C 0.33619 0.2777 0.23528 0.0
Dy496 Dy 0.51237 0.50906 0.97915 0.0
C497 C 0.55869 0.53436 0.11171 0.0
C498 C 0.48284 0.50778 0.91943 0.0
Dy499 Dy 0.52986 0.53132 0.05091 0.0
O500 O 0.50548 0.49204 0.92523 0.0
O501 O 0.47551 0.52275 0.94621 0.0
O502 O 0.56239 0.50332 0.97108 0.0
O503 O 0.55565 0.54062 0.00737 0.0
C504 C 0.57644 0.52672 0.99491 0.0
C505 C 0.46538 0.51494 0.03333 0.0
O506 O 0.53683 0.58527 0.03701 0.0
O507 O 0.51482 0.56628 0.98432 0.0
O508 O 0.52924 0.53662 0.1055 0.0
O509 O 0.5728 0.53223 0.08489 0.0
O510 O 0.47965 0.5377 0.05756 0.0
O511 O 0.48621 0.50006 0.02232 0.0
O512 O 0.50319 0.45588 0.99548 0.0
O513 O 0.53406 0.47617 0.04386 0.0
C514 C 0.527 0.59172 0.00806 0.0
C515 C 0.51799 0.45022 0.02234 0.0
Dy516 Dy 0.8111 0.28864 0.26088 0.0
C517 C 0.68181 0.24884 0.20478 0.0
C518 C 0.86795 0.29501 0.2965 0.0
Dy519 Dy 0.74123 0.25772 0.23613 0.0
O520 O 0.86494 0.31092 0.27132 0.0
O521 O 0.83979 0.27708 0.30297 0.0
O522 O 0.82398 0.30627 0.21275 0.0
O523 O 0.78747 0.26133 0.21501 0.0
C524 C 0.80196 0.28135 0.19615 0.0
C525 C 0.75148 0.26536 0.30103 0.0
O526 O 0.75763 0.2086 0.2261 0.0
O527 O 0.8067 0.23048 0.25634 0.0
O528 O 0.68754 0.23373 0.22971 0.0
O529 O 0.70872 0.26727 0.19594 0.0
O530 O 0.72991 0.24003 0.28457 0.0
O531 O 0.76499 0.28568 0.28192 0.0
O532 O 0.79501 0.33849 0.26731 0.0
O533 O 0.74612 0.31524 0.23707 0.0
C534 C 0.785 0.20421 0.2394 0.0
C535 C 0.76778 0.34221 0.25296 0.0
Dy536 Dy 0.02053 0.5324 0.54472 0.0
C537 C 0.04264 0.52784 0.40897 0.0
C538 C 0.01174 0.5484 0.60808 0.0
Dy539 Dy 0.03025 0.53829 0.47198 0.0
O540 O 0.00626 0.51712 0.59314 0.0
O541 O 0.02309 0.57101 0.58874 0.0
O542 O 0.01206 0.47477 0.53836 0.0
O543 O 0.04085 0.50447 0.50661 0.0
C544 C 0.0265 0.47414 0.51157 0.0
C545 C 0.02065 0.59475 0.50706 0.0
O546 O 0.97718 0.5142 0.46753 0.0
O547 O 0.96921 0.51855 0.5227 0.0
O548 O 0.05466 0.55606 0.42856 0.0
O549 O 0.02225 0.50564 0.42338 0.0
O550 O 0.03639 0.59666 0.48107 0.0
O551 O 0.0081 0.5637 0.50982 0.0
O552 O 0.07407 0.55804 0.54675 0.0
O553 O 0.08059 0.54433 0.49226 0.0
C554 C 0.958 0.51027 0.49168 0.0
C555 C 0.09264 0.55694 0.52213 0.0
Dy556 Dy 0.73589 0.77528 0.26182 0.0
C557 C 0.87545 0.80342 0.25327 0.0
C558 C 0.67288 0.76523 0.27626 0.0
Dy559 Dy 0.81223 0.78278 0.26734 0.0
O560 O 0.69103 0.79395 0.26883 0.0
O561 O 0.68871 0.74117 0.2743 0.0
O562 O 0.74352 0.81745 0.22976 0.0
O563 O 0.78 0.81777 0.26594 0.0
C564 C 0.77283 0.83227 0.24196 0.0
C565 C 0.77875 0.71793 0.2761 0.0
O566 O 0.80688 0.80558 0.31804 0.0
O567 O 0.75018 0.79078 0.31521 0.0
O568 O 0.8656 0.78848 0.27858 0.0
O569 O 0.85078 0.80795 0.23647 0.0
O570 O 0.81019 0.72739 0.27791 0.0
O571 O 0.76867 0.74353 0.26952 0.0
O572 O 0.74073 0.7467 0.21367 0.0
O573 O 0.79672 0.76876 0.21407 0.0
C574 C 0.77886 0.80282 0.33171 0.0
C575 C 0.76826 0.75196 0.19892 0.0
Dy576 Dy 0.78437 0.28185 0.71546 0.0
C577 C 0.78775 0.24962 0.84798 0.0
C578 C 0.7737 0.30088 0.65684 0.0
Dy579 Dy 0.77404 0.27054 0.79064 0.0
O580 O 0.78995 0.27808 0.66211 0.0
O581 O 0.76309 0.31282 0.68332 0.0
O582 O 0.83653 0.27864 0.72189 0.0
O583 O 0.80243 0.25642 0.7525 0.0
C584 C 0.83229 0.2643 0.74864 0.0
C585 C 0.72742 0.29643 0.76437 0.0
O586 O 0.80604 0.3248 0.79572 0.0
O587 O 0.81026 0.33337 0.74098 0.0
O588 O 0.75885 0.2431 0.83349 0.0
O589 O 0.80901 0.26853 0.83169 0.0
O590 O 0.72775 0.28908 0.79421 0.0
O591 O 0.75216 0.29 0.75231 0.0
O592 O 0.75148 0.229 0.70831 0.0
O593 O 0.75261 0.21757 0.76252 0.0
C594 C 0.81656 0.34414 0.77243 0.0
C595 C 0.74423 0.20815 0.73094 0.0
Dy596 Dy 0.78137 0.81461 0.77728 0.0
C597 C 0.77737 0.67248 0.75819 0.0
C598 C 0.77288 0.87895 0.77104 0.0
Dy599 Dy 0.76496 0.73455 0.75227 0.0
O600 O 0.76435 0.86156 0.79521 0.0
O601 O 0.78907 0.86245 0.7522 0.0
O602 O 0.80466 0.80744 0.82463 0.0
O603 O 0.76803 0.76693 0.79928 0.0
C604 C 0.78869 0.77486 0.82364 0.0
C605 C 0.76276 0.77252 0.7021 0.0
O606 O 0.7157 0.73527 0.76751 0.0
O607 O 0.72708 0.79545 0.78104 0.0
O608 O 0.7551 0.67692 0.7376 0.0
O609 O 0.79121 0.70133 0.77609 0.0
O610 O 0.7552 0.7386 0.69834 0.0
O611 O 0.7699 0.78201 0.73199 0.0
O612 O 0.83176 0.81104 0.76636 0.0
O613 O 0.81822 0.75225 0.74736 0.0
C614 C 0.70695 0.7638 0.77853 0.0
C615 C 0.83983 0.7825 0.7541 0.0
Dy616 Dy 0.49254 0.51617 0.50881 0.0
C617 C 0.62482 0.53568 0.5446 0.0
C618 C 0.43016 0.52212 0.50734 0.0
Dy619 Dy 0.56345 0.5422 0.53698 0.0
O620 O 0.45005 0.52776 0.53287 0.0
O621 O 0.44381 0.51124 0.48223 0.0
O622 O 0.50749 0.48718 0.46481 0.0
O623 O 0.5393 0.53157 0.48858 0.0
C624 C 0.53729 0.50639 0.46681 0.0
C625 C 0.5196 0.55392 0.57757 0.0
O626 O 0.56106 0.58814 0.51126 0.0
O627 O 0.50497 0.57317 0.50275 0.0
O628 O 0.61561 0.56278 0.55702 0.0
O629 O 0.60099 0.51301 0.52837 0.0
O630 O 0.54936 0.57274 0.58028 0.0
O631 O 0.51716 0.52774 0.55698 0.0
O632 O 0.49548 0.46683 0.52876 0.0
O633 O 0.5506 0.48579 0.54492 0.0
C634 C 0.53348 0.59552 0.50259 0.0
C635 C 0.52293 0.46148 0.54099 0.0
Dy636 Dy 0.05652 0.52881 0.02311 0.0
C637 C 0.92842 0.55015 0.03038 0.0
C638 C 0.11378 0.50995 0.02987 0.0
Dy639 Dy 0.98335 0.52722 0.03485 0.0
O640 O 0.1005 0.51498 0.00259 0.0
O641 O 0.09646 0.51675 0.05346 0.0
O642 O 0.05523 0.56029 0.9819 0.0
O643 O 0.01269 0.52675 0.99354 0.0
C644 C 0.02366 0.55093 0.97686 0.0
C645 C 0.01674 0.50614 0.08061 0.0
O646 O 0.97608 0.4761 0.00448 0.0
O647 O 0.02978 0.47242 0.00969 0.0
O648 O 0.93056 0.52238 0.04323 0.0
O649 O 0.95593 0.56495 0.02005 0.0
O650 O 0.9852 0.49635 0.0772 0.0
O651 O 0.02689 0.52977 0.06345 0.0
O652 O 0.06418 0.58393 0.04638 0.0
O653 O 0.00961 0.58221 0.05275 0.0
C654 C 0.9986 0.45867 1.00068 0.0
C655 C 0.04067 0.59902 0.05486 0.0
C656 C 0.01716 0.18587 0.96748 0.0
C657 C 0.9991 0.17626 0.93684 0.0
C658 C 1.00086 0.11592 0.93896 0.0
C659 C 0.01509 0.12458 0.97128 0.0
N660 N 0.03283 0.16731 0.01813 0.0
N661 N 0.96739 0.13073 0.89714 0.0
C662 C 0.02219 0.15946 0.98611 0.0
C663 C 0.98909 0.14085 0.92369 0.0
N664 N 0.03089 0.22006 0.97815 0.0
N665 N 0.99994 0.08436 0.92215 0.0
H666 H 0.95717 0.14803 0.88587 0.0
H667 H 0.95689 0.10477 0.88858 0.0
H668 H 0.00996 0.06592 0.93166 0.0
H669 H 0.99271 0.07814 0.89752 0.0
H670 H 0.04708 0.22829 0.99859 0.0
H671 H 0.02854 0.24018 0.96502 0.0
H672 H 0.03489 0.19159 0.03114 0.0
H673 H 0.03716 0.1488 0.03238 0.0
C674 C 0.14312 0.78162 0.22427 0.0
C675 C 0.13951 0.81451 0.21715 0.0
C676 C 0.18903 0.84329 0.25174 0.0
C677 C 0.1919 0.81033 0.25926 0.0
N678 N 0.167 0.74978 0.26056 0.0
N679 N 0.15565 0.87685 0.22763 0.0
C680 C 0.16746 0.78002 0.24791 0.0
C681 C 0.16152 0.8455 0.23195 0.0
N682 N 0.1243 0.75172 0.20734 0.0
N683 N 0.21307 0.87221 0.26264 0.0
H684 H 0.13592 0.87914 0.21305 0.0
H685 H 0.16885 0.90039 0.24007 0.0
H686 H 0.23264 0.87159 0.27828 0.0
H687 H 0.21445 0.8965 0.25522 0.0
H688 H 0.12866 0.72739 0.20868 0.0
H689 H 0.10609 0.7513 0.18968 0.0
H690 H 0.14804 0.72754 0.25562 0.0
H691 H 0.18384 0.74813 0.27891 0.0
C692 C 0.51587 0.88888 0.41995 0.0
C693 C 0.49835 0.85724 0.42982 0.0
C694 C 0.4771 0.88959 0.47366 0.0
C695 C 0.49404 0.92103 0.46306 0.0
N696 N 0.52128 0.95059 0.42089 0.0
N697 N 0.45685 0.82709 0.4613 0.0
C698 C 0.51074 0.92059 0.43445 0.0
C699 C 0.47731 0.85743 0.45532 0.0
N700 N 0.53878 0.88886 0.39802 0.0
N701 N 0.46179 0.89042 0.50173 0.0
H702 H 0.45619 0.80316 0.44819 0.0
H703 H 0.4387 0.82593 0.47731 0.0
H704 H 0.45977 0.91349 0.51471 0.0
H705 H 0.4525 0.86847 0.51297 0.0
H706 H 0.55469 0.91142 0.39267 0.0
H707 H 0.54418 0.86628 0.38748 0.0
H708 H 0.5309 0.95136 0.39835 0.0
H709 H 0.51712 0.97416 0.43056 0.0
C710 C 0.46446 0.32132 0.72907 0.0
C711 C 0.46595 0.2926 0.70644 0.0
C712 C 0.4077 0.26752 0.70858 0.0
C713 C 0.40668 0.29495 0.73289 0.0
N714 N 0.43348 0.34644 0.76842 0.0
N715 N 0.44012 0.23727 0.67573 0.0
C716 C 0.43491 0.32152 0.74371 0.0
C717 C 0.43785 0.2654 0.6965 0.0
N718 N 0.49127 0.3484 0.73633 0.0
N719 N 0.37961 0.24386 0.69653 0.0
H720 H 0.46105 0.23583 0.66427 0.0
H721 H 0.42184 0.21446 0.67089 0.0
H722 H 0.35724 0.2432 0.70583 0.0
H723 H 0.37786 0.22597 0.67602 0.0
H724 H 0.4912 0.37171 0.75002 0.0
H725 H 0.51354 0.34843 0.72702 0.0
H726 H 0.45363 0.3647 0.77986 0.0
H727 H 0.41201 0.34768 0.77896 0.0
C728 C 0.9841 0.86198 0.54077 0.0
C729 C 0.01402 0.85701 0.55297 0.0
C730 C 0.04288 0.90678 0.52748 0.0
C731 C 0.01322 0.91524 0.52036 0.0
N732 N 0.95543 0.90345 0.52495 0.0
N733 N 0.07207 0.87921 0.56309 0.0
C734 C 0.98366 0.89339 0.52796 0.0
C735 C 0.04355 0.88045 0.54751 0.0
N736 N 0.95622 0.83645 0.5406 0.0
N737 N 0.07044 0.92398 0.51502 0.0
H738 H 0.07361 0.86181 0.57964 0.0
H739 H 0.09365 0.898 0.56236 0.0
H740 H 0.07039 0.94278 0.49949 0.0
H741 H 0.0923 0.91692 0.51717 0.0
H742 H 0.93432 0.83751 0.52914 0.0
H743 H 0.95566 0.81264 0.54887 0.0
H744 H 0.93393 0.89032 0.53364 0.0
H745 H 0.95409 0.92654 0.51637 0.0
C746 C 0.4431 0.82191 0.8568 0.0
C747 C 0.45787 0.79753 0.84023 0.0
C748 C 0.41124 0.77815 0.80044 0.0
C749 C 0.39777 0.80459 0.81531 0.0
N750 N 0.40101 0.85329 0.85578 0.0
N751 N 0.45849 0.75502 0.79482 0.0
C752 C 0.41367 0.82689 0.84309 0.0
C753 C 0.44258 0.77624 0.8117 0.0
N754 N 0.45692 0.83965 0.886 0.0
N755 N 0.39363 0.75419 0.77621 0.0
H756 H 0.4811 0.75223 0.80291 0.0
H757 H 0.45041 0.74195 0.77181 0.0
H758 H 0.3708 0.75494 0.76683 0.0
H759 H 0.40043 0.73198 0.76698 0.0
H760 H 0.44596 0.85527 0.90097 0.0
H761 H 0.47862 0.83685 0.89658 0.0
H762 H 0.41295 0.87278 0.87393 0.0
H763 H 0.37913 0.85707 0.84663 0.0
C764 C 0.5245 0.15197 0.05795 0.0
C765 C 0.49448 0.16073 0.0535 0.0
C766 C 0.47616 0.11095 0.01118 0.0
C767 C 0.50724 0.10358 0.01432 0.0
N768 N 0.56379 0.12541 0.03302 0.0
N769 N 0.44357 0.15244 0.02289 0.0
C770 C 0.53217 0.12631 0.03568 0.0
C771 C 0.47083 0.14136 0.02917 0.0
N772 N 0.54597 0.16834 0.08352 0.0
N773 N 0.45136 0.08854 0.99202 0.0
H774 H 0.43857 0.17373 0.03654 0.0
H775 H 0.42709 0.14215 0.00298 0.0
H776 H 0.45351 0.06574 0.97882 0.0
H777 H 0.42753 0.09066 0.99153 0.0
H778 H 0.56637 0.16001 0.09019 0.0
H779 H 0.542 0.18836 0.09973 0.0
H780 H 0.58314 0.14345 0.04614 0.0
H781 H 0.5712 0.10991 0.01463 0.0
C782 C 0.14119 0.2369 0.33395 0.0
C783 C 0.12152 0.25934 0.32636 0.0
C784 C 0.15595 0.27843 0.28279 0.0
C785 C 0.17707 0.25811 0.29212 0.0
N786 N 0.19344 0.22377 0.33108 0.0
N787 N 0.11181 0.3046 0.29649 0.0
C788 C 0.1706 0.23866 0.31876 0.0
C789 C 0.12946 0.28115 0.30169 0.0
N790 N 0.13184 0.21389 0.35582 0.0
N791 N 0.16061 0.29413 0.25518 0.0
H792 H 0.09151 0.30631 0.30897 0.0
H793 H 0.11847 0.32394 0.28148 0.0
H794 H 0.17933 0.29206 0.24042 0.0
H795 H 0.1445 0.30669 0.24528 0.0
H796 H 0.14292 0.19392 0.35922 0.0
H797 H 0.11164 0.21319 0.36914 0.0
H798 H 0.19182 0.21316 0.35289 0.0
H799 H 0.21558 0.22471 0.32126 0.0
C800 C 0.95795 0.07815 0.12473 0.0
C801 C 0.95038 0.04725 0.13978 0.0
C802 C 0.993 0.02715 0.11202 0.0
C803 C 0.99807 0.05588 0.09407 0.0
N804 N 0.98175 0.10621 0.0796 0.0
N805 N 0.95511 0.98842 0.14087 0.0
C806 C 0.97956 0.08079 0.09939 0.0
C807 C 0.96624 0.02057 0.13134 0.0
N808 N 0.94551 0.1054 0.13534 0.0
N809 N 0.01469 0.00706 0.11203 0.0
H810 H 0.93465 0.98195 0.15392 0.0
H811 H 0.96399 0.9672 0.13269 0.0
H812 H 0.03584 0.0124 0.0999 0.0
H813 H 0.01364 0.9877 0.1271 0.0
H814 H 0.95281 0.12981 0.12759 0.0
H815 H 0.9296 0.10433 0.1537 0.0
H816 H 0.96626 0.12272 0.07998 0.0
H817 H 0.99735 0.10893 0.06097 0.0
C818 C 0.31259 0.75185 0.44127 0.0
C819 C 0.29844 0.71565 0.43874 0.0
C820 C 0.28564 0.71405 0.38066 0.0
C821 C 0.29489 0.75087 0.38433 0.0
N822 N 0.31703 0.80549 0.41753 0.0
N823 N 0.27016 0.66192 0.4069 0.0
C824 C 0.30885 0.77002 0.41437 0.0
C825 C 0.28496 0.69651 0.40857 0.0
N826 N 0.32975 0.76862 0.46939 0.0
N827 N 0.27839 0.69591 0.35036 0.0
H828 H 0.27009 0.64793 0.42665 0.0
H829 H 0.25628 0.64753 0.38653 0.0
H830 H 0.2796 0.708 0.32932 0.0
H831 H 0.27433 0.66904 0.34579 0.0
H832 H 0.34317 0.79434 0.47204 0.0
H833 H 0.33284 0.75578 0.48939 0.0
H834 H 0.32392 0.82111 0.43961 0.0
H835 H 0.31512 0.81954 0.39814 0.0
C836 C 0.56373 0.01493 0.6425 0.0
C837 C 0.57097 0.98237 0.64443 0.0
C838 C 0.53441 0.95751 0.59616 0.0
C839 C 0.52544 0.98944 0.59642 0.0
N840 N 0.52408 0.04445 0.62536 0.0
N841 N 0.56011 0.92119 0.62607 0.0
C842 C 0.53755 0.01673 0.62155 0.0
C843 C 0.55537 0.95307 0.62212 0.0
N844 N 0.58339 0.0447 0.65873 0.0
N845 N 0.52395 0.93215 0.5706 0.0
H846 H 0.5754 0.91734 0.64485 0.0
H847 H 0.54711 0.89831 0.61233 0.0
H848 H 0.50793 0.93445 0.5518 0.0
H849 H 0.53252 0.90989 0.56713 0.0
H850 H 0.58033 0.06934 0.65617 0.0
H851 H 0.60513 0.0452 0.67141 0.0
H852 H 0.53029 0.06359 0.64526 0.0
H853 H 0.50441 0.04634 0.61044 0.0
C854 C 0.28306 0.3572 0.9067 0.0
C855 C 0.28036 0.33175 0.92862 0.0
C856 C 0.28616 0.28903 0.88347 0.0
C857 C 0.28451 0.31307 0.86121 0.0
N858 N 0.2777 0.36906 0.85098 0.0
N859 N 0.2726 0.27132 0.93598 0.0
C860 C 0.28169 0.34681 0.87265 0.0
C861 C 0.28016 0.29706 0.91648 0.0
N862 N 0.28895 0.39162 0.91826 0.0
N863 N 0.29393 0.25866 0.87325 0.0
H864 H 0.26634 0.27569 0.95971 0.0
H865 H 0.269 0.2451 0.92753 0.0
H866 H 0.2991 0.2523 0.84944 0.0
H867 H 0.29845 0.24155 0.88899 0.0
H868 H 0.29474 0.41141 0.90358 0.0
H869 H 0.29136 0.40089 0.94281 0.0
H870 H 0.27153 0.39236 0.85759 0.0
H871 H 0.27849 0.3632 0.82602 0.0
C872 C 0.93471 0.9813 0.32485 0.0
C873 C 0.93897 0.01473 0.31456 0.0
C874 C 0.95961 0.04167 0.36943 0.0
C875 C 0.96022 0.00843 0.37831 0.0
N876 N 0.94924 0.94633 0.36428 0.0
N877 N 0.95942 0.07685 0.3257 0.0
C878 C 0.94818 0.97816 0.35588 0.0
C879 C 0.95208 0.04498 0.33655 0.0
N880 N 0.91627 0.95271 0.30566 0.0
N881 N 0.96633 0.07029 0.39208 0.0
H882 H 0.95516 0.08047 0.30162 0.0
H883 H 0.9725 0.09939 0.33993 0.0
H884 H 0.97506 0.07062 0.41585 0.0
H885 H 0.96094 0.0935 0.3877 0.0
H886 H 0.90955 0.92814 0.31318 0.0
H887 H 0.90475 0.95404 0.28336 0.0
H888 H 0.94485 0.92404 0.34762 0.0
H889 H 0.95603 0.94238 0.38768 0.0
C890 C 0.33267 0.7384 0.63514 0.0
C891 C 0.30472 0.72748 0.61327 0.0
C892 C 0.27883 0.76671 0.64545 0.0
C893 C 0.30407 0.7726 0.67005 0.0
N894 N 0.35378 0.76043 0.69021 0.0
N895 N 0.24851 0.72688 0.60075 0.0
C896 C 0.33099 0.75794 0.66532 0.0
C897 C 0.27715 0.74079 0.61894 0.0
N898 N 0.36082 0.7303 0.62704 0.0
N899 N 0.25621 0.78564 0.6477 0.0
H900 H 0.2452 0.7063 0.58229 0.0
H901 H 0.22696 0.73326 0.60626 0.0
H902 H 0.2572 0.80499 0.66693 0.0
H903 H 0.23869 0.7846 0.62909 0.0
H904 H 0.38277 0.74038 0.64079 0.0
H905 H 0.3629 0.71623 0.60496 0.0
H906 H 0.37129 0.74627 0.68926 0.0
H907 H 0.35385 0.77445 0.71279 0.0
C908 C 0.60743 0.017 0.84555 0.0
C909 C 0.59205 0.99235 0.81911 0.0
C910 C 0.5464 0.97023 0.85097 0.0
C911 C 0.56159 0.99537 0.87731 0.0
N912 N 0.61025 0.03561 0.903 0.0
N913 N 0.55123 0.94089 0.79779 0.0
C914 C 0.59325 0.01666 0.87561 0.0
C915 C 0.56296 0.96726 0.8223 0.0
N916 N 0.63513 0.04144 0.84159 0.0
N917 N 0.51557 0.95068 0.8527 0.0
H918 H 0.56282 0.93853 0.77642 0.0
H919 H 0.53173 0.91991 0.79958 0.0
H920 H 0.50273 0.95224 0.87329 0.0
H921 H 0.50182 0.9345 0.83317 0.0
H922 H 0.64505 0.06305 0.85848 0.0
H923 H 0.64743 0.04117 0.82049 0.0
H924 H 0.63459 0.04872 0.90394 0.0
H925 H 0.60109 0.03558 0.92575 0.0
C926 C 0.28272 0.34212 0.13874 0.0
C927 C 0.25759 0.33234 0.11364 0.0
C928 C 0.22533 0.29151 0.14735 0.0
C929 C 0.25128 0.3007 0.17223 0.0
N930 N 0.29678 0.34724 0.1959 0.0
N931 N 0.20319 0.30141 0.09494 0.0
C932 C 0.27763 0.3297 0.16926 0.0
C933 C 0.22836 0.30791 0.11815 0.0
N934 N 0.31208 0.36284 0.1333 0.0
N935 N 0.19724 0.26828 0.15222 0.0
H936 H 0.20503 0.31263 0.07338 0.0
H937 H 0.18012 0.28612 0.09714 0.0
H938 H 0.19111 0.26214 0.17519 0.0
H939 H 0.17931 0.2562 0.13403 0.0
H940 H 0.33249 0.36731 0.14943 0.0
H941 H 0.31693 0.37281 0.1114 0.0
H942 H 0.3142 0.37046 0.19541 0.0
H943 H 0.29239 0.34162 0.2192 0.0
C944 C 0.19951 0.02555 0.99378 0.0
C945 C 0.2047 0.00691 0.01978 0.0
C946 C 0.17048 0.03572 0.05276 0.0
C947 C 0.16039 0.04879 0.02487 0.0
N948 N 0.16602 0.05845 0.96919 0.0
N949 N 0.19288 0.99151 0.0733 0.0
C950 C 0.17553 0.04476 0.99557 0.0
C951 C 0.19006 0.01169 0.04934 0.0
N952 N 0.21786 0.02532 0.96773 0.0
N953 N 0.16086 0.0457 0.08235 0.0
H954 H 0.20631 0.97292 0.07161 0.0
H955 H 0.17953 0.99088 0.09365 0.0
H956 H 0.14703 0.06375 0.08571 0.0
H957 H 0.16964 0.03923 0.10398 0.0
H958 H 0.2173 0.04083 0.94928 0.0
H959 H 0.23575 0.01164 0.96586 0.0
H960 H 0.17266 0.05274 0.94586 0.0
H961 H 0.15044 0.07492 0.97075 0.0
C962 C 0.64943 0.58918 0.96671 0.0
C963 C 0.67258 0.59185 0.99298 0.0
C964 C 0.634 0.54741 0.0175 0.0
C965 C 0.60989 0.54767 0.9932 0.0
N966 N 0.59267 0.57421 0.94825 0.0
N967 N 0.68383 0.57973 0.04754 0.0
C968 C 0.617 0.57008 0.96876 0.0
C969 C 0.66413 0.57255 0.01952 0.0
N970 N 0.65856 0.60384 0.93934 0.0
N971 N 0.62821 0.52304 0.03855 0.0
H972 H 0.70514 0.59946 0.05112 0.0
H973 H 0.67722 0.56878 0.0686 0.0
H974 H 0.60631 0.50427 0.03768 0.0
H975 H 0.64608 0.51947 0.05479 0.0
H976 H 0.64338 0.59969 0.9182 0.0
H977 H 0.68227 0.61736 0.9366 0.0
H978 H 0.596 0.59312 0.93251 0.0
H979 H 0.56853 0.56097 0.94898 0.0
C980 C 0.72436 0.40944 0.23082 0.0
C981 C 0.72762 0.43204 0.26015 0.0
C982 C 0.76113 0.39818 0.28536 0.0
C983 C 0.75896 0.37653 0.25533 0.0
N984 N 0.74791 0.37016 0.19736 0.0
N985 N 0.75587 0.45325 0.31265 0.0
C986 C 0.74348 0.38491 0.22742 0.0
C987 C 0.74814 0.42806 0.28662 0.0
N988 N 0.70191 0.41011 0.20657 0.0
N989 N 0.77407 0.38964 0.31302 0.0
H990 H 0.74701 0.47542 0.31432 0.0
H991 H 0.77345 0.45395 0.33107 0.0
H992 H 0.7824 0.36743 0.31404 0.0
H993 H 0.77425 0.40318 0.33586 0.0
H994 H 0.69618 0.3916 0.18618 0.0
H995 H 0.68661 0.42686 0.2083 0.0
H996 H 0.73942 0.37742 0.17597 0.0
H997 H 0.76348 0.35387 0.19385 0.0
C998 C 0.87316 0.46037 0.45577 0.0
C999 C 0.85537 0.46742 0.48251 0.0
C1000 C 0.90254 0.51236 0.50606 0.0
C1001 C 0.92234 0.49862 0.48451 0.0
N1002 N 0.9253 0.45597 0.43892 0.0
N1003 N 0.85651 0.49667 0.53718 0.0
C1004 C 0.90744 0.47195 0.45897 0.0
C1005 C 0.87071 0.49279 0.50869 0.0
N1006 N 0.85738 0.44298 0.42726 0.0
N1007 N 0.91393 0.54411 0.52391 0.0
H1008 H 0.8346 0.48077 0.54226 0.0
H1009 H 0.86866 0.51311 0.55746 0.0
H1010 H 0.93658 0.56024 0.52116 0.0
H1011 H 0.89927 0.55597 0.5382 0.0
H1012 H 0.86919 0.43981 0.40618 0.0
H1013 H 0.83217 0.43546 0.42371 0.0
H1014 H 0.91491 0.43387 0.42272 0.0
H1015 H 0.95041 0.46218 0.44009 0.0
C1016 C 0.30527 0.09547 0.24481 0.0
C1017 C 0.33486 0.10612 0.23016 0.0
C1018 C 0.31513 0.15029 0.20524 0.0
C1019 C 0.28631 0.14119 0.22165 0.0
N1020 N 0.24994 0.10051 0.24937 0.0
N1021 N 0.36503 0.1362 0.18992 0.0
C1022 C 0.28004 0.11195 0.23874 0.0
C1023 C 0.33875 0.13103 0.20808 0.0
N1024 N 0.30195 0.07074 0.26553 0.0
N1025 N 0.32102 0.17883 0.18896 0.0
H1026 H 0.38307 0.12287 0.19199 0.0
H1027 H 0.36772 0.15149 0.17103 0.0
H1028 H 0.30372 0.1924 0.18433 0.0
H1029 H 0.3435 0.18997 0.18097 0.0
H1030 H 0.28239 0.06433 0.27966 0.0
H1031 H 0.31967 0.0575 0.26982 0.0
H1032 H 0.24259 0.07787 0.26013 0.0
H1033 H 0.23129 0.11245 0.24471 0.0
C1034 C 0.34494 0.06328 0.48727 0.0
C1035 C 0.34372 0.0903 0.51194 0.0
C1036 C 0.39525 0.08615 0.53793 0.0
C1037 C 0.39549 0.05776 0.51438 0.0
N1038 N 0.36992 0.01687 0.4684 0.0
N1039 N 0.36554 0.12571 0.56235 0.0
C1040 C 0.37008 0.04558 0.48956 0.0
C1041 C 0.36829 0.10123 0.53773 0.0
N1042 N 0.32222 0.05488 0.46152 0.0
N1043 N 0.42113 0.09908 0.56023 0.0
H1044 H 0.3473 0.13894 0.56212 0.0
H1045 H 0.38023 0.13177 0.58389 0.0
H1046 H 0.4403 0.08741 0.56269 0.0
H1047 H 0.42461 0.12238 0.57531 0.0
H1048 H 0.32335 0.03804 0.44099 0.0
H1049 H 0.30293 0.06648 0.45967 0.0
H1050 H 0.35074 0.00441 0.4516 0.0
H1051 H 0.38838 0.00396 0.46893 0.0
C1052 C 0.71772 0.62978 0.26227 0.0
C1053 C 0.72152 0.61696 0.29231 0.0
C1054 C 0.76125 0.67153 0.31293 0.0
C1055 C 0.7589 0.68329 0.28201 0.0
N1056 N 0.74156 0.66933 0.22522 0.0
N1057 N 0.74853 0.6234 0.34537 0.0
C1058 C 0.73873 0.66139 0.25619 0.0
C1059 C 0.7437 0.63728 0.31752 0.0
N1060 N 0.69385 0.61174 0.23938 0.0
N1061 N 0.77986 0.69331 0.33798 0.0
H1062 H 0.73539 0.59882 0.34952 0.0
H1063 H 0.76664 0.63512 0.36353 0.0
H1064 H 0.7936 0.7181 0.33533 0.0
H1065 H 0.78014 0.68795 0.36189 0.0
H1066 H 0.68724 0.62198 0.21887 0.0
H1067 H 0.67885 0.58756 0.242 0.0
H1068 H 0.72997 0.65272 0.20485 0.0
H1069 H 0.75874 0.69063 0.21957 0.0
C1070 C 0.88152 0.42474 0.81034 0.0
C1071 C 0.87786 0.44789 0.78779 0.0
C1072 C 0.82987 0.40591 0.76177 0.0
C1073 C 0.83603 0.38054 0.78092 0.0
N1074 N 0.8719 0.36482 0.82037 0.0
N1075 N 0.8538 0.45639 0.73651 0.0
C1076 C 0.86288 0.38962 0.80462 0.0
C1077 C 0.85353 0.43733 0.76194 0.0
N1078 N 0.90219 0.43637 0.83748 0.0
N1079 N 0.8011 0.40049 0.7438 0.0
H1080 H 0.8719 0.47868 0.73443 0.0
H1081 H 0.83823 0.44774 0.71563 0.0
H1082 H 0.78247 0.37817 0.74337 0.0
H1083 H 0.79446 0.41979 0.73215 0.0
H1084 H 0.90326 0.42157 0.85643 0.0
H1085 H 0.91621 0.46187 0.84234 0.0
H1086 H 0.89332 0.36974 0.83509 0.0
H1087 H 0.85994 0.33862 0.81649 0.0
C1088 C 0.0829 0.91339 0.07152 0.0
C1089 C 0.05886 0.88861 0.08505 0.0
C1090 C 0.0183 0.91868 0.06744 0.0
C1091 C 0.0417 0.94043 0.05042 0.0
N1092 N 0.09519 0.95087 0.03015 0.0
N1093 N 1.00136 0.86189 0.08487 0.0
C1094 C 0.07345 0.93506 0.0503 0.0
C1095 C 0.02584 0.88949 0.0798 0.0
N1096 N 0.1152 0.91811 0.0789 0.0
N1097 N 0.98959 0.92647 0.07369 0.0
H1098 H 0.00524 0.83854 0.09085 0.0
H1099 H 0.97709 0.86058 0.07878 0.0
H1100 H 0.98344 0.94868 0.06754 0.0
H1101 H 0.97349 0.91287 0.08866 0.0
H1102 H 0.12508 0.90616 0.09647 0.0
H1103 H 0.12508 0.90616 0.09647 0.0
H1104 H 0.11885 0.94796 0.03018 0.0
H1105 H 0.08863 0.96375 0.01143 0.0
C1106 C 0.91567 0.27791 0.79368 0.0
C1107 C 0.9098 0.25061 0.81346 0.0
C1108 C 0.85398 0.23057 0.78947 0.0
C1109 C 0.85871 0.25981 0.77168 0.0
N1110 N 0.89273 0.31608 0.76419 0.0
N1111 N 0.87201 0.20447 0.83443 0.0
C1112 C 0.88928 0.28468 0.77558 0.0
C1113 C 0.87851 0.22818 0.81276 0.0
N1114 N 0.94642 0.29797 0.7926 0.0
N1115 N 0.82691 0.20386 0.78313 0.0
H1116 H 0.88973 0.20006 0.85036 0.0
H1117 H 0.84862 0.19084 0.83812 0.0
H1118 H 0.80795 0.20398 0.76688 0.0
H1119 H 0.82449 0.18003 0.79193 0.0
H1120 H 0.9528 0.31511 0.77547 0.0
H1121 H 0.96616 0.29584 0.80719 0.0
H1122 H 0.9134 0.33645 0.76934 0.0
H1123 H 0.87375 0.32389 0.7533 0.0
C1124 C 0.5587 0.17178 0.61139 0.0
C1125 C 0.54831 0.19673 0.59444 0.0
C1126 C 0.53119 0.15312 0.54651 0.0
C1127 C 0.54266 0.12863 0.56318 0.0
N1128 N 0.57299 0.1167 0.60914 0.0
N1129 N 0.52775 0.21268 0.54495 0.0
C1130 C 0.55827 0.13865 0.59481 0.0
C1131 C 0.53563 0.18786 0.56164 0.0
N1132 N 0.56818 0.17925 0.64376 0.0
N1133 N 0.51567 0.14298 0.51624 0.0
H1134 H 0.52812 0.23752 0.55578 0.0
H1135 H 0.52231 0.20943 0.52001 0.0
H1136 H 0.51444 0.11897 0.50307 0.0
H1137 H 0.50282 0.15768 0.50445 0.0
H1138 H 0.57175 0.16077 0.65838 0.0
H1139 H 0.57016 0.20334 0.65693 0.0
H1140 H 0.58879 0.12446 0.62989 0.0
H1141 H 0.57165 0.09136 0.5992 0.0
C1142 C 0.58584 0.73599 0.29993 0.0
C1143 C 0.58547 0.76337 0.32458 0.0
C1144 C 0.64308 0.7884 0.32023 0.0
C1145 C 0.64275 0.76348 0.29309 0.0
N1146 N 0.61301 0.71582 0.25446 0.0
N1147 N 0.61181 0.81982 0.35295 0.0
C1148 C 0.6139 0.73778 0.2822 0.0
C1149 C 0.61353 0.79081 0.33317 0.0
N1150 N 0.55994 0.70773 0.29432 0.0
N1151 N 0.67178 0.80857 0.33495 0.0
H1152 H 0.59039 0.8231 0.36241 0.0
H1153 H 0.63083 0.8421 0.35718 0.0
H1154 H 0.69428 0.80643 0.32764 0.0
H1155 H 0.67337 0.82453 0.35678 0.0
H1156 H 0.56012 0.68532 0.27914 0.0
H1157 H 0.53909 0.7055 0.30687 0.0
H1158 H 0.59181 0.69896 0.24339 0.0
H1159 H 0.63314 0.71633 0.24106 0.0
C1160 C 0.03025 0.15307 0.43334 0.0
C1161 C 0.0333 0.18559 0.45231 0.0
C1162 C 0.03036 0.15606 0.50156 0.0
C1163 C 0.03016 0.1245 0.48241 0.0
N1164 N 0.04309 0.09762 0.43158 0.0
N1165 N 0.04663 0.21877 0.50558 0.0
C1166 C 0.03453 0.1246 0.4488 0.0
C1167 C 0.03641 0.18741 0.48683 0.0
N1168 N 0.02115 0.14828 0.4009 0.0
N1169 N 0.0238 0.15618 0.53335 0.0
H1170 H 0.05397 0.24212 0.49587 0.0
H1171 H 0.05169 0.22113 0.53057 0.0
H1172 H 0.01912 0.13378 0.54485 0.0
H1173 H 0.0204 0.17802 0.54741 0.0
H1174 H 0.01806 0.12458 0.38653 0.0
H1175 H 0.01235 0.16615 0.38909 0.0
H1176 H 0.04929 0.09798 0.40765 0.0
H1177 H 0.04772 0.0769 0.4424 0.0
C1178 C 0.59355 0.22179 0.17168 0.0
C1179 C 0.5871 0.25484 0.16951 0.0
C1180 C 0.6414 0.28348 0.19478 0.0
C1181 C 0.64915 0.25077 0.19286 0.0
N1182 N 0.63425 0.18916 0.17616 0.0
N1183 N 0.60525 0.31733 0.17729 0.0
C1184 C 0.62558 0.21997 0.1807 0.0
C1185 C 0.61121 0.28574 0.18047 0.0
N1186 N 0.56927 0.19202 0.1651 0.0
N1187 N 0.66209 0.31211 0.21186 0.0
H1188 H 0.58255 0.32024 0.16966 0.0
H1189 H 0.62318 0.34054 0.18068 0.0
H1190 H 0.68377 0.31137 0.22392 0.0
H1191 H 0.65639 0.3359 0.21693 0.0
H1192 H 0.57179 0.16782 0.17005 0.0
H1193 H 0.5457 0.19141 0.15709 0.0
H1194 H 0.61935 0.1665 0.16366 0.0
H1195 H 0.65749 0.18681 0.18237 0.0
C1196 C 0.52806 0.8704 0.97288 0.0
C1197 C 0.56017 0.87055 0.96524 0.0
C1198 C 0.58037 0.92695 0.99818 0.0
C1199 C 0.5479 0.92952 1.00107 0.0
N1200 N 0.49056 0.90245 0.99415 0.0
N1201 N 0.6169 0.89918 0.96872 0.0
C1202 C 0.52164 0.90084 0.98923 0.0
C1203 C 0.58641 0.89869 0.97769 0.0
N1204 N 0.50394 0.84055 0.96545 0.0
N1205 N 0.60546 0.95109 0.01531 0.0
H1206 H 0.62223 0.87851 0.95439 0.0
H1207 H 0.63641 0.92091 0.97355 0.0
H1208 H 0.6024 0.9723 0.03043 0.0
H1209 H 0.62917 0.94856 0.0167 0.0
H1210 H 0.48056 0.83737 0.97281 0.0
H1211 H 0.50793 0.81757 0.95408 0.0
H1212 H 0.47019 0.88479 0.98239 0.0
H1213 H 0.48491 0.92202 0.00968 0.0
C1214 C 0.90295 0.74221 0.71949 0.0
C1215 C 0.92382 0.76944 0.70575 0.0
C1216 C 0.8939 0.81019 0.73022 0.0
C1217 C 0.87356 0.78262 0.74443 0.0
N1218 N 0.87096 0.72777 0.76464 0.0
N1219 N 0.94599 0.83142 0.70883 0.0
C1220 C 0.88238 0.75051 0.74318 0.0
C1221 C 0.92137 0.80411 0.71428 0.0
N1222 N 0.90086 0.70821 0.70868 0.0
N1223 N 0.88729 0.84194 0.73105 0.0
H1224 H 0.96745 0.82828 0.69945 0.0
H1225 H 0.94686 0.85712 0.71735 0.0
H1226 H 0.87023 0.84976 0.74498 0.0
H1227 H 0.89845 0.86054 0.7167 0.0
H1228 H 0.88435 0.6878 0.71697 0.0
H1229 H 0.91229 0.70032 0.68871 0.0
H1230 H 0.8784 0.70497 0.76604 0.0
H1231 H 0.85729 0.73401 0.78347 0.0
C1232 C 0.09811 0.04409 0.89545 0.0
C1233 C 0.09006 0.01526 0.87108 0.0
C1234 C 0.05703 0.98111 0.90873 0.0
C1235 C 0.05927 0.01181 0.93039 0.0
N1236 N 0.08655 0.07258 0.9455 0.0
N1237 N 0.06043 0.95623 0.85357 0.0
C1238 C 0.08123 0.04324 0.92413 0.0
C1239 C 0.06935 0.9836 0.87753 0.0
N1240 N 0.12345 0.07169 0.89208 0.0
N1241 N 0.04483 0.94938 0.91862 0.0
H1242 H 0.06905 0.95702 0.83055 0.0
H1243 H 0.04254 0.93384 0.85578 0.0
H1244 H 0.03882 0.94649 0.94235 0.0
H1245 H 0.04493 0.92607 0.90485 0.0
H1246 H 0.13299 0.09191 0.91049 0.0
H1247 H 0.13724 0.07285 0.87198 0.0
H1248 H 0.0952 0.09743 0.93901 0.0
H1249 H 0.08512 0.07169 0.9701 0.0
C1250 C 0.79672 0.34617 0.58307 0.0
C1251 C 0.76583 0.34854 0.57109 0.0
C1252 C 0.73988 0.31447 0.61224 0.0
C1253 C 0.771 0.31502 0.62608 0.0
N1254 N 0.82922 0.3367 0.62864 0.0
N1255 N 0.70823 0.33846 0.57518 0.0
C1256 C 0.79954 0.33196 0.61244 0.0
C1257 C 0.7374 0.33371 0.58595 0.0
N1258 N 0.82341 0.35765 0.56648 0.0
N1259 N 0.71283 0.29469 0.62365 0.0
H1260 H 0.70544 0.35136 0.55516 0.0
H1261 H 0.6872 0.33165 0.58722 0.0
H1262 H 0.71386 0.27986 0.64263 0.0
H1263 H 0.68958 0.29055 0.61269 0.0
H1264 H 0.84577 0.35265 0.57187 0.0
H1265 H 0.82283 0.37012 0.54579 0.0
H1266 H 0.85041 0.35248 0.62177 0.0
H1267 H 0.83255 0.32756 0.65073 0.0
C1268 C 0.46273 0.05062 0.3979 0.0
C1269 C 0.48387 0.07139 0.37878 0.0
C1270 C 0.52485 0.08792 0.42435 0.0
C1271 C 0.5074 0.06004 0.4401 0.0
N1272 N 0.45657 0.01668 0.442 0.0
N1273 N 0.5351 0.1108 0.37315 0.0
C1274 C 0.47524 0.04231 0.42725 0.0
C1275 C 0.51492 0.09058 0.39187 0.0
N1276 N 0.43051 0.03878 0.3881 0.0
N1277 N 0.54996 0.11266 0.44073 0.0
H1278 H 0.52775 0.11452 0.34981 0.0
H1279 H 0.55942 0.12224 0.3802 0.0
H1280 H 0.55575 0.11365 0.46547 0.0
H1281 H 0.56197 0.13474 0.43095 0.0
H1282 H 0.41321 0.02668 0.4028 0.0
H1283 H 0.42042 0.04403 0.36652 0.0
H1284 H 0.43689 0.99799 0.43009 0.0
H1285 H 0.45968 0.01497 0.46635 0.0
C1286 C 0.79649 0.71497 0.1201 0.0
C1287 C 0.77107 0.71545 0.09719 0.0
C1288 C 0.74528 0.74369 0.14026 0.0
C1289 C 0.7682 0.73844 0.16391 0.0
N1290 N 0.81165 0.71133 0.17591 0.0
N1291 N 0.71759 0.72423 0.08701 0.0
C1292 C 0.79279 0.72202 0.15371 0.0
C1293 C 0.74446 0.72826 0.10761 0.0
N1294 N 0.82455 0.70837 0.10973 0.0
N1295 N 0.72512 0.76454 0.14838 0.0
H1296 H 0.71543 0.71251 0.06313 0.0
H1297 H 0.6962 0.72957 0.09459 0.0
H1298 H 0.7254 0.77736 0.17156 0.0
H1299 H 0.71048 0.77203 0.13125 0.0
H1300 H 0.8451 0.71101 0.12525 0.0
H1301 H 0.82845 0.70404 0.08523 0.0
H1302 H 0.82763 0.69625 0.16939 0.0
H1303 H 0.80885 0.71395 0.2007 0.0
C1304 C 0.0795 0.98839 0.66848 0.0
C1305 C 0.09828 0.01672 0.68996 0.0
C1306 C 0.08662 0.05782 0.65401 0.0
C1307 C 0.07016 0.02943 0.63119 0.0
N1308 N 0.05022 0.96756 0.61593 0.0
N1309 N 0.12317 0.07811 0.70231 0.0
C1310 C 0.06643 0.99463 0.63821 0.0
C1311 C 0.10257 0.05141 0.68262 0.0
N1312 N 0.07338 0.95572 0.67759 0.0
N1313 N 0.08696 0.09094 0.64833 0.0
H1314 H 0.13497 0.07477 0.72378 0.0
H1315 H 0.13057 0.10331 0.69639 0.0
H1316 H 0.07675 0.0967 0.62702 0.0
H1317 H 0.09528 0.11259 0.66554 0.0
H1318 H 0.05732 0.93412 0.66475 0.0
H1319 H 0.08301 0.95046 0.69943 0.0
H1320 H 0.05033 0.94178 0.61722 0.0
H1321 H 0.037 0.97087 0.59536 0.0
C1322 C 0.75406 0.2843 0.3924 0.0
C1323 C 0.74684 0.31735 0.39496 0.0
C1324 C 0.73 0.30712 0.33697 0.0
C1325 C 0.74538 0.2794 0.3337 0.0
N1326 N 0.77158 0.24051 0.35804 0.0
N1327 N 0.72778 0.36073 0.36835 0.0
C1328 C 0.75696 0.26735 0.36137 0.0
C1329 C 0.73407 0.32871 0.36704 0.0
N1330 N 0.75705 0.26866 0.41959 0.0
N1331 N 0.71168 0.31279 0.31126 0.0
H1332 H 0.73239 0.37896 0.38881 0.0
H1333 H 0.72037 0.37079 0.34811 0.0
H1334 H 0.70786 0.29698 0.28908 0.0
H1335 H 0.69743 0.33055 0.31289 0.0
H1336 H 0.75985 0.24345 0.41889 0.0
H1337 H 0.75277 0.2793 0.44249 0.0
H1338 H 0.78386 0.23329 0.37729 0.0
H1339 H 0.77303 0.22682 0.33558 0.0
C1340 C 0.48339 0.08815 0.17461 0.0
C1341 C 0.48541 0.06492 0.19756 0.0
C1342 C 0.51802 0.03707 0.16216 0.0
C1343 C 0.50956 0.05468 0.13671 0.0
N1344 N 0.48183 0.09595 0.1179 0.0
N1345 N 0.50133 0.01365 0.21127 0.0
C1346 C 0.49213 0.0805 0.1427 0.0
C1347 C 0.50228 0.03869 0.19117 0.0
N1348 N 0.47313 0.1174 0.18338 0.0
N1349 N 0.54123 0.01899 0.15866 0.0
H1350 H 0.48884 0.01234 0.23219 0.0
H1351 H 0.51039 0.99199 0.20541 0.0
H1352 H 0.55411 0.01836 0.13797 0.0
H1353 H 0.55023 0.00816 0.17764 0.0
H1354 H 0.47407 0.13692 0.16852 0.0
H1355 H 0.46693 0.12379 0.20682 0.0
H1356 H 0.46611 0.11212 0.12075 0.0
H1357 H 0.48652 0.09054 0.09384 0.0
C1358 C 0.74639 0.73504 0.8947 0.0
C1359 C 0.772 0.72645 0.91252 0.0
C1360 C 0.80805 0.74634 0.86979 0.0
C1361 C 0.78327 0.75832 0.85433 0.0
N1362 N 0.73267 0.77447 0.85965 0.0
N1363 N 0.82971 0.732 0.91992 0.0
C1364 C 0.75351 0.7557 0.86896 0.0
C1365 C 0.80356 0.73408 0.90078 0.0
N1366 N 0.71494 0.72245 0.90133 0.0
N1367 N 0.83596 0.74669 0.85495 0.0
H1368 H 0.82815 0.72566 0.94351 0.0
H1369 H 0.85349 0.74039 0.91381 0.0
H1370 H 0.84052 0.75683 0.8331 0.0
H1371 H 0.85337 0.73466 0.8631 0.0
H1372 H 0.6954 0.72695 0.88811 0.0
H1373 H 0.70804 0.7041 0.91731 0.0
H1374 H 0.71205 0.77589 0.87164 0.0
H1375 H 0.7381 0.79203 0.84275 0.0
C1376 C 0.87192 0.05128 0.05421 0.0
C1377 C 0.85381 0.06141 0.02918 0.0
C1378 C 0.8792 0.02952 0.98845 0.0
C1379 C 0.89711 0.01961 0.01377 0.0
N1380 N 0.89991 0.00886 0.06941 0.0
N1381 N 0.83164 0.04882 0.97338 0.0
C1382 C 0.88945 0.0261 0.04618 0.0
C1383 C 0.85477 0.04707 0.9965 0.0
N1384 N 0.87472 0.06745 0.08523 0.0
N1385 N 0.88609 0.02369 0.95695 0.0
H1386 H 0.81211 0.05933 0.97863 0.0
H1387 H 0.82966 0.03615 0.94987 0.0
H1388 H 0.90168 0.00859 0.94942 0.0
H1389 H 0.87695 0.03494 0.93837 0.0
H1390 H 0.88944 0.06217 0.10361 0.0
H1391 H 0.86569 0.08892 0.09194 0.0
H1392 H 0.89272 0.0104 0.09302 0.0
H1393 H 0.91267 0.99005 0.06385 0.0
C1394 C 0.38187 0.4531 0.00577 0.0
C1395 C 0.36512 0.45903 0.03365 0.0
C1396 C 0.40888 0.51079 0.05168 0.0
C1397 C 0.42925 0.49935 0.02909 0.0
N1398 N 0.43271 0.45952 0.98175 0.0
N1399 N 0.36502 0.49252 0.08561 0.0
C1400 C 0.41506 0.4705 0.00527 0.0
C1401 C 0.37912 0.48775 0.05725 0.0
N1402 N 0.36561 0.4324 0.97885 0.0
N1403 N 0.4169 0.54412 0.06664 0.0
H1404 H 0.34397 0.47557 0.09144 0.0
H1405 H 0.37619 0.5114 0.10466 0.0
H1406 H 0.43597 0.56311 0.05987 0.0
H1407 H 0.40167 0.55403 0.0818 0.0
H1408 H 0.37574 0.43 0.95667 0.0
H1409 H 0.34083 0.42092 0.9774 0.0
H1410 H 0.4253 0.4353 0.96786 0.0
H1411 H 0.45456 0.4745 0.97593 0.0
C1412 C 0.32196 0.64342 0.70216 0.0
C1413 C 0.32597 0.62202 0.7263 0.0
C1414 C 0.30242 0.65822 0.76513 0.0
C1415 C 0.29562 0.67735 0.74 0.0
N1416 N 0.29236 0.68219 0.6825 0.0
N1417 N 0.31349 0.60472 0.77906 0.0
C1418 C 0.30312 0.66794 0.70786 0.0
C1419 C 0.31454 0.62828 0.75743 0.0
N1420 N 0.33787 0.64206 0.67444 0.0
N1421 N 0.29708 0.66847 0.79636 0.0
H1422 H 0.32073 0.58177 0.77398 0.0
H1423 H 0.30242 0.60614 0.80077 0.0
H1424 H 0.28597 0.68853 0.80257 0.0
H1425 H 0.30528 0.65833 0.81621 0.0
H1426 H 0.33851 0.65969 0.65764 0.0
H1427 H 0.35356 0.62607 0.66999 0.0
H1428 H 0.29365 0.67266 0.65841 0.0
H1429 H 0.2795 0.70115 0.68506 0.0
C1430 C 0.17545 0.59831 0.49948 0.0
C1431 C 0.19597 0.58838 0.5223 0.0
C1432 C 0.14777 0.55522 0.54576 0.0
C1433 C 0.1282 0.57049 0.5263 0.0
N1434 N 0.12456 0.61238 0.48956 0.0
N1435 N 0.20075 0.54461 0.55653 0.0
C1436 C 0.14245 0.59377 0.50468 0.0
C1437 C 0.182 0.56333 0.54287 0.0
N1438 N 0.18689 0.60929 0.4713 0.0
N1439 N 0.13364 0.53286 0.56659 0.0
H1440 H 0.22392 0.54482 0.54963 0.0
H1441 H 0.19234 0.52525 0.57104 0.0
H1442 H 0.10868 0.52491 0.56794 0.0
H1443 H 0.14643 0.52349 0.5839 0.0
H1444 H 0.17209 0.61429 0.45273 0.0
H1445 H 0.20985 0.60811 0.46447 0.0
H1446 H 0.13477 0.632 0.47582 0.0
H1447 H 0.10041 0.61093 0.49374 0.0
C1448 C 0.70596 0.90236 0.72176 0.0
C1449 C 0.71224 0.93833 0.73198 0.0
C1450 C 0.75645 0.93505 0.77046 0.0
C1451 C 0.75225 0.89981 0.75789 0.0
N1452 N 0.7239 0.84964 0.72057 0.0
N1453 N 0.74423 0.99025 0.76397 0.0
C1454 C 0.72731 0.88342 0.73321 0.0
C1455 C 0.73758 0.95507 0.75595 0.0
N1456 N 0.6786 0.88599 0.70231 0.0
N1457 N 0.77814 0.94914 0.79646 0.0
H1458 H 0.73046 0.00552 0.75432 0.0
H1459 H 0.76445 0.0047 0.77859 0.0
H1460 H 0.79292 0.93533 0.80691 0.0
H1461 H 0.7801 0.97357 0.80904 0.0
H1462 H 0.6703 0.85914 0.69722 0.0
H1463 H 0.66235 0.89906 0.69336 0.0
H1464 H 0.70971 0.83813 0.69941 0.0
H1465 H 0.73596 0.83305 0.73042 0.0
C1466 C 0.68442 0.96786 0.51323 0.0
C1467 C 0.69147 0.9594 0.54465 0.0
C1468 C 0.64982 0.98732 0.56528 0.0
C1469 C 0.63953 0.99092 0.53318 0.0
N1470 N 0.64348 0.97737 0.47564 0.0
N1471 N 0.67527 0.95465 0.59924 0.0
C1472 C 0.65588 0.9793 0.50683 0.0
C1473 C 0.67267 0.96743 0.57036 0.0
N1474 N 0.70555 0.96649 0.48973 0.0
N1475 N 0.63876 0.00394 0.59112 0.0
H1476 H 0.69014 0.93822 0.60355 0.0
H1477 H 0.65987 0.95711 0.61757 0.0
H1478 H 0.6229 0.01977 0.58862 0.0
H1479 H 0.64844 0.00537 0.61482 0.0
H1480 H 0.70302 0.97565 0.46749 0.0
H1481 H 0.72748 0.95995 0.49367 0.0
H1482 H 0.65273 0.96567 0.45591 0.0
H1483 H 0.622 0.98396 0.46962 0.0
C1484 C 0.31132 0.41605 0.69752 0.0
C1485 C 0.32961 0.4377 0.72461 0.0
C1486 C 0.32306 0.38776 0.75474 0.0
C1487 C 0.29952 0.36744 0.73056 0.0
N1488 N 0.27199 0.36247 0.6773 0.0
N1489 N 0.34553 0.44547 0.7819 0.0
C1490 C 0.29373 0.38171 0.70147 0.0
C1491 C 0.33313 0.42394 0.75411 0.0
N1492 N 0.31209 0.42746 0.6677 0.0
N1493 N 0.33741 0.37284 0.77731 0.0
H1494 H 0.3516 0.47243 0.78281 0.0
H1495 H 0.34602 0.43663 0.80455 0.0
H1496 H 0.33534 0.34633 0.77547 0.0
H1497 H 0.3559 0.38706 0.79423 0.0
H1498 H 0.30228 0.4115 0.64637 0.0
H1499 H 0.32499 0.45217 0.66376 0.0
H1500 H 0.26334 0.37312 0.65802 0.0
H1501 H 0.26203 0.33592 0.67667 0.0
C1502 C 0.21933 0.63015 0.20554 0.0
C1503 C 0.20863 0.61261 0.23244 0.0
C1504 C 0.22207 0.66765 0.26754 0.0
C1505 C 0.23651 0.68465 0.24169 0.0
N1506 N 0.25604 0.67986 0.18814 0.0
N1507 N 0.20914 0.61378 0.29071 0.0
C1508 C 0.23734 0.66528 0.21124 0.0
C1509 C 0.21294 0.63106 0.264 0.0
N1510 N 0.21101 0.61414 0.17456 0.0
N1511 N 0.2152 0.68614 0.29473 0.0
H1512 H 0.20407 0.58679 0.28929 0.0
H1513 H 0.21483 0.62642 0.31428 0.0
H1514 H 0.21905 0.71303 0.29756 0.0
H1515 H 0.2021 0.67437 0.3128 0.0
H1516 H 0.2157 0.62723 0.15429 0.0
H1517 H 0.19651 0.58894 0.16907 0.0
H1518 H 0.25959 0.66561 0.16673 0.0
H1519 H 0.27079 0.70506 0.19184 0.0
C1520 C 0.52492 0.68531 0.48911 0.0
C1521 C 0.52708 0.68394 0.45507 0.0
C1522 C 0.53423 0.62487 0.45246 0.0
C1523 C 0.53407 0.62697 0.48673 0.0
N1524 N 0.53465 0.66062 0.53837 0.0
N1525 N 0.54099 0.6558 0.40538 0.0
C1526 C 0.53109 0.65771 0.5053 0.0
C1527 C 0.53373 0.65464 0.437 0.0
N1528 N 0.5158 0.71236 0.5057 0.0
N1529 N 0.534 0.59411 0.4345 0.0
H1530 H 0.54119 0.67721 0.3931 0.0
H1531 H 0.54974 0.63684 0.39216 0.0
H1532 H 0.53533 0.57193 0.44483 0.0
H1533 H 0.5301 0.58984 0.40934 0.0
H1534 H 0.51049 0.71318 0.5299 0.0
H1535 H 0.51095 0.73286 0.49454 0.0
H1536 H 0.5357 0.68347 0.55339 0.0
H1537 H 0.53941 0.64087 0.55076 0.0
C1538 C 0.66821 0.33874 0.72133 0.0
C1539 C 0.6448 0.30857 0.70696 0.0
C1540 C 0.67303 0.27195 0.73464 0.0
C1541 C 0.69848 0.30136 0.74593 0.0
N1542 N 0.71943 0.36329 0.75365 0.0
N1543 N 0.62947 0.24632 0.69377 0.0
C1544 C 0.69592 0.33501 0.74013 0.0
C1545 C 0.64843 0.27517 0.71207 0.0
N1546 N 0.66324 0.37068 0.71792 0.0
N1547 N 0.67164 0.241 0.74623 0.0
H1548 H 0.6134 0.24776 0.67468 0.0
H1549 H 0.63224 0.22138 0.69499 0.0
H1550 H 0.68965 0.23692 0.76198 0.0
H1551 H 0.65116 0.22022 0.74232 0.0
H1552 H 0.67789 0.39397 0.72938 0.0
H1553 H 0.6432 0.37387 0.70443 0.0
H1554 H 0.72129 0.38845 0.74832 0.0
H1555 H 0.73757 0.3613 0.77046 0.0
C1556 C 0.95661 0.3633 0.97568 0.0
C1557 C 0.97279 0.35633 0.9474 0.0
C1558 C 1.00101 0.4181 0.95126 0.0
C1559 C 0.98903 0.42366 0.98212 0.0
N1560 N 0.956 0.402 0.02449 0.0
N1561 N 0.99559 0.3806 0.9006 0.0
C1562 C 0.9668 0.39646 0.99442 0.0
C1563 C 0.99103 0.38474 0.93298 0.0
N1564 N 0.92952 0.33999 0.98302 0.0
N1565 N 0.02192 0.44471 0.93929 0.0
H1566 H 0.9845 0.35789 0.88543 0.0
H1567 H 0.00628 0.40079 0.88777 0.0
H1568 H 0.02737 0.47038 0.95011 0.0
H1569 H 0.03518 0.4411 0.91939 0.0
H1570 H 0.91562 0.34496 0.00201 0.0
H1571 H 0.91723 0.31832 0.96737 0.0
H1572 H 0.94392 0.38205 0.03693 0.0
H1573 H 0.96103 0.42633 0.03816 0.0
C1574 C 0.96188 0.82925 0.22732 0.0
C1575 C 0.96322 0.79813 0.20802 0.0
C1576 C 0.90824 0.77021 0.22086 0.0
C1577 C 0.90618 0.80183 0.23872 0.0
N1578 N 0.92846 0.86292 0.25494 0.0
N1579 N 0.93542 0.74191 0.18041 0.0
C1580 C 0.93223 0.83188 0.24067 0.0
C1581 C 0.93576 0.7694 0.20316 0.0
N1582 N 0.98926 0.85567 0.23409 0.0
N1583 N 0.88403 0.74071 0.2211 0.0
H1584 H 0.95483 0.74071 0.16637 0.0
H1585 H 0.91486 0.72193 0.17308 0.0
H1586 H 0.86284 0.74022 0.2327 0.0
H1587 H 0.88593 0.71611 0.21185 0.0
H1588 H 0.99082 0.87746 0.25077 0.0
H1589 H 0.01132 0.85472 0.22476 0.0
H1590 H 0.94514 0.88655 0.25412 0.0
H1591 H 0.90745 0.86536 0.2658 0.0
C1592 C 0.5165 0.35411 0.02329 0.0
C1593 C 0.51326 0.35135 0.05689 0.0
C1594 C 0.50381 0.40951 0.06392 0.0
C1595 C 0.51303 0.41467 0.0321 0.0
N1596 N 0.53209 0.39264 0.98244 0.0
N1597 N 0.51089 0.38045 0.11052 0.0
C1598 C 0.52028 0.38711 0.01187 0.0
C1599 C 0.50866 0.38007 0.07761 0.0
N1600 N 0.51481 0.3251 0.00204 0.0
N1601 N 0.48964 0.43232 0.08092 0.0
H1602 H 0.51645 0.36051 0.12199 0.0
H1603 H 0.51095 0.40242 0.12649 0.0
H1604 H 0.48398 0.45323 0.07111 0.0
H1605 H 0.48007 0.42805 0.10315 0.0
H1606 H 0.51408 0.32522 0.977 0.0
H1607 H 0.51051 0.30028 0.00913 0.0
H1608 H 0.54106 0.37446 0.96831 0.0
H1609 H 0.5355 0.41645 0.97337 0.0
C1610 C 0.93164 0.25008 0.3234 0.0
C1611 C 0.9546 0.27821 0.34139 0.0
C1612 C 0.92172 0.31826 0.32852 0.0
C1613 C 0.89899 0.29019 0.31016 0.0
N1614 N 0.88655 0.23172 0.28264 0.0
N1615 N 0.97588 0.33997 0.3549 0.0
C1616 C 0.90521 0.25674 0.30536 0.0
C1617 C 0.95098 0.31265 0.34201 0.0
N1618 N 0.93441 0.2169 0.32452 0.0
N1619 N 0.91478 0.34987 0.33418 0.0
H1620 H 0.99777 0.33672 0.3646 0.0
H1621 H 0.97605 0.36583 0.35346 0.0
H1622 H 0.89384 0.35499 0.32415 0.0
H1623 H 0.92856 0.37027 0.3505 0.0
H1624 H 0.91635 0.195 0.31515 0.0
H1625 H 0.95393 0.21115 0.33679 0.0
H1626 H 0.89161 0.20787 0.27592 0.0
H1627 H 0.86791 0.23615 0.26797 0.0
C1628 C 0.97339 0.65933 0.53871 0.0
C1629 C 0.99036 0.67151 0.56948 0.0
C1630 C 0.03003 0.63831 0.55589 0.0
C1631 C 0.01177 0.62377 0.52639 0.0
N1632 N 0.96399 0.6169 0.49064 0.0
N1633 N 0.03003 0.66565 0.61047 0.0
C1634 C 0.9827 0.63315 0.51806 0.0
C1635 C 0.01701 0.65858 0.57913 0.0
N1636 N 0.9489 0.67336 0.5291 0.0
N1637 N 0.06054 0.63401 0.56115 0.0
H1638 H 0.02156 0.68069 0.62841 0.0
H1639 H 0.04721 0.65375 0.61939 0.0
H1640 H 0.07143 0.62096 0.54366 0.0
H1641 H 0.0762 0.64653 0.58112 0.0
H1642 H 0.93791 0.66863 0.50564 0.0
H1643 H 0.9405 0.69108 0.54453 0.0
H1644 H 0.94088 0.61982 0.48501 0.0
H1645 H 0.97086 0.59872 0.47437 0.0
C1646 C 0.63733 0.79506 0.81244 0.0
C1647 C 0.62402 0.76926 0.83238 0.0
C1648 C 0.66252 0.73594 0.81386 0.0
C1649 C 0.67492 0.76119 0.79278 0.0
N1650 N 0.66468 0.80678 0.7637 0.0
N1651 N 0.61651 0.70975 0.84266 0.0
C1652 C 0.65915 0.78812 0.78936 0.0
C1653 C 0.63417 0.73789 0.82996 0.0
N1654 N 0.6309 0.827 0.81662 0.0
N1655 N 0.67857 0.71156 0.82067 0.0
H1656 H 0.5951 0.7099 0.85373 0.0
H1657 H 0.62098 0.68522 0.83879 0.0
H1658 H 0.70088 0.71028 0.81244 0.0
H1659 H 0.67136 0.69449 0.83767 0.0
H1660 H 0.64265 0.84755 0.80465 0.0
H1661 H 0.61661 0.83425 0.8344 0.0
H1662 H 0.65208 0.82514 0.75872 0.0
H1663 H 0.67884 0.80059 0.74529 0.0
C1664 C 0.45476 0.57718 0.62982 0.0
C1665 C 0.45129 0.55121 0.65108 0.0
C1666 C 0.49609 0.53132 0.62718 0.0
C1667 C 0.49713 0.5545 0.60365 0.0
N1668 N 0.47487 0.59668 0.57966 0.0
N1669 N 0.46323 0.49784 0.6639 0.0
C1670 C 0.47569 0.57665 0.6041 0.0
C1671 C 0.47051 0.52671 0.64812 0.0
N1672 N 0.43926 0.60318 0.635 0.0
N1673 N 0.51993 0.51416 0.63006 0.0
H1674 H 0.4432 0.49185 0.67758 0.0
H1675 H 0.47482 0.47779 0.66044 0.0
H1676 H 0.53906 0.51664 0.61505 0.0
H1677 H 0.52226 0.49991 0.64917 0.0
H1678 H 0.4434 0.62471 0.62233 0.0
H1679 H 0.42434 0.6049 0.65393 0.0
H1680 H 0.45722 0.61022 0.57647 0.0
H1681 H 0.49045 0.59758 0.56104 0.0
C1682 C 0.78626 0.18005 0.9026 0.0
C1683 C 0.80205 0.20039 0.93139 0.0
C1684 C 0.81285 0.2528 0.9043 0.0
C1685 C 0.79587 0.23267 0.87579 0.0
N1686 N 0.77561 0.17633 0.84455 0.0
N1687 N 0.83784 0.25298 0.958 0.0
C1688 C 0.78549 0.19597 0.8739 0.0
C1689 C 0.818 0.23581 0.93157 0.0
N1690 N 0.77047 0.14603 0.90316 0.0
N1691 N 0.8222 0.28818 0.90601 0.0
H1692 H 0.84187 0.24074 0.97816 0.0
H1693 H 0.8525 0.27803 0.95878 0.0
H1694 H 0.81867 0.30163 0.88662 0.0
H1695 H 0.83151 0.30449 0.92727 0.0
H1696 H 0.75488 0.13113 0.88409 0.0
H1697 H 0.77159 0.13311 0.92348 0.0
H1698 H 0.77092 0.14937 0.84123 0.0
H1699 H 0.77517 0.18705 0.82285 0.0
C1700 C 0.06849 0.46151 0.12952 0.0
C1701 C 0.08813 0.4912 0.14871 0.0
C1702 C 0.05495 0.52746 0.12881 0.0
C1703 C 0.03751 0.49889 0.10686 0.0
N1704 N 0.0286 0.43912 0.08394 0.0
N1705 N 0.10472 0.55366 0.16149 0.0
C1706 C 0.04433 0.46584 0.10665 0.0
C1707 C 0.08275 0.52456 0.14677 0.0
N1708 N 0.07267 0.42942 0.13354 0.0
N1709 N 0.04423 0.55705 0.13328 0.0
H1710 H 0.12596 0.55283 0.17446 0.0
H1711 H 0.10354 0.57874 0.15806 0.0
H1712 H 0.02315 0.55963 0.12119 0.0
H1713 H 0.05423 0.57745 0.1514 0.0
H1714 H 0.05709 0.40635 0.12266 0.0
H1715 H 0.09104 0.42592 0.14926 0.0
H1716 H 0.03475 0.41546 0.08018 0.0
H1717 H 0.01041 0.44149 0.06749 0.0
C1718 C 0.78537 0.85903 0.41359 0.0
C1719 C 0.77387 0.83352 0.4345 0.0
C1720 C 0.76388 0.78812 0.38758 0.0
C1721 C 0.7787 0.81319 0.36741 0.0
N1722 N 0.80728 0.87207 0.3623 0.0
N1723 N 0.75412 0.77338 0.44198 0.0
C1724 C 0.79063 0.84849 0.38079 0.0
C1725 C 0.76375 0.79794 0.42161 0.0
N1726 N 0.79065 0.89348 0.42474 0.0
N1727 N 0.74942 0.75488 0.37419 0.0
H1728 H 0.75099 0.77957 0.46642 0.0
H1729 H 0.75073 0.74687 0.43514 0.0
H1730 H 0.75039 0.74587 0.34993 0.0
H1731 H 0.7347 0.7366 0.38658 0.0
H1732 H 0.79556 0.91315 0.40987 0.0
H1733 H 0.78712 0.90253 0.44834 0.0
H1734 H 0.82002 0.89713 0.37166 0.0
H1735 H 0.81064 0.86593 0.33797 0.0
C1736 C 0.42509 0.51461 0.84977 0.0
C1737 C 0.44718 0.52967 0.82767 0.0
C1738 C 0.4928 0.53217 0.86669 0.0
C1739 C 0.47091 0.51358 0.88708 0.0
N1740 N 0.41681 0.48309 0.89658 0.0
N1741 N 0.50207 0.55104 0.81375 0.0
C1742 C 0.43717 0.50391 0.87833 0.0
C1743 C 0.48106 0.53784 0.83574 0.0
N1744 N 0.39256 0.51045 0.84355 0.0
N1745 N 0.52451 0.5461 0.87756 0.0
H1746 H 0.49452 0.55858 0.79208 0.0
H1747 H 0.52686 0.55303 0.81627 0.0
H1748 H 0.53416 0.54282 0.90007 0.0
H1749 H 0.54074 0.56338 0.8655 0.0
H1750 H 0.3756 0.50317 0.86032 0.0
H1751 H 0.38248 0.51704 0.82265 0.0
H1752 H 0.39246 0.47183 0.8897 0.0
H1753 H 0.42491 0.47433 0.91736 0.0
C1754 C 0.77918 0.23413 0.11298 0.0
C1755 C 0.80629 0.22009 0.10714 0.0
C1756 C 0.83328 0.2503 0.15891 0.0
C1757 C 0.80712 0.26623 0.16354 0.0
N1758 N 0.75941 0.27996 0.14157 0.0
N1759 N 0.86214 0.22151 0.12057 0.0
C1760 C 0.78164 0.26055 0.1392 0.0
C1761 C 0.83439 0.23046 0.12878 0.0
N1762 N 0.7502 0.22041 0.09531 0.0
N1763 N 0.85572 0.2517 0.18386 0.0
H1764 H 0.86382 0.20717 0.09851 0.0
H1765 H 0.88421 0.23117 0.13421 0.0
H1766 H 0.85598 0.26535 0.20666 0.0
H1767 H 0.87258 0.23674 0.18276 0.0
H1768 H 0.72897 0.22742 0.10099 0.0
H1769 H 0.74626 0.19936 0.07726 0.0
H1770 H 0.74183 0.27907 0.12306 0.0
H1771 H 0.76075 0.29946 0.16073 0.0
C1772 C 0.07504 0.48751 0.33419 0.0
C1773 C 0.08846 0.51822 0.32032 0.0
C1774 C 0.06204 0.55078 0.35864 0.0
C1775 C 0.0539 0.52192 0.37625 0.0
N1776 N 0.05828 0.46367 0.38329 0.0
N1777 N 0.10113 0.58103 0.32516 0.0
C1778 C 0.06166 0.4903 0.36472 0.0
C1779 C 0.0837 0.55046 0.33408 0.0
N1780 N 0.07405 0.45566 0.31798 0.0
N1781 N 0.04877 0.57838 0.36504 0.0
H1782 H 0.11936 0.58241 0.30915 0.0
H1783 H 0.10023 0.60518 0.33675 0.0
H1784 H 0.03135 0.57871 0.38178 0.0
H1785 H 0.05215 0.59882 0.35097 0.0
H1786 H 0.06165 0.43253 0.32583 0.0
H1787 H 0.08248 0.45236 0.29504 0.0
H1788 H 0.067 0.44186 0.377 0.0
H1789 H 0.0498 0.46444 0.4063 0.0
C1790 C 0.79047 0.83702 0.64039 0.0
C1791 C 0.76139 0.833 0.62087 0.0
C1792 C 0.73265 0.79049 0.65519 0.0
C1793 C 0.76168 0.79515 0.67537 0.0
N1794 N 0.81713 0.82679 0.68942 0.0
N1795 N 0.70385 0.81006 0.61177 0.0
C1796 C 0.79012 0.81978 0.6687 0.0
C1797 C 0.73218 0.81085 0.62887 0.0
N1798 N 0.81895 0.85627 0.63105 0.0
N1799 N 0.70536 0.76674 0.66138 0.0
H1800 H 0.70296 0.82416 0.59221 0.0
H1801 H 0.68107 0.79744 0.61801 0.0
H1802 H 0.70375 0.75401 0.68205 0.0
H1803 H 0.68454 0.75875 0.6457 0.0
H1804 H 0.84168 0.85658 0.64143 0.0
H1805 H 0.82026 0.87026 0.6112 0.0
H1806 H 0.83676 0.84804 0.6891 0.0
H1807 H 0.81903 0.81244 0.70827 0.0
C1808 C 0.70295 0.52002 0.52034 0.0
C1809 C 0.7038 0.49173 0.53792 0.0
C1810 C 0.65902 0.50203 0.56878 0.0
C1811 C 0.65666 0.52855 0.54957 0.0
N1812 N 0.67983 0.569 0.51347 0.0
N1813 N 0.68853 0.46054 0.58357 0.0
C1814 C 0.68009 0.53979 0.5276 0.0
C1815 C 0.68388 0.48448 0.56393 0.0
N1816 N 0.72331 0.52713 0.49616 0.0
N1817 N 0.63621 0.49251 0.59033 0.0
H1818 H 0.70575 0.44624 0.57991 0.0
H1819 H 0.67686 0.45629 0.60471 0.0
H1820 H 0.61892 0.50642 0.59558 0.0
H1821 H 0.63362 0.47051 0.60219 0.0
H1822 H 0.72199 0.54513 0.48024 0.0
H1823 H 0.74113 0.51391 0.49116 0.0
H1824 H 0.69719 0.58019 0.49846 0.0
H1825 H 0.66327 0.58374 0.51901 0.0
C1826 C 0.15736 0.06898 0.50992 0.0
C1827 C 0.17006 0.0838 0.48223 0.0
C1828 C 0.11853 0.05588 0.4506 0.0
C1829 C 0.10639 0.04039 0.47828 0.0
N1830 N 0.11875 0.02206 0.52936 0.0
N1831 N 0.16567 0.08468 0.42443 0.0
C1832 C 0.12723 0.04385 0.50643 0.0
C1833 C 0.15149 0.07528 0.45199 0.0
N1834 N 0.17301 0.08016 0.53999 0.0
N1835 N 0.09862 0.05298 0.42326 0.0
H1836 H 0.18982 0.09841 0.42455 0.0
H1837 H 0.15456 0.07617 0.4012 0.0
H1838 H 0.07509 0.03739 0.42009 0.0
H1839 H 0.10483 0.06763 0.40425 0.0
H1840 H 0.16286 0.07262 0.56119 0.0
H1841 H 0.19448 0.0996 0.54424 0.0
H1842 H 0.13427 0.02131 0.5492 0.0
H1843 H 0.09773 0.00191 0.52621 0.0
C1844 C 0.22228 0.91207 0.73056 0.0
C1845 C 0.21858 0.93151 0.76018 0.0
C1846 C 0.24542 0.89496 0.78992 0.0
C1847 C 0.25169 0.8779 0.76005 0.0
N1848 N 0.25346 0.87677 0.70222 0.0
N1849 N 0.234 0.94664 0.81755 0.0
C1850 C 0.24251 0.88868 0.73048 0.0
C1851 C 0.2323 0.9245 0.78977 0.0
N1852 N 0.20497 0.9142 0.70273 0.0
N1853 N 0.25037 0.88211 0.81832 0.0
H1854 H 0.22589 0.96924 0.81835 0.0
H1855 H 0.24654 0.94447 0.83899 0.0
H1856 H 0.25982 0.8606 0.81966 0.0
H1857 H 0.24255 0.89112 0.84021 0.0
H1858 H 0.20449 0.89799 0.68126 0.0
H1859 H 0.18816 0.92917 0.70193 0.0
H1860 H 0.24986 0.88607 0.68026 0.0
H1861 H 0.26925 0.86053 0.70158 0.0
C1862 C 0.3729 0.93803 0.96728 0.0
C1863 C 0.35517 0.95117 0.99141 0.0
C1864 C 0.40424 0.99431 0.01377 0.0
C1865 C 0.42302 0.9778 0.99288 0.0
N1866 N 0.42457 0.9277 0.95492 0.0
N1867 N 0.35599 0.98594 0.04289 0.0
C1868 C 0.40724 0.948 0.97086 0.0
C1869 C 0.37133 0.97772 0.01612 0.0
N1870 N 0.35706 0.91649 0.94067 0.0
N1871 N 0.41723 0.02624 0.03085 0.0
H1872 H 0.33235 0.97322 0.04676 0.0
H1873 H 0.36803 0.00267 0.06304 0.0
H1874 H 0.44092 0.0404 0.0296 0.0
H1875 H 0.40327 0.04044 0.04359 0.0
H1876 H 0.36899 0.90883 0.92095 0.0
H1877 H 0.33188 0.90927 0.93679 0.0
H1878 H 0.41369 0.90402 0.94115 0.0
H1879 H 0.44957 0.93203 0.95837 0.0
C1880 C 0.83492 0.61831 0.73224 0.0
C1881 C 0.83885 0.60408 0.76153 0.0
C1882 C 0.79392 0.62548 0.78319 0.0
C1883 C 0.79278 0.64325 0.75573 0.0
N1884 N 0.81293 0.65879 0.70466 0.0
N1885 N 0.82231 0.59292 0.81484 0.0
C1886 C 0.81297 0.63968 0.73003 0.0
C1887 C 0.81828 0.60718 0.78698 0.0
N1888 N 0.85267 0.61199 0.70674 0.0
N1889 N 0.77128 0.62598 0.80533 0.0
H1890 H 0.83842 0.57742 0.81767 0.0
H1891 H 0.81076 0.5974 0.83575 0.0
H1892 H 0.75298 0.63888 0.80259 0.0
H1893 H 0.76879 0.6116 0.82485 0.0
H1894 H 0.84796 0.61761 0.68344 0.0
H1895 H 0.87127 0.59938 0.70823 0.0
H1896 H 0.8299 0.661 0.68736 0.0
H1897 H 0.79684 0.67418 0.70151 0.0
C1898 C 0.87408 0.61252 0.04132 0.0
C1899 C 0.84672 0.59433 0.02038 0.0
C1900 C 0.87138 0.54533 0.00879 0.0
C1901 C 0.8995 0.56431 0.0284 0.0
N1902 N 0.92937 0.61692 0.06124 0.0
N1903 N 0.81993 0.54579 0.98136 0.0
C1904 C 0.90138 0.59825 0.04397 0.0
C1905 C 0.84547 0.56128 0.00341 0.0
N1906 N 0.87338 0.6428 0.0597 0.0
N1907 N 0.86955 0.51217 0.99518 0.0
H1908 H 0.80058 0.55678 0.97705 0.0
H1909 H 0.81873 0.52338 0.96566 0.0
H1910 H 0.8887 0.50037 0.99691 0.0
H1911 H 0.84859 0.49546 0.98355 0.0
H1912 H 0.89071 0.65529 0.07833 0.0
H1913 H 0.85421 0.65457 0.05777 0.0
H1914 H 0.93404 0.64333 0.06926 0.0
H1915 H 0.94883 0.60645 0.06652 0.0
C1916 C 0.21919 0.14296 0.80639 0.0
C1917 C 0.21308 0.11615 0.77998 0.0
C1918 C 0.24669 0.15551 0.74667 0.0
C1919 C 0.25075 0.183 0.77217 0.0
N1920 N 0.23579 0.20476 0.82399 0.0
N1921 N 0.21296 0.1004 0.72207 0.0
C1922 C 0.23526 0.17734 0.80129 0.0
C1923 C 0.22462 0.12332 0.74927 0.0
N1924 N 0.21093 0.13536 0.8366 0.0
N1925 N 0.26391 0.15996 0.71988 0.0
H1926 H 0.1953 0.07729 0.72221 0.0
H1927 H 0.21802 0.10616 0.69874 0.0
H1928 H 0.27893 0.1837 0.71594 0.0
H1929 H 0.26474 0.13948 0.70246 0.0
H1930 H 0.21773 0.15312 0.85743 0.0
H1931 H 0.19981 0.11034 0.84137 0.0
H1932 H 0.22247 0.20281 0.84435 0.0
H1933 H 0.24724 0.23012 0.82085 0.0
C1934 C 0.34684 0.95026 0.25456 0.0
C1935 C 0.36833 0.96347 0.28251 0.0
C1936 C 0.33702 0.91859 0.31224 0.0
C1937 C 0.31767 0.90353 0.28312 0.0
N1938 N 0.29341 0.91702 0.23422 0.0
N1939 N 0.38561 0.95988 0.3377 0.0
C1940 C 0.31931 0.9229 0.25644 0.0
C1941 C 0.36396 0.94754 0.31137 0.0
N1942 N 0.35348 0.96289 0.2257 0.0
N1943 N 0.32755 0.90774 0.3411 0.0
H1944 H 0.40501 0.98157 0.33807 0.0
H1945 H 0.38587 0.94724 0.35825 0.0
H1946 H 0.30493 0.89118 0.34309 0.0
H1947 H 0.3394 0.91887 0.36351 0.0
H1948 H 0.34031 0.95159 0.20387 0.0
H1949 H 0.37418 0.98221 0.22288 0.0
H1950 H 0.29239 0.93231 0.21566 0.0
H1951 H 0.2712 0.90024 0.23726 0.0
C1952 C 0.5467 0.3768 0.5491 0.0
C1953 C 0.5444 0.37551 0.58299 0.0
C1954 C 0.51547 0.42186 0.5842 0.0
C1955 C 0.524 0.42777 0.55248 0.0
N1956 N 0.55022 0.41229 0.50512 0.0
N1957 N 0.53044 0.40168 0.63392 0.0
C1958 C 0.54026 0.40555 0.53499 0.0
C1959 C 0.52935 0.39898 0.60085 0.0
N1960 N 0.55364 0.34993 0.53003 0.0
N1961 N 0.49446 0.43845 0.59864 0.0
H1962 H 0.54246 0.38769 0.64762 0.0
H1963 H 0.52259 0.42077 0.64801 0.0
H1964 H 0.4841 0.45546 0.58707 0.0
H1965 H 0.48484 0.43245 0.62048 0.0
H1966 H 0.55293 0.3483 0.50484 0.0
H1967 H 0.55622 0.32729 0.53891 0.0
H1968 H 0.56551 0.39947 0.49287 0.0
H1969 H 0.54477 0.43225 0.49356 0.0
C1970 C 0.39265 0.74167 0.27703 0.0
C1971 C 0.41247 0.7707 0.29715 0.0
C1972 C 0.37878 0.80749 0.27914 0.0
C1973 C 0.35653 0.77785 0.26241 0.0
N1974 N 0.33996 0.71556 0.24878 0.0
N1975 N 0.41906 0.82903 0.32387 0.0
C1976 C 0.36283 0.74453 0.26211 0.0
C1977 C 0.40401 0.80299 0.3001 0.0
N1978 N 0.40273 0.71183 0.27128 0.0
N1979 N 0.37676 0.8401 0.27402 0.0
H1980 H 0.43657 0.82635 0.34103 0.0
H1981 H 0.41144 0.85177 0.32884 0.0
H1982 H 0.36013 0.8446 0.2569 0.0
H1983 H 0.39411 0.8625 0.28373 0.0
H1984 H 0.39092 0.69111 0.25417 0.0
H1985 H 0.42446 0.70893 0.28165 0.0
H1986 H 0.3417 0.69042 0.25119 0.0
H1987 H 0.31803 0.71654 0.23739 0.0
C1988 C 0.07543 0.68712 0.10583 0.0
C1989 C 0.05219 0.70499 0.09655 0.0
C1990 C 0.02846 0.65708 0.05412 0.0
C1991 C 0.04802 0.63674 0.06702 0.0
N1992 N 0.08772 0.63151 0.10832 0.0
N1993 N 0.00484 0.70628 0.06353 0.0
C1994 C 0.07116 0.65158 0.09353 0.0
C1995 C 0.02824 0.68981 0.07108 0.0
N1996 N 0.1019 0.70429 0.12604 0.0
N1997 N 0.01082 0.64556 0.02505 0.0
H1998 H 0.00457 0.73079 0.0748 0.0
H1999 H 0.98448 0.69461 0.04782 0.0
H2000 H 0.01121 0.62234 0.01126 0.0
H2001 H 0.99851 0.66059 0.013 0.0
H2002 H 0.12123 0.69361 0.13124 0.0
H2003 H 0.1061 0.73049 0.13489 0.0
H2004 H 0.10188 0.6401 0.13008 0.0
H2005 H 0.08529 0.60534 0.10056 0.0
C2006 C 0.08864 0.27598 0.78917 0.0
C2007 C 0.08165 0.25352 0.81345 0.0
C2008 C 0.13555 0.24249 0.81149 0.0
C2009 C 0.14147 0.26233 0.7851 0.0
N2010 N 0.12248 0.29429 0.74577 0.0
N2011 N 0.0963 0.21174 0.84509 0.0
C2012 C 0.11775 0.27825 0.77318 0.0
C2013 C 0.1044 0.23551 0.82366 0.0
N2014 N 0.06752 0.29518 0.78151 0.0
N2015 N 0.16026 0.23226 0.82643 0.0
H2016 H 0.07457 0.20742 0.85631 0.0
H2017 H 0.11022 0.19462 0.85015 0.0
H2018 H 0.18388 0.23814 0.81938 0.0
H2019 H 0.15829 0.22101 0.84791 0.0
H2020 H 0.07278 0.31486 0.76668 0.0
H2021 H 0.04539 0.29307 0.79178 0.0
H2022 H 0.1048 0.30331 0.73385 0.0
H2023 H 0.1433 0.29603 0.73322 0.0
C2024 C 0.52118 0.66193 0.95647 0.0
C2025 C 0.54799 0.68995 0.96881 0.0
C2026 C 0.56143 0.65408 0.00916 0.0
C2027 C 0.5325 0.62789 0.99916 0.0
N2028 N 0.47935 0.61469 0.97099 0.0
N2029 N 0.58485 0.71585 0.01602 0.0
C2030 C 0.51047 0.63454 0.9755 0.0
C2031 C 0.56538 0.68713 0.99806 0.0
N2032 N 0.50721 0.6595 0.92584 0.0
N2033 N 0.58623 0.64748 0.02725 0.0
H2034 H 0.58585 0.741 0.0109 0.0
H2035 H 0.59623 0.71477 0.03847 0.0
H2036 H 0.58629 0.6232 0.0339 0.0
H2037 H 0.60856 0.66552 0.03232 0.0
H2038 H 0.48919 0.63787 0.91563 0.0
H2039 H 0.51634 0.67613 0.90907 0.0
H2040 H 0.46198 0.62017 0.95534 0.0
H2041 H 0.47013 0.59566 0.98576 0.0
C2042 C 0.10629 0.78707 0.6993 0.0
C2043 C 0.09289 0.77014 0.66834 0.0
C2044 C 0.13844 0.74298 0.66252 0.0
C2045 C 0.15025 0.75729 0.69466 0.0
N2046 N 0.14648 0.79334 0.74411 0.0
N2047 N 0.09351 0.72868 0.62168 0.0
C2048 C 0.13438 0.77934 0.71326 0.0
C2049 C 0.10836 0.74741 0.65012 0.0
N2050 N 0.09288 0.81165 0.7146 0.0
N2051 N 0.15619 0.72546 0.64372 0.0
H2052 H 0.07161 0.73111 0.61136 0.0
H2053 H 0.10155 0.70868 0.60934 0.0
H2054 H 0.17751 0.72011 0.65246 0.0
H2055 H 0.15109 0.71823 0.61888 0.0
H2056 H 0.10306 0.82767 0.73574 0.0
H2057 H 0.07247 0.81798 0.70476 0.0
H2058 H 0.13415 0.80592 0.76046 0.0
H2059 H 0.16871 0.79146 0.75407 0.0
C2060 C 0.06005 0.39809 0.47957 0.0
C2061 C 0.03147 0.37534 0.4637 0.0
C2062 C 1.00056 0.4178 0.47836 0.0
C2063 C 0.02922 0.44157 0.49284 0.0
N2064 N 0.08744 0.45663 0.50326 0.0
N2065 N 0.97791 0.3686 0.43834 0.0
C2066 C 0.05948 0.43265 0.49177 0.0
C2067 C 1.00281 0.38682 0.46005 0.0
N2068 N 0.08699 0.38613 0.4848 0.0
N2069 N 0.97089 0.42395 0.48294 0.0
H2070 H 0.97902 0.34627 0.42347 0.0
H2071 H 0.95782 0.37785 0.43247 0.0
H2072 H 0.96771 0.44645 0.4959 0.0
H2073 H 0.94924 0.40532 0.47605 0.0
H2074 H 0.1074 0.4002 0.49939 0.0
H2075 H 0.08813 0.36098 0.47645 0.0
H2076 H 0.1104 0.45288 0.49983 0.0
H2077 H 0.08788 0.48128 0.51451 0.0
C2078 C 0.42044 0.26657 0.2173 0.0
C2079 C 0.41706 0.26096 0.1828 0.0
C2080 C 0.36472 0.27633 0.18385 0.0
C2081 C 0.36625 0.2777 0.21819 0.0
N2082 N 0.39418 0.27106 0.26767 0.0
N2083 N 0.3838 0.25588 0.13323 0.0
C2084 C 0.39382 0.27209 0.23494 0.0
C2085 C 0.38879 0.26504 0.16604 0.0
N2086 N 0.44952 0.26783 0.2332 0.0
N2087 N 0.33996 0.28553 0.16812 0.0
H2088 H 0.40035 0.24675 0.11929 0.0
H2089 H 0.36204 0.25429 0.12009 0.0
H2090 H 0.32141 0.29255 0.18027 0.0
H2091 H 0.33924 0.28909 0.1437 0.0
H2092 H 0.45459 0.27517 0.25802 0.0
H2093 H 0.46968 0.26464 0.22115 0.0
H2094 H 0.41161 0.26282 0.28084 0.0
H2095 H 0.37584 0.27666 0.28143 0.0
C2096 C 0.60235 0.54036 0.40903 0.0
C2097 C 0.59367 0.51415 0.38218 0.0
C2098 C 0.55412 0.47861 0.41414 0.0
C2099 C 0.56031 0.50644 0.43992 0.0
N2100 N 0.60128 0.55603 0.46628 0.0
N2101 N 0.55951 0.45943 0.35764 0.0
C2102 C 0.58745 0.53525 0.43862 0.0
C2103 C 0.56936 0.48336 0.38446 0.0
N2104 N 0.62485 0.57059 0.40631 0.0
N2105 N 0.5357 0.44672 0.41887 0.0
H2106 H 0.5702 0.46182 0.33569 0.0
H2107 H 0.53914 0.43867 0.35624 0.0
H2108 H 0.52706 0.44116 0.44117 0.0
H2109 H 0.53259 0.42455 0.40229 0.0
H2110 H 0.62818 0.59294 0.42274 0.0
H2111 H 0.639 0.57424 0.38661 0.0
H2112 H 0.62269 0.57542 0.46752 0.0
H2113 H 0.59444 0.55057 0.48897 0.0
C2114 C 0.27638 0.86931 0.09875 0.0
C2115 C 0.24553 0.86502 0.08233 0.0
C2116 C 0.21992 0.82858 0.12231 0.0
C2117 C 0.2507 0.83437 0.13937 0.0
N2118 N 0.30609 0.86828 0.14926 0.0
N2119 N 0.18743 0.84562 0.08047 0.0
C2120 C 0.27833 0.85707 0.12919 0.0
C2121 C 0.21705 0.84612 0.09471 0.0
N2122 N 0.30401 0.88378 0.08469 0.0
N2123 N 0.19382 0.80556 0.13187 0.0
H2124 H 0.18477 0.85804 0.06009 0.0
H2125 H 0.1656 0.83525 0.09011 0.0
H2126 H 0.19507 0.79265 0.15219 0.0
H2127 H 0.17143 0.79754 0.11866 0.0
H2128 H 0.32708 0.88375 0.09398 0.0
H2129 H 0.30401 0.89302 0.0622 0.0
H2130 H 0.32575 0.8878 0.14445 0.0
H2131 H 0.30825 0.86095 0.1724 0.0
C2132 C 0.01184 0.58838 0.89943 0.0
C2133 C 0.98235 0.56565 0.88595 0.0
C2134 C 0.97395 0.54054 0.93671 0.0
C2135 C 0.00526 0.56092 0.94937 0.0
N2136 N 0.04525 0.61501 0.94845 0.0
N2137 N 0.93084 0.52761 0.89381 0.0
C2138 C 0.02148 0.58836 0.93252 0.0
C2139 C 0.96188 0.54431 0.90535 0.0
N2140 N 0.031 0.60927 0.8804 0.0
N2141 N 0.95587 0.51692 0.954 0.0
H2142 H 0.92137 0.5287 0.87054 0.0
H2143 H 0.91343 0.51484 0.90801 0.0
H2144 H 0.95876 0.51915 0.97894 0.0
H2145 H 0.93703 0.49617 0.94379 0.0
H2146 H 0.0546 0.62333 0.8878 0.0
H2147 H 0.02371 0.61109 0.8565 0.0
H2148 H 0.05624 0.63701 0.93802 0.0
H2149 H 0.05101 0.61718 0.97333 0.0
C2150 C 0.28504 0.24403 0.60239 0.0
C2151 C 0.26164 0.21336 0.58946 0.0
C2152 C 0.24043 0.20812 0.64328 0.0
C2153 C 0.26268 0.23997 0.65607 0.0
N2154 N 0.30151 0.29197 0.64545 0.0
N2155 N 0.21219 0.17094 0.59553 0.0
C2156 C 0.28364 0.25901 0.63491 0.0
C2157 C 0.23782 0.19696 0.60932 0.0
N2158 N 0.30941 0.25819 0.58403 0.0
N2159 N 0.22314 0.18727 0.66363 0.0
H2160 H 0.20925 0.1624 0.57073 0.0
H2161 H 0.19227 0.16035 0.60801 0.0
H2162 H 0.22466 0.1936 0.68867 0.0
H2163 H 0.20962 0.16201 0.65605 0.0
H2164 H 0.32953 0.27795 0.59328 0.0
H2165 H 0.31069 0.24846 0.55996 0.0
H2166 H 0.31438 0.30844 0.63022 0.0
H2167 H 0.30113 0.30425 0.66874 0.0
C2168 C 0.59098 0.48979 0.1781 0.0
C2169 C 0.6015 0.51805 0.20296 0.0
C2170 C 0.57889 0.55526 0.1698 0.0
C2171 C 0.5721 0.52832 0.14356 0.0
N2172 N 0.57213 0.46984 0.12185 0.0
N2173 N 0.60932 0.57936 0.22097 0.0
C2174 C 0.57834 0.49555 0.14745 0.0
C2175 C 0.59615 0.55116 0.1986 0.0
N2176 N 0.59183 0.45714 0.18431 0.0
N2177 N 0.56897 0.58494 0.16722 0.0
H2178 H 0.62211 0.57812 0.2425 0.0
H2179 H 0.60993 0.60477 0.21705 0.0
H2180 H 0.55774 0.58969 0.146 0.0
H2181 H 0.5696 0.60371 0.18679 0.0
H2182 H 0.58147 0.43473 0.16856 0.0
H2183 H 0.60037 0.45199 0.20668 0.0
H2184 H 0.57989 0.4471 0.1217 0.0
H2185 H 0.56038 0.47178 0.09992 0.0
C2186 C 0.22035 0.81018 0.88346 0.0
C2187 C 0.24942 0.81816 0.90384 0.0
C2188 C 0.27279 0.7833 0.86418 0.0
C2189 C 0.24633 0.78078 0.84173 0.0
N2190 N 0.19638 0.79626 0.82839 0.0
N2191 N 0.3064 0.81866 0.90941 0.0
C2192 C 0.22036 0.79531 0.85089 0.0
C2193 C 0.27649 0.80622 0.89327 0.0
N2194 N 0.19246 0.81561 0.89536 0.0
N2195 N 0.29435 0.7637 0.85778 0.0
H2196 H 0.31127 0.83793 0.92921 0.0
H2197 H 0.32723 0.81296 0.90065 0.0
H2198 H 0.2917 0.74611 0.83681 0.0
H2199 H 0.31267 0.76242 0.87469 0.0
H2200 H 0.17003 0.80728 0.88219 0.0
H2201 H 0.19105 0.82488 0.91951 0.0
H2202 H 0.17911 0.81025 0.83307 0.0
H2203 H 0.19521 0.7854 0.80434 0.0
C2204 C 0.97521 0.58402 0.68188 0.0
C2205 C 0.97983 0.56021 0.7034 0.0
C2206 C 0.01367 0.53726 0.66547 0.0
C2207 C 1.00414 0.55637 0.64178 0.0
N2208 N 0.97218 0.59519 0.62606 0.0
N2209 N 0.99901 0.50968 0.71318 0.0
C2210 C 0.98428 0.57946 0.64962 0.0
C2211 C 0.99816 0.5358 0.69476 0.0
N2212 N 0.96246 0.6111 0.69236 0.0
N2213 N 0.03782 0.52078 0.66011 0.0
H2214 H 0.98668 0.50618 0.73407 0.0
H2215 H 0.00922 0.48922 0.70583 0.0
H2216 H 0.05038 0.52216 0.63916 0.0
H2217 H 0.04773 0.50912 0.67789 0.0
H2218 H 0.96149 0.63118 0.67865 0.0
H2219 H 0.95587 0.61533 0.716 0.0
H2220 H 0.95487 0.60928 0.63002 0.0
H2221 H 0.97706 0.5918 0.60182 0.0
C2222 C 0.28164 0.20363 0.37814 0.0
C2223 C 0.27249 0.22319 0.40529 0.0
C2224 C 0.27278 0.27034 0.37161 0.0
C2225 C 0.28561 0.25256 0.34598 0.0
N2226 N 0.30872 0.20529 0.32799 0.0
N2227 N 0.26835 0.27951 0.42945 0.0
C2228 C 0.29206 0.22013 0.35025 0.0
C2229 C 0.27063 0.2578 0.40245 0.0
N2230 N 0.2786 0.16883 0.3779 0.0
N2231 N 0.26145 0.29857 0.3664 0.0
H2232 H 0.26895 0.27236 0.45278 0.0
H2233 H 0.26989 0.30585 0.42905 0.0
H2234 H 0.26174 0.30833 0.34416 0.0
H2235 H 0.24872 0.31008 0.38326 0.0
H2236 H 0.28193 0.15289 0.3575 0.0
H2237 H 0.26927 0.15509 0.39664 0.0
H2238 H 0.31674 0.18321 0.33125 0.0
H2239 H 0.31736 0.21717 0.30792 0.0
C2240 C 0.34936 0.54138 0.52431 0.0
C2241 C 0.35821 0.57807 0.52449 0.0
C2242 C 0.40884 0.57376 0.50089 0.0
C2243 C 0.40256 0.53844 0.50637 0.0
N2244 N 0.3677 0.48857 0.52478 0.0
N2245 N 0.39877 0.62989 0.51694 0.0
C2246 C 0.37294 0.52216 0.51835 0.0
C2247 C 0.38843 0.59448 0.51344 0.0
N2248 N 0.31815 0.52477 0.52871 0.0
N2249 N 0.43451 0.58759 0.48392 0.0
H2250 H 0.38527 0.6462 0.52718 0.0
H2251 H 0.42212 0.64312 0.51267 0.0
H2252 H 0.4494 0.57286 0.47372 0.0
H2253 H 0.4388 0.6124 0.47688 0.0
H2254 H 0.30965 0.49785 0.52595 0.0
H2255 H 0.29988 0.53776 0.53181 0.0
H2256 H 0.34834 0.47653 0.53727 0.0
H2257 H 0.38381 0.47334 0.51901 0.0
C2258 C 0.87961 0.98784 0.5589 0.0
C2259 C 0.86365 0.95945 0.53575 0.0
C2260 C 0.91038 0.97119 0.50269 0.0
C2261 C 0.92663 0.99976 0.52604 0.0
N2262 N 0.91765 0.04406 0.56654 0.0
N2263 N 0.85918 0.93329 0.48019 0.0
C2264 C 0.90854 0.01091 0.55119 0.0
C2265 C 0.87766 0.95383 0.50603 0.0
N2266 N 0.86804 0.99234 0.58868 0.0
N2267 N 0.92564 0.96029 0.47702 0.0
H2268 H 0.83471 0.92153 0.48109 0.0
H2269 H 0.86694 0.93124 0.45685 0.0
H2270 H 0.94755 0.97423 0.47043 0.0
H2271 H 0.91684 0.93642 0.46281 0.0
H2272 H 0.88076 0.01084 0.60734 0.0
H2273 H 0.84753 0.97553 0.59576 0.0
H2274 H 0.90397 0.05371 0.58367 0.0
H2275 H 0.93553 0.06332 0.55843 0.0
C2276 C 0.81977 0.136 0.19299 0.0
C2277 C 0.82499 0.11544 0.2175 0.0
C2278 C 0.80252 0.15246 0.2566 0.0
C2279 C 0.79484 0.17105 0.23136 0.0
N2280 N 0.7896 0.17451 0.17369 0.0
N2281 N 0.81438 0.09948 0.27103 0.0
C2282 C 0.80115 0.16076 0.19899 0.0
C2283 C 0.81454 0.12244 0.24895 0.0
N2284 N 0.83446 0.13373 0.16458 0.0
N2285 N 0.79823 0.16338 0.28798 0.0
H2286 H 0.82158 0.0765 0.26604 0.0
H2287 H 0.80403 0.10139 0.29311 0.0
H2288 H 0.78709 0.18337 0.2943 0.0
H2289 H 0.80727 0.15381 0.30777 0.0
H2290 H 0.83438 0.15081 0.14739 0.0
H2291 H 0.84989 0.11753 0.15974 0.0
H2292 H 0.78987 0.16428 0.14962 0.0
H2293 H 0.77714 0.19381 0.1764 0.0
C2294 C 0.67853 0.08428 0.04967 0.0
C2295 C 0.6954 0.08438 0.02112 0.0
C2296 C 0.64954 0.04105 0.99228 0.0
C2297 C 0.631 0.04542 0.01919 0.0
N2298 N 0.6349 0.05261 0.07772 0.0
N2299 N 0.69775 0.06334 0.96493 0.0
C2300 C 0.64741 0.06164 0.04935 0.0
C2301 C 0.68121 0.06276 0.99232 0.0
N2302 N 0.69162 0.10682 0.07672 0.0
N2303 N 0.63843 0.0137 0.9686 0.0
H2304 H 0.72161 0.07769 0.96443 0.0
H2305 H 0.68711 0.05141 0.94223 0.0
H2306 H 0.61733 0.99448 0.97007 0.0
H2307 H 0.65209 0.00728 0.94989 0.0
H2308 H 0.67865 0.11043 0.09687 0.0
H2309 H 0.71436 0.12422 0.07795 0.0
H2310 H 0.64708 0.06194 0.1004 0.0
H2311 H 0.61513 0.0315 0.07836 0.0
C2312 C 0.2028 0.41712 0.26351 0.0
C2313 C 0.21956 0.44618 0.24904 0.0
C2314 C 0.27105 0.43101 0.25973 0.0
C2315 C 0.25403 0.40161 0.27331 0.0
N2316 N 0.20689 0.37369 0.29874 0.0
N2317 N 0.27034 0.48729 0.24384 0.0
C2318 C 0.22096 0.3974 0.27906 0.0
C2319 C 0.25399 0.45528 0.25056 0.0
N2320 N 0.16974 0.40657 0.26026 0.0
N2321 N 0.30279 0.43467 0.25372 0.0
H2322 H 0.2586 0.50619 0.23826 0.0
H2323 H 0.29543 0.49634 0.2472 0.0
H2324 H 0.31627 0.41804 0.2612 0.0
H2325 H 0.3152 0.45317 0.23996 0.0
H2326 H 0.1567 0.38333 0.26736 0.0
H2327 H 0.15527 0.41917 0.24779 0.0
H2328 H 0.18344 0.37111 0.3059 0.0
H2329 H 0.22008 0.35917 0.31054 0.0
C2330 C 0.1639 0.44905 0.05594 0.0
C2331 C 0.19255 0.46019 0.03998 0.0
C2332 C 0.17069 0.50582 0.01912 0.0
C2333 C 0.141 0.49283 0.03294 0.0
N2334 N 0.1068 0.44634 0.05729 0.0
N2335 N 0.22193 0.4959 0.00274 0.0
C2336 C 0.13693 0.46296 0.04954 0.0
C2337 C 0.19549 0.48753 0.02034 0.0
N2338 N 0.16243 0.42521 0.07737 0.0
N2339 N 0.1758 0.5365 0.00618 0.0
H2340 H 0.24098 0.48387 0.00389 0.0
H2341 H 0.22391 0.51289 0.98524 0.0
H2342 H 0.1585 0.55087 0.00534 0.0
H2343 H 0.19808 0.54927 0.99883 0.0
H2344 H 0.14374 0.41932 0.09268 0.0
H2345 H 0.1811 0.41325 0.08168 0.0
H2346 H 0.10184 0.42262 0.06659 0.0
H2347 H 0.08595 0.45403 0.05099 0.0
C2348 C 0.82019 0.92709 0.2511 0.0
C2349 C 0.82654 0.93154 0.21845 0.0
C2350 C 0.79895 0.87058 0.20128 0.0
C2351 C 0.79125 0.8665 0.2338 0.0
N2352 N 0.78656 0.89364 0.28747 0.0
N2353 N 0.81791 0.91 0.16174 0.0
C2354 C 0.79972 0.89549 0.25818 0.0
C2355 C 0.8146 0.904 0.19328 0.0
N2356 N 0.83423 0.95283 0.27552 0.0
N2357 N 0.7924 0.84229 0.17825 0.0
H2358 H 0.82971 0.9341 0.15526 0.0
H2359 H 0.80683 0.89212 0.14199 0.0
H2360 H 0.78039 0.81764 0.1829 0.0
H2361 H 0.80076 0.84265 0.15516 0.0
H2362 H 0.83385 0.9493 0.29995 0.0
H2363 H 0.84831 0.97699 0.27138 0.0
H2364 H 0.78925 0.91505 0.30492 0.0
H2365 H 0.7701 0.8716 0.29315 0.0
C2366 C 0.72987 0.11128 0.72412 0.0
C2367 C 0.69565 0.10134 0.71854 0.0
C2368 C 0.69514 0.16089 0.71052 0.0
C2369 C 0.72841 0.1713 0.72046 0.0
N2370 N 0.77913 0.15574 0.72081 0.0
N2371 N 0.64499 0.1166 0.70788 0.0
C2372 C 0.74641 0.1463 0.72279 0.0
C2373 C 0.67805 0.12604 0.71183 0.0
N2374 N 0.74633 0.08773 0.73234 0.0
N2375 N 0.68047 0.18359 0.69758 0.0
H2376 H 0.63139 0.09126 0.70813 0.0
H2377 H 0.63084 0.13435 0.70682 0.0
H2378 H 0.69282 0.20897 0.69518 0.0
H2379 H 0.65742 0.17606 0.6857 0.0
H2380 H 0.77079 0.09445 0.74026 0.0
H2381 H 0.735 0.0618 0.73379 0.0
H2382 H 0.79373 0.13833 0.71975 0.0
H2383 H 0.79093 0.18056 0.71597 0.0
loop_
_geom_bond_atom_site_label_1
_geom_bond_atom_site_label_2
_geom_bond_distance
_geom_bond_site_symmetry_2
_ccdc_geom_bond_type
O0 Cd1 2.223 . S
O0 C8 1.315 . S
Cd1 O0 2.223 . S
Cd1 O4 2.297 . S
Cd1 O5 2.439 . S
Cd1 O11 2.240 1_455 S
Cd2 O3 2.240 . S
Cd2 O10 2.223 1_455 S
Cd2 O12 2.297 . S
Cd2 O13 2.439 . S
O3 Cd2 2.240 . S
O3 C8 1.279 . S
O4 Cd1 2.297 . S
O4 C6 1.247 . S
O5 Cd1 2.439 . S
O5 C6 1.208 . S
C6 O4 1.247 . S
C6 O5 1.208 . S
C7 O12 1.247 . S
C7 O13 1.208 . S
C8 O0 1.315 . S
C8 O3 1.279 . S
C9 O10 1.315 . S
C9 O11 1.279 . S
O10 Cd2 2.223 1_655 S
O10 C9 1.315 . S
O11 Cd1 2.240 1_655 S
O11 C9 1.279 . S
O12 Cd2 2.297 . S
O12 C7 1.247 . S
O13 Cd2 2.439 . S
O13 C7 1.208 . S
O14 Cd15 2.223 1_455 S
O14 C22 1.312 1_455 S
Cd15 O14 2.223 1_655 S
Cd15 O18 2.297 . S
Cd15 O19 2.439 . S
Cd15 O25 2.240 1_655 S
Cd16 O17 2.240 1_455 S
Cd16 O24 2.223 . S
Cd16 O26 2.297 . S
Cd16 O27 2.439 . S
O17 Cd16 2.240 1_655 S
O17 C22 1.292 . S
O18 Cd15 2.297 . S
O18 C20 1.247 . S
O19 Cd15 2.439 . S
O19 C20 1.208 . S
C20 O18 1.247 . S
C20 O19 1.208 . S
C21 O26 1.247 . S
C21 O27 1.208 . S
C22 O14 1.312 1_655 S
C22 O17 1.292 . S
C23 O24 1.315 . S
C23 O25 1.279 . S
O24 Cd16 2.223 . S
O24 C23 1.315 . S
O25 Cd15 2.240 1_455 S
O25 C23 1.279 . S
O26 Cd16 2.297 . S
O26 C21 1.247 . S
O27 Cd16 2.439 . S
O27 C21 1.208 . S
O28 Cd29 2.223 . S
O28 C36 1.315 . S
Cd29 O28 2.223 . S
Cd29 O32 2.297 . S
Cd29 O33 2.439 . S
Cd29 O39 2.240 . S
Cd30 O31 2.240 . S
Cd30 O38 2.223 . S
Cd30 O40 2.297 . S
Cd30 O41 2.439 . S
O31 Cd30 2.240 . S
O31 C36 1.279 . S
O32 Cd29 2.297 . S
O32 C34 1.247 . S
O33 Cd29 2.439 . S
O33 C34 1.208 . S
C34 O32 1.247 . S
C34 O33 1.208 . S
C35 O40 1.247 . S
C35 O41 1.208 . S
C36 O28 1.315 . S
C36 O31 1.279 . S
C37 O38 1.315 . S
C37 O39 1.279 . S
O38 Cd30 2.223 . S
O38 C37 1.315 . S
O39 Cd29 2.240 . S
O39 C37 1.279 . S
O40 Cd30 2.297 . S
O40 C35 1.247 . S
O41 Cd30 2.439 . S
O41 C35 1.208 . S
O42 Cd43 2.223 . S
O42 C50 1.315 . S
Cd43 O42 2.223 . S
Cd43 O46 2.297 . S
Cd43 O47 2.439 . S
Cd43 O53 2.240 . S
Cd44 O45 2.240 . S
Cd44 O52 2.223 . S
Cd44 O54 2.297 . S
Cd44 O55 2.439 . S
O45 Cd44 2.240 . S
O45 C50 1.279 . S
O46 Cd43 2.297 . S
O46 C48 1.247 . S
O47 Cd43 2.439 . S
O47 C48 1.208 . S
C48 O46 1.247 . S
C48 O47 1.208 . S
C49 O54 1.247 . S
C49 O55 1.208 . S
C50 O42 1.315 . S
C50 O45 1.279 . S
C51 O52 1.315 . S
C51 O53 1.279 . S
O52 Cd44 2.223 . S
O52 C51 1.315 . S
O53 Cd43 2.240 . S
O53 C51 1.279 . S
O54 Cd44 2.297 . S
O54 C49 1.247 . S
O55 Cd44 2.439 . S
O55 C49 1.208 . S
O56 Cd57 2.223 . S
O56 C64 1.315 . S
Cd57 O56 2.223 . S
Cd57 O60 2.297 1_455 S
Cd57 O61 2.439 1_455 S
Cd57 O67 2.240 . S
Cd58 O59 2.240 . S
Cd58 O66 2.223 . S
Cd58 O68 2.297 . S
Cd58 O69 2.439 . S
O59 Cd58 2.240 . S
O59 C64 1.279 . S
O60 Cd57 2.297 1_655 S
O60 C62 1.247 . S
O61 Cd57 2.439 1_655 S
O61 C62 1.208 . S
C62 O60 1.247 . S
C62 O61 1.208 . S
C63 O68 1.247 . S
C63 O69 1.208 . S
C64 O56 1.315 . S
C64 O59 1.279 . S
C65 O66 1.315 . S
C65 O67 1.279 . S
O66 Cd58 2.223 . S
O66 C65 1.315 . S
O67 Cd57 2.240 . S
O67 C65 1.279 . S
O68 Cd58 2.297 . S
O68 C63 1.247 . S
O69 Cd58 2.439 . S
O69 C63 1.208 . S
O70 Cd71 2.223 . S
O70 C78 1.315 . S
Cd71 O70 2.223 . S
Cd71 O74 2.297 . S
Cd71 O75 2.439 . S
Cd71 O81 2.240 . S
Cd72 O73 2.240 . S
Cd72 O80 2.223 . S
Cd72 O82 2.297 . S
Cd72 O83 2.439 . S
O73 Cd72 2.240 . S
O73 C78 1.279 . S
O74 Cd71 2.297 . S
O74 C76 1.247 . S
O75 Cd71 2.439 . S
O75 C76 1.208 . S
C76 O74 1.247 . S
C76 O75 1.208 . S
C77 O82 1.247 . S
C77 O83 1.208 . S
C78 O70 1.315 . S
C78 O73 1.279 . S
C79 O80 1.315 . S
C79 O81 1.279 . S
O80 Cd72 2.223 . S
O80 C79 1.315 . S
O81 Cd71 2.240 . S
O81 C79 1.279 . S
O82 Cd72 2.297 . S
O82 C77 1.247 . S
O83 Cd72 2.439 . S
O83 C77 1.208 . S
O84 Cd85 2.223 . S
O84 C92 1.315 . S
Cd85 O84 2.223 . S
Cd85 O88 2.297 . S
Cd85 O89 2.439 . S
Cd85 O95 2.240 . S
Cd86 O87 2.240 . S
Cd86 O94 2.223 . S
Cd86 O96 2.297 . S
Cd86 O97 2.439 . S
O87 Cd86 2.240 . S
O87 C92 1.279 . S
O88 Cd85 2.297 . S
O88 C90 1.247 . S
O89 Cd85 2.439 . S
O89 C90 1.208 . S
C90 O88 1.247 . S
C90 O89 1.208 . S
C91 O96 1.247 . S
C91 O97 1.208 . S
C92 O84 1.315 . S
C92 O87 1.279 . S
C93 O94 1.315 . S
C93 O95 1.279 . S
O94 Cd86 2.223 . S
O94 C93 1.315 . S
O95 Cd85 2.240 . S
O95 C93 1.279 . S
O96 Cd86 2.297 . S
O96 C91 1.247 . S
O97 Cd86 2.439 . S
O97 C91 1.208 . S
O98 Cd99 2.223 1_655 S
O98 C106 1.315 . S
Cd99 O98 2.223 1_455 S
Cd99 O102 2.297 . S
Cd99 O103 2.439 . S
Cd99 O109 2.240 1_455 S
Cd100 O101 2.240 1_655 S
Cd100 O108 2.223 . S
Cd100 O110 2.297 . S
Cd100 O111 2.439 1_655 S
O101 Cd100 2.240 1_455 S
O101 C106 1.279 1_455 S
O102 Cd99 2.297 . S
O102 C104 1.247 . S
O103 Cd99 2.439 . S
O103 C104 1.208 . S
C104 O102 1.247 . S
C104 O103 1.208 . S
C105 O110 1.247 1_455 S
C105 O111 1.208 . S
C106 O98 1.315 . S
C106 O101 1.279 1_655 S
C107 O108 1.315 . S
C107 O109 1.279 . S
O108 Cd100 2.223 . S
O108 C107 1.315 . S
O109 Cd99 2.240 1_655 S
O109 C107 1.279 . S
O110 Cd100 2.297 . S
O110 C105 1.247 1_655 S
O111 Cd100 2.439 1_455 S
O111 C105 1.208 . S
O112 Cd113 2.223 . S
O112 C120 1.315 . S
Cd113 O112 2.223 . S
Cd113 O116 2.297 . S
Cd113 O117 2.439 . S
Cd113 O123 2.240 1_545 S
Cd114 O115 2.240 . S
Cd114 O122 2.223 1_545 S
Cd114 O124 2.297 1_545 S
Cd114 O125 2.439 . S
O115 Cd114 2.240 . S
O115 C120 1.279 . S
O116 Cd113 2.297 . S
O116 C118 1.247 . S
O117 Cd113 2.439 . S
O117 C118 1.208 . S
C118 O116 1.247 . S
C118 O117 1.208 . S
C119 O124 1.247 1_545 S
C119 O125 1.208 . S
C120 O112 1.315 . S
C120 O115 1.279 . S
C121 O122 1.315 . S
C121 O123 1.279 . S
O122 Cd114 2.223 1_565 S
O122 C121 1.315 . S
O123 Cd113 2.240 1_565 S
O123 C121 1.279 . S
O124 Cd114 2.297 1_565 S
O124 C119 1.247 1_565 S
O125 Cd114 2.439 . S
O125 C119 1.208 . S
O126 Cd127 2.223 . S
O126 C134 1.315 . S
Cd127 O126 2.223 . S
Cd127 O130 2.297 . S
Cd127 O131 2.439 . S
Cd127 O137 2.240 . S
Cd128 O129 2.240 . S
Cd128 O136 2.223 . S
Cd128 O138 2.297 . S
Cd128 O139 2.439 . S
O129 Cd128 2.240 . S
O129 C134 1.279 . S
O130 Cd127 2.297 . S
O130 C132 1.247 . S
O131 Cd127 2.439 . S
O131 C132 1.208 . S
C132 O130 1.247 . S
C132 O131 1.208 . S
C133 O138 1.247 . S
C133 O139 1.208 . S
C134 O126 1.315 . S
C134 O129 1.279 . S
C135 O136 1.315 . S
C135 O137 1.279 . S
O136 Cd128 2.223 . S
O136 C135 1.315 . S
O137 Cd127 2.240 . S
O137 C135 1.279 . S
O138 Cd128 2.297 . S
O138 C133 1.247 . S
O139 Cd128 2.439 . S
O139 C133 1.208 . S
O140 Cd141 2.223 1_545 S
O140 C148 1.315 1_545 S
Cd141 O140 2.223 1_565 S
Cd141 O144 2.297 . S
Cd141 O145 2.439 . S
Cd141 O151 2.240 1_565 S
Cd142 O143 2.240 1_545 S
Cd142 O150 2.223 . S
Cd142 O152 2.297 . S
Cd142 O153 2.439 1_545 S
O143 Cd142 2.240 1_565 S
O143 C148 1.279 . S
O144 Cd141 2.297 . S
O144 C146 1.247 . S
O145 Cd141 2.439 . S
O145 C146 1.208 . S
C146 O144 1.247 . S
C146 O145 1.208 . S
C147 O152 1.247 . S
C147 O153 1.208 1_545 S
C148 O140 1.315 1_565 S
C148 O143 1.279 . S
C149 O150 1.315 . S
C149 O151 1.279 . S
O150 Cd142 2.223 . S
O150 C149 1.315 . S
O151 Cd141 2.240 1_545 S
O151 C149 1.279 . S
O152 Cd142 2.297 . S
O152 C147 1.247 . S
O153 Cd142 2.439 1_565 S
O153 C147 1.208 1_565 S
O154 Cd155 2.223 . S
O154 C162 1.315 . S
Cd155 O154 2.223 . S
Cd155 O158 2.297 . S
Cd155 O159 2.439 1_554 S
Cd155 O165 2.249 . S
Cd156 O157 2.240 1_556 S
Cd156 O164 2.223 1_556 S
Cd156 O166 2.297 . S
Cd156 O167 2.439 . S
O157 Cd156 2.240 1_554 S
O157 C162 1.279 . S
O158 Cd155 2.297 . S
O158 C160 1.247 . S
O159 Cd155 2.439 1_556 S
O159 C160 1.208 1_556 S
C160 O158 1.247 . S
C160 O159 1.208 1_554 S
C161 O166 1.247 . S
C161 O167 1.208 . S
C162 O154 1.315 . S
C162 O157 1.279 . S
C163 O164 1.315 . S
C163 O165 1.285 . S
O164 Cd156 2.223 1_554 S
O164 C163 1.315 . S
O165 Cd155 2.249 . S
O165 C163 1.285 . S
O166 Cd156 2.297 . S
O166 C161 1.247 . S
O167 Cd156 2.439 . S
O167 C161 1.208 . S
O168 Cd169 2.223 . S
O168 C176 1.315 . S
Cd169 O168 2.223 . S
Cd169 O172 2.297 . S
Cd169 O173 2.439 . S
Cd169 O179 2.240 . S
Cd170 O171 2.240 1_556 S
Cd170 O178 2.223 1_556 S
Cd170 O180 2.297 . S
Cd170 O181 2.439 . S
O171 Cd170 2.240 1_554 S
O171 C176 1.279 . S
O172 Cd169 2.297 . S
O172 C174 1.247 . S
O173 Cd169 2.439 . S
O173 C174 1.208 . S
C174 O172 1.247 . S
C174 O173 1.208 . S
C175 O180 1.247 . S
C175 O181 1.208 . S
C176 O168 1.315 . S
C176 O171 1.279 . S
C177 O178 1.315 . S
C177 O179 1.279 . S
O178 Cd170 2.223 1_554 S
O178 C177 1.315 . S
O179 Cd169 2.240 . S
O179 C177 1.279 . S
O180 Cd170 2.297 . S
O180 C175 1.247 . S
O181 Cd170 2.439 . S
O181 C175 1.208 . S
O182 Cd183 2.223 . S
O182 C190 1.315 . S
Cd183 O182 2.223 . S
Cd183 O186 2.297 . S
Cd183 O187 2.439 1_554 S
Cd183 O193 2.240 1_554 S
Cd184 O185 2.240 1_556 S
Cd184 O192 2.223 1_556 S
Cd184 O194 2.297 . S
Cd184 O195 2.439 . S
O185 Cd184 2.240 1_554 S
O185 C190 1.279 . S
O186 Cd183 2.297 . S
O186 C188 1.247 . S
O187 Cd183 2.439 1_556 S
O187 C188 1.208 1_556 S
C188 O186 1.247 . S
C188 O187 1.208 1_554 S
C189 O194 1.247 . S
C189 O195 1.208 . S
C190 O182 1.315 . S
C190 O185 1.279 . S
C191 O192 1.315 . S
C191 O193 1.279 1_554 S
O192 Cd184 2.223 1_554 S
O192 C191 1.315 . S
O193 Cd183 2.240 1_556 S
O193 C191 1.279 1_556 S
O194 Cd184 2.297 . S
O194 C189 1.247 . S
O195 Cd184 2.439 . S
O195 C189 1.208 . S
O196 Cd197 2.223 . S
O196 C204 1.315 . S
Cd197 O196 2.223 . S
Cd197 O200 2.297 . S
Cd197 O201 2.439 . S
Cd197 O207 2.240 . S
Cd198 O199 2.240 . S
Cd198 O206 2.223 . S
Cd198 O208 2.297 . S
Cd198 O209 2.439 . S
O199 Cd198 2.240 . S
O199 C204 1.279 . S
O200 Cd197 2.297 . S
O200 C202 1.247 . S
O201 Cd197 2.439 . S
O201 C202 1.208 . S
C202 O200 1.247 . S
C202 O201 1.208 . S
C203 O208 1.247 . S
C203 O209 1.208 . S
C204 O196 1.315 . S
C204 O199 1.279 . S
C205 O206 1.315 . S
C205 O207 1.279 . S
O206 Cd198 2.223 . S
O206 C205 1.315 . S
O207 Cd197 2.240 . S
O207 C205 1.279 . S
O208 Cd198 2.297 . S
O208 C203 1.247 . S
O209 Cd198 2.439 . S
O209 C203 1.208 . S
O210 Cd211 2.223 . S
O210 C218 1.315 . S
Cd211 O210 2.223 . S
Cd211 O214 2.297 . S
Cd211 O215 2.439 . S
Cd211 O221 2.240 . S
Cd212 O213 2.240 . S
Cd212 O220 2.223 . S
Cd212 O222 2.297 . S
Cd212 O223 2.439 . S
O213 Cd212 2.240 . S
O213 C218 1.279 . S
O214 Cd211 2.297 . S
O214 C216 1.247 . S
O215 Cd211 2.439 . S
O215 C216 1.208 . S
C216 O214 1.247 . S
C216 O215 1.208 . S
C217 O222 1.247 . S
C217 O223 1.208 . S
C218 O210 1.315 . S
C218 O213 1.279 . S
C219 O220 1.315 . S
C219 O221 1.279 . S
O220 Cd212 2.223 . S
O220 C219 1.315 . S
O221 Cd211 2.240 . S
O221 C219 1.279 . S
O222 Cd212 2.297 . S
O222 C217 1.247 . S
O223 Cd212 2.439 . S
O223 C217 1.208 . S
O224 Cd225 2.223 . S
O224 C232 1.315 . S
Cd225 O224 2.223 . S
Cd225 O228 2.297 . S
Cd225 O229 2.439 . S
Cd225 O235 2.240 . S
Cd226 O227 2.240 . S
Cd226 O234 2.223 1_545 S
Cd226 O236 2.297 . S
Cd226 O237 2.439 . S
O227 Cd226 2.240 . S
O227 C232 1.279 . S
O228 Cd225 2.297 . S
O228 C230 1.247 . S
O229 Cd225 2.439 . S
O229 C230 1.208 . S
C230 O228 1.247 . S
C230 O229 1.208 . S
C231 O236 1.247 . S
C231 O237 1.208 . S
C232 O224 1.315 . S
C232 O227 1.279 . S
C233 O234 1.315 . S
C233 O235 1.279 1_565 S
O234 Cd226 2.223 1_565 S
O234 C233 1.315 . S
O235 Cd225 2.240 . S
O235 C233 1.279 1_545 S
O236 Cd226 2.297 . S
O236 C231 1.247 . S
O237 Cd226 2.439 . S
O237 C231 1.208 . S
O238 Cd239 2.223 . S
O238 C246 1.315 . S
Cd239 O238 2.223 . S
Cd239 O242 2.297 . S
Cd239 O243 2.439 . S
Cd239 O249 2.240 . S
Cd240 O241 2.240 . S
Cd240 O248 2.223 . S
Cd240 O250 2.297 . S
Cd240 O251 2.439 . S
O241 Cd240 2.240 . S
O241 C246 1.279 . S
O242 Cd239 2.297 . S
O242 C244 1.247 . S
O243 Cd239 2.439 . S
O243 C244 1.208 . S
C244 O242 1.247 . S
C244 O243 1.208 . S
C245 O250 1.247 . S
C245 O251 1.208 . S
C246 O238 1.315 . S
C246 O241 1.279 . S
C247 O248 1.315 . S
C247 O249 1.279 . S
O248 Cd240 2.223 . S
O248 C247 1.315 . S
O249 Cd239 2.240 . S
O249 C247 1.279 . S
O250 Cd240 2.297 . S
O250 C245 1.247 . S
O251 Cd240 2.439 . S
O251 C245 1.208 . S
O252 Cd253 2.223 . S
O252 C260 1.315 . S
Cd253 O252 2.223 . S
Cd253 O256 2.297 . S
Cd253 O257 2.439 . S
Cd253 O263 2.240 . S
Cd254 O255 2.240 . S
Cd254 O262 2.223 . S
Cd254 O264 2.297 . S
Cd254 O265 2.439 . S
O255 Cd254 2.240 . S
O255 C260 1.279 . S
O256 Cd253 2.297 . S
O256 C258 1.247 . S
O257 Cd253 2.439 . S
O257 C258 1.208 . S
C258 O256 1.247 . S
C258 O257 1.208 . S
C259 O264 1.247 . S
C259 O265 1.208 . S
C260 O252 1.315 . S
C260 O255 1.279 . S
C261 O262 1.315 . S
C261 O263 1.279 . S
O262 Cd254 2.223 . S
O262 C261 1.315 . S
O263 Cd253 2.240 . S
O263 C261 1.279 . S
O264 Cd254 2.297 . S
O264 C259 1.247 . S
O265 Cd254 2.439 . S
O265 C259 1.208 . S
O266 Cd267 2.223 . S
O266 C274 1.315 . S
Cd267 O266 2.223 . S
Cd267 O270 2.297 1_545 S
Cd267 O271 2.439 1_545 S
Cd267 O277 2.240 . S
Cd268 O269 2.240 . S
Cd268 O276 2.223 . S
Cd268 O278 2.297 . S
Cd268 O279 2.439 . S
O269 Cd268 2.240 . S
O269 C274 1.279 . S
O270 Cd267 2.297 1_565 S
O270 C272 1.247 . S
O271 Cd267 2.439 1_565 S
O271 C272 1.208 . S
C272 O270 1.247 . S
C272 O271 1.208 . S
C273 O278 1.247 . S
C273 O279 1.208 . S
C274 O266 1.315 . S
C274 O269 1.279 . S
C275 O276 1.315 . S
C275 O277 1.279 . S
O276 Cd268 2.223 . S
O276 C275 1.315 . S
O277 Cd267 2.240 . S
O277 C275 1.279 . S
O278 Cd268 2.297 . S
O278 C273 1.247 . S
O279 Cd268 2.439 . S
O279 C273 1.208 . S
O280 Cd281 2.223 . S
O280 C288 1.315 . S
Cd281 O280 2.223 . S
Cd281 O284 2.297 . S
Cd281 O285 2.439 . S
Cd281 O291 2.240 1_554 S
Cd282 O283 2.240 . S
Cd282 O290 2.223 . S
Cd282 O292 2.297 1_554 S
Cd282 O293 2.439 1_554 S
O283 Cd282 2.240 . S
O283 C288 1.279 . S
O284 Cd281 2.297 . S
O284 C286 1.247 . S
O285 Cd281 2.439 . S
O285 C286 1.208 . S
C286 O284 1.247 . S
C286 O285 1.208 . S
C287 O292 1.247 . S
C287 O293 1.208 . S
C288 O280 1.315 . S
C288 O283 1.279 . S
C289 O290 1.315 . S
C289 O291 1.279 1_554 S
O290 Cd282 2.223 . S
O290 C289 1.315 . S
O291 Cd281 2.240 1_556 S
O291 C289 1.279 1_556 S
O292 Cd282 2.297 1_556 S
O292 C287 1.247 . S
O293 Cd282 2.439 1_556 S
O293 C287 1.208 . S
O294 Cd295 2.223 . S
O294 C302 1.315 . S
Cd295 O294 2.223 . S
Cd295 O298 2.297 . S
Cd295 O299 2.439 . S
Cd295 O305 2.240 . S
Cd296 O297 2.240 . S
Cd296 O304 2.223 . S
Cd296 O306 2.297 . S
Cd296 O307 2.439 . S
O297 Cd296 2.240 . S
O297 C302 1.279 . S
O298 Cd295 2.297 . S
O298 C300 1.247 . S
O299 Cd295 2.439 . S
O299 C300 1.208 . S
C300 O298 1.247 . S
C300 O299 1.208 . S
C301 O306 1.247 . S
C301 O307 1.208 . S
C302 O294 1.315 . S
C302 O297 1.279 . S
C303 O304 1.315 . S
C303 O305 1.279 . S
O304 Cd296 2.223 . S
O304 C303 1.315 . S
O305 Cd295 2.240 . S
O305 C303 1.279 . S
O306 Cd296 2.297 . S
O306 C301 1.247 . S
O307 Cd296 2.439 . S
O307 C301 1.208 . S
O308 Cd309 2.223 . S
O308 C316 1.315 . S
Cd309 O308 2.223 . S
Cd309 O312 2.297 . S
Cd309 O313 2.439 . S
Cd309 O319 2.240 . S
Cd310 O311 2.240 . S
Cd310 O318 2.223 . S
Cd310 O320 2.297 . S
Cd310 O321 2.439 . S
O311 Cd310 2.240 . S
O311 C316 1.279 . S
O312 Cd309 2.297 . S
O312 C314 1.247 . S
O313 Cd309 2.439 . S
O313 C314 1.208 . S
C314 O312 1.247 . S
C314 O313 1.208 . S
C315 O320 1.247 . S
C315 O321 1.208 . S
C316 O308 1.315 . S
C316 O311 1.279 . S
C317 O318 1.315 . S
C317 O319 1.279 . S
O318 Cd310 2.223 . S
O318 C317 1.315 . S
O319 Cd309 2.240 . S
O319 C317 1.279 . S
O320 Cd310 2.297 . S
O320 C315 1.247 . S
O321 Cd310 2.439 . S
O321 C315 1.208 . S
O322 Cd323 2.223 . S
O322 C330 1.315 . S
Cd323 O322 2.223 . S
Cd323 O326 2.297 . S
Cd323 O327 2.439 . S
Cd323 O333 2.240 . S
Cd324 O325 2.240 . S
Cd324 O332 2.223 . S
Cd324 O334 2.297 . S
Cd324 O335 2.439 . S
O325 Cd324 2.240 . S
O325 C330 1.279 . S
O326 Cd323 2.297 . S
O326 C328 1.247 . S
O327 Cd323 2.439 . S
O327 C328 1.208 . S
C328 O326 1.247 . S
C328 O327 1.208 . S
C329 O334 1.247 . S
C329 O335 1.208 . S
C330 O322 1.315 . S
C330 O325 1.279 . S
C331 O332 1.315 . S
C331 O333 1.279 . S
O332 Cd324 2.223 . S
O332 C331 1.315 . S
O333 Cd323 2.240 . S
O333 C331 1.279 . S
O334 Cd324 2.297 . S
O334 C329 1.247 . S
O335 Cd324 2.439 . S
O335 C329 1.208 . S
Dy336 O340 2.398 . S
Dy336 O341 2.491 1_556 S
Dy336 O342 2.403 . S
Dy336 O343 2.664 1_655 S
Dy336 O347 2.321 1_655 S
Dy336 O351 2.310 1_656 S
Dy336 O352 2.351 1_546 S
C337 O348 1.185 . S
C337 O349 1.355 . S
C338 O340 1.185 . S
C338 O341 1.355 1_556 S
Dy339 O343 2.310 1_554 S
Dy339 O346 2.351 . S
Dy339 O348 2.398 . S
Dy339 O349 2.491 . S
Dy339 O350 2.403 . S
Dy339 O351 2.664 . S
Dy339 O353 2.326 1_545 S
O340 Dy336 2.398 . S
O340 C338 1.185 . S
O341 Dy336 2.491 1_554 S
O341 C338 1.355 1_554 S
O342 Dy336 2.403 . S
O342 C344 1.254 1_655 S
O343 Dy336 2.664 1_455 S
O343 Dy339 2.310 1_556 S
O343 C344 1.268 . S
C344 O342 1.254 1_455 S
C344 O343 1.268 . S
C345 O350 1.254 . S
C345 O351 1.268 . S
O346 Dy339 2.351 . S
O346 C354 1.257 . S
O347 Dy336 2.321 1_455 S
O347 C354 1.273 1_556 S
O348 C337 1.185 . S
O348 Dy339 2.398 . S
O349 C337 1.355 . S
O349 Dy339 2.491 . S
O350 Dy339 2.403 . S
O350 C345 1.254 . S
O351 Dy336 2.310 1_454 S
O351 Dy339 2.664 . S
O351 C345 1.268 . S
O352 Dy336 2.351 1_564 S
O352 C355 1.249 1_655 S
O353 Dy339 2.326 1_565 S
O353 C355 1.267 . S
C354 O346 1.257 . S
C354 O347 1.273 1_554 S
C355 O352 1.249 1_455 S
C355 O353 1.267 . S
Dy356 O360 2.398 . S
Dy356 O361 2.491 . S
Dy356 O362 2.403 . S
Dy356 O363 2.664 . S
Dy356 O367 2.326 . S
Dy356 O371 2.310 . S
Dy356 O372 2.351 . S
C357 O368 1.185 . S
C357 O369 1.355 . S
C358 O360 1.185 . S
C358 O361 1.355 . S
Dy359 O363 2.310 . S
Dy359 O366 2.351 . S
Dy359 O368 2.398 . S
Dy359 O369 2.491 . S
Dy359 O370 2.403 . S
Dy359 O371 2.664 . S
Dy359 O373 2.326 . S
O360 Dy356 2.398 . S
O360 C358 1.185 . S
O361 Dy356 2.491 . S
O361 C358 1.355 . S
O362 Dy356 2.403 . S
O362 C364 1.254 . S
O363 Dy356 2.664 . S
O363 Dy359 2.310 . S
O363 C364 1.268 . S
C364 O362 1.254 . S
C364 O363 1.268 . S
C365 O370 1.254 . S
C365 O371 1.268 . S
O366 Dy359 2.351 . S
O366 C374 1.249 . S
O367 Dy356 2.326 . S
O367 C374 1.267 . S
O368 C357 1.185 . S
O368 Dy359 2.398 . S
O369 C357 1.355 . S
O369 Dy359 2.491 . S
O370 Dy359 2.403 . S
O370 C365 1.254 . S
O371 Dy356 2.310 . S
O371 Dy359 2.664 . S
O371 C365 1.268 . S
O372 Dy356 2.351 . S
O372 C375 1.249 . S
O373 Dy359 2.326 . S
O373 C375 1.267 . S
C374 O366 1.249 . S
C374 O367 1.267 . S
C375 O372 1.249 . S
C375 O373 1.267 . S
Dy376 O380 2.398 . S
Dy376 O381 2.491 1_545 S
Dy376 O382 2.403 . S
Dy376 O383 2.664 . S
Dy376 O387 2.326 1_545 S
Dy376 O391 2.310 . S
Dy376 O392 2.351 . S
C377 O388 1.185 . S
C377 O389 1.355 . S
C378 O380 1.185 1_565 S
C378 O381 1.355 . S
Dy379 O383 2.310 . S
Dy379 O386 2.351 1_545 S
Dy379 O388 2.398 . S
Dy379 O389 2.491 . S
Dy379 O390 2.403 . S
Dy379 O391 2.664 . S
Dy379 O393 2.326 . S
O380 Dy376 2.398 . S
O380 C378 1.185 1_545 S
O381 Dy376 2.491 1_565 S
O381 C378 1.355 . S
O382 Dy376 2.403 . S
O382 C384 1.254 . S
O383 Dy376 2.664 . S
O383 Dy379 2.310 . S
O383 C384 1.268 . S
C384 O382 1.254 . S
C384 O383 1.268 . S
C385 O390 1.254 . S
C385 O391 1.268 . S
O386 Dy379 2.351 1_565 S
O386 C394 1.249 . S
O387 Dy376 2.326 1_565 S
O387 C394 1.267 . S
O388 C377 1.185 . S
O388 Dy379 2.398 . S
O389 C377 1.355 . S
O389 Dy379 2.491 . S
O390 Dy379 2.403 . S
O390 C385 1.254 . S
O391 Dy376 2.310 . S
O391 Dy379 2.664 . S
O391 C385 1.268 . S
O392 Dy376 2.351 . S
O392 C395 1.249 . S
O393 Dy379 2.326 . S
O393 C395 1.267 . S
C394 O386 1.249 . S
C394 O387 1.267 . S
C395 O392 1.249 . S
C395 O393 1.267 . S
Dy396 O400 2.398 . S
Dy396 O401 2.491 . S
Dy396 O402 2.403 . S
Dy396 O403 2.664 . S
Dy396 O407 2.326 . S
Dy396 O411 2.310 . S
Dy396 O412 2.351 . S
C397 O408 1.185 . S
C397 O409 1.355 . S
C398 O400 1.185 . S
C398 O401 1.355 . S
Dy399 O403 2.310 . S
Dy399 O406 2.351 . S
Dy399 O408 2.398 . S
Dy399 O409 2.491 . S
Dy399 O410 2.403 . S
Dy399 O411 2.664 . S
Dy399 O413 2.326 . S
O400 Dy396 2.398 . S
O400 C398 1.185 . S
O401 Dy396 2.491 . S
O401 C398 1.355 . S
O402 Dy396 2.403 . S
O402 C404 1.254 . S
O403 Dy396 2.664 . S
O403 Dy399 2.310 . S
O403 C404 1.268 . S
C404 O402 1.254 . S
C404 O403 1.268 . S
C405 O410 1.254 . S
C405 O411 1.268 . S
O406 Dy399 2.351 . S
O406 C414 1.249 . S
O407 Dy396 2.326 . S
O407 C414 1.267 . S
O408 C397 1.185 . S
O408 Dy399 2.398 . S
O409 C397 1.355 . S
O409 Dy399 2.491 . S
O410 Dy399 2.403 . S
O410 C405 1.254 . S
O411 Dy396 2.310 . S
O411 Dy399 2.664 . S
O411 C405 1.268 . S
O412 Dy396 2.351 . S
O412 C415 1.249 . S
O413 Dy399 2.326 . S
O413 C415 1.267 . S
C414 O406 1.249 . S
C414 O407 1.267 . S
C415 O412 1.249 . S
C415 O413 1.267 . S
Dy416 O420 2.398 . S
Dy416 O421 2.491 1_455 S
Dy416 O422 2.403 . S
Dy416 O423 2.664 . S
Dy416 O427 2.326 . S
Dy416 O431 2.310 1_455 S
Dy416 O432 2.351 1_545 S
C417 O428 1.185 . S
C417 O429 1.355 . S
C418 O420 1.185 1_655 S
C418 O421 1.355 . S
Dy419 O423 2.310 . S
Dy419 O426 2.351 . S
Dy419 O428 2.398 . S
Dy419 O429 2.491 . S
Dy419 O430 2.403 1_455 S
Dy419 O431 2.664 1_455 S
Dy419 O433 2.326 1_545 S
O420 Dy416 2.398 . S
O420 C418 1.185 1_455 S
O421 Dy416 2.491 1_655 S
O421 C418 1.355 . S
O422 Dy416 2.403 . S
O422 C424 1.254 . S
O423 Dy416 2.664 . S
O423 Dy419 2.310 . S
O423 C424 1.268 . S
C424 O422 1.254 . S
C424 O423 1.268 . S
C425 O430 1.254 . S
C425 O431 1.268 . S
O426 Dy419 2.351 . S
O426 C434 1.249 . S
O427 Dy416 2.326 . S
O427 C434 1.267 . S
O428 C417 1.185 . S
O428 Dy419 2.398 . S
O429 C417 1.355 . S
O429 Dy419 2.491 . S
O430 Dy419 2.403 1_655 S
O430 C425 1.254 . S
O431 Dy416 2.310 1_655 S
O431 Dy419 2.664 1_655 S
O431 C425 1.268 . S
O432 Dy416 2.351 1_565 S
O432 C435 1.249 . S
O433 Dy419 2.326 1_565 S
O433 C435 1.267 . S
C434 O426 1.249 . S
C434 O427 1.267 . S
C435 O432 1.249 . S
C435 O433 1.267 . S
Dy436 O440 2.398 . S
Dy436 O441 2.491 . S
Dy436 O442 2.403 . S
Dy436 O443 2.664 . S
Dy436 O447 2.326 . S
Dy436 O451 2.310 . S
Dy436 O452 2.351 . S
C437 O448 1.185 . S
C437 O449 1.355 . S
C438 O440 1.185 . S
C438 O441 1.355 . S
Dy439 O443 2.310 . S
Dy439 O446 2.351 . S
Dy439 O448 2.398 . S
Dy439 O449 2.491 . S
Dy439 O450 2.403 . S
Dy439 O451 2.664 . S
Dy439 O453 2.326 . S
O440 Dy436 2.398 . S
O440 C438 1.185 . S
O441 Dy436 2.491 . S
O441 C438 1.355 . S
O442 Dy436 2.403 . S
O442 C444 1.254 . S
O443 Dy436 2.664 . S
O443 Dy439 2.310 . S
O443 C444 1.268 . S
C444 O442 1.254 . S
C444 O443 1.268 . S
C445 O450 1.254 . S
C445 O451 1.268 . S
O446 Dy439 2.351 . S
O446 C454 1.249 . S
O447 Dy436 2.326 . S
O447 C454 1.267 . S
O448 C437 1.185 . S
O448 Dy439 2.398 . S
O449 C437 1.355 . S
O449 Dy439 2.491 . S
O450 Dy439 2.403 . S
O450 C445 1.254 . S
O451 Dy436 2.310 . S
O451 Dy439 2.664 . S
O451 C445 1.268 . S
O452 Dy436 2.351 . S
O452 C455 1.249 . S
O453 Dy439 2.326 . S
O453 C455 1.267 . S
C454 O446 1.249 . S
C454 O447 1.267 . S
C455 O452 1.249 . S
C455 O453 1.267 . S
Dy456 O460 2.398 1_545 S
Dy456 O461 2.491 . S
Dy456 O462 2.403 1_545 S
Dy456 O463 2.664 1_544 S
Dy456 O467 2.326 1_545 S
Dy456 O471 2.310 . S
Dy456 O472 2.351 . S
C457 O468 1.185 . S
C457 O469 1.355 . S
C458 O460 1.185 . S
C458 O461 1.355 1_565 S
Dy459 O463 2.310 1_545 S
Dy459 O466 2.351 . S
Dy459 O468 2.398 . S
Dy459 O469 2.491 . S
Dy459 O470 2.403 . S
Dy459 O471 2.664 1_556 S
Dy459 O473 2.326 . S
O460 Dy456 2.398 1_565 S
O460 C458 1.185 . S
O461 Dy456 2.491 . S
O461 C458 1.355 1_545 S
O462 Dy456 2.403 1_565 S
O462 C464 1.254 . S
O463 Dy456 2.664 1_566 S
O463 Dy459 2.310 1_565 S
O463 C464 1.268 1_556 S
C464 O462 1.254 . S
C464 O463 1.268 1_554 S
C465 O470 1.254 1_554 S
C465 O471 1.268 . S
O466 Dy459 2.351 . S
O466 C474 1.249 1_546 S
O467 Dy456 2.326 1_565 S
O467 C474 1.267 . S
O468 C457 1.185 . S
O468 Dy459 2.398 . S
O469 C457 1.355 . S
O469 Dy459 2.491 . S
O470 Dy459 2.403 . S
O470 C465 1.254 1_556 S
O471 Dy456 2.310 . S
O471 Dy459 2.664 1_554 S
O471 C465 1.268 . S
O472 Dy456 2.351 . S
O472 C475 1.249 . S
O473 Dy459 2.326 . S
O473 C475 1.267 1_556 S
C474 O466 1.249 1_564 S
C474 O467 1.267 . S
C475 O472 1.249 . S
C475 O473 1.267 1_554 S
Dy476 O480 2.398 . S
Dy476 O481 2.491 . S
Dy476 O482 2.403 . S
Dy476 O483 2.664 . S
Dy476 O487 2.326 . S
Dy476 O491 2.310 . S
Dy476 O492 2.351 . S
C477 O488 1.185 . S
C477 O489 1.355 . S
C478 O480 1.185 . S
C478 O481 1.355 . S
Dy479 O483 2.310 . S
Dy479 O486 2.351 . S
Dy479 O488 2.398 . S
Dy479 O489 2.491 . S
Dy479 O490 2.403 . S
Dy479 O491 2.664 . S
Dy479 O493 2.326 . S
O480 Dy476 2.398 . S
O480 C478 1.185 . S
O481 Dy476 2.491 . S
O481 C478 1.355 . S
O482 Dy476 2.403 . S
O482 C484 1.254 . S
O483 Dy476 2.664 . S
O483 Dy479 2.310 . S
O483 C484 1.268 . S
C484 O482 1.254 . S
C484 O483 1.268 . S
C485 O490 1.254 . S
C485 O491 1.268 . S
O486 Dy479 2.351 . S
O486 C494 1.249 . S
O487 Dy476 2.326 . S
O487 C494 1.267 . S
O488 C477 1.185 . S
O488 Dy479 2.398 . S
O489 C477 1.355 . S
O489 Dy479 2.491 . S
O490 Dy479 2.403 . S
O490 C485 1.254 . S
O491 Dy476 2.310 . S
O491 Dy479 2.664 . S
O491 C485 1.268 . S
O492 Dy476 2.351 . S
O492 C495 1.249 . S
O493 Dy479 2.326 . S
O493 C495 1.267 . S
C494 O486 1.249 . S
C494 O487 1.267 . S
C495 O492 1.249 . S
C495 O493 1.267 . S
Dy496 O500 2.398 . S
Dy496 O501 2.491 . S
Dy496 O502 2.403 . S
Dy496 O503 2.664 1_556 S
Dy496 O507 2.326 . S
Dy496 O511 2.310 1_556 S
Dy496 O512 2.351 1_556 S
C497 O508 1.185 . S
C497 O509 1.355 . S
C498 O500 1.185 . S
C498 O501 1.355 . S
Dy499 O503 2.310 . S
Dy499 O506 2.351 . S
Dy499 O508 2.398 . S
Dy499 O509 2.491 . S
Dy499 O510 2.403 . S
Dy499 O511 2.664 . S
Dy499 O513 2.326 . S
O500 Dy496 2.398 . S
O500 C498 1.185 . S
O501 Dy496 2.491 . S
O501 C498 1.355 . S
O502 Dy496 2.403 . S
O502 C504 1.236 1_556 S
O503 Dy496 2.664 1_554 S
O503 Dy499 2.310 . S
O503 C504 1.281 . S
C504 O502 1.236 1_554 S
C504 O503 1.281 . S
C505 O510 1.254 . S
C505 O511 1.268 . S
O506 Dy499 2.351 . S
O506 C514 1.249 1_554 S
O507 Dy496 2.326 . S
O507 C514 1.267 . S
O508 C497 1.185 . S
O508 Dy499 2.398 . S
O509 C497 1.355 . S
O509 Dy499 2.491 . S
O510 Dy499 2.403 . S
O510 C505 1.254 . S
O511 Dy496 2.310 1_554 S
O511 Dy499 2.664 . S
O511 C505 1.268 . S
O512 Dy496 2.351 1_554 S
O512 C515 1.249 . S
O513 Dy499 2.326 . S
O513 C515 1.267 . S
C514 O506 1.249 1_556 S
C514 O507 1.267 . S
C515 O512 1.249 . S
C515 O513 1.267 . S
Dy516 O520 2.398 . S
Dy516 O521 2.491 . S
Dy516 O522 2.403 . S
Dy516 O523 2.664 . S
Dy516 O527 2.326 . S
Dy516 O531 2.310 . S
Dy516 O532 2.351 . S
C517 O528 1.185 . S
C517 O529 1.355 . S
C518 O520 1.185 . S
C518 O521 1.355 . S
Dy519 O523 2.310 . S
Dy519 O526 2.351 . S
Dy519 O528 2.398 . S
Dy519 O529 2.491 . S
Dy519 O530 2.403 . S
Dy519 O531 2.664 . S
Dy519 O533 2.326 . S
O520 Dy516 2.398 . S
O520 C518 1.185 . S
O521 Dy516 2.491 . S
O521 C518 1.355 . S
O522 Dy516 2.403 . S
O522 C524 1.254 . S
O523 Dy516 2.664 . S
O523 Dy519 2.310 . S
O523 C524 1.268 . S
C524 O522 1.254 . S
C524 O523 1.268 . S
C525 O530 1.254 . S
C525 O531 1.268 . S
O526 Dy519 2.351 . S
O526 C534 1.249 . S
O527 Dy516 2.326 . S
O527 C534 1.267 . S
O528 C517 1.185 . S
O528 Dy519 2.398 . S
O529 C517 1.355 . S
O529 Dy519 2.491 . S
O530 Dy519 2.403 . S
O530 C525 1.254 . S
O531 Dy516 2.310 . S
O531 Dy519 2.664 . S
O531 C525 1.268 . S
O532 Dy516 2.351 . S
O532 C535 1.249 . S
O533 Dy519 2.326 . S
O533 C535 1.267 . S
C534 O526 1.249 . S
C534 O527 1.267 . S
C535 O532 1.249 . S
C535 O533 1.267 . S
Dy536 O540 2.398 1_455 S
Dy536 O541 2.491 1_455 S
Dy536 O542 2.403 . S
Dy536 O543 2.664 . S
Dy536 O547 2.326 1_455 S
Dy536 O551 2.310 . S
Dy536 O552 2.351 . S
C537 O548 1.185 . S
C537 O549 1.355 . S
C538 O540 1.185 . S
C538 O541 1.355 . S
Dy539 O543 2.310 . S
Dy539 O546 2.351 1_455 S
Dy539 O548 2.398 . S
Dy539 O549 2.491 . S
Dy539 O550 2.403 . S
Dy539 O551 2.664 . S
Dy539 O553 2.326 . S
O540 Dy536 2.398 1_655 S
O540 C538 1.185 . S
O541 Dy536 2.491 1_655 S
O541 C538 1.355 . S
O542 Dy536 2.403 . S
O542 C544 1.254 . S
O543 Dy536 2.664 . S
O543 Dy539 2.310 . S
O543 C544 1.268 . S
C544 O542 1.254 . S
C544 O543 1.268 . S
C545 O550 1.254 . S
C545 O551 1.268 . S
O546 Dy539 2.351 1_655 S
O546 C554 1.249 . S
O547 Dy536 2.326 1_655 S
O547 C554 1.267 . S
O548 C537 1.185 . S
O548 Dy539 2.398 . S
O549 C537 1.355 . S
O549 Dy539 2.491 . S
O550 Dy539 2.403 . S
O550 C545 1.254 . S
O551 Dy536 2.310 . S
O551 Dy539 2.664 . S
O551 C545 1.268 . S
O552 Dy536 2.351 . S
O552 C555 1.249 . S
O553 Dy539 2.326 . S
O553 C555 1.267 . S
C554 O546 1.249 . S
C554 O547 1.267 . S
C555 O552 1.249 . S
C555 O553 1.267 . S
Dy556 O560 2.398 . S
Dy556 O561 2.491 . S
Dy556 O562 2.403 . S
Dy556 O563 2.664 . S
Dy556 O567 2.326 . S
Dy556 O571 2.310 . S
Dy556 O572 2.351 . S
C557 O568 1.185 . S
C557 O569 1.355 . S
C558 O560 1.185 . S
C558 O561 1.355 . S
Dy559 O563 2.310 . S
Dy559 O566 2.351 . S
Dy559 O568 2.398 . S
Dy559 O569 2.491 . S
Dy559 O570 2.403 . S
Dy559 O571 2.664 . S
Dy559 O573 2.326 . S
O560 Dy556 2.398 . S
O560 C558 1.185 . S
O561 Dy556 2.491 . S
O561 C558 1.355 . S
O562 Dy556 2.403 . S
O562 C564 1.254 . S
O563 Dy556 2.664 . S
O563 Dy559 2.310 . S
O563 C564 1.268 . S
C564 O562 1.254 . S
C564 O563 1.268 . S
C565 O570 1.254 . S
C565 O571 1.268 . S
O566 Dy559 2.351 . S
O566 C574 1.249 . S
O567 Dy556 2.326 . S
O567 C574 1.267 . S
O568 C557 1.185 . S
O568 Dy559 2.398 . S
O569 C557 1.355 . S
O569 Dy559 2.491 . S
O570 Dy559 2.403 . S
O570 C565 1.254 . S
O571 Dy556 2.310 . S
O571 Dy559 2.664 . S
O571 C565 1.268 . S
O572 Dy556 2.351 . S
O572 C575 1.249 . S
O573 Dy559 2.326 . S
O573 C575 1.267 . S
C574 O566 1.249 . S
C574 O567 1.267 . S
C575 O572 1.249 . S
C575 O573 1.267 . S
Dy576 O580 2.398 . S
Dy576 O581 2.491 . S
Dy576 O582 2.403 . S
Dy576 O583 2.664 . S
Dy576 O587 2.326 . S
Dy576 O591 2.310 . S
Dy576 O592 2.351 . S
C577 O588 1.185 . S
C577 O589 1.355 . S
C578 O580 1.185 . S
C578 O581 1.355 . S
Dy579 O583 2.310 . S
Dy579 O586 2.351 . S
Dy579 O588 2.398 . S
Dy579 O589 2.491 . S
Dy579 O590 2.403 . S
Dy579 O591 2.664 . S
Dy579 O593 2.326 . S
O580 Dy576 2.398 . S
O580 C578 1.185 . S
O581 Dy576 2.491 . S
O581 C578 1.355 . S
O582 Dy576 2.403 . S
O582 C584 1.254 . S
O583 Dy576 2.664 . S
O583 Dy579 2.310 . S
O583 C584 1.268 . S
C584 O582 1.254 . S
C584 O583 1.268 . S
C585 O590 1.254 . S
C585 O591 1.268 . S
O586 Dy579 2.351 . S
O586 C594 1.249 . S
O587 Dy576 2.326 . S
O587 C594 1.267 . S
O588 C577 1.185 . S
O588 Dy579 2.398 . S
O589 C577 1.355 . S
O589 Dy579 2.491 . S
O590 Dy579 2.403 . S
O590 C585 1.254 . S
O591 Dy576 2.310 . S
O591 Dy579 2.664 . S
O591 C585 1.268 . S
O592 Dy576 2.351 . S
O592 C595 1.249 . S
O593 Dy579 2.326 . S
O593 C595 1.267 . S
C594 O586 1.249 . S
C594 O587 1.267 . S
C595 O592 1.249 . S
C595 O593 1.267 . S
Dy596 O600 2.398 . S
Dy596 O601 2.491 . S
Dy596 O602 2.403 . S
Dy596 O603 2.664 . S
Dy596 O607 2.326 . S
Dy596 O611 2.310 . S
Dy596 O612 2.351 . S
C597 O608 1.185 . S
C597 O609 1.355 . S
C598 O600 1.185 . S
C598 O601 1.355 . S
Dy599 O603 2.310 . S
Dy599 O606 2.351 . S
Dy599 O608 2.398 . S
Dy599 O609 2.491 . S
Dy599 O610 2.403 . S
Dy599 O611 2.664 . S
Dy599 O613 2.326 . S
O600 Dy596 2.398 . S
O600 C598 1.185 . S
O601 Dy596 2.491 . S
O601 C598 1.355 . S
O602 Dy596 2.403 . S
O602 C604 1.254 . S
O603 Dy596 2.664 . S
O603 Dy599 2.310 . S
O603 C604 1.268 . S
C604 O602 1.254 . S
C604 O603 1.268 . S
C605 O610 1.254 . S
C605 O611 1.268 . S
O606 Dy599 2.351 . S
O606 C614 1.249 . S
O607 Dy596 2.326 . S
O607 C614 1.267 . S
O608 C597 1.185 . S
O608 Dy599 2.398 . S
O609 C597 1.355 . S
O609 Dy599 2.491 . S
O610 Dy599 2.403 . S
O610 C605 1.254 . S
O611 Dy596 2.310 . S
O611 Dy599 2.664 . S
O611 C605 1.268 . S
O612 Dy596 2.351 . S
O612 C615 1.249 . S
O613 Dy599 2.326 . S
O613 C615 1.267 . S
C614 O606 1.249 . S
C614 O607 1.267 . S
C615 O612 1.249 . S
C615 O613 1.267 . S
Dy616 O620 2.398 . S
Dy616 O621 2.491 . S
Dy616 O622 2.403 . S
Dy616 O623 2.664 . S
Dy616 O627 2.326 . S
Dy616 O631 2.310 . S
Dy616 O632 2.351 . S
C617 O628 1.185 . S
C617 O629 1.355 . S
C618 O620 1.185 . S
C618 O621 1.355 . S
Dy619 O623 2.310 . S
Dy619 O626 2.351 . S
Dy619 O628 2.398 . S
Dy619 O629 2.491 . S
Dy619 O630 2.403 . S
Dy619 O631 2.664 . S
Dy619 O633 2.326 . S
O620 Dy616 2.398 . S
O620 C618 1.185 . S
O621 Dy616 2.491 . S
O621 C618 1.355 . S
O622 Dy616 2.403 . S
O622 C624 1.254 . S
O623 Dy616 2.664 . S
O623 Dy619 2.310 . S
O623 C624 1.268 . S
C624 O622 1.254 . S
C624 O623 1.268 . S
C625 O630 1.254 . S
C625 O631 1.268 . S
O626 Dy619 2.351 . S
O626 C634 1.249 . S
O627 Dy616 2.326 . S
O627 C634 1.267 . S
O628 C617 1.185 . S
O628 Dy619 2.398 . S
O629 C617 1.355 . S
O629 Dy619 2.491 . S
O630 Dy619 2.403 . S
O630 C625 1.254 . S
O631 Dy616 2.310 . S
O631 Dy619 2.664 . S
O631 C625 1.268 . S
O632 Dy616 2.351 . S
O632 C635 1.249 . S
O633 Dy619 2.326 . S
O633 C635 1.267 . S
C634 O626 1.249 . S
C634 O627 1.267 . S
C635 O632 1.249 . S
C635 O633 1.267 . S
Dy636 O640 2.398 1_554 S
Dy636 O641 2.491 . S
Dy636 O642 2.403 1_554 S
Dy636 O643 2.664 1_554 S
Dy636 O647 2.331 . S
Dy636 O651 2.310 . S
Dy636 O652 2.351 . S
C637 O648 1.185 . S
C637 O649 1.355 . S
C638 O640 1.185 1_554 S
C638 O641 1.355 . S
Dy639 O643 2.310 1_654 S
Dy639 O646 2.351 . S
Dy639 O648 2.398 . S
Dy639 O649 2.491 . S
Dy639 O650 2.403 . S
Dy639 O651 2.664 1_655 S
Dy639 O653 2.326 1_655 S
O640 Dy636 2.398 1_556 S
O640 C638 1.185 1_556 S
O641 Dy636 2.491 . S
O641 C638 1.355 . S
O642 Dy636 2.403 1_556 S
O642 C644 1.254 . S
O643 Dy636 2.664 1_556 S
O643 Dy639 2.310 1_456 S
O643 C644 1.268 . S
C644 O642 1.254 . S
C644 O643 1.268 . S
C645 O650 1.254 1_455 S
C645 O651 1.268 . S
O646 Dy639 2.351 . S
O646 C654 1.249 1_655 S
O647 Dy636 2.331 . S
O647 C654 1.279 . S
O648 C637 1.185 . S
O648 Dy639 2.398 . S
O649 C637 1.355 . S
O649 Dy639 2.491 . S
O650 Dy639 2.403 . S
O650 C645 1.254 1_655 S
O651 Dy636 2.310 . S
O651 Dy639 2.664 1_455 S
O651 C645 1.268 . S
O652 Dy636 2.351 . S
O652 C655 1.249 . S
O653 Dy639 2.326 1_455 S
O653 C655 1.267 . S
C654 O646 1.249 1_455 S
C654 O647 1.279 . S
C655 O652 1.249 . S
C655 O653 1.267 . S
C656 C657 1.363 1_455 S
C656 C662 1.379 . S
C656 N664 1.356 . S
C657 C656 1.363 1_655 S
C657 C663 1.363 . S
C658 C659 1.363 1_655 S
C658 C663 1.379 . S
C658 N665 1.356 . S
C659 C658 1.363 1_455 S
C659 C662 1.363 . S
N660 C662 1.356 1_554 S
N660 H672 0.984 . S
N660 H673 0.985 . S
N661 C663 1.356 . S
N661 H666 0.984 . S
N661 H667 0.985 . S
C662 C656 1.379 . S
C662 C659 1.363 . S
C662 N660 1.356 1_556 S
C663 C657 1.363 . S
C663 C658 1.379 . S
C663 N661 1.356 . S
N664 C656 1.356 . S
N664 H670 0.984 . S
N664 H671 0.984 . S
N665 C658 1.356 . S
N665 H668 0.984 . S
N665 H669 0.985 . S
H666 N661 0.984 . S
H667 N661 0.985 . S
H668 N665 0.984 . S
H669 N665 0.985 . S
H670 N664 0.984 . S
H671 N664 0.984 . S
H672 N660 0.984 . S
H673 N660 0.985 . S
C674 C675 1.363 . S
C674 C680 1.379 . S
C674 N682 1.356 . S
C675 C674 1.363 . S
C675 C681 1.363 . S
C676 C677 1.363 . S
C676 C681 1.379 . S
C676 N683 1.356 . S
C677 C676 1.363 . S
C677 C680 1.363 . S
N678 C680 1.356 . S
N678 H690 0.984 . S
N678 H691 0.985 . S
N679 C681 1.356 . S
N679 H684 0.984 . S
N679 H685 0.985 . S
C680 C674 1.379 . S
C680 C677 1.363 . S
C680 N678 1.356 . S
C681 C675 1.363 . S
C681 C676 1.379 . S
C681 N679 1.356 . S
N682 C674 1.356 . S
N682 H688 0.984 . S
N682 H689 0.984 . S
N683 C676 1.356 . S
N683 H686 0.984 . S
N683 H687 0.985 . S
H684 N679 0.984 . S
H685 N679 0.985 . S
H686 N683 0.984 . S
H687 N683 0.985 . S
H688 N682 0.984 . S
H689 N682 0.984 . S
H690 N678 0.984 . S
H691 N678 0.985 . S
C692 C693 1.363 . S
C692 C698 1.379 . S
C692 N700 1.356 . S
C693 C692 1.363 . S
C693 C699 1.363 . S
C694 C695 1.363 . S
C694 C699 1.379 . S
C694 N701 1.356 . S
C695 C694 1.363 . S
C695 C698 1.363 . S
N696 C698 1.356 . S
N696 H708 0.984 . S
N696 H709 0.985 . S
N697 C699 1.356 . S
N697 H702 0.984 . S
N697 H703 0.985 . S
C698 C692 1.379 . S
C698 C695 1.363 . S
C698 N696 1.356 . S
C699 C693 1.363 . S
C699 C694 1.379 . S
C699 N697 1.356 . S
N700 C692 1.356 . S
N700 H706 0.984 . S
N700 H707 0.984 . S
N701 C694 1.356 . S
N701 H704 0.984 . S
N701 H705 0.985 . S
H702 N697 0.984 . S
H703 N697 0.985 . S
H704 N701 0.984 . S
H705 N701 0.985 . S
H706 N700 0.984 . S
H707 N700 0.984 . S
H708 N696 0.984 . S
H709 N696 0.985 . S
C710 C711 1.363 . S
C710 C716 1.379 . S
C710 N718 1.356 . S
C711 C710 1.363 . S
C711 C717 1.363 . S
C712 C713 1.363 . S
C712 C717 1.379 . S
C712 N719 1.356 . S
C713 C712 1.363 . S
C713 C716 1.363 . S
N714 C716 1.356 . S
N714 H726 0.984 . S
N714 H727 0.985 . S
N715 C717 1.356 . S
N715 H720 0.984 . S
N715 H721 0.985 . S
C716 C710 1.379 . S
C716 C713 1.363 . S
C716 N714 1.356 . S
C717 C711 1.363 . S
C717 C712 1.379 . S
C717 N715 1.356 . S
N718 C710 1.356 . S
N718 H724 0.984 . S
N718 H725 0.984 . S
N719 C712 1.356 . S
N719 H722 0.984 . S
N719 H723 0.985 . S
H720 N715 0.984 . S
H721 N715 0.985 . S
H722 N719 0.984 . S
H723 N719 0.985 . S
H724 N718 0.984 . S
H725 N718 0.984 . S
H726 N714 0.984 . S
H727 N714 0.985 . S
C728 C729 1.363 . S
C728 C734 1.379 . S
C728 N736 1.356 . S
C729 C728 1.363 . S
C729 C735 1.363 . S
C730 C731 1.363 . S
C730 C735 1.379 . S
C730 N737 1.356 . S
C731 C730 1.363 . S
C731 C734 1.363 . S
N732 C734 1.356 . S
N732 H744 0.984 . S
N732 H745 0.985 . S
N733 C735 1.356 . S
N733 H738 0.984 . S
N733 H739 0.985 . S
C734 C728 1.379 . S
C734 C731 1.363 . S
C734 N732 1.356 . S
C735 C729 1.363 . S
C735 C730 1.379 . S
C735 N733 1.356 . S
N736 C728 1.356 . S
N736 H742 0.984 1_455 S
N736 H743 0.984 . S
N737 C730 1.356 . S
N737 H740 0.984 . S
N737 H741 0.985 . S
H738 N733 0.984 . S
H739 N733 0.985 . S
H740 N737 0.984 . S
H741 N737 0.985 . S
H742 N736 0.984 1_655 S
H743 N736 0.984 . S
H744 N732 0.984 . S
H745 N732 0.985 . S
C746 C747 1.363 . S
C746 C752 1.379 . S
C746 N754 1.356 . S
C747 C746 1.363 . S
C747 C753 1.363 . S
C748 C749 1.363 . S
C748 C753 1.379 . S
C748 N755 1.356 . S
C749 C748 1.363 . S
C749 C752 1.363 . S
N750 C752 1.356 . S
N750 H762 0.984 . S
N750 H763 0.985 . S
N751 C753 1.356 . S
N751 H756 0.984 . S
N751 H757 0.985 . S
C752 C746 1.379 . S
C752 C749 1.363 . S
C752 N750 1.356 . S
C753 C747 1.363 . S
C753 C748 1.379 . S
C753 N751 1.356 . S
N754 C746 1.356 . S
N754 H760 0.984 . S
N754 H761 0.984 . S
N755 C748 1.356 . S
N755 H758 0.984 . S
N755 H759 0.985 . S
H756 N751 0.984 . S
H757 N751 0.985 . S
H758 N755 0.984 . S
H759 N755 0.985 . S
H760 N754 0.984 . S
H761 N754 0.984 . S
H762 N750 0.984 . S
H763 N750 0.985 . S
C764 C765 1.363 . S
C764 C770 1.379 . S
C764 N772 1.356 . S
C765 C764 1.363 . S
C765 C771 1.363 . S
C766 C767 1.363 . S
C766 C771 1.379 . S
C766 N773 1.356 . S
C767 C766 1.363 . S
C767 C770 1.363 . S
N768 C770 1.356 . S
N768 H780 0.984 . S
N768 H781 0.985 . S
N769 C771 1.356 . S
N769 H774 0.984 . S
N769 H775 0.985 . S
C770 C764 1.379 . S
C770 C767 1.363 . S
C770 N768 1.356 . S
C771 C765 1.363 . S
C771 C766 1.379 . S
C771 N769 1.356 . S
N772 C764 1.356 . S
N772 H778 0.984 . S
N772 H779 0.984 . S
N773 C766 1.356 . S
N773 H776 0.984 . S
N773 H777 0.985 1_554 S
H774 N769 0.984 . S
H775 N769 0.985 . S
H776 N773 0.984 . S
H777 N773 0.985 1_556 S
H778 N772 0.984 . S
H779 N772 0.984 . S
H780 N768 0.984 . S
H781 N768 0.985 . S
C782 C783 1.363 . S
C782 C788 1.379 . S
C782 N790 1.356 . S
C783 C782 1.363 . S
C783 C789 1.363 . S
C784 C785 1.363 . S
C784 C789 1.379 . S
C784 N791 1.356 . S
C785 C784 1.363 . S
C785 C788 1.363 . S
N786 C788 1.356 . S
N786 H798 0.984 . S
N786 H799 0.985 . S
N787 C789 1.356 . S
N787 H792 0.984 . S
N787 H793 0.985 . S
C788 C782 1.379 . S
C788 C785 1.363 . S
C788 N786 1.356 . S
C789 C783 1.363 . S
C789 C784 1.379 . S
C789 N787 1.356 . S
N790 C782 1.356 . S
N790 H796 0.984 . S
N790 H797 0.984 . S
N791 C784 1.356 . S
N791 H794 0.984 . S
N791 H795 0.985 . S
H792 N787 0.984 . S
H793 N787 0.985 . S
H794 N791 0.984 . S
H795 N791 0.985 . S
H796 N790 0.984 . S
H797 N790 0.984 . S
H798 N786 0.984 . S
H799 N786 0.985 . S
C800 C801 1.363 . S
C800 C806 1.379 . S
C800 N808 1.356 . S
C801 C800 1.363 . S
C801 C807 1.363 . S
C802 C803 1.363 . S
C802 C807 1.379 . S
C802 N809 1.356 1_655 S
C803 C802 1.363 . S
C803 C806 1.363 . S
N804 C806 1.356 . S
N804 H816 0.984 . S
N804 H817 0.985 . S
N805 C807 1.356 1_565 S
N805 H810 0.984 . S
N805 H811 0.985 . S
C806 C800 1.379 . S
C806 C803 1.363 . S
C806 N804 1.356 . S
C807 C801 1.363 . S
C807 C802 1.379 . S
C807 N805 1.356 1_545 S
N808 C800 1.356 . S
N808 H814 0.984 . S
N808 H815 0.984 . S
N809 C802 1.356 1_455 S
N809 H812 0.984 . S
N809 H813 0.985 1_545 S
H810 N805 0.984 . S
H811 N805 0.985 . S
H812 N809 0.984 . S
H813 N809 0.985 1_565 S
H814 N808 0.984 . S
H815 N808 0.984 . S
H816 N804 0.984 . S
H817 N804 0.985 . S
C818 C819 1.363 . S
C818 C824 1.379 . S
C818 N826 1.356 . S
C819 C818 1.363 . S
C819 C825 1.363 . S
C820 C821 1.363 . S
C820 C825 1.379 . S
C820 N827 1.356 . S
C821 C820 1.363 . S
C821 C824 1.363 . S
N822 C824 1.356 . S
N822 H834 0.984 . S
N822 H835 0.985 . S
N823 C825 1.356 . S
N823 H828 0.984 . S
N823 H829 0.985 . S
C824 C818 1.379 . S
C824 C821 1.363 . S
C824 N822 1.356 . S
C825 C819 1.363 . S
C825 C820 1.379 . S
C825 N823 1.356 . S
N826 C818 1.356 . S
N826 H832 0.984 . S
N826 H833 0.984 . S
N827 C820 1.356 . S
N827 H830 0.984 . S
N827 H831 0.985 . S
H828 N823 0.984 . S
H829 N823 0.985 . S
H830 N827 0.984 . S
H831 N827 0.985 . S
H832 N826 0.984 . S
H833 N826 0.984 . S
H834 N822 0.984 . S
H835 N822 0.985 . S
C836 C837 1.363 . S
C836 C842 1.379 . S
C836 N844 1.356 . S
C837 C836 1.363 . S
C837 C843 1.363 . S
C838 C839 1.363 1_565 S
C838 C843 1.379 1_565 S
C838 N845 1.356 . S
C839 C838 1.363 1_545 S
C839 C842 1.363 . S
N840 C842 1.356 . S
N840 H852 0.984 . S
N840 H853 0.985 . S
N841 C843 1.356 1_565 S
N841 H846 0.984 . S
N841 H847 0.985 . S
C842 C836 1.379 . S
C842 C839 1.363 . S
C842 N840 1.356 . S
C843 C837 1.363 . S
C843 C838 1.379 1_545 S
C843 N841 1.356 1_545 S
N844 C836 1.356 . S
N844 H850 0.984 . S
N844 H851 0.984 . S
N845 C838 1.356 . S
N845 H848 0.984 . S
N845 H849 0.985 . S
H846 N841 0.984 . S
H847 N841 0.985 . S
H848 N845 0.984 . S
H849 N845 0.985 . S
H850 N844 0.984 . S
H851 N844 0.984 . S
H852 N840 0.984 . S
H853 N840 0.985 . S
C854 C855 1.363 . S
C854 C860 1.379 . S
C854 N862 1.356 . S
C855 C854 1.363 . S
C855 C861 1.363 . S
C856 C857 1.363 . S
C856 C861 1.379 . S
C856 N863 1.356 . S
C857 C856 1.363 . S
C857 C860 1.363 . S
N858 C860 1.356 . S
N858 H870 0.984 . S
N858 H871 0.985 . S
N859 C861 1.356 . S
N859 H864 0.984 . S
N859 H865 0.985 . S
C860 C854 1.379 . S
C860 C857 1.363 . S
C860 N858 1.356 . S
C861 C855 1.363 . S
C861 C856 1.379 . S
C861 N859 1.356 . S
N862 C854 1.356 . S
N862 H868 0.984 . S
N862 H869 0.984 . S
N863 C856 1.356 . S
N863 H866 0.984 . S
N863 H867 0.985 . S
H864 N859 0.984 . S
H865 N859 0.985 . S
H866 N863 0.984 . S
H867 N863 0.985 . S
H868 N862 0.984 . S
H869 N862 0.984 . S
H870 N858 0.984 . S
H871 N858 0.985 . S
C872 C873 1.363 . S
C872 C878 1.379 . S
C872 N880 1.356 . S
C873 C872 1.363 . S
C873 C879 1.363 . S
C874 C875 1.363 . S
C874 C879 1.379 . S
C874 N881 1.356 . S
C875 C874 1.363 . S
C875 C878 1.363 . S
N876 C878 1.356 1_465 S
N876 H888 0.984 . S
N876 H889 0.985 . S
N877 C879 1.356 . S
N877 H882 0.984 . S
N877 H883 0.985 . S
C878 C872 1.379 . S
C878 C875 1.363 . S
C878 N876 1.356 1_645 S
C879 C873 1.363 . S
C879 C874 1.379 . S
C879 N877 1.356 . S
N880 C872 1.356 . S
N880 H886 0.984 1_545 S
N880 H887 0.984 . S
N881 C874 1.356 . S
N881 H884 0.984 . S
N881 H885 0.985 . S
H882 N877 0.984 . S
H883 N877 0.985 . S
H884 N881 0.984 . S
H885 N881 0.985 . S
H886 N880 0.984 1_565 S
H887 N880 0.984 . S
H888 N876 0.984 . S
H889 N876 0.985 . S
C890 C891 1.363 . S
C890 C896 1.379 . S
C890 N898 1.356 . S
C891 C890 1.363 . S
C891 C897 1.363 . S
C892 C893 1.363 . S
C892 C897 1.379 . S
C892 N899 1.356 . S
C893 C892 1.363 . S
C893 C896 1.363 . S
N894 C896 1.356 . S
N894 H906 0.984 . S
N894 H907 0.985 . S
N895 C897 1.356 . S
N895 H900 0.984 . S
N895 H901 0.985 . S
C896 C890 1.379 . S
C896 C893 1.363 . S
C896 N894 1.356 . S
C897 C891 1.363 . S
C897 C892 1.379 . S
C897 N895 1.356 . S
N898 C890 1.356 . S
N898 H904 0.984 . S
N898 H905 0.984 . S
N899 C892 1.356 . S
N899 H902 0.984 . S
N899 H903 0.985 . S
H900 N895 0.984 . S
H901 N895 0.985 . S
H902 N899 0.984 . S
H903 N899 0.985 . S
H904 N898 0.984 . S
H905 N898 0.984 . S
H906 N894 0.984 . S
H907 N894 0.985 . S
C908 C909 1.363 . S
C908 C914 1.379 . S
C908 N916 1.356 . S
C909 C908 1.363 . S
C909 C915 1.363 . S
C910 C911 1.363 . S
C910 C915 1.379 . S
C910 N917 1.356 . S
C911 C910 1.363 . S
C911 C914 1.363 . S
N912 C914 1.356 . S
N912 H924 0.984 . S
N912 H925 0.985 . S
N913 C915 1.336 1_565 S
N913 H918 0.982 1_565 S
N913 H919 1.009 . S
C914 C908 1.379 . S
C914 C911 1.363 . S
C914 N912 1.356 . S
C915 C909 1.363 . S
C915 C910 1.379 . S
C915 N913 1.336 1_545 S
N916 C908 1.356 . S
N916 H922 0.984 . S
N916 H923 0.984 . S
N917 C910 1.356 . S
N917 H920 0.984 . S
N917 H921 0.985 1_545 S
H918 N913 0.982 1_545 S
H919 N913 1.009 . S
H920 N917 0.984 . S
H921 N917 0.985 1_565 S
H922 N916 0.984 . S
H923 N916 0.984 . S
H924 N912 0.984 . S
H925 N912 0.985 . S
C926 C927 1.363 . S
C926 C932 1.379 . S
C926 N934 1.356 . S
C927 C926 1.363 . S
C927 C933 1.363 . S
C928 C929 1.363 . S
C928 C933 1.379 . S
C928 N935 1.356 . S
C929 C928 1.363 . S
C929 C932 1.363 . S
N930 C932 1.356 . S
N930 H942 0.984 . S
N930 H943 0.985 . S
N931 C933 1.356 . S
N931 H936 0.984 . S
N931 H937 0.985 . S
C932 C926 1.379 . S
C932 C929 1.363 . S
C932 N930 1.356 . S
C933 C927 1.363 . S
C933 C928 1.379 . S
C933 N931 1.356 . S
N934 C926 1.356 . S
N934 H940 0.984 . S
N934 H941 0.984 . S
N935 C928 1.356 . S
N935 H938 0.984 . S
N935 H939 0.985 . S
H936 N931 0.984 . S
H937 N931 0.985 . S
H938 N935 0.984 . S
H939 N935 0.985 . S
H940 N934 0.984 . S
H941 N934 0.984 . S
H942 N930 0.984 . S
H943 N930 0.985 . S
C944 C945 1.363 . S
C944 C950 1.379 1_565 S
C944 N952 1.356 . S
C945 C944 1.363 . S
C945 C951 1.363 . S
C946 C947 1.363 . S
C946 C951 1.379 . S
C946 N953 1.356 . S
C947 C946 1.363 . S
C947 C950 1.363 1_565 S
N948 C950 1.356 . S
N948 H960 0.984 . S
N948 H961 0.985 . S
N949 C951 1.356 . S
N949 H954 0.984 . S
N949 H955 0.985 . S
C950 C944 1.379 1_545 S
C950 C947 1.363 1_545 S
C950 N948 1.356 . S
C951 C945 1.363 . S
C951 C946 1.379 . S
C951 N949 1.356 . S
N952 C944 1.356 . S
N952 H958 0.984 1_565 S
N952 H959 0.984 . S
N953 C946 1.356 . S
N953 H956 0.984 . S
N953 H957 0.985 . S
H954 N949 0.984 . S
H955 N949 0.985 . S
H956 N953 0.984 . S
H957 N953 0.985 . S
H958 N952 0.984 1_545 S
H959 N952 0.984 . S
H960 N948 0.984 . S
H961 N948 0.985 . S
C962 C963 1.363 1_556 S
C962 C968 1.379 . S
C962 N970 1.356 . S
C963 C962 1.363 1_554 S
C963 C969 1.363 . S
C964 C965 1.363 . S
C964 C969 1.379 . S
C964 N971 1.356 . S
C965 C964 1.363 . S
C965 C968 1.363 1_554 S
N966 C968 1.356 . S
N966 H978 0.984 . S
N966 H979 0.985 . S
N967 C969 1.356 . S
N967 H972 0.984 . S
N967 H973 0.985 . S
C968 C962 1.379 . S
C968 C965 1.363 1_556 S
C968 N966 1.356 . S
C969 C963 1.363 . S
C969 C964 1.379 . S
C969 N967 1.356 . S
N970 C962 1.356 . S
N970 H976 0.984 . S
N970 H977 0.984 . S
N971 C964 1.356 . S
N971 H974 0.984 . S
N971 H975 0.985 . S
H972 N967 0.984 . S
H973 N967 0.985 . S
H974 N971 0.984 . S
H975 N971 0.985 . S
H976 N970 0.984 . S
H977 N970 0.984 . S
H978 N966 0.984 . S
H979 N966 0.985 . S
C980 C981 1.363 . S
C980 C986 1.379 . S
C980 N988 1.356 . S
C981 C980 1.363 . S
C981 C987 1.363 . S
C982 C983 1.363 . S
C982 C987 1.379 . S
C982 N989 1.356 . S
C983 C982 1.363 . S
C983 C986 1.363 . S
N984 C986 1.356 . S
N984 H996 0.984 . S
N984 H997 0.985 . S
N985 C987 1.356 . S
N985 H990 0.984 . S
N985 H991 0.985 . S
C986 C980 1.379 . S
C986 C983 1.363 . S
C986 N984 1.356 . S
C987 C981 1.363 . S
C987 C982 1.379 . S
C987 N985 1.356 . S
N988 C980 1.356 . S
N988 H994 0.984 . S
N988 H995 0.984 . S
N989 C982 1.356 . S
N989 H992 0.984 . S
N989 H993 0.985 . S
H990 N985 0.984 . S
H991 N985 0.985 . S
H992 N989 0.984 . S
H993 N989 0.985 . S
H994 N988 0.984 . S
H995 N988 0.984 . S
H996 N984 0.984 . S
H997 N984 0.985 . S
C998 C999 1.363 . S
C998 C1004 1.379 . S
C998 N1006 1.356 . S
C999 C998 1.363 . S
C999 C1005 1.363 . S
C1000 C1001 1.363 . S
C1000 C1005 1.379 . S
C1000 N1007 1.356 . S
C1001 C1000 1.363 . S
C1001 C1004 1.363 . S
N1002 C1004 1.356 . S
N1002 H1014 0.984 . S
N1002 H1015 0.985 . S
N1003 C1005 1.356 . S
N1003 H1008 0.984 . S
N1003 H1009 0.985 . S
C1004 C998 1.379 . S
C1004 C1001 1.363 . S
C1004 N1002 1.356 . S
C1005 C999 1.363 . S
C1005 C1000 1.379 . S
C1005 N1003 1.356 . S
N1006 C998 1.356 . S
N1006 H1012 0.984 . S
N1006 H1013 0.984 . S
N1007 C1000 1.356 . S
N1007 H1010 0.984 . S
N1007 H1011 0.985 . S
H1008 N1003 0.984 . S
H1009 N1003 0.985 . S
H1010 N1007 0.984 . S
H1011 N1007 0.985 . S
H1012 N1006 0.984 . S
H1013 N1006 0.984 . S
H1014 N1002 0.984 . S
H1015 N1002 0.985 . S
C1016 C1017 1.363 . S
C1016 C1022 1.379 . S
C1016 N1024 1.356 . S
C1017 C1016 1.363 . S
C1017 C1023 1.363 . S
C1018 C1019 1.363 . S
C1018 C1023 1.379 . S
C1018 N1025 1.356 . S
C1019 C1018 1.363 . S
C1019 C1022 1.363 . S
N1020 C1022 1.356 . S
N1020 H1032 0.984 . S
N1020 H1033 0.985 . S
N1021 C1023 1.356 . S
N1021 H1026 0.984 . S
N1021 H1027 0.985 . S
C1022 C1016 1.379 . S
C1022 C1019 1.363 . S
C1022 N1020 1.356 . S
C1023 C1017 1.363 . S
C1023 C1018 1.379 . S
C1023 N1021 1.356 . S
N1024 C1016 1.356 . S
N1024 H1030 0.984 . S
N1024 H1031 0.984 . S
N1025 C1018 1.356 . S
N1025 H1028 0.984 . S
N1025 H1029 0.985 . S
H1026 N1021 0.984 . S
H1027 N1021 0.985 . S
H1028 N1025 0.984 . S
H1029 N1025 0.985 . S
H1030 N1024 0.984 . S
H1031 N1024 0.984 . S
H1032 N1020 0.984 . S
H1033 N1020 0.985 . S
C1034 C1035 1.363 . S
C1034 C1040 1.379 . S
C1034 N1042 1.356 . S
C1035 C1034 1.363 . S
C1035 C1041 1.363 . S
C1036 C1037 1.363 . S
C1036 C1041 1.379 . S
C1036 N1043 1.356 . S
C1037 C1036 1.363 . S
C1037 C1040 1.363 . S
N1038 C1040 1.356 . S
N1038 H1050 0.984 . S
N1038 H1051 0.985 . S
N1039 C1041 1.356 . S
N1039 H1044 0.984 . S
N1039 H1045 0.985 . S
C1040 C1034 1.379 . S
C1040 C1037 1.363 . S
C1040 N1038 1.356 . S
C1041 C1035 1.363 . S
C1041 C1036 1.379 . S
C1041 N1039 1.356 . S
N1042 C1034 1.356 . S
N1042 H1048 0.984 . S
N1042 H1049 0.984 . S
N1043 C1036 1.356 . S
N1043 H1046 0.984 . S
N1043 H1047 0.985 . S
H1044 N1039 0.984 . S
H1045 N1039 0.985 . S
H1046 N1043 0.984 . S
H1047 N1043 0.985 . S
H1048 N1042 0.984 . S
H1049 N1042 0.984 . S
H1050 N1038 0.984 . S
H1051 N1038 0.985 . S
C1052 C1053 1.363 . S
C1052 C1058 1.379 . S
C1052 N1060 1.356 . S
C1053 C1052 1.363 . S
C1053 C1059 1.363 . S
C1054 C1055 1.363 . S
C1054 C1059 1.379 . S
C1054 N1061 1.356 . S
C1055 C1054 1.363 . S
C1055 C1058 1.363 . S
N1056 C1058 1.356 . S
N1056 H1068 0.984 . S
N1056 H1069 0.985 . S
N1057 C1059 1.356 . S
N1057 H1062 0.984 . S
N1057 H1063 0.985 . S
C1058 C1052 1.379 . S
C1058 C1055 1.363 . S
C1058 N1056 1.356 . S
C1059 C1053 1.363 . S
C1059 C1054 1.379 . S
C1059 N1057 1.356 . S
N1060 C1052 1.356 . S
N1060 H1066 0.984 . S
N1060 H1067 0.984 . S
N1061 C1054 1.356 . S
N1061 H1064 0.984 . S
N1061 H1065 0.985 . S
H1062 N1057 0.984 . S
H1063 N1057 0.985 . S
H1064 N1061 0.984 . S
H1065 N1061 0.985 . S
H1066 N1060 0.984 . S
H1067 N1060 0.984 . S
H1068 N1056 0.984 . S
H1069 N1056 0.985 . S
C1070 C1071 1.363 . S
C1070 C1076 1.379 . S
C1070 N1078 1.356 . S
C1071 C1070 1.363 . S
C1071 C1077 1.363 . S
C1072 C1073 1.363 . S
C1072 C1077 1.379 . S
C1072 N1079 1.356 . S
C1073 C1072 1.363 . S
C1073 C1076 1.363 . S
N1074 C1076 1.356 . S
N1074 H1086 0.984 . S
N1074 H1087 0.985 . S
N1075 C1077 1.356 . S
N1075 H1080 0.984 . S
N1075 H1081 0.985 . S
C1076 C1070 1.379 . S
C1076 C1073 1.363 . S
C1076 N1074 1.356 . S
C1077 C1071 1.363 . S
C1077 C1072 1.379 . S
C1077 N1075 1.356 . S
N1078 C1070 1.356 . S
N1078 H1084 0.984 . S
N1078 H1085 0.984 . S
N1079 C1072 1.356 . S
N1079 H1082 0.984 . S
N1079 H1083 0.985 . S
H1080 N1075 0.984 . S
H1081 N1075 0.985 . S
H1082 N1079 0.984 . S
H1083 N1079 0.985 . S
H1084 N1078 0.984 . S
H1085 N1078 0.984 . S
H1086 N1074 0.984 . S
H1087 N1074 0.985 . S
C1088 C1089 1.363 . S
C1088 C1094 1.379 . S
C1088 N1096 1.356 . S
C1089 C1088 1.363 . S
C1089 C1095 1.363 . S
C1090 C1091 1.363 . S
C1090 C1095 1.379 . S
C1090 N1097 1.356 1_455 S
C1091 C1090 1.363 . S
C1091 C1094 1.363 . S
N1092 C1094 1.356 . S
N1092 H1104 0.984 . S
N1092 H1105 0.985 . S
N1093 C1095 1.356 . S
N1093 H1098 0.984 . S
N1093 H1099 0.985 1_455 S
C1094 C1088 1.379 . S
C1094 C1091 1.363 . S
C1094 N1092 1.356 . S
C1095 C1089 1.363 . S
C1095 C1090 1.379 . S
C1095 N1093 1.356 . S
N1096 C1088 1.356 . S
N1096 H1102 0.984 . S
N1096 H1103 0.984 . S
N1097 C1090 1.356 1_655 S
N1097 H1100 0.984 . S
N1097 H1101 0.985 . S
H1098 N1093 0.984 . S
H1099 N1093 0.985 1_655 S
H1100 N1097 0.984 . S
H1101 N1097 0.985 . S
H1102 N1096 0.984 . S
H1103 N1096 0.984 . S
H1104 N1092 0.984 . S
H1105 N1092 0.985 . S
C1106 C1107 1.363 . S
C1106 C1112 1.379 . S
C1106 N1114 1.356 . S
C1107 C1106 1.363 . S
C1107 C1113 1.363 . S
C1108 C1109 1.363 . S
C1108 C1113 1.379 . S
C1108 N1115 1.356 . S
C1109 C1108 1.363 . S
C1109 C1112 1.363 . S
N1110 C1112 1.356 . S
N1110 H1122 0.984 . S
N1110 H1123 0.985 . S
N1111 C1113 1.356 . S
N1111 H1116 0.984 . S
N1111 H1117 0.985 . S
C1112 C1106 1.379 . S
C1112 C1109 1.363 . S
C1112 N1110 1.356 . S
C1113 C1107 1.363 . S
C1113 C1108 1.379 . S
C1113 N1111 1.356 . S
N1114 C1106 1.356 . S
N1114 H1120 0.984 . S
N1114 H1121 0.984 . S
N1115 C1108 1.356 . S
N1115 H1118 0.984 . S
N1115 H1119 0.985 . S
H1116 N1111 0.984 . S
H1117 N1111 0.985 . S
H1118 N1115 0.984 . S
H1119 N1115 0.985 . S
H1120 N1114 0.984 . S
H1121 N1114 0.984 . S
H1122 N1110 0.984 . S
H1123 N1110 0.985 . S
C1124 C1125 1.363 . S
C1124 C1130 1.379 . S
C1124 N1132 1.356 . S
C1125 C1124 1.363 . S
C1125 C1131 1.363 . S
C1126 C1127 1.363 . S
C1126 C1131 1.379 . S
C1126 N1133 1.356 . S
C1127 C1126 1.363 . S
C1127 C1130 1.363 . S
N1128 C1130 1.356 . S
N1128 H1140 0.984 . S
N1128 H1141 0.985 . S
N1129 C1131 1.356 . S
N1129 H1134 0.984 . S
N1129 H1135 0.985 . S
C1130 C1124 1.379 . S
C1130 C1127 1.363 . S
C1130 N1128 1.356 . S
C1131 C1125 1.363 . S
C1131 C1126 1.379 . S
C1131 N1129 1.356 . S
N1132 C1124 1.356 . S
N1132 H1138 0.984 . S
N1132 H1139 0.984 . S
N1133 C1126 1.356 . S
N1133 H1136 0.984 . S
N1133 H1137 0.985 . S
H1134 N1129 0.984 . S
H1135 N1129 0.985 . S
H1136 N1133 0.984 . S
H1137 N1133 0.985 . S
H1138 N1132 0.984 . S
H1139 N1132 0.984 . S
H1140 N1128 0.984 . S
H1141 N1128 0.985 . S
C1142 C1143 1.363 . S
C1142 C1148 1.379 . S
C1142 N1150 1.356 . S
C1143 C1142 1.363 . S
C1143 C1149 1.363 . S
C1144 C1145 1.363 . S
C1144 C1149 1.379 . S
C1144 N1151 1.356 . S
C1145 C1144 1.363 . S
C1145 C1148 1.363 . S
N1146 C1148 1.356 . S
N1146 H1158 0.984 . S
N1146 H1159 0.985 . S
N1147 C1149 1.356 . S
N1147 H1152 0.984 . S
N1147 H1153 0.985 . S
C1148 C1142 1.379 . S
C1148 C1145 1.363 . S
C1148 N1146 1.356 . S
C1149 C1143 1.363 . S
C1149 C1144 1.379 . S
C1149 N1147 1.356 . S
N1150 C1142 1.356 . S
N1150 H1156 0.984 . S
N1150 H1157 0.984 . S
N1151 C1144 1.356 . S
N1151 H1154 0.984 . S
N1151 H1155 0.985 . S
H1152 N1147 0.984 . S
H1153 N1147 0.985 . S
H1154 N1151 0.984 . S
H1155 N1151 0.985 . S
H1156 N1150 0.984 . S
H1157 N1150 0.984 . S
H1158 N1146 0.984 . S
H1159 N1146 0.985 . S
C1160 C1161 1.363 . S
C1160 C1166 1.379 . S
C1160 N1168 1.356 1_455 S
C1161 C1160 1.363 . S
C1161 C1167 1.363 . S
C1162 C1163 1.363 . S
C1162 C1167 1.379 . S
C1162 N1169 1.356 . S
C1163 C1162 1.363 . S
C1163 C1166 1.363 . S
N1164 C1166 1.356 1_655 S
N1164 H1176 0.984 . S
N1164 H1177 0.985 . S
N1165 C1167 1.356 . S
N1165 H1170 0.984 . S
N1165 H1171 0.985 . S
C1166 C1160 1.379 . S
C1166 C1163 1.363 . S
C1166 N1164 1.356 1_455 S
C1167 C1161 1.363 . S
C1167 C1162 1.379 . S
C1167 N1165 1.356 . S
N1168 C1160 1.356 1_655 S
N1168 H1174 0.984 . S
N1168 H1175 0.984 . S
N1169 C1162 1.356 . S
N1169 H1172 0.984 . S
N1169 H1173 0.985 . S
H1170 N1165 0.984 . S
H1171 N1165 0.985 . S
H1172 N1169 0.984 . S
H1173 N1169 0.985 . S
H1174 N1168 0.984 . S
H1175 N1168 0.984 . S
H1176 N1164 0.984 . S
H1177 N1164 0.985 . S
C1178 C1179 1.363 . S
C1178 C1184 1.379 . S
C1178 N1186 1.356 . S
C1179 C1178 1.363 . S
C1179 C1185 1.363 . S
C1180 C1181 1.363 . S
C1180 C1185 1.379 . S
C1180 N1187 1.356 . S
C1181 C1180 1.363 . S
C1181 C1184 1.363 . S
N1182 C1184 1.356 . S
N1182 H1194 0.984 . S
N1182 H1195 0.985 . S
N1183 C1185 1.356 . S
N1183 H1188 0.984 . S
N1183 H1189 0.985 . S
C1184 C1178 1.379 . S
C1184 C1181 1.363 . S
C1184 N1182 1.356 . S
C1185 C1179 1.363 . S
C1185 C1180 1.379 . S
C1185 N1183 1.356 . S
N1186 C1178 1.356 . S
N1186 H1192 0.984 . S
N1186 H1193 0.984 . S
N1187 C1180 1.356 . S
N1187 H1190 0.984 . S
N1187 H1191 0.985 . S
H1188 N1183 0.984 . S
H1189 N1183 0.985 . S
H1190 N1187 0.984 . S
H1191 N1187 0.985 . S
H1192 N1186 0.984 . S
H1193 N1186 0.984 . S
H1194 N1182 0.984 . S
H1195 N1182 0.985 . S
C1196 C1197 1.363 . S
C1196 C1202 1.379 . S
C1196 N1204 1.356 . S
C1197 C1196 1.363 . S
C1197 C1203 1.363 . S
C1198 C1199 1.363 . S
C1198 C1203 1.379 . S
C1198 N1205 1.356 . S
C1199 C1198 1.363 . S
C1199 C1202 1.363 . S
N1200 C1202 1.356 . S
N1200 H1212 0.984 . S
N1200 H1213 0.985 1_556 S
N1201 C1203 1.356 . S
N1201 H1206 0.984 . S
N1201 H1207 0.985 . S
C1202 C1196 1.379 . S
C1202 C1199 1.363 . S
C1202 N1200 1.356 . S
C1203 C1197 1.363 . S
C1203 C1198 1.379 . S
C1203 N1201 1.356 . S
N1204 C1196 1.356 . S
N1204 H1210 0.984 . S
N1204 H1211 0.984 . S
N1205 C1198 1.356 . S
N1205 H1208 0.984 . S
N1205 H1209 0.985 . S
H1206 N1201 0.984 . S
H1207 N1201 0.985 . S
H1208 N1205 0.984 . S
H1209 N1205 0.985 . S
H1210 N1204 0.984 . S
H1211 N1204 0.984 . S
H1212 N1200 0.984 . S
H1213 N1200 0.985 1_554 S
C1214 C1215 1.363 . S
C1214 C1220 1.379 . S
C1214 N1222 1.356 . S
C1215 C1214 1.363 . S
C1215 C1221 1.363 . S
C1216 C1217 1.363 . S
C1216 C1221 1.379 . S
C1216 N1223 1.356 . S
C1217 C1216 1.363 . S
C1217 C1220 1.363 . S
N1218 C1220 1.356 . S
N1218 H1230 0.984 . S
N1218 H1231 0.985 . S
N1219 C1221 1.356 . S
N1219 H1224 0.984 . S
N1219 H1225 0.985 . S
C1220 C1214 1.379 . S
C1220 C1217 1.363 . S
C1220 N1218 1.356 . S
C1221 C1215 1.363 . S
C1221 C1216 1.379 . S
C1221 N1219 1.356 . S
N1222 C1214 1.356 . S
N1222 H1228 0.984 . S
N1222 H1229 0.984 . S
N1223 C1216 1.356 . S
N1223 H1226 0.984 . S
N1223 H1227 0.985 . S
H1224 N1219 0.984 . S
H1225 N1219 0.985 . S
H1226 N1223 0.984 . S
H1227 N1223 0.985 . S
H1228 N1222 0.984 . S
H1229 N1222 0.984 . S
H1230 N1218 0.984 . S
H1231 N1218 0.985 . S
C1232 C1233 1.363 . S
C1232 C1238 1.379 . S
C1232 N1240 1.356 . S
C1233 C1232 1.363 . S
C1233 C1239 1.363 1_545 S
C1234 C1235 1.363 1_565 S
C1234 C1239 1.379 . S
C1234 N1241 1.356 . S
C1235 C1234 1.363 1_545 S
C1235 C1238 1.363 . S
N1236 C1238 1.356 . S
N1236 H1248 0.984 . S
N1236 H1249 0.985 . S
N1237 C1239 1.356 . S
N1237 H1242 0.984 . S
N1237 H1243 0.985 . S
C1238 C1232 1.379 . S
C1238 C1235 1.363 . S
C1238 N1236 1.356 . S
C1239 C1233 1.363 1_565 S
C1239 C1234 1.379 . S
C1239 N1237 1.356 . S
N1240 C1232 1.356 . S
N1240 H1246 0.984 . S
N1240 H1247 0.984 . S
N1241 C1234 1.356 . S
N1241 H1244 0.984 . S
N1241 H1245 0.985 . S
H1242 N1237 0.984 . S
H1243 N1237 0.985 . S
H1244 N1241 0.984 . S
H1245 N1241 0.985 . S
H1246 N1240 0.984 . S
H1247 N1240 0.984 . S
H1248 N1236 0.984 . S
H1249 N1236 0.985 . S
C1250 C1251 1.363 . S
C1250 C1256 1.379 . S
C1250 N1258 1.356 . S
C1251 C1250 1.363 . S
C1251 C1257 1.363 . S
C1252 C1253 1.363 . S
C1252 C1257 1.379 . S
C1252 N1259 1.356 . S
C1253 C1252 1.363 . S
C1253 C1256 1.363 . S
N1254 C1256 1.356 . S
N1254 H1266 0.984 . S
N1254 H1267 0.985 . S
N1255 C1257 1.356 . S
N1255 H1260 0.984 . S
N1255 H1261 0.985 . S
C1256 C1250 1.379 . S
C1256 C1253 1.363 . S
C1256 N1254 1.356 . S
C1257 C1251 1.363 . S
C1257 C1252 1.379 . S
C1257 N1255 1.356 . S
N1258 C1250 1.356 . S
N1258 H1264 0.984 . S
N1258 H1265 0.984 . S
N1259 C1252 1.356 . S
N1259 H1262 0.984 . S
N1259 H1263 0.985 . S
H1260 N1255 0.984 . S
H1261 N1255 0.985 . S
H1262 N1259 0.984 . S
H1263 N1259 0.985 . S
H1264 N1258 0.984 . S
H1265 N1258 0.984 . S
H1266 N1254 0.984 . S
H1267 N1254 0.985 . S
C1268 C1269 1.363 . S
C1268 C1274 1.379 . S
C1268 N1276 1.356 1_545 S
C1269 C1268 1.363 . S
C1269 C1275 1.363 . S
C1270 C1271 1.363 . S
C1270 C1275 1.379 . S
C1270 N1277 1.356 . S
C1271 C1270 1.363 . S
C1271 C1274 1.363 . S
N1272 C1274 1.356 1_565 S
N1272 H1284 0.984 . S
N1272 H1285 0.985 . S
N1273 C1275 1.356 . S
N1273 H1278 0.984 . S
N1273 H1279 0.985 . S
C1274 C1268 1.379 . S
C1274 C1271 1.363 . S
C1274 N1272 1.356 1_545 S
C1275 C1269 1.363 . S
C1275 C1270 1.379 . S
C1275 N1273 1.356 . S
N1276 C1268 1.356 1_565 S
N1276 H1282 0.984 . S
N1276 H1283 0.984 . S
N1277 C1270 1.356 . S
N1277 H1280 0.984 . S
N1277 H1281 0.985 . S
H1278 N1273 0.984 . S
H1279 N1273 0.985 . S
H1280 N1277 0.984 . S
H1281 N1277 0.985 . S
H1282 N1276 0.984 . S
H1283 N1276 0.984 . S
H1284 N1272 0.984 . S
H1285 N1272 0.985 . S
C1286 C1287 1.363 . S
C1286 C1292 1.379 . S
C1286 N1294 1.356 . S
C1287 C1286 1.363 . S
C1287 C1293 1.363 . S
C1288 C1289 1.363 . S
C1288 C1293 1.379 . S
C1288 N1295 1.356 . S
C1289 C1288 1.363 . S
C1289 C1292 1.363 . S
N1290 C1292 1.356 . S
N1290 H1302 0.984 . S
N1290 H1303 0.985 . S
N1291 C1293 1.356 . S
N1291 H1296 0.984 . S
N1291 H1297 0.985 . S
C1292 C1286 1.379 . S
C1292 C1289 1.363 . S
C1292 N1290 1.356 . S
C1293 C1287 1.363 . S
C1293 C1288 1.379 . S
C1293 N1291 1.356 . S
N1294 C1286 1.356 . S
N1294 H1300 0.984 . S
N1294 H1301 0.984 . S
N1295 C1288 1.356 . S
N1295 H1298 0.984 . S
N1295 H1299 0.985 . S
H1296 N1291 0.984 . S
H1297 N1291 0.985 . S
H1298 N1295 0.984 . S
H1299 N1295 0.985 . S
H1300 N1294 0.984 . S
H1301 N1294 0.984 . S
H1302 N1290 0.984 . S
H1303 N1290 0.985 . S
C1304 C1305 1.363 1_565 S
C1304 C1310 1.379 . S
C1304 N1312 1.356 . S
C1305 C1304 1.363 1_545 S
C1305 C1311 1.363 . S
C1306 C1307 1.363 . S
C1306 C1311 1.379 . S
C1306 N1313 1.356 . S
C1307 C1306 1.363 . S
C1307 C1310 1.363 1_545 S
N1308 C1310 1.356 . S
N1308 H1320 0.984 . S
N1308 H1321 0.985 . S
N1309 C1311 1.356 . S
N1309 H1314 0.984 . S
N1309 H1315 0.985 . S
C1310 C1304 1.379 . S
C1310 C1307 1.363 1_565 S
C1310 N1308 1.356 . S
C1311 C1305 1.363 . S
C1311 C1306 1.379 . S
C1311 N1309 1.356 . S
N1312 C1304 1.356 . S
N1312 H1318 0.984 . S
N1312 H1319 0.984 . S
N1313 C1306 1.356 . S
N1313 H1316 0.984 . S
N1313 H1317 0.985 . S
H1314 N1309 0.984 . S
H1315 N1309 0.985 . S
H1316 N1313 0.984 . S
H1317 N1313 0.985 . S
H1318 N1312 0.984 . S
H1319 N1312 0.984 . S
H1320 N1308 0.984 . S
H1321 N1308 0.985 . S
C1322 C1323 1.363 . S
C1322 C1328 1.379 . S
C1322 N1330 1.356 . S
C1323 C1322 1.363 . S
C1323 C1329 1.363 . S
C1324 C1325 1.363 . S
C1324 C1329 1.379 . S
C1324 N1331 1.356 . S
C1325 C1324 1.363 . S
C1325 C1328 1.363 . S
N1326 C1328 1.356 . S
N1326 H1338 0.984 . S
N1326 H1339 0.985 . S
N1327 C1329 1.356 . S
N1327 H1332 0.984 . S
N1327 H1333 0.985 . S
C1328 C1322 1.379 . S
C1328 C1325 1.363 . S
C1328 N1326 1.356 . S
C1329 C1323 1.363 . S
C1329 C1324 1.379 . S
C1329 N1327 1.356 . S
N1330 C1322 1.356 . S
N1330 H1336 0.984 . S
N1330 H1337 0.984 . S
N1331 C1324 1.356 . S
N1331 H1334 0.984 . S
N1331 H1335 0.985 . S
H1332 N1327 0.984 . S
H1333 N1327 0.985 . S
H1334 N1331 0.984 . S
H1335 N1331 0.985 . S
H1336 N1330 0.984 . S
H1337 N1330 0.984 . S
H1338 N1326 0.984 . S
H1339 N1326 0.985 . S
C1340 C1341 1.363 . S
C1340 C1346 1.379 . S
C1340 N1348 1.356 . S
C1341 C1340 1.363 . S
C1341 C1347 1.372 . S
C1342 C1343 1.363 . S
C1342 C1347 1.374 1_565 S
C1342 N1349 1.356 . S
C1343 C1342 1.363 . S
C1343 C1346 1.363 1_565 S
N1344 C1346 1.356 . S
N1344 H1356 0.984 . S
N1344 H1357 0.992 . S
N1345 C1347 1.355 . S
N1345 H1350 0.987 . S
N1345 H1351 0.982 1_545 S
C1346 C1340 1.379 . S
C1346 C1343 1.363 1_545 S
C1346 N1344 1.356 . S
C1347 C1341 1.372 . S
C1347 C1342 1.374 1_545 S
C1347 N1345 1.355 . S
N1348 C1340 1.356 . S
N1348 H1354 0.984 . S
N1348 H1355 0.984 . S
N1349 C1342 1.356 . S
N1349 H1352 0.984 . S
N1349 H1353 0.985 . S
H1350 N1345 0.987 . S
H1351 N1345 0.982 1_565 S
H1352 N1349 0.984 . S
H1353 N1349 0.985 . S
H1354 N1348 0.984 . S
H1355 N1348 0.984 . S
H1356 N1344 0.984 . S
H1357 N1344 0.992 . S
C1358 C1359 1.363 . S
C1358 C1364 1.379 . S
C1358 N1366 1.356 . S
C1359 C1358 1.363 . S
C1359 C1365 1.363 . S
C1360 C1361 1.363 . S
C1360 C1365 1.379 . S
C1360 N1367 1.356 . S
C1361 C1360 1.363 . S
C1361 C1364 1.363 . S
N1362 C1364 1.356 . S
N1362 H1374 0.984 . S
N1362 H1375 0.985 . S
N1363 C1365 1.356 . S
N1363 H1368 0.984 . S
N1363 H1369 0.985 . S
C1364 C1358 1.379 . S
C1364 C1361 1.363 . S
C1364 N1362 1.356 . S
C1365 C1359 1.363 . S
C1365 C1360 1.379 . S
C1365 N1363 1.356 . S
N1366 C1358 1.356 . S
N1366 H1372 0.984 . S
N1366 H1373 0.984 . S
N1367 C1360 1.356 . S
N1367 H1370 0.984 . S
N1367 H1371 0.985 . S
H1368 N1363 0.984 . S
H1369 N1363 0.985 . S
H1370 N1367 0.984 . S
H1371 N1367 0.985 . S
H1372 N1366 0.984 . S
H1373 N1366 0.984 . S
H1374 N1362 0.984 . S
H1375 N1362 0.985 . S
C1376 C1377 1.363 . S
C1376 C1382 1.379 . S
C1376 N1384 1.356 . S
C1377 C1376 1.363 . S
C1377 C1383 1.363 1_554 S
C1378 C1379 1.363 . S
C1378 C1383 1.379 . S
C1378 N1385 1.356 . S
C1379 C1378 1.363 . S
C1379 C1382 1.363 1_556 S
N1380 C1382 1.356 . S
N1380 H1392 0.984 . S
N1380 H1393 0.985 . S
N1381 C1383 1.356 . S
N1381 H1386 0.984 . S
N1381 H1387 0.985 . S
C1382 C1376 1.379 . S
C1382 C1379 1.363 1_554 S
C1382 N1380 1.356 . S
C1383 C1377 1.363 1_556 S
C1383 C1378 1.379 . S
C1383 N1381 1.356 . S
N1384 C1376 1.356 . S
N1384 H1390 0.984 . S
N1384 H1391 0.984 . S
N1385 C1378 1.356 . S
N1385 H1388 0.984 . S
N1385 H1389 0.985 . S
H1386 N1381 0.984 . S
H1387 N1381 0.985 . S
H1388 N1385 0.984 . S
H1389 N1385 0.985 . S
H1390 N1384 0.984 . S
H1391 N1384 0.984 . S
H1392 N1380 0.984 . S
H1393 N1380 0.985 . S
C1394 C1395 1.379 . S
C1394 C1400 1.372 1_554 S
C1394 N1402 1.348 1_554 S
C1395 C1394 1.379 . S
C1395 C1401 1.363 . S
C1396 C1397 1.363 . S
C1396 C1401 1.379 . S
C1396 N1403 1.356 . S
C1397 C1396 1.363 . S
C1397 C1400 1.353 1_554 S
N1398 C1400 1.368 . S
N1398 H1410 0.984 . S
N1398 H1411 0.985 . S
N1399 C1401 1.356 . S
N1399 H1404 0.984 . S
N1399 H1405 0.985 . S
C1400 C1394 1.372 1_556 S
C1400 C1397 1.353 1_556 S
C1400 N1398 1.368 . S
C1401 C1395 1.363 . S
C1401 C1396 1.379 . S
C1401 N1399 1.356 . S
N1402 C1394 1.348 1_556 S
N1402 H1408 0.984 . S
N1402 H1409 0.984 . S
N1403 C1396 1.356 . S
N1403 H1406 0.984 . S
N1403 H1407 0.985 . S
H1404 N1399 0.984 . S
H1405 N1399 0.985 . S
H1406 N1403 0.984 . S
H1407 N1403 0.985 . S
H1408 N1402 0.984 . S
H1409 N1402 0.984 . S
H1410 N1398 0.984 . S
H1411 N1398 0.985 . S
C1412 C1413 1.363 . S
C1412 C1418 1.379 . S
C1412 N1420 1.356 . S
C1413 C1412 1.363 . S
C1413 C1419 1.363 . S
C1414 C1415 1.363 . S
C1414 C1419 1.379 . S
C1414 N1421 1.356 . S
C1415 C1414 1.363 . S
C1415 C1418 1.363 . S
N1416 C1418 1.356 . S
N1416 H1428 0.984 . S
N1416 H1429 0.985 . S
N1417 C1419 1.356 . S
N1417 H1422 0.984 . S
N1417 H1423 0.985 . S
C1418 C1412 1.379 . S
C1418 C1415 1.363 . S
C1418 N1416 1.356 . S
C1419 C1413 1.363 . S
C1419 C1414 1.379 . S
C1419 N1417 1.356 . S
N1420 C1412 1.356 . S
N1420 H1426 0.984 . S
N1420 H1427 0.984 . S
N1421 C1414 1.356 . S
N1421 H1424 0.984 . S
N1421 H1425 0.985 . S
H1422 N1417 0.984 . S
H1423 N1417 0.985 . S
H1424 N1421 0.984 . S
H1425 N1421 0.985 . S
H1426 N1420 0.984 . S
H1427 N1420 0.984 . S
H1428 N1416 0.984 . S
H1429 N1416 0.985 . S
C1430 C1431 1.363 . S
C1430 C1436 1.379 . S
C1430 N1438 1.356 . S
C1431 C1430 1.363 . S
C1431 C1437 1.363 . S
C1432 C1433 1.363 . S
C1432 C1437 1.379 . S
C1432 N1439 1.356 . S
C1433 C1432 1.363 . S
C1433 C1436 1.363 . S
N1434 C1436 1.356 . S
N1434 H1446 0.984 . S
N1434 H1447 0.985 . S
N1435 C1437 1.356 . S
N1435 H1440 0.984 . S
N1435 H1441 0.985 . S
C1436 C1430 1.379 . S
C1436 C1433 1.363 . S
C1436 N1434 1.356 . S
C1437 C1431 1.363 . S
C1437 C1432 1.379 . S
C1437 N1435 1.356 . S
N1438 C1430 1.356 . S
N1438 H1444 0.984 . S
N1438 H1445 0.984 . S
N1439 C1432 1.356 . S
N1439 H1442 0.984 . S
N1439 H1443 0.985 . S
H1440 N1435 0.984 . S
H1441 N1435 0.985 . S
H1442 N1439 0.984 . S
H1443 N1439 0.985 . S
H1444 N1438 0.984 . S
H1445 N1438 0.984 . S
H1446 N1434 0.984 . S
H1447 N1434 0.985 . S
C1448 C1449 1.363 . S
C1448 C1454 1.379 . S
C1448 N1456 1.356 . S
C1449 C1448 1.363 . S
C1449 C1455 1.363 . S
C1450 C1451 1.363 . S
C1450 C1455 1.379 . S
C1450 N1457 1.356 . S
C1451 C1450 1.363 . S
C1451 C1454 1.363 . S
N1452 C1454 1.356 . S
N1452 H1464 0.984 . S
N1452 H1465 0.985 . S
N1453 C1455 1.356 . S
N1453 H1458 0.984 . S
N1453 H1459 0.985 1_565 S
C1454 C1448 1.379 . S
C1454 C1451 1.363 . S
C1454 N1452 1.356 . S
C1455 C1449 1.363 . S
C1455 C1450 1.379 . S
C1455 N1453 1.356 . S
N1456 C1448 1.356 . S
N1456 H1462 0.984 . S
N1456 H1463 0.984 . S
N1457 C1450 1.356 . S
N1457 H1460 0.984 . S
N1457 H1461 0.985 . S
H1458 N1453 0.984 . S
H1459 N1453 0.985 1_545 S
H1460 N1457 0.984 . S
H1461 N1457 0.985 . S
H1462 N1456 0.984 . S
H1463 N1456 0.984 . S
H1464 N1452 0.984 . S
H1465 N1452 0.985 . S
C1466 C1467 1.363 . S
C1466 C1472 1.379 . S
C1466 N1474 1.356 . S
C1467 C1466 1.363 . S
C1467 C1473 1.363 . S
C1468 C1469 1.363 . S
C1468 C1473 1.379 . S
C1468 N1475 1.356 . S
C1469 C1468 1.363 . S
C1469 C1472 1.363 . S
N1470 C1472 1.356 . S
N1470 H1482 0.984 . S
N1470 H1483 0.985 . S
N1471 C1473 1.356 . S
N1471 H1476 0.984 . S
N1471 H1477 0.985 . S
C1472 C1466 1.379 . S
C1472 C1469 1.363 . S
C1472 N1470 1.356 . S
C1473 C1467 1.363 . S
C1473 C1468 1.379 . S
C1473 N1471 1.356 . S
N1474 C1466 1.356 . S
N1474 H1480 0.984 . S
N1474 H1481 0.984 . S
N1475 C1468 1.356 . S
N1475 H1478 0.984 1_565 S
N1475 H1479 0.985 1_565 S
H1476 N1471 0.984 . S
H1477 N1471 0.985 . S
H1478 N1475 0.984 1_545 S
H1479 N1475 0.985 1_545 S
H1480 N1474 0.984 . S
H1481 N1474 0.984 . S
H1482 N1470 0.984 . S
H1483 N1470 0.985 . S
C1484 C1485 1.363 . S
C1484 C1490 1.379 . S
C1484 N1492 1.356 . S
C1485 C1484 1.363 . S
C1485 C1491 1.363 . S
C1486 C1487 1.363 . S
C1486 C1491 1.379 . S
C1486 N1493 1.356 . S
C1487 C1486 1.363 . S
C1487 C1490 1.363 . S
N1488 C1490 1.356 . S
N1488 H1500 0.984 . S
N1488 H1501 0.985 . S
N1489 C1491 1.356 . S
N1489 H1494 0.984 . S
N1489 H1495 0.985 . S
C1490 C1484 1.379 . S
C1490 C1487 1.363 . S
C1490 N1488 1.356 . S
C1491 C1485 1.363 . S
C1491 C1486 1.379 . S
C1491 N1489 1.356 . S
N1492 C1484 1.356 . S
N1492 H1498 0.984 . S
N1492 H1499 0.984 . S
N1493 C1486 1.356 . S
N1493 H1496 0.984 . S
N1493 H1497 0.985 . S
H1494 N1489 0.984 . S
H1495 N1489 0.985 . S
H1496 N1493 0.984 . S
H1497 N1493 0.985 . S
H1498 N1492 0.984 . S
H1499 N1492 0.984 . S
H1500 N1488 0.984 . S
H1501 N1488 0.985 . S
C1502 C1503 1.363 . S
C1502 C1508 1.379 . S
C1502 N1510 1.356 . S
C1503 C1502 1.363 . S
C1503 C1509 1.363 . S
C1504 C1505 1.363 . S
C1504 C1509 1.379 . S
C1504 N1511 1.356 . S
C1505 C1504 1.363 . S
C1505 C1508 1.363 . S
N1506 C1508 1.356 . S
N1506 H1518 0.984 . S
N1506 H1519 0.985 . S
N1507 C1509 1.356 . S
N1507 H1512 0.984 . S
N1507 H1513 0.985 . S
C1508 C1502 1.379 . S
C1508 C1505 1.363 . S
C1508 N1506 1.356 . S
C1509 C1503 1.363 . S
C1509 C1504 1.379 . S
C1509 N1507 1.356 . S
N1510 C1502 1.356 . S
N1510 H1516 0.984 . S
N1510 H1517 0.984 . S
N1511 C1504 1.356 . S
N1511 H1514 0.984 . S
N1511 H1515 0.985 . S
H1512 N1507 0.984 . S
H1513 N1507 0.985 . S
H1514 N1511 0.984 . S
H1515 N1511 0.985 . S
H1516 N1510 0.984 . S
H1517 N1510 0.984 . S
H1518 N1506 0.984 . S
H1519 N1506 0.985 . S
C1520 C1521 1.363 . S
C1520 C1526 1.379 . S
C1520 N1528 1.356 . S
C1521 C1520 1.363 . S
C1521 C1527 1.363 . S
C1522 C1523 1.363 . S
C1522 C1527 1.379 . S
C1522 N1529 1.356 . S
C1523 C1522 1.363 . S
C1523 C1526 1.363 . S
N1524 C1526 1.356 . S
N1524 H1536 0.984 . S
N1524 H1537 0.985 . S
N1525 C1527 1.356 . S
N1525 H1530 0.984 . S
N1525 H1531 0.985 . S
C1526 C1520 1.379 . S
C1526 C1523 1.363 . S
C1526 N1524 1.356 . S
C1527 C1521 1.363 . S
C1527 C1522 1.379 . S
C1527 N1525 1.356 . S
N1528 C1520 1.356 . S
N1528 H1534 0.984 . S
N1528 H1535 0.984 . S
N1529 C1522 1.356 . S
N1529 H1532 0.984 . S
N1529 H1533 0.985 . S
H1530 N1525 0.984 . S
H1531 N1525 0.985 . S
H1532 N1529 0.984 . S
H1533 N1529 0.985 . S
H1534 N1528 0.984 . S
H1535 N1528 0.984 . S
H1536 N1524 0.984 . S
H1537 N1524 0.985 . S
C1538 C1539 1.363 . S
C1538 C1544 1.379 . S
C1538 N1546 1.356 . S
C1539 C1538 1.363 . S
C1539 C1545 1.363 . S
C1540 C1541 1.363 . S
C1540 C1545 1.379 . S
C1540 N1547 1.356 . S
C1541 C1540 1.363 . S
C1541 C1544 1.363 . S
N1542 C1544 1.356 . S
N1542 H1554 0.984 . S
N1542 H1555 0.985 . S
N1543 C1545 1.356 . S
N1543 H1548 0.984 . S
N1543 H1549 0.985 . S
C1544 C1538 1.379 . S
C1544 C1541 1.363 . S
C1544 N1542 1.356 . S
C1545 C1539 1.363 . S
C1545 C1540 1.379 . S
C1545 N1543 1.356 . S
N1546 C1538 1.356 . S
N1546 H1552 0.984 . S
N1546 H1553 0.984 . S
N1547 C1540 1.356 . S
N1547 H1550 0.984 . S
N1547 H1551 0.985 . S
H1548 N1543 0.984 . S
H1549 N1543 0.985 . S
H1550 N1547 0.984 . S
H1551 N1547 0.985 . S
H1552 N1546 0.984 . S
H1553 N1546 0.984 . S
H1554 N1542 0.984 . S
H1555 N1542 0.985 . S
C1556 C1557 1.363 1_655 S
C1556 C1562 1.379 . S
C1556 N1564 1.356 . S
C1557 C1556 1.363 1_455 S
C1557 C1563 1.363 . S
C1558 C1559 1.362 . S
C1558 C1563 1.379 . S
C1558 N1565 1.356 . S
C1559 C1558 1.362 . S
C1559 C1562 1.363 1_455 S
N1560 C1562 1.356 1_554 S
N1560 H1572 0.984 . S
N1560 H1573 0.985 . S
N1561 C1563 1.356 . S
N1561 H1566 0.984 . S
N1561 H1567 0.985 . S
C1562 C1556 1.379 . S
C1562 C1559 1.363 1_655 S
C1562 N1560 1.356 1_556 S
C1563 C1557 1.363 . S
C1563 C1558 1.379 . S
C1563 N1561 1.356 . S
N1564 C1556 1.356 . S
N1564 H1570 0.984 . S
N1564 H1571 0.984 . S
N1565 C1558 1.356 . S
N1565 H1568 0.984 1_556 S
N1565 H1569 0.985 . S
H1566 N1561 0.984 . S
H1567 N1561 0.985 . S
H1568 N1565 0.984 1_554 S
H1569 N1565 0.985 . S
H1570 N1564 0.984 . S
H1571 N1564 0.984 . S
H1572 N1560 0.984 . S
H1573 N1560 0.985 . S
C1574 C1575 1.363 . S
C1574 C1580 1.379 . S
C1574 N1582 1.356 . S
C1575 C1574 1.363 . S
C1575 C1581 1.363 . S
C1576 C1577 1.363 . S
C1576 C1581 1.379 . S
C1576 N1583 1.356 . S
C1577 C1576 1.363 . S
C1577 C1580 1.363 . S
N1578 C1580 1.356 . S
N1578 H1590 0.984 . S
N1578 H1591 0.985 . S
N1579 C1581 1.356 . S
N1579 H1584 0.984 . S
N1579 H1585 0.985 . S
C1580 C1574 1.379 . S
C1580 C1577 1.363 . S
C1580 N1578 1.356 . S
C1581 C1575 1.363 . S
C1581 C1576 1.379 . S
C1581 N1579 1.356 . S
N1582 C1574 1.356 . S
N1582 H1588 0.984 . S
N1582 H1589 0.984 . S
N1583 C1576 1.356 . S
N1583 H1586 0.984 . S
N1583 H1587 0.985 . S
H1584 N1579 0.984 . S
H1585 N1579 0.985 . S
H1586 N1583 0.984 . S
H1587 N1583 0.985 . S
H1588 N1582 0.984 . S
H1589 N1582 0.984 . S
H1590 N1578 0.984 . S
H1591 N1578 0.985 . S
C1592 C1593 1.363 . S
C1592 C1598 1.379 . S
C1592 N1600 1.356 . S
C1593 C1592 1.363 . S
C1593 C1599 1.363 . S
C1594 C1595 1.363 . S
C1594 C1599 1.379 . S
C1594 N1601 1.356 . S
C1595 C1594 1.363 . S
C1595 C1598 1.363 . S
N1596 C1598 1.356 . S
N1596 H1608 0.984 1_554 S
N1596 H1609 0.985 1_554 S
N1597 C1599 1.356 . S
N1597 H1602 0.984 . S
N1597 H1603 0.985 . S
C1598 C1592 1.379 . S
C1598 C1595 1.363 . S
C1598 N1596 1.356 . S
C1599 C1593 1.363 . S
C1599 C1594 1.379 . S
C1599 N1597 1.356 . S
N1600 C1592 1.356 . S
N1600 H1606 0.984 . S
N1600 H1607 0.984 . S
N1601 C1594 1.356 . S
N1601 H1604 0.984 . S
N1601 H1605 0.985 . S
H1602 N1597 0.984 . S
H1603 N1597 0.985 . S
H1604 N1601 0.984 . S
H1605 N1601 0.985 . S
H1606 N1600 0.984 . S
H1607 N1600 0.984 . S
H1608 N1596 0.984 1_556 S
H1609 N1596 0.985 1_556 S
C1610 C1611 1.363 . S
C1610 C1616 1.379 . S
C1610 N1618 1.356 . S
C1611 C1610 1.363 . S
C1611 C1617 1.363 . S
C1612 C1613 1.363 . S
C1612 C1617 1.379 . S
C1612 N1619 1.356 . S
C1613 C1612 1.363 . S
C1613 C1616 1.363 . S
N1614 C1616 1.356 . S
N1614 H1626 0.984 . S
N1614 H1627 0.985 . S
N1615 C1617 1.356 . S
N1615 H1620 0.984 . S
N1615 H1621 0.985 . S
C1616 C1610 1.379 . S
C1616 C1613 1.363 . S
C1616 N1614 1.356 . S
C1617 C1611 1.363 . S
C1617 C1612 1.379 . S
C1617 N1615 1.356 . S
N1618 C1610 1.356 . S
N1618 H1624 0.984 . S
N1618 H1625 0.984 . S
N1619 C1612 1.356 . S
N1619 H1622 0.984 . S
N1619 H1623 0.985 . S
H1620 N1615 0.984 . S
H1621 N1615 0.985 . S
H1622 N1619 0.984 . S
H1623 N1619 0.985 . S
H1624 N1618 0.984 . S
H1625 N1618 0.984 . S
H1626 N1614 0.984 . S
H1627 N1614 0.985 . S
C1628 C1629 1.363 1_655 S
C1628 C1634 1.379 . S
C1628 N1636 1.356 . S
C1629 C1628 1.363 1_455 S
C1629 C1635 1.363 . S
C1630 C1631 1.363 . S
C1630 C1635 1.379 . S
C1630 N1637 1.356 . S
C1631 C1630 1.363 . S
C1631 C1634 1.363 1_455 S
N1632 C1634 1.356 . S
N1632 H1644 0.984 . S
N1632 H1645 0.985 . S
N1633 C1635 1.356 . S
N1633 H1638 0.984 . S
N1633 H1639 0.985 . S
C1634 C1628 1.379 . S
C1634 C1631 1.363 1_655 S
C1634 N1632 1.356 . S
C1635 C1629 1.363 . S
C1635 C1630 1.379 . S
C1635 N1633 1.356 . S
N1636 C1628 1.356 . S
N1636 H1642 0.984 . S
N1636 H1643 0.984 . S
N1637 C1630 1.356 . S
N1637 H1640 0.984 . S
N1637 H1641 0.985 . S
H1638 N1633 0.984 . S
H1639 N1633 0.985 . S
H1640 N1637 0.984 . S
H1641 N1637 0.985 . S
H1642 N1636 0.984 . S
H1643 N1636 0.984 . S
H1644 N1632 0.984 . S
H1645 N1632 0.985 . S
C1646 C1647 1.363 . S
C1646 C1652 1.379 . S
C1646 N1654 1.356 . S
C1647 C1646 1.363 . S
C1647 C1653 1.363 . S
C1648 C1649 1.363 . S
C1648 C1653 1.379 . S
C1648 N1655 1.356 . S
C1649 C1648 1.363 . S
C1649 C1652 1.363 . S
N1650 C1652 1.356 . S
N1650 H1662 0.984 . S
N1650 H1663 0.985 . S
N1651 C1653 1.356 . S
N1651 H1656 0.984 . S
N1651 H1657 0.985 . S
C1652 C1646 1.379 . S
C1652 C1649 1.363 . S
C1652 N1650 1.356 . S
C1653 C1647 1.363 . S
C1653 C1648 1.379 . S
C1653 N1651 1.356 . S
N1654 C1646 1.356 . S
N1654 H1660 0.984 . S
N1654 H1661 0.984 . S
N1655 C1648 1.356 . S
N1655 H1658 0.984 . S
N1655 H1659 0.985 . S
H1656 N1651 0.984 . S
H1657 N1651 0.985 . S
H1658 N1655 0.984 . S
H1659 N1655 0.985 . S
H1660 N1654 0.984 . S
H1661 N1654 0.984 . S
H1662 N1650 0.984 . S
H1663 N1650 0.985 . S
C1664 C1665 1.363 . S
C1664 C1670 1.379 . S
C1664 N1672 1.356 . S
C1665 C1664 1.363 . S
C1665 C1671 1.363 . S
C1666 C1667 1.363 . S
C1666 C1671 1.379 . S
C1666 N1673 1.356 . S
C1667 C1666 1.363 . S
C1667 C1670 1.363 . S
N1668 C1670 1.356 . S
N1668 H1680 0.984 . S
N1668 H1681 0.985 . S
N1669 C1671 1.356 . S
N1669 H1674 0.984 . S
N1669 H1675 0.985 . S
C1670 C1664 1.379 . S
C1670 C1667 1.363 . S
C1670 N1668 1.356 . S
C1671 C1665 1.363 . S
C1671 C1666 1.379 . S
C1671 N1669 1.356 . S
N1672 C1664 1.356 . S
N1672 H1678 0.984 . S
N1672 H1679 0.984 . S
N1673 C1666 1.356 . S
N1673 H1676 0.984 . S
N1673 H1677 0.985 . S
H1674 N1669 0.984 . S
H1675 N1669 0.985 . S
H1676 N1673 0.984 . S
H1677 N1673 0.985 . S
H1678 N1672 0.984 . S
H1679 N1672 0.984 . S
H1680 N1668 0.984 . S
H1681 N1668 0.985 . S
C1682 C1683 1.363 . S
C1682 C1688 1.379 . S
C1682 N1690 1.356 . S
C1683 C1682 1.363 . S
C1683 C1689 1.363 . S
C1684 C1685 1.363 . S
C1684 C1689 1.379 . S
C1684 N1691 1.356 . S
C1685 C1684 1.363 . S
C1685 C1688 1.363 . S
N1686 C1688 1.356 . S
N1686 H1698 0.984 . S
N1686 H1699 0.985 . S
N1687 C1689 1.356 . S
N1687 H1692 0.984 . S
N1687 H1693 0.985 . S
C1688 C1682 1.379 . S
C1688 C1685 1.363 . S
C1688 N1686 1.356 . S
C1689 C1683 1.363 . S
C1689 C1684 1.379 . S
C1689 N1687 1.356 . S
N1690 C1682 1.356 . S
N1690 H1696 0.984 . S
N1690 H1697 0.984 . S
N1691 C1684 1.356 . S
N1691 H1694 0.984 . S
N1691 H1695 0.985 . S
H1692 N1687 0.984 . S
H1693 N1687 0.985 . S
H1694 N1691 0.984 . S
H1695 N1691 0.985 . S
H1696 N1690 0.984 . S
H1697 N1690 0.984 . S
H1698 N1686 0.984 . S
H1699 N1686 0.985 . S
C1700 C1701 1.363 . S
C1700 C1706 1.379 . S
C1700 N1708 1.356 . S
C1701 C1700 1.363 . S
C1701 C1707 1.363 . S
C1702 C1703 1.363 . S
C1702 C1707 1.379 . S
C1702 N1709 1.356 . S
C1703 C1702 1.363 . S
C1703 C1706 1.363 . S
N1704 C1706 1.356 . S
N1704 H1716 0.984 . S
N1704 H1717 0.985 . S
N1705 C1707 1.356 . S
N1705 H1710 0.984 . S
N1705 H1711 0.985 . S
C1706 C1700 1.379 . S
C1706 C1703 1.363 . S
C1706 N1704 1.356 . S
C1707 C1701 1.363 . S
C1707 C1702 1.379 . S
C1707 N1705 1.356 . S
N1708 C1700 1.356 . S
N1708 H1714 0.984 . S
N1708 H1715 0.984 . S
N1709 C1702 1.356 . S
N1709 H1712 0.984 . S
N1709 H1713 0.985 . S
H1710 N1705 0.984 . S
H1711 N1705 0.985 . S
H1712 N1709 0.984 . S
H1713 N1709 0.985 . S
H1714 N1708 0.984 . S
H1715 N1708 0.984 . S
H1716 N1704 0.984 . S
H1717 N1704 0.985 . S
C1718 C1719 1.363 . S
C1718 C1724 1.379 . S
C1718 N1726 1.356 . S
C1719 C1718 1.363 . S
C1719 C1725 1.363 . S
C1720 C1721 1.363 . S
C1720 C1725 1.379 . S
C1720 N1727 1.356 . S
C1721 C1720 1.363 . S
C1721 C1724 1.363 . S
N1722 C1724 1.356 . S
N1722 H1734 0.984 . S
N1722 H1735 0.985 . S
N1723 C1725 1.356 . S
N1723 H1728 0.984 . S
N1723 H1729 0.985 . S
C1724 C1718 1.379 . S
C1724 C1721 1.363 . S
C1724 N1722 1.356 . S
C1725 C1719 1.363 . S
C1725 C1720 1.379 . S
C1725 N1723 1.356 . S
N1726 C1718 1.356 . S
N1726 H1732 0.984 . S
N1726 H1733 0.984 . S
N1727 C1720 1.356 . S
N1727 H1730 0.984 . S
N1727 H1731 0.985 . S
H1728 N1723 0.984 . S
H1729 N1723 0.985 . S
H1730 N1727 0.984 . S
H1731 N1727 0.985 . S
H1732 N1726 0.984 . S
H1733 N1726 0.984 . S
H1734 N1722 0.984 . S
H1735 N1722 0.985 . S
C1736 C1737 1.363 . S
C1736 C1742 1.379 . S
C1736 N1744 1.356 . S
C1737 C1736 1.363 . S
C1737 C1743 1.363 . S
C1738 C1739 1.363 . S
C1738 C1743 1.379 . S
C1738 N1745 1.356 . S
C1739 C1738 1.363 . S
C1739 C1742 1.363 . S
N1740 C1742 1.356 . S
N1740 H1752 0.984 . S
N1740 H1753 0.985 . S
N1741 C1743 1.356 . S
N1741 H1746 0.984 . S
N1741 H1747 0.985 . S
C1742 C1736 1.379 . S
C1742 C1739 1.363 . S
C1742 N1740 1.356 . S
C1743 C1737 1.363 . S
C1743 C1738 1.379 . S
C1743 N1741 1.356 . S
N1744 C1736 1.356 . S
N1744 H1750 0.984 . S
N1744 H1751 0.984 . S
N1745 C1738 1.356 . S
N1745 H1748 0.984 . S
N1745 H1749 0.985 . S
H1746 N1741 0.984 . S
H1747 N1741 0.985 . S
H1748 N1745 0.984 . S
H1749 N1745 0.985 . S
H1750 N1744 0.984 . S
H1751 N1744 0.984 . S
H1752 N1740 0.984 . S
H1753 N1740 0.985 . S
C1754 C1755 1.363 . S
C1754 C1760 1.379 . S
C1754 N1762 1.356 . S
C1755 C1754 1.363 . S
C1755 C1761 1.363 . S
C1756 C1757 1.363 . S
C1756 C1761 1.379 . S
C1756 N1763 1.356 . S
C1757 C1756 1.363 . S
C1757 C1760 1.363 . S
N1758 C1760 1.356 . S
N1758 H1770 0.984 . S
N1758 H1771 0.985 . S
N1759 C1761 1.356 . S
N1759 H1764 0.984 . S
N1759 H1765 0.985 . S
C1760 C1754 1.379 . S
C1760 C1757 1.363 . S
C1760 N1758 1.356 . S
C1761 C1755 1.363 . S
C1761 C1756 1.379 . S
C1761 N1759 1.356 . S
N1762 C1754 1.356 . S
N1762 H1768 0.984 . S
N1762 H1769 0.984 . S
N1763 C1756 1.356 . S
N1763 H1766 0.984 . S
N1763 H1767 0.985 . S
H1764 N1759 0.984 . S
H1765 N1759 0.985 . S
H1766 N1763 0.984 . S
H1767 N1763 0.985 . S
H1768 N1762 0.984 . S
H1769 N1762 0.984 . S
H1770 N1758 0.984 . S
H1771 N1758 0.985 . S
C1772 C1773 1.363 . S
C1772 C1778 1.379 . S
C1772 N1780 1.356 . S
C1773 C1772 1.363 . S
C1773 C1779 1.363 . S
C1774 C1775 1.363 . S
C1774 C1779 1.379 . S
C1774 N1781 1.356 . S
C1775 C1774 1.363 . S
C1775 C1778 1.363 . S
N1776 C1778 1.356 . S
N1776 H1788 0.984 . S
N1776 H1789 0.985 . S
N1777 C1779 1.356 . S
N1777 H1782 0.984 . S
N1777 H1783 0.985 . S
C1778 C1772 1.379 . S
C1778 C1775 1.363 . S
C1778 N1776 1.356 . S
C1779 C1773 1.363 . S
C1779 C1774 1.379 . S
C1779 N1777 1.356 . S
N1780 C1772 1.356 . S
N1780 H1786 0.984 . S
N1780 H1787 0.984 . S
N1781 C1774 1.356 . S
N1781 H1784 0.984 . S
N1781 H1785 0.985 . S
H1782 N1777 0.984 . S
H1783 N1777 0.985 . S
H1784 N1781 0.984 . S
H1785 N1781 0.985 . S
H1786 N1780 0.984 . S
H1787 N1780 0.984 . S
H1788 N1776 0.984 . S
H1789 N1776 0.985 . S
C1790 C1791 1.363 . S
C1790 C1796 1.379 . S
C1790 N1798 1.356 . S
C1791 C1790 1.363 . S
C1791 C1797 1.363 . S
C1792 C1793 1.363 . S
C1792 C1797 1.379 . S
C1792 N1799 1.356 . S
C1793 C1792 1.363 . S
C1793 C1796 1.363 . S
N1794 C1796 1.356 . S
N1794 H1806 0.984 . S
N1794 H1807 0.985 . S
N1795 C1797 1.356 . S
N1795 H1800 0.984 . S
N1795 H1801 0.985 . S
C1796 C1790 1.379 . S
C1796 C1793 1.363 . S
C1796 N1794 1.356 . S
C1797 C1791 1.363 . S
C1797 C1792 1.379 . S
C1797 N1795 1.356 . S
N1798 C1790 1.356 . S
N1798 H1804 0.984 . S
N1798 H1805 0.984 . S
N1799 C1792 1.356 . S
N1799 H1802 0.984 . S
N1799 H1803 0.985 . S
H1800 N1795 0.984 . S
H1801 N1795 0.985 . S
H1802 N1799 0.984 . S
H1803 N1799 0.985 . S
H1804 N1798 0.984 . S
H1805 N1798 0.984 . S
H1806 N1794 0.984 . S
H1807 N1794 0.985 . S
C1808 C1809 1.363 . S
C1808 C1814 1.379 . S
C1808 N1816 1.356 . S
C1809 C1808 1.363 . S
C1809 C1815 1.363 . S
C1810 C1811 1.363 . S
C1810 C1815 1.379 . S
C1810 N1817 1.356 . S
C1811 C1810 1.363 . S
C1811 C1814 1.363 . S
N1812 C1814 1.356 . S
N1812 H1824 0.984 . S
N1812 H1825 0.985 . S
N1813 C1815 1.356 . S
N1813 H1818 0.984 . S
N1813 H1819 0.985 . S
C1814 C1808 1.379 . S
C1814 C1811 1.363 . S
C1814 N1812 1.356 . S
C1815 C1809 1.363 . S
C1815 C1810 1.379 . S
C1815 N1813 1.356 . S
N1816 C1808 1.356 . S
N1816 H1822 0.984 . S
N1816 H1823 0.984 . S
N1817 C1810 1.356 . S
N1817 H1820 0.984 . S
N1817 H1821 0.985 . S
H1818 N1813 0.984 . S
H1819 N1813 0.985 . S
H1820 N1817 0.984 . S
H1821 N1817 0.985 . S
H1822 N1816 0.984 . S
H1823 N1816 0.984 . S
H1824 N1812 0.984 . S
H1825 N1812 0.985 . S
C1826 C1827 1.363 . S
C1826 C1832 1.379 . S
C1826 N1834 1.356 . S
C1827 C1826 1.363 . S
C1827 C1833 1.363 . S
C1828 C1829 1.363 . S
C1828 C1833 1.379 . S
C1828 N1835 1.356 . S
C1829 C1828 1.363 . S
C1829 C1832 1.363 . S
N1830 C1832 1.356 . S
N1830 H1842 0.984 . S
N1830 H1843 0.985 . S
N1831 C1833 1.356 . S
N1831 H1836 0.984 . S
N1831 H1837 0.985 . S
C1832 C1826 1.379 . S
C1832 C1829 1.363 . S
C1832 N1830 1.356 . S
C1833 C1827 1.363 . S
C1833 C1828 1.379 . S
C1833 N1831 1.356 . S
N1834 C1826 1.356 . S
N1834 H1840 0.984 . S
N1834 H1841 0.984 . S
N1835 C1828 1.356 . S
N1835 H1838 0.984 . S
N1835 H1839 0.985 . S
H1836 N1831 0.984 . S
H1837 N1831 0.985 . S
H1838 N1835 0.984 . S
H1839 N1835 0.985 . S
H1840 N1834 0.984 . S
H1841 N1834 0.984 . S
H1842 N1830 0.984 . S
H1843 N1830 0.985 . S
C1844 C1845 1.363 . S
C1844 C1850 1.379 . S
C1844 N1852 1.356 . S
C1845 C1844 1.363 . S
C1845 C1851 1.363 . S
C1846 C1847 1.363 . S
C1846 C1851 1.379 . S
C1846 N1853 1.356 . S
C1847 C1846 1.363 . S
C1847 C1850 1.363 . S
N1848 C1850 1.356 . S
N1848 H1860 0.984 . S
N1848 H1861 0.985 . S
N1849 C1851 1.356 . S
N1849 H1854 0.984 . S
N1849 H1855 0.985 . S
C1850 C1844 1.379 . S
C1850 C1847 1.363 . S
C1850 N1848 1.356 . S
C1851 C1845 1.363 . S
C1851 C1846 1.379 . S
C1851 N1849 1.356 . S
N1852 C1844 1.356 . S
N1852 H1858 0.984 . S
N1852 H1859 0.984 . S
N1853 C1846 1.356 . S
N1853 H1856 0.984 . S
N1853 H1857 0.985 . S
H1854 N1849 0.984 . S
H1855 N1849 0.985 . S
H1856 N1853 0.984 . S
H1857 N1853 0.985 . S
H1858 N1852 0.984 . S
H1859 N1852 0.984 . S
H1860 N1848 0.984 . S
H1861 N1848 0.985 . S
C1862 C1863 1.363 1_556 S
C1862 C1868 1.379 . S
C1862 N1870 1.356 . S
C1863 C1862 1.363 1_554 S
C1863 C1869 1.363 . S
C1864 C1865 1.363 . S
C1864 C1869 1.379 . S
C1864 N1871 1.356 1_565 S
C1865 C1864 1.363 . S
C1865 C1868 1.363 1_554 S
N1866 C1868 1.356 . S
N1866 H1878 0.984 . S
N1866 H1879 0.985 . S
N1867 C1869 1.356 . S
N1867 H1872 0.984 . S
N1867 H1873 0.985 . S
C1868 C1862 1.379 . S
C1868 C1865 1.363 1_556 S
C1868 N1866 1.356 . S
C1869 C1863 1.363 . S
C1869 C1864 1.379 . S
C1869 N1867 1.356 . S
N1870 C1862 1.356 . S
N1870 H1876 0.984 . S
N1870 H1877 0.984 . S
N1871 C1864 1.356 1_545 S
N1871 H1874 0.984 . S
N1871 H1875 0.985 . S
H1872 N1867 0.984 . S
H1873 N1867 0.985 . S
H1874 N1871 0.984 . S
H1875 N1871 0.985 . S
H1876 N1870 0.984 . S
H1877 N1870 0.984 . S
H1878 N1866 0.984 . S
H1879 N1866 0.985 . S
C1880 C1881 1.363 . S
C1880 C1886 1.379 . S
C1880 N1888 1.356 . S
C1881 C1880 1.363 . S
C1881 C1887 1.363 . S
C1882 C1883 1.363 . S
C1882 C1887 1.379 . S
C1882 N1889 1.356 . S
C1883 C1882 1.363 . S
C1883 C1886 1.363 . S
N1884 C1886 1.356 . S
N1884 H1896 0.984 . S
N1884 H1897 0.985 . S
N1885 C1887 1.356 . S
N1885 H1890 0.984 . S
N1885 H1891 0.985 . S
C1886 C1880 1.379 . S
C1886 C1883 1.363 . S
C1886 N1884 1.356 . S
C1887 C1881 1.363 . S
C1887 C1882 1.379 . S
C1887 N1885 1.356 . S
N1888 C1880 1.356 . S
N1888 H1894 0.984 . S
N1888 H1895 0.984 . S
N1889 C1882 1.356 . S
N1889 H1892 0.984 . S
N1889 H1893 0.985 . S
H1890 N1885 0.984 . S
H1891 N1885 0.985 . S
H1892 N1889 0.984 . S
H1893 N1889 0.985 . S
H1894 N1888 0.984 . S
H1895 N1888 0.984 . S
H1896 N1884 0.984 . S
H1897 N1884 0.985 . S
C1898 C1899 1.363 . S
C1898 C1904 1.379 . S
C1898 N1906 1.356 . S
C1899 C1898 1.363 . S
C1899 C1905 1.363 . S
C1900 C1901 1.363 . S
C1900 C1905 1.379 . S
C1900 N1907 1.356 . S
C1901 C1900 1.363 . S
C1901 C1904 1.363 . S
N1902 C1904 1.356 . S
N1902 H1914 0.984 . S
N1902 H1915 0.985 . S
N1903 C1905 1.356 1_556 S
N1903 H1908 0.984 . S
N1903 H1909 0.985 . S
C1904 C1898 1.379 . S
C1904 C1901 1.363 . S
C1904 N1902 1.356 . S
C1905 C1899 1.363 . S
C1905 C1900 1.379 . S
C1905 N1903 1.356 1_554 S
N1906 C1898 1.356 . S
N1906 H1912 0.984 . S
N1906 H1913 0.984 . S
N1907 C1900 1.356 . S
N1907 H1910 0.984 . S
N1907 H1911 0.985 1_554 S
H1908 N1903 0.984 . S
H1909 N1903 0.985 . S
H1910 N1907 0.984 . S
H1911 N1907 0.985 1_556 S
H1912 N1906 0.984 . S
H1913 N1906 0.984 . S
H1914 N1902 0.984 . S
H1915 N1902 0.985 . S
C1916 C1917 1.363 . S
C1916 C1922 1.379 . S
C1916 N1924 1.356 . S
C1917 C1916 1.363 . S
C1917 C1923 1.363 . S
C1918 C1919 1.363 . S
C1918 C1923 1.379 . S
C1918 N1925 1.356 . S
C1919 C1918 1.363 . S
C1919 C1922 1.363 . S
N1920 C1922 1.356 . S
N1920 H1932 0.984 . S
N1920 H1933 0.985 . S
N1921 C1923 1.356 . S
N1921 H1926 0.984 . S
N1921 H1927 0.985 . S
C1922 C1916 1.379 . S
C1922 C1919 1.363 . S
C1922 N1920 1.356 . S
C1923 C1917 1.363 . S
C1923 C1918 1.379 . S
C1923 N1921 1.356 . S
N1924 C1916 1.356 . S
N1924 H1930 0.984 . S
N1924 H1931 0.984 . S
N1925 C1918 1.356 . S
N1925 H1928 0.984 . S
N1925 H1929 0.985 . S
H1926 N1921 0.984 . S
H1927 N1921 0.985 . S
H1928 N1925 0.984 . S
H1929 N1925 0.985 . S
H1930 N1924 0.984 . S
H1931 N1924 0.984 . S
H1932 N1920 0.984 . S
H1933 N1920 0.985 . S
C1934 C1935 1.363 . S
C1934 C1940 1.379 . S
C1934 N1942 1.356 . S
C1935 C1934 1.363 . S
C1935 C1941 1.363 . S
C1936 C1937 1.363 . S
C1936 C1941 1.379 . S
C1936 N1943 1.356 . S
C1937 C1936 1.363 . S
C1937 C1940 1.363 . S
N1938 C1940 1.356 . S
N1938 H1950 0.984 . S
N1938 H1951 0.985 . S
N1939 C1941 1.356 . S
N1939 H1944 0.984 . S
N1939 H1945 0.985 . S
C1940 C1934 1.379 . S
C1940 C1937 1.363 . S
C1940 N1938 1.356 . S
C1941 C1935 1.363 . S
C1941 C1936 1.379 . S
C1941 N1939 1.356 . S
N1942 C1934 1.356 . S
N1942 H1948 0.984 . S
N1942 H1949 0.984 . S
N1943 C1936 1.356 . S
N1943 H1946 0.984 . S
N1943 H1947 0.985 . S
H1944 N1939 0.984 . S
H1945 N1939 0.985 . S
H1946 N1943 0.984 . S
H1947 N1943 0.985 . S
H1948 N1942 0.984 . S
H1949 N1942 0.984 . S
H1950 N1938 0.984 . S
H1951 N1938 0.985 . S
C1952 C1953 1.363 . S
C1952 C1958 1.379 . S
C1952 N1960 1.356 . S
C1953 C1952 1.363 . S
C1953 C1959 1.363 . S
C1954 C1955 1.363 . S
C1954 C1959 1.379 . S
C1954 N1961 1.356 . S
C1955 C1954 1.363 . S
C1955 C1958 1.363 . S
N1956 C1958 1.356 . S
N1956 H1968 0.984 . S
N1956 H1969 0.985 . S
N1957 C1959 1.356 . S
N1957 H1962 0.984 . S
N1957 H1963 0.985 . S
C1958 C1952 1.379 . S
C1958 C1955 1.363 . S
C1958 N1956 1.356 . S
C1959 C1953 1.363 . S
C1959 C1954 1.379 . S
C1959 N1957 1.356 . S
N1960 C1952 1.356 . S
N1960 H1966 0.984 . S
N1960 H1967 0.984 . S
N1961 C1954 1.356 . S
N1961 H1964 0.984 . S
N1961 H1965 0.985 . S
H1962 N1957 0.984 . S
H1963 N1957 0.985 . S
H1964 N1961 0.984 . S
H1965 N1961 0.985 . S
H1966 N1960 0.984 . S
H1967 N1960 0.984 . S
H1968 N1956 0.984 . S
H1969 N1956 0.985 . S
C1970 C1971 1.363 . S
C1970 C1976 1.379 . S
C1970 N1978 1.356 . S
C1971 C1970 1.363 . S
C1971 C1977 1.363 . S
C1972 C1973 1.363 . S
C1972 C1977 1.379 . S
C1972 N1979 1.356 . S
C1973 C1972 1.363 . S
C1973 C1976 1.363 . S
N1974 C1976 1.356 . S
N1974 H1986 0.984 . S
N1974 H1987 0.985 . S
N1975 C1977 1.356 . S
N1975 H1980 0.984 . S
N1975 H1981 0.985 . S
C1976 C1970 1.379 . S
C1976 C1973 1.363 . S
C1976 N1974 1.356 . S
C1977 C1971 1.363 . S
C1977 C1972 1.379 . S
C1977 N1975 1.356 . S
N1978 C1970 1.356 . S
N1978 H1984 0.984 . S
N1978 H1985 0.984 . S
N1979 C1972 1.356 . S
N1979 H1982 0.984 . S
N1979 H1983 0.985 . S
H1980 N1975 0.984 . S
H1981 N1975 0.985 . S
H1982 N1979 0.984 . S
H1983 N1979 0.985 . S
H1984 N1978 0.984 . S
H1985 N1978 0.984 . S
H1986 N1974 0.984 . S
H1987 N1974 0.985 . S
C1988 C1989 1.363 . S
C1988 C1994 1.379 . S
C1988 N1996 1.356 . S
C1989 C1988 1.363 . S
C1989 C1995 1.363 . S
C1990 C1991 1.363 . S
C1990 C1995 1.379 . S
C1990 N1997 1.356 1_455 S
C1991 C1990 1.363 . S
C1991 C1994 1.363 . S
N1992 C1994 1.356 . S
N1992 H2004 0.984 . S
N1992 H2005 0.985 . S
N1993 C1995 1.362 . S
N1993 H1998 0.984 . S
N1993 H1999 0.979 1_455 S
C1994 C1988 1.379 . S
C1994 C1991 1.363 . S
C1994 N1992 1.356 . S
C1995 C1989 1.363 . S
C1995 C1990 1.379 . S
C1995 N1993 1.362 . S
N1996 C1988 1.356 . S
N1996 H2002 0.984 . S
N1996 H2003 0.984 . S
N1997 C1990 1.356 1_655 S
N1997 H2000 0.984 1_655 S
N1997 H2001 0.985 . S
H1998 N1993 0.984 . S
H1999 N1993 0.979 1_655 S
H2000 N1997 0.984 1_455 S
H2001 N1997 0.985 . S
H2002 N1996 0.984 . S
H2003 N1996 0.984 . S
H2004 N1992 0.984 . S
H2005 N1992 0.985 . S
C2006 C2007 1.363 . S
C2006 C2012 1.379 . S
C2006 N2014 1.356 . S
C2007 C2006 1.363 . S
C2007 C2013 1.363 . S
C2008 C2009 1.363 . S
C2008 C2013 1.379 . S
C2008 N2015 1.356 . S
C2009 C2008 1.363 . S
C2009 C2012 1.363 . S
N2010 C2012 1.356 . S
N2010 H2022 0.984 . S
N2010 H2023 0.985 . S
N2011 C2013 1.356 . S
N2011 H2016 0.984 . S
N2011 H2017 0.985 . S
C2012 C2006 1.379 . S
C2012 C2009 1.363 . S
C2012 N2010 1.356 . S
C2013 C2007 1.363 . S
C2013 C2008 1.379 . S
C2013 N2011 1.356 . S
N2014 C2006 1.356 . S
N2014 H2020 0.984 . S
N2014 H2021 0.984 . S
N2015 C2008 1.356 . S
N2015 H2018 0.984 . S
N2015 H2019 0.985 . S
H2016 N2011 0.984 . S
H2017 N2011 0.985 . S
H2018 N2015 0.984 . S
H2019 N2015 0.985 . S
H2020 N2014 0.984 . S
H2021 N2014 0.984 . S
H2022 N2010 0.984 . S
H2023 N2010 0.985 . S
C2024 C2025 1.363 . S
C2024 C2030 1.379 . S
C2024 N2032 1.356 . S
C2025 C2024 1.363 . S
C2025 C2031 1.363 . S
C2026 C2027 1.363 . S
C2026 C2031 1.379 . S
C2026 N2033 1.356 1_556 S
C2027 C2026 1.363 . S
C2027 C2030 1.363 . S
N2028 C2030 1.356 . S
N2028 H2040 0.984 . S
N2028 H2041 0.985 . S
N2029 C2031 1.356 . S
N2029 H2034 0.984 . S
N2029 H2035 0.985 . S
C2030 C2024 1.379 . S
C2030 C2027 1.363 . S
C2030 N2028 1.356 . S
C2031 C2025 1.363 . S
C2031 C2026 1.379 . S
C2031 N2029 1.356 . S
N2032 C2024 1.356 . S
N2032 H2038 0.984 . S
N2032 H2039 0.984 . S
N2033 C2026 1.356 1_554 S
N2033 H2036 0.984 . S
N2033 H2037 0.985 . S
H2034 N2029 0.984 . S
H2035 N2029 0.985 . S
H2036 N2033 0.984 . S
H2037 N2033 0.985 . S
H2038 N2032 0.984 . S
H2039 N2032 0.984 . S
H2040 N2028 0.984 . S
H2041 N2028 0.985 . S
C2042 C2043 1.363 . S
C2042 C2048 1.379 . S
C2042 N2050 1.356 . S
C2043 C2042 1.363 . S
C2043 C2049 1.363 . S
C2044 C2045 1.363 . S
C2044 C2049 1.379 . S
C2044 N2051 1.356 . S
C2045 C2044 1.363 . S
C2045 C2048 1.363 . S
N2046 C2048 1.356 . S
N2046 H2058 0.984 . S
N2046 H2059 0.985 . S
N2047 C2049 1.356 . S
N2047 H2052 0.984 . S
N2047 H2053 0.985 . S
C2048 C2042 1.379 . S
C2048 C2045 1.363 . S
C2048 N2046 1.356 . S
C2049 C2043 1.363 . S
C2049 C2044 1.379 . S
C2049 N2047 1.356 . S
N2050 C2042 1.356 . S
N2050 H2056 0.984 . S
N2050 H2057 0.984 . S
N2051 C2044 1.356 . S
N2051 H2054 0.984 . S
N2051 H2055 0.985 . S
H2052 N2047 0.984 . S
H2053 N2047 0.985 . S
H2054 N2051 0.984 . S
H2055 N2051 0.985 . S
H2056 N2050 0.984 . S
H2057 N2050 0.984 . S
H2058 N2046 0.984 . S
H2059 N2046 0.985 . S
C2060 C2061 1.363 . S
C2060 C2066 1.379 . S
C2060 N2068 1.356 . S
C2061 C2060 1.363 . S
C2061 C2067 1.363 . S
C2062 C2063 1.363 . S
C2062 C2067 1.379 . S
C2062 N2069 1.356 1_455 S
C2063 C2062 1.363 . S
C2063 C2066 1.363 . S
N2064 C2066 1.356 . S
N2064 H2076 0.984 . S
N2064 H2077 0.985 . S
N2065 C2067 1.356 1_655 S
N2065 H2070 0.984 . S
N2065 H2071 0.985 . S
C2066 C2060 1.379 . S
C2066 C2063 1.363 . S
C2066 N2064 1.356 . S
C2067 C2061 1.363 . S
C2067 C2062 1.379 . S
C2067 N2065 1.356 1_455 S
N2068 C2060 1.356 . S
N2068 H2074 0.984 . S
N2068 H2075 0.984 . S
N2069 C2062 1.356 1_655 S
N2069 H2072 0.984 . S
N2069 H2073 0.985 . S
H2070 N2065 0.984 . S
H2071 N2065 0.985 . S
H2072 N2069 0.984 . S
H2073 N2069 0.985 . S
H2074 N2068 0.984 . S
H2075 N2068 0.984 . S
H2076 N2064 0.984 . S
H2077 N2064 0.985 . S
C2078 C2079 1.363 . S
C2078 C2084 1.379 . S
C2078 N2086 1.356 . S
C2079 C2078 1.363 . S
C2079 C2085 1.363 . S
C2080 C2081 1.363 . S
C2080 C2085 1.379 . S
C2080 N2087 1.356 . S
C2081 C2080 1.363 . S
C2081 C2084 1.363 . S
N2082 C2084 1.356 . S
N2082 H2094 0.984 . S
N2082 H2095 0.985 . S
N2083 C2085 1.356 . S
N2083 H2088 0.984 . S
N2083 H2089 0.985 . S
C2084 C2078 1.379 . S
C2084 C2081 1.363 . S
C2084 N2082 1.356 . S
C2085 C2079 1.363 . S
C2085 C2080 1.379 . S
C2085 N2083 1.356 . S
N2086 C2078 1.356 . S
N2086 H2092 0.984 . S
N2086 H2093 0.984 . S
N2087 C2080 1.356 . S
N2087 H2090 0.984 . S
N2087 H2091 0.985 . S
H2088 N2083 0.984 . S
H2089 N2083 0.985 . S
H2090 N2087 0.984 . S
H2091 N2087 0.985 . S
H2092 N2086 0.984 . S
H2093 N2086 0.984 . S
H2094 N2082 0.984 . S
H2095 N2082 0.985 . S
C2096 C2097 1.363 . S
C2096 C2102 1.379 . S
C2096 N2104 1.356 . S
C2097 C2096 1.363 . S
C2097 C2103 1.363 . S
C2098 C2099 1.363 . S
C2098 C2103 1.379 . S
C2098 N2105 1.356 . S
C2099 C2098 1.363 . S
C2099 C2102 1.363 . S
N2100 C2102 1.356 . S
N2100 H2112 0.984 . S
N2100 H2113 0.985 . S
N2101 C2103 1.356 . S
N2101 H2106 0.984 . S
N2101 H2107 0.985 . S
C2102 C2096 1.379 . S
C2102 C2099 1.363 . S
C2102 N2100 1.356 . S
C2103 C2097 1.363 . S
C2103 C2098 1.379 . S
C2103 N2101 1.356 . S
N2104 C2096 1.356 . S
N2104 H2110 0.984 . S
N2104 H2111 0.984 . S
N2105 C2098 1.356 . S
N2105 H2108 0.984 . S
N2105 H2109 0.985 . S
H2106 N2101 0.984 . S
H2107 N2101 0.985 . S
H2108 N2105 0.984 . S
H2109 N2105 0.985 . S
H2110 N2104 0.984 . S
H2111 N2104 0.984 . S
H2112 N2100 0.984 . S
H2113 N2100 0.985 . S
C2114 C2115 1.363 . S
C2114 C2120 1.379 . S
C2114 N2122 1.356 . S
C2115 C2114 1.363 . S
C2115 C2121 1.363 . S
C2116 C2117 1.363 . S
C2116 C2121 1.379 . S
C2116 N2123 1.356 . S
C2117 C2116 1.363 . S
C2117 C2120 1.363 . S
N2118 C2120 1.356 . S
N2118 H2130 0.984 . S
N2118 H2131 0.985 . S
N2119 C2121 1.356 . S
N2119 H2124 0.984 . S
N2119 H2125 0.985 . S
C2120 C2114 1.379 . S
C2120 C2117 1.363 . S
C2120 N2118 1.356 . S
C2121 C2115 1.363 . S
C2121 C2116 1.379 . S
C2121 N2119 1.356 . S
N2122 C2114 1.356 . S
N2122 H2128 0.984 . S
N2122 H2129 0.984 . S
N2123 C2116 1.356 . S
N2123 H2126 0.984 . S
N2123 H2127 0.985 . S
H2124 N2119 0.984 . S
H2125 N2119 0.985 . S
H2126 N2123 0.984 . S
H2127 N2123 0.985 . S
H2128 N2122 0.984 . S
H2129 N2122 0.984 . S
H2130 N2118 0.984 . S
H2131 N2118 0.985 . S
C2132 C2133 1.363 . S
C2132 C2138 1.366 1_655 S
C2132 N2140 1.356 . S
C2133 C2132 1.363 . S
C2133 C2139 1.363 . S
C2134 C2135 1.363 . S
C2134 C2139 1.379 . S
C2134 N2141 1.356 . S
C2135 C2134 1.363 . S
C2135 C2138 1.361 1_655 S
N2136 C2138 1.373 . S
N2136 H2148 0.984 . S
N2136 H2149 0.985 . S
N2137 C2139 1.356 . S
N2137 H2142 0.984 . S
N2137 H2143 0.985 . S
C2138 C2132 1.366 1_455 S
C2138 C2135 1.361 1_455 S
C2138 N2136 1.373 . S
C2139 C2133 1.363 . S
C2139 C2134 1.379 . S
C2139 N2137 1.356 . S
N2140 C2132 1.356 . S
N2140 H2146 0.985 1_655 S
N2140 H2147 0.984 . S
N2141 C2134 1.356 . S
N2141 H2144 0.984 . S
N2141 H2145 0.985 . S
H2142 N2137 0.984 . S
H2143 N2137 0.985 . S
H2144 N2141 0.984 . S
H2145 N2141 0.985 . S
H2146 N2140 0.985 1_455 S
H2147 N2140 0.984 . S
H2148 N2136 0.984 . S
H2149 N2136 0.985 . S
C2150 C2151 1.363 . S
C2150 C2156 1.379 . S
C2150 N2158 1.356 . S
C2151 C2150 1.363 . S
C2151 C2157 1.363 . S
C2152 C2153 1.363 . S
C2152 C2157 1.379 . S
C2152 N2159 1.356 . S
C2153 C2152 1.363 . S
C2153 C2156 1.363 . S
N2154 C2156 1.356 . S
N2154 H2166 0.984 . S
N2154 H2167 0.985 . S
N2155 C2157 1.356 . S
N2155 H2160 0.984 . S
N2155 H2161 0.985 . S
C2156 C2150 1.379 . S
C2156 C2153 1.363 . S
C2156 N2154 1.356 . S
C2157 C2151 1.363 . S
C2157 C2152 1.379 . S
C2157 N2155 1.356 . S
N2158 C2150 1.356 . S
N2158 H2164 0.984 . S
N2158 H2165 0.984 . S
N2159 C2152 1.356 . S
N2159 H2162 0.984 . S
N2159 H2163 0.985 . S
H2160 N2155 0.984 . S
H2161 N2155 0.985 . S
H2162 N2159 0.984 . S
H2163 N2159 0.985 . S
H2164 N2158 0.984 . S
H2165 N2158 0.984 . S
H2166 N2154 0.984 . S
H2167 N2154 0.985 . S
C2168 C2169 1.363 . S
C2168 C2174 1.379 . S
C2168 N2176 1.356 . S
C2169 C2168 1.363 . S
C2169 C2175 1.363 . S
C2170 C2171 1.363 . S
C2170 C2175 1.379 . S
C2170 N2177 1.356 . S
C2171 C2170 1.363 . S
C2171 C2174 1.363 . S
N2172 C2174 1.356 . S
N2172 H2184 0.984 . S
N2172 H2185 0.985 . S
N2173 C2175 1.356 . S
N2173 H2178 0.984 . S
N2173 H2179 0.985 . S
C2174 C2168 1.379 . S
C2174 C2171 1.363 . S
C2174 N2172 1.356 . S
C2175 C2169 1.363 . S
C2175 C2170 1.379 . S
C2175 N2173 1.356 . S
N2176 C2168 1.356 . S
N2176 H2182 0.984 . S
N2176 H2183 0.984 . S
N2177 C2170 1.356 . S
N2177 H2180 0.984 . S
N2177 H2181 0.985 . S
H2178 N2173 0.984 . S
H2179 N2173 0.985 . S
H2180 N2177 0.984 . S
H2181 N2177 0.985 . S
H2182 N2176 0.984 . S
H2183 N2176 0.984 . S
H2184 N2172 0.984 . S
H2185 N2172 0.985 . S
C2186 C2187 1.363 . S
C2186 C2192 1.379 . S
C2186 N2194 1.356 . S
C2187 C2186 1.363 . S
C2187 C2193 1.363 . S
C2188 C2189 1.363 . S
C2188 C2193 1.379 . S
C2188 N2195 1.356 . S
C2189 C2188 1.363 . S
C2189 C2192 1.363 . S
N2190 C2192 1.356 . S
N2190 H2202 0.984 . S
N2190 H2203 0.985 . S
N2191 C2193 1.356 . S
N2191 H2196 0.984 . S
N2191 H2197 0.985 . S
C2192 C2186 1.379 . S
C2192 C2189 1.363 . S
C2192 N2190 1.356 . S
C2193 C2187 1.363 . S
C2193 C2188 1.379 . S
C2193 N2191 1.356 . S
N2194 C2186 1.356 . S
N2194 H2200 0.984 . S
N2194 H2201 0.984 . S
N2195 C2188 1.356 . S
N2195 H2198 0.984 . S
N2195 H2199 0.985 . S
H2196 N2191 0.984 . S
H2197 N2191 0.985 . S
H2198 N2195 0.984 . S
H2199 N2195 0.985 . S
H2200 N2194 0.984 . S
H2201 N2194 0.984 . S
H2202 N2190 0.984 . S
H2203 N2190 0.985 . S
C2204 C2205 1.363 . S
C2204 C2210 1.379 . S
C2204 N2212 1.356 . S
C2205 C2204 1.363 . S
C2205 C2211 1.363 . S
C2206 C2207 1.363 . S
C2206 C2211 1.379 . S
C2206 N2213 1.356 . S
C2207 C2206 1.363 . S
C2207 C2210 1.363 . S
N2208 C2210 1.356 . S
N2208 H2220 0.984 . S
N2208 H2221 0.985 . S
N2209 C2211 1.356 . S
N2209 H2214 0.984 . S
N2209 H2215 0.985 . S
C2210 C2204 1.379 . S
C2210 C2207 1.363 . S
C2210 N2208 1.356 . S
C2211 C2205 1.363 . S
C2211 C2206 1.379 . S
C2211 N2209 1.356 . S
N2212 C2204 1.356 . S
N2212 H2218 0.984 . S
N2212 H2219 0.984 . S
N2213 C2206 1.356 . S
N2213 H2216 0.984 . S
N2213 H2217 0.985 . S
H2214 N2209 0.984 . S
H2215 N2209 0.985 . S
H2216 N2213 0.984 . S
H2217 N2213 0.985 . S
H2218 N2212 0.984 . S
H2219 N2212 0.984 . S
H2220 N2208 0.984 . S
H2221 N2208 0.985 . S
C2222 C2223 1.363 . S
C2222 C2228 1.379 . S
C2222 N2230 1.356 . S
C2223 C2222 1.363 . S
C2223 C2229 1.363 . S
C2224 C2225 1.363 . S
C2224 C2229 1.379 . S
C2224 N2231 1.356 . S
C2225 C2224 1.363 . S
C2225 C2228 1.363 . S
N2226 C2228 1.356 . S
N2226 H2238 0.984 . S
N2226 H2239 0.985 . S
N2227 C2229 1.356 . S
N2227 H2232 0.984 . S
N2227 H2233 0.985 . S
C2228 C2222 1.379 . S
C2228 C2225 1.363 . S
C2228 N2226 1.356 . S
C2229 C2223 1.363 . S
C2229 C2224 1.379 . S
C2229 N2227 1.356 . S
N2230 C2222 1.356 . S
N2230 H2236 0.984 . S
N2230 H2237 0.984 . S
N2231 C2224 1.356 . S
N2231 H2234 0.984 . S
N2231 H2235 0.985 . S
H2232 N2227 0.984 . S
H2233 N2227 0.985 . S
H2234 N2231 0.984 . S
H2235 N2231 0.985 . S
H2236 N2230 0.984 . S
H2237 N2230 0.984 . S
H2238 N2226 0.984 . S
H2239 N2226 0.985 . S
C2240 C2241 1.363 . S
C2240 C2246 1.379 . S
C2240 N2248 1.356 . S
C2241 C2240 1.363 . S
C2241 C2247 1.363 . S
C2242 C2243 1.363 . S
C2242 C2247 1.379 . S
C2242 N2249 1.356 . S
C2243 C2242 1.363 . S
C2243 C2246 1.363 . S
N2244 C2246 1.356 . S
N2244 H2256 0.984 . S
N2244 H2257 0.985 . S
N2245 C2247 1.356 . S
N2245 H2250 0.984 . S
N2245 H2251 0.985 . S
C2246 C2240 1.379 . S
C2246 C2243 1.363 . S
C2246 N2244 1.356 . S
C2247 C2241 1.363 . S
C2247 C2242 1.379 . S
C2247 N2245 1.356 . S
N2248 C2240 1.356 . S
N2248 H2254 0.984 . S
N2248 H2255 0.984 . S
N2249 C2242 1.356 . S
N2249 H2252 0.984 . S
N2249 H2253 0.985 . S
H2250 N2245 0.984 . S
H2251 N2245 0.985 . S
H2252 N2249 0.984 . S
H2253 N2249 0.985 . S
H2254 N2248 0.984 . S
H2255 N2248 0.984 . S
H2256 N2244 0.984 . S
H2257 N2244 0.985 . S
C2258 C2259 1.363 . S
C2258 C2264 1.379 . S
C2258 N2266 1.356 . S
C2259 C2258 1.363 . S
C2259 C2265 1.363 . S
C2260 C2261 1.363 . S
C2260 C2265 1.379 . S
C2260 N2267 1.356 . S
C2261 C2260 1.363 . S
C2261 C2264 1.363 . S
N2262 C2264 1.356 1_545 S
N2262 H2274 0.984 . S
N2262 H2275 0.985 . S
N2263 C2265 1.356 . S
N2263 H2268 0.984 . S
N2263 H2269 0.985 . S
C2264 C2258 1.379 . S
C2264 C2261 1.363 . S
C2264 N2262 1.356 1_565 S
C2265 C2259 1.363 . S
C2265 C2260 1.379 . S
C2265 N2263 1.356 . S
N2266 C2258 1.356 . S
N2266 H2272 0.984 . S
N2266 H2273 0.984 . S
N2267 C2260 1.356 . S
N2267 H2270 0.984 . S
N2267 H2271 0.985 . S
H2268 N2263 0.984 . S
H2269 N2263 0.985 . S
H2270 N2267 0.984 . S
H2271 N2267 0.985 . S
H2272 N2266 0.984 . S
H2273 N2266 0.984 . S
H2274 N2262 0.984 . S
H2275 N2262 0.985 . S
C2276 C2277 1.363 . S
C2276 C2282 1.379 . S
C2276 N2284 1.356 . S
C2277 C2276 1.363 . S
C2277 C2283 1.363 . S
C2278 C2279 1.363 . S
C2278 C2283 1.379 . S
C2278 N2285 1.356 . S
C2279 C2278 1.363 . S
C2279 C2282 1.363 . S
N2280 C2282 1.356 . S
N2280 H2292 0.984 . S
N2280 H2293 0.985 . S
N2281 C2283 1.356 . S
N2281 H2286 0.984 . S
N2281 H2287 0.985 . S
C2282 C2276 1.379 . S
C2282 C2279 1.363 . S
C2282 N2280 1.356 . S
C2283 C2277 1.363 . S
C2283 C2278 1.379 . S
C2283 N2281 1.356 . S
N2284 C2276 1.356 . S
N2284 H2290 0.984 . S
N2284 H2291 0.984 . S
N2285 C2278 1.356 . S
N2285 H2288 0.984 . S
N2285 H2289 0.985 . S
H2286 N2281 0.984 . S
H2287 N2281 0.985 . S
H2288 N2285 0.984 . S
H2289 N2285 0.985 . S
H2290 N2284 0.984 . S
H2291 N2284 0.984 . S
H2292 N2280 0.984 . S
H2293 N2280 0.985 . S
C2294 C2295 1.363 . S
C2294 C2300 1.379 . S
C2294 N2302 1.356 . S
C2295 C2294 1.363 . S
C2295 C2301 1.363 1_554 S
C2296 C2297 1.363 1_556 S
C2296 C2301 1.379 . S
C2296 N2303 1.356 . S
C2297 C2296 1.363 1_554 S
C2297 C2300 1.363 . S
N2298 C2300 1.356 . S
N2298 H2310 0.984 . S
N2298 H2311 0.985 . S
N2299 C2301 1.356 . S
N2299 H2304 0.984 . S
N2299 H2305 0.985 . S
C2300 C2294 1.379 . S
C2300 C2297 1.363 . S
C2300 N2298 1.356 . S
C2301 C2295 1.363 1_556 S
C2301 C2296 1.379 . S
C2301 N2299 1.356 . S
N2302 C2294 1.356 . S
N2302 H2308 0.984 . S
N2302 H2309 0.984 . S
N2303 C2296 1.356 . S
N2303 H2306 0.984 . S
N2303 H2307 0.985 . S
H2304 N2299 0.984 . S
H2305 N2299 0.985 . S
H2306 N2303 0.984 . S
H2307 N2303 0.985 . S
H2308 N2302 0.984 . S
H2309 N2302 0.984 . S
H2310 N2298 0.984 . S
H2311 N2298 0.985 . S
C2312 C2313 1.363 . S
C2312 C2318 1.379 . S
C2312 N2320 1.356 . S
C2313 C2312 1.363 . S
C2313 C2319 1.363 . S
C2314 C2315 1.363 . S
C2314 C2319 1.379 . S
C2314 N2321 1.356 . S
C2315 C2314 1.363 . S
C2315 C2318 1.363 . S
N2316 C2318 1.356 . S
N2316 H2328 0.984 . S
N2316 H2329 0.985 . S
N2317 C2319 1.356 . S
N2317 H2322 0.984 . S
N2317 H2323 0.985 . S
C2318 C2312 1.379 . S
C2318 C2315 1.363 . S
C2318 N2316 1.356 . S
C2319 C2313 1.363 . S
C2319 C2314 1.379 . S
C2319 N2317 1.356 . S
N2320 C2312 1.356 . S
N2320 H2326 0.984 . S
N2320 H2327 0.984 . S
N2321 C2314 1.356 . S
N2321 H2324 0.984 . S
N2321 H2325 0.985 . S
H2322 N2317 0.984 . S
H2323 N2317 0.985 . S
H2324 N2321 0.984 . S
H2325 N2321 0.985 . S
H2326 N2320 0.984 . S
H2327 N2320 0.984 . S
H2328 N2316 0.984 . S
H2329 N2316 0.985 . S
C2330 C2331 1.363 . S
C2330 C2336 1.379 . S
C2330 N2338 1.356 . S
C2331 C2330 1.363 . S
C2331 C2337 1.363 1_554 S
C2332 C2333 1.363 1_556 S
C2332 C2337 1.379 . S
C2332 N2339 1.356 . S
C2333 C2332 1.363 1_554 S
C2333 C2336 1.363 . S
N2334 C2336 1.356 . S
N2334 H2346 0.984 . S
N2334 H2347 0.985 . S
N2335 C2337 1.356 . S
N2335 H2340 0.984 . S
N2335 H2341 0.985 . S
C2336 C2330 1.379 . S
C2336 C2333 1.363 . S
C2336 N2334 1.356 . S
C2337 C2331 1.363 1_556 S
C2337 C2332 1.379 . S
C2337 N2335 1.356 . S
N2338 C2330 1.356 . S
N2338 H2344 0.984 . S
N2338 H2345 0.984 . S
N2339 C2332 1.356 . S
N2339 H2342 0.984 . S
N2339 H2343 0.985 . S
H2340 N2335 0.984 . S
H2341 N2335 0.985 . S
H2342 N2339 0.984 . S
H2343 N2339 0.985 . S
H2344 N2338 0.984 . S
H2345 N2338 0.984 . S
H2346 N2334 0.984 . S
H2347 N2334 0.985 . S
C2348 C2349 1.363 . S
C2348 C2354 1.379 . S
C2348 N2356 1.356 . S
C2349 C2348 1.363 . S
C2349 C2355 1.363 . S
C2350 C2351 1.363 . S
C2350 C2355 1.379 . S
C2350 N2357 1.356 . S
C2351 C2350 1.363 . S
C2351 C2354 1.363 . S
N2352 C2354 1.356 . S
N2352 H2364 0.984 . S
N2352 H2365 0.985 . S
N2353 C2355 1.356 . S
N2353 H2358 0.984 . S
N2353 H2359 0.985 . S
C2354 C2348 1.379 . S
C2354 C2351 1.363 . S
C2354 N2352 1.356 . S
C2355 C2349 1.363 . S
C2355 C2350 1.379 . S
C2355 N2353 1.356 . S
N2356 C2348 1.356 . S
N2356 H2362 0.984 . S
N2356 H2363 0.984 . S
N2357 C2350 1.356 . S
N2357 H2360 0.984 . S
N2357 H2361 0.985 . S
H2358 N2353 0.984 . S
H2359 N2353 0.985 . S
H2360 N2357 0.984 . S
H2361 N2357 0.985 . S
H2362 N2356 0.984 . S
H2363 N2356 0.984 . S
H2364 N2352 0.984 . S
H2365 N2352 0.985 . S
C2366 C2367 1.363 . S
C2366 C2372 1.379 . S
C2366 N2374 1.356 . S
C2367 C2366 1.363 . S
C2367 C2373 1.363 . S
C2368 C2369 1.363 . S
C2368 C2373 1.379 . S
C2368 N2375 1.356 . S
C2369 C2368 1.363 . S
C2369 C2372 1.363 . S
N2370 C2372 1.356 . S
N2370 H2382 0.984 . S
N2370 H2383 0.985 . S
N2371 C2373 1.356 . S
N2371 H2376 0.984 . S
N2371 H2377 0.985 . S
C2372 C2366 1.379 . S
C2372 C2369 1.363 . S
C2372 N2370 1.356 . S
C2373 C2367 1.363 . S
C2373 C2368 1.379 . S
C2373 N2371 1.356 . S
N2374 C2366 1.356 . S
N2374 H2380 0.984 . S
N2374 H2381 0.984 . S
N2375 C2368 1.356 . S
N2375 H2378 0.984 . S
N2375 H2379 0.985 . S
H2376 N2371 0.984 . S
H2377 N2371 0.985 . S
H2378 N2375 0.984 . S
H2379 N2375 0.985 . S
H2380 N2374 0.984 . S
H2381 N2374 0.984 . S
H2382 N2370 0.984 . S
H2383 N2370 0.985 . S
C657 C106 1.997 . S
C659 C354 1.924 1_556 S
C675 C65 1.700 . S
C677 C365 1.702 . S
C693 C79 1.589 . S
C695 C394 1.495 . S
C713 C397 1.273 . S
C711 C90 1.247 . S
C729 C21 1.433 . S
C731 C435 1.431 . S
C749 C438 1.287 . S
C747 C35 1.193 . S
C767 C465 1.599 . S
C765 C50 1.601 . S
C783 C6 1.699 . S
C785 C494 1.671 . S
C803 C345 1.895 1_655 S
C801 C232 1.882 . S
C819 C245 1.059 . S
C821 C357 1.107 . S
C839 C385 1.617 . S
C837 C274 1.614 . S
C857 C414 1.287 . S
C855 C175 1.284 . S
C873 C231 1.015 . S
C875 C418 1.076 . S
C893 C444 1.605 . S
C891 C246 1.632 . S
C911 C457 0.823 . S
C909 C273 0.818 . S
C929 C485 1.836 . S
C927 C176 1.831 . S
C947 C337 1.606 1_565 S
C945 C160 1.555 . S
C963 C289 1.780 . S
C965 C504 1.741 . S
C983 C535 1.652 . S
C981 C328 1.647 . S
C1001 C554 1.195 . S
C999 C317 1.250 . S
C1017 C118 1.423 . S
C1019 C477 1.540 . S
C1035 C132 1.508 . S
C1037 C377 1.589 . S
C1053 C331 1.671 . S
C1055 C565 1.665 . S
C1073 C594 1.234 . S
C1071 C303 1.307 . S
C1091 C355 1.584 . S
C1089 C63 1.586 . S
C1109 C584 2.061 . S
C1107 C107 2.009 . S
C1125 C92 1.322 . S
C1127 C395 1.271 . S
C1143 C78 1.703 . S
C1145 C558 1.717 . S
C1163 C434 1.891 . S
C1161 C8 1.941 . S
C1179 C51 1.324 . S
C1181 C517 1.310 . S
C1199 C464 1.914 1_556 S
C1197 C37 1.863 . S
C1217 C615 1.585 . S
C1215 C20 1.612 . S
C1235 C344 1.634 . S
C1233 C147 1.557 . S
C1253 C578 1.198 . S
C1251 C316 1.241 . S
C1269 C119 1.493 . S
C1271 C384 1.541 . S
C1287 C288 1.368 . S
C1289 C575 1.359 . S
C1305 C148 1.321 1_545 S
C1307 C417 1.315 . S
C1325 C525 1.580 . S
C1323 C315 1.542 . S
C1341 C120 1.087 . S
C1343 C458 1.062 . S
C1359 C287 1.644 . S
C1361 C604 1.664 . S
C1377 C188 1.488 . S
C1379 C338 1.480 . S
C1395 C177 1.947 . S
C1397 C505 1.929 . S
C1413 C258 1.725 . S
C1415 C454 1.706 . S
C1431 C247 1.250 . S
C1433 C555 1.230 . S
C1451 C598 1.417 . S
C1449 C272 1.385 . S
C1467 C216 1.458 . S
C1469 C378 1.510 . S
C1487 C404 1.842 . S
C1485 C261 1.814 . S
C1505 C375 1.196 . S
C1503 C205 1.255 . S
C1521 C76 1.588 . S
C1523 C634 1.599 . S
C1541 C585 1.770 . S
C1539 C93 1.767 . S
C1557 C105 1.216 . S
C1559 C654 1.199 1_556 S
C1575 C62 1.273 . S
C1577 C557 1.304 . S
C1593 C49 1.401 . S
C1595 C515 1.400 . S
C1613 C518 1.622 . S
C1611 C9 1.592 . S
C1631 C545 1.538 . S
C1629 C22 1.533 1_455 S
C1649 C614 1.970 . S
C1647 C36 2.098 . S
C1667 C625 1.847 . S
C1665 C260 1.836 . S
C1683 C189 0.940 . S
C1685 C577 0.965 . S
C1703 C645 1.573 . S
C1701 C204 1.571 . S
C1721 C574 1.148 . S
C1719 C217 1.152 . S
C1739 C498 1.247 . S
C1737 C259 1.154 . S
C1755 C190 1.675 . S
C1757 C524 1.660 . S
C1775 C537 0.956 . S
C1773 C203 0.934 . S
C1791 C218 1.872 . S
C1793 C605 1.878 . S
C1811 C617 1.582 . S
C1809 C314 1.522 . S
C1827 C135 1.815 . S
C1829 C424 1.783 . S
C1847 C455 1.613 . S
C1845 C146 1.604 . S
C1865 C474 1.240 . S
C1863 C163 1.274 . S
C1883 C597 1.543 . S
C1881 C300 1.440 . S
C1899 C286 1.483 . S
C1901 C637 1.579 . S
C1919 C405 1.613 . S
C1917 C149 1.613 . S
C1937 C374 1.214 . S
C1935 C121 1.312 . S
C1953 C91 1.578 . S
C1955 C635 1.585 . S
C1973 C364 1.688 . S
C1971 C77 1.576 . S
C1989 C64 1.280 . S
C1991 C655 1.245 . S
C2007 C104 1.403 . S
C2009 C398 1.452 . S
C2025 C34 1.595 . S
C2027 C514 1.585 . S
C2045 C437 1.271 . S
C2043 C23 1.275 . S
C2061 C7 1.462 . S
C2063 C544 1.548 . S
C2079 C48 1.588 . S
C2081 C495 1.571 . S
C2099 C624 1.592 . S
C2097 C329 1.526 . S
C2115 C162 1.211 . S
C2117 C358 1.177 . S
C2135 C644 1.514 1_655 S
C2133 C301 1.478 . S
C2151 C134 1.367 . S
C2153 C415 1.363 . S
C2169 C330 1.298 . S
C2171 C497 1.295 . S
C2189 C445 1.556 . S
C2187 C161 1.525 . S
C2205 C302 1.073 . S
C2207 C538 1.054 . S
C2225 C484 1.628 . S
C2223 C133 1.616 . S
C2243 C618 1.611 . S
C2241 C244 1.611 . S
C2261 C425 1.919 1_565 S
C2259 C219 1.946 . S
C2277 C230 1.576 . S
C2279 C534 1.541 . S
C2297 C475 1.194 . S
C2295 C191 1.233 . S
C2313 C202 1.496 . S
C2315 C478 1.533 . S
C2331 C174 1.580 . S
C2333 C638 1.638 . S
C2351 C564 1.836 . S
C2349 C233 1.798 . S
C2369 C595 1.197 . S
C2367 C275 1.277 . S
