# Generated by pormake.
# Topology scu, (8,4)-cn, num edge types: 1
# Building blocks:
#     Node 0, Type 0, BuildingBlock: TAGTUT_clean_sbu_3, # of connection points: 8
#     Node 1, Type 1, BuildingBlock: MUDLON_clean_sbu_0, # of connection points: 4
#     Node 2, Type 1, BuildingBlock: MUDLON_clean_sbu_0, # of connection points: 4
#     Edge 3, Type (0, 1), BuildingBlock: ZUJKAS_clean_linker_0, # of connection points: 2
#     Edge 4, Type (0, 1), BuildingBlock: ZUJKAS_clean_linker_0, # of connection points: 2
#     Edge 5, Type (0, 1), BuildingBlock: ZUJKAS_clean_linker_0, # of connection points: 2
#     Edge 6, Type (0, 1), BuildingBlock: ZUJKAS_clean_linker_0, # of connection points: 2
#     Edge 7, Type (0, 1), BuildingBlock: ZUJKAS_clean_linker_0, # of connection points: 2
#     Edge 8, Type (0, 1), BuildingBlock: ZUJKAS_clean_linker_0, # of connection points: 2
#     Edge 9, Type (0, 1), BuildingBlock: ZUJKAS_clean_linker_0, # of connection points: 2
#     Edge 10, Type (0, 1), BuildingBlock: ZUJKAS_clean_linker_0, # of connection points: 2
# Relax obj value: 0.056
# Max RMSD: 0.118
# Mean RMSD: 0.087
data_MOF--net-scu--node1-TAGTUT_clean_sbu_3--node2-MUDLON_clean_sbu_0--edge1-ZUJKAS_clean_linker_0
_symmetry_space_group_name_H-M    P1
_symmetry_Int_Tables_number       1
_symmetry_cell_setting            triclinic
loop_
_symmetry_equiv_pos_as_xyz
'x, y, z'
_cell_length_a     33.629
_cell_length_b     29.10178
_cell_length_c     26.485161
_cell_angle_alpha  89.825373
_cell_angle_beta   90.895656
_cell_angle_gamma 89.857097
loop_
_atom_site_label
_atom_site_type_symbol
_atom_site_fract_x
_atom_site_fract_y
_atom_site_fract_z
_atom_type_partial_charge
C0 C 0.01371 0.91762 0.0666 0.0
C1 C 0.86882 0.98412 0.06651 0.0
C2 C 0.90017 0.03971 0.91986 0.0
Mg3 Mg 0.09342 0.95732 0.01515 0.0
Mg4 Mg 0.10447 0.06666 0.98347 0.0
O5 O 0.07272 0.0138 0.98005 0.0
Mg6 Mg 0.01686 0.0132 0.00444 0.0
O7 O 0.96129 0.00789 0.02873 0.0
Mg8 Mg 0.94332 0.95298 0.9888 0.0
Mg9 Mg 0.92742 0.05925 0.02812 0.0
C10 C 0.02442 0.10808 0.93519 0.0
O11 O 0.02682 0.06927 0.06492 0.0
O12 O 0.14947 0.96506 0.96486 0.0
O13 O 0.96765 0.10592 0.06832 0.0
O14 O 0.12482 -0.00077 0.07881 0.0
O15 O 0.15355 0.03922 0.9412 0.0
O16 O 0.12423 0.0742 0.0607 0.0
O17 O 1.00263 0.95786 0.94496 0.0
O18 O 0.06047 0.91979 0.95236 0.0
C19 C 0.02583 0.92485 0.93223 0.0
C20 C 0.1662 -0.00239 0.94005 0.0
O21 O 1.00393 0.07311 0.94915 0.0
O22 O 0.88708 0.95361 0.04031 0.0
O23 O 0.06126 0.11346 0.94776 0.0
O24 O 0.90958 -0.00222 0.92906 0.0
O25 O 0.87954 0.02639 0.06729 0.0
O26 O 0.90786 0.07154 0.95156 0.0
O27 O 0.03385 0.9543 0.05848 0.0
O28 O 0.97924 0.91136 0.04649 0.0
C29 C 0.13287 0.04093 0.09049 0.0
C30 C 1.00455 0.10185 0.08126 0.0
Mg31 Mg 0.99796 0.49421 0.50039 0.0
C32 C 0.05038 0.41255 0.47866 0.0
O33 O 0.03449 0.39789 0.52075 0.0
C34 C 0.0254 0.57816 0.5561 0.0
O35 O 0.02816 0.5933 0.50951 0.0
C36 C 0.9413 0.45228 0.57393 0.0
O37 O 0.94486 0.49342 0.59378 0.0
O38 O 0.95624 0.44492 0.53088 0.0
O39 O 0.04365 0.45363 0.46446 0.0
O40 O 0.97614 0.54303 0.44428 0.0
C41 C 0.98677 0.53899 0.39864 0.0
O42 O 1.00411 0.50074 0.38451 0.0
O43 O 0.01736 0.53607 0.56355 0.0
Mg44 Mg 0.51945 0.00049 0.50023 0.0
C45 C 0.46726 0.02668 0.41273 0.0
O46 O 0.48769 0.99212 0.39459 0.0
C47 C 0.57384 0.02209 0.58591 0.0
O48 O 0.55538 0.98495 0.60112 0.0
C49 C 0.44852 0.95146 0.54625 0.0
O50 O 0.43357 0.95702 0.50051 0.0
O51 O 0.48449 0.96267 0.55494 0.0
O52 O 0.47571 0.04095 0.457 0.0
O53 O 0.55291 0.95954 0.44667 0.0
C54 C 0.58764 0.94419 0.45635 0.0
O55 O 0.60227 0.94803 0.50242 0.0
O56 O 0.56386 0.03953 0.5434 0.0
H57 H 0.07183 0.09194 0.14008 0.0
H58 H 0.09464 0.14183 0.20894 0.0
H59 H 0.99672 0.23414 0.1782 0.0
H60 H 0.97398 0.18489 0.10909 0.0
H61 H 0.11265 0.24231 0.21394 0.0
H62 H 0.98361 0.18719 0.32714 0.0
H63 H 1.00007 0.15598 0.27245 0.0
H64 H 0.97077 0.20733 0.26478 0.0
C65 C 0.05574 0.12342 0.14711 0.0
C66 C 0.02106 0.13436 0.11907 0.0
C67 C 0.06872 0.15176 0.18663 0.0
C68 C 0.04707 0.1913 0.1989 0.0
C69 C 0.01355 0.20343 0.16957 0.0
H70 H 0.07109 0.42796 0.38052 0.0
H71 H 0.08029 0.37005 0.31554 0.0
C72 C 1.00059 0.17521 0.13013 0.0
C73 C 0.05745 0.21833 0.24443 0.0
H74 H 0.01949 0.25214 0.35694 0.0
C75 C 0.09262 0.24418 0.24557 0.0
C76 C 0.03168 0.2198 0.28602 0.0
C77 C 0.99459 0.19078 0.28798 0.0
C78 C 0.1016 0.27349 0.28633 0.0
C79 C 0.07443 0.27722 0.32643 0.0
C80 C 0.04033 0.24948 0.32622 0.0
C81 C 0.07842 0.31214 0.36695 0.0
C82 C 0.13986 0.30037 0.28582 0.0
C83 C 0.0752 0.2991 0.41783 0.0
C84 C 0.06935 0.33221 0.45515 0.0
C85 C 0.06648 0.37901 0.4422 0.0
C86 C 0.07308 0.39222 0.39187 0.0
C87 C 0.07868 0.35907 0.35456 0.0
H88 H 0.16289 0.28237 0.26361 0.0
H89 H 0.13428 0.33427 0.26773 0.0
H90 H 0.15163 0.30621 0.32467 0.0
H91 H 0.07489 0.26307 0.42828 0.0
H92 H 0.06462 0.32086 0.49357 0.0
H93 H 0.81405 0.03954 0.11078 0.0
H94 H 0.76569 0.01866 0.17442 0.0
H95 H 0.80097 0.87657 0.16346 0.0
H96 H 0.84943 0.8971 0.09879 0.0
H97 H 0.71728 0.88981 0.17298 0.0
H98 H 0.80272 0.9857 0.31855 0.0
H99 H 0.79038 0.0202 0.26423 0.0
H100 H 0.82302 0.97153 0.25784 0.0
C101 C 0.81139 0.00373 0.12143 0.0
C102 C 0.83603 0.97007 0.10007 0.0
C103 C 0.78377 0.99189 0.158 0.0
C104 C 0.78041 0.94626 0.17453 0.0
C105 C 0.80335 0.91207 0.15148 0.0
H106 H 0.66261 0.90751 0.4629 0.0
H107 H 0.70957 0.89723 0.39425 0.0
C108 C 0.83096 0.92386 0.11449 0.0
C109 C 0.75414 0.93518 0.21738 0.0
H110 H 0.73631 0.96509 0.33939 0.0
C111 C 0.72161 0.90577 0.2096 0.0
C112 C 0.76036 0.95516 0.26548 0.0
C113 C 0.79624 0.98452 0.2773 0.0
C114 C 0.69398 0.89772 0.248 0.0
C115 C 0.69871 0.92036 0.29499 0.0
C116 C 0.73236 0.94796 0.30334 0.0
C117 C 0.66827 0.91857 0.33514 0.0
C118 C 0.66005 0.86511 0.23774 0.0
C119 C 0.62906 0.93287 0.32479 0.0
C120 C 0.60202 0.93832 0.36393 0.0
C121 C 0.61383 0.93037 0.41442 0.0
C122 C 0.65255 0.91405 0.42449 0.0
C123 C 0.67946 0.90819 0.38525 0.0
H124 H 0.66818 0.83907 0.20906 0.0
H125 H 0.65091 0.84705 0.27266 0.0
H126 H 0.63417 0.88477 0.22256 0.0
H127 H 0.61987 0.94224 0.28677 0.0
H128 H 0.57252 0.95119 0.35478 0.0
H129 H 1.01205 0.82648 0.0499 0.0
H130 H 0.01781 0.7658 0.11359 0.0
H131 H 0.05094 0.86626 0.22579 0.0
H132 H 0.04585 0.92749 0.16147 0.0
H133 H 0.08626 0.74599 0.20185 0.0
H134 H 0.93284 0.79995 0.25332 0.0
H135 H 0.95095 0.80946 0.19034 0.0
H136 H 0.97078 0.84232 0.24192 0.0
C137 C 0.02201 0.83538 0.08773 0.0
C138 C 0.02853 0.88147 0.10098 0.0
C139 C 0.02522 0.80076 0.12401 0.0
C140 C 0.03447 0.81174 0.17424 0.0
C141 C 0.04388 0.8573 0.18702 0.0
H142 H 0.97473 0.62894 0.42461 0.0
H143 H 0.98829 0.69695 0.37336 0.0
C144 C 0.04122 0.89209 0.15033 0.0
C145 C 0.02879 0.77632 0.21349 0.0
H146 H 0.95686 0.73077 0.28792 0.0
C147 C 0.05828 0.7429 0.22137 0.0
C148 C 0.9922 0.7726 0.23867 0.0
C149 C 0.95966 0.80783 0.23092 0.0
C150 C 0.05178 0.70509 0.25329 0.0
C151 C 0.0143 0.69998 0.27644 0.0
C152 C 0.9854 0.73445 0.26985 0.0
C153 C 1.00413 0.65869 0.30664 0.0
C154 C 0.08518 0.67111 0.26189 0.0
C155 C 1.00686 0.61461 0.28554 0.0
C156 C 0.99929 0.57563 0.31479 0.0
C157 C 0.9882 0.58001 0.3655 0.0
C158 C 0.98317 0.6243 0.38565 0.0
C159 C 0.99114 0.66326 0.3565 0.0
H160 H 0.11463 0.68716 0.25549 0.0
H161 H 0.08485 0.65686 0.30082 0.0
H162 H 0.08181 0.6423 0.23482 0.0
H163 H 0.01544 0.61027 0.2466 0.0
H164 H 1.00312 0.54205 0.29801 0.0
H165 H 0.15483 0.12448 0.1303 0.0
H166 H 0.20473 0.13836 0.19678 0.0
H167 H 0.21711 0.9923 0.22023 0.0
H168 H 0.16667 0.97811 0.15519 0.0
H169 H 0.22318 0.04006 0.30904 0.0
H170 H 0.32067 0.11669 0.16336 0.0
H171 H 0.27371 0.14487 0.17197 0.0
H172 H 0.27505 0.08748 0.14717 0.0
C173 C 0.16764 0.09531 0.15023 0.0
C174 C 0.15721 0.05011 0.13666 0.0
C175 C 0.19635 0.10334 0.18805 0.0
C176 C 0.21549 0.06633 0.2125 0.0
C177 C 0.203 0.02141 0.20163 0.0
H178 H 0.44569 0.00615 0.31612 0.0
H179 H 0.38355 0.0247 0.27232 0.0
C180 C 0.17411 0.01336 0.16425 0.0
C181 C 0.25078 0.07343 0.24608 0.0
H182 H 0.34824 0.10628 0.24421 0.0
C183 C 0.25039 0.0552 0.29524 0.0
C184 C 0.28638 0.09286 0.22777 0.0
C185 C 0.28933 0.11131 0.1746 0.0
C186 C 0.28499 0.05402 0.32575 0.0
C187 C 0.3208 0.07235 0.30687 0.0
C188 C 0.3207 0.09254 0.25867 0.0
C189 C 0.35967 0.06517 0.33324 0.0
C190 C 0.28351 0.03063 0.37662 0.0
C191 C 0.36752 0.08282 0.38171 0.0
C192 C 0.4033 0.07209 0.40715 0.0
C193 C 0.43175 0.04365 0.38437 0.0
C194 C 0.42441 0.02791 0.33497 0.0
C195 C 0.38884 0.03857 0.30975 0.0
H196 H 0.25532 0.01148 0.38184 0.0
H197 H 0.30879 0.00631 0.38146 0.0
H198 H 0.28591 0.05687 0.4068 0.0
H199 H 0.34575 0.10416 0.40019 0.0
H200 H 0.40808 0.08482 0.44514 0.0
H201 H 0.07556 0.89482 0.86148 0.0
H202 H 0.06437 0.83446 0.79974 0.0
H203 H 0.94262 0.82218 0.84685 0.0
H204 H 0.95369 0.88409 0.90921 0.0
H205 H 0.04056 0.74441 0.83184 0.0
H206 H 0.93873 0.82266 0.68721 0.0
H207 H 0.96896 0.85754 0.72896 0.0
H208 H 0.92665 0.82782 0.75304 0.0
C209 C 0.04616 0.87983 0.85827 0.0
C210 C 0.01554 0.89371 0.89033 0.0
C211 C 0.03984 0.84535 0.82298 0.0
C212 C 1.00284 0.82368 0.81903 0.0
C213 C 0.97137 0.83878 0.84925 0.0
H214 H 1.00234 0.56197 0.6532 0.0
H215 H 0.99239 0.61866 0.71976 0.0
C216 C 0.97763 0.87403 0.88465 0.0
C217 C 0.99931 0.78324 0.78559 0.0
H218 H 0.96507 0.74958 0.66962 0.0
C219 C 0.02354 0.74506 0.79669 0.0
C220 C 0.97734 0.78463 0.73979 0.0
C221 C 0.95147 0.82532 0.72605 0.0
C222 C 0.02801 0.70916 0.76207 0.0
C223 C 1.00689 0.71106 0.71552 0.0
C224 C 0.98125 0.74831 0.70535 0.0
C225 C 0.01303 0.67631 0.67559 0.0
C226 C 0.057 0.67091 0.77449 0.0
C227 C 0.02772 0.68993 0.62857 0.0
C228 C 0.03323 0.65769 0.59034 0.0
C229 C 0.02416 0.61115 0.59844 0.0
C230 C 1.01011 0.59745 0.64593 0.0
C231 C 1.00433 0.62982 0.68403 0.0
H232 H 0.07739 0.68009 0.80628 0.0
H233 H 0.04025 0.63979 0.78565 0.0
H234 H 0.07514 0.66216 0.74118 0.0
H235 H 0.03478 0.72564 0.62138 0.0
H236 H 0.04393 0.66941 0.55416 0.0
H237 H 0.18743 0.91319 0.9033 0.0
H238 H 0.23732 0.89653 0.83965 0.0
H239 H 0.27025 0.03966 0.83636 0.0
H240 H 0.2197 0.0568 0.89876 0.0
H241 H 0.25714 0.00808 0.74386 0.0
H242 H 0.35665 0.8861 0.84615 0.0
H243 H 0.30552 0.86858 0.84482 0.0
H244 H 0.31971 0.92008 0.87782 0.0
C245 C 0.20576 0.94101 0.88967 0.0
C246 C 0.19951 0.98637 0.90611 0.0
C247 C 0.23444 0.93136 0.8534 0.0
C248 C 0.25792 0.96673 0.83354 0.0
C249 C 0.25252 0.01178 0.8511 0.0
H250 H 0.46557 0.95806 0.64737 0.0
H251 H 0.41842 0.95632 0.71653 0.0
C252 C 0.22361 0.02153 0.88685 0.0
C253 C 0.28598 0.95781 0.79181 0.0
H254 H 0.3672 0.89479 0.75799 0.0
C255 C 0.28123 0.98333 0.74704 0.0
C256 C 0.31757 0.9257 0.79601 0.0
C257 C 0.3255 0.89885 0.84395 0.0
C258 C 0.30726 0.97802 0.70658 0.0
C259 C 0.3383 0.94515 0.71024 0.0
C260 C 0.34306 0.91947 0.75494 0.0
C261 C 0.36754 0.93935 0.66923 0.0
C262 C 0.302 0.00894 0.66105 0.0
C263 C 0.35501 0.92829 0.61991 0.0
C264 C 0.38185 0.92975 0.58009 0.0
C265 C 0.42186 0.94157 0.58901 0.0
C266 C 0.43494 0.94904 0.63906 0.0
C267 C 0.408 0.94805 0.67873 0.0
H268 H 0.28371 0.03971 0.66966 0.0
H269 H 0.33118 0.02065 0.64686 0.0
H270 H 0.28659 0.9897 0.63043 0.0
H271 H 0.32414 0.9202 0.6119 0.0
H272 H 0.37089 0.92329 0.5421 0.0
H273 H 0.0472 0.19688 0.91968 0.0
H274 H 0.02014 0.25131 0.85765 0.0
H275 H 0.93341 0.15098 0.80952 0.0
H276 H 0.96015 0.09645 0.8719 0.0
H277 H 0.01978 0.23719 0.75606 0.0
H278 H 0.86549 0.26666 0.82116 0.0
H279 H 0.90347 0.24074 0.861 0.0
H280 H 0.8792 0.20752 0.81256 0.0
C281 C 0.022 0.18659 0.89641 0.0
C282 C 1.00564 0.14242 0.90096 0.0
C283 C 1.00653 0.21775 0.86101 0.0
C284 C 0.97448 0.20542 0.82929 0.0
C285 C 0.95751 0.16167 0.83437 0.0
H286 H 0.93996 0.3608 0.54927 0.0
H287 H 0.94009 0.29609 0.60841 0.0
C288 C 0.97284 0.13052 0.87007 0.0
C289 C 0.96143 0.23716 0.78829 0.0
H290 H 0.88314 0.30131 0.74349 0.0
C291 C 0.98985 0.25105 0.7532 0.0
C292 C 0.92233 0.25512 0.78465 0.0
C293 C 0.89086 0.24213 0.82202 0.0
C294 C 0.98063 0.28315 0.71524 0.0
C295 C 0.94158 0.30125 0.71152 0.0
C296 C 0.91288 0.28692 0.74612 0.0
C297 C 0.9316 0.33809 0.67464 0.0
C298 C 0.01329 0.29876 0.68066 0.0
C299 C 0.92397 0.3827 0.69193 0.0
C300 C 0.92353 0.41975 0.65821 0.0
C301 C 0.9309 0.41278 0.60663 0.0
C302 C 0.93462 0.36748 0.5888 0.0
C303 C 0.93487 0.33043 0.62257 0.0
H304 H 0.04323 0.28843 0.695 0.0
H305 H 1.00874 0.28306 0.64289 0.0
H306 H 1.01273 0.33669 0.67599 0.0
H307 H 0.92113 0.3893 0.73195 0.0
H308 H 0.92021 0.45411 0.67321 0.0
H309 H 0.8742 0.1243 0.88592 0.0
H310 H 0.82505 0.13956 0.8187 0.0
H311 H 0.82096 0.99497 0.78395 0.0
H312 H 0.87059 0.97952 0.84979 0.0
H313 H 0.81505 0.04865 0.69859 0.0
H314 H 0.70947 0.10807 0.8447 0.0
H315 H 0.75514 0.13961 0.84043 0.0
H316 H 0.7561 0.08069 0.86093 0.0
C317 C 0.86335 0.09582 0.86342 0.0
C318 C 0.87587 0.05052 0.87398 0.0
C319 C 0.83508 0.10462 0.82515 0.0
C320 C 0.81854 0.06826 0.79716 0.0
C321 C 0.83308 0.02356 0.80527 0.0
H322 H 0.59645 0.99573 0.68051 0.0
H323 H 0.65647 0.0167 0.72725 0.0
C324 C 0.86147 0.01477 0.84314 0.0
C325 C 0.78386 0.07537 0.76249 0.0
H326 H 0.6845 0.10025 0.76233 0.0
C327 C 0.78662 0.0607 0.71218 0.0
C328 C 0.7467 0.09081 0.78049 0.0
C329 C 0.74134 0.1054 0.83463 0.0
C330 C 0.75291 0.0589 0.68014 0.0
C331 C 0.71556 0.07289 0.69871 0.0
C332 C 0.71322 0.08982 0.74814 0.0
C333 C 0.67786 0.0638 0.67051 0.0
C334 C 0.75707 0.03928 0.62781 0.0
C335 C 0.66932 0.08415 0.62335 0.0
C336 C 0.63473 0.07205 0.59619 0.0
C337 C 0.60822 0.03947 0.6159 0.0
C338 C 0.61626 0.02069 0.66397 0.0
C339 C 0.6506 0.03274 0.6909 0.0
H340 H 0.7868 0.02356 0.62209 0.0
H341 H 0.73397 0.0128 0.62051 0.0
H342 H 0.75285 0.06711 0.59949 0.0
H343 H 0.68963 0.10881 0.60727 0.0
H344 H 0.62934 0.0872 0.55931 0.0
loop_
_geom_bond_atom_site_label_1
_geom_bond_atom_site_label_2
_geom_bond_distance
_geom_bond_site_symmetry_2
_ccdc_geom_bond_type
C0 O27 1.312 1_655 S
C0 O28 1.208 . S
C1 O22 1.331 . S
C1 O25 1.244 1_565 S
C2 O24 1.264 1_545 S
C2 O26 1.273 . S
Mg3 O5 1.939 1_565 S
Mg3 O12 2.093 . S
Mg3 O14 2.011 1_556 S
Mg3 O18 2.042 . S
Mg3 O27 2.282 1_556 S
Mg4 O5 1.963 . S
Mg4 O15 1.942 . S
Mg4 O16 1.955 1_556 S
Mg4 O23 1.986 . S
O5 Mg3 1.939 1_545 S
O5 Mg4 1.963 . S
O5 Mg6 1.937 1_556 S
Mg6 O5 1.937 1_554 S
Mg6 O7 1.893 1_455 S
Mg6 O11 2.017 . S
Mg6 O17 2.107 1_444 S
Mg6 O21 2.008 1_454 S
Mg6 O27 2.121 1_545 S
O7 Mg6 1.893 1_655 S
O7 Mg8 1.936 1_545 S
O7 Mg9 1.963 . S
Mg8 O7 1.936 1_565 S
Mg8 O17 2.291 1_554 S
Mg8 O22 2.081 . S
Mg8 O24 2.023 1_554 S
Mg8 O28 2.031 . S
Mg9 O7 1.963 . S
Mg9 O13 1.986 . S
Mg9 O25 1.942 . S
Mg9 O26 1.955 1_554 S
C10 O21 1.191 1_455 S
C10 O23 1.307 . S
O11 Mg6 2.017 . S
O11 C30 1.191 1_455 S
O12 Mg3 2.093 . S
O12 C20 1.331 . S
O13 Mg9 1.986 . S
O13 C30 1.307 . S
O14 Mg3 2.011 1_554 S
O14 C29 1.264 1_565 S
O15 Mg4 1.942 . S
O15 C20 1.244 1_545 S
O16 Mg4 1.955 1_554 S
O16 C29 1.273 . S
O17 Mg6 2.107 1_666 S
O17 Mg8 2.291 1_556 S
O17 C19 1.312 1_655 S
O18 Mg3 2.042 . S
O18 C19 1.208 . S
C19 O17 1.312 1_455 S
C19 O18 1.208 . S
C20 O12 1.331 . S
C20 O15 1.244 1_565 S
O21 Mg6 2.008 1_656 S
O21 C10 1.191 1_655 S
O22 C1 1.331 . S
O22 Mg8 2.081 . S
O23 Mg4 1.986 . S
O23 C10 1.307 . S
O24 C2 1.264 1_565 S
O24 Mg8 2.023 1_556 S
O25 C1 1.244 1_545 S
O25 Mg9 1.942 . S
O26 C2 1.273 . S
O26 Mg9 1.955 1_556 S
O27 C0 1.312 1_455 S
O27 Mg3 2.282 1_554 S
O27 Mg6 2.121 1_565 S
O28 C0 1.208 . S
O28 Mg8 2.031 . S
C29 O14 1.264 1_545 S
C29 O16 1.273 . S
C30 O11 1.191 1_655 S
C30 O13 1.307 . S
Mg31 O38 2.141 . S
Mg31 O39 2.048 . S
Mg31 O40 2.048 . S
Mg31 O43 2.141 . S
C32 O33 1.313 . S
C32 O39 1.195 1_455 S
O33 C32 1.313 . S
C34 O35 1.245 . S
C34 O43 1.289 1_455 S
O35 C34 1.245 . S
C36 O37 1.245 . S
C36 O38 1.289 1_455 S
O37 C36 1.245 . S
O38 Mg31 2.141 . S
O38 C36 1.289 1_655 S
O39 Mg31 2.048 . S
O39 C32 1.195 1_655 S
O40 Mg31 2.048 . S
O40 C41 1.195 1_655 S
C41 O40 1.195 1_455 S
C41 O42 1.313 . S
O42 C41 1.313 . S
O43 Mg31 2.141 . S
O43 C34 1.289 1_655 S
Mg44 O51 2.141 . S
Mg44 O52 2.048 . S
Mg44 O53 2.048 . S
Mg44 O56 2.141 . S
C45 O46 1.313 . S
C45 O52 1.195 1_565 S
O46 C45 1.313 . S
C47 O48 1.245 . S
C47 O56 1.289 1_565 S
O48 C47 1.245 . S
C49 O50 1.245 . S
C49 O51 1.289 1_565 S
O50 C49 1.245 . S
O51 Mg44 2.141 . S
O51 C49 1.289 1_545 S
O52 Mg44 2.048 . S
O52 C45 1.195 1_545 S
O53 Mg44 2.048 . S
O53 C54 1.195 1_545 S
C54 O53 1.195 1_565 S
C54 O55 1.313 . S
O55 C54 1.313 . S
O56 Mg44 2.141 . S
O56 C47 1.289 1_545 S
H57 C65 0.929 . S
H58 C67 0.930 . S
H59 C69 0.930 . S
H60 C72 0.929 . S
H61 C75 0.930 . S
H62 C77 0.960 . S
H63 C77 0.960 . S
H64 C77 0.960 . S
C65 H57 0.929 . S
C65 C66 1.375 1_455 S
C65 C67 1.384 . S
C66 C65 1.375 1_655 S
C66 C72 1.393 . S
C67 H58 0.930 . S
C67 C65 1.384 . S
C67 C68 1.371 1_455 S
C68 C67 1.371 1_655 S
C68 C69 1.400 . S
C68 C73 1.490 1_655 S
C69 H59 0.930 . S
C69 C68 1.400 . S
C69 C72 1.386 . S
H70 C86 0.930 . S
H71 C87 0.931 . S
C72 H60 0.929 . S
C72 C66 1.393 . S
C72 C69 1.386 . S
C73 C68 1.490 1_455 S
C73 C75 1.395 . S
C73 C76 1.403 1_455 S
H74 C80 0.930 . S
C75 H61 0.930 . S
C75 C73 1.395 . S
C75 C78 1.403 . S
C76 C73 1.403 1_655 S
C76 C77 1.524 . S
C76 C80 1.400 . S
C77 H62 0.960 . S
C77 H63 0.960 . S
C77 H64 0.960 . S
C77 C76 1.524 . S
C78 C75 1.403 . S
C78 C79 1.392 . S
C78 C82 1.495 . S
C79 C78 1.392 . S
C79 C80 1.385 1_455 S
C79 C81 1.478 . S
C80 H74 0.930 . S
C80 C76 1.400 . S
C80 C79 1.385 1_655 S
C81 C79 1.478 . S
C81 C83 1.381 . S
C81 C87 1.383 . S
C82 C78 1.495 . S
C82 H88 0.959 . S
C82 H89 0.961 . S
C82 H90 0.960 . S
C83 C81 1.381 . S
C83 C84 1.394 . S
C83 H91 0.930 . S
C84 C83 1.394 . S
C84 C85 1.383 . S
C84 H92 0.929 . S
C85 C84 1.383 . S
C85 C86 1.377 . S
C86 H70 0.930 . S
C86 C85 1.377 . S
C86 C87 1.379 . S
C87 H71 0.931 . S
C87 C81 1.383 . S
C87 C86 1.379 . S
H88 C82 0.959 . S
H89 C82 0.961 . S
H90 C82 0.960 . S
H91 C83 0.930 . S
H92 C84 0.929 . S
H93 C101 0.929 . S
H94 C103 0.930 . S
H95 C105 0.930 . S
H96 C108 0.929 . S
H97 C111 0.930 . S
H98 C113 0.960 . S
H99 C113 0.960 . S
H100 C113 0.960 . S
C101 H93 0.929 . S
C101 C102 1.377 1_545 S
C101 C103 1.384 . S
C102 C101 1.377 1_565 S
C102 C108 1.390 . S
C103 H94 0.930 . S
C103 C101 1.384 . S
C103 C104 1.372 1_545 S
C104 C103 1.372 1_565 S
C104 C105 1.400 . S
C104 C109 1.490 . S
C105 H95 0.930 . S
C105 C104 1.400 . S
C105 C108 1.386 . S
H106 C122 0.930 . S
H107 C123 0.931 . S
C108 H96 0.929 . S
C108 C102 1.390 . S
C108 C105 1.386 . S
C109 C104 1.490 . S
C109 C111 1.395 . S
C109 C112 1.403 1_565 S
H110 C116 0.930 . S
C111 H97 0.930 . S
C111 C109 1.395 . S
C111 C114 1.403 . S
C112 C109 1.403 1_545 S
C112 C113 1.524 . S
C112 C116 1.400 . S
C113 H98 0.960 . S
C113 H99 0.960 . S
C113 H100 0.960 . S
C113 C112 1.524 . S
C114 C111 1.403 . S
C114 C115 1.392 . S
C114 C118 1.495 . S
C115 C114 1.392 . S
C115 C116 1.385 1_565 S
C115 C117 1.478 . S
C116 H110 0.930 . S
C116 C112 1.400 . S
C116 C115 1.385 1_545 S
C117 C115 1.478 . S
C117 C119 1.381 1_565 S
C117 C123 1.383 . S
C118 C114 1.495 . S
C118 H124 0.959 . S
C118 H125 0.961 . S
C118 H126 0.960 . S
C119 C117 1.381 1_545 S
C119 C120 1.394 . S
C119 H127 0.930 . S
C120 C119 1.394 . S
C120 C121 1.383 1_545 S
C120 H128 0.929 . S
C121 C120 1.383 1_565 S
C121 C122 1.378 . S
C122 H106 0.930 . S
C122 C121 1.378 . S
C122 C123 1.379 . S
C123 H107 0.931 . S
C123 C117 1.383 . S
C123 C122 1.379 . S
H124 C118 0.959 . S
H125 C118 0.961 . S
H126 C118 0.960 . S
H127 C119 0.930 . S
H128 C120 0.929 . S
H129 C137 0.930 . S
H130 C139 0.931 . S
H131 C141 0.930 . S
H132 C144 0.929 . S
H133 C147 0.930 . S
H134 C149 0.960 . S
H135 C149 0.960 . S
H136 C149 0.960 . S
C137 H129 0.930 . S
C137 C138 1.377 1_655 S
C137 C139 1.384 . S
C138 C137 1.377 1_455 S
C138 C144 1.390 . S
C139 H130 0.931 . S
C139 C137 1.384 . S
C139 C140 1.372 1_655 S
C140 C139 1.372 1_455 S
C140 C141 1.400 . S
C140 C145 1.490 . S
C141 H131 0.930 . S
C141 C140 1.400 . S
C141 C144 1.386 . S
H142 C158 0.930 . S
H143 C159 0.931 . S
C144 H132 0.929 . S
C144 C138 1.390 . S
C144 C141 1.386 . S
C145 C140 1.490 . S
C145 C147 1.395 . S
C145 C148 1.403 1_455 S
H146 C152 0.930 . S
C147 H133 0.930 . S
C147 C145 1.395 . S
C147 C150 1.403 . S
C148 C145 1.403 1_655 S
C148 C149 1.524 . S
C148 C152 1.400 . S
C149 H134 0.960 . S
C149 H135 0.960 . S
C149 H136 0.960 . S
C149 C148 1.524 . S
C150 C147 1.403 . S
C150 C151 1.392 . S
C150 C154 1.495 . S
C151 C150 1.392 . S
C151 C152 1.385 1_455 S
C151 C153 1.478 . S
C152 H146 0.930 . S
C152 C148 1.400 . S
C152 C151 1.385 1_655 S
C153 C151 1.478 . S
C153 C155 1.385 . S
C153 C159 1.383 . S
C154 C150 1.495 . S
C154 H160 0.959 . S
C154 H161 0.961 . S
C154 H162 0.960 . S
C155 C153 1.385 . S
C155 C156 1.393 1_455 S
C155 H163 0.928 1_455 S
C156 C155 1.393 1_655 S
C156 C157 1.383 1_655 S
C156 H164 0.929 . S
C157 C156 1.383 1_455 S
C157 C158 1.377 . S
C158 H142 0.930 . S
C158 C157 1.377 . S
C158 C159 1.379 . S
C159 H143 0.931 . S
C159 C153 1.383 . S
C159 C158 1.379 . S
H160 C154 0.959 . S
H161 C154 0.961 . S
H162 C154 0.960 . S
H163 C155 0.928 1_655 S
H164 C156 0.929 . S
H165 C173 0.929 . S
H166 C175 0.930 . S
H167 C177 0.930 . S
H168 C180 0.929 . S
H169 C183 0.930 . S
H170 C185 0.960 . S
H171 C185 0.960 . S
H172 C185 0.960 . S
C173 H165 0.929 . S
C173 C174 1.377 . S
C173 C175 1.384 . S
C174 C173 1.377 . S
C174 C180 1.390 1_545 S
C175 H166 0.930 . S
C175 C173 1.384 . S
C175 C176 1.372 . S
C176 C175 1.372 . S
C176 C177 1.400 1_545 S
C176 C181 1.490 . S
C177 H167 0.930 . S
C177 C176 1.400 1_565 S
C177 C180 1.386 . S
H178 C194 0.930 . S
H179 C195 0.931 . S
C180 H168 0.929 . S
C180 C174 1.390 1_565 S
C180 C177 1.386 . S
C181 C176 1.490 . S
C181 C183 1.395 1_545 S
C181 C184 1.403 . S
H182 C188 0.930 . S
C183 H169 0.930 . S
C183 C181 1.395 1_565 S
C183 C186 1.403 . S
C184 C181 1.403 . S
C184 C185 1.524 . S
C184 C188 1.400 . S
C185 H170 0.960 . S
C185 H171 0.960 . S
C185 H172 0.960 . S
C185 C184 1.524 . S
C186 C183 1.403 . S
C186 C187 1.392 1_565 S
C186 C190 1.495 . S
C187 C186 1.392 1_545 S
C187 C188 1.385 . S
C187 C189 1.478 . S
C188 H182 0.930 . S
C188 C184 1.400 . S
C188 C187 1.385 . S
C189 C187 1.478 . S
C189 C191 1.381 . S
C189 C195 1.383 1_545 S
C190 C186 1.495 . S
C190 H196 0.959 . S
C190 H197 0.961 . S
C190 H198 0.960 . S
C191 C189 1.381 . S
C191 C192 1.394 . S
C191 H199 0.930 . S
C192 C191 1.394 . S
C192 C193 1.383 . S
C192 H200 0.929 . S
C193 C192 1.383 . S
C193 C194 1.377 1_545 S
C194 H178 0.930 . S
C194 C193 1.377 1_565 S
C194 C195 1.379 . S
C195 H179 0.931 . S
C195 C189 1.383 1_565 S
C195 C194 1.379 . S
H196 C190 0.959 . S
H197 C190 0.961 . S
H198 C190 0.960 . S
H199 C191 0.930 . S
H200 C192 0.929 . S
H201 C209 0.929 . S
H202 C211 0.930 . S
H203 C213 0.930 . S
H204 C216 0.929 . S
H205 C219 0.930 . S
H206 C221 0.960 . S
H207 C221 0.960 . S
H208 C221 0.960 . S
C209 H201 0.929 . S
C209 C210 1.377 1_455 S
C209 C211 1.384 . S
C210 C209 1.377 1_655 S
C210 C216 1.390 . S
C211 H202 0.930 . S
C211 C209 1.384 . S
C211 C212 1.394 . S
C212 C211 1.394 . S
C212 C213 1.376 1_455 S
C212 C217 1.491 . S
C213 H203 0.930 . S
C213 C212 1.376 1_655 S
C213 C216 1.386 . S
H214 C230 0.930 . S
H215 C231 0.931 . S
C216 H204 0.929 . S
C216 C210 1.390 . S
C216 C213 1.386 . S
C217 C212 1.491 . S
C217 C219 1.395 . S
C217 C220 1.403 1_455 S
H218 C224 0.930 . S
C219 H205 0.930 . S
C219 C217 1.395 . S
C219 C222 1.403 . S
C220 C217 1.403 1_655 S
C220 C221 1.524 . S
C220 C224 1.400 . S
C221 H206 0.960 . S
C221 H207 0.960 . S
C221 H208 0.960 . S
C221 C220 1.524 . S
C222 C219 1.403 . S
C222 C223 1.392 . S
C222 C226 1.495 . S
C223 C222 1.392 . S
C223 C224 1.385 1_455 S
C223 C225 1.478 . S
C224 H218 0.930 . S
C224 C220 1.400 . S
C224 C223 1.385 1_655 S
C225 C223 1.478 . S
C225 C227 1.381 . S
C225 C231 1.383 1_455 S
C226 C222 1.495 . S
C226 H232 0.959 . S
C226 H233 0.961 . S
C226 H234 0.960 . S
C227 C225 1.381 . S
C227 C228 1.394 . S
C227 H235 0.930 . S
C228 C227 1.394 . S
C228 C229 1.383 . S
C228 H236 0.929 . S
C229 C228 1.383 . S
C229 C230 1.377 1_455 S
C230 H214 0.930 . S
C230 C229 1.377 1_655 S
C230 C231 1.379 . S
C231 H215 0.931 . S
C231 C225 1.383 1_655 S
C231 C230 1.379 . S
H232 C226 0.959 . S
H233 C226 0.961 . S
H234 C226 0.960 . S
H235 C227 0.930 . S
H236 C228 0.929 . S
H237 C245 0.929 . S
H238 C247 0.930 . S
H239 C249 0.932 . S
H240 C252 0.930 . S
H241 C255 0.930 . S
H242 C257 0.960 . S
H243 C257 0.960 . S
H244 C257 0.960 . S
C245 H237 0.929 . S
C245 C246 1.377 . S
C245 C247 1.384 . S
C246 C245 1.377 . S
C246 C252 1.389 1_565 S
C247 H238 0.930 . S
C247 C245 1.384 . S
C247 C248 1.372 . S
C248 C247 1.372 . S
C248 C249 1.398 1_565 S
C248 C253 1.490 . S
C249 H239 0.932 . S
C249 C248 1.398 1_545 S
C249 C252 1.386 . S
H250 C266 0.930 . S
H251 C267 0.931 . S
C252 H240 0.930 . S
C252 C246 1.389 1_545 S
C252 C249 1.386 . S
C253 C248 1.490 . S
C253 C255 1.395 1_565 S
C253 C256 1.403 . S
H254 C260 0.930 . S
C255 H241 0.930 . S
C255 C253 1.395 1_545 S
C255 C258 1.403 . S
C256 C253 1.403 . S
C256 C257 1.524 . S
C256 C260 1.400 . S
C257 H242 0.960 . S
C257 H243 0.960 . S
C257 H244 0.960 . S
C257 C256 1.524 . S
C258 C255 1.403 . S
C258 C259 1.392 . S
C258 C262 1.495 . S
C259 C258 1.392 . S
C259 C260 1.385 1_545 S
C259 C261 1.478 . S
C260 H254 0.930 . S
C260 C256 1.400 . S
C260 C259 1.385 1_565 S
C261 C259 1.478 . S
C261 C263 1.381 1_545 S
C261 C267 1.383 . S
C262 C258 1.495 . S
C262 H268 0.959 . S
C262 H269 0.961 . S
C262 H270 0.960 . S
C263 C261 1.381 1_565 S
C263 C264 1.394 . S
C263 H271 0.930 . S
C264 C263 1.394 . S
C264 C265 1.383 1_565 S
C264 H272 0.929 . S
C265 C264 1.383 1_545 S
C265 C266 1.377 . S
C266 H250 0.930 . S
C266 C265 1.377 . S
C266 C267 1.379 . S
C267 H251 0.931 . S
C267 C261 1.383 . S
C267 C266 1.379 . S
H268 C262 0.959 . S
H269 C262 0.961 . S
H270 C262 0.960 . S
H271 C263 0.930 . S
H272 C264 0.929 . S
H273 C281 0.929 . S
H274 C283 0.930 . S
H275 C285 0.930 . S
H276 C288 0.929 . S
H277 C291 0.930 . S
H278 C293 0.960 . S
H279 C293 0.960 . S
H280 C293 0.960 . S
C281 H273 0.929 . S
C281 C282 1.377 . S
C281 C283 1.384 . S
C282 C281 1.377 . S
C282 C288 1.390 1_455 S
C283 H274 0.930 . S
C283 C281 1.384 . S
C283 C284 1.372 . S
C284 C283 1.372 . S
C284 C285 1.400 1_455 S
C284 C289 1.490 . S
C285 H275 0.930 . S
C285 C284 1.400 1_655 S
C285 C288 1.386 . S
H286 C302 0.930 . S
H287 C303 0.931 . S
C288 H276 0.929 . S
C288 C282 1.390 1_655 S
C288 C285 1.386 . S
C289 C284 1.490 . S
C289 C291 1.395 . S
C289 C292 1.403 1_455 S
H290 C296 0.930 . S
C291 H277 0.930 . S
C291 C289 1.395 . S
C291 C294 1.403 . S
C292 C289 1.403 1_655 S
C292 C293 1.524 . S
C292 C296 1.400 . S
C293 H278 0.960 . S
C293 H279 0.960 . S
C293 H280 0.960 . S
C293 C292 1.524 . S
C294 C291 1.403 . S
C294 C295 1.392 . S
C294 C298 1.495 . S
C295 C294 1.392 . S
C295 C296 1.385 1_455 S
C295 C297 1.478 . S
C296 H290 0.930 . S
C296 C292 1.400 . S
C296 C295 1.385 1_655 S
C297 C295 1.478 . S
C297 C299 1.381 . S
C297 C303 1.383 1_455 S
C298 C294 1.495 . S
C298 H304 0.959 . S
C298 H305 0.961 . S
C298 H306 0.960 . S
C299 C297 1.381 . S
C299 C300 1.394 . S
C299 H307 0.930 . S
C300 C299 1.394 . S
C300 C301 1.383 . S
C300 H308 0.929 . S
C301 C300 1.383 . S
C301 C302 1.377 1_455 S
C302 H286 0.930 . S
C302 C301 1.377 1_655 S
C302 C303 1.379 . S
C303 H287 0.931 . S
C303 C297 1.383 1_655 S
C303 C302 1.379 . S
H304 C298 0.959 . S
H305 C298 0.961 . S
H306 C298 0.960 . S
H307 C299 0.930 . S
H308 C300 0.929 . S
H309 C317 0.929 . S
H310 C319 0.930 . S
H311 C321 0.930 . S
H312 C324 0.929 . S
H313 C327 0.930 . S
H314 C329 0.960 . S
H315 C329 0.960 1_545 S
H316 C329 0.960 . S
C317 H309 0.929 . S
C317 C318 1.377 . S
C317 C319 1.384 . S
C318 C317 1.377 . S
C318 C324 1.390 1_545 S
C319 H310 0.930 . S
C319 C317 1.384 . S
C319 C320 1.372 . S
C320 C319 1.372 . S
C320 C321 1.400 1_545 S
C320 C325 1.490 . S
C321 H311 0.930 . S
C321 C320 1.400 1_565 S
C321 C324 1.386 . S
H322 C338 0.930 . S
H323 C339 0.931 . S
C324 H312 0.929 . S
C324 C318 1.390 1_565 S
C324 C321 1.386 . S
C325 C320 1.490 . S
C325 C327 1.395 . S
C325 C328 1.402 . S
H326 C332 0.937 . S
C327 H313 0.930 . S
C327 C325 1.395 . S
C327 C330 1.403 . S
C328 C325 1.402 . S
C328 C329 1.524 1_545 S
C328 C332 1.400 1_545 S
C329 H314 0.960 . S
C329 H315 0.960 1_565 S
C329 H316 0.960 . S
C329 C328 1.524 1_565 S
C330 C327 1.403 . S
C330 C331 1.392 . S
C330 C334 1.495 . S
C331 C330 1.392 . S
C331 C332 1.379 1_545 S
C331 C333 1.478 . S
C332 H326 0.937 . S
C332 C328 1.400 1_565 S
C332 C331 1.379 1_565 S
C333 C331 1.478 . S
C333 C335 1.381 . S
C333 C339 1.383 1_545 S
C334 C330 1.495 . S
C334 H340 0.959 . S
C334 H341 0.961 . S
C334 H342 0.960 . S
C335 C333 1.381 . S
C335 C336 1.394 . S
C335 H343 0.930 . S
C336 C335 1.394 . S
C336 C337 1.383 . S
C336 H344 0.929 . S
C337 C336 1.383 . S
C337 C338 1.377 1_545 S
C338 H322 0.930 . S
C338 C337 1.377 1_565 S
C338 C339 1.379 . S
C339 H323 0.931 . S
C339 C333 1.383 1_565 S
C339 C338 1.379 . S
H340 C334 0.959 . S
H341 C334 0.961 . S
H342 C334 0.960 . S
H343 C335 0.930 . S
H344 C336 0.929 . S
C66 C30 1.282 . S
C85 C32 1.291 . S
C102 C1 1.557 . S
C121 C54 1.569 . S
C138 C0 1.265 1_455 S
C157 C41 1.304 . S
C174 C29 1.599 . S
C193 C45 1.613 1_545 S
C210 C19 1.207 1_655 S
C229 C34 1.229 . S
C246 C20 1.481 . S
C265 C49 1.496 1_545 S
C301 C36 1.209 . S
C282 C10 1.206 . S
C318 C2 1.513 . S
C337 C47 1.529 1_545 S
