# Generated by pormake.
# Topology dag, (6,3)-cn, num edge types: 1
# Building blocks:
#     Node 0, Type 0, BuildingBlock: IZENUY_clean_sbu_0, # of connection points: 6
#     Node 1, Type 0, BuildingBlock: IZENUY_clean_sbu_0, # of connection points: 6
#     Node 2, Type 0, BuildingBlock: IZENUY_clean_sbu_0, # of connection points: 6
#     Node 3, Type 0, BuildingBlock: IZENUY_clean_sbu_0, # of connection points: 6
#     Node 4, Type 1, BuildingBlock: WUSLED_clean_sbu_0, # of connection points: 3
#     Node 5, Type 1, BuildingBlock: WUSLED_clean_sbu_0, # of connection points: 3
#     Node 6, Type 1, BuildingBlock: WUSLED_clean_sbu_0, # of connection points: 3
#     Node 7, Type 1, BuildingBlock: WUSLED_clean_sbu_0, # of connection points: 3
#     Node 8, Type 1, BuildingBlock: WUSLED_clean_sbu_0, # of connection points: 3
#     Node 9, Type 1, BuildingBlock: WUSLED_clean_sbu_0, # of connection points: 3
#     Node 10, Type 1, BuildingBlock: WUSLED_clean_sbu_0, # of connection points: 3
#     Node 11, Type 1, BuildingBlock: WUSLED_clean_sbu_0, # of connection points: 3
#     Edge 12, Type (0, 1), BuildingBlock: AJUNOK_clean_linker_0, # of connection points: 2
#     Edge 13, Type (0, 1), BuildingBlock: AJUNOK_clean_linker_0, # of connection points: 2
#     Edge 14, Type (0, 1), BuildingBlock: AJUNOK_clean_linker_0, # of connection points: 2
#     Edge 15, Type (0, 1), BuildingBlock: AJUNOK_clean_linker_0, # of connection points: 2
#     Edge 16, Type (0, 1), BuildingBlock: AJUNOK_clean_linker_0, # of connection points: 2
#     Edge 17, Type (0, 1), BuildingBlock: AJUNOK_clean_linker_0, # of connection points: 2
#     Edge 18, Type (0, 1), BuildingBlock: AJUNOK_clean_linker_0, # of connection points: 2
#     Edge 19, Type (0, 1), BuildingBlock: AJUNOK_clean_linker_0, # of connection points: 2
#     Edge 20, Type (0, 1), BuildingBlock: AJUNOK_clean_linker_0, # of connection points: 2
#     Edge 21, Type (0, 1), BuildingBlock: AJUNOK_clean_linker_0, # of connection points: 2
#     Edge 22, Type (0, 1), BuildingBlock: AJUNOK_clean_linker_0, # of connection points: 2
#     Edge 23, Type (0, 1), BuildingBlock: AJUNOK_clean_linker_0, # of connection points: 2
#     Edge 24, Type (0, 1), BuildingBlock: AJUNOK_clean_linker_0, # of connection points: 2
#     Edge 25, Type (0, 1), BuildingBlock: AJUNOK_clean_linker_0, # of connection points: 2
#     Edge 26, Type (0, 1), BuildingBlock: AJUNOK_clean_linker_0, # of connection points: 2
#     Edge 27, Type (0, 1), BuildingBlock: AJUNOK_clean_linker_0, # of connection points: 2
#     Edge 28, Type (0, 1), BuildingBlock: AJUNOK_clean_linker_0, # of connection points: 2
#     Edge 29, Type (0, 1), BuildingBlock: AJUNOK_clean_linker_0, # of connection points: 2
#     Edge 30, Type (0, 1), BuildingBlock: AJUNOK_clean_linker_0, # of connection points: 2
#     Edge 31, Type (0, 1), BuildingBlock: AJUNOK_clean_linker_0, # of connection points: 2
#     Edge 32, Type (0, 1), BuildingBlock: AJUNOK_clean_linker_0, # of connection points: 2
#     Edge 33, Type (0, 1), BuildingBlock: AJUNOK_clean_linker_0, # of connection points: 2
#     Edge 34, Type (0, 1), BuildingBlock: AJUNOK_clean_linker_0, # of connection points: 2
#     Edge 35, Type (0, 1), BuildingBlock: AJUNOK_clean_linker_0, # of connection points: 2
# Relax obj value: 0.246
# Max RMSD: 0.192
# Mean RMSD: 0.159
data_MOF--net-dag--node1-IZENUY_clean_sbu_0--node2-WUSLED_clean_sbu_0--edge1-AJUNOK_clean_linker_0
_symmetry_space_group_name_H-M    P1
_symmetry_Int_Tables_number       1
_symmetry_cell_setting            triclinic
loop_
_symmetry_equiv_pos_as_xyz
'x, y, z'
_cell_length_a     39.571297
_cell_length_b     41.517538
_cell_length_c     35.309951
_cell_angle_alpha  95.296933
_cell_angle_beta   90.988163
_cell_angle_gamma 90.307716
loop_
_atom_site_label
_atom_site_type_symbol
_atom_site_fract_x
_atom_site_fract_y
_atom_site_fract_z
_atom_type_partial_charge
Fe0 Fe 0.2006 0.86115 0.09834 0.0
Fe1 Fe 0.13202 0.88041 0.06668 0.0
O2 O 0.16099 0.85016 0.07676 0.0
Fe3 Fe 0.15024 0.80873 0.06525 0.0
O4 O 0.15335 0.80106 0.11495 0.0
O5 O 0.2027 0.82557 0.1253 0.0
O6 O 0.18086 0.88179 0.13981 0.0
C7 C 0.15921 0.90379 0.13851 0.0
C8 C 0.21945 0.81118 0.04753 0.0
O9 O 0.14405 0.90858 0.10779 0.0
C10 C 0.12796 0.83546 1.00186 0.0
O11 O 0.20504 0.89929 0.07571 0.0
O12 O 0.16151 0.89827 0.0365 0.0
O13 O 0.19386 0.79553 0.05689 0.0
O14 O 0.22292 0.84091 0.05833 0.0
C15 C 0.08829 0.83632 0.08999 0.0
O16 O 0.11515 0.85791 0.02355 0.0
O17 O 0.14647 0.8142 0.01483 0.0
C18 C 0.18971 0.90986 0.0476 0.0
O19 O 0.10041 0.86438 0.09627 0.0
O20 O 0.10447 0.81422 0.07123 0.0
C21 C 0.17909 0.80793 0.13589 0.0
Fe22 Fe 0.69513 0.65173 0.48337 0.0
Fe23 Fe 0.64499 0.70282 0.51752 0.0
O24 O 0.6564 0.66195 0.50574 0.0
Fe25 Fe 0.62864 0.63071 0.5162 0.0
O26 O 0.66141 0.60073 0.5216 0.0
O27 O 0.70899 0.62789 0.52179 0.0
O28 O 0.71892 0.68631 0.50717 0.0
C29 C 0.71243 0.70598 0.53572 0.0
C30 C 0.64734 0.60887 0.44508 0.0
O31 O 0.68256 0.71053 0.54639 0.0
C32 C 0.58342 0.67786 0.49465 0.0
O33 O 0.6841 0.67397 0.44348 0.0
O34 O 0.66492 0.71797 0.47558 0.0
O35 O 0.62317 0.61781 0.46626 0.0
O36 O 0.67769 0.61579 0.45504 0.0
C37 C 0.62526 0.6703 0.58156 0.0
O38 O 0.60592 0.69849 0.48953 0.0
O39 O 0.58994 0.65386 0.51274 0.0
C40 C 0.67476 0.70297 0.44482 0.0
O41 O 0.62348 0.69428 0.56161 0.0
O42 O 0.63297 0.6426 0.56651 0.0
C43 C 0.69239 0.60357 0.53018 0.0
Fe44 Fe 0.86825 0.20431 0.02166 0.0
Fe45 Fe 0.88893 0.13319 0.01993 0.0
O46 O 0.85887 0.16277 0.00995 0.0
Fe47 Fe 0.81983 0.15023 0.98775 0.0
O48 O 0.82807 0.17286 0.94754 0.0
O49 O 0.8458 0.21807 0.97955 0.0
O50 O 0.90639 0.20222 0.99322 0.0
C51 C 0.93046 0.18332 0.99851 0.0
C52 C 0.80127 0.2033 0.04023 0.0
O53 O 0.92613 0.15866 0.01606 0.0
C54 C 0.82723 0.10315 0.0359 0.0
O55 O 0.89202 0.19734 0.06604 0.0
O56 O 0.88701 0.14479 0.07038 0.0
O57 O 0.79501 0.18345 0.01145 0.0
O58 O 0.83127 0.20981 0.05078 0.0
C59 C 0.86786 0.10936 0.94914 0.0
O60 O 0.85782 0.1017 0.02636 0.0
O61 O 0.80894 0.12607 0.02652 0.0
C62 C 0.89342 0.17296 0.0855 0.0
O63 O 0.89257 0.12012 0.9697 0.0
O64 O 0.83777 0.11505 0.95957 0.0
C65 C 0.83568 0.20243 0.94875 0.0
Fe66 Fe 0.38583 0.37799 0.56699 0.0
Fe67 Fe 0.31855 0.35977 0.60112 0.0
O68 O 0.35683 0.34782 0.57835 0.0
Fe69 Fe 0.36648 0.3065 0.56656 0.0
O70 O 0.40652 0.30973 0.5935 0.0
O71 O 0.4236 0.35332 0.569 0.0
O72 O 0.39276 0.39114 0.61667 0.0
C73 C 0.36936 0.40076 0.63865 0.0
C74 C 0.38702 0.3383 0.50182 0.0
O75 O 0.33847 0.39474 0.6298 0.0
C76 C 0.29808 0.30643 0.54875 0.0
O77 O 0.35443 0.40925 0.56239 0.0
O78 O 0.30589 0.38399 0.5628 0.0
O79 O 0.38736 0.31396 0.52138 0.0
O80 O 0.38027 0.36621 0.51689 0.0
C81 C 0.33605 0.30783 0.63969 0.0
O82 O 0.29256 0.32646 0.57727 0.0
O83 O 0.32779 0.29963 0.53857 0.0
C84 C 0.3234 0.40747 0.55405 0.0
O85 O 0.32761 0.337 0.64082 0.0
O86 O 0.34709 0.29257 0.60959 0.0
C87 C 0.42998 0.32874 0.58609 0.0
C88 C 0.01286 0.18755 0.2942 0.0
C89 C 1.00196 0.15718 0.27741 0.0
C90 C 0.96728 0.18291 0.23094 0.0
C91 C 0.9793 0.15489 0.24631 0.0
C92 C 0.9778 0.21328 0.24841 0.0
C93 C 1.00023 0.21554 0.27977 0.0
U94 U 0.08536 0.14831 0.34236 0.0
O95 O 0.13697 0.16489 0.35806 0.0
O96 O 0.10372 0.14909 0.40207 0.0
C97 C 0.13355 0.16068 0.39425 0.0
C98 C 0.0396 0.19007 0.32422 0.0
C99 C 0.14961 0.18521 0.42215 0.0
C100 C 0.16822 0.24046 0.4415 0.0
C101 C 0.14781 0.21857 0.41836 0.0
C102 C 0.19091 0.19622 0.47387 0.0
C103 C 0.1905 0.22934 0.46888 0.0
C104 C 0.17075 0.17439 0.45066 0.0
C105 C 0.09771 0.06001 0.2929 0.0
C106 C 0.14618 0.02757 0.27236 0.0
C107 C 0.08957 1.00562 0.26216 0.0
C108 C 0.07632 0.03412 0.27995 0.0
C109 C 0.12454 1.0025 0.25701 0.0
C110 C 0.13287 0.05615 0.29029 0.0
C111 C 0.08223 0.09193 0.302 0.0
O112 O 0.03582 0.17144 0.35208 0.0
O113 O 0.07058 0.18988 0.31142 0.0
O114 O 0.09865 0.1171 0.29146 0.0
O115 O 0.067 0.09762 0.33471 0.0
H116 H 0.01163 0.13518 0.28774 0.0
H117 H 0.97171 0.1311 0.2338 0.0
H118 H 0.96993 0.23537 0.23688 0.0
H119 H 0.00862 0.23919 0.29195 0.0
H120 H 0.16755 0.26593 0.43712 0.0
H121 H 0.13176 0.22751 0.39654 0.0
H122 H 0.20816 0.187 0.49439 0.0
H123 H 0.17285 0.14876 0.45384 0.0
H124 H 0.17324 0.02571 0.26871 0.0
H125 H 0.07226 0.98703 0.24996 0.0
H126 H 0.04912 0.03678 0.28122 0.0
H127 H 0.14987 0.07584 0.29998 0.0
C128 C 0.39954 0.56183 0.80735 0.0
C129 C 0.42306 0.55712 0.77813 0.0
C130 C 0.39704 0.50478 0.75699 0.0
C131 C 0.42191 0.52874 0.75324 0.0
C132 C 0.37416 0.50952 0.78699 0.0
C133 C 0.37559 0.53761 0.812 0.0
U134 U 0.42542 0.65006 0.84529 0.0
O135 O 0.39124 0.69052 0.85954 0.0
O136 O 0.42332 0.67251 0.90453 0.0
C137 C 0.40107 0.69401 0.89539 0.0
C138 C 0.39746 0.59242 0.83185 0.0
C139 C 0.37593 0.70578 0.92329 0.0
C140 C 0.31866 0.70783 0.94703 0.0
C141 C 0.34363 0.69189 0.92475 0.0
C142 C 0.35862 0.75066 0.9674 0.0
C143 C 0.3257 0.73796 0.96745 0.0
C144 C 0.38343 0.73473 0.94547 0.0
C145 C 0.50397 0.66658 0.77988 0.0
C146 C 0.55149 0.69261 0.75223 0.0
C147 C 0.52733 0.64323 0.72068 0.0
C148 C 0.50387 0.64213 0.7498 0.0
C149 C 0.55083 0.66893 0.72121 0.0
C150 C 0.52818 0.69145 0.78123 0.0
C151 C 0.47747 0.66932 0.80837 0.0
O152 O 0.42198 0.59889 0.85708 0.0
O153 O 0.38763 0.61781 0.81501 0.0
O154 O 0.48075 0.65396 0.83915 0.0
O155 O 0.44609 0.67189 0.79631 0.0
H156 H 0.44171 0.57562 0.77404 0.0
H157 H 0.44003 0.52584 0.73056 0.0
H158 H 0.35405 0.49226 0.79023 0.0
H159 H 0.35709 0.54094 0.83427 0.0
H160 H 0.2935 0.69741 0.94689 0.0
H161 H 0.33739 0.66958 0.90762 0.0
H162 H 0.36496 0.77341 0.98356 0.0
H163 H 0.40821 0.74586 0.9445 0.0
H164 H 0.5697 0.71229 0.7538 0.0
H165 H 0.5263 0.62466 0.69703 0.0
H166 H 0.48517 0.62288 0.74828 0.0
H167 H 0.52842 0.71062 0.80427 0.0
C168 C 0.76329 0.92995 0.1329 0.0
C169 C 0.78489 0.92853 0.10176 0.0
C170 C 0.77785 0.98652 0.0976 0.0
C171 C 0.792 0.95661 0.08415 0.0
C172 C 0.75579 0.98757 0.12838 0.0
C173 C 0.7485 0.95951 0.14572 0.0
U174 U 0.78292 0.84816 0.17487 0.0
O175 O 0.77007 0.83923 0.23321 0.0
O176 O 0.74794 0.8078 0.18436 0.0
C177 C 0.75089 0.81431 0.22146 0.0
C178 C 0.7562 0.9016 0.15361 0.0
C179 C 0.73198 0.79698 0.24865 0.0
C180 C 0.69824 0.7987 0.30553 0.0
C181 C 0.71172 0.81413 0.2756 0.0
C182 C 0.72479 0.74863 0.28144 0.0
C183 C 0.70519 0.76595 0.30922 0.0
C184 C 0.73788 0.76401 0.25123 0.0
C185 C 0.87793 0.82809 0.14182 0.0
C186 C 0.93492 0.80763 0.14652 0.0
C187 C 0.92149 0.84606 0.10086 0.0
C188 C 0.88778 0.84674 0.11269 0.0
C189 C 0.94537 0.82688 0.11828 0.0
C190 C 0.90152 0.8082 0.15809 0.0
C191 C 0.84393 0.82891 0.15758 0.0
O192 O 0.75274 0.87332 0.13371 0.0
O193 O 0.77339 0.90023 0.18555 0.0
O194 O 0.83763 0.84936 0.18722 0.0
O195 O 0.81752 0.82093 0.13551 0.0
H196 H 0.79662 0.90595 0.09148 0.0
H197 H 0.80908 0.95506 0.06042 0.0
H198 H 0.74517 0.01026 0.14006 0.0
H199 H 0.73185 0.96104 0.16986 0.0
H200 H 0.68309 0.81256 0.32638 0.0
H201 H 0.70716 0.8397 0.27413 0.0
H202 H 0.73128 0.72361 0.28399 0.0
H203 H 0.75412 0.7506 0.2311 0.0
H204 H 0.95283 0.79258 0.1602 0.0
H205 H 0.92918 0.86131 0.07921 0.0
H206 H 0.86977 0.86221 0.09985 0.0
H207 H 0.89421 0.79353 0.1805 0.0
C208 C 0.74545 0.42622 0.62224 0.0
C209 C 0.71391 0.43222 0.60584 0.0
C210 C 0.73493 0.48406 0.58771 0.0
C211 C 0.70873 0.46092 0.58855 0.0
C212 C 0.76674 0.47723 0.60307 0.0
C213 C 0.77186 0.44864 0.62026 0.0
U214 U 0.73424 0.34582 0.67526 0.0
O215 O 0.77707 0.31359 0.68605 0.0
O216 O 0.75661 0.34613 0.73253 0.0
C217 C 0.77929 0.32426 0.72225 0.0
C218 C 0.75138 0.39876 0.64485 0.0
C219 C 0.7879 0.30138 0.75033 0.0
C220 C 0.82775 0.28733 0.79926 0.0
C221 C 0.81961 0.305 0.76864 0.0
C222 C 0.77292 0.26093 0.79295 0.0
C223 C 0.80433 0.26556 0.81205 0.0
C224 C 0.76465 0.27888 0.76223 0.0
C225 C 0.64114 0.31668 0.64667 0.0
C226 C 0.58619 0.29015 0.63862 0.0
C227 C 0.595 0.34224 0.61451 0.0
C228 C 0.62878 0.3425 0.62759 0.0
C229 C 0.57321 0.31623 0.62048 0.0
C230 C 0.61976 0.29038 0.65147 0.0
C231 C 0.67504 0.31691 0.66471 0.0
O232 O 0.73555 0.3988 0.67724 0.0
O233 O 0.75583 0.3697 0.62751 0.0
O234 O 0.70104 0.30982 0.64283 0.0
O235 O 0.6815 0.33987 0.6921 0.0
H236 H 0.6932 0.41523 0.60729 0.0
H237 H 0.6839 0.46548 0.57689 0.0
H238 H 0.78764 0.49405 0.60206 0.0
H239 H 0.7964 0.44439 0.63292 0.0
H240 H 0.85205 0.29124 0.81361 0.0
H241 H 0.83775 0.32246 0.76006 0.0
H242 H 0.75456 0.24413 0.80245 0.0
H243 H 0.73994 0.27593 0.74862 0.0
H244 H 0.57019 0.26971 0.64335 0.0
H245 H 0.58563 0.3629 0.601 0.0
H246 H 0.64486 0.3631 0.62373 0.0
H247 H 0.62884 0.27024 0.66617 0.0
C248 C 0.50685 0.3285 0.29957 0.0
C249 C 0.49532 0.35863 0.31519 0.0
C250 C 0.46149 0.33196 0.36065 0.0
C251 C 0.47265 0.36032 0.34538 0.0
C252 C 0.47308 0.30192 0.34449 0.0
C253 C 0.49526 0.30025 0.3141 0.0
U254 U 0.58342 0.35434 0.24049 0.0
O255 O 0.62552 0.32131 0.22517 0.0
O256 O 0.59426 0.34137 0.17987 0.0
C257 C 0.61994 0.32335 0.18875 0.0
C258 C 0.53209 0.32522 0.26942 0.0
C259 C 0.64047 0.30587 0.15964 0.0
C260 C 0.66646 0.25559 0.1351 0.0
C261 C 0.64236 0.27207 0.15781 0.0
C262 C 0.68663 0.30662 0.11541 0.0
C263 C 0.68943 0.27284 0.11468 0.0
C264 C 0.66212 0.32303 0.13763 0.0
C265 C 0.60705 0.44338 0.2879 0.0
C266 C 0.6412 0.49099 0.30628 0.0
C267 C 0.58716 0.48399 0.33599 0.0
C268 C 0.58217 0.4546 0.31356 0.0
C269 C 0.61701 0.50212 0.33282 0.0
C270 C 0.63623 0.4619 0.28408 0.0
C271 C 0.60487 0.41217 0.26521 0.0
O272 O 0.52881 0.34338 0.24094 0.0
O273 O 0.5635 0.3225 0.2812 0.0
O274 O 0.58145 0.40724 0.2384 0.0
O275 O 0.61452 0.38607 0.28068 0.0
H276 H 0.50418 0.38075 0.30449 0.0
H277 H 0.46422 0.38387 0.35713 0.0
H278 H 0.46609 0.27966 0.35617 0.0
H279 H 0.50414 0.27678 0.30255 0.0
H280 H 0.66833 0.22957 0.13506 0.0
H281 H 0.62607 0.25857 0.17507 0.0
H282 H 0.70411 0.32034 0.0998 0.0
H283 H 0.6613 0.34921 0.13923 0.0
H284 H 0.66432 0.50455 0.30322 0.0
H285 H 0.56837 0.49191 0.35671 0.0
H286 H 0.55951 0.44044 0.3168 0.0
H287 H 0.65564 0.45349 0.2643 0.0
C288 C 0.13861 0.20008 0.93679 0.0
C289 C 0.12781 0.17577 0.95906 0.0
C290 C 0.07097 0.19841 0.96038 0.0
C291 C 0.09415 0.17509 0.97102 0.0
C292 C 0.08232 0.2232 0.93927 0.0
C293 C 0.11581 0.22402 0.92767 0.0
U294 U 0.23166 0.17221 0.91378 0.0
O295 O 0.25463 0.17022 0.85772 0.0
O296 O 0.27485 0.20437 0.90406 0.0
C297 C 0.27753 0.19226 0.86847 0.0
C298 C 0.17256 0.20065 0.92044 0.0
C299 C 0.28774 0.21322 0.8394 0.0
C300 C 0.28225 0.2604 0.80395 0.0
C301 C 0.27266 0.24307 0.83446 0.0
C302 C 0.32159 0.21802 0.78359 0.0
C303 C 0.30677 0.2479 0.77802 0.0
C304 C 0.31241 0.20112 0.81408 0.0
C305 C 0.2427 0.09126 0.96595 0.0
C306 C 0.25659 0.03512 0.97234 0.0
C307 C 0.21278 0.06153 0.01089 0.0
C308 C 0.21845 0.09036 0.99423 0.0
C309 C 0.23136 0.0336 0.99936 0.0
C310 C 0.26214 0.06376 0.95569 0.0
C311 C 0.24785 0.11937 0.9446 0.0
O312 O 0.19828 0.20816 0.94376 0.0
O313 O 0.17934 0.17769 0.89353 0.0
O314 O 0.23239 0.11926 0.91141 0.0
O315 O 0.25197 0.14833 0.96272 0.0
H316 H 0.14509 0.15709 0.96643 0.0
H317 H 0.08592 0.15579 0.98744 0.0
H318 H 0.06511 0.24172 0.93127 0.0
H319 H 0.12374 0.24306 0.91067 0.0
H320 H 0.27025 0.28333 0.80037 0.0
H321 H 0.25328 0.25261 0.8536 0.0
H322 H 0.3395 0.20697 0.76359 0.0
H323 H 0.32398 0.17788 0.81723 0.0
H324 H 0.27077 0.01374 0.9627 0.0
H325 H 0.19307 0.0606 0.03168 0.0
H326 H 0.2033 0.11143 1.00246 0.0
H327 H 0.28093 0.06413 0.93375 0.0
C328 C 0.27269 0.57864 0.44996 0.0
C329 C 0.30578 0.56929 0.45795 0.0
C330 C 0.28385 0.52194 0.48553 0.0
C331 C 0.31132 0.54105 0.47575 0.0
C332 C 0.25085 0.5313 0.47714 0.0
C333 C 0.24533 0.55958 0.4596 0.0
U334 U 0.28142 0.66072 0.40126 0.0
O335 O 0.258 0.66238 0.34491 0.0
O336 O 0.23769 0.69246 0.39378 0.0
C337 C 0.23495 0.6832 0.35724 0.0
C338 C 0.26542 0.60628 0.4285 0.0
C339 C 0.22535 0.70718 0.33134 0.0
C340 C 0.1845 0.72224 0.28441 0.0
C341 C 0.19351 0.70349 0.3136 0.0
C342 C 0.23877 0.7498 0.29141 0.0
C343 C 0.20722 0.74512 0.27251 0.0
C344 C 0.24789 0.73077 0.3207 0.0
C345 C 0.37372 0.68998 0.43073 0.0
C346 C 0.42966 0.71439 0.43777 0.0
C347 C 0.41795 0.66442 0.46571 0.0
C348 C 0.38444 0.66491 0.45207 0.0
C349 C 0.44092 0.68903 0.45828 0.0
C350 C 0.39639 0.71482 0.42417 0.0
C351 C 0.33993 0.69056 0.41284 0.0
O352 O 0.26035 0.63463 0.44732 0.0
O353 O 0.2812 0.60774 0.39626 0.0
O354 O 0.3337 0.66878 0.38409 0.0
O355 O 0.31402 0.69606 0.43532 0.0
H356 H 0.32714 0.58352 0.45009 0.0
H357 H 0.33704 0.53396 0.48171 0.0
H358 H 0.2294 0.51697 0.48457 0.0
H359 H 0.21962 0.56637 0.45305 0.0
H360 H 0.16004 0.71827 0.27046 0.0
H361 H 0.176 0.68513 0.32134 0.0
H362 H 0.25688 0.76706 0.2824 0.0
H363 H 0.27275 0.7336 0.33396 0.0
H364 H 0.44693 0.73325 0.43095 0.0
H365 H 0.4261 0.6446 0.4815 0.0
H366 H 0.36724 0.64552 0.4574 0.0
H367 H 0.38857 0.73424 0.40753 0.0
C368 C 0.89473 0.94936 0.77925 0.0
C369 C 0.92009 0.95658 0.8071 0.0
C370 C 0.89043 0.00589 0.82971 0.0
C371 C 0.91799 0.9848 0.83216 0.0
C372 C 0.86574 0.99885 0.80108 0.0
C373 C 0.86793 0.97092 0.7761 0.0
U374 U 0.92362 0.86283 0.7398 0.0
O375 O 0.89088 0.82126 0.72252 0.0
O376 O 0.92221 0.84217 0.67987 0.0
C377 C 0.90071 0.81937 0.68709 0.0
C378 C 0.89415 0.91913 0.75394 0.0
C379 C 0.87523 0.80862 0.6583 0.0
C380 C 0.82129 0.81384 0.62601 0.0
C381 C 0.84738 0.82751 0.64971 0.0
C382 C 0.85141 0.76296 0.61911 0.0
C383 C 0.82268 0.78108 0.61146 0.0
C384 C 0.87744 0.77667 0.64221 0.0
C385 C 1.00198 0.84346 0.8071 0.0
C386 C 0.04718 0.81358 0.83473 0.0
C387 C 0.02983 0.86549 0.8653 0.0
C388 C 1.00539 0.86813 0.8367 0.0
C389 C 0.05072 0.83807 0.86455 0.0
C390 C 0.02306 0.81638 0.80608 0.0
C391 C 0.97521 0.84337 0.77828 0.0
O392 O 0.91917 0.91433 0.73006 0.0
O393 O 0.88481 0.89289 0.76927 0.0
O394 O 0.97886 0.86022 0.74883 0.0
O395 O 0.94384 0.84002 0.78891 0.0
H396 H 0.94094 0.94013 0.80999 0.0
H397 H 0.93713 0.98948 0.85432 0.0
H398 H 0.84433 0.0147 0.79849 0.0
H399 H 0.84816 0.96575 0.75475 0.0
H400 H 0.79972 0.82855 0.61988 0.0
H401 H 0.84537 0.85226 0.66214 0.0
H402 H 0.85311 0.73766 0.60869 0.0
H403 H 0.89873 0.76175 0.64895 0.0
H404 H 0.06297 0.79229 0.83371 0.0
H405 H 0.03189 0.88442 0.8885 0.0
H406 H 0.9889 0.88893 0.83801 0.0
H407 H 0.02034 0.79698 0.78346 0.0
C408 C 0.164 0.95961 0.16964 0.0
C409 C 0.15451 0.92723 0.1717 0.0
C410 C 0.15599 0.98344 0.19872 0.0
C411 C 0.13755 0.97579 0.23048 0.0
H412 H 0.17692 0.96669 0.14485 0.0
H413 H 0.16274 0.00832 0.19533 0.0
S414 S 0.10761 0.89404 0.2493 0.0
N415 N 0.12689 0.88822 0.20811 0.0
N416 N 0.11105 0.93316 0.2627 0.0
C417 C 0.12864 0.94322 0.23322 0.0
C418 C 0.13735 0.91887 0.20382 0.0
C419 C 0.61006 0.64489 0.64052 0.0
C420 C 0.61108 0.67267 0.62038 0.0
C421 C 0.59155 0.64431 0.67384 0.0
C422 C 0.57355 0.67153 0.68864 0.0
H423 H 0.62253 0.62285 0.6297 0.0
H424 H 0.59062 0.62208 0.68763 0.0
S425 S 0.5711 0.7516 0.6497 0.0
N426 N 0.59505 0.72922 0.62002 0.0
N427 N 0.5599 0.72792 0.68247 0.0
C428 C 0.57606 0.70016 0.67032 0.0
C429 C 0.59496 0.70079 0.63629 0.0
C430 C 0.83516 0.0504 0.06294 0.0
C431 C 0.8129 0.07486 0.05318 0.0
C432 C 0.8234 0.02215 0.07689 0.0
C433 C 0.78879 0.01688 0.08195 0.0
H434 H 0.86219 0.05284 0.05962 0.0
H435 H 0.84177 1.00437 0.08418 0.0
S436 S 0.71958 0.07325 0.0618 0.0
N437 N 0.7543 0.09214 0.05046 0.0
N438 N 0.73205 0.03856 0.07662 0.0
C439 C 0.76606 0.04122 0.07302 0.0
C440 C 0.77812 0.07027 0.05868 0.0
C441 C 0.4772 0.31184 0.62809 0.0
C442 C 0.46593 0.32123 0.59289 0.0
C443 C 0.51196 0.30977 0.63649 0.0
C444 C 0.53659 0.31683 0.60991 0.0
H445 H 0.45917 0.30752 0.64984 0.0
H446 H 0.51961 0.30361 0.66451 0.0
S447 S 0.51955 0.33772 0.5115 0.0
N448 N 0.48175 0.33446 0.52988 0.0
N449 N 0.54681 0.33019 0.54548 0.0
C450 C 0.52542 0.32464 0.57392 0.0
C451 C 0.49017 0.32685 0.56546 0.0
C452 C 0.66384 0.55919 0.40541 0.0
C453 C 0.6405 0.58414 0.41336 0.0
C454 C 0.65604 0.53303 0.37892 0.0
C455 C 0.62476 0.53103 0.35923 0.0
H456 H 0.68773 0.55913 0.42088 0.0
H457 H 0.67428 0.51372 0.37464 0.0
S458 S 0.55712 0.5926 0.36603 0.0
N459 N 0.58632 0.607 0.39715 0.0
N460 N 0.57174 0.55775 0.34676 0.0
C461 C 0.60185 0.55657 0.36564 0.0
C462 C 0.60975 0.5832 0.3928 0.0
C463 C 0.99071 0.19278 0.01696 0.0
C464 C 0.96521 0.1913 0.98856 0.0
C465 C 0.02489 0.19542 0.00779 0.0
C466 C 0.03468 0.1964 0.96984 0.0
H467 H 0.98415 0.19128 0.04644 0.0
H468 H 0.04379 0.19645 0.03045 0.0
S469 S 0.97761 0.19077 0.88494 0.0
N470 N 0.95188 0.18973 0.92116 0.0
N471 N 0.01619 0.19435 0.90361 0.0
C472 C 0.00932 0.19499 0.94123 0.0
C473 C 0.97453 0.19253 0.95067 0.0
C474 C 0.2867 0.43422 0.50788 0.0
C475 C 0.3076 0.43634 0.54058 0.0
C476 C 0.27782 0.46228 0.49066 0.0
C477 C 0.28981 0.49292 0.50573 0.0
H478 H 0.27883 0.4108 0.49445 0.0
H479 H 0.26286 0.45989 0.46455 0.0
S480 S 0.34 0.51137 0.59457 0.0
N481 N 0.336 0.4716 0.59006 0.0
N482 N 0.3197 0.524 0.55756 0.0
C483 C 0.30864 0.49533 0.53978 0.0
C484 C 0.31742 0.46706 0.55728 0.0
C485 C 0.09369 0.80625 0.94999 0.0
C486 C 0.11569 0.83186 0.96237 0.0
C487 C 0.07377 0.80757 0.91693 0.0
C488 C 0.07535 0.83458 0.89565 0.0
H489 H 0.09006 0.78635 0.96735 0.0
H490 H 0.05564 0.78832 0.90926 0.0
S491 S 0.13355 0.90462 0.91262 0.0
N492 N 0.14115 0.88268 0.94852 0.0
N493 N 0.10389 0.88498 0.88618 0.0
C494 C 0.09917 0.85896 0.90621 0.0
C495 C 0.11934 0.85762 0.9397 0.0
C496 C 0.84868 0.06152 0.90603 0.0
C497 C 0.87385 0.08479 0.91682 0.0
C498 C 0.85435 0.0364 0.8777 0.0
C499 C 0.88535 0.03355 0.85881 0.0
H500 H 0.82464 0.0621 0.9203 0.0
H501 H 0.83448 0.01861 0.87107 0.0
S502 S 0.95795 0.09048 0.87297 0.0
N503 N 0.92997 0.10497 0.90418 0.0
N504 N 0.94055 0.05761 0.85062 0.0
C505 C 0.91037 0.05722 0.86834 0.0
C506 C 0.90461 0.08289 0.89734 0.0
C507 C 0.42993 0.35873 0.45949 0.0
C508 C 0.40407 0.33634 0.46486 0.0
C509 C 0.44788 0.35732 0.42562 0.0
C510 C 0.44028 0.33383 0.39531 0.0
H511 H 0.43707 0.37702 0.48216 0.0
H512 H 0.46848 0.37433 0.42364 0.0
S513 S 0.37257 0.27131 0.39417 0.0
N514 N 0.37088 0.29062 0.43715 0.0
N515 N 0.40318 0.28892 0.37222 0.0
C516 C 0.41369 0.31179 0.39999 0.0
C517 C 0.39596 0.3128 0.43505 0.0
C518 C 0.23351 0.95319 0.04252 0.0
C519 C 0.20124 0.94019 0.03257 0.0
C520 C 0.24345 0.98349 0.03166 0.0
C521 C 0.2212 1.00189 0.0111 0.0
H522 H 0.25106 0.9401 0.0592 0.0
H523 H 0.2684 0.99282 0.03988 0.0
S524 S 0.135 0.97885 0.97613 0.0
N525 N 0.14766 0.94829 0.99941 0.0
N526 N 0.1668 1.00482 0.97925 0.0
C527 C 0.18942 0.98903 1.00016 0.0
C528 C 0.17932 0.95826 0.0108 0.0
C529 C 0.52975 0.65629 0.46539 0.0
C530 C 0.54802 0.68264 0.48347 0.0
C531 C 0.49505 0.65847 0.45789 0.0
C532 C 0.47727 0.68697 0.4687 0.0
H533 H 0.54241 0.63371 0.45714 0.0
H534 H 0.48211 0.63778 0.44317 0.0
S535 S 0.51301 0.76157 0.52068 0.0
N536 N 0.54579 0.73733 0.51417 0.0
N537 N 0.4802 0.74144 0.50068 0.0
C538 C 0.49521 0.71336 0.48745 0.0
C539 C 0.5307 0.71121 0.4947 0.0
C540 C 0.38839 0.45649 0.66037 0.0
C541 C 0.37776 0.42591 0.66949 0.0
C542 C 0.39516 0.48157 0.68884 0.0
C543 C 0.39272 0.47668 0.72766 0.0
H544 H 0.39095 0.46123 0.63093 0.0
H545 H 0.40155 0.50517 0.68019 0.0
S546 S 0.37215 0.39854 0.76593 0.0
N547 N 0.36832 0.39068 0.71932 0.0
N548 N 0.38322 0.43708 0.77335 0.0
C549 C 0.38414 0.44534 0.73704 0.0
C550 C 0.37624 0.42009 0.70784 0.0
C551 C 0.03966 0.83879 0.13339 0.0
C552 C 0.05225 0.83177 0.09675 0.0
C553 C 1.00498 0.83684 0.13995 0.0
C554 C 0.98175 0.82865 0.10988 0.0
H555 H 0.05672 0.84585 0.15708 0.0
H556 H 0.99616 0.84231 0.16869 0.0
S557 S 1.00238 0.80928 0.00836 0.0
N558 N 0.03938 0.81672 0.02989 0.0
N559 N 0.97385 0.81377 0.04207 0.0
C560 C 0.9941 0.82187 0.07299 0.0
C561 C 0.02951 0.8232 0.06646 0.0
C562 C 0.70114 0.54443 0.52244 0.0
C563 C 0.70936 0.57456 0.5421 0.0
C564 C 0.71073 0.51543 0.53664 0.0
C565 C 0.72868 0.51534 0.57131 0.0
H566 H 0.68608 0.54326 0.4964 0.0
H567 H 0.70324 0.49286 0.52078 0.0
S568 S 0.75747 0.5881 0.63295 0.0
N569 N 0.73775 0.6029 0.59682 0.0
N570 N 0.75542 0.54832 0.62436 0.0
C571 C 0.73839 0.54544 0.59046 0.0
C572 C 0.72881 0.57509 0.57565 0.0
C573 C 0.9374 0.15498 0.12994 0.0
C574 C 0.91054 0.17588 0.1233 0.0
C575 C 0.95512 0.15728 0.1648 0.0
C576 C 0.94644 0.18025 0.1949 0.0
H577 H 0.94538 0.13714 0.10758 0.0
H578 H 0.97637 0.14131 0.16778 0.0
S579 S 0.87524 0.23819 0.19313 0.0
N580 N 0.87466 0.21905 0.14996 0.0
N581 N 0.90693 0.22264 0.21633 0.0
C582 C 0.91878 0.20068 0.18893 0.0
C583 C 0.90111 0.19867 0.15298 0.0
C584 C 0.1795 0.75919 0.17204 0.0
C585 C 0.18388 0.79268 0.17146 0.0
C586 C 0.187 0.74409 0.20501 0.0
C587 C 0.19869 0.76206 0.23855 0.0
H588 H 0.17132 0.74448 0.14655 0.0
H589 H 0.1843 0.71804 0.204 0.0
S590 S 0.20986 0.85106 0.25262 0.0
N591 N 0.19804 0.84375 0.20755 0.0
N592 N 0.21127 0.81545 0.26994 0.0
C593 C 0.2019 0.79574 0.23861 0.0
C594 C 0.19464 0.81104 0.20494 0.0
C595 C 0.77287 0.72433 0.54067 0.0
C596 C 0.73989 0.72614 0.55497 0.0
C597 C 0.79918 0.7432 0.55818 0.0
C598 C 0.79362 0.76458 0.59074 0.0
H599 H 0.77857 0.70813 0.51582 0.0
H600 H 0.82422 0.74072 0.54638 0.0
S601 S 0.71214 0.77851 0.63982 0.0
N602 N 0.70315 0.75157 0.60368 0.0
N603 N 0.75287 0.78637 0.63685 0.0
C604 C 0.76077 0.767 0.60512 0.0
C605 C 0.73389 0.74789 0.58725 0.0
C606 C 0.73921 0.21377 0.04907 0.0
C607 C 0.77306 0.22116 0.05994 0.0
C608 C 0.71221 0.23065 0.06671 0.0
C609 C 0.71805 0.25583 0.09547 0.0
H610 H 0.73342 0.19473 0.02679 0.0
H611 H 0.68658 0.2241 0.05766 0.0
S612 S 0.80115 0.28422 0.13589 0.0
N613 N 0.81039 0.25519 0.10263 0.0
N614 N 0.75954 0.28682 0.13516 0.0
C615 C 0.75149 0.26348 0.10682 0.0
C616 C 0.779 0.24616 0.08925 0.0
C617 C 0.2963 0.2904 0.68762 0.0
C618 C 0.32935 0.291 0.67371 0.0
C619 C 0.28932 0.27706 0.72172 0.0
C620 C 0.31528 0.26441 0.74361 0.0
H621 H 0.27563 0.3002 0.67184 0.0
H622 H 0.26329 0.27616 0.7306 0.0
S623 S 0.40684 0.26451 0.72164 0.0
N624 N 0.38853 0.2801 0.68518 0.0
N625 N 0.376 0.2563 0.75026 0.0
C626 C 0.34871 0.26603 0.7305 0.0
C627 C 0.35561 0.27901 0.69532 0.0
C628 C 0.69248 0.75157 0.41289 0.0
C629 C 0.67886 0.72011 0.41032 0.0
C630 C 0.70018 0.76651 0.37998 0.0
C631 C 0.69423 0.75063 0.34342 0.0
H632 H 0.69852 0.76418 0.44043 0.0
H633 H 0.71194 0.79026 0.38323 0.0
S634 S 0.65484 0.66961 0.3217 0.0
N635 N 0.65725 0.67454 0.36861 0.0
N636 N 0.67098 0.70289 0.30684 0.0
C637 C 0.67923 0.71972 0.34061 0.0
C638 C 0.67171 0.70443 0.37404 0.0
C639 C 0.81445 0.24984 0.916 0.0
C640 C 0.82961 0.21916 0.91392 0.0
C641 C 0.80587 0.2645 0.88278 0.0
C642 C 0.81243 0.24908 0.8465 0.0
H643 H 0.80839 0.26221 0.94337 0.0
H644 H 0.79398 0.28802 0.88544 0.0
S645 S 0.85482 0.17031 0.82569 0.0
N646 N 0.8527 0.17489 0.87256 0.0
N647 N 0.83701 0.20275 0.81043 0.0
C648 C 0.82847 0.21897 0.84405 0.0
C649 C 0.83693 0.20392 0.87771 0.0
C650 C 0.24175 0.27755 0.5478 0.0
C651 C 0.26938 0.28893 0.528 0.0
C652 C 0.21589 0.25864 0.52863 0.0
C653 C 0.21627 0.2513 0.4889 0.0
H654 H 0.24071 0.28234 0.57844 0.0
H655 H 0.19563 0.24947 0.54497 0.0
S656 S 0.28183 0.27637 0.4238 0.0
N657 N 0.29491 0.29186 0.46632 0.0
N658 N 0.246 0.25733 0.4305 0.0
C659 C 0.24319 0.26324 0.4688 0.0
C660 C 0.2698 0.28179 0.48828 0.0
C661 C 0.25216 0.76041 0.03229 0.0
C662 C 0.24696 0.79331 0.02718 0.0
C663 C 0.27758 0.7426 0.01286 0.0
C664 C 0.29862 0.75699 0.98747 0.0
H665 H 0.23668 0.74836 0.05178 0.0
H666 H 0.28103 0.7175 0.01806 0.0
S667 S 0.29339 0.84147 0.9614 0.0
N668 N 0.26386 0.83905 0.99351 0.0
N669 N 0.3112 0.80548 0.95639 0.0
C670 C 0.29331 0.7897 0.98161 0.0
C671 C 0.26762 0.80789 1.00163 0.0
loop_
_geom_bond_atom_site_label_1
_geom_bond_atom_site_label_2
_geom_bond_distance
_geom_bond_site_symmetry_2
_ccdc_geom_bond_type
Fe0 O2 1.918 . S
Fe0 O5 1.997 . S
Fe0 O6 2.002 . S
Fe0 O11 1.976 . S
Fe0 O14 1.996 . S
Fe1 O2 1.918 . S
Fe1 O9 1.997 . S
Fe1 O12 1.996 . S
Fe1 O16 1.976 . S
Fe1 O19 2.002 . S
O2 Fe0 1.918 . S
O2 Fe1 1.918 . S
O2 Fe3 1.918 . S
Fe3 O2 1.918 . S
Fe3 O4 2.002 . S
Fe3 O13 1.976 . S
Fe3 O17 1.996 . S
Fe3 O20 1.997 . S
O4 Fe3 2.002 . S
O4 C21 1.295 . S
O5 Fe0 1.997 . S
O5 C21 1.235 . S
O6 Fe0 2.002 . S
O6 C7 1.295 . S
C7 O6 1.295 . S
C7 O9 1.235 . S
C8 O13 1.287 . S
C8 O14 1.255 . S
O9 Fe1 1.997 . S
O9 C7 1.235 . S
C10 O16 1.287 1_556 S
C10 O17 1.255 1_556 S
O11 Fe0 1.976 . S
O11 C18 1.287 . S
O12 Fe1 1.996 . S
O12 C18 1.255 . S
O13 Fe3 1.976 . S
O13 C8 1.287 . S
O14 Fe0 1.996 . S
O14 C8 1.255 . S
C15 O19 1.295 . S
C15 O20 1.235 . S
O16 Fe1 1.976 . S
O16 C10 1.287 1_554 S
O17 Fe3 1.996 . S
O17 C10 1.255 1_554 S
C18 O11 1.287 . S
C18 O12 1.255 . S
O19 Fe1 2.002 . S
O19 C15 1.295 . S
O20 Fe3 1.997 . S
O20 C15 1.235 . S
C21 O4 1.295 . S
C21 O5 1.235 . S
Fe22 O24 1.918 . S
Fe22 O27 1.997 . S
Fe22 O28 2.002 . S
Fe22 O33 1.976 . S
Fe22 O36 1.996 . S
Fe23 O24 1.918 . S
Fe23 O31 1.997 . S
Fe23 O34 1.996 . S
Fe23 O38 1.976 . S
Fe23 O41 2.002 . S
O24 Fe22 1.918 . S
O24 Fe23 1.918 . S
O24 Fe25 1.918 . S
Fe25 O24 1.918 . S
Fe25 O26 2.002 . S
Fe25 O35 1.976 . S
Fe25 O39 1.996 . S
Fe25 O42 1.997 . S
O26 Fe25 2.002 . S
O26 C43 1.295 . S
O27 Fe22 1.997 . S
O27 C43 1.235 . S
O28 Fe22 2.002 . S
O28 C29 1.295 . S
C29 O28 1.295 . S
C29 O31 1.235 . S
C30 O35 1.287 . S
C30 O36 1.255 . S
O31 Fe23 1.997 . S
O31 C29 1.235 . S
C32 O38 1.287 . S
C32 O39 1.255 . S
O33 Fe22 1.976 . S
O33 C40 1.287 . S
O34 Fe23 1.996 . S
O34 C40 1.255 . S
O35 Fe25 1.976 . S
O35 C30 1.287 . S
O36 Fe22 1.996 . S
O36 C30 1.255 . S
C37 O41 1.295 . S
C37 O42 1.235 . S
O38 Fe23 1.976 . S
O38 C32 1.287 . S
O39 Fe25 1.996 . S
O39 C32 1.255 . S
C40 O33 1.287 . S
C40 O34 1.255 . S
O41 Fe23 2.002 . S
O41 C37 1.295 . S
O42 Fe25 1.997 . S
O42 C37 1.235 . S
C43 O26 1.295 . S
C43 O27 1.235 . S
Fe44 O46 1.918 . S
Fe44 O49 1.997 1_554 S
Fe44 O50 2.002 . S
Fe44 O55 1.976 . S
Fe44 O58 1.996 . S
Fe45 O46 1.918 . S
Fe45 O53 1.997 . S
Fe45 O56 1.996 . S
Fe45 O60 1.976 . S
Fe45 O63 2.002 1_554 S
O46 Fe44 1.918 . S
O46 Fe45 1.918 . S
O46 Fe47 1.918 1_554 S
Fe47 O46 1.918 1_556 S
Fe47 O48 2.002 . S
Fe47 O57 1.976 1_556 S
Fe47 O61 1.996 1_556 S
Fe47 O64 1.997 . S
O48 Fe47 2.002 . S
O48 C65 1.295 . S
O49 Fe44 1.997 1_556 S
O49 C65 1.235 . S
O50 Fe44 2.002 . S
O50 C51 1.295 1_554 S
C51 O50 1.295 1_556 S
C51 O53 1.235 1_556 S
C52 O57 1.287 . S
C52 O58 1.255 . S
O53 Fe45 1.997 . S
O53 C51 1.235 1_554 S
C54 O60 1.287 . S
C54 O61 1.255 . S
O55 Fe44 1.976 . S
O55 C62 1.287 . S
O56 Fe45 1.996 . S
O56 C62 1.255 . S
O57 Fe47 1.976 1_554 S
O57 C52 1.287 . S
O58 Fe44 1.996 . S
O58 C52 1.255 . S
C59 O63 1.295 . S
C59 O64 1.235 . S
O60 Fe45 1.976 . S
O60 C54 1.287 . S
O61 Fe47 1.996 1_554 S
O61 C54 1.255 . S
C62 O55 1.287 . S
C62 O56 1.255 . S
O63 Fe45 2.002 1_556 S
O63 C59 1.295 . S
O64 Fe47 1.997 . S
O64 C59 1.235 . S
C65 O48 1.295 . S
C65 O49 1.235 . S
Fe66 O68 1.918 . S
Fe66 O71 1.997 . S
Fe66 O72 2.002 . S
Fe66 O77 1.976 . S
Fe66 O80 1.996 . S
Fe67 O68 1.918 . S
Fe67 O75 1.997 . S
Fe67 O78 1.996 . S
Fe67 O82 1.976 . S
Fe67 O85 2.002 . S
O68 Fe66 1.918 . S
O68 Fe67 1.918 . S
O68 Fe69 1.918 . S
Fe69 O68 1.918 . S
Fe69 O70 2.002 . S
Fe69 O79 1.976 . S
Fe69 O83 1.996 . S
Fe69 O86 1.997 . S
O70 Fe69 2.002 . S
O70 C87 1.295 . S
O71 Fe66 1.997 . S
O71 C87 1.235 . S
O72 Fe66 2.002 . S
O72 C73 1.295 . S
C73 O72 1.295 . S
C73 O75 1.235 . S
C74 O79 1.287 . S
C74 O80 1.255 . S
O75 Fe67 1.997 . S
O75 C73 1.235 . S
C76 O82 1.287 . S
C76 O83 1.255 . S
O77 Fe66 1.976 . S
O77 C84 1.287 . S
O78 Fe67 1.996 . S
O78 C84 1.255 . S
O79 Fe69 1.976 . S
O79 C74 1.287 . S
O80 Fe66 1.996 . S
O80 C74 1.255 . S
C81 O85 1.295 . S
C81 O86 1.235 . S
O82 Fe67 1.976 . S
O82 C76 1.287 . S
O83 Fe69 1.996 . S
O83 C76 1.255 . S
C84 O77 1.287 . S
C84 O78 1.255 . S
O85 Fe67 2.002 . S
O85 C81 1.295 . S
O86 Fe69 1.997 . S
O86 C81 1.235 . S
C87 O70 1.295 . S
C87 O71 1.235 . S
C88 C89 1.264 . S
C88 C93 1.479 . S
C88 C98 1.465 1_655 S
C89 C88 1.264 . S
C89 C91 1.339 . S
C89 H116 0.931 . S
C90 C91 1.395 . S
C90 C92 1.320 . S
C91 C89 1.339 . S
C91 C90 1.395 . S
C91 H117 0.929 . S
C92 C90 1.320 . S
C92 C93 1.405 . S
C92 H118 0.930 . S
C93 C88 1.479 . S
C93 C92 1.405 . S
C93 H119 0.931 . S
U94 O95 2.454 . S
U94 O96 2.458 . S
U94 C97 2.984 . S
U94 C98 2.847 . S
U94 C111 2.882 . S
U94 O112 2.441 . S
U94 O113 2.420 . S
U94 O114 2.455 . S
U94 O115 2.449 . S
O95 U94 2.454 . S
O95 C97 1.353 . S
O96 U94 2.458 . S
O96 C97 1.286 . S
C97 U94 2.984 . S
C97 O95 1.353 . S
C97 O96 1.286 . S
C97 C99 1.363 . S
C98 C88 1.465 1_455 S
C98 U94 2.847 . S
C98 O112 1.249 . S
C98 O113 1.202 . S
C99 C97 1.363 . S
C99 C101 1.408 . S
C99 C104 1.342 . S
C100 C101 1.310 . S
C100 C103 1.461 . S
C100 H120 0.932 . S
C101 C99 1.408 . S
C101 C100 1.310 . S
C101 H121 0.930 . S
C102 C103 1.474 . S
C102 C104 1.285 . S
C102 H122 0.929 . S
C103 C100 1.461 . S
C103 C102 1.474 . S
C104 C99 1.342 . S
C104 C102 1.285 . S
C104 H123 0.930 . S
C105 C108 1.424 . S
C105 C110 1.245 . S
C105 C111 1.428 . S
C106 C109 1.260 . S
C106 C110 1.477 1_565 S
C106 H124 0.932 . S
C107 C108 1.384 1_565 S
C107 C109 1.479 . S
C107 H125 0.929 . S
C108 C105 1.424 . S
C108 C107 1.384 1_545 S
C108 H126 0.928 . S
C109 C106 1.260 . S
C109 C107 1.479 . S
C110 C105 1.245 . S
C110 C106 1.477 1_545 S
C110 H127 0.932 . S
C111 U94 2.882 . S
C111 C105 1.428 . S
C111 O114 1.301 . S
C111 O115 1.282 . S
O112 U94 2.441 . S
O112 C98 1.249 . S
O113 U94 2.420 . S
O113 C98 1.202 . S
O114 U94 2.455 . S
O114 C111 1.301 . S
O115 U94 2.449 . S
O115 C111 1.282 . S
H116 C89 0.931 . S
H117 C91 0.929 . S
H118 C92 0.930 . S
H119 C93 0.931 . S
H120 C100 0.932 . S
H121 C101 0.930 . S
H122 C102 0.929 . S
H123 C104 0.930 . S
H124 C106 0.932 . S
H125 C107 0.929 . S
H126 C108 0.928 . S
H127 C110 0.932 . S
C128 C129 1.264 . S
C128 C133 1.479 . S
C128 C138 1.465 . S
C129 C128 1.264 . S
C129 C131 1.339 . S
C129 H156 0.931 . S
C130 C131 1.395 . S
C130 C132 1.320 . S
C131 C129 1.339 . S
C131 C130 1.395 . S
C131 H157 0.929 . S
C132 C130 1.320 . S
C132 C133 1.405 . S
C132 H158 0.930 . S
C133 C128 1.479 . S
C133 C132 1.405 . S
C133 H159 0.931 . S
U134 O135 2.454 . S
U134 O136 2.458 . S
U134 C137 2.984 . S
U134 C138 2.847 . S
U134 C151 2.882 . S
U134 O152 2.441 . S
U134 O153 2.420 . S
U134 O154 2.455 . S
U134 O155 2.449 . S
O135 U134 2.454 . S
O135 C137 1.353 . S
O136 U134 2.458 . S
O136 C137 1.286 . S
C137 U134 2.984 . S
C137 O135 1.353 . S
C137 O136 1.286 . S
C137 C139 1.363 . S
C138 C128 1.465 . S
C138 U134 2.847 . S
C138 O152 1.249 . S
C138 O153 1.202 . S
C139 C137 1.363 . S
C139 C141 1.408 . S
C139 C144 1.342 . S
C140 C141 1.310 . S
C140 C143 1.461 . S
C140 H160 0.932 . S
C141 C139 1.408 . S
C141 C140 1.310 . S
C141 H161 0.930 . S
C142 C143 1.474 . S
C142 C144 1.285 . S
C142 H162 0.929 . S
C143 C140 1.461 . S
C143 C142 1.474 . S
C144 C139 1.342 . S
C144 C142 1.285 . S
C144 H163 0.930 . S
C145 C148 1.424 . S
C145 C150 1.245 . S
C145 C151 1.428 . S
C146 C149 1.260 . S
C146 C150 1.477 . S
C146 H164 0.932 . S
C147 C148 1.384 . S
C147 C149 1.479 . S
C147 H165 0.929 . S
C148 C145 1.424 . S
C148 C147 1.384 . S
C148 H166 0.928 . S
C149 C146 1.260 . S
C149 C147 1.479 . S
C150 C145 1.245 . S
C150 C146 1.477 . S
C150 H167 0.932 . S
C151 U134 2.882 . S
C151 C145 1.428 . S
C151 O154 1.301 . S
C151 O155 1.282 . S
O152 U134 2.441 . S
O152 C138 1.249 . S
O153 U134 2.420 . S
O153 C138 1.202 . S
O154 U134 2.455 . S
O154 C151 1.301 . S
O155 U134 2.449 . S
O155 C151 1.282 . S
H156 C129 0.931 . S
H157 C131 0.929 . S
H158 C132 0.930 . S
H159 C133 0.931 . S
H160 C140 0.932 . S
H161 C141 0.930 . S
H162 C142 0.929 . S
H163 C144 0.930 . S
H164 C146 0.932 . S
H165 C147 0.929 . S
H166 C148 0.928 . S
H167 C150 0.932 . S
C168 C169 1.264 . S
C168 C173 1.479 . S
C168 C178 1.465 . S
C169 C168 1.264 . S
C169 C171 1.339 . S
C169 H196 0.931 . S
C170 C171 1.395 . S
C170 C172 1.320 . S
C171 C169 1.339 . S
C171 C170 1.395 . S
C171 H197 0.929 . S
C172 C170 1.320 . S
C172 C173 1.405 . S
C172 H198 0.930 . S
C173 C168 1.479 . S
C173 C172 1.405 . S
C173 H199 0.931 . S
U174 O175 2.454 . S
U174 O176 2.458 . S
U174 C177 2.984 . S
U174 C178 2.847 . S
U174 C191 2.882 . S
U174 O192 2.441 . S
U174 O193 2.420 . S
U174 O194 2.455 . S
U174 O195 2.449 . S
O175 U174 2.454 . S
O175 C177 1.353 . S
O176 U174 2.458 . S
O176 C177 1.286 . S
C177 U174 2.984 . S
C177 O175 1.353 . S
C177 O176 1.286 . S
C177 C179 1.363 . S
C178 C168 1.465 . S
C178 U174 2.847 . S
C178 O192 1.249 . S
C178 O193 1.202 . S
C179 C177 1.363 . S
C179 C181 1.408 . S
C179 C184 1.342 . S
C180 C181 1.310 . S
C180 C183 1.461 . S
C180 H200 0.932 . S
C181 C179 1.408 . S
C181 C180 1.310 . S
C181 H201 0.930 . S
C182 C183 1.474 . S
C182 C184 1.285 . S
C182 H202 0.929 . S
C183 C180 1.461 . S
C183 C182 1.474 . S
C184 C179 1.342 . S
C184 C182 1.285 . S
C184 H203 0.930 . S
C185 C188 1.424 . S
C185 C190 1.245 . S
C185 C191 1.428 . S
C186 C189 1.260 . S
C186 C190 1.477 . S
C186 H204 0.932 . S
C187 C188 1.384 . S
C187 C189 1.479 . S
C187 H205 0.929 . S
C188 C185 1.424 . S
C188 C187 1.384 . S
C188 H206 0.928 . S
C189 C186 1.260 . S
C189 C187 1.479 . S
C190 C185 1.245 . S
C190 C186 1.477 . S
C190 H207 0.932 . S
C191 U174 2.882 . S
C191 C185 1.428 . S
C191 O194 1.301 . S
C191 O195 1.282 . S
O192 U174 2.441 . S
O192 C178 1.249 . S
O193 U174 2.420 . S
O193 C178 1.202 . S
O194 U174 2.455 . S
O194 C191 1.301 . S
O195 U174 2.449 . S
O195 C191 1.282 . S
H196 C169 0.931 . S
H197 C171 0.929 . S
H198 C172 0.930 . S
H199 C173 0.931 . S
H200 C180 0.932 . S
H201 C181 0.930 . S
H202 C182 0.929 . S
H203 C184 0.930 . S
H204 C186 0.932 . S
H205 C187 0.929 . S
H206 C188 0.928 . S
H207 C190 0.932 . S
C208 C209 1.264 . S
C208 C213 1.479 . S
C208 C218 1.465 . S
C209 C208 1.264 . S
C209 C211 1.339 . S
C209 H236 0.931 . S
C210 C211 1.395 . S
C210 C212 1.320 . S
C211 C209 1.339 . S
C211 C210 1.395 . S
C211 H237 0.929 . S
C212 C210 1.320 . S
C212 C213 1.405 . S
C212 H238 0.930 . S
C213 C208 1.479 . S
C213 C212 1.405 . S
C213 H239 0.931 . S
U214 O215 2.454 . S
U214 O216 2.458 . S
U214 C217 2.984 . S
U214 C218 2.847 . S
U214 C231 2.882 . S
U214 O232 2.441 . S
U214 O233 2.420 . S
U214 O234 2.455 . S
U214 O235 2.449 . S
O215 U214 2.454 . S
O215 C217 1.353 . S
O216 U214 2.458 . S
O216 C217 1.286 . S
C217 U214 2.984 . S
C217 O215 1.353 . S
C217 O216 1.286 . S
C217 C219 1.363 . S
C218 C208 1.465 . S
C218 U214 2.847 . S
C218 O232 1.249 . S
C218 O233 1.202 . S
C219 C217 1.363 . S
C219 C221 1.408 . S
C219 C224 1.342 . S
C220 C221 1.310 . S
C220 C223 1.461 . S
C220 H240 0.932 . S
C221 C219 1.408 . S
C221 C220 1.310 . S
C221 H241 0.930 . S
C222 C223 1.474 . S
C222 C224 1.285 . S
C222 H242 0.929 . S
C223 C220 1.461 . S
C223 C222 1.474 . S
C224 C219 1.342 . S
C224 C222 1.285 . S
C224 H243 0.930 . S
C225 C228 1.424 . S
C225 C230 1.245 . S
C225 C231 1.428 . S
C226 C229 1.260 . S
C226 C230 1.477 . S
C226 H244 0.932 . S
C227 C228 1.384 . S
C227 C229 1.479 . S
C227 H245 0.929 . S
C228 C225 1.424 . S
C228 C227 1.384 . S
C228 H246 0.928 . S
C229 C226 1.260 . S
C229 C227 1.479 . S
C230 C225 1.245 . S
C230 C226 1.477 . S
C230 H247 0.932 . S
C231 U214 2.882 . S
C231 C225 1.428 . S
C231 O234 1.301 . S
C231 O235 1.282 . S
O232 U214 2.441 . S
O232 C218 1.249 . S
O233 U214 2.420 . S
O233 C218 1.202 . S
O234 U214 2.455 . S
O234 C231 1.301 . S
O235 U214 2.449 . S
O235 C231 1.282 . S
H236 C209 0.931 . S
H237 C211 0.929 . S
H238 C212 0.930 . S
H239 C213 0.931 . S
H240 C220 0.932 . S
H241 C221 0.930 . S
H242 C222 0.929 . S
H243 C224 0.930 . S
H244 C226 0.932 . S
H245 C227 0.929 . S
H246 C228 0.928 . S
H247 C230 0.932 . S
C248 C249 1.264 . S
C248 C253 1.479 . S
C248 C258 1.465 . S
C249 C248 1.264 . S
C249 C251 1.339 . S
C249 H276 0.931 . S
C250 C251 1.395 . S
C250 C252 1.320 . S
C251 C249 1.339 . S
C251 C250 1.395 . S
C251 H277 0.929 . S
C252 C250 1.320 . S
C252 C253 1.405 . S
C252 H278 0.930 . S
C253 C248 1.479 . S
C253 C252 1.405 . S
C253 H279 0.931 . S
U254 O255 2.454 . S
U254 O256 2.458 . S
U254 C257 2.984 . S
U254 C258 2.847 . S
U254 C271 2.882 . S
U254 O272 2.441 . S
U254 O273 2.420 . S
U254 O274 2.455 . S
U254 O275 2.449 . S
O255 U254 2.454 . S
O255 C257 1.353 . S
O256 U254 2.458 . S
O256 C257 1.286 . S
C257 U254 2.984 . S
C257 O255 1.353 . S
C257 O256 1.286 . S
C257 C259 1.363 . S
C258 C248 1.465 . S
C258 U254 2.847 . S
C258 O272 1.249 . S
C258 O273 1.202 . S
C259 C257 1.363 . S
C259 C261 1.408 . S
C259 C264 1.342 . S
C260 C261 1.310 . S
C260 C263 1.461 . S
C260 H280 0.932 . S
C261 C259 1.408 . S
C261 C260 1.310 . S
C261 H281 0.930 . S
C262 C263 1.474 . S
C262 C264 1.285 . S
C262 H282 0.929 . S
C263 C260 1.461 . S
C263 C262 1.474 . S
C264 C259 1.342 . S
C264 C262 1.285 . S
C264 H283 0.930 . S
C265 C268 1.424 . S
C265 C270 1.245 . S
C265 C271 1.428 . S
C266 C269 1.260 . S
C266 C270 1.477 . S
C266 H284 0.932 . S
C267 C268 1.384 . S
C267 C269 1.479 . S
C267 H285 0.929 . S
C268 C265 1.424 . S
C268 C267 1.384 . S
C268 H286 0.928 . S
C269 C266 1.260 . S
C269 C267 1.479 . S
C270 C265 1.245 . S
C270 C266 1.477 . S
C270 H287 0.932 . S
C271 U254 2.882 . S
C271 C265 1.428 . S
C271 O274 1.301 . S
C271 O275 1.282 . S
O272 U254 2.441 . S
O272 C258 1.249 . S
O273 U254 2.420 . S
O273 C258 1.202 . S
O274 U254 2.455 . S
O274 C271 1.301 . S
O275 U254 2.449 . S
O275 C271 1.282 . S
H276 C249 0.931 . S
H277 C251 0.929 . S
H278 C252 0.930 . S
H279 C253 0.931 . S
H280 C260 0.932 . S
H281 C261 0.930 . S
H282 C262 0.929 . S
H283 C264 0.930 . S
H284 C266 0.932 . S
H285 C267 0.929 . S
H286 C268 0.928 . S
H287 C270 0.932 . S
C288 C289 1.264 . S
C288 C293 1.479 . S
C288 C298 1.465 . S
C289 C288 1.264 . S
C289 C291 1.339 . S
C289 H316 0.931 . S
C290 C291 1.395 . S
C290 C292 1.320 . S
C291 C289 1.339 . S
C291 C290 1.395 . S
C291 H317 0.929 . S
C292 C290 1.320 . S
C292 C293 1.405 . S
C292 H318 0.930 . S
C293 C288 1.479 . S
C293 C292 1.405 . S
C293 H319 0.931 . S
U294 O295 2.454 . S
U294 O296 2.458 . S
U294 C297 2.984 . S
U294 C298 2.847 . S
U294 C311 2.882 . S
U294 O312 2.441 . S
U294 O313 2.420 . S
U294 O314 2.455 . S
U294 O315 2.449 . S
O295 U294 2.454 . S
O295 C297 1.353 . S
O296 U294 2.458 . S
O296 C297 1.286 . S
C297 U294 2.984 . S
C297 O295 1.353 . S
C297 O296 1.286 . S
C297 C299 1.363 . S
C298 C288 1.465 . S
C298 U294 2.847 . S
C298 O312 1.249 . S
C298 O313 1.202 . S
C299 C297 1.363 . S
C299 C301 1.408 . S
C299 C304 1.342 . S
C300 C301 1.310 . S
C300 C303 1.461 . S
C300 H320 0.932 . S
C301 C299 1.408 . S
C301 C300 1.310 . S
C301 H321 0.930 . S
C302 C303 1.474 . S
C302 C304 1.285 . S
C302 H322 0.929 . S
C303 C300 1.461 . S
C303 C302 1.474 . S
C304 C299 1.342 . S
C304 C302 1.285 . S
C304 H323 0.930 . S
C305 C308 1.424 . S
C305 C310 1.245 . S
C305 C311 1.428 . S
C306 C309 1.260 . S
C306 C310 1.477 . S
C306 H324 0.932 . S
C307 C308 1.384 . S
C307 C309 1.479 . S
C307 H325 0.929 1_556 S
C308 C305 1.424 . S
C308 C307 1.384 . S
C308 H326 0.928 . S
C309 C306 1.260 . S
C309 C307 1.479 . S
C310 C305 1.245 . S
C310 C306 1.477 . S
C310 H327 0.932 . S
C311 U294 2.882 . S
C311 C305 1.428 . S
C311 O314 1.301 . S
C311 O315 1.282 . S
O312 U294 2.441 . S
O312 C298 1.249 . S
O313 U294 2.420 . S
O313 C298 1.202 . S
O314 U294 2.455 . S
O314 C311 1.301 . S
O315 U294 2.449 . S
O315 C311 1.282 . S
H316 C289 0.931 . S
H317 C291 0.929 . S
H318 C292 0.930 . S
H319 C293 0.931 . S
H320 C300 0.932 . S
H321 C301 0.930 . S
H322 C302 0.929 . S
H323 C304 0.930 . S
H324 C306 0.932 . S
H325 C307 0.929 1_554 S
H326 C308 0.928 . S
H327 C310 0.932 . S
C328 C329 1.264 . S
C328 C333 1.479 . S
C328 C338 1.465 . S
C329 C328 1.264 . S
C329 C331 1.339 . S
C329 H356 0.931 . S
C330 C331 1.395 . S
C330 C332 1.320 . S
C331 C329 1.339 . S
C331 C330 1.395 . S
C331 H357 0.929 . S
C332 C330 1.320 . S
C332 C333 1.405 . S
C332 H358 0.930 . S
C333 C328 1.479 . S
C333 C332 1.405 . S
C333 H359 0.931 . S
U334 O335 2.454 . S
U334 O336 2.458 . S
U334 C337 2.984 . S
U334 C338 2.847 . S
U334 C351 2.882 . S
U334 O352 2.441 . S
U334 O353 2.420 . S
U334 O354 2.455 . S
U334 O355 2.449 . S
O335 U334 2.454 . S
O335 C337 1.353 . S
O336 U334 2.458 . S
O336 C337 1.286 . S
C337 U334 2.984 . S
C337 O335 1.353 . S
C337 O336 1.286 . S
C337 C339 1.363 . S
C338 C328 1.465 . S
C338 U334 2.847 . S
C338 O352 1.249 . S
C338 O353 1.202 . S
C339 C337 1.363 . S
C339 C341 1.408 . S
C339 C344 1.342 . S
C340 C341 1.310 . S
C340 C343 1.461 . S
C340 H360 0.932 . S
C341 C339 1.408 . S
C341 C340 1.310 . S
C341 H361 0.930 . S
C342 C343 1.474 . S
C342 C344 1.285 . S
C342 H362 0.929 . S
C343 C340 1.461 . S
C343 C342 1.474 . S
C344 C339 1.342 . S
C344 C342 1.285 . S
C344 H363 0.930 . S
C345 C348 1.424 . S
C345 C350 1.245 . S
C345 C351 1.428 . S
C346 C349 1.260 . S
C346 C350 1.477 . S
C346 H364 0.932 . S
C347 C348 1.384 . S
C347 C349 1.479 . S
C347 H365 0.929 . S
C348 C345 1.424 . S
C348 C347 1.384 . S
C348 H366 0.928 . S
C349 C346 1.260 . S
C349 C347 1.479 . S
C350 C345 1.245 . S
C350 C346 1.477 . S
C350 H367 0.932 . S
C351 U334 2.882 . S
C351 C345 1.428 . S
C351 O354 1.301 . S
C351 O355 1.282 . S
O352 U334 2.441 . S
O352 C338 1.249 . S
O353 U334 2.420 . S
O353 C338 1.202 . S
O354 U334 2.455 . S
O354 C351 1.301 . S
O355 U334 2.449 . S
O355 C351 1.282 . S
H356 C329 0.931 . S
H357 C331 0.929 . S
H358 C332 0.930 . S
H359 C333 0.931 . S
H360 C340 0.932 . S
H361 C341 0.930 . S
H362 C342 0.929 . S
H363 C344 0.930 . S
H364 C346 0.932 . S
H365 C347 0.929 . S
H366 C348 0.928 . S
H367 C350 0.932 . S
C368 C369 1.264 . S
C368 C373 1.479 . S
C368 C378 1.465 . S
C369 C368 1.264 . S
C369 C371 1.339 1_565 S
C369 H396 0.931 . S
C370 C371 1.395 . S
C370 C372 1.320 . S
C371 C369 1.339 1_545 S
C371 C370 1.395 . S
C371 H397 0.929 . S
C372 C370 1.320 . S
C372 C373 1.405 1_545 S
C372 H398 0.930 . S
C373 C368 1.479 . S
C373 C372 1.405 1_565 S
C373 H399 0.931 . S
U374 O375 2.454 . S
U374 O376 2.458 . S
U374 C377 2.984 . S
U374 C378 2.847 . S
U374 C391 2.882 . S
U374 O392 2.441 . S
U374 O393 2.420 . S
U374 O394 2.455 . S
U374 O395 2.449 . S
O375 U374 2.454 . S
O375 C377 1.353 . S
O376 U374 2.458 . S
O376 C377 1.286 . S
C377 U374 2.984 . S
C377 O375 1.353 . S
C377 O376 1.286 . S
C377 C379 1.363 . S
C378 C368 1.465 . S
C378 U374 2.847 . S
C378 O392 1.249 . S
C378 O393 1.202 . S
C379 C377 1.363 . S
C379 C381 1.408 . S
C379 C384 1.342 . S
C380 C381 1.310 . S
C380 C383 1.461 . S
C380 H400 0.932 . S
C381 C379 1.408 . S
C381 C380 1.310 . S
C381 H401 0.930 . S
C382 C383 1.474 . S
C382 C384 1.285 . S
C382 H402 0.929 . S
C383 C380 1.461 . S
C383 C382 1.474 . S
C384 C379 1.342 . S
C384 C382 1.285 . S
C384 H403 0.930 . S
C385 C388 1.424 1_655 S
C385 C390 1.245 1_655 S
C385 C391 1.428 . S
C386 C389 1.260 . S
C386 C390 1.477 . S
C386 H404 0.932 . S
C387 C388 1.384 . S
C387 C389 1.479 . S
C387 H405 0.929 . S
C388 C385 1.424 1_455 S
C388 C387 1.384 . S
C388 H406 0.928 . S
C389 C386 1.260 . S
C389 C387 1.479 . S
C390 C385 1.245 1_455 S
C390 C386 1.477 . S
C390 H407 0.934 . S
C391 U374 2.882 . S
C391 C385 1.428 . S
C391 O394 1.301 . S
C391 O395 1.282 . S
O392 U374 2.441 . S
O392 C378 1.249 . S
O393 U374 2.420 . S
O393 C378 1.202 . S
O394 U374 2.455 . S
O394 C391 1.301 . S
O395 U374 2.449 . S
O395 C391 1.282 . S
H396 C369 0.931 . S
H397 C371 0.929 . S
H398 C372 0.930 . S
H399 C373 0.931 . S
H400 C380 0.932 . S
H401 C381 0.930 . S
H402 C382 0.929 . S
H403 C384 0.930 . S
H404 C386 0.932 . S
H405 C387 0.929 . S
H406 C388 0.928 . S
H407 C390 0.934 . S
C408 C409 1.369 . S
C408 C410 1.419 . S
C408 H412 0.930 . S
C409 C408 1.369 . S
C409 C418 1.429 . S
C410 C408 1.419 . S
C410 C411 1.363 . S
C410 H413 0.929 . S
C411 C410 1.363 . S
C411 C417 1.428 . S
H412 C408 0.930 . S
H413 C410 0.929 . S
S414 N415 1.613 . S
S414 N416 1.610 . S
N415 S414 1.613 . S
N415 C418 1.350 . S
N416 S414 1.610 . S
N416 C417 1.351 . S
C417 C411 1.428 . S
C417 N416 1.351 . S
C417 C418 1.434 . S
C418 C409 1.429 . S
C418 N415 1.350 . S
C418 C417 1.434 . S
C419 C420 1.369 . S
C419 C421 1.419 . S
C419 H423 0.930 . S
C420 C419 1.369 . S
C420 C429 1.429 . S
C421 C419 1.419 . S
C421 C422 1.363 . S
C421 H424 0.929 . S
C422 C421 1.363 . S
C422 C428 1.428 . S
H423 C419 0.930 . S
H424 C421 0.929 . S
S425 N426 1.613 . S
S425 N427 1.610 . S
N426 S425 1.613 . S
N426 C429 1.350 . S
N427 S425 1.610 . S
N427 C428 1.351 . S
C428 C422 1.428 . S
C428 N427 1.351 . S
C428 C429 1.434 . S
C429 C420 1.429 . S
C429 N426 1.350 . S
C429 C428 1.434 . S
C430 C431 1.369 . S
C430 C432 1.419 . S
C430 H434 0.930 . S
C431 C430 1.369 . S
C431 C440 1.429 . S
C432 C430 1.419 . S
C432 C433 1.363 . S
C432 H435 0.929 1_545 S
C433 C432 1.363 . S
C433 C439 1.428 . S
H434 C430 0.930 . S
H435 C432 0.929 1_565 S
S436 N437 1.613 . S
S436 N438 1.610 . S
N437 S436 1.613 . S
N437 C440 1.350 . S
N438 S436 1.610 . S
N438 C439 1.351 . S
C439 C433 1.428 . S
C439 N438 1.351 . S
C439 C440 1.434 . S
C440 C431 1.429 . S
C440 N437 1.350 . S
C440 C439 1.434 . S
C441 C442 1.369 . S
C441 C443 1.419 . S
C441 H445 0.930 . S
C442 C441 1.369 . S
C442 C451 1.429 . S
C443 C441 1.419 . S
C443 C444 1.363 . S
C443 H446 0.929 . S
C444 C443 1.363 . S
C444 C450 1.428 . S
H445 C441 0.930 . S
H446 C443 0.929 . S
S447 N448 1.613 . S
S447 N449 1.610 . S
N448 S447 1.613 . S
N448 C451 1.350 . S
N449 S447 1.610 . S
N449 C450 1.351 . S
C450 C444 1.428 . S
C450 N449 1.351 . S
C450 C451 1.434 . S
C451 C442 1.429 . S
C451 N448 1.350 . S
C451 C450 1.434 . S
C452 C453 1.369 . S
C452 C454 1.419 . S
C452 H456 0.930 . S
C453 C452 1.369 . S
C453 C462 1.429 . S
C454 C452 1.419 . S
C454 C455 1.363 . S
C454 H457 0.929 . S
C455 C454 1.363 . S
C455 C461 1.428 . S
H456 C452 0.930 . S
H457 C454 0.929 . S
S458 N459 1.613 . S
S458 N460 1.610 . S
N459 S458 1.613 . S
N459 C462 1.350 . S
N460 S458 1.610 . S
N460 C461 1.351 . S
C461 C455 1.428 . S
C461 N460 1.351 . S
C461 C462 1.434 . S
C462 C453 1.429 . S
C462 N459 1.350 . S
C462 C461 1.434 . S
C463 C464 1.369 1_554 S
C463 C465 1.419 1_655 S
C463 H467 0.930 . S
C464 C463 1.369 1_556 S
C464 C473 1.429 . S
C465 C463 1.419 1_455 S
C465 C466 1.363 1_554 S
C465 H468 0.929 . S
C466 C465 1.363 1_556 S
C466 C472 1.428 . S
H467 C463 0.930 . S
H468 C465 0.929 . S
S469 N470 1.613 1_455 S
S469 N471 1.610 . S
N470 S469 1.613 1_655 S
N470 C473 1.350 . S
N471 S469 1.610 . S
N471 C472 1.351 . S
C472 C466 1.428 . S
C472 N471 1.351 . S
C472 C473 1.434 1_455 S
C473 C464 1.429 . S
C473 N470 1.350 . S
C473 C472 1.434 1_655 S
C474 C475 1.369 . S
C474 C476 1.419 . S
C474 H478 0.930 . S
C475 C474 1.369 . S
C475 C484 1.429 . S
C476 C474 1.419 . S
C476 C477 1.363 . S
C476 H479 0.929 . S
C477 C476 1.363 . S
C477 C483 1.428 . S
H478 C474 0.930 . S
H479 C476 0.929 . S
S480 N481 1.613 . S
S480 N482 1.610 . S
N481 S480 1.613 . S
N481 C484 1.350 . S
N482 S480 1.610 . S
N482 C483 1.351 . S
C483 C477 1.428 . S
C483 N482 1.351 . S
C483 C484 1.434 . S
C484 C475 1.429 . S
C484 N481 1.350 . S
C484 C483 1.434 . S
C485 C486 1.369 . S
C485 C487 1.419 . S
C485 H489 0.930 . S
C486 C485 1.369 . S
C486 C495 1.429 . S
C487 C485 1.419 . S
C487 C488 1.363 . S
C487 H490 0.929 . S
C488 C487 1.363 . S
C488 C494 1.428 . S
H489 C485 0.930 . S
H490 C487 0.929 . S
S491 N492 1.613 . S
S491 N493 1.610 . S
N492 S491 1.613 . S
N492 C495 1.350 . S
N493 S491 1.610 . S
N493 C494 1.351 . S
C494 C488 1.428 . S
C494 N493 1.351 . S
C494 C495 1.434 . S
C495 C486 1.429 . S
C495 N492 1.350 . S
C495 C494 1.434 . S
C496 C497 1.369 . S
C496 C498 1.419 . S
C496 H500 0.930 . S
C497 C496 1.369 . S
C497 C506 1.429 . S
C498 C496 1.419 . S
C498 C499 1.363 . S
C498 H501 0.929 . S
C499 C498 1.363 . S
C499 C505 1.428 . S
H500 C496 0.930 . S
H501 C498 0.929 . S
S502 N503 1.613 . S
S502 N504 1.610 . S
N503 S502 1.613 . S
N503 C506 1.350 . S
N504 S502 1.610 . S
N504 C505 1.351 . S
C505 C499 1.428 . S
C505 N504 1.351 . S
C505 C506 1.434 . S
C506 C497 1.429 . S
C506 N503 1.350 . S
C506 C505 1.434 . S
C507 C508 1.369 . S
C507 C509 1.419 . S
C507 H511 0.930 . S
C508 C507 1.369 . S
C508 C517 1.429 . S
C509 C507 1.419 . S
C509 C510 1.363 . S
C509 H512 0.929 . S
C510 C509 1.363 . S
C510 C516 1.428 . S
H511 C507 0.930 . S
H512 C509 0.929 . S
S513 N514 1.613 . S
S513 N515 1.610 . S
N514 S513 1.613 . S
N514 C517 1.350 . S
N515 S513 1.610 . S
N515 C516 1.351 . S
C516 C510 1.428 . S
C516 N515 1.351 . S
C516 C517 1.434 . S
C517 C508 1.429 . S
C517 N514 1.350 . S
C517 C516 1.434 . S
C518 C519 1.369 . S
C518 C520 1.419 . S
C518 H522 0.930 . S
C519 C518 1.369 . S
C519 C528 1.429 1_554 S
C520 C518 1.419 . S
C520 C521 1.363 . S
C520 H523 0.929 . S
C521 C520 1.363 . S
C521 C527 1.428 1_554 S
H522 C518 0.930 . S
H523 C520 0.929 . S
S524 N525 1.581 1_545 S
S524 N526 1.621 . S
N525 S524 1.581 1_565 S
N525 C528 1.350 . S
N526 S524 1.621 . S
N526 C527 1.351 1_545 S
C527 C521 1.428 1_556 S
C527 N526 1.351 1_565 S
C527 C528 1.434 . S
C528 C519 1.429 1_556 S
C528 N525 1.350 . S
C528 C527 1.434 . S
C529 C530 1.369 . S
C529 C531 1.419 . S
C529 H533 0.930 . S
C530 C529 1.369 . S
C530 C539 1.429 . S
C531 C529 1.419 . S
C531 C532 1.363 . S
C531 H534 0.929 . S
C532 C531 1.363 . S
C532 C538 1.428 . S
H533 C529 0.930 . S
H534 C531 0.929 . S
S535 N536 1.613 . S
S535 N537 1.610 . S
N536 S535 1.613 . S
N536 C539 1.350 . S
N537 S535 1.610 . S
N537 C538 1.351 . S
C538 C532 1.428 . S
C538 N537 1.351 . S
C538 C539 1.434 . S
C539 C530 1.429 . S
C539 N536 1.350 . S
C539 C538 1.434 . S
C540 C541 1.369 . S
C540 C542 1.419 . S
C540 H544 0.930 . S
C541 C540 1.369 . S
C541 C550 1.429 . S
C542 C540 1.419 . S
C542 C543 1.363 . S
C542 H545 0.929 . S
C543 C542 1.363 . S
C543 C549 1.428 . S
H544 C540 0.930 . S
H545 C542 0.929 . S
S546 N547 1.613 . S
S546 N548 1.610 . S
N547 S546 1.613 . S
N547 C550 1.350 . S
N548 S546 1.610 . S
N548 C549 1.351 . S
C549 C543 1.428 . S
C549 N548 1.351 . S
C549 C550 1.434 . S
C550 C541 1.429 . S
C550 N547 1.350 . S
C550 C549 1.434 . S
C551 C552 1.369 . S
C551 C553 1.419 1_455 S
C551 H555 0.930 . S
C552 C551 1.369 . S
C552 C561 1.429 . S
C553 C551 1.419 1_655 S
C553 C554 1.363 . S
C553 H556 0.929 . S
C554 C553 1.363 . S
C554 C560 1.428 . S
H555 C551 0.930 . S
H556 C553 0.929 . S
S557 N558 1.613 1_556 S
S557 N559 1.610 1_456 S
N558 S557 1.613 1_554 S
N558 C561 1.350 . S
N559 S557 1.610 1_654 S
N559 C560 1.351 . S
C560 C554 1.428 . S
C560 N559 1.351 . S
C560 C561 1.434 1_655 S
C561 C552 1.429 . S
C561 N558 1.350 . S
C561 C560 1.434 1_455 S
C562 C563 1.369 . S
C562 C564 1.419 . S
C562 H566 0.930 . S
C563 C562 1.369 . S
C563 C572 1.429 . S
C564 C562 1.419 . S
C564 C565 1.363 . S
C564 H567 0.929 . S
C565 C564 1.363 . S
C565 C571 1.428 . S
H566 C562 0.930 . S
H567 C564 0.929 . S
S568 N569 1.613 . S
S568 N570 1.610 . S
N569 S568 1.613 . S
N569 C572 1.350 . S
N570 S568 1.610 . S
N570 C571 1.351 . S
C571 C565 1.428 . S
C571 N570 1.351 . S
C571 C572 1.434 . S
C572 C563 1.429 . S
C572 N569 1.350 . S
C572 C571 1.434 . S
C573 C574 1.369 . S
C573 C575 1.419 . S
C573 H577 0.930 . S
C574 C573 1.369 . S
C574 C583 1.429 . S
C575 C573 1.419 . S
C575 C576 1.363 . S
C575 H578 0.929 . S
C576 C575 1.363 . S
C576 C582 1.428 . S
H577 C573 0.930 . S
H578 C575 0.929 . S
S579 N580 1.613 . S
S579 N581 1.610 . S
N580 S579 1.613 . S
N580 C583 1.350 . S
N581 S579 1.610 . S
N581 C582 1.351 . S
C582 C576 1.428 . S
C582 N581 1.351 . S
C582 C583 1.434 . S
C583 C574 1.429 . S
C583 N580 1.350 . S
C583 C582 1.434 . S
C584 C585 1.369 . S
C584 C586 1.419 . S
C584 H588 0.930 . S
C585 C584 1.369 . S
C585 C594 1.429 . S
C586 C584 1.419 . S
C586 C587 1.363 . S
C586 H589 0.929 . S
C587 C586 1.363 . S
C587 C593 1.428 . S
H588 C584 0.930 . S
H589 C586 0.929 . S
S590 N591 1.613 . S
S590 N592 1.610 . S
N591 S590 1.613 . S
N591 C594 1.350 . S
N592 S590 1.610 . S
N592 C593 1.351 . S
C593 C587 1.428 . S
C593 N592 1.351 . S
C593 C594 1.434 . S
C594 C585 1.429 . S
C594 N591 1.350 . S
C594 C593 1.434 . S
C595 C596 1.369 . S
C595 C597 1.419 . S
C595 H599 0.930 . S
C596 C595 1.369 . S
C596 C605 1.429 . S
C597 C595 1.419 . S
C597 C598 1.363 . S
C597 H600 0.929 . S
C598 C597 1.363 . S
C598 C604 1.428 . S
H599 C595 0.930 . S
H600 C597 0.929 . S
S601 N602 1.613 . S
S601 N603 1.610 . S
N602 S601 1.613 . S
N602 C605 1.350 . S
N603 S601 1.610 . S
N603 C604 1.351 . S
C604 C598 1.428 . S
C604 N603 1.351 . S
C604 C605 1.434 . S
C605 C596 1.429 . S
C605 N602 1.350 . S
C605 C604 1.434 . S
C606 C607 1.369 . S
C606 C608 1.419 . S
C606 H610 0.930 . S
C607 C606 1.369 . S
C607 C616 1.429 . S
C608 C606 1.419 . S
C608 C609 1.363 . S
C608 H611 0.929 . S
C609 C608 1.363 . S
C609 C615 1.428 . S
H610 C606 0.930 . S
H611 C608 0.929 . S
S612 N613 1.613 . S
S612 N614 1.610 . S
N613 S612 1.613 . S
N613 C616 1.350 . S
N614 S612 1.610 . S
N614 C615 1.351 . S
C615 C609 1.428 . S
C615 N614 1.351 . S
C615 C616 1.434 . S
C616 C607 1.429 . S
C616 N613 1.350 . S
C616 C615 1.434 . S
C617 C618 1.369 . S
C617 C619 1.419 . S
C617 H621 0.930 . S
C618 C617 1.369 . S
C618 C627 1.429 . S
C619 C617 1.419 . S
C619 C620 1.363 . S
C619 H622 0.929 . S
C620 C619 1.363 . S
C620 C626 1.428 . S
H621 C617 0.930 . S
H622 C619 0.929 . S
S623 N624 1.613 . S
S623 N625 1.610 . S
N624 S623 1.613 . S
N624 C627 1.350 . S
N625 S623 1.610 . S
N625 C626 1.351 . S
C626 C620 1.428 . S
C626 N625 1.351 . S
C626 C627 1.434 . S
C627 C618 1.429 . S
C627 N624 1.350 . S
C627 C626 1.434 . S
C628 C629 1.369 . S
C628 C630 1.419 . S
C628 H632 0.930 . S
C629 C628 1.369 . S
C629 C638 1.429 . S
C630 C628 1.419 . S
C630 C631 1.363 . S
C630 H633 0.929 . S
C631 C630 1.363 . S
C631 C637 1.428 . S
H632 C628 0.930 . S
H633 C630 0.929 . S
S634 N635 1.613 . S
S634 N636 1.610 . S
N635 S634 1.613 . S
N635 C638 1.350 . S
N636 S634 1.610 . S
N636 C637 1.351 . S
C637 C631 1.428 . S
C637 N636 1.351 . S
C637 C638 1.434 . S
C638 C629 1.429 . S
C638 N635 1.350 . S
C638 C637 1.434 . S
C639 C640 1.369 . S
C639 C641 1.419 . S
C639 H643 0.930 . S
C640 C639 1.369 . S
C640 C649 1.429 . S
C641 C639 1.419 . S
C641 C642 1.363 . S
C641 H644 0.929 . S
C642 C641 1.363 . S
C642 C648 1.428 . S
H643 C639 0.930 . S
H644 C641 0.929 . S
S645 N646 1.613 . S
S645 N647 1.610 . S
N646 S645 1.613 . S
N646 C649 1.350 . S
N647 S645 1.610 . S
N647 C648 1.351 . S
C648 C642 1.428 . S
C648 N647 1.351 . S
C648 C649 1.434 . S
C649 C640 1.429 . S
C649 N646 1.350 . S
C649 C648 1.434 . S
C650 C651 1.369 . S
C650 C652 1.419 . S
C650 H654 0.930 . S
C651 C650 1.369 . S
C651 C660 1.429 . S
C652 C650 1.419 . S
C652 C653 1.363 . S
C652 H655 0.929 . S
C653 C652 1.363 . S
C653 C659 1.428 . S
H654 C650 0.930 . S
H655 C652 0.929 . S
S656 N657 1.613 . S
S656 N658 1.610 . S
N657 S656 1.613 . S
N657 C660 1.350 . S
N658 S656 1.610 . S
N658 C659 1.351 . S
C659 C653 1.428 . S
C659 N658 1.351 . S
C659 C660 1.434 . S
C660 C651 1.429 . S
C660 N657 1.350 . S
C660 C659 1.434 . S
C661 C662 1.369 . S
C661 C663 1.419 . S
C661 H665 0.930 . S
C662 C661 1.369 . S
C662 C671 1.429 1_554 S
C663 C661 1.419 . S
C663 C664 1.363 . S
C663 H666 0.929 . S
C664 C663 1.363 . S
C664 C670 1.428 1_554 S
H665 C661 0.930 . S
H666 C663 0.929 . S
S667 N668 1.613 . S
S667 N669 1.610 . S
N668 S667 1.613 . S
N668 C671 1.350 . S
N669 S667 1.610 . S
N669 C670 1.351 . S
C670 C664 1.428 1_556 S
C670 N669 1.351 . S
C670 C671 1.434 . S
C671 C662 1.429 1_556 S
C671 N668 1.350 . S
C671 C670 1.434 . S
C409 C7 1.890 . S
C411 C109 1.640 . S
C420 C37 1.974 . S
C422 C149 1.638 . S
C431 C54 2.072 . S
C433 C170 1.826 1_545 S
C444 C229 1.662 . S
C442 C87 1.673 . S
C455 C269 1.587 . S
C453 C30 1.815 . S
C464 C51 1.713 . S
C466 C290 1.590 . S
C475 C84 2.176 . S
C477 C330 1.916 . S
C486 C10 1.919 . S
C488 C389 1.589 . S
C497 C59 1.836 . S
C499 C370 1.641 . S
C510 C250 1.597 . S
C508 C74 1.852 . S
C521 C309 1.837 1_564 S
C519 C18 2.187 . S
C530 C32 1.702 . S
C532 C349 1.538 . S
C543 C130 1.632 . S
C541 C73 1.828 . S
C552 C15 1.759 . S
C554 C189 1.605 . S
C565 C210 2.040 . S
C563 C43 2.162 . S
C576 C90 1.607 . S
C574 C62 1.863 . S
C587 C343 1.714 . S
C585 C21 1.839 . S
C598 C383 1.508 . S
C596 C29 1.558 . S
C607 C52 1.493 . S
C609 C263 1.419 . S
C620 C303 1.709 . S
C618 C81 1.839 . S
C631 C183 1.682 . S
C629 C40 1.767 . S
C640 C65 1.775 . S
C642 C223 1.675 . S
C653 C103 1.453 . S
C651 C76 1.529 . S
C664 C143 1.508 1_554 S
C662 C8 1.583 . S
