# Generated by pormake.
# Topology gar, (4,6)-cn, num edge types: 1
# Building blocks:
#     Node 0, Type 0, BuildingBlock: TATPOV_clean_sbu_0, # of connection points: 4
#     Node 1, Type 0, BuildingBlock: TATPOV_clean_sbu_0, # of connection points: 4
#     Node 2, Type 0, BuildingBlock: TATPOV_clean_sbu_0, # of connection points: 4
#     Node 3, Type 0, BuildingBlock: TATPOV_clean_sbu_0, # of connection points: 4
#     Node 4, Type 0, BuildingBlock: TATPOV_clean_sbu_0, # of connection points: 4
#     Node 5, Type 0, BuildingBlock: TATPOV_clean_sbu_0, # of connection points: 4
#     Node 6, Type 0, BuildingBlock: TATPOV_clean_sbu_0, # of connection points: 4
#     Node 7, Type 0, BuildingBlock: TATPOV_clean_sbu_0, # of connection points: 4
#     Node 8, Type 0, BuildingBlock: TATPOV_clean_sbu_0, # of connection points: 4
#     Node 9, Type 0, BuildingBlock: TATPOV_clean_sbu_0, # of connection points: 4
#     Node 10, Type 0, BuildingBlock: TATPOV_clean_sbu_0, # of connection points: 4
#     Node 11, Type 0, BuildingBlock: TATPOV_clean_sbu_0, # of connection points: 4
#     Node 12, Type 0, BuildingBlock: TATPOV_clean_sbu_0, # of connection points: 4
#     Node 13, Type 0, BuildingBlock: TATPOV_clean_sbu_0, # of connection points: 4
#     Node 14, Type 0, BuildingBlock: TATPOV_clean_sbu_0, # of connection points: 4
#     Node 15, Type 0, BuildingBlock: TATPOV_clean_sbu_0, # of connection points: 4
#     Node 16, Type 0, BuildingBlock: TATPOV_clean_sbu_0, # of connection points: 4
#     Node 17, Type 0, BuildingBlock: TATPOV_clean_sbu_0, # of connection points: 4
#     Node 18, Type 0, BuildingBlock: TATPOV_clean_sbu_0, # of connection points: 4
#     Node 19, Type 0, BuildingBlock: TATPOV_clean_sbu_0, # of connection points: 4
#     Node 20, Type 0, BuildingBlock: TATPOV_clean_sbu_0, # of connection points: 4
#     Node 21, Type 0, BuildingBlock: TATPOV_clean_sbu_0, # of connection points: 4
#     Node 22, Type 0, BuildingBlock: TATPOV_clean_sbu_0, # of connection points: 4
#     Node 23, Type 0, BuildingBlock: TATPOV_clean_sbu_0, # of connection points: 4
#     Node 24, Type 1, BuildingBlock: BETGAK_clean_sbu_0, # of connection points: 6
#     Node 25, Type 1, BuildingBlock: BETGAK_clean_sbu_0, # of connection points: 6
#     Node 26, Type 1, BuildingBlock: BETGAK_clean_sbu_0, # of connection points: 6
#     Node 27, Type 1, BuildingBlock: BETGAK_clean_sbu_0, # of connection points: 6
#     Node 28, Type 1, BuildingBlock: BETGAK_clean_sbu_0, # of connection points: 6
#     Node 29, Type 1, BuildingBlock: BETGAK_clean_sbu_0, # of connection points: 6
#     Node 30, Type 1, BuildingBlock: BETGAK_clean_sbu_0, # of connection points: 6
#     Node 31, Type 1, BuildingBlock: BETGAK_clean_sbu_0, # of connection points: 6
#     Node 32, Type 1, BuildingBlock: BETGAK_clean_sbu_0, # of connection points: 6
#     Node 33, Type 1, BuildingBlock: BETGAK_clean_sbu_0, # of connection points: 6
#     Node 34, Type 1, BuildingBlock: BETGAK_clean_sbu_0, # of connection points: 6
#     Node 35, Type 1, BuildingBlock: BETGAK_clean_sbu_0, # of connection points: 6
#     Node 36, Type 1, BuildingBlock: BETGAK_clean_sbu_0, # of connection points: 6
#     Node 37, Type 1, BuildingBlock: BETGAK_clean_sbu_0, # of connection points: 6
#     Node 38, Type 1, BuildingBlock: BETGAK_clean_sbu_0, # of connection points: 6
#     Node 39, Type 1, BuildingBlock: BETGAK_clean_sbu_0, # of connection points: 6
#     Edge 40, Type (0, 1), BuildingBlock: UVAHIK_clean_linker_0, # of connection points: 2
#     Edge 41, Type (0, 1), BuildingBlock: UVAHIK_clean_linker_0, # of connection points: 2
#     Edge 42, Type (0, 1), BuildingBlock: UVAHIK_clean_linker_0, # of connection points: 2
#     Edge 43, Type (0, 1), BuildingBlock: UVAHIK_clean_linker_0, # of connection points: 2
#     Edge 44, Type (0, 1), BuildingBlock: UVAHIK_clean_linker_0, # of connection points: 2
#     Edge 45, Type (0, 1), BuildingBlock: UVAHIK_clean_linker_0, # of connection points: 2
#     Edge 46, Type (0, 1), BuildingBlock: UVAHIK_clean_linker_0, # of connection points: 2
#     Edge 47, Type (0, 1), BuildingBlock: UVAHIK_clean_linker_0, # of connection points: 2
#     Edge 48, Type (0, 1), BuildingBlock: UVAHIK_clean_linker_0, # of connection points: 2
#     Edge 49, Type (0, 1), BuildingBlock: UVAHIK_clean_linker_0, # of connection points: 2
#     Edge 50, Type (0, 1), BuildingBlock: UVAHIK_clean_linker_0, # of connection points: 2
#     Edge 51, Type (0, 1), BuildingBlock: UVAHIK_clean_linker_0, # of connection points: 2
#     Edge 52, Type (0, 1), BuildingBlock: UVAHIK_clean_linker_0, # of connection points: 2
#     Edge 53, Type (0, 1), BuildingBlock: UVAHIK_clean_linker_0, # of connection points: 2
#     Edge 54, Type (0, 1), BuildingBlock: UVAHIK_clean_linker_0, # of connection points: 2
#     Edge 55, Type (0, 1), BuildingBlock: UVAHIK_clean_linker_0, # of connection points: 2
#     Edge 56, Type (0, 1), BuildingBlock: UVAHIK_clean_linker_0, # of connection points: 2
#     Edge 57, Type (0, 1), BuildingBlock: UVAHIK_clean_linker_0, # of connection points: 2
#     Edge 58, Type (0, 1), BuildingBlock: UVAHIK_clean_linker_0, # of connection points: 2
#     Edge 59, Type (0, 1), BuildingBlock: UVAHIK_clean_linker_0, # of connection points: 2
#     Edge 60, Type (0, 1), BuildingBlock: UVAHIK_clean_linker_0, # of connection points: 2
#     Edge 61, Type (0, 1), BuildingBlock: UVAHIK_clean_linker_0, # of connection points: 2
#     Edge 62, Type (0, 1), BuildingBlock: UVAHIK_clean_linker_0, # of connection points: 2
#     Edge 63, Type (0, 1), BuildingBlock: UVAHIK_clean_linker_0, # of connection points: 2
#     Edge 64, Type (0, 1), BuildingBlock: UVAHIK_clean_linker_0, # of connection points: 2
#     Edge 65, Type (0, 1), BuildingBlock: UVAHIK_clean_linker_0, # of connection points: 2
#     Edge 66, Type (0, 1), BuildingBlock: UVAHIK_clean_linker_0, # of connection points: 2
#     Edge 67, Type (0, 1), BuildingBlock: UVAHIK_clean_linker_0, # of connection points: 2
#     Edge 68, Type (0, 1), BuildingBlock: UVAHIK_clean_linker_0, # of connection points: 2
#     Edge 69, Type (0, 1), BuildingBlock: UVAHIK_clean_linker_0, # of connection points: 2
#     Edge 70, Type (0, 1), BuildingBlock: UVAHIK_clean_linker_0, # of connection points: 2
#     Edge 71, Type (0, 1), BuildingBlock: UVAHIK_clean_linker_0, # of connection points: 2
#     Edge 72, Type (0, 1), BuildingBlock: UVAHIK_clean_linker_0, # of connection points: 2
#     Edge 73, Type (0, 1), BuildingBlock: UVAHIK_clean_linker_0, # of connection points: 2
#     Edge 74, Type (0, 1), BuildingBlock: UVAHIK_clean_linker_0, # of connection points: 2
#     Edge 75, Type (0, 1), BuildingBlock: UVAHIK_clean_linker_0, # of connection points: 2
#     Edge 76, Type (0, 1), BuildingBlock: UVAHIK_clean_linker_0, # of connection points: 2
#     Edge 77, Type (0, 1), BuildingBlock: UVAHIK_clean_linker_0, # of connection points: 2
#     Edge 78, Type (0, 1), BuildingBlock: UVAHIK_clean_linker_0, # of connection points: 2
#     Edge 79, Type (0, 1), BuildingBlock: UVAHIK_clean_linker_0, # of connection points: 2
#     Edge 80, Type (0, 1), BuildingBlock: UVAHIK_clean_linker_0, # of connection points: 2
#     Edge 81, Type (0, 1), BuildingBlock: UVAHIK_clean_linker_0, # of connection points: 2
#     Edge 82, Type (0, 1), BuildingBlock: UVAHIK_clean_linker_0, # of connection points: 2
#     Edge 83, Type (0, 1), BuildingBlock: UVAHIK_clean_linker_0, # of connection points: 2
#     Edge 84, Type (0, 1), BuildingBlock: UVAHIK_clean_linker_0, # of connection points: 2
#     Edge 85, Type (0, 1), BuildingBlock: UVAHIK_clean_linker_0, # of connection points: 2
#     Edge 86, Type (0, 1), BuildingBlock: UVAHIK_clean_linker_0, # of connection points: 2
#     Edge 87, Type (0, 1), BuildingBlock: UVAHIK_clean_linker_0, # of connection points: 2
#     Edge 88, Type (0, 1), BuildingBlock: UVAHIK_clean_linker_0, # of connection points: 2
#     Edge 89, Type (0, 1), BuildingBlock: UVAHIK_clean_linker_0, # of connection points: 2
#     Edge 90, Type (0, 1), BuildingBlock: UVAHIK_clean_linker_0, # of connection points: 2
#     Edge 91, Type (0, 1), BuildingBlock: UVAHIK_clean_linker_0, # of connection points: 2
#     Edge 92, Type (0, 1), BuildingBlock: UVAHIK_clean_linker_0, # of connection points: 2
#     Edge 93, Type (0, 1), BuildingBlock: UVAHIK_clean_linker_0, # of connection points: 2
#     Edge 94, Type (0, 1), BuildingBlock: UVAHIK_clean_linker_0, # of connection points: 2
#     Edge 95, Type (0, 1), BuildingBlock: UVAHIK_clean_linker_0, # of connection points: 2
#     Edge 96, Type (0, 1), BuildingBlock: UVAHIK_clean_linker_0, # of connection points: 2
#     Edge 97, Type (0, 1), BuildingBlock: UVAHIK_clean_linker_0, # of connection points: 2
#     Edge 98, Type (0, 1), BuildingBlock: UVAHIK_clean_linker_0, # of connection points: 2
#     Edge 99, Type (0, 1), BuildingBlock: UVAHIK_clean_linker_0, # of connection points: 2
#     Edge 100, Type (0, 1), BuildingBlock: UVAHIK_clean_linker_0, # of connection points: 2
#     Edge 101, Type (0, 1), BuildingBlock: UVAHIK_clean_linker_0, # of connection points: 2
#     Edge 102, Type (0, 1), BuildingBlock: UVAHIK_clean_linker_0, # of connection points: 2
#     Edge 103, Type (0, 1), BuildingBlock: UVAHIK_clean_linker_0, # of connection points: 2
#     Edge 104, Type (0, 1), BuildingBlock: UVAHIK_clean_linker_0, # of connection points: 2
#     Edge 105, Type (0, 1), BuildingBlock: UVAHIK_clean_linker_0, # of connection points: 2
#     Edge 106, Type (0, 1), BuildingBlock: UVAHIK_clean_linker_0, # of connection points: 2
#     Edge 107, Type (0, 1), BuildingBlock: UVAHIK_clean_linker_0, # of connection points: 2
#     Edge 108, Type (0, 1), BuildingBlock: UVAHIK_clean_linker_0, # of connection points: 2
#     Edge 109, Type (0, 1), BuildingBlock: UVAHIK_clean_linker_0, # of connection points: 2
#     Edge 110, Type (0, 1), BuildingBlock: UVAHIK_clean_linker_0, # of connection points: 2
#     Edge 111, Type (0, 1), BuildingBlock: UVAHIK_clean_linker_0, # of connection points: 2
#     Edge 112, Type (0, 1), BuildingBlock: UVAHIK_clean_linker_0, # of connection points: 2
#     Edge 113, Type (0, 1), BuildingBlock: UVAHIK_clean_linker_0, # of connection points: 2
#     Edge 114, Type (0, 1), BuildingBlock: UVAHIK_clean_linker_0, # of connection points: 2
#     Edge 115, Type (0, 1), BuildingBlock: UVAHIK_clean_linker_0, # of connection points: 2
#     Edge 116, Type (0, 1), BuildingBlock: UVAHIK_clean_linker_0, # of connection points: 2
#     Edge 117, Type (0, 1), BuildingBlock: UVAHIK_clean_linker_0, # of connection points: 2
#     Edge 118, Type (0, 1), BuildingBlock: UVAHIK_clean_linker_0, # of connection points: 2
#     Edge 119, Type (0, 1), BuildingBlock: UVAHIK_clean_linker_0, # of connection points: 2
#     Edge 120, Type (0, 1), BuildingBlock: UVAHIK_clean_linker_0, # of connection points: 2
#     Edge 121, Type (0, 1), BuildingBlock: UVAHIK_clean_linker_0, # of connection points: 2
#     Edge 122, Type (0, 1), BuildingBlock: UVAHIK_clean_linker_0, # of connection points: 2
#     Edge 123, Type (0, 1), BuildingBlock: UVAHIK_clean_linker_0, # of connection points: 2
#     Edge 124, Type (0, 1), BuildingBlock: UVAHIK_clean_linker_0, # of connection points: 2
#     Edge 125, Type (0, 1), BuildingBlock: UVAHIK_clean_linker_0, # of connection points: 2
#     Edge 126, Type (0, 1), BuildingBlock: UVAHIK_clean_linker_0, # of connection points: 2
#     Edge 127, Type (0, 1), BuildingBlock: UVAHIK_clean_linker_0, # of connection points: 2
#     Edge 128, Type (0, 1), BuildingBlock: UVAHIK_clean_linker_0, # of connection points: 2
#     Edge 129, Type (0, 1), BuildingBlock: UVAHIK_clean_linker_0, # of connection points: 2
#     Edge 130, Type (0, 1), BuildingBlock: UVAHIK_clean_linker_0, # of connection points: 2
#     Edge 131, Type (0, 1), BuildingBlock: UVAHIK_clean_linker_0, # of connection points: 2
#     Edge 132, Type (0, 1), BuildingBlock: UVAHIK_clean_linker_0, # of connection points: 2
#     Edge 133, Type (0, 1), BuildingBlock: UVAHIK_clean_linker_0, # of connection points: 2
#     Edge 134, Type (0, 1), BuildingBlock: UVAHIK_clean_linker_0, # of connection points: 2
#     Edge 135, Type (0, 1), BuildingBlock: UVAHIK_clean_linker_0, # of connection points: 2
# Relax obj value: 0.182
# Max RMSD: 0.293
# Mean RMSD: 0.171
data_MOF--net-gar--node1-TATPOV_clean_sbu_0--node2-BETGAK_clean_sbu_0--edge1-UVAHIK_clean_linker_0
_symmetry_space_group_name_H-M    P1
_symmetry_Int_Tables_number       1
_symmetry_cell_setting            triclinic
loop_
_symmetry_equiv_pos_as_xyz
'x, y, z'
_cell_length_a     78.036595
_cell_length_b     73.006321
_cell_length_c     73.418979
_cell_angle_alpha  98.60256
_cell_angle_beta   95.450499
_cell_angle_gamma 104.49195
loop_
_atom_site_label
_atom_site_type_symbol
_atom_site_fract_x
_atom_site_fract_y
_atom_site_fract_z
_atom_type_partial_charge
Zn0 Zn 0.06944 0.31938 0.40281 0.0
Zn1 Zn 0.09501 0.32013 0.38847 0.0
O2 O 0.10218 0.34801 0.40209 0.0
O3 O 0.07395 0.34735 0.4022 0.0
O4 O 0.11546 0.31679 0.37594 0.0
O5 O 0.07629 0.30905 0.42521 0.0
O6 O 0.09025 0.29808 0.40336 0.0
C7 C 0.0901 0.35678 0.4035 0.0
C8 C 0.05971 0.30524 0.36609 0.0
O9 O 0.07534 0.31606 0.36663 0.0
O10 O 0.05451 0.30063 0.38095 0.0
C11 C 0.12098 0.32766 0.36459 0.0
O12 O 0.11385 0.34186 0.3625 0.0
C13 C 0.08341 0.29636 0.4183 0.0
Zn14 Zn 0.99027 0.72292 0.66457 0.0
Zn15 Zn 0.99493 0.75417 0.65054 0.0
O16 O 0.97173 0.75241 0.66059 0.0
O17 O 0.97438 0.73304 0.6804 0.0
O18 O 1.0005 0.7778 0.63944 0.0
O19 O 0.01693 0.73087 0.67155 0.0
O20 O 0.01611 0.76045 0.66992 0.0
C21 C 0.96652 0.74438 0.67403 0.0
C22 C 0.9868 0.71519 0.6266 0.0
O23 O 0.99501 0.73293 0.62959 0.0
O24 O 0.97993 0.70749 0.63943 0.0
C25 C 0.99583 0.77757 0.62239 0.0
O26 O 0.98543 0.76174 0.61199 0.0
C27 C 0.02447 0.74872 0.67454 0.0
Zn28 Zn 0.5704 0.82306 0.90685 0.0
Zn29 Zn 0.59714 0.82175 0.89085 0.0
O30 O 0.60255 0.84941 0.90411 0.0
O31 O 0.57464 0.84656 0.8945 0.0
O32 O 0.61807 0.82036 0.87823 0.0
O33 O 0.56542 0.7938 0.90128 0.0
O34 O 0.59463 0.80045 0.90649 0.0
C35 C 0.59035 0.85716 0.89945 0.0
C36 C 0.56077 0.80615 0.86949 0.0
O37 O 0.57664 0.81604 0.86929 0.0
O38 O 0.55585 0.80222 0.88484 0.0
C39 C 0.62103 0.82876 0.86447 0.0
O40 O 0.61056 0.83916 0.8593 0.0
C41 C 0.57939 0.78886 0.90604 0.0
Zn42 Zn 0.49046 0.2224 0.16721 0.0
Zn43 Zn 0.49524 0.25346 0.15081 0.0
O44 O 0.472 0.25273 0.1603 0.0
O45 O 0.47199 0.23191 0.17923 0.0
O46 O 0.50154 0.27628 0.13876 0.0
O47 O 0.51672 0.23183 0.1764 0.0
O48 O 0.51666 0.26026 0.16991 0.0
C49 C 0.46499 0.24366 0.17238 0.0
C50 C 0.48778 0.21326 0.1287 0.0
O51 O 0.49424 0.23132 0.13046 0.0
O52 O 0.48282 0.20576 0.14242 0.0
C53 C 0.4947 0.27727 0.12273 0.0
O54 O 0.48135 0.2631 0.1136 0.0
C55 C 0.52456 0.24934 0.17702 0.0
Zn56 Zn 0.09698 0.80881 0.09774 0.0
Zn57 Zn 0.07149 0.80188 0.11888 0.0
O58 O 0.0686 0.82543 0.10611 0.0
O59 O 0.09135 0.83227 0.0904 0.0
O60 O 0.05048 0.7966 0.13436 0.0
O61 O 0.08671 0.78273 0.0819 0.0
O62 O 0.06604 0.77633 0.10024 0.0
C63 C 0.07731 0.8357 0.0956 0.0
C64 C 0.11158 0.80702 0.13438 0.0
O65 O 0.09524 0.80449 0.13722 0.0
O66 O 0.11583 0.81005 0.11867 0.0
C67 C 0.03662 0.80239 0.13068 0.0
O68 O 0.03636 0.8128 0.1176 0.0
C69 C 0.07356 0.77108 0.08645 0.0
Zn70 Zn 0.48798 0.76129 0.43365 0.0
Zn71 Zn 0.51038 0.76179 0.40732 0.0
O72 O 0.51682 0.78799 0.42455 0.0
O73 O 0.50267 0.78627 0.449 0.0
O74 O 0.53144 0.7647 0.39137 0.0
O75 O 0.49224 0.73711 0.44043 0.0
O76 O 0.51205 0.73858 0.42084 0.0
C77 C 0.51395 0.79568 0.44027 0.0
C78 C 0.4716 0.76154 0.39561 0.0
O79 O 0.48633 0.75953 0.39033 0.0
O80 O 0.46957 0.76255 0.41264 0.0
C81 C 0.5454 0.77898 0.39584 0.0
O82 O 0.546 0.7923 0.4102 0.0
C83 C 0.50425 0.73073 0.43341 0.0
Zn84 Zn 0.59616 0.30558 0.59513 0.0
Zn85 Zn 0.57054 0.30045 0.61797 0.0
O86 O 0.56893 0.32487 0.6063 0.0
O87 O 0.58851 0.32751 0.58644 0.0
O88 O 0.54965 0.29521 0.63337 0.0
O89 O 0.58462 0.27903 0.58035 0.0
O90 O 0.564 0.27532 0.59904 0.0
C91 C 0.57626 0.33316 0.59374 0.0
C92 C 0.61014 0.30549 0.63336 0.0
O93 O 0.59368 0.30188 0.63573 0.0
O94 O 0.61471 0.30889 0.61781 0.0
C95 C 0.53755 0.30413 0.63278 0.0
O96 O 0.53921 0.31813 0.62319 0.0
C97 C 0.57068 0.26885 0.58511 0.0
Zn98 Zn 0.98737 0.25934 0.93313 0.0
Zn99 Zn 0.00996 0.26114 0.90772 0.0
O100 O 0.0174 0.28692 0.92588 0.0
O101 O 1.00149 0.28432 0.94899 0.0
O102 O 0.0309 0.26393 0.89178 0.0
O103 O 0.99154 0.2352 0.93985 0.0
O104 O 0.01157 0.23735 0.92053 0.0
C105 C 0.01371 0.29401 0.94144 0.0
C106 C 0.97067 0.26052 0.89594 0.0
O107 O 0.98584 0.25987 0.89087 0.0
O108 O 0.96834 0.26009 0.91275 0.0
C109 C 0.04263 0.27997 0.89279 0.0
O110 O 0.04045 0.29548 0.90278 0.0
C111 C 0.00368 0.22908 0.93283 0.0
Zn112 Zn 0.46305 1.00307 0.27925 0.0
Zn113 Zn 0.436 0.03517 0.27556 0.0
O114 O 0.43354 0.03623 0.30271 0.0
O115 O 0.44958 0.01652 0.29605 0.0
O116 O 0.42376 0.05356 0.26653 0.0
O117 O 0.47812 0.02067 0.26388 0.0
O118 O 0.46197 0.03931 0.27321 0.0
C119 C 0.44152 0.02431 0.30765 0.0
C120 C 0.42308 0.99102 0.2629 0.0
O121 O 0.42223 0.00836 0.26434 0.0
O122 O 0.4374 0.98648 0.26786 0.0
C123 C 0.40684 0.04852 0.26584 0.0
O124 O 0.39904 0.03179 0.26994 0.0
C125 C 0.46804 0.03106 0.25983 0.0
Zn126 Zn 0.26534 0.20843 0.50142 0.0
Zn127 Zn 0.28487 0.1847 0.49918 0.0
O128 O 0.28882 0.19757 0.47521 0.0
O129 O 0.26906 0.21445 0.47628 0.0
O130 O 0.30252 0.16815 0.50117 0.0
O131 O 0.27962 0.22611 0.52422 0.0
O132 O 0.29214 0.20242 0.52533 0.0
C133 C 0.28061 0.20847 0.46795 0.0
C134 C 0.245 0.16963 0.50126 0.0
O135 O 0.25947 0.16568 0.49746 0.0
O136 O 0.24442 0.18697 0.50453 0.0
C137 C 0.31721 0.17117 0.49442 0.0
O138 O 0.32086 0.18464 0.48424 0.0
C139 C 0.28974 0.21832 0.53296 0.0
Zn140 Zn 0.13899 0.0278 0.771 0.0
Zn141 Zn 0.15811 0.00476 0.76952 0.0
O142 O 0.14343 0.00361 0.79611 0.0
O143 O 0.1279 0.02464 0.79404 0.0
O144 O 0.17347 0.98127 0.76627 0.0
O145 O 0.12376 0.01973 0.74644 0.0
O146 O 0.14177 1.00133 0.74108 0.0
C147 C 0.13236 0.01273 0.80306 0.0
C148 C 0.1747 0.05021 0.77117 0.0
O149 O 0.17776 0.03355 0.7714 0.0
O150 O 0.15884 0.05143 0.77131 0.0
C151 C 0.17518 0.96839 0.77637 0.0
O152 O 0.16717 0.96848 0.79132 0.0
C153 C 0.12928 0.00867 0.7349 0.0
Zn154 Zn 0.32164 0.89636 0.00976 0.0
Zn155 Zn 0.29466 0.91053 0.00685 0.0
O156 O 0.29361 0.8998 0.9802 0.0
O157 O 0.32104 0.89664 0.98239 0.0
O158 O 0.27471 0.92188 0.00971 0.0
O159 O 0.30803 0.87332 0.0193 0.0
O160 O 0.2902 0.89185 0.02389 0.0
C161 C 0.30688 0.89694 0.97265 0.0
C162 C 0.33049 0.93476 0.02634 0.0
O163 O 0.31576 0.93314 0.01655 0.0
O164 O 0.33563 0.91994 0.02817 0.0
C165 C 0.27671 0.93929 0.00816 0.0
O166 O 0.29086 0.94858 0.00171 0.0
C167 C 0.29566 0.87769 0.02746 0.0
Zn168 Zn 0.31551 0.3598 0.02604 0.0
Zn169 Zn 0.29488 0.38377 0.029 0.0
O170 O 0.28849 0.36667 0.00265 0.0
O171 O 0.30227 0.3438 0.00203 0.0
O172 O 0.27523 0.39852 0.02842 0.0
O173 O 0.30968 0.3507 0.04959 0.0
O174 O 0.29157 0.36948 0.05224 0.0
C175 C 0.29162 0.35156 0.99411 0.0
C176 C 0.33483 0.40009 0.02758 0.0
O177 O 0.31995 0.40362 0.03052 0.0
O178 O 0.33603 0.38293 0.02501 0.0
C179 C 0.2681 0.40133 0.01301 0.0
O180 O 0.27442 0.39613 0.99769 0.0
C181 C 0.29841 0.35688 0.05823 0.0
Zn182 Zn 0.75873 0.16802 0.01106 0.0
Zn183 Zn 0.78771 0.15149 0.02462 0.0
O184 O 0.79233 0.16639 0.00345 0.0
O185 O 0.76624 0.14889 0.99166 0.0
O186 O 0.80768 0.1394 0.02523 0.0
O187 O 0.76799 0.18113 0.03837 0.0
O188 O 0.78915 0.16834 0.0485 0.0
C189 C 0.78122 0.15851 0.98907 0.0
C190 C 0.74918 0.12718 0.01446 0.0
O191 O 0.76503 0.12936 0.02206 0.0
O192 O 0.74442 0.14065 0.00811 0.0
C193 C 0.80475 0.1226 0.01584 0.0
O194 O 0.7886 0.11329 0.00756 0.0
C195 C 0.77931 0.17962 0.05129 0.0
Zn196 Zn 0.13235 0.56618 0.25133 0.0
Zn197 Zn 0.15052 0.52731 0.24638 0.0
O198 O 0.13867 0.51917 0.26895 0.0
O199 O 0.13273 0.54405 0.26179 0.0
O200 O 0.16328 0.50767 0.24037 0.0
O201 O 0.12508 0.55519 0.22476 0.0
O202 O 0.13526 0.52885 0.22297 0.0
C203 C 0.13153 0.53259 0.27284 0.0
C204 C 0.17147 0.57075 0.25499 0.0
O205 O 0.16944 0.5527 0.25298 0.0
O206 O 0.1586 0.57856 0.25454 0.0
C207 C 0.18016 0.51182 0.24141 0.0
O208 O 0.18958 0.52981 0.24363 0.0
C209 C 0.1273 0.53988 0.2157 0.0
Zn210 Zn 0.81451 0.85926 0.52541 0.0
Zn211 Zn 0.79612 0.88454 0.52877 0.0
O212 O 0.78975 0.86817 0.50213 0.0
O213 O 0.80036 0.84298 0.50199 0.0
O214 O 0.77782 0.90097 0.52768 0.0
O215 O 0.80961 0.85076 0.5492 0.0
O216 O 0.79187 0.86991 0.55193 0.0
C217 C 0.79132 0.85219 0.49377 0.0
C218 C 0.83592 0.89852 0.52652 0.0
O219 O 0.82174 0.90318 0.5304 0.0
O220 O 0.83586 0.88095 0.5235 0.0
C221 C 0.7623 0.89313 0.51841 0.0
O222 O 0.75842 0.87494 0.51054 0.0
C223 C 0.7985 0.85714 0.55791 0.0
Zn224 Zn 0.94184 0.03681 0.25028 0.0
Zn225 Zn 0.9233 0.06048 0.25474 0.0
O226 O 0.94025 0.06453 0.28251 0.0
O227 O 0.95621 0.04425 0.27544 0.0
O228 O 0.90797 0.08387 0.25568 0.0
O229 O 0.95351 0.04106 0.22773 0.0
O230 O 0.93757 0.06204 0.22821 0.0
C231 C 0.95209 0.05592 0.28767 0.0
C232 C 0.90649 0.01426 0.25073 0.0
O233 O 0.90389 0.03132 0.25355 0.0
O234 O 0.92187 0.01291 0.24781 0.0
C235 C 0.90951 0.09934 0.26791 0.0
O236 O 0.92152 0.10252 0.28265 0.0
C237 C 0.94851 0.05358 0.22012 0.0
Zn238 Zn 0.24831 0.65031 0.51555 0.0
Zn239 Zn 0.28386 0.64538 0.52629 0.0
O240 O 0.28498 0.65997 0.50407 0.0
O241 O 0.25795 0.66354 0.49612 0.0
O242 O 0.30504 0.63546 0.52622 0.0
O243 O 0.2576 0.66587 0.54228 0.0
O244 O 0.28496 0.66305 0.54959 0.0
C245 C 0.27416 0.66583 0.49379 0.0
C246 C 0.25449 0.6162 0.50997 0.0
O247 O 0.26399 0.62128 0.52564 0.0
O248 O 0.25624 0.62871 0.49989 0.0
C249 C 0.30619 0.62755 0.50993 0.0
O250 O 0.29431 0.62733 0.49594 0.0
C251 C 0.27206 0.66991 0.55342 0.0
Zn252 Zn 0.44327 0.53702 0.75058 0.0
Zn253 Zn 0.42348 0.56028 0.7545 0.0
O254 O 0.44063 0.56485 0.78213 0.0
O255 O 0.45806 0.54597 0.7757 0.0
O256 O 0.40804 0.58352 0.75546 0.0
O257 O 0.45429 0.54154 0.72749 0.0
O258 O 0.43743 0.56166 0.72789 0.0
C259 C 0.45334 0.5575 0.78757 0.0
C260 C 0.40745 0.51426 0.75117 0.0
O261 O 0.40446 0.53114 0.75347 0.0
O262 O 0.42304 0.51319 0.74876 0.0
C263 C 0.40964 0.599 0.76768 0.0
O264 O 0.42173 0.60223 0.78235 0.0
C265 C 0.44863 0.55363 0.71977 0.0
Zn266 Zn 0.63429 0.06728 0.75032 0.0
Zn267 Zn 0.65069 0.02884 0.74731 0.0
O268 O 0.63834 0.02128 0.76932 0.0
O269 O 0.63237 0.04741 0.76477 0.0
O270 O 0.66286 0.00853 0.7418 0.0
O271 O 0.62604 0.05617 0.72434 0.0
O272 O 0.63605 0.02991 0.72347 0.0
C273 C 0.63111 0.03444 0.77423 0.0
C274 C 0.67293 0.0713 0.75545 0.0
O275 O 0.67057 0.05329 0.75437 0.0
O276 O 0.66028 0.07926 0.75366 0.0
C277 C 0.67932 0.01186 0.74008 0.0
O278 O 0.68847 0.02924 0.73876 0.0
C279 C 0.62812 0.04065 0.71575 0.0
Zn280 Zn 0.76496 0.70841 0.99907 0.0
Zn281 Zn 0.78491 0.68438 0.99891 0.0
O282 O 0.78929 0.69657 0.9746 0.0
O283 O 0.7721 0.7164 0.97549 0.0
O284 O 0.80271 0.66798 0.00171 0.0
O285 O 0.77726 0.72499 0.02299 0.0
O286 O 0.79183 0.70301 0.02471 0.0
C287 C 0.78317 0.70912 0.9676 0.0
C288 C 0.74452 0.66929 0.99884 0.0
O289 O 0.7595 0.66544 0.99738 0.0
O290 O 0.7435 0.68645 0.99994 0.0
C291 C 0.81751 0.67109 0.99513 0.0
O292 O 0.82115 0.68449 0.98488 0.0
C293 C 0.78813 0.71833 0.03204 0.0
Zn294 Zn 0.96171 0.50357 0.77364 0.0
Zn295 Zn 0.93802 0.53434 0.77262 0.0
O296 O 0.93847 0.5371 0.79986 0.0
O297 O 0.9536 0.5151 0.79705 0.0
O298 O 0.92443 0.55134 0.76258 0.0
O299 O 0.97937 0.52043 0.75974 0.0
O300 O 0.96334 0.53894 0.7689 0.0
C301 C 0.9459 0.52561 0.8068 0.0
C302 C 0.92362 0.48973 0.7602 0.0
O303 O 0.9236 0.50724 0.76434 0.0
O304 O 0.93805 0.48455 0.76087 0.0
C305 C 0.90934 0.54955 0.76833 0.0
O306 O 0.90464 0.53761 0.77984 0.0
C307 C 0.96861 0.52994 0.75545 0.0
Zn308 Zn 0.8268 0.37899 0.50356 0.0
Zn309 Zn 0.79224 0.40449 0.50784 0.0
O310 O 0.79244 0.40553 0.47982 0.0
O311 O 0.81212 0.39307 0.49108 0.0
O312 O 0.77357 0.41556 0.51736 0.0
O313 O 0.80966 0.36101 0.5171 0.0
O314 O 0.7903 0.37673 0.51084 0.0
C315 C 0.80454 0.39712 0.47702 0.0
C316 C 0.83218 0.42212 0.52302 0.0
O317 O 0.81579 0.42199 0.52038 0.0
O318 O 0.83788 0.40753 0.51739 0.0
C319 C 0.77561 0.43252 0.51413 0.0
O320 O 0.78857 0.43973 0.50492 0.0
C321 C 0.79951 0.37108 0.52298 0.0
Zn322 Zn 0.63757 0.52723 0.26899 0.0
Zn323 Zn 0.65846 0.50517 0.26958 0.0
O324 O 0.6437 0.50421 0.2959 0.0
O325 O 0.62733 0.5243 0.29279 0.0
O326 O 0.674 0.48195 0.26664 0.0
O327 O 0.62209 0.51701 0.24433 0.0
O328 O 0.64265 0.50136 0.24103 0.0
C329 C 0.63236 0.51314 0.30244 0.0
C330 C 0.67403 0.55018 0.27006 0.0
O331 O 0.67762 0.53404 0.27173 0.0
O332 O 0.65786 0.55066 0.26856 0.0
C333 C 0.67525 0.46878 0.27652 0.0
O334 O 0.66665 0.46846 0.29105 0.0
C335 C 0.62919 0.50665 0.2338 0.0
La336 La 0.02568 0.02547 0.00565 0.0
La337 La 0.06146 0.04321 0.02507 0.0
C338 C 0.99216 0.01792 1.00047 0.0
C339 C 0.97968 0.02887 0.99489 0.0
C340 C 0.96587 0.02043 0.98014 0.0
C341 C 0.95273 0.0297 0.9761 0.0
C342 C 0.95324 0.04752 0.98679 0.0
C343 C 0.96772 0.05658 1.00073 0.0
C344 C 0.98087 0.04734 0.00476 0.0
C345 C 0.04747 0.02482 0.9788 0.0
C346 C 0.04324 0.0695 0.00611 0.0
C347 C 0.09373 0.0515 0.03908 0.0
C348 C 0.10684 0.0403 0.03955 0.0
C349 C 0.1192 0.04337 0.05559 0.0
C350 C 0.13197 0.03302 0.05612 0.0
C351 C 0.13253 0.01964 0.04052 0.0
C352 C 0.11971 0.01598 0.02476 0.0
C353 C 0.10681 0.02613 0.02432 0.0
C354 C 0.03594 0.04698 0.04663 0.0
C355 C 0.0458 0.99764 0.01987 0.0
O356 O 1.00141 0.01223 0.98791 0.0
O357 O 1.00187 0.02469 0.01669 0.0
O358 O 0.03023 0.01851 0.97643 0.0
O359 O 0.05208 0.0315 0.99624 0.0
O360 O 0.02832 0.05606 0.00576 0.0
O361 O 0.05891 0.06682 0.01121 0.0
O362 O 0.08044 0.04603 0.04827 0.0
O363 O 0.08844 0.05497 0.02281 0.0
O364 O 0.05001 0.06039 0.04542 0.0
O365 O 0.03633 0.03216 0.03509 0.0
O366 O 0.06004 0.0126 0.02313 0.0
O367 O 0.02998 0.99921 0.0134 0.0
H368 H 0.96485 0.00635 0.97222 0.0
H369 H 0.94172 0.02257 0.96516 0.0
H370 H 0.96831 0.07024 0.00927 0.0
H371 H 0.99153 0.05435 0.01609 0.0
H372 H 0.11915 0.05402 0.06755 0.0
H373 H 0.14189 0.03606 0.06832 0.0
H374 H 0.12 0.00564 0.01263 0.0
H375 H 0.09708 0.0232 0.01197 0.0
La376 La 0.29667 0.78633 0.2513 0.0
La377 La 0.28576 0.79419 0.28953 0.0
C378 C 0.30711 0.78629 0.22013 0.0
C379 C 0.31456 0.80148 0.21004 0.0
C380 C 0.33134 0.80241 0.20436 0.0
C381 C 0.33948 0.81737 0.1958 0.0
C382 C 0.33082 0.83148 0.19259 0.0
C383 C 0.31425 0.83092 0.19882 0.0
C384 C 0.30617 0.81601 0.20758 0.0
C385 C 0.31834 0.78194 0.27931 0.0
C386 C 0.29836 0.82885 0.27087 0.0
C387 C 0.2849 0.79444 0.32345 0.0
C388 C 0.27301 0.78115 0.33302 0.0
C389 C 0.25744 0.78514 0.33881 0.0
C390 C 0.24607 0.77218 0.34748 0.0
C391 C 0.25003 0.75502 0.35023 0.0
C392 C 0.26538 0.75089 0.34411 0.0
C393 C 0.2768 0.76385 0.33571 0.0
C394 C 0.25779 0.79079 0.26387 0.0
C395 C 0.27443 0.75266 0.2655 0.0
O396 O 0.31736 0.78665 0.23535 0.0
O397 O 0.29021 0.78316 0.22235 0.0
O398 O 0.31299 0.77014 0.26368 0.0
O399 O 0.31093 0.79558 0.27935 0.0
O400 O 0.29792 0.81683 0.25532 0.0
O401 O 0.29701 0.82334 0.28703 0.0
O402 O 0.2775 0.80522 0.31426 0.0
O403 O 0.29584 0.7871 0.3141 0.0
O404 O 0.25761 0.79394 0.28166 0.0
O405 O 0.27322 0.78939 0.26159 0.0
O406 O 0.27931 0.76317 0.2823 0.0
O407 O 0.27749 0.75939 0.25016 0.0
H408 H 0.33816 0.79153 0.20658 0.0
H409 H 0.35228 0.8176 0.19114 0.0
H410 H 0.30719 0.84149 0.19619 0.0
H411 H 0.29337 0.81576 0.21225 0.0
H412 H 0.25415 0.79833 0.33683 0.0
H413 H 0.23443 0.77573 0.35239 0.0
H414 H 0.26903 0.73801 0.34661 0.0
H415 H 0.28869 0.76032 0.3315 0.0
La416 La 0.55592 0.03127 0.51108 0.0
La417 La 0.51616 0.0291 0.51385 0.0
C418 C 0.58703 0.02651 0.5144 0.0
C419 C 0.59694 0.01193 0.50905 0.0
C420 C 0.60751 0.01388 0.49459 0.0
C421 C 0.61911 1.00225 0.49121 0.0
C422 C 0.62053 0.98836 0.50224 0.0
C423 C 0.60924 0.98569 0.51606 0.0
C424 C 0.59766 0.99738 0.51948 0.0
C425 C 0.53647 0.0331 0.48096 0.0
C426 C 0.52619 0.9908 0.50535 0.0
C427 C 0.48495 0.0334 0.51161 0.0
C428 C 0.47564 0.04859 0.51634 0.0
C429 C 0.46898 0.05112 0.53347 0.0
C430 C 0.45848 0.06397 0.53701 0.0
C431 C 0.45431 0.07454 0.52348 0.0
C432 C 0.46137 0.07228 0.50657 0.0
C433 C 0.47184 0.05951 0.50305 0.0
C434 C 0.53609 0.02804 0.54394 0.0
C435 C 0.54579 0.06971 0.51951 0.0
O436 O 0.58061 0.03399 0.50106 0.0
O437 O 0.57614 0.02357 0.52688 0.0
O438 O 0.55348 0.04101 0.48451 0.0
O439 O 0.5315 0.02278 0.49261 0.0
O440 O 0.54315 1.00067 0.51038 0.0
O441 O 0.51321 0.99917 0.50249 0.0
O442 O 0.49235 0.02734 0.52546 0.0
O443 O 0.49482 0.03488 0.4981 0.0
O444 O 0.51945 0.01843 0.53996 0.0
O445 O 0.54052 0.03805 0.53198 0.0
O446 O 0.52873 0.05988 0.51507 0.0
O447 O 0.55886 0.06135 0.52192 0.0
H448 H 0.60735 0.02493 0.4863 0.0
H449 H 0.62735 0.0045 0.48025 0.0
H450 H 0.61002 0.97524 0.52491 0.0
H451 H 0.5898 0.9955 0.53079 0.0
H452 H 0.47151 0.04283 0.54399 0.0
H453 H 0.45343 0.06542 0.55024 0.0
H454 H 0.4582 0.07981 0.49562 0.0
H455 H 0.4765 0.05775 0.48963 0.0
La456 La 0.27374 0.2853 0.76466 0.0
La457 La 0.31042 0.27778 0.7657 0.0
C458 C 0.24115 0.27985 0.76885 0.0
C459 C 0.2297 0.28492 0.78291 0.0
C460 C 0.22276 0.301 0.78304 0.0
C461 C 0.20979 0.30373 0.79449 0.0
C462 C 0.20334 0.2903 0.80581 0.0
C463 C 0.21103 0.2749 0.80641 0.0
C464 C 0.22397 0.27223 0.79513 0.0
C465 C 0.29853 0.31937 0.76648 0.0
C466 C 0.29877 0.29216 0.80292 0.0
C467 C 0.3418 0.2757 0.76158 0.0
C468 C 0.35336 0.2724 0.74729 0.0
C469 C 0.36708 0.26384 0.75153 0.0
C470 C 0.3794 0.262 0.7392 0.0
C471 C 0.37827 0.26858 0.72216 0.0
C472 C 0.3639 0.27636 0.71757 0.0
C473 C 0.35162 0.27833 0.73003 0.0
C474 C 0.28398 0.24819 0.77091 0.0
C475 C 0.28682 0.27403 0.72669 0.0
O476 O 0.24954 0.29314 0.76019 0.0
O477 O 0.251 0.26857 0.77305 0.0
O478 O 0.28148 0.31693 0.76627 0.0
O479 O 0.30085 0.30267 0.7661 0.0
O480 O 0.28233 0.2873 0.7941 0.0
O481 O 0.31283 0.29231 0.79423 0.0
O482 O 0.32876 0.26105 0.76309 0.0
O483 O 0.33699 0.29175 0.7634 0.0
O484 O 0.30009 0.25367 0.77981 0.0
O485 O 0.28308 0.25959 0.75946 0.0
O486 O 0.30235 0.27449 0.73592 0.0
O487 O 0.27305 0.27679 0.73485 0.0
H488 H 0.22679 0.31102 0.77377 0.0
H489 H 0.2041 0.31573 0.7937 0.0
H490 H 0.20653 0.26444 0.81516 0.0
H491 H 0.22892 0.25966 0.79545 0.0
H492 H 0.36863 0.2591 0.76475 0.0
H493 H 0.39028 0.25617 0.74351 0.0
H494 H 0.36225 0.28122 0.70445 0.0
H495 H 0.341 0.28479 0.72635 0.0
La496 La 0.03963 0.05055 0.51896 0.0
La497 La 0.04241 0.01306 0.50284 0.0
C498 C 0.04149 0.0858 0.52411 0.0
C499 C 0.03936 0.09864 0.51084 0.0
C500 C 0.02517 0.10722 0.51109 0.0
C501 C 0.0228 0.11915 0.49841 0.0
C502 C 0.0347 0.12286 0.48535 0.0
C503 C 0.04865 0.11387 0.48483 0.0
C504 C 0.05093 0.10183 0.49739 0.0
C505 C 0.01146 0.02261 0.5214 0.0
C506 C 0.02832 0.03556 0.47435 0.0
C507 C 0.04129 0.97796 0.49708 0.0
C508 C 0.04384 0.96469 0.50971 0.0
C509 C 0.05646 0.95418 0.50693 0.0
C510 C 0.05854 0.94098 0.51836 0.0
C511 C 0.0481 0.93829 0.53273 0.0
C512 C 0.03602 0.94934 0.53603 0.0
C513 C 0.03394 0.96252 0.52466 0.0
C514 C 0.07031 0.0413 0.50039 0.0
C515 C 0.05358 0.02808 0.54755 0.0
O516 O 0.02706 0.07257 0.52528 0.0
O517 O 0.0555 0.07903 0.52376 0.0
O518 O 0.01852 0.03765 0.53418 0.0
O519 O 0.01991 0.02386 0.50756 0.0
O520 O 0.03351 0.05027 0.48854 0.0
O521 O 0.02913 0.0182 0.47699 0.0
O522 O 0.0555 0.99156 0.49614 0.0
O523 O 0.02709 0.98435 0.49794 0.0
O524 O 0.06331 0.02641 0.48745 0.0
O525 O 0.06198 0.03965 0.51424 0.0
O526 O 0.04845 0.01334 0.53335 0.0
O527 O 0.05274 0.04541 0.54487 0.0
H528 H 0.01591 0.10472 0.52113 0.0
H529 H 0.01177 0.12564 0.49898 0.0
H530 H 0.05822 0.11661 0.47513 0.0
H531 H 0.06187 0.09521 0.49664 0.0
H532 H 0.0644 0.95584 0.49565 0.0
H533 H 0.06776 0.93234 0.51554 0.0
H534 H 0.02768 0.94716 0.54693 0.0
H535 H 0.0243 0.97065 0.52733 0.0
La536 La 0.31147 0.80067 0.76623 0.0
La537 La 0.2777 0.76953 0.76376 0.0
C538 C 0.34214 0.82232 0.77783 0.0
C539 C 0.35979 0.81859 0.78081 0.0
C540 C 0.3717 0.82218 0.76777 0.0
C541 C 0.38829 0.81832 0.77027 0.0
C542 C 0.39324 0.81085 0.78587 0.0
C543 C 0.38129 0.80705 0.79883 0.0
C544 C 0.36474 0.81096 0.79637 0.0
C545 C 0.29654 0.78398 0.73276 0.0
C546 C 0.31322 0.75559 0.7667 0.0
C547 C 0.24732 0.74714 0.75311 0.0
C548 C 0.22963 0.75053 0.74998 0.0
C549 C 0.21806 0.74822 0.76354 0.0
C550 C 0.20156 0.75224 0.76084 0.0
C551 C 0.19653 0.75838 0.74451 0.0
C552 C 0.20801 0.76081 0.73104 0.0
C553 C 0.22445 0.7569 0.73372 0.0
C554 C 0.29307 0.78619 0.79704 0.0
C555 C 0.27549 0.81432 0.7627 0.0
O556 O 0.3347 0.81927 0.76049 0.0
O557 O 0.33073 0.81569 0.78882 0.0
O558 O 0.30538 0.802 0.73687 0.0
O559 O 0.29771 0.7761 0.74667 0.0
O560 O 0.32178 0.7745 0.76987 0.0
O561 O 0.29552 0.75018 0.76242 0.0
O562 O 0.25492 0.75105 0.77045 0.0
O563 O 0.25847 0.75339 0.74171 0.0
O564 O 0.28462 0.76806 0.79296 0.0
O565 O 0.29148 0.79408 0.78322 0.0
O566 O 0.26705 0.79544 0.76045 0.0
O567 O 0.29332 0.81995 0.76631 0.0
H568 H 0.36819 0.82798 0.75563 0.0
H569 H 0.3973 0.82124 0.76007 0.0
H570 H 0.38495 0.80154 0.81111 0.0
H571 H 0.35589 0.80805 0.80672 0.0
H572 H 0.22178 0.74333 0.77618 0.0
H573 H 0.1926 0.75018 0.77122 0.0
H574 H 0.20413 0.76551 0.71832 0.0
H575 H 0.23304 0.75887 0.72301 0.0
La576 La 0.53754 0.03724 0.02484 0.0
La577 La 0.53085 0.03881 0.98375 0.0
C578 C 0.53447 0.03545 0.05819 0.0
C579 C 0.52052 0.02377 0.06705 0.0
C580 C 0.52322 0.00722 0.07316 0.0
C581 C 0.51071 0.99657 0.08253 0.0
C582 C 0.4954 1.00243 0.08621 0.0
C583 C 0.49207 0.01817 0.07896 0.0
C584 C 0.50455 0.02879 0.06947 0.0
C585 C 0.54786 0.01225 0.00239 0.0
C586 C 0.49885 0.01824 0.00223 0.0
C587 C 0.52834 0.03485 0.94933 0.0
C588 C 0.53976 0.0474 0.93877 0.0
C589 C 0.53923 0.06665 0.9393 0.0
C590 C 0.55252 0.07954 0.93259 0.0
C591 C 0.56661 0.07341 0.92561 0.0
C592 C 0.56678 0.05409 0.92441 0.0
C593 C 0.5534 0.04116 0.93079 0.0
C594 C 0.53098 0.06979 0.0066 0.0
C595 C 0.56797 0.05971 0.00738 0.0
O596 O 0.54333 0.02569 0.04826 0.0
O597 O 0.53051 0.049 0.05009 0.0
O598 O 0.55666 0.02092 0.01847 0.0
O599 O 0.53379 0.01733 0.99947 0.0
O600 O 0.51006 0.0204 0.01755 0.0
O601 O 0.5039 0.02416 0.98697 0.0
O602 O 0.51776 0.04262 0.95891 0.0
O603 O 0.53665 0.02503 0.95893 0.0
O604 O 0.53681 0.07032 0.9907 0.0
O605 O 0.52487 0.05278 0.00846 0.0
O606 O 0.55961 0.04911 0.99128 0.0
O607 O 0.56056 0.06007 0.02278 0.0
H608 H 0.53529 1.00283 0.07122 0.0
H609 H 0.51352 0.9844 0.08785 0.0
H610 H 0.48046 0.02316 0.08176 0.0
H611 H 0.50194 0.04127 0.06465 0.0
H612 H 0.52894 0.07196 0.94546 0.0
H613 H 0.55204 0.09432 0.93323 0.0
H614 H 0.5773 0.04898 0.91849 0.0
H615 H 0.55415 0.02647 0.93022 0.0
La616 La 0.29269 0.29814 0.26895 0.0
La617 La 0.27939 0.25778 0.25295 0.0
C618 C 0.29898 0.33368 0.27977 0.0
C619 C 0.2879 0.34697 0.28167 0.0
C620 C 0.29162 0.3613 0.29757 0.0
C621 C 0.28163 0.37463 0.29935 0.0
C622 C 0.26789 0.37358 0.28524 0.0
C623 C 0.26355 0.35869 0.26976 0.0
C624 C 0.27346 0.34531 0.26801 0.0
C625 C 0.29527 0.27499 0.29287 0.0
C626 C 0.25132 0.27844 0.26273 0.0
C627 C 0.27456 0.222 0.24477 0.0
C628 C 0.28659 0.20956 0.24216 0.0
C629 C 0.28284 0.19504 0.2264 0.0
C630 C 0.29391 0.18282 0.22379 0.0
C631 C 0.30886 0.18491 0.23699 0.0
C632 C 0.31294 0.19995 0.25243 0.0
C633 C 0.30193 0.21223 0.25497 0.0
C634 C 0.27729 0.28058 0.22832 0.0
C635 C 0.32071 0.27872 0.25737 0.0
O636 O 0.29657 0.32123 0.29092 0.0
O637 O 0.30001 0.32589 0.26279 0.0
O638 O 0.30757 0.29018 0.29178 0.0
O639 O 0.2821 0.27308 0.28069 0.0
O640 O 0.264 0.29432 0.26296 0.0
O641 O 0.25478 0.26163 0.26158 0.0
O642 O 0.274 0.23301 0.2324 0.0
O643 O 0.2752 0.23113 0.26167 0.0
O644 O 0.26566 0.2645 0.22851 0.0
O645 O 0.29001 0.2829 0.24117 0.0
O646 O 0.30845 0.26245 0.257 0.0
O647 O 0.31684 0.29526 0.2593 0.0
H648 H 0.30255 0.36247 0.30833 0.0
H649 H 0.28515 0.38628 0.31123 0.0
H650 H 0.25306 0.35799 0.25867 0.0
H651 H 0.27018 0.33407 0.25579 0.0
H652 H 0.27124 0.19303 0.2162 0.0
H653 H 0.29062 0.17154 0.21162 0.0
H654 H 0.32426 0.20181 0.26294 0.0
H655 H 0.30528 0.22356 0.26711 0.0
La656 La 0.53897 0.54989 0.01884 0.0
La657 La 0.54246 0.51287 0.00276 0.0
C658 C 0.54001 0.58493 0.02425 0.0
C659 C 0.53764 0.59772 0.01105 0.0
C660 C 0.52423 0.60734 0.01239 0.0
C661 C 0.52174 0.61938 0.99986 0.0
C662 C 0.53272 0.62207 0.98583 0.0
C663 C 0.54578 0.61195 0.98417 0.0
C664 C 0.54819 0.59985 0.9966 0.0
C665 C 0.51128 0.52137 0.02139 0.0
C666 C 0.52796 0.53507 0.97417 0.0
C667 C 0.54233 0.47802 0.99689 0.0
C668 C 0.54391 0.46451 0.00953 0.0
C669 C 0.55619 0.45346 0.00732 0.0
C670 C 0.55737 0.44012 0.01889 0.0
C671 C 0.54617 0.43764 0.03267 0.0
C672 C 0.53453 0.44934 0.03547 0.0
C673 C 0.53347 0.46276 0.02408 0.0
C674 C 0.57004 0.54153 1.00028 0.0
C675 C 0.55328 0.52787 0.04743 0.0
O676 O 0.52578 0.57137 0.02524 0.0
O677 O 0.55427 0.5786 0.02391 0.0
O678 O 0.51832 0.5363 0.03431 0.0
O679 O 0.51956 0.52295 0.00746 0.0
O680 O 0.53267 0.54967 0.98846 0.0
O681 O 0.52933 0.51785 0.97671 0.0
O682 O 0.55662 0.49209 0.99754 0.0
O683 O 0.52777 0.4839 0.99629 0.0
O684 O 0.56315 0.52662 0.98735 0.0
O685 O 0.56174 0.53972 0.01413 0.0
O686 O 0.54766 0.51299 0.03339 0.0
O687 O 0.55282 0.54523 0.04453 0.0
H688 H 0.51573 0.60561 0.0232 0.0
H689 H 0.51141 0.6268 0.00131 0.0
H690 H 0.55462 0.61389 0.97368 0.0
H691 H 0.55846 0.59236 0.99499 0.0
H692 H 0.56458 0.45487 0.99639 0.0
H693 H 0.56636 0.43112 0.01652 0.0
H694 H 0.52582 0.44762 0.0461 0.0
H695 H 0.52421 0.47143 0.02642 0.0
La696 La 0.81117 0.30119 0.26699 0.0
La697 La 0.77776 0.27027 0.26552 0.0
C698 C 0.84173 0.32317 0.27803 0.0
C699 C 0.85936 0.31942 0.28087 0.0
C700 C 0.87026 0.32044 0.26668 0.0
C701 C 0.88663 0.31612 0.26906 0.0
C702 C 0.89236 0.31076 0.28566 0.0
C703 C 0.88146 0.30962 0.2998 0.0
C704 C 0.86513 0.314 0.29747 0.0
C705 C 0.79599 0.28359 0.23379 0.0
C706 C 0.81333 0.25634 0.2681 0.0
C707 C 0.74743 0.24767 0.25513 0.0
C708 C 0.72969 0.25086 0.25159 0.0
C709 C 0.71806 0.24904 0.26512 0.0
C710 C 0.70148 0.25282 0.26198 0.0
C711 C 0.69645 0.25823 0.24524 0.0
C712 C 0.70798 0.26013 0.23177 0.0
C713 C 0.72448 0.25646 0.23488 0.0
C714 C 0.7932 0.28785 0.29867 0.0
C715 C 0.77526 0.31473 0.26334 0.0
O716 O 0.83406 0.31987 0.26075 0.0
O717 O 0.83052 0.31671 0.28929 0.0
O718 O 0.8046 0.30169 0.23744 0.0
O719 O 0.79744 0.27622 0.24799 0.0
O720 O 0.82184 0.27524 0.27075 0.0
O721 O 0.79559 0.2509 0.26442 0.0
O722 O 0.75496 0.2521 0.27251 0.0
O723 O 0.75862 0.25359 0.24364 0.0
O724 O 0.78494 0.26965 0.29489 0.0
O725 O 0.79151 0.2953 0.28455 0.0
O726 O 0.76689 0.2959 0.26161 0.0
O727 O 0.79307 0.32042 0.26666 0.0
H728 H 0.86612 0.32454 0.25372 0.0
H729 H 0.89485 0.31701 0.25796 0.0
H730 H 0.88577 0.30582 0.31286 0.0
H731 H 0.85707 0.31313 0.3087 0.0
H732 H 0.72179 0.24474 0.2781 0.0
H733 H 0.69251 0.25119 0.27238 0.0
H734 H 0.70409 0.26428 0.21875 0.0
H735 H 0.73311 0.25803 0.22418 0.0
La736 La 0.03911 0.53834 0.52553 0.0
La737 La 0.02995 0.53663 0.48495 0.0
C738 C 0.03769 0.54 0.55957 0.0
C739 C 0.02461 0.52817 0.56928 0.0
C740 C 0.02854 0.51274 0.57661 0.0
C741 C 0.01634 0.50171 0.58607 0.0
C742 C 1.00003 0.50596 0.58836 0.0
C743 C 0.99568 0.52068 0.58015 0.0
C744 C 0.00788 0.53176 0.57079 0.0
C745 C 0.04431 0.50864 0.50439 0.0
C746 C 0.99911 0.52032 0.50476 0.0
C747 C 0.0314 0.5357 0.45102 0.0
C748 C 0.04434 0.54888 0.44233 0.0
C749 C 0.04283 0.56756 0.44129 0.0
C750 C 0.0561 0.5806 0.43474 0.0
C751 C 0.07114 0.57524 0.42935 0.0
C752 C 0.07265 0.55664 0.43038 0.0
C753 C 0.05935 0.54356 0.43671 0.0
C754 C 0.02507 0.56618 0.50651 0.0
C755 C 0.0696 0.55667 0.50595 0.0
O756 O 0.04778 0.531 0.55065 0.0
O757 O 0.03186 0.55146 0.54991 0.0
O758 O 0.05439 0.51762 0.51971 0.0
O759 O 0.03128 0.51557 0.5017 0.0
O760 O 0.00996 0.52898 0.52027 0.0
O761 O 0.00495 0.51805 0.48855 0.0
O762 O 0.02038 0.54332 0.45985 0.0
O763 O 0.03796 0.52455 0.4605 0.0
O764 O 0.01455 0.55745 0.49142 0.0
O765 O 0.03786 0.55901 0.50855 0.0
O766 O 0.05922 0.54699 0.49043 0.0
O767 O 0.0635 0.55839 0.52206 0.0
H768 H 0.04122 0.50945 0.57541 0.0
H769 H 0.01996 0.49043 0.59233 0.0
H770 H 0.9833 0.52447 0.58199 0.0
H771 H 0.00432 0.54338 0.56511 0.0
H772 H 0.03148 0.5722 0.44565 0.0
H773 H 0.05457 0.59478 0.43375 0.0
H774 H 0.0839 0.55198 0.42573 0.0
H775 H 0.06089 0.52932 0.43736 0.0
La776 La 0.77413 0.78524 0.26428 0.0
La777 La 0.81086 0.77766 0.26609 0.0
C778 C 0.74148 0.77987 0.26819 0.0
C779 C 0.72999 0.7854 0.28202 0.0
C780 C 0.72265 0.80108 0.28112 0.0
C781 C 0.70971 0.80424 0.29241 0.0
C782 C 0.70377 0.7917 0.30466 0.0
C783 C 0.71163 0.7766 0.30615 0.0
C784 C 0.7246 0.77351 0.29504 0.0
C785 C 0.79906 0.81923 0.26621 0.0
C786 C 0.79869 0.79207 0.30291 0.0
C787 C 0.84226 0.77577 0.2619 0.0
C788 C 0.85372 0.77285 0.24726 0.0
C789 C 0.86011 0.75638 0.24518 0.0
C790 C 0.87262 0.7543 0.23307 0.0
C791 C 0.87915 0.76872 0.22279 0.0
C792 C 0.87228 0.78492 0.22445 0.0
C793 C 0.85975 0.78697 0.23653 0.0
C794 C 0.78425 0.74821 0.27119 0.0
C795 C 0.78756 0.77323 0.22668 0.0
O796 O 0.74988 0.79282 0.25917 0.0
O797 O 0.75136 0.76879 0.2729 0.0
O798 O 0.782 0.81689 0.26583 0.0
O799 O 0.80129 0.8025 0.266 0.0
O800 O 0.78237 0.78739 0.29382 0.0
O801 O 0.81291 0.79209 0.29454 0.0
O802 O 0.82925 0.76103 0.2633 0.0
O803 O 0.83754 0.79187 0.26449 0.0
O804 O 0.80031 0.75364 0.28024 0.0
O805 O 0.78352 0.75953 0.25963 0.0
O806 O 0.80297 0.7738 0.23626 0.0
O807 O 0.77377 0.77647 0.23454 0.0
H808 H 0.72636 0.81043 0.27118 0.0
H809 H 0.70367 0.81587 0.29089 0.0
H810 H 0.70718 0.76667 0.31541 0.0
H811 H 0.7298 0.76121 0.29608 0.0
H812 H 0.85577 0.74528 0.25332 0.0
H813 H 0.87736 0.7415 0.23199 0.0
H814 H 0.87713 0.79646 0.21698 0.0
H815 H 0.85522 0.79991 0.23785 0.0
La816 La 0.79626 0.28733 0.75066 0.0
La817 La 0.78611 0.29315 0.78675 0.0
C818 C 0.80352 0.28792 0.71805 0.0
C819 C 0.81259 0.30279 0.70823 0.0
C820 C 0.82669 0.29984 0.6987 0.0
C821 C 0.8347 0.31317 0.6882 0.0
C822 C 0.82872 0.32963 0.68721 0.0
C823 C 0.81532 0.33311 0.69764 0.0
C824 C 0.80729 0.31977 0.70808 0.0
C825 C 0.8209 0.28536 0.7773 0.0
C826 C 0.80032 0.32918 0.77222 0.0
C827 C 0.77987 0.29205 0.81961 0.0
C828 C 0.76798 0.27843 0.82875 0.0
C829 C 0.75476 0.28437 0.83787 0.0
C830 C 0.74434 0.27239 0.84807 0.0
C831 C 0.74697 0.25428 0.84919 0.0
C832 C 0.75944 0.24785 0.83914 0.0
C833 C 0.76991 0.25984 0.829 0.0
C834 C 0.76086 0.29423 0.76011 0.0
C835 C 0.77884 0.25131 0.76452 0.0
O836 O 0.81367 0.28387 0.73113 0.0
O837 O 0.78813 0.28904 0.72306 0.0
O838 O 0.81603 0.2739 0.76146 0.0
O839 O 0.81202 0.29776 0.7781 0.0
O840 O 0.79724 0.31782 0.75586 0.0
O841 O 0.80093 0.32216 0.7876 0.0
O842 O 0.77193 0.30046 0.8083 0.0
O843 O 0.79317 0.28675 0.81289 0.0
O844 O 0.76487 0.30506 0.77629 0.0
O845 O 0.77033 0.28251 0.75937 0.0
O846 O 0.78299 0.26234 0.78101 0.0
O847 O 0.77994 0.25866 0.74931 0.0
H848 H 0.83112 0.28693 0.69892 0.0
H849 H 0.84501 0.31024 0.68022 0.0
H850 H 0.81026 0.34553 0.69681 0.0
H851 H 0.79655 0.32247 0.71548 0.0
H852 H 0.75293 0.29857 0.83767 0.0
H853 H 0.73485 0.27761 0.85583 0.0
H854 H 0.76193 0.23405 0.84013 0.0
H855 H 0.7799 0.2548 0.82195 0.0
La856 La 0.79081 0.79764 0.76779 0.0
La857 La 0.7793 0.7571 0.75167 0.0
C858 C 0.79618 0.83326 0.77744 0.0
C859 C 0.78511 0.84641 0.78089 0.0
C860 C 0.79042 0.86112 0.79653 0.0
C861 C 0.78095 0.87485 0.79937 0.0
C862 C 0.76609 0.87381 0.78664 0.0
C863 C 0.76012 0.8585 0.77157 0.0
C864 C 0.76958 0.84475 0.76872 0.0
C865 C 0.79472 0.77522 0.7922 0.0
C866 C 0.74993 0.77562 0.76226 0.0
C867 C 0.77537 0.7216 0.74167 0.0
C868 C 0.7874 0.70914 0.74013 0.0
C869 C 0.78326 0.69318 0.72567 0.0
C870 C 0.79399 0.68047 0.72463 0.0
C871 C 0.80887 0.68358 0.73815 0.0
C872 C 0.81355 0.70016 0.75199 0.0
C873 C 0.80293 0.71293 0.75294 0.0
C874 C 0.77616 0.78023 0.7275 0.0
C875 C 0.81984 0.77947 0.75683 0.0
O876 O 0.79612 0.82154 0.7892 0.0
O877 O 0.79512 0.82477 0.76021 0.0
O878 O 0.80596 0.79128 0.79129 0.0
O879 O 0.78156 0.77211 0.7796 0.0
O880 O 0.76183 0.79217 0.76284 0.0
O881 O 0.75432 0.75927 0.76054 0.0
O882 O 0.77679 0.73374 0.7302 0.0
O883 O 0.77407 0.72955 0.75849 0.0
O884 O 0.7649 0.7639 0.72759 0.0
O885 O 0.78894 0.7826 0.74022 0.0
O886 O 0.80837 0.76297 0.75733 0.0
O887 O 0.81498 0.79542 0.75757 0.0
H888 H 0.80226 0.86236 0.80614 0.0
H889 H 0.78574 0.88681 0.8109 0.0
H890 H 0.7488 0.85783 0.76148 0.0
H891 H 0.76515 0.8333 0.75668 0.0
H892 H 0.77146 0.69027 0.71551 0.0
H893 H 0.79017 0.66774 0.71386 0.0
H894 H 0.82513 0.7029 0.76242 0.0
H895 H 0.80657 0.72541 0.76397 0.0
La896 La 0.52458 0.52359 0.50336 0.0
La897 La 0.56279 0.54369 0.52429 0.0
C898 C 0.49116 0.51456 0.49611 0.0
C899 C 0.47851 0.52629 0.49432 0.0
C900 C 0.46591 0.52195 0.47826 0.0
C901 C 0.45359 0.53271 0.4764 0.0
C902 C 0.4537 0.54782 0.49064 0.0
C903 C 0.46677 0.55277 0.50632 0.0
C904 C 0.47923 0.54218 0.5081 0.0
C905 C 0.54877 0.5225 0.47902 0.0
C906 C 0.54163 0.56886 0.50573 0.0
C907 C 0.59617 0.55299 0.53203 0.0
C908 C 0.60902 0.54153 0.53372 0.0
C909 C 0.62233 0.54671 0.54923 0.0
C910 C 0.63468 0.53599 0.55116 0.0
C911 C 0.63391 0.52009 0.5375 0.0
C912 C 0.62009 0.51435 0.52244 0.0
C913 C 0.60761 0.52491 0.52063 0.0
C914 C 0.53883 0.54558 0.54866 0.0
C915 C 0.54587 0.49831 0.52193 0.0
O916 O 0.50173 0.51478 0.48336 0.0
O917 O 0.49963 0.51593 0.51276 0.0
O918 O 0.53163 0.51521 0.47524 0.0
O919 O 0.55135 0.52943 0.49648 0.0
O920 O 0.52734 0.55388 0.50176 0.0
O921 O 0.55726 0.56824 0.51392 0.0
O922 O 0.58535 0.55197 0.54456 0.0
O923 O 0.58791 0.55196 0.51534 0.0
O924 O 0.55591 0.55335 0.55192 0.0
O925 O 0.53592 0.53795 0.53133 0.0
O926 O 0.56011 0.51338 0.5256 0.0
O927 O 0.53021 0.49898 0.51375 0.0
H928 H 0.46539 0.50998 0.46735 0.0
H929 H 0.44342 0.52864 0.46431 0.0
H930 H 0.46689 0.56438 0.51747 0.0
H931 H 0.48911 0.54615 0.52041 0.0
H932 H 0.62333 0.55924 0.55967 0.0
H933 H 0.64533 0.54065 0.56281 0.0
H934 H 0.61929 0.50202 0.51182 0.0
H935 H 0.59709 0.52027 0.50885 0.0
La936 La 0.05532 0.53184 0.01002 0.0
La937 La 0.01539 0.52744 0.01332 0.0
C938 C 0.08688 0.52829 0.01205 0.0
C939 C 0.09686 0.51339 0.00876 0.0
C940 C 0.10721 0.51325 0.99405 0.0
C941 C 0.11863 0.50117 0.99216 0.0
C942 C 0.12015 0.489 0.00505 0.0
C943 C 0.10913 0.48848 0.01922 0.0
C944 C 0.09768 0.50052 0.02108 0.0
C945 C 0.03514 0.53367 0.98055 0.0
C946 C 0.02697 0.4903 0.00413 0.0
C947 C 0.98393 0.53097 0.01201 0.0
C948 C 0.9747 0.54632 0.01659 0.0
C949 C 0.96769 0.54871 0.03351 0.0
C950 C 0.95742 0.56181 0.03702 0.0
C951 C 0.9538 0.57278 0.02363 0.0
C952 C 0.96125 0.57068 0.00694 0.0
C953 C 0.97152 0.55767 0.00347 0.0
C954 C 0.03598 0.5265 0.04292 0.0
C955 C 0.04348 0.56929 0.01914 0.0
O956 O 0.07848 0.53215 0.99742 0.0
O957 O 0.07773 0.52843 0.02616 0.0
O958 O 0.05178 0.54323 0.98455 0.0
O959 O 0.03084 0.52256 0.99174 0.0
O960 O 0.0437 0.50092 0.0093 0.0
O961 O 0.01339 0.49786 0.00156 0.0
O962 O 0.99213 0.52582 0.02597 0.0
O963 O 0.99305 0.53168 0.99787 0.0
O964 O 0.01958 0.51611 0.03887 0.0
O965 O 0.03983 0.53711 0.03129 0.0
O966 O 0.02673 0.55844 0.01467 0.0
O967 O 0.05725 0.56177 0.02074 0.0
H968 H 0.10697 0.52305 0.98437 0.0
H969 H 0.12691 0.50209 0.98113 0.0
H970 H 0.10963 0.47902 0.02918 0.0
H971 H 0.08988 0.50013 0.03252 0.0
H972 H 0.96979 0.54012 0.04392 0.0
H973 H 0.95212 0.56313 0.05011 0.0
H974 H 0.95855 0.57853 0.99609 0.0
H975 H 0.97651 0.55612 0.99022 0.0
C976 C 0.00331 0.20775 0.95664 0.0
C977 C 0.00933 0.21326 0.94026 0.0
C978 C 0.00877 0.19339 0.9643 0.0
C979 C 0.0265 0.15139 0.9522 0.0
H980 H 0.036 0.15579 0.00574 0.0
C981 C 0.05128 0.09424 0.98602 0.0
C982 C 0.04214 0.08775 1.00037 0.0
C983 C 0.0488 0.11049 0.97927 0.0
C984 C 0.0333 0.1543 0.99077 0.0
H985 H 0.02607 0.20796 0.91926 0.0
H986 H 0.03552 0.18261 0.93257 0.0
H987 H 0.02905 0.18236 0.99263 0.0
H988 H 0.0238 0.09333 0.01944 0.0
H989 H 0.01992 0.12219 0.00816 0.0
H990 H 0.03065 0.12328 0.95036 0.0
C991 C 0.02644 0.18944 0.9394 0.0
C992 C 0.02929 0.16953 0.98323 0.0
C993 C 0.02107 0.204 0.93178 0.0
C994 C 0.03097 0.09812 0.00834 0.0
C995 C 0.02883 0.11465 0.00192 0.0
C996 C 0.03059 0.13621 0.95974 0.0
C997 C 0.02037 0.18396 0.95579 0.0
C998 C 0.02567 0.16821 0.96383 0.0
C999 C 0.03743 0.12082 0.98703 0.0
C1000 C 0.03391 0.13741 0.97911 0.0
H1001 H 0.9944 0.21465 0.96373 0.0
H1002 H 0.00363 0.18946 0.97678 0.0
H1003 H 0.0235 0.1497 0.93724 0.0
H1004 H 0.05983 0.08633 0.97956 0.0
H1005 H 0.05571 0.11492 0.96788 0.0
C1006 C 0.14014 0.79828 0.1418 0.0
C1007 C 0.12566 0.80436 0.14824 0.0
C1008 C 0.15371 0.79558 0.15414 0.0
C1009 C 0.1755 0.8104 0.20301 0.0
H1010 H 0.19711 0.76852 0.19059 0.0
C1011 C 0.2276 0.79546 0.25586 0.0
C1012 C 0.24266 0.79058 0.24971 0.0
C1013 C 0.21332 0.79628 0.24325 0.0
C1014 C 0.1914 0.78043 0.19419 0.0
H1015 H 0.11409 0.81206 0.17294 0.0
H1016 H 0.13812 0.80773 0.19474 0.0
H1017 H 0.17175 0.77115 0.16982 0.0
H1018 H 0.25424 0.78211 0.22523 0.0
H1019 H 0.22908 0.78343 0.20293 0.0
H1020 H 0.19514 0.81979 0.22727 0.0
C1021 C 0.13889 0.80505 0.17997 0.0
C1022 C 0.17677 0.78193 0.18228 0.0
C1023 C 0.12506 0.80747 0.1675 0.0
C1024 C 0.24289 0.78605 0.23043 0.0
C1025 C 0.22841 0.78672 0.21768 0.0
C1026 C 0.19009 0.80891 0.21488 0.0
C1027 C 0.15345 0.79907 0.17344 0.0
C1028 C 0.16859 0.79695 0.18651 0.0
C1029 C 0.21351 0.79216 0.22395 0.0
C1030 C 0.19826 0.79388 0.21073 0.0
H1031 H 0.14099 0.79545 0.12705 0.0
H1032 H 0.16467 0.79115 0.14849 0.0
H1033 H 0.16987 0.82238 0.20659 0.0
H1034 H 0.22688 0.79892 0.2706 0.0
H1035 H 0.20202 0.80011 0.24871 0.0
C1036 C 0.52292 0.82879 0.43378 0.0
C1037 C 0.52142 0.81639 0.44678 0.0
C1038 C 0.5259 0.84849 0.43975 0.0
C1039 C 0.5408 0.88856 0.47806 0.0
H1040 H 0.49842 0.90342 0.46118 0.0
C1041 C 0.52991 0.95967 0.51165 0.0
C1042 C 0.52254 0.97003 0.49997 0.0
C1043 C 0.52948 0.94061 0.50519 0.0
C1044 C 0.5105 0.8997 0.4658 0.0
H1045 H 0.52353 0.81469 0.47607 0.0
H1046 H 0.5295 0.84944 0.48659 0.0
H1047 H 0.50152 0.87177 0.44868 0.0
H1048 H 0.50861 0.96903 0.47278 0.0
H1049 H 0.50859 0.93601 0.46102 0.0
H1050 H 0.55016 0.91655 0.49475 0.0
C1051 C 0.52802 0.84383 0.47183 0.0
C1052 C 0.51223 0.88159 0.45864 0.0
C1053 C 0.52457 0.82405 0.46585 0.0
C1054 C 0.5141 0.96105 0.48205 0.0
C1055 C 0.51412 0.94215 0.47537 0.0
C1056 C 0.53928 0.90687 0.48493 0.0
C1057 C 0.5279 0.85601 0.45877 0.0
C1058 C 0.52727 0.87585 0.46491 0.0
C1059 C 0.52223 0.93187 0.48673 0.0
C1060 C 0.52396 0.91254 0.47911 0.0
H1061 H 0.52043 0.82316 0.41898 0.0
H1062 H 0.52577 0.85774 0.42951 0.0
H1063 H 0.55249 0.88431 0.48302 0.0
H1064 H 0.53644 0.96649 0.52557 0.0
H1065 H 0.53529 0.93295 0.51453 0.0
C1066 C 0.50816 0.3085 0.64063 0.0
C1067 C 0.52122 0.29835 0.64184 0.0
C1068 C 0.49258 0.30327 0.64871 0.0
C1069 C 0.46271 0.26418 0.66648 0.0
H1070 H 0.44804 0.30664 0.69267 0.0
C1071 C 0.40245 0.25473 0.70946 0.0
C1072 C 0.39283 0.26877 0.71015 0.0
C1073 C 0.41762 0.25651 0.7003 0.0
C1074 C 0.45168 0.29456 0.68516 0.0
H1075 H 0.52782 0.27433 0.65226 0.0
H1076 H 0.50047 0.26527 0.66664 0.0
H1077 H 0.47547 0.31301 0.67896 0.0
H1078 H 0.3914 0.29516 0.70057 0.0
H1079 H 0.41696 0.29763 0.68394 0.0
H1080 H 0.43867 0.24574 0.67267 0.0
C1081 C 0.50239 0.27728 0.6593 0.0
C1082 C 0.46754 0.29824 0.67736 0.0
C1083 C 0.51812 0.28257 0.65119 0.0
C1084 C 0.39823 0.28395 0.7004 0.0
C1085 C 0.41321 0.28558 0.69108 0.0
C1086 C 0.44666 0.26047 0.67427 0.0
C1087 C 0.48953 0.28775 0.65833 0.0
C1088 C 0.47316 0.28319 0.66765 0.0
C1089 C 0.42352 0.27229 0.69142 0.0
C1090 C 0.44078 0.27569 0.68346 0.0
H1091 H 0.50991 0.32058 0.63338 0.0
H1092 H 0.48282 0.31142 0.64734 0.0
H1093 H 0.46664 0.25225 0.65908 0.0
H1094 H 0.39852 0.24252 0.71635 0.0
H1095 H 0.4251 0.24591 0.70082 0.0
C1096 C 0.01789 0.80934 0.62383 0.0
C1097 C 0.00323 0.79453 0.61413 0.0
C1098 C 0.02508 0.82529 0.61588 0.0
C1099 C 0.01176 0.85253 0.58199 0.0
H1100 H 0.06243 0.87345 0.58068 0.0
C1101 C 0.03492 0.9043 0.53397 0.0
C1102 C 0.04727 0.92176 0.54204 0.0
C1103 C 0.0319 0.88901 0.54354 0.0
C1104 C 0.04828 0.86782 0.58116 0.0
H1105 H 0.98487 0.78454 0.58843 0.0
H1106 H 0.99726 0.81247 0.57463 0.0
H1107 H 0.05231 0.8459 0.5963 0.0
H1108 H 0.06679 0.93708 0.56585 0.0
H1109 H 0.06156 0.90991 0.58283 0.0
H1110 H 0.00758 0.87412 0.56681 0.0
C1111 C 0.00312 0.81179 0.58841 0.0
C1112 C 0.04251 0.85214 0.59005 0.0
C1113 C 0.99605 0.7958 0.59627 0.0
C1114 C 0.05724 0.92358 0.55947 0.0
C1115 C 0.05429 0.90813 0.56908 0.0
C1116 C 0.01749 0.86807 0.57316 0.0
C1117 C 0.01757 0.82676 0.59821 0.0
C1118 C 0.02414 0.84413 0.59014 0.0
C1119 C 0.04115 0.89095 0.56138 0.0
C1120 C 0.03573 0.87557 0.57228 0.0
H1121 H 0.02386 0.80861 0.63754 0.0
H1122 H 0.03619 0.83666 0.62371 0.0
H1123 H 0.99757 0.84696 0.5823 0.0
H1124 H 0.02711 0.90276 0.52054 0.0
H1125 H 0.02188 0.87582 0.53723 0.0
C1126 C 0.54615 0.81846 0.84439 0.0
C1127 C 0.54702 0.8031 0.85355 0.0
C1128 C 0.53038 0.81796 0.83338 0.0
C1129 C 0.48267 0.79592 0.83152 0.0
H1130 H 0.47752 0.81757 0.78686 0.0
C1131 C 0.41362 0.79131 0.79484 0.0
C1132 C 0.41127 0.80823 0.7894 0.0
C1133 C 0.43075 0.78976 0.80013 0.0
C1134 C 0.47881 0.81156 0.79939 0.0
H1135 H 0.53317 0.77456 0.85718 0.0
H1136 H 0.50595 0.77314 0.83707 0.0
H1137 H 0.50711 0.81625 0.8 0.0
H1138 H 0.42474 0.83655 0.78468 0.0
H1139 H 0.45472 0.83399 0.79424 0.0
H1140 H 0.4546 0.79158 0.83127 0.0
C1141 C 0.5171 0.78586 0.83891 0.0
C1142 C 0.4957 0.81079 0.80687 0.0
C1143 C 0.53269 0.78653 0.85019 0.0
C1144 C 0.42628 0.82328 0.78865 0.0
C1145 C 0.44341 0.82181 0.7941 0.0
C1146 C 0.46587 0.79669 0.82409 0.0
C1147 C 0.51547 0.80195 0.83122 0.0
C1148 C 0.49773 0.80274 0.82289 0.0
C1149 C 0.44578 0.80518 0.80025 0.0
C1150 C 0.46372 0.80435 0.80786 0.0
H1151 H 0.55701 0.83154 0.8471 0.0
H1152 H 0.52947 0.83062 0.82771 0.0
H1153 H 0.4839 0.79026 0.84427 0.0
H1154 H 0.40221 0.77943 0.79529 0.0
H1155 H 0.43222 0.77662 0.80446 0.0
C1156 C 0.47969 0.18122 0.10864 0.0
C1157 C 0.4893 0.20065 0.11194 0.0
C1158 C 0.48459 0.16806 0.09592 0.0
C1159 C 0.51095 0.16222 0.05814 0.0
H1160 H 0.5178 0.11886 0.07992 0.0
C1161 C 0.53939 0.10471 0.01961 0.0
C1162 C 0.52912 0.08601 0.01952 0.0
C1163 C 0.53684 0.12 0.03189 0.0
C1164 C 0.51595 0.13091 0.0737 0.0
H1165 H 0.51043 0.22202 0.1036 0.0
H1166 H 0.51905 0.19889 0.08139 0.0
H1167 H 0.50635 0.143 0.09765 0.0
H1168 H 0.50837 0.06817 0.03186 0.0
H1169 H 0.50354 0.09474 0.05275 0.0
H1170 H 0.52008 0.14983 0.03398 0.0
C1171 C 0.50773 0.19389 0.08855 0.0
C1172 C 0.5093 0.14458 0.08375 0.0
C1173 C 0.50276 0.20708 0.10119 0.0
C1174 C 0.51656 0.08256 0.03187 0.0
C1175 C 0.51389 0.09773 0.04392 0.0
C1176 C 0.51749 0.14845 0.04802 0.0
C1177 C 0.49916 0.17425 0.08647 0.0
C1178 C 0.50645 0.1601 0.07587 0.0
C1179 C 0.52391 0.11657 0.04395 0.0
C1180 C 0.51969 0.13251 0.0556 0.0
H1181 H 0.46914 0.17602 0.1167 0.0
H1182 H 0.47759 0.15295 0.09416 0.0
H1183 H 0.50889 0.17419 0.05192 0.0
H1184 H 0.54926 0.10748 0.01022 0.0
H1185 H 0.5448 0.13446 0.03184 0.0
C1186 C 0.13788 0.30515 0.35187 0.0
C1187 C 0.13364 0.32281 0.35237 0.0
C1188 C 0.14881 0.29972 0.33941 0.0
C1189 C 0.18353 0.31909 0.31255 0.0
H1190 H 0.17063 0.26693 0.28457 0.0
C1191 C 0.22851 0.29664 0.26275 0.0
C1192 C 0.23358 0.28017 0.266 0.0
C1193 C 0.21358 0.30055 0.26961 0.0
C1194 C 0.17434 0.28152 0.29229 0.0
H1195 H 0.13777 0.34882 0.34054 0.0
H1196 H 0.15717 0.33936 0.31878 0.0
H1197 H 0.15037 0.27708 0.30489 0.0
H1198 H 0.22637 0.25401 0.27746 0.0
H1199 H 0.20041 0.26107 0.28987 0.0
H1200 H 0.2077 0.32344 0.3005 0.0
C1201 C 0.15191 0.32974 0.32803 0.0
C1202 C 0.16283 0.2873 0.30391 0.0
C1203 C 0.14083 0.33513 0.34043 0.0
C1204 C 0.22268 0.26681 0.27478 0.0
C1205 C 0.20782 0.27083 0.28184 0.0
C1206 C 0.19503 0.31332 0.30099 0.0
C1207 C 0.15581 0.31191 0.32732 0.0
C1208 C 0.16743 0.30608 0.31424 0.0
C1209 C 0.20364 0.28816 0.28 0.0
C1210 C 0.19059 0.29446 0.29084 0.0
H1211 H 0.1325 0.29531 0.36088 0.0
H1212 H 0.15189 0.28604 0.33932 0.0
H1213 H 0.18749 0.33353 0.32062 0.0
H1214 H 0.2366 0.307 0.25574 0.0
H1215 H 0.21036 0.31379 0.26767 0.0
C1216 C 0.96691 0.07213 0.19751 0.0
C1217 C 0.95443 0.05572 0.20097 0.0
C1218 C 0.97544 0.07171 0.18104 0.0
C1219 C 0.98167 0.03589 0.13845 0.0
H1220 H 0.00652 0.08243 0.12281 0.0
C1221 C 0.01236 0.03212 0.06697 0.0
C1222 C 0.02614 0.04759 0.06389 0.0
C1223 C 0.00384 0.03325 0.08336 0.0
C1224 C 0.99987 0.06906 0.12679 0.0
H1225 H 0.94173 0.02591 0.18912 0.0
H1226 H 0.95522 0.02534 0.16078 0.0
H1227 H 0.99201 0.08444 0.15051 0.0
H1228 H 0.04156 0.07645 0.07665 0.0
H1229 H 0.02747 0.07824 0.10474 0.0
H1230 H 0.98958 0.02052 0.11479 0.0
C1231 C 0.95908 0.0387 0.17063 0.0
C1232 C 0.99129 0.07026 0.14311 0.0
C1233 C 0.95081 0.0391 0.18705 0.0
C1234 C 0.03099 0.06413 0.07808 0.0
C1235 C 0.02263 0.06522 0.09446 0.0
C1236 C 0.99017 0.0347 0.12213 0.0
C1237 C 0.97201 0.05482 0.16714 0.0
C1238 C 0.98173 0.0537 0.14947 0.0
C1239 C 0.0087 0.04986 0.09769 0.0
C1240 C 0.9995 0.05122 0.11565 0.0
H1241 H 0.97078 0.0851 0.20796 0.0
H1242 H 0.98523 0.08465 0.17968 0.0
H1243 H 0.97523 0.02246 0.14241 0.0
H1244 H 0.00806 0.01906 0.05665 0.0
H1245 H 0.99318 0.02096 0.08455 0.0
C1246 C 0.28127 0.6944 0.48005 0.0
C1247 C 0.27962 0.6747 0.47822 0.0
C1248 C 0.27668 0.702 0.46463 0.0
C1249 C 0.2654 0.69319 0.41412 0.0
H1250 H 0.2298 0.72057 0.42524 0.0
C1251 C 0.2361 0.72277 0.35711 0.0
C1252 C 0.24038 0.74286 0.36224 0.0
C1253 C 0.23469 0.71136 0.37078 0.0
C1254 C 0.23961 0.71283 0.42193 0.0
H1255 H 0.27396 0.64766 0.45905 0.0
H1256 H 0.26658 0.66112 0.43174 0.0
H1257 H 0.24466 0.70865 0.44994 0.0
H1258 H 0.24351 0.76658 0.38496 0.0
H1259 H 0.24132 0.74679 0.40883 0.0
H1260 H 0.26093 0.69788 0.38635 0.0
C1261 C 0.27123 0.67068 0.44504 0.0
C1262 C 0.24825 0.70623 0.43605 0.0
C1263 C 0.27571 0.66305 0.46055 0.0
C1264 C 0.24026 0.7511 0.38072 0.0
C1265 C 0.23902 0.73972 0.39442 0.0
C1266 C 0.25684 0.69985 0.40003 0.0
C1267 C 0.27057 0.68992 0.44728 0.0
C1268 C 0.26144 0.69669 0.43228 0.0
C1269 C 0.23777 0.72001 0.38964 0.0
C1270 C 0.24404 0.70998 0.40385 0.0
H1271 H 0.28392 0.7034 0.49371 0.0
H1272 H 0.27655 0.71697 0.46656 0.0
H1273 H 0.27552 0.68585 0.41095 0.0
H1274 H 0.2359 0.71614 0.34284 0.0
H1275 H 0.23318 0.69609 0.36675 0.0
C1276 C 0.61894 0.01802 0.68585 0.0
C1277 C 0.62401 0.03687 0.69573 0.0
C1278 C 0.61439 0.01477 0.66669 0.0
C1279 C 0.61337 0.03477 0.62461 0.0
H1280 H 0.56212 0.01246 0.61954 0.0
C1281 C 0.56365 0.0425 0.56572 0.0
C1282 C 0.54853 0.02698 0.55934 0.0
C1283 C 0.5757 0.04182 0.58055 0.0
C1284 C 0.57646 0.01817 0.62051 0.0
H1285 H 0.63039 0.06722 0.69378 0.0
H1286 H 0.62208 0.06142 0.66023 0.0
H1287 H 0.58048 0.01377 0.6484 0.0
H1288 H 0.53426 0.99831 0.56224 0.0
H1289 H 0.55575 0.99672 0.58797 0.0
H1290 H 0.60924 0.0395 0.59669 0.0
C1291 C 0.62165 0.04926 0.66721 0.0
C1292 C 0.5869 0.01891 0.63698 0.0
C1293 C 0.62593 0.0525 0.68633 0.0
C1294 C 0.54575 0.01051 0.56735 0.0
C1295 C 0.55801 0.00964 0.58193 0.0
C1296 C 0.6029 0.03371 0.60787 0.0
C1297 C 0.61521 0.03039 0.65748 0.0
C1298 C 0.60532 0.02725 0.6391 0.0
C1299 C 0.57285 0.02545 0.58889 0.0
C1300 C 0.58435 0.02549 0.6058 0.0
H1301 H 0.61772 0.00588 0.69297 0.0
H1302 H 0.6092 1.00013 0.65919 0.0
H1303 H 0.62759 0.04168 0.6264 0.0
H1304 H 0.56592 0.05534 0.55954 0.0
H1305 H 0.58686 0.05432 0.58586 0.0
C1306 C 0.28201 0.3257 0.96609 0.0
C1307 C 0.28592 0.34527 0.97399 0.0
C1308 C 0.28117 0.32008 0.94691 0.0
C1309 C 0.30387 0.33661 0.9102 0.0
H1310 H 0.26731 0.29708 0.87646 0.0
C1311 C 0.30952 0.31611 0.83214 0.0
C1312 C 0.3009 0.29727 0.82318 0.0
C1313 C 0.30789 0.32205 0.85077 0.0
C1314 C 0.27784 0.30788 0.88576 0.0
H1315 H 0.29114 0.37424 0.96816 0.0
H1316 H 0.29022 0.3644 0.93462 0.0
H1317 H 0.26187 0.30743 0.90802 0.0
H1318 H 0.28484 0.26949 0.82645 0.0
H1319 H 0.28299 0.27933 0.85925 0.0
H1320 H 0.32026 0.33655 0.88848 0.0
C1321 C 0.28752 0.35346 0.94323 0.0
C1322 C 0.27457 0.31394 0.90375 0.0
C1323 C 0.28787 0.35904 0.96234 0.0
C1324 C 0.29161 0.28411 0.83324 0.0
C1325 C 0.29032 0.28987 0.85192 0.0
C1326 C 0.30731 0.3303 0.89234 0.0
C1327 C 0.28472 0.334 0.93549 0.0
C1328 C 0.28755 0.32837 0.91608 0.0
C1329 C 0.29783 0.30912 0.86075 0.0
C1330 C 0.29435 0.3158 0.87988 0.0
H1331 H 0.28056 0.31486 0.97485 0.0
H1332 H 0.279 0.30498 0.9412 0.0
H1333 H 0.31421 0.34756 0.91963 0.0
H1334 H 0.31648 0.32652 0.82443 0.0
H1335 H 0.31374 0.33701 0.85698 0.0
C1336 C 0.96608 0.0407 0.31169 0.0
C1337 C 0.95984 0.05649 0.30777 0.0
C1338 C 0.97355 0.03974 0.32959 0.0
C1339 C 0.98089 0.06306 0.381 0.0
H1340 H 0.01173 0.02915 0.38415 0.0
C1341 C 0.01924 0.05697 0.4526 0.0
C1342 C 0.02117 0.03878 0.45535 0.0
C1343 C 0.0122 0.05995 0.43509 0.0
C1344 C 0.00301 0.03856 0.38373 0.0
H1345 H 0.95681 0.08388 0.32083 0.0
H1346 H 0.97055 0.08268 0.3522 0.0
H1347 H 0.99979 0.0337 0.35405 0.0
H1348 H 0.01701 0.00951 0.44104 0.0
H1349 H 0.00495 0.01465 0.41079 0.0
H1350 H 0.9849 0.06835 0.411 0.0
C1351 C 0.96929 0.07063 0.34115 0.0
C1352 C 0.9959 0.04116 0.36615 0.0
C1353 C 0.96139 0.07144 0.32298 0.0
C1354 C 0.01588 0.02375 0.43973 0.0
C1355 C 0.00897 0.02677 0.42219 0.0
C1356 C 0.98828 0.06066 0.39867 0.0
C1357 C 0.97569 0.05472 0.34488 0.0
C1358 C 0.98432 0.05318 0.3642 0.0
C1359 C 0.00688 0.04493 0.41944 0.0
C1360 C 0.99931 0.04812 0.40045 0.0
H1361 H 0.96496 0.02853 0.30078 0.0
H1362 H 0.97735 0.02678 0.33129 0.0
H1363 H 0.97212 0.0724 0.38063 0.0
H1364 H 0.02313 0.06904 0.46406 0.0
H1365 H 0.01117 0.07423 0.43381 0.0
C1366 C 0.27228 0.70106 0.57229 0.0
C1367 C 0.27352 0.68214 0.57133 0.0
C1368 C 0.27356 0.71262 0.58955 0.0
C1369 C 0.2894 0.71569 0.63911 0.0
H1370 H 0.26079 0.75195 0.64692 0.0
C1371 C 0.28542 0.75288 0.71133 0.0
C1372 C 0.29045 0.77303 0.71396 0.0
C1373 C 0.28142 0.74209 0.69351 0.0
C1374 C 0.26885 0.7419 0.64479 0.0
H1375 H 0.27643 0.65997 0.58692 0.0
H1376 H 0.27769 0.67973 0.61712 0.0
H1377 H 0.25767 0.73206 0.61621 0.0
H1378 H 0.29452 0.79785 0.70038 0.0
H1379 H 0.28747 0.77874 0.66881 0.0
H1380 H 0.30024 0.72519 0.66775 0.0
C1381 C 0.27651 0.68603 0.60477 0.0
C1382 C 0.26717 0.73061 0.62729 0.0
C1383 C 0.27571 0.67469 0.58757 0.0
C1384 C 0.29067 0.7823 0.69856 0.0
C1385 C 0.28658 0.77144 0.68063 0.0
C1386 C 0.29087 0.72673 0.65657 0.0
C1387 C 0.27567 0.70518 0.60596 0.0
C1388 C 0.27741 0.71736 0.62432 0.0
C1389 C 0.28239 0.7513 0.67808 0.0
C1390 C 0.28059 0.73984 0.65952 0.0
H1391 H 0.27063 0.70694 0.55973 0.0
H1392 H 0.27315 0.72741 0.59004 0.0
H1393 H 0.2978 0.70598 0.63717 0.0
H1394 H 0.28521 0.74539 0.72301 0.0
H1395 H 0.27808 0.72654 0.69177 0.0
C1396 C 0.63707 0.03744 0.80829 0.0
C1397 C 0.62607 0.03864 0.79256 0.0
C1398 C 0.63616 0.04781 0.82557 0.0
C1399 C 0.62049 0.08901 0.84658 0.0
H1400 H 0.61743 0.06293 0.88882 0.0
C1401 C 0.57583 0.09272 0.90161 0.0
C1402 C 0.58054 0.08633 0.91796 0.0
C1403 C 0.5884 0.09694 0.88951 0.0
C1404 C 0.6189 0.07079 0.87741 0.0
H1405 H 0.60533 0.05092 0.78221 0.0
H1406 H 0.60311 0.06822 0.81237 0.0
H1407 H 0.62463 0.04744 0.86026 0.0
H1408 H 0.60238 0.08304 0.93652 0.0
H1409 H 0.62447 0.09078 0.91552 0.0
H1410 H 0.61312 0.11166 0.86347 0.0
C1411 C 0.6127 0.05977 0.81148 0.0
C1412 C 0.62293 0.0618 0.86098 0.0
C1413 C 0.61359 0.04944 0.79435 0.0
C1414 C 0.59852 0.0877 0.92378 0.0
C1415 C 0.61112 0.09214 0.9118 0.0
C1416 C 0.61626 0.09798 0.86305 0.0
C1417 C 0.62426 0.05942 0.82717 0.0
C1418 C 0.62315 0.07052 0.84526 0.0
C1419 C 0.60564 0.09476 0.89382 0.0
C1420 C 0.6149 0.08863 0.87842 0.0
H1421 H 0.64726 0.02977 0.80703 0.0
H1422 H 0.64522 0.04736 0.83752 0.0
H1423 H 0.62087 0.09616 0.83465 0.0
H1424 H 0.562 0.09186 0.89701 0.0
H1425 H 0.58384 0.09907 0.87578 0.0
C1426 C 0.28892 0.35973 0.09038 0.0
C1427 C 0.29334 0.34879 0.07502 0.0
C1428 C 0.28634 0.35231 0.10685 0.0
C1429 C 0.29607 0.31306 0.13077 0.0
H1430 H 0.26531 0.32881 0.16487 0.0
C1431 C 0.27796 0.27641 0.194 0.0
C1432 C 0.27938 0.28868 0.21108 0.0
C1433 C 0.27964 0.28382 0.17752 0.0
C1434 C 0.27405 0.32437 0.15553 0.0
H1435 H 0.29729 0.321 0.06446 0.0
H1436 H 0.2919 0.3078 0.09241 0.0
H1437 H 0.26715 0.34099 0.1357 0.0
H1438 H 0.28353 0.31823 0.22438 0.0
H1439 H 0.28589 0.33123 0.1954 0.0
H1440 H 0.30248 0.29597 0.15043 0.0
C1441 C 0.29128 0.32244 0.09236 0.0
C1442 C 0.27519 0.33143 0.13878 0.0
C1443 C 0.2942 0.32996 0.07616 0.0
C1444 C 0.28245 0.3085 0.21139 0.0
C1445 C 0.28368 0.31589 0.1948 0.0
C1446 C 0.29468 0.30577 0.14734 0.0
C1447 C 0.2878 0.33363 0.10822 0.0
C1448 C 0.28627 0.32594 0.1261 0.0
C1449 C 0.28234 0.30363 0.17766 0.0
C1450 C 0.28373 0.3114 0.15999 0.0
H1451 H 0.28822 0.37429 0.08996 0.0
H1452 H 0.28381 0.36153 0.11868 0.0
H1453 H 0.30513 0.30875 0.12179 0.0
H1454 H 0.27569 0.26106 0.19342 0.0
H1455 H 0.27849 0.27397 0.16459 0.0
C1456 C 0.25312 0.94207 0.028 0.0
C1457 C 0.26388 0.94926 0.01498 0.0
C1458 C 0.24023 0.95091 0.03381 0.0
C1459 C 0.21073 0.97505 0.01433 0.0
H1460 H 0.20129 0.99087 0.06439 0.0
C1461 C 0.15911 0.01607 0.02637 0.0
C1462 C 0.14781 0.01147 0.03966 0.0
C1463 C 0.17384 0.00877 0.02527 0.0
C1464 C 0.20366 0.98625 0.05036 0.0
H1465 H 0.27058 0.97185 0.99873 0.0
H1466 H 0.24758 0.98705 0.0085 0.0
H1467 H 0.22725 0.9783 0.05976 0.0
H1468 H 0.14285 0.9961 0.06248 0.0
H1469 H 0.1685 0.98243 0.06007 0.0
H1470 H 0.18712 0.98225 0.00471 0.0
C1471 C 0.2492 0.97462 0.01419 0.0
C1472 C 0.21851 0.97923 0.04775 0.0
C1473 C 0.26225 0.96594 0.00858 0.0
C1474 C 0.15148 0.99966 0.05207 0.0
C1475 C 0.16614 0.99202 0.05077 0.0
C1476 C 0.19587 0.98176 0.01689 0.0
C1477 C 0.23785 0.96686 0.02645 0.0
C1478 C 0.22226 0.97399 0.0297 0.0
C1479 C 0.17732 0.99638 0.0372 0.0
C1480 C 0.19238 0.98783 0.03489 0.0
H1481 H 0.25447 0.92943 0.03347 0.0
H1482 H 0.23156 0.94474 0.04327 0.0
H1483 H 0.21316 0.97054 1.00028 0.0
H1484 H 0.15663 0.0255 0.01695 0.0
H1485 H 0.1825 0.01284 0.01504 0.0
C1486 C 0.71729 0.6588 0.01376 0.0
C1487 C 0.72827 0.65434 1.00063 0.0
C1488 C 0.70105 0.64581 0.01483 0.0
C1489 C 0.67307 0.59497 0.99778 0.0
H1490 H 0.63495 0.6175 0.01124 0.0
C1491 C 0.59841 0.55141 0.98652 0.0
C1492 C 0.58819 0.55452 1.00089 0.0
C1493 C 0.61581 0.56303 0.98723 0.0
C1494 C 0.64547 0.61093 0.00764 0.0
H1495 H 0.73106 0.63257 0.97855 0.0
H1496 H 0.70217 0.61006 0.97967 0.0
H1497 H 0.66448 0.63825 0.01078 0.0
H1498 H 0.58829 0.57234 0.02729 0.0
H1499 H 0.61858 0.593 0.02834 0.0
H1500 H 0.6536 0.56761 0.994 0.0
C1501 C 0.7063 0.62341 0.98959 0.0
C1502 C 0.66255 0.62286 0.00745 0.0
C1503 C 0.72287 0.63632 0.98885 0.0
C1504 C 0.59575 0.56967 0.01594 0.0
C1505 C 0.61311 0.58149 0.01653 0.0
C1506 C 0.65587 0.58303 0.99772 0.0
C1507 C 0.69497 0.62811 0.00242 0.0
C1508 C 0.6767 0.61512 0.00259 0.0
C1509 C 0.6234 0.57826 0.00221 0.0
C1510 C 0.64184 0.59087 0.00267 0.0
H1511 H 0.72126 0.67249 0.02322 0.0
H1512 H 0.69322 0.64983 0.02537 0.0
H1513 H 0.68353 0.58831 0.99425 0.0
H1514 H 0.59301 0.53984 0.97474 0.0
H1515 H 0.62324 0.56026 0.97587 0.0
C1516 C 0.68549 0.43975 0.28471 0.0
C1517 C 0.68586 0.45333 0.27269 0.0
C1518 C 0.69477 0.42526 0.28253 0.0
C1519 C 0.72836 0.40551 0.25382 0.0
H1520 H 0.71871 0.36652 0.28465 0.0
C1521 C 0.77213 0.34842 0.2582 0.0
C1522 C 0.76456 0.33005 0.26259 0.0
C1523 C 0.76258 0.36283 0.25809 0.0
C1524 C 0.7217 0.37702 0.27565 0.0
H1525 H 0.69721 0.46105 0.24822 0.0
H1526 H 0.71316 0.43585 0.24415 0.0
H1527 H 0.70263 0.3907 0.28632 0.0
H1528 H 0.74021 0.31334 0.27033 0.0
H1529 H 0.72395 0.33804 0.27054 0.0
H1530 H 0.74731 0.39101 0.24293 0.0
C1531 C 0.70563 0.4365 0.25574 0.0
C1532 C 0.71238 0.39159 0.2768 0.0
C1533 C 0.69626 0.45126 0.25802 0.0
C1534 C 0.74683 0.32699 0.26681 0.0
C1535 C 0.73741 0.34153 0.26707 0.0
C1536 C 0.73773 0.39081 0.25268 0.0
C1537 C 0.70523 0.42288 0.26798 0.0
C1538 C 0.71537 0.40658 0.26607 0.0
C1539 C 0.74496 0.36001 0.26278 0.0
C1540 C 0.73474 0.37606 0.26362 0.0
H1541 H 0.67789 0.44025 0.29628 0.0
H1542 H 0.6937 0.41609 0.29283 0.0
H1543 H 0.73158 0.41616 0.24503 0.0
H1544 H 0.78562 0.35175 0.25476 0.0
H1545 H 0.76935 0.37649 0.2547 0.0
C1546 C 0.86061 0.44329 0.54036 0.0
C1547 C 0.8452 0.44081 0.52792 0.0
C1548 C 0.87554 0.45833 0.54016 0.0
C1549 C 0.89625 0.49885 0.51807 0.0
H1550 H 0.93011 0.46842 0.51024 0.0
C1551 C 0.9674 0.51268 0.49024 0.0
C1552 C 0.98002 0.51446 0.50583 0.0
C1553 C 0.94921 0.50801 0.49185 0.0
C1554 C 0.92064 0.47695 0.51215 0.0
H1555 H 0.8322 0.45287 0.50704 0.0
H1556 H 0.85876 0.47849 0.50586 0.0
H1557 H 0.90126 0.45373 0.5188 0.0
H1558 H 0.98382 0.51337 0.53529 0.0
H1559 H 0.95212 0.50485 0.53792 0.0
H1560 H 0.91634 0.52225 0.51166 0.0
C1561 C 0.8592 0.46939 0.51619 0.0
C1562 C 0.90434 0.46873 0.51737 0.0
C1563 C 0.84407 0.4547 0.51683 0.0
C1564 C 0.97435 0.51205 0.52307 0.0
C1565 C 0.95631 0.50743 0.52465 0.0
C1566 C 0.91284 0.50721 0.51292 0.0
C1567 C 0.87533 0.47035 0.52689 0.0
C1568 C 0.89227 0.47974 0.521 0.0
C1569 C 0.94371 0.50517 0.50904 0.0
C1570 C 0.92514 0.49629 0.51042 0.0
H1571 H 0.86158 0.43273 0.54906 0.0
H1572 H 0.88787 0.45917 0.5488 0.0
H1573 H 0.88687 0.50739 0.52037 0.0
H1574 H 0.97157 0.5149 0.47689 0.0
H1575 H 0.93949 0.50595 0.47965 0.0
C1576 C 0.40446 0.08151 0.26385 0.0
C1577 C 0.39618 0.06178 0.26182 0.0
C1578 C 0.39437 0.09424 0.26063 0.0
C1579 C 0.35321 0.09708 0.23496 0.0
H1580 H 0.36172 0.14532 0.26928 0.0
C1581 C 0.31027 0.1508 0.23112 0.0
C1582 C 0.31922 0.17049 0.23566 0.0
C1583 C 0.31961 0.13702 0.23265 0.0
C1584 C 0.35939 0.13203 0.25944 0.0
H1585 H 0.37088 0.03979 0.25496 0.0
H1586 H 0.3532 0.06216 0.24897 0.0
H1587 H 0.3774 0.12176 0.27644 0.0
H1588 H 0.34513 0.1912 0.24387 0.0
H1589 H 0.3615 0.16706 0.24654 0.0
H1590 H 0.33521 0.10743 0.21792 0.0
C1591 C 0.36751 0.0677 0.25306 0.0
C1592 C 0.36828 0.11853 0.26359 0.0
C1593 C 0.3776 0.05496 0.25653 0.0
C1594 C 0.33785 0.17612 0.24065 0.0
C1595 C 0.34719 0.16234 0.2422 0.0
C1596 C 0.34432 0.11063 0.23077 0.0
C1597 C 0.37584 0.08744 0.25513 0.0
C1598 C 0.36542 0.10105 0.25129 0.0
C1599 C 0.33806 0.1427 0.23876 0.0
C1600 C 0.3475 0.12831 0.2429 0.0
H1601 H 0.41873 0.08717 0.26813 0.0
H1602 H 0.40111 0.10939 0.26218 0.0
H1603 H 0.3509 0.08375 0.22519 0.0
H1604 H 0.29589 0.14601 0.22741 0.0
H1605 H 0.31223 0.12198 0.23001 0.0
C1606 C 0.3461 0.16296 0.49014 0.0
C1607 C 0.33071 0.16068 0.499 0.0
C1608 C 0.35929 0.15392 0.49486 0.0
C1609 C 0.37672 0.1302 0.5315 0.0
H1610 H 0.4011 0.11205 0.49181 0.0
C1611 C 0.42627 0.081 0.53459 0.0
C1612 C 0.44175 0.0869 0.52617 0.0
C1613 C 0.41304 0.09098 0.53419 0.0
C1614 C 0.39451 0.11717 0.50308 0.0
H1615 H 0.31724 0.14707 0.51997 0.0
H1616 H 0.34017 0.13097 0.52801 0.0
H1617 H 0.37679 0.12618 0.48462 0.0
H1618 H 0.45622 0.10923 0.51257 0.0
H1619 H 0.43301 0.12615 0.51138 0.0
H1620 H 0.39441 0.12045 0.54982 0.0
C1621 C 0.34212 0.13995 0.5175 0.0
C1622 C 0.38058 0.12538 0.49899 0.0
C1623 C 0.32886 0.14904 0.51274 0.0
C1624 C 0.44425 0.10386 0.51865 0.0
C1625 C 0.431 0.11365 0.51805 0.0
C1626 C 0.3906 0.12169 0.53557 0.0
C1627 C 0.35751 0.14221 0.50855 0.0
C1628 C 0.37166 0.13236 0.51314 0.0
C1629 C 0.41499 0.10694 0.52521 0.0
C1630 C 0.39983 0.1154 0.52139 0.0
H1631 H 0.34808 0.17188 0.47958 0.0
H1632 H 0.37106 0.15638 0.48789 0.0
H1633 H 0.37027 0.13549 0.54281 0.0
H1634 H 0.42383 0.06802 0.54053 0.0
H1635 H 0.40084 0.08553 0.53985 0.0
C1636 C 0.68308 0.58 0.25581 0.0
C1637 C 0.6877 0.56867 0.26851 0.0
C1638 C 0.6937 0.59869 0.25553 0.0
C1639 C 0.72971 0.64028 0.28505 0.0
H1640 H 0.7305 0.6612 0.23955 0.0
C1641 C 0.77614 0.71692 0.28354 0.0
C1642 C 0.77192 0.72821 0.27065 0.0
C1643 C 0.76588 0.69787 0.28304 0.0
C1644 C 0.73035 0.65589 0.25254 0.0
H1645 H 0.70779 0.56883 0.29097 0.0
H1646 H 0.7265 0.60139 0.29052 0.0
H1647 H 0.7141 0.62794 0.23891 0.0
H1648 H 0.75288 0.72759 0.247 0.0
H1649 H 0.73471 0.69457 0.24624 0.0
H1650 H 0.74576 0.6682 0.29874 0.0
C1651 C 0.71442 0.59574 0.28064 0.0
C1652 C 0.72083 0.63649 0.25218 0.0
C1653 C 0.70379 0.57678 0.28076 0.0
C1654 C 0.75669 0.71959 0.25725 0.0
C1655 C 0.7463 0.70038 0.25675 0.0
C1656 C 0.73918 0.65968 0.28543 0.0
C1657 C 0.70951 0.60727 0.26813 0.0
C1658 C 0.72027 0.62813 0.26842 0.0
C1659 C 0.75068 0.68897 0.26963 0.0
C1660 C 0.73986 0.66804 0.26918 0.0
H1661 H 0.67079 0.57452 0.24618 0.0
H1662 H 0.689 0.60667 0.24576 0.0
H1663 H 0.72952 0.63496 0.29803 0.0
H1664 H 0.78773 0.72276 0.29408 0.0
H1665 H 0.77028 0.69 0.29309 0.0
C1666 C 0.89669 0.47943 0.77483 0.0
C1667 C 0.90682 0.4756 0.76058 0.0
C1668 C 0.88138 0.46582 0.77686 0.0
C1669 C 0.86052 0.41411 0.76448 0.0
H1670 H 0.81835 0.42767 0.7801 0.0
C1671 C 0.80053 0.35716 0.75683 0.0
C1672 C 0.80292 0.34982 0.7732 0.0
C1673 C 0.80671 0.37676 0.75713 0.0
C1674 C 0.8301 0.4239 0.77575 0.0
H1675 H 0.90909 0.45495 0.73723 0.0
H1676 H 0.88147 0.43124 0.74 0.0
H1677 H 0.84417 0.45304 0.77557 0.0
H1678 H 0.81023 0.35715 0.8032 0.0
H1679 H 0.82203 0.39144 0.80344 0.0
H1680 H 0.84639 0.38506 0.76435 0.0
C1681 C 0.88569 0.4446 0.74993 0.0
C1682 C 0.84484 0.43825 0.77323 0.0
C1683 C 0.90134 0.4581 0.74819 0.0
C1684 C 0.80889 0.36248 0.79028 0.0
C1685 C 0.81522 0.3821 0.79053 0.0
C1686 C 0.84586 0.39992 0.76683 0.0
C1687 C 0.87573 0.44825 0.76447 0.0
C1688 C 0.86008 0.43339 0.76732 0.0
C1689 C 0.81549 0.38897 0.77373 0.0
C1690 C 0.83058 0.40473 0.77223 0.0
H1691 H 0.90101 0.49272 0.7849 0.0
H1692 H 0.87431 0.46885 0.78847 0.0
H1693 H 0.87223 0.40996 0.76056 0.0
H1694 H 0.79528 0.34771 0.74357 0.0
H1695 H 0.80691 0.38195 0.74405 0.0
C1696 C 0.05431 0.84843 0.07885 0.0
C1697 C 0.07129 0.85163 0.08909 0.0
C1698 C 0.04974 0.86317 0.07075 0.0
C1699 C 0.06238 0.9163 0.07506 0.0
H1700 H 0.04033 0.90727 0.02376 0.0
C1701 C 0.06335 0.97912 0.03642 0.0
C1702 C 0.04765 0.9793 0.0254 0.0
C1703 C 0.06473 0.96271 0.04348 0.0
C1704 C 0.04629 0.90998 0.03817 0.0
H1705 H 0.09671 0.87257 0.09889 0.0
H1706 H 0.08861 0.8984 0.08551 0.0
H1707 H 0.04509 0.88017 0.03786 0.0
H1708 H 0.02123 0.96189 0.01269 0.0
H1709 H 0.02379 0.93298 0.02484 0.0
H1710 H 0.06378 0.94599 0.07546 0.0
C1711 C 0.07878 0.88461 0.08361 0.0
C1712 C 0.049 0.89445 0.04626 0.0
C1713 C 0.08345 0.86982 0.0913 0.0
C1714 C 0.03353 0.96229 0.02112 0.0
C1715 C 0.03501 0.94571 0.02806 0.0
C1716 C 0.05968 0.93173 0.06702 0.0
C1717 C 0.06192 0.8815 0.07311 0.0
C1718 C 0.05741 0.89749 0.06474 0.0
C1719 C 0.05051 0.94586 0.03967 0.0
C1720 C 0.05195 0.9289 0.04836 0.0
H1721 H 0.04484 0.83437 0.07658 0.0
H1722 H 0.03666 0.86027 0.06274 0.0
H1723 H 0.06851 0.91916 0.08942 0.0
H1724 H 0.07452 0.99188 0.04009 0.0
H1725 H 0.077 0.9633 0.05207 0.0
C1726 C 0.94237 0.27053 0.89087 0.0
C1727 C 0.95591 0.26361 0.88316 0.0
C1728 C 0.92857 0.27424 0.87964 0.0
C1729 C 0.91446 0.28045 0.83096 0.0
H1730 H 0.8682 0.27401 0.8482 0.0
C1731 C 0.84975 0.27675 0.78296 0.0
C1732 C 0.83726 0.28593 0.78994 0.0
C1733 C 0.86478 0.2759 0.79451 0.0
C1734 C 0.88108 0.27615 0.84326 0.0
H1735 H 0.96534 0.25522 0.85724 0.0
H1736 H 0.94074 0.26084 0.83739 0.0
H1737 H 0.89265 0.26767 0.8671 0.0
H1738 H 0.83096 0.30164 0.81465 0.0
H1739 H 0.85713 0.29972 0.83515 0.0
H1740 H 0.90246 0.2882 0.80674 0.0
C1741 C 0.94106 0.2639 0.85232 0.0
C1742 C 0.89525 0.27253 0.85416 0.0
C1743 C 0.95516 0.26049 0.86369 0.0
C1744 C 0.84032 0.29449 0.80884 0.0
C1745 C 0.85528 0.29329 0.82057 0.0
C1746 C 0.90019 0.2838 0.81995 0.0
C1747 C 0.92748 0.27085 0.86012 0.0
C1748 C 0.91224 0.27459 0.84824 0.0
C1749 C 0.86769 0.2839 0.81354 0.0
C1750 C 0.88325 0.28163 0.82589 0.0
H1751 H 0.94255 0.2735 0.9058 0.0
H1752 H 0.9189 0.2801 0.88644 0.0
H1753 H 0.92728 0.28265 0.82593 0.0
H1754 H 0.84787 0.27003 0.76846 0.0
H1755 H 0.87385 0.26839 0.78858 0.0
C1756 C 0.55535 0.23467 0.58561 0.0
C1757 C 0.56347 0.24871 0.57568 0.0
C1758 C 0.55153 0.21519 0.57788 0.0
C1759 C 0.56713 0.18372 0.54299 0.0
H1760 H 0.52863 0.14404 0.55465 0.0
C1761 C 0.55361 0.10281 0.51286 0.0
C1762 C 0.54957 0.09036 0.52552 0.0
C1763 C 0.55512 0.12237 0.51827 0.0
C1764 C 0.53951 0.15501 0.5514 0.0
H1765 H 0.57246 0.25364 0.54937 0.0
H1766 H 0.56501 0.21964 0.53549 0.0
H1767 H 0.52951 0.17776 0.56418 0.0
H1768 H 0.54426 0.08789 0.55355 0.0
H1769 H 0.54705 0.12222 0.56319 0.0
H1770 H 0.57704 0.16089 0.53016 0.0
C1771 C 0.5623 0.22359 0.54953 0.0
C1772 C 0.54001 0.1743 0.55683 0.0
C1773 C 0.56644 0.24304 0.55739 0.0
C1774 C 0.54745 0.09749 0.5437 0.0
C1775 C 0.5489 0.11699 0.5491 0.0
C1776 C 0.56653 0.16444 0.53742 0.0
C1777 C 0.55547 0.20943 0.55996 0.0
C1778 C 0.55394 0.18889 0.55286 0.0
C1779 C 0.55244 0.12953 0.53634 0.0
C1780 C 0.55283 0.14994 0.54176 0.0
H1781 H 0.55301 0.23867 0.59978 0.0
H1782 H 0.54642 0.20471 0.58639 0.0
H1783 H 0.57828 0.19457 0.54005 0.0
H1784 H 0.55508 0.09732 0.4987 0.0
H1785 H 0.55777 0.13175 0.50816 0.0
C1786 C 0.57632 0.79675 0.39165 0.0
C1787 C 0.56137 0.7807 0.38585 0.0
C1788 C 0.59173 0.79854 0.38301 0.0
C1789 C 0.60794 0.78227 0.33949 0.0
H1790 H 0.65468 0.79972 0.36933 0.0
C1791 C 0.67164 0.77833 0.30708 0.0
C1792 C 0.68774 0.7924 0.31385 0.0
C1793 C 0.65646 0.77792 0.31587 0.0
C1794 C 0.64178 0.79513 0.36072 0.0
H1795 H 0.55106 0.75395 0.36621 0.0
H1796 H 0.57804 0.75714 0.35096 0.0
H1797 H 0.62783 0.79653 0.38449 0.0
H1798 H 0.70075 0.81715 0.33515 0.0
H1799 H 0.67407 0.81666 0.35061 0.0
H1800 H 0.62172 0.78119 0.31572 0.0
C1801 C 0.57771 0.7684 0.36223 0.0
C1802 C 0.62633 0.7932 0.36945 0.0
C1803 C 0.56224 0.76653 0.37099 0.0
C1804 C 0.6884 0.80622 0.3296 0.0
C1805 C 0.67315 0.80579 0.33852 0.0
C1806 C 0.62335 0.78437 0.33076 0.0
C1807 C 0.59269 0.78441 0.3682 0.0
C1808 C 0.60919 0.78656 0.35895 0.0
C1809 C 0.65691 0.79158 0.33176 0.0
C1810 C 0.64053 0.79059 0.34121 0.0
H1811 H 0.57622 0.80804 0.403 0.0
H1812 H 0.60285 0.81119 0.38782 0.0
H1813 H 0.59501 0.77752 0.33093 0.0
H1814 H 0.67085 0.76748 0.29499 0.0
H1815 H 0.64445 0.76651 0.31037 0.0
C1816 C 0.08193 0.26147 0.41296 0.0
C1817 C 0.0792 0.27753 0.42424 0.0
C1818 C 0.0744 0.24297 0.41607 0.0
C1819 C 0.03899 0.21583 0.43952 0.0
H1820 H 0.06744 0.17917 0.43762 0.0
C1821 C 0.03022 0.15473 0.48103 0.0
C1822 C 0.03366 0.13737 0.47346 0.0
C1823 C 0.03197 0.1697 0.47102 0.0
C1824 C 0.05914 0.18906 0.43779 0.0
H1825 H 0.06708 0.28686 0.44812 0.0
H1826 H 0.05458 0.25462 0.45402 0.0
H1827 H 0.07908 0.21007 0.42852 0.0
H1828 H 0.04019 0.12154 0.44882 0.0
H1829 H 0.04361 0.14799 0.43142 0.0
H1830 H 0.01943 0.19504 0.44969 0.0
C1831 C 0.06207 0.25629 0.44241 0.0
C1832 C 0.06584 0.20679 0.43262 0.0
C1833 C 0.06951 0.27478 0.43924 0.0
C1834 C 0.03781 0.13489 0.45518 0.0
C1835 C 0.03968 0.14996 0.44519 0.0
C1836 C 0.03233 0.1981 0.4448 0.0
C1837 C 0.06416 0.24018 0.43065 0.0
C1838 C 0.05607 0.22057 0.43397 0.0
C1839 C 0.0373 0.16768 0.45326 0.0
C1840 C 0.04258 0.18478 0.44446 0.0
H1841 H 0.08912 0.26306 0.40112 0.0
H1842 H 0.07616 0.23083 0.40671 0.0
H1843 H 0.03097 0.22599 0.44025 0.0
H1844 H 0.02723 0.15723 0.49515 0.0
H1845 H 0.0303 0.1833 0.47769 0.0
C1846 C 0.55443 0.24402 0.17773 0.0
C1847 C 0.54374 0.25627 0.1826 0.0
C1848 C 0.57285 0.25068 0.18183 0.0
C1849 C 0.60419 0.28081 0.21838 0.0
H1850 H 0.63772 0.26397 0.18858 0.0
C1851 C 0.67501 0.27804 0.24769 0.0
C1852 C 0.67874 0.26072 0.24082 0.0
C1853 C 0.65952 0.28196 0.24017 0.0
C1854 C 0.62851 0.26889 0.197 0.0
H1855 H 0.54351 0.28525 0.19436 0.0
H1856 H 0.57611 0.29673 0.20267 0.0
H1857 H 0.60888 0.26511 0.17338 0.0
H1858 H 0.66946 0.2335 0.22182 0.0
H1859 H 0.64208 0.24007 0.20893 0.0
H1860 H 0.62327 0.28324 0.24211 0.0
C1861 C 0.57014 0.2821 0.19544 0.0
C1862 C 0.61219 0.26972 0.18832 0.0
C1863 C 0.55165 0.27551 0.19096 0.0
C1864 C 0.66659 0.24691 0.22722 0.0
C1865 C 0.65118 0.25078 0.21974 0.0
C1866 C 0.62052 0.27994 0.22707 0.0
C1867 C 0.58079 0.2696 0.19115 0.0
C1868 C 0.59962 0.27477 0.19908 0.0
C1869 C 0.64788 0.2686 0.2257 0.0
C1870 C 0.63236 0.2731 0.21648 0.0
H1871 H 0.54854 0.22931 0.17065 0.0
H1872 H 0.58081 0.24072 0.17857 0.0
H1873 H 0.59455 0.2845 0.22693 0.0
H1874 H 0.6845 0.28887 0.25808 0.0
H1875 H 0.65707 0.29572 0.24501 0.0
C1876 C 0.57965 0.88554 0.89614 0.0
C1877 C 0.59244 0.87778 0.90456 0.0
C1878 C 0.57607 0.90189 0.90539 0.0
C1879 C 0.57785 0.92339 0.95374 0.0
H1880 H 0.55974 0.96157 0.93254 0.0
C1881 C 0.56721 0.99057 0.99641 0.0
C1882 C 0.55176 0.99601 0.99113 0.0
C1883 C 0.57095 0.97503 0.98577 0.0
C1884 C 0.56453 0.95077 0.93853 0.0
H1885 H 0.61359 0.88249 0.92751 0.0
H1886 H 0.6079 0.91178 0.94338 0.0
H1887 H 0.57194 0.93946 0.91283 0.0
H1888 H 0.5277 0.98938 0.97123 0.0
H1889 H 0.53449 0.96225 0.95228 0.0
H1890 H 0.57075 0.93506 0.97954 0.0
C1891 C 0.60008 0.9047 0.93006 0.0
C1892 C 0.57162 0.93825 0.92732 0.0
C1893 C 0.60356 0.88818 0.92085 0.0
C1894 C 0.53986 0.98555 0.97534 0.0
C1895 C 0.54366 0.97005 0.96461 0.0
C1896 C 0.57092 0.93603 0.96497 0.0
C1897 C 0.58549 0.91084 0.92301 0.0
C1898 C 0.5786 0.92466 0.9349 0.0
C1899 C 0.55933 0.96486 0.96968 0.0
C1900 C 0.56448 0.94996 0.95748 0.0
H1901 H 0.57107 0.87778 0.88342 0.0
H1902 H 0.56482 0.90632 0.89954 0.0
H1903 H 0.5825 0.91256 0.9598 0.0
H1904 H 0.5765 0.99844 0.00864 0.0
H1905 H 0.58323 0.97136 0.98977 0.0
C1906 C 0.94936 0.74523 0.70047 0.0
C1907 C 0.95129 0.74817 0.68226 0.0
C1908 C 0.93508 0.74914 0.70858 0.0
C1909 C 0.89048 0.75381 0.6987 0.0
H1910 H 0.9015 0.78646 0.74753 0.0
C1911 C 0.83924 0.78461 0.73308 0.0
C1912 C 0.83653 0.77914 0.75027 0.0
C1913 C 0.85404 0.78214 0.7251 0.0
C1914 C 0.89836 0.77729 0.73395 0.0
H1915 H 0.93976 0.75672 0.65788 0.0
H1916 H 0.91452 0.76358 0.67224 0.0
H1917 H 0.92571 0.77854 0.73192 0.0
H1918 H 0.84681 0.76779 0.77328 0.0
H1919 H 0.87351 0.76402 0.75945 0.0
H1920 H 0.86312 0.7526 0.70076 0.0
C1921 C 0.92415 0.75836 0.68014 0.0
C1922 C 0.91206 0.77276 0.7251 0.0
C1923 C 0.93857 0.75462 0.67205 0.0
C1924 C 0.84896 0.77202 0.75997 0.0
C1925 C 0.86405 0.76996 0.75215 0.0
C1926 C 0.87679 0.7584 0.70753 0.0
C1927 C 0.92255 0.7559 0.69852 0.0
C1928 C 0.90813 0.76092 0.70751 0.0
C1929 C 0.8663 0.77452 0.73448 0.0
C1930 C 0.88074 0.7701 0.72518 0.0
H1931 H 0.95904 0.74023 0.70856 0.0
H1932 H 0.93384 0.74698 0.72274 0.0
H1933 H 0.88729 0.74449 0.68519 0.0
H1934 H 0.82949 0.78993 0.72545 0.0
H1935 H 0.85571 0.78574 0.71147 0.0
C1936 C 0.12977 1.00218 0.83608 0.0
C1937 C 0.12411 0.01091 0.82144 0.0
C1938 C 0.12222 1.00297 0.85328 0.0
C1939 C 0.09201 0.02922 0.88073 0.0
H1940 H 0.09434 0.99404 0.91479 0.0
C1941 C 0.05201 0.02951 0.94555 0.0
C1942 C 0.05861 0.025 0.96248 0.0
C1943 C 0.06048 0.02777 0.92928 0.0
C1944 C 0.09358 0.00421 0.90563 0.0
H1945 H 0.10489 0.02661 0.81434 0.0
H1946 H 0.09205 0.02747 0.84272 0.0
H1947 H 0.10739 0.99053 0.88578 0.0
H1948 H 0.07967 0.01428 0.97457 0.0
H1949 H 0.09428 0.0109 0.94629 0.0
H1950 H 0.0781 0.04277 0.90034 0.0
C1951 C 0.10274 0.02054 0.84174 0.0
C1952 C 0.10122 1.00217 0.88867 0.0
C1953 C 0.1102 0.01981 0.82487 0.0
C1954 C 0.0742 0.01842 0.96219 0.0
C1955 C 0.08252 0.01622 0.94566 0.0
C1956 C 0.08426 0.03111 0.89749 0.0
C1957 C 0.10864 0.01255 0.85678 0.0
C1958 C 0.10063 0.01459 0.87555 0.0
C1959 C 0.07591 0.02087 0.92867 0.0
C1960 C 0.08474 0.01869 0.91052 0.0
H1961 H 0.14032 0.9951 0.83449 0.0
H1962 H 0.12744 0.99638 0.86401 0.0
H1963 H 0.09136 0.03975 0.87198 0.0
H1964 H 0.03995 0.03433 0.94478 0.0
H1965 H 0.05445 0.03137 0.91688 0.0
C1966 C 0.82321 0.38691 0.54971 0.0
C1967 C 0.80532 0.38288 0.54162 0.0
C1968 C 0.82778 0.39213 0.56887 0.0
C1969 C 0.80542 0.37277 0.6039 0.0
H1970 H 0.85167 0.39517 0.63412 0.0
C1971 C 0.83091 0.33191 0.65425 0.0
C1972 C 0.83374 0.34123 0.67285 0.0
C1973 C 0.83017 0.34238 0.64 0.0
C1974 C 0.83866 0.38899 0.62586 0.0
H1975 H 0.77868 0.38386 0.54666 0.0
H1976 H 0.78653 0.39225 0.58051 0.0
H1977 H 0.84342 0.40921 0.60728 0.0
H1978 H 0.84003 0.3688 0.6913 0.0
H1979 H 0.83906 0.3873 0.66612 0.0
H1980 H 0.80099 0.35199 0.62173 0.0
C1981 C 0.79703 0.39155 0.57199 0.0
C1982 C 0.83388 0.39706 0.61068 0.0
C1983 C 0.79252 0.38672 0.55267 0.0
C1984 C 0.83774 0.36138 0.677 0.0
C1985 C 0.8372 0.37191 0.66268 0.0
C1986 C 0.81024 0.36467 0.61887 0.0
C1987 C 0.81441 0.39274 0.58025 0.0
C1988 C 0.81744 0.38859 0.59919 0.0
C1989 C 0.8324 0.3623 0.64418 0.0
C1990 C 0.82712 0.3723 0.62954 0.0
H1991 H 0.83342 0.38426 0.54147 0.0
H1992 H 0.8413 0.39305 0.57474 0.0
H1993 H 0.79281 0.36563 0.59517 0.0
H1994 H 0.82765 0.31636 0.65071 0.0
H1995 H 0.82666 0.33474 0.62575 0.0
C1996 C 0.44946 0.00473 0.32975 0.0
C1997 C 0.44362 0.02082 0.32659 0.0
C1998 C 0.45693 0.00395 0.34738 0.0
C1999 C 0.46386 0.02574 0.39654 0.0
H2000 H 0.51077 0.01677 0.39534 0.0
C2001 C 0.51742 0.04572 0.46042 0.0
C2002 C 0.52586 0.03145 0.46336 0.0
C2003 C 0.50626 0.04348 0.44386 0.0
C2004 C 0.49762 0.01909 0.39582 0.0
H2005 H 0.43879 0.04745 0.3393 0.0
H2006 H 0.45185 0.04607 0.37048 0.0
H2007 H 0.49143 0.01328 0.36626 0.0
H2008 H 0.52957 0.00374 0.45233 0.0
H2009 H 0.51016 0.99985 0.42298 0.0
H2010 H 0.47026 0.03191 0.42614 0.0
C2011 C 0.4508 0.0342 0.35927 0.0
C2012 C 0.48656 0.01702 0.37927 0.0
C2013 C 0.4433 0.03499 0.34154 0.0
C2014 C 0.52323 0.01494 0.4499 0.0
C2015 C 0.51222 0.01276 0.43328 0.0
C2016 C 0.47495 0.02785 0.4131 0.0
C2017 C 0.45844 0.01915 0.36204 0.0
C2018 C 0.46961 0.02034 0.37956 0.0
C2019 C 0.50363 0.02699 0.43022 0.0
C2020 C 0.49189 0.02459 0.4128 0.0
H2021 H 0.44951 0.99343 0.31835 0.0
H2022 H 0.46242 0.99202 0.34934 0.0
H2023 H 0.4508 0.02829 0.39699 0.0
H2024 H 0.51927 0.05838 0.47099 0.0
H2025 H 0.49979 0.05463 0.44166 0.0
C2026 C 0.79897 0.71582 0.06463 0.0
C2027 C 0.79405 0.72684 0.05194 0.0
C2028 C 0.8002 0.7222 0.08379 0.0
C2029 C 0.78029 0.75197 0.11546 0.0
H2030 H 0.81469 0.74519 0.15373 0.0
C2031 C 0.78008 0.778 0.19412 0.0
C2032 C 0.78575 0.76712 0.20646 0.0
C2033 C 0.78115 0.77345 0.1751 0.0
C2034 C 0.8048 0.74692 0.14323 0.0
H2035 H 0.78837 0.75404 0.04939 0.0
H2036 H 0.79079 0.76522 0.08271 0.0
H2037 H 0.8184 0.73743 0.12115 0.0
H2038 H 0.79578 0.74237 0.20884 0.0
H2039 H 0.79672 0.73376 0.17571 0.0
H2040 H 0.76639 0.76098 0.1374 0.0
C2041 C 0.79318 0.75144 0.07789 0.0
C2042 C 0.80702 0.74258 0.12456 0.0
C2043 C 0.79194 0.74507 0.05881 0.0
C2044 C 0.79153 0.75108 0.19951 0.0
C2045 C 0.79225 0.7463 0.18057 0.0
C2046 C 0.77796 0.75615 0.13412 0.0
C2047 C 0.79657 0.73972 0.09055 0.0
C2048 C 0.79478 0.74504 0.11047 0.0
C2049 C 0.78762 0.75775 0.16816 0.0
C2050 C 0.79013 0.75359 0.14825 0.0
H2051 H 0.80065 0.7017 0.05977 0.0
H2052 H 0.80287 0.71286 0.09323 0.0
H2053 H 0.77043 0.75369 0.1049 0.0
H2054 H 0.77572 0.79054 0.19928 0.0
H2055 H 0.77756 0.78266 0.16599 0.0
C2056 C 0.11747 0.99179 0.70034 0.0
C2057 C 0.12311 0.00835 0.71442 0.0
C2058 C 0.10973 0.9927 0.68213 0.0
C2059 C 0.08919 0.02583 0.65615 0.0
H2060 H 0.09355 0.99257 0.6116 0.0
C2061 C 0.06709 0.04043 0.58184 0.0
C2062 C 0.06076 0.02503 0.56664 0.0
C2063 C 0.07414 0.03766 0.59944 0.0
C2064 C 0.09194 1.00195 0.62382 0.0
H2065 H 0.12546 0.03895 0.71947 0.0
H2066 H 0.11299 0.04062 0.68858 0.0
H2067 H 0.10651 0.98867 0.64196 0.0
H2068 H 0.05702 0.99433 0.5588 0.0
H2069 H 0.06894 0.98946 0.58917 0.0
H2070 H 0.07466 0.03911 0.63818 0.0
C2071 C 0.11373 0.02667 0.69136 0.0
C2072 C 0.09948 0.99967 0.64148 0.0
C2073 C 0.1212 0.02573 0.70932 0.0
C2074 C 0.06172 0.00669 0.56992 0.0
C2075 C 0.06877 0.0039 0.58752 0.0
C2076 C 0.08172 0.02813 0.63856 0.0
C2077 C 0.10741 0.0102 0.67731 0.0
C2078 C 0.09851 0.01172 0.65812 0.0
C2079 C 0.07522 0.01932 0.60277 0.0
C2080 C 0.08301 0.01639 0.62187 0.0
H2081 H 0.11841 0.97804 0.70353 0.0
H2082 H 0.10511 0.97951 0.672 0.0
H2083 H 0.08741 0.03518 0.6683 0.0
H2084 H 0.06676 0.05482 0.58013 0.0
H2085 H 0.07907 0.05014 0.61039 0.0
C2086 C 0.80818 0.36889 0.45693 0.0
C2087 C 0.80633 0.38766 0.45872 0.0
C2088 C 0.80938 0.35898 0.43973 0.0
C2089 C 0.8208 0.36265 0.39397 0.0
H2090 H 0.7848 0.31365 0.37951 0.0
C2091 C 0.8036 0.31938 0.31968 0.0
C2092 C 0.7989 0.29923 0.31736 0.0
C2093 C 0.80716 0.33048 0.33738 0.0
C2094 C 0.79515 0.3271 0.3835 0.0
H2095 H 0.80523 0.41139 0.44457 0.0
H2096 H 0.80765 0.39384 0.41389 0.0
H2097 H 0.7859 0.33352 0.40951 0.0
H2098 H 0.79497 0.27478 0.33144 0.0
H2099 H 0.80145 0.29428 0.36266 0.0
H2100 H 0.83012 0.35614 0.36792 0.0
C2101 C 0.80791 0.38688 0.42592 0.0
C2102 C 0.79566 0.33851 0.40054 0.0
C2103 C 0.80637 0.39678 0.44325 0.0
C2104 C 0.79852 0.29031 0.33297 0.0
C2105 C 0.80214 0.30144 0.35074 0.0
C2106 C 0.82039 0.35113 0.3769 0.0
C2107 C 0.809 0.36779 0.4241 0.0
C2108 C 0.80846 0.35631 0.40585 0.0
C2109 C 0.80609 0.3216 0.35304 0.0
C2110 C 0.80752 0.33328 0.37154 0.0
H2111 H 0.80818 0.36162 0.46877 0.0
H2112 H 0.81033 0.3443 0.43857 0.0
H2113 H 0.83086 0.3763 0.39801 0.0
H2114 H 0.80386 0.32659 0.3078 0.0
H2115 H 0.8099 0.34595 0.33874 0.0
C2116 C 0.45287 0.00568 0.23272 0.0
C2117 C 0.45715 0.02502 0.24153 0.0
C2118 C 0.44745 1.00067 0.21367 0.0
C2119 C 0.46454 0.02303 0.178 0.0
H2120 H 0.43788 0.97539 0.14547 0.0
C2121 C 0.49458 0.99459 0.11784 0.0
C2122 C 0.48515 0.99513 0.10073 0.0
C2123 C 0.48609 0.99416 0.13362 0.0
C2124 C 0.44528 0.98877 0.15443 0.0
H2125 H 0.45687 0.05386 0.23815 0.0
H2126 H 0.44814 0.04522 0.20437 0.0
H2127 H 0.42811 0.98493 0.17554 0.0
H2128 H 0.45901 0.99282 0.08611 0.0
H2129 H 0.44407 0.99201 0.11401 0.0
H2130 H 0.48226 0.02643 0.15761 0.0
C2131 C 0.44872 0.03395 0.21228 0.0
C2132 C 0.43964 0.99429 0.17144 0.0
C2133 C 0.45378 0.0389 0.23151 0.0
C2134 C 0.46659 0.9927 0.09922 0.0
C2135 C 0.45804 0.99215 0.11509 0.0
C2136 C 0.47026 0.0174 0.16126 0.0
C2137 C 0.44677 0.01502 0.20313 0.0
C2138 C 0.44946 0.01131 0.18349 0.0
C2139 C 0.46805 0.99414 0.13251 0.0
C2140 C 0.46096 1.00002 0.1496 0.0
H2141 H 0.45524 0.99467 0.24023 0.0
H2142 H 0.44605 0.98599 0.20699 0.0
H2143 H 0.47264 0.03595 0.18718 0.0
H2144 H 0.5089 0.99654 0.1195 0.0
H2145 H 0.49397 0.99552 0.14697 0.0
C2146 C 0.78907 0.70269 0.93437 0.0
C2147 C 0.78859 0.71569 0.95032 0.0
C2148 C 0.79083 0.7089 0.91723 0.0
C2149 C 0.78593 0.75055 0.89413 0.0
H2150 H 0.80447 0.72409 0.85398 0.0
C2151 C 0.80075 0.78044 0.82685 0.0
C2152 C 0.79382 0.76774 0.80988 0.0
C2153 C 0.80013 0.7738 0.84375 0.0
C2154 C 0.79915 0.73153 0.86505 0.0
H2155 H 0.79095 0.74558 0.96122 0.0
H2156 H 0.79533 0.75665 0.93205 0.0
H2157 H 0.80502 0.71368 0.88406 0.0
H2158 H 0.78095 0.73814 0.7973 0.0
H2159 H 0.78044 0.72628 0.82699 0.0
H2160 H 0.78079 0.76886 0.87519 0.0
C2161 C 0.79332 0.74146 0.93218 0.0
C2162 C 0.79938 0.72553 0.88236 0.0
C2163 C 0.79109 0.73517 0.94909 0.0
C2164 C 0.78634 0.74821 0.81016 0.0
C2165 C 0.78614 0.74145 0.82712 0.0
C2166 C 0.78608 0.75677 0.87699 0.0
C2167 C 0.79254 0.72835 0.91575 0.0
C2168 C 0.79274 0.73491 0.89723 0.0
C2169 C 0.79296 0.75421 0.84411 0.0
C2170 C 0.79261 0.7473 0.86222 0.0
H2171 H 0.78701 0.68755 0.93489 0.0
H2172 H 0.79003 0.6982 0.90504 0.0
H2173 H 0.78016 0.75793 0.90481 0.0
H2174 H 0.80649 0.79562 0.8271 0.0
H2175 H 0.80553 0.78399 0.85657 0.0
C2176 C 0.83516 0.12678 0.0073 0.0
C2177 C 0.81971 0.11482 0.01183 0.0
C2178 C 0.84917 0.11927 0.00251 0.0
C2179 C 0.8691 0.08078 0.0103 0.0
H2180 H 0.89353 0.09254 0.96808 0.0
C2181 C 0.92071 0.04299 0.98661 0.0
C2182 C 0.93747 0.05513 0.98543 0.0
C2183 C 0.90601 0.05035 0.988 0.0
C2184 C 0.88686 0.0893 0.97995 0.0
H2185 H 0.80634 0.08586 0.01479 0.0
H2186 H 0.83122 0.07271 0.00702 0.0
H2187 H 0.86778 0.10498 0.97406 0.0
H2188 H 0.95202 0.08426 0.98409 0.0
H2189 H 0.92592 0.0972 0.98621 0.0
H2190 H 0.88807 0.06513 0.01622 0.0
C2191 C 0.83245 0.08782 0.00704 0.0
C2192 C 0.8722 0.09637 0.98337 0.0
C2193 C 0.81829 0.09527 0.01146 0.0
C2194 C 0.93917 0.07466 0.98493 0.0
C2195 C 0.92432 0.082 0.98608 0.0
C2196 C 0.88366 0.0737 0.00686 0.0
C2197 C 0.84799 0.09978 0.00253 0.0
C2198 C 0.86322 0.09211 0.99856 0.0
C2199 C 0.90777 0.06994 0.98809 0.0
C2200 C 0.89258 0.07783 0.99164 0.0
H2201 H 0.83627 0.14186 0.00715 0.0
H2202 H 0.86105 0.12876 0.99914 0.0
H2203 H 0.8626 0.07764 0.0223 0.0
H2204 H 0.91914 0.02796 0.98733 0.0
H2205 H 0.89332 0.0408 0.98946 0.0
C2206 C 0.35853 0.41397 0.00925 0.0
C2207 C 0.35075 0.41545 0.02572 0.0
C2208 C 0.37514 0.42634 0.00802 0.0
C2209 C 0.41668 0.45543 0.03789 0.0
H2210 H 0.42848 0.4759 0.99351 0.0
C2211 C 0.48471 0.50945 0.03721 0.0
C2212 C 0.4931 0.50845 0.02112 0.0
C2213 C 0.46729 0.4982 0.03717 0.0
C2214 C 0.42551 0.4701 0.00594 0.0
H2215 H 0.35412 0.43117 0.05378 0.0
H2216 H 0.38332 0.45283 0.05179 0.0
H2217 H 0.39793 0.45729 0.99463 0.0
H2218 H 0.48967 0.49472 0.99226 0.0
H2219 H 0.4592 0.4748 0.99217 0.0
H2220 H 0.44418 0.46787 0.04914 0.0
C2221 C 0.37651 0.44214 0.03973 0.0
C2222 C 0.40793 0.45948 0.00661 0.0
C2223 C 0.3597 0.42992 0.04084 0.0
C2224 C 0.48361 0.49577 0.00492 0.0
C2225 C 0.46607 0.48448 0.00485 0.0
C2226 C 0.43423 0.46594 0.03719 0.0
C2227 C 0.38461 0.4403 0.02339 0.0
C2228 C 0.40323 0.45208 0.02266 0.0
C2229 C 0.45764 0.48552 0.02102 0.0
C2230 C 0.43894 0.47359 0.02127 0.0
H2231 H 0.35196 0.4028 0.99744 0.0
H2232 H 0.38091 0.42434 0.99527 0.0
H2233 H 0.41374 0.44958 0.0503 0.0
H2234 H 0.49157 0.51913 0.04991 0.0
H2235 H 0.46128 0.49976 0.0498 0.0
C2236 C 0.40071 0.62929 0.7817 0.0
C2237 C 0.39861 0.61405 0.76646 0.0
C2238 C 0.39154 0.64388 0.78156 0.0
C2239 C 0.35556 0.66062 0.75219 0.0
H2240 H 0.37003 0.70516 0.79168 0.0
C2241 C 0.31507 0.72043 0.75819 0.0
C2242 C 0.32339 0.73979 0.76682 0.0
C2243 C 0.32399 0.70556 0.758 0.0
C2244 C 0.36569 0.69305 0.7803 0.0
H2245 H 0.3842 0.60326 0.73872 0.0
H2246 H 0.36853 0.6285 0.73816 0.0
H2247 H 0.38525 0.68009 0.79125 0.0
H2248 H 0.3484 0.75775 0.78238 0.0
H2249 H 0.36377 0.73221 0.7823 0.0
H2250 H 0.33624 0.67412 0.74107 0.0
C2251 C 0.3773 0.6292 0.75069 0.0
C2252 C 0.3745 0.67804 0.78013 0.0
C2253 C 0.38649 0.61438 0.75091 0.0
C2254 C 0.34124 0.74332 0.77544 0.0
C2255 C 0.35013 0.72833 0.77548 0.0
C2256 C 0.34676 0.67568 0.75236 0.0
C2257 C 0.37955 0.64462 0.76603 0.0
C2258 C 0.3698 0.66116 0.76608 0.0
C2259 C 0.34184 0.70891 0.76665 0.0
C2260 C 0.35151 0.69245 0.76643 0.0
H2261 H 0.40965 0.63008 0.79418 0.0
H2262 H 0.394 0.65455 0.79407 0.0
H2263 H 0.3509 0.64842 0.74096 0.0
H2264 H 0.30144 0.71665 0.75131 0.0
H2265 H 0.31657 0.6912 0.75118 0.0
C2266 C 0.22646 0.59854 0.49029 0.0
C2267 C 0.23648 0.60347 0.50804 0.0
C2268 C 0.20804 0.59511 0.4884 0.0
C2269 C 0.17286 0.60393 0.51699 0.0
H2270 H 0.14178 0.57426 0.47254 0.0
C2271 C 0.09633 0.58472 0.51315 0.0
C2272 C 0.08815 0.56554 0.50488 0.0
C2273 C 0.11409 0.59299 0.51126 0.0
C2274 C 0.15028 0.58252 0.48512 0.0
H2275 H 0.23518 0.60545 0.53761 0.0
H2276 H 0.20278 0.59716 0.53426 0.0
H2277 H 0.17327 0.57728 0.47466 0.0
H2278 H 0.09146 0.53966 0.48877 0.0
H2279 H 0.12257 0.55331 0.48665 0.0
H2280 H 0.1493 0.6069 0.5283 0.0
C2281 C 0.20917 0.59765 0.52182 0.0
C2282 C 0.16849 0.58455 0.48625 0.0
C2283 C 0.22773 0.60176 0.52375 0.0
C2284 C 0.09765 0.55459 0.495 0.0
C2285 C 0.11538 0.56257 0.49357 0.0
C2286 C 0.15447 0.60106 0.51621 0.0
C2287 C 0.19924 0.59559 0.50423 0.0
C2288 C 0.17998 0.5947 0.50247 0.0
C2289 C 0.12378 0.58191 0.50146 0.0
C2290 C 0.14299 0.58947 0.5006 0.0
H2291 H 0.23302 0.59973 0.47797 0.0
H2292 H 0.20106 0.59361 0.47459 0.0
H2293 H 0.18137 0.61279 0.52929 0.0
H2294 H 0.08893 0.59332 0.52071 0.0
H2295 H 0.12019 0.60792 0.51745 0.0
C2296 C 0.68094 0.98401 0.75496 0.0
C2297 C 0.68869 0.99769 0.74444 0.0
C2298 C 0.69036 0.97183 0.76113 0.0
C2299 C 0.72502 0.94921 0.75055 0.0
H2300 H 0.72819 0.94324 0.80238 0.0
C2301 C 0.76837 0.90552 0.77854 0.0
C2302 C 0.75918 0.89053 0.7867 0.0
C2303 C 0.76086 0.92034 0.77572 0.0
C2304 C 0.7273 0.94479 0.7879 0.0
H2305 H 0.71215 0.00924 0.73187 0.0
H2306 H 0.72858 0.98725 0.74227 0.0
H2307 H 0.71269 0.96595 0.79189 0.0
H2308 H 0.73567 0.87919 0.79917 0.0
H2309 H 0.72235 0.9056 0.7944 0.0
H2310 H 0.73935 0.92792 0.74643 0.0
C2311 C 0.71524 0.98624 0.7458 0.0
C2312 C 0.71851 0.95769 0.78192 0.0
C2313 C 0.70589 0.99872 0.73985 0.0
C2314 C 0.74284 0.89083 0.79293 0.0
C2315 C 0.73535 0.90585 0.79026 0.0
C2316 C 0.73378 0.93636 0.7565 0.0
C2317 C 0.70758 0.97294 0.75668 0.0
C2318 C 0.71735 0.95993 0.7632 0.0
C2319 C 0.74409 0.92029 0.78107 0.0
C2320 C 0.73501 0.93413 0.7752 0.0
H2321 H 0.66778 0.98309 0.75896 0.0
H2322 H 0.68418 0.96152 0.76936 0.0
H2323 H 0.72393 0.95049 0.736 0.0
H2324 H 0.78098 0.90526 0.77358 0.0
H2325 H 0.76781 0.93145 0.76872 0.0
C2326 C 0.75278 0.92397 0.51841 0.0
C2327 C 0.74842 0.90381 0.51628 0.0
C2328 C 0.73937 0.93343 0.51529 0.0
C2329 C 0.69068 0.92342 0.49488 0.0
H2330 H 0.69578 0.97467 0.52199 0.0
C2331 C 0.63154 0.95847 0.50206 0.0
C2332 C 0.63479 0.978 0.5005 0.0
C2333 C 0.64544 0.94941 0.50206 0.0
C2334 C 0.6942 0.9604 0.51418 0.0
H2335 H 0.72645 0.8779 0.50961 0.0
H2336 H 0.70331 0.89413 0.5053 0.0
H2337 H 0.7199 0.95944 0.52631 0.0
H2338 H 0.65531 1.00309 0.49732 0.0
H2339 H 0.67944 0.98734 0.4974 0.0
H2340 H 0.66457 0.92425 0.48343 0.0
C2341 C 0.71701 0.90284 0.50855 0.0
C2342 C 0.70814 0.95162 0.51658 0.0
C2343 C 0.73037 0.89344 0.51127 0.0
C2344 C 0.65222 0.98803 0.49843 0.0
C2345 C 0.66614 0.97905 0.49866 0.0
C2346 C 0.67662 0.93206 0.49279 0.0
C2347 C 0.7212 0.92301 0.51028 0.0
C2348 C 0.70661 0.93288 0.50709 0.0
C2349 C 0.66301 0.95971 0.50077 0.0
C2350 C 0.67816 0.95064 0.50247 0.0
H2351 H 0.76656 0.9324 0.52205 0.0
H2352 H 0.74339 0.94891 0.51653 0.0
H2353 H 0.68898 0.90927 0.48679 0.0
H2354 H 0.61827 0.95024 0.5035 0.0
H2355 H 0.64256 0.93449 0.50372 0.0
C2356 C 0.39621 0.47811 0.74159 0.0
C2357 C 0.39385 0.4952 0.75157 0.0
C2358 C 0.3864 0.45966 0.74371 0.0
C2359 C 0.35296 0.43316 0.77326 0.0
H2360 H 0.35526 0.38867 0.73848 0.0
C2361 C 0.30645 0.35578 0.7732 0.0
C2362 C 0.31165 0.33895 0.76699 0.0
C2363 C 0.31702 0.37437 0.77235 0.0
C2364 C 0.3545 0.40076 0.74858 0.0
H2365 H 0.3785 0.50547 0.77187 0.0
H2366 H 0.36079 0.47356 0.77512 0.0
H2367 H 0.37068 0.42042 0.73435 0.0
H2368 H 0.33276 0.32921 0.75497 0.0
H2369 H 0.35129 0.36156 0.75341 0.0
H2370 H 0.33627 0.41305 0.78713 0.0
C2371 C 0.37061 0.47422 0.76564 0.0
C2372 C 0.3636 0.41952 0.74624 0.0
C2373 C 0.38064 0.49289 0.76355 0.0
C2374 C 0.32821 0.34162 0.76009 0.0
C2375 C 0.3388 0.36037 0.75901 0.0
C2376 C 0.34369 0.41436 0.77546 0.0
C2377 C 0.37336 0.45694 0.75593 0.0
C2378 C 0.36317 0.43643 0.75849 0.0
C2379 C 0.33338 0.37726 0.76499 0.0
C2380 C 0.34414 0.39761 0.76314 0.0
H2381 H 0.40624 0.47893 0.73229 0.0
H2382 H 0.38975 0.44761 0.73593 0.0
H2383 H 0.35211 0.44508 0.78347 0.0
H2384 H 0.29384 0.35459 0.77857 0.0
H2385 H 0.3119 0.38649 0.77696 0.0
C2386 C 0.1966 0.59203 0.27599 0.0
C2387 C 0.18921 0.58341 0.25774 0.0
C2388 C 0.20693 0.61095 0.27958 0.0
C2389 C 0.20832 0.65202 0.25593 0.0
H2390 H 0.24308 0.67984 0.29846 0.0
C2391 C 0.2449 0.73016 0.259 0.0
C2392 C 0.26325 0.73368 0.26439 0.0
C2393 C 0.23332 0.71358 0.26233 0.0
C2394 C 0.23333 0.67221 0.28652 0.0
H2395 H 0.18923 0.58538 0.22862 0.0
H2396 H 0.20879 0.61794 0.23471 0.0
H2397 H 0.2326 0.6452 0.29438 0.0
H2398 H 0.28441 0.72362 0.27716 0.0
H2399 H 0.26458 0.69363 0.28124 0.0
H2400 H 0.21072 0.67867 0.24681 0.0
C2401 C 0.20565 0.61082 0.24638 0.0
C2402 C 0.22725 0.65238 0.28424 0.0
C2403 C 0.19491 0.59207 0.24284 0.0
C2404 C 0.2702 0.72063 0.27262 0.0
C2405 C 0.25876 0.70386 0.27546 0.0
C2406 C 0.21503 0.67173 0.25776 0.0
C2407 C 0.2101 0.62095 0.26479 0.0
C2408 C 0.21544 0.64203 0.26835 0.0
C2409 C 0.24018 0.70032 0.27068 0.0
C2410 C 0.22855 0.68171 0.27237 0.0
H2411 H 0.19222 0.58527 0.28753 0.0
H2412 H 0.21044 0.6182 0.29393 0.0
H2413 H 0.19821 0.64455 0.24424 0.0
H2414 H 0.23952 0.74068 0.25317 0.0
H2415 H 0.21908 0.71127 0.25857 0.0
C2416 C 0.51942 0.70384 0.4312 0.0
C2417 C 0.50983 0.715 0.44101 0.0
C2418 C 0.52435 0.68896 0.43863 0.0
C2419 C 0.53256 0.6711 0.48215 0.0
H2420 H 0.51887 0.62104 0.45049 0.0
C2421 C 0.5414 0.60356 0.51153 0.0
C2422 C 0.54022 0.5866 0.49913 0.0
C2423 C 0.53873 0.61983 0.50485 0.0
C2424 C 0.52343 0.63483 0.45962 0.0
H2425 H 0.49855 0.71971 0.46669 0.0
H2426 H 0.5074 0.69407 0.47964 0.0
H2427 H 0.51367 0.64827 0.43834 0.0
H2428 H 0.53646 0.57343 0.47019 0.0
H2429 H 0.53363 0.60177 0.45839 0.0
H2430 H 0.54311 0.65827 0.50322 0.0
C2431 C 0.51095 0.69668 0.46616 0.0
C2432 C 0.52018 0.65056 0.45252 0.0
C2433 C 0.50574 0.71126 0.45862 0.0
C2434 C 0.53717 0.58635 0.48002 0.0
C2435 C 0.53522 0.60274 0.47329 0.0
C2436 C 0.5364 0.65547 0.48914 0.0
C2437 C 0.52013 0.6852 0.45618 0.0
C2438 C 0.52455 0.66883 0.4637 0.0
C2439 C 0.53541 0.61975 0.48551 0.0
C2440 C 0.53182 0.63689 0.47805 0.0
H2441 H 0.52287 0.7064 0.41769 0.0
H2442 H 0.53152 0.6804 0.43067 0.0
H2443 H 0.53611 0.68507 0.49113 0.0
H2444 H 0.54378 0.60403 0.5264 0.0
H2445 H 0.53888 0.63219 0.51506 0.0
C2446 C 0.62236 0.28823 0.65659 0.0
C2447 C 0.62414 0.30451 0.6481 0.0
C2448 C 0.6367 0.28626 0.66863 0.0
C2449 C 0.68154 0.31508 0.69549 0.0
H2450 H 0.68768 0.26482 0.69995 0.0
C2451 C 0.73643 0.30837 0.74999 0.0
C2452 C 0.74514 0.29379 0.74663 0.0
C2453 C 0.72151 0.30861 0.738 0.0
C2454 C 0.68636 0.27901 0.69873 0.0
H2455 H 0.64219 0.33146 0.64557 0.0
H2456 H 0.66699 0.32828 0.66629 0.0
H2457 H 0.66237 0.26741 0.67926 0.0
H2458 H 0.74476 0.26775 0.72793 0.0
H2459 H 0.71878 0.26835 0.70646 0.0
H2460 H 0.70597 0.32681 0.71384 0.0
C2461 C 0.65463 0.317 0.66415 0.0
C2462 C 0.67155 0.28052 0.68703 0.0
C2463 C 0.64038 0.31886 0.65208 0.0
C2464 C 0.73843 0.27927 0.73084 0.0
C2465 C 0.7234 0.27957 0.71863 0.0
C2466 C 0.69644 0.31359 0.70678 0.0
C2467 C 0.65317 0.3006 0.67259 0.0
C2468 C 0.66883 0.29863 0.68523 0.0
C2469 C 0.71478 0.29441 0.72194 0.0
C2470 C 0.69907 0.29557 0.70887 0.0
H2471 H 0.6101 0.2767 0.65341 0.0
H2472 H 0.63477 0.27346 0.67481 0.0
H2473 H 0.68002 0.32934 0.69504 0.0
H2474 H 0.74115 0.31974 0.76205 0.0
H2475 H 0.71516 0.31999 0.74157 0.0
C2476 C 0.02448 0.32787 0.93729 0.0
C2477 C 0.02154 0.31446 0.94925 0.0
C2478 C 0.02775 0.34744 0.94431 0.0
C2479 C 0.01853 0.3781 0.98488 0.0
H2480 H 0.04263 0.41932 0.96102 0.0
C2481 C 0.02921 0.45925 0.01217 0.0
C2482 C 0.0241 0.4696 0.99901 0.0
C2483 C 0.02903 0.44007 0.0067 0.0
C2484 C 0.0358 0.40786 0.96771 0.0
H2485 H 0.02159 0.31081 0.97797 0.0
H2486 H 0.02852 0.34511 0.99047 0.0
H2487 H 0.0454 0.38683 0.95129 0.0
H2488 H 0.01473 0.46859 0.97008 0.0
H2489 H 0.01489 0.43497 0.9603 0.0
H2490 H 0.00935 0.39939 0.00158 0.0
C2491 C 0.02736 0.34056 0.97557 0.0
C2492 C 0.03736 0.38928 0.96217 0.0
C2493 C 0.0236 0.32095 0.96848 0.0
C2494 C 0.01846 0.46062 0.98041 0.0
C2495 C 0.01872 0.44157 0.97484 0.0
C2496 C 0.01727 0.39673 0.99063 0.0
C2497 C 0.02853 0.35394 0.96348 0.0
C2498 C 0.02855 0.3741 0.97053 0.0
C2499 C 0.02424 0.43129 0.98792 0.0
C2500 C 0.0257 0.41166 0.98193 0.0
H2501 H 0.02283 0.32317 0.92236 0.0
H2502 H 0.02844 0.35723 0.93452 0.0
H2503 H 0.01116 0.36677 0.99134 0.0
H2504 H 0.03373 0.46615 0.02655 0.0
H2505 H 0.03334 0.43236 0.01697 0.0
C2506 C 0.01957 0.78508 0.15372 0.0
C2507 C 0.02046 0.79688 0.14012 0.0
C2508 C 0.00399 0.77993 0.16213 0.0
C2509 C 0.96282 0.79569 0.16985 0.0
H2510 H 0.94548 0.74576 0.18361 0.0
C2511 C 0.89423 0.77459 0.19447 0.0
C2512 C 0.89382 0.76755 0.21129 0.0
C2513 C 0.90901 0.7757 0.18486 0.0
C2514 C 0.95021 0.75978 0.17987 0.0
H2515 H 0.00538 0.8121 0.12452 0.0
H2516 H 0.97851 0.80292 0.13867 0.0
H2517 H 0.9729 0.7528 0.16911 0.0
H2518 H 0.90846 0.75517 0.23057 0.0
H2519 H 0.93412 0.75694 0.21363 0.0
H2520 H 0.94019 0.80266 0.18038 0.0
C2521 C 0.98987 0.79797 0.1433 0.0
C2522 C 0.96598 0.76387 0.17165 0.0
C2523 C 0.00535 0.80316 0.13504 0.0
C2524 C 0.90819 0.76058 0.21762 0.0
C2525 C 0.92296 0.7616 0.20792 0.0
C2526 C 0.94707 0.79155 0.17783 0.0
C2527 C 0.98895 0.78647 0.15713 0.0
C2528 C 0.97246 0.78189 0.1664 0.0
C2529 C 0.92378 0.76973 0.19173 0.0
C2530 C 0.94048 0.77355 0.18288 0.0
H2531 H 0.0309 0.77988 0.15791 0.0
H2532 H 0.00387 0.77113 0.17278 0.0
H2533 H 0.96755 0.80991 0.16657 0.0
H2534 H 0.88325 0.77961 0.18888 0.0
H2535 H 0.90904 0.78165 0.1722 0.0
C2536 C 0.51999 0.30539 0.12097 0.0
C2537 C 0.5025 0.29393 0.11427 0.0
C2538 C 0.52737 0.32141 0.11323 0.0
C2539 C 0.51358 0.35678 0.09013 0.0
H2540 H 0.55906 0.3663 0.07094 0.0
C2541 C 0.52807 0.40727 0.03946 0.0
C2542 C 0.54452 0.42119 0.04233 0.0
C2543 C 0.52546 0.39223 0.04931 0.0
C2544 C 0.5465 0.36395 0.07654 0.0
H2545 H 0.47918 0.28993 0.09405 0.0
H2546 H 0.49195 0.31822 0.08075 0.0
H2547 H 0.54955 0.33854 0.08645 0.0
H2548 H 0.57151 0.43009 0.05696 0.0
H2549 H 0.5668 0.40356 0.07478 0.0
H2550 H 0.5103 0.38187 0.08028 0.0
C2551 C 0.49992 0.31473 0.09197 0.0
C2552 C 0.54105 0.34811 0.08532 0.0
C2553 C 0.49263 0.29856 0.09951 0.0
C2554 C 0.55868 0.41946 0.05468 0.0
C2555 C 0.556 0.40435 0.06477 0.0
C2556 C 0.51903 0.37256 0.08155 0.0
C2557 C 0.51726 0.32638 0.09889 0.0
C2558 C 0.52426 0.34411 0.09158 0.0
C2559 C 0.53917 0.39091 0.06246 0.0
C2560 C 0.5352 0.37591 0.07406 0.0
H2561 H 0.52798 0.30198 0.13222 0.0
H2562 H 0.54076 0.33021 0.11877 0.0
H2563 H 0.5008 0.35425 0.09529 0.0
H2564 H 0.51711 0.40819 0.02972 0.0
H2565 H 0.51252 0.38176 0.04686 0.0
C2566 C 0.04583 0.3164 0.3396 0.0
C2567 C 0.04622 0.30171 0.34984 0.0
C2568 C 0.02999 0.31608 0.32882 0.0
C2569 C 0.98289 0.29897 0.3314 0.0
H2570 H 0.97496 0.3122 0.28267 0.0
C2571 C 0.91264 0.29211 0.29685 0.0
C2572 C 0.91024 0.30776 0.28892 0.0
C2573 C 0.9298 0.29067 0.30207 0.0
C2574 C 0.97707 0.30862 0.29635 0.0
H2575 H 0.03152 0.27414 0.35522 0.0
H2576 H 0.00406 0.27328 0.33596 0.0
H2577 H 0.00481 0.31073 0.29494 0.0
H2578 H 0.92359 0.33381 0.27961 0.0
H2579 H 0.95366 0.33136 0.28889 0.0
H2580 H 0.95542 0.29721 0.33312 0.0
C2581 C 0.0157 0.28527 0.33666 0.0
C2582 C 0.99406 0.30775 0.3033 0.0
C2583 C 0.03141 0.28566 0.34749 0.0
C2584 C 0.92517 0.3215 0.28554 0.0
C2585 C 0.94233 0.32011 0.29085 0.0
C2586 C 0.966 0.2999 0.32452 0.0
C2587 C 0.01459 0.30098 0.32815 0.0
C2588 C 0.99696 0.30254 0.32071 0.0
C2589 C 0.94478 0.30491 0.29952 0.0
C2590 C 0.96286 0.30442 0.30681 0.0
H2591 H 0.0571 0.329 0.34138 0.0
H2592 H 0.0294 0.32833 0.32233 0.0
H2593 H 0.98498 0.29554 0.34516 0.0
H2594 H 0.90127 0.28123 0.29935 0.0
H2595 H 0.93135 0.27859 0.30841 0.0
C2596 C 0.97628 0.6848 0.60398 0.0
C2597 C 0.98877 0.7027 0.60998 0.0
C2598 C 0.9803 0.67085 0.59138 0.0
C2599 C 0.01792 0.65443 0.5801 0.0
H2600 H 0.98581 0.62335 0.53678 0.0
C2601 C 0.03575 0.59623 0.52939 0.0
C2602 C 0.02164 0.58067 0.52029 0.0
C2603 C 0.03223 0.61103 0.54143 0.0
C2604 C 0.99477 0.63166 0.54905 0.0
H2605 H 0.01471 0.72071 0.60696 0.0
H2606 H 0.0218 0.69603 0.58492 0.0
H2607 H 0.9784 0.65092 0.55369 0.0
H2608 H 0.99337 0.56673 0.51775 0.0
H2609 H 0.98723 0.59206 0.53971 0.0
H2610 H 0.03402 0.63482 0.57591 0.0
C2611 C 0.00896 0.69292 0.58995 0.0
C2612 C 0.99061 0.64754 0.55851 0.0
C2613 C 0.0048 0.70702 0.60232 0.0
C2614 C 0.00426 0.57907 0.52432 0.0
C2615 C 1.00081 0.59352 0.5368 0.0
C2616 C 0.02198 0.63834 0.57078 0.0
C2617 C 0.99692 0.67464 0.58488 0.0
C2618 C 1.00212 0.65894 0.57407 0.0
C2619 C 0.01463 0.61002 0.54481 0.0
C2620 C 0.01036 0.62676 0.55522 0.0
H2621 H 0.96388 0.68125 0.60983 0.0
H2622 H 0.9709 0.65674 0.58761 0.0
H2623 H 0.0268 0.663 0.59233 0.0
H2624 H 0.0493 0.59739 0.52646 0.0
H2625 H 0.04313 0.62358 0.54734 0.0
C2626 C 0.63703 0.83206 0.83669 0.0
C2627 C 0.63483 0.82492 0.8533 0.0
C2628 C 0.64896 0.82672 0.82533 0.0
C2629 C 0.68707 0.80524 0.82556 0.0
H2630 H 0.67132 0.79007 0.77242 0.0
C2631 C 0.72463 0.76503 0.77934 0.0
C2632 C 0.73225 0.77613 0.76668 0.0
C2633 C 0.71047 0.76922 0.78771 0.0
C2634 C 0.67576 0.79425 0.78724 0.0
H2635 H 0.64376 0.80713 0.87134 0.0
H2636 H 0.66419 0.7976 0.85146 0.0
H2637 H 0.65234 0.80317 0.79258 0.0
H2638 H 0.73028 0.79875 0.75124 0.0
H2639 H 0.70495 0.80565 0.76549 0.0
H2640 H 0.71028 0.79595 0.82026 0.0
C2641 C 0.65696 0.8075 0.84728 0.0
C2642 C 0.66508 0.80191 0.79873 0.0
C2643 C 0.64515 0.81288 0.85863 0.0
C2644 C 0.7245 0.79009 0.76103 0.0
C2645 C 0.71008 0.79399 0.76911 0.0
C2646 C 0.69757 0.79735 0.81414 0.0
C2647 C 0.65883 0.81417 0.83042 0.0
C2648 C 0.6706 0.80734 0.81801 0.0
C2649 C 0.70362 0.78423 0.78315 0.0
C2650 C 0.69191 0.79168 0.79497 0.0
H2651 H 0.62927 0.8414 0.83227 0.0
H2652 H 0.65035 0.83226 0.8125 0.0
H2653 H 0.69184 0.80967 0.8403 0.0
H2654 H 0.73058 0.75432 0.78398 0.0
H2655 H 0.70558 0.76155 0.79854 0.0
C2656 C 0.4477 0.54143 0.68511 0.0
C2657 C 0.45453 0.55631 0.70073 0.0
C2658 C 0.45578 0.54071 0.6685 0.0
C2659 C 0.49346 0.56905 0.64418 0.0
H2660 H 0.48266 0.52066 0.60983 0.0
C2661 C 0.53419 0.56009 0.58088 0.0
C2662 C 0.52689 0.54675 0.56418 0.0
C2663 C 0.52509 0.56121 0.59667 0.0
C2664 C 0.48585 0.53447 0.61899 0.0
H2665 H 0.47642 0.58174 0.71062 0.0
H2666 H 0.49038 0.5808 0.68215 0.0
H2667 H 0.46838 0.5228 0.63778 0.0
H2668 H 0.50349 0.52367 0.55195 0.0
H2669 H 0.4874 0.52565 0.57929 0.0
H2670 H 0.51113 0.5806 0.62545 0.0
C2671 C 0.47825 0.56973 0.68222 0.0
C2672 C 0.47745 0.53579 0.63542 0.0
C2673 C 0.47005 0.57046 0.69885 0.0
C2674 C 0.5097 0.53443 0.56415 0.0
C2675 C 0.5005 0.53548 0.58017 0.0
C2676 C 0.50193 0.56768 0.62783 0.0
C2677 C 0.47154 0.55464 0.66653 0.0
C2678 C 0.48087 0.55317 0.64859 0.0
C2679 C 0.50796 0.54895 0.59696 0.0
C2680 C 0.4984 0.55036 0.61464 0.0
H2681 H 0.43627 0.52974 0.68596 0.0
H2682 H 0.44953 0.52885 0.65727 0.0
H2683 H 0.49676 0.58292 0.65321 0.0
H2684 H 0.5474 0.56981 0.58197 0.0
H2685 H 0.53192 0.57158 0.60892 0.0
C2686 C 0.78634 0.18725 0.97417 0.0
C2687 C 0.78126 0.16718 0.97243 0.0
C2688 C 0.77992 0.19585 0.96023 0.0
C2689 C 0.75859 0.1869 0.91192 0.0
H2690 H 0.73719 0.2276 0.92969 0.0
C2691 C 0.7318 0.22392 0.85925 0.0
C2692 C 0.73972 0.24379 0.86354 0.0
C2693 C 0.73049 0.21306 0.87339 0.0
C2694 C 0.74303 0.2162 0.92453 0.0
H2695 H 0.76711 0.14025 0.95441 0.0
H2696 H 0.75626 0.15523 0.92989 0.0
H2697 H 0.75154 0.2125 0.95201 0.0
H2698 H 0.75059 0.2683 0.88578 0.0
H2699 H 0.74909 0.24943 0.9103 0.0
H2700 H 0.75091 0.19094 0.88458 0.0
C2701 C 0.765 0.16435 0.94195 0.0
C2702 C 0.75138 0.20771 0.93728 0.0
C2703 C 0.77133 0.15578 0.95586 0.0
C2704 C 0.74436 0.25296 0.8822 0.0
C2705 C 0.74343 0.2421 0.89628 0.0
C2706 C 0.75039 0.19544 0.89921 0.0
C2707 C 0.76857 0.18443 0.94442 0.0
C2708 C 0.75952 0.19326 0.93104 0.0
C2709 C 0.73765 0.22192 0.89185 0.0
C2710 C 0.74283 0.21045 0.90535 0.0
H2711 H 0.79378 0.1963 0.98696 0.0
H2712 H 0.78312 0.2114 0.96222 0.0
H2713 H 0.76479 0.17579 0.90679 0.0
H2714 H 0.72798 0.21665 0.8449 0.0
H2715 H 0.72544 0.19757 0.86967 0.0
C2716 C 0.12432 0.55255 0.18671 0.0
C2717 C 0.12323 0.53665 0.19562 0.0
C2718 C 0.12035 0.54979 0.16756 0.0
C2719 C 0.08724 0.51839 0.13603 0.0
H2720 H 0.10927 0.54183 0.09696 0.0
C2721 C 0.04679 0.50921 0.0659 0.0
C2722 C 0.0487 0.52586 0.05825 0.0
C2723 C 0.05917 0.50884 0.0806 0.0
C2724 C 0.10302 0.53525 0.1078 0.0
H2725 H 0.11869 0.50571 0.19187 0.0
H2726 H 0.11071 0.50077 0.15808 0.0
H2727 H 0.12737 0.5444 0.12693 0.0
H2728 H 0.06471 0.55501 0.05914 0.0
H2729 H 0.08579 0.55483 0.08569 0.0
H2730 H 0.06268 0.51069 0.11803 0.0
C2731 C 0.11501 0.51529 0.166 0.0
C2732 C 0.11336 0.53655 0.1247 0.0
C2733 C 0.11924 0.51807 0.18518 0.0
C2734 C 0.06312 0.54204 0.06506 0.0
C2735 C 0.07526 0.54185 0.08003 0.0
C2736 C 0.0769 0.51742 0.11942 0.0
C2737 C 0.11504 0.5311 0.15728 0.0
C2738 C 0.10543 0.52799 0.13874 0.0
C2739 C 0.07323 0.52531 0.08804 0.0
C2740 C 0.08468 0.52574 0.10514 0.0
H2741 H 0.12796 0.5671 0.19453 0.0
H2742 H 0.12016 0.56208 0.16096 0.0
H2743 H 0.08085 0.5124 0.14711 0.0
H2744 H 0.03587 0.49652 0.06046 0.0
H2745 H 0.05757 0.49579 0.08635 0.0
C2746 C 0.78054 0.82674 0.46553 0.0
C2747 C 0.78599 0.84632 0.4736 0.0
C2748 C 0.77983 0.8211 0.44638 0.0
C2749 C 0.80484 0.83547 0.41055 0.0
H2750 H 0.76622 0.8001 0.37554 0.0
C2751 C 0.81059 0.81513 0.33257 0.0
C2752 C 0.80048 0.79696 0.32316 0.0
C2753 C 0.80906 0.82114 0.3512 0.0
C2754 C 0.77728 0.8097 0.38521 0.0
H2755 H 0.79415 0.87539 0.46813 0.0
H2756 H 0.79347 0.86545 0.43467 0.0
H2757 H 0.76099 0.8109 0.40709 0.0
H2758 H 0.78191 0.77025 0.32564 0.0
H2759 H 0.78012 0.78011 0.35842 0.0
H2760 H 0.82144 0.8337 0.38919 0.0
C2761 C 0.78945 0.85456 0.44311 0.0
C2762 C 0.77416 0.81603 0.40318 0.0
C2763 C 0.78967 0.86021 0.46216 0.0
C2764 C 0.78977 0.78438 0.33276 0.0
C2765 C 0.78857 0.79017 0.35143 0.0
C2766 C 0.80809 0.82886 0.39271 0.0
C2767 C 0.78506 0.83497 0.43521 0.0
C2768 C 0.7879 0.82899 0.41593 0.0
C2769 C 0.79762 0.8089 0.3607 0.0
C2770 C 0.79435 0.81585 0.37981 0.0
H2771 H 0.77772 0.81581 0.47414 0.0
H2772 H 0.77642 0.80591 0.44052 0.0
H2773 H 0.81571 0.84526 0.42033 0.0
H2774 H 0.81873 0.82509 0.32522 0.0
H2775 H 0.81615 0.83571 0.3578 0.0
C2776 C 0.478 0.55448 0.81108 0.0
C2777 C 0.46206 0.5601 0.80768 0.0
C2778 C 0.48511 0.55305 0.82904 0.0
C2779 C 0.48255 0.56527 0.88077 0.0
H2780 H 0.50667 0.52519 0.88302 0.0
C2781 C 0.51659 0.55564 0.95296 0.0
C2782 C 0.52072 0.53826 0.95517 0.0
C2783 C 0.50961 0.55868 0.93545 0.0
C2784 C 0.49987 0.53639 0.88309 0.0
H2785 H 0.44171 0.56941 0.82167 0.0
H2786 H 0.45419 0.56716 0.85314 0.0
H2787 H 0.49403 0.52981 0.85331 0.0
H2788 H 0.52055 0.51048 0.93987 0.0
H2789 H 0.5082 0.51533 0.90988 0.0
H2790 H 0.48766 0.57138 0.91054 0.0
C2791 C 0.46123 0.56376 0.84163 0.0
C2792 C 0.49275 0.53931 0.86561 0.0
C2793 C 0.45401 0.56517 0.82344 0.0
C2794 C 0.51759 0.52407 0.93901 0.0
C2795 C 0.51054 0.52705 0.92149 0.0
C2796 C 0.48956 0.56226 0.89832 0.0
C2797 C 0.47672 0.55712 0.84477 0.0
C2798 C 0.484 0.55391 0.86393 0.0
C2799 C 0.50627 0.54446 0.91914 0.0
C2800 C 0.49851 0.54774 0.90005 0.0
H2801 H 0.4849 0.55056 0.79961 0.0
H2802 H 0.49729 0.54853 0.83046 0.0
H2803 H 0.47614 0.57678 0.88046 0.0
H2804 H 0.5187 0.56705 0.96488 0.0
H2805 H 0.50709 0.57249 0.93491 0.0
C2806 C 0.77457 0.20679 0.07307 0.0
C2807 C 0.77943 0.18947 0.07018 0.0
C2808 C 0.77375 0.21559 0.09102 0.0
C2809 C 0.7909 0.21656 0.13958 0.0
H2810 H 0.7571 0.24645 0.15 0.0
C2811 C 0.78702 0.25198 0.213 0.0
C2812 C 0.79012 0.27203 0.2152 0.0
C2813 C 0.78307 0.2408 0.19535 0.0
C2814 C 0.76655 0.23811 0.14717 0.0
H2815 H 0.78624 0.16707 0.08335 0.0
H2816 H 0.78424 0.1821 0.11469 0.0
H2817 H 0.75472 0.22778 0.11884 0.0
H2818 H 0.79077 0.29614 0.20107 0.0
H2819 H 0.78355 0.27629 0.16981 0.0
H2820 H 0.80254 0.2267 0.16797 0.0
C2821 C 0.78178 0.18933 0.10325 0.0
C2822 C 0.76528 0.22753 0.12941 0.0
C2823 C 0.78298 0.18075 0.08536 0.0
C2824 C 0.78846 0.28069 0.19959 0.0
C2825 C 0.78426 0.2694 0.18184 0.0
C2826 C 0.79197 0.22686 0.15734 0.0
C2827 C 0.7774 0.20698 0.10629 0.0
C2828 C 0.77764 0.21689 0.12539 0.0
C2829 C 0.78195 0.24947 0.17968 0.0
C2830 C 0.77996 0.23787 0.16115 0.0
H2831 H 0.77161 0.21363 0.06149 0.0
H2832 H 0.77061 0.22932 0.09292 0.0
H2833 H 0.80084 0.20884 0.13688 0.0
H2834 H 0.78824 0.24496 0.22486 0.0
H2835 H 0.78129 0.22542 0.19389 0.0
C2836 C 0.13795 0.53754 0.30711 0.0
C2837 C 0.12702 0.53837 0.29116 0.0
C2838 C 0.13651 0.54772 0.32428 0.0
C2839 C 0.11903 0.58774 0.3448 0.0
H2840 H 0.11878 0.56292 0.38787 0.0
C2841 C 0.07782 0.59275 0.40346 0.0
C2842 C 0.08404 0.58757 0.41998 0.0
C2843 C 0.08913 0.59618 0.39003 0.0
C2844 C 0.1194 0.57039 0.37616 0.0
H2845 H 0.10584 0.5497 0.28027 0.0
H2846 H 0.10253 0.56652 0.31036 0.0
H2847 H 0.12536 0.54717 0.35904 0.0
H2848 H 0.10744 0.58584 0.43729 0.0
H2849 H 0.12729 0.59209 0.41387 0.0
H2850 H 0.11155 0.61025 0.36178 0.0
C2851 C 0.11258 0.55865 0.30968 0.0
C2852 C 0.12308 0.56127 0.35959 0.0
C2853 C 0.11418 0.5487 0.29257 0.0
C2854 C 0.10236 0.58946 0.42443 0.0
C2855 C 0.11368 0.59306 0.41107 0.0
C2856 C 0.11513 0.59681 0.36141 0.0
C2857 C 0.12402 0.55865 0.32562 0.0
C2858 C 0.12245 0.5696 0.34364 0.0
C2859 C 0.10665 0.59449 0.39318 0.0
C2860 C 0.11492 0.58797 0.3771 0.0
H2861 H 0.14833 0.53011 0.30613 0.0
H2862 H 0.14557 0.54758 0.33635 0.0
H2863 H 0.11877 0.59462 0.33273 0.0
H2864 H 0.06374 0.59151 0.39982 0.0
H2865 H 0.08339 0.59739 0.37637 0.0
C2866 C 0.78731 0.85912 0.58938 0.0
C2867 C 0.79348 0.84899 0.57473 0.0
C2868 C 0.78458 0.85165 0.60582 0.0
C2869 C 0.79785 0.81579 0.63191 0.0
H2870 H 0.7609 0.82407 0.66132 0.0
C2871 C 0.78122 0.77724 0.69424 0.0
C2872 C 0.77823 0.78837 0.71034 0.0
C2873 C 0.78297 0.78473 0.67781 0.0
C2874 C 0.7714 0.82177 0.65334 0.0
H2875 H 0.80044 0.82245 0.56546 0.0
H2876 H 0.79518 0.80936 0.59344 0.0
H2877 H 0.76338 0.83666 0.63237 0.0
H2878 H 0.77476 0.81596 0.72205 0.0
H2879 H 0.77749 0.82906 0.6932 0.0
H2880 H 0.80568 0.80066 0.65273 0.0
C2881 C 0.79311 0.82338 0.59277 0.0
C2882 C 0.77286 0.82904 0.63673 0.0
C2883 C 0.79601 0.83088 0.57657 0.0
C2884 C 0.77705 0.80713 0.70978 0.0
C2885 C 0.7785 0.81454 0.69324 0.0
C2886 C 0.79629 0.8084 0.6484 0.0
C2887 C 0.78778 0.8338 0.60788 0.0
C2888 C 0.78611 0.82617 0.62572 0.0
C2889 C 0.78148 0.80344 0.67702 0.0
C2890 C 0.78307 0.81132 0.65938 0.0
H2891 H 0.78524 0.87309 0.58843 0.0
H2892 H 0.78052 0.86018 0.61713 0.0
H2893 H 0.80851 0.81357 0.62415 0.0
H2894 H 0.78226 0.76274 0.69441 0.0
H2895 H 0.78516 0.77573 0.66561 0.0
C2896 C 0.75335 0.4395 0.5344 0.0
C2897 C 0.7632 0.44366 0.51979 0.0
C2898 C 0.74069 0.44931 0.53888 0.0
C2899 C 0.70957 0.46929 0.51569 0.0
H2900 H 0.7045 0.49556 0.56406 0.0
C2901 C 0.65865 0.51227 0.52237 0.0
C2902 C 0.64888 0.51132 0.53738 0.0
C2903 C 0.67322 0.50464 0.52195 0.0
C2904 C 0.70563 0.48802 0.55054 0.0
H2905 H 0.76819 0.4617 0.49887 0.0
H2906 H 0.74562 0.47843 0.50636 0.0
H2907 H 0.7299 0.48173 0.56066 0.0
H2908 H 0.64661 0.50213 0.56395 0.0
H2909 H 0.67194 0.48779 0.5629 0.0
H2910 H 0.68527 0.47483 0.50549 0.0
C2911 C 0.74786 0.46776 0.51443 0.0
C2912 C 0.72017 0.48027 0.54862 0.0
C2913 C 0.76071 0.45821 0.51017 0.0
C2914 C 0.65398 0.50281 0.55218 0.0
C2915 C 0.66849 0.49481 0.55162 0.0
C2916 C 0.695 0.47673 0.51764 0.0
C2917 C 0.73755 0.4631 0.52856 0.0
C2918 C 0.72232 0.47115 0.53109 0.0
C2919 C 0.67813 0.49551 0.53637 0.0
C2920 C 0.69303 0.48649 0.53498 0.0
H2921 H 0.75525 0.42847 0.54215 0.0
H2922 H 0.73278 0.44551 0.54979 0.0
H2923 H 0.71081 0.46191 0.50213 0.0
H2924 H 0.65515 0.51921 0.51104 0.0
H2925 H 0.6807 0.50595 0.51029 0.0
C2926 C 0.22292 0.13723 0.48951 0.0
C2927 C 0.22873 0.15445 0.50251 0.0
C2928 C 0.20625 0.12428 0.48973 0.0
C2929 C 0.16293 0.12281 0.50868 0.0
H2930 H 0.15324 0.06786 0.49195 0.0
C2931 C 0.09618 0.06913 0.51622 0.0
C2932 C 0.08837 0.05441 0.50088 0.0
C2933 C 0.11349 0.08101 0.51673 0.0
C2934 C 0.1557 0.08321 0.49657 0.0
H2935 H 0.22228 0.17107 0.5266 0.0
H2936 H 0.19401 0.14826 0.52773 0.0
H2937 H 0.18324 0.08856 0.49255 0.0
H2938 H 0.09264 0.04059 0.47408 0.0
H2939 H 0.12276 0.06118 0.47502 0.0
H2940 H 0.13546 0.11737 0.51295 0.0
C2941 C 0.20166 0.14496 0.51673 0.0
C2942 C 0.17294 0.09513 0.49685 0.0
C2943 C 0.21802 0.15801 0.51624 0.0
C2944 C 0.09825 0.05182 0.4861 0.0
C2945 C 0.11559 0.06354 0.4867 0.0
C2946 C 0.1458 0.11087 0.5086 0.0
C2947 C 0.1952 0.12813 0.50319 0.0
C2948 C 0.17685 0.11516 0.50291 0.0
C2949 C 0.12347 0.0783 0.50201 0.0
C2950 C 0.14191 0.09092 0.50249 0.0
H2951 H 0.23086 0.1342 0.47869 0.0
H2952 H 0.2018 0.11161 0.47895 0.0
H2953 H 0.1651 0.13815 0.51298 0.0
H2954 H 0.08897 0.0714 0.52788 0.0
H2955 H 0.11917 0.09213 0.52882 0.0
C2956 C 0.18525 0.93915 0.78433 0.0
C2957 C 0.18565 0.95281 0.77238 0.0
C2958 C 0.19455 0.92467 0.78212 0.0
C2959 C 0.22862 0.90536 0.75383 0.0
H2960 H 0.21805 0.86547 0.78357 0.0
C2961 C 0.27242 0.84824 0.75817 0.0
C2962 C 0.26479 0.82969 0.76212 0.0
C2963 C 0.26283 0.86263 0.75811 0.0
C2964 C 0.22132 0.87623 0.77488 0.0
H2965 H 0.1971 0.96066 0.748 0.0
H2966 H 0.21308 0.93546 0.74387 0.0
H2967 H 0.20187 0.88962 0.78519 0.0
H2968 H 0.24022 0.81265 0.76916 0.0
H2969 H 0.22388 0.8373 0.76948 0.0
H2970 H 0.24791 0.89119 0.74326 0.0
C2971 C 0.2055 0.93605 0.75543 0.0
C2972 C 0.21195 0.89078 0.77602 0.0
C2973 C 0.1961 0.9508 0.75773 0.0
C2974 C 0.24692 0.82645 0.76598 0.0
C2975 C 0.23744 0.84096 0.76631 0.0
C2976 C 0.23804 0.8907 0.7527 0.0
C2977 C 0.20507 0.92236 0.76761 0.0
C2978 C 0.21526 0.90609 0.76569 0.0
C2979 C 0.24505 0.85961 0.76243 0.0
C2980 C 0.23475 0.87562 0.76326 0.0
H2981 H 0.17763 0.9396 0.79588 0.0
H2982 H 0.19347 0.91543 0.79237 0.0
H2983 H 0.2321 0.91627 0.74536 0.0
H2984 H 0.28601 0.85173 0.755 0.0
H2985 H 0.26966 0.87642 0.75504 0.0
C2986 C 0.34374 0.96667 0.01907 0.0
C2987 C 0.34337 0.95361 0.03137 0.0
C2988 C 0.35958 0.98042 0.01862 0.0
C2989 C 0.40291 0.97466 0.02316 0.0
H2990 H 0.41945 0.02455 0.00897 0.0
C2991 C 0.47477 0.00592 0.02014 0.0
C2992 C 0.47983 0.01148 0.00354 0.0
C2993 C 0.45711 1.00222 0.02299 0.0
C2994 C 0.41472 0.0105 0.01266 0.0
H2995 H 0.35749 0.94701 0.05531 0.0
H2996 H 0.38497 0.97177 0.05514 0.0
H2997 H 0.38983 0.01539 0.01944 0.0
H2998 H 0.47043 0.01759 0.97685 0.0
H2999 H 0.43888 0.01007 0.9817 0.0
H3000 H 0.42737 0.9695 0.01631 0.0
C3001 C 0.37333 0.97089 0.0454 0.0
C3002 C 0.39806 0.00543 0.01885 0.0
C3003 C 0.35769 0.95674 0.04549 0.0
C3004 C 0.4668 0.01301 0.98965 0.0
C3005 C 0.44891 0.00909 0.9925 0.0
C3006 C 0.41927 0.97961 0.01691 0.0
C3007 C 0.37485 0.98132 0.03074 0.0
C3008 C 0.3924 0.9877 0.02473 0.0
C3009 C 0.4441 0.00361 0.00918 0.0
C3010 C 0.42549 0.99771 0.01217 0.0
H3011 H 0.33271 0.96461 0.00815 0.0
H3012 H 0.36045 0.9884 0.00727 0.0
H3013 H 0.39846 0.96051 0.02671 0.0
H3014 H 0.48446 0.00481 0.03122 0.0
H3015 H 0.45356 0.99813 0.03602 0.0
C3016 C 0.89808 0.56821 0.74623 0.0
C3017 C 0.89759 0.56136 0.76311 0.0
C3018 C 0.88725 0.57997 0.74176 0.0
C3019 C 0.86788 0.61556 0.7644 0.0
H3020 H 0.83642 0.60768 0.71805 0.0
C3021 C 0.81992 0.66166 0.75593 0.0
C3022 C 0.81826 0.66856 0.73923 0.0
C3023 C 0.82874 0.64751 0.75745 0.0
C3024 C 0.84534 0.61016 0.73094 0.0
H3025 H 0.88528 0.561 0.78838 0.0
H3026 H 0.86681 0.58203 0.78081 0.0
H3027 H 0.85346 0.58438 0.72314 0.0
H3028 H 0.82391 0.66586 0.71079 0.0
H3029 H 0.84003 0.64129 0.7136 0.0
H3030 H 0.86026 0.64139 0.77219 0.0
C3031 C 0.87538 0.57814 0.77099 0.0
C3032 C 0.85499 0.59684 0.73385 0.0
C3033 C 0.88591 0.56611 0.77527 0.0
C3034 C 0.82519 0.66077 0.72384 0.0
C3035 C 0.83426 0.64668 0.72543 0.0
C3036 C 0.85844 0.62891 0.76143 0.0
C3037 C 0.87611 0.58532 0.7543 0.0
C3038 C 0.86615 0.59938 0.75071 0.0
C3039 C 0.83632 0.64014 0.74237 0.0
C3040 C 0.84688 0.62623 0.74481 0.0
H3041 H 0.90686 0.56454 0.73656 0.0
H3042 H 0.88802 0.58541 0.72884 0.0
H3043 H 0.87668 0.61798 0.77737 0.0
H3044 H 0.81425 0.66714 0.76782 0.0
H3045 H 0.82966 0.64238 0.77052 0.0
C3046 C 0.84664 0.66328 0.99117 0.0
C3047 C 0.83107 0.66066 0.99977 0.0
C3048 C 0.85985 0.65424 0.99583 0.0
C3049 C 0.87684 0.62943 0.03186 0.0
H3050 H 0.90194 0.61266 0.9922 0.0
C3051 C 0.9258 0.57968 0.03453 0.0
C3052 C 0.94141 0.58539 0.02624 0.0
C3053 C 0.9128 0.58996 0.03415 0.0
C3054 C 0.89517 0.61741 0.00348 0.0
H3055 H 0.81736 0.64644 0.02026 0.0
H3056 H 0.84033 0.63032 0.02818 0.0
H3057 H 0.87781 0.62708 0.98523 0.0
H3058 H 0.95629 0.60771 0.01289 0.0
H3059 H 0.93347 0.62513 0.01174 0.0
H3060 H 0.89413 0.61897 0.04993 0.0
C3061 C 0.84239 0.63958 0.01791 0.0
C3062 C 0.88133 0.62579 0.99951 0.0
C3063 C 0.82911 0.64869 0.01323 0.0
C3064 C 0.94422 0.60245 0.01885 0.0
C3065 C 0.93118 0.61253 0.01828 0.0
C3066 C 0.89063 0.62075 0.03579 0.0
C3067 C 0.85794 0.64216 0.0092 0.0
C3068 C 0.8721 0.63225 0.01364 0.0
C3069 C 0.91506 0.60605 0.02533 0.0
C3070 C 0.90012 0.61492 0.02165 0.0
H3071 H 0.84872 0.67246 0.98083 0.0
H3072 H 0.87173 0.65699 0.98905 0.0
H3073 H 0.87017 0.63431 0.04316 0.0
H3074 H 0.92309 0.56665 0.04037 0.0
H3075 H 0.90052 0.58465 0.03975 0.0
C3076 C 0.20491 0.07636 0.78054 0.0
C3077 C 0.18838 0.06843 0.769 0.0
C3078 C 0.21548 0.09529 0.78019 0.0
C3079 C 0.22028 0.13653 0.75233 0.0
H3080 H 0.24741 0.16755 0.79827 0.0
C3081 C 0.25608 0.21972 0.75756 0.0
C3082 C 0.27179 0.22812 0.77036 0.0
C3083 C 0.24576 0.20049 0.75711 0.0
C3084 C 0.24021 0.15923 0.78511 0.0
H3085 H 0.17056 0.07459 0.74771 0.0
H3086 H 0.1886 0.1067 0.74692 0.0
H3087 H 0.23138 0.13428 0.79763 0.0
H3088 H 0.28856 0.22221 0.79276 0.0
H3089 H 0.2713 0.18942 0.79178 0.0
H3090 H 0.22912 0.16149 0.7398 0.0
C3091 C 0.19374 0.09859 0.75626 0.0
C3092 C 0.23086 0.1398 0.78477 0.0
C3093 C 0.18323 0.07991 0.75674 0.0
C3094 C 0.27659 0.21656 0.7827 0.0
C3095 C 0.26643 0.19749 0.78222 0.0
C3096 C 0.2297 0.15597 0.75265 0.0
C3097 C 0.21 0.107 0.76819 0.0
C3098 C 0.22064 0.12789 0.76838 0.0
C3099 C 0.25072 0.18882 0.76944 0.0
C3100 C 0.24 0.16787 0.76905 0.0
H3101 H 0.20933 0.0683 0.79042 0.0
H3102 H 0.22792 0.1008 0.78953 0.0
H3103 H 0.21292 0.12819 0.73923 0.0
H3104 H 0.2518 0.22794 0.74777 0.0
H3105 H 0.23378 0.19487 0.7471 0.0
C3106 C 0.39369 0.98119 0.27311 0.0
C3107 C 0.40605 0.9767 0.26164 0.0
C3108 C 0.37829 0.96731 0.2744 0.0
C3109 C 0.3609 0.91516 0.26715 0.0
H3110 H 0.31487 0.92595 0.27071 0.0
C3111 C 0.30183 0.85558 0.25307 0.0
C3112 C 0.30105 0.84927 0.27019 0.0
C3113 C 0.3084 0.87502 0.25274 0.0
C3114 C 0.32772 0.92298 0.26982 0.0
H3115 H 0.41215 0.9546 0.24234 0.0
H3116 H 0.38445 0.93026 0.24368 0.0
H3117 H 0.34095 0.9519 0.26782 0.0
H3118 H 0.3032 0.85834 0.3001 0.0
H3119 H 0.31564 0.8923 0.29941 0.0
H3120 H 0.34764 0.88626 0.26875 0.0
C3121 C 0.38696 0.94444 0.25206 0.0
C3122 C 0.34257 0.93765 0.26821 0.0
C3123 C 0.40266 0.95828 0.25111 0.0
C3124 C 0.30428 0.86281 0.28674 0.0
C3125 C 0.311 0.88226 0.28638 0.0
C3126 C 0.34616 0.90063 0.26868 0.0
C3127 C 0.37485 0.94876 0.26403 0.0
C3128 C 0.35919 0.9337 0.26644 0.0
C3129 C 0.31432 0.88813 0.26948 0.0
C3130 C 0.32952 0.90441 0.26966 0.0
H3131 H 0.39636 0.99522 0.28184 0.0
H3132 H 0.36946 0.97093 0.28404 0.0
H3133 H 0.37362 0.91184 0.26645 0.0
H3134 H 0.29882 0.84548 0.24005 0.0
H3135 H 0.31103 0.87944 0.23959 0.0
C3136 C 0.56801 0.3487 0.5674 0.0
C3137 C 0.57003 0.3487 0.58662 0.0
C3138 C 0.56348 0.36391 0.56033 0.0
C3139 C 0.56498 0.4155 0.57491 0.0
H3140 H 0.53785 0.40816 0.5261 0.0
C3141 C 0.5634 0.48021 0.53919 0.0
C3142 C 0.5477 0.48021 0.52806 0.0
C3143 C 0.56506 0.46374 0.54596 0.0
C3144 C 0.54528 0.41053 0.53985 0.0
H3145 H 0.56852 0.36441 0.61354 0.0
H3146 H 0.56065 0.39114 0.60135 0.0
H3147 H 0.54145 0.38031 0.53905 0.0
H3148 H 0.5215 0.46249 0.51505 0.0
H3149 H 0.52429 0.43374 0.52705 0.0
H3150 H 0.56827 0.44559 0.5761 0.0
C3151 C 0.56266 0.37943 0.59162 0.0
C3152 C 0.54758 0.39449 0.54722 0.0
C3153 C 0.56699 0.36403 0.59866 0.0
C3154 C 0.53378 0.46308 0.52362 0.0
C3155 C 0.53544 0.44651 0.53044 0.0
C3156 C 0.56252 0.43148 0.56766 0.0
C3157 C 0.56104 0.37972 0.57233 0.0
C3158 C 0.55763 0.39672 0.56481 0.0
C3159 C 0.55106 0.44666 0.54193 0.0
C3160 C 0.55285 0.42932 0.5499 0.0
H3161 H 0.57013 0.33696 0.55777 0.0
H3162 H 0.56252 0.36351 0.54547 0.0
H3163 H 0.57301 0.41798 0.58835 0.0
H3164 H 0.57446 0.49306 0.54295 0.0
H3165 H 0.57748 0.46445 0.55433 0.0
C3166 C 0.44753 0.77774 0.38938 0.0
C3167 C 0.45718 0.76482 0.38267 0.0
C3168 C 0.43342 0.78077 0.37803 0.0
C3169 C 0.39924 0.75678 0.33805 0.0
H3170 H 0.3926 0.80755 0.337 0.0
C3171 C 0.34248 0.76659 0.28754 0.0
C3172 C 0.33406 0.78124 0.29224 0.0
C3173 C 0.35761 0.76549 0.29866 0.0
C3174 C 0.39403 0.79322 0.3373 0.0
H3175 H 0.45964 0.74516 0.35854 0.0
H3176 H 0.43443 0.74996 0.33869 0.0
H3177 H 0.41908 0.80408 0.35536 0.0
H3178 H 0.33515 0.80635 0.31259 0.0
H3179 H 0.36142 0.8041 0.33263 0.0
H3180 H 0.37405 0.74571 0.32075 0.0
C3181 C 0.438 0.75789 0.35282 0.0
C3182 C 0.40934 0.79125 0.34776 0.0
C3183 C 0.45248 0.75517 0.36412 0.0
C3184 C 0.34125 0.79483 0.30859 0.0
C3185 C 0.35643 0.79359 0.31998 0.0
C3186 C 0.38385 0.75871 0.32786 0.0
C3187 C 0.42823 0.77069 0.35967 0.0
C3188 C 0.41222 0.77299 0.34815 0.0
C3189 C 0.36484 0.7788 0.3152 0.0
C3190 C 0.38101 0.77696 0.32708 0.0
H3191 H 0.45091 0.78558 0.40355 0.0
H3192 H 0.42621 0.79063 0.38385 0.0
H3193 H 0.40076 0.74249 0.33835 0.0
H3194 H 0.3375 0.75594 0.27496 0.0
H3195 H 0.36378 0.75422 0.29399 0.0
C3196 C 0.08274 0.74291 0.07179 0.0
C3197 C 0.069 0.75071 0.07751 0.0
C3198 C 0.0793 0.72338 0.06473 0.0
C3199 C 0.04622 0.67652 0.0625 0.0
H3200 H 0.0738 0.65984 0.02516 0.0
C3201 C 0.03161 0.59799 0.02508 0.0
C3202 C 0.04637 0.59026 0.02431 0.0
C3203 C 0.03408 0.61761 0.03108 0.0
C3204 C 0.06611 0.66432 0.03567 0.0
H3205 H 0.04081 0.74436 0.08008 0.0
H3206 H 0.03444 0.71015 0.06659 0.0
H3207 H 0.07769 0.69403 0.03564 0.0
H3208 H 0.07533 0.5971 0.02888 0.0
H3209 H 0.07963 0.63158 0.03918 0.0
H3210 H 0.03434 0.64661 0.06204 0.0
C3211 C 0.04804 0.71906 0.06816 0.0
C3212 C 0.06834 0.68391 0.04175 0.0
C3213 C 0.05161 0.73865 0.07572 0.0
C3214 C 0.0637 0.60263 0.02929 0.0
C3215 C 0.06617 0.62233 0.03515 0.0
C3216 C 0.0438 0.65691 0.05619 0.0
C3217 C 0.06192 0.71118 0.06272 0.0
C3218 C 0.05859 0.69029 0.05541 0.0
C3219 C 0.05136 0.62993 0.03626 0.0
C3220 C 0.05384 0.65067 0.04284 0.0
H3221 H 0.09637 0.75179 0.07343 0.0
H3222 H 0.09044 0.71783 0.06127 0.0
H3223 H 0.0387 0.68084 0.07324 0.0
H3224 H 0.01806 0.5889 0.02132 0.0
H3225 H 0.02246 0.62316 0.03159 0.0
C3226 C 0.07277 0.2989 0.88738 0.0
C3227 C 0.05924 0.2814 0.88391 0.0
C3228 C 0.08862 0.30058 0.8795 0.0
C3229 C 0.10742 0.27811 0.84032 0.0
H3230 H 0.15327 0.30731 0.86836 0.0
C3231 C 0.17322 0.27406 0.81312 0.0
C3232 C 0.18737 0.29084 0.81537 0.0
C3233 C 0.15801 0.27399 0.82172 0.0
C3234 C 0.14055 0.29932 0.86025 0.0
H3235 H 0.05209 0.25183 0.86953 0.0
H3236 H 0.07975 0.25474 0.85565 0.0
H3237 H 0.12609 0.3045 0.88307 0.0
H3238 H 0.19659 0.32081 0.82858 0.0
H3239 H 0.16982 0.32071 0.84385 0.0
H3240 H 0.12175 0.27293 0.81753 0.0
C3241 C 0.07796 0.26727 0.86439 0.0
C3242 C 0.12494 0.29766 0.86871 0.0
C3243 C 0.0621 0.26555 0.87239 0.0
C3244 C 0.18589 0.30767 0.82654 0.0
C3245 C 0.17061 0.30755 0.83537 0.0
C3246 C 0.12296 0.2798 0.8319 0.0
C3247 C 0.09144 0.28483 0.86779 0.0
C3248 C 0.10816 0.28685 0.85889 0.0
C3249 C 0.15639 0.29069 0.83293 0.0
C3250 C 0.13979 0.2902 0.84178 0.0
H3251 H 0.07117 0.31144 0.89626 0.0
H3252 H 0.09854 0.31437 0.88232 0.0
H3253 H 0.09475 0.27009 0.83216 0.0
H3254 H 0.17383 0.26091 0.80446 0.0
H3255 H 0.14752 0.26067 0.8197 0.0
C3256 C 0.57174 0.77124 0.93129 0.0
C3257 C 0.5773 0.77136 0.91375 0.0
C3258 C 0.56573 0.75393 0.93741 0.0
C3259 C 0.56524 0.70302 0.92951 0.0
H3260 H 0.52237 0.69748 0.95336 0.0
C3261 C 0.5345 0.63365 0.9554 0.0
C3262 C 0.53191 0.63679 0.97418 0.0
C3263 C 0.53707 0.64878 0.94548 0.0
C3264 C 0.53432 0.69883 0.9467 0.0
H3265 H 0.58134 0.75408 0.88876 0.0
H3266 H 0.57087 0.72345 0.8995 0.0
H3267 H 0.5345 0.72696 0.94169 0.0
H3268 H 0.52883 0.6579 0.99691 0.0
H3269 H 0.53317 0.68416 0.97962 0.0
H3270 H 0.56529 0.67507 0.93488 0.0
C3271 C 0.57138 0.73672 0.90865 0.0
C3272 C 0.54132 0.7157 0.94012 0.0
C3273 C 0.57745 0.75414 0.90255 0.0
C3274 C 0.53062 0.65495 0.98242 0.0
C3275 C 0.53312 0.67003 0.9725 0.0
C3276 C 0.55823 0.68613 0.93608 0.0
C3277 C 0.56501 0.73647 0.92593 0.0
C3278 C 0.55704 0.71809 0.9318 0.0
C3279 C 0.53701 0.66725 0.95417 0.0
C3280 C 0.54289 0.68401 0.94502 0.0
H3281 H 0.57132 0.7845 0.93993 0.0
H3282 H 0.56122 0.75417 0.95093 0.0
H3283 H 0.57743 0.70455 0.92326 0.0
H3284 H 0.53521 0.61969 0.94858 0.0
H3285 H 0.53972 0.6462 0.93124 0.0
C3286 C 0.05471 0.74419 0.67587 0.0
C3287 C 0.0435 0.75575 0.68104 0.0
C3288 C 0.07299 0.751 0.6813 0.0
C3289 C 0.10299 0.77915 0.72006 0.0
H3290 H 0.13818 0.76744 0.68961 0.0
C3291 C 0.17461 0.77753 0.74848 0.0
C3292 C 0.17876 0.76085 0.74037 0.0
C3293 C 0.15896 0.78154 0.7415 0.0
C3294 C 0.12851 0.77096 0.69823 0.0
H3295 H 0.04224 0.7836 0.6951 0.0
H3296 H 0.07451 0.79527 0.7055 0.0
H3297 H 0.1091 0.76811 0.67468 0.0
H3298 H 0.17007 0.73477 0.71971 0.0
H3299 H 0.1425 0.74149 0.70773 0.0
H3300 H 0.12196 0.78062 0.74362 0.0
C3301 C 0.06908 0.78112 0.69701 0.0
C3302 C 0.11203 0.77149 0.68972 0.0
C3303 C 0.05076 0.77441 0.69126 0.0
C3304 C 0.1669 0.74769 0.72605 0.0
C3305 C 0.15137 0.75167 0.7191 0.0
C3306 C 0.11949 0.77859 0.72859 0.0
C3307 C 0.08023 0.76934 0.6922 0.0
C3308 C 0.09891 0.77465 0.70062 0.0
C3309 C 0.14763 0.76892 0.72634 0.0
C3310 C 0.13196 0.77357 0.71769 0.0
H3311 H 0.04935 0.72992 0.66757 0.0
H3312 H 0.08136 0.74158 0.67766 0.0
H3313 H 0.09292 0.78141 0.72868 0.0
H3314 H 0.18385 0.78784 0.75947 0.0
H3315 H 0.15614 0.79483 0.74733 0.0
C3316 C 0.10294 0.38639 0.42642 0.0
C3317 C 0.09414 0.37756 0.4086 0.0
C3318 C 0.09912 0.4029 0.43524 0.0
C3319 C 0.0733 0.43862 0.42993 0.0
H3320 H 0.06124 0.42839 0.47818 0.0
C3321 C 0.03691 0.48389 0.47539 0.0
C3322 C 0.04715 0.49184 0.49285 0.0
C3323 C 0.04089 0.46881 0.46402 0.0
C3324 C 0.06447 0.43132 0.46469 0.0
H3325 H 0.07692 0.38014 0.38477 0.0
H3326 H 0.07033 0.40899 0.40001 0.0
H3327 H 0.07559 0.40747 0.4599 0.0
H3328 H 0.06874 0.48984 0.51269 0.0
H3329 H 0.07548 0.46344 0.49304 0.0
H3330 H 0.06202 0.4625 0.43487 0.0
C3331 C 0.07998 0.40334 0.40736 0.0
C3332 C 0.07294 0.41959 0.45436 0.0
C3333 C 0.08382 0.38689 0.39858 0.0
C3334 C 0.06074 0.484 0.4992 0.0
C3335 C 0.0645 0.46882 0.48804 0.0
C3336 C 0.06472 0.45034 0.44027 0.0
C3337 C 0.0865 0.41055 0.42622 0.0
C3338 C 0.07787 0.42343 0.43711 0.0
C3339 C 0.05487 0.46137 0.47024 0.0
C3340 C 0.06068 0.44703 0.45791 0.0
H3341 H 0.11087 0.37927 0.43434 0.0
H3342 H 0.10471 0.40858 0.44966 0.0
H3343 H 0.07673 0.44172 0.41656 0.0
H3344 H 0.02618 0.48961 0.47037 0.0
H3345 H 0.03326 0.46316 0.45033 0.0
C3346 C 0.44222 0.26202 0.17445 0.0
C3347 C 0.44834 0.24629 0.1782 0.0
C3348 C 0.42732 0.26539 0.18183 0.0
C3349 C 0.40783 0.25828 0.22316 0.0
H3350 H 0.36851 0.27457 0.20056 0.0
C3351 C 0.34446 0.26202 0.25469 0.0
C3352 C 0.33826 0.27813 0.25284 0.0
C3353 C 0.35953 0.25987 0.24695 0.0
C3354 C 0.37963 0.2703 0.20698 0.0
H3355 H 0.44278 0.22052 0.19055 0.0
H3356 H 0.41675 0.22645 0.20337 0.0
H3357 H 0.38979 0.26504 0.1812 0.0
H3358 H 0.34332 0.30534 0.24288 0.0
H3359 H 0.36957 0.30132 0.2291 0.0
H3360 H 0.39759 0.26327 0.24886 0.0
C3361 C 0.42371 0.23637 0.19519 0.0
C3362 C 0.39161 0.26477 0.19596 0.0
C3363 C 0.4386 0.23309 0.18797 0.0
C3364 C 0.34792 0.29276 0.24445 0.0
C3365 C 0.36281 0.29048 0.2365 0.0
C3366 C 0.39587 0.26374 0.23413 0.0
C3367 C 0.41852 0.25297 0.19286 0.0
C3368 C 0.40562 0.25857 0.20402 0.0
C3369 C 0.36825 0.27373 0.23719 0.0
C3370 C 0.3817 0.26964 0.22606 0.0
H3371 H 0.4494 0.27219 0.16664 0.0
H3372 H 0.42338 0.27827 0.17991 0.0
H3373 H 0.41887 0.25394 0.22965 0.0
H3374 H 0.33723 0.25071 0.26129 0.0
H3375 H 0.36367 0.24684 0.24754 0.0
C3376 C 0.61308 0.52368 0.32619 0.0
C3377 C 0.62467 0.51207 0.32121 0.0
C3378 C 0.60573 0.52426 0.34312 0.0
C3379 C 0.59906 0.50035 0.38655 0.0
H3380 H 0.58496 0.54629 0.4043 0.0
C3381 C 0.57234 0.51175 0.46046 0.0
C3382 C 0.56108 0.52403 0.4638 0.0
C3383 C 0.5804 0.51009 0.44376 0.0
C3384 C 0.58846 0.53309 0.39975 0.0
H3385 H 0.63683 0.4914 0.33158 0.0
H3386 H 0.62415 0.49243 0.36122 0.0
H3387 H 0.59769 0.54351 0.37566 0.0
H3388 H 0.54921 0.54347 0.45089 0.0
H3389 H 0.56313 0.54106 0.4226 0.0
H3390 H 0.58989 0.49011 0.41099 0.0
C3391 C 0.62071 0.50129 0.35166 0.0
C3392 C 0.59596 0.53141 0.38281 0.0
C3393 C 0.6282 0.5007 0.33443 0.0
C3394 C 0.55828 0.53443 0.44951 0.0
C3395 C 0.56637 0.5329 0.43294 0.0
C3396 C 0.59155 0.50205 0.4036 0.0
C3397 C 0.60939 0.51335 0.35666 0.0
C3398 C 0.60148 0.51497 0.3755 0.0
C3399 C 0.57759 0.52052 0.42933 0.0
C3400 C 0.58595 0.51849 0.41079 0.0
H3401 H 0.60953 0.53271 0.31685 0.0
H3402 H 0.59685 0.53337 0.34534 0.0
H3403 H 0.60272 0.48725 0.38192 0.0
H3404 H 0.5744 0.50278 0.47049 0.0
H3405 H 0.58879 0.50036 0.44219 0.0
C3406 C 0.29822 0.85691 0.05079 0.0
C3407 C 0.29443 0.87353 0.04616 0.0
C3408 C 0.30487 0.8569 0.06907 0.0
C3409 C 0.3121 0.88169 0.11702 0.0
H3410 H 0.35572 0.86524 0.11908 0.0
C3411 C 0.33715 0.86391 0.18354 0.0
C3412 C 0.33741 0.84457 0.17997 0.0
C3413 C 0.33912 0.87473 0.16938 0.0
C3414 C 0.34371 0.87015 0.11873 0.0
H3415 H 0.29271 0.90237 0.0572 0.0
H3416 H 0.30462 0.90232 0.08864 0.0
H3417 H 0.34004 0.86618 0.08903 0.0
H3418 H 0.34134 0.82176 0.15958 0.0
H3419 H 0.34415 0.8401 0.135 0.0
H3420 H 0.31477 0.8842 0.14641 0.0
C3421 C 0.30229 0.88932 0.07838 0.0
C3422 C 0.33466 0.87043 0.10159 0.0
C3423 C 0.29528 0.88918 0.06033 0.0
C3424 C 0.34133 0.83674 0.16276 0.0
C3425 C 0.34309 0.8474 0.14864 0.0
C3426 C 0.32095 0.88106 0.13414 0.0
C3427 C 0.30794 0.87358 0.08261 0.0
C3428 C 0.31836 0.87526 0.10067 0.0
C3429 C 0.34098 0.86613 0.15148 0.0
C3430 C 0.33622 0.8741 0.13504 0.0
H3431 H 0.2976 0.84473 0.04007 0.0
H3432 H 0.30872 0.84439 0.07238 0.0
H3433 H 0.29973 0.88591 0.11651 0.0
H3434 H 0.33432 0.87023 0.19685 0.0
H3435 H 0.3377 0.88924 0.17198 0.0
C3436 C 0.94779 0.50581 0.8305 0.0
C3437 C 0.94568 0.52325 0.82606 0.0
C3438 C 0.95375 0.50483 0.84854 0.0
C3439 C 0.96325 0.52916 0.89677 0.0
H3440 H 0.00731 0.51358 0.89558 0.0
C3441 C 0.01898 0.54771 0.9585 0.0
C3442 C 0.02439 0.53192 0.96303 0.0
C3443 C 0.00766 0.54553 0.94209 0.0
C3444 C 0.99494 0.51775 0.89603 0.0
H3445 H 0.9449 0.55221 0.83698 0.0
H3446 H 0.9551 0.55042 0.86913 0.0
H3447 H 0.98804 0.51071 0.86657 0.0
H3448 H 0.02286 0.50176 0.95478 0.0
H3449 H 0.00344 0.49804 0.92549 0.0
H3450 H 0.97052 0.53666 0.92626 0.0
C3451 C 0.95263 0.53774 0.85846 0.0
C3452 C 0.98392 0.51604 0.87957 0.0
C3453 C 0.9468 0.53879 0.8402 0.0
C3454 C 0.01874 0.51403 0.9512 0.0
C3455 C 0.00775 0.51194 0.93461 0.0
C3456 C 0.97434 0.53094 0.91325 0.0
C3457 C 0.95722 0.52116 0.86237 0.0
C3458 C 0.96804 0.52179 0.87988 0.0
C3459 C 1.00205 0.52764 0.93011 0.0
C3460 C 0.99024 0.52535 0.91289 0.0
H3461 H 0.94642 0.49339 0.81977 0.0
H3462 H 0.95688 0.4918 0.85141 0.0
H3463 H 0.95103 0.5336 0.89717 0.0
H3464 H 0.02317 0.5615 0.96782 0.0
H3465 H 0.00336 0.55777 0.93867 0.0
C3466 C 0.29695 0.21339 0.56544 0.0
C3467 C 0.29586 0.226 0.55295 0.0
C3468 C 0.29812 0.21973 0.58459 0.0
C3469 C 0.28587 0.25718 0.61634 0.0
H3470 H 0.30853 0.23645 0.65467 0.0
C3471 C 0.28623 0.2826 0.69514 0.0
C3472 C 0.2848 0.26858 0.70643 0.0
C3473 C 0.28776 0.27789 0.67628 0.0
C3474 C 0.30196 0.24221 0.6441 0.0
H3475 H 0.29694 0.2555 0.55071 0.0
H3476 H 0.29985 0.26681 0.58412 0.0
H3477 H 0.31333 0.22823 0.6225 0.0
H3478 H 0.28328 0.23875 0.70723 0.0
H3479 H 0.28524 0.23023 0.67415 0.0
H3480 H 0.27443 0.27108 0.63793 0.0
C3481 C 0.29903 0.25184 0.57916 0.0
C3482 C 0.30476 0.23754 0.62565 0.0
C3483 C 0.29758 0.24543 0.56003 0.0
C3484 C 0.28423 0.24969 0.69862 0.0
C3485 C 0.2856 0.24492 0.67978 0.0
C3486 C 0.28311 0.26189 0.63479 0.0
C3487 C 0.29848 0.23888 0.59162 0.0
C3488 C 0.29665 0.24486 0.6115 0.0
C3489 C 0.28786 0.25907 0.66848 0.0
C3490 C 0.29098 0.25433 0.64887 0.0
H3491 H 0.29551 0.19829 0.56037 0.0
H3492 H 0.29758 0.2093 0.59371 0.0
H3493 H 0.27907 0.26278 0.60579 0.0
H3494 H 0.28705 0.29735 0.70109 0.0
H3495 H 0.28963 0.28916 0.66802 0.0
C3496 C 0.63217 0.5188 0.20336 0.0
C3497 C 0.62357 0.50457 0.21302 0.0
C3498 C 0.62458 0.52064 0.18561 0.0
C3499 C 0.58993 0.49538 0.14382 0.0
H3500 H 0.59372 0.54693 0.13467 0.0
C3501 C 0.55662 0.50684 0.07191 0.0
C3502 C 0.56048 0.52505 0.06658 0.0
C3503 C 0.56358 0.5042 0.08963 0.0
C3504 C 0.59256 0.53227 0.1364 0.0
H3505 H 0.59961 0.48139 0.2111 0.0
H3506 H 0.58684 0.48385 0.17989 0.0
H3507 H 0.60724 0.54218 0.16398 0.0
H3508 H 0.57513 0.5548 0.07636 0.0
H3509 H 0.58781 0.55037 0.10624 0.0
H3510 H 0.5758 0.48523 0.11631 0.0
C3511 C 0.59965 0.49361 0.18601 0.0
C3512 C 0.60047 0.52956 0.15367 0.0
C3513 C 0.60711 0.49203 0.20397 0.0
C3514 C 0.57164 0.54051 0.07976 0.0
C3515 C 0.57894 0.53784 0.0973 0.0
C3516 C 0.5823 0.49805 0.12638 0.0
C3517 C 0.60801 0.50827 0.17657 0.0
C3518 C 0.59939 0.51106 0.15783 0.0
C3519 C 0.57519 0.51957 0.10289 0.0
C3520 C 0.58335 0.51661 0.12203 0.0
H3521 H 0.64446 0.52926 0.21 0.0
H3522 H 0.63169 0.53205 0.17906 0.0
H3523 H 0.58873 0.48083 0.14612 0.0
H3524 H 0.548 0.49448 0.0624 0.0
H3525 H 0.5596 0.48986 0.0927 0.0
C3526 C 0.31165 0.89686 0.93984 0.0
C3527 C 0.30398 0.88752 0.95356 0.0
C3528 C 0.31178 0.88612 0.9225 0.0
C3529 C 0.29235 0.83742 0.89424 0.0
H3530 H 0.33459 0.85049 0.86983 0.0
C3531 C 0.30013 0.78771 0.83097 0.0
C3532 C 0.30005 0.79705 0.81566 0.0
C3533 C 0.30458 0.79853 0.84887 0.0
C3534 C 0.3229 0.84664 0.87678 0.0
H3535 H 0.29072 0.8604 0.96082 0.0
H3536 H 0.29179 0.8415 0.93125 0.0
H3537 H 0.33248 0.87115 0.89854 0.0
H3538 H 0.30524 0.82472 0.80666 0.0
H3539 H 0.31315 0.8435 0.83785 0.0
H3540 H 0.28295 0.8128 0.87274 0.0
C3541 C 0.29683 0.85698 0.93307 0.0
C3542 C 0.32151 0.85857 0.89292 0.0
C3543 C 0.29621 0.86773 0.95001 0.0
C3544 C 0.30546 0.8172 0.81829 0.0
C3545 C 0.3101 0.82797 0.83608 0.0
C3546 C 0.29396 0.82533 0.87847 0.0
C3547 C 0.30474 0.866 0.91919 0.0
C3548 C 0.30615 0.85407 0.90172 0.0
C3549 C 0.30906 0.81869 0.85143 0.0
C3550 C 0.30914 0.82994 0.8696 0.0
H3551 H 0.31796 0.9122 0.94273 0.0
H3552 H 0.31773 0.89345 0.91194 0.0
H3553 H 0.28015 0.8338 0.9004 0.0
H3554 H 0.296 0.77216 0.82915 0.0
H3555 H 0.30361 0.79123 0.86069 0.0
C3556 C 0.94913 0.5344 0.72872 0.0
C3557 C 0.9563 0.52207 0.73809 0.0
C3558 C 0.94258 0.52875 0.7098 0.0
C3559 C 0.93882 0.49004 0.66879 0.0
H3560 H 0.97588 0.52963 0.6548 0.0
C3561 C 0.97053 0.49275 0.5988 0.0
C3562 C 0.98931 0.49818 0.60229 0.0
C3563 C 0.96053 0.49141 0.61359 0.0
C3564 C 0.96534 0.51855 0.65844 0.0
H3565 H 0.95931 0.49309 0.73625 0.0
H3566 H 0.94763 0.48319 0.70372 0.0
H3567 H 0.96392 0.53651 0.68351 0.0
H3568 H 0.0123 0.50459 0.62355 0.0
H3569 H 0.99485 0.5024 0.64926 0.0
H3570 H 0.94135 0.4718 0.6439 0.0
C3571 C 0.94722 0.49726 0.71056 0.0
C3572 C 0.95821 0.52257 0.67469 0.0
C3573 C 0.95414 0.50304 0.72926 0.0
C3574 C 0.99785 0.50023 0.62046 0.0
C3575 C 0.98791 0.49913 0.63517 0.0
C3576 C 0.9459 0.48607 0.6523 0.0
C3577 C 0.94307 0.51068 0.7003 0.0
C3578 C 0.94544 0.50813 0.68047 0.0
C3579 C 0.96929 0.49573 0.63188 0.0
C3580 C 0.95973 0.5001 0.64754 0.0
H3581 H 0.95045 0.54906 0.73541 0.0
H3582 H 0.93918 0.53926 0.70219 0.0
H3583 H 0.92908 0.47865 0.67304 0.0
H3584 H 0.9637 0.491 0.58484 0.0
H3585 H 0.94614 0.4887 0.61087 0.0
C3586 C 0.30013 0.21612 0.44282 0.0
C3587 C 0.28363 0.214 0.44958 0.0
C3588 C 0.30268 0.22299 0.42605 0.0
C3589 C 0.28096 0.24749 0.39217 0.0
H3590 H 0.31266 0.23117 0.35959 0.0
C3591 C 0.27821 0.25758 0.31533 0.0
C3592 C 0.2946 0.26632 0.30985 0.0
C3593 C 0.27774 0.25136 0.33249 0.0
C3594 C 0.30379 0.23588 0.36861 0.0
H3595 H 0.25666 0.21655 0.44361 0.0
H3596 H 0.26064 0.22723 0.41442 0.0
H3597 H 0.31052 0.22012 0.38931 0.0
H3598 H 0.32333 0.27493 0.31769 0.0
H3599 H 0.32252 0.26349 0.34738 0.0
H3600 H 0.27375 0.26259 0.37104 0.0
C3601 C 0.27204 0.22468 0.4222 0.0
C3602 C 0.30263 0.22967 0.38576 0.0
C3603 C 0.26965 0.21826 0.43897 0.0
C3604 C 0.31051 0.26816 0.32155 0.0
C3605 C 0.31006 0.26161 0.33853 0.0
C3606 C 0.28183 0.25331 0.3749 0.0
C3607 C 0.28866 0.22756 0.41556 0.0
C3608 C 0.29099 0.23514 0.39774 0.0
C3609 C 0.29366 0.2534 0.34432 0.0
C3610 C 0.29311 0.24744 0.36284 0.0
H3611 H 0.3112 0.21306 0.45074 0.0
H3612 H 0.31575 0.2251 0.42159 0.0
H3613 H 0.27233 0.25273 0.40113 0.0
H3614 H 0.26575 0.25611 0.30665 0.0
H3615 H 0.26491 0.24499 0.33655 0.0
C3616 C 0.32592 0.60796 0.51938 0.0
C3617 C 0.32048 0.6185 0.50663 0.0
C3618 C 0.33956 0.59926 0.51614 0.0
C3619 C 0.36721 0.58662 0.48015 0.0
H3620 H 0.39968 0.58744 0.52384 0.0
C3621 C 0.43581 0.56875 0.47891 0.0
C3622 C 0.43843 0.55604 0.49079 0.0
C3623 C 0.42106 0.57633 0.47959 0.0
C3624 C 0.39068 0.58709 0.51153 0.0
H3625 H 0.32441 0.62825 0.48052 0.0
H3626 H 0.34915 0.61419 0.4754 0.0
H3627 H 0.37419 0.60029 0.52745 0.0
H3628 H 0.42788 0.54058 0.51199 0.0
H3629 H 0.40205 0.55361 0.51307 0.0
H3630 H 0.3843 0.57383 0.4643 0.0
C3631 C 0.34256 0.61193 0.48752 0.0
C3632 C 0.37597 0.59428 0.51358 0.0
C3633 C 0.32856 0.62014 0.49051 0.0
C3634 C 0.42613 0.55063 0.50297 0.0
C3635 C 0.41144 0.55806 0.50357 0.0
C3636 C 0.38214 0.57966 0.47809 0.0
C3637 C 0.34832 0.60155 0.5004 0.0
C3638 C 0.36394 0.59392 0.49796 0.0
C3639 C 0.4089 0.57114 0.49209 0.0
C3640 C 0.39382 0.57964 0.49381 0.0
H3641 H 0.31949 0.60624 0.5317 0.0
H3642 H 0.34329 0.59086 0.52605 0.0
H3643 H 0.35809 0.58597 0.46785 0.0
H3644 H 0.44525 0.57296 0.4694 0.0
H3645 H 0.41933 0.5865 0.47069 0.0
C3646 C 0.86456 0.90741 0.51323 0.0
C3647 C 0.85248 0.91308 0.52448 0.0
C3648 C 0.88065 0.92036 0.5116 0.0
C3649 C 0.91373 0.96372 0.53714 0.0
H3650 H 0.93274 0.96498 0.49029 0.0
C3651 C 0.98212 0.01571 0.5337 0.0
C3652 C 0.99294 0.01038 0.52075 0.0
C3653 C 0.96453 0.00474 0.53319 0.0
C3654 C 0.92784 0.96467 0.50358 0.0
H3655 H 0.84773 0.9371 0.54249 0.0
H3656 H 0.87622 0.95982 0.53998 0.0
H3657 H 0.90278 0.94487 0.49096 0.0
H3658 H 0.99362 0.98929 0.49695 0.0
H3659 H 0.96326 0.9694 0.49664 0.0
H3660 H 0.93883 0.9827 0.55 0.0
C3661 C 0.8731 0.94522 0.53238 0.0
C3662 C 0.91053 0.95319 0.50392 0.0
C3663 C 0.85676 0.93226 0.53377 0.0
C3664 C 0.98569 0.99372 0.50721 0.0
C3665 C 0.96813 0.98243 0.50693 0.0
C3666 C 0.9311 0.97494 0.53686 0.0
C3667 C 0.88532 0.93936 0.52137 0.0
C3668 C 0.90326 0.95254 0.52072 0.0
C3669 C 0.95723 0.98774 0.51997 0.0
C3670 C 0.93851 0.97566 0.52009 0.0
H3671 H 0.86163 0.8928 0.50568 0.0
H3672 H 0.88972 0.91527 0.50311 0.0
H3673 H 0.90871 0.9633 0.55037 0.0
H3674 H 0.98716 0.02862 0.54416 0.0
H3675 H 0.95663 0.00982 0.54314 0.0
C3676 C 0.90049 0.12956 0.28195 0.0
C3677 C 0.89849 0.11442 0.26665 0.0
C3678 C 0.89135 0.14418 0.28182 0.0
C3679 C 0.85557 0.16122 0.25246 0.0
H3680 H 0.87012 0.20558 0.29215 0.0
C3681 C 0.81516 0.22121 0.25916 0.0
C3682 C 0.82353 0.24052 0.26792 0.0
C3683 C 0.82408 0.2063 0.25872 0.0
C3684 C 0.86575 0.19353 0.28071 0.0
H3685 H 0.8843 0.10384 0.23879 0.0
H3686 H 0.86867 0.12914 0.23826 0.0
H3687 H 0.88527 0.18046 0.29156 0.0
H3688 H 0.84864 0.25837 0.28335 0.0
H3689 H 0.86397 0.23275 0.28289 0.0
H3690 H 0.83628 0.17485 0.24147 0.0
C3691 C 0.87735 0.12974 0.25083 0.0
C3692 C 0.87452 0.17848 0.28045 0.0
C3693 C 0.88651 0.11488 0.25104 0.0
C3694 C 0.84143 0.24397 0.27636 0.0
C3695 C 0.8503 0.22894 0.27617 0.0
C3696 C 0.84681 0.17633 0.25273 0.0
C3697 C 0.8795 0.14506 0.26624 0.0
C3698 C 0.86979 0.16165 0.26634 0.0
C3699 C 0.84195 0.20956 0.26725 0.0
C3700 C 0.85158 0.19304 0.26687 0.0
H3701 H 0.90932 0.13026 0.29449 0.0
H3702 H 0.89372 0.15475 0.29439 0.0
H3703 H 0.85091 0.14907 0.24118 0.0
H3704 H 0.8015 0.21749 0.25236 0.0
H3705 H 0.81662 0.19198 0.25181 0.0
C3706 C 0.72704 0.10751 0.02937 0.0
C3707 C 0.7354 0.10955 0.0135 0.0
C3708 C 0.70858 0.10025 0.02741 0.0
C3709 C 0.66782 0.07896 0.99317 0.0
H3710 H 0.64841 0.11129 0.02791 0.0
C3711 C 0.59739 0.05468 0.00619 0.0
C3712 C 0.58701 0.06762 0.0087 0.0
C3713 C 0.6154 0.06137 0.00517 0.0
C3714 C 0.65368 0.10248 0.01787 0.0
H3715 H 0.73232 0.1025 0.98351 0.0
H3716 H 0.70018 0.0896 0.97993 0.0
H3717 H 0.68067 0.11679 0.02955 0.0
H3718 H 0.58657 0.09746 0.01255 0.0
H3719 H 0.61871 0.10952 0.01054 0.0
H3720 H 0.6409 0.06514 0.98107 0.0
C3721 C 0.70747 0.09384 0.99386 0.0
C3722 C 0.67208 0.10527 0.01909 0.0
C3723 C 0.72592 0.10094 0.99588 0.0
C3724 C 0.59469 0.08743 0.0107 0.0
C3725 C 0.61287 0.09422 0.00946 0.0
C3726 C 0.6495 0.07647 0.99171 0.0
C3727 C 0.69858 0.09494 0.00958 0.0
C3728 C 0.67922 0.09288 0.00733 0.0
C3729 C 0.6232 0.0811 0.00628 0.0
C3730 C 0.64228 0.08746 0.00472 0.0
H3731 H 0.73425 0.11418 0.04308 0.0
H3732 H 0.70203 0.10048 0.03978 0.0
H3733 H 0.67292 0.06944 0.9837 0.0
H3734 H 0.5915 0.03933 0.00474 0.0
H3735 H 0.6232 0.05103 0.00343 0.0
C3736 C 0.18147 0.4843 0.25669 0.0
C3737 C 0.18903 0.49729 0.24548 0.0
C3738 C 0.19056 0.47163 0.26241 0.0
C3739 C 0.22282 0.44651 0.24938 0.0
H3740 H 0.2306 0.44308 0.30169 0.0
C3741 C 0.26818 0.4037 0.27453 0.0
C3742 C 0.26048 0.38985 0.28472 0.0
C3743 C 0.26024 0.41823 0.27183 0.0
C3744 C 0.22837 0.44388 0.28707 0.0
H3745 H 0.21169 0.50741 0.23129 0.0
H3746 H 0.22746 0.48446 0.24075 0.0
H3747 H 0.21463 0.46574 0.29195 0.0
H3748 H 0.23928 0.38022 0.30089 0.0
H3749 H 0.22503 0.40594 0.29603 0.0
H3750 H 0.23629 0.42459 0.24436 0.0
C3751 C 0.21459 0.48432 0.24521 0.0
C3752 C 0.21932 0.45674 0.28153 0.0
C3753 C 0.20565 0.49732 0.23979 0.0
C3754 C 0.24527 0.39098 0.293 0.0
C3755 C 0.23726 0.4056 0.2903 0.0
C3756 C 0.23179 0.43366 0.25488 0.0
C3757 C 0.20716 0.4716 0.25672 0.0
C3758 C 0.21662 0.45815 0.26267 0.0
C3759 C 0.24446 0.41892 0.27921 0.0
C3760 C 0.23475 0.4324 0.27375 0.0
H3761 H 0.16879 0.48436 0.26156 0.0
H3762 H 0.18461 0.46182 0.27121 0.0
H3763 H 0.22054 0.44719 0.23474 0.0
H3764 H 0.27999 0.40287 0.26814 0.0
H3765 H 0.26609 0.42855 0.26345 0.0
C3766 C 0.24319 0.40943 0.9943 0.0
C3767 C 0.25229 0.40941 0.01181 0.0
C3768 C 0.22819 0.41668 0.99277 0.0
C3769 C 0.1937 0.4303 0.02004 0.0
H3770 H 0.18665 0.45841 0.98039 0.0
C3771 C 0.14396 0.47703 0.02133 0.0
C3772 C 0.13407 0.47804 0.00464 0.0
C3773 C 0.15748 0.46753 0.02127 0.0
C3774 C 0.18823 0.45039 0.99141 0.0
H3775 H 0.25254 0.41707 0.0415 0.0
H3776 H 0.22668 0.43019 0.03892 0.0
H3777 H 0.21189 0.44442 0.98235 0.0
H3778 H 0.13077 0.46953 0.97464 0.0
H3779 H 0.15435 0.45279 0.97452 0.0
H3780 H 0.17016 0.43644 0.02921 0.0
C3781 C 0.23093 0.42424 0.02628 0.0
C3782 C 0.20279 0.44232 0.99256 0.0
C3783 C 0.24591 0.41684 0.0278 0.0
C3784 C 0.13815 0.46918 0.98779 0.0
C3785 C 0.15172 0.45959 0.98772 0.0
C3786 C 0.1792 0.43839 0.01891 0.0
C3787 C 0.22183 0.4243 0.00872 0.0
C3788 C 0.2059 0.43234 0.00705 0.0
C3789 C 0.1616 0.45864 0.0045 0.0
C3790 C 0.17637 0.44881 0.00475 0.0
H3791 H 0.24753 0.40364 0.98162 0.0
H3792 H 0.22146 0.41606 0.97902 0.0
H3793 H 0.19526 0.42233 0.03111 0.0
H3794 H 0.14159 0.48405 0.03456 0.0
H3795 H 0.165 0.46756 0.03445 0.0
C3796 C 0.89459 0.97823 0.24058 0.0
C3797 C 0.89277 0.9953 0.2512 0.0
C3798 C 0.8849 0.95976 0.24276 0.0
C3799 C 0.85484 0.93284 0.27447 0.0
H3800 H 0.85099 0.88932 0.2355 0.0
C3801 C 0.80797 0.8556 0.27492 0.0
C3802 C 0.81232 0.83877 0.26696 0.0
C3803 C 0.81845 0.87425 0.27408 0.0
C3804 C 0.85203 0.90114 0.24674 0.0
H3805 H 0.87858 0.00545 0.27276 0.0
H3806 H 0.86102 0.97338 0.27612 0.0
H3807 H 0.86586 0.92144 0.23136 0.0
H3808 H 0.83175 0.82905 0.25173 0.0
H3809 H 0.84997 0.8615 0.24998 0.0
H3810 H 0.84033 0.91222 0.28949 0.0
C3811 C 0.87033 0.97421 0.26608 0.0
C3812 C 0.8608 0.92001 0.24441 0.0
C3813 C 0.88024 0.99292 0.26392 0.0
C3814 C 0.82793 0.84146 0.25827 0.0
C3815 C 0.83832 0.86026 0.2571 0.0
C3816 C 0.84583 0.91395 0.27667 0.0
C3817 C 0.87255 0.95702 0.25567 0.0
C3818 C 0.86256 0.93651 0.25821 0.0
C3819 C 0.83373 0.87716 0.26485 0.0
C3820 C 0.84417 0.89756 0.26286 0.0
H3821 H 0.90415 0.97909 0.23075 0.0
H3822 H 0.8878 0.94763 0.23455 0.0
H3823 H 0.85586 0.94454 0.2858 0.0
H3824 H 0.79608 0.85437 0.28167 0.0
H3825 H 0.81406 0.88644 0.28015 0.0
C3826 C 0.69721 0.09272 0.77728 0.0
C3827 C 0.69072 0.08382 0.75889 0.0
C3828 C 0.7071 0.11182 0.78101 0.0
C3829 C 0.7098 0.15264 0.7566 0.0
H3830 H 0.74399 0.18064 0.79951 0.0
C3831 C 0.74934 0.22899 0.75708 0.0
C3832 C 0.76746 0.23243 0.76372 0.0
C3833 C 0.73708 0.21315 0.76081 0.0
C3834 C 0.73446 0.17297 0.78741 0.0
H3835 H 0.69185 0.08564 0.72988 0.0
H3836 H 0.71073 0.11848 0.73626 0.0
H3837 H 0.73248 0.14617 0.79624 0.0
H3838 H 0.78747 0.22282 0.77913 0.0
H3839 H 0.76655 0.19372 0.78368 0.0
H3840 H 0.71348 0.17885 0.7465 0.0
C3841 C 0.7072 0.11142 0.74788 0.0
C3842 C 0.72773 0.15324 0.78563 0.0
C3843 C 0.69692 0.0925 0.74419 0.0
C3844 C 0.77348 0.21987 0.77356 0.0
C3845 C 0.76137 0.20365 0.77669 0.0
C3846 C 0.71718 0.17218 0.75793 0.0
C3847 C 0.7108 0.12171 0.76624 0.0
C3848 C 0.71621 0.14278 0.76961 0.0
C3849 C 0.74299 0.20029 0.77065 0.0
C3850 C 0.73061 0.18217 0.77266 0.0
H3851 H 0.69236 0.08599 0.78868 0.0
H3852 H 0.70995 0.11921 0.79532 0.0
H3853 H 0.69988 0.14512 0.74476 0.0
H3854 H 0.74457 0.23919 0.75005 0.0
H3855 H 0.72304 0.21113 0.75617 0.0
loop_
_geom_bond_atom_site_label_1
_geom_bond_atom_site_label_2
_geom_bond_distance
_geom_bond_site_symmetry_2
_ccdc_geom_bond_type
Zn0 O3 2.031 . S
Zn0 O5 2.049 . S
Zn0 O10 2.067 . S
Zn1 O2 1.962 . S
Zn1 O4 1.986 . S
Zn1 O6 1.996 . S
Zn1 O9 1.943 . S
O2 Zn1 1.962 . S
O2 C7 1.254 . S
O3 Zn0 2.031 . S
O3 C7 1.269 . S
O4 Zn1 1.986 . S
O4 C11 1.262 . S
O5 Zn0 2.049 . S
O5 C13 1.260 . S
O6 Zn1 1.996 . S
O6 C13 1.257 . S
C7 O2 1.254 . S
C7 O3 1.269 . S
C8 O9 1.249 . S
C8 O10 1.270 . S
O9 Zn1 1.943 . S
O9 C8 1.249 . S
O10 Zn0 2.067 . S
O10 C8 1.270 . S
C11 O4 1.262 . S
C11 O12 1.232 . S
O12 C11 1.232 . S
C13 O5 1.260 . S
C13 O6 1.257 . S
Zn14 O17 2.031 1_455 S
Zn14 O19 2.049 . S
Zn14 O24 2.067 . S
Zn15 O16 1.950 1_455 S
Zn15 O18 1.991 . S
Zn15 O20 2.006 . S
Zn15 O23 1.945 1_455 S
O16 Zn15 1.950 1_655 S
O16 C21 1.254 . S
O17 Zn14 2.031 1_655 S
O17 C21 1.269 . S
O18 Zn15 1.991 . S
O18 C25 1.262 . S
O19 Zn14 2.049 . S
O19 C27 1.260 . S
O20 Zn15 2.006 . S
O20 C27 1.257 . S
C21 O16 1.254 . S
C21 O17 1.269 . S
C22 O23 1.249 . S
C22 O24 1.270 1_655 S
O23 Zn15 1.945 1_655 S
O23 C22 1.249 . S
O24 Zn14 2.067 . S
O24 C22 1.270 1_455 S
C25 O18 1.262 . S
C25 O26 1.232 1_455 S
O26 C25 1.232 1_655 S
C27 O19 1.260 . S
C27 O20 1.257 . S
Zn28 O31 2.031 . S
Zn28 O33 2.049 . S
Zn28 O38 2.067 . S
Zn29 O30 1.962 . S
Zn29 O32 1.986 . S
Zn29 O34 1.996 . S
Zn29 O37 1.943 . S
O30 Zn29 1.962 . S
O30 C35 1.254 . S
O31 Zn28 2.031 . S
O31 C35 1.269 . S
O32 Zn29 1.986 . S
O32 C39 1.262 . S
O33 Zn28 2.049 . S
O33 C41 1.260 . S
O34 Zn29 1.996 . S
O34 C41 1.257 . S
C35 O30 1.254 . S
C35 O31 1.269 . S
C36 O37 1.249 . S
C36 O38 1.270 . S
O37 Zn29 1.943 . S
O37 C36 1.249 . S
O38 Zn28 2.067 . S
O38 C36 1.270 . S
C39 O32 1.262 . S
C39 O40 1.232 . S
O40 C39 1.232 . S
C41 O33 1.260 . S
C41 O34 1.257 . S
Zn42 O45 2.031 . S
Zn42 O47 2.049 . S
Zn42 O52 2.067 . S
Zn43 O44 1.962 . S
Zn43 O46 1.986 . S
Zn43 O48 1.996 . S
Zn43 O51 1.943 . S
O44 Zn43 1.962 . S
O44 C49 1.254 . S
O45 Zn42 2.031 . S
O45 C49 1.269 . S
O46 Zn43 1.986 . S
O46 C53 1.262 . S
O47 Zn42 2.049 . S
O47 C55 1.260 . S
O48 Zn43 1.996 . S
O48 C55 1.257 . S
C49 O44 1.254 . S
C49 O45 1.269 . S
C50 O51 1.249 . S
C50 O52 1.270 . S
O51 Zn43 1.943 . S
O51 C50 1.249 . S
O52 Zn42 2.067 . S
O52 C50 1.270 . S
C53 O46 1.262 . S
C53 O54 1.232 . S
O54 C53 1.232 . S
C55 O47 1.260 . S
C55 O48 1.257 . S
Zn56 O59 2.031 . S
Zn56 O61 2.049 . S
Zn56 O66 2.067 . S
Zn57 O58 1.962 . S
Zn57 O60 1.986 . S
Zn57 O62 1.996 . S
Zn57 O65 1.943 . S
O58 Zn57 1.962 . S
O58 C63 1.254 . S
O59 Zn56 2.031 . S
O59 C63 1.269 . S
O60 Zn57 1.986 . S
O60 C67 1.262 . S
O61 Zn56 2.049 . S
O61 C69 1.260 . S
O62 Zn57 1.996 . S
O62 C69 1.257 . S
C63 O58 1.254 . S
C63 O59 1.269 . S
C64 O65 1.249 . S
C64 O66 1.270 . S
O65 Zn57 1.943 . S
O65 C64 1.249 . S
O66 Zn56 2.067 . S
O66 C64 1.270 . S
C67 O60 1.262 . S
C67 O68 1.232 . S
O68 C67 1.232 . S
C69 O61 1.260 . S
C69 O62 1.257 . S
Zn70 O73 2.031 . S
Zn70 O75 2.049 . S
Zn70 O80 2.067 . S
Zn71 O72 1.962 . S
Zn71 O74 1.986 . S
Zn71 O76 1.996 . S
Zn71 O79 1.943 . S
O72 Zn71 1.962 . S
O72 C77 1.254 . S
O73 Zn70 2.031 . S
O73 C77 1.269 . S
O74 Zn71 1.986 . S
O74 C81 1.262 . S
O75 Zn70 2.049 . S
O75 C83 1.260 . S
O76 Zn71 1.996 . S
O76 C83 1.257 . S
C77 O72 1.254 . S
C77 O73 1.269 . S
C78 O79 1.249 . S
C78 O80 1.270 . S
O79 Zn71 1.943 . S
O79 C78 1.249 . S
O80 Zn70 2.067 . S
O80 C78 1.270 . S
C81 O74 1.262 . S
C81 O82 1.232 . S
O82 C81 1.232 . S
C83 O75 1.260 . S
C83 O76 1.257 . S
Zn84 O87 2.031 . S
Zn84 O89 2.049 . S
Zn84 O94 2.067 . S
Zn85 O86 1.962 . S
Zn85 O88 1.986 . S
Zn85 O90 1.996 . S
Zn85 O93 1.943 . S
O86 Zn85 1.962 . S
O86 C91 1.254 . S
O87 Zn84 2.031 . S
O87 C91 1.269 . S
O88 Zn85 1.986 . S
O88 C95 1.262 . S
O89 Zn84 2.049 . S
O89 C97 1.260 . S
O90 Zn85 1.996 . S
O90 C97 1.257 . S
C91 O86 1.254 . S
C91 O87 1.269 . S
C92 O93 1.249 . S
C92 O94 1.270 . S
O93 Zn85 1.943 . S
O93 C92 1.249 . S
O94 Zn84 2.067 . S
O94 C92 1.270 . S
C95 O88 1.262 . S
C95 O96 1.232 . S
O96 C95 1.232 . S
C97 O89 1.260 . S
C97 O90 1.257 . S
Zn98 O101 2.031 . S
Zn98 O103 2.049 . S
Zn98 O108 2.067 . S
Zn99 O100 1.962 . S
Zn99 O102 1.986 . S
Zn99 O104 1.996 . S
Zn99 O107 1.927 1_455 S
O100 Zn99 1.962 . S
O100 C105 1.254 . S
O101 Zn98 2.031 . S
O101 C105 1.269 1_655 S
O102 Zn99 1.986 . S
O102 C109 1.262 . S
O103 Zn98 2.049 . S
O103 C111 1.260 1_655 S
O104 Zn99 1.996 . S
O104 C111 1.257 . S
C105 O100 1.254 . S
C105 O101 1.269 1_455 S
C106 O107 1.269 . S
C106 O108 1.270 . S
O107 Zn99 1.927 1_655 S
O107 C106 1.269 . S
O108 Zn98 2.067 . S
O108 C106 1.270 . S
C109 O102 1.262 . S
C109 O110 1.232 . S
O110 C109 1.232 . S
C111 O103 1.260 1_455 S
C111 O104 1.257 . S
Zn112 O115 2.031 . S
Zn112 O117 2.049 . S
Zn112 O122 2.067 . S
Zn113 O114 1.962 . S
Zn113 O116 1.986 . S
Zn113 O118 1.996 . S
Zn113 O121 1.943 1_545 S
O114 Zn113 1.962 . S
O114 C119 1.254 . S
O115 Zn112 2.031 . S
O115 C119 1.269 1_565 S
O116 Zn113 1.986 . S
O116 C123 1.262 . S
O117 Zn112 2.049 . S
O117 C125 1.260 1_565 S
O118 Zn113 1.996 . S
O118 C125 1.257 . S
C119 O114 1.254 . S
C119 O115 1.269 1_545 S
C120 O121 1.249 . S
C120 O122 1.270 . S
O121 Zn113 1.943 1_565 S
O121 C120 1.249 . S
O122 Zn112 2.067 . S
O122 C120 1.270 . S
C123 O116 1.262 . S
C123 O124 1.232 . S
O124 C123 1.232 . S
C125 O117 1.260 1_545 S
C125 O118 1.257 . S
Zn126 O129 2.031 . S
Zn126 O131 2.049 . S
Zn126 O136 2.067 . S
Zn127 O128 1.962 . S
Zn127 O130 1.986 . S
Zn127 O132 1.996 . S
Zn127 O135 1.943 . S
O128 Zn127 1.962 . S
O128 C133 1.254 . S
O129 Zn126 2.031 . S
O129 C133 1.269 . S
O130 Zn127 1.986 . S
O130 C137 1.262 . S
O131 Zn126 2.049 . S
O131 C139 1.260 . S
O132 Zn127 1.996 . S
O132 C139 1.257 . S
C133 O128 1.254 . S
C133 O129 1.269 . S
C134 O135 1.249 . S
C134 O136 1.270 . S
O135 Zn127 1.943 . S
O135 C134 1.249 . S
O136 Zn126 2.067 . S
O136 C134 1.270 . S
C137 O130 1.262 . S
C137 O138 1.232 . S
O138 C137 1.232 . S
C139 O131 1.260 . S
C139 O132 1.257 . S
Zn140 O143 2.031 . S
Zn140 O145 2.049 . S
Zn140 O150 2.067 . S
Zn141 O142 1.962 . S
Zn141 O144 1.986 . S
Zn141 O146 1.996 . S
Zn141 O149 1.943 1_565 S
O142 Zn141 1.962 . S
O142 C147 1.254 1_565 S
O143 Zn140 2.031 . S
O143 C147 1.269 . S
O144 Zn141 1.986 . S
O144 C151 1.262 . S
O145 Zn140 2.049 . S
O145 C153 1.206 1_545 S
O146 Zn141 1.996 . S
O146 C153 1.290 . S
C147 O142 1.254 1_545 S
C147 O143 1.269 . S
C148 O149 1.249 . S
C148 O150 1.270 . S
O149 Zn141 1.943 1_545 S
O149 C148 1.249 . S
O150 Zn140 2.067 . S
O150 C148 1.270 . S
C151 O144 1.262 . S
C151 O152 1.232 . S
O152 C151 1.232 . S
C153 O145 1.206 1_565 S
C153 O146 1.290 . S
Zn154 O157 2.031 1_554 S
Zn154 O159 2.049 . S
Zn154 O164 2.067 . S
Zn155 O156 1.962 1_554 S
Zn155 O158 1.986 . S
Zn155 O160 1.996 . S
Zn155 O163 1.943 . S
O156 Zn155 1.962 1_556 S
O156 C161 1.254 . S
O157 Zn154 2.031 1_556 S
O157 C161 1.269 . S
O158 Zn155 1.986 . S
O158 C165 1.262 . S
O159 Zn154 2.049 . S
O159 C167 1.260 . S
O160 Zn155 1.996 . S
O160 C167 1.257 . S
C161 O156 1.254 . S
C161 O157 1.269 . S
C162 O163 1.249 . S
C162 O164 1.270 . S
O163 Zn155 1.943 . S
O163 C162 1.249 . S
O164 Zn154 2.067 . S
O164 C162 1.270 . S
C165 O158 1.262 . S
C165 O166 1.232 1_554 S
O166 C165 1.232 1_556 S
C167 O159 1.260 . S
C167 O160 1.257 . S
Zn168 O171 2.031 1_554 S
Zn168 O173 2.049 . S
Zn168 O178 2.067 . S
Zn169 O170 1.962 1_554 S
Zn169 O172 1.986 . S
Zn169 O174 1.996 . S
Zn169 O177 1.943 . S
O170 Zn169 1.962 1_556 S
O170 C175 1.254 . S
O171 Zn168 2.031 1_556 S
O171 C175 1.269 . S
O172 Zn169 1.986 . S
O172 C179 1.262 . S
O173 Zn168 2.049 . S
O173 C181 1.260 . S
O174 Zn169 1.996 . S
O174 C181 1.257 . S
C175 O170 1.254 . S
C175 O171 1.269 . S
C176 O177 1.249 . S
C176 O178 1.270 . S
O177 Zn169 1.943 . S
O177 C176 1.249 . S
O178 Zn168 2.067 . S
O178 C176 1.270 . S
C179 O172 1.262 . S
C179 O180 1.278 . S
O180 C179 1.278 . S
C181 O173 1.260 . S
C181 O174 1.257 . S
Zn182 O185 2.031 1_554 S
Zn182 O187 2.049 . S
Zn182 O192 2.067 . S
Zn183 O184 1.962 1_554 S
Zn183 O186 1.986 . S
Zn183 O188 1.996 . S
Zn183 O191 1.943 . S
O184 Zn183 1.962 1_556 S
O184 C189 1.254 . S
O185 Zn182 2.031 1_556 S
O185 C189 1.269 . S
O186 Zn183 1.986 . S
O186 C193 1.262 . S
O187 Zn182 2.049 . S
O187 C195 1.260 . S
O188 Zn183 1.996 . S
O188 C195 1.257 . S
C189 O184 1.254 . S
C189 O185 1.269 . S
C190 O191 1.249 . S
C190 O192 1.270 . S
O191 Zn183 1.943 . S
O191 C190 1.249 . S
O192 Zn182 2.067 . S
O192 C190 1.270 . S
C193 O186 1.262 . S
C193 O194 1.232 1_554 S
O194 C193 1.232 1_556 S
C195 O187 1.260 . S
C195 O188 1.257 . S
Zn196 O199 2.031 . S
Zn196 O201 2.049 . S
Zn196 O206 2.067 . S
Zn197 O198 1.962 . S
Zn197 O200 1.986 . S
Zn197 O202 1.996 . S
Zn197 O205 1.943 . S
O198 Zn197 1.962 . S
O198 C203 1.254 . S
O199 Zn196 2.031 . S
O199 C203 1.269 . S
O200 Zn197 1.986 . S
O200 C207 1.262 . S
O201 Zn196 2.049 . S
O201 C209 1.260 . S
O202 Zn197 1.996 . S
O202 C209 1.257 . S
C203 O198 1.254 . S
C203 O199 1.269 . S
C204 O205 1.249 . S
C204 O206 1.270 . S
O205 Zn197 1.943 . S
O205 C204 1.249 . S
O206 Zn196 2.067 . S
O206 C204 1.270 . S
C207 O200 1.262 . S
C207 O208 1.232 . S
O208 C207 1.232 . S
C209 O201 1.260 . S
C209 O202 1.257 . S
Zn210 O213 2.031 . S
Zn210 O215 2.049 . S
Zn210 O220 2.067 . S
Zn211 O212 1.962 . S
Zn211 O214 1.986 . S
Zn211 O216 1.996 . S
Zn211 O219 1.943 . S
O212 Zn211 1.962 . S
O212 C217 1.254 . S
O213 Zn210 2.031 . S
O213 C217 1.269 . S
O214 Zn211 1.986 . S
O214 C221 1.262 . S
O215 Zn210 2.049 . S
O215 C223 1.260 . S
O216 Zn211 1.996 . S
O216 C223 1.257 . S
C217 O212 1.254 . S
C217 O213 1.269 . S
C218 O219 1.249 . S
C218 O220 1.270 . S
O219 Zn211 1.943 . S
O219 C218 1.249 . S
O220 Zn210 2.067 . S
O220 C218 1.270 . S
C221 O214 1.262 . S
C221 O222 1.232 . S
O222 C221 1.232 . S
C223 O215 1.260 . S
C223 O216 1.257 . S
Zn224 O227 2.031 . S
Zn224 O229 2.049 . S
Zn224 O234 2.067 . S
Zn225 O226 1.962 . S
Zn225 O228 1.986 . S
Zn225 O230 1.996 . S
Zn225 O233 1.943 . S
O226 Zn225 1.962 . S
O226 C231 1.254 . S
O227 Zn224 2.031 . S
O227 C231 1.269 . S
O228 Zn225 1.986 . S
O228 C235 1.262 . S
O229 Zn224 2.049 . S
O229 C237 1.260 . S
O230 Zn225 1.996 . S
O230 C237 1.257 . S
C231 O226 1.254 . S
C231 O227 1.269 . S
C232 O233 1.249 . S
C232 O234 1.270 . S
O233 Zn225 1.943 . S
O233 C232 1.249 . S
O234 Zn224 2.067 . S
O234 C232 1.270 . S
C235 O228 1.262 . S
C235 O236 1.232 . S
O236 C235 1.232 . S
C237 O229 1.260 . S
C237 O230 1.257 . S
Zn238 O241 2.031 . S
Zn238 O243 2.049 . S
Zn238 O248 2.067 . S
Zn239 O240 1.962 . S
Zn239 O242 1.986 . S
Zn239 O244 1.996 . S
Zn239 O247 1.943 . S
O240 Zn239 1.962 . S
O240 C245 1.254 . S
O241 Zn238 2.031 . S
O241 C245 1.269 . S
O242 Zn239 1.986 . S
O242 C249 1.262 . S
O243 Zn238 2.049 . S
O243 C251 1.260 . S
O244 Zn239 1.996 . S
O244 C251 1.257 . S
C245 O240 1.254 . S
C245 O241 1.269 . S
C246 O247 1.249 . S
C246 O248 1.270 . S
O247 Zn239 1.943 . S
O247 C246 1.249 . S
O248 Zn238 2.067 . S
O248 C246 1.270 . S
C249 O242 1.262 . S
C249 O250 1.232 . S
O250 C249 1.232 . S
C251 O243 1.260 . S
C251 O244 1.257 . S
Zn252 O255 2.031 . S
Zn252 O257 2.049 . S
Zn252 O262 2.067 . S
Zn253 O254 1.962 . S
Zn253 O256 1.986 . S
Zn253 O258 1.996 . S
Zn253 O261 1.943 . S
O254 Zn253 1.962 . S
O254 C259 1.254 . S
O255 Zn252 2.031 . S
O255 C259 1.269 . S
O256 Zn253 1.986 . S
O256 C263 1.262 . S
O257 Zn252 2.049 . S
O257 C265 1.260 . S
O258 Zn253 1.996 . S
O258 C265 1.257 . S
C259 O254 1.254 . S
C259 O255 1.269 . S
C260 O261 1.249 . S
C260 O262 1.270 . S
O261 Zn253 1.943 . S
O261 C260 1.249 . S
O262 Zn252 2.067 . S
O262 C260 1.270 . S
C263 O256 1.262 . S
C263 O264 1.232 . S
O264 C263 1.232 . S
C265 O257 1.260 . S
C265 O258 1.257 . S
Zn266 O269 2.031 . S
Zn266 O271 2.049 . S
Zn266 O276 2.067 . S
Zn267 O268 1.962 . S
Zn267 O270 1.986 . S
Zn267 O272 1.996 . S
Zn267 O275 1.943 . S
O268 Zn267 1.962 . S
O268 C273 1.254 . S
O269 Zn266 2.031 . S
O269 C273 1.269 . S
O270 Zn267 1.986 . S
O270 C277 1.262 . S
O271 Zn266 2.049 . S
O271 C279 1.260 . S
O272 Zn267 1.996 . S
O272 C279 1.257 . S
C273 O268 1.254 . S
C273 O269 1.269 . S
C274 O275 1.249 . S
C274 O276 1.270 . S
O275 Zn267 1.943 . S
O275 C274 1.249 . S
O276 Zn266 2.067 . S
O276 C274 1.270 . S
C277 O270 1.262 . S
C277 O278 1.232 . S
O278 C277 1.232 . S
C279 O271 1.260 . S
C279 O272 1.257 . S
Zn280 O283 2.031 1_554 S
Zn280 O285 2.049 . S
Zn280 O290 2.067 . S
Zn281 O282 1.962 1_554 S
Zn281 O284 1.986 . S
Zn281 O286 1.996 . S
Zn281 O289 1.943 . S
O282 Zn281 1.962 1_556 S
O282 C287 1.254 . S
O283 Zn280 2.031 1_556 S
O283 C287 1.269 . S
O284 Zn281 1.986 . S
O284 C291 1.262 . S
O285 Zn280 2.049 . S
O285 C293 1.260 . S
O286 Zn281 1.996 . S
O286 C293 1.257 . S
C287 O282 1.254 . S
C287 O283 1.269 . S
C288 O289 1.249 . S
C288 O290 1.270 . S
O289 Zn281 1.943 . S
O289 C288 1.249 . S
O290 Zn280 2.067 . S
O290 C288 1.270 . S
C291 O284 1.262 . S
C291 O292 1.232 1_554 S
O292 C291 1.232 1_556 S
C293 O285 1.260 . S
C293 O286 1.257 . S
Zn294 O297 2.031 . S
Zn294 O299 2.049 . S
Zn294 O304 2.067 . S
Zn295 O296 1.962 . S
Zn295 O298 1.986 . S
Zn295 O300 1.996 . S
Zn295 O303 1.943 . S
O296 Zn295 1.962 . S
O296 C301 1.254 . S
O297 Zn294 2.031 . S
O297 C301 1.269 . S
O298 Zn295 1.986 . S
O298 C305 1.262 . S
O299 Zn294 2.049 . S
O299 C307 1.260 . S
O300 Zn295 1.996 . S
O300 C307 1.257 . S
C301 O296 1.254 . S
C301 O297 1.269 . S
C302 O303 1.249 . S
C302 O304 1.270 . S
O303 Zn295 1.943 . S
O303 C302 1.249 . S
O304 Zn294 2.067 . S
O304 C302 1.270 . S
C305 O298 1.262 . S
C305 O306 1.232 . S
O306 C305 1.232 . S
C307 O299 1.260 . S
C307 O300 1.257 . S
Zn308 O311 2.031 . S
Zn308 O313 2.049 . S
Zn308 O318 2.067 . S
Zn309 O310 1.962 . S
Zn309 O312 1.986 . S
Zn309 O314 1.996 . S
Zn309 O317 1.943 . S
O310 Zn309 1.962 . S
O310 C315 1.254 . S
O311 Zn308 2.031 . S
O311 C315 1.269 . S
O312 Zn309 1.986 . S
O312 C319 1.262 . S
O313 Zn308 2.049 . S
O313 C321 1.260 . S
O314 Zn309 1.996 . S
O314 C321 1.257 . S
C315 O310 1.254 . S
C315 O311 1.269 . S
C316 O317 1.249 . S
C316 O318 1.270 . S
O317 Zn309 1.943 . S
O317 C316 1.249 . S
O318 Zn308 2.067 . S
O318 C316 1.270 . S
C319 O312 1.262 . S
C319 O320 1.232 . S
O320 C319 1.232 . S
C321 O313 1.260 . S
C321 O314 1.257 . S
Zn322 O325 2.031 . S
Zn322 O327 2.049 . S
Zn322 O332 2.067 . S
Zn323 O324 1.962 . S
Zn323 O326 1.986 . S
Zn323 O328 1.996 . S
Zn323 O331 1.943 . S
O324 Zn323 1.962 . S
O324 C329 1.254 . S
O325 Zn322 2.031 . S
O325 C329 1.269 . S
O326 Zn323 1.986 . S
O326 C333 1.262 . S
O327 Zn322 2.049 . S
O327 C335 1.260 . S
O328 Zn323 1.996 . S
O328 C335 1.257 . S
C329 O324 1.254 . S
C329 O325 1.269 . S
C330 O331 1.249 . S
C330 O332 1.270 . S
O331 Zn323 1.943 . S
O331 C330 1.249 . S
O332 Zn322 2.067 . S
O332 C330 1.270 . S
C333 O326 1.262 . S
C333 O334 1.232 . S
O334 C333 1.232 . S
C335 O327 1.260 . S
C335 O328 1.257 . S
La336 C338 2.928 1_454 S
La336 O356 2.521 1_454 S
La336 O357 2.628 1_455 S
La336 O358 2.554 1_554 S
La336 O359 2.757 1_554 S
La336 O360 2.470 1_554 S
La336 O365 2.482 . S
La336 O367 2.503 1_545 S
La337 C347 2.928 . S
La337 O359 2.482 1_554 S
La337 O361 2.503 . S
La337 O362 2.521 . S
La337 O363 2.628 . S
La337 O364 2.554 . S
La337 O365 2.757 . S
La337 O366 2.470 . S
C338 La336 2.928 1_656 S
C338 C339 1.503 . S
C338 O356 1.261 . S
C338 O357 1.243 1_556 S
C339 C338 1.503 . S
C339 C340 1.394 . S
C339 C344 1.373 1_556 S
C340 C339 1.394 . S
C340 C341 1.380 . S
C340 H368 0.930 . S
C341 C340 1.380 . S
C341 C342 1.376 . S
C341 H369 0.930 . S
C342 C341 1.376 . S
C342 C343 1.370 . S
C343 C342 1.370 . S
C343 C344 1.396 1_556 S
C343 H370 0.929 1_556 S
C344 C339 1.373 1_554 S
C344 C343 1.396 1_554 S
C344 H371 0.929 . S
C345 O358 1.240 . S
C345 O359 1.289 . S
C346 O360 1.258 1_554 S
C346 O361 1.256 . S
C347 La337 2.928 . S
C347 C348 1.503 . S
C347 O362 1.261 . S
C347 O363 1.243 . S
C348 C347 1.503 . S
C348 C349 1.394 . S
C348 C353 1.373 . S
C349 C348 1.394 . S
C349 C350 1.380 . S
C349 H372 0.930 . S
C350 C349 1.380 . S
C350 C351 1.376 . S
C350 H373 0.930 . S
C351 C350 1.376 . S
C351 C352 1.369 1_545 S
C352 C351 1.369 1_565 S
C352 C353 1.376 1_565 S
C352 H374 0.949 . S
C353 C348 1.373 . S
C353 C352 1.376 1_545 S
C353 H375 0.929 . S
C354 O364 1.240 . S
C354 O365 1.289 . S
C355 O366 1.258 1_565 S
C355 O367 1.256 . S
O356 La336 2.521 1_656 S
O356 C338 1.261 . S
O357 La336 2.628 1_655 S
O357 C338 1.243 1_554 S
O358 La336 2.554 1_556 S
O358 C345 1.240 . S
O359 La336 2.757 1_556 S
O359 La337 2.482 1_556 S
O359 C345 1.289 . S
O360 La336 2.470 1_556 S
O360 C346 1.258 1_556 S
O361 La337 2.503 . S
O361 C346 1.256 . S
O362 La337 2.521 . S
O362 C347 1.261 . S
O363 La337 2.628 . S
O363 C347 1.243 . S
O364 La337 2.554 . S
O364 C354 1.240 . S
O365 La336 2.482 . S
O365 La337 2.757 . S
O365 C354 1.289 . S
O366 La337 2.470 . S
O366 C355 1.258 1_545 S
O367 La336 2.503 1_565 S
O367 C355 1.256 . S
H368 C340 0.930 . S
H369 C341 0.930 . S
H370 C343 0.929 1_554 S
H371 C344 0.929 . S
H372 C349 0.930 . S
H373 C350 0.930 . S
H374 C352 0.949 . S
H375 C353 0.929 . S
La376 C378 2.928 . S
La376 O396 2.521 . S
La376 O397 2.628 . S
La376 O398 2.554 . S
La376 O399 2.757 . S
La376 O400 2.470 . S
La376 O405 2.482 . S
La376 O407 2.503 . S
La377 C387 2.928 . S
La377 O399 2.482 . S
La377 O401 2.503 . S
La377 O402 2.521 . S
La377 O403 2.628 . S
La377 O404 2.554 . S
La377 O405 2.757 . S
La377 O406 2.470 . S
C378 La376 2.928 . S
C378 C379 1.503 . S
C378 O396 1.261 . S
C378 O397 1.243 . S
C379 C378 1.503 . S
C379 C380 1.394 . S
C379 C384 1.373 . S
C380 C379 1.394 . S
C380 C381 1.380 . S
C380 H408 0.930 . S
C381 C380 1.380 . S
C381 C382 1.376 . S
C381 H409 0.930 . S
C382 C381 1.376 . S
C382 C383 1.370 . S
C383 C382 1.370 . S
C383 C384 1.396 . S
C383 H410 0.929 . S
C384 C379 1.373 . S
C384 C383 1.396 . S
C384 H411 0.929 . S
C385 O398 1.240 . S
C385 O399 1.289 . S
C386 O400 1.258 . S
C386 O401 1.256 . S
C387 La377 2.928 . S
C387 C388 1.503 . S
C387 O402 1.261 . S
C387 O403 1.243 . S
C388 C387 1.503 . S
C388 C389 1.394 . S
C388 C393 1.373 . S
C389 C388 1.394 . S
C389 C390 1.380 . S
C389 H412 0.930 . S
C390 C389 1.380 . S
C390 C391 1.376 . S
C390 H413 0.930 . S
C391 C390 1.376 . S
C391 C392 1.370 . S
C392 C391 1.370 . S
C392 C393 1.396 . S
C392 H414 0.929 . S
C393 C388 1.373 . S
C393 C392 1.396 . S
C393 H415 0.929 . S
C394 O404 1.240 . S
C394 O405 1.289 . S
C395 O406 1.258 . S
C395 O407 1.256 . S
O396 La376 2.521 . S
O396 C378 1.261 . S
O397 La376 2.628 . S
O397 C378 1.243 . S
O398 La376 2.554 . S
O398 C385 1.240 . S
O399 La376 2.757 . S
O399 La377 2.482 . S
O399 C385 1.289 . S
O400 La376 2.470 . S
O400 C386 1.258 . S
O401 La377 2.503 . S
O401 C386 1.256 . S
O402 La377 2.521 . S
O402 C387 1.261 . S
O403 La377 2.628 . S
O403 C387 1.243 . S
O404 La377 2.554 . S
O404 C394 1.240 . S
O405 La376 2.482 . S
O405 La377 2.757 . S
O405 C394 1.289 . S
O406 La377 2.470 . S
O406 C395 1.258 . S
O407 La376 2.503 . S
O407 C395 1.256 . S
H408 C380 0.930 . S
H409 C381 0.930 . S
H410 C383 0.929 . S
H411 C384 0.929 . S
H412 C389 0.930 . S
H413 C390 0.930 . S
H414 C392 0.929 . S
H415 C393 0.929 . S
La416 C418 2.928 . S
La416 O436 2.521 . S
La416 O437 2.628 . S
La416 O438 2.554 . S
La416 O439 2.757 . S
La416 O440 2.470 1_545 S
La416 O445 2.482 . S
La416 O447 2.503 . S
La417 C427 2.928 . S
La417 O439 2.482 . S
La417 O441 2.503 1_545 S
La417 O442 2.521 . S
La417 O443 2.628 . S
La417 O444 2.554 . S
La417 O445 2.757 . S
La417 O446 2.470 . S
C418 La416 2.928 . S
C418 C419 1.503 1_545 S
C418 O436 1.261 . S
C418 O437 1.243 . S
C419 C418 1.503 1_565 S
C419 C420 1.394 . S
C419 C424 1.373 . S
C420 C419 1.394 . S
C420 C421 1.380 . S
C420 H448 0.930 1_565 S
C421 C420 1.380 . S
C421 C422 1.376 . S
C421 H449 0.930 . S
C422 C421 1.376 . S
C422 C423 1.370 . S
C423 C422 1.370 . S
C423 C424 1.396 . S
C423 H450 0.929 . S
C424 C419 1.373 . S
C424 C423 1.396 . S
C424 H451 0.929 . S
C425 O438 1.240 . S
C425 O439 1.289 . S
C426 O440 1.258 . S
C426 O441 1.256 . S
C427 La417 2.928 . S
C427 C428 1.503 . S
C427 O442 1.261 . S
C427 O443 1.243 . S
C428 C427 1.503 . S
C428 C429 1.394 . S
C428 C433 1.373 . S
C429 C428 1.394 . S
C429 C430 1.380 . S
C429 H452 0.930 . S
C430 C429 1.380 . S
C430 C431 1.376 . S
C430 H453 0.930 . S
C431 C430 1.376 . S
C431 C432 1.370 . S
C432 C431 1.370 . S
C432 C433 1.396 . S
C432 H454 0.929 . S
C433 C428 1.373 . S
C433 C432 1.396 . S
C433 H455 0.929 . S
C434 O444 1.240 . S
C434 O445 1.289 . S
C435 O446 1.258 . S
C435 O447 1.256 . S
O436 La416 2.521 . S
O436 C418 1.261 . S
O437 La416 2.628 . S
O437 C418 1.243 . S
O438 La416 2.554 . S
O438 C425 1.240 . S
O439 La416 2.757 . S
O439 La417 2.482 . S
O439 C425 1.289 . S
O440 La416 2.470 1_565 S
O440 C426 1.258 . S
O441 La417 2.503 1_565 S
O441 C426 1.256 . S
O442 La417 2.521 . S
O442 C427 1.261 . S
O443 La417 2.628 . S
O443 C427 1.243 . S
O444 La417 2.554 . S
O444 C434 1.240 . S
O445 La416 2.482 . S
O445 La417 2.757 . S
O445 C434 1.289 . S
O446 La417 2.470 . S
O446 C435 1.258 . S
O447 La416 2.503 . S
O447 C435 1.256 . S
H448 C420 0.930 1_545 S
H449 C421 0.930 . S
H450 C423 0.929 . S
H451 C424 0.929 . S
H452 C429 0.930 . S
H453 C430 0.930 . S
H454 C432 0.929 . S
H455 C433 0.929 . S
La456 C458 2.928 . S
La456 O476 2.521 . S
La456 O477 2.628 . S
La456 O478 2.554 . S
La456 O479 2.757 . S
La456 O480 2.470 . S
La456 O485 2.482 . S
La456 O487 2.503 . S
La457 C467 2.928 . S
La457 O479 2.482 . S
La457 O481 2.503 . S
La457 O482 2.521 . S
La457 O483 2.628 . S
La457 O484 2.554 . S
La457 O485 2.757 . S
La457 O486 2.470 . S
C458 La456 2.928 . S
C458 C459 1.503 . S
C458 O476 1.261 . S
C458 O477 1.243 . S
C459 C458 1.503 . S
C459 C460 1.394 . S
C459 C464 1.373 . S
C460 C459 1.394 . S
C460 C461 1.380 . S
C460 H488 0.930 . S
C461 C460 1.380 . S
C461 C462 1.376 . S
C461 H489 0.930 . S
C462 C461 1.376 . S
C462 C463 1.370 . S
C463 C462 1.370 . S
C463 C464 1.396 . S
C463 H490 0.929 . S
C464 C459 1.373 . S
C464 C463 1.396 . S
C464 H491 0.929 . S
C465 O478 1.240 . S
C465 O479 1.289 . S
C466 O480 1.258 . S
C466 O481 1.256 . S
C467 La457 2.928 . S
C467 C468 1.503 . S
C467 O482 1.261 . S
C467 O483 1.243 . S
C468 C467 1.503 . S
C468 C469 1.394 . S
C468 C473 1.373 . S
C469 C468 1.394 . S
C469 C470 1.380 . S
C469 H492 0.930 . S
C470 C469 1.380 . S
C470 C471 1.376 . S
C470 H493 0.930 . S
C471 C470 1.376 . S
C471 C472 1.370 . S
C472 C471 1.370 . S
C472 C473 1.396 . S
C472 H494 0.929 . S
C473 C468 1.373 . S
C473 C472 1.396 . S
C473 H495 0.929 . S
C474 O484 1.240 . S
C474 O485 1.289 . S
C475 O486 1.258 . S
C475 O487 1.256 . S
O476 La456 2.521 . S
O476 C458 1.261 . S
O477 La456 2.628 . S
O477 C458 1.243 . S
O478 La456 2.554 . S
O478 C465 1.240 . S
O479 La456 2.757 . S
O479 La457 2.482 . S
O479 C465 1.289 . S
O480 La456 2.470 . S
O480 C466 1.258 . S
O481 La457 2.503 . S
O481 C466 1.256 . S
O482 La457 2.521 . S
O482 C467 1.261 . S
O483 La457 2.628 . S
O483 C467 1.243 . S
O484 La457 2.554 . S
O484 C474 1.240 . S
O485 La456 2.482 . S
O485 La457 2.757 . S
O485 C474 1.289 . S
O486 La457 2.470 . S
O486 C475 1.258 . S
O487 La456 2.503 . S
O487 C475 1.256 . S
H488 C460 0.930 . S
H489 C461 0.930 . S
H490 C463 0.929 . S
H491 C464 0.929 . S
H492 C469 0.930 . S
H493 C470 0.930 . S
H494 C472 0.929 . S
H495 C473 0.929 . S
La496 C498 2.928 . S
La496 O516 2.521 . S
La496 O517 2.628 . S
La496 O518 2.554 . S
La496 O519 2.757 . S
La496 O520 2.470 . S
La496 O525 2.482 . S
La496 O527 2.503 . S
La497 C507 2.928 1_545 S
La497 O519 2.482 . S
La497 O521 2.503 . S
La497 O522 2.521 1_545 S
La497 O523 2.628 1_545 S
La497 O524 2.554 . S
La497 O525 2.757 . S
La497 O526 2.470 . S
C498 La496 2.928 . S
C498 C499 1.503 . S
C498 O516 1.261 . S
C498 O517 1.243 . S
C499 C498 1.503 . S
C499 C500 1.394 . S
C499 C504 1.373 . S
C500 C499 1.394 . S
C500 C501 1.380 . S
C500 H528 0.930 . S
C501 C500 1.380 . S
C501 C502 1.376 . S
C501 H529 0.930 . S
C502 C501 1.376 . S
C502 C503 1.370 . S
C503 C502 1.370 . S
C503 C504 1.396 . S
C503 H530 0.929 . S
C504 C499 1.373 . S
C504 C503 1.396 . S
C504 H531 0.929 . S
C505 O518 1.240 . S
C505 O519 1.289 . S
C506 O520 1.258 . S
C506 O521 1.256 . S
C507 La497 2.928 1_565 S
C507 C508 1.503 . S
C507 O522 1.261 . S
C507 O523 1.243 . S
C508 C507 1.503 . S
C508 C509 1.394 . S
C508 C513 1.373 . S
C509 C508 1.394 . S
C509 C510 1.380 . S
C509 H532 0.930 . S
C510 C509 1.380 . S
C510 C511 1.376 . S
C510 H533 0.930 . S
C511 C510 1.376 . S
C511 C512 1.370 . S
C512 C511 1.370 . S
C512 C513 1.396 . S
C512 H534 0.929 . S
C513 C508 1.373 . S
C513 C512 1.396 . S
C513 H535 0.929 . S
C514 O524 1.240 . S
C514 O525 1.289 . S
C515 O526 1.258 . S
C515 O527 1.256 . S
O516 La496 2.521 . S
O516 C498 1.261 . S
O517 La496 2.628 . S
O517 C498 1.243 . S
O518 La496 2.554 . S
O518 C505 1.240 . S
O519 La496 2.757 . S
O519 La497 2.482 . S
O519 C505 1.289 . S
O520 La496 2.470 . S
O520 C506 1.258 . S
O521 La497 2.503 . S
O521 C506 1.256 . S
O522 La497 2.521 1_565 S
O522 C507 1.261 . S
O523 La497 2.628 1_565 S
O523 C507 1.243 . S
O524 La497 2.554 . S
O524 C514 1.240 . S
O525 La496 2.482 . S
O525 La497 2.757 . S
O525 C514 1.289 . S
O526 La497 2.470 . S
O526 C515 1.258 . S
O527 La496 2.503 . S
O527 C515 1.256 . S
H528 C500 0.930 . S
H529 C501 0.930 . S
H530 C503 0.929 . S
H531 C504 0.929 . S
H532 C509 0.930 . S
H533 C510 0.930 . S
H534 C512 0.929 . S
H535 C513 0.929 . S
La536 C538 2.928 . S
La536 O556 2.521 . S
La536 O557 2.628 . S
La536 O558 2.554 . S
La536 O559 2.757 . S
La536 O560 2.470 . S
La536 O565 2.482 . S
La536 O567 2.503 . S
La537 C547 2.928 . S
La537 O559 2.482 . S
La537 O561 2.503 . S
La537 O562 2.521 . S
La537 O563 2.628 . S
La537 O564 2.554 . S
La537 O565 2.757 . S
La537 O566 2.470 . S
C538 La536 2.928 . S
C538 C539 1.503 . S
C538 O556 1.261 . S
C538 O557 1.243 . S
C539 C538 1.503 . S
C539 C540 1.394 . S
C539 C544 1.373 . S
C540 C539 1.394 . S
C540 C541 1.380 . S
C540 H568 0.930 . S
C541 C540 1.380 . S
C541 C542 1.376 . S
C541 H569 0.930 . S
C542 C541 1.376 . S
C542 C543 1.370 . S
C543 C542 1.370 . S
C543 C544 1.396 . S
C543 H570 0.929 . S
C544 C539 1.373 . S
C544 C543 1.396 . S
C544 H571 0.929 . S
C545 O558 1.240 . S
C545 O559 1.289 . S
C546 O560 1.258 . S
C546 O561 1.256 . S
C547 La537 2.928 . S
C547 C548 1.503 . S
C547 O562 1.261 . S
C547 O563 1.243 . S
C548 C547 1.503 . S
C548 C549 1.394 . S
C548 C553 1.373 . S
C549 C548 1.394 . S
C549 C550 1.380 . S
C549 H572 0.930 . S
C550 C549 1.380 . S
C550 C551 1.376 . S
C550 H573 0.930 . S
C551 C550 1.376 . S
C551 C552 1.370 . S
C552 C551 1.370 . S
C552 C553 1.396 . S
C552 H574 0.929 . S
C553 C548 1.373 . S
C553 C552 1.396 . S
C553 H575 0.929 . S
C554 O564 1.240 . S
C554 O565 1.289 . S
C555 O566 1.258 . S
C555 O567 1.256 . S
O556 La536 2.521 . S
O556 C538 1.261 . S
O557 La536 2.628 . S
O557 C538 1.243 . S
O558 La536 2.554 . S
O558 C545 1.240 . S
O559 La536 2.757 . S
O559 La537 2.482 . S
O559 C545 1.289 . S
O560 La536 2.470 . S
O560 C546 1.258 . S
O561 La537 2.503 . S
O561 C546 1.256 . S
O562 La537 2.521 . S
O562 C547 1.261 . S
O563 La537 2.628 . S
O563 C547 1.243 . S
O564 La537 2.554 . S
O564 C554 1.240 . S
O565 La536 2.482 . S
O565 La537 2.757 . S
O565 C554 1.289 . S
O566 La537 2.470 . S
O566 C555 1.258 . S
O567 La536 2.503 . S
O567 C555 1.256 . S
H568 C540 0.930 . S
H569 C541 0.930 . S
H570 C543 0.929 . S
H571 C544 0.929 . S
H572 C549 0.930 . S
H573 C550 0.930 . S
H574 C552 0.929 . S
H575 C553 0.929 . S
La576 C578 2.928 . S
La576 O596 2.521 . S
La576 O597 2.628 . S
La576 O598 2.554 1_545 S
La576 O599 2.757 1_554 S
La576 O600 2.470 . S
La576 O605 2.482 . S
La576 O607 2.503 . S
La577 C587 2.928 . S
La577 O599 2.482 . S
La577 O601 2.503 . S
La577 O602 2.521 . S
La577 O603 2.628 . S
La577 O604 2.554 . S
La577 O605 2.757 1_556 S
La577 O606 2.470 . S
C578 La576 2.928 . S
C578 C579 1.503 . S
C578 O596 1.261 . S
C578 O597 1.243 . S
C579 C578 1.503 . S
C579 C580 1.394 1_545 S
C579 C584 1.373 . S
C580 C579 1.394 1_565 S
C580 C581 1.380 . S
C580 H608 0.930 . S
C581 C580 1.380 . S
C581 C582 1.368 1_565 S
C581 H609 0.930 . S
C582 C581 1.368 1_545 S
C582 C583 1.382 . S
C583 C582 1.382 . S
C583 C584 1.396 . S
C583 H610 0.929 . S
C584 C579 1.373 . S
C584 C583 1.396 . S
C584 H611 0.929 . S
C585 O598 1.240 1_546 S
C585 O599 1.289 . S
C586 O600 1.258 . S
C586 O601 1.256 1_554 S
C587 La577 2.928 . S
C587 C588 1.503 . S
C587 O602 1.261 . S
C587 O603 1.243 . S
C588 C587 1.503 . S
C588 C589 1.394 . S
C588 C593 1.373 . S
C589 C588 1.394 . S
C589 C590 1.380 . S
C589 H612 0.930 . S
C590 C589 1.380 . S
C590 C591 1.376 . S
C590 H613 0.930 . S
C591 C590 1.376 . S
C591 C592 1.370 . S
C592 C591 1.370 . S
C592 C593 1.396 . S
C592 H614 0.929 . S
C593 C588 1.373 . S
C593 C592 1.396 . S
C593 H615 0.929 . S
C594 O604 1.240 1_554 S
C594 O605 1.289 . S
C595 O606 1.258 1_554 S
C595 O607 1.256 . S
O596 La576 2.521 . S
O596 C578 1.261 . S
O597 La576 2.628 . S
O597 C578 1.243 . S
O598 La576 2.554 1_565 S
O598 C585 1.240 1_564 S
O599 La576 2.757 1_556 S
O599 La577 2.482 . S
O599 C585 1.289 . S
O600 La576 2.470 . S
O600 C586 1.258 . S
O601 La577 2.503 . S
O601 C586 1.256 1_556 S
O602 La577 2.521 . S
O602 C587 1.261 . S
O603 La577 2.628 . S
O603 C587 1.243 . S
O604 La577 2.554 . S
O604 C594 1.240 1_556 S
O605 La576 2.482 . S
O605 La577 2.757 1_554 S
O605 C594 1.289 . S
O606 La577 2.470 . S
O606 C595 1.258 1_556 S
O607 La576 2.503 . S
O607 C595 1.256 . S
H608 C580 0.930 . S
H609 C581 0.930 . S
H610 C583 0.929 . S
H611 C584 0.929 . S
H612 C589 0.930 . S
H613 C590 0.930 . S
H614 C592 0.929 . S
H615 C593 0.929 . S
La616 C618 2.928 . S
La616 O636 2.521 . S
La616 O637 2.628 . S
La616 O638 2.554 . S
La616 O639 2.757 . S
La616 O640 2.470 . S
La616 O645 2.482 . S
La616 O647 2.503 . S
La617 C627 2.928 . S
La617 O639 2.482 . S
La617 O641 2.503 . S
La617 O642 2.521 . S
La617 O643 2.628 . S
La617 O644 2.554 . S
La617 O645 2.757 . S
La617 O646 2.470 . S
C618 La616 2.928 . S
C618 C619 1.503 . S
C618 O636 1.261 . S
C618 O637 1.243 . S
C619 C618 1.503 . S
C619 C620 1.394 . S
C619 C624 1.373 . S
C620 C619 1.394 . S
C620 C621 1.380 . S
C620 H648 0.930 . S
C621 C620 1.380 . S
C621 C622 1.376 . S
C621 H649 0.930 . S
C622 C621 1.376 . S
C622 C623 1.370 . S
C623 C622 1.370 . S
C623 C624 1.396 . S
C623 H650 0.929 . S
C624 C619 1.373 . S
C624 C623 1.396 . S
C624 H651 0.929 . S
C625 O638 1.240 . S
C625 O639 1.289 . S
C626 O640 1.258 . S
C626 O641 1.256 . S
C627 La617 2.928 . S
C627 C628 1.503 . S
C627 O642 1.261 . S
C627 O643 1.243 . S
C628 C627 1.503 . S
C628 C629 1.394 . S
C628 C633 1.373 . S
C629 C628 1.394 . S
C629 C630 1.380 . S
C629 H652 0.930 . S
C630 C629 1.380 . S
C630 C631 1.376 . S
C630 H653 0.930 . S
C631 C630 1.376 . S
C631 C632 1.370 . S
C632 C631 1.370 . S
C632 C633 1.396 . S
C632 H654 0.929 . S
C633 C628 1.373 . S
C633 C632 1.396 . S
C633 H655 0.929 . S
C634 O644 1.240 . S
C634 O645 1.289 . S
C635 O646 1.258 . S
C635 O647 1.256 . S
O636 La616 2.521 . S
O636 C618 1.261 . S
O637 La616 2.628 . S
O637 C618 1.243 . S
O638 La616 2.554 . S
O638 C625 1.240 . S
O639 La616 2.757 . S
O639 La617 2.482 . S
O639 C625 1.289 . S
O640 La616 2.470 . S
O640 C626 1.258 . S
O641 La617 2.503 . S
O641 C626 1.256 . S
O642 La617 2.521 . S
O642 C627 1.261 . S
O643 La617 2.628 . S
O643 C627 1.243 . S
O644 La617 2.554 . S
O644 C634 1.240 . S
O645 La616 2.482 . S
O645 La617 2.757 . S
O645 C634 1.289 . S
O646 La617 2.470 . S
O646 C635 1.258 . S
O647 La616 2.503 . S
O647 C635 1.256 . S
H648 C620 0.930 . S
H649 C621 0.930 . S
H650 C623 0.929 . S
H651 C624 0.929 . S
H652 C629 0.930 . S
H653 C630 0.930 . S
H654 C632 0.929 . S
H655 C633 0.929 . S
La656 C658 2.928 1_554 S
La656 O676 2.521 . S
La656 O677 2.628 1_554 S
La656 O678 2.554 . S
La656 O679 2.757 . S
La656 O680 2.470 1_554 S
La656 O685 2.482 . S
La656 O687 2.503 . S
La657 C667 2.893 1_556 S
La657 O679 2.459 1_556 S
La657 O681 2.554 . S
La657 O682 2.502 1_556 S
La657 O683 2.584 1_556 S
La657 O684 2.558 . S
La657 O685 2.764 1_556 S
La657 O686 2.417 1_556 S
C658 La656 2.928 1_556 S
C658 C659 1.503 . S
C658 O676 1.261 1_556 S
C658 O677 1.243 . S
C659 C658 1.503 . S
C659 C660 1.394 . S
C659 C664 1.373 . S
C660 C659 1.394 . S
C660 C661 1.380 . S
C660 H688 0.950 . S
C661 C660 1.380 . S
C661 C662 1.376 . S
C661 H689 0.930 . S
C662 C661 1.376 . S
C662 C663 1.370 . S
C663 C662 1.370 . S
C663 C664 1.396 . S
C663 H690 0.929 . S
C664 C659 1.373 . S
C664 C663 1.396 . S
C664 H691 0.929 . S
C665 O678 1.240 . S
C665 O679 1.289 . S
C666 O680 1.258 . S
C666 O681 1.256 . S
C667 La657 2.893 1_554 S
C667 C668 1.503 . S
C667 O682 1.261 . S
C667 O683 1.243 . S
C668 C667 1.503 . S
C668 C669 1.394 . S
C668 C673 1.373 . S
C669 C668 1.394 . S
C669 C670 1.380 . S
C669 H692 0.930 . S
C670 C669 1.380 . S
C670 C671 1.376 . S
C670 H693 0.930 . S
C671 C670 1.376 . S
C671 C672 1.370 . S
C672 C671 1.370 . S
C672 C673 1.396 . S
C672 H694 0.929 . S
C673 C668 1.373 . S
C673 C672 1.396 . S
C673 H695 0.929 . S
C674 O684 1.241 1_554 S
C674 O685 1.289 . S
C675 O686 1.258 . S
C675 O687 1.256 . S
O676 La656 2.521 . S
O676 C658 1.261 1_554 S
O677 La656 2.628 1_556 S
O677 C658 1.243 . S
O678 La656 2.554 . S
O678 C665 1.240 . S
O679 La656 2.757 . S
O679 La657 2.459 1_554 S
O679 C665 1.289 . S
O680 La656 2.470 1_556 S
O680 C666 1.258 . S
O681 La657 2.554 . S
O681 C666 1.256 . S
O682 La657 2.502 1_554 S
O682 C667 1.261 . S
O683 La657 2.584 1_554 S
O683 C667 1.243 . S
O684 La657 2.558 . S
O684 C674 1.241 1_556 S
O685 La656 2.482 . S
O685 La657 2.764 1_554 S
O685 C674 1.289 . S
O686 La657 2.417 1_554 S
O686 C675 1.258 . S
O687 La656 2.503 . S
O687 C675 1.256 . S
H688 C660 0.950 . S
H689 C661 0.930 . S
H690 C663 0.929 . S
H691 C664 0.929 . S
H692 C669 0.930 . S
H693 C670 0.930 . S
H694 C672 0.929 . S
H695 C673 0.929 . S
La696 C698 2.928 . S
La696 O716 2.521 . S
La696 O717 2.628 . S
La696 O718 2.554 . S
La696 O719 2.757 . S
La696 O720 2.470 . S
La696 O725 2.482 . S
La696 O727 2.503 . S
La697 C707 2.928 . S
La697 O719 2.482 . S
La697 O721 2.503 . S
La697 O722 2.521 . S
La697 O723 2.628 . S
La697 O724 2.554 . S
La697 O725 2.757 . S
La697 O726 2.470 . S
C698 La696 2.928 . S
C698 C699 1.503 . S
C698 O716 1.261 . S
C698 O717 1.243 . S
C699 C698 1.503 . S
C699 C700 1.394 . S
C699 C704 1.373 . S
C700 C699 1.394 . S
C700 C701 1.380 . S
C700 H728 0.930 . S
C701 C700 1.380 . S
C701 C702 1.376 . S
C701 H729 0.930 . S
C702 C701 1.376 . S
C702 C703 1.370 . S
C703 C702 1.370 . S
C703 C704 1.396 . S
C703 H730 0.929 . S
C704 C699 1.373 . S
C704 C703 1.396 . S
C704 H731 0.929 . S
C705 O718 1.240 . S
C705 O719 1.289 . S
C706 O720 1.258 . S
C706 O721 1.256 . S
C707 La697 2.928 . S
C707 C708 1.503 . S
C707 O722 1.261 . S
C707 O723 1.243 . S
C708 C707 1.503 . S
C708 C709 1.394 . S
C708 C713 1.373 . S
C709 C708 1.394 . S
C709 C710 1.380 . S
C709 H732 0.930 . S
C710 C709 1.380 . S
C710 C711 1.376 . S
C710 H733 0.930 . S
C711 C710 1.376 . S
C711 C712 1.370 . S
C712 C711 1.370 . S
C712 C713 1.396 . S
C712 H734 0.929 . S
C713 C708 1.373 . S
C713 C712 1.396 . S
C713 H735 0.929 . S
C714 O724 1.240 . S
C714 O725 1.289 . S
C715 O726 1.258 . S
C715 O727 1.256 . S
O716 La696 2.521 . S
O716 C698 1.261 . S
O717 La696 2.628 . S
O717 C698 1.243 . S
O718 La696 2.554 . S
O718 C705 1.240 . S
O719 La696 2.757 . S
O719 La697 2.482 . S
O719 C705 1.289 . S
O720 La696 2.470 . S
O720 C706 1.258 . S
O721 La697 2.503 . S
O721 C706 1.256 . S
O722 La697 2.521 . S
O722 C707 1.261 . S
O723 La697 2.628 . S
O723 C707 1.243 . S
O724 La697 2.554 . S
O724 C714 1.240 . S
O725 La696 2.482 . S
O725 La697 2.757 . S
O725 C714 1.289 . S
O726 La697 2.470 . S
O726 C715 1.258 . S
O727 La696 2.503 . S
O727 C715 1.256 . S
H728 C700 0.930 . S
H729 C701 0.930 . S
H730 C703 0.929 . S
H731 C704 0.929 . S
H732 C709 0.930 . S
H733 C710 0.930 . S
H734 C712 0.929 . S
H735 C713 0.929 . S
La736 C738 2.928 . S
La736 O756 2.521 . S
La736 O757 2.628 . S
La736 O758 2.554 . S
La736 O759 2.757 . S
La736 O760 2.470 . S
La736 O765 2.482 . S
La736 O767 2.503 . S
La737 C747 2.928 . S
La737 O759 2.482 . S
La737 O761 2.503 1_455 S
La737 O762 2.521 . S
La737 O763 2.628 . S
La737 O764 2.554 . S
La737 O765 2.757 . S
La737 O766 2.470 . S
C738 La736 2.928 . S
C738 C739 1.503 . S
C738 O756 1.261 . S
C738 O757 1.243 . S
C739 C738 1.503 . S
C739 C740 1.394 . S
C739 C744 1.373 1_455 S
C740 C739 1.394 . S
C740 C741 1.380 1_455 S
C740 H768 0.930 . S
C741 C740 1.380 1_655 S
C741 C742 1.376 . S
C741 H769 0.951 . S
C742 C741 1.376 . S
C742 C743 1.370 . S
C743 C742 1.370 . S
C743 C744 1.396 . S
C743 H770 0.929 . S
C744 C739 1.373 1_655 S
C744 C743 1.396 . S
C744 H771 0.929 . S
C745 O758 1.240 . S
C745 O759 1.289 . S
C746 O760 1.258 1_655 S
C746 O761 1.256 . S
C747 La737 2.928 . S
C747 C748 1.503 . S
C747 O762 1.261 . S
C747 O763 1.243 . S
C748 C747 1.503 . S
C748 C749 1.394 . S
C748 C753 1.373 . S
C749 C748 1.394 . S
C749 C750 1.380 . S
C749 H772 0.930 . S
C750 C749 1.380 . S
C750 C751 1.376 . S
C750 H773 0.930 . S
C751 C750 1.376 . S
C751 C752 1.370 . S
C752 C751 1.370 . S
C752 C753 1.396 . S
C752 H774 0.929 . S
C753 C748 1.373 . S
C753 C752 1.396 . S
C753 H775 0.929 . S
C754 O764 1.240 . S
C754 O765 1.289 . S
C755 O766 1.258 . S
C755 O767 1.256 . S
O756 La736 2.521 . S
O756 C738 1.261 . S
O757 La736 2.628 . S
O757 C738 1.243 . S
O758 La736 2.554 . S
O758 C745 1.240 . S
O759 La736 2.757 . S
O759 La737 2.482 . S
O759 C745 1.289 . S
O760 La736 2.470 . S
O760 C746 1.258 1_455 S
O761 La737 2.503 1_655 S
O761 C746 1.256 . S
O762 La737 2.521 . S
O762 C747 1.261 . S
O763 La737 2.628 . S
O763 C747 1.243 . S
O764 La737 2.554 . S
O764 C754 1.240 . S
O765 La736 2.482 . S
O765 La737 2.757 . S
O765 C754 1.289 . S
O766 La737 2.470 . S
O766 C755 1.258 . S
O767 La736 2.503 . S
O767 C755 1.256 . S
H768 C740 0.930 . S
H769 C741 0.951 . S
H770 C743 0.929 . S
H771 C744 0.929 . S
H772 C749 0.930 . S
H773 C750 0.930 . S
H774 C752 0.929 . S
H775 C753 0.929 . S
La776 C778 2.928 . S
La776 O796 2.521 . S
La776 O797 2.628 . S
La776 O798 2.554 . S
La776 O799 2.757 . S
La776 O800 2.470 . S
La776 O805 2.482 . S
La776 O807 2.503 . S
La777 C787 2.928 . S
La777 O799 2.482 . S
La777 O801 2.503 . S
La777 O802 2.521 . S
La777 O803 2.628 . S
La777 O804 2.554 . S
La777 O805 2.757 . S
La777 O806 2.470 . S
C778 La776 2.928 . S
C778 C779 1.503 . S
C778 O796 1.261 . S
C778 O797 1.243 . S
C779 C778 1.503 . S
C779 C780 1.394 . S
C779 C784 1.373 . S
C780 C779 1.394 . S
C780 C781 1.380 . S
C780 H808 0.930 . S
C781 C780 1.380 . S
C781 C782 1.376 . S
C781 H809 0.930 . S
C782 C781 1.376 . S
C782 C783 1.370 . S
C783 C782 1.370 . S
C783 C784 1.396 . S
C783 H810 0.929 . S
C784 C779 1.373 . S
C784 C783 1.396 . S
C784 H811 0.929 . S
C785 O798 1.240 . S
C785 O799 1.289 . S
C786 O800 1.258 . S
C786 O801 1.256 . S
C787 La777 2.928 . S
C787 C788 1.503 . S
C787 O802 1.261 . S
C787 O803 1.243 . S
C788 C787 1.503 . S
C788 C789 1.394 . S
C788 C793 1.373 . S
C789 C788 1.394 . S
C789 C790 1.380 . S
C789 H812 0.930 . S
C790 C789 1.380 . S
C790 C791 1.376 . S
C790 H813 0.930 . S
C791 C790 1.376 . S
C791 C792 1.370 . S
C792 C791 1.370 . S
C792 C793 1.396 . S
C792 H814 0.929 . S
C793 C788 1.373 . S
C793 C792 1.396 . S
C793 H815 0.929 . S
C794 O804 1.240 . S
C794 O805 1.289 . S
C795 O806 1.258 . S
C795 O807 1.256 . S
O796 La776 2.521 . S
O796 C778 1.261 . S
O797 La776 2.628 . S
O797 C778 1.243 . S
O798 La776 2.554 . S
O798 C785 1.240 . S
O799 La776 2.757 . S
O799 La777 2.482 . S
O799 C785 1.289 . S
O800 La776 2.470 . S
O800 C786 1.258 . S
O801 La777 2.503 . S
O801 C786 1.256 . S
O802 La777 2.521 . S
O802 C787 1.261 . S
O803 La777 2.628 . S
O803 C787 1.243 . S
O804 La777 2.554 . S
O804 C794 1.240 . S
O805 La776 2.482 . S
O805 La777 2.757 . S
O805 C794 1.289 . S
O806 La777 2.470 . S
O806 C795 1.258 . S
O807 La776 2.503 . S
O807 C795 1.256 . S
H808 C780 0.930 . S
H809 C781 0.930 . S
H810 C783 0.929 . S
H811 C784 0.929 . S
H812 C789 0.930 . S
H813 C790 0.930 . S
H814 C792 0.929 . S
H815 C793 0.929 . S
La816 C818 2.928 . S
La816 O836 2.521 . S
La816 O837 2.628 . S
La816 O838 2.554 . S
La816 O839 2.757 . S
La816 O840 2.470 . S
La816 O845 2.482 . S
La816 O847 2.503 . S
La817 C827 2.928 . S
La817 O839 2.482 . S
La817 O841 2.503 . S
La817 O842 2.521 . S
La817 O843 2.628 . S
La817 O844 2.554 . S
La817 O845 2.757 . S
La817 O846 2.470 . S
C818 La816 2.928 . S
C818 C819 1.503 . S
C818 O836 1.261 . S
C818 O837 1.243 . S
C819 C818 1.503 . S
C819 C820 1.394 . S
C819 C824 1.373 . S
C820 C819 1.394 . S
C820 C821 1.380 . S
C820 H848 0.930 . S
C821 C820 1.380 . S
C821 C822 1.376 . S
C821 H849 0.930 . S
C822 C821 1.376 . S
C822 C823 1.370 . S
C823 C822 1.370 . S
C823 C824 1.396 . S
C823 H850 0.929 . S
C824 C819 1.373 . S
C824 C823 1.396 . S
C824 H851 0.929 . S
C825 O838 1.240 . S
C825 O839 1.289 . S
C826 O840 1.258 . S
C826 O841 1.256 . S
C827 La817 2.928 . S
C827 C828 1.503 . S
C827 O842 1.261 . S
C827 O843 1.243 . S
C828 C827 1.503 . S
C828 C829 1.394 . S
C828 C833 1.373 . S
C829 C828 1.394 . S
C829 C830 1.380 . S
C829 H852 0.930 . S
C830 C829 1.380 . S
C830 C831 1.376 . S
C830 H853 0.930 . S
C831 C830 1.376 . S
C831 C832 1.370 . S
C832 C831 1.370 . S
C832 C833 1.396 . S
C832 H854 0.929 . S
C833 C828 1.373 . S
C833 C832 1.396 . S
C833 H855 0.929 . S
C834 O844 1.240 . S
C834 O845 1.289 . S
C835 O846 1.258 . S
C835 O847 1.256 . S
O836 La816 2.521 . S
O836 C818 1.261 . S
O837 La816 2.628 . S
O837 C818 1.243 . S
O838 La816 2.554 . S
O838 C825 1.240 . S
O839 La816 2.757 . S
O839 La817 2.482 . S
O839 C825 1.289 . S
O840 La816 2.470 . S
O840 C826 1.258 . S
O841 La817 2.503 . S
O841 C826 1.256 . S
O842 La817 2.521 . S
O842 C827 1.261 . S
O843 La817 2.628 . S
O843 C827 1.243 . S
O844 La817 2.554 . S
O844 C834 1.240 . S
O845 La816 2.482 . S
O845 La817 2.757 . S
O845 C834 1.289 . S
O846 La817 2.470 . S
O846 C835 1.258 . S
O847 La816 2.503 . S
O847 C835 1.256 . S
H848 C820 0.930 . S
H849 C821 0.930 . S
H850 C823 0.929 . S
H851 C824 0.929 . S
H852 C829 0.930 . S
H853 C830 0.930 . S
H854 C832 0.929 . S
H855 C833 0.929 . S
La856 C858 2.928 . S
La856 O876 2.521 . S
La856 O877 2.628 . S
La856 O878 2.554 . S
La856 O879 2.757 . S
La856 O880 2.470 . S
La856 O885 2.482 . S
La856 O887 2.503 . S
La857 C867 2.928 . S
La857 O879 2.482 . S
La857 O881 2.503 . S
La857 O882 2.521 . S
La857 O883 2.628 . S
La857 O884 2.554 . S
La857 O885 2.757 . S
La857 O886 2.470 . S
C858 La856 2.928 . S
C858 C859 1.503 . S
C858 O876 1.261 . S
C858 O877 1.243 . S
C859 C858 1.503 . S
C859 C860 1.394 . S
C859 C864 1.373 . S
C860 C859 1.394 . S
C860 C861 1.380 . S
C860 H888 0.930 . S
C861 C860 1.380 . S
C861 C862 1.376 . S
C861 H889 0.930 . S
C862 C861 1.376 . S
C862 C863 1.370 . S
C863 C862 1.370 . S
C863 C864 1.396 . S
C863 H890 0.929 . S
C864 C859 1.373 . S
C864 C863 1.396 . S
C864 H891 0.929 . S
C865 O878 1.240 . S
C865 O879 1.289 . S
C866 O880 1.258 . S
C866 O881 1.256 . S
C867 La857 2.928 . S
C867 C868 1.503 . S
C867 O882 1.261 . S
C867 O883 1.243 . S
C868 C867 1.503 . S
C868 C869 1.394 . S
C868 C873 1.373 . S
C869 C868 1.394 . S
C869 C870 1.380 . S
C869 H892 0.930 . S
C870 C869 1.380 . S
C870 C871 1.376 . S
C870 H893 0.930 . S
C871 C870 1.376 . S
C871 C872 1.370 . S
C872 C871 1.370 . S
C872 C873 1.396 . S
C872 H894 0.929 . S
C873 C868 1.373 . S
C873 C872 1.396 . S
C873 H895 0.929 . S
C874 O884 1.240 . S
C874 O885 1.289 . S
C875 O886 1.258 . S
C875 O887 1.256 . S
O876 La856 2.521 . S
O876 C858 1.261 . S
O877 La856 2.628 . S
O877 C858 1.243 . S
O878 La856 2.554 . S
O878 C865 1.240 . S
O879 La856 2.757 . S
O879 La857 2.482 . S
O879 C865 1.289 . S
O880 La856 2.470 . S
O880 C866 1.258 . S
O881 La857 2.503 . S
O881 C866 1.256 . S
O882 La857 2.521 . S
O882 C867 1.261 . S
O883 La857 2.628 . S
O883 C867 1.243 . S
O884 La857 2.554 . S
O884 C874 1.240 . S
O885 La856 2.482 . S
O885 La857 2.757 . S
O885 C874 1.289 . S
O886 La857 2.470 . S
O886 C875 1.258 . S
O887 La856 2.503 . S
O887 C875 1.256 . S
H888 C860 0.930 . S
H889 C861 0.930 . S
H890 C863 0.929 . S
H891 C864 0.929 . S
H892 C869 0.930 . S
H893 C870 0.930 . S
H894 C872 0.929 . S
H895 C873 0.929 . S
La896 C898 2.928 . S
La896 O916 2.521 . S
La896 O917 2.628 . S
La896 O918 2.554 . S
La896 O919 2.757 . S
La896 O920 2.470 . S
La896 O925 2.482 . S
La896 O927 2.503 . S
La897 C907 2.928 . S
La897 O919 2.482 . S
La897 O921 2.503 . S
La897 O922 2.521 . S
La897 O923 2.628 . S
La897 O924 2.554 . S
La897 O925 2.757 . S
La897 O926 2.470 . S
C898 La896 2.928 . S
C898 C899 1.503 . S
C898 O916 1.261 . S
C898 O917 1.243 . S
C899 C898 1.503 . S
C899 C900 1.394 . S
C899 C904 1.373 . S
C900 C899 1.394 . S
C900 C901 1.380 . S
C900 H928 0.930 . S
C901 C900 1.380 . S
C901 C902 1.376 . S
C901 H929 0.930 . S
C902 C901 1.376 . S
C902 C903 1.370 . S
C903 C902 1.370 . S
C903 C904 1.396 . S
C903 H930 0.929 . S
C904 C899 1.373 . S
C904 C903 1.396 . S
C904 H931 0.929 . S
C905 O918 1.240 . S
C905 O919 1.289 . S
C906 O920 1.258 . S
C906 O921 1.256 . S
C907 La897 2.928 . S
C907 C908 1.503 . S
C907 O922 1.261 . S
C907 O923 1.243 . S
C908 C907 1.503 . S
C908 C909 1.394 . S
C908 C913 1.373 . S
C909 C908 1.394 . S
C909 C910 1.380 . S
C909 H932 0.930 . S
C910 C909 1.380 . S
C910 C911 1.376 . S
C910 H933 0.930 . S
C911 C910 1.376 . S
C911 C912 1.370 . S
C912 C911 1.370 . S
C912 C913 1.396 . S
C912 H934 0.929 . S
C913 C908 1.373 . S
C913 C912 1.396 . S
C913 H935 0.929 . S
C914 O924 1.240 . S
C914 O925 1.289 . S
C915 O926 1.258 . S
C915 O927 1.256 . S
O916 La896 2.521 . S
O916 C898 1.261 . S
O917 La896 2.628 . S
O917 C898 1.243 . S
O918 La896 2.554 . S
O918 C905 1.240 . S
O919 La896 2.757 . S
O919 La897 2.482 . S
O919 C905 1.289 . S
O920 La896 2.470 . S
O920 C906 1.258 . S
O921 La897 2.503 . S
O921 C906 1.256 . S
O922 La897 2.521 . S
O922 C907 1.261 . S
O923 La897 2.628 . S
O923 C907 1.243 . S
O924 La897 2.554 . S
O924 C914 1.240 . S
O925 La896 2.482 . S
O925 La897 2.757 . S
O925 C914 1.289 . S
O926 La897 2.470 . S
O926 C915 1.258 . S
O927 La896 2.503 . S
O927 C915 1.256 . S
H928 C900 0.930 . S
H929 C901 0.930 . S
H930 C903 0.929 . S
H931 C904 0.929 . S
H932 C909 0.930 . S
H933 C910 0.930 . S
H934 C912 0.929 . S
H935 C913 0.929 . S
La936 C938 2.922 1_554 S
La936 O956 2.521 1_554 S
La936 O957 2.628 . S
La936 O958 2.554 1_554 S
La936 O959 2.757 1_554 S
La936 O960 2.470 1_554 S
La936 O965 2.482 . S
La936 O967 2.503 . S
La937 C947 2.928 1_455 S
La937 O959 2.482 1_554 S
La937 O961 2.503 . S
La937 O962 2.521 1_455 S
La937 O963 2.628 1_455 S
La937 O964 2.554 . S
La937 O965 2.757 . S
La937 O966 2.470 . S
C938 La936 2.922 1_556 S
C938 C939 1.515 . S
C938 O956 1.306 . S
C938 O957 1.189 1_556 S
C939 C938 1.515 . S
C939 C940 1.394 . S
C939 C944 1.373 1_556 S
C940 C939 1.394 . S
C940 C941 1.380 . S
C940 H968 0.930 . S
C941 C940 1.380 . S
C941 C942 1.376 . S
C941 H969 0.930 . S
C942 C941 1.376 . S
C942 C943 1.370 1_556 S
C943 C942 1.370 1_554 S
C943 C944 1.396 . S
C943 H970 0.929 . S
C944 C939 1.373 1_554 S
C944 C943 1.396 . S
C944 H971 0.929 . S
C945 O958 1.240 . S
C945 O959 1.289 . S
C946 O960 1.258 1_554 S
C946 O961 1.256 . S
C947 La937 2.928 1_655 S
C947 C948 1.503 . S
C947 O962 1.261 . S
C947 O963 1.243 . S
C948 C947 1.503 . S
C948 C949 1.394 . S
C948 C953 1.373 . S
C949 C948 1.394 . S
C949 C950 1.380 . S
C949 H972 0.930 . S
C950 C949 1.380 . S
C950 C951 1.376 . S
C950 H973 0.930 . S
C951 C950 1.376 . S
C951 C952 1.370 . S
C952 C951 1.370 . S
C952 C953 1.396 . S
C952 H974 0.929 . S
C953 C948 1.373 . S
C953 C952 1.396 . S
C953 H975 0.929 . S
C954 O964 1.240 . S
C954 O965 1.289 . S
C955 O966 1.258 . S
C955 O967 1.256 . S
O956 La936 2.521 1_556 S
O956 C938 1.306 . S
O957 La936 2.628 . S
O957 C938 1.189 1_554 S
O958 La936 2.554 1_556 S
O958 C945 1.240 . S
O959 La936 2.757 1_556 S
O959 La937 2.482 1_556 S
O959 C945 1.289 . S
O960 La936 2.470 1_556 S
O960 C946 1.258 1_556 S
O961 La937 2.503 . S
O961 C946 1.256 . S
O962 La937 2.521 1_655 S
O962 C947 1.261 . S
O963 La937 2.628 1_655 S
O963 C947 1.243 . S
O964 La937 2.554 . S
O964 C954 1.240 . S
O965 La936 2.482 . S
O965 La937 2.757 . S
O965 C954 1.289 . S
O966 La937 2.470 . S
O966 C955 1.258 . S
O967 La936 2.503 . S
O967 C955 1.256 . S
H968 C940 0.930 . S
H969 C941 0.930 . S
H970 C943 0.929 . S
H971 C944 0.929 . S
H972 C949 0.930 . S
H973 C950 0.930 . S
H974 C952 0.929 . S
H975 C953 0.929 . S
C976 C977 1.349 . S
C976 C978 1.327 . S
C976 H1001 0.950 . S
C977 C976 1.349 . S
C977 C993 1.349 . S
C978 C976 1.327 . S
C978 C997 1.429 . S
C978 H1002 0.950 . S
C979 C996 1.574 . S
C979 C998 1.368 . S
C979 H1003 0.949 . S
H980 C984 0.949 1_554 S
C981 C982 1.295 1_556 S
C981 C983 1.327 . S
C981 H1004 0.950 . S
C982 C981 1.295 1_554 S
C982 C994 1.378 . S
C983 C981 1.327 . S
C983 C999 1.429 . S
C983 H1005 0.950 . S
C984 H980 0.949 1_556 S
C984 C992 1.574 . S
C984 C1000 1.368 . S
H985 C993 0.950 . S
H986 C991 0.950 . S
H987 C992 0.949 . S
H988 C994 0.950 . S
H989 C995 0.950 . S
H990 C996 0.949 . S
C991 H986 0.950 . S
C991 C993 1.327 . S
C991 C997 1.429 . S
C992 C984 1.574 . S
C992 H987 0.949 . S
C992 C998 1.368 . S
C993 C977 1.349 . S
C993 H985 0.950 . S
C993 C991 1.327 . S
C994 C982 1.378 . S
C994 H988 0.950 . S
C994 C995 1.327 . S
C995 H989 0.950 . S
C995 C994 1.327 . S
C995 C999 1.429 1_554 S
C996 C979 1.574 . S
C996 H990 0.949 . S
C996 C1000 1.368 . S
C997 C978 1.429 . S
C997 C991 1.429 . S
C997 C998 1.523 . S
C998 C979 1.368 . S
C998 C992 1.368 . S
C998 C997 1.523 . S
C999 C983 1.429 . S
C999 C995 1.429 1_556 S
C999 C1000 1.523 . S
C1000 C984 1.368 . S
C1000 C996 1.368 . S
C1000 C999 1.523 . S
H1001 C976 0.950 . S
H1002 C978 0.950 . S
H1003 C979 0.949 . S
H1004 C981 0.950 . S
H1005 C983 0.950 . S
C1006 C1007 1.349 . S
C1006 C1008 1.327 . S
C1006 H1031 0.950 . S
C1007 C1006 1.349 . S
C1007 C1023 1.349 . S
C1008 C1006 1.327 . S
C1008 C1027 1.429 . S
C1008 H1032 0.950 . S
C1009 C1026 1.574 . S
C1009 C1028 1.368 . S
C1009 H1033 0.949 . S
H1010 C1014 0.949 . S
C1011 C1012 1.349 . S
C1011 C1013 1.327 . S
C1011 H1034 0.950 . S
C1012 C1011 1.349 . S
C1012 C1024 1.349 . S
C1013 C1011 1.327 . S
C1013 C1029 1.429 . S
C1013 H1035 0.950 . S
C1014 H1010 0.949 . S
C1014 C1022 1.574 . S
C1014 C1030 1.368 . S
H1015 C1023 0.950 . S
H1016 C1021 0.950 . S
H1017 C1022 0.949 . S
H1018 C1024 0.950 . S
H1019 C1025 0.950 . S
H1020 C1026 0.949 . S
C1021 H1016 0.950 . S
C1021 C1023 1.327 . S
C1021 C1027 1.429 . S
C1022 C1014 1.574 . S
C1022 H1017 0.949 . S
C1022 C1028 1.368 . S
C1023 C1007 1.349 . S
C1023 H1015 0.950 . S
C1023 C1021 1.327 . S
C1024 C1012 1.349 . S
C1024 H1018 0.950 . S
C1024 C1025 1.327 . S
C1025 H1019 0.950 . S
C1025 C1024 1.327 . S
C1025 C1029 1.429 . S
C1026 C1009 1.574 . S
C1026 H1020 0.949 . S
C1026 C1030 1.368 . S
C1027 C1008 1.429 . S
C1027 C1021 1.429 . S
C1027 C1028 1.523 . S
C1028 C1009 1.368 . S
C1028 C1022 1.368 . S
C1028 C1027 1.523 . S
C1029 C1013 1.429 . S
C1029 C1025 1.429 . S
C1029 C1030 1.523 . S
C1030 C1014 1.368 . S
C1030 C1026 1.368 . S
C1030 C1029 1.523 . S
H1031 C1006 0.950 . S
H1032 C1008 0.950 . S
H1033 C1009 0.949 . S
H1034 C1011 0.950 . S
H1035 C1013 0.950 . S
C1036 C1037 1.349 . S
C1036 C1038 1.327 . S
C1036 H1061 0.950 . S
C1037 C1036 1.349 . S
C1037 C1053 1.349 . S
C1038 C1036 1.327 . S
C1038 C1057 1.429 . S
C1038 H1062 0.950 . S
C1039 C1056 1.574 . S
C1039 C1058 1.368 . S
C1039 H1063 0.949 . S
H1040 C1044 0.949 . S
C1041 C1042 1.349 . S
C1041 C1043 1.327 . S
C1041 H1064 0.950 . S
C1042 C1041 1.349 . S
C1042 C1054 1.349 . S
C1043 C1041 1.327 . S
C1043 C1059 1.429 . S
C1043 H1065 0.950 . S
C1044 H1040 0.949 . S
C1044 C1052 1.574 . S
C1044 C1060 1.368 . S
H1045 C1053 0.950 . S
H1046 C1051 0.950 . S
H1047 C1052 0.949 . S
H1048 C1054 0.950 . S
H1049 C1055 0.950 . S
H1050 C1056 0.949 . S
C1051 H1046 0.950 . S
C1051 C1053 1.327 . S
C1051 C1057 1.429 . S
C1052 C1044 1.574 . S
C1052 H1047 0.949 . S
C1052 C1058 1.368 . S
C1053 C1037 1.349 . S
C1053 H1045 0.950 . S
C1053 C1051 1.327 . S
C1054 C1042 1.349 . S
C1054 H1048 0.950 . S
C1054 C1055 1.327 . S
C1055 H1049 0.950 . S
C1055 C1054 1.327 . S
C1055 C1059 1.429 . S
C1056 C1039 1.574 . S
C1056 H1050 0.949 . S
C1056 C1060 1.368 . S
C1057 C1038 1.429 . S
C1057 C1051 1.429 . S
C1057 C1058 1.523 . S
C1058 C1039 1.368 . S
C1058 C1052 1.368 . S
C1058 C1057 1.523 . S
C1059 C1043 1.429 . S
C1059 C1055 1.429 . S
C1059 C1060 1.523 . S
C1060 C1044 1.368 . S
C1060 C1056 1.368 . S
C1060 C1059 1.523 . S
H1061 C1036 0.950 . S
H1062 C1038 0.950 . S
H1063 C1039 0.949 . S
H1064 C1041 0.950 . S
H1065 C1043 0.950 . S
C1066 C1067 1.349 . S
C1066 C1068 1.327 . S
C1066 H1091 0.950 . S
C1067 C1066 1.349 . S
C1067 C1083 1.349 . S
C1068 C1066 1.327 . S
C1068 C1087 1.429 . S
C1068 H1092 0.950 . S
C1069 C1086 1.574 . S
C1069 C1088 1.368 . S
C1069 H1093 0.949 . S
H1070 C1074 0.949 . S
C1071 C1072 1.349 . S
C1071 C1073 1.327 . S
C1071 H1094 0.950 . S
C1072 C1071 1.349 . S
C1072 C1084 1.349 . S
C1073 C1071 1.327 . S
C1073 C1089 1.429 . S
C1073 H1095 0.950 . S
C1074 H1070 0.949 . S
C1074 C1082 1.574 . S
C1074 C1090 1.368 . S
H1075 C1083 0.950 . S
H1076 C1081 0.950 . S
H1077 C1082 0.949 . S
H1078 C1084 0.950 . S
H1079 C1085 0.950 . S
H1080 C1086 0.949 . S
C1081 H1076 0.950 . S
C1081 C1083 1.327 . S
C1081 C1087 1.429 . S
C1082 C1074 1.574 . S
C1082 H1077 0.949 . S
C1082 C1088 1.368 . S
C1083 C1067 1.349 . S
C1083 H1075 0.950 . S
C1083 C1081 1.327 . S
C1084 C1072 1.349 . S
C1084 H1078 0.950 . S
C1084 C1085 1.327 . S
C1085 H1079 0.950 . S
C1085 C1084 1.327 . S
C1085 C1089 1.429 . S
C1086 C1069 1.574 . S
C1086 H1080 0.949 . S
C1086 C1090 1.368 . S
C1087 C1068 1.429 . S
C1087 C1081 1.429 . S
C1087 C1088 1.523 . S
C1088 C1069 1.368 . S
C1088 C1082 1.368 . S
C1088 C1087 1.523 . S
C1089 C1073 1.429 . S
C1089 C1085 1.429 . S
C1089 C1090 1.523 . S
C1090 C1074 1.368 . S
C1090 C1086 1.368 . S
C1090 C1089 1.523 . S
H1091 C1066 0.950 . S
H1092 C1068 0.950 . S
H1093 C1069 0.949 . S
H1094 C1071 0.950 . S
H1095 C1073 0.950 . S
C1096 C1097 1.349 . S
C1096 C1098 1.327 . S
C1096 H1121 0.950 . S
C1097 C1096 1.349 . S
C1097 C1113 1.349 1_455 S
C1098 C1096 1.327 . S
C1098 C1117 1.429 . S
C1098 H1122 0.950 . S
C1099 C1116 1.574 . S
C1099 C1118 1.368 . S
C1099 H1123 0.949 1_455 S
H1100 C1104 0.949 . S
C1101 C1102 1.349 . S
C1101 C1103 1.327 . S
C1101 H1124 0.950 . S
C1102 C1101 1.349 . S
C1102 C1114 1.349 . S
C1103 C1101 1.327 . S
C1103 C1119 1.429 . S
C1103 H1125 0.950 . S
C1104 H1100 0.949 . S
C1104 C1112 1.574 . S
C1104 C1120 1.368 . S
H1105 C1113 0.950 . S
H1106 C1111 0.976 . S
H1107 C1112 0.949 . S
H1108 C1114 0.950 . S
H1109 C1115 0.950 . S
H1110 C1116 0.949 . S
C1111 H1106 0.976 . S
C1111 C1113 1.334 . S
C1111 C1117 1.398 1_655 S
C1112 C1104 1.574 . S
C1112 H1107 0.949 . S
C1112 C1118 1.368 . S
C1113 C1097 1.349 1_655 S
C1113 H1105 0.950 . S
C1113 C1111 1.334 . S
C1114 C1102 1.349 . S
C1114 H1108 0.950 . S
C1114 C1115 1.327 . S
C1115 H1109 0.950 . S
C1115 C1114 1.327 . S
C1115 C1119 1.429 . S
C1116 C1099 1.574 . S
C1116 H1110 0.949 . S
C1116 C1120 1.368 . S
C1117 C1098 1.429 . S
C1117 C1111 1.398 1_455 S
C1117 C1118 1.523 . S
C1118 C1099 1.368 . S
C1118 C1112 1.368 . S
C1118 C1117 1.523 . S
C1119 C1103 1.429 . S
C1119 C1115 1.429 . S
C1119 C1120 1.523 . S
C1120 C1104 1.368 . S
C1120 C1116 1.368 . S
C1120 C1119 1.523 . S
H1121 C1096 0.950 . S
H1122 C1098 0.950 . S
H1123 C1099 0.949 1_655 S
H1124 C1101 0.950 . S
H1125 C1103 0.950 . S
C1126 C1127 1.349 . S
C1126 C1128 1.327 . S
C1126 H1151 0.950 . S
C1127 C1126 1.349 . S
C1127 C1143 1.349 . S
C1128 C1126 1.327 . S
C1128 C1147 1.429 . S
C1128 H1152 0.950 . S
C1129 C1146 1.574 . S
C1129 C1148 1.368 . S
C1129 H1153 0.949 . S
H1130 C1134 0.949 . S
C1131 C1132 1.349 . S
C1131 C1133 1.327 . S
C1131 H1154 0.950 . S
C1132 C1131 1.349 . S
C1132 C1144 1.349 . S
C1133 C1131 1.327 . S
C1133 C1149 1.429 . S
C1133 H1155 0.950 . S
C1134 H1130 0.949 . S
C1134 C1142 1.574 . S
C1134 C1150 1.368 . S
H1135 C1143 0.950 . S
H1136 C1141 0.950 . S
H1137 C1142 0.949 . S
H1138 C1144 0.950 . S
H1139 C1145 0.950 . S
H1140 C1146 0.949 . S
C1141 H1136 0.950 . S
C1141 C1143 1.327 . S
C1141 C1147 1.429 . S
C1142 C1134 1.574 . S
C1142 H1137 0.949 . S
C1142 C1148 1.368 . S
C1143 C1127 1.349 . S
C1143 H1135 0.950 . S
C1143 C1141 1.327 . S
C1144 C1132 1.349 . S
C1144 H1138 0.950 . S
C1144 C1145 1.327 . S
C1145 H1139 0.950 . S
C1145 C1144 1.327 . S
C1145 C1149 1.429 . S
C1146 C1129 1.574 . S
C1146 H1140 0.949 . S
C1146 C1150 1.368 . S
C1147 C1128 1.429 . S
C1147 C1141 1.429 . S
C1147 C1148 1.523 . S
C1148 C1129 1.368 . S
C1148 C1142 1.368 . S
C1148 C1147 1.523 . S
C1149 C1133 1.429 . S
C1149 C1145 1.429 . S
C1149 C1150 1.523 . S
C1150 C1134 1.368 . S
C1150 C1146 1.368 . S
C1150 C1149 1.523 . S
H1151 C1126 0.950 . S
H1152 C1128 0.950 . S
H1153 C1129 0.949 . S
H1154 C1131 0.950 . S
H1155 C1133 0.950 . S
C1156 C1157 1.349 . S
C1156 C1158 1.327 . S
C1156 H1181 0.950 . S
C1157 C1156 1.349 . S
C1157 C1173 1.349 . S
C1158 C1156 1.327 . S
C1158 C1177 1.429 . S
C1158 H1182 0.950 . S
C1159 C1176 1.574 . S
C1159 C1178 1.368 . S
C1159 H1183 0.949 . S
H1160 C1164 0.949 . S
C1161 C1162 1.349 . S
C1161 C1163 1.327 . S
C1161 H1184 0.950 . S
C1162 C1161 1.349 . S
C1162 C1174 1.349 . S
C1163 C1161 1.327 . S
C1163 C1179 1.429 . S
C1163 H1185 0.950 . S
C1164 H1160 0.949 . S
C1164 C1172 1.574 . S
C1164 C1180 1.368 . S
H1165 C1173 0.950 . S
H1166 C1171 0.950 . S
H1167 C1172 0.949 . S
H1168 C1174 0.950 . S
H1169 C1175 0.950 . S
H1170 C1176 0.949 . S
C1171 H1166 0.950 . S
C1171 C1173 1.327 . S
C1171 C1177 1.429 . S
C1172 C1164 1.574 . S
C1172 H1167 0.949 . S
C1172 C1178 1.368 . S
C1173 C1157 1.349 . S
C1173 H1165 0.950 . S
C1173 C1171 1.327 . S
C1174 C1162 1.349 . S
C1174 H1168 0.950 . S
C1174 C1175 1.327 . S
C1175 H1169 0.950 . S
C1175 C1174 1.327 . S
C1175 C1179 1.429 . S
C1176 C1159 1.574 . S
C1176 H1170 0.949 . S
C1176 C1180 1.368 . S
C1177 C1158 1.429 . S
C1177 C1171 1.429 . S
C1177 C1178 1.523 . S
C1178 C1159 1.368 . S
C1178 C1172 1.368 . S
C1178 C1177 1.523 . S
C1179 C1163 1.429 . S
C1179 C1175 1.429 . S
C1179 C1180 1.523 . S
C1180 C1164 1.368 . S
C1180 C1176 1.368 . S
C1180 C1179 1.523 . S
H1181 C1156 0.950 . S
H1182 C1158 0.950 . S
H1183 C1159 0.949 . S
H1184 C1161 0.950 . S
H1185 C1163 0.950 . S
C1186 C1187 1.349 . S
C1186 C1188 1.327 . S
C1186 H1211 0.950 . S
C1187 C1186 1.349 . S
C1187 C1203 1.349 . S
C1188 C1186 1.327 . S
C1188 C1207 1.429 . S
C1188 H1212 0.950 . S
C1189 C1206 1.574 . S
C1189 C1208 1.368 . S
C1189 H1213 0.949 . S
H1190 C1194 0.949 . S
C1191 C1192 1.349 . S
C1191 C1193 1.327 . S
C1191 H1214 0.950 . S
C1192 C1191 1.349 . S
C1192 C1204 1.349 . S
C1193 C1191 1.327 . S
C1193 C1209 1.429 . S
C1193 H1215 0.950 . S
C1194 H1190 0.949 . S
C1194 C1202 1.574 . S
C1194 C1210 1.368 . S
H1195 C1203 0.950 . S
H1196 C1201 0.950 . S
H1197 C1202 0.949 . S
H1198 C1204 0.950 . S
H1199 C1205 0.950 . S
H1200 C1206 0.949 . S
C1201 H1196 0.950 . S
C1201 C1203 1.327 . S
C1201 C1207 1.429 . S
C1202 C1194 1.574 . S
C1202 H1197 0.949 . S
C1202 C1208 1.368 . S
C1203 C1187 1.349 . S
C1203 H1195 0.950 . S
C1203 C1201 1.327 . S
C1204 C1192 1.349 . S
C1204 H1198 0.950 . S
C1204 C1205 1.327 . S
C1205 H1199 0.950 . S
C1205 C1204 1.327 . S
C1205 C1209 1.429 . S
C1206 C1189 1.574 . S
C1206 H1200 0.949 . S
C1206 C1210 1.368 . S
C1207 C1188 1.429 . S
C1207 C1201 1.429 . S
C1207 C1208 1.523 . S
C1208 C1189 1.368 . S
C1208 C1202 1.368 . S
C1208 C1207 1.523 . S
C1209 C1193 1.429 . S
C1209 C1205 1.429 . S
C1209 C1210 1.523 . S
C1210 C1194 1.368 . S
C1210 C1206 1.368 . S
C1210 C1209 1.523 . S
H1211 C1186 0.950 . S
H1212 C1188 0.950 . S
H1213 C1189 0.949 . S
H1214 C1191 0.950 . S
H1215 C1193 0.950 . S
C1216 C1217 1.349 . S
C1216 C1218 1.327 . S
C1216 H1241 0.950 . S
C1217 C1216 1.349 . S
C1217 C1233 1.349 . S
C1218 C1216 1.327 . S
C1218 C1237 1.429 . S
C1218 H1242 0.950 . S
C1219 C1236 1.574 . S
C1219 C1238 1.368 . S
C1219 H1243 0.949 . S
H1220 C1224 0.949 . S
C1221 C1222 1.349 . S
C1221 C1223 1.327 . S
C1221 H1244 0.950 . S
C1222 C1221 1.349 . S
C1222 C1234 1.349 . S
C1223 C1221 1.327 . S
C1223 C1239 1.429 . S
C1223 H1245 0.950 1_455 S
C1224 H1220 0.949 . S
C1224 C1232 1.574 1_455 S
C1224 C1240 1.369 . S
H1225 C1233 0.950 . S
H1226 C1231 0.950 . S
H1227 C1232 0.948 . S
H1228 C1234 0.950 . S
H1229 C1235 0.950 . S
H1230 C1236 0.949 . S
C1231 H1226 0.950 . S
C1231 C1233 1.327 . S
C1231 C1237 1.429 . S
C1232 C1224 1.574 1_655 S
C1232 H1227 0.948 . S
C1232 C1238 1.368 . S
C1233 C1217 1.349 . S
C1233 H1225 0.950 . S
C1233 C1231 1.327 . S
C1234 C1222 1.349 . S
C1234 H1228 0.950 . S
C1234 C1235 1.327 . S
C1235 H1229 0.950 . S
C1235 C1234 1.327 . S
C1235 C1239 1.429 . S
C1236 C1219 1.574 . S
C1236 H1230 0.949 . S
C1236 C1240 1.357 1_655 S
C1237 C1218 1.429 . S
C1237 C1231 1.429 . S
C1237 C1238 1.523 . S
C1238 C1219 1.368 . S
C1238 C1232 1.368 . S
C1238 C1237 1.523 . S
C1239 C1223 1.429 . S
C1239 C1235 1.429 . S
C1239 C1240 1.537 . S
C1240 C1224 1.369 . S
C1240 C1236 1.357 1_455 S
C1240 C1239 1.537 . S
H1241 C1216 0.950 . S
H1242 C1218 0.950 . S
H1243 C1219 0.949 . S
H1244 C1221 0.950 . S
H1245 C1223 0.950 1_655 S
C1246 C1247 1.349 . S
C1246 C1248 1.327 . S
C1246 H1271 0.950 . S
C1247 C1246 1.349 . S
C1247 C1263 1.349 . S
C1248 C1246 1.327 . S
C1248 C1267 1.429 . S
C1248 H1272 0.950 . S
C1249 C1266 1.574 . S
C1249 C1268 1.368 . S
C1249 H1273 0.949 . S
H1250 C1254 0.949 . S
C1251 C1252 1.349 . S
C1251 C1253 1.327 . S
C1251 H1274 0.950 . S
C1252 C1251 1.349 . S
C1252 C1264 1.349 . S
C1253 C1251 1.327 . S
C1253 C1269 1.429 . S
C1253 H1275 0.950 . S
C1254 H1250 0.949 . S
C1254 C1262 1.574 . S
C1254 C1270 1.368 . S
H1255 C1263 0.950 . S
H1256 C1261 0.950 . S
H1257 C1262 0.949 . S
H1258 C1264 0.950 . S
H1259 C1265 0.950 . S
H1260 C1266 0.949 . S
C1261 H1256 0.950 . S
C1261 C1263 1.327 . S
C1261 C1267 1.429 . S
C1262 C1254 1.574 . S
C1262 H1257 0.949 . S
C1262 C1268 1.368 . S
C1263 C1247 1.349 . S
C1263 H1255 0.950 . S
C1263 C1261 1.327 . S
C1264 C1252 1.349 . S
C1264 H1258 0.950 . S
C1264 C1265 1.327 . S
C1265 H1259 0.950 . S
C1265 C1264 1.327 . S
C1265 C1269 1.429 . S
C1266 C1249 1.574 . S
C1266 H1260 0.949 . S
C1266 C1270 1.368 . S
C1267 C1248 1.429 . S
C1267 C1261 1.429 . S
C1267 C1268 1.523 . S
C1268 C1249 1.368 . S
C1268 C1262 1.368 . S
C1268 C1267 1.523 . S
C1269 C1253 1.429 . S
C1269 C1265 1.429 . S
C1269 C1270 1.523 . S
C1270 C1254 1.368 . S
C1270 C1266 1.368 . S
C1270 C1269 1.523 . S
H1271 C1246 0.950 . S
H1272 C1248 0.950 . S
H1273 C1249 0.949 . S
H1274 C1251 0.950 . S
H1275 C1253 0.950 . S
C1276 C1277 1.349 . S
C1276 C1278 1.327 . S
C1276 H1301 0.950 . S
C1277 C1276 1.349 . S
C1277 C1293 1.349 . S
C1278 C1276 1.327 . S
C1278 C1297 1.429 . S
C1278 H1302 0.950 . S
C1279 C1296 1.574 . S
C1279 C1298 1.368 . S
C1279 H1303 0.949 . S
H1280 C1284 0.949 . S
C1281 C1282 1.349 . S
C1281 C1283 1.327 . S
C1281 H1304 0.950 . S
C1282 C1281 1.349 . S
C1282 C1294 1.349 . S
C1283 C1281 1.327 . S
C1283 C1299 1.429 . S
C1283 H1305 0.950 . S
C1284 H1280 0.949 . S
C1284 C1292 1.574 . S
C1284 C1300 1.368 . S
H1285 C1293 0.950 . S
H1286 C1291 0.950 . S
H1287 C1292 0.949 . S
H1288 C1294 0.950 . S
H1289 C1295 0.950 . S
H1290 C1296 0.949 . S
C1291 H1286 0.950 . S
C1291 C1293 1.327 . S
C1291 C1297 1.429 . S
C1292 C1284 1.574 . S
C1292 H1287 0.949 . S
C1292 C1298 1.368 . S
C1293 C1277 1.349 . S
C1293 H1285 0.950 . S
C1293 C1291 1.327 . S
C1294 C1282 1.349 . S
C1294 H1288 0.950 . S
C1294 C1295 1.327 . S
C1295 H1289 0.950 . S
C1295 C1294 1.327 . S
C1295 C1299 1.429 . S
C1296 C1279 1.574 . S
C1296 H1290 0.949 . S
C1296 C1300 1.368 . S
C1297 C1278 1.429 . S
C1297 C1291 1.429 . S
C1297 C1298 1.523 . S
C1298 C1279 1.368 . S
C1298 C1292 1.368 . S
C1298 C1297 1.523 . S
C1299 C1283 1.429 . S
C1299 C1295 1.429 . S
C1299 C1300 1.523 . S
C1300 C1284 1.368 . S
C1300 C1296 1.368 . S
C1300 C1299 1.523 . S
H1301 C1276 0.950 . S
H1302 C1278 0.950 . S
H1303 C1279 0.949 . S
H1304 C1281 0.950 . S
H1305 C1283 0.950 . S
C1306 C1307 1.349 . S
C1306 C1308 1.327 . S
C1306 H1331 0.950 . S
C1307 C1306 1.349 . S
C1307 C1323 1.349 . S
C1308 C1306 1.327 . S
C1308 C1327 1.429 . S
C1308 H1332 0.950 . S
C1309 C1326 1.574 . S
C1309 C1328 1.368 . S
C1309 H1333 0.949 . S
H1310 C1314 0.949 . S
C1311 C1312 1.349 . S
C1311 C1313 1.327 . S
C1311 H1334 0.950 . S
C1312 C1311 1.349 . S
C1312 C1324 1.349 . S
C1313 C1311 1.327 . S
C1313 C1329 1.429 . S
C1313 H1335 0.950 . S
C1314 H1310 0.949 . S
C1314 C1322 1.574 . S
C1314 C1330 1.368 . S
H1315 C1323 0.950 . S
H1316 C1321 0.950 . S
H1317 C1322 0.949 . S
H1318 C1324 0.950 . S
H1319 C1325 0.950 . S
H1320 C1326 0.949 . S
C1321 H1316 0.950 . S
C1321 C1323 1.327 . S
C1321 C1327 1.429 . S
C1322 C1314 1.574 . S
C1322 H1317 0.949 . S
C1322 C1328 1.368 . S
C1323 C1307 1.349 . S
C1323 H1315 0.950 . S
C1323 C1321 1.327 . S
C1324 C1312 1.349 . S
C1324 H1318 0.950 . S
C1324 C1325 1.327 . S
C1325 H1319 0.950 . S
C1325 C1324 1.327 . S
C1325 C1329 1.429 . S
C1326 C1309 1.574 . S
C1326 H1320 0.949 . S
C1326 C1330 1.368 . S
C1327 C1308 1.429 . S
C1327 C1321 1.429 . S
C1327 C1328 1.523 . S
C1328 C1309 1.368 . S
C1328 C1322 1.368 . S
C1328 C1327 1.523 . S
C1329 C1313 1.429 . S
C1329 C1325 1.429 . S
C1329 C1330 1.523 . S
C1330 C1314 1.368 . S
C1330 C1326 1.368 . S
C1330 C1329 1.523 . S
H1331 C1306 0.950 . S
H1332 C1308 0.950 . S
H1333 C1309 0.949 . S
H1334 C1311 0.950 . S
H1335 C1313 0.950 . S
C1336 C1337 1.349 . S
C1336 C1338 1.327 . S
C1336 H1361 0.950 . S
C1337 C1336 1.349 . S
C1337 C1353 1.349 . S
C1338 C1336 1.327 . S
C1338 C1357 1.429 . S
C1338 H1362 0.950 . S
C1339 C1356 1.574 . S
C1339 C1358 1.368 . S
C1339 H1363 0.949 . S
H1340 C1344 0.949 1_455 S
C1341 C1342 1.349 . S
C1341 C1343 1.327 . S
C1341 H1364 0.950 . S
C1342 C1341 1.349 . S
C1342 C1354 1.349 . S
C1343 C1341 1.327 . S
C1343 C1359 1.429 . S
C1343 H1365 0.950 . S
C1344 H1340 0.949 1_655 S
C1344 C1352 1.574 . S
C1344 C1360 1.362 . S
H1345 C1353 0.950 . S
H1346 C1351 0.950 . S
H1347 C1352 0.949 . S
H1348 C1354 0.950 . S
H1349 C1355 0.950 . S
H1350 C1356 0.949 . S
C1351 H1346 0.950 . S
C1351 C1353 1.327 . S
C1351 C1357 1.429 . S
C1352 C1344 1.574 . S
C1352 H1347 0.949 . S
C1352 C1358 1.368 . S
C1353 C1337 1.349 . S
C1353 H1345 0.950 . S
C1353 C1351 1.327 . S
C1354 C1342 1.349 . S
C1354 H1348 0.950 . S
C1354 C1355 1.327 . S
C1355 H1349 0.950 . S
C1355 C1354 1.327 . S
C1355 C1359 1.429 . S
C1356 C1339 1.574 . S
C1356 H1350 0.949 . S
C1356 C1360 1.383 . S
C1357 C1338 1.429 . S
C1357 C1351 1.429 . S
C1357 C1358 1.523 . S
C1358 C1339 1.368 . S
C1358 C1352 1.368 . S
C1358 C1357 1.523 . S
C1359 C1343 1.429 . S
C1359 C1355 1.429 . S
C1359 C1360 1.512 1_455 S
C1360 C1344 1.362 . S
C1360 C1356 1.383 . S
C1360 C1359 1.512 1_655 S
H1361 C1336 0.950 . S
H1362 C1338 0.950 . S
H1363 C1339 0.949 . S
H1364 C1341 0.950 . S
H1365 C1343 0.950 . S
C1366 C1367 1.349 . S
C1366 C1368 1.327 . S
C1366 H1391 0.950 . S
C1367 C1366 1.349 . S
C1367 C1383 1.349 . S
C1368 C1366 1.327 . S
C1368 C1387 1.429 . S
C1368 H1392 0.950 . S
C1369 C1386 1.574 . S
C1369 C1388 1.368 . S
C1369 H1393 0.949 . S
H1370 C1374 0.949 . S
C1371 C1372 1.349 . S
C1371 C1373 1.327 . S
C1371 H1394 0.950 . S
C1372 C1371 1.349 . S
C1372 C1384 1.349 . S
C1373 C1371 1.327 . S
C1373 C1389 1.429 . S
C1373 H1395 0.950 . S
C1374 H1370 0.949 . S
C1374 C1382 1.574 . S
C1374 C1390 1.368 . S
H1375 C1383 0.950 . S
H1376 C1381 0.950 . S
H1377 C1382 0.949 . S
H1378 C1384 0.950 . S
H1379 C1385 0.950 . S
H1380 C1386 0.949 . S
C1381 H1376 0.950 . S
C1381 C1383 1.327 . S
C1381 C1387 1.429 . S
C1382 C1374 1.574 . S
C1382 H1377 0.949 . S
C1382 C1388 1.368 . S
C1383 C1367 1.349 . S
C1383 H1375 0.950 . S
C1383 C1381 1.327 . S
C1384 C1372 1.349 . S
C1384 H1378 0.950 . S
C1384 C1385 1.327 . S
C1385 H1379 0.950 . S
C1385 C1384 1.327 . S
C1385 C1389 1.429 . S
C1386 C1369 1.574 . S
C1386 H1380 0.949 . S
C1386 C1390 1.368 . S
C1387 C1368 1.429 . S
C1387 C1381 1.429 . S
C1387 C1388 1.523 . S
C1388 C1369 1.368 . S
C1388 C1382 1.368 . S
C1388 C1387 1.523 . S
C1389 C1373 1.429 . S
C1389 C1385 1.429 . S
C1389 C1390 1.523 . S
C1390 C1374 1.368 . S
C1390 C1386 1.368 . S
C1390 C1389 1.523 . S
H1391 C1366 0.950 . S
H1392 C1368 0.950 . S
H1393 C1369 0.949 . S
H1394 C1371 0.950 . S
H1395 C1373 0.950 . S
C1396 C1397 1.349 . S
C1396 C1398 1.327 . S
C1396 H1421 0.950 . S
C1397 C1396 1.349 . S
C1397 C1413 1.349 . S
C1398 C1396 1.327 . S
C1398 C1417 1.429 . S
C1398 H1422 0.950 . S
C1399 C1416 1.574 . S
C1399 C1418 1.368 . S
C1399 H1423 0.949 . S
H1400 C1404 0.949 . S
C1401 C1402 1.349 . S
C1401 C1403 1.327 . S
C1401 H1424 0.950 . S
C1402 C1401 1.349 . S
C1402 C1414 1.349 . S
C1403 C1401 1.327 . S
C1403 C1419 1.429 . S
C1403 H1425 0.950 . S
C1404 H1400 0.949 . S
C1404 C1412 1.574 . S
C1404 C1420 1.368 . S
H1405 C1413 0.950 . S
H1406 C1411 0.950 . S
H1407 C1412 0.949 . S
H1408 C1414 0.950 . S
H1409 C1415 0.950 . S
H1410 C1416 0.949 . S
C1411 H1406 0.950 . S
C1411 C1413 1.327 . S
C1411 C1417 1.429 . S
C1412 C1404 1.574 . S
C1412 H1407 0.949 . S
C1412 C1418 1.368 . S
C1413 C1397 1.349 . S
C1413 H1405 0.950 . S
C1413 C1411 1.327 . S
C1414 C1402 1.349 . S
C1414 H1408 0.950 . S
C1414 C1415 1.327 . S
C1415 H1409 0.950 . S
C1415 C1414 1.327 . S
C1415 C1419 1.429 . S
C1416 C1399 1.574 . S
C1416 H1410 0.949 . S
C1416 C1420 1.368 . S
C1417 C1398 1.429 . S
C1417 C1411 1.429 . S
C1417 C1418 1.523 . S
C1418 C1399 1.368 . S
C1418 C1412 1.368 . S
C1418 C1417 1.523 . S
C1419 C1403 1.429 . S
C1419 C1415 1.429 . S
C1419 C1420 1.523 . S
C1420 C1404 1.368 . S
C1420 C1416 1.368 . S
C1420 C1419 1.523 . S
H1421 C1396 0.950 . S
H1422 C1398 0.950 . S
H1423 C1399 0.949 . S
H1424 C1401 0.950 . S
H1425 C1403 0.950 . S
C1426 C1427 1.349 . S
C1426 C1428 1.327 . S
C1426 H1451 0.950 . S
C1427 C1426 1.349 . S
C1427 C1443 1.349 . S
C1428 C1426 1.327 . S
C1428 C1447 1.429 . S
C1428 H1452 0.950 . S
C1429 C1446 1.574 . S
C1429 C1448 1.368 . S
C1429 H1453 0.949 . S
H1430 C1434 0.949 . S
C1431 C1432 1.349 . S
C1431 C1433 1.327 . S
C1431 H1454 0.950 . S
C1432 C1431 1.349 . S
C1432 C1444 1.349 . S
C1433 C1431 1.327 . S
C1433 C1449 1.429 . S
C1433 H1455 0.950 . S
C1434 H1430 0.949 . S
C1434 C1442 1.574 . S
C1434 C1450 1.368 . S
H1435 C1443 0.950 . S
H1436 C1441 0.950 . S
H1437 C1442 0.949 . S
H1438 C1444 0.950 . S
H1439 C1445 0.950 . S
H1440 C1446 0.949 . S
C1441 H1436 0.950 . S
C1441 C1443 1.327 . S
C1441 C1447 1.429 . S
C1442 C1434 1.574 . S
C1442 H1437 0.949 . S
C1442 C1448 1.368 . S
C1443 C1427 1.349 . S
C1443 H1435 0.950 . S
C1443 C1441 1.327 . S
C1444 C1432 1.349 . S
C1444 H1438 0.950 . S
C1444 C1445 1.327 . S
C1445 H1439 0.950 . S
C1445 C1444 1.327 . S
C1445 C1449 1.429 . S
C1446 C1429 1.574 . S
C1446 H1440 0.949 . S
C1446 C1450 1.368 . S
C1447 C1428 1.429 . S
C1447 C1441 1.429 . S
C1447 C1448 1.523 . S
C1448 C1429 1.368 . S
C1448 C1442 1.368 . S
C1448 C1447 1.523 . S
C1449 C1433 1.429 . S
C1449 C1445 1.429 . S
C1449 C1450 1.523 . S
C1450 C1434 1.368 . S
C1450 C1446 1.368 . S
C1450 C1449 1.523 . S
H1451 C1426 0.950 . S
H1452 C1428 0.950 . S
H1453 C1429 0.949 . S
H1454 C1431 0.950 . S
H1455 C1433 0.950 . S
C1456 C1457 1.349 . S
C1456 C1458 1.327 . S
C1456 H1481 0.950 . S
C1457 C1456 1.349 . S
C1457 C1473 1.349 . S
C1458 C1456 1.327 . S
C1458 C1477 1.429 . S
C1458 H1482 0.950 . S
C1459 C1476 1.574 . S
C1459 C1478 1.368 . S
C1459 H1483 0.949 . S
H1460 C1464 0.949 . S
C1461 C1462 1.349 1_545 S
C1461 C1463 1.327 1_545 S
C1461 H1484 0.950 . S
C1462 C1461 1.349 1_565 S
C1462 C1474 1.349 . S
C1463 C1461 1.327 1_565 S
C1463 C1479 1.429 . S
C1463 H1485 0.950 . S
C1464 H1460 0.949 . S
C1464 C1472 1.574 . S
C1464 C1480 1.368 . S
H1465 C1473 0.950 1_556 S
H1466 C1471 0.950 1_556 S
H1467 C1472 0.949 . S
H1468 C1474 0.950 . S
H1469 C1475 0.950 . S
H1470 C1476 0.949 . S
C1471 H1466 0.950 1_554 S
C1471 C1473 1.327 . S
C1471 C1477 1.429 . S
C1472 C1464 1.574 . S
C1472 H1467 0.949 . S
C1472 C1478 1.368 . S
C1473 C1457 1.349 . S
C1473 H1465 0.950 1_554 S
C1473 C1471 1.327 . S
C1474 C1462 1.349 . S
C1474 H1468 0.950 . S
C1474 C1475 1.327 . S
C1475 H1469 0.950 . S
C1475 C1474 1.327 . S
C1475 C1479 1.429 . S
C1476 C1459 1.574 . S
C1476 H1470 0.949 . S
C1476 C1480 1.368 . S
C1477 C1458 1.429 . S
C1477 C1471 1.429 . S
C1477 C1478 1.523 . S
C1478 C1459 1.368 . S
C1478 C1472 1.368 . S
C1478 C1477 1.523 . S
C1479 C1463 1.429 . S
C1479 C1475 1.429 . S
C1479 C1480 1.523 . S
C1480 C1464 1.368 . S
C1480 C1476 1.368 . S
C1480 C1479 1.523 . S
H1481 C1456 0.950 . S
H1482 C1458 0.950 . S
H1483 C1459 0.949 . S
H1484 C1461 0.950 . S
H1485 C1463 0.950 . S
C1486 C1487 1.349 1_554 S
C1486 C1488 1.327 . S
C1486 H1511 0.950 . S
C1487 C1486 1.349 1_556 S
C1487 C1503 1.349 . S
C1488 C1486 1.327 . S
C1488 C1507 1.437 . S
C1488 H1512 0.950 . S
C1489 C1506 1.574 . S
C1489 C1508 1.349 1_556 S
C1489 H1513 0.949 . S
H1490 C1494 0.949 . S
C1491 C1492 1.349 1_556 S
C1491 C1493 1.327 . S
C1491 H1514 0.950 . S
C1492 C1491 1.349 1_554 S
C1492 C1504 1.349 . S
C1493 C1491 1.327 . S
C1493 C1509 1.429 1_556 S
C1493 H1515 0.950 . S
C1494 H1490 0.949 . S
C1494 C1502 1.574 . S
C1494 C1510 1.368 . S
H1495 C1503 0.950 . S
H1496 C1501 0.950 . S
H1497 C1502 0.949 . S
H1498 C1504 0.950 . S
H1499 C1505 0.950 . S
H1500 C1506 0.949 . S
C1501 H1496 0.950 . S
C1501 C1503 1.327 . S
C1501 C1507 1.415 1_556 S
C1502 C1494 1.574 . S
C1502 H1497 0.949 . S
C1502 C1508 1.395 . S
C1503 C1487 1.349 . S
C1503 H1495 0.950 . S
C1503 C1501 1.327 . S
C1504 C1492 1.349 . S
C1504 H1498 0.950 . S
C1504 C1505 1.327 . S
C1505 H1499 0.950 . S
C1505 C1504 1.327 . S
C1505 C1509 1.429 . S
C1506 C1489 1.574 . S
C1506 H1500 0.949 . S
C1506 C1510 1.368 1_556 S
C1507 C1488 1.437 . S
C1507 C1501 1.415 1_554 S
C1507 C1508 1.519 . S
C1508 C1489 1.349 1_554 S
C1508 C1502 1.395 . S
C1508 C1507 1.519 . S
C1509 C1493 1.429 1_554 S
C1509 C1505 1.429 . S
C1509 C1510 1.523 . S
C1510 C1494 1.368 . S
C1510 C1506 1.368 1_554 S
C1510 C1509 1.523 . S
H1511 C1486 0.950 . S
H1512 C1488 0.950 . S
H1513 C1489 0.949 . S
H1514 C1491 0.950 . S
H1515 C1493 0.950 . S
C1516 C1517 1.349 . S
C1516 C1518 1.327 . S
C1516 H1541 0.950 . S
C1517 C1516 1.349 . S
C1517 C1533 1.349 . S
C1518 C1516 1.327 . S
C1518 C1537 1.429 . S
C1518 H1542 0.950 . S
C1519 C1536 1.574 . S
C1519 C1538 1.368 . S
C1519 H1543 0.949 . S
H1520 C1524 0.949 . S
C1521 C1522 1.349 . S
C1521 C1523 1.327 . S
C1521 H1544 0.950 . S
C1522 C1521 1.349 . S
C1522 C1534 1.349 . S
C1523 C1521 1.327 . S
C1523 C1539 1.429 . S
C1523 H1545 0.950 . S
C1524 H1520 0.949 . S
C1524 C1532 1.574 . S
C1524 C1540 1.368 . S
H1525 C1533 0.950 . S
H1526 C1531 0.950 . S
H1527 C1532 0.949 . S
H1528 C1534 0.950 . S
H1529 C1535 0.950 . S
H1530 C1536 0.949 . S
C1531 H1526 0.950 . S
C1531 C1533 1.327 . S
C1531 C1537 1.429 . S
C1532 C1524 1.574 . S
C1532 H1527 0.949 . S
C1532 C1538 1.368 . S
C1533 C1517 1.349 . S
C1533 H1525 0.950 . S
C1533 C1531 1.327 . S
C1534 C1522 1.349 . S
C1534 H1528 0.950 . S
C1534 C1535 1.327 . S
C1535 H1529 0.950 . S
C1535 C1534 1.327 . S
C1535 C1539 1.429 . S
C1536 C1519 1.574 . S
C1536 H1530 0.949 . S
C1536 C1540 1.368 . S
C1537 C1518 1.429 . S
C1537 C1531 1.429 . S
C1537 C1538 1.523 . S
C1538 C1519 1.368 . S
C1538 C1532 1.368 . S
C1538 C1537 1.523 . S
C1539 C1523 1.429 . S
C1539 C1535 1.429 . S
C1539 C1540 1.523 . S
C1540 C1524 1.368 . S
C1540 C1536 1.368 . S
C1540 C1539 1.523 . S
H1541 C1516 0.950 . S
H1542 C1518 0.950 . S
H1543 C1519 0.949 . S
H1544 C1521 0.950 . S
H1545 C1523 0.950 . S
C1546 C1547 1.349 . S
C1546 C1548 1.327 . S
C1546 H1571 0.950 . S
C1547 C1546 1.349 . S
C1547 C1563 1.349 . S
C1548 C1546 1.327 . S
C1548 C1567 1.429 . S
C1548 H1572 0.950 . S
C1549 C1566 1.574 . S
C1549 C1568 1.368 . S
C1549 H1573 0.949 . S
H1550 C1554 0.949 . S
C1551 C1552 1.349 . S
C1551 C1553 1.327 . S
C1551 H1574 0.950 . S
C1552 C1551 1.349 . S
C1552 C1564 1.349 . S
C1553 C1551 1.327 . S
C1553 C1569 1.429 . S
C1553 H1575 0.950 . S
C1554 H1550 0.949 . S
C1554 C1562 1.574 . S
C1554 C1570 1.368 . S
H1555 C1563 0.950 . S
H1556 C1561 0.950 . S
H1557 C1562 0.949 . S
H1558 C1564 0.950 . S
H1559 C1565 0.950 . S
H1560 C1566 0.949 . S
C1561 H1556 0.950 . S
C1561 C1563 1.327 . S
C1561 C1567 1.429 . S
C1562 C1554 1.574 . S
C1562 H1557 0.949 . S
C1562 C1568 1.368 . S
C1563 C1547 1.349 . S
C1563 H1555 0.950 . S
C1563 C1561 1.327 . S
C1564 C1552 1.349 . S
C1564 H1558 0.950 . S
C1564 C1565 1.327 . S
C1565 H1559 0.950 . S
C1565 C1564 1.327 . S
C1565 C1569 1.429 . S
C1566 C1549 1.574 . S
C1566 H1560 0.949 . S
C1566 C1570 1.368 . S
C1567 C1548 1.429 . S
C1567 C1561 1.429 . S
C1567 C1568 1.523 . S
C1568 C1549 1.368 . S
C1568 C1562 1.368 . S
C1568 C1567 1.523 . S
C1569 C1553 1.429 . S
C1569 C1565 1.429 . S
C1569 C1570 1.523 . S
C1570 C1554 1.368 . S
C1570 C1566 1.368 . S
C1570 C1569 1.523 . S
H1571 C1546 0.950 . S
H1572 C1548 0.950 . S
H1573 C1549 0.949 . S
H1574 C1551 0.950 . S
H1575 C1553 0.950 . S
C1576 C1577 1.349 . S
C1576 C1578 1.327 . S
C1576 H1601 0.950 . S
C1577 C1576 1.349 . S
C1577 C1593 1.349 . S
C1578 C1576 1.327 . S
C1578 C1597 1.429 . S
C1578 H1602 0.950 . S
C1579 C1596 1.574 . S
C1579 C1598 1.368 . S
C1579 H1603 0.949 . S
H1580 C1584 0.949 . S
C1581 C1582 1.349 . S
C1581 C1583 1.327 . S
C1581 H1604 0.950 . S
C1582 C1581 1.349 . S
C1582 C1594 1.349 . S
C1583 C1581 1.327 . S
C1583 C1599 1.429 . S
C1583 H1605 0.950 . S
C1584 H1580 0.949 . S
C1584 C1592 1.574 . S
C1584 C1600 1.368 . S
H1585 C1593 0.950 . S
H1586 C1591 0.950 . S
H1587 C1592 0.949 . S
H1588 C1594 0.950 . S
H1589 C1595 0.950 . S
H1590 C1596 0.949 . S
C1591 H1586 0.950 . S
C1591 C1593 1.327 . S
C1591 C1597 1.429 . S
C1592 C1584 1.574 . S
C1592 H1587 0.949 . S
C1592 C1598 1.368 . S
C1593 C1577 1.349 . S
C1593 H1585 0.950 . S
C1593 C1591 1.327 . S
C1594 C1582 1.349 . S
C1594 H1588 0.950 . S
C1594 C1595 1.327 . S
C1595 H1589 0.950 . S
C1595 C1594 1.327 . S
C1595 C1599 1.429 . S
C1596 C1579 1.574 . S
C1596 H1590 0.949 . S
C1596 C1600 1.368 . S
C1597 C1578 1.429 . S
C1597 C1591 1.429 . S
C1597 C1598 1.523 . S
C1598 C1579 1.368 . S
C1598 C1592 1.368 . S
C1598 C1597 1.523 . S
C1599 C1583 1.429 . S
C1599 C1595 1.429 . S
C1599 C1600 1.523 . S
C1600 C1584 1.368 . S
C1600 C1596 1.368 . S
C1600 C1599 1.523 . S
H1601 C1576 0.950 . S
H1602 C1578 0.950 . S
H1603 C1579 0.949 . S
H1604 C1581 0.950 . S
H1605 C1583 0.950 . S
C1606 C1607 1.349 . S
C1606 C1608 1.327 . S
C1606 H1631 0.950 . S
C1607 C1606 1.349 . S
C1607 C1623 1.349 . S
C1608 C1606 1.327 . S
C1608 C1627 1.429 . S
C1608 H1632 0.950 . S
C1609 C1626 1.574 . S
C1609 C1628 1.368 . S
C1609 H1633 0.949 . S
H1610 C1614 0.949 . S
C1611 C1612 1.349 . S
C1611 C1613 1.327 . S
C1611 H1634 0.950 . S
C1612 C1611 1.349 . S
C1612 C1624 1.349 . S
C1613 C1611 1.327 . S
C1613 C1629 1.429 . S
C1613 H1635 0.950 . S
C1614 H1610 0.949 . S
C1614 C1622 1.574 . S
C1614 C1630 1.368 . S
H1615 C1623 0.950 . S
H1616 C1621 0.950 . S
H1617 C1622 0.949 . S
H1618 C1624 0.950 . S
H1619 C1625 0.950 . S
H1620 C1626 0.949 . S
C1621 H1616 0.950 . S
C1621 C1623 1.327 . S
C1621 C1627 1.429 . S
C1622 C1614 1.574 . S
C1622 H1617 0.949 . S
C1622 C1628 1.368 . S
C1623 C1607 1.349 . S
C1623 H1615 0.950 . S
C1623 C1621 1.327 . S
C1624 C1612 1.349 . S
C1624 H1618 0.950 . S
C1624 C1625 1.327 . S
C1625 H1619 0.950 . S
C1625 C1624 1.327 . S
C1625 C1629 1.429 . S
C1626 C1609 1.574 . S
C1626 H1620 0.949 . S
C1626 C1630 1.368 . S
C1627 C1608 1.429 . S
C1627 C1621 1.429 . S
C1627 C1628 1.523 . S
C1628 C1609 1.368 . S
C1628 C1622 1.368 . S
C1628 C1627 1.523 . S
C1629 C1613 1.429 . S
C1629 C1625 1.429 . S
C1629 C1630 1.523 . S
C1630 C1614 1.368 . S
C1630 C1626 1.368 . S
C1630 C1629 1.523 . S
H1631 C1606 0.950 . S
H1632 C1608 0.950 . S
H1633 C1609 0.949 . S
H1634 C1611 0.950 . S
H1635 C1613 0.950 . S
C1636 C1637 1.349 . S
C1636 C1638 1.327 . S
C1636 H1661 0.950 . S
C1637 C1636 1.349 . S
C1637 C1653 1.349 . S
C1638 C1636 1.327 . S
C1638 C1657 1.429 . S
C1638 H1662 0.950 . S
C1639 C1656 1.574 . S
C1639 C1658 1.368 . S
C1639 H1663 0.949 . S
H1640 C1644 0.949 . S
C1641 C1642 1.349 . S
C1641 C1643 1.327 . S
C1641 H1664 0.950 . S
C1642 C1641 1.349 . S
C1642 C1654 1.349 . S
C1643 C1641 1.327 . S
C1643 C1659 1.429 . S
C1643 H1665 0.950 . S
C1644 H1640 0.949 . S
C1644 C1652 1.574 . S
C1644 C1660 1.368 . S
H1645 C1653 0.950 . S
H1646 C1651 0.950 . S
H1647 C1652 0.949 . S
H1648 C1654 0.950 . S
H1649 C1655 0.950 . S
H1650 C1656 0.949 . S
C1651 H1646 0.950 . S
C1651 C1653 1.327 . S
C1651 C1657 1.429 . S
C1652 C1644 1.574 . S
C1652 H1647 0.949 . S
C1652 C1658 1.368 . S
C1653 C1637 1.349 . S
C1653 H1645 0.950 . S
C1653 C1651 1.327 . S
C1654 C1642 1.349 . S
C1654 H1648 0.950 . S
C1654 C1655 1.327 . S
C1655 H1649 0.950 . S
C1655 C1654 1.327 . S
C1655 C1659 1.429 . S
C1656 C1639 1.574 . S
C1656 H1650 0.949 . S
C1656 C1660 1.368 . S
C1657 C1638 1.429 . S
C1657 C1651 1.429 . S
C1657 C1658 1.523 . S
C1658 C1639 1.368 . S
C1658 C1652 1.368 . S
C1658 C1657 1.523 . S
C1659 C1643 1.429 . S
C1659 C1655 1.429 . S
C1659 C1660 1.523 . S
C1660 C1644 1.368 . S
C1660 C1656 1.368 . S
C1660 C1659 1.523 . S
H1661 C1636 0.950 . S
H1662 C1638 0.950 . S
H1663 C1639 0.949 . S
H1664 C1641 0.950 . S
H1665 C1643 0.950 . S
C1666 C1667 1.349 . S
C1666 C1668 1.327 . S
C1666 H1691 0.950 . S
C1667 C1666 1.349 . S
C1667 C1683 1.349 . S
C1668 C1666 1.327 . S
C1668 C1687 1.429 . S
C1668 H1692 0.950 . S
C1669 C1686 1.574 . S
C1669 C1688 1.368 . S
C1669 H1693 0.949 . S
H1670 C1674 0.949 . S
C1671 C1672 1.349 . S
C1671 C1673 1.327 . S
C1671 H1694 0.950 . S
C1672 C1671 1.349 . S
C1672 C1684 1.349 . S
C1673 C1671 1.327 . S
C1673 C1689 1.429 . S
C1673 H1695 0.950 . S
C1674 H1670 0.949 . S
C1674 C1682 1.574 . S
C1674 C1690 1.368 . S
H1675 C1683 0.950 . S
H1676 C1681 0.950 . S
H1677 C1682 0.949 . S
H1678 C1684 0.950 . S
H1679 C1685 0.950 . S
H1680 C1686 0.949 . S
C1681 H1676 0.950 . S
C1681 C1683 1.327 . S
C1681 C1687 1.429 . S
C1682 C1674 1.574 . S
C1682 H1677 0.949 . S
C1682 C1688 1.368 . S
C1683 C1667 1.349 . S
C1683 H1675 0.950 . S
C1683 C1681 1.327 . S
C1684 C1672 1.349 . S
C1684 H1678 0.950 . S
C1684 C1685 1.327 . S
C1685 H1679 0.950 . S
C1685 C1684 1.327 . S
C1685 C1689 1.429 . S
C1686 C1669 1.574 . S
C1686 H1680 0.949 . S
C1686 C1690 1.368 . S
C1687 C1668 1.429 . S
C1687 C1681 1.429 . S
C1687 C1688 1.523 . S
C1688 C1669 1.368 . S
C1688 C1682 1.368 . S
C1688 C1687 1.523 . S
C1689 C1673 1.429 . S
C1689 C1685 1.429 . S
C1689 C1690 1.523 . S
C1690 C1674 1.368 . S
C1690 C1686 1.368 . S
C1690 C1689 1.523 . S
H1691 C1666 0.950 . S
H1692 C1668 0.950 . S
H1693 C1669 0.949 . S
H1694 C1671 0.950 . S
H1695 C1673 0.950 . S
C1696 C1697 1.349 . S
C1696 C1698 1.327 . S
C1696 H1721 0.950 . S
C1697 C1696 1.349 . S
C1697 C1713 1.349 . S
C1698 C1696 1.327 . S
C1698 C1717 1.429 . S
C1698 H1722 0.950 . S
C1699 C1716 1.574 . S
C1699 C1718 1.368 . S
C1699 H1723 0.949 . S
H1700 C1704 0.949 . S
C1701 C1702 1.349 . S
C1701 C1703 1.327 . S
C1701 H1724 0.950 . S
C1702 C1701 1.349 . S
C1702 C1714 1.349 . S
C1703 C1701 1.327 . S
C1703 C1719 1.429 . S
C1703 H1725 0.950 . S
C1704 H1700 0.949 . S
C1704 C1712 1.574 . S
C1704 C1720 1.368 . S
H1705 C1713 0.950 . S
H1706 C1711 0.950 . S
H1707 C1712 0.949 . S
H1708 C1714 0.950 . S
H1709 C1715 0.950 . S
H1710 C1716 0.949 . S
C1711 H1706 0.950 . S
C1711 C1713 1.327 . S
C1711 C1717 1.429 . S
C1712 C1704 1.574 . S
C1712 H1707 0.949 . S
C1712 C1718 1.368 . S
C1713 C1697 1.349 . S
C1713 H1705 0.950 . S
C1713 C1711 1.327 . S
C1714 C1702 1.349 . S
C1714 H1708 0.950 . S
C1714 C1715 1.327 . S
C1715 H1709 0.950 . S
C1715 C1714 1.327 . S
C1715 C1719 1.429 . S
C1716 C1699 1.574 . S
C1716 H1710 0.949 . S
C1716 C1720 1.368 . S
C1717 C1698 1.429 . S
C1717 C1711 1.429 . S
C1717 C1718 1.523 . S
C1718 C1699 1.368 . S
C1718 C1712 1.368 . S
C1718 C1717 1.523 . S
C1719 C1703 1.429 . S
C1719 C1715 1.429 . S
C1719 C1720 1.523 . S
C1720 C1704 1.368 . S
C1720 C1716 1.368 . S
C1720 C1719 1.523 . S
H1721 C1696 0.950 . S
H1722 C1698 0.950 . S
H1723 C1699 0.949 . S
H1724 C1701 0.950 . S
H1725 C1703 0.950 . S
C1726 C1727 1.349 . S
C1726 C1728 1.327 . S
C1726 H1751 0.950 . S
C1727 C1726 1.349 . S
C1727 C1743 1.349 . S
C1728 C1726 1.327 . S
C1728 C1747 1.429 . S
C1728 H1752 0.950 . S
C1729 C1746 1.574 . S
C1729 C1748 1.368 . S
C1729 H1753 0.949 . S
H1730 C1734 0.949 . S
C1731 C1732 1.349 . S
C1731 C1733 1.327 . S
C1731 H1754 0.950 . S
C1732 C1731 1.349 . S
C1732 C1744 1.349 . S
C1733 C1731 1.327 . S
C1733 C1749 1.429 . S
C1733 H1755 0.950 . S
C1734 H1730 0.949 . S
C1734 C1742 1.574 . S
C1734 C1750 1.368 . S
H1735 C1743 0.950 . S
H1736 C1741 0.950 . S
H1737 C1742 0.949 . S
H1738 C1744 0.950 . S
H1739 C1745 0.950 . S
H1740 C1746 0.949 . S
C1741 H1736 0.950 . S
C1741 C1743 1.327 . S
C1741 C1747 1.429 . S
C1742 C1734 1.574 . S
C1742 H1737 0.949 . S
C1742 C1748 1.368 . S
C1743 C1727 1.349 . S
C1743 H1735 0.950 . S
C1743 C1741 1.327 . S
C1744 C1732 1.349 . S
C1744 H1738 0.950 . S
C1744 C1745 1.327 . S
C1745 H1739 0.950 . S
C1745 C1744 1.327 . S
C1745 C1749 1.429 . S
C1746 C1729 1.574 . S
C1746 H1740 0.949 . S
C1746 C1750 1.368 . S
C1747 C1728 1.429 . S
C1747 C1741 1.429 . S
C1747 C1748 1.523 . S
C1748 C1729 1.368 . S
C1748 C1742 1.368 . S
C1748 C1747 1.523 . S
C1749 C1733 1.429 . S
C1749 C1745 1.429 . S
C1749 C1750 1.523 . S
C1750 C1734 1.368 . S
C1750 C1746 1.368 . S
C1750 C1749 1.523 . S
H1751 C1726 0.950 . S
H1752 C1728 0.950 . S
H1753 C1729 0.949 . S
H1754 C1731 0.950 . S
H1755 C1733 0.950 . S
C1756 C1757 1.349 . S
C1756 C1758 1.327 . S
C1756 H1781 0.950 . S
C1757 C1756 1.349 . S
C1757 C1773 1.349 . S
C1758 C1756 1.327 . S
C1758 C1777 1.429 . S
C1758 H1782 0.950 . S
C1759 C1776 1.574 . S
C1759 C1778 1.368 . S
C1759 H1783 0.949 . S
H1760 C1764 0.949 . S
C1761 C1762 1.349 . S
C1761 C1763 1.327 . S
C1761 H1784 0.950 . S
C1762 C1761 1.349 . S
C1762 C1774 1.349 . S
C1763 C1761 1.327 . S
C1763 C1779 1.429 . S
C1763 H1785 0.950 . S
C1764 H1760 0.949 . S
C1764 C1772 1.574 . S
C1764 C1780 1.368 . S
H1765 C1773 0.950 . S
H1766 C1771 0.950 . S
H1767 C1772 0.949 . S
H1768 C1774 0.950 . S
H1769 C1775 0.950 . S
H1770 C1776 0.949 . S
C1771 H1766 0.950 . S
C1771 C1773 1.327 . S
C1771 C1777 1.429 . S
C1772 C1764 1.574 . S
C1772 H1767 0.949 . S
C1772 C1778 1.368 . S
C1773 C1757 1.349 . S
C1773 H1765 0.950 . S
C1773 C1771 1.327 . S
C1774 C1762 1.349 . S
C1774 H1768 0.950 . S
C1774 C1775 1.327 . S
C1775 H1769 0.950 . S
C1775 C1774 1.327 . S
C1775 C1779 1.429 . S
C1776 C1759 1.574 . S
C1776 H1770 0.949 . S
C1776 C1780 1.368 . S
C1777 C1758 1.429 . S
C1777 C1771 1.429 . S
C1777 C1778 1.523 . S
C1778 C1759 1.368 . S
C1778 C1772 1.368 . S
C1778 C1777 1.523 . S
C1779 C1763 1.429 . S
C1779 C1775 1.429 . S
C1779 C1780 1.523 . S
C1780 C1764 1.368 . S
C1780 C1776 1.368 . S
C1780 C1779 1.523 . S
H1781 C1756 0.950 . S
H1782 C1758 0.950 . S
H1783 C1759 0.949 . S
H1784 C1761 0.950 . S
H1785 C1763 0.950 . S
C1786 C1787 1.349 . S
C1786 C1788 1.327 . S
C1786 H1811 0.950 . S
C1787 C1786 1.349 . S
C1787 C1803 1.349 . S
C1788 C1786 1.327 . S
C1788 C1807 1.429 . S
C1788 H1812 0.950 . S
C1789 C1806 1.574 . S
C1789 C1808 1.368 . S
C1789 H1813 0.949 . S
H1790 C1794 0.949 . S
C1791 C1792 1.349 . S
C1791 C1793 1.327 . S
C1791 H1814 0.950 . S
C1792 C1791 1.349 . S
C1792 C1804 1.349 . S
C1793 C1791 1.327 . S
C1793 C1809 1.429 . S
C1793 H1815 0.950 . S
C1794 H1790 0.949 . S
C1794 C1802 1.574 . S
C1794 C1810 1.368 . S
H1795 C1803 0.950 . S
H1796 C1801 0.950 . S
H1797 C1802 0.949 . S
H1798 C1804 0.950 . S
H1799 C1805 0.950 . S
H1800 C1806 0.949 . S
C1801 H1796 0.950 . S
C1801 C1803 1.327 . S
C1801 C1807 1.429 . S
C1802 C1794 1.574 . S
C1802 H1797 0.949 . S
C1802 C1808 1.368 . S
C1803 C1787 1.349 . S
C1803 H1795 0.950 . S
C1803 C1801 1.327 . S
C1804 C1792 1.349 . S
C1804 H1798 0.950 . S
C1804 C1805 1.327 . S
C1805 H1799 0.950 . S
C1805 C1804 1.327 . S
C1805 C1809 1.429 . S
C1806 C1789 1.574 . S
C1806 H1800 0.949 . S
C1806 C1810 1.368 . S
C1807 C1788 1.429 . S
C1807 C1801 1.429 . S
C1807 C1808 1.523 . S
C1808 C1789 1.368 . S
C1808 C1802 1.368 . S
C1808 C1807 1.523 . S
C1809 C1793 1.429 . S
C1809 C1805 1.429 . S
C1809 C1810 1.523 . S
C1810 C1794 1.368 . S
C1810 C1806 1.368 . S
C1810 C1809 1.523 . S
H1811 C1786 0.950 . S
H1812 C1788 0.950 . S
H1813 C1789 0.949 . S
H1814 C1791 0.950 . S
H1815 C1793 0.950 . S
C1816 C1817 1.349 . S
C1816 C1818 1.327 . S
C1816 H1841 0.950 . S
C1817 C1816 1.349 . S
C1817 C1833 1.349 . S
C1818 C1816 1.327 . S
C1818 C1837 1.429 . S
C1818 H1842 0.950 . S
C1819 C1836 1.574 . S
C1819 C1838 1.368 . S
C1819 H1843 0.949 . S
H1820 C1824 0.949 . S
C1821 C1822 1.349 . S
C1821 C1823 1.327 . S
C1821 H1844 0.950 . S
C1822 C1821 1.349 . S
C1822 C1834 1.349 . S
C1823 C1821 1.327 . S
C1823 C1839 1.429 . S
C1823 H1845 0.950 . S
C1824 H1820 0.949 . S
C1824 C1832 1.574 . S
C1824 C1840 1.368 . S
H1825 C1833 0.950 . S
H1826 C1831 0.950 . S
H1827 C1832 0.949 . S
H1828 C1834 0.950 . S
H1829 C1835 0.950 . S
H1830 C1836 0.949 . S
C1831 H1826 0.950 . S
C1831 C1833 1.327 . S
C1831 C1837 1.429 . S
C1832 C1824 1.574 . S
C1832 H1827 0.949 . S
C1832 C1838 1.368 . S
C1833 C1817 1.349 . S
C1833 H1825 0.950 . S
C1833 C1831 1.327 . S
C1834 C1822 1.349 . S
C1834 H1828 0.950 . S
C1834 C1835 1.327 . S
C1835 H1829 0.950 . S
C1835 C1834 1.327 . S
C1835 C1839 1.429 . S
C1836 C1819 1.574 . S
C1836 H1830 0.949 . S
C1836 C1840 1.368 . S
C1837 C1818 1.429 . S
C1837 C1831 1.429 . S
C1837 C1838 1.523 . S
C1838 C1819 1.368 . S
C1838 C1832 1.368 . S
C1838 C1837 1.523 . S
C1839 C1823 1.429 . S
C1839 C1835 1.429 . S
C1839 C1840 1.523 . S
C1840 C1824 1.368 . S
C1840 C1836 1.368 . S
C1840 C1839 1.523 . S
H1841 C1816 0.950 . S
H1842 C1818 0.950 . S
H1843 C1819 0.949 . S
H1844 C1821 0.950 . S
H1845 C1823 0.950 . S
C1846 C1847 1.349 . S
C1846 C1848 1.327 . S
C1846 H1871 0.950 . S
C1847 C1846 1.349 . S
C1847 C1863 1.349 . S
C1848 C1846 1.327 . S
C1848 C1867 1.429 . S
C1848 H1872 0.950 . S
C1849 C1866 1.574 . S
C1849 C1868 1.368 . S
C1849 H1873 0.949 . S
H1850 C1854 0.949 . S
C1851 C1852 1.349 . S
C1851 C1853 1.327 . S
C1851 H1874 0.950 . S
C1852 C1851 1.349 . S
C1852 C1864 1.349 . S
C1853 C1851 1.327 . S
C1853 C1869 1.429 . S
C1853 H1875 0.950 . S
C1854 H1850 0.949 . S
C1854 C1862 1.574 . S
C1854 C1870 1.368 . S
H1855 C1863 0.950 . S
H1856 C1861 0.950 . S
H1857 C1862 0.949 . S
H1858 C1864 0.950 . S
H1859 C1865 0.950 . S
H1860 C1866 0.949 . S
C1861 H1856 0.950 . S
C1861 C1863 1.327 . S
C1861 C1867 1.429 . S
C1862 C1854 1.574 . S
C1862 H1857 0.949 . S
C1862 C1868 1.368 . S
C1863 C1847 1.349 . S
C1863 H1855 0.950 . S
C1863 C1861 1.327 . S
C1864 C1852 1.349 . S
C1864 H1858 0.950 . S
C1864 C1865 1.327 . S
C1865 H1859 0.950 . S
C1865 C1864 1.327 . S
C1865 C1869 1.429 . S
C1866 C1849 1.574 . S
C1866 H1860 0.949 . S
C1866 C1870 1.368 . S
C1867 C1848 1.429 . S
C1867 C1861 1.429 . S
C1867 C1868 1.523 . S
C1868 C1849 1.368 . S
C1868 C1862 1.368 . S
C1868 C1867 1.523 . S
C1869 C1853 1.429 . S
C1869 C1865 1.429 . S
C1869 C1870 1.523 . S
C1870 C1854 1.368 . S
C1870 C1866 1.368 . S
C1870 C1869 1.523 . S
H1871 C1846 0.950 . S
H1872 C1848 0.950 . S
H1873 C1849 0.949 . S
H1874 C1851 0.950 . S
H1875 C1853 0.950 . S
C1876 C1877 1.349 . S
C1876 C1878 1.327 . S
C1876 H1901 0.950 . S
C1877 C1876 1.349 . S
C1877 C1893 1.349 . S
C1878 C1876 1.327 . S
C1878 C1897 1.429 . S
C1878 H1902 0.950 . S
C1879 C1896 1.574 . S
C1879 C1898 1.368 . S
C1879 H1903 0.949 . S
H1880 C1884 0.949 . S
C1881 C1882 1.349 . S
C1881 C1883 1.327 . S
C1881 H1904 0.950 1_556 S
C1882 C1881 1.349 . S
C1882 C1894 1.349 . S
C1883 C1881 1.327 . S
C1883 C1899 1.429 . S
C1883 H1905 0.950 . S
C1884 H1880 0.949 . S
C1884 C1892 1.574 . S
C1884 C1900 1.368 . S
H1885 C1893 0.950 . S
H1886 C1891 0.950 . S
H1887 C1892 0.949 . S
H1888 C1894 0.950 . S
H1889 C1895 0.950 . S
H1890 C1896 0.949 . S
C1891 H1886 0.950 . S
C1891 C1893 1.327 . S
C1891 C1897 1.429 . S
C1892 C1884 1.574 . S
C1892 H1887 0.949 . S
C1892 C1898 1.368 . S
C1893 C1877 1.349 . S
C1893 H1885 0.950 . S
C1893 C1891 1.327 . S
C1894 C1882 1.349 . S
C1894 H1888 0.950 . S
C1894 C1895 1.327 . S
C1895 H1889 0.950 . S
C1895 C1894 1.327 . S
C1895 C1899 1.429 . S
C1896 C1879 1.574 . S
C1896 H1890 0.949 . S
C1896 C1900 1.368 . S
C1897 C1878 1.429 . S
C1897 C1891 1.429 . S
C1897 C1898 1.523 . S
C1898 C1879 1.368 . S
C1898 C1892 1.368 . S
C1898 C1897 1.523 . S
C1899 C1883 1.429 . S
C1899 C1895 1.429 . S
C1899 C1900 1.523 . S
C1900 C1884 1.368 . S
C1900 C1896 1.368 . S
C1900 C1899 1.523 . S
H1901 C1876 0.950 . S
H1902 C1878 0.950 . S
H1903 C1879 0.949 . S
H1904 C1881 0.950 1_554 S
H1905 C1883 0.950 . S
C1906 C1907 1.349 . S
C1906 C1908 1.327 . S
C1906 H1931 0.950 . S
C1907 C1906 1.349 . S
C1907 C1923 1.349 . S
C1908 C1906 1.327 . S
C1908 C1927 1.429 . S
C1908 H1932 0.950 . S
C1909 C1926 1.574 . S
C1909 C1928 1.368 . S
C1909 H1933 0.949 . S
H1910 C1914 0.949 . S
C1911 C1912 1.349 . S
C1911 C1913 1.327 . S
C1911 H1934 0.950 . S
C1912 C1911 1.349 . S
C1912 C1924 1.349 . S
C1913 C1911 1.327 . S
C1913 C1929 1.429 . S
C1913 H1935 0.950 . S
C1914 H1910 0.949 . S
C1914 C1922 1.574 . S
C1914 C1930 1.368 . S
H1915 C1923 0.950 . S
H1916 C1921 0.950 . S
H1917 C1922 0.949 . S
H1918 C1924 0.950 . S
H1919 C1925 0.950 . S
H1920 C1926 0.949 . S
C1921 H1916 0.950 . S
C1921 C1923 1.327 . S
C1921 C1927 1.429 . S
C1922 C1914 1.574 . S
C1922 H1917 0.949 . S
C1922 C1928 1.368 . S
C1923 C1907 1.349 . S
C1923 H1915 0.950 . S
C1923 C1921 1.327 . S
C1924 C1912 1.349 . S
C1924 H1918 0.950 . S
C1924 C1925 1.327 . S
C1925 H1919 0.950 . S
C1925 C1924 1.327 . S
C1925 C1929 1.429 . S
C1926 C1909 1.574 . S
C1926 H1920 0.949 . S
C1926 C1930 1.368 . S
C1927 C1908 1.429 . S
C1927 C1921 1.429 . S
C1927 C1928 1.523 . S
C1928 C1909 1.368 . S
C1928 C1922 1.368 . S
C1928 C1927 1.523 . S
C1929 C1913 1.429 . S
C1929 C1925 1.429 . S
C1929 C1930 1.523 . S
C1930 C1914 1.368 . S
C1930 C1926 1.368 . S
C1930 C1929 1.523 . S
H1931 C1906 0.950 . S
H1932 C1908 0.950 . S
H1933 C1909 0.949 . S
H1934 C1911 0.950 . S
H1935 C1913 0.950 . S
C1936 C1937 1.349 1_565 S
C1936 C1938 1.327 . S
C1936 H1961 0.950 . S
C1937 C1936 1.349 1_545 S
C1937 C1953 1.349 . S
C1938 C1936 1.327 . S
C1938 C1957 1.429 1_565 S
C1938 H1962 0.950 . S
C1939 C1956 1.574 . S
C1939 C1958 1.368 . S
C1939 H1963 0.949 . S
H1940 C1944 0.933 1_565 S
C1941 C1942 1.349 . S
C1941 C1943 1.327 . S
C1941 H1964 0.950 . S
C1942 C1941 1.349 . S
C1942 C1954 1.349 . S
C1943 C1941 1.327 . S
C1943 C1959 1.429 . S
C1943 H1965 0.950 . S
C1944 H1940 0.933 1_545 S
C1944 C1952 1.573 1_545 S
C1944 C1960 1.387 . S
H1945 C1953 0.950 . S
H1946 C1951 0.950 . S
H1947 C1952 0.949 . S
H1948 C1954 0.950 1_565 S
H1949 C1955 0.950 1_565 S
H1950 C1956 0.949 . S
C1951 H1946 0.950 . S
C1951 C1953 1.327 . S
C1951 C1957 1.429 . S
C1952 C1944 1.573 1_565 S
C1952 H1947 0.949 . S
C1952 C1958 1.368 1_565 S
C1953 C1937 1.349 . S
C1953 H1945 0.950 . S
C1953 C1951 1.327 . S
C1954 C1942 1.349 . S
C1954 H1948 0.950 1_545 S
C1954 C1955 1.327 . S
C1955 H1949 0.950 1_545 S
C1955 C1954 1.327 . S
C1955 C1959 1.429 . S
C1956 C1939 1.574 . S
C1956 H1950 0.949 . S
C1956 C1960 1.368 . S
C1957 C1938 1.429 1_545 S
C1957 C1951 1.429 . S
C1957 C1958 1.523 . S
C1958 C1939 1.368 . S
C1958 C1952 1.368 1_545 S
C1958 C1957 1.523 . S
C1959 C1943 1.429 . S
C1959 C1955 1.429 . S
C1959 C1960 1.523 . S
C1960 C1944 1.387 . S
C1960 C1956 1.368 . S
C1960 C1959 1.523 . S
H1961 C1936 0.950 . S
H1962 C1938 0.950 . S
H1963 C1939 0.949 . S
H1964 C1941 0.950 . S
H1965 C1943 0.950 . S
C1966 C1967 1.349 . S
C1966 C1968 1.327 . S
C1966 H1991 0.950 . S
C1967 C1966 1.349 . S
C1967 C1983 1.349 . S
C1968 C1966 1.327 . S
C1968 C1987 1.429 . S
C1968 H1992 0.950 . S
C1969 C1986 1.574 . S
C1969 C1988 1.368 . S
C1969 H1993 0.949 . S
H1970 C1974 0.949 . S
C1971 C1972 1.349 . S
C1971 C1973 1.327 . S
C1971 H1994 0.950 . S
C1972 C1971 1.349 . S
C1972 C1984 1.349 . S
C1973 C1971 1.327 . S
C1973 C1989 1.429 . S
C1973 H1995 0.950 . S
C1974 H1970 0.949 . S
C1974 C1982 1.574 . S
C1974 C1990 1.368 . S
H1975 C1983 0.950 . S
H1976 C1981 0.950 . S
H1977 C1982 0.949 . S
H1978 C1984 0.950 . S
H1979 C1985 0.950 . S
H1980 C1986 0.949 . S
C1981 H1976 0.950 . S
C1981 C1983 1.327 . S
C1981 C1987 1.429 . S
C1982 C1974 1.574 . S
C1982 H1977 0.949 . S
C1982 C1988 1.368 . S
C1983 C1967 1.349 . S
C1983 H1975 0.950 . S
C1983 C1981 1.327 . S
C1984 C1972 1.349 . S
C1984 H1978 0.950 . S
C1984 C1985 1.327 . S
C1985 H1979 0.950 . S
C1985 C1984 1.327 . S
C1985 C1989 1.429 . S
C1986 C1969 1.574 . S
C1986 H1980 0.949 . S
C1986 C1990 1.368 . S
C1987 C1968 1.429 . S
C1987 C1981 1.429 . S
C1987 C1988 1.523 . S
C1988 C1969 1.368 . S
C1988 C1982 1.368 . S
C1988 C1987 1.523 . S
C1989 C1973 1.429 . S
C1989 C1985 1.429 . S
C1989 C1990 1.523 . S
C1990 C1974 1.368 . S
C1990 C1986 1.368 . S
C1990 C1989 1.523 . S
H1991 C1966 0.950 . S
H1992 C1968 0.950 . S
H1993 C1969 0.949 . S
H1994 C1971 0.950 . S
H1995 C1973 0.950 . S
C1996 C1997 1.349 . S
C1996 C1998 1.327 . S
C1996 H2021 0.950 1_545 S
C1997 C1996 1.349 . S
C1997 C2013 1.349 . S
C1998 C1996 1.327 . S
C1998 C2017 1.429 . S
C1998 H2022 0.950 1_545 S
C1999 C2016 1.574 . S
C1999 C2018 1.368 . S
C1999 H2023 0.949 . S
H2000 C2004 0.997 . S
C2001 C2002 1.349 . S
C2001 C2003 1.327 . S
C2001 H2024 0.950 . S
C2002 C2001 1.349 . S
C2002 C2014 1.349 . S
C2003 C2001 1.327 . S
C2003 C2019 1.429 . S
C2003 H2025 0.950 . S
C2004 H2000 0.997 . S
C2004 C2012 1.574 . S
C2004 C2020 1.368 . S
H2005 C2013 0.950 . S
H2006 C2011 0.950 . S
H2007 C2012 0.949 1_565 S
H2008 C2014 0.950 . S
H2009 C2015 0.950 . S
H2010 C2016 0.949 . S
C2011 H2006 0.950 . S
C2011 C2013 1.327 . S
C2011 C2017 1.429 . S
C2012 C2004 1.574 . S
C2012 H2007 0.949 1_545 S
C2012 C2018 1.368 . S
C2013 C1997 1.349 . S
C2013 H2005 0.950 . S
C2013 C2011 1.327 . S
C2014 C2002 1.349 . S
C2014 H2008 0.950 . S
C2014 C2015 1.327 . S
C2015 H2009 0.950 . S
C2015 C2014 1.327 . S
C2015 C2019 1.429 . S
C2016 C1999 1.574 . S
C2016 H2010 0.949 . S
C2016 C2020 1.368 . S
C2017 C1998 1.429 . S
C2017 C2011 1.429 . S
C2017 C2018 1.523 . S
C2018 C1999 1.368 . S
C2018 C2012 1.368 . S
C2018 C2017 1.523 . S
C2019 C2003 1.429 . S
C2019 C2015 1.429 . S
C2019 C2020 1.523 . S
C2020 C2004 1.368 . S
C2020 C2016 1.368 . S
C2020 C2019 1.523 . S
H2021 C1996 0.950 1_565 S
H2022 C1998 0.950 1_565 S
H2023 C1999 0.949 . S
H2024 C2001 0.950 . S
H2025 C2003 0.950 . S
C2026 C2027 1.349 . S
C2026 C2028 1.327 . S
C2026 H2051 0.950 . S
C2027 C2026 1.349 . S
C2027 C2043 1.349 . S
C2028 C2026 1.327 . S
C2028 C2047 1.429 . S
C2028 H2052 0.950 . S
C2029 C2046 1.574 . S
C2029 C2048 1.368 . S
C2029 H2053 0.949 . S
H2030 C2034 0.949 . S
C2031 C2032 1.349 . S
C2031 C2033 1.327 . S
C2031 H2054 0.950 . S
C2032 C2031 1.349 . S
C2032 C2044 1.349 . S
C2033 C2031 1.327 . S
C2033 C2049 1.429 . S
C2033 H2055 0.950 . S
C2034 H2030 0.949 . S
C2034 C2042 1.574 . S
C2034 C2050 1.368 . S
H2035 C2043 0.950 . S
H2036 C2041 0.950 . S
H2037 C2042 0.949 . S
H2038 C2044 0.950 . S
H2039 C2045 0.950 . S
H2040 C2046 0.949 . S
C2041 H2036 0.950 . S
C2041 C2043 1.327 . S
C2041 C2047 1.429 . S
C2042 C2034 1.574 . S
C2042 H2037 0.949 . S
C2042 C2048 1.368 . S
C2043 C2027 1.349 . S
C2043 H2035 0.950 . S
C2043 C2041 1.327 . S
C2044 C2032 1.349 . S
C2044 H2038 0.950 . S
C2044 C2045 1.327 . S
C2045 H2039 0.950 . S
C2045 C2044 1.327 . S
C2045 C2049 1.429 . S
C2046 C2029 1.574 . S
C2046 H2040 0.949 . S
C2046 C2050 1.368 . S
C2047 C2028 1.429 . S
C2047 C2041 1.429 . S
C2047 C2048 1.523 . S
C2048 C2029 1.368 . S
C2048 C2042 1.368 . S
C2048 C2047 1.523 . S
C2049 C2033 1.429 . S
C2049 C2045 1.429 . S
C2049 C2050 1.523 . S
C2050 C2034 1.368 . S
C2050 C2046 1.368 . S
C2050 C2049 1.523 . S
H2051 C2026 0.950 . S
H2052 C2028 0.950 . S
H2053 C2029 0.949 . S
H2054 C2031 0.950 . S
H2055 C2033 0.950 . S
C2056 C2057 1.349 . S
C2056 C2058 1.327 . S
C2056 H2081 0.950 . S
C2057 C2056 1.349 . S
C2057 C2073 1.349 1_565 S
C2058 C2056 1.327 . S
C2058 C2077 1.429 1_565 S
C2058 H2082 0.950 . S
C2059 C2076 1.574 . S
C2059 C2078 1.368 . S
C2059 H2083 0.949 . S
H2060 C2064 0.949 . S
C2061 C2062 1.349 . S
C2061 C2063 1.327 . S
C2061 H2084 0.950 . S
C2062 C2061 1.349 . S
C2062 C2074 1.349 . S
C2063 C2061 1.327 . S
C2063 C2079 1.429 . S
C2063 H2085 0.950 . S
C2064 H2060 0.949 . S
C2064 C2072 1.574 . S
C2064 C2080 1.368 1_565 S
H2065 C2073 0.950 . S
H2066 C2071 0.950 . S
H2067 C2072 0.949 . S
H2068 C2074 0.950 1_565 S
H2069 C2075 0.950 1_565 S
H2070 C2076 0.949 . S
C2071 H2066 0.950 . S
C2071 C2073 1.327 . S
C2071 C2077 1.429 . S
C2072 C2064 1.574 . S
C2072 H2067 0.949 . S
C2072 C2078 1.368 1_565 S
C2073 C2057 1.349 1_545 S
C2073 H2065 0.950 . S
C2073 C2071 1.327 . S
C2074 C2062 1.349 . S
C2074 H2068 0.950 1_545 S
C2074 C2075 1.327 . S
C2075 H2069 0.950 1_545 S
C2075 C2074 1.327 . S
C2075 C2079 1.429 . S
C2076 C2059 1.574 . S
C2076 H2070 0.949 . S
C2076 C2080 1.368 . S
C2077 C2058 1.429 1_545 S
C2077 C2071 1.429 . S
C2077 C2078 1.523 . S
C2078 C2059 1.368 . S
C2078 C2072 1.368 1_545 S
C2078 C2077 1.523 . S
C2079 C2063 1.429 . S
C2079 C2075 1.429 . S
C2079 C2080 1.523 . S
C2080 C2064 1.368 1_545 S
C2080 C2076 1.368 . S
C2080 C2079 1.523 . S
H2081 C2056 0.950 . S
H2082 C2058 0.950 . S
H2083 C2059 0.949 . S
H2084 C2061 0.950 . S
H2085 C2063 0.950 . S
C2086 C2087 1.349 . S
C2086 C2088 1.327 . S
C2086 H2111 0.950 . S
C2087 C2086 1.349 . S
C2087 C2103 1.349 . S
C2088 C2086 1.327 . S
C2088 C2107 1.429 . S
C2088 H2112 0.950 . S
C2089 C2106 1.574 . S
C2089 C2108 1.368 . S
C2089 H2113 0.949 . S
H2090 C2094 0.949 . S
C2091 C2092 1.349 . S
C2091 C2093 1.327 . S
C2091 H2114 0.950 . S
C2092 C2091 1.349 . S
C2092 C2104 1.349 . S
C2093 C2091 1.327 . S
C2093 C2109 1.429 . S
C2093 H2115 0.950 . S
C2094 H2090 0.949 . S
C2094 C2102 1.574 . S
C2094 C2110 1.368 . S
H2095 C2103 0.950 . S
H2096 C2101 0.950 . S
H2097 C2102 0.949 . S
H2098 C2104 0.950 . S
H2099 C2105 0.950 . S
H2100 C2106 0.949 . S
C2101 H2096 0.950 . S
C2101 C2103 1.327 . S
C2101 C2107 1.429 . S
C2102 C2094 1.574 . S
C2102 H2097 0.949 . S
C2102 C2108 1.368 . S
C2103 C2087 1.349 . S
C2103 H2095 0.950 . S
C2103 C2101 1.327 . S
C2104 C2092 1.349 . S
C2104 H2098 0.950 . S
C2104 C2105 1.327 . S
C2105 H2099 0.950 . S
C2105 C2104 1.327 . S
C2105 C2109 1.429 . S
C2106 C2089 1.574 . S
C2106 H2100 0.949 . S
C2106 C2110 1.368 . S
C2107 C2088 1.429 . S
C2107 C2101 1.429 . S
C2107 C2108 1.523 . S
C2108 C2089 1.368 . S
C2108 C2102 1.368 . S
C2108 C2107 1.523 . S
C2109 C2093 1.429 . S
C2109 C2105 1.429 . S
C2109 C2110 1.523 . S
C2110 C2094 1.368 . S
C2110 C2106 1.368 . S
C2110 C2109 1.523 . S
H2111 C2086 0.950 . S
H2112 C2088 0.950 . S
H2113 C2089 0.949 . S
H2114 C2091 0.950 . S
H2115 C2093 0.950 . S
C2116 C2117 1.349 1_565 S
C2116 C2118 1.327 . S
C2116 H2141 0.950 . S
C2117 C2116 1.349 1_545 S
C2117 C2133 1.349 . S
C2118 C2116 1.327 . S
C2118 C2137 1.429 1_565 S
C2118 H2142 0.950 . S
C2119 C2136 1.574 . S
C2119 C2138 1.368 . S
C2119 H2143 0.949 . S
H2120 C2124 0.949 . S
C2121 C2122 1.349 1_545 S
C2121 C2123 1.327 . S
C2121 H2144 0.950 . S
C2122 C2121 1.349 1_565 S
C2122 C2134 1.349 . S
C2123 C2121 1.327 . S
C2123 C2139 1.410 1_545 S
C2123 H2145 0.950 . S
C2124 H2120 0.949 . S
C2124 C2132 1.574 . S
C2124 C2140 1.347 1_565 S
H2125 C2133 0.950 . S
H2126 C2131 0.950 . S
H2127 C2132 0.949 . S
H2128 C2134 0.950 . S
H2129 C2135 0.950 . S
H2130 C2136 0.949 . S
C2131 H2126 0.950 . S
C2131 C2133 1.327 . S
C2131 C2137 1.429 . S
C2132 C2124 1.574 . S
C2132 H2127 0.949 . S
C2132 C2138 1.368 1_565 S
C2133 C2117 1.349 . S
C2133 H2125 0.950 . S
C2133 C2131 1.327 . S
C2134 C2122 1.349 . S
C2134 H2128 0.950 . S
C2134 C2135 1.327 . S
C2135 H2129 0.950 . S
C2135 C2134 1.327 . S
C2135 C2139 1.449 . S
C2136 C2119 1.574 . S
C2136 H2130 0.949 . S
C2136 C2140 1.392 . S
C2137 C2118 1.429 1_545 S
C2137 C2131 1.429 . S
C2137 C2138 1.523 . S
C2138 C2119 1.368 . S
C2138 C2132 1.368 1_545 S
C2138 C2137 1.523 . S
C2139 C2123 1.410 1_565 S
C2139 C2135 1.449 . S
C2139 C2140 1.524 1_565 S
C2140 C2124 1.347 1_545 S
C2140 C2136 1.392 . S
C2140 C2139 1.524 1_545 S
H2141 C2116 0.950 . S
H2142 C2118 0.950 . S
H2143 C2119 0.949 . S
H2144 C2121 0.950 . S
H2145 C2123 0.950 . S
C2146 C2147 1.349 . S
C2146 C2148 1.327 . S
C2146 H2171 0.950 . S
C2147 C2146 1.349 . S
C2147 C2163 1.349 . S
C2148 C2146 1.327 . S
C2148 C2167 1.429 . S
C2148 H2172 0.950 . S
C2149 C2166 1.574 . S
C2149 C2168 1.368 . S
C2149 H2173 0.949 . S
H2150 C2154 0.949 . S
C2151 C2152 1.349 . S
C2151 C2153 1.327 . S
C2151 H2174 0.950 . S
C2152 C2151 1.349 . S
C2152 C2164 1.349 . S
C2153 C2151 1.327 . S
C2153 C2169 1.429 . S
C2153 H2175 0.950 . S
C2154 H2150 0.949 . S
C2154 C2162 1.574 . S
C2154 C2170 1.368 . S
H2155 C2163 0.950 . S
H2156 C2161 0.950 . S
H2157 C2162 0.949 . S
H2158 C2164 0.950 . S
H2159 C2165 0.950 . S
H2160 C2166 0.949 . S
C2161 H2156 0.950 . S
C2161 C2163 1.327 . S
C2161 C2167 1.429 . S
C2162 C2154 1.574 . S
C2162 H2157 0.949 . S
C2162 C2168 1.368 . S
C2163 C2147 1.349 . S
C2163 H2155 0.950 . S
C2163 C2161 1.327 . S
C2164 C2152 1.349 . S
C2164 H2158 0.950 . S
C2164 C2165 1.327 . S
C2165 H2159 0.950 . S
C2165 C2164 1.327 . S
C2165 C2169 1.429 . S
C2166 C2149 1.574 . S
C2166 H2160 0.949 . S
C2166 C2170 1.368 . S
C2167 C2148 1.429 . S
C2167 C2161 1.429 . S
C2167 C2168 1.523 . S
C2168 C2149 1.368 . S
C2168 C2162 1.368 . S
C2168 C2167 1.523 . S
C2169 C2153 1.429 . S
C2169 C2165 1.429 . S
C2169 C2170 1.523 . S
C2170 C2154 1.368 . S
C2170 C2166 1.368 . S
C2170 C2169 1.523 . S
H2171 C2146 0.950 . S
H2172 C2148 0.950 . S
H2173 C2149 0.949 . S
H2174 C2151 0.950 . S
H2175 C2153 0.950 . S
C2176 C2177 1.349 . S
C2176 C2178 1.327 1_554 S
C2176 H2201 0.950 1_554 S
C2177 C2176 1.349 . S
C2177 C2193 1.349 . S
C2178 C2176 1.327 1_556 S
C2178 C2197 1.429 1_556 S
C2178 H2202 0.950 . S
C2179 C2196 1.574 . S
C2179 C2198 1.362 1_554 S
C2179 H2203 0.949 . S
H2180 C2184 0.949 . S
C2181 C2182 1.349 . S
C2181 C2183 1.327 . S
C2181 H2204 0.950 . S
C2182 C2181 1.349 . S
C2182 C2194 1.349 . S
C2183 C2181 1.327 . S
C2183 C2199 1.429 . S
C2183 H2205 0.950 1_556 S
C2184 H2180 0.949 . S
C2184 C2192 1.574 . S
C2184 C2200 1.368 . S
H2185 C2193 0.950 . S
H2186 C2191 0.950 . S
H2187 C2192 0.949 . S
H2188 C2194 0.950 . S
H2189 C2195 0.950 . S
H2190 C2196 0.949 . S
C2191 H2186 0.950 . S
C2191 C2193 1.327 . S
C2191 C2197 1.429 . S
C2192 C2184 1.574 . S
C2192 H2187 0.949 . S
C2192 C2198 1.377 . S
C2193 C2177 1.349 . S
C2193 H2185 0.950 . S
C2193 C2191 1.327 . S
C2194 C2182 1.349 . S
C2194 H2188 0.950 . S
C2194 C2195 1.327 . S
C2195 H2189 0.950 . S
C2195 C2194 1.327 . S
C2195 C2199 1.429 . S
C2196 C2179 1.574 . S
C2196 H2190 0.949 . S
C2196 C2200 1.368 1_554 S
C2197 C2178 1.429 1_554 S
C2197 C2191 1.429 . S
C2197 C2198 1.520 1_554 S
C2198 C2179 1.362 1_556 S
C2198 C2192 1.377 . S
C2198 C2197 1.520 1_556 S
C2199 C2183 1.429 . S
C2199 C2195 1.429 . S
C2199 C2200 1.523 . S
C2200 C2184 1.368 . S
C2200 C2196 1.368 1_556 S
C2200 C2199 1.523 . S
H2201 C2176 0.950 1_556 S
H2202 C2178 0.950 . S
H2203 C2179 0.949 . S
H2204 C2181 0.950 . S
H2205 C2183 0.950 1_554 S
C2206 C2207 1.349 . S
C2206 C2208 1.329 . S
C2206 H2231 0.950 1_554 S
C2207 C2206 1.349 . S
C2207 C2223 1.349 . S
C2208 C2206 1.329 . S
C2208 C2227 1.434 . S
C2208 H2232 0.941 1_554 S
C2209 C2226 1.574 . S
C2209 C2228 1.368 . S
C2209 H2233 0.949 . S
H2210 C2214 0.949 . S
C2211 C2212 1.349 . S
C2211 C2213 1.327 . S
C2211 H2234 0.950 . S
C2212 C2211 1.349 . S
C2212 C2224 1.349 1_554 S
C2213 C2211 1.327 . S
C2213 C2229 1.429 . S
C2213 H2235 0.950 . S
C2214 H2210 0.949 . S
C2214 C2222 1.574 . S
C2214 C2230 1.368 1_556 S
H2215 C2223 0.950 . S
H2216 C2221 0.950 . S
H2217 C2222 0.949 . S
H2218 C2224 0.950 . S
H2219 C2225 0.950 . S
H2220 C2226 0.949 . S
C2221 H2216 0.950 . S
C2221 C2223 1.327 . S
C2221 C2227 1.429 . S
C2222 C2214 1.574 . S
C2222 H2217 0.949 . S
C2222 C2228 1.368 1_556 S
C2223 C2207 1.349 . S
C2223 H2215 0.950 . S
C2223 C2221 1.327 . S
C2224 C2212 1.349 1_556 S
C2224 H2218 0.950 . S
C2224 C2225 1.327 . S
C2225 H2219 0.950 . S
C2225 C2224 1.327 . S
C2225 C2229 1.429 1_556 S
C2226 C2209 1.574 . S
C2226 H2220 0.949 . S
C2226 C2230 1.368 . S
C2227 C2208 1.434 . S
C2227 C2221 1.429 . S
C2227 C2228 1.523 . S
C2228 C2209 1.368 . S
C2228 C2222 1.368 1_554 S
C2228 C2227 1.523 . S
C2229 C2213 1.429 . S
C2229 C2225 1.429 1_554 S
C2229 C2230 1.523 . S
C2230 C2214 1.368 1_554 S
C2230 C2226 1.368 . S
C2230 C2229 1.523 . S
H2231 C2206 0.950 1_556 S
H2232 C2208 0.941 1_556 S
H2233 C2209 0.949 . S
H2234 C2211 0.950 . S
H2235 C2213 0.950 . S
C2236 C2237 1.349 . S
C2236 C2238 1.327 . S
C2236 H2261 0.950 . S
C2237 C2236 1.349 . S
C2237 C2253 1.349 . S
C2238 C2236 1.327 . S
C2238 C2257 1.429 . S
C2238 H2262 0.950 . S
C2239 C2256 1.574 . S
C2239 C2258 1.368 . S
C2239 H2263 0.949 . S
H2240 C2244 0.949 . S
C2241 C2242 1.349 . S
C2241 C2243 1.327 . S
C2241 H2264 0.950 . S
C2242 C2241 1.349 . S
C2242 C2254 1.349 . S
C2243 C2241 1.327 . S
C2243 C2259 1.429 . S
C2243 H2265 0.950 . S
C2244 H2240 0.949 . S
C2244 C2252 1.574 . S
C2244 C2260 1.368 . S
H2245 C2253 0.950 . S
H2246 C2251 0.950 . S
H2247 C2252 0.949 . S
H2248 C2254 0.950 . S
H2249 C2255 0.950 . S
H2250 C2256 0.949 . S
C2251 H2246 0.950 . S
C2251 C2253 1.327 . S
C2251 C2257 1.429 . S
C2252 C2244 1.574 . S
C2252 H2247 0.949 . S
C2252 C2258 1.368 . S
C2253 C2237 1.349 . S
C2253 H2245 0.950 . S
C2253 C2251 1.327 . S
C2254 C2242 1.349 . S
C2254 H2248 0.950 . S
C2254 C2255 1.327 . S
C2255 H2249 0.950 . S
C2255 C2254 1.327 . S
C2255 C2259 1.429 . S
C2256 C2239 1.574 . S
C2256 H2250 0.949 . S
C2256 C2260 1.368 . S
C2257 C2238 1.429 . S
C2257 C2251 1.429 . S
C2257 C2258 1.523 . S
C2258 C2239 1.368 . S
C2258 C2252 1.368 . S
C2258 C2257 1.523 . S
C2259 C2243 1.429 . S
C2259 C2255 1.429 . S
C2259 C2260 1.523 . S
C2260 C2244 1.368 . S
C2260 C2256 1.368 . S
C2260 C2259 1.523 . S
H2261 C2236 0.950 . S
H2262 C2238 0.950 . S
H2263 C2239 0.949 . S
H2264 C2241 0.950 . S
H2265 C2243 0.950 . S
C2266 C2267 1.349 . S
C2266 C2268 1.327 . S
C2266 H2291 0.950 . S
C2267 C2266 1.349 . S
C2267 C2283 1.349 . S
C2268 C2266 1.327 . S
C2268 C2287 1.429 . S
C2268 H2292 0.950 . S
C2269 C2286 1.574 . S
C2269 C2288 1.368 . S
C2269 H2293 0.949 . S
H2270 C2274 0.949 . S
C2271 C2272 1.349 . S
C2271 C2273 1.327 . S
C2271 H2294 0.950 . S
C2272 C2271 1.349 . S
C2272 C2284 1.349 . S
C2273 C2271 1.327 . S
C2273 C2289 1.429 . S
C2273 H2295 0.950 . S
C2274 H2270 0.949 . S
C2274 C2282 1.574 . S
C2274 C2290 1.368 . S
H2275 C2283 0.950 . S
H2276 C2281 0.950 . S
H2277 C2282 0.949 . S
H2278 C2284 0.950 . S
H2279 C2285 0.950 . S
H2280 C2286 0.949 . S
C2281 H2276 0.950 . S
C2281 C2283 1.327 . S
C2281 C2287 1.429 . S
C2282 C2274 1.574 . S
C2282 H2277 0.949 . S
C2282 C2288 1.368 . S
C2283 C2267 1.349 . S
C2283 H2275 0.950 . S
C2283 C2281 1.327 . S
C2284 C2272 1.349 . S
C2284 H2278 0.950 . S
C2284 C2285 1.327 . S
C2285 H2279 0.950 . S
C2285 C2284 1.327 . S
C2285 C2289 1.429 . S
C2286 C2269 1.574 . S
C2286 H2280 0.949 . S
C2286 C2290 1.368 . S
C2287 C2268 1.429 . S
C2287 C2281 1.429 . S
C2287 C2288 1.523 . S
C2288 C2269 1.368 . S
C2288 C2282 1.368 . S
C2288 C2287 1.523 . S
C2289 C2273 1.429 . S
C2289 C2285 1.429 . S
C2289 C2290 1.523 . S
C2290 C2274 1.368 . S
C2290 C2286 1.368 . S
C2290 C2289 1.523 . S
H2291 C2266 0.950 . S
H2292 C2268 0.950 . S
H2293 C2269 0.949 . S
H2294 C2271 0.950 . S
H2295 C2273 0.950 . S
C2296 C2297 1.362 . S
C2296 C2298 1.304 1_545 S
C2296 H2321 0.961 . S
C2297 C2296 1.362 . S
C2297 C2313 1.349 . S
C2298 C2296 1.304 1_565 S
C2298 C2317 1.429 . S
C2298 H2322 0.950 . S
C2299 C2316 1.574 . S
C2299 C2318 1.368 . S
C2299 H2323 0.949 . S
H2300 C2304 0.949 . S
C2301 C2302 1.349 . S
C2301 C2303 1.327 . S
C2301 H2324 0.950 . S
C2302 C2301 1.349 . S
C2302 C2314 1.349 . S
C2303 C2301 1.327 . S
C2303 C2319 1.429 . S
C2303 H2325 0.950 . S
C2304 H2300 0.949 . S
C2304 C2312 1.574 . S
C2304 C2320 1.368 . S
H2305 C2313 0.950 . S
H2306 C2311 0.950 . S
H2307 C2312 0.949 . S
H2308 C2314 0.950 . S
H2309 C2315 0.950 . S
H2310 C2316 0.949 . S
C2311 H2306 0.950 . S
C2311 C2313 1.327 1_565 S
C2311 C2317 1.429 . S
C2312 C2304 1.574 . S
C2312 H2307 0.949 . S
C2312 C2318 1.368 . S
C2313 C2297 1.349 . S
C2313 H2305 0.950 . S
C2313 C2311 1.327 1_545 S
C2314 C2302 1.349 . S
C2314 H2308 0.950 . S
C2314 C2315 1.327 . S
C2315 H2309 0.950 . S
C2315 C2314 1.327 . S
C2315 C2319 1.429 . S
C2316 C2299 1.574 . S
C2316 H2310 0.949 . S
C2316 C2320 1.368 . S
C2317 C2298 1.429 . S
C2317 C2311 1.429 . S
C2317 C2318 1.523 . S
C2318 C2299 1.368 . S
C2318 C2312 1.368 . S
C2318 C2317 1.523 . S
C2319 C2303 1.429 . S
C2319 C2315 1.429 . S
C2319 C2320 1.523 . S
C2320 C2304 1.368 . S
C2320 C2316 1.368 . S
C2320 C2319 1.523 . S
H2321 C2296 0.961 . S
H2322 C2298 0.950 . S
H2323 C2299 0.949 . S
H2324 C2301 0.950 . S
H2325 C2303 0.950 . S
C2326 C2327 1.349 . S
C2326 C2328 1.327 . S
C2326 H2351 0.950 . S
C2327 C2326 1.349 . S
C2327 C2343 1.349 . S
C2328 C2326 1.327 . S
C2328 C2347 1.429 . S
C2328 H2352 0.950 . S
C2329 C2346 1.574 . S
C2329 C2348 1.368 . S
C2329 H2353 0.949 . S
H2330 C2334 0.949 . S
C2331 C2332 1.349 . S
C2331 C2333 1.327 . S
C2331 H2354 0.950 . S
C2332 C2331 1.349 . S
C2332 C2344 1.349 . S
C2333 C2331 1.327 . S
C2333 C2349 1.429 . S
C2333 H2355 0.950 . S
C2334 H2330 0.949 . S
C2334 C2342 1.574 . S
C2334 C2350 1.368 . S
H2335 C2343 0.950 . S
H2336 C2341 0.950 . S
H2337 C2342 0.949 . S
H2338 C2344 0.950 . S
H2339 C2345 0.950 . S
H2340 C2346 0.949 . S
C2341 H2336 0.950 . S
C2341 C2343 1.327 . S
C2341 C2347 1.429 . S
C2342 C2334 1.574 . S
C2342 H2337 0.949 . S
C2342 C2348 1.368 . S
C2343 C2327 1.349 . S
C2343 H2335 0.950 . S
C2343 C2341 1.327 . S
C2344 C2332 1.349 . S
C2344 H2338 0.950 . S
C2344 C2345 1.327 . S
C2345 H2339 0.950 . S
C2345 C2344 1.327 . S
C2345 C2349 1.429 . S
C2346 C2329 1.574 . S
C2346 H2340 0.949 . S
C2346 C2350 1.368 . S
C2347 C2328 1.429 . S
C2347 C2341 1.429 . S
C2347 C2348 1.523 . S
C2348 C2329 1.368 . S
C2348 C2342 1.368 . S
C2348 C2347 1.523 . S
C2349 C2333 1.429 . S
C2349 C2345 1.429 . S
C2349 C2350 1.523 . S
C2350 C2334 1.368 . S
C2350 C2346 1.368 . S
C2350 C2349 1.523 . S
H2351 C2326 0.950 . S
H2352 C2328 0.950 . S
H2353 C2329 0.949 . S
H2354 C2331 0.950 . S
H2355 C2333 0.950 . S
C2356 C2357 1.349 . S
C2356 C2358 1.327 . S
C2356 H2381 0.950 . S
C2357 C2356 1.349 . S
C2357 C2373 1.349 . S
C2358 C2356 1.327 . S
C2358 C2377 1.429 . S
C2358 H2382 0.950 . S
C2359 C2376 1.574 . S
C2359 C2378 1.368 . S
C2359 H2383 0.949 . S
H2360 C2364 0.949 . S
C2361 C2362 1.349 . S
C2361 C2363 1.327 . S
C2361 H2384 0.950 . S
C2362 C2361 1.349 . S
C2362 C2374 1.349 . S
C2363 C2361 1.327 . S
C2363 C2379 1.429 . S
C2363 H2385 0.950 . S
C2364 H2360 0.949 . S
C2364 C2372 1.574 . S
C2364 C2380 1.368 . S
H2365 C2373 0.950 . S
H2366 C2371 0.950 . S
H2367 C2372 0.949 . S
H2368 C2374 0.950 . S
H2369 C2375 0.950 . S
H2370 C2376 0.949 . S
C2371 H2366 0.950 . S
C2371 C2373 1.327 . S
C2371 C2377 1.429 . S
C2372 C2364 1.574 . S
C2372 H2367 0.949 . S
C2372 C2378 1.368 . S
C2373 C2357 1.349 . S
C2373 H2365 0.950 . S
C2373 C2371 1.327 . S
C2374 C2362 1.349 . S
C2374 H2368 0.950 . S
C2374 C2375 1.327 . S
C2375 H2369 0.950 . S
C2375 C2374 1.327 . S
C2375 C2379 1.429 . S
C2376 C2359 1.574 . S
C2376 H2370 0.949 . S
C2376 C2380 1.368 . S
C2377 C2358 1.429 . S
C2377 C2371 1.429 . S
C2377 C2378 1.523 . S
C2378 C2359 1.368 . S
C2378 C2372 1.368 . S
C2378 C2377 1.523 . S
C2379 C2363 1.429 . S
C2379 C2375 1.429 . S
C2379 C2380 1.523 . S
C2380 C2364 1.368 . S
C2380 C2376 1.368 . S
C2380 C2379 1.523 . S
H2381 C2356 0.950 . S
H2382 C2358 0.950 . S
H2383 C2359 0.949 . S
H2384 C2361 0.950 . S
H2385 C2363 0.950 . S
C2386 C2387 1.349 . S
C2386 C2388 1.327 . S
C2386 H2411 0.950 . S
C2387 C2386 1.349 . S
C2387 C2403 1.349 . S
C2388 C2386 1.327 . S
C2388 C2407 1.429 . S
C2388 H2412 0.950 . S
C2389 C2406 1.574 . S
C2389 C2408 1.368 . S
C2389 H2413 0.949 . S
H2390 C2394 0.949 . S
C2391 C2392 1.349 . S
C2391 C2393 1.327 . S
C2391 H2414 0.950 . S
C2392 C2391 1.349 . S
C2392 C2404 1.349 . S
C2393 C2391 1.327 . S
C2393 C2409 1.429 . S
C2393 H2415 0.950 . S
C2394 H2390 0.949 . S
C2394 C2402 1.574 . S
C2394 C2410 1.368 . S
H2395 C2403 0.950 . S
H2396 C2401 0.950 . S
H2397 C2402 0.949 . S
H2398 C2404 0.950 . S
H2399 C2405 0.950 . S
H2400 C2406 0.949 . S
C2401 H2396 0.950 . S
C2401 C2403 1.327 . S
C2401 C2407 1.429 . S
C2402 C2394 1.574 . S
C2402 H2397 0.949 . S
C2402 C2408 1.368 . S
C2403 C2387 1.349 . S
C2403 H2395 0.950 . S
C2403 C2401 1.327 . S
C2404 C2392 1.349 . S
C2404 H2398 0.950 . S
C2404 C2405 1.327 . S
C2405 H2399 0.950 . S
C2405 C2404 1.327 . S
C2405 C2409 1.429 . S
C2406 C2389 1.574 . S
C2406 H2400 0.949 . S
C2406 C2410 1.368 . S
C2407 C2388 1.429 . S
C2407 C2401 1.429 . S
C2407 C2408 1.523 . S
C2408 C2389 1.368 . S
C2408 C2402 1.368 . S
C2408 C2407 1.523 . S
C2409 C2393 1.429 . S
C2409 C2405 1.429 . S
C2409 C2410 1.523 . S
C2410 C2394 1.368 . S
C2410 C2406 1.368 . S
C2410 C2409 1.523 . S
H2411 C2386 0.950 . S
H2412 C2388 0.950 . S
H2413 C2389 0.949 . S
H2414 C2391 0.950 . S
H2415 C2393 0.950 . S
C2416 C2417 1.349 . S
C2416 C2418 1.327 . S
C2416 H2441 0.950 . S
C2417 C2416 1.349 . S
C2417 C2433 1.349 . S
C2418 C2416 1.327 . S
C2418 C2437 1.429 . S
C2418 H2442 0.950 . S
C2419 C2436 1.574 . S
C2419 C2438 1.368 . S
C2419 H2443 0.949 . S
H2420 C2424 0.949 . S
C2421 C2422 1.349 . S
C2421 C2423 1.327 . S
C2421 H2444 0.950 . S
C2422 C2421 1.349 . S
C2422 C2434 1.349 . S
C2423 C2421 1.327 . S
C2423 C2439 1.429 . S
C2423 H2445 0.950 . S
C2424 H2420 0.949 . S
C2424 C2432 1.574 . S
C2424 C2440 1.368 . S
H2425 C2433 0.950 . S
H2426 C2431 0.950 . S
H2427 C2432 0.949 . S
H2428 C2434 0.950 . S
H2429 C2435 0.950 . S
H2430 C2436 0.949 . S
C2431 H2426 0.950 . S
C2431 C2433 1.327 . S
C2431 C2437 1.429 . S
C2432 C2424 1.574 . S
C2432 H2427 0.949 . S
C2432 C2438 1.368 . S
C2433 C2417 1.349 . S
C2433 H2425 0.950 . S
C2433 C2431 1.327 . S
C2434 C2422 1.349 . S
C2434 H2428 0.950 . S
C2434 C2435 1.327 . S
C2435 H2429 0.950 . S
C2435 C2434 1.327 . S
C2435 C2439 1.429 . S
C2436 C2419 1.574 . S
C2436 H2430 0.949 . S
C2436 C2440 1.368 . S
C2437 C2418 1.429 . S
C2437 C2431 1.429 . S
C2437 C2438 1.523 . S
C2438 C2419 1.368 . S
C2438 C2432 1.368 . S
C2438 C2437 1.523 . S
C2439 C2423 1.429 . S
C2439 C2435 1.429 . S
C2439 C2440 1.523 . S
C2440 C2424 1.368 . S
C2440 C2436 1.368 . S
C2440 C2439 1.523 . S
H2441 C2416 0.950 . S
H2442 C2418 0.950 . S
H2443 C2419 0.949 . S
H2444 C2421 0.950 . S
H2445 C2423 0.950 . S
C2446 C2447 1.349 . S
C2446 C2448 1.327 . S
C2446 H2471 0.950 . S
C2447 C2446 1.349 . S
C2447 C2463 1.349 . S
C2448 C2446 1.327 . S
C2448 C2467 1.429 . S
C2448 H2472 0.950 . S
C2449 C2466 1.574 . S
C2449 C2468 1.368 . S
C2449 H2473 0.949 . S
H2450 C2454 0.949 . S
C2451 C2452 1.349 . S
C2451 C2453 1.327 . S
C2451 H2474 0.950 . S
C2452 C2451 1.349 . S
C2452 C2464 1.349 . S
C2453 C2451 1.327 . S
C2453 C2469 1.429 . S
C2453 H2475 0.950 . S
C2454 H2450 0.949 . S
C2454 C2462 1.574 . S
C2454 C2470 1.368 . S
H2455 C2463 0.950 . S
H2456 C2461 0.950 . S
H2457 C2462 0.949 . S
H2458 C2464 0.950 . S
H2459 C2465 0.950 . S
H2460 C2466 0.949 . S
C2461 H2456 0.950 . S
C2461 C2463 1.327 . S
C2461 C2467 1.429 . S
C2462 C2454 1.574 . S
C2462 H2457 0.949 . S
C2462 C2468 1.368 . S
C2463 C2447 1.349 . S
C2463 H2455 0.950 . S
C2463 C2461 1.327 . S
C2464 C2452 1.349 . S
C2464 H2458 0.950 . S
C2464 C2465 1.327 . S
C2465 H2459 0.950 . S
C2465 C2464 1.327 . S
C2465 C2469 1.429 . S
C2466 C2449 1.574 . S
C2466 H2460 0.949 . S
C2466 C2470 1.368 . S
C2467 C2448 1.429 . S
C2467 C2461 1.429 . S
C2467 C2468 1.523 . S
C2468 C2449 1.368 . S
C2468 C2462 1.368 . S
C2468 C2467 1.523 . S
C2469 C2453 1.429 . S
C2469 C2465 1.429 . S
C2469 C2470 1.523 . S
C2470 C2454 1.368 . S
C2470 C2466 1.368 . S
C2470 C2469 1.523 . S
H2471 C2446 0.950 . S
H2472 C2448 0.950 . S
H2473 C2449 0.949 . S
H2474 C2451 0.950 . S
H2475 C2453 0.950 . S
C2476 C2477 1.349 . S
C2476 C2478 1.327 . S
C2476 H2501 0.950 . S
C2477 C2476 1.349 . S
C2477 C2493 1.349 . S
C2478 C2476 1.327 . S
C2478 C2497 1.429 . S
C2478 H2502 0.950 . S
C2479 C2496 1.574 . S
C2479 C2498 1.368 . S
C2479 H2503 0.949 . S
H2480 C2484 0.949 . S
C2481 C2482 1.349 . S
C2481 C2483 1.327 . S
C2481 H2504 0.950 . S
C2482 C2481 1.349 . S
C2482 C2494 1.349 1_554 S
C2483 C2481 1.327 . S
C2483 C2499 1.429 1_554 S
C2483 H2505 0.950 . S
C2484 H2480 0.949 . S
C2484 C2492 1.574 . S
C2484 C2500 1.368 . S
H2485 C2493 0.950 . S
H2486 C2491 0.950 . S
H2487 C2492 0.949 . S
H2488 C2494 0.950 . S
H2489 C2495 0.950 . S
H2490 C2496 0.949 1_554 S
C2491 H2486 0.950 . S
C2491 C2493 1.327 . S
C2491 C2497 1.429 . S
C2492 C2484 1.574 . S
C2492 H2487 0.949 . S
C2492 C2498 1.368 . S
C2493 C2477 1.349 . S
C2493 H2485 0.950 . S
C2493 C2491 1.327 . S
C2494 C2482 1.349 1_556 S
C2494 H2488 0.950 . S
C2494 C2495 1.327 . S
C2495 H2489 0.950 . S
C2495 C2494 1.327 . S
C2495 C2499 1.429 . S
C2496 C2479 1.574 . S
C2496 H2490 0.949 1_556 S
C2496 C2500 1.368 . S
C2497 C2478 1.429 . S
C2497 C2491 1.429 . S
C2497 C2498 1.523 . S
C2498 C2479 1.368 . S
C2498 C2492 1.368 . S
C2498 C2497 1.523 . S
C2499 C2483 1.429 1_556 S
C2499 C2495 1.429 . S
C2499 C2500 1.523 . S
C2500 C2484 1.368 . S
C2500 C2496 1.368 . S
C2500 C2499 1.523 . S
H2501 C2476 0.950 . S
H2502 C2478 0.950 . S
H2503 C2479 0.949 . S
H2504 C2481 0.950 . S
H2505 C2483 0.950 . S
C2506 C2507 1.349 . S
C2506 C2508 1.356 . S
C2506 H2531 0.950 . S
C2507 C2506 1.349 . S
C2507 C2523 1.349 . S
C2508 C2506 1.356 . S
C2508 C2527 1.401 1_455 S
C2508 H2532 0.949 1_455 S
C2509 C2526 1.574 . S
C2509 C2528 1.368 . S
C2509 H2533 0.949 . S
H2510 C2514 0.949 . S
C2511 C2512 1.349 . S
C2511 C2513 1.327 . S
C2511 H2534 0.950 . S
C2512 C2511 1.349 . S
C2512 C2524 1.349 . S
C2513 C2511 1.327 . S
C2513 C2529 1.429 . S
C2513 H2535 0.950 . S
C2514 H2510 0.949 . S
C2514 C2522 1.574 . S
C2514 C2530 1.368 . S
H2515 C2523 0.950 . S
H2516 C2521 0.950 . S
H2517 C2522 0.949 . S
H2518 C2524 0.950 . S
H2519 C2525 0.950 . S
H2520 C2526 0.949 . S
C2521 H2516 0.950 . S
C2521 C2523 1.327 1_655 S
C2521 C2527 1.429 . S
C2522 C2514 1.574 . S
C2522 H2517 0.949 . S
C2522 C2528 1.368 . S
C2523 C2507 1.349 . S
C2523 H2515 0.950 . S
C2523 C2521 1.327 1_455 S
C2524 C2512 1.349 . S
C2524 H2518 0.950 . S
C2524 C2525 1.327 . S
C2525 H2519 0.950 . S
C2525 C2524 1.327 . S
C2525 C2529 1.429 . S
C2526 C2509 1.574 . S
C2526 H2520 0.949 . S
C2526 C2530 1.368 . S
C2527 C2508 1.401 1_655 S
C2527 C2521 1.429 . S
C2527 C2528 1.523 . S
C2528 C2509 1.368 . S
C2528 C2522 1.368 . S
C2528 C2527 1.523 . S
C2529 C2513 1.429 . S
C2529 C2525 1.429 . S
C2529 C2530 1.523 . S
C2530 C2514 1.368 . S
C2530 C2526 1.368 . S
C2530 C2529 1.523 . S
H2531 C2506 0.950 . S
H2532 C2508 0.949 1_655 S
H2533 C2509 0.949 . S
H2534 C2511 0.950 . S
H2535 C2513 0.950 . S
C2536 C2537 1.349 . S
C2536 C2538 1.327 . S
C2536 H2561 0.950 . S
C2537 C2536 1.349 . S
C2537 C2553 1.349 . S
C2538 C2536 1.327 . S
C2538 C2557 1.429 . S
C2538 H2562 0.950 . S
C2539 C2556 1.574 . S
C2539 C2558 1.368 . S
C2539 H2563 0.949 . S
H2540 C2544 0.949 . S
C2541 C2542 1.349 . S
C2541 C2543 1.327 . S
C2541 H2564 0.950 . S
C2542 C2541 1.349 . S
C2542 C2554 1.349 . S
C2543 C2541 1.327 . S
C2543 C2559 1.429 . S
C2543 H2565 0.950 . S
C2544 H2540 0.949 . S
C2544 C2552 1.574 . S
C2544 C2560 1.368 . S
H2545 C2553 0.950 . S
H2546 C2551 0.950 . S
H2547 C2552 0.949 . S
H2548 C2554 0.950 . S
H2549 C2555 0.950 . S
H2550 C2556 0.949 . S
C2551 H2546 0.950 . S
C2551 C2553 1.327 . S
C2551 C2557 1.429 . S
C2552 C2544 1.574 . S
C2552 H2547 0.949 . S
C2552 C2558 1.368 . S
C2553 C2537 1.349 . S
C2553 H2545 0.950 . S
C2553 C2551 1.327 . S
C2554 C2542 1.349 . S
C2554 H2548 0.950 . S
C2554 C2555 1.327 . S
C2555 H2549 0.950 . S
C2555 C2554 1.327 . S
C2555 C2559 1.429 . S
C2556 C2539 1.574 . S
C2556 H2550 0.949 . S
C2556 C2560 1.368 . S
C2557 C2538 1.429 . S
C2557 C2551 1.429 . S
C2557 C2558 1.523 . S
C2558 C2539 1.368 . S
C2558 C2552 1.368 . S
C2558 C2557 1.523 . S
C2559 C2543 1.429 . S
C2559 C2555 1.429 . S
C2559 C2560 1.523 . S
C2560 C2544 1.368 . S
C2560 C2556 1.368 . S
C2560 C2559 1.523 . S
H2561 C2536 0.950 . S
H2562 C2538 0.950 . S
H2563 C2539 0.949 . S
H2564 C2541 0.950 . S
H2565 C2543 0.950 . S
C2566 C2567 1.349 . S
C2566 C2568 1.327 . S
C2566 H2591 0.950 . S
C2567 C2566 1.349 . S
C2567 C2583 1.349 . S
C2568 C2566 1.327 . S
C2568 C2587 1.429 . S
C2568 H2592 0.950 . S
C2569 C2586 1.574 . S
C2569 C2588 1.368 . S
C2569 H2593 0.949 . S
H2570 C2574 0.949 . S
C2571 C2572 1.349 . S
C2571 C2573 1.327 . S
C2571 H2594 0.950 . S
C2572 C2571 1.349 . S
C2572 C2584 1.349 . S
C2573 C2571 1.327 . S
C2573 C2589 1.429 . S
C2573 H2595 0.950 . S
C2574 H2570 0.949 . S
C2574 C2582 1.574 . S
C2574 C2590 1.368 . S
H2575 C2583 0.950 . S
H2576 C2581 0.950 . S
H2577 C2582 0.949 1_455 S
H2578 C2584 0.950 . S
H2579 C2585 0.950 . S
H2580 C2586 0.949 . S
C2581 H2576 0.950 . S
C2581 C2583 1.327 . S
C2581 C2587 1.429 . S
C2582 C2574 1.574 . S
C2582 H2577 0.949 1_655 S
C2582 C2588 1.368 . S
C2583 C2567 1.349 . S
C2583 H2575 0.950 . S
C2583 C2581 1.327 . S
C2584 C2572 1.349 . S
C2584 H2578 0.950 . S
C2584 C2585 1.327 . S
C2585 H2579 0.950 . S
C2585 C2584 1.327 . S
C2585 C2589 1.429 . S
C2586 C2569 1.574 . S
C2586 H2580 0.949 . S
C2586 C2590 1.368 . S
C2587 C2568 1.429 . S
C2587 C2581 1.429 . S
C2587 C2588 1.523 1_455 S
C2588 C2569 1.368 . S
C2588 C2582 1.368 . S
C2588 C2587 1.523 1_655 S
C2589 C2573 1.429 . S
C2589 C2585 1.429 . S
C2589 C2590 1.523 . S
C2590 C2574 1.368 . S
C2590 C2586 1.368 . S
C2590 C2589 1.523 . S
H2591 C2566 0.950 . S
H2592 C2568 0.950 . S
H2593 C2569 0.949 . S
H2594 C2571 0.950 . S
H2595 C2573 0.950 . S
C2596 C2597 1.349 . S
C2596 C2598 1.327 . S
C2596 H2621 0.950 . S
C2597 C2596 1.349 . S
C2597 C2613 1.349 1_655 S
C2598 C2596 1.327 . S
C2598 C2617 1.391 1_655 S
C2598 H2622 0.950 . S
C2599 C2616 1.574 . S
C2599 C2618 1.368 . S
C2599 H2623 0.949 . S
H2600 C2604 0.949 . S
C2601 C2602 1.349 . S
C2601 C2603 1.327 . S
C2601 H2624 0.950 . S
C2602 C2601 1.349 . S
C2602 C2614 1.349 . S
C2603 C2601 1.327 . S
C2603 C2619 1.429 . S
C2603 H2625 0.950 . S
C2604 H2600 0.949 . S
C2604 C2612 1.574 . S
C2604 C2620 1.368 1_655 S
H2605 C2613 0.950 . S
H2606 C2611 0.950 . S
H2607 C2612 0.949 . S
H2608 C2614 0.950 1_655 S
H2609 C2615 0.950 1_655 S
H2610 C2616 0.949 . S
C2611 H2606 0.950 . S
C2611 C2613 1.327 . S
C2611 C2617 1.446 . S
C2612 C2604 1.574 . S
C2612 H2607 0.949 . S
C2612 C2618 1.368 1_655 S
C2613 C2597 1.349 1_455 S
C2613 H2605 0.950 . S
C2613 C2611 1.327 . S
C2614 C2602 1.349 . S
C2614 H2608 0.950 1_455 S
C2614 C2615 1.327 . S
C2615 H2609 0.950 1_455 S
C2615 C2614 1.327 . S
C2615 C2619 1.429 . S
C2616 C2599 1.574 . S
C2616 H2610 0.949 . S
C2616 C2620 1.368 . S
C2617 C2598 1.391 1_455 S
C2617 C2611 1.446 . S
C2617 C2618 1.542 . S
C2618 C2599 1.368 . S
C2618 C2612 1.368 1_455 S
C2618 C2617 1.542 . S
C2619 C2603 1.429 . S
C2619 C2615 1.429 . S
C2619 C2620 1.523 . S
C2620 C2604 1.368 1_455 S
C2620 C2616 1.368 . S
C2620 C2619 1.523 . S
H2621 C2596 0.950 . S
H2622 C2598 0.950 . S
H2623 C2599 0.949 . S
H2624 C2601 0.950 . S
H2625 C2603 0.950 . S
C2626 C2627 1.349 . S
C2626 C2628 1.327 . S
C2626 H2651 0.950 . S
C2627 C2626 1.349 . S
C2627 C2643 1.349 . S
C2628 C2626 1.327 . S
C2628 C2647 1.429 . S
C2628 H2652 0.950 . S
C2629 C2646 1.574 . S
C2629 C2648 1.368 . S
C2629 H2653 0.949 . S
H2630 C2634 0.949 . S
C2631 C2632 1.349 . S
C2631 C2633 1.327 . S
C2631 H2654 0.950 . S
C2632 C2631 1.349 . S
C2632 C2644 1.349 . S
C2633 C2631 1.327 . S
C2633 C2649 1.429 . S
C2633 H2655 0.950 . S
C2634 H2630 0.949 . S
C2634 C2642 1.574 . S
C2634 C2650 1.368 . S
H2635 C2643 0.950 . S
H2636 C2641 0.950 . S
H2637 C2642 0.949 . S
H2638 C2644 0.950 . S
H2639 C2645 0.950 . S
H2640 C2646 0.949 . S
C2641 H2636 0.950 . S
C2641 C2643 1.327 . S
C2641 C2647 1.429 . S
C2642 C2634 1.574 . S
C2642 H2637 0.949 . S
C2642 C2648 1.368 . S
C2643 C2627 1.349 . S
C2643 H2635 0.950 . S
C2643 C2641 1.327 . S
C2644 C2632 1.349 . S
C2644 H2638 0.950 . S
C2644 C2645 1.327 . S
C2645 H2639 0.950 . S
C2645 C2644 1.327 . S
C2645 C2649 1.429 . S
C2646 C2629 1.574 . S
C2646 H2640 0.949 . S
C2646 C2650 1.368 . S
C2647 C2628 1.429 . S
C2647 C2641 1.429 . S
C2647 C2648 1.523 . S
C2648 C2629 1.368 . S
C2648 C2642 1.368 . S
C2648 C2647 1.523 . S
C2649 C2633 1.429 . S
C2649 C2645 1.429 . S
C2649 C2650 1.523 . S
C2650 C2634 1.368 . S
C2650 C2646 1.368 . S
C2650 C2649 1.523 . S
H2651 C2626 0.950 . S
H2652 C2628 0.950 . S
H2653 C2629 0.949 . S
H2654 C2631 0.950 . S
H2655 C2633 0.950 . S
C2656 C2657 1.349 . S
C2656 C2658 1.327 . S
C2656 H2681 0.950 . S
C2657 C2656 1.349 . S
C2657 C2673 1.349 . S
C2658 C2656 1.327 . S
C2658 C2677 1.429 . S
C2658 H2682 0.950 . S
C2659 C2676 1.574 . S
C2659 C2678 1.368 . S
C2659 H2683 0.949 . S
H2660 C2664 0.949 . S
C2661 C2662 1.349 . S
C2661 C2663 1.327 . S
C2661 H2684 0.950 . S
C2662 C2661 1.349 . S
C2662 C2674 1.349 . S
C2663 C2661 1.327 . S
C2663 C2679 1.429 . S
C2663 H2685 0.950 . S
C2664 H2660 0.949 . S
C2664 C2672 1.574 . S
C2664 C2680 1.368 . S
H2665 C2673 0.950 . S
H2666 C2671 0.950 . S
H2667 C2672 0.949 . S
H2668 C2674 0.950 . S
H2669 C2675 0.950 . S
H2670 C2676 0.949 . S
C2671 H2666 0.950 . S
C2671 C2673 1.327 . S
C2671 C2677 1.429 . S
C2672 C2664 1.574 . S
C2672 H2667 0.949 . S
C2672 C2678 1.368 . S
C2673 C2657 1.349 . S
C2673 H2665 0.950 . S
C2673 C2671 1.327 . S
C2674 C2662 1.349 . S
C2674 H2668 0.950 . S
C2674 C2675 1.327 . S
C2675 H2669 0.950 . S
C2675 C2674 1.327 . S
C2675 C2679 1.429 . S
C2676 C2659 1.574 . S
C2676 H2670 0.949 . S
C2676 C2680 1.368 . S
C2677 C2658 1.429 . S
C2677 C2671 1.429 . S
C2677 C2678 1.523 . S
C2678 C2659 1.368 . S
C2678 C2672 1.368 . S
C2678 C2677 1.523 . S
C2679 C2663 1.429 . S
C2679 C2675 1.429 . S
C2679 C2680 1.523 . S
C2680 C2664 1.368 . S
C2680 C2676 1.368 . S
C2680 C2679 1.523 . S
H2681 C2656 0.950 . S
H2682 C2658 0.950 . S
H2683 C2659 0.949 . S
H2684 C2661 0.950 . S
H2685 C2663 0.950 . S
C2686 C2687 1.349 . S
C2686 C2688 1.327 . S
C2686 H2711 0.987 . S
C2687 C2686 1.349 . S
C2687 C2703 1.349 . S
C2688 C2686 1.327 . S
C2688 C2707 1.429 . S
C2688 H2712 0.950 . S
C2689 C2706 1.574 . S
C2689 C2708 1.368 . S
C2689 H2713 0.949 . S
H2690 C2694 0.949 . S
C2691 C2692 1.349 . S
C2691 C2693 1.327 . S
C2691 H2714 0.950 . S
C2692 C2691 1.349 . S
C2692 C2704 1.349 . S
C2693 C2691 1.327 . S
C2693 C2709 1.429 . S
C2693 H2715 0.950 . S
C2694 H2690 0.949 . S
C2694 C2702 1.574 . S
C2694 C2710 1.368 . S
H2695 C2703 0.950 . S
H2696 C2701 0.950 . S
H2697 C2702 0.949 . S
H2698 C2704 0.950 . S
H2699 C2705 0.950 . S
H2700 C2706 0.949 . S
C2701 H2696 0.950 . S
C2701 C2703 1.327 . S
C2701 C2707 1.429 . S
C2702 C2694 1.574 . S
C2702 H2697 0.949 . S
C2702 C2708 1.368 . S
C2703 C2687 1.349 . S
C2703 H2695 0.950 . S
C2703 C2701 1.327 . S
C2704 C2692 1.349 . S
C2704 H2698 0.950 . S
C2704 C2705 1.327 . S
C2705 H2699 0.950 . S
C2705 C2704 1.327 . S
C2705 C2709 1.429 . S
C2706 C2689 1.574 . S
C2706 H2700 0.949 . S
C2706 C2710 1.368 . S
C2707 C2688 1.429 . S
C2707 C2701 1.429 . S
C2707 C2708 1.523 . S
C2708 C2689 1.368 . S
C2708 C2702 1.368 . S
C2708 C2707 1.523 . S
C2709 C2693 1.429 . S
C2709 C2705 1.429 . S
C2709 C2710 1.523 . S
C2710 C2694 1.368 . S
C2710 C2706 1.368 . S
C2710 C2709 1.523 . S
H2711 C2686 0.987 . S
H2712 C2688 0.950 . S
H2713 C2689 0.949 . S
H2714 C2691 0.950 . S
H2715 C2693 0.950 . S
C2716 C2717 1.349 . S
C2716 C2718 1.327 . S
C2716 H2741 0.950 . S
C2717 C2716 1.349 . S
C2717 C2733 1.349 . S
C2718 C2716 1.327 . S
C2718 C2737 1.429 . S
C2718 H2742 0.950 . S
C2719 C2736 1.574 . S
C2719 C2738 1.368 . S
C2719 H2743 0.949 . S
H2720 C2724 0.949 . S
C2721 C2722 1.349 . S
C2721 C2723 1.327 . S
C2721 H2744 0.950 . S
C2722 C2721 1.349 . S
C2722 C2734 1.349 . S
C2723 C2721 1.327 . S
C2723 C2739 1.429 . S
C2723 H2745 0.950 . S
C2724 H2720 0.949 . S
C2724 C2732 1.574 . S
C2724 C2740 1.368 . S
H2725 C2733 0.950 . S
H2726 C2731 0.950 . S
H2727 C2732 0.949 . S
H2728 C2734 0.950 . S
H2729 C2735 0.950 . S
H2730 C2736 0.949 . S
C2731 H2726 0.950 . S
C2731 C2733 1.327 . S
C2731 C2737 1.429 . S
C2732 C2724 1.574 . S
C2732 H2727 0.949 . S
C2732 C2738 1.368 . S
C2733 C2717 1.349 . S
C2733 H2725 0.950 . S
C2733 C2731 1.327 . S
C2734 C2722 1.349 . S
C2734 H2728 0.950 . S
C2734 C2735 1.327 . S
C2735 H2729 0.950 . S
C2735 C2734 1.327 . S
C2735 C2739 1.429 . S
C2736 C2719 1.574 . S
C2736 H2730 0.949 . S
C2736 C2740 1.368 . S
C2737 C2718 1.429 . S
C2737 C2731 1.429 . S
C2737 C2738 1.523 . S
C2738 C2719 1.368 . S
C2738 C2732 1.368 . S
C2738 C2737 1.523 . S
C2739 C2723 1.429 . S
C2739 C2735 1.429 . S
C2739 C2740 1.523 . S
C2740 C2724 1.368 . S
C2740 C2736 1.368 . S
C2740 C2739 1.523 . S
H2741 C2716 0.950 . S
H2742 C2718 0.950 . S
H2743 C2719 0.949 . S
H2744 C2721 0.950 . S
H2745 C2723 0.950 . S
C2746 C2747 1.349 . S
C2746 C2748 1.327 . S
C2746 H2771 0.950 . S
C2747 C2746 1.349 . S
C2747 C2763 1.349 . S
C2748 C2746 1.327 . S
C2748 C2767 1.429 . S
C2748 H2772 0.950 . S
C2749 C2766 1.574 . S
C2749 C2768 1.368 . S
C2749 H2773 0.949 . S
H2750 C2754 0.949 . S
C2751 C2752 1.349 . S
C2751 C2753 1.327 . S
C2751 H2774 0.950 . S
C2752 C2751 1.349 . S
C2752 C2764 1.349 . S
C2753 C2751 1.327 . S
C2753 C2769 1.429 . S
C2753 H2775 0.950 . S
C2754 H2750 0.949 . S
C2754 C2762 1.574 . S
C2754 C2770 1.368 . S
H2755 C2763 0.950 . S
H2756 C2761 0.950 . S
H2757 C2762 0.949 . S
H2758 C2764 0.950 . S
H2759 C2765 0.950 . S
H2760 C2766 0.949 . S
C2761 H2756 0.950 . S
C2761 C2763 1.327 . S
C2761 C2767 1.429 . S
C2762 C2754 1.574 . S
C2762 H2757 0.949 . S
C2762 C2768 1.368 . S
C2763 C2747 1.349 . S
C2763 H2755 0.950 . S
C2763 C2761 1.327 . S
C2764 C2752 1.349 . S
C2764 H2758 0.950 . S
C2764 C2765 1.327 . S
C2765 H2759 0.950 . S
C2765 C2764 1.327 . S
C2765 C2769 1.429 . S
C2766 C2749 1.574 . S
C2766 H2760 0.949 . S
C2766 C2770 1.368 . S
C2767 C2748 1.429 . S
C2767 C2761 1.429 . S
C2767 C2768 1.523 . S
C2768 C2749 1.368 . S
C2768 C2762 1.368 . S
C2768 C2767 1.523 . S
C2769 C2753 1.429 . S
C2769 C2765 1.429 . S
C2769 C2770 1.523 . S
C2770 C2754 1.368 . S
C2770 C2766 1.368 . S
C2770 C2769 1.523 . S
H2771 C2746 0.950 . S
H2772 C2748 0.950 . S
H2773 C2749 0.949 . S
H2774 C2751 0.950 . S
H2775 C2753 0.950 . S
C2776 C2777 1.349 . S
C2776 C2778 1.327 . S
C2776 H2801 0.950 . S
C2777 C2776 1.349 . S
C2777 C2793 1.349 . S
C2778 C2776 1.327 . S
C2778 C2797 1.429 . S
C2778 H2802 0.950 . S
C2779 C2796 1.574 . S
C2779 C2798 1.368 . S
C2779 H2803 0.949 . S
H2780 C2784 0.949 . S
C2781 C2782 1.349 . S
C2781 C2783 1.327 . S
C2781 H2804 0.950 . S
C2782 C2781 1.349 . S
C2782 C2794 1.349 . S
C2783 C2781 1.327 . S
C2783 C2799 1.429 . S
C2783 H2805 0.950 . S
C2784 H2780 0.949 . S
C2784 C2792 1.574 . S
C2784 C2800 1.368 . S
H2785 C2793 0.950 . S
H2786 C2791 0.950 . S
H2787 C2792 0.949 . S
H2788 C2794 0.950 . S
H2789 C2795 0.950 . S
H2790 C2796 0.949 . S
C2791 H2786 0.950 . S
C2791 C2793 1.327 . S
C2791 C2797 1.429 . S
C2792 C2784 1.574 . S
C2792 H2787 0.949 . S
C2792 C2798 1.368 . S
C2793 C2777 1.349 . S
C2793 H2785 0.950 . S
C2793 C2791 1.327 . S
C2794 C2782 1.349 . S
C2794 H2788 0.950 . S
C2794 C2795 1.327 . S
C2795 H2789 0.950 . S
C2795 C2794 1.327 . S
C2795 C2799 1.429 . S
C2796 C2779 1.574 . S
C2796 H2790 0.949 . S
C2796 C2800 1.368 . S
C2797 C2778 1.429 . S
C2797 C2791 1.429 . S
C2797 C2798 1.523 . S
C2798 C2779 1.368 . S
C2798 C2792 1.368 . S
C2798 C2797 1.523 . S
C2799 C2783 1.429 . S
C2799 C2795 1.429 . S
C2799 C2800 1.523 . S
C2800 C2784 1.368 . S
C2800 C2796 1.368 . S
C2800 C2799 1.523 . S
H2801 C2776 0.950 . S
H2802 C2778 0.950 . S
H2803 C2779 0.949 . S
H2804 C2781 0.950 . S
H2805 C2783 0.950 . S
C2806 C2807 1.349 . S
C2806 C2808 1.327 . S
C2806 H2831 0.950 . S
C2807 C2806 1.349 . S
C2807 C2823 1.349 . S
C2808 C2806 1.327 . S
C2808 C2827 1.429 . S
C2808 H2832 0.950 . S
C2809 C2826 1.574 . S
C2809 C2828 1.368 . S
C2809 H2833 0.949 . S
H2810 C2814 0.949 . S
C2811 C2812 1.349 . S
C2811 C2813 1.327 . S
C2811 H2834 0.950 . S
C2812 C2811 1.349 . S
C2812 C2824 1.349 . S
C2813 C2811 1.327 . S
C2813 C2829 1.429 . S
C2813 H2835 0.950 . S
C2814 H2810 0.949 . S
C2814 C2822 1.574 . S
C2814 C2830 1.368 . S
H2815 C2823 0.950 . S
H2816 C2821 0.950 . S
H2817 C2822 0.949 . S
H2818 C2824 0.950 . S
H2819 C2825 0.950 . S
H2820 C2826 0.949 . S
C2821 H2816 0.950 . S
C2821 C2823 1.327 . S
C2821 C2827 1.429 . S
C2822 C2814 1.574 . S
C2822 H2817 0.949 . S
C2822 C2828 1.368 . S
C2823 C2807 1.349 . S
C2823 H2815 0.950 . S
C2823 C2821 1.327 . S
C2824 C2812 1.349 . S
C2824 H2818 0.950 . S
C2824 C2825 1.327 . S
C2825 H2819 0.950 . S
C2825 C2824 1.327 . S
C2825 C2829 1.429 . S
C2826 C2809 1.574 . S
C2826 H2820 0.949 . S
C2826 C2830 1.368 . S
C2827 C2808 1.429 . S
C2827 C2821 1.429 . S
C2827 C2828 1.523 . S
C2828 C2809 1.368 . S
C2828 C2822 1.368 . S
C2828 C2827 1.523 . S
C2829 C2813 1.429 . S
C2829 C2825 1.429 . S
C2829 C2830 1.523 . S
C2830 C2814 1.368 . S
C2830 C2826 1.368 . S
C2830 C2829 1.523 . S
H2831 C2806 0.950 . S
H2832 C2808 0.950 . S
H2833 C2809 0.949 . S
H2834 C2811 0.950 . S
H2835 C2813 0.950 . S
C2836 C2837 1.349 . S
C2836 C2838 1.327 . S
C2836 H2861 0.950 . S
C2837 C2836 1.349 . S
C2837 C2853 1.349 . S
C2838 C2836 1.327 . S
C2838 C2857 1.429 . S
C2838 H2862 0.950 . S
C2839 C2856 1.574 . S
C2839 C2858 1.368 . S
C2839 H2863 0.949 . S
H2840 C2844 0.949 . S
C2841 C2842 1.349 . S
C2841 C2843 1.327 . S
C2841 H2864 0.950 . S
C2842 C2841 1.349 . S
C2842 C2854 1.349 . S
C2843 C2841 1.327 . S
C2843 C2859 1.429 . S
C2843 H2865 0.950 . S
C2844 H2840 0.949 . S
C2844 C2852 1.574 . S
C2844 C2860 1.368 . S
H2845 C2853 0.950 . S
H2846 C2851 0.950 . S
H2847 C2852 0.949 . S
H2848 C2854 0.950 . S
H2849 C2855 0.950 . S
H2850 C2856 0.949 . S
C2851 H2846 0.950 . S
C2851 C2853 1.327 . S
C2851 C2857 1.429 . S
C2852 C2844 1.574 . S
C2852 H2847 0.949 . S
C2852 C2858 1.368 . S
C2853 C2837 1.349 . S
C2853 H2845 0.950 . S
C2853 C2851 1.327 . S
C2854 C2842 1.349 . S
C2854 H2848 0.950 . S
C2854 C2855 1.327 . S
C2855 H2849 0.950 . S
C2855 C2854 1.327 . S
C2855 C2859 1.429 . S
C2856 C2839 1.574 . S
C2856 H2850 0.949 . S
C2856 C2860 1.368 . S
C2857 C2838 1.429 . S
C2857 C2851 1.429 . S
C2857 C2858 1.523 . S
C2858 C2839 1.368 . S
C2858 C2852 1.368 . S
C2858 C2857 1.523 . S
C2859 C2843 1.429 . S
C2859 C2855 1.429 . S
C2859 C2860 1.523 . S
C2860 C2844 1.368 . S
C2860 C2856 1.368 . S
C2860 C2859 1.523 . S
H2861 C2836 0.950 . S
H2862 C2838 0.950 . S
H2863 C2839 0.949 . S
H2864 C2841 0.950 . S
H2865 C2843 0.950 . S
C2866 C2867 1.349 . S
C2866 C2868 1.327 . S
C2866 H2891 0.950 . S
C2867 C2866 1.349 . S
C2867 C2883 1.349 . S
C2868 C2866 1.327 . S
C2868 C2887 1.429 . S
C2868 H2892 0.950 . S
C2869 C2886 1.574 . S
C2869 C2888 1.368 . S
C2869 H2893 0.949 . S
H2870 C2874 0.949 . S
C2871 C2872 1.349 . S
C2871 C2873 1.327 . S
C2871 H2894 0.950 . S
C2872 C2871 1.349 . S
C2872 C2884 1.349 . S
C2873 C2871 1.327 . S
C2873 C2889 1.429 . S
C2873 H2895 0.950 . S
C2874 H2870 0.949 . S
C2874 C2882 1.574 . S
C2874 C2890 1.368 . S
H2875 C2883 0.950 . S
H2876 C2881 0.950 . S
H2877 C2882 0.949 . S
H2878 C2884 0.950 . S
H2879 C2885 0.950 . S
H2880 C2886 0.949 . S
C2881 H2876 0.950 . S
C2881 C2883 1.327 . S
C2881 C2887 1.429 . S
C2882 C2874 1.574 . S
C2882 H2877 0.949 . S
C2882 C2888 1.368 . S
C2883 C2867 1.349 . S
C2883 H2875 0.950 . S
C2883 C2881 1.327 . S
C2884 C2872 1.349 . S
C2884 H2878 0.950 . S
C2884 C2885 1.327 . S
C2885 H2879 0.950 . S
C2885 C2884 1.327 . S
C2885 C2889 1.429 . S
C2886 C2869 1.574 . S
C2886 H2880 0.949 . S
C2886 C2890 1.368 . S
C2887 C2868 1.429 . S
C2887 C2881 1.429 . S
C2887 C2888 1.523 . S
C2888 C2869 1.368 . S
C2888 C2882 1.368 . S
C2888 C2887 1.523 . S
C2889 C2873 1.429 . S
C2889 C2885 1.429 . S
C2889 C2890 1.523 . S
C2890 C2874 1.368 . S
C2890 C2886 1.368 . S
C2890 C2889 1.523 . S
H2891 C2866 0.950 . S
H2892 C2868 0.950 . S
H2893 C2869 0.949 . S
H2894 C2871 0.950 . S
H2895 C2873 0.950 . S
C2896 C2897 1.349 . S
C2896 C2898 1.327 . S
C2896 H2921 0.950 . S
C2897 C2896 1.349 . S
C2897 C2913 1.349 . S
C2898 C2896 1.327 . S
C2898 C2917 1.429 . S
C2898 H2922 0.950 . S
C2899 C2916 1.574 . S
C2899 C2918 1.368 . S
C2899 H2923 0.949 . S
H2900 C2904 0.949 . S
C2901 C2902 1.349 . S
C2901 C2903 1.327 . S
C2901 H2924 0.950 . S
C2902 C2901 1.349 . S
C2902 C2914 1.349 . S
C2903 C2901 1.327 . S
C2903 C2919 1.429 . S
C2903 H2925 0.950 . S
C2904 H2900 0.949 . S
C2904 C2912 1.574 . S
C2904 C2920 1.368 . S
H2905 C2913 0.950 . S
H2906 C2911 0.950 . S
H2907 C2912 0.949 . S
H2908 C2914 0.950 . S
H2909 C2915 0.950 . S
H2910 C2916 0.949 . S
C2911 H2906 0.950 . S
C2911 C2913 1.327 . S
C2911 C2917 1.429 . S
C2912 C2904 1.574 . S
C2912 H2907 0.949 . S
C2912 C2918 1.368 . S
C2913 C2897 1.349 . S
C2913 H2905 0.950 . S
C2913 C2911 1.327 . S
C2914 C2902 1.349 . S
C2914 H2908 0.950 . S
C2914 C2915 1.327 . S
C2915 H2909 0.950 . S
C2915 C2914 1.327 . S
C2915 C2919 1.429 . S
C2916 C2899 1.574 . S
C2916 H2910 0.949 . S
C2916 C2920 1.368 . S
C2917 C2898 1.429 . S
C2917 C2911 1.429 . S
C2917 C2918 1.523 . S
C2918 C2899 1.368 . S
C2918 C2912 1.368 . S
C2918 C2917 1.523 . S
C2919 C2903 1.429 . S
C2919 C2915 1.429 . S
C2919 C2920 1.523 . S
C2920 C2904 1.368 . S
C2920 C2916 1.368 . S
C2920 C2919 1.523 . S
H2921 C2896 0.950 . S
H2922 C2898 0.950 . S
H2923 C2899 0.949 . S
H2924 C2901 0.950 . S
H2925 C2903 0.950 . S
C2926 C2927 1.349 . S
C2926 C2928 1.327 . S
C2926 H2951 0.950 . S
C2927 C2926 1.349 . S
C2927 C2943 1.349 . S
C2928 C2926 1.327 . S
C2928 C2947 1.429 . S
C2928 H2952 0.950 . S
C2929 C2946 1.574 . S
C2929 C2948 1.368 . S
C2929 H2953 0.949 . S
H2930 C2934 0.949 . S
C2931 C2932 1.349 . S
C2931 C2933 1.327 . S
C2931 H2954 0.950 . S
C2932 C2931 1.349 . S
C2932 C2944 1.349 . S
C2933 C2931 1.327 . S
C2933 C2949 1.429 . S
C2933 H2955 0.950 . S
C2934 H2930 0.949 . S
C2934 C2942 1.574 . S
C2934 C2950 1.368 . S
H2935 C2943 0.950 . S
H2936 C2941 0.950 . S
H2937 C2942 0.949 . S
H2938 C2944 0.950 . S
H2939 C2945 0.950 . S
H2940 C2946 0.949 . S
C2941 H2936 0.950 . S
C2941 C2943 1.327 . S
C2941 C2947 1.429 . S
C2942 C2934 1.574 . S
C2942 H2937 0.949 . S
C2942 C2948 1.368 . S
C2943 C2927 1.349 . S
C2943 H2935 0.950 . S
C2943 C2941 1.327 . S
C2944 C2932 1.349 . S
C2944 H2938 0.950 . S
C2944 C2945 1.327 . S
C2945 H2939 0.950 . S
C2945 C2944 1.327 . S
C2945 C2949 1.429 . S
C2946 C2929 1.574 . S
C2946 H2940 0.949 . S
C2946 C2950 1.368 . S
C2947 C2928 1.429 . S
C2947 C2941 1.429 . S
C2947 C2948 1.523 . S
C2948 C2929 1.368 . S
C2948 C2942 1.368 . S
C2948 C2947 1.523 . S
C2949 C2933 1.429 . S
C2949 C2945 1.429 . S
C2949 C2950 1.523 . S
C2950 C2934 1.368 . S
C2950 C2946 1.368 . S
C2950 C2949 1.523 . S
H2951 C2926 0.950 . S
H2952 C2928 0.950 . S
H2953 C2929 0.949 . S
H2954 C2931 0.950 . S
H2955 C2933 0.950 . S
C2956 C2957 1.349 . S
C2956 C2958 1.327 . S
C2956 H2981 0.950 . S
C2957 C2956 1.349 . S
C2957 C2973 1.349 . S
C2958 C2956 1.327 . S
C2958 C2977 1.429 . S
C2958 H2982 0.950 . S
C2959 C2976 1.574 . S
C2959 C2978 1.368 . S
C2959 H2983 0.949 . S
H2960 C2964 0.949 . S
C2961 C2962 1.349 . S
C2961 C2963 1.327 . S
C2961 H2984 0.950 . S
C2962 C2961 1.349 . S
C2962 C2974 1.349 . S
C2963 C2961 1.327 . S
C2963 C2979 1.429 . S
C2963 H2985 0.950 . S
C2964 H2960 0.949 . S
C2964 C2972 1.574 . S
C2964 C2980 1.368 . S
H2965 C2973 0.950 . S
H2966 C2971 0.950 . S
H2967 C2972 0.949 . S
H2968 C2974 0.950 . S
H2969 C2975 0.950 . S
H2970 C2976 0.949 . S
C2971 H2966 0.950 . S
C2971 C2973 1.327 . S
C2971 C2977 1.429 . S
C2972 C2964 1.574 . S
C2972 H2967 0.949 . S
C2972 C2978 1.368 . S
C2973 C2957 1.349 . S
C2973 H2965 0.950 . S
C2973 C2971 1.327 . S
C2974 C2962 1.349 . S
C2974 H2968 0.950 . S
C2974 C2975 1.327 . S
C2975 H2969 0.950 . S
C2975 C2974 1.327 . S
C2975 C2979 1.429 . S
C2976 C2959 1.574 . S
C2976 H2970 0.949 . S
C2976 C2980 1.368 . S
C2977 C2958 1.429 . S
C2977 C2971 1.429 . S
C2977 C2978 1.523 . S
C2978 C2959 1.368 . S
C2978 C2972 1.368 . S
C2978 C2977 1.523 . S
C2979 C2963 1.429 . S
C2979 C2975 1.429 . S
C2979 C2980 1.523 . S
C2980 C2964 1.368 . S
C2980 C2976 1.368 . S
C2980 C2979 1.523 . S
H2981 C2956 0.950 . S
H2982 C2958 0.950 . S
H2983 C2959 0.949 . S
H2984 C2961 0.950 . S
H2985 C2963 0.950 . S
C2986 C2987 1.349 . S
C2986 C2988 1.327 . S
C2986 H3011 0.950 1_554 S
C2987 C2986 1.349 . S
C2987 C3003 1.349 . S
C2988 C2986 1.327 . S
C2988 C3007 1.429 . S
C2988 H3012 0.950 1_554 S
C2989 C3006 1.574 . S
C2989 C3008 1.368 . S
C2989 H3013 0.949 . S
H2990 C2994 0.949 1_545 S
C2991 C2992 1.349 . S
C2991 C2993 1.327 1_545 S
C2991 H3014 0.950 . S
C2992 C2991 1.349 . S
C2992 C3004 1.349 1_554 S
C2993 C2991 1.327 1_565 S
C2993 C3009 1.445 . S
C2993 H3015 0.950 . S
C2994 H2990 0.949 1_565 S
C2994 C3002 1.579 . S
C2994 C3010 1.368 1_556 S
H2995 C3003 0.950 . S
H2996 C3001 0.950 . S
H2997 C3002 0.959 . S
H2998 C3004 0.950 . S
H2999 C3005 0.950 . S
H3000 C3006 0.949 . S
C3001 H2996 0.950 . S
C3001 C3003 1.327 . S
C3001 C3007 1.429 . S
C3002 C2994 1.579 . S
C3002 H2997 0.959 . S
C3002 C3008 1.352 1_556 S
C3003 C2987 1.349 . S
C3003 H2995 0.950 . S
C3003 C3001 1.327 . S
C3004 C2992 1.349 1_556 S
C3004 H2998 0.950 . S
C3004 C3005 1.327 . S
C3005 H2999 0.950 . S
C3005 C3004 1.327 . S
C3005 C3009 1.403 1_546 S
C3006 C2989 1.574 . S
C3006 H3000 0.949 . S
C3006 C3010 1.368 . S
C3007 C2988 1.429 . S
C3007 C3001 1.429 . S
C3007 C3008 1.523 . S
C3008 C2989 1.368 . S
C3008 C3002 1.352 1_554 S
C3008 C3007 1.523 . S
C3009 C2993 1.445 . S
C3009 C3005 1.403 1_564 S
C3009 C3010 1.533 . S
C3010 C2994 1.368 1_554 S
C3010 C3006 1.368 . S
C3010 C3009 1.533 . S
H3011 C2986 0.950 1_556 S
H3012 C2988 0.950 1_556 S
H3013 C2989 0.949 . S
H3014 C2991 0.950 . S
H3015 C2993 0.950 . S
C3016 C3017 1.349 . S
C3016 C3018 1.327 . S
C3016 H3041 0.950 . S
C3017 C3016 1.349 . S
C3017 C3033 1.349 . S
C3018 C3016 1.327 . S
C3018 C3037 1.429 . S
C3018 H3042 0.950 . S
C3019 C3036 1.574 . S
C3019 C3038 1.368 . S
C3019 H3043 0.949 . S
H3020 C3024 0.949 . S
C3021 C3022 1.349 . S
C3021 C3023 1.327 . S
C3021 H3044 0.950 . S
C3022 C3021 1.349 . S
C3022 C3034 1.349 . S
C3023 C3021 1.327 . S
C3023 C3039 1.429 . S
C3023 H3045 0.950 . S
C3024 H3020 0.949 . S
C3024 C3032 1.574 . S
C3024 C3040 1.368 . S
H3025 C3033 0.950 . S
H3026 C3031 0.950 . S
H3027 C3032 0.949 . S
H3028 C3034 0.950 . S
H3029 C3035 0.950 . S
H3030 C3036 0.949 . S
C3031 H3026 0.950 . S
C3031 C3033 1.327 . S
C3031 C3037 1.429 . S
C3032 C3024 1.574 . S
C3032 H3027 0.949 . S
C3032 C3038 1.368 . S
C3033 C3017 1.349 . S
C3033 H3025 0.950 . S
C3033 C3031 1.327 . S
C3034 C3022 1.349 . S
C3034 H3028 0.950 . S
C3034 C3035 1.327 . S
C3035 H3029 0.950 . S
C3035 C3034 1.327 . S
C3035 C3039 1.429 . S
C3036 C3019 1.574 . S
C3036 H3030 0.949 . S
C3036 C3040 1.368 . S
C3037 C3018 1.429 . S
C3037 C3031 1.429 . S
C3037 C3038 1.523 . S
C3038 C3019 1.368 . S
C3038 C3032 1.368 . S
C3038 C3037 1.523 . S
C3039 C3023 1.429 . S
C3039 C3035 1.429 . S
C3039 C3040 1.523 . S
C3040 C3024 1.368 . S
C3040 C3036 1.368 . S
C3040 C3039 1.523 . S
H3041 C3016 0.950 . S
H3042 C3018 0.950 . S
H3043 C3019 0.949 . S
H3044 C3021 0.950 . S
H3045 C3023 0.950 . S
C3046 C3047 1.349 1_556 S
C3046 C3048 1.336 . S
C3046 H3071 0.950 . S
C3047 C3046 1.349 1_554 S
C3047 C3063 1.349 . S
C3048 C3046 1.336 . S
C3048 C3067 1.388 1_556 S
C3048 H3072 0.984 . S
C3049 C3066 1.574 . S
C3049 C3068 1.368 . S
C3049 H3073 0.949 . S
H3050 C3054 0.949 . S
C3051 C3052 1.349 . S
C3051 C3053 1.327 . S
C3051 H3074 0.950 . S
C3052 C3051 1.349 . S
C3052 C3064 1.349 . S
C3053 C3051 1.327 . S
C3053 C3069 1.429 . S
C3053 H3075 0.950 . S
C3054 H3050 0.949 . S
C3054 C3062 1.574 . S
C3054 C3070 1.368 . S
H3055 C3063 0.950 . S
H3056 C3061 0.950 . S
H3057 C3062 0.949 1_556 S
H3058 C3064 0.950 . S
H3059 C3065 0.950 . S
H3060 C3066 0.949 . S
C3061 H3056 0.950 . S
C3061 C3063 1.327 . S
C3061 C3067 1.429 . S
C3062 C3054 1.574 . S
C3062 H3057 0.949 1_554 S
C3062 C3068 1.368 . S
C3063 C3047 1.349 . S
C3063 H3055 0.950 . S
C3063 C3061 1.327 . S
C3064 C3052 1.349 . S
C3064 H3058 0.950 . S
C3064 C3065 1.327 . S
C3065 H3059 0.950 . S
C3065 C3064 1.327 . S
C3065 C3069 1.429 . S
C3066 C3049 1.574 . S
C3066 H3060 0.949 . S
C3066 C3070 1.368 . S
C3067 C3048 1.388 1_554 S
C3067 C3061 1.429 . S
C3067 C3068 1.523 . S
C3068 C3049 1.368 . S
C3068 C3062 1.368 . S
C3068 C3067 1.523 . S
C3069 C3053 1.429 . S
C3069 C3065 1.429 . S
C3069 C3070 1.523 . S
C3070 C3054 1.368 . S
C3070 C3066 1.368 . S
C3070 C3069 1.523 . S
H3071 C3046 0.950 . S
H3072 C3048 0.984 . S
H3073 C3049 0.949 . S
H3074 C3051 0.950 . S
H3075 C3053 0.950 . S
C3076 C3077 1.349 . S
C3076 C3078 1.327 . S
C3076 H3101 0.950 . S
C3077 C3076 1.349 . S
C3077 C3093 1.349 . S
C3078 C3076 1.327 . S
C3078 C3097 1.429 . S
C3078 H3102 0.950 . S
C3079 C3096 1.574 . S
C3079 C3098 1.368 . S
C3079 H3103 0.949 . S
H3080 C3084 0.949 . S
C3081 C3082 1.349 . S
C3081 C3083 1.327 . S
C3081 H3104 0.950 . S
C3082 C3081 1.349 . S
C3082 C3094 1.349 . S
C3083 C3081 1.327 . S
C3083 C3099 1.429 . S
C3083 H3105 0.950 . S
C3084 H3080 0.949 . S
C3084 C3092 1.574 . S
C3084 C3100 1.368 . S
H3085 C3093 0.950 . S
H3086 C3091 0.950 . S
H3087 C3092 0.949 . S
H3088 C3094 0.950 . S
H3089 C3095 0.950 . S
H3090 C3096 0.949 . S
C3091 H3086 0.950 . S
C3091 C3093 1.327 . S
C3091 C3097 1.429 . S
C3092 C3084 1.574 . S
C3092 H3087 0.949 . S
C3092 C3098 1.368 . S
C3093 C3077 1.349 . S
C3093 H3085 0.950 . S
C3093 C3091 1.327 . S
C3094 C3082 1.349 . S
C3094 H3088 0.950 . S
C3094 C3095 1.327 . S
C3095 H3089 0.950 . S
C3095 C3094 1.327 . S
C3095 C3099 1.429 . S
C3096 C3079 1.574 . S
C3096 H3090 0.949 . S
C3096 C3100 1.368 . S
C3097 C3078 1.429 . S
C3097 C3091 1.429 . S
C3097 C3098 1.523 . S
C3098 C3079 1.368 . S
C3098 C3092 1.368 . S
C3098 C3097 1.523 . S
C3099 C3083 1.429 . S
C3099 C3095 1.429 . S
C3099 C3100 1.523 . S
C3100 C3084 1.368 . S
C3100 C3096 1.368 . S
C3100 C3099 1.523 . S
H3101 C3076 0.950 . S
H3102 C3078 0.950 . S
H3103 C3079 0.949 . S
H3104 C3081 0.950 . S
H3105 C3083 0.950 . S
C3106 C3107 1.349 . S
C3106 C3108 1.327 . S
C3106 H3131 0.950 . S
C3107 C3106 1.349 . S
C3107 C3123 1.349 . S
C3108 C3106 1.327 . S
C3108 C3127 1.429 . S
C3108 H3132 0.950 . S
C3109 C3126 1.574 . S
C3109 C3128 1.368 . S
C3109 H3133 0.949 . S
H3110 C3114 0.949 . S
C3111 C3112 1.349 . S
C3111 C3113 1.327 . S
C3111 H3134 0.950 . S
C3112 C3111 1.349 . S
C3112 C3124 1.349 . S
C3113 C3111 1.327 . S
C3113 C3129 1.429 . S
C3113 H3135 0.950 . S
C3114 H3110 0.949 . S
C3114 C3122 1.574 . S
C3114 C3130 1.368 . S
H3115 C3123 0.950 . S
H3116 C3121 0.950 . S
H3117 C3122 0.949 . S
H3118 C3124 0.950 . S
H3119 C3125 0.950 . S
H3120 C3126 0.949 . S
C3121 H3116 0.950 . S
C3121 C3123 1.327 . S
C3121 C3127 1.429 . S
C3122 C3114 1.574 . S
C3122 H3117 0.949 . S
C3122 C3128 1.368 . S
C3123 C3107 1.349 . S
C3123 H3115 0.950 . S
C3123 C3121 1.327 . S
C3124 C3112 1.349 . S
C3124 H3118 0.950 . S
C3124 C3125 1.327 . S
C3125 H3119 0.950 . S
C3125 C3124 1.327 . S
C3125 C3129 1.429 . S
C3126 C3109 1.574 . S
C3126 H3120 0.949 . S
C3126 C3130 1.368 . S
C3127 C3108 1.429 . S
C3127 C3121 1.429 . S
C3127 C3128 1.523 . S
C3128 C3109 1.368 . S
C3128 C3122 1.368 . S
C3128 C3127 1.523 . S
C3129 C3113 1.429 . S
C3129 C3125 1.429 . S
C3129 C3130 1.523 . S
C3130 C3114 1.368 . S
C3130 C3126 1.368 . S
C3130 C3129 1.523 . S
H3131 C3106 0.950 . S
H3132 C3108 0.950 . S
H3133 C3109 0.949 . S
H3134 C3111 0.950 . S
H3135 C3113 0.950 . S
C3136 C3137 1.349 . S
C3136 C3138 1.327 . S
C3136 H3161 0.950 . S
C3137 C3136 1.349 . S
C3137 C3153 1.349 . S
C3138 C3136 1.327 . S
C3138 C3157 1.429 . S
C3138 H3162 0.950 . S
C3139 C3156 1.574 . S
C3139 C3158 1.368 . S
C3139 H3163 0.949 . S
H3140 C3144 0.949 . S
C3141 C3142 1.349 . S
C3141 C3143 1.327 . S
C3141 H3164 0.950 . S
C3142 C3141 1.349 . S
C3142 C3154 1.349 . S
C3143 C3141 1.327 . S
C3143 C3159 1.429 . S
C3143 H3165 0.950 . S
C3144 H3140 0.949 . S
C3144 C3152 1.574 . S
C3144 C3160 1.368 . S
H3145 C3153 0.950 . S
H3146 C3151 0.950 . S
H3147 C3152 0.949 . S
H3148 C3154 0.950 . S
H3149 C3155 0.950 . S
H3150 C3156 0.949 . S
C3151 H3146 0.950 . S
C3151 C3153 1.327 . S
C3151 C3157 1.429 . S
C3152 C3144 1.574 . S
C3152 H3147 0.949 . S
C3152 C3158 1.368 . S
C3153 C3137 1.349 . S
C3153 H3145 0.950 . S
C3153 C3151 1.327 . S
C3154 C3142 1.349 . S
C3154 H3148 0.950 . S
C3154 C3155 1.327 . S
C3155 H3149 0.950 . S
C3155 C3154 1.327 . S
C3155 C3159 1.429 . S
C3156 C3139 1.574 . S
C3156 H3150 0.949 . S
C3156 C3160 1.368 . S
C3157 C3138 1.429 . S
C3157 C3151 1.429 . S
C3157 C3158 1.523 . S
C3158 C3139 1.368 . S
C3158 C3152 1.368 . S
C3158 C3157 1.523 . S
C3159 C3143 1.429 . S
C3159 C3155 1.429 . S
C3159 C3160 1.523 . S
C3160 C3144 1.368 . S
C3160 C3156 1.368 . S
C3160 C3159 1.523 . S
H3161 C3136 0.950 . S
H3162 C3138 0.950 . S
H3163 C3139 0.949 . S
H3164 C3141 0.950 . S
H3165 C3143 0.950 . S
C3166 C3167 1.349 . S
C3166 C3168 1.327 . S
C3166 H3191 0.950 . S
C3167 C3166 1.349 . S
C3167 C3183 1.349 . S
C3168 C3166 1.327 . S
C3168 C3187 1.429 . S
C3168 H3192 0.950 . S
C3169 C3186 1.574 . S
C3169 C3188 1.368 . S
C3169 H3193 0.949 . S
H3170 C3174 0.949 . S
C3171 C3172 1.349 . S
C3171 C3173 1.327 . S
C3171 H3194 0.950 . S
C3172 C3171 1.349 . S
C3172 C3184 1.349 . S
C3173 C3171 1.327 . S
C3173 C3189 1.429 . S
C3173 H3195 0.950 . S
C3174 H3170 0.949 . S
C3174 C3182 1.574 . S
C3174 C3190 1.368 . S
H3175 C3183 0.950 . S
H3176 C3181 0.950 . S
H3177 C3182 0.949 . S
H3178 C3184 0.950 . S
H3179 C3185 0.950 . S
H3180 C3186 0.949 . S
C3181 H3176 0.950 . S
C3181 C3183 1.327 . S
C3181 C3187 1.429 . S
C3182 C3174 1.574 . S
C3182 H3177 0.949 . S
C3182 C3188 1.368 . S
C3183 C3167 1.349 . S
C3183 H3175 0.950 . S
C3183 C3181 1.327 . S
C3184 C3172 1.349 . S
C3184 H3178 0.950 . S
C3184 C3185 1.327 . S
C3185 H3179 0.950 . S
C3185 C3184 1.327 . S
C3185 C3189 1.429 . S
C3186 C3169 1.574 . S
C3186 H3180 0.949 . S
C3186 C3190 1.368 . S
C3187 C3168 1.429 . S
C3187 C3181 1.429 . S
C3187 C3188 1.523 . S
C3188 C3169 1.368 . S
C3188 C3182 1.368 . S
C3188 C3187 1.523 . S
C3189 C3173 1.429 . S
C3189 C3185 1.429 . S
C3189 C3190 1.523 . S
C3190 C3174 1.368 . S
C3190 C3186 1.368 . S
C3190 C3189 1.523 . S
H3191 C3166 0.950 . S
H3192 C3168 0.950 . S
H3193 C3169 0.949 . S
H3194 C3171 0.950 . S
H3195 C3173 0.950 . S
C3196 C3197 1.349 . S
C3196 C3198 1.327 . S
C3196 H3221 0.950 . S
C3197 C3196 1.349 . S
C3197 C3213 1.349 . S
C3198 C3196 1.327 . S
C3198 C3217 1.429 . S
C3198 H3222 0.950 . S
C3199 C3216 1.574 . S
C3199 C3218 1.368 . S
C3199 H3223 0.949 . S
H3200 C3204 0.949 . S
C3201 C3202 1.349 . S
C3201 C3203 1.327 . S
C3201 H3224 0.950 . S
C3202 C3201 1.349 . S
C3202 C3214 1.349 . S
C3203 C3201 1.327 . S
C3203 C3219 1.429 . S
C3203 H3225 0.950 . S
C3204 H3200 0.949 . S
C3204 C3212 1.574 . S
C3204 C3220 1.368 . S
H3205 C3213 0.950 . S
H3206 C3211 0.950 . S
H3207 C3212 0.949 . S
H3208 C3214 0.950 . S
H3209 C3215 0.950 . S
H3210 C3216 0.949 . S
C3211 H3206 0.950 . S
C3211 C3213 1.327 . S
C3211 C3217 1.429 . S
C3212 C3204 1.574 . S
C3212 H3207 0.949 . S
C3212 C3218 1.368 . S
C3213 C3197 1.349 . S
C3213 H3205 0.950 . S
C3213 C3211 1.327 . S
C3214 C3202 1.349 . S
C3214 H3208 0.950 . S
C3214 C3215 1.327 . S
C3215 H3209 0.950 . S
C3215 C3214 1.327 . S
C3215 C3219 1.429 . S
C3216 C3199 1.574 . S
C3216 H3210 0.949 . S
C3216 C3220 1.368 . S
C3217 C3198 1.429 . S
C3217 C3211 1.429 . S
C3217 C3218 1.523 . S
C3218 C3199 1.368 . S
C3218 C3212 1.368 . S
C3218 C3217 1.523 . S
C3219 C3203 1.429 . S
C3219 C3215 1.429 . S
C3219 C3220 1.523 . S
C3220 C3204 1.368 . S
C3220 C3216 1.368 . S
C3220 C3219 1.523 . S
H3221 C3196 0.950 . S
H3222 C3198 0.950 . S
H3223 C3199 0.949 . S
H3224 C3201 0.950 . S
H3225 C3203 0.950 . S
C3226 C3227 1.349 . S
C3226 C3228 1.327 . S
C3226 H3251 0.950 . S
C3227 C3226 1.349 . S
C3227 C3243 1.349 . S
C3228 C3226 1.327 . S
C3228 C3247 1.429 . S
C3228 H3252 0.950 . S
C3229 C3246 1.574 . S
C3229 C3248 1.368 . S
C3229 H3253 0.949 . S
H3230 C3234 0.949 . S
C3231 C3232 1.349 . S
C3231 C3233 1.327 . S
C3231 H3254 0.950 . S
C3232 C3231 1.349 . S
C3232 C3244 1.349 . S
C3233 C3231 1.327 . S
C3233 C3249 1.429 . S
C3233 H3255 0.950 . S
C3234 H3230 0.949 . S
C3234 C3242 1.574 . S
C3234 C3250 1.368 . S
H3235 C3243 0.950 . S
H3236 C3241 0.950 . S
H3237 C3242 0.949 . S
H3238 C3244 0.950 . S
H3239 C3245 0.950 . S
H3240 C3246 0.949 . S
C3241 H3236 0.950 . S
C3241 C3243 1.327 . S
C3241 C3247 1.429 . S
C3242 C3234 1.574 . S
C3242 H3237 0.949 . S
C3242 C3248 1.368 . S
C3243 C3227 1.349 . S
C3243 H3235 0.950 . S
C3243 C3241 1.327 . S
C3244 C3232 1.349 . S
C3244 H3238 0.950 . S
C3244 C3245 1.327 . S
C3245 H3239 0.950 . S
C3245 C3244 1.327 . S
C3245 C3249 1.429 . S
C3246 C3229 1.574 . S
C3246 H3240 0.949 . S
C3246 C3250 1.368 . S
C3247 C3228 1.429 . S
C3247 C3241 1.429 . S
C3247 C3248 1.523 . S
C3248 C3229 1.368 . S
C3248 C3242 1.368 . S
C3248 C3247 1.523 . S
C3249 C3233 1.429 . S
C3249 C3245 1.429 . S
C3249 C3250 1.523 . S
C3250 C3234 1.368 . S
C3250 C3246 1.368 . S
C3250 C3249 1.523 . S
H3251 C3226 0.950 . S
H3252 C3228 0.950 . S
H3253 C3229 0.949 . S
H3254 C3231 0.950 . S
H3255 C3233 0.950 . S
C3256 C3257 1.349 . S
C3256 C3258 1.327 . S
C3256 H3281 0.950 . S
C3257 C3256 1.349 . S
C3257 C3273 1.349 . S
C3258 C3256 1.327 . S
C3258 C3277 1.429 . S
C3258 H3282 0.950 . S
C3259 C3276 1.574 . S
C3259 C3278 1.368 . S
C3259 H3283 0.949 . S
H3260 C3264 0.949 . S
C3261 C3262 1.349 . S
C3261 C3263 1.327 . S
C3261 H3284 0.950 . S
C3262 C3261 1.349 . S
C3262 C3274 1.349 . S
C3263 C3261 1.327 . S
C3263 C3279 1.429 . S
C3263 H3285 0.950 . S
C3264 H3260 0.949 . S
C3264 C3272 1.574 . S
C3264 C3280 1.368 . S
H3265 C3273 0.950 . S
H3266 C3271 0.950 . S
H3267 C3272 0.949 . S
H3268 C3274 0.950 . S
H3269 C3275 0.950 . S
H3270 C3276 0.949 . S
C3271 H3266 0.950 . S
C3271 C3273 1.327 . S
C3271 C3277 1.429 . S
C3272 C3264 1.574 . S
C3272 H3267 0.949 . S
C3272 C3278 1.368 . S
C3273 C3257 1.349 . S
C3273 H3265 0.950 . S
C3273 C3271 1.327 . S
C3274 C3262 1.349 . S
C3274 H3268 0.950 . S
C3274 C3275 1.327 . S
C3275 H3269 0.950 . S
C3275 C3274 1.327 . S
C3275 C3279 1.429 . S
C3276 C3259 1.574 . S
C3276 H3270 0.949 . S
C3276 C3280 1.368 . S
C3277 C3258 1.429 . S
C3277 C3271 1.429 . S
C3277 C3278 1.523 . S
C3278 C3259 1.368 . S
C3278 C3272 1.368 . S
C3278 C3277 1.523 . S
C3279 C3263 1.429 . S
C3279 C3275 1.429 . S
C3279 C3280 1.523 . S
C3280 C3264 1.368 . S
C3280 C3276 1.368 . S
C3280 C3279 1.523 . S
H3281 C3256 0.950 . S
H3282 C3258 0.950 . S
H3283 C3259 0.949 . S
H3284 C3261 0.950 . S
H3285 C3263 0.950 . S
C3286 C3287 1.349 . S
C3286 C3288 1.327 . S
C3286 H3311 0.950 . S
C3287 C3286 1.349 . S
C3287 C3303 1.349 . S
C3288 C3286 1.327 . S
C3288 C3307 1.429 . S
C3288 H3312 0.950 . S
C3289 C3306 1.574 . S
C3289 C3308 1.368 . S
C3289 H3313 0.949 . S
H3290 C3294 0.949 . S
C3291 C3292 1.349 . S
C3291 C3293 1.327 . S
C3291 H3314 0.950 . S
C3292 C3291 1.349 . S
C3292 C3304 1.349 . S
C3293 C3291 1.327 . S
C3293 C3309 1.429 . S
C3293 H3315 0.950 . S
C3294 H3290 0.949 . S
C3294 C3302 1.574 . S
C3294 C3310 1.368 . S
H3295 C3303 0.950 . S
H3296 C3301 0.950 . S
H3297 C3302 0.949 . S
H3298 C3304 0.950 . S
H3299 C3305 0.950 . S
H3300 C3306 0.949 . S
C3301 H3296 0.950 . S
C3301 C3303 1.327 . S
C3301 C3307 1.429 . S
C3302 C3294 1.574 . S
C3302 H3297 0.949 . S
C3302 C3308 1.368 . S
C3303 C3287 1.349 . S
C3303 H3295 0.950 . S
C3303 C3301 1.327 . S
C3304 C3292 1.349 . S
C3304 H3298 0.950 . S
C3304 C3305 1.327 . S
C3305 H3299 0.950 . S
C3305 C3304 1.327 . S
C3305 C3309 1.429 . S
C3306 C3289 1.574 . S
C3306 H3300 0.949 . S
C3306 C3310 1.368 . S
C3307 C3288 1.429 . S
C3307 C3301 1.429 . S
C3307 C3308 1.523 . S
C3308 C3289 1.368 . S
C3308 C3302 1.368 . S
C3308 C3307 1.523 . S
C3309 C3293 1.429 . S
C3309 C3305 1.429 . S
C3309 C3310 1.523 . S
C3310 C3294 1.368 . S
C3310 C3306 1.368 . S
C3310 C3309 1.523 . S
H3311 C3286 0.950 . S
H3312 C3288 0.950 . S
H3313 C3289 0.949 . S
H3314 C3291 0.950 . S
H3315 C3293 0.950 . S
C3316 C3317 1.349 . S
C3316 C3318 1.327 . S
C3316 H3341 0.950 . S
C3317 C3316 1.349 . S
C3317 C3333 1.349 . S
C3318 C3316 1.327 . S
C3318 C3337 1.429 . S
C3318 H3342 0.950 . S
C3319 C3336 1.574 . S
C3319 C3338 1.368 . S
C3319 H3343 0.949 . S
H3320 C3324 0.949 . S
C3321 C3322 1.349 . S
C3321 C3323 1.327 . S
C3321 H3344 0.950 . S
C3322 C3321 1.349 . S
C3322 C3334 1.349 . S
C3323 C3321 1.327 . S
C3323 C3339 1.429 . S
C3323 H3345 0.950 . S
C3324 H3320 0.949 . S
C3324 C3332 1.574 . S
C3324 C3340 1.368 . S
H3325 C3333 0.950 . S
H3326 C3331 0.950 . S
H3327 C3332 0.949 . S
H3328 C3334 0.950 . S
H3329 C3335 0.950 . S
H3330 C3336 0.949 . S
C3331 H3326 0.950 . S
C3331 C3333 1.327 . S
C3331 C3337 1.429 . S
C3332 C3324 1.574 . S
C3332 H3327 0.949 . S
C3332 C3338 1.368 . S
C3333 C3317 1.349 . S
C3333 H3325 0.950 . S
C3333 C3331 1.327 . S
C3334 C3322 1.349 . S
C3334 H3328 0.950 . S
C3334 C3335 1.327 . S
C3335 H3329 0.950 . S
C3335 C3334 1.327 . S
C3335 C3339 1.429 . S
C3336 C3319 1.574 . S
C3336 H3330 0.949 . S
C3336 C3340 1.368 . S
C3337 C3318 1.429 . S
C3337 C3331 1.429 . S
C3337 C3338 1.523 . S
C3338 C3319 1.368 . S
C3338 C3332 1.368 . S
C3338 C3337 1.523 . S
C3339 C3323 1.429 . S
C3339 C3335 1.429 . S
C3339 C3340 1.523 . S
C3340 C3324 1.368 . S
C3340 C3336 1.368 . S
C3340 C3339 1.523 . S
H3341 C3316 0.950 . S
H3342 C3318 0.950 . S
H3343 C3319 0.949 . S
H3344 C3321 0.950 . S
H3345 C3323 0.950 . S
C3346 C3347 1.349 . S
C3346 C3348 1.327 . S
C3346 H3371 0.950 . S
C3347 C3346 1.349 . S
C3347 C3363 1.349 . S
C3348 C3346 1.327 . S
C3348 C3367 1.429 . S
C3348 H3372 0.950 . S
C3349 C3366 1.574 . S
C3349 C3368 1.368 . S
C3349 H3373 0.949 . S
H3350 C3354 0.949 . S
C3351 C3352 1.349 . S
C3351 C3353 1.327 . S
C3351 H3374 0.950 . S
C3352 C3351 1.349 . S
C3352 C3364 1.349 . S
C3353 C3351 1.327 . S
C3353 C3369 1.429 . S
C3353 H3375 0.950 . S
C3354 H3350 0.949 . S
C3354 C3362 1.574 . S
C3354 C3370 1.368 . S
H3355 C3363 0.950 . S
H3356 C3361 0.950 . S
H3357 C3362 0.949 . S
H3358 C3364 0.950 . S
H3359 C3365 0.950 . S
H3360 C3366 0.949 . S
C3361 H3356 0.950 . S
C3361 C3363 1.327 . S
C3361 C3367 1.429 . S
C3362 C3354 1.574 . S
C3362 H3357 0.949 . S
C3362 C3368 1.368 . S
C3363 C3347 1.349 . S
C3363 H3355 0.950 . S
C3363 C3361 1.327 . S
C3364 C3352 1.349 . S
C3364 H3358 0.950 . S
C3364 C3365 1.327 . S
C3365 H3359 0.950 . S
C3365 C3364 1.327 . S
C3365 C3369 1.429 . S
C3366 C3349 1.574 . S
C3366 H3360 0.949 . S
C3366 C3370 1.368 . S
C3367 C3348 1.429 . S
C3367 C3361 1.429 . S
C3367 C3368 1.523 . S
C3368 C3349 1.368 . S
C3368 C3362 1.368 . S
C3368 C3367 1.523 . S
C3369 C3353 1.429 . S
C3369 C3365 1.429 . S
C3369 C3370 1.523 . S
C3370 C3354 1.368 . S
C3370 C3366 1.368 . S
C3370 C3369 1.523 . S
H3371 C3346 0.950 . S
H3372 C3348 0.950 . S
H3373 C3349 0.949 . S
H3374 C3351 0.950 . S
H3375 C3353 0.950 . S
C3376 C3377 1.349 . S
C3376 C3378 1.327 . S
C3376 H3401 0.950 . S
C3377 C3376 1.349 . S
C3377 C3393 1.349 . S
C3378 C3376 1.327 . S
C3378 C3397 1.429 . S
C3378 H3402 0.950 . S
C3379 C3396 1.574 . S
C3379 C3398 1.368 . S
C3379 H3403 0.949 . S
H3380 C3384 0.949 . S
C3381 C3382 1.349 . S
C3381 C3383 1.327 . S
C3381 H3404 0.950 . S
C3382 C3381 1.349 . S
C3382 C3394 1.349 . S
C3383 C3381 1.327 . S
C3383 C3399 1.429 . S
C3383 H3405 0.950 . S
C3384 H3380 0.949 . S
C3384 C3392 1.574 . S
C3384 C3400 1.368 . S
H3385 C3393 0.950 . S
H3386 C3391 0.950 . S
H3387 C3392 0.949 . S
H3388 C3394 0.950 . S
H3389 C3395 0.950 . S
H3390 C3396 0.949 . S
C3391 H3386 0.950 . S
C3391 C3393 1.327 . S
C3391 C3397 1.429 . S
C3392 C3384 1.574 . S
C3392 H3387 0.949 . S
C3392 C3398 1.368 . S
C3393 C3377 1.349 . S
C3393 H3385 0.950 . S
C3393 C3391 1.327 . S
C3394 C3382 1.349 . S
C3394 H3388 0.950 . S
C3394 C3395 1.327 . S
C3395 H3389 0.950 . S
C3395 C3394 1.327 . S
C3395 C3399 1.429 . S
C3396 C3379 1.574 . S
C3396 H3390 0.949 . S
C3396 C3400 1.368 . S
C3397 C3378 1.429 . S
C3397 C3391 1.429 . S
C3397 C3398 1.523 . S
C3398 C3379 1.368 . S
C3398 C3392 1.368 . S
C3398 C3397 1.523 . S
C3399 C3383 1.429 . S
C3399 C3395 1.429 . S
C3399 C3400 1.523 . S
C3400 C3384 1.368 . S
C3400 C3396 1.368 . S
C3400 C3399 1.523 . S
H3401 C3376 0.950 . S
H3402 C3378 0.950 . S
H3403 C3379 0.949 . S
H3404 C3381 0.950 . S
H3405 C3383 0.950 . S
C3406 C3407 1.349 . S
C3406 C3408 1.327 . S
C3406 H3431 0.950 . S
C3407 C3406 1.349 . S
C3407 C3423 1.349 . S
C3408 C3406 1.327 . S
C3408 C3427 1.429 . S
C3408 H3432 0.950 . S
C3409 C3426 1.574 . S
C3409 C3428 1.368 . S
C3409 H3433 0.949 . S
H3410 C3414 0.949 . S
C3411 C3412 1.349 . S
C3411 C3413 1.327 . S
C3411 H3434 0.950 . S
C3412 C3411 1.349 . S
C3412 C3424 1.349 . S
C3413 C3411 1.327 . S
C3413 C3429 1.429 . S
C3413 H3435 0.950 . S
C3414 H3410 0.949 . S
C3414 C3422 1.574 . S
C3414 C3430 1.368 . S
H3415 C3423 0.950 . S
H3416 C3421 0.950 . S
H3417 C3422 0.949 . S
H3418 C3424 0.950 . S
H3419 C3425 0.950 . S
H3420 C3426 0.949 . S
C3421 H3416 0.950 . S
C3421 C3423 1.327 . S
C3421 C3427 1.429 . S
C3422 C3414 1.574 . S
C3422 H3417 0.949 . S
C3422 C3428 1.368 . S
C3423 C3407 1.349 . S
C3423 H3415 0.950 . S
C3423 C3421 1.327 . S
C3424 C3412 1.349 . S
C3424 H3418 0.950 . S
C3424 C3425 1.327 . S
C3425 H3419 0.950 . S
C3425 C3424 1.327 . S
C3425 C3429 1.429 . S
C3426 C3409 1.574 . S
C3426 H3420 0.949 . S
C3426 C3430 1.368 . S
C3427 C3408 1.429 . S
C3427 C3421 1.429 . S
C3427 C3428 1.523 . S
C3428 C3409 1.368 . S
C3428 C3422 1.368 . S
C3428 C3427 1.523 . S
C3429 C3413 1.429 . S
C3429 C3425 1.429 . S
C3429 C3430 1.523 . S
C3430 C3414 1.368 . S
C3430 C3426 1.368 . S
C3430 C3429 1.523 . S
H3431 C3406 0.950 . S
H3432 C3408 0.950 . S
H3433 C3409 0.949 . S
H3434 C3411 0.950 . S
H3435 C3413 0.950 . S
C3436 C3437 1.349 . S
C3436 C3438 1.327 . S
C3436 H3461 0.950 . S
C3437 C3436 1.349 . S
C3437 C3453 1.349 . S
C3438 C3436 1.327 . S
C3438 C3457 1.429 . S
C3438 H3462 0.950 . S
C3439 C3456 1.574 . S
C3439 C3458 1.368 . S
C3439 H3463 0.949 . S
H3440 C3444 0.945 . S
C3441 C3442 1.349 . S
C3441 C3443 1.327 1_455 S
C3441 H3464 0.950 . S
C3442 C3441 1.349 . S
C3442 C3454 1.349 . S
C3443 C3441 1.327 1_655 S
C3443 C3459 1.431 . S
C3443 H3465 0.950 . S
C3444 H3440 0.945 . S
C3444 C3452 1.574 . S
C3444 C3460 1.368 . S
H3445 C3453 0.950 . S
H3446 C3451 0.950 . S
H3447 C3452 0.949 . S
H3448 C3454 0.950 . S
H3449 C3455 0.950 . S
H3450 C3456 0.949 . S
C3451 H3446 0.950 . S
C3451 C3453 1.327 . S
C3451 C3457 1.429 . S
C3452 C3444 1.574 . S
C3452 H3447 0.949 . S
C3452 C3458 1.368 . S
C3453 C3437 1.349 . S
C3453 H3445 0.950 . S
C3453 C3451 1.327 . S
C3454 C3442 1.349 . S
C3454 H3448 0.950 . S
C3454 C3455 1.327 . S
C3455 H3449 0.950 . S
C3455 C3454 1.327 . S
C3455 C3459 1.422 1_455 S
C3456 C3439 1.574 . S
C3456 H3450 0.949 . S
C3456 C3460 1.368 . S
C3457 C3438 1.429 . S
C3457 C3451 1.429 . S
C3457 C3458 1.523 . S
C3458 C3439 1.368 . S
C3458 C3452 1.368 . S
C3458 C3457 1.523 . S
C3459 C3443 1.431 . S
C3459 C3455 1.422 1_655 S
C3459 C3460 1.526 . S
C3460 C3444 1.368 . S
C3460 C3456 1.368 . S
C3460 C3459 1.526 . S
H3461 C3436 0.950 . S
H3462 C3438 0.950 . S
H3463 C3439 0.949 . S
H3464 C3441 0.950 . S
H3465 C3443 0.950 . S
C3466 C3467 1.349 . S
C3466 C3468 1.327 . S
C3466 H3491 0.950 . S
C3467 C3466 1.349 . S
C3467 C3483 1.349 . S
C3468 C3466 1.327 . S
C3468 C3487 1.429 . S
C3468 H3492 0.950 . S
C3469 C3486 1.574 . S
C3469 C3488 1.368 . S
C3469 H3493 0.949 . S
H3470 C3474 0.949 . S
C3471 C3472 1.349 . S
C3471 C3473 1.327 . S
C3471 H3494 0.950 . S
C3472 C3471 1.349 . S
C3472 C3484 1.349 . S
C3473 C3471 1.327 . S
C3473 C3489 1.429 . S
C3473 H3495 0.950 . S
C3474 H3470 0.949 . S
C3474 C3482 1.574 . S
C3474 C3490 1.368 . S
H3475 C3483 0.950 . S
H3476 C3481 0.950 . S
H3477 C3482 0.949 . S
H3478 C3484 0.950 . S
H3479 C3485 0.950 . S
H3480 C3486 0.949 . S
C3481 H3476 0.950 . S
C3481 C3483 1.327 . S
C3481 C3487 1.429 . S
C3482 C3474 1.574 . S
C3482 H3477 0.949 . S
C3482 C3488 1.368 . S
C3483 C3467 1.349 . S
C3483 H3475 0.950 . S
C3483 C3481 1.327 . S
C3484 C3472 1.349 . S
C3484 H3478 0.950 . S
C3484 C3485 1.327 . S
C3485 H3479 0.950 . S
C3485 C3484 1.327 . S
C3485 C3489 1.429 . S
C3486 C3469 1.574 . S
C3486 H3480 0.949 . S
C3486 C3490 1.368 . S
C3487 C3468 1.429 . S
C3487 C3481 1.429 . S
C3487 C3488 1.523 . S
C3488 C3469 1.368 . S
C3488 C3482 1.368 . S
C3488 C3487 1.523 . S
C3489 C3473 1.429 . S
C3489 C3485 1.429 . S
C3489 C3490 1.523 . S
C3490 C3474 1.368 . S
C3490 C3486 1.368 . S
C3490 C3489 1.523 . S
H3491 C3466 0.950 . S
H3492 C3468 0.950 . S
H3493 C3469 0.949 . S
H3494 C3471 0.950 . S
H3495 C3473 0.950 . S
C3496 C3497 1.349 . S
C3496 C3498 1.327 . S
C3496 H3521 0.950 . S
C3497 C3496 1.349 . S
C3497 C3513 1.349 . S
C3498 C3496 1.327 . S
C3498 C3517 1.429 . S
C3498 H3522 0.950 . S
C3499 C3516 1.574 . S
C3499 C3518 1.368 . S
C3499 H3523 0.949 . S
H3500 C3504 0.949 . S
C3501 C3502 1.349 . S
C3501 C3503 1.327 . S
C3501 H3524 0.950 . S
C3502 C3501 1.349 . S
C3502 C3514 1.349 . S
C3503 C3501 1.327 . S
C3503 C3519 1.429 . S
C3503 H3525 0.950 . S
C3504 H3500 0.949 . S
C3504 C3512 1.574 . S
C3504 C3520 1.368 . S
H3505 C3513 0.950 . S
H3506 C3511 0.950 . S
H3507 C3512 0.949 . S
H3508 C3514 0.950 . S
H3509 C3515 0.950 . S
H3510 C3516 0.949 . S
C3511 H3506 0.950 . S
C3511 C3513 1.327 . S
C3511 C3517 1.429 . S
C3512 C3504 1.574 . S
C3512 H3507 0.949 . S
C3512 C3518 1.368 . S
C3513 C3497 1.349 . S
C3513 H3505 0.950 . S
C3513 C3511 1.327 . S
C3514 C3502 1.349 . S
C3514 H3508 0.950 . S
C3514 C3515 1.327 . S
C3515 H3509 0.950 . S
C3515 C3514 1.327 . S
C3515 C3519 1.429 . S
C3516 C3499 1.574 . S
C3516 H3510 0.949 . S
C3516 C3520 1.368 . S
C3517 C3498 1.429 . S
C3517 C3511 1.429 . S
C3517 C3518 1.523 . S
C3518 C3499 1.368 . S
C3518 C3512 1.368 . S
C3518 C3517 1.523 . S
C3519 C3503 1.429 . S
C3519 C3515 1.429 . S
C3519 C3520 1.523 . S
C3520 C3504 1.368 . S
C3520 C3516 1.368 . S
C3520 C3519 1.523 . S
H3521 C3496 0.950 . S
H3522 C3498 0.950 . S
H3523 C3499 0.949 . S
H3524 C3501 0.950 . S
H3525 C3503 0.950 . S
C3526 C3527 1.349 . S
C3526 C3528 1.327 . S
C3526 H3551 0.950 . S
C3527 C3526 1.349 . S
C3527 C3543 1.349 . S
C3528 C3526 1.327 . S
C3528 C3547 1.429 . S
C3528 H3552 0.950 . S
C3529 C3546 1.574 . S
C3529 C3548 1.368 . S
C3529 H3553 0.949 . S
H3530 C3534 0.949 . S
C3531 C3532 1.349 . S
C3531 C3533 1.327 . S
C3531 H3554 0.950 . S
C3532 C3531 1.349 . S
C3532 C3544 1.349 . S
C3533 C3531 1.327 . S
C3533 C3549 1.429 . S
C3533 H3555 0.950 . S
C3534 H3530 0.949 . S
C3534 C3542 1.574 . S
C3534 C3550 1.368 . S
H3535 C3543 0.950 . S
H3536 C3541 0.950 . S
H3537 C3542 0.949 . S
H3538 C3544 0.950 . S
H3539 C3545 0.950 . S
H3540 C3546 0.949 . S
C3541 H3536 0.950 . S
C3541 C3543 1.327 . S
C3541 C3547 1.429 . S
C3542 C3534 1.574 . S
C3542 H3537 0.949 . S
C3542 C3548 1.368 . S
C3543 C3527 1.349 . S
C3543 H3535 0.950 . S
C3543 C3541 1.327 . S
C3544 C3532 1.349 . S
C3544 H3538 0.950 . S
C3544 C3545 1.327 . S
C3545 H3539 0.950 . S
C3545 C3544 1.327 . S
C3545 C3549 1.429 . S
C3546 C3529 1.574 . S
C3546 H3540 0.949 . S
C3546 C3550 1.368 . S
C3547 C3528 1.429 . S
C3547 C3541 1.429 . S
C3547 C3548 1.523 . S
C3548 C3529 1.368 . S
C3548 C3542 1.368 . S
C3548 C3547 1.523 . S
C3549 C3533 1.429 . S
C3549 C3545 1.429 . S
C3549 C3550 1.523 . S
C3550 C3534 1.368 . S
C3550 C3546 1.368 . S
C3550 C3549 1.523 . S
H3551 C3526 0.950 . S
H3552 C3528 0.950 . S
H3553 C3529 0.949 . S
H3554 C3531 0.950 . S
H3555 C3533 0.950 . S
C3556 C3557 1.349 . S
C3556 C3558 1.327 . S
C3556 H3581 0.950 . S
C3557 C3556 1.349 . S
C3557 C3573 1.349 . S
C3558 C3556 1.327 . S
C3558 C3577 1.429 . S
C3558 H3582 0.950 . S
C3559 C3576 1.574 . S
C3559 C3578 1.368 . S
C3559 H3583 0.949 . S
H3560 C3564 0.949 . S
C3561 C3562 1.349 . S
C3561 C3563 1.327 . S
C3561 H3584 0.950 . S
C3562 C3561 1.349 . S
C3562 C3574 1.349 . S
C3563 C3561 1.327 . S
C3563 C3579 1.429 . S
C3563 H3585 0.950 . S
C3564 H3560 0.949 . S
C3564 C3572 1.574 . S
C3564 C3580 1.368 . S
H3565 C3573 0.950 . S
H3566 C3571 0.950 . S
H3567 C3572 0.949 . S
H3568 C3574 0.950 1_455 S
H3569 C3575 0.950 . S
H3570 C3576 0.949 . S
C3571 H3566 0.950 . S
C3571 C3573 1.327 . S
C3571 C3577 1.429 . S
C3572 C3564 1.574 . S
C3572 H3567 0.949 . S
C3572 C3578 1.368 . S
C3573 C3557 1.349 . S
C3573 H3565 0.950 . S
C3573 C3571 1.327 . S
C3574 C3562 1.349 . S
C3574 H3568 0.950 1_655 S
C3574 C3575 1.327 . S
C3575 H3569 0.950 . S
C3575 C3574 1.327 . S
C3575 C3579 1.429 . S
C3576 C3559 1.574 . S
C3576 H3570 0.949 . S
C3576 C3580 1.368 . S
C3577 C3558 1.429 . S
C3577 C3571 1.429 . S
C3577 C3578 1.523 . S
C3578 C3559 1.368 . S
C3578 C3572 1.368 . S
C3578 C3577 1.523 . S
C3579 C3563 1.429 . S
C3579 C3575 1.429 . S
C3579 C3580 1.523 . S
C3580 C3564 1.368 . S
C3580 C3576 1.368 . S
C3580 C3579 1.523 . S
H3581 C3556 0.950 . S
H3582 C3558 0.950 . S
H3583 C3559 0.949 . S
H3584 C3561 0.950 . S
H3585 C3563 0.950 . S
C3586 C3587 1.349 . S
C3586 C3588 1.327 . S
C3586 H3611 0.950 . S
C3587 C3586 1.349 . S
C3587 C3603 1.349 . S
C3588 C3586 1.327 . S
C3588 C3607 1.429 . S
C3588 H3612 0.950 . S
C3589 C3606 1.574 . S
C3589 C3608 1.368 . S
C3589 H3613 0.949 . S
H3590 C3594 0.949 . S
C3591 C3592 1.349 . S
C3591 C3593 1.327 . S
C3591 H3614 0.950 . S
C3592 C3591 1.349 . S
C3592 C3604 1.349 . S
C3593 C3591 1.327 . S
C3593 C3609 1.429 . S
C3593 H3615 0.950 . S
C3594 H3590 0.949 . S
C3594 C3602 1.574 . S
C3594 C3610 1.368 . S
H3595 C3603 0.950 . S
H3596 C3601 0.950 . S
H3597 C3602 0.949 . S
H3598 C3604 0.950 . S
H3599 C3605 0.950 . S
H3600 C3606 0.949 . S
C3601 H3596 0.950 . S
C3601 C3603 1.327 . S
C3601 C3607 1.429 . S
C3602 C3594 1.574 . S
C3602 H3597 0.949 . S
C3602 C3608 1.368 . S
C3603 C3587 1.349 . S
C3603 H3595 0.950 . S
C3603 C3601 1.327 . S
C3604 C3592 1.349 . S
C3604 H3598 0.950 . S
C3604 C3605 1.327 . S
C3605 H3599 0.950 . S
C3605 C3604 1.327 . S
C3605 C3609 1.429 . S
C3606 C3589 1.574 . S
C3606 H3600 0.949 . S
C3606 C3610 1.368 . S
C3607 C3588 1.429 . S
C3607 C3601 1.429 . S
C3607 C3608 1.523 . S
C3608 C3589 1.368 . S
C3608 C3602 1.368 . S
C3608 C3607 1.523 . S
C3609 C3593 1.429 . S
C3609 C3605 1.429 . S
C3609 C3610 1.523 . S
C3610 C3594 1.368 . S
C3610 C3606 1.368 . S
C3610 C3609 1.523 . S
H3611 C3586 0.950 . S
H3612 C3588 0.950 . S
H3613 C3589 0.949 . S
H3614 C3591 0.950 . S
H3615 C3593 0.950 . S
C3616 C3617 1.349 . S
C3616 C3618 1.327 . S
C3616 H3641 0.950 . S
C3617 C3616 1.349 . S
C3617 C3633 1.349 . S
C3618 C3616 1.327 . S
C3618 C3637 1.429 . S
C3618 H3642 0.950 . S
C3619 C3636 1.574 . S
C3619 C3638 1.368 . S
C3619 H3643 0.949 . S
H3620 C3624 0.949 . S
C3621 C3622 1.349 . S
C3621 C3623 1.327 . S
C3621 H3644 0.950 . S
C3622 C3621 1.349 . S
C3622 C3634 1.349 . S
C3623 C3621 1.327 . S
C3623 C3639 1.429 . S
C3623 H3645 0.950 . S
C3624 H3620 0.949 . S
C3624 C3632 1.574 . S
C3624 C3640 1.368 . S
H3625 C3633 0.950 . S
H3626 C3631 0.950 . S
H3627 C3632 0.949 . S
H3628 C3634 0.950 . S
H3629 C3635 0.950 . S
H3630 C3636 0.949 . S
C3631 H3626 0.950 . S
C3631 C3633 1.327 . S
C3631 C3637 1.429 . S
C3632 C3624 1.574 . S
C3632 H3627 0.949 . S
C3632 C3638 1.368 . S
C3633 C3617 1.349 . S
C3633 H3625 0.950 . S
C3633 C3631 1.327 . S
C3634 C3622 1.349 . S
C3634 H3628 0.950 . S
C3634 C3635 1.327 . S
C3635 H3629 0.950 . S
C3635 C3634 1.327 . S
C3635 C3639 1.429 . S
C3636 C3619 1.574 . S
C3636 H3630 0.949 . S
C3636 C3640 1.368 . S
C3637 C3618 1.429 . S
C3637 C3631 1.429 . S
C3637 C3638 1.523 . S
C3638 C3619 1.368 . S
C3638 C3632 1.368 . S
C3638 C3637 1.523 . S
C3639 C3623 1.429 . S
C3639 C3635 1.429 . S
C3639 C3640 1.523 . S
C3640 C3624 1.368 . S
C3640 C3636 1.368 . S
C3640 C3639 1.523 . S
H3641 C3616 0.950 . S
H3642 C3618 0.950 . S
H3643 C3619 0.949 . S
H3644 C3621 0.950 . S
H3645 C3623 0.950 . S
C3646 C3647 1.349 . S
C3646 C3648 1.327 . S
C3646 H3671 0.950 . S
C3647 C3646 1.349 . S
C3647 C3663 1.349 . S
C3648 C3646 1.327 . S
C3648 C3667 1.429 . S
C3648 H3672 0.950 . S
C3649 C3666 1.574 . S
C3649 C3668 1.368 . S
C3649 H3673 0.949 . S
H3650 C3654 0.949 . S
C3651 C3652 1.349 . S
C3651 C3653 1.327 1_545 S
C3651 H3674 0.950 . S
C3652 C3651 1.349 . S
C3652 C3664 1.349 1_545 S
C3653 C3651 1.327 1_565 S
C3653 C3669 1.429 . S
C3653 H3675 0.950 . S
C3654 H3650 0.949 . S
C3654 C3662 1.574 . S
C3654 C3670 1.368 . S
H3655 C3663 0.950 . S
H3656 C3661 0.950 . S
H3657 C3662 0.949 . S
H3658 C3664 0.950 . S
H3659 C3665 0.950 . S
H3660 C3666 0.949 . S
C3661 H3656 0.950 . S
C3661 C3663 1.327 . S
C3661 C3667 1.429 . S
C3662 C3654 1.574 . S
C3662 H3657 0.949 . S
C3662 C3668 1.368 . S
C3663 C3647 1.349 . S
C3663 H3655 0.950 . S
C3663 C3661 1.327 . S
C3664 C3652 1.349 1_565 S
C3664 H3658 0.950 . S
C3664 C3665 1.327 . S
C3665 H3659 0.950 . S
C3665 C3664 1.327 . S
C3665 C3669 1.429 . S
C3666 C3649 1.574 . S
C3666 H3660 0.949 . S
C3666 C3670 1.368 . S
C3667 C3648 1.429 . S
C3667 C3661 1.429 . S
C3667 C3668 1.523 . S
C3668 C3649 1.368 . S
C3668 C3662 1.368 . S
C3668 C3667 1.523 . S
C3669 C3653 1.429 . S
C3669 C3665 1.429 . S
C3669 C3670 1.523 . S
C3670 C3654 1.368 . S
C3670 C3666 1.368 . S
C3670 C3669 1.523 . S
H3671 C3646 0.950 . S
H3672 C3648 0.950 . S
H3673 C3649 0.949 . S
H3674 C3651 0.950 . S
H3675 C3653 0.950 . S
C3676 C3677 1.349 . S
C3676 C3678 1.327 . S
C3676 H3701 0.950 . S
C3677 C3676 1.349 . S
C3677 C3693 1.349 . S
C3678 C3676 1.327 . S
C3678 C3697 1.429 . S
C3678 H3702 0.950 . S
C3679 C3696 1.574 . S
C3679 C3698 1.368 . S
C3679 H3703 0.949 . S
H3680 C3684 0.949 . S
C3681 C3682 1.349 . S
C3681 C3683 1.327 . S
C3681 H3704 0.950 . S
C3682 C3681 1.349 . S
C3682 C3694 1.349 . S
C3683 C3681 1.327 . S
C3683 C3699 1.429 . S
C3683 H3705 0.950 . S
C3684 H3680 0.949 . S
C3684 C3692 1.574 . S
C3684 C3700 1.368 . S
H3685 C3693 0.950 . S
H3686 C3691 0.950 . S
H3687 C3692 0.949 . S
H3688 C3694 0.950 . S
H3689 C3695 0.950 . S
H3690 C3696 0.949 . S
C3691 H3686 0.950 . S
C3691 C3693 1.327 . S
C3691 C3697 1.429 . S
C3692 C3684 1.574 . S
C3692 H3687 0.949 . S
C3692 C3698 1.368 . S
C3693 C3677 1.349 . S
C3693 H3685 0.950 . S
C3693 C3691 1.327 . S
C3694 C3682 1.349 . S
C3694 H3688 0.950 . S
C3694 C3695 1.327 . S
C3695 H3689 0.950 . S
C3695 C3694 1.327 . S
C3695 C3699 1.429 . S
C3696 C3679 1.574 . S
C3696 H3690 0.949 . S
C3696 C3700 1.368 . S
C3697 C3678 1.429 . S
C3697 C3691 1.429 . S
C3697 C3698 1.523 . S
C3698 C3679 1.368 . S
C3698 C3692 1.368 . S
C3698 C3697 1.523 . S
C3699 C3683 1.429 . S
C3699 C3695 1.429 . S
C3699 C3700 1.523 . S
C3700 C3684 1.368 . S
C3700 C3696 1.368 . S
C3700 C3699 1.523 . S
H3701 C3676 0.950 . S
H3702 C3678 0.950 . S
H3703 C3679 0.949 . S
H3704 C3681 0.950 . S
H3705 C3683 0.950 . S
C3706 C3707 1.349 . S
C3706 C3708 1.327 . S
C3706 H3731 0.950 . S
C3707 C3706 1.349 . S
C3707 C3723 1.349 1_554 S
C3708 C3706 1.327 . S
C3708 C3727 1.429 . S
C3708 H3732 0.950 . S
C3709 C3726 1.574 . S
C3709 C3728 1.368 1_556 S
C3709 H3733 0.949 . S
H3710 C3714 0.949 . S
C3711 C3712 1.349 1_556 S
C3711 C3713 1.327 . S
C3711 H3734 0.950 . S
C3712 C3711 1.349 1_554 S
C3712 C3724 1.349 . S
C3713 C3711 1.327 . S
C3713 C3729 1.429 1_556 S
C3713 H3735 0.950 . S
C3714 H3710 0.949 . S
C3714 C3722 1.574 . S
C3714 C3730 1.368 . S
H3715 C3723 0.950 . S
H3716 C3721 0.950 . S
H3717 C3722 0.949 . S
H3718 C3724 0.950 . S
H3719 C3725 0.950 . S
H3720 C3726 0.949 . S
C3721 H3716 0.950 . S
C3721 C3723 1.327 . S
C3721 C3727 1.429 1_556 S
C3722 C3714 1.574 . S
C3722 H3717 0.949 . S
C3722 C3728 1.368 . S
C3723 C3707 1.349 1_556 S
C3723 H3715 0.950 . S
C3723 C3721 1.327 . S
C3724 C3712 1.349 . S
C3724 H3718 0.950 . S
C3724 C3725 1.327 . S
C3725 H3719 0.950 . S
C3725 C3724 1.327 . S
C3725 C3729 1.429 . S
C3726 C3709 1.574 . S
C3726 H3720 0.949 . S
C3726 C3730 1.368 1_556 S
C3727 C3708 1.429 . S
C3727 C3721 1.429 1_554 S
C3727 C3728 1.523 . S
C3728 C3709 1.368 1_554 S
C3728 C3722 1.368 . S
C3728 C3727 1.523 . S
C3729 C3713 1.429 1_554 S
C3729 C3725 1.429 . S
C3729 C3730 1.523 . S
C3730 C3714 1.368 . S
C3730 C3726 1.368 1_554 S
C3730 C3729 1.523 . S
H3731 C3706 0.950 . S
H3732 C3708 0.950 . S
H3733 C3709 0.949 . S
H3734 C3711 0.950 . S
H3735 C3713 0.950 . S
C3736 C3737 1.349 . S
C3736 C3738 1.327 . S
C3736 H3761 0.950 . S
C3737 C3736 1.349 . S
C3737 C3753 1.349 . S
C3738 C3736 1.327 . S
C3738 C3757 1.429 . S
C3738 H3762 0.950 . S
C3739 C3756 1.574 . S
C3739 C3758 1.368 . S
C3739 H3763 0.949 . S
H3740 C3744 0.949 . S
C3741 C3742 1.349 . S
C3741 C3743 1.327 . S
C3741 H3764 0.950 . S
C3742 C3741 1.349 . S
C3742 C3754 1.349 . S
C3743 C3741 1.327 . S
C3743 C3759 1.429 . S
C3743 H3765 0.950 . S
C3744 H3740 0.949 . S
C3744 C3752 1.574 . S
C3744 C3760 1.368 . S
H3745 C3753 0.950 . S
H3746 C3751 0.950 . S
H3747 C3752 0.949 . S
H3748 C3754 0.950 . S
H3749 C3755 0.950 . S
H3750 C3756 0.949 . S
C3751 H3746 0.950 . S
C3751 C3753 1.327 . S
C3751 C3757 1.429 . S
C3752 C3744 1.574 . S
C3752 H3747 0.949 . S
C3752 C3758 1.368 . S
C3753 C3737 1.349 . S
C3753 H3745 0.950 . S
C3753 C3751 1.327 . S
C3754 C3742 1.349 . S
C3754 H3748 0.950 . S
C3754 C3755 1.327 . S
C3755 H3749 0.950 . S
C3755 C3754 1.327 . S
C3755 C3759 1.429 . S
C3756 C3739 1.574 . S
C3756 H3750 0.949 . S
C3756 C3760 1.368 . S
C3757 C3738 1.429 . S
C3757 C3751 1.429 . S
C3757 C3758 1.523 . S
C3758 C3739 1.368 . S
C3758 C3752 1.368 . S
C3758 C3757 1.523 . S
C3759 C3743 1.429 . S
C3759 C3755 1.429 . S
C3759 C3760 1.523 . S
C3760 C3744 1.368 . S
C3760 C3756 1.368 . S
C3760 C3759 1.523 . S
H3761 C3736 0.950 . S
H3762 C3738 0.950 . S
H3763 C3739 0.949 . S
H3764 C3741 0.950 . S
H3765 C3743 0.950 . S
C3766 C3767 1.349 1_556 S
C3766 C3768 1.327 . S
C3766 H3791 0.950 . S
C3767 C3766 1.349 1_554 S
C3767 C3783 1.349 . S
C3768 C3766 1.327 . S
C3768 C3787 1.429 1_556 S
C3768 H3792 0.950 . S
C3769 C3786 1.574 . S
C3769 C3788 1.368 . S
C3769 H3793 0.949 . S
H3770 C3774 0.949 . S
C3771 C3772 1.349 1_554 S
C3771 C3773 1.327 . S
C3771 H3794 0.950 . S
C3772 C3771 1.349 1_556 S
C3772 C3784 1.349 . S
C3773 C3771 1.327 . S
C3773 C3789 1.429 1_554 S
C3773 H3795 0.950 . S
C3774 H3770 0.949 . S
C3774 C3782 1.574 . S
C3774 C3790 1.368 . S
H3775 C3783 0.950 . S
H3776 C3781 0.950 . S
H3777 C3782 0.949 . S
H3778 C3784 0.950 . S
H3779 C3785 0.950 . S
H3780 C3786 0.949 . S
C3781 H3776 0.950 . S
C3781 C3783 1.327 . S
C3781 C3787 1.429 . S
C3782 C3774 1.574 . S
C3782 H3777 0.949 . S
C3782 C3788 1.368 1_556 S
C3783 C3767 1.349 . S
C3783 H3775 0.950 . S
C3783 C3781 1.327 . S
C3784 C3772 1.349 . S
C3784 H3778 0.950 . S
C3784 C3785 1.327 . S
C3785 H3779 0.950 . S
C3785 C3784 1.327 . S
C3785 C3789 1.429 . S
C3786 C3769 1.574 . S
C3786 H3780 0.949 . S
C3786 C3790 1.368 1_554 S
C3787 C3768 1.429 1_554 S
C3787 C3781 1.429 . S
C3787 C3788 1.523 . S
C3788 C3769 1.368 . S
C3788 C3782 1.368 1_554 S
C3788 C3787 1.523 . S
C3789 C3773 1.429 1_556 S
C3789 C3785 1.429 . S
C3789 C3790 1.523 . S
C3790 C3774 1.368 . S
C3790 C3786 1.368 1_556 S
C3790 C3789 1.523 . S
H3791 C3766 0.950 . S
H3792 C3768 0.950 . S
H3793 C3769 0.949 . S
H3794 C3771 0.950 . S
H3795 C3773 0.950 . S
C3796 C3797 1.349 . S
C3796 C3798 1.327 . S
C3796 H3821 0.950 . S
C3797 C3796 1.349 . S
C3797 C3813 1.349 . S
C3798 C3796 1.327 . S
C3798 C3817 1.429 . S
C3798 H3822 0.950 . S
C3799 C3816 1.574 . S
C3799 C3818 1.368 . S
C3799 H3823 0.949 . S
H3800 C3804 0.949 . S
C3801 C3802 1.349 . S
C3801 C3803 1.327 . S
C3801 H3824 0.950 . S
C3802 C3801 1.349 . S
C3802 C3814 1.349 . S
C3803 C3801 1.327 . S
C3803 C3819 1.429 . S
C3803 H3825 0.950 . S
C3804 H3800 0.949 . S
C3804 C3812 1.574 . S
C3804 C3820 1.368 . S
H3805 C3813 0.950 1_545 S
H3806 C3811 0.950 . S
H3807 C3812 0.949 . S
H3808 C3814 0.950 . S
H3809 C3815 0.950 . S
H3810 C3816 0.949 . S
C3811 H3806 0.950 . S
C3811 C3813 1.327 . S
C3811 C3817 1.429 . S
C3812 C3804 1.574 . S
C3812 H3807 0.949 . S
C3812 C3818 1.368 . S
C3813 C3797 1.349 . S
C3813 H3805 0.950 1_565 S
C3813 C3811 1.327 . S
C3814 C3802 1.349 . S
C3814 H3808 0.950 . S
C3814 C3815 1.327 . S
C3815 H3809 0.950 . S
C3815 C3814 1.327 . S
C3815 C3819 1.429 . S
C3816 C3799 1.574 . S
C3816 H3810 0.949 . S
C3816 C3820 1.368 . S
C3817 C3798 1.429 . S
C3817 C3811 1.429 . S
C3817 C3818 1.523 . S
C3818 C3799 1.368 . S
C3818 C3812 1.368 . S
C3818 C3817 1.523 . S
C3819 C3803 1.429 . S
C3819 C3815 1.429 . S
C3819 C3820 1.523 . S
C3820 C3804 1.368 . S
C3820 C3816 1.368 . S
C3820 C3819 1.523 . S
H3821 C3796 0.950 . S
H3822 C3798 0.950 . S
H3823 C3799 0.949 . S
H3824 C3801 0.950 . S
H3825 C3803 0.950 . S
C3826 C3827 1.349 . S
C3826 C3828 1.327 . S
C3826 H3851 0.950 . S
C3827 C3826 1.349 . S
C3827 C3843 1.349 . S
C3828 C3826 1.327 . S
C3828 C3847 1.429 . S
C3828 H3852 0.950 . S
C3829 C3846 1.574 . S
C3829 C3848 1.368 . S
C3829 H3853 0.949 . S
H3830 C3834 0.949 . S
C3831 C3832 1.349 . S
C3831 C3833 1.327 . S
C3831 H3854 0.950 . S
C3832 C3831 1.349 . S
C3832 C3844 1.349 . S
C3833 C3831 1.327 . S
C3833 C3849 1.429 . S
C3833 H3855 0.950 . S
C3834 H3830 0.949 . S
C3834 C3842 1.574 . S
C3834 C3850 1.368 . S
H3835 C3843 0.950 . S
H3836 C3841 0.950 . S
H3837 C3842 0.949 . S
H3838 C3844 0.950 . S
H3839 C3845 0.950 . S
H3840 C3846 0.949 . S
C3841 H3836 0.950 . S
C3841 C3843 1.327 . S
C3841 C3847 1.429 . S
C3842 C3834 1.574 . S
C3842 H3837 0.949 . S
C3842 C3848 1.368 . S
C3843 C3827 1.349 . S
C3843 H3835 0.950 . S
C3843 C3841 1.327 . S
C3844 C3832 1.349 . S
C3844 H3838 0.950 . S
C3844 C3845 1.327 . S
C3845 H3839 0.950 . S
C3845 C3844 1.327 . S
C3845 C3849 1.429 . S
C3846 C3829 1.574 . S
C3846 H3840 0.949 . S
C3846 C3850 1.368 . S
C3847 C3828 1.429 . S
C3847 C3841 1.429 . S
C3847 C3848 1.523 . S
C3848 C3829 1.368 . S
C3848 C3842 1.368 . S
C3848 C3847 1.523 . S
C3849 C3833 1.429 . S
C3849 C3845 1.429 . S
C3849 C3850 1.523 . S
C3850 C3834 1.368 . S
C3850 C3846 1.368 . S
C3850 C3849 1.523 . S
H3851 C3826 0.950 . S
H3852 C3828 0.950 . S
H3853 C3829 0.949 . S
H3854 C3831 0.950 . S
H3855 C3833 0.950 . S
C977 C111 2.112 . S
C982 C346 2.121 . S
C1007 C64 2.023 . S
C1012 C394 2.087 . S
C1037 C77 0.907 . S
C1042 C426 0.894 . S
C1072 C471 1.166 . S
C1067 C95 1.172 . S
C1097 C25 0.966 . S
C1102 C511 0.948 . S
C1132 C542 0.284 . S
C1127 C36 0.389 . S
C1162 C594 1.147 . S
C1157 C50 1.087 . S
C1187 C11 1.623 . S
C1192 C626 1.548 . S
C1222 C354 2.365 . S
C1217 C237 2.257 . S
C1247 C245 0.255 . S
C1252 C391 0.362 . S
C1282 C434 1.195 . S
C1277 C279 1.137 . S
C1312 C466 1.072 . S
C1307 C175 1.085 . S
C1337 C231 1.590 . S
C1342 C506 1.575 . S
C1372 C545 1.355 . S
C1367 C251 1.300 . S
C1402 C591 0.321 . S
C1397 C273 0.173 . S
C1432 C634 1.930 . S
C1427 C181 1.884 . S
C1462 C351 1.292 1_565 S
C1457 C165 1.317 . S
C1487 C288 1.908 1_556 S
C1492 C674 1.962 . S
C1522 C715 2.516 . S
C1517 C333 2.584 . S
C1552 C746 0.457 . S
C1547 C316 0.485 . S
C1577 C123 1.213 . S
C1582 C631 1.177 . S
C1607 C137 1.393 . S
C1612 C431 1.368 . S
C1637 C330 2.209 . S
C1642 C794 2.262 . S
C1672 C826 0.452 . S
C1667 C302 0.382 . S
C1702 C355 2.238 . S
C1697 C63 2.286 . S
C1732 C825 2.133 . S
C1727 C106 2.132 . S
C1757 C97 1.010 . S
C1762 C435 1.026 . S
C1787 C81 1.251 . S
C1792 C782 1.253 . S
C1822 C502 1.080 . S
C1817 C13 1.017 . S
C1847 C55 0.486 . S
C1852 C711 0.280 . S
C1882 C585 1.185 1_565 S
C1877 C35 1.170 . S
C1912 C875 1.750 . S
C1907 C21 1.820 . S
C1942 C345 2.497 . S
C1937 C147 2.514 . S
C1972 C822 0.324 . S
C1967 C321 0.516 . S
C1997 C119 1.295 . S
C2002 C425 1.279 . S
C2027 C293 1.204 . S
C2032 C795 1.244 . S
C2057 C153 1.665 . S
C2062 C515 1.798 . S
C2092 C714 1.399 . S
C2087 C315 1.426 . S
C2117 C125 0.468 . S
C2122 C582 0.249 1_565 S
C2147 C287 2.086 . S
C2152 C865 2.054 . S
C2177 C193 1.357 . S
C2182 C342 1.358 . S
C2207 C176 1.986 . S
C2212 C665 2.002 . S
C2237 C263 2.539 . S
C2242 C546 2.466 . S
C2267 C246 0.711 . S
C2272 C755 0.701 . S
C2302 C862 1.235 . S
C2297 C277 1.238 . S
C2327 C221 1.403 . S
C2332 C422 1.404 . S
C2362 C465 2.331 . S
C2357 C260 2.313 . S
C2392 C395 0.566 . S
C2387 C204 0.569 . S
C2417 C83 2.112 . S
C2422 C906 2.103 . S
C2452 C834 2.087 . S
C2447 C92 2.023 . S
C2477 C105 0.906 . S
C2482 C946 0.894 . S
C2507 C67 1.172 . S
C2512 C791 1.166 . S
C2537 C53 0.965 . S
C2542 C671 0.947 . S
C2572 C702 0.284 . S
C2567 C8 0.389 . S
C2602 C754 1.147 . S
C2597 C22 1.087 . S
C2632 C866 1.547 . S
C2627 C39 1.622 . S
C2662 C914 2.365 . S
C2657 C265 2.257 . S
C2687 C189 0.255 . S
C2692 C831 0.362 . S
C2722 C954 1.195 . S
C2717 C209 1.136 . S
C2752 C786 1.072 . S
C2747 C217 1.086 . S
C2782 C666 1.575 . S
C2777 C259 1.590 . S
C2807 C195 1.300 . S
C2812 C705 1.354 . S
C2842 C751 0.321 . S
C2837 C203 0.173 . S
C2867 C223 1.884 . S
C2872 C874 1.930 . S
C2902 C911 1.292 . S
C2897 C319 1.317 . S
C2927 C134 1.908 . S
C2932 C514 1.962 . S
C2962 C555 2.517 . S
C2957 C151 2.592 . S
C2992 C586 0.457 . S
C2987 C162 0.484 . S
C3022 C871 1.177 . S
C3017 C305 1.213 . S
C3047 C291 1.393 . S
C3052 C951 1.368 . S
C3082 C474 2.260 . S
C3077 C148 2.201 . S
C3112 C386 0.453 . S
C3107 C120 0.383 . S
C3137 C91 2.285 . S
C3142 C915 2.238 . S
C3172 C385 2.133 . S
C3167 C78 2.132 . S
C3197 C69 1.010 . S
C3202 C955 1.026 . S
C3227 C109 1.251 . S
C3232 C462 1.253 . S
C3257 C41 1.017 . S
C3262 C662 1.080 . S
C3292 C551 0.280 . S
C3287 C27 0.484 . S
C3317 C7 1.170 . S
C3322 C745 1.185 . S
C3347 C49 1.813 . S
C3352 C635 1.750 . S
C3382 C905 2.497 . S
C3377 C329 2.515 . S
C3407 C167 0.516 . S
C3412 C382 0.324 . S
C3442 C945 1.279 . S
C3437 C301 1.296 . S
C3467 C139 1.204 . S
C3472 C475 1.245 . S
C3497 C335 1.670 . S
C3502 C675 1.801 . S
C3532 C554 1.398 . S
C3527 C161 1.426 . S
C3557 C307 0.468 . S
C3562 C742 0.261 . S
C3592 C625 2.054 . S
C3587 C133 2.086 . S
C3622 C902 1.358 . S
C3617 C249 1.357 . S
C3652 C505 2.003 1_655 S
C3647 C218 1.987 . S
C3677 C235 2.539 . S
C3682 C706 2.466 . S
C3712 C595 0.702 . S
C3707 C190 0.711 . S
C3737 C207 1.238 . S
C3742 C622 1.235 . S
C3767 C179 1.403 . S
C3772 C942 1.404 . S
C3802 C785 2.332 . S
C3797 C232 2.313 1_565 S
C3832 C835 0.566 . S
C3827 C274 0.569 . S
