# Generated by pormake.
# Topology nia, (6,6)-cn, num edge types: 1
# Building blocks:
#     Node 0, Type 0, BuildingBlock: NUHQIS_clean_sbu_0, # of connection points: 6
#     Node 1, Type 0, BuildingBlock: NUHQIS_clean_sbu_0, # of connection points: 6
#     Node 2, Type 1, BuildingBlock: MIDCAF_clean_sbu_0, # of connection points: 6
#     Node 3, Type 1, BuildingBlock: MIDCAF_clean_sbu_0, # of connection points: 6
#     Edge 4, Type (0, 1), BuildingBlock: AJUNOK_clean_linker_0, # of connection points: 2
#     Edge 5, Type (0, 1), BuildingBlock: AJUNOK_clean_linker_0, # of connection points: 2
#     Edge 6, Type (0, 1), BuildingBlock: AJUNOK_clean_linker_0, # of connection points: 2
#     Edge 7, Type (0, 1), BuildingBlock: AJUNOK_clean_linker_0, # of connection points: 2
#     Edge 8, Type (0, 1), BuildingBlock: AJUNOK_clean_linker_0, # of connection points: 2
#     Edge 9, Type (0, 1), BuildingBlock: AJUNOK_clean_linker_0, # of connection points: 2
#     Edge 10, Type (0, 1), BuildingBlock: AJUNOK_clean_linker_0, # of connection points: 2
#     Edge 11, Type (0, 1), BuildingBlock: AJUNOK_clean_linker_0, # of connection points: 2
#     Edge 12, Type (0, 1), BuildingBlock: AJUNOK_clean_linker_0, # of connection points: 2
#     Edge 13, Type (0, 1), BuildingBlock: AJUNOK_clean_linker_0, # of connection points: 2
#     Edge 14, Type (0, 1), BuildingBlock: AJUNOK_clean_linker_0, # of connection points: 2
#     Edge 15, Type (0, 1), BuildingBlock: AJUNOK_clean_linker_0, # of connection points: 2
# Relax obj value: 0.226
# Max RMSD: 0.292
# Mean RMSD: 0.222
data_MOF--net-nia--node1-NUHQIS_clean_sbu_0--node2-MIDCAF_clean_sbu_0--edge1-AJUNOK_clean_linker_0
_symmetry_space_group_name_H-M    P1
_symmetry_Int_Tables_number       1
_symmetry_cell_setting            triclinic
loop_
_symmetry_equiv_pos_as_xyz
'x, y, z'
_cell_length_a     23.149436
_cell_length_b     23.183565
_cell_length_c     21.433162
_cell_angle_alpha  90.091324
_cell_angle_beta   90.111521
_cell_angle_gamma 137.07728
loop_
_atom_site_label
_atom_site_type_symbol
_atom_site_fract_x
_atom_site_fract_y
_atom_site_fract_z
_atom_type_partial_charge
Tb0 Tb 0.95422 0.01216 1.04524 0.0
Eu1 Eu 0.0107 0.95904 0.15356 0.0
C2 C 0.12165 0.0625 1.03346 0.0
C3 C 0.91292 0.84937 1.02892 0.0
C4 C 0.87219 0.08257 0.96124 0.0
C5 C 0.81848 0.12312 0.89974 0.0
C6 C 0.85673 0.09687 0.90328 0.0
C7 C 0.84868 0.0945 1.0159 0.0
C8 C 0.80942 0.11992 1.01236 0.0
C9 C 0.79382 0.13449 0.95405 0.0
C10 C 0.91465 0.05726 0.96352 0.0
O11 O 0.84425 0.92338 0.10563 0.0
O12 O 0.90311 0.93013 0.1961 0.0
O13 O 0.07974 0.09214 0.17302 0.0
O14 O -0.01407 0.08616 0.1277 0.0
C15 C 0.84109 0.91026 0.16588 0.0
O16 O -0.01882 0.87165 0.22257 0.0
O17 O 0.11159 -0.00544 0.20974 0.0
O18 O 0.08983 -0.00149 1.0686 0.0
O19 O 0.08785 0.08947 1.03165 0.0
O20 O 0.93451 0.91353 1.00122 0.0
O21 O 0.92106 0.84779 1.0893 0.0
C22 C 0.04831 0.12111 0.16695 0.0
O23 O -0.01251 0.1091 0.9924 0.0
O24 O 0.86738 -0.02137 0.97797 0.0
C25 C 0.08995 0.88154 0.2376 0.0
C26 C 0.14874 0.81007 0.24264 0.0
C27 C 0.0691 0.76423 0.21633 0.0
C28 C 0.0399 0.79974 0.21371 0.0
C29 C 0.1696 0.9273 0.2636 0.0
C30 C 0.19898 0.89212 0.26578 0.0
C31 C 0.0608 0.92052 0.23629 0.0
H32 H 0.81 0.13651 0.8546 0.0
H33 H 0.87544 0.08889 0.86077 0.0
H34 H 0.86148 0.08499 1.06114 0.0
H35 H 0.79155 0.12843 1.05518 0.0
H36 H 0.0298 0.7013 0.19742 0.0
H37 H -0.02166 0.76319 0.19304 0.0
H38 H 0.20898 -0.00975 0.28257 0.0
H39 H 0.26032 0.92836 0.2868 0.0
Tb40 Tb 0.95866 0.01726 0.65562 0.0
Eu41 Eu -0.00086 0.94897 0.54864 0.0
C42 C 0.89998 0.84557 0.67208 0.0
C43 C 0.11321 0.04671 0.67371 0.0
C44 C 0.89121 0.10769 0.72821 0.0
C45 C 0.77684 0.09456 0.72714 0.0
C46 C 0.80424 0.05737 0.72567 0.0
C47 C 0.95019 0.19625 0.73128 0.0
C48 C 0.92269 0.23352 0.73261 0.0
C49 C 0.83563 0.18296 0.73182 0.0
C50 C 0.91948 0.06748 0.73174 0.0
O51 O 0.06205 0.12575 0.59869 0.0
O52 O 0.03186 0.05875 0.50604 0.0
O53 O 0.86673 0.88471 0.53238 0.0
O54 O 0.88697 -0.01052 0.57276 0.0
C55 C 0.06821 0.12693 0.53771 0.0
O56 O 0.08297 -0.0268 0.47868 0.0
O57 O 0.95751 0.8452 0.49263 0.0
O58 O 0.95942 0.87123 0.63418 0.0
O59 O 0.87762 0.88373 0.67473 0.0
O60 O 0.05197 0.03052 0.70149 0.0
O61 O 0.11152 0.0337 0.61361 0.0
C62 C 0.84409 0.92235 0.53707 0.0
O63 O 0.86662 -0.01001 0.71108 0.0
O64 O -0.00284 0.11282 0.71525 0.0
C65 C 0.06574 0.86086 0.46195 0.0
C66 C 0.13163 0.79672 0.4552 0.0
C67 C 0.09016 0.79078 0.4037 0.0
C68 C 0.0574 0.82261 0.40699 0.0
C69 C 0.10636 0.86619 0.51406 0.0
C70 C 0.13908 0.83407 0.5107 0.0
C71 C 0.03024 0.89322 0.46435 0.0
H72 H 0.7093 0.05379 0.72707 0.0
H73 H 0.75698 -0.01107 0.72402 0.0
H74 H 0.01761 0.23682 0.73358 0.0
H75 H -0.03037 0.30189 0.73472 0.0
H76 H 0.0819 0.76027 0.36132 0.0
H77 H 0.02503 0.81687 0.36676 0.0
H78 H 0.11255 0.89495 0.55712 0.0
H79 H 0.17044 0.83865 0.55113 0.0
Zn80 Zn 0.34589 0.62098 0.23287 0.0
Zn81 Zn 0.34595 0.62451 0.47159 0.0
Zn82 Zn 0.34713 0.61592 0.35269 0.0
C83 C 0.51495 0.74093 0.43922 0.0
C84 C 0.2615 0.4599 0.44285 0.0
O85 O 0.29257 0.65914 0.31836 0.0
O86 O 0.31007 0.67369 0.21583 0.0
C87 C 0.51208 0.72013 0.26454 0.0
O88 O 0.4807 0.70457 0.38576 0.0
O89 O 0.46935 0.72186 0.48488 0.0
O90 O 0.29368 0.5107 0.48813 0.0
O91 O 0.27013 0.48529 0.38672 0.0
O92 O 0.46491 0.6905 0.21723 0.0
O93 O 0.48065 0.70072 0.3199 0.0
O94 O 0.26576 0.48389 0.32045 0.0
O95 O 0.26109 0.49851 0.21905 0.0
C96 C 0.238 0.45188 0.26515 0.0
O97 O 0.29322 0.66156 0.38414 0.0
O98 O 0.27744 0.64379 0.4864 0.0
C99 C 0.2848 0.67905 0.26512 0.0
C100 C 0.26836 0.6652 0.43653 0.0
Zn101 Zn 0.62724 0.35774 0.97303 0.0
Zn102 Zn 0.61021 0.34714 0.73034 0.0
Zn103 Zn 0.61486 0.3522 0.85143 0.0
C104 C 0.6998 0.51119 0.76346 0.0
C105 C 0.4428 0.23133 0.76865 0.0
O106 O 0.65893 0.29688 0.88145 0.0
O107 O 0.65504 0.29568 0.98469 0.0
C108 C 0.73746 0.52414 0.93515 0.0
O109 O 0.69231 0.48247 0.81777 0.0
O110 O 0.66472 0.46295 0.71639 0.0
O111 O 0.48642 0.2522 0.72091 0.0
O112 O 0.4794 0.2649 0.82213 0.0
O113 O 0.72011 0.48183 0.98273 0.0
O114 O 0.70112 0.48645 0.88245 0.0
O115 O 0.48501 0.27123 0.88778 0.0
O116 O 0.50957 0.29832 0.98918 0.0
C117 C 0.45868 0.2623 0.94355 0.0
O118 O 0.67208 0.31207 0.81665 0.0
O119 O 0.67564 0.32403 0.7139 0.0
C120 C 0.66743 0.27742 0.93462 0.0
C121 C 0.69336 0.30847 0.76229 0.0
C122 C 0.26181 0.81956 0.2254 0.0
C123 C 0.17998 0.77293 0.24694 0.0
C124 C 0.29507 0.78828 0.23147 0.0
C125 C 0.24839 0.71035 0.26059 0.0
H126 H 0.30028 0.88059 0.20349 0.0
H127 H 0.35824 0.82583 0.21404 0.0
S128 S 0.03138 0.56331 0.32446 0.0
N129 N 0.05231 0.64371 0.29733 0.0
N130 N 0.11637 0.58608 0.30993 0.0
C131 C 0.16641 0.66255 0.28184 0.0
C132 C 0.13175 0.6936 0.27469 0.0
C133 C 0.23065 0.06291 0.69021 0.0
C134 C 0.1879 0.08159 0.7099 0.0
C135 C 0.31014 0.1066 0.71459 0.0
C136 C 0.35051 0.17117 0.75934 0.0
H137 H 0.20428 0.01682 0.65348 0.0
H138 H 0.34267 0.09325 0.69534 0.0
S139 S 0.2614 0.238 0.83152 0.0
N140 N 0.18741 0.16258 0.78172 0.0
N141 N 0.33904 0.24718 0.82606 0.0
C142 C 0.30586 0.18615 0.78307 0.0
C143 C 0.22388 0.14065 0.75865 0.0
C144 C 0.06852 0.24143 0.18435 0.0
C145 C 0.08815 0.19879 0.20149 0.0
C146 C 0.11397 0.32122 0.20898 0.0
C147 C 0.1801 0.36117 0.25223 0.0
H148 H 0.02056 0.21518 0.14929 0.0
H149 H 0.09964 0.35367 0.19194 0.0
S150 S 0.24905 0.27227 0.31954 0.0
N151 N 0.17223 0.19873 0.27032 0.0
N152 N 0.2587 0.35014 0.31537 0.0
C153 C 0.19686 0.31735 0.27315 0.0
C154 C 0.15049 0.2357 0.24811 0.0
C155 C 0.73868 0.19225 0.69979 0.0
C156 C 0.80486 0.2208 0.73843 0.0
C157 C 0.70409 0.22208 0.70758 0.0
C158 C 0.73364 0.28092 0.75471 0.0
H159 H 0.71296 0.14598 0.66341 0.0
H160 H 0.65237 0.19737 0.67729 0.0
S161 S 0.91049 0.38165 0.86469 0.0
N162 N 0.90129 0.31473 0.82392 0.0
N163 N 0.83724 0.37228 0.83709 0.0
C164 C 0.80152 0.31234 0.79232 0.0
C165 C 0.83696 0.28198 0.78449 0.0
C166 C 0.72774 0.80899 0.24546 0.0
C167 C 0.76435 0.87195 0.2002 0.0
C168 C 0.64775 0.76332 0.27101 0.0
C169 C 0.60362 0.78105 0.25306 0.0
H170 H 0.75833 0.79117 0.25807 0.0
H171 H 0.61785 0.71017 0.30119 0.0
S172 S 0.67844 0.9487 0.14418 0.0
N173 N 0.75461 0.95554 0.14408 0.0
N174 N 0.60599 0.87138 0.19288 0.0
C175 C 0.64278 0.84812 0.21165 0.0
C176 C 0.72287 0.89331 0.18506 0.0
C177 C 0.76092 0.70194 0.70202 0.0
C178 C 0.84985 0.76551 0.70597 0.0
C179 C 0.71199 0.62036 0.7247 0.0
C180 C 0.75022 0.60064 0.75389 0.0
H181 H 0.72928 0.71374 0.67776 0.0
H182 H 0.644 0.57137 0.71704 0.0
S183 S -0.02019 0.74801 0.78336 0.0
N184 N -0.02611 0.80569 0.74562 0.0
N185 N 0.88116 0.65276 0.79063 0.0
C186 C 0.83848 0.66525 0.76234 0.0
C187 C 0.88859 0.74774 0.73767 0.0
C188 C 0.23472 0.801 0.41165 0.0
C189 C 0.16579 0.76258 0.45096 0.0
C190 C 0.26748 0.76884 0.40673 0.0
C191 C 0.231 0.69619 0.43982 0.0
H192 H 0.2639 0.85667 0.38507 0.0
H193 H 0.32219 0.80151 0.3774 0.0
S194 S 0.04814 0.57169 0.54769 0.0
N195 N 0.06195 0.64864 0.52319 0.0
N196 N 0.122 0.58679 0.51297 0.0
C197 C 0.16195 0.65736 0.47919 0.0
C198 C 0.12944 0.69071 0.48477 0.0
C199 C 0.26982 0.20082 1.01192 0.0
C200 C 0.20384 0.11272 1.00277 0.0
C201 C 0.35166 0.24932 0.98996 0.0
C202 C 0.36957 0.21182 0.9563 0.0
H203 H 0.25915 0.23189 1.03893 0.0
H204 H 0.40191 0.31644 1.00072 0.0
S205 S 0.21644 -0.01492 0.91371 0.0
N206 N 0.15998 -0.00953 0.95456 0.0
N207 N 0.31368 0.08273 0.91081 0.0
C208 C 0.30309 0.12466 0.94352 0.0
C209 C 0.22012 0.07474 0.96748 0.0
C210 C 0.20023 0.28063 0.53012 0.0
C211 C 0.12031 0.20833 0.50541 0.0
C212 C 0.24738 0.361 0.50624 0.0
C213 C 0.21584 0.37251 0.45743 0.0
H214 H 0.22572 0.27524 0.5693 0.0
H215 H 0.30794 0.41515 0.52787 0.0
S216 S 0.00861 0.20282 0.37734 0.0
N217 N 0.0119 0.15195 0.42845 0.0
N218 N 0.09872 0.3044 0.38581 0.0
C219 C 0.13664 0.3004 0.43123 0.0
C220 C 0.08927 0.21786 0.45471 0.0
C221 C 0.78651 0.23204 0.98961 0.0
C222 C 0.75665 0.16629 0.94982 0.0
C223 C 0.75647 0.26674 0.98444 0.0
C224 C 0.6962 0.23791 0.93878 0.0
H225 H 0.83518 0.25856 1.02405 0.0
H226 H 0.78234 0.31818 1.0155 0.0
S227 S 0.58926 0.05996 0.82855 0.0
N228 N 0.65705 0.06831 0.86696 0.0
N229 N 0.60166 0.13477 0.85699 0.0
C230 C 0.66364 0.17055 0.89998 0.0
C231 C 0.69373 0.13459 0.90547 0.0
C232 C 0.72269 0.81584 0.46337 0.0
C233 C 0.76694 0.88618 0.50348 0.0
C234 C 0.64361 0.77296 0.4378 0.0
C235 C 0.60616 0.799 0.45115 0.0
H236 H 0.74723 0.79106 0.45387 0.0
H237 H 0.60881 0.71535 0.4114 0.0
S238 S 0.69892 -0.01533 0.54663 0.0
N239 N 0.76997 -0.0156 0.55002 0.0
N240 N 0.62128 0.90305 0.50214 0.0
C241 C 0.65172 0.87208 0.48772 0.0
C242 C 0.73225 0.91601 0.51367 0.0
C243 C 0.81632 0.73535 0.94779 0.0
C244 C 0.88198 0.77715 0.99201 0.0
C245 C 0.77386 0.65552 0.92374 0.0
C246 C 0.7965 0.61618 0.9433 0.0
H247 H 0.79351 0.76124 0.93543 0.0
H248 H 0.71902 0.62171 0.89388 0.0
S249 S -0.02289 0.70933 1.04625 0.0
N250 N -0.02301 0.78045 1.0455 0.0
N251 N 0.89765 0.63135 1.0006 0.0
C252 C 0.86776 0.6618 0.98214 0.0
C253 C 0.91044 0.74219 1.00651 0.0
loop_
_geom_bond_atom_site_label_1
_geom_bond_atom_site_label_2
_geom_bond_distance
_geom_bond_site_symmetry_2
_ccdc_geom_bond_type
Tb0 C10 2.825 . S
Tb0 O11 2.347 1_546 S
Tb0 O14 2.366 1_656 S
Tb0 O19 2.418 1_655 S
Tb0 O20 2.384 1_545 S
Tb0 O23 2.479 . S
Tb0 O24 2.471 . S
Eu1 O12 2.418 1_455 S
Eu1 O13 2.384 1_565 S
Eu1 O16 2.479 . S
Eu1 O17 2.471 . S
Eu1 O18 2.347 1_564 S
Eu1 O21 2.367 1_454 S
Eu1 C31 2.825 . S
C2 O18 1.259 . S
C2 O19 1.265 . S
C3 O20 1.255 . S
C3 O21 1.263 . S
C4 C6 1.380 . S
C4 C7 1.374 . S
C4 C10 1.507 . S
C5 C6 1.384 . S
C5 C9 1.387 . S
C5 H32 0.930 . S
C6 C4 1.380 . S
C6 C5 1.384 . S
C6 H33 0.931 . S
C7 C4 1.374 . S
C7 C8 1.390 . S
C7 H34 0.930 . S
C8 C7 1.390 . S
C8 C9 1.391 . S
C8 H35 0.930 . S
C9 C5 1.387 . S
C9 C8 1.391 . S
C10 Tb0 2.825 . S
C10 C4 1.507 . S
C10 O23 1.238 . S
C10 O24 1.247 . S
O11 Tb0 2.347 1_564 S
O11 C15 1.259 . S
O12 Eu1 2.418 1_655 S
O12 C15 1.265 . S
O13 Eu1 2.384 1_545 S
O13 C22 1.255 . S
O14 Tb0 2.366 1_454 S
O14 C22 1.265 . S
C15 O11 1.259 . S
C15 O12 1.265 . S
O16 Eu1 2.479 . S
O16 C31 1.238 . S
O17 Eu1 2.471 . S
O17 C31 1.247 . S
O18 Eu1 2.347 1_546 S
O18 C2 1.259 . S
O19 Tb0 2.418 1_455 S
O19 C2 1.265 . S
O20 Tb0 2.384 1_565 S
O20 C3 1.255 . S
O21 Eu1 2.367 1_656 S
O21 C3 1.263 . S
C22 O13 1.255 . S
C22 O14 1.265 . S
O23 Tb0 2.479 . S
O23 C10 1.238 . S
O24 Tb0 2.471 . S
O24 C10 1.247 . S
C25 C28 1.380 . S
C25 C29 1.374 . S
C25 C31 1.507 . S
C26 C27 1.387 . S
C26 C30 1.391 . S
C27 C26 1.387 . S
C27 C28 1.384 . S
C27 H36 0.930 . S
C28 C25 1.380 . S
C28 C27 1.384 . S
C28 H37 0.931 . S
C29 C25 1.374 . S
C29 C30 1.390 . S
C29 H38 0.930 . S
C30 C26 1.391 . S
C30 C29 1.390 . S
C30 H39 0.930 . S
C31 Eu1 2.825 . S
C31 O16 1.238 . S
C31 O17 1.247 . S
C31 C25 1.507 . S
H32 C5 0.930 . S
H33 C6 0.931 . S
H34 C7 0.930 . S
H35 C8 0.930 . S
H36 C27 0.930 . S
H37 C28 0.931 . S
H38 C29 0.930 . S
H39 C30 0.930 . S
Tb40 C50 2.825 1_455 S
Tb40 O51 2.347 . S
Tb40 O54 2.366 1_445 S
Tb40 O59 2.418 1_445 S
Tb40 O60 2.384 . S
Tb40 O63 2.479 1_455 S
Tb40 O64 2.471 1_455 S
Eu41 O52 2.418 1_565 S
Eu41 O53 2.384 1_455 S
Eu41 O56 2.472 . S
Eu41 O57 2.471 . S
Eu41 O58 2.347 1_455 S
Eu41 O61 2.366 1_565 S
Eu41 C71 2.825 . S
C42 O58 1.259 . S
C42 O59 1.265 . S
C43 O60 1.255 . S
C43 O61 1.265 . S
C44 C46 1.380 . S
C44 C47 1.374 . S
C44 C50 1.507 . S
C45 C46 1.384 . S
C45 C49 1.387 . S
C45 H72 0.930 . S
C46 C44 1.380 . S
C46 C45 1.384 . S
C46 H73 0.931 . S
C47 C44 1.374 . S
C47 C48 1.390 . S
C47 H74 0.930 . S
C48 C47 1.390 . S
C48 C49 1.391 . S
C48 H75 0.930 . S
C49 C45 1.387 . S
C49 C48 1.391 . S
C50 Tb40 2.825 1_655 S
C50 C44 1.507 . S
C50 O63 1.238 . S
C50 O64 1.247 . S
O51 Tb40 2.347 . S
O51 C55 1.259 . S
O52 Eu41 2.418 1_545 S
O52 C55 1.265 . S
O53 Eu41 2.384 1_655 S
O53 C62 1.255 . S
O54 Tb40 2.366 1_665 S
O54 C62 1.265 . S
C55 O51 1.259 . S
C55 O52 1.265 . S
O56 Eu41 2.472 . S
O56 C71 1.248 . S
O57 Eu41 2.471 . S
O57 C71 1.247 . S
O58 Eu41 2.347 1_655 S
O58 C42 1.259 . S
O59 Tb40 2.418 1_665 S
O59 C42 1.265 . S
O60 Tb40 2.384 . S
O60 C43 1.255 . S
O61 Eu41 2.366 1_545 S
O61 C43 1.265 . S
C62 O53 1.255 . S
C62 O54 1.265 . S
O63 Tb40 2.479 1_655 S
O63 C50 1.238 . S
O64 Tb40 2.471 1_655 S
O64 C50 1.247 . S
C65 C68 1.380 . S
C65 C69 1.374 . S
C65 C71 1.507 . S
C66 C67 1.387 . S
C66 C70 1.391 . S
C67 C66 1.387 . S
C67 C68 1.384 . S
C67 H76 0.930 . S
C68 C65 1.380 . S
C68 C67 1.384 . S
C68 H77 0.931 . S
C69 C65 1.374 . S
C69 C70 1.390 . S
C69 H78 0.930 . S
C70 C66 1.391 . S
C70 C69 1.390 . S
C70 H79 0.930 . S
C71 Eu41 2.825 . S
C71 O56 1.248 . S
C71 O57 1.247 . S
C71 C65 1.507 . S
H72 C45 0.930 . S
H73 C46 0.931 . S
H74 C47 0.930 . S
H75 C48 0.930 . S
H76 C67 0.930 . S
H77 C68 0.931 . S
H78 C69 0.930 . S
H79 C70 0.930 . S
Zn80 O86 1.920 . S
Zn80 O92 1.898 . S
Zn80 O95 1.905 . S
Zn81 O89 1.905 . S
Zn81 O90 1.898 . S
Zn81 O98 1.920 . S
Zn82 O85 2.080 . S
Zn82 O88 2.114 . S
Zn82 O91 2.120 . S
Zn82 O93 2.120 . S
Zn82 O94 2.114 . S
Zn82 O97 2.080 . S
C83 O88 1.166 . S
C83 O89 1.182 . S
C84 O90 1.167 . S
C84 O91 1.299 . S
O85 Zn82 2.080 . S
O85 C99 1.305 . S
O86 Zn80 1.920 . S
O86 C99 1.234 . S
C87 O92 1.167 . S
C87 O93 1.299 . S
O88 Zn82 2.114 . S
O88 C83 1.166 . S
O89 Zn81 1.905 . S
O89 C83 1.182 . S
O90 Zn81 1.898 . S
O90 C84 1.167 . S
O91 Zn82 2.120 . S
O91 C84 1.299 . S
O92 Zn80 1.898 . S
O92 C87 1.167 . S
O93 Zn82 2.120 . S
O93 C87 1.299 . S
O94 Zn82 2.114 . S
O94 C96 1.166 . S
O95 Zn80 1.905 . S
O95 C96 1.182 . S
C96 O94 1.166 . S
C96 O95 1.182 . S
O97 Zn82 2.080 . S
O97 C100 1.305 . S
O98 Zn81 1.920 . S
O98 C100 1.234 . S
C99 O85 1.305 . S
C99 O86 1.234 . S
C100 O97 1.305 . S
C100 O98 1.234 . S
Zn101 O107 1.920 . S
Zn101 O113 1.898 . S
Zn101 O116 1.905 . S
Zn102 O110 1.905 . S
Zn102 O111 1.898 . S
Zn102 O119 1.920 . S
Zn103 O106 2.080 . S
Zn103 O109 2.114 . S
Zn103 O112 2.120 . S
Zn103 O114 2.120 . S
Zn103 O115 2.114 . S
Zn103 O118 2.080 . S
C104 O109 1.166 . S
C104 O110 1.182 . S
C105 O111 1.167 . S
C105 O112 1.299 . S
O106 Zn103 2.080 . S
O106 C120 1.305 . S
O107 Zn101 1.920 . S
O107 C120 1.234 . S
C108 O113 1.167 . S
C108 O114 1.299 . S
O109 Zn103 2.114 . S
O109 C104 1.166 . S
O110 Zn102 1.905 . S
O110 C104 1.182 . S
O111 Zn102 1.898 . S
O111 C105 1.167 . S
O112 Zn103 2.120 . S
O112 C105 1.299 . S
O113 Zn101 1.898 . S
O113 C108 1.167 . S
O114 Zn103 2.120 . S
O114 C108 1.299 . S
O115 Zn103 2.114 . S
O115 C117 1.166 . S
O116 Zn101 1.905 . S
O116 C117 1.182 . S
C117 O115 1.166 . S
C117 O116 1.182 . S
O118 Zn103 2.080 . S
O118 C121 1.305 . S
O119 Zn102 1.920 . S
O119 C121 1.234 . S
C120 O106 1.305 . S
C120 O107 1.234 . S
C121 O118 1.305 . S
C121 O119 1.234 . S
C122 C123 1.369 . S
C122 C124 1.419 . S
C122 H126 0.930 . S
C123 C122 1.369 . S
C123 C132 1.429 . S
C124 C122 1.419 . S
C124 C125 1.363 . S
C124 H127 0.929 . S
C125 C124 1.363 . S
C125 C131 1.428 . S
H126 C122 0.930 . S
H127 C124 0.929 . S
S128 N129 1.613 . S
S128 N130 1.610 . S
N129 S128 1.613 . S
N129 C132 1.350 . S
N130 S128 1.610 . S
N130 C131 1.351 . S
C131 C125 1.428 . S
C131 N130 1.351 . S
C131 C132 1.434 . S
C132 C123 1.429 . S
C132 N129 1.350 . S
C132 C131 1.434 . S
C133 C134 1.369 . S
C133 C135 1.419 . S
C133 H137 0.930 . S
C134 C133 1.369 . S
C134 C143 1.429 . S
C135 C133 1.419 . S
C135 C136 1.363 . S
C135 H138 0.929 . S
C136 C135 1.363 . S
C136 C142 1.428 . S
H137 C133 0.930 . S
H138 C135 0.929 . S
S139 N140 1.613 . S
S139 N141 1.610 . S
N140 S139 1.613 . S
N140 C143 1.350 . S
N141 S139 1.610 . S
N141 C142 1.351 . S
C142 C136 1.428 . S
C142 N141 1.351 . S
C142 C143 1.434 . S
C143 C134 1.429 . S
C143 N140 1.350 . S
C143 C142 1.434 . S
C144 C145 1.369 . S
C144 C146 1.419 . S
C144 H148 0.930 . S
C145 C144 1.369 . S
C145 C154 1.429 . S
C146 C144 1.419 . S
C146 C147 1.363 . S
C146 H149 0.929 . S
C147 C146 1.363 . S
C147 C153 1.428 . S
H148 C144 0.930 . S
H149 C146 0.929 . S
S150 N151 1.613 . S
S150 N152 1.610 . S
N151 S150 1.613 . S
N151 C154 1.350 . S
N152 S150 1.610 . S
N152 C153 1.351 . S
C153 C147 1.428 . S
C153 N152 1.351 . S
C153 C154 1.434 . S
C154 C145 1.429 . S
C154 N151 1.350 . S
C154 C153 1.434 . S
C155 C156 1.369 . S
C155 C157 1.419 . S
C155 H159 0.930 . S
C156 C155 1.369 . S
C156 C165 1.429 . S
C157 C155 1.419 . S
C157 C158 1.363 . S
C157 H160 0.929 . S
C158 C157 1.363 . S
C158 C164 1.428 . S
H159 C155 0.930 . S
H160 C157 0.929 . S
S161 N162 1.613 . S
S161 N163 1.610 . S
N162 S161 1.613 . S
N162 C165 1.350 . S
N163 S161 1.610 . S
N163 C164 1.351 . S
C164 C158 1.428 . S
C164 N163 1.351 . S
C164 C165 1.434 . S
C165 C156 1.429 . S
C165 N162 1.350 . S
C165 C164 1.434 . S
C166 C167 1.369 . S
C166 C168 1.419 . S
C166 H170 0.930 . S
C167 C166 1.369 . S
C167 C176 1.429 . S
C168 C166 1.419 . S
C168 C169 1.363 . S
C168 H171 0.929 . S
C169 C168 1.363 . S
C169 C175 1.428 . S
H170 C166 0.930 . S
H171 C168 0.929 . S
S172 N173 1.613 . S
S172 N174 1.610 . S
N173 S172 1.613 . S
N173 C176 1.350 . S
N174 S172 1.610 . S
N174 C175 1.351 . S
C175 C169 1.428 . S
C175 N174 1.351 . S
C175 C176 1.434 . S
C176 C167 1.429 . S
C176 N173 1.350 . S
C176 C175 1.434 . S
C177 C178 1.369 . S
C177 C179 1.419 . S
C177 H181 0.930 . S
C178 C177 1.369 . S
C178 C187 1.429 . S
C179 C177 1.419 . S
C179 C180 1.363 . S
C179 H182 0.929 . S
C180 C179 1.363 . S
C180 C186 1.428 . S
H181 C177 0.930 . S
H182 C179 0.929 . S
S183 N184 1.613 . S
S183 N185 1.610 . S
N184 S183 1.613 . S
N184 C187 1.350 . S
N185 S183 1.610 . S
N185 C186 1.351 . S
C186 C180 1.428 . S
C186 N185 1.351 . S
C186 C187 1.434 . S
C187 C178 1.429 . S
C187 N184 1.350 . S
C187 C186 1.434 . S
C188 C189 1.369 . S
C188 C190 1.419 . S
C188 H192 0.930 . S
C189 C188 1.369 . S
C189 C198 1.429 . S
C190 C188 1.419 . S
C190 C191 1.363 . S
C190 H193 0.929 . S
C191 C190 1.363 . S
C191 C197 1.428 . S
H192 C188 0.930 . S
H193 C190 0.929 . S
S194 N195 1.613 . S
S194 N196 1.610 . S
N195 S194 1.613 . S
N195 C198 1.350 . S
N196 S194 1.610 . S
N196 C197 1.351 . S
C197 C191 1.428 . S
C197 N196 1.351 . S
C197 C198 1.434 . S
C198 C189 1.429 . S
C198 N195 1.350 . S
C198 C197 1.434 . S
C199 C200 1.369 . S
C199 C201 1.419 . S
C199 H203 0.930 . S
C200 C199 1.369 . S
C200 C209 1.429 . S
C201 C199 1.419 . S
C201 C202 1.363 . S
C201 H204 0.929 . S
C202 C201 1.363 . S
C202 C208 1.428 . S
H203 C199 0.930 . S
H204 C201 0.929 . S
S205 N206 1.613 . S
S205 N207 1.610 . S
N206 S205 1.613 . S
N206 C209 1.350 . S
N207 S205 1.610 . S
N207 C208 1.351 . S
C208 C202 1.428 . S
C208 N207 1.351 . S
C208 C209 1.434 . S
C209 C200 1.429 . S
C209 N206 1.350 . S
C209 C208 1.434 . S
C210 C211 1.369 . S
C210 C212 1.419 . S
C210 H214 0.930 . S
C211 C210 1.369 . S
C211 C220 1.429 . S
C212 C210 1.419 . S
C212 C213 1.363 . S
C212 H215 0.929 . S
C213 C212 1.363 . S
C213 C219 1.428 . S
H214 C210 0.930 . S
H215 C212 0.929 . S
S216 N217 1.613 . S
S216 N218 1.610 . S
N217 S216 1.613 . S
N217 C220 1.350 . S
N218 S216 1.610 . S
N218 C219 1.351 . S
C219 C213 1.428 . S
C219 N218 1.351 . S
C219 C220 1.434 . S
C220 C211 1.429 . S
C220 N217 1.350 . S
C220 C219 1.434 . S
C221 C222 1.369 . S
C221 C223 1.419 . S
C221 H225 0.930 . S
C222 C221 1.369 . S
C222 C231 1.429 . S
C223 C221 1.419 . S
C223 C224 1.363 . S
C223 H226 0.929 . S
C224 C223 1.363 . S
C224 C230 1.428 . S
H225 C221 0.930 . S
H226 C223 0.929 . S
S227 N228 1.613 . S
S227 N229 1.610 . S
N228 S227 1.613 . S
N228 C231 1.350 . S
N229 S227 1.610 . S
N229 C230 1.351 . S
C230 C224 1.428 . S
C230 N229 1.351 . S
C230 C231 1.434 . S
C231 C222 1.429 . S
C231 N228 1.350 . S
C231 C230 1.434 . S
C232 C233 1.369 . S
C232 C234 1.419 . S
C232 H236 0.930 . S
C233 C232 1.369 . S
C233 C242 1.429 . S
C234 C232 1.419 . S
C234 C235 1.363 . S
C234 H237 0.929 . S
C235 C234 1.363 . S
C235 C241 1.428 . S
H236 C232 0.930 . S
H237 C234 0.929 . S
S238 N239 1.613 . S
S238 N240 1.610 . S
N239 S238 1.613 . S
N239 C242 1.350 . S
N240 S238 1.610 . S
N240 C241 1.351 . S
C241 C235 1.428 . S
C241 N240 1.351 . S
C241 C242 1.434 . S
C242 C233 1.429 . S
C242 N239 1.350 . S
C242 C241 1.434 . S
C243 C244 1.369 . S
C243 C245 1.419 . S
C243 H247 0.930 . S
C244 C243 1.369 . S
C244 C253 1.429 . S
C245 C243 1.419 . S
C245 C246 1.363 . S
C245 H248 0.929 . S
C246 C245 1.363 . S
C246 C252 1.428 . S
H247 C243 0.930 . S
H248 C245 0.929 . S
S249 N250 1.613 . S
S249 N251 1.610 . S
N250 S249 1.613 . S
N250 C253 1.350 . S
N251 S249 1.610 . S
N251 C252 1.351 . S
C252 C246 1.428 . S
C252 N251 1.351 . S
C252 C253 1.434 . S
C253 C244 1.429 . S
C253 N250 1.350 . S
C253 C252 1.434 . S
C123 C26 1.374 . S
C125 C99 1.327 . S
C134 C43 1.383 . S
C136 C105 1.217 . S
C145 C22 1.491 . S
C147 C96 1.346 . S
C156 C49 1.499 . S
C158 C121 1.431 . S
C167 C15 1.861 . S
C169 C87 1.669 . S
C180 C104 1.760 . S
C178 C42 1.908 . S
C189 C66 1.380 . S
C191 C100 1.319 . S
C202 C117 1.759 . S
C200 C2 1.908 . S
C213 C84 1.677 . S
C211 C55 1.856 . S
C224 C120 1.429 . S
C222 C9 1.502 . S
C235 C83 1.343 . S
C233 C62 1.493 . S
C246 C108 1.210 . S
C244 C3 1.386 . S
