# Generated by pormake.
# Topology ocu, (6,8)-cn, num edge types: 1
# Building blocks:
#     Node 0, Type 0, BuildingBlock: KUMJIN_clean_sbu_0, # of connection points: 6
#     Node 1, Type 0, BuildingBlock: KUMJIN_clean_sbu_0, # of connection points: 6
#     Node 2, Type 0, BuildingBlock: KUMJIN_clean_sbu_0, # of connection points: 6
#     Node 3, Type 0, BuildingBlock: KUMJIN_clean_sbu_0, # of connection points: 6
#     Node 4, Type 0, BuildingBlock: KUMJIN_clean_sbu_0, # of connection points: 6
#     Node 5, Type 0, BuildingBlock: KUMJIN_clean_sbu_0, # of connection points: 6
#     Node 6, Type 0, BuildingBlock: KUMJIN_clean_sbu_0, # of connection points: 6
#     Node 7, Type 0, BuildingBlock: KUMJIN_clean_sbu_0, # of connection points: 6
#     Node 8, Type 1, BuildingBlock: VETTIZ_charged_sbu_0, # of connection points: 8
#     Node 9, Type 1, BuildingBlock: VETTIZ_charged_sbu_0, # of connection points: 8
#     Node 10, Type 1, BuildingBlock: VETTIZ_charged_sbu_0, # of connection points: 8
#     Node 11, Type 1, BuildingBlock: VETTIZ_charged_sbu_0, # of connection points: 8
#     Node 12, Type 1, BuildingBlock: VETTIZ_charged_sbu_0, # of connection points: 8
#     Node 13, Type 1, BuildingBlock: VETTIZ_charged_sbu_0, # of connection points: 8
#     Edge 14, Type (0, 1), BuildingBlock: AJUNOK_clean_linker_0, # of connection points: 2
#     Edge 15, Type (0, 1), BuildingBlock: AJUNOK_clean_linker_0, # of connection points: 2
#     Edge 16, Type (0, 1), BuildingBlock: AJUNOK_clean_linker_0, # of connection points: 2
#     Edge 17, Type (0, 1), BuildingBlock: AJUNOK_clean_linker_0, # of connection points: 2
#     Edge 18, Type (0, 1), BuildingBlock: AJUNOK_clean_linker_0, # of connection points: 2
#     Edge 19, Type (0, 1), BuildingBlock: AJUNOK_clean_linker_0, # of connection points: 2
#     Edge 20, Type (0, 1), BuildingBlock: AJUNOK_clean_linker_0, # of connection points: 2
#     Edge 21, Type (0, 1), BuildingBlock: AJUNOK_clean_linker_0, # of connection points: 2
#     Edge 22, Type (0, 1), BuildingBlock: AJUNOK_clean_linker_0, # of connection points: 2
#     Edge 23, Type (0, 1), BuildingBlock: AJUNOK_clean_linker_0, # of connection points: 2
#     Edge 24, Type (0, 1), BuildingBlock: AJUNOK_clean_linker_0, # of connection points: 2
#     Edge 25, Type (0, 1), BuildingBlock: AJUNOK_clean_linker_0, # of connection points: 2
#     Edge 26, Type (0, 1), BuildingBlock: AJUNOK_clean_linker_0, # of connection points: 2
#     Edge 27, Type (0, 1), BuildingBlock: AJUNOK_clean_linker_0, # of connection points: 2
#     Edge 28, Type (0, 1), BuildingBlock: AJUNOK_clean_linker_0, # of connection points: 2
#     Edge 29, Type (0, 1), BuildingBlock: AJUNOK_clean_linker_0, # of connection points: 2
#     Edge 30, Type (0, 1), BuildingBlock: AJUNOK_clean_linker_0, # of connection points: 2
#     Edge 31, Type (0, 1), BuildingBlock: AJUNOK_clean_linker_0, # of connection points: 2
#     Edge 32, Type (0, 1), BuildingBlock: AJUNOK_clean_linker_0, # of connection points: 2
#     Edge 33, Type (0, 1), BuildingBlock: AJUNOK_clean_linker_0, # of connection points: 2
#     Edge 34, Type (0, 1), BuildingBlock: AJUNOK_clean_linker_0, # of connection points: 2
#     Edge 35, Type (0, 1), BuildingBlock: AJUNOK_clean_linker_0, # of connection points: 2
#     Edge 36, Type (0, 1), BuildingBlock: AJUNOK_clean_linker_0, # of connection points: 2
#     Edge 37, Type (0, 1), BuildingBlock: AJUNOK_clean_linker_0, # of connection points: 2
#     Edge 38, Type (0, 1), BuildingBlock: AJUNOK_clean_linker_0, # of connection points: 2
#     Edge 39, Type (0, 1), BuildingBlock: AJUNOK_clean_linker_0, # of connection points: 2
#     Edge 40, Type (0, 1), BuildingBlock: AJUNOK_clean_linker_0, # of connection points: 2
#     Edge 41, Type (0, 1), BuildingBlock: AJUNOK_clean_linker_0, # of connection points: 2
#     Edge 42, Type (0, 1), BuildingBlock: AJUNOK_clean_linker_0, # of connection points: 2
#     Edge 43, Type (0, 1), BuildingBlock: AJUNOK_clean_linker_0, # of connection points: 2
#     Edge 44, Type (0, 1), BuildingBlock: AJUNOK_clean_linker_0, # of connection points: 2
#     Edge 45, Type (0, 1), BuildingBlock: AJUNOK_clean_linker_0, # of connection points: 2
#     Edge 46, Type (0, 1), BuildingBlock: AJUNOK_clean_linker_0, # of connection points: 2
#     Edge 47, Type (0, 1), BuildingBlock: AJUNOK_clean_linker_0, # of connection points: 2
#     Edge 48, Type (0, 1), BuildingBlock: AJUNOK_clean_linker_0, # of connection points: 2
#     Edge 49, Type (0, 1), BuildingBlock: AJUNOK_clean_linker_0, # of connection points: 2
#     Edge 50, Type (0, 1), BuildingBlock: AJUNOK_clean_linker_0, # of connection points: 2
#     Edge 51, Type (0, 1), BuildingBlock: AJUNOK_clean_linker_0, # of connection points: 2
#     Edge 52, Type (0, 1), BuildingBlock: AJUNOK_clean_linker_0, # of connection points: 2
#     Edge 53, Type (0, 1), BuildingBlock: AJUNOK_clean_linker_0, # of connection points: 2
#     Edge 54, Type (0, 1), BuildingBlock: AJUNOK_clean_linker_0, # of connection points: 2
#     Edge 55, Type (0, 1), BuildingBlock: AJUNOK_clean_linker_0, # of connection points: 2
#     Edge 56, Type (0, 1), BuildingBlock: AJUNOK_clean_linker_0, # of connection points: 2
#     Edge 57, Type (0, 1), BuildingBlock: AJUNOK_clean_linker_0, # of connection points: 2
#     Edge 58, Type (0, 1), BuildingBlock: AJUNOK_clean_linker_0, # of connection points: 2
#     Edge 59, Type (0, 1), BuildingBlock: AJUNOK_clean_linker_0, # of connection points: 2
#     Edge 60, Type (0, 1), BuildingBlock: AJUNOK_clean_linker_0, # of connection points: 2
#     Edge 61, Type (0, 1), BuildingBlock: AJUNOK_clean_linker_0, # of connection points: 2
# Relax obj value: 0.132
# Max RMSD: 0.244
# Mean RMSD: 0.168
data_MOF--net-ocu--node1-KUMJIN_clean_sbu_0--node2-VETTIZ_charged_sbu_0--edge1-AJUNOK_clean_linker_0
_symmetry_space_group_name_H-M    P1
_symmetry_Int_Tables_number       1
_symmetry_cell_setting            triclinic
loop_
_symmetry_equiv_pos_as_xyz
'x, y, z'
_cell_length_a     29.906474
_cell_length_b     29.965446
_cell_length_c     31.997011
_cell_angle_alpha  76.073134
_cell_angle_beta   101.72056
_cell_angle_gamma 107.18325
loop_
_atom_site_label
_atom_site_type_symbol
_atom_site_fract_x
_atom_site_fract_y
_atom_site_fract_z
_atom_type_partial_charge
Eu0 Eu 0.27399 0.21201 0.25139 0.0
C1 C 0.42806 0.36749 0.33089 0.0
C2 C 0.45397 0.32964 0.40401 0.0
C3 C 0.50812 0.3975 0.36592 0.0
C4 C 0.41893 0.33213 0.36721 0.0
C5 C 0.47248 0.40115 0.33014 0.0
C6 C 0.4989 0.36179 0.40278 0.0
C7 C 0.4427 0.44061 0.25933 0.0
N8 N 0.39296 0.36993 0.29677 0.0
C9 C 0.39937 0.40636 0.2615 0.0
C10 C 0.47952 0.43789 0.29372 0.0
Eu11 Eu 0.32047 0.31031 0.303 0.0
N12 N 0.37505 0.30181 0.36752 0.0
C13 C 0.36276 0.27099 0.40483 0.0
C14 C 0.44231 0.29597 0.44149 0.0
C15 C 0.39623 0.26716 0.44215 0.0
H16 H 0.37129 0.40884 0.23468 0.0
H17 H 0.38642 0.24204 0.47142 0.0
H18 H 0.52637 0.36008 0.43056 0.0
H19 H 0.44765 0.46899 0.23108 0.0
H20 H 0.32723 0.24889 0.40601 0.0
H21 H 0.23169 0.28864 0.07795 0.0
H22 H 0.46815 0.29299 0.47046 0.0
H23 H 0.21029 0.118 0.31164 0.0
H24 H 0.278 0.2841 0.14974 0.0
H25 H 0.13261 0.05872 0.30622 0.0
H26 H 0.54264 0.42265 0.36574 0.0
H27 H 0.15275 0.23322 0.06634 0.0
H28 H 0.08943 0.16483 0.09708 0.0
H29 H 0.51311 0.46444 0.29194 0.0
H30 H 0.06206 0.10288 0.15913 0.0
N31 N 0.22834 0.22444 0.18061 0.0
C32 C 0.24497 0.25815 0.14609 0.0
C33 C 0.17361 0.23028 0.09834 0.0
C34 C 0.1565 0.19572 0.13334 0.0
C35 C 0.21817 0.26145 0.10473 0.0
C36 C 0.18517 0.19333 0.17443 0.0
H37 H 0.07789 0.06302 0.23696 0.0
N38 N 0.19908 0.15572 0.24734 0.0
C39 C 0.14258 0.08644 0.2785 0.0
C40 C 0.1699 0.15827 0.20901 0.0
C41 C 0.18655 0.11979 0.28156 0.0
C42 C 0.11178 0.08909 0.23949 0.0
C43 C 0.12542 0.12497 0.20396 0.0
O44 O 0.28191 0.14105 0.25394 0.0
O45 O 0.33357 0.23999 0.3028 0.0
O46 O 0.37714 0.30728 0.26765 0.0
O47 O 0.32633 0.27226 0.21377 0.0
O48 O 0.29641 0.17121 0.31965 0.0
O49 O 0.32192 0.20222 0.21323 0.0
O50 O 0.31285 0.38053 0.30169 0.0
O51 O 0.25801 0.28131 0.25356 0.0
O52 O 0.21843 0.21204 0.29056 0.0
O53 O 0.26825 0.25185 0.34249 0.0
O54 O 0.29584 0.34862 0.23506 0.0
O55 O 0.28242 0.32047 0.35046 0.0
C56 C 0.33254 0.20307 0.33313 0.0
C57 C 0.3054 0.12859 0.19184 0.0
C58 C 0.34077 0.10232 0.14271 0.0
C59 C 0.3456 0.12628 0.1768 0.0
C60 C 0.29506 0.0806 0.12403 0.0
C61 C 0.26018 0.10615 0.17314 0.0
C62 C 0.25517 0.08209 0.13948 0.0
C63 C 0.36818 0.29786 0.22829 0.0
C64 C 0.31175 0.15618 0.22584 0.0
C65 C 0.09635 0.12802 0.16356 0.0
C66 C 0.11193 0.16325 0.12827 0.0
C67 C 0.25732 0.31837 0.22347 0.0
C68 C 0.28165 0.39859 0.35667 0.0
C69 C 0.236 0.40227 0.35648 0.0
C70 C 0.22912 0.4358 0.37666 0.0
C71 C 0.26864 0.46614 0.39679 0.0
C72 C 0.32085 0.42817 0.37758 0.0
C73 C 0.31423 0.46203 0.39753 0.0
C74 C 0.2269 0.2243 0.32897 0.0
C75 C 0.28664 0.36512 0.33266 0.0
H76 H 0.38051 0.14435 0.19077 0.0
H77 H 0.29023 0.06265 0.09727 0.0
H78 H 0.22885 0.10759 0.18422 0.0
H79 H 0.22022 0.06503 0.12491 0.0
H80 H 0.20569 0.37891 0.34063 0.0
H81 H 0.2641 0.49178 0.41327 0.0
H82 H 0.3563 0.42565 0.37775 0.0
H83 H 0.34444 0.4852 0.41348 0.0
Eu84 Eu 0.83505 0.21866 0.29035 0.0
C85 C 0.67933 0.315 0.32035 0.0
C86 C 0.60561 0.26099 0.29784 0.0
C87 C 0.60579 0.31964 0.33856 0.0
C88 C 0.65513 0.27906 0.29835 0.0
C89 C 0.65521 0.33504 0.34169 0.0
C90 C 0.58099 0.28247 0.31675 0.0
C91 C 0.7308 0.37938 0.37253 0.0
N92 N 0.72703 0.3272 0.32449 0.0
C93 C 0.75293 0.35804 0.35126 0.0
C94 C 0.68163 0.36836 0.36723 0.0
Eu95 Eu 0.76492 0.29766 0.282 0.0
N96 N 0.68072 0.25792 0.28239 0.0
C97 C 0.65842 0.21436 0.2711 0.0
C98 C 0.58267 0.21992 0.28108 0.0
C99 C 0.60948 0.19577 0.26881 0.0
H100 H 0.79104 0.36722 0.35571 0.0
H101 H 0.59266 0.16201 0.25868 0.0
H102 H 0.54305 0.26927 0.31629 0.0
H103 H 0.75176 0.40428 0.39301 0.0
H104 H 0.67771 0.19216 0.26498 0.0
H105 H 1.01148 0.25752 0.38781 0.0
H106 H 0.54485 0.2049 0.2802 0.0
H107 H 0.814 0.20129 0.18351 0.0
H108 H 0.92556 0.22201 0.37562 0.0
H109 H 0.85516 0.22674 0.12048 0.0
H110 H 0.58663 0.33488 0.35435 0.0
H111 H 0.05449 0.2992 0.32538 0.0
H112 H 0.05379 0.31983 0.2449 0.0
H113 H 0.66447 0.38457 0.38406 0.0
H114 H 1.01127 0.31068 0.1721 0.0
N115 N 0.91896 0.24612 0.30672 0.0
C116 C 0.94377 0.2403 0.34788 0.0
C117 C 1.01661 0.28399 0.31974 0.0
C118 C 0.9921 0.28506 0.27749 0.0
C119 C 0.99252 0.26038 0.35505 0.0
C120 C 0.94263 0.26484 0.2718 0.0
H121 H 0.93807 0.27466 0.12585 0.0
N122 N 0.87143 0.23717 0.22595 0.0
C123 C 0.87319 0.23701 0.151 0.0
C124 C 0.91845 0.25972 0.2305 0.0
C125 C 0.84951 0.22343 0.18729 0.0
C126 C 0.91998 0.26392 0.15419 0.0
C127 C 0.94358 0.27462 0.19438 0.0
O128 O 0.84262 0.15549 0.27305 0.0
O129 O 0.78004 0.23129 0.32317 0.0
O130 O 0.80262 0.28425 0.35183 0.0
O131 O 0.8692 0.27117 0.33844 0.0
O132 O 0.7677 0.16452 0.31231 0.0
O133 O 0.85491 0.16255 0.341 0.0
O134 O 0.82661 0.35645 0.29359 0.0
O135 O 0.82894 0.29175 0.25954 0.0
O136 O 0.77404 0.20294 0.23614 0.0
O137 O 0.72905 0.25779 0.22453 0.0
O138 O 0.77953 0.31799 0.21168 0.0
O139 O 0.76025 0.37107 0.2594 0.0
C140 C 0.75169 0.19021 0.32927 0.0
C141 C 0.81219 0.08684 0.32406 0.0
C142 C 0.78461 0.02097 0.38179 0.0
C143 C 0.80415 0.06964 0.36694 0.0
C144 C 0.7613 0.99233 0.35087 0.0
C145 C 0.78968 0.05801 0.29311 0.0
C146 C 0.76253 1.0115 0.30645 0.0
C147 C 0.84865 0.28889 0.36143 0.0
C148 C 0.84637 0.13367 0.31362 0.0
C149 C 0.99187 0.29813 0.19966 0.0
C150 C 1.01606 0.30342 0.24111 0.0
C151 C 0.82121 0.31004 0.21922 0.0
C152 C 0.83256 0.42885 0.24409 0.0
C153 C 0.81321 0.43985 0.2009 0.0
C154 C 0.8161 0.48757 0.18283 0.0
C155 C 0.85255 0.52299 0.19997 0.0
C156 C 0.86953 0.46326 0.26222 0.0
C157 C 0.88133 0.51007 0.23872 0.0
C158 C 0.73829 0.2205 0.21485 0.0
C159 C 0.80527 0.38878 0.2727 0.0
H160 H 0.82093 0.09274 0.39006 0.0
H161 H 0.74619 0.95453 0.36119 0.0
H162 H 0.79382 0.07088 0.2591 0.0
H163 H 0.74569 0.98913 0.28268 0.0
H164 H 0.78481 0.41302 0.187 0.0
H165 H 0.85563 0.56029 0.1861 0.0
H166 H 0.88625 0.45505 0.29548 0.0
H167 H 0.9086 0.53718 0.25306 0.0
Eu168 Eu 0.76187 0.74722 0.30272 0.0
C169 C 0.90816 0.91586 0.22243 0.0
C170 C 0.86295 0.95235 0.15861 0.0
C171 C 0.93034 1.00178 0.19739 0.0
C172 C 0.86999 0.91165 0.18949 0.0
C173 C 0.93967 0.96082 0.22577 0.0
C174 C 0.89203 0.99755 0.16383 0.0
C175 C 0.99089 0.92101 0.28068 0.0
N176 N 0.91698 0.87554 0.24858 0.0
C177 C 0.95867 0.87726 0.27618 0.0
C178 C 0.98084 0.96306 0.25609 0.0
Eu179 Eu 0.85771 0.80381 0.24174 0.0
N180 N 0.84322 0.86737 0.18468 0.0
C181 C 0.81415 0.86098 0.14651 0.0
C182 C 0.82899 0.94613 0.12186 0.0
C183 C 0.80564 0.90018 0.11511 0.0
H184 H 0.96683 0.8451 0.29556 0.0
H185 H 0.78105 0.89483 0.08575 0.0
H186 H 0.88662 0.02922 0.14084 0.0
H187 H 1.02329 0.92227 0.30332 0.0
H188 H 0.79642 0.8259 0.14015 0.0
H189 H 0.8488 0.65534 0.45419 0.0
H190 H 0.82253 0.9764 0.09736 0.0
H191 H 0.65268 0.70519 0.25035 0.0
H192 H 0.83397 0.72406 0.40089 0.0
H193 H 0.59651 0.62779 0.24281 0.0
H194 H 0.95378 0.03666 0.19986 0.0
H195 H 0.8015 0.57432 0.44605 0.0
H196 H 0.73383 0.5221 0.40586 0.0
H197 H 1.00589 0.99689 0.25962 0.0
H198 H 0.66528 0.51444 0.34834 0.0
N199 N 0.77815 0.68396 0.36043 0.0
C200 C 0.81204 0.6897 0.39606 0.0
C201 C 0.79434 0.60471 0.42213 0.0
C202 C 0.75769 0.59891 0.38742 0.0
C203 C 0.82096 0.65036 0.42691 0.0
C204 C 0.7499 0.6397 0.35698 0.0
H205 H 0.6134 0.55357 0.28806 0.0
N206 N 0.70247 0.67521 0.29769 0.0
C207 C 0.62876 0.62929 0.26569 0.0
C208 C 0.71107 0.63522 0.32465 0.0
C209 C 0.66086 0.67313 0.26992 0.0
C210 C 0.63848 0.58751 0.29122 0.0
C211 C 0.67945 0.59015 0.32181 0.0
O212 O 0.70182 0.73526 0.33712 0.0
O213 O 0.78768 0.81241 0.25093 0.0
O214 O 0.86755 0.8429 0.29808 0.0
O215 O 0.82192 0.78586 0.34602 0.0
O216 O 0.71724 0.7769 0.24135 0.0
O217 O 0.74872 0.80529 0.32589 0.0
O218 O 0.91636 0.81747 0.20496 0.0
O219 O 0.83239 0.73775 0.2926 0.0
O220 O 0.75113 0.70675 0.24844 0.0
O221 O 0.7971 0.76212 0.19935 0.0
O222 O 0.90317 0.77334 0.30074 0.0
O223 O 0.86591 0.74894 0.21163 0.0
C224 C 0.74862 0.81341 0.22534 0.0
C225 C 0.70538 0.78582 0.38588 0.0
C226 C 0.68045 0.83025 0.42896 0.0
C227 C 0.68998 0.82535 0.38877 0.0
C228 C 0.68771 0.79529 0.46602 0.0
C229 C 0.71177 0.75167 0.42358 0.0
C230 C 0.70318 0.75658 0.46328 0.0
C231 C 0.85313 0.82682 0.33688 0.0
C232 C 0.71154 0.77877 0.3431 0.0
C233 C 0.68882 0.54937 0.35041 0.0
C234 C 0.72785 0.55375 0.38316 0.0
C235 C 0.87239 0.7363 0.31685 0.0
C236 C 0.94223 0.75045 0.20109 0.0
C237 C 0.93431 0.71331 0.17828 0.0
C238 C 0.97008 0.69062 0.18032 0.0
C239 C 1.01426 0.70657 0.20506 0.0
C240 C 0.98615 0.76461 0.22643 0.0
C241 C 1.02195 0.74286 0.22817 0.0
C242 C 0.76551 0.7215 0.20989 0.0
C243 C 0.90461 0.77465 0.19676 0.0
H244 H 0.68506 0.85182 0.35973 0.0
H245 H 0.68014 0.79707 0.49718 0.0
H246 H 0.72336 0.72105 0.42235 0.0
H247 H 0.70817 0.72994 0.49214 0.0
H248 H 0.90033 0.70224 0.15883 0.0
H249 H 1.04333 0.69159 0.20605 0.0
H250 H 0.99303 0.79286 0.24443 0.0
H251 H 0.05604 0.75452 0.24718 0.0
Eu252 Eu 0.30002 0.71431 0.29159 0.0
C253 C 0.22022 0.88042 0.17562 0.0
C254 C 0.28779 0.94202 0.1508 0.0
C255 C 0.21132 0.93273 0.10513 0.0
C256 C 0.26776 0.90324 0.18218 0.0
C257 C 0.19122 0.89539 0.13732 0.0
C258 C 0.25958 0.95579 0.11175 0.0
C259 C 0.12453 0.83603 0.16585 0.0
N260 N 0.20215 0.84403 0.20708 0.0
C261 C 0.15475 0.82237 0.20318 0.0
C262 C 0.14289 0.87245 0.13259 0.0
Eu263 Eu 0.25647 0.82041 0.26759 0.0
N264 N 0.29429 0.88809 0.21966 0.0
C265 C 0.33998 0.91299 0.22974 0.0
C266 C 0.33548 0.96585 0.15973 0.0
C267 C 0.36145 0.95176 0.19973 0.0
H268 H 0.14023 0.79363 0.22826 0.0
H269 H 0.39821 0.9701 0.20722 0.0
H270 H 0.27464 0.98437 0.0866 0.0
H271 H 0.08715 0.81823 0.16263 0.0
H272 H 0.36061 0.90191 0.26028 0.0
H273 H 0.16437 0.581 0.3738 0.0
H274 H 0.35235 0.99538 0.13625 0.0
H275 H 0.41941 0.739 0.31839 0.0
H276 H 0.19771 0.63784 0.31202 0.0
H277 H 0.47827 0.71433 0.37823 0.0
H278 H 0.1898 0.94426 0.07517 0.0
H279 H 0.21701 0.55302 0.43929 0.0
H280 H 0.30036 0.5574 0.47746 0.0
H281 H 0.11944 0.88286 0.10363 0.0
H282 H 0.38588 0.59387 0.47835 0.0
N283 N 0.26783 0.65055 0.34532 0.0
C284 C 0.22104 0.62776 0.34104 0.0
C285 C 0.23191 0.57976 0.41281 0.0
C286 C 0.28069 0.59988 0.41503 0.0
C287 C 0.20207 0.59419 0.37563 0.0
C288 C 0.29772 0.63613 0.38042 0.0
H289 H 0.45251 0.65231 0.44146 0.0
N290 N 0.36008 0.69172 0.34705 0.0
C291 C 0.44099 0.69789 0.37948 0.0
C292 C 0.34548 0.65688 0.38107 0.0
C293 C 0.4073 0.71174 0.34544 0.0
C294 C 0.42633 0.66291 0.41513 0.0
C295 C 0.37806 0.64173 0.41619 0.0
O296 O 0.33804 0.69094 0.25284 0.0
O297 O 0.30161 0.78524 0.24708 0.0
O298 O 0.22978 0.78161 0.21031 0.0
O299 O 0.22722 0.70583 0.25013 0.0
O300 O 0.36367 0.76602 0.26089 0.0
O301 O 0.26559 0.65266 0.26113 0.0
O302 O 0.2127 0.84792 0.29649 0.0
O303 O 0.25307 0.74936 0.31286 0.0
O304 O 0.33196 0.75129 0.34883 0.0
O305 O 0.32744 0.82777 0.31347 0.0
O306 O 0.19094 0.76986 0.29434 0.0
O307 O 0.28941 0.87484 0.30666 0.0
C308 C 0.34388 0.79894 0.23916 0.0
C309 C 0.31363 0.61031 0.24553 0.0
C310 C 0.33851 0.56186 0.20782 0.0
C311 C 0.32566 0.60333 0.20791 0.0
C312 C 0.33826 0.52691 0.24609 0.0
C313 C 0.31318 0.57504 0.28331 0.0
C314 C 0.3253 0.53347 0.28333 0.0
C315 C 0.21556 0.73477 0.21393 0.0
C316 C 0.30261 0.65516 0.24428 0.0
C317 C 0.36142 0.60588 0.45101 0.0
C318 C 0.31277 0.58513 0.45052 0.0
C319 C 0.20947 0.73685 0.31813 0.0
C320 C 0.24468 0.92476 0.3131 0.0
C321 C 0.24488 0.93653 0.35277 0.0
C322 C 0.23234 0.97762 0.35436 0.0
C323 C 0.22448 1.00916 0.31481 0.0
C324 C 0.23716 0.95658 0.27412 0.0
C325 C 0.22797 0.99928 0.27518 0.0
C326 C 0.34305 0.79768 0.34716 0.0
C327 C 0.24914 0.87741 0.31412 0.0
H328 H 0.32609 0.63082 0.17886 0.0
H329 H 0.34959 0.49528 0.24783 0.0
H330 H 0.30401 0.57984 0.31271 0.0
H331 H 0.32564 0.50663 0.31251 0.0
H332 H 0.25216 0.91183 0.3824 0.0
H333 H 0.21324 0.04014 0.31394 0.0
H334 H 0.23733 0.94796 0.24318 0.0
H335 H 0.22127 0.02374 0.24512 0.0
Eu336 Eu 0.33046 0.71699 0.80657 0.0
C337 C 0.15845 0.7913 0.76046 0.0
C338 C 0.13292 0.82235 0.68524 0.0
C339 C 0.07467 0.78197 0.73427 0.0
C340 C 0.16912 0.81415 0.71957 0.0
C341 C 0.11134 0.77723 0.76896 0.0
C342 C 0.08551 0.80408 0.6923 0.0
C343 C 0.14136 0.76251 0.84562 0.0
N344 N 0.19483 0.78773 0.7929 0.0
C345 C 0.18743 0.7772 0.83516 0.0
C346 C 0.10296 0.76119 0.81224 0.0
Eu347 Eu 0.27101 0.80598 0.77265 0.0
N348 N 0.21531 0.83183 0.71444 0.0
C349 C 0.22792 0.86195 0.67681 0.0
C350 C 0.1456 0.85014 0.64546 0.0
C351 C 0.19333 0.87098 0.64157 0.0
H352 H 0.21716 0.77967 0.86077 0.0
H353 H 0.20351 0.89382 0.61141 0.0
H354 H 0.0572 0.80847 0.66588 0.0
H355 H 0.13555 0.75245 0.87931 0.0
H356 H 0.26468 0.87892 0.67362 0.0
H357 H 0.50235 0.81112 0.75271 0.0
H358 H 0.11885 0.85702 0.61815 0.0
H359 H 0.27793 0.59956 0.81292 0.0
H360 H 0.43876 0.79365 0.79698 0.0
H361 H 0.27681 0.53488 0.77764 0.0
H362 H 1.03808 0.77034 0.73983 0.0
H363 H 0.49841 0.75763 0.7031 0.0
H364 H 0.45977 0.6799 0.67885 0.0
H365 H 0.06732 0.75014 0.8203 0.0
H366 H 0.39862 0.60373 0.68634 0.0
N367 N 0.39733 0.73318 0.77067 0.0
C368 C 0.43611 0.77054 0.77513 0.0
C369 C 0.47031 0.75012 0.72241 0.0
C370 C 0.43311 0.70894 0.72171 0.0
C371 C 0.47258 0.78032 0.7503 0.0
C372 C 0.39682 0.70119 0.74678 0.0
H373 H 0.33105 0.54888 0.72392 0.0
N374 N 0.33038 0.65096 0.77796 0.0
C375 C 0.30067 0.56962 0.76925 0.0
C376 C 0.36243 0.6585 0.75082 0.0
C377 C 0.30119 0.60662 0.78904 0.0
C378 C 0.33124 0.5777 0.73896 0.0
C379 C 0.36339 0.62225 0.73013 0.0
O380 O 0.33177 0.70238 0.87719 0.0
O381 O 0.27105 0.73888 0.82201 0.0
O382 O 0.30527 0.79927 0.84357 0.0
O383 O 0.37107 0.78686 0.8297 0.0
O384 O 0.2562 0.66986 0.81476 0.0
O385 O 0.37598 0.67538 0.85034 0.0
O386 O 0.32529 0.87371 0.76522 0.0
O387 O 0.33875 0.79071 0.76622 0.0
O388 O 0.27994 0.69633 0.74631 0.0
O389 O 0.23225 0.74947 0.7296 0.0
O390 O 0.29919 0.81407 0.70952 0.0
O391 O 0.2685 0.86472 0.8006 0.0
C392 C 0.23901 0.69961 0.82531 0.0
C393 C 0.41075 0.71475 0.90936 0.0
C394 C 0.49642 0.74595 0.92096 0.0
C395 C 0.45468 0.72563 0.89549 0.0
C396 C 0.49209 0.76593 0.95522 0.0
C397 C 0.40709 0.73267 0.94484 0.0
C398 C 0.44754 0.75978 0.96659 0.0
C399 C 0.35156 0.80638 0.85181 0.0
C400 C 0.36909 0.68692 0.88475 0.0
C401 C 0.39766 0.63094 0.70291 0.0
C402 C 0.43243 0.67431 0.69861 0.0
C403 C 0.33859 0.80309 0.72497 0.0
C404 C 0.31093 0.94297 0.77475 0.0
C405 C 0.27384 0.9568 0.74633 0.0
C406 C 0.2767 1.00483 0.72987 0.0
C407 C 0.31669 0.03984 0.74253 0.0
C408 C 0.35106 0.97754 0.78833 0.0
C409 C 0.35372 0.02601 0.7724 0.0
C410 C 0.24361 0.71193 0.72292 0.0
C411 C 0.30822 0.89249 0.78879 0.0
H412 H 0.45649 0.71324 0.86704 0.0
H413 H 0.52326 0.78317 0.9751 0.0
H414 H 0.37311 0.72636 0.95523 0.0
H415 H 0.44463 0.77421 0.99356 0.0
H416 H 0.24325 0.9299 0.73535 0.0
H417 H 0.31951 0.07718 0.7289 0.0
H418 H 0.38031 0.96705 0.81064 0.0
H419 H 0.38482 0.05271 0.78245 0.0
Eu420 Eu 0.2337 0.22419 0.82452 0.0
C421 C 0.37718 0.39393 0.73575 0.0
C422 C 0.33049 0.42953 0.67244 0.0
C423 C 0.39854 0.47981 0.70958 0.0
C424 C 0.33853 0.38897 0.70313 0.0
C425 C 0.40801 0.43939 0.73869 0.0
C426 C 0.35996 0.47488 0.67648 0.0
C427 C 0.45735 0.40176 0.79745 0.0
N428 N 0.38556 0.35434 0.76381 0.0
C429 C 0.42606 0.35752 0.79332 0.0
C430 C 0.44795 0.44295 0.77046 0.0
Eu431 Eu 0.32604 0.28213 0.75865 0.0
N432 N 0.30992 0.34467 0.7003 0.0
C433 C 0.27506 0.33867 0.66543 0.0
C434 C 0.29341 0.42343 0.63814 0.0
C435 C 0.26612 0.37775 0.63426 0.0
H436 H 0.43428 0.32636 0.81462 0.0
H437 H 0.23767 0.37258 0.60748 0.0
H438 H 0.35369 0.50634 0.65366 0.0
H439 H 0.48868 0.40406 0.82156 0.0
H440 H 0.25253 0.30432 0.66138 0.0
H441 H 0.324 0.144 0.97867 0.0
H442 H 0.28606 0.45366 0.61408 0.0
H443 H 0.12161 0.17782 0.78198 0.0
H444 H 0.30302 0.20935 0.92301 0.0
H445 H 0.06469 0.09899 0.78288 0.0
H446 H 0.42142 0.51498 0.71183 0.0
H447 H 0.28449 0.06051 0.97197 0.0
H448 H 0.21912 1.00337 0.93391 0.0
H449 H 0.47227 0.4772 0.77381 0.0
H450 H 0.14706 0.99094 0.88042 0.0
N451 N 0.25478 0.16406 0.88222 0.0
C452 C 0.28586 0.17342 0.91874 0.0
C453 C 0.2755 0.08922 0.94684 0.0
C454 C 0.23942 0.07993 0.91216 0.0
C455 C 0.29769 0.13625 0.95089 0.0
C456 C 0.22911 0.1187 0.88033 0.0
H457 H 0.0878 0.02666 0.82571 0.0
N458 N 0.17644 0.15041 0.8238 0.0
C459 C 0.0996 0.10196 0.80155 0.0
C460 C 0.18845 0.11167 0.85024 0.0
C461 C 0.132 0.14659 0.80103 0.0
C462 C 0.11288 0.0612 0.82559 0.0
C463 C 0.15731 0.0658 0.8512 0.0
O464 O 0.18401 0.20905 0.87096 0.0
O465 O 0.25534 0.28812 0.77125 0.0
O466 O 0.33152 0.32722 0.80775 0.0
O467 O 0.2961 0.26974 0.86208 0.0
O468 O 0.18414 0.25242 0.76764 0.0
O469 O 0.22035 0.28172 0.84784 0.0
O470 O 0.38145 0.29243 0.71892 0.0
O471 O 0.30361 0.21803 0.8124 0.0
O472 O 0.21767 0.18697 0.76525 0.0
O473 O 0.26463 0.24368 0.71753 0.0
O474 O 0.37343 0.25637 0.81907 0.0
O475 O 0.33964 0.22164 0.74012 0.0
C476 C 0.21415 0.28881 0.74913 0.0
C477 C 0.14784 0.26924 0.87394 0.0
C478 C 0.11302 0.31869 0.90201 0.0
C479 C 0.15301 0.30614 0.89639 0.0
C480 C 0.06803 0.29478 0.8838 0.0
C481 C 0.10242 0.24562 0.85652 0.0
C482 C 0.06284 0.25826 0.86179 0.0
C483 C 0.32148 0.31299 0.84785 0.0
C484 C 0.18979 0.25348 0.87235 0.0
C485 C 0.17007 0.02655 0.87985 0.0
C486 C 0.21115 0.03362 0.91028 0.0
C487 C 0.34379 0.21924 0.83651 0.0
C488 C 0.37436 0.23457 0.67594 0.0
C489 C 0.39508 0.19783 0.67495 0.0
C490 C 0.39923 0.18775 0.63477 0.0
C491 C 0.38089 0.2148 0.59611 0.0
C492 C 0.35619 0.25991 0.63663 0.0
C493 C 0.35924 0.24986 0.59714 0.0
C494 C 0.23207 0.20365 0.72622 0.0
C495 C 0.37333 0.24745 0.71785 0.0
H496 H 0.18785 0.32367 0.91094 0.0
H497 H 1.03662 0.30377 0.88732 0.0
H498 H 0.09742 0.21681 0.83968 0.0
H499 H 1.02776 0.23899 0.84977 0.0
H500 H 0.40766 0.17737 0.70548 0.0
H501 H 0.384 0.20969 0.56456 0.0
H502 H 0.33999 0.28789 0.63644 0.0
H503 H 0.34543 0.26999 0.56695 0.0
Eu504 Eu 0.84773 0.21063 0.79564 0.0
C505 C 0.74853 0.36603 0.68831 0.0
C506 C 0.81111 0.42308 0.6514 0.0
C507 C 0.72929 0.41503 0.61809 0.0
C508 C 0.79625 0.38683 0.68697 0.0
C509 C 0.71449 0.3812 0.65469 0.0
C510 C 0.77755 0.43583 0.61638 0.0
C511 C 0.6539 0.33292 0.69831 0.0
N512 N 0.73523 0.33357 0.72411 0.0
C513 C 0.68884 0.31837 0.73042 0.0
C514 C 0.66666 0.3635 0.65976 0.0
Eu515 Eu 0.79569 0.30841 0.7762 0.0
N516 N 0.82773 0.37447 0.7219 0.0
C517 C 0.87395 0.40067 0.72468 0.0
C518 C 0.859 0.44697 0.65284 0.0
C519 C 0.89032 0.43656 0.69012 0.0
H520 H 0.67862 0.29488 0.7602 0.0
H521 H 0.92728 0.45591 0.69219 0.0
H522 H 0.78846 0.46314 0.58863 0.0
H523 H 0.61714 0.32019 0.70317 0.0
H524 H 0.89942 0.39368 0.75252 0.0
H525 H 0.72645 0.05433 0.7337 0.0
H526 H 0.87181 0.47459 0.62602 0.0
H527 H 0.90739 0.199 0.89973 0.0
H528 H 0.79542 0.12463 0.73221 0.0
H529 H 0.88999 0.15554 0.97282 0.0
H530 H 0.70369 0.4266 0.59166 0.0
H531 H 0.68728 0.02218 0.79986 0.0
H532 H 0.6879 0.02585 0.87847 0.0
H533 H 0.63949 0.37451 0.63481 0.0
H534 H 0.73624 0.04845 0.9458 0.0
N535 N 0.7922 0.13454 0.7952 0.0
C536 C 0.77813 0.11111 0.76096 0.0
C537 C 0.71741 0.05301 0.79919 0.0
C538 C 0.73737 0.07253 0.83641 0.0
C539 C 0.73938 0.07106 0.76181 0.0
C540 C 0.77644 0.11257 0.83368 0.0
H541 H 0.81403 0.0945 0.98153 0.0
N542 N 0.84073 0.16504 0.86721 0.0
C543 C 0.86443 0.14792 0.94452 0.0
C544 C 0.80228 0.12751 0.87104 0.0
C545 C 0.87377 0.17305 0.90294 0.0
C546 C 0.82172 0.11335 0.94931 0.0
C547 C 0.79043 0.10206 0.9122 0.0
O548 O 0.92491 0.22965 0.79844 0.0
O549 O 0.85541 0.28691 0.76027 0.0
O550 O 0.75464 0.26662 0.72288 0.0
O551 O 0.78782 0.20199 0.73803 0.0
O552 O 0.85849 0.23883 0.72476 0.0
O553 O 0.88485 0.15658 0.80134 0.0
O554 O 0.80437 0.31919 0.84263 0.0
O555 O 0.79904 0.23807 0.82098 0.0
O556 O 0.8773 0.25751 0.84725 0.0
O557 O 0.87306 0.3293 0.80466 0.0
O558 O 0.73301 0.24518 0.79264 0.0
O559 O 0.76874 0.36254 0.7925 0.0
C560 C 0.86154 0.28321 0.72307 0.0
C561 C 0.95099 0.18214 0.76367 0.0
C562 C 0.95606 0.1424 0.70735 0.0
C563 C 0.93047 0.14788 0.73705 0.0
C564 C 1.00229 0.17107 0.70425 0.0
C565 C 0.99666 0.21157 0.75899 0.0
C566 C 1.02231 0.20569 0.72976 0.0
C567 C 0.75751 0.22634 0.71456 0.0
C568 C 0.92558 0.18692 0.79674 0.0
C569 C 0.7479 0.06634 0.91468 0.0
C570 C 0.72088 0.05248 0.87654 0.0
C571 C 0.75538 0.21782 0.82079 0.0
C572 C 0.74445 0.34084 0.8627 0.0
C573 C 0.74337 0.37556 0.88483 0.0
C574 C 0.71264 0.36408 0.91606 0.0
C575 C 0.68425 0.3174 0.92594 0.0
C576 C 0.71352 0.29531 0.87115 0.0
C577 C 0.6845 0.28328 0.90327 0.0
C578 C 0.89086 0.30438 0.8406 0.0
C579 C 0.7805 0.35052 0.8341 0.0
H580 H 0.89486 0.12547 0.73924 0.0
H581 H 1.0225 0.16725 0.68137 0.0
H582 H 1.01251 0.23931 0.77768 0.0
H583 H 0.05765 0.22826 0.72667 0.0
H584 H 0.76568 0.41145 0.87737 0.0
H585 H 0.65973 0.30814 0.94928 0.0
H586 H 0.71202 0.26887 0.85323 0.0
H587 H 0.66144 0.24773 0.90992 0.0
Eu588 Eu 0.78538 0.73074 0.75051 0.0
C589 C 0.93373 0.82609 0.85945 0.0
C590 C 0.93151 0.77395 0.93019 0.0
C591 C 1.00685 0.81288 0.90406 0.0
C592 C 0.90797 0.79458 0.89059 0.0
C593 C 0.9837 0.837 0.86677 0.0
C594 C 0.98078 0.7816 0.9359 0.0
C595 C 0.9849 0.90164 0.80514 0.0
N596 N 0.91038 0.85007 0.82458 0.0
C597 C 0.93552 0.8902 0.79987 0.0
C598 C 1.00908 0.874 0.83794 0.0
Eu599 Eu 0.82553 0.82218 0.81426 0.0
N600 N 0.8602 0.78698 0.88375 0.0
C601 C 0.83491 0.76447 0.91754 0.0
C602 C 0.90509 0.74787 0.96357 0.0
C603 C 0.85683 0.74446 0.95766 0.0
H604 H 0.91773 0.91357 0.77553 0.0
H605 H 0.83631 0.726 0.98388 0.0
H606 H 0.99923 0.76504 0.96558 0.0
H607 H 1.00434 0.93224 0.78437 0.0
H608 H 0.79784 0.76215 0.91455 0.0
H609 H 0.79946 0.84213 0.58757 0.0
H610 H 0.92184 0.73175 0.9945 0.0
H611 H 0.68928 0.63976 0.77784 0.0
H612 H 0.82788 0.79751 0.65757 0.0
H613 H 0.60318 0.61863 0.75667 0.0
H614 H 1.04507 0.82017 0.90972 0.0
H615 H 0.71383 0.83442 0.5655 0.0
H616 H 0.63106 0.79347 0.58048 0.0
H617 H 1.04739 0.88342 0.8424 0.0
H618 H 0.57738 0.73232 0.62675 0.0
N619 N 0.76032 0.76982 0.67884 0.0
C620 C 0.79096 0.79618 0.65022 0.0
C621 C 0.72639 0.81569 0.59701 0.0
C622 C 0.69474 0.7846 0.62432 0.0
C623 C 0.77471 0.82044 0.60954 0.0
C624 C 0.71301 0.76119 0.66525 0.0
H625 H 0.56663 0.66664 0.69215 0.0
N626 N 0.70199 0.70259 0.7286 0.0
C627 C 0.62503 0.64963 0.73824 0.0
C628 C 0.6829 0.72683 0.69113 0.0
C629 C 0.67401 0.66232 0.7505 0.0
C630 C 0.60458 0.67673 0.70181 0.0
C631 C 0.63364 0.71493 0.67694 0.0
O632 O 0.82915 0.70844 0.71616 0.0
O633 O 0.8423 0.75518 0.80608 0.0
O634 O 0.85695 0.85075 0.75183 0.0
O635 O 0.85593 0.78033 0.73369 0.0
O636 O 0.80515 0.68395 0.8143 0.0
O637 O 0.76781 0.65769 0.7402 0.0
O638 O 0.84901 0.89161 0.83347 0.0
O639 O 0.76623 0.79481 0.76177 0.0
O640 O 0.74232 0.70698 0.80515 0.0
O641 O 0.76231 0.76919 0.84251 0.0
O642 O 0.79451 0.86765 0.75367 0.0
O643 O 0.78266 0.84221 0.85153 0.0
C644 C 0.83934 0.71442 0.83198 0.0
C645 C 0.83409 0.62854 0.74184 0.0
C646 C 0.89057 0.58783 0.73266 0.0
C647 C 0.86442 0.62224 0.7167 0.0
C648 C 0.88645 0.56027 0.77465 0.0
C649 C 0.83055 0.60036 0.78371 0.0
C650 C 0.8569 0.56683 0.80002 0.0
C651 C 0.87208 0.8267 0.73088 0.0
C652 C 0.80586 0.66381 0.72352 0.0
C653 C 0.61512 0.74038 0.63771 0.0
C654 C 0.64565 0.77516 0.61138 0.0
C655 C 0.76227 0.83468 0.73686 0.0
C656 C 0.80693 0.918 0.87661 0.0
C657 C 0.76536 0.90998 0.89483 0.0
C658 C 0.76267 0.94025 0.9213 0.0
C659 C 0.80198 0.97832 0.92937 0.0
C660 C 0.84491 0.95747 0.88385 0.0
C661 C 0.84235 0.98735 0.9101 0.0
C662 C 0.73782 0.72641 0.83625 0.0
C663 C 0.81315 0.88303 0.8541 0.0
H664 H 0.86731 0.64395 0.68444 0.0
H665 H 0.905 0.53272 0.78746 0.0
H666 H 0.80703 0.60358 0.80377 0.0
H667 H 0.85371 0.54518 0.8322 0.0
H668 H 0.73577 0.87967 0.88954 0.0
H669 H 0.80134 1.0015 0.95033 0.0
H670 H 0.87729 0.96443 0.87039 0.0
H671 H 0.87209 0.01721 0.91612 0.0
Fe672 Fe 1.02932 0.13075 0.51761 0.0
O673 O 1.03776 0.06512 0.54181 0.0
Fe674 Fe 0.09469 0.04866 0.52647 0.0
Fe675 Fe 0.98954 1.00761 0.52545 0.0
O676 O 1.04101 0.06783 0.53872 0.0
O677 O 1.04621 0.99177 0.50887 0.0
O678 O 1.04235 0.98962 0.51027 0.0
Fe679 Fe 0.05355 0.92605 0.53264 0.0
C680 C 0.95017 0.0694 0.56801 0.0
O681 O 0.96733 0.10915 0.47481 0.0
O682 O 0.98319 0.04683 0.46476 0.0
O683 O 0.10358 0.94969 0.4923 0.0
O684 O 0.14575 0.02197 0.5106 0.0
O685 O 0.09093 0.08584 0.46338 0.0
O686 O 0.07331 0.15094 0.47005 0.0
O687 O 0.94464 0.94685 0.50082 0.0
O688 O 0.99625 0.90959 0.4866 0.0
C689 C 0.09095 0.12938 0.45036 0.0
O690 O 0.10931 0.94568 0.58059 0.0
O691 O 0.09875 1.0128 0.58886 0.0
O692 O 0.98438 0.10765 0.56242 0.0
O693 O 0.9412 0.03328 0.54839 0.0
C694 C 0.95474 0.07204 0.45815 0.0
C695 C 0.95564 0.91926 0.48046 0.0
C696 C 0.99135 0.92585 0.59793 0.0
O697 O 0.99745 0.97039 0.58739 0.0
O698 O 1.00544 0.90318 0.57668 0.0
C699 C 0.14005 0.98607 0.4919 0.0
O700 O 0.13993 0.10846 0.55 0.0
O701 O 0.08977 0.14882 0.56114 0.0
C702 C 0.11751 0.97862 0.60196 0.0
C703 C 0.12961 0.13732 0.56892 0.0
Fe704 Fe 0.53915 0.90866 0.06765 0.0
O705 O 0.54896 0.97848 0.06155 0.0
Fe706 Fe 0.48998 1.0077 1.02598 0.0
Fe707 Fe 0.60411 0.02626 0.03516 0.0
O708 O 0.54215 0.97681 0.05919 0.0
O709 O 0.54479 0.05409 0.99778 0.0
O710 O 0.55193 0.0559 1.0002 0.0
Fe711 Fe 0.55551 0.12421 0.99053 0.0
C712 C 0.64076 0.945 0.10959 0.0
O713 O 0.58885 0.91561 1.02787 0.0
O714 O 0.59552 0.98767 0.9873 0.0
O715 O 0.49601 0.11132 0.94414 0.0
O716 O 0.44396 0.05164 0.98415 0.0
O717 O 0.47254 0.96629 0.97782 0.0
O718 O 0.48503 0.89671 1.01561 0.0
O719 O 0.65304 0.08114 0.99705 0.0
O720 O 0.60656 0.12897 0.95311 0.0
C721 C 0.46666 0.92142 0.98185 0.0
O722 O 0.5076 0.1186 1.03146 0.0
O723 O 0.50278 0.04742 0.07356 0.0
O724 O 0.59788 0.92051 0.11547 0.0
O725 O 0.65019 0.98335 0.07847 0.0
C726 C 0.60327 0.94682 0.99533 0.0
C727 C 0.64445 0.11354 0.96265 0.0
C728 C 0.62411 0.11317 0.07761 0.0
O729 O 0.61715 0.06782 0.0832 0.0
O730 O 0.61048 0.13726 0.04112 0.0
C731 C 0.45326 0.08906 0.95212 0.0
O732 O 0.44173 0.95342 0.06584 0.0
O733 O 0.48737 0.90242 0.10483 0.0
C734 C 0.49497 0.08829 0.06516 0.0
C735 C 0.45042 0.91901 0.09832 0.0
Fe736 Fe 1.04785 0.57046 1.02187 0.0
O737 O 1.00267 0.51211 1.00352 0.0
Fe738 Fe 0.15119 0.5308 0.06065 0.0
Fe739 Fe 0.93332 0.49841 1.00211 0.0
O740 O 0.08314 0.52271 0.0582 0.0
O741 O 0.0816 0.51612 0.0632 0.0
O742 O 1.00146 0.50586 1.00781 0.0
Fe743 Fe 1.03589 0.45755 0.04466 0.0
C744 C 0.96999 0.5614 0.07143 0.0
O745 O 1.00192 0.61318 0.98031 0.0
O746 O 0.94036 0.55757 0.95099 0.0
O747 O 0.07152 0.46789 0.99328 0.0
O748 O 0.14574 0.47913 1.02475 0.0
O749 O 0.15704 0.58353 1.00473 0.0
O750 O 0.08515 0.58483 0.96889 0.0
O751 O 0.93285 0.44721 0.9682 0.0
O752 O 0.98418 0.40535 1.01384 0.0
C753 C 0.13018 0.5966 0.97039 0.0
O754 O 0.08328 0.41585 0.08783 0.0
O755 O 0.14574 0.47395 0.11322 0.0
O756 O 1.01243 0.56003 0.07353 0.0
O757 O 0.93758 0.54668 0.04136 0.0
C758 C 0.96338 0.60152 0.95251 0.0
C759 C 0.95306 0.41213 0.97924 0.0
C760 C 0.94936 0.42877 0.09131 0.0
O761 O 0.92518 0.44341 0.05568 0.0
O762 O 0.99497 0.44133 0.09626 0.0
C763 C 0.11233 0.46187 0.99683 0.0
O764 O 0.15559 0.58515 0.09246 0.0
O765 O 0.09986 0.62378 0.05087 0.0
C766 C 0.12281 0.42942 0.11441 0.0
C767 C 0.13559 0.62028 0.08169 0.0
Fe768 Fe 0.52995 0.50353 0.93369 0.0
O769 O 0.53917 0.49368 0.99783 0.0
Fe770 Fe 0.48391 0.50035 1.02734 0.0
Fe771 Fe 0.59577 0.53346 1.02999 0.0
O772 O 0.53327 0.49134 0.99782 0.0
O773 O 0.54084 0.53786 0.06019 0.0
O774 O 0.54627 0.54351 0.05817 0.0
Fe775 Fe 0.55011 0.53462 0.12209 0.0
C776 C 0.6208 0.47756 0.96934 0.0
O777 O 0.5869 0.56034 0.92632 0.0
O778 O 0.59708 0.59402 0.98275 0.0
O779 O 0.49149 0.56072 0.10872 0.0
O780 O 0.4395 0.51469 0.06274 0.0
O781 O 0.48338 0.56298 0.98644 0.0
O782 O 0.48846 0.55032 0.9225 0.0
O783 O 0.6466 0.58073 0.06883 0.0
O784 O 0.59875 0.59753 0.1085 0.0
C785 C 0.4908 0.57845 0.94745 0.0
O786 O 0.50561 0.46769 0.1331 0.0
O787 O 0.48401 0.43792 0.07187 0.0
O788 O 0.57861 0.46518 0.94812 0.0
O789 O 0.63488 0.50939 0.99451 0.0
C790 C 0.60589 0.59512 0.94533 0.0
C791 C 0.63832 0.60604 0.09356 0.0
C792 C 0.62258 0.48387 0.11587 0.0
O793 O 0.60262 0.47633 0.07828 0.0
O794 O 0.60699 0.50659 0.13578 0.0
C795 C 0.44937 0.54259 0.09059 0.0
O796 O 0.43016 0.46178 0.98619 0.0
O797 O 0.47091 0.44779 0.93899 0.0
C798 C 0.48788 0.43304 0.11314 0.0
C799 C 0.43346 0.44078 0.95625 0.0
Fe800 Fe 0.05881 0.41079 0.54066 0.0
O801 O 0.0709 0.48059 0.53693 0.0
Fe802 Fe 1.03285 0.51807 0.47722 0.0
Fe803 Fe 0.05605 0.5049 0.58457 0.0
O804 O 0.06674 0.48049 0.5298 0.0
O805 O 1.02034 0.54352 0.52527 0.0
O806 O 1.02428 0.54371 0.53181 0.0
Fe807 Fe 1.03065 0.61249 0.5228 0.0
C808 C 0.98913 0.40852 0.60066 0.0
O809 O 0.11703 0.41983 0.58807 0.0
O810 O 0.0941 0.45654 0.63239 0.0
O811 O 0.07297 0.63501 0.47221 0.0
O812 O 0.09582 0.57153 0.47007 0.0
O813 O 0.05549 0.48392 0.43712 0.0
O814 O 0.09293 0.43109 0.48715 0.0
O815 O 0.11944 0.55973 0.58924 0.0
O816 O 0.08977 0.623 0.56865 0.0
C817 C 0.08122 0.45299 0.4479 0.0
O818 O 0.97274 0.60384 0.47469 0.0
O819 O 0.99289 0.56552 0.42987 0.0
O820 O 1.01801 0.38964 0.59155 0.0
O821 O 0.99237 0.4527 0.58747 0.0
C822 C 0.11872 0.42905 0.62591 0.0
C823 C 0.1219 0.60324 0.58999 0.0
C824 C 1.00165 0.5633 0.61389 0.0
O825 O 1.0305 0.5356 0.62476 0.0
O826 O 0.99381 0.58948 0.57564 0.0
C827 C 0.09995 0.6163 0.45947 0.0
O828 O 0.96956 0.46298 0.47672 0.0
O829 O 0.99924 0.39963 0.49587 0.0
C830 C 0.96953 0.59401 0.43678 0.0
C831 C 0.96692 0.41953 0.47587 0.0
Fe832 Fe 0.53995 0.95533 0.54096 0.0
O833 O 0.57643 1.01181 0.56803 0.0
Fe834 Fe 0.5053 1.01365 0.43387 0.0
Fe835 Fe 0.58467 1.01127 0.63052 0.0
O836 O 0.51176 1.00632 0.49854 0.0
O837 O 0.51325 1.01371 0.49643 0.0
O838 O 0.57802 0.01886 0.56594 0.0
Fe839 Fe 0.55093 0.07018 0.5232 0.0
C840 C 0.4909 0.93007 0.6226 0.0
O841 O 0.58026 0.91163 0.59064 0.0
O842 O 0.62554 0.96386 0.635 0.0
O843 O 0.60499 0.08702 0.48365 0.0
O844 O 0.56215 0.07211 0.42049 0.0
O845 O 0.54888 0.96963 0.4376 0.0
O846 O 0.59256 0.96786 0.50269 0.0
O847 O 0.63581 0.07382 0.61691 0.0
O848 O 0.59755 0.12076 0.56107 0.0
C849 C 0.58443 0.95997 0.464 0.0
O850 O 0.51155 0.1144 0.47315 0.0
O851 O 0.46565 0.06302 0.4282 0.0
O852 O 0.48592 0.9359 0.5809 0.0
O853 O 0.52901 0.95136 0.64364 0.0
C854 C 0.6152 0.92358 0.62205 0.0
C855 C 0.63125 0.11472 0.5939 0.0
C856 C 0.5056 0.06564 0.60049 0.0
O857 O 0.54025 0.05456 0.62746 0.0
O858 O 0.49848 0.0595 0.56125 0.0
C859 C 0.60074 0.09151 0.44214 0.0
O860 O 0.45393 0.95091 0.44796 0.0
O861 O 0.49481 0.905 0.50246 0.0
C862 C 0.47681 0.10341 0.44128 0.0
C863 C 0.46072 0.91025 0.46986 0.0
C864 C 0.14678 0.17226 0.34627 0.0
C865 C 0.18995 0.20447 0.35873 0.0
C866 C 0.11405 0.14852 0.37554 0.0
C867 C 0.122 0.15807 0.41765 0.0
H868 H 0.13841 0.16441 0.31394 0.0
H869 H 0.08253 0.12234 0.36528 0.0
S870 S 0.22585 0.24268 0.46579 0.0
N871 N 0.2367 0.24625 0.41638 0.0
N872 N 0.17398 0.20379 0.46987 0.0
C873 C 0.16321 0.19222 0.42978 0.0
C874 C 0.19732 0.21514 0.40067 0.0
C875 C 0.84475 0.98289 0.41858 0.0
C876 C 0.80846 1.00076 0.42438 0.0
C877 C 0.89183 1.00822 0.42793 0.0
C878 C 0.90401 0.04664 0.4498 0.0
H879 H 0.8373 0.95738 0.3975 0.0
H880 H 0.91872 0.99923 0.41599 0.0
S881 S 0.81987 0.08339 0.49697 0.0
N882 N 0.7862 0.04139 0.47059 0.0
N883 N 0.87484 0.08861 0.49073 0.0
C884 C 0.86771 0.05478 0.46676 0.0
C885 C 0.81971 0.02863 0.45655 0.0
C886 C 0.91193 0.89512 0.36697 0.0
C887 C 0.87449 0.85385 0.37299 0.0
C888 C 0.93611 0.91778 0.40172 0.0
C889 C 0.9227 0.90133 0.44359 0.0
H890 H 0.9238 0.9093 0.33559 0.0
H891 H 0.96662 0.94773 0.39612 0.0
S892 S 0.82435 0.79862 0.47676 0.0
N893 N 0.82297 0.79994 0.42462 0.0
N894 N 0.86837 0.84389 0.48905 0.0
C895 C 0.88371 0.86234 0.44978 0.0
C896 C 0.85946 0.83843 0.41468 0.0
C897 C 0.19843 0.94083 0.42395 0.0
C898 C 0.21965 0.98241 0.39578 0.0
C899 C 0.17756 0.94297 0.45827 0.0
C900 C 0.17513 0.98661 0.46527 0.0
H901 H 0.19439 0.90572 0.41802 0.0
H902 H 0.15986 0.90969 0.4774 0.0
S903 S 0.23033 0.106 0.40616 0.0
N904 N 0.24395 0.06914 0.38288 0.0
N905 N 0.19935 0.07251 0.44478 0.0
C906 C 0.19906 0.0286 0.44006 0.0
C907 C 0.22224 0.02661 0.40581 0.0
C908 C 0.19399 1.00551 0.70555 0.0
C909 C 0.23956 1.01478 0.69485 0.0
C910 C 0.15413 0.99186 0.67551 0.0
C911 C 0.15901 0.98651 0.6345 0.0
H912 H 0.18927 1.00527 0.73831 0.0
H913 H 0.1193 0.98426 0.68465 0.0
S914 S 0.27071 1.01081 0.58991 0.0
N915 N 0.28752 0.02123 0.63988 0.0
N916 N 0.21232 0.99511 0.58328 0.0
C917 C 0.20428 0.99794 0.62273 0.0
C918 C 0.24473 1.01267 0.65293 0.0
C919 C 0.2242 0.20295 0.64656 0.0
C920 C 0.20868 0.18117 0.68758 0.0
C921 C 0.20014 0.18747 0.60808 0.0
C922 C 0.15996 0.14917 0.60914 0.0
H923 H 0.25456 0.23331 0.64349 0.0
H924 H 0.212 0.20664 0.57731 0.0
S925 S 0.10922 0.07397 0.70706 0.0
N926 N 0.15426 0.1145 0.72628 0.0
N927 N 0.10806 0.08626 0.6538 0.0
C928 C 0.14577 0.12491 0.64966 0.0
C929 C 0.17046 0.1405 0.68893 0.0
C930 C 0.90849 0.1237 0.63772 0.0
C931 C 0.93479 0.10869 0.67752 0.0
C932 C 0.90412 0.10265 0.60188 0.0
C933 C 0.92627 0.06633 0.60481 0.0
H934 H 0.89611 0.15537 0.63281 0.0
H935 H 0.88978 0.11991 0.57041 0.0
S936 S 0.98981 1.00803 0.70503 0.0
N937 N 0.97521 0.04997 0.72048 0.0
N938 N 0.96861 1.01151 0.65288 0.0
C939 C 0.94663 0.04682 0.64621 0.0
C940 C 0.95089 0.06807 0.68267 0.0
C941 C 0.94458 0.83926 0.69714 0.0
C942 C 0.90413 0.85328 0.69878 0.0
C943 C 0.97315 0.86278 0.66436 0.0
C944 C 0.96113 0.89982 0.63177 0.0
H945 H 0.95433 0.81035 0.72148 0.0
H946 H 1.00482 0.85233 0.66464 0.0
S947 S 0.8544 0.94378 0.61799 0.0
N948 N 0.85241 0.90451 0.66408 0.0
N949 N 0.90254 0.94444 0.59996 0.0
C950 C 0.91943 0.91214 0.63205 0.0
C951 C 0.89195 0.89008 0.66636 0.0
C952 C 0.38312 0.11408 0.07958 0.0
C953 C 0.38278 0.1017 0.12479 0.0
C954 C 0.42049 0.11118 0.06105 0.0
C955 C 0.45897 0.09535 0.08684 0.0
H956 H 0.35394 0.12571 0.05822 0.0
H957 H 0.41817 0.11964 1.02602 0.0
S958 S 0.47645 0.0604 0.207 0.0
N959 N 0.42534 0.07463 0.19524 0.0
N960 N 0.49527 0.06826 0.15997 0.0
C961 C 0.4596 0.08344 0.13213 0.0
C962 C 0.42176 0.08712 0.15121 0.0
C963 C 0.9026 0.36509 0.20174 0.0
C964 C 0.8573 0.33624 0.18851 0.0
C965 C 0.93365 0.39346 0.17112 0.0
C966 C 0.92069 0.39438 0.12586 0.0
H967 H 0.91364 0.36675 0.23585 0.0
H968 H 0.9672 0.41597 0.18286 0.0
S969 S 0.80783 0.32175 0.07514 0.0
N970 N 0.8025 0.30949 0.12726 0.0
N971 N 0.86008 0.35985 0.07082 0.0
C972 C 0.876 0.36434 0.11293 0.0
C973 C 0.84455 0.33647 0.14375 0.0
C974 C 0.73506 0.8987 0.20078 0.0
C975 C 0.73258 0.85386 0.19158 0.0
C976 C 0.70867 0.93049 0.17291 0.0
C977 C 0.6786 0.91921 0.13426 0.0
H978 H 0.75515 0.90809 0.23104 0.0
H979 H 0.70985 0.96282 0.18306 0.0
S980 S 0.66134 0.80809 0.09385 0.0
N981 N 0.69897 0.80251 0.13904 0.0
N982 N 0.64976 0.85975 0.08883 0.0
C983 C 0.67737 0.87536 0.12447 0.0
C984 C 0.70393 0.84357 0.15239 0.0
C985 C 0.14495 0.69381 0.16643 0.0
C986 C 0.19404 0.71357 0.17483 0.0
C987 C 0.1254 0.66658 0.13355 0.0
C988 C 0.15452 0.65767 0.10859 0.0
H989 H 0.12183 0.6978 0.18654 0.0
H990 H 0.08771 0.65001 0.12949 0.0
S991 S 0.28473 0.70412 0.11616 0.0
N992 N 0.27075 0.72431 0.15415 0.0
N993 N 0.23437 0.67328 0.09292 0.0
C994 C 0.20333 0.67887 0.11571 0.0
C995 C 0.22302 0.70675 0.14873 0.0
C996 C 0.36008 0.85386 0.91086 0.0
C997 C 0.38111 0.83778 0.88345 0.0
C998 C 0.38763 0.88227 0.94142 0.0
C999 C 0.4375 0.89586 0.94612 0.0
H1000 H 0.32197 0.84387 0.90921 0.0
H1001 H 0.36974 0.89269 0.96227 0.0
S1002 S 0.50993 0.86567 0.88111 0.0
N1003 N 0.45519 0.84048 0.86202 0.0
N1004 N 0.50626 0.89148 0.92002 0.0
C1005 C 0.45872 0.88057 0.91864 0.0
C1006 C 0.43081 0.85239 0.8872 0.0
C1007 C 0.1463 0.40099 0.92034 0.0
C1008 C 0.11699 0.35428 0.92906 0.0
C1009 C 0.14623 0.43582 0.94327 0.0
C1010 C 0.11684 0.4249 0.97552 0.0
H1011 H 0.16812 0.41106 0.89468 0.0
H1012 H 0.168 0.47173 0.93474 0.0
S1013 S 1.03884 0.30649 1.01476 0.0
N1014 N 0.06178 0.29818 0.97538 0.0
N1015 N 0.06133 0.36319 1.01766 0.0
C1016 C 0.08921 0.3779 0.98573 0.0
C1017 C 0.08939 0.34269 0.96275 0.0
C1018 C 0.68716 0.15496 0.8516 0.0
C1019 C 0.73213 0.18641 0.85912 0.0
C1020 C 0.66088 0.12937 0.88582 0.0
C1021 C 0.67799 0.13394 0.92948 0.0
H1022 H 0.67163 0.15075 0.81864 0.0
H1023 H 0.62597 0.10668 0.87779 0.0
S1024 S 0.79103 0.216 0.96666 0.0
N1025 N 0.79096 0.22337 0.91377 0.0
N1026 N 0.74174 0.1752 0.97778 0.0
C1027 C 0.72276 0.16551 0.93763 0.0
C1028 C 0.74964 0.19178 0.90263 0.0
C1029 C 0.92303 0.69982 0.8596 0.0
C1030 C 0.87638 0.69536 0.86669 0.0
C1031 C 0.95289 0.67222 0.88844 0.0
C1032 C 0.93752 0.63862 0.92571 0.0
H1033 H 0.93574 0.723 0.83047 0.0
H1034 H 0.98727 0.67557 0.88023 0.0
S1035 S 0.82051 0.61525 0.96087 0.0
N1036 N 0.81836 0.65541 0.91556 0.0
N1037 N 0.87318 0.60524 0.96849 0.0
C1038 C 0.89186 0.63536 0.93354 0.0
C1039 C 0.86179 0.66289 0.90447 0.0
C1040 C 0.17901 0.32177 0.16785 0.0
C1041 C 0.2141 0.33902 0.20169 0.0
C1042 C 0.14732 0.34872 0.141 0.0
C1043 C 0.1475 0.39403 0.14746 0.0
H1044 H 0.17642 0.28784 0.16086 0.0
H1045 H 0.12395 0.33469 0.1139 0.0
S1046 S 0.2221 0.45057 0.23862 0.0
N1047 N 0.23982 0.4023 0.24329 0.0
N1048 N 0.18003 0.44978 0.19649 0.0
C1049 C 0.17855 0.40892 0.18413 0.0
C1050 C 0.21141 0.38249 0.21015 0.0
C1051 C 0.16426 0.64533 0.85444 0.0
C1052 C 0.20773 0.67995 0.86086 0.0
C1053 C 0.13768 0.62034 0.88902 0.0
C1054 C 0.15401 0.62778 0.93204 0.0
H1055 H 0.15125 0.63654 0.82249 0.0
H1056 H 0.10532 0.59334 0.88235 0.0
S1057 S 0.26411 0.71587 0.9667 0.0
N1058 N 0.26418 0.72135 0.91415 0.0
N1059 N 0.21546 0.67448 0.9783 0.0
C1060 C 0.1967 0.66316 0.9386 0.0
C1061 C 0.22325 0.68899 0.90346 0.0
C1062 C 0.35284 0.13268 0.86738 0.0
C1063 C 0.36265 0.18118 0.87069 0.0
C1064 C 0.37919 0.10114 0.8956 0.0
C1065 C 0.4166 0.1166 0.92844 0.0
H1066 H 0.32632 0.11959 0.84155 0.0
H1067 H 0.37186 0.06526 0.89006 0.0
S1068 S 0.45488 0.23915 0.95188 0.0
N1069 N 0.41137 0.24146 0.9111 0.0
N1070 N 0.46004 0.18409 0.96234 0.0
C1071 C 0.42519 0.16449 0.93247 0.0
C1072 C 0.39871 0.19605 0.90424 0.0
C1073 C 0.90978 0.30686 0.9208 0.0
C1074 C 0.91543 0.32935 0.87728 0.0
C1075 C 0.92413 0.33298 0.95471 0.0
C1076 C 0.94448 0.38236 0.94606 0.0
H1077 H 0.89178 0.26945 0.92841 0.0
H1078 H 0.91706 0.31495 0.98728 0.0
S1079 S 0.97516 0.45635 0.83978 0.0
N1080 N 0.94911 0.40265 0.82921 0.0
N1081 N 0.97519 0.45144 0.8923 0.0
C1082 C 0.95343 0.40438 0.90347 0.0
C1083 C 0.93919 0.37796 0.86925 0.0
C1084 C 0.72252 0.93368 0.98476 0.0
C1085 C 0.71914 0.93363 0.94029 0.0
C1086 C 0.68424 0.93657 1.00209 0.0
C1087 C 0.64139 0.94071 0.97558 0.0
H1088 H 0.75556 0.93301 1.00607 0.0
H1089 H 0.6892 0.93802 0.03618 0.0
S1090 S 0.61541 0.94462 0.85658 0.0
N1091 N 0.66899 0.93609 0.87032 0.0
N1092 N 0.59923 0.94774 0.90202 0.0
C1093 C 0.63763 0.94094 0.93106 0.0
C1094 C 0.67576 0.93522 0.91378 0.0
C1095 C 0.94068 0.65739 0.11131 0.0
C1096 C 0.96265 0.65231 0.15501 0.0
C1097 C 0.93964 0.62539 0.08509 0.0
C1098 C 0.96087 0.58738 0.10149 0.0
H1099 H 0.92647 0.68776 0.09647 0.0
H1100 H 0.92497 0.63236 0.05103 0.0
S1101 S 1.01499 0.55292 0.21531 0.0
N1102 N 0.9995 0.60157 0.21489 0.0
N1103 N 0.99928 0.54303 0.16513 0.0
C1104 C 0.98 0.58001 0.14568 0.0
C1105 C 0.98044 0.61201 0.17253 0.0
C1106 C 0.41499 0.8578 0.21049 0.0
C1107 C 0.36615 0.83635 0.2029 0.0
C1108 C 0.44033 0.88724 0.1769 0.0
C1109 C 0.41866 0.89672 0.13328 0.0
H1110 H 0.43435 0.85067 0.24282 0.0
H1111 H 0.47812 0.90127 0.18502 0.0
S1112 S 0.29124 0.84973 0.09492 0.0
N1113 N 0.29667 0.82758 0.14771 0.0
N1114 N 0.3444 0.88253 0.08467 0.0
C1115 C 0.36942 0.8769 0.12515 0.0
C1116 C 0.3433 0.84672 0.15973 0.0
C1117 C 0.70675 0.1463 0.1815 0.0
C1118 C 0.70661 0.19394 0.18026 0.0
C1119 C 0.67948 0.12023 0.14932 0.0
C1120 C 0.65079 0.14037 0.11356 0.0
H1121 H 0.72837 0.12861 0.20777 0.0
H1122 H 0.68176 0.08419 0.15215 0.0
S1123 S 0.63567 0.26315 0.09516 0.0
N1124 N 0.6735 0.25931 0.14048 0.0
N1125 N 0.62284 0.21129 0.08011 0.0
C1126 C 0.64963 0.18779 0.11227 0.0
C1127 C 0.67715 0.21416 0.14542 0.0
C1128 C 0.68139 0.7121 0.89019 0.0
C1129 C 0.70786 0.69509 0.8687 0.0
C1130 C 0.65038 0.6802 0.91851 0.0
C1131 C 0.64589 0.63094 0.92623 0.0
H1132 H 0.68304 0.7497 0.88362 0.0
H1133 H 0.62855 0.69382 0.93265 0.0
S1134 S 0.71557 0.57058 0.88545 0.0
N1135 N 0.73171 0.62673 0.86169 0.0
N1136 N 0.67696 0.56847 0.91644 0.0
C1137 C 0.67588 0.6148 0.90825 0.0
C1138 C 0.70579 0.64641 0.87887 0.0
C1139 C 0.55173 0.70433 0.96351 0.0
C1140 C 0.53945 0.72961 0.9219 0.0
C1141 C 0.53358 0.65497 0.97154 0.0
C1142 C 0.51399 0.63009 0.93674 0.0
H1143 H 0.56293 0.7219 0.99119 0.0
H1144 H 0.53435 0.63666 1.00518 0.0
S1145 S 0.52726 0.68403 0.82142 0.0
N1146 N 0.54282 0.72986 0.84639 0.0
N1147 N 0.5134 0.63567 0.85922 0.0
C1148 C 0.52204 0.65576 0.89476 0.0
C1149 C 0.5387 0.70656 0.88798 0.0
C1150 C 0.35477 0.32929 0.92282 0.0
C1151 C 0.34125 0.34627 0.87836 0.0
C1152 C 0.38014 0.36092 0.95068 0.0
C1153 C 0.39143 0.41033 0.9351 0.0
H1154 H 0.34879 0.29141 0.93546 0.0
H1155 H 0.39425 0.3466 0.98349 0.0
S1156 S 0.358 0.47287 0.82341 0.0
N1157 N 0.33649 0.41581 0.82152 0.0
N1158 N 0.38337 0.47488 0.87405 0.0
C1159 C 0.37439 0.42764 0.89186 0.0
C1160 C 0.34952 0.39569 0.86338 0.0
C1161 C 0.67999 0.43334 0.90104 0.0
C1162 C 0.70221 0.40175 0.93172 0.0
C1163 C 0.65599 0.45981 0.91415 0.0
C1164 C 0.65527 0.45758 0.95841 0.0
H1165 H 0.67741 0.4344 0.86654 0.0
H1166 H 0.63574 0.48053 0.88924 0.0
S1167 S 0.71082 0.38242 0.05162 0.0
N1168 N 0.72386 0.37064 1.00831 0.0
N1169 N 0.67985 0.42232 0.03304 0.0
C1170 C 0.67987 0.4284 0.98961 0.0
C1171 C 0.70332 0.40017 0.9762 0.0
C1172 C 0.7354 0.48253 0.19224 0.0
C1173 C 0.76999 0.49631 0.16432 0.0
C1174 C 0.68761 0.4756 0.17575 0.0
C1175 C 0.67262 0.48371 0.13076 0.0
H1176 H 0.74533 0.47428 0.22721 0.0
H1177 H 0.66215 0.46418 0.19846 0.0
S1178 S 0.75157 0.53104 0.04511 0.0
N1179 N 0.7878 0.52231 0.09078 0.0
N1180 N 0.69822 0.51512 0.05943 0.0
C1181 C 0.70764 0.50105 0.10285 0.0
C1182 C 0.75634 0.50622 0.11975 0.0
C1183 C 0.6902 0.69791 0.16299 0.0
C1184 C 0.73739 0.69676 0.17479 0.0
C1185 C 0.66096 0.67406 0.13121 0.0
C1186 C 0.67608 0.64363 0.11269 0.0
H1187 H 0.67522 0.71682 0.17904 0.0
H1188 H 0.62466 0.67653 0.1239 0.0
S1189 S 0.79855 0.63092 0.1308 0.0
N1190 N 0.80052 0.66779 0.16256 0.0
N1191 N 0.74346 0.61732 0.10606 0.0
C1192 C 0.72413 0.64361 0.12281 0.0
C1193 C 0.75507 0.67087 0.15362 0.0
C1194 C 0.39184 0.59764 0.15104 0.0
C1195 C 0.35807 0.55819 0.16993 0.0
C1196 C 0.41776 0.59344 0.12111 0.0
C1197 C 0.41103 0.54969 0.10881 0.0
H1198 H 0.40091 0.63128 0.16173 0.0
H1199 H 0.44579 0.62388 0.10996 0.0
S1200 S 0.32122 0.43771 0.14265 0.0
N1201 N 0.31442 0.47564 0.16926 0.0
N1202 N 0.3643 0.46752 0.11357 0.0
C1203 C 0.37451 0.51102 0.12427 0.0
C1204 C 0.34792 0.51527 0.15489 0.0
C1205 C 0.38772 0.33205 0.15249 0.0
C1206 C 0.40298 0.32278 0.19768 0.0
C1207 C 0.41741 0.36431 0.12375 0.0
C1208 C 0.46352 0.38806 0.13928 0.0
H1209 H 0.35173 0.31708 0.13926 0.0
H1210 H 0.40279 0.37369 0.08994 0.0
S1211 S 0.52489 0.3666 0.25224 0.0
N1212 N 0.47046 0.33264 0.2549 0.0
N1213 N 0.52616 0.39354 0.20088 0.0
C1214 C 0.48098 0.3749 0.1834 0.0
C1215 C 0.45077 0.34218 0.21264 0.0
C1216 C 0.90099 0.57671 0.66064 0.0
C1217 C 0.91968 0.579 0.70431 0.0
C1218 C 0.9276 0.57041 0.63234 0.0
C1219 C 0.97385 0.56526 0.64651 0.0
H1220 H 0.86539 0.57995 0.64804 0.0
H1221 H 0.91165 0.56962 0.59885 0.0
S1222 S 1.03966 0.56836 0.75763 0.0
N1223 N 0.98784 0.5758 0.76046 0.0
N1224 N 1.0373 0.56233 0.70718 0.0
C1225 C 0.99273 0.566 0.69035 0.0
C1226 C 0.96578 0.5732 0.71925 0.0
C1227 C 0.3808 0.82935 0.65793 0.0
C1228 C 0.38071 0.83187 0.70157 0.0
C1229 C 0.41566 0.8608 0.63248 0.0
C1230 C 0.45229 0.89705 0.64911 0.0
H1231 H 0.35305 0.80305 0.64295 0.0
H1232 H 0.4138 0.85657 0.59945 0.0
S1233 S 0.46603 0.9223 0.76032 0.0
N1234 N 0.4193 0.87632 0.75889 0.0
N1235 N 0.48419 0.93424 0.71249 0.0
C1236 C 0.4521 0.90022 0.69268 0.0
C1237 C 0.41661 0.86833 0.71833 0.0
C1238 C 0.1525 0.31445 0.68939 0.0
C1239 C 0.19491 0.32847 0.71753 0.0
C1240 C 0.12766 0.34713 0.66287 0.0
C1241 C 0.14277 0.39661 0.66255 0.0
H1242 H 0.1379 0.27711 0.6878 0.0
H1243 H 0.09614 0.33324 0.64146 0.0
S1244 S 0.25085 0.45352 0.73098 0.0
N1245 N 0.24988 0.39643 0.74463 0.0
N1246 N 0.20431 0.45798 0.6937 0.0
C1247 C 0.18504 0.41163 0.69078 0.0
C1248 C 0.21056 0.3778 0.71837 0.0
C1249 C 0.74279 0.17898 0.65585 0.0
C1250 C 0.72675 0.20708 0.67609 0.0
C1251 C 0.71284 0.1537 0.62464 0.0
C1252 C 0.66544 0.15568 0.61148 0.0
H1253 H 0.77843 0.17489 0.66538 0.0
H1254 H 0.72601 0.12963 0.6129 0.0
S1255 S 0.6081 0.23088 0.64776 0.0
N1256 N 0.66171 0.24024 0.67593 0.0
N1257 N 0.60572 0.1931 0.61684 0.0
C1258 C 0.65022 0.18726 0.62802 0.0
C1259 C 0.68076 0.21287 0.66033 0.0
C1260 C 0.92386 0.34877 0.38472 0.0
C1261 C 0.87755 0.3223 0.39148 0.0
C1262 C 0.95057 0.3829 0.41006 0.0
C1263 C 0.93252 0.39279 0.44343 0.0
H1264 H 0.93974 0.34332 0.35941 0.0
H1265 H 0.98658 0.40083 0.40429 0.0
S1266 S 0.81417 0.33225 0.47626 0.0
N1267 N 0.81531 0.30796 0.43539 0.0
N1268 N 0.86573 0.37174 0.48273 0.0
C1269 C 0.88634 0.36679 0.45061 0.0
C1270 C 0.85893 0.33185 0.42476 0.0
C1271 C 0.67617 0.89126 0.4699 0.0
C1272 C 0.66038 0.86941 0.43313 0.0
C1273 C 0.65287 0.92186 0.47878 0.0
C1274 C 0.6129 0.93282 0.45096 0.0
H1275 H 0.70622 0.8836 0.49283 0.0
H1276 H 0.66565 0.93596 0.5084 0.0
S1277 S 0.55945 0.88852 0.34799 0.0
N1278 N 0.60333 0.86309 0.36756 0.0
N1279 N 0.56105 0.92192 0.38271 0.0
C1280 C 0.59856 0.91358 0.41255 0.0
C1281 C 0.62189 0.88178 0.40397 0.0
C1282 C 0.20537 0.69545 0.39874 0.0
C1283 C 0.18428 0.70259 0.35465 0.0
C1284 C 0.17862 0.66728 0.43267 0.0
C1285 C 0.12957 0.6455 0.4241 0.0
H1286 H 0.2425 0.71227 0.40714 0.0
H1287 H 0.19635 0.66302 0.46587 0.0
S1288 S 0.05777 0.6519 0.31478 0.0
N1289 N 0.11117 0.68431 0.30513 0.0
N1290 N 0.06205 0.63258 0.36792 0.0
C1291 C 0.10859 0.65225 0.38032 0.0
C1292 C 0.13547 0.68054 0.34607 0.0
C1293 C 0.41617 0.18757 0.34831 0.0
C1294 C 0.3747 0.18708 0.3637 0.0
C1295 C 0.45036 0.16324 0.37416 0.0
C1296 C 0.446 0.13776 0.41747 0.0
H1297 H 0.42105 0.20462 0.31504 0.0
H1298 H 0.47975 0.16296 0.35934 0.0
S1299 S 0.34591 0.12645 0.47479 0.0
N1300 N 0.33316 0.15885 0.42658 0.0
N1301 N 0.39656 0.11525 0.47413 0.0
C1302 C 0.40571 0.13847 0.43355 0.0
C1303 C 0.37062 0.16231 0.40714 0.0
C1304 C 0.73178 0.88767 0.66876 0.0
C1305 C 0.72126 0.84825 0.70325 0.0
C1306 C 0.69681 0.90832 0.64059 0.0
C1307 C 0.64832 0.89161 0.64503 0.0
H1308 H 0.76812 0.90446 0.66442 0.0
H1309 H 0.70842 0.93967 0.61627 0.0
S1310 S 0.60052 0.79246 0.7328 0.0
N1311 N 0.65758 0.79526 0.74153 0.0
N1312 N 0.59213 0.83374 0.68937 0.0
C1313 C 0.63678 0.85208 0.67946 0.0
C1314 C 0.67282 0.83073 0.70821 0.0
C1315 C 0.68602 0.12114 0.35793 0.0
C1316 C 0.71339 0.1684 0.35907 0.0
C1317 C 0.65106 0.09698 0.3853 0.0
C1318 C 0.64169 0.11791 0.41657 0.0
H1319 H 0.69139 0.10229 0.33518 0.0
H1320 H 0.63106 0.06111 0.38193 0.0
S1321 S 0.70095 0.24118 0.43327 0.0
N1322 N 0.72671 0.23541 0.39451 0.0
N1323 N 0.66193 0.1898 0.44604 0.0
C1324 C 0.66855 0.16502 0.41847 0.0
C1325 C 0.70393 0.19018 0.38988 0.0
C1326 C 0.93265 0.70842 0.37679 0.0
C1327 C 0.89152 0.69533 0.3469 0.0
C1328 C 0.95786 0.67568 0.40249 0.0
C1329 C 0.94455 0.62667 0.40064 0.0
H1330 H 0.94606 0.74526 0.38044 0.0
H1331 H 0.98841 0.68922 0.42505 0.0
S1332 S 0.84025 0.57179 0.32668 0.0
N1333 N 0.83964 0.62851 0.31562 0.0
N1334 N 0.88588 0.5667 0.36499 0.0
C1335 C 0.90352 0.61242 0.37053 0.0
C1336 C 0.87756 0.64648 0.34364 0.0
C1337 C 0.42208 0.82432 0.39245 0.0
C1338 C 0.37267 0.81737 0.38518 0.0
C1339 C 0.45077 0.84972 0.42448 0.0
C1340 C 0.43102 0.86897 0.45026 0.0
H1341 H 0.43884 0.81247 0.37167 0.0
H1342 H 0.48882 0.85746 0.42677 0.0
S1343 S 0.30317 0.85341 0.44877 0.0
N1344 N 0.30498 0.82628 0.41011 0.0
N1345 N 0.35872 0.87448 0.46939 0.0
C1346 C 0.3815 0.85905 0.44527 0.0
C1347 C 0.3524 0.83319 0.41295 0.0
C1348 C 0.16517 0.47709 0.36886 0.0
C1349 C 0.1809 0.43528 0.38175 0.0
C1350 C 0.12571 0.48033 0.38448 0.0
C1351 C 0.10302 0.44292 0.41483 0.0
H1352 H 0.18506 0.50799 0.34868 0.0
H1353 H 0.11519 0.51315 0.37608 0.0
S1354 S 0.12007 0.32083 0.4459 0.0
N1355 N 0.1626 0.35171 0.41658 0.0
N1356 N 0.08959 0.35845 0.44656 0.0
C1357 C 0.11336 0.39858 0.42165 0.0
C1358 C 0.15261 0.39483 0.40529 0.0
C1359 C 0.40741 0.12562 0.59679 0.0
C1360 C 0.42348 0.15094 0.63142 0.0
C1361 C 0.43301 0.097 0.58807 0.0
C1362 C 0.47571 0.0911 0.61396 0.0
H1363 H 0.37494 0.12859 0.57539 0.0
H1364 H 0.4194 0.07979 0.56031 0.0
S1365 S 0.52996 0.14222 0.7133 0.0
N1366 N 0.48338 0.16376 0.69446 0.0
N1367 N 0.52985 0.10841 0.67945 0.0
C1368 C 0.49038 0.11297 0.65081 0.0
C1369 C 0.46473 0.143 0.65924 0.0
C1370 C 0.87671 0.33044 0.64805 0.0
C1371 C 0.89247 0.32032 0.69314 0.0
C1372 C 0.90754 0.36012 0.61834 0.0
C1373 C 0.95571 0.37986 0.63238 0.0
H1374 H 0.84039 0.31468 0.63558 0.0
H1375 H 0.89387 0.36659 0.584 0.0
S1376 S 1.01513 0.36352 0.74662 0.0
N1377 N 0.9598 0.33247 0.74996 0.0
N1378 N 1.01744 0.38701 0.69452 0.0
C1379 C 0.97179 0.37002 0.6773 0.0
C1380 C 0.94037 0.34047 0.70751 0.0
C1381 C 0.20962 0.63573 0.69181 0.0
C1382 C 0.21446 0.68507 0.68768 0.0
C1383 C 0.18227 0.60969 0.65939 0.0
C1384 C 0.15875 0.63179 0.62071 0.0
H1385 H 0.22589 0.6165 0.7211 0.0
H1386 H 0.1781 0.57162 0.66555 0.0
S1387 S 0.16471 0.76157 0.59113 0.0
N1388 N 0.19597 0.75529 0.63999 0.0
N1389 N 0.14626 0.70792 0.5791 0.0
C1390 C 0.16529 0.68171 0.61545 0.0
C1391 C 0.19244 0.7078 0.64873 0.0
loop_
_geom_bond_atom_site_label_1
_geom_bond_atom_site_label_2
_geom_bond_distance
_geom_bond_site_symmetry_2
_ccdc_geom_bond_type
Eu0 N31 2.657 . S
Eu0 N38 2.609 . S
Eu0 O44 2.558 . S
Eu0 O45 2.612 . S
Eu0 O47 2.339 . S
Eu0 O48 2.563 . S
Eu0 O49 2.419 . S
Eu0 O51 2.380 . S
Eu0 O52 2.432 . S
Eu0 C64 2.848 . S
C1 C4 1.429 . S
C1 C5 1.411 . S
C1 N8 1.377 . S
C2 C4 1.420 . S
C2 C6 1.423 . S
C2 C14 1.392 . S
C3 C5 1.420 . S
C3 C6 1.351 . S
C3 H26 0.931 . S
C4 C1 1.429 . S
C4 C2 1.420 . S
C4 N12 1.362 . S
C5 C1 1.411 . S
C5 C3 1.420 . S
C5 C10 1.395 . S
C6 C2 1.423 . S
C6 C3 1.351 . S
C6 H18 0.930 . S
C7 C9 1.400 . S
C7 C10 1.386 . S
C7 H19 0.930 . S
N8 C1 1.377 . S
N8 C9 1.321 . S
N8 Eu11 2.609 . S
C9 C7 1.400 . S
C9 N8 1.321 . S
C9 H16 0.930 . S
C10 C5 1.395 . S
C10 C7 1.386 . S
C10 H29 0.930 . S
Eu11 N8 2.609 . S
Eu11 N12 2.657 . S
Eu11 O45 2.380 . S
Eu11 O46 2.432 . S
Eu11 O50 2.558 . S
Eu11 O51 2.612 . S
Eu11 O53 2.339 . S
Eu11 O54 2.563 . S
Eu11 O55 2.419 . S
Eu11 C75 2.848 . S
N12 C4 1.362 . S
N12 Eu11 2.657 . S
N12 C13 1.334 . S
C13 N12 1.334 . S
C13 C15 1.413 . S
C13 H20 0.929 . S
C14 C2 1.392 . S
C14 C15 1.367 . S
C14 H22 0.930 . S
C15 C13 1.413 . S
C15 C14 1.367 . S
C15 H17 0.930 . S
H16 C9 0.930 . S
H17 C15 0.930 . S
H18 C6 0.930 . S
H19 C7 0.930 . S
H20 C13 0.929 . S
H21 C35 0.930 . S
H22 C14 0.930 . S
H23 C41 0.930 . S
H24 C32 0.929 . S
H25 C39 0.930 . S
H26 C3 0.931 . S
H27 C33 0.930 . S
H28 C66 0.930 . S
H29 C10 0.930 . S
H30 C65 0.931 . S
N31 Eu0 2.657 . S
N31 C32 1.334 . S
N31 C36 1.362 . S
C32 H24 0.929 . S
C32 N31 1.334 . S
C32 C35 1.413 . S
C33 H27 0.930 . S
C33 C34 1.392 . S
C33 C35 1.367 . S
C34 C33 1.392 . S
C34 C36 1.420 . S
C34 C66 1.423 . S
C35 H21 0.930 . S
C35 C32 1.413 . S
C35 C33 1.367 . S
C36 N31 1.362 . S
C36 C34 1.420 . S
C36 C40 1.429 . S
H37 C42 0.930 . S
N38 Eu0 2.609 . S
N38 C40 1.377 . S
N38 C41 1.321 . S
C39 H25 0.930 . S
C39 C41 1.400 . S
C39 C42 1.386 . S
C40 C36 1.429 . S
C40 N38 1.377 . S
C40 C43 1.411 . S
C41 H23 0.930 . S
C41 N38 1.321 . S
C41 C39 1.400 . S
C42 H37 0.930 . S
C42 C39 1.386 . S
C42 C43 1.395 . S
C43 C40 1.411 . S
C43 C42 1.395 . S
C43 C65 1.420 . S
O44 Eu0 2.558 . S
O44 C64 1.257 . S
O45 Eu0 2.612 . S
O45 Eu11 2.380 . S
O45 C56 1.276 . S
O46 Eu11 2.432 . S
O46 C63 1.264 . S
O47 Eu0 2.339 . S
O47 C63 1.254 . S
O48 Eu0 2.563 . S
O48 C56 1.235 . S
O49 Eu0 2.419 . S
O49 C64 1.249 . S
O50 Eu11 2.558 . S
O50 C75 1.257 . S
O51 Eu0 2.380 . S
O51 Eu11 2.612 . S
O51 C67 1.276 . S
O52 Eu0 2.432 . S
O52 C74 1.264 . S
O53 Eu11 2.339 . S
O53 C74 1.254 . S
O54 Eu11 2.563 . S
O54 C67 1.235 . S
O55 Eu11 2.419 . S
O55 C75 1.249 . S
C56 O45 1.276 . S
C56 O48 1.235 . S
C57 C59 1.393 . S
C57 C61 1.395 . S
C57 C64 1.492 . S
C58 C59 1.392 . S
C58 C60 1.386 . S
C59 C57 1.393 . S
C59 C58 1.392 . S
C59 H76 0.930 . S
C60 C58 1.386 . S
C60 C62 1.395 . S
C60 H77 0.930 . S
C61 C57 1.395 . S
C61 C62 1.379 . S
C61 H78 0.930 . S
C62 C60 1.395 . S
C62 C61 1.379 . S
C62 H79 0.930 . S
C63 O46 1.264 . S
C63 O47 1.254 . S
C64 Eu0 2.848 . S
C64 O44 1.257 . S
C64 O49 1.249 . S
C64 C57 1.492 . S
C65 H30 0.931 . S
C65 C43 1.420 . S
C65 C66 1.351 . S
C66 H28 0.930 . S
C66 C34 1.423 . S
C66 C65 1.351 . S
C67 O51 1.276 . S
C67 O54 1.235 . S
C68 C69 1.393 . S
C68 C72 1.395 . S
C68 C75 1.492 . S
C69 C68 1.393 . S
C69 C70 1.392 . S
C69 H80 0.930 . S
C70 C69 1.392 . S
C70 C71 1.386 . S
C71 C70 1.386 . S
C71 C73 1.395 . S
C71 H81 0.930 . S
C72 C68 1.395 . S
C72 C73 1.379 . S
C72 H82 0.930 . S
C73 C71 1.395 . S
C73 C72 1.379 . S
C73 H83 0.930 . S
C74 O52 1.264 . S
C74 O53 1.254 . S
C75 Eu11 2.848 . S
C75 O50 1.257 . S
C75 O55 1.249 . S
C75 C68 1.492 . S
H76 C59 0.930 . S
H77 C60 0.930 . S
H78 C61 0.930 . S
H79 C62 0.930 . S
H80 C69 0.930 . S
H81 C71 0.930 . S
H82 C72 0.930 . S
H83 C73 0.930 . S
Eu84 N115 2.657 . S
Eu84 N122 2.609 . S
Eu84 O128 2.558 . S
Eu84 O129 2.612 . S
Eu84 O131 2.339 . S
Eu84 O132 2.563 . S
Eu84 O133 2.419 . S
Eu84 O135 2.380 . S
Eu84 O136 2.432 . S
Eu84 C148 2.848 . S
C85 C88 1.429 . S
C85 C89 1.411 . S
C85 N92 1.377 . S
C86 C88 1.420 . S
C86 C90 1.423 . S
C86 C98 1.392 . S
C87 C89 1.420 . S
C87 C90 1.351 . S
C87 H110 0.931 . S
C88 C85 1.429 . S
C88 C86 1.420 . S
C88 N96 1.362 . S
C89 C85 1.411 . S
C89 C87 1.420 . S
C89 C94 1.395 . S
C90 C86 1.423 . S
C90 C87 1.351 . S
C90 H102 0.930 . S
C91 C93 1.400 . S
C91 C94 1.386 . S
C91 H103 0.930 . S
N92 C85 1.377 . S
N92 C93 1.321 . S
N92 Eu95 2.609 . S
C93 C91 1.400 . S
C93 N92 1.321 . S
C93 H100 0.930 . S
C94 C89 1.395 . S
C94 C91 1.386 . S
C94 H113 0.930 . S
Eu95 N92 2.609 . S
Eu95 N96 2.657 . S
Eu95 O129 2.380 . S
Eu95 O130 2.432 . S
Eu95 O134 2.558 . S
Eu95 O135 2.612 . S
Eu95 O137 2.339 . S
Eu95 O138 2.563 . S
Eu95 O139 2.419 . S
Eu95 C159 2.848 . S
N96 C88 1.362 . S
N96 Eu95 2.657 . S
N96 C97 1.334 . S
C97 N96 1.334 . S
C97 C99 1.413 . S
C97 H104 0.929 . S
C98 C86 1.392 . S
C98 C99 1.367 . S
C98 H106 0.930 . S
C99 C97 1.413 . S
C99 C98 1.367 . S
C99 H101 0.930 . S
H100 C93 0.930 . S
H101 C99 0.930 . S
H102 C90 0.930 . S
H103 C91 0.930 . S
H104 C97 0.929 . S
H105 C119 0.930 . S
H106 C98 0.930 . S
H107 C125 0.930 . S
H108 C116 0.929 . S
H109 C123 0.930 . S
H110 C87 0.931 . S
H111 C117 0.930 . S
H112 C150 0.930 . S
H113 C94 0.930 . S
H114 C149 0.931 . S
N115 Eu84 2.657 . S
N115 C116 1.334 . S
N115 C120 1.362 . S
C116 H108 0.929 . S
C116 N115 1.334 . S
C116 C119 1.413 . S
C117 H111 0.930 . S
C117 C118 1.392 . S
C117 C119 1.367 . S
C118 C117 1.392 . S
C118 C120 1.420 . S
C118 C150 1.423 . S
C119 H105 0.930 . S
C119 C116 1.413 . S
C119 C117 1.367 . S
C120 N115 1.362 . S
C120 C118 1.420 . S
C120 C124 1.429 . S
H121 C126 0.930 . S
N122 Eu84 2.609 . S
N122 C124 1.377 . S
N122 C125 1.321 . S
C123 H109 0.930 . S
C123 C125 1.400 . S
C123 C126 1.386 . S
C124 C120 1.429 . S
C124 N122 1.377 . S
C124 C127 1.411 . S
C125 H107 0.930 . S
C125 N122 1.321 . S
C125 C123 1.400 . S
C126 H121 0.930 . S
C126 C123 1.386 . S
C126 C127 1.395 . S
C127 C124 1.411 . S
C127 C126 1.395 . S
C127 C149 1.420 . S
O128 Eu84 2.558 . S
O128 C148 1.257 . S
O129 Eu84 2.612 . S
O129 Eu95 2.380 . S
O129 C140 1.276 . S
O130 Eu95 2.432 . S
O130 C147 1.264 . S
O131 Eu84 2.339 . S
O131 C147 1.254 . S
O132 Eu84 2.563 . S
O132 C140 1.235 . S
O133 Eu84 2.419 . S
O133 C148 1.249 . S
O134 Eu95 2.558 . S
O134 C159 1.257 . S
O135 Eu84 2.380 . S
O135 Eu95 2.612 . S
O135 C151 1.276 . S
O136 Eu84 2.432 . S
O136 C158 1.264 . S
O137 Eu95 2.339 . S
O137 C158 1.254 . S
O138 Eu95 2.563 . S
O138 C151 1.235 . S
O139 Eu95 2.419 . S
O139 C159 1.249 . S
C140 O129 1.276 . S
C140 O132 1.235 . S
C141 C143 1.393 . S
C141 C145 1.395 . S
C141 C148 1.492 . S
C142 C143 1.392 . S
C142 C144 1.386 . S
C143 C141 1.393 . S
C143 C142 1.392 . S
C143 H160 0.930 . S
C144 C142 1.386 . S
C144 C146 1.395 . S
C144 H161 0.930 . S
C145 C141 1.395 . S
C145 C146 1.379 . S
C145 H162 0.930 . S
C146 C144 1.395 . S
C146 C145 1.379 . S
C146 H163 0.930 . S
C147 O130 1.264 . S
C147 O131 1.254 . S
C148 Eu84 2.848 . S
C148 O128 1.257 . S
C148 O133 1.249 . S
C148 C141 1.492 . S
C149 H114 0.931 . S
C149 C127 1.420 . S
C149 C150 1.351 . S
C150 H112 0.930 . S
C150 C118 1.423 . S
C150 C149 1.351 . S
C151 O135 1.276 . S
C151 O138 1.235 . S
C152 C153 1.393 . S
C152 C156 1.395 . S
C152 C159 1.492 . S
C153 C152 1.393 . S
C153 C154 1.392 . S
C153 H164 0.930 . S
C154 C153 1.392 . S
C154 C155 1.386 . S
C155 C154 1.386 . S
C155 C157 1.395 . S
C155 H165 0.930 . S
C156 C152 1.395 . S
C156 C157 1.379 . S
C156 H166 0.930 . S
C157 C155 1.395 . S
C157 C156 1.379 . S
C157 H167 0.930 . S
C158 O136 1.264 . S
C158 O137 1.254 . S
C159 Eu95 2.848 . S
C159 O134 1.257 . S
C159 O139 1.249 . S
C159 C152 1.492 . S
H160 C143 0.930 . S
H161 C144 0.930 . S
H162 C145 0.930 . S
H163 C146 0.930 . S
H164 C153 0.930 . S
H165 C155 0.930 . S
H166 C156 0.930 . S
H167 C157 0.930 . S
Eu168 N199 2.657 . S
Eu168 N206 2.609 . S
Eu168 O212 2.558 . S
Eu168 O213 2.612 . S
Eu168 O215 2.339 . S
Eu168 O216 2.563 . S
Eu168 O217 2.419 . S
Eu168 O219 2.380 . S
Eu168 O220 2.432 . S
Eu168 C232 2.848 . S
C169 C172 1.429 . S
C169 C173 1.411 . S
C169 N176 1.377 . S
C170 C172 1.420 . S
C170 C174 1.423 . S
C170 C182 1.392 . S
C171 C173 1.420 . S
C171 C174 1.351 . S
C171 H194 0.931 . S
C172 C169 1.429 . S
C172 C170 1.420 . S
C172 N180 1.362 . S
C173 C169 1.411 . S
C173 C171 1.420 . S
C173 C178 1.395 . S
C174 C170 1.423 . S
C174 C171 1.351 . S
C174 H186 0.930 . S
C175 C177 1.400 . S
C175 C178 1.386 . S
C175 H187 0.930 . S
N176 C169 1.377 . S
N176 C177 1.321 . S
N176 Eu179 2.609 . S
C177 C175 1.400 . S
C177 N176 1.321 . S
C177 H184 0.930 . S
C178 C173 1.395 . S
C178 C175 1.386 . S
C178 H197 0.930 . S
Eu179 N176 2.609 . S
Eu179 N180 2.657 . S
Eu179 O213 2.380 . S
Eu179 O214 2.432 . S
Eu179 O218 2.558 . S
Eu179 O219 2.612 . S
Eu179 O221 2.339 . S
Eu179 O222 2.563 . S
Eu179 O223 2.419 . S
Eu179 C243 2.848 . S
N180 C172 1.362 . S
N180 Eu179 2.657 . S
N180 C181 1.334 . S
C181 N180 1.334 . S
C181 C183 1.413 . S
C181 H188 0.929 . S
C182 C170 1.392 . S
C182 C183 1.367 . S
C182 H190 0.930 . S
C183 C181 1.413 . S
C183 C182 1.367 . S
C183 H185 0.930 . S
H184 C177 0.930 . S
H185 C183 0.930 . S
H186 C174 0.930 . S
H187 C175 0.930 . S
H188 C181 0.929 . S
H189 C203 0.930 . S
H190 C182 0.930 . S
H191 C209 0.930 . S
H192 C200 0.929 . S
H193 C207 0.930 . S
H194 C171 0.931 . S
H195 C201 0.930 . S
H196 C234 0.930 . S
H197 C178 0.930 . S
H198 C233 0.931 . S
N199 Eu168 2.657 . S
N199 C200 1.334 . S
N199 C204 1.362 . S
C200 H192 0.929 . S
C200 N199 1.334 . S
C200 C203 1.413 . S
C201 H195 0.930 . S
C201 C202 1.392 . S
C201 C203 1.367 . S
C202 C201 1.392 . S
C202 C204 1.420 . S
C202 C234 1.423 . S
C203 H189 0.930 . S
C203 C200 1.413 . S
C203 C201 1.367 . S
C204 N199 1.362 . S
C204 C202 1.420 . S
C204 C208 1.429 . S
H205 C210 0.930 . S
N206 Eu168 2.609 . S
N206 C208 1.377 . S
N206 C209 1.321 . S
C207 H193 0.930 . S
C207 C209 1.400 . S
C207 C210 1.386 . S
C208 C204 1.429 . S
C208 N206 1.377 . S
C208 C211 1.411 . S
C209 H191 0.930 . S
C209 N206 1.321 . S
C209 C207 1.400 . S
C210 H205 0.930 . S
C210 C207 1.386 . S
C210 C211 1.395 . S
C211 C208 1.411 . S
C211 C210 1.395 . S
C211 C233 1.420 . S
O212 Eu168 2.558 . S
O212 C232 1.257 . S
O213 Eu168 2.612 . S
O213 Eu179 2.380 . S
O213 C224 1.276 . S
O214 Eu179 2.432 . S
O214 C231 1.264 . S
O215 Eu168 2.339 . S
O215 C231 1.254 . S
O216 Eu168 2.563 . S
O216 C224 1.235 . S
O217 Eu168 2.419 . S
O217 C232 1.249 . S
O218 Eu179 2.558 . S
O218 C243 1.257 . S
O219 Eu168 2.380 . S
O219 Eu179 2.612 . S
O219 C235 1.276 . S
O220 Eu168 2.432 . S
O220 C242 1.264 . S
O221 Eu179 2.339 . S
O221 C242 1.254 . S
O222 Eu179 2.563 . S
O222 C235 1.235 . S
O223 Eu179 2.419 . S
O223 C243 1.249 . S
C224 O213 1.276 . S
C224 O216 1.235 . S
C225 C227 1.393 . S
C225 C229 1.395 . S
C225 C232 1.492 . S
C226 C227 1.392 . S
C226 C228 1.386 . S
C227 C225 1.393 . S
C227 C226 1.392 . S
C227 H244 0.930 . S
C228 C226 1.386 . S
C228 C230 1.395 . S
C228 H245 0.930 . S
C229 C225 1.395 . S
C229 C230 1.379 . S
C229 H246 0.930 . S
C230 C228 1.395 . S
C230 C229 1.379 . S
C230 H247 0.930 . S
C231 O214 1.264 . S
C231 O215 1.254 . S
C232 Eu168 2.848 . S
C232 O212 1.257 . S
C232 O217 1.249 . S
C232 C225 1.492 . S
C233 H198 0.931 . S
C233 C211 1.420 . S
C233 C234 1.351 . S
C234 H196 0.930 . S
C234 C202 1.423 . S
C234 C233 1.351 . S
C235 O219 1.276 . S
C235 O222 1.235 . S
C236 C237 1.393 . S
C236 C240 1.395 . S
C236 C243 1.492 . S
C237 C236 1.393 . S
C237 C238 1.392 . S
C237 H248 0.930 . S
C238 C237 1.392 . S
C238 C239 1.386 . S
C239 C238 1.386 . S
C239 C241 1.395 . S
C239 H249 0.930 . S
C240 C236 1.395 . S
C240 C241 1.379 . S
C240 H250 0.930 . S
C241 C239 1.395 . S
C241 C240 1.379 . S
C241 H251 0.930 . S
C242 O220 1.264 . S
C242 O221 1.254 . S
C243 Eu179 2.848 . S
C243 O218 1.257 . S
C243 O223 1.249 . S
C243 C236 1.492 . S
H244 C227 0.930 . S
H245 C228 0.930 . S
H246 C229 0.930 . S
H247 C230 0.930 . S
H248 C237 0.930 . S
H249 C239 0.930 . S
H250 C240 0.930 . S
H251 C241 0.930 . S
Eu252 N283 2.657 . S
Eu252 N290 2.609 . S
Eu252 O296 2.558 . S
Eu252 O297 2.612 . S
Eu252 O299 2.339 . S
Eu252 O300 2.563 . S
Eu252 O301 2.419 . S
Eu252 O303 2.380 . S
Eu252 O304 2.432 . S
Eu252 C316 2.848 . S
C253 C256 1.429 . S
C253 C257 1.411 . S
C253 N260 1.377 . S
C254 C256 1.420 . S
C254 C258 1.423 . S
C254 C266 1.392 . S
C255 C257 1.420 . S
C255 C258 1.351 . S
C255 H278 0.931 . S
C256 C253 1.429 . S
C256 C254 1.420 . S
C256 N264 1.362 . S
C257 C253 1.411 . S
C257 C255 1.420 . S
C257 C262 1.395 . S
C258 C254 1.423 . S
C258 C255 1.351 . S
C258 H270 0.930 . S
C259 C261 1.400 . S
C259 C262 1.386 . S
C259 H271 0.930 . S
N260 C253 1.377 . S
N260 C261 1.321 . S
N260 Eu263 2.609 . S
C261 C259 1.400 . S
C261 N260 1.321 . S
C261 H268 0.930 . S
C262 C257 1.395 . S
C262 C259 1.386 . S
C262 H281 0.930 . S
Eu263 N260 2.609 . S
Eu263 N264 2.657 . S
Eu263 O297 2.380 . S
Eu263 O298 2.432 . S
Eu263 O302 2.558 . S
Eu263 O303 2.612 . S
Eu263 O305 2.339 . S
Eu263 O306 2.563 . S
Eu263 O307 2.419 . S
Eu263 C327 2.848 . S
N264 C256 1.362 . S
N264 Eu263 2.657 . S
N264 C265 1.334 . S
C265 N264 1.334 . S
C265 C267 1.413 . S
C265 H272 0.929 . S
C266 C254 1.392 . S
C266 C267 1.367 . S
C266 H274 0.930 . S
C267 C265 1.413 . S
C267 C266 1.367 . S
C267 H269 0.930 . S
H268 C261 0.930 . S
H269 C267 0.930 . S
H270 C258 0.930 . S
H271 C259 0.930 . S
H272 C265 0.929 . S
H273 C287 0.930 . S
H274 C266 0.930 . S
H275 C293 0.930 . S
H276 C284 0.929 . S
H277 C291 0.930 . S
H278 C255 0.931 . S
H279 C285 0.930 . S
H280 C318 0.930 . S
H281 C262 0.930 . S
H282 C317 0.931 . S
N283 Eu252 2.657 . S
N283 C284 1.334 . S
N283 C288 1.362 . S
C284 H276 0.929 . S
C284 N283 1.334 . S
C284 C287 1.413 . S
C285 H279 0.930 . S
C285 C286 1.392 . S
C285 C287 1.367 . S
C286 C285 1.392 . S
C286 C288 1.420 . S
C286 C318 1.423 . S
C287 H273 0.930 . S
C287 C284 1.413 . S
C287 C285 1.367 . S
C288 N283 1.362 . S
C288 C286 1.420 . S
C288 C292 1.429 . S
H289 C294 0.930 . S
N290 Eu252 2.609 . S
N290 C292 1.377 . S
N290 C293 1.321 . S
C291 H277 0.930 . S
C291 C293 1.400 . S
C291 C294 1.386 . S
C292 C288 1.429 . S
C292 N290 1.377 . S
C292 C295 1.411 . S
C293 H275 0.930 . S
C293 N290 1.321 . S
C293 C291 1.400 . S
C294 H289 0.930 . S
C294 C291 1.386 . S
C294 C295 1.395 . S
C295 C292 1.411 . S
C295 C294 1.395 . S
C295 C317 1.420 . S
O296 Eu252 2.558 . S
O296 C316 1.257 . S
O297 Eu252 2.612 . S
O297 Eu263 2.380 . S
O297 C308 1.276 . S
O298 Eu263 2.432 . S
O298 C315 1.264 . S
O299 Eu252 2.339 . S
O299 C315 1.254 . S
O300 Eu252 2.563 . S
O300 C308 1.235 . S
O301 Eu252 2.419 . S
O301 C316 1.249 . S
O302 Eu263 2.558 . S
O302 C327 1.257 . S
O303 Eu252 2.380 . S
O303 Eu263 2.612 . S
O303 C319 1.276 . S
O304 Eu252 2.432 . S
O304 C326 1.264 . S
O305 Eu263 2.339 . S
O305 C326 1.254 . S
O306 Eu263 2.563 . S
O306 C319 1.235 . S
O307 Eu263 2.419 . S
O307 C327 1.249 . S
C308 O297 1.276 . S
C308 O300 1.235 . S
C309 C311 1.393 . S
C309 C313 1.395 . S
C309 C316 1.492 . S
C310 C311 1.392 . S
C310 C312 1.386 . S
C311 C309 1.393 . S
C311 C310 1.392 . S
C311 H328 0.930 . S
C312 C310 1.386 . S
C312 C314 1.395 . S
C312 H329 0.930 . S
C313 C309 1.395 . S
C313 C314 1.379 . S
C313 H330 0.930 . S
C314 C312 1.395 . S
C314 C313 1.379 . S
C314 H331 0.930 . S
C315 O298 1.264 . S
C315 O299 1.254 . S
C316 Eu252 2.848 . S
C316 O296 1.257 . S
C316 O301 1.249 . S
C316 C309 1.492 . S
C317 H282 0.931 . S
C317 C295 1.420 . S
C317 C318 1.351 . S
C318 H280 0.930 . S
C318 C286 1.423 . S
C318 C317 1.351 . S
C319 O303 1.276 . S
C319 O306 1.235 . S
C320 C321 1.393 . S
C320 C324 1.395 . S
C320 C327 1.492 . S
C321 C320 1.393 . S
C321 C322 1.392 . S
C321 H332 0.930 . S
C322 C321 1.392 . S
C322 C323 1.386 . S
C323 C322 1.386 . S
C323 C325 1.395 . S
C323 H333 0.930 . S
C324 C320 1.395 . S
C324 C325 1.379 . S
C324 H334 0.930 . S
C325 C323 1.395 . S
C325 C324 1.379 . S
C325 H335 0.930 . S
C326 O304 1.264 . S
C326 O305 1.254 . S
C327 Eu263 2.848 . S
C327 O302 1.257 . S
C327 O307 1.249 . S
C327 C320 1.492 . S
H328 C311 0.930 . S
H329 C312 0.930 . S
H330 C313 0.930 . S
H331 C314 0.930 . S
H332 C321 0.930 . S
H333 C323 0.930 . S
H334 C324 0.930 . S
H335 C325 0.930 . S
Eu336 N367 2.657 . S
Eu336 N374 2.609 . S
Eu336 O380 2.558 . S
Eu336 O381 2.612 . S
Eu336 O383 2.339 . S
Eu336 O384 2.563 . S
Eu336 O385 2.419 . S
Eu336 O387 2.380 . S
Eu336 O388 2.432 . S
Eu336 C400 2.848 . S
C337 C340 1.429 . S
C337 C341 1.411 . S
C337 N344 1.377 . S
C338 C340 1.420 . S
C338 C342 1.423 . S
C338 C350 1.392 . S
C339 C341 1.420 . S
C339 C342 1.351 . S
C339 H362 0.931 . S
C340 C337 1.429 . S
C340 C338 1.420 . S
C340 N348 1.362 . S
C341 C337 1.411 . S
C341 C339 1.420 . S
C341 C346 1.395 . S
C342 C338 1.423 . S
C342 C339 1.351 . S
C342 H354 0.930 . S
C343 C345 1.400 . S
C343 C346 1.386 . S
C343 H355 0.930 . S
N344 C337 1.377 . S
N344 C345 1.321 . S
N344 Eu347 2.609 . S
C345 C343 1.400 . S
C345 N344 1.321 . S
C345 H352 0.930 . S
C346 C341 1.395 . S
C346 C343 1.386 . S
C346 H365 0.930 . S
Eu347 N344 2.609 . S
Eu347 N348 2.657 . S
Eu347 O381 2.380 . S
Eu347 O382 2.432 . S
Eu347 O386 2.558 . S
Eu347 O387 2.612 . S
Eu347 O389 2.339 . S
Eu347 O390 2.563 . S
Eu347 O391 2.419 . S
Eu347 C411 2.848 . S
N348 C340 1.362 . S
N348 Eu347 2.657 . S
N348 C349 1.334 . S
C349 N348 1.334 . S
C349 C351 1.413 . S
C349 H356 0.929 . S
C350 C338 1.392 . S
C350 C351 1.367 . S
C350 H358 0.930 . S
C351 C349 1.413 . S
C351 C350 1.367 . S
C351 H353 0.930 . S
H352 C345 0.930 . S
H353 C351 0.930 . S
H354 C342 0.930 . S
H355 C343 0.930 . S
H356 C349 0.929 . S
H357 C371 0.930 . S
H358 C350 0.930 . S
H359 C377 0.930 . S
H360 C368 0.929 . S
H361 C375 0.930 . S
H362 C339 0.931 . S
H363 C369 0.930 . S
H364 C402 0.930 . S
H365 C346 0.930 . S
H366 C401 0.931 . S
N367 Eu336 2.657 . S
N367 C368 1.334 . S
N367 C372 1.362 . S
C368 H360 0.929 . S
C368 N367 1.334 . S
C368 C371 1.413 . S
C369 H363 0.930 . S
C369 C370 1.392 . S
C369 C371 1.367 . S
C370 C369 1.392 . S
C370 C372 1.420 . S
C370 C402 1.423 . S
C371 H357 0.930 . S
C371 C368 1.413 . S
C371 C369 1.367 . S
C372 N367 1.362 . S
C372 C370 1.420 . S
C372 C376 1.429 . S
H373 C378 0.930 . S
N374 Eu336 2.609 . S
N374 C376 1.377 . S
N374 C377 1.321 . S
C375 H361 0.930 . S
C375 C377 1.400 . S
C375 C378 1.386 . S
C376 C372 1.429 . S
C376 N374 1.377 . S
C376 C379 1.411 . S
C377 H359 0.930 . S
C377 N374 1.321 . S
C377 C375 1.400 . S
C378 H373 0.930 . S
C378 C375 1.386 . S
C378 C379 1.395 . S
C379 C376 1.411 . S
C379 C378 1.395 . S
C379 C401 1.420 . S
O380 Eu336 2.558 . S
O380 C400 1.257 . S
O381 Eu336 2.612 . S
O381 Eu347 2.380 . S
O381 C392 1.276 . S
O382 Eu347 2.432 . S
O382 C399 1.264 . S
O383 Eu336 2.339 . S
O383 C399 1.254 . S
O384 Eu336 2.563 . S
O384 C392 1.235 . S
O385 Eu336 2.419 . S
O385 C400 1.249 . S
O386 Eu347 2.558 . S
O386 C411 1.257 . S
O387 Eu336 2.380 . S
O387 Eu347 2.612 . S
O387 C403 1.276 . S
O388 Eu336 2.432 . S
O388 C410 1.264 . S
O389 Eu347 2.339 . S
O389 C410 1.254 . S
O390 Eu347 2.563 . S
O390 C403 1.235 . S
O391 Eu347 2.419 . S
O391 C411 1.249 . S
C392 O381 1.276 . S
C392 O384 1.235 . S
C393 C395 1.393 . S
C393 C397 1.395 . S
C393 C400 1.492 . S
C394 C395 1.392 . S
C394 C396 1.386 . S
C395 C393 1.393 . S
C395 C394 1.392 . S
C395 H412 0.930 . S
C396 C394 1.386 . S
C396 C398 1.395 . S
C396 H413 0.930 . S
C397 C393 1.395 . S
C397 C398 1.379 . S
C397 H414 0.930 . S
C398 C396 1.395 . S
C398 C397 1.379 . S
C398 H415 0.930 . S
C399 O382 1.264 . S
C399 O383 1.254 . S
C400 Eu336 2.848 . S
C400 O380 1.257 . S
C400 O385 1.249 . S
C400 C393 1.492 . S
C401 H366 0.931 . S
C401 C379 1.420 . S
C401 C402 1.351 . S
C402 H364 0.930 . S
C402 C370 1.423 . S
C402 C401 1.351 . S
C403 O387 1.276 . S
C403 O390 1.235 . S
C404 C405 1.393 . S
C404 C408 1.395 . S
C404 C411 1.492 . S
C405 C404 1.393 . S
C405 C406 1.392 . S
C405 H416 0.930 . S
C406 C405 1.392 . S
C406 C407 1.386 . S
C407 C406 1.386 . S
C407 C409 1.395 . S
C407 H417 0.930 . S
C408 C404 1.395 . S
C408 C409 1.379 . S
C408 H418 0.930 . S
C409 C407 1.395 . S
C409 C408 1.379 . S
C409 H419 0.930 . S
C410 O388 1.264 . S
C410 O389 1.254 . S
C411 Eu347 2.848 . S
C411 O386 1.257 . S
C411 O391 1.249 . S
C411 C404 1.492 . S
H412 C395 0.930 . S
H413 C396 0.930 . S
H414 C397 0.930 . S
H415 C398 0.930 . S
H416 C405 0.930 . S
H417 C407 0.930 . S
H418 C408 0.930 . S
H419 C409 0.930 . S
Eu420 N451 2.657 . S
Eu420 N458 2.609 . S
Eu420 O464 2.558 . S
Eu420 O465 2.612 . S
Eu420 O467 2.339 . S
Eu420 O468 2.563 . S
Eu420 O469 2.419 . S
Eu420 O471 2.380 . S
Eu420 O472 2.432 . S
Eu420 C484 2.848 . S
C421 C424 1.429 . S
C421 C425 1.411 . S
C421 N428 1.377 . S
C422 C424 1.420 . S
C422 C426 1.423 . S
C422 C434 1.392 . S
C423 C425 1.420 . S
C423 C426 1.351 . S
C423 H446 0.931 . S
C424 C421 1.429 . S
C424 C422 1.420 . S
C424 N432 1.362 . S
C425 C421 1.411 . S
C425 C423 1.420 . S
C425 C430 1.395 . S
C426 C422 1.423 . S
C426 C423 1.351 . S
C426 H438 0.930 . S
C427 C429 1.400 . S
C427 C430 1.386 . S
C427 H439 0.930 . S
N428 C421 1.377 . S
N428 C429 1.321 . S
N428 Eu431 2.609 . S
C429 C427 1.400 . S
C429 N428 1.321 . S
C429 H436 0.930 . S
C430 C425 1.395 . S
C430 C427 1.386 . S
C430 H449 0.930 . S
Eu431 N428 2.609 . S
Eu431 N432 2.657 . S
Eu431 O465 2.380 . S
Eu431 O466 2.432 . S
Eu431 O470 2.558 . S
Eu431 O471 2.612 . S
Eu431 O473 2.339 . S
Eu431 O474 2.563 . S
Eu431 O475 2.419 . S
Eu431 C495 2.848 . S
N432 C424 1.362 . S
N432 Eu431 2.657 . S
N432 C433 1.334 . S
C433 N432 1.334 . S
C433 C435 1.413 . S
C433 H440 0.929 . S
C434 C422 1.392 . S
C434 C435 1.367 . S
C434 H442 0.930 . S
C435 C433 1.413 . S
C435 C434 1.367 . S
C435 H437 0.930 . S
H436 C429 0.930 . S
H437 C435 0.930 . S
H438 C426 0.930 . S
H439 C427 0.930 . S
H440 C433 0.929 . S
H441 C455 0.930 . S
H442 C434 0.930 . S
H443 C461 0.930 . S
H444 C452 0.929 . S
H445 C459 0.930 . S
H446 C423 0.931 . S
H447 C453 0.930 . S
H448 C486 0.930 . S
H449 C430 0.930 . S
H450 C485 0.931 . S
N451 Eu420 2.657 . S
N451 C452 1.334 . S
N451 C456 1.362 . S
C452 H444 0.929 . S
C452 N451 1.334 . S
C452 C455 1.413 . S
C453 H447 0.930 . S
C453 C454 1.392 . S
C453 C455 1.367 . S
C454 C453 1.392 . S
C454 C456 1.420 . S
C454 C486 1.423 . S
C455 H441 0.930 . S
C455 C452 1.413 . S
C455 C453 1.367 . S
C456 N451 1.362 . S
C456 C454 1.420 . S
C456 C460 1.429 . S
H457 C462 0.930 . S
N458 Eu420 2.609 . S
N458 C460 1.377 . S
N458 C461 1.321 . S
C459 H445 0.930 . S
C459 C461 1.400 . S
C459 C462 1.386 . S
C460 C456 1.429 . S
C460 N458 1.377 . S
C460 C463 1.411 . S
C461 H443 0.930 . S
C461 N458 1.321 . S
C461 C459 1.400 . S
C462 H457 0.930 . S
C462 C459 1.386 . S
C462 C463 1.395 . S
C463 C460 1.411 . S
C463 C462 1.395 . S
C463 C485 1.420 . S
O464 Eu420 2.558 . S
O464 C484 1.257 . S
O465 Eu420 2.612 . S
O465 Eu431 2.380 . S
O465 C476 1.276 . S
O466 Eu431 2.432 . S
O466 C483 1.264 . S
O467 Eu420 2.339 . S
O467 C483 1.254 . S
O468 Eu420 2.563 . S
O468 C476 1.235 . S
O469 Eu420 2.419 . S
O469 C484 1.249 . S
O470 Eu431 2.558 . S
O470 C495 1.257 . S
O471 Eu420 2.380 . S
O471 Eu431 2.612 . S
O471 C487 1.276 . S
O472 Eu420 2.432 . S
O472 C494 1.264 . S
O473 Eu431 2.339 . S
O473 C494 1.254 . S
O474 Eu431 2.563 . S
O474 C487 1.235 . S
O475 Eu431 2.419 . S
O475 C495 1.249 . S
C476 O465 1.276 . S
C476 O468 1.235 . S
C477 C479 1.393 . S
C477 C481 1.395 . S
C477 C484 1.492 . S
C478 C479 1.392 . S
C478 C480 1.386 . S
C479 C477 1.393 . S
C479 C478 1.392 . S
C479 H496 0.930 . S
C480 C478 1.386 . S
C480 C482 1.395 . S
C480 H497 0.930 . S
C481 C477 1.395 . S
C481 C482 1.379 . S
C481 H498 0.930 . S
C482 C480 1.395 . S
C482 C481 1.379 . S
C482 H499 0.930 . S
C483 O466 1.264 . S
C483 O467 1.254 . S
C484 Eu420 2.848 . S
C484 O464 1.257 . S
C484 O469 1.249 . S
C484 C477 1.492 . S
C485 H450 0.931 . S
C485 C463 1.420 . S
C485 C486 1.351 . S
C486 H448 0.930 . S
C486 C454 1.423 . S
C486 C485 1.351 . S
C487 O471 1.276 . S
C487 O474 1.235 . S
C488 C489 1.393 . S
C488 C492 1.395 . S
C488 C495 1.492 . S
C489 C488 1.393 . S
C489 C490 1.392 . S
C489 H500 0.930 . S
C490 C489 1.392 . S
C490 C491 1.386 . S
C491 C490 1.386 . S
C491 C493 1.395 . S
C491 H501 0.930 . S
C492 C488 1.395 . S
C492 C493 1.379 . S
C492 H502 0.930 . S
C493 C491 1.395 . S
C493 C492 1.379 . S
C493 H503 0.930 . S
C494 O472 1.264 . S
C494 O473 1.254 . S
C495 Eu431 2.848 . S
C495 O470 1.257 . S
C495 O475 1.249 . S
C495 C488 1.492 . S
H496 C479 0.930 . S
H497 C480 0.930 . S
H498 C481 0.930 . S
H499 C482 0.930 . S
H500 C489 0.930 . S
H501 C491 0.930 . S
H502 C492 0.930 . S
H503 C493 0.930 . S
Eu504 N535 2.657 . S
Eu504 N542 2.609 . S
Eu504 O548 2.558 . S
Eu504 O549 2.612 . S
Eu504 O551 2.339 . S
Eu504 O552 2.563 . S
Eu504 O553 2.419 . S
Eu504 O555 2.380 . S
Eu504 O556 2.432 . S
Eu504 C568 2.848 . S
C505 C508 1.429 . S
C505 C509 1.411 . S
C505 N512 1.377 . S
C506 C508 1.420 . S
C506 C510 1.423 . S
C506 C518 1.392 . S
C507 C509 1.420 . S
C507 C510 1.351 . S
C507 H530 0.931 . S
C508 C505 1.429 . S
C508 C506 1.420 . S
C508 N516 1.362 . S
C509 C505 1.411 . S
C509 C507 1.420 . S
C509 C514 1.395 . S
C510 C506 1.423 . S
C510 C507 1.351 . S
C510 H522 0.930 . S
C511 C513 1.400 . S
C511 C514 1.386 . S
C511 H523 0.930 . S
N512 C505 1.377 . S
N512 C513 1.321 . S
N512 Eu515 2.609 . S
C513 C511 1.400 . S
C513 N512 1.321 . S
C513 H520 0.930 . S
C514 C509 1.395 . S
C514 C511 1.386 . S
C514 H533 0.930 . S
Eu515 N512 2.609 . S
Eu515 N516 2.657 . S
Eu515 O549 2.380 . S
Eu515 O550 2.432 . S
Eu515 O554 2.558 . S
Eu515 O555 2.612 . S
Eu515 O557 2.339 . S
Eu515 O558 2.563 . S
Eu515 O559 2.419 . S
Eu515 C579 2.848 . S
N516 C508 1.362 . S
N516 Eu515 2.657 . S
N516 C517 1.334 . S
C517 N516 1.334 . S
C517 C519 1.413 . S
C517 H524 0.929 . S
C518 C506 1.392 . S
C518 C519 1.367 . S
C518 H526 0.930 . S
C519 C517 1.413 . S
C519 C518 1.367 . S
C519 H521 0.930 . S
H520 C513 0.930 . S
H521 C519 0.930 . S
H522 C510 0.930 . S
H523 C511 0.930 . S
H524 C517 0.929 . S
H525 C539 0.930 . S
H526 C518 0.930 . S
H527 C545 0.930 . S
H528 C536 0.929 . S
H529 C543 0.930 . S
H530 C507 0.931 . S
H531 C537 0.930 . S
H532 C570 0.930 . S
H533 C514 0.930 . S
H534 C569 0.931 . S
N535 Eu504 2.657 . S
N535 C536 1.334 . S
N535 C540 1.362 . S
C536 H528 0.929 . S
C536 N535 1.334 . S
C536 C539 1.413 . S
C537 H531 0.930 . S
C537 C538 1.392 . S
C537 C539 1.367 . S
C538 C537 1.392 . S
C538 C540 1.420 . S
C538 C570 1.423 . S
C539 H525 0.930 . S
C539 C536 1.413 . S
C539 C537 1.367 . S
C540 N535 1.362 . S
C540 C538 1.420 . S
C540 C544 1.429 . S
H541 C546 0.930 . S
N542 Eu504 2.609 . S
N542 C544 1.377 . S
N542 C545 1.321 . S
C543 H529 0.930 . S
C543 C545 1.400 . S
C543 C546 1.386 . S
C544 C540 1.429 . S
C544 N542 1.377 . S
C544 C547 1.411 . S
C545 H527 0.930 . S
C545 N542 1.321 . S
C545 C543 1.400 . S
C546 H541 0.930 . S
C546 C543 1.386 . S
C546 C547 1.395 . S
C547 C544 1.411 . S
C547 C546 1.395 . S
C547 C569 1.420 . S
O548 Eu504 2.558 . S
O548 C568 1.257 . S
O549 Eu504 2.612 . S
O549 Eu515 2.380 . S
O549 C560 1.276 . S
O550 Eu515 2.432 . S
O550 C567 1.264 . S
O551 Eu504 2.339 . S
O551 C567 1.254 . S
O552 Eu504 2.563 . S
O552 C560 1.235 . S
O553 Eu504 2.419 . S
O553 C568 1.249 . S
O554 Eu515 2.558 . S
O554 C579 1.257 . S
O555 Eu504 2.380 . S
O555 Eu515 2.612 . S
O555 C571 1.276 . S
O556 Eu504 2.432 . S
O556 C578 1.264 . S
O557 Eu515 2.339 . S
O557 C578 1.254 . S
O558 Eu515 2.563 . S
O558 C571 1.235 . S
O559 Eu515 2.419 . S
O559 C579 1.249 . S
C560 O549 1.276 . S
C560 O552 1.235 . S
C561 C563 1.393 . S
C561 C565 1.395 . S
C561 C568 1.492 . S
C562 C563 1.392 . S
C562 C564 1.386 . S
C563 C561 1.393 . S
C563 C562 1.392 . S
C563 H580 0.930 . S
C564 C562 1.386 . S
C564 C566 1.395 . S
C564 H581 0.930 . S
C565 C561 1.395 . S
C565 C566 1.379 . S
C565 H582 0.930 . S
C566 C564 1.395 . S
C566 C565 1.379 . S
C566 H583 0.930 . S
C567 O550 1.264 . S
C567 O551 1.254 . S
C568 Eu504 2.848 . S
C568 O548 1.257 . S
C568 O553 1.249 . S
C568 C561 1.492 . S
C569 H534 0.931 . S
C569 C547 1.420 . S
C569 C570 1.351 . S
C570 H532 0.930 . S
C570 C538 1.423 . S
C570 C569 1.351 . S
C571 O555 1.276 . S
C571 O558 1.235 . S
C572 C573 1.393 . S
C572 C576 1.395 . S
C572 C579 1.492 . S
C573 C572 1.393 . S
C573 C574 1.392 . S
C573 H584 0.930 . S
C574 C573 1.392 . S
C574 C575 1.386 . S
C575 C574 1.386 . S
C575 C577 1.395 . S
C575 H585 0.930 . S
C576 C572 1.395 . S
C576 C577 1.379 . S
C576 H586 0.930 . S
C577 C575 1.395 . S
C577 C576 1.379 . S
C577 H587 0.930 . S
C578 O556 1.264 . S
C578 O557 1.254 . S
C579 Eu515 2.848 . S
C579 O554 1.257 . S
C579 O559 1.249 . S
C579 C572 1.492 . S
H580 C563 0.930 . S
H581 C564 0.930 . S
H582 C565 0.930 . S
H583 C566 0.930 . S
H584 C573 0.930 . S
H585 C575 0.930 . S
H586 C576 0.930 . S
H587 C577 0.930 . S
Eu588 N619 2.657 . S
Eu588 N626 2.609 . S
Eu588 O632 2.558 . S
Eu588 O633 2.612 . S
Eu588 O635 2.339 . S
Eu588 O636 2.563 . S
Eu588 O637 2.419 . S
Eu588 O639 2.380 . S
Eu588 O640 2.432 . S
Eu588 C652 2.848 . S
C589 C592 1.429 . S
C589 C593 1.411 . S
C589 N596 1.377 . S
C590 C592 1.420 . S
C590 C594 1.423 . S
C590 C602 1.392 . S
C591 C593 1.420 . S
C591 C594 1.351 . S
C591 H614 0.931 . S
C592 C589 1.429 . S
C592 C590 1.420 . S
C592 N600 1.362 . S
C593 C589 1.411 . S
C593 C591 1.420 . S
C593 C598 1.395 . S
C594 C590 1.423 . S
C594 C591 1.351 . S
C594 H606 0.930 . S
C595 C597 1.400 . S
C595 C598 1.386 . S
C595 H607 0.930 . S
N596 C589 1.377 . S
N596 C597 1.321 . S
N596 Eu599 2.609 . S
C597 C595 1.400 . S
C597 N596 1.321 . S
C597 H604 0.930 . S
C598 C593 1.395 . S
C598 C595 1.386 . S
C598 H617 0.930 . S
Eu599 N596 2.609 . S
Eu599 N600 2.657 . S
Eu599 O633 2.380 . S
Eu599 O634 2.432 . S
Eu599 O638 2.558 . S
Eu599 O639 2.612 . S
Eu599 O641 2.339 . S
Eu599 O642 2.563 . S
Eu599 O643 2.419 . S
Eu599 C663 2.848 . S
N600 C592 1.362 . S
N600 Eu599 2.657 . S
N600 C601 1.334 . S
C601 N600 1.334 . S
C601 C603 1.413 . S
C601 H608 0.929 . S
C602 C590 1.392 . S
C602 C603 1.367 . S
C602 H610 0.930 . S
C603 C601 1.413 . S
C603 C602 1.367 . S
C603 H605 0.930 . S
H604 C597 0.930 . S
H605 C603 0.930 . S
H606 C594 0.930 . S
H607 C595 0.930 . S
H608 C601 0.929 . S
H609 C623 0.930 . S
H610 C602 0.930 . S
H611 C629 0.930 . S
H612 C620 0.929 . S
H613 C627 0.930 . S
H614 C591 0.931 . S
H615 C621 0.930 . S
H616 C654 0.930 . S
H617 C598 0.930 . S
H618 C653 0.931 . S
N619 Eu588 2.657 . S
N619 C620 1.334 . S
N619 C624 1.362 . S
C620 H612 0.929 . S
C620 N619 1.334 . S
C620 C623 1.413 . S
C621 H615 0.930 . S
C621 C622 1.392 . S
C621 C623 1.367 . S
C622 C621 1.392 . S
C622 C624 1.420 . S
C622 C654 1.423 . S
C623 H609 0.930 . S
C623 C620 1.413 . S
C623 C621 1.367 . S
C624 N619 1.362 . S
C624 C622 1.420 . S
C624 C628 1.429 . S
H625 C630 0.930 . S
N626 Eu588 2.609 . S
N626 C628 1.377 . S
N626 C629 1.321 . S
C627 H613 0.930 . S
C627 C629 1.400 . S
C627 C630 1.386 . S
C628 C624 1.429 . S
C628 N626 1.377 . S
C628 C631 1.411 . S
C629 H611 0.930 . S
C629 N626 1.321 . S
C629 C627 1.400 . S
C630 H625 0.930 . S
C630 C627 1.386 . S
C630 C631 1.395 . S
C631 C628 1.411 . S
C631 C630 1.395 . S
C631 C653 1.420 . S
O632 Eu588 2.558 . S
O632 C652 1.257 . S
O633 Eu588 2.612 . S
O633 Eu599 2.380 . S
O633 C644 1.276 . S
O634 Eu599 2.432 . S
O634 C651 1.264 . S
O635 Eu588 2.339 . S
O635 C651 1.254 . S
O636 Eu588 2.563 . S
O636 C644 1.235 . S
O637 Eu588 2.419 . S
O637 C652 1.249 . S
O638 Eu599 2.558 . S
O638 C663 1.257 . S
O639 Eu588 2.380 . S
O639 Eu599 2.612 . S
O639 C655 1.276 . S
O640 Eu588 2.432 . S
O640 C662 1.264 . S
O641 Eu599 2.339 . S
O641 C662 1.254 . S
O642 Eu599 2.563 . S
O642 C655 1.235 . S
O643 Eu599 2.419 . S
O643 C663 1.249 . S
C644 O633 1.276 . S
C644 O636 1.235 . S
C645 C647 1.393 . S
C645 C649 1.395 . S
C645 C652 1.492 . S
C646 C647 1.392 . S
C646 C648 1.386 . S
C647 C645 1.393 . S
C647 C646 1.392 . S
C647 H664 0.930 . S
C648 C646 1.386 . S
C648 C650 1.395 . S
C648 H665 0.930 . S
C649 C645 1.395 . S
C649 C650 1.379 . S
C649 H666 0.930 . S
C650 C648 1.395 . S
C650 C649 1.379 . S
C650 H667 0.930 . S
C651 O634 1.264 . S
C651 O635 1.254 . S
C652 Eu588 2.848 . S
C652 O632 1.257 . S
C652 O637 1.249 . S
C652 C645 1.492 . S
C653 H618 0.931 . S
C653 C631 1.420 . S
C653 C654 1.351 . S
C654 H616 0.930 . S
C654 C622 1.423 . S
C654 C653 1.351 . S
C655 O639 1.276 . S
C655 O642 1.235 . S
C656 C657 1.393 . S
C656 C660 1.395 . S
C656 C663 1.492 . S
C657 C656 1.393 . S
C657 C658 1.392 . S
C657 H668 0.930 . S
C658 C657 1.392 . S
C658 C659 1.386 . S
C659 C658 1.386 . S
C659 C661 1.395 . S
C659 H669 0.930 . S
C660 C656 1.395 . S
C660 C661 1.379 . S
C660 H670 0.930 . S
C661 C659 1.395 . S
C661 C660 1.379 . S
C661 H671 0.930 . S
C662 O640 1.264 . S
C662 O641 1.254 . S
C663 Eu599 2.848 . S
C663 O638 1.257 . S
C663 O643 1.249 . S
C663 C656 1.492 . S
H664 C647 0.930 . S
H665 C648 0.930 . S
H666 C649 0.930 . S
H667 C650 0.930 . S
H668 C657 0.930 . S
H669 C659 0.930 . S
H670 C660 0.930 . S
H671 C661 0.930 . S
Fe672 O673 1.886 1_455 S
Fe672 O676 1.715 . S
Fe672 O681 2.077 1_455 S
Fe672 O686 1.935 . S
Fe672 O692 2.077 1_455 S
Fe672 O701 1.935 . S
O673 Fe672 1.886 1_655 S
O673 Fe675 1.715 1_545 S
Fe674 O676 1.886 . S
Fe674 O677 1.715 1_545 S
Fe674 O684 1.935 1_545 S
Fe674 O685 2.077 . S
Fe674 O691 1.935 1_545 S
Fe674 O700 2.077 . S
Fe675 O673 1.715 1_565 S
Fe675 O678 1.886 . S
Fe675 O682 1.935 1_565 S
Fe675 O687 2.077 . S
Fe675 O693 1.935 1_565 S
Fe675 O697 2.077 . S
O676 Fe672 1.715 . S
O676 Fe674 1.886 . S
O677 Fe674 1.715 1_565 S
O677 Fe679 1.886 1_455 S
O678 Fe675 1.886 . S
O678 Fe679 1.715 . S
Fe679 O677 1.886 1_655 S
Fe679 O678 1.715 . S
Fe679 O683 2.077 1_655 S
Fe679 O688 1.935 . S
Fe679 O690 2.077 1_655 S
Fe679 O698 1.935 . S
C680 O692 1.381 . S
C680 O693 1.421 . S
O681 Fe672 2.077 1_655 S
O681 C694 1.381 . S
O682 Fe675 1.935 1_545 S
O682 C694 1.421 . S
O683 Fe679 2.077 1_455 S
O683 C699 1.381 . S
O684 Fe674 1.935 1_565 S
O684 C699 1.421 . S
O685 Fe674 2.077 . S
O685 C689 1.381 . S
O686 Fe672 1.935 . S
O686 C689 1.421 . S
O687 Fe675 2.077 . S
O687 C695 1.381 . S
O688 Fe679 1.935 . S
O688 C695 1.421 . S
C689 O685 1.381 . S
C689 O686 1.421 . S
O690 Fe679 2.077 1_455 S
O690 C702 1.381 . S
O691 Fe674 1.935 1_565 S
O691 C702 1.421 . S
O692 Fe672 2.077 1_655 S
O692 C680 1.381 . S
O693 Fe675 1.935 1_545 S
O693 C680 1.421 . S
C694 O681 1.381 . S
C694 O682 1.421 . S
C695 O687 1.381 . S
C695 O688 1.421 . S
C696 O697 1.381 . S
C696 O698 1.421 . S
O697 Fe675 2.077 . S
O697 C696 1.381 . S
O698 Fe679 1.935 . S
O698 C696 1.421 . S
C699 O683 1.381 . S
C699 O684 1.421 . S
O700 Fe674 2.077 . S
O700 C703 1.381 . S
O701 Fe672 1.935 . S
O701 C703 1.421 . S
C702 O690 1.381 . S
C702 O691 1.421 . S
C703 O700 1.381 . S
C703 O701 1.421 . S
Fe704 O705 1.886 . S
Fe704 O708 1.713 . S
Fe704 O713 2.077 1_554 S
Fe704 O718 1.935 1_554 S
Fe704 O724 2.077 . S
Fe704 O733 1.935 . S
O705 Fe704 1.886 . S
O705 Fe707 1.715 1_565 S
Fe706 O708 1.888 1_556 S
Fe706 O709 1.715 1_565 S
Fe706 O716 1.935 1_565 S
Fe706 O717 2.077 . S
Fe706 O723 1.935 1_566 S
Fe706 O732 2.077 1_556 S
Fe707 O705 1.715 1_545 S
Fe707 O710 1.886 1_554 S
Fe707 O714 1.935 1_544 S
Fe707 O719 2.077 1_554 S
Fe707 O725 1.935 1_545 S
Fe707 O729 2.077 . S
O708 Fe704 1.713 . S
O708 Fe706 1.888 1_554 S
O709 Fe706 1.715 1_545 S
O709 Fe711 1.886 . S
O710 Fe707 1.886 1_556 S
O710 Fe711 1.715 . S
Fe711 O709 1.886 . S
Fe711 O710 1.715 . S
Fe711 O715 2.077 . S
Fe711 O720 1.935 . S
Fe711 O722 2.077 1_556 S
Fe711 O730 1.935 1_556 S
C712 O724 1.381 . S
C712 O725 1.421 . S
O713 Fe704 2.077 1_556 S
O713 C726 1.381 . S
O714 Fe707 1.935 1_566 S
O714 C726 1.421 . S
O715 Fe711 2.077 . S
O715 C731 1.381 . S
O716 Fe706 1.935 1_545 S
O716 C731 1.421 . S
O717 Fe706 2.077 . S
O717 C721 1.381 . S
O718 Fe704 1.935 1_556 S
O718 C721 1.421 . S
O719 Fe707 2.077 1_556 S
O719 C727 1.381 . S
O720 Fe711 1.935 . S
O720 C727 1.421 . S
C721 O717 1.381 . S
C721 O718 1.421 . S
O722 Fe711 2.077 1_554 S
O722 C734 1.381 . S
O723 Fe706 1.935 1_544 S
O723 C734 1.421 . S
O724 Fe704 2.077 . S
O724 C712 1.381 . S
O725 Fe707 1.935 1_565 S
O725 C712 1.421 . S
C726 O713 1.381 . S
C726 O714 1.421 . S
C727 O719 1.381 . S
C727 O720 1.421 . S
C728 O729 1.381 . S
C728 O730 1.421 . S
O729 Fe707 2.077 . S
O729 C728 1.381 . S
O730 Fe711 1.935 1_554 S
O730 C728 1.421 . S
C731 O715 1.381 . S
C731 O716 1.421 . S
O732 Fe706 2.077 1_554 S
O732 C735 1.381 . S
O733 Fe704 1.935 . S
O733 C735 1.421 . S
C734 O722 1.381 . S
C734 O723 1.421 . S
C735 O732 1.381 . S
C735 O733 1.421 . S
Fe736 O737 1.886 1_455 S
Fe736 O740 1.715 . S
Fe736 O745 2.077 1_455 S
Fe736 O750 1.935 . S
Fe736 O756 2.077 1_456 S
Fe736 O765 1.935 1_556 S
O737 Fe736 1.886 1_655 S
O737 Fe739 1.715 . S
Fe738 O740 1.885 1_554 S
Fe738 O741 1.715 . S
Fe738 O748 1.935 1_554 S
Fe738 O749 2.077 1_554 S
Fe738 O755 1.935 . S
Fe738 O764 2.077 . S
Fe739 O737 1.715 . S
Fe739 O742 1.888 1_556 S
Fe739 O746 1.935 . S
Fe739 O751 2.077 . S
Fe739 O757 1.935 1_556 S
Fe739 O761 2.077 1_556 S
O740 Fe736 1.715 . S
O740 Fe738 1.885 1_556 S
O741 Fe738 1.715 . S
O741 Fe743 1.886 1_455 S
O742 Fe739 1.888 1_554 S
O742 Fe743 1.713 . S
Fe743 O741 1.886 1_655 S
Fe743 O742 1.713 . S
Fe743 O747 2.077 1_654 S
Fe743 O752 1.935 1_554 S
Fe743 O754 2.077 1_655 S
Fe743 O762 1.935 . S
C744 O756 1.381 . S
C744 O757 1.421 . S
O745 Fe736 2.077 1_655 S
O745 C758 1.381 . S
O746 Fe739 1.935 . S
O746 C758 1.421 . S
O747 Fe743 2.077 1_456 S
O747 C763 1.381 . S
O748 Fe738 1.935 1_556 S
O748 C763 1.421 . S
O749 Fe738 2.077 1_556 S
O749 C753 1.381 . S
O750 Fe736 1.935 . S
O750 C753 1.421 . S
O751 Fe739 2.077 . S
O751 C759 1.381 . S
O752 Fe743 1.935 1_556 S
O752 C759 1.421 . S
C753 O749 1.381 . S
C753 O750 1.421 . S
O754 Fe743 2.077 1_455 S
O754 C766 1.381 . S
O755 Fe738 1.935 . S
O755 C766 1.421 . S
O756 Fe736 2.077 1_654 S
O756 C744 1.381 . S
O757 Fe739 1.935 1_554 S
O757 C744 1.421 . S
C758 O745 1.381 . S
C758 O746 1.421 . S
C759 O751 1.381 . S
C759 O752 1.421 . S
C760 O761 1.381 . S
C760 O762 1.421 . S
O761 Fe739 2.077 1_554 S
O761 C760 1.381 . S
O762 Fe743 1.935 . S
O762 C760 1.421 . S
C763 O747 1.381 . S
C763 O748 1.421 . S
O764 Fe738 2.077 . S
O764 C767 1.381 . S
O765 Fe736 1.935 1_554 S
O765 C767 1.421 . S
C766 O754 1.381 . S
C766 O755 1.421 . S
C767 O764 1.381 . S
C767 O765 1.421 . S
Fe768 O769 1.886 . S
Fe768 O772 1.715 . S
Fe768 O777 2.077 . S
Fe768 O782 1.935 . S
Fe768 O788 2.077 . S
Fe768 O797 1.935 . S
O769 Fe768 1.886 . S
O769 Fe771 1.715 1_556 S
Fe770 O772 1.886 . S
Fe770 O773 1.715 1_556 S
Fe770 O780 1.935 1_556 S
Fe770 O781 2.077 . S
Fe770 O787 1.935 1_556 S
Fe770 O796 2.077 . S
Fe771 O769 1.715 1_554 S
Fe771 O774 1.886 . S
Fe771 O778 1.935 1_554 S
Fe771 O783 2.077 . S
Fe771 O789 1.935 1_554 S
Fe771 O793 2.077 . S
O772 Fe768 1.715 . S
O772 Fe770 1.886 . S
O773 Fe770 1.715 1_554 S
O773 Fe775 1.886 . S
O774 Fe771 1.886 . S
O774 Fe775 1.715 . S
Fe775 O773 1.886 . S
Fe775 O774 1.715 . S
Fe775 O779 2.077 . S
Fe775 O784 1.935 . S
Fe775 O786 2.077 . S
Fe775 O794 1.935 . S
C776 O788 1.381 . S
C776 O789 1.421 . S
O777 Fe768 2.077 . S
O777 C790 1.381 . S
O778 Fe771 1.935 1_556 S
O778 C790 1.421 . S
O779 Fe775 2.077 . S
O779 C795 1.381 . S
O780 Fe770 1.935 1_554 S
O780 C795 1.421 . S
O781 Fe770 2.077 . S
O781 C785 1.381 . S
O782 Fe768 1.935 . S
O782 C785 1.421 . S
O783 Fe771 2.077 . S
O783 C791 1.381 . S
O784 Fe775 1.935 . S
O784 C791 1.421 . S
C785 O781 1.381 . S
C785 O782 1.421 . S
O786 Fe775 2.077 . S
O786 C798 1.381 . S
O787 Fe770 1.935 1_554 S
O787 C798 1.421 . S
O788 Fe768 2.077 . S
O788 C776 1.381 . S
O789 Fe771 1.935 1_556 S
O789 C776 1.421 . S
C790 O777 1.381 . S
C790 O778 1.421 . S
C791 O783 1.381 . S
C791 O784 1.421 . S
C792 O793 1.381 . S
C792 O794 1.421 . S
O793 Fe771 2.077 . S
O793 C792 1.381 . S
O794 Fe775 1.935 . S
O794 C792 1.421 . S
C795 O779 1.381 . S
C795 O780 1.421 . S
O796 Fe770 2.077 . S
O796 C799 1.381 . S
O797 Fe768 1.935 . S
O797 C799 1.421 . S
C798 O786 1.381 . S
C798 O787 1.421 . S
C799 O796 1.381 . S
C799 O797 1.421 . S
Fe800 O801 1.886 . S
Fe800 O804 1.715 . S
Fe800 O809 2.077 1_655 S
Fe800 O814 1.935 1_655 S
Fe800 O820 2.077 . S
Fe800 O829 1.935 . S
O801 Fe800 1.886 . S
O801 Fe803 1.715 1_655 S
Fe802 O804 1.886 . S
Fe802 O805 1.715 1_655 S
Fe802 O812 1.935 1_655 S
Fe802 O813 2.077 1_655 S
Fe802 O819 1.935 . S
Fe802 O828 2.077 . S
Fe803 O801 1.715 1_455 S
Fe803 O806 1.886 . S
Fe803 O810 1.935 . S
Fe803 O815 2.077 . S
Fe803 O821 1.935 1_455 S
Fe803 O825 2.077 1_455 S
O804 Fe800 1.715 . S
O804 Fe802 1.886 . S
O805 Fe802 1.715 1_455 S
O805 Fe807 1.886 . S
O806 Fe803 1.886 . S
O806 Fe807 1.715 . S
Fe807 O805 1.886 . S
Fe807 O806 1.715 . S
Fe807 O811 2.077 . S
Fe807 O816 1.935 . S
Fe807 O818 2.077 1_455 S
Fe807 O826 1.935 1_455 S
C808 O820 1.381 . S
C808 O821 1.421 . S
O809 Fe800 2.077 1_455 S
O809 C822 1.381 . S
O810 Fe803 1.935 . S
O810 C822 1.421 . S
O811 Fe807 2.077 . S
O811 C827 1.381 . S
O812 Fe802 1.935 1_455 S
O812 C827 1.421 . S
O813 Fe802 2.077 1_455 S
O813 C817 1.381 . S
O814 Fe800 1.935 1_455 S
O814 C817 1.421 . S
O815 Fe803 2.077 . S
O815 C823 1.381 . S
O816 Fe807 1.935 . S
O816 C823 1.421 . S
C817 O813 1.381 . S
C817 O814 1.421 . S
O818 Fe807 2.077 1_655 S
O818 C830 1.381 . S
O819 Fe802 1.935 . S
O819 C830 1.421 . S
O820 Fe800 2.077 . S
O820 C808 1.381 . S
O821 Fe803 1.935 1_655 S
O821 C808 1.421 . S
C822 O809 1.381 . S
C822 O810 1.421 . S
C823 O815 1.381 . S
C823 O816 1.421 . S
C824 O825 1.381 . S
C824 O826 1.421 . S
O825 Fe803 2.077 1_655 S
O825 C824 1.381 . S
O826 Fe807 1.935 1_655 S
O826 C824 1.421 . S
C827 O811 1.381 . S
C827 O812 1.421 . S
O828 Fe802 2.077 . S
O828 C831 1.381 . S
O829 Fe800 1.935 . S
O829 C831 1.421 . S
C830 O818 1.381 . S
C830 O819 1.421 . S
C831 O828 1.381 . S
C831 O829 1.421 . S
Fe832 O833 1.886 . S
Fe832 O836 1.715 . S
Fe832 O841 2.077 . S
Fe832 O846 1.935 . S
Fe832 O852 2.077 . S
Fe832 O861 1.935 . S
O833 Fe832 1.886 . S
O833 Fe835 1.715 . S
Fe834 O836 1.886 1_545 S
Fe834 O837 1.715 . S
Fe834 O844 1.935 . S
Fe834 O845 2.077 1_545 S
Fe834 O851 1.935 . S
Fe834 O860 2.077 1_545 S
Fe835 O833 1.715 . S
Fe835 O838 1.886 1_565 S
Fe835 O842 1.935 . S
Fe835 O847 2.077 1_565 S
Fe835 O853 1.935 . S
Fe835 O857 2.077 1_565 S
O836 Fe832 1.715 . S
O836 Fe834 1.886 1_565 S
O837 Fe834 1.715 . S
O837 Fe839 1.886 . S
O838 Fe835 1.886 1_545 S
O838 Fe839 1.715 . S
Fe839 O837 1.886 . S
Fe839 O838 1.715 . S
Fe839 O843 2.077 . S
Fe839 O848 1.935 . S
Fe839 O850 2.077 . S
Fe839 O858 1.935 . S
C840 O852 1.381 . S
C840 O853 1.421 . S
O841 Fe832 2.077 . S
O841 C854 1.381 . S
O842 Fe835 1.935 . S
O842 C854 1.421 . S
O843 Fe839 2.077 . S
O843 C859 1.381 . S
O844 Fe834 1.935 . S
O844 C859 1.421 . S
O845 Fe834 2.077 1_565 S
O845 C849 1.381 . S
O846 Fe832 1.935 . S
O846 C849 1.421 . S
O847 Fe835 2.077 1_545 S
O847 C855 1.381 . S
O848 Fe839 1.935 . S
O848 C855 1.421 . S
C849 O845 1.381 . S
C849 O846 1.421 . S
O850 Fe839 2.077 . S
O850 C862 1.381 . S
O851 Fe834 1.935 . S
O851 C862 1.421 . S
O852 Fe832 2.077 . S
O852 C840 1.381 . S
O853 Fe835 1.935 . S
O853 C840 1.421 . S
C854 O841 1.381 . S
C854 O842 1.421 . S
C855 O847 1.381 . S
C855 O848 1.421 . S
C856 O857 1.381 . S
C856 O858 1.421 . S
O857 Fe835 2.077 1_545 S
O857 C856 1.381 . S
O858 Fe839 1.935 . S
O858 C856 1.421 . S
C859 O843 1.381 . S
C859 O844 1.421 . S
O860 Fe834 2.077 1_565 S
O860 C863 1.381 . S
O861 Fe832 1.935 . S
O861 C863 1.421 . S
C862 O850 1.381 . S
C862 O851 1.421 . S
C863 O860 1.381 . S
C863 O861 1.421 . S
C864 C865 1.369 . S
C864 C866 1.419 . S
C864 H868 0.930 . S
C865 C864 1.369 . S
C865 C874 1.429 . S
C866 C864 1.419 . S
C866 C867 1.363 . S
C866 H869 0.929 . S
C867 C866 1.363 . S
C867 C873 1.428 . S
H868 C864 0.930 . S
H869 C866 0.929 . S
S870 N871 1.613 . S
S870 N872 1.610 . S
N871 S870 1.613 . S
N871 C874 1.350 . S
N872 S870 1.610 . S
N872 C873 1.351 . S
C873 C867 1.428 . S
C873 N872 1.351 . S
C873 C874 1.434 . S
C874 C865 1.429 . S
C874 N871 1.350 . S
C874 C873 1.434 . S
C875 C876 1.369 . S
C875 C877 1.419 . S
C875 H879 0.930 . S
C876 C875 1.369 . S
C876 C885 1.429 . S
C877 C875 1.419 . S
C877 C878 1.363 . S
C877 H880 0.929 . S
C878 C877 1.363 . S
C878 C884 1.428 . S
H879 C875 0.930 . S
H880 C877 0.929 . S
S881 N882 1.613 . S
S881 N883 1.610 . S
N882 S881 1.613 . S
N882 C885 1.350 . S
N883 S881 1.610 . S
N883 C884 1.351 . S
C884 C878 1.428 . S
C884 N883 1.351 . S
C884 C885 1.434 . S
C885 C876 1.429 . S
C885 N882 1.350 . S
C885 C884 1.434 . S
C886 C887 1.369 . S
C886 C888 1.419 . S
C886 H890 0.930 . S
C887 C886 1.369 . S
C887 C896 1.429 . S
C888 C886 1.419 . S
C888 C889 1.363 . S
C888 H891 0.929 . S
C889 C888 1.363 . S
C889 C895 1.428 . S
H890 C886 0.930 . S
H891 C888 0.929 . S
S892 N893 1.613 . S
S892 N894 1.610 . S
N893 S892 1.613 . S
N893 C896 1.350 . S
N894 S892 1.610 . S
N894 C895 1.351 . S
C895 C889 1.428 . S
C895 N894 1.351 . S
C895 C896 1.434 . S
C896 C887 1.429 . S
C896 N893 1.350 . S
C896 C895 1.434 . S
C897 C898 1.369 . S
C897 C899 1.419 . S
C897 H901 0.930 . S
C898 C897 1.369 . S
C898 C907 1.429 . S
C899 C897 1.419 . S
C899 C900 1.363 . S
C899 H902 0.929 . S
C900 C899 1.363 . S
C900 C906 1.428 . S
H901 C897 0.930 . S
H902 C899 0.929 . S
S903 N904 1.613 . S
S903 N905 1.610 . S
N904 S903 1.613 . S
N904 C907 1.350 . S
N905 S903 1.610 . S
N905 C906 1.351 . S
C906 C900 1.428 . S
C906 N905 1.351 . S
C906 C907 1.434 . S
C907 C898 1.429 . S
C907 N904 1.350 . S
C907 C906 1.434 . S
C908 C909 1.369 . S
C908 C910 1.419 . S
C908 H912 0.930 . S
C909 C908 1.369 . S
C909 C918 1.429 . S
C910 C908 1.419 . S
C910 C911 1.363 . S
C910 H913 0.929 . S
C911 C910 1.363 . S
C911 C917 1.428 . S
H912 C908 0.930 . S
H913 C910 0.929 . S
S914 N915 1.613 1_545 S
S914 N916 1.610 1_545 S
N915 S914 1.613 1_565 S
N915 C918 1.350 . S
N916 S914 1.610 1_565 S
N916 C917 1.351 . S
C917 C911 1.428 . S
C917 N916 1.351 . S
C917 C918 1.434 . S
C918 C909 1.429 . S
C918 N915 1.350 . S
C918 C917 1.434 . S
C919 C920 1.369 . S
C919 C921 1.419 . S
C919 H923 0.930 . S
C920 C919 1.369 . S
C920 C929 1.429 . S
C921 C919 1.419 . S
C921 C922 1.363 . S
C921 H924 0.929 . S
C922 C921 1.363 . S
C922 C928 1.428 . S
H923 C919 0.930 . S
H924 C921 0.929 . S
S925 N926 1.613 . S
S925 N927 1.610 . S
N926 S925 1.613 . S
N926 C929 1.350 . S
N927 S925 1.610 . S
N927 C928 1.351 . S
C928 C922 1.428 . S
C928 N927 1.351 . S
C928 C929 1.434 . S
C929 C920 1.429 . S
C929 N926 1.350 . S
C929 C928 1.434 . S
C930 C931 1.369 . S
C930 C932 1.419 . S
C930 H934 0.930 . S
C931 C930 1.369 . S
C931 C940 1.429 . S
C932 C930 1.419 . S
C932 C933 1.363 . S
C932 H935 0.929 . S
C933 C932 1.363 . S
C933 C939 1.428 . S
H934 C930 0.930 . S
H935 C932 0.929 . S
S936 N937 1.613 1_565 S
S936 N938 1.610 1_565 S
N937 S936 1.613 1_545 S
N937 C940 1.350 . S
N938 S936 1.610 1_545 S
N938 C939 1.351 . S
C939 C933 1.428 . S
C939 N938 1.351 . S
C939 C940 1.434 . S
C940 C931 1.429 . S
C940 N937 1.350 . S
C940 C939 1.434 . S
C941 C942 1.369 . S
C941 C943 1.419 . S
C941 H945 0.930 . S
C942 C941 1.369 . S
C942 C951 1.429 . S
C943 C941 1.419 . S
C943 C944 1.363 . S
C943 H946 0.929 . S
C944 C943 1.363 . S
C944 C950 1.428 . S
H945 C941 0.930 . S
H946 C943 0.929 . S
S947 N948 1.613 . S
S947 N949 1.610 . S
N948 S947 1.613 . S
N948 C951 1.350 . S
N949 S947 1.610 . S
N949 C950 1.351 . S
C950 C944 1.428 . S
C950 N949 1.351 . S
C950 C951 1.434 . S
C951 C942 1.429 . S
C951 N948 1.350 . S
C951 C950 1.434 . S
C952 C953 1.369 . S
C952 C954 1.419 . S
C952 H956 0.930 . S
C953 C952 1.369 . S
C953 C962 1.429 . S
C954 C952 1.419 . S
C954 C955 1.363 . S
C954 H957 0.929 . S
C955 C954 1.363 . S
C955 C961 1.428 . S
H956 C952 0.930 . S
H957 C954 0.929 . S
S958 N959 1.613 . S
S958 N960 1.610 . S
N959 S958 1.613 . S
N959 C962 1.350 . S
N960 S958 1.610 . S
N960 C961 1.351 . S
C961 C955 1.428 . S
C961 N960 1.351 . S
C961 C962 1.434 . S
C962 C953 1.429 . S
C962 N959 1.350 . S
C962 C961 1.434 . S
C963 C964 1.369 . S
C963 C965 1.419 . S
C963 H967 0.930 . S
C964 C963 1.369 . S
C964 C973 1.429 . S
C965 C963 1.419 . S
C965 C966 1.363 . S
C965 H968 0.929 . S
C966 C965 1.363 . S
C966 C972 1.428 . S
H967 C963 0.930 . S
H968 C965 0.929 . S
S969 N970 1.613 . S
S969 N971 1.610 . S
N970 S969 1.613 . S
N970 C973 1.350 . S
N971 S969 1.610 . S
N971 C972 1.351 . S
C972 C966 1.428 . S
C972 N971 1.351 . S
C972 C973 1.434 . S
C973 C964 1.429 . S
C973 N970 1.350 . S
C973 C972 1.434 . S
C974 C975 1.369 . S
C974 C976 1.419 . S
C974 H978 0.930 . S
C975 C974 1.369 . S
C975 C984 1.429 . S
C976 C974 1.419 . S
C976 C977 1.363 . S
C976 H979 0.929 . S
C977 C976 1.363 . S
C977 C983 1.428 . S
H978 C974 0.930 . S
H979 C976 0.929 . S
S980 N981 1.613 . S
S980 N982 1.610 . S
N981 S980 1.613 . S
N981 C984 1.350 . S
N982 S980 1.610 . S
N982 C983 1.351 . S
C983 C977 1.428 . S
C983 N982 1.351 . S
C983 C984 1.434 . S
C984 C975 1.429 . S
C984 N981 1.350 . S
C984 C983 1.434 . S
C985 C986 1.369 . S
C985 C987 1.419 . S
C985 H989 0.930 . S
C986 C985 1.369 . S
C986 C995 1.429 . S
C987 C985 1.419 . S
C987 C988 1.363 . S
C987 H990 0.929 . S
C988 C987 1.363 . S
C988 C994 1.428 . S
H989 C985 0.930 . S
H990 C987 0.929 . S
S991 N992 1.613 . S
S991 N993 1.610 . S
N992 S991 1.613 . S
N992 C995 1.350 . S
N993 S991 1.610 . S
N993 C994 1.351 . S
C994 C988 1.428 . S
C994 N993 1.351 . S
C994 C995 1.434 . S
C995 C986 1.429 . S
C995 N992 1.350 . S
C995 C994 1.434 . S
C996 C997 1.369 . S
C996 C998 1.419 . S
C996 H1000 0.930 . S
C997 C996 1.369 . S
C997 C1006 1.429 . S
C998 C996 1.419 . S
C998 C999 1.363 . S
C998 H1001 0.929 . S
C999 C998 1.363 . S
C999 C1005 1.428 . S
H1000 C996 0.930 . S
H1001 C998 0.929 . S
S1002 N1003 1.613 . S
S1002 N1004 1.610 . S
N1003 S1002 1.613 . S
N1003 C1006 1.350 . S
N1004 S1002 1.610 . S
N1004 C1005 1.351 . S
C1005 C999 1.428 . S
C1005 N1004 1.351 . S
C1005 C1006 1.434 . S
C1006 C997 1.429 . S
C1006 N1003 1.350 . S
C1006 C1005 1.434 . S
C1007 C1008 1.369 . S
C1007 C1009 1.419 . S
C1007 H1011 0.930 . S
C1008 C1007 1.369 . S
C1008 C1017 1.429 . S
C1009 C1007 1.419 . S
C1009 C1010 1.363 . S
C1009 H1012 0.929 . S
C1010 C1009 1.363 . S
C1010 C1016 1.428 . S
H1011 C1007 0.930 . S
H1012 C1009 0.929 . S
S1013 N1014 1.610 1_554 S
S1013 N1015 1.610 1_554 S
N1014 S1013 1.610 1_556 S
N1014 C1017 1.350 . S
N1015 S1013 1.610 1_556 S
N1015 C1016 1.351 . S
C1016 C1010 1.428 . S
C1016 N1015 1.351 . S
C1016 C1017 1.434 . S
C1017 C1008 1.429 . S
C1017 N1014 1.350 . S
C1017 C1016 1.434 . S
C1018 C1019 1.369 . S
C1018 C1020 1.419 . S
C1018 H1022 0.930 . S
C1019 C1018 1.369 . S
C1019 C1028 1.429 . S
C1020 C1018 1.419 . S
C1020 C1021 1.363 . S
C1020 H1023 0.929 . S
C1021 C1020 1.363 . S
C1021 C1027 1.428 . S
H1022 C1018 0.930 . S
H1023 C1020 0.929 . S
S1024 N1025 1.613 . S
S1024 N1026 1.610 . S
N1025 S1024 1.613 . S
N1025 C1028 1.350 . S
N1026 S1024 1.610 . S
N1026 C1027 1.351 . S
C1027 C1021 1.428 . S
C1027 N1026 1.351 . S
C1027 C1028 1.434 . S
C1028 C1019 1.429 . S
C1028 N1025 1.350 . S
C1028 C1027 1.434 . S
C1029 C1030 1.369 . S
C1029 C1031 1.419 . S
C1029 H1033 0.930 . S
C1030 C1029 1.369 . S
C1030 C1039 1.429 . S
C1031 C1029 1.419 . S
C1031 C1032 1.363 . S
C1031 H1034 0.929 . S
C1032 C1031 1.363 . S
C1032 C1038 1.428 . S
H1033 C1029 0.930 . S
H1034 C1031 0.929 . S
S1035 N1036 1.613 . S
S1035 N1037 1.610 . S
N1036 S1035 1.613 . S
N1036 C1039 1.350 . S
N1037 S1035 1.610 . S
N1037 C1038 1.351 . S
C1038 C1032 1.428 . S
C1038 N1037 1.351 . S
C1038 C1039 1.434 . S
C1039 C1030 1.429 . S
C1039 N1036 1.350 . S
C1039 C1038 1.434 . S
C1040 C1041 1.369 . S
C1040 C1042 1.419 . S
C1040 H1044 0.930 . S
C1041 C1040 1.369 . S
C1041 C1050 1.429 . S
C1042 C1040 1.419 . S
C1042 C1043 1.363 . S
C1042 H1045 0.929 . S
C1043 C1042 1.363 . S
C1043 C1049 1.428 . S
H1044 C1040 0.930 . S
H1045 C1042 0.929 . S
S1046 N1047 1.613 . S
S1046 N1048 1.610 . S
N1047 S1046 1.613 . S
N1047 C1050 1.350 . S
N1048 S1046 1.610 . S
N1048 C1049 1.351 . S
C1049 C1043 1.428 . S
C1049 N1048 1.351 . S
C1049 C1050 1.434 . S
C1050 C1041 1.429 . S
C1050 N1047 1.350 . S
C1050 C1049 1.434 . S
C1051 C1052 1.369 . S
C1051 C1053 1.419 . S
C1051 H1055 0.930 . S
C1052 C1051 1.369 . S
C1052 C1061 1.429 . S
C1053 C1051 1.419 . S
C1053 C1054 1.363 . S
C1053 H1056 0.929 . S
C1054 C1053 1.363 . S
C1054 C1060 1.428 . S
H1055 C1051 0.930 . S
H1056 C1053 0.929 . S
S1057 N1058 1.613 . S
S1057 N1059 1.610 . S
N1058 S1057 1.613 . S
N1058 C1061 1.350 . S
N1059 S1057 1.610 . S
N1059 C1060 1.351 . S
C1060 C1054 1.428 . S
C1060 N1059 1.351 . S
C1060 C1061 1.434 . S
C1061 C1052 1.429 . S
C1061 N1058 1.350 . S
C1061 C1060 1.434 . S
C1062 C1063 1.369 . S
C1062 C1064 1.419 . S
C1062 H1066 0.930 . S
C1063 C1062 1.369 . S
C1063 C1072 1.429 . S
C1064 C1062 1.419 . S
C1064 C1065 1.363 . S
C1064 H1067 0.929 . S
C1065 C1064 1.363 . S
C1065 C1071 1.428 . S
H1066 C1062 0.930 . S
H1067 C1064 0.929 . S
S1068 N1069 1.613 . S
S1068 N1070 1.610 . S
N1069 S1068 1.613 . S
N1069 C1072 1.350 . S
N1070 S1068 1.610 . S
N1070 C1071 1.351 . S
C1071 C1065 1.428 . S
C1071 N1070 1.351 . S
C1071 C1072 1.434 . S
C1072 C1063 1.429 . S
C1072 N1069 1.350 . S
C1072 C1071 1.434 . S
C1073 C1074 1.369 . S
C1073 C1075 1.419 . S
C1073 H1077 0.930 . S
C1074 C1073 1.369 . S
C1074 C1083 1.429 . S
C1075 C1073 1.419 . S
C1075 C1076 1.363 . S
C1075 H1078 0.929 . S
C1076 C1075 1.363 . S
C1076 C1082 1.428 . S
H1077 C1073 0.930 . S
H1078 C1075 0.929 . S
S1079 N1080 1.613 . S
S1079 N1081 1.610 . S
N1080 S1079 1.613 . S
N1080 C1083 1.350 . S
N1081 S1079 1.610 . S
N1081 C1082 1.351 . S
C1082 C1076 1.428 . S
C1082 N1081 1.351 . S
C1082 C1083 1.434 . S
C1083 C1074 1.429 . S
C1083 N1080 1.350 . S
C1083 C1082 1.434 . S
C1084 C1085 1.369 . S
C1084 C1086 1.419 . S
C1084 H1088 0.930 . S
C1085 C1084 1.369 . S
C1085 C1094 1.429 . S
C1086 C1084 1.419 . S
C1086 C1087 1.363 . S
C1086 H1089 0.929 . S
C1087 C1086 1.363 . S
C1087 C1093 1.428 . S
H1088 C1084 0.930 . S
H1089 C1086 0.929 . S
S1090 N1091 1.613 . S
S1090 N1092 1.610 . S
N1091 S1090 1.613 . S
N1091 C1094 1.350 . S
N1092 S1090 1.610 . S
N1092 C1093 1.351 . S
C1093 C1087 1.428 . S
C1093 N1092 1.351 . S
C1093 C1094 1.434 . S
C1094 C1085 1.429 . S
C1094 N1091 1.350 . S
C1094 C1093 1.434 . S
C1095 C1096 1.369 . S
C1095 C1097 1.419 . S
C1095 H1099 0.930 . S
C1096 C1095 1.369 . S
C1096 C1105 1.429 . S
C1097 C1095 1.419 . S
C1097 C1098 1.363 . S
C1097 H1100 0.929 . S
C1098 C1097 1.363 . S
C1098 C1104 1.428 . S
H1099 C1095 0.930 . S
H1100 C1097 0.929 . S
S1101 N1102 1.613 . S
S1101 N1103 1.610 . S
N1102 S1101 1.613 . S
N1102 C1105 1.350 . S
N1103 S1101 1.610 . S
N1103 C1104 1.351 . S
C1104 C1098 1.428 . S
C1104 N1103 1.351 . S
C1104 C1105 1.434 . S
C1105 C1096 1.429 . S
C1105 N1102 1.350 . S
C1105 C1104 1.434 . S
C1106 C1107 1.369 . S
C1106 C1108 1.419 . S
C1106 H1110 0.930 . S
C1107 C1106 1.369 . S
C1107 C1116 1.429 . S
C1108 C1106 1.419 . S
C1108 C1109 1.363 . S
C1108 H1111 0.929 . S
C1109 C1108 1.363 . S
C1109 C1115 1.428 . S
H1110 C1106 0.930 . S
H1111 C1108 0.929 . S
S1112 N1113 1.613 . S
S1112 N1114 1.610 . S
N1113 S1112 1.613 . S
N1113 C1116 1.350 . S
N1114 S1112 1.610 . S
N1114 C1115 1.351 . S
C1115 C1109 1.428 . S
C1115 N1114 1.351 . S
C1115 C1116 1.434 . S
C1116 C1107 1.429 . S
C1116 N1113 1.350 . S
C1116 C1115 1.434 . S
C1117 C1118 1.369 . S
C1117 C1119 1.419 . S
C1117 H1121 0.930 . S
C1118 C1117 1.369 . S
C1118 C1127 1.429 . S
C1119 C1117 1.419 . S
C1119 C1120 1.363 . S
C1119 H1122 0.929 . S
C1120 C1119 1.363 . S
C1120 C1126 1.428 . S
H1121 C1117 0.930 . S
H1122 C1119 0.929 . S
S1123 N1124 1.613 . S
S1123 N1125 1.610 . S
N1124 S1123 1.613 . S
N1124 C1127 1.350 . S
N1125 S1123 1.610 . S
N1125 C1126 1.351 . S
C1126 C1120 1.428 . S
C1126 N1125 1.351 . S
C1126 C1127 1.434 . S
C1127 C1118 1.429 . S
C1127 N1124 1.350 . S
C1127 C1126 1.434 . S
C1128 C1129 1.369 . S
C1128 C1130 1.419 . S
C1128 H1132 0.930 . S
C1129 C1128 1.369 . S
C1129 C1138 1.429 . S
C1130 C1128 1.419 . S
C1130 C1131 1.363 . S
C1130 H1133 0.929 . S
C1131 C1130 1.363 . S
C1131 C1137 1.428 . S
H1132 C1128 0.930 . S
H1133 C1130 0.929 . S
S1134 N1135 1.613 . S
S1134 N1136 1.610 . S
N1135 S1134 1.613 . S
N1135 C1138 1.350 . S
N1136 S1134 1.610 . S
N1136 C1137 1.351 . S
C1137 C1131 1.428 . S
C1137 N1136 1.351 . S
C1137 C1138 1.434 . S
C1138 C1129 1.429 . S
C1138 N1135 1.350 . S
C1138 C1137 1.434 . S
C1139 C1140 1.369 . S
C1139 C1141 1.419 . S
C1139 H1143 0.930 . S
C1140 C1139 1.369 . S
C1140 C1149 1.429 . S
C1141 C1139 1.419 . S
C1141 C1142 1.363 . S
C1141 H1144 0.929 . S
C1142 C1141 1.363 . S
C1142 C1148 1.428 . S
H1143 C1139 0.930 . S
H1144 C1141 0.929 . S
S1145 N1146 1.613 . S
S1145 N1147 1.610 . S
N1146 S1145 1.613 . S
N1146 C1149 1.350 . S
N1147 S1145 1.610 . S
N1147 C1148 1.351 . S
C1148 C1142 1.428 . S
C1148 N1147 1.351 . S
C1148 C1149 1.434 . S
C1149 C1140 1.429 . S
C1149 N1146 1.350 . S
C1149 C1148 1.434 . S
C1150 C1151 1.369 . S
C1150 C1152 1.419 . S
C1150 H1154 0.930 . S
C1151 C1150 1.369 . S
C1151 C1160 1.429 . S
C1152 C1150 1.419 . S
C1152 C1153 1.363 . S
C1152 H1155 0.929 . S
C1153 C1152 1.363 . S
C1153 C1159 1.428 . S
H1154 C1150 0.930 . S
H1155 C1152 0.929 . S
S1156 N1157 1.613 . S
S1156 N1158 1.610 . S
N1157 S1156 1.613 . S
N1157 C1160 1.350 . S
N1158 S1156 1.610 . S
N1158 C1159 1.351 . S
C1159 C1153 1.428 . S
C1159 N1158 1.351 . S
C1159 C1160 1.434 . S
C1160 C1151 1.429 . S
C1160 N1157 1.350 . S
C1160 C1159 1.434 . S
C1161 C1162 1.369 . S
C1161 C1163 1.419 . S
C1161 H1165 0.930 . S
C1162 C1161 1.369 . S
C1162 C1171 1.429 . S
C1163 C1161 1.419 . S
C1163 C1164 1.363 . S
C1163 H1166 0.929 . S
C1164 C1163 1.363 . S
C1164 C1170 1.428 . S
H1165 C1161 0.930 . S
H1166 C1163 0.929 . S
S1167 N1168 1.613 . S
S1167 N1169 1.610 . S
N1168 S1167 1.613 . S
N1168 C1171 1.350 . S
N1169 S1167 1.610 . S
N1169 C1170 1.351 . S
C1170 C1164 1.428 . S
C1170 N1169 1.351 . S
C1170 C1171 1.434 . S
C1171 C1162 1.429 . S
C1171 N1168 1.350 . S
C1171 C1170 1.434 . S
C1172 C1173 1.369 . S
C1172 C1174 1.419 . S
C1172 H1176 0.930 . S
C1173 C1172 1.369 . S
C1173 C1182 1.429 . S
C1174 C1172 1.419 . S
C1174 C1175 1.363 . S
C1174 H1177 0.929 . S
C1175 C1174 1.363 . S
C1175 C1181 1.428 . S
H1176 C1172 0.930 . S
H1177 C1174 0.929 . S
S1178 N1179 1.613 . S
S1178 N1180 1.610 . S
N1179 S1178 1.613 . S
N1179 C1182 1.350 . S
N1180 S1178 1.610 . S
N1180 C1181 1.351 . S
C1181 C1175 1.428 . S
C1181 N1180 1.351 . S
C1181 C1182 1.434 . S
C1182 C1173 1.429 . S
C1182 N1179 1.350 . S
C1182 C1181 1.434 . S
C1183 C1184 1.369 . S
C1183 C1185 1.419 . S
C1183 H1187 0.930 . S
C1184 C1183 1.369 . S
C1184 C1193 1.429 . S
C1185 C1183 1.419 . S
C1185 C1186 1.363 . S
C1185 H1188 0.929 . S
C1186 C1185 1.363 . S
C1186 C1192 1.428 . S
H1187 C1183 0.930 . S
H1188 C1185 0.929 . S
S1189 N1190 1.613 . S
S1189 N1191 1.610 . S
N1190 S1189 1.613 . S
N1190 C1193 1.350 . S
N1191 S1189 1.610 . S
N1191 C1192 1.351 . S
C1192 C1186 1.428 . S
C1192 N1191 1.351 . S
C1192 C1193 1.434 . S
C1193 C1184 1.429 . S
C1193 N1190 1.350 . S
C1193 C1192 1.434 . S
C1194 C1195 1.369 . S
C1194 C1196 1.419 . S
C1194 H1198 0.930 . S
C1195 C1194 1.369 . S
C1195 C1204 1.429 . S
C1196 C1194 1.419 . S
C1196 C1197 1.363 . S
C1196 H1199 0.929 . S
C1197 C1196 1.363 . S
C1197 C1203 1.428 . S
H1198 C1194 0.930 . S
H1199 C1196 0.929 . S
S1200 N1201 1.613 . S
S1200 N1202 1.610 . S
N1201 S1200 1.613 . S
N1201 C1204 1.350 . S
N1202 S1200 1.610 . S
N1202 C1203 1.351 . S
C1203 C1197 1.428 . S
C1203 N1202 1.351 . S
C1203 C1204 1.434 . S
C1204 C1195 1.429 . S
C1204 N1201 1.350 . S
C1204 C1203 1.434 . S
C1205 C1206 1.369 . S
C1205 C1207 1.419 . S
C1205 H1209 0.930 . S
C1206 C1205 1.369 . S
C1206 C1215 1.429 . S
C1207 C1205 1.419 . S
C1207 C1208 1.363 . S
C1207 H1210 0.929 . S
C1208 C1207 1.363 . S
C1208 C1214 1.428 . S
H1209 C1205 0.930 . S
H1210 C1207 0.929 . S
S1211 N1212 1.613 . S
S1211 N1213 1.610 . S
N1212 S1211 1.613 . S
N1212 C1215 1.350 . S
N1213 S1211 1.610 . S
N1213 C1214 1.351 . S
C1214 C1208 1.428 . S
C1214 N1213 1.351 . S
C1214 C1215 1.434 . S
C1215 C1206 1.429 . S
C1215 N1212 1.350 . S
C1215 C1214 1.434 . S
C1216 C1217 1.369 . S
C1216 C1218 1.419 . S
C1216 H1220 0.930 . S
C1217 C1216 1.369 . S
C1217 C1226 1.429 . S
C1218 C1216 1.419 . S
C1218 C1219 1.363 . S
C1218 H1221 0.929 . S
C1219 C1218 1.363 . S
C1219 C1225 1.428 . S
H1220 C1216 0.930 . S
H1221 C1218 0.929 . S
S1222 N1223 1.613 . S
S1222 N1224 1.610 . S
N1223 S1222 1.613 . S
N1223 C1226 1.350 . S
N1224 S1222 1.610 . S
N1224 C1225 1.351 . S
C1225 C1219 1.428 . S
C1225 N1224 1.351 . S
C1225 C1226 1.434 . S
C1226 C1217 1.429 . S
C1226 N1223 1.350 . S
C1226 C1225 1.434 . S
C1227 C1228 1.369 . S
C1227 C1229 1.419 . S
C1227 H1231 0.930 . S
C1228 C1227 1.369 . S
C1228 C1237 1.429 . S
C1229 C1227 1.419 . S
C1229 C1230 1.363 . S
C1229 H1232 0.929 . S
C1230 C1229 1.363 . S
C1230 C1236 1.428 . S
H1231 C1227 0.930 . S
H1232 C1229 0.929 . S
S1233 N1234 1.613 . S
S1233 N1235 1.610 . S
N1234 S1233 1.613 . S
N1234 C1237 1.350 . S
N1235 S1233 1.610 . S
N1235 C1236 1.351 . S
C1236 C1230 1.428 . S
C1236 N1235 1.351 . S
C1236 C1237 1.434 . S
C1237 C1228 1.429 . S
C1237 N1234 1.350 . S
C1237 C1236 1.434 . S
C1238 C1239 1.369 . S
C1238 C1240 1.419 . S
C1238 H1242 0.930 . S
C1239 C1238 1.369 . S
C1239 C1248 1.429 . S
C1240 C1238 1.419 . S
C1240 C1241 1.363 . S
C1240 H1243 0.929 . S
C1241 C1240 1.363 . S
C1241 C1247 1.428 . S
H1242 C1238 0.930 . S
H1243 C1240 0.929 . S
S1244 N1245 1.613 . S
S1244 N1246 1.610 . S
N1245 S1244 1.613 . S
N1245 C1248 1.350 . S
N1246 S1244 1.610 . S
N1246 C1247 1.351 . S
C1247 C1241 1.428 . S
C1247 N1246 1.351 . S
C1247 C1248 1.434 . S
C1248 C1239 1.429 . S
C1248 N1245 1.350 . S
C1248 C1247 1.434 . S
C1249 C1250 1.369 . S
C1249 C1251 1.419 . S
C1249 H1253 0.930 . S
C1250 C1249 1.369 . S
C1250 C1259 1.429 . S
C1251 C1249 1.419 . S
C1251 C1252 1.363 . S
C1251 H1254 0.929 . S
C1252 C1251 1.363 . S
C1252 C1258 1.428 . S
H1253 C1249 0.930 . S
H1254 C1251 0.929 . S
S1255 N1256 1.613 . S
S1255 N1257 1.610 . S
N1256 S1255 1.613 . S
N1256 C1259 1.350 . S
N1257 S1255 1.610 . S
N1257 C1258 1.351 . S
C1258 C1252 1.428 . S
C1258 N1257 1.351 . S
C1258 C1259 1.434 . S
C1259 C1250 1.429 . S
C1259 N1256 1.350 . S
C1259 C1258 1.434 . S
C1260 C1261 1.369 . S
C1260 C1262 1.419 . S
C1260 H1264 0.930 . S
C1261 C1260 1.369 . S
C1261 C1270 1.429 . S
C1262 C1260 1.419 . S
C1262 C1263 1.363 . S
C1262 H1265 0.929 . S
C1263 C1262 1.363 . S
C1263 C1269 1.428 . S
H1264 C1260 0.930 . S
H1265 C1262 0.929 . S
S1266 N1267 1.613 . S
S1266 N1268 1.610 . S
N1267 S1266 1.613 . S
N1267 C1270 1.350 . S
N1268 S1266 1.610 . S
N1268 C1269 1.351 . S
C1269 C1263 1.428 . S
C1269 N1268 1.351 . S
C1269 C1270 1.434 . S
C1270 C1261 1.429 . S
C1270 N1267 1.350 . S
C1270 C1269 1.434 . S
C1271 C1272 1.369 . S
C1271 C1273 1.419 . S
C1271 H1275 0.930 . S
C1272 C1271 1.369 . S
C1272 C1281 1.429 . S
C1273 C1271 1.419 . S
C1273 C1274 1.363 . S
C1273 H1276 0.929 . S
C1274 C1273 1.363 . S
C1274 C1280 1.428 . S
H1275 C1271 0.930 . S
H1276 C1273 0.929 . S
S1277 N1278 1.613 . S
S1277 N1279 1.610 . S
N1278 S1277 1.613 . S
N1278 C1281 1.350 . S
N1279 S1277 1.610 . S
N1279 C1280 1.351 . S
C1280 C1274 1.428 . S
C1280 N1279 1.351 . S
C1280 C1281 1.434 . S
C1281 C1272 1.429 . S
C1281 N1278 1.350 . S
C1281 C1280 1.434 . S
C1282 C1283 1.369 . S
C1282 C1284 1.419 . S
C1282 H1286 0.930 . S
C1283 C1282 1.369 . S
C1283 C1292 1.429 . S
C1284 C1282 1.419 . S
C1284 C1285 1.363 . S
C1284 H1287 0.929 . S
C1285 C1284 1.363 . S
C1285 C1291 1.428 . S
H1286 C1282 0.930 . S
H1287 C1284 0.929 . S
S1288 N1289 1.613 . S
S1288 N1290 1.610 . S
N1289 S1288 1.613 . S
N1289 C1292 1.350 . S
N1290 S1288 1.610 . S
N1290 C1291 1.351 . S
C1291 C1285 1.428 . S
C1291 N1290 1.351 . S
C1291 C1292 1.434 . S
C1292 C1283 1.429 . S
C1292 N1289 1.350 . S
C1292 C1291 1.434 . S
C1293 C1294 1.369 . S
C1293 C1295 1.419 . S
C1293 H1297 0.930 . S
C1294 C1293 1.369 . S
C1294 C1303 1.429 . S
C1295 C1293 1.419 . S
C1295 C1296 1.363 . S
C1295 H1298 0.929 . S
C1296 C1295 1.363 . S
C1296 C1302 1.428 . S
H1297 C1293 0.930 . S
H1298 C1295 0.929 . S
S1299 N1300 1.613 . S
S1299 N1301 1.610 . S
N1300 S1299 1.613 . S
N1300 C1303 1.350 . S
N1301 S1299 1.610 . S
N1301 C1302 1.351 . S
C1302 C1296 1.428 . S
C1302 N1301 1.351 . S
C1302 C1303 1.434 . S
C1303 C1294 1.429 . S
C1303 N1300 1.350 . S
C1303 C1302 1.434 . S
C1304 C1305 1.369 . S
C1304 C1306 1.419 . S
C1304 H1308 0.930 . S
C1305 C1304 1.369 . S
C1305 C1314 1.429 . S
C1306 C1304 1.419 . S
C1306 C1307 1.363 . S
C1306 H1309 0.929 . S
C1307 C1306 1.363 . S
C1307 C1313 1.428 . S
H1308 C1304 0.930 . S
H1309 C1306 0.929 . S
S1310 N1311 1.613 . S
S1310 N1312 1.610 . S
N1311 S1310 1.613 . S
N1311 C1314 1.350 . S
N1312 S1310 1.610 . S
N1312 C1313 1.351 . S
C1313 C1307 1.428 . S
C1313 N1312 1.351 . S
C1313 C1314 1.434 . S
C1314 C1305 1.429 . S
C1314 N1311 1.350 . S
C1314 C1313 1.434 . S
C1315 C1316 1.369 . S
C1315 C1317 1.419 . S
C1315 H1319 0.930 . S
C1316 C1315 1.369 . S
C1316 C1325 1.429 . S
C1317 C1315 1.419 . S
C1317 C1318 1.363 . S
C1317 H1320 0.929 . S
C1318 C1317 1.363 . S
C1318 C1324 1.428 . S
H1319 C1315 0.930 . S
H1320 C1317 0.929 . S
S1321 N1322 1.613 . S
S1321 N1323 1.610 . S
N1322 S1321 1.613 . S
N1322 C1325 1.350 . S
N1323 S1321 1.610 . S
N1323 C1324 1.351 . S
C1324 C1318 1.428 . S
C1324 N1323 1.351 . S
C1324 C1325 1.434 . S
C1325 C1316 1.429 . S
C1325 N1322 1.350 . S
C1325 C1324 1.434 . S
C1326 C1327 1.369 . S
C1326 C1328 1.419 . S
C1326 H1330 0.930 . S
C1327 C1326 1.369 . S
C1327 C1336 1.429 . S
C1328 C1326 1.419 . S
C1328 C1329 1.363 . S
C1328 H1331 0.929 . S
C1329 C1328 1.363 . S
C1329 C1335 1.428 . S
H1330 C1326 0.930 . S
H1331 C1328 0.929 . S
S1332 N1333 1.613 . S
S1332 N1334 1.610 . S
N1333 S1332 1.613 . S
N1333 C1336 1.350 . S
N1334 S1332 1.610 . S
N1334 C1335 1.351 . S
C1335 C1329 1.428 . S
C1335 N1334 1.351 . S
C1335 C1336 1.434 . S
C1336 C1327 1.429 . S
C1336 N1333 1.350 . S
C1336 C1335 1.434 . S
C1337 C1338 1.369 . S
C1337 C1339 1.419 . S
C1337 H1341 0.930 . S
C1338 C1337 1.369 . S
C1338 C1347 1.429 . S
C1339 C1337 1.419 . S
C1339 C1340 1.363 . S
C1339 H1342 0.929 . S
C1340 C1339 1.363 . S
C1340 C1346 1.428 . S
H1341 C1337 0.930 . S
H1342 C1339 0.929 . S
S1343 N1344 1.613 . S
S1343 N1345 1.610 . S
N1344 S1343 1.613 . S
N1344 C1347 1.350 . S
N1345 S1343 1.610 . S
N1345 C1346 1.351 . S
C1346 C1340 1.428 . S
C1346 N1345 1.351 . S
C1346 C1347 1.434 . S
C1347 C1338 1.429 . S
C1347 N1344 1.350 . S
C1347 C1346 1.434 . S
C1348 C1349 1.369 . S
C1348 C1350 1.419 . S
C1348 H1352 0.930 . S
C1349 C1348 1.369 . S
C1349 C1358 1.429 . S
C1350 C1348 1.419 . S
C1350 C1351 1.363 . S
C1350 H1353 0.929 . S
C1351 C1350 1.363 . S
C1351 C1357 1.428 . S
H1352 C1348 0.930 . S
H1353 C1350 0.929 . S
S1354 N1355 1.613 . S
S1354 N1356 1.610 . S
N1355 S1354 1.613 . S
N1355 C1358 1.350 . S
N1356 S1354 1.610 . S
N1356 C1357 1.351 . S
C1357 C1351 1.428 . S
C1357 N1356 1.351 . S
C1357 C1358 1.434 . S
C1358 C1349 1.429 . S
C1358 N1355 1.350 . S
C1358 C1357 1.434 . S
C1359 C1360 1.369 . S
C1359 C1361 1.419 . S
C1359 H1363 0.930 . S
C1360 C1359 1.369 . S
C1360 C1369 1.429 . S
C1361 C1359 1.419 . S
C1361 C1362 1.363 . S
C1361 H1364 0.929 . S
C1362 C1361 1.363 . S
C1362 C1368 1.428 . S
H1363 C1359 0.930 . S
H1364 C1361 0.929 . S
S1365 N1366 1.613 . S
S1365 N1367 1.610 . S
N1366 S1365 1.613 . S
N1366 C1369 1.350 . S
N1367 S1365 1.610 . S
N1367 C1368 1.351 . S
C1368 C1362 1.428 . S
C1368 N1367 1.351 . S
C1368 C1369 1.434 . S
C1369 C1360 1.429 . S
C1369 N1366 1.350 . S
C1369 C1368 1.434 . S
C1370 C1371 1.369 . S
C1370 C1372 1.419 . S
C1370 H1374 0.930 . S
C1371 C1370 1.369 . S
C1371 C1380 1.429 . S
C1372 C1370 1.419 . S
C1372 C1373 1.363 . S
C1372 H1375 0.929 . S
C1373 C1372 1.363 . S
C1373 C1379 1.428 . S
H1374 C1370 0.930 . S
H1375 C1372 0.929 . S
S1376 N1377 1.613 . S
S1376 N1378 1.610 . S
N1377 S1376 1.613 . S
N1377 C1380 1.350 . S
N1378 S1376 1.610 . S
N1378 C1379 1.351 . S
C1379 C1373 1.428 . S
C1379 N1378 1.351 . S
C1379 C1380 1.434 . S
C1380 C1371 1.429 . S
C1380 N1377 1.350 . S
C1380 C1379 1.434 . S
C1381 C1382 1.369 . S
C1381 C1383 1.419 . S
C1381 H1385 0.930 . S
C1382 C1381 1.369 . S
C1382 C1391 1.429 . S
C1383 C1381 1.419 . S
C1383 C1384 1.363 . S
C1383 H1386 0.929 . S
C1384 C1383 1.363 . S
C1384 C1390 1.428 . S
H1385 C1381 0.930 . S
H1386 C1383 0.929 . S
S1387 N1388 1.613 . S
S1387 N1389 1.610 . S
N1388 S1387 1.613 . S
N1388 C1391 1.350 . S
N1389 S1387 1.610 . S
N1389 C1390 1.351 . S
C1390 C1384 1.428 . S
C1390 N1389 1.351 . S
C1390 C1391 1.434 . S
C1391 C1382 1.429 . S
C1391 N1388 1.350 . S
C1391 C1390 1.434 . S
C867 C689 1.665 . S
C865 C74 1.519 . S
C878 C694 0.909 . S
C876 C142 1.084 . S
C889 C695 1.682 . S
C887 C231 1.532 . S
C898 C322 1.229 . S
C900 C699 1.301 . S
C909 C406 1.069 . S
C911 C702 0.915 . S
C922 C703 1.683 . S
C920 C494 1.539 . S
C931 C562 1.222 . S
C933 C680 1.303 . S
C942 C651 1.511 . S
C944 C696 1.666 . S
C955 C734 1.303 . S
C953 C58 1.300 . S
C964 C151 1.608 . S
C966 C760 1.616 . S
C977 C712 2.468 . S
C975 C224 2.384 . S
C988 C767 1.511 . S
C986 C315 1.498 . S
C997 C399 1.499 . S
C999 C721 1.522 . S
C1010 C763 1.304 . S
C1008 C478 1.284 . S
C1019 C571 1.541 . S
C1021 C727 1.613 . S
C1030 C644 2.377 . S
C1032 C758 2.469 . S
C1041 C67 2.373 . S
C1043 C766 2.472 . S
C1052 C392 1.610 . S
C1054 C753 1.617 . S
C1065 C731 2.469 . S
C1063 C487 2.384 . S
C1076 C759 1.514 . S
C1074 C578 1.489 . S
C1085 C658 1.298 . S
C1087 C726 1.304 . S
C1096 C238 1.288 . S
C1098 C744 1.312 . S
C1109 C735 1.614 . S
C1107 C308 1.536 . S
C1118 C158 1.500 . S
C1120 C728 1.522 . S
C1129 C662 1.493 . S
C1131 C790 1.538 . S
C1140 C394 1.072 . S
C1142 C785 0.559 . S
C1153 C799 1.517 . S
C1151 C483 1.514 . S
C1164 C776 1.274 . S
C1162 C574 1.211 . S
C1173 C154 1.073 . S
C1175 C792 0.554 . S
C1186 C791 1.518 . S
C1184 C242 1.513 . S
C1195 C310 1.206 . S
C1197 C795 1.270 . S
C1206 C63 1.499 . S
C1208 C798 1.540 . S
C1217 C646 1.305 . S
C1219 C824 1.359 . S
C1230 C840 1.615 . S
C1228 C403 1.612 . S
C1239 C476 2.395 . S
C1241 C822 2.554 . S
C1250 C567 1.485 . S
C1252 C855 1.453 . S
C1263 C831 1.453 . S
C1261 C147 1.472 . S
C1272 C226 1.299 . S
C1274 C849 1.292 . S
C1285 C827 1.576 . S
C1283 C319 1.513 . S
C1296 C862 2.511 . S
C1294 C56 2.402 . S
C1307 C854 2.508 . S
C1305 C655 2.408 . S
C1316 C140 1.619 . S
C1318 C859 1.617 . S
C1327 C235 2.397 . S
C1329 C830 2.556 . S
C1340 C863 1.456 . S
C1338 C326 1.485 . S
C1349 C70 1.306 . S
C1351 C817 1.360 . S
C1360 C490 1.309 . S
C1362 C856 1.300 . S
C1373 C808 1.576 . S
C1371 C560 1.514 . S
C1384 C823 1.445 . S
C1382 C410 1.469 . S
