# Generated by pormake.
# Topology zzz, (3,6)-cn, num edge types: 1
# Building blocks:
#     Node 0, Type 0, BuildingBlock: OLANEW_clean_sbu_2, # of connection points: 3
#     Node 1, Type 0, BuildingBlock: OLANEW_clean_sbu_2, # of connection points: 3
#     Node 2, Type 0, BuildingBlock: OLANEW_clean_sbu_2, # of connection points: 3
#     Node 3, Type 0, BuildingBlock: OLANEW_clean_sbu_2, # of connection points: 3
#     Node 4, Type 0, BuildingBlock: OLANEW_clean_sbu_2, # of connection points: 3
#     Node 5, Type 0, BuildingBlock: OLANEW_clean_sbu_2, # of connection points: 3
#     Node 6, Type 0, BuildingBlock: OLANEW_clean_sbu_2, # of connection points: 3
#     Node 7, Type 0, BuildingBlock: OLANEW_clean_sbu_2, # of connection points: 3
#     Node 8, Type 1, BuildingBlock: LEVNOQ01_clean_sbu_1, # of connection points: 6
#     Node 9, Type 1, BuildingBlock: LEVNOQ01_clean_sbu_1, # of connection points: 6
#     Node 10, Type 1, BuildingBlock: LEVNOQ01_clean_sbu_1, # of connection points: 6
#     Node 11, Type 1, BuildingBlock: LEVNOQ01_clean_sbu_1, # of connection points: 6
#     Edge 12, Type (0, 1), BuildingBlock: CIFDUS_clean_linker_0, # of connection points: 2
#     Edge 13, Type (0, 1), BuildingBlock: CIFDUS_clean_linker_0, # of connection points: 2
#     Edge 14, Type (0, 1), BuildingBlock: CIFDUS_clean_linker_0, # of connection points: 2
#     Edge 15, Type (0, 1), BuildingBlock: CIFDUS_clean_linker_0, # of connection points: 2
#     Edge 16, Type (0, 1), BuildingBlock: CIFDUS_clean_linker_0, # of connection points: 2
#     Edge 17, Type (0, 1), BuildingBlock: CIFDUS_clean_linker_0, # of connection points: 2
#     Edge 18, Type (0, 1), BuildingBlock: CIFDUS_clean_linker_0, # of connection points: 2
#     Edge 19, Type (0, 1), BuildingBlock: CIFDUS_clean_linker_0, # of connection points: 2
#     Edge 20, Type (0, 1), BuildingBlock: CIFDUS_clean_linker_0, # of connection points: 2
#     Edge 21, Type (0, 1), BuildingBlock: CIFDUS_clean_linker_0, # of connection points: 2
#     Edge 22, Type (0, 1), BuildingBlock: CIFDUS_clean_linker_0, # of connection points: 2
#     Edge 23, Type (0, 1), BuildingBlock: CIFDUS_clean_linker_0, # of connection points: 2
#     Edge 24, Type (0, 1), BuildingBlock: CIFDUS_clean_linker_0, # of connection points: 2
#     Edge 25, Type (0, 1), BuildingBlock: CIFDUS_clean_linker_0, # of connection points: 2
#     Edge 26, Type (0, 1), BuildingBlock: CIFDUS_clean_linker_0, # of connection points: 2
#     Edge 27, Type (0, 1), BuildingBlock: CIFDUS_clean_linker_0, # of connection points: 2
#     Edge 28, Type (0, 1), BuildingBlock: CIFDUS_clean_linker_0, # of connection points: 2
#     Edge 29, Type (0, 1), BuildingBlock: CIFDUS_clean_linker_0, # of connection points: 2
#     Edge 30, Type (0, 1), BuildingBlock: CIFDUS_clean_linker_0, # of connection points: 2
#     Edge 31, Type (0, 1), BuildingBlock: CIFDUS_clean_linker_0, # of connection points: 2
#     Edge 32, Type (0, 1), BuildingBlock: CIFDUS_clean_linker_0, # of connection points: 2
#     Edge 33, Type (0, 1), BuildingBlock: CIFDUS_clean_linker_0, # of connection points: 2
#     Edge 34, Type (0, 1), BuildingBlock: CIFDUS_clean_linker_0, # of connection points: 2
#     Edge 35, Type (0, 1), BuildingBlock: CIFDUS_clean_linker_0, # of connection points: 2
# Relax obj value: 0.128
# Max RMSD: 0.179
# Mean RMSD: 0.111
data_MOF--net-zzz--node1-OLANEW_clean_sbu_2--node2-LEVNOQ01_clean_sbu_1--edge1-CIFDUS_clean_linker_0
_symmetry_space_group_name_H-M    P1
_symmetry_Int_Tables_number       1
_symmetry_cell_setting            triclinic
loop_
_symmetry_equiv_pos_as_xyz
'x, y, z'
_cell_length_a     46.330058
_cell_length_b     46.481801
_cell_length_c     15.533781
_cell_angle_alpha  90.063156
_cell_angle_beta   89.815336
_cell_angle_gamma 90.10734
loop_
_atom_site_label
_atom_site_type_symbol
_atom_site_fract_x
_atom_site_fract_y
_atom_site_fract_z
_atom_type_partial_charge
O0 O 0.79761 0.60586 0.96243 0.0
Cd1 Cd 0.75129 0.62716 0.00654 0.0
O2 O 0.78794 0.5704 0.05062 0.0
Cd3 Cd 0.79939 0.53111 0.11779 0.0
O4 O 0.8203 0.51683 0.23463 0.0
C5 C 0.84697 0.5229 0.23908 0.0
O6 O 0.85984 0.5338 0.17118 0.0
C7 C 0.80501 0.58237 -0.00253 0.0
C8 C 0.70369 0.59261 0.96599 0.0
O9 O 0.71329 0.6114 0.91279 0.0
O10 O 0.71661 0.5901 0.03846 0.0
O11 O 0.91168 0.7976 0.94957 0.0
Cd12 Cd 0.88827 0.75354 0.00326 0.0
O13 O 0.94239 0.79182 0.05331 0.0
Cd14 Cd 0.97432 0.79931 0.15232 0.0
O15 O 0.98356 0.82783 0.25806 0.0
C16 C 0.96656 0.84911 0.26557 0.0
O17 O 0.94521 0.85201 0.21087 0.0
C18 C 0.93312 0.80724 0.99157 0.0
C19 C 0.91337 0.70248 0.94603 0.0
O20 O 0.89329 0.71478 0.90314 0.0
O21 O 0.92176 0.71447 0.01604 0.0
O22 O 0.71817 0.89966 0.97833 0.0
Cd23 Cd 0.7649 0.88104 0.0272 0.0
O24 O 0.72677 0.93568 0.06451 0.0
Cd25 Cd 0.72053 0.97512 0.13812 0.0
O26 O 0.69537 0.99469 0.24048 0.0
C27 C 0.68001 0.97707 0.28331 0.0
O28 O 0.6816 0.94949 0.26525 0.0
C29 C 0.70977 0.92312 0.01213 0.0
C30 C 0.81056 0.91763 0.98466 0.0
O31 O 0.79535 0.92184 0.05259 0.0
O32 O 0.8043 0.896 0.93698 0.0
O33 O 0.60174 0.70666 0.91494 0.0
Cd34 Cd 0.62478 0.75077 0.86412 0.0
O35 O 0.57944 0.72762 0.02284 0.0
Cd36 Cd 0.55312 0.7253 0.13878 0.0
O37 O 0.53492 0.70075 0.24442 0.0
C38 C 0.54864 0.67808 0.26428 0.0
O39 O 0.57242 0.67181 0.22197 0.0
C40 C 0.58465 0.70511 0.97885 0.0
C41 C 0.59316 0.80091 0.89158 0.0
O42 O 0.61568 0.79581 0.93663 0.0
O43 O 0.58539 0.78225 0.83549 0.0
O44 O 0.22459 0.44979 0.43077 0.0
Cd45 Cd 0.2686 0.4277 0.37499 0.0
O46 O 0.20532 0.40781 0.40302 0.0
Cd47 Cd 0.16762 0.38165 0.37307 0.0
O48 O 0.14294 0.39769 0.26463 0.0
C49 C 0.12568 0.4179 0.28337 0.0
O50 O 0.12032 0.42346 0.36457 0.0
C51 C 0.20269 0.43336 0.43128 0.0
C52 C 0.31484 0.44135 0.48041 0.0
O53 O 0.31071 0.45505 0.40995 0.0
O54 O 0.2974 0.42098 0.50014 0.0
O55 O 0.08331 0.21897 0.47683 0.0
Cd56 Cd 0.10263 0.26442 0.42161 0.0
O57 O 0.12185 0.19882 0.42202 0.0
Cd58 Cd 0.14253 0.16145 0.36552 0.0
O59 O 0.12803 0.13741 0.25396 0.0
C60 C 0.10205 0.14317 0.23451 0.0
O61 O 0.08782 0.162 0.28112 0.0
C62 C 0.09773 0.19641 0.46048 0.0
C63 C 0.07088 0.31115 0.48083 0.0
O64 O 0.06246 0.29648 0.41564 0.0
O65 O 0.09448 0.3039 0.51761 0.0
O66 O 0.28987 0.06912 0.43781 0.0
Cd67 Cd 0.24909 0.09439 0.37089 0.0
O68 O 0.32063 0.10381 0.40817 0.0
Cd69 Cd 0.29312 0.12132 0.30792 0.0
O70 O 0.31183 0.10475 0.18894 0.0
C71 C 0.33928 0.10457 0.1903 0.0
O72 O 0.35252 0.11658 0.25584 0.0
C73 C 0.31499 0.08003 0.44471 0.0
C74 C 0.19625 0.07776 0.44321 0.0
O75 O 0.2057 0.06595 0.37406 0.0
O76 O 0.21163 0.09757 0.47771 0.0
O77 O 0.42753 0.27966 0.49811 0.0
Cd78 Cd 0.3971 0.23927 0.45183 0.0
O79 O 0.39619 0.3091 0.44129 0.0
Cd80 Cd 0.38564 0.34988 0.38146 0.0
O81 O 0.40859 0.37693 0.29112 0.0
C82 C 0.4336 0.36743 0.27315 0.0
O83 O 0.44217 0.34314 0.30751 0.0
C84 C 0.42022 0.30516 0.4788 0.0
C85 C 0.42608 0.18828 0.48702 0.0
O86 O 0.43129 0.20245 0.41795 0.0
O87 O 0.40646 0.19771 0.538 0.0
O88 O 0.0385 0.9605 0.92778 0.0
Mg89 Mg 0.0585 0.96443 0.80543 0.0
O90 O 0.99878 0.97364 0.86129 0.0
Mg91 Mg 0.0075 0.00957 0.75825 0.0
O92 O 0.05598 0.00485 0.75966 0.0
O93 O 0.09832 0.98454 0.78193 0.0
O94 O 0.01615 0.04502 0.65172 0.0
O95 O 0.01327 0.04408 0.86218 0.0
Mg96 Mg 0.95843 0.05872 0.74627 0.0
O97 O 0.95827 0.01529 0.76277 0.0
O98 O 0.9766 0.07033 0.62683 0.0
O99 O 0.97831 0.07681 0.85777 0.0
O100 O 0.91784 0.04072 0.75529 0.0
C101 C 0.01613 0.94834 0.65501 0.0
C102 C 0.01131 0.95913 0.92018 0.0
C103 C 0.0837 0.00608 0.75366 0.0
C104 C 0.00265 0.06436 0.60924 0.0
C105 C 0.00125 0.06682 0.89084 0.0
C106 C 0.93036 0.01631 0.76776 0.0
O107 O 0.03635 0.9415 0.70663 0.0
O108 O 0.00373 0.973 0.65767 0.0
O109 O 0.43736 0.99751 0.85642 0.0
Mg110 Mg 0.45984 0.97068 0.76923 0.0
O111 O 0.47771 0.01907 0.89503 0.0
Mg112 Mg 0.50862 0.00579 0.78422 0.0
O113 O 0.49973 0.95606 0.80522 0.0
O114 O 0.45949 0.92892 0.80177 0.0
O115 O 0.54181 0.9961 0.67497 0.0
O116 O 0.54574 0.99604 0.88094 0.0
Mg117 Mg 0.56097 0.05374 0.80434 0.0
O118 O 0.51912 0.05251 0.77289 0.0
O119 O 0.57711 0.02802 0.70152 0.0
O120 O 0.56686 0.03558 0.92875 0.0
O121 O 0.54231 0.09372 0.7728 0.0
C122 C 0.45579 0.00444 0.63002 0.0
C123 C 0.45063 0.0152 0.90407 0.0
C124 C 0.48689 0.93123 0.81489 0.0
C125 C 0.56651 0.00733 0.65762 0.0
C126 C 0.56356 0.00849 0.93133 0.0
C127 C 0.51913 0.07951 0.75547 0.0
O128 O 0.45193 0.97778 0.63923 0.0
O129 O 0.47276 0.01762 0.68127 0.0
O130 O 0.53423 0.43577 0.86377 0.0
Mg131 Mg 0.55776 0.44595 0.74835 0.0
O132 O 0.50299 0.47195 0.85282 0.0
Mg133 Mg 0.51364 0.50339 0.74556 0.0
O134 O 0.56009 0.4895 0.7474 0.0
O135 O 0.59972 0.46379 0.75412 0.0
O136 O 0.5226 0.53714 0.63933 0.0
O137 O 0.52768 0.53809 0.84699 0.0
Mg138 Mg 0.46949 0.5571 0.78472 0.0
O139 O 0.46683 0.51622 0.74599 0.0
O140 O 0.49428 0.57396 0.67929 0.0
O141 O 0.4896 0.55849 0.9066 0.0
O142 O 0.42733 0.54197 0.76305 0.0
C143 C 0.51021 0.44357 0.6144 0.0
C144 C 0.51179 0.44911 0.88938 0.0
C145 C 0.5877 0.48875 0.75568 0.0
C146 C 0.51315 0.56285 0.62918 0.0
C147 C 0.51664 0.55452 0.90439 0.0
C148 C 0.43935 0.5186 0.73663 0.0
O149 O 0.53474 0.43361 0.63582 0.0
O150 O 0.50048 0.46702 0.64723 0.0
O151 O 0.95757 0.48601 0.91449 0.0
Mg152 Mg 0.95921 0.4723 0.78523 0.0
O153 O 0.97546 0.52509 0.85746 0.0
Mg154 Mg 0.01134 0.51325 0.75515 0.0
O155 O 0.99959 0.4656 0.73956 0.0
O156 O 0.96773 0.43005 0.75416 0.0
O157 O 0.04778 0.50429 0.65075 0.0
O158 O 0.04356 0.49939 0.85721 0.0
Mg159 Mg 0.06763 0.55827 0.75927 0.0
O160 O 0.02451 0.55928 0.77532 0.0
O161 O 0.07413 0.54388 0.63176 0.0
O162 O 0.08195 0.52867 0.85666 0.0
O163 O 0.05022 0.59858 0.79263 0.0
C164 C 0.95185 0.51738 0.64061 0.0
C165 C 0.95964 0.5131 0.91442 0.0
C166 C 0.99303 0.43868 0.73064 0.0
C167 C 0.06736 0.51841 0.61004 0.0
C168 C 0.06848 0.50661 0.88438 0.0
C169 C 0.02548 0.58598 0.79697 0.0
O170 O 0.94018 0.499 0.69061 0.0
O171 O 0.97824 0.52514 0.64938 0.0
H172 H 0.17851 0.08761 0.60744 0.0
H173 H 0.15362 0.04471 0.37256 0.0
H174 H 0.11247 0.02273 0.44637 0.0
H175 H 0.08771 0.0105 0.5822 0.0
H176 H 0.11503 0.05024 0.81876 0.0
H177 H 0.15076 0.07909 0.74005 0.0
C178 C 0.16386 0.07377 0.5721 0.0
C179 C 0.16935 0.06749 0.48494 0.0
C180 C 0.14077 0.06051 0.6156 0.0
C181 C 0.15009 0.04959 0.43998 0.0
C182 C 0.12655 0.03702 0.48213 0.0
C183 C 0.10092 0.02621 0.61569 0.0
C184 C 0.0987 0.02874 0.70551 0.0
C185 C 0.12221 0.04162 0.57049 0.0
C186 C 0.11625 0.04845 0.74929 0.0
C187 C 0.13684 0.06461 0.70445 0.0
H188 H 0.41309 0.14455 0.59753 0.0
H189 H 0.48095 0.17792 0.43455 0.0
H190 H 0.51539 0.145 0.49978 0.0
H191 H 0.52751 0.11197 0.61644 0.0
H192 H 0.4603 0.07614 0.77599 0.0
H193 H 0.42399 0.10449 0.6979 0.0
C194 C 0.43531 0.14418 0.57538 0.0
C195 C 0.44465 0.16405 0.51281 0.0
C196 C 0.45506 0.12511 0.61323 0.0
C197 C 0.47329 0.16298 0.48306 0.0
C198 C 0.49305 0.14431 0.52073 0.0
C199 C 0.50484 0.11027 0.63363 0.0
C200 C 0.49647 0.09295 0.7033 0.0
C201 C 0.48439 0.1262 0.58811 0.0
C202 C 0.4671 0.08991 0.72346 0.0
C203 C 0.44647 0.10611 0.679 0.0
H204 H 0.3661 0.46599 0.43912 0.0
H205 H 0.3154 0.43591 0.65434 0.0
H206 H 0.35137 0.45469 0.7546 0.0
H207 H 0.39505 0.48379 0.78096 0.0
H208 H 0.44611 0.51302 0.56602 0.0
H209 H 0.41248 0.49023 0.46537 0.0
C210 C 0.36315 0.46331 0.50797 0.0
C211 C 0.33811 0.4499 0.53958 0.0
C212 C 0.38402 0.47393 0.56507 0.0
C213 C 0.33459 0.44617 0.6287 0.0
C214 C 0.35508 0.45697 0.68602 0.0
C215 C 0.3991 0.48432 0.71214 0.0
C216 C 0.42305 0.49939 0.68032 0.0
C217 C 0.37961 0.47135 0.65499 0.0
C218 C 0.42796 0.5009 0.5913 0.0
C219 C 0.40864 0.48816 0.53395 0.0
H220 H 0.08847 0.35603 0.58045 0.0
H221 H 0.01342 0.31944 0.45762 0.0
H222 H 0.9829 0.35612 0.52361 0.0
H223 H 0.97717 0.39691 0.62166 0.0
H224 H 0.0519 0.43593 0.73809 0.0
H225 H 0.08301 0.39956 0.67059 0.0
C226 C 0.06545 0.35621 0.56799 0.0
C227 C 0.05313 0.33489 0.51516 0.0
C228 C 0.04805 0.3776 0.60534 0.0
C229 C 0.02338 0.3356 0.49816 0.0
C230 C 0.00591 0.35649 0.53608 0.0
C231 C 1.00033 0.3975 0.6318 0.0
C232 C 0.01235 0.41855 0.68582 0.0
C233 C 0.01796 0.37729 0.59064 0.0
C234 C 0.04233 0.41967 0.69713 0.0
C235 C 0.06005 0.39902 0.65825 0.0
H236 H 0.85467 0.90881 0.87083 0.0
H237 H 0.81839 0.97219 0.04329 0.0
H238 H 0.85357 0.0076 0.99382 0.0
H239 H 0.89218 0.02155 0.89499 0.0
H240 H 0.9303 0.95882 0.7251 0.0
H241 H 0.89644 0.92209 0.77914 0.0
C242 C 0.8546 0.93034 0.89782 0.0
C243 C 0.8337 0.93797 0.95984 0.0
C244 C 0.87507 0.95063 0.86935 0.0
C245 C 0.83416 0.96577 0.99538 0.0
C246 C 0.85422 0.98607 0.96698 0.0
C247 C 0.89327 -0.00031 0.87051 0.0
C248 C 0.91321 0.9928 0.80542 0.0
C249 C 0.87437 0.97885 0.90305 0.0
C250 C 0.91496 0.96446 0.77509 0.0
C251 C 0.89571 0.94355 0.80614 0.0
H252 H 0.53562 0.80836 0.8993 0.0
H253 H 0.61619 0.85473 0.89771 0.0
H254 H 0.59021 0.90025 0.87937 0.0
H255 H 0.54491 0.92589 0.84626 0.0
H256 H 0.46446 0.87875 0.85356 0.0
H257 H 0.49006 0.83483 0.88899 0.0
C258 C 0.54739 0.82855 0.89639 0.0
C259 C 0.57761 0.82837 0.89851 0.0
C260 C 0.53242 0.85449 0.88594 0.0
C261 C 0.59281 0.85452 0.89616 0.0
C262 C 0.57803 0.88047 0.88496 0.0
C263 C 0.533 0.90605 0.85604 0.0
C264 C 0.50291 0.90551 0.84425 0.0
C265 C 0.54787 0.8806 0.87677 0.0
C266 C 0.48773 0.87973 0.85956 0.0
C267 C 0.50231 0.85451 0.88019 0.0
H268 H 0.67294 0.59196 0.81648 0.0
H269 H 0.67882 0.55078 0.06491 0.0
H270 H 0.6414 0.51655 0.02323 0.0
H271 H 0.61037 0.49552 0.91173 0.0
H272 H 0.60316 0.5367 0.66466 0.0
H273 H 0.63786 0.57384 0.70995 0.0
C274 C 0.66591 0.57563 0.86174 0.0
C275 C 0.6791 0.57363 0.94316 0.0
C276 C 0.64436 0.55593 0.83729 0.0
C277 C 0.66939 0.55258 0.00143 0.0
C278 C 0.64799 0.53297 0.97767 0.0
C279 C 0.61614 0.51295 0.86851 0.0
C280 C 0.60448 0.51364 0.78529 0.0
C281 C 0.63588 0.53402 0.89515 0.0
C282 C 0.61183 0.53611 0.72933 0.0
C283 C 0.63174 0.55713 0.7551 0.0
H284 H 0.95474 0.67055 0.02462 0.0
H285 H 0.90332 0.67478 0.79385 0.0
H286 H 0.93062 0.63498 0.73146 0.0
H287 H 0.97365 0.60353 0.73457 0.0
H288 H 0.02602 0.60132 0.96296 0.0
H289 H 0.99358 0.6351 0.0349 0.0
C290 C 0.94926 0.66255 0.96109 0.0
C291 C 0.92743 0.67603 0.91329 0.0
C292 C 0.96529 0.63992 0.9251 0.0
C293 C 0.92032 0.66507 0.83161 0.0
C294 C 0.93592 0.64228 0.79578 0.0
C295 C 0.97731 0.60991 0.80084 0.0
C296 C 0.00199 0.60022 0.84377 0.0
C297 C 0.95908 0.63016 0.84073 0.0
C298 C 0.00699 0.60869 0.92918 0.0
C299 C 0.9886 0.62811 0.97002 0.0
H300 H 0.04362 0.17725 0.42818 0.0
H301 H 0.12499 0.15146 0.53664 0.0
H302 H 0.1037 0.10572 0.58273 0.0
H303 H 0.06065 0.07525 0.60459 0.0
H304 H 0.97992 0.10046 0.48939 0.0
H305 H 0.00264 0.14342 0.42992 0.0
C306 C 0.05671 0.16139 0.46108 0.0
C307 C 0.08561 0.16777 0.48054 0.0
C308 C 0.04462 0.13479 0.48484 0.0
C309 C 0.10262 0.14697 0.52151 0.0
C310 C 0.09051 0.12077 0.54748 0.0
C311 C 0.04826 0.08959 0.56408 0.0
C312 C 0.0185 0.08476 0.55266 0.0
C313 C 0.06137 0.11464 0.53096 0.0
C314 C 0.00279 0.10376 0.50013 0.0
C315 C 0.01569 0.12851 0.4666 0.0
H316 H 0.373 0.08882 0.43106 0.0
H317 H 0.30935 0.03493 0.55567 0.0
H318 H 0.3477 0.00619 0.61978 0.0
H319 H 0.39893 0.99593 0.63889 0.0
H320 H 0.46317 0.05062 0.52191 0.0
H321 H 0.42487 0.07934 0.45439 0.0
C322 C 0.36751 0.07094 0.47287 0.0
C323 C 0.33829 0.06402 0.48858 0.0
C324 C 0.38971 0.0544 0.50922 0.0
C325 C 0.33159 0.04064 0.54227 0.0
C326 C 0.35351 0.02416 0.57873 0.0
C327 C 0.40454 0.01389 0.59743 0.0
C328 C 0.4337 0.02084 0.58325 0.0
C329 C 0.38255 0.03065 0.56183 0.0
C330 C 0.4408 0.04471 0.53224 0.0
C331 C 0.41893 0.06114 0.49427 0.0
H332 H 0.40782 0.36105 0.51832 0.0
H333 H 0.47883 0.30328 0.47084 0.0
H334 H 0.51313 0.34261 0.49296 0.0
H335 H 0.52299 0.39234 0.53691 0.0
H336 H 0.45203 0.44899 0.5943 0.0
H337 H 0.41771 0.41191 0.55199 0.0
C338 C 0.43076 0.35721 0.51112 0.0
C339 C 0.44072 0.32929 0.49255 0.0
C340 C 0.45039 0.37992 0.52435 0.0
C341 C 0.4706 0.3245 0.486 0.0
C342 C 0.49022 0.34704 0.49789 0.0
C343 C 0.50004 0.39687 0.53837 0.0
C344 C 0.49018 0.42382 0.56806 0.0
C345 C 0.48039 0.37474 0.51845 0.0
C346 C 0.46031 0.42898 0.56963 0.0
C347 C 0.44061 0.40745 0.54707 0.0
H348 H 0.17676 0.48434 0.39525 0.0
H349 H 0.16621 0.40601 0.54008 0.0
H350 H 0.12089 0.42393 0.60064 0.0
H351 H 0.08554 0.46301 0.61852 0.0
H352 H 0.0962 0.54145 0.47391 0.0
H353 H 0.13932 0.52196 0.40435 0.0
C354 C 0.16432 0.47119 0.43957 0.0
C355 C 0.17462 0.44391 0.46317 0.0
C356 C 0.13801 0.48145 0.473 0.0
C357 C 0.15846 0.42698 0.52057 0.0
C358 C 0.13254 0.43721 0.5551 0.0
C359 C 0.09673 0.47543 0.56965 0.0
C360 C 0.08759 0.50357 0.55107 0.0
C361 C 0.12208 0.46442 0.53194 0.0
C362 C 0.10276 0.51967 0.48899 0.0
C363 C 0.12764 0.5087 0.45007 0.0
H364 H 0.97712 0.83841 0.07109 0.0
H365 H 0.91605 0.8426 0.86235 0.0
H366 H 0.93281 0.89073 0.82778 0.0
H367 H 0.96443 0.93176 0.85555 0.0
H368 H 0.02581 0.92793 0.06341 0.0
H369 H 0.00755 0.8803 0.10381 0.0
C370 C 0.96682 0.84979 0.0196 0.0
C371 C 0.94477 0.83652 0.97108 0.0
C372 C 0.97596 0.87809 0.00136 0.0
C373 C 0.93279 0.852 0.902 0.0
C374 C 0.94215 0.87981 0.88244 0.0
C375 C 0.97336 0.92093 0.91119 0.0
C376 C 0.99629 0.93365 0.95695 0.0
C377 C 0.96349 0.89318 0.93207 0.0
C378 C 0.00799 0.9188 0.02754 0.0
C379 C 0.99776 0.89142 0.05002 0.0
H380 H 0.67576 0.96052 0.10489 0.0
H381 H 0.67767 0.91119 0.87017 0.0
H382 H 0.63068 0.93053 0.83044 0.0
H383 H 0.59023 0.9632 0.85871 0.0
H384 H 0.59095 0.01685 0.08527 0.0
H385 H 0.6357 0.99379 0.13326 0.0
C386 C 0.66639 0.95441 0.04453 0.0
C387 C 0.68087 0.93494 0.99002 0.0
C388 C 0.63944 0.96593 0.0217 0.0
C389 C 0.66725 0.92625 0.91346 0.0
C390 C 0.64028 0.93724 0.89075 0.0
C391 C 0.59979 0.96934 0.91972 0.0
C392 C 0.58703 0.99127 0.96946 0.0
C393 C 0.62623 0.95717 0.9442 0.0
C394 C 0.60017 -0.00031 0.04682 0.0
C395 C 0.62586 0.98671 0.07367 0.0
H396 H 0.60676 0.65164 0.95911 0.0
H397 H 0.52938 0.69647 0.03558 0.0
H398 H 0.50318 0.6511 0.04323 0.0
H399 H 0.49987 0.60068 0.00019 0.0
H400 H 0.57565 0.55674 0.90649 0.0
H401 H 0.60496 0.59927 0.9359 0.0
C402 C 0.58431 0.65135 0.9792 0.0
C403 C 0.5702 0.6774 -0.00206 0.0
C404 C 0.56898 0.62525 0.97942 0.0
C405 C 0.54109 0.67676 0.02362 0.0
C406 C 0.52592 0.65077 0.02667 0.0
C407 C 0.52294 0.60004 0.98831 0.0
C408 C 0.53541 0.5757 0.94895 0.0
C409 C 0.53933 0.6251 0.00105 0.0
C410 C 0.56543 0.57524 0.93558 0.0
C411 C 0.58216 0.59971 0.95156 0.0
H412 H 0.85816 0.58851 0.07059 0.0
H413 H 0.8122 0.54479 0.86811 0.0
H414 H 0.85639 0.51982 0.82496 0.0
H415 H 0.90746 0.50959 0.84651 0.0
H416 H 0.95492 0.55273 0.0466 0.0
H417 H 0.91081 0.57862 0.09056 0.0
C418 C 0.85805 0.57353 0.01701 0.0
C419 C 0.83215 0.56821 0.97247 0.0
C420 C 0.88362 0.55909 0.99302 0.0
C421 C 0.83196 0.54893 0.90319 0.0
C422 C 0.85715 0.53469 0.87872 0.0
C423 C 0.90806 0.52462 0.90001 0.0
C424 C 0.93406 0.52909 0.94423 0.0
C425 C 0.88295 0.53942 0.92357 0.0
C426 C 0.93495 0.54889 0.01234 0.0
C427 C 0.9098 0.56368 0.03707 0.0
H428 H 0.04482 0.13476 0.21557 0.0
H429 H 0.12691 0.11952 0.09182 0.0
H430 H 0.10255 0.09497 0.97288 0.0
H431 H 0.05808 0.07656 0.90709 0.0
H432 H 0.97596 0.0924 0.02938 0.0
H433 H 1.00021 0.11775 0.14739 0.0
C434 C 0.05735 0.12612 0.16238 0.0
C435 C 0.08757 0.12865 0.16242 0.0
C436 C 0.04325 0.11194 0.09494 0.0
C437 C 0.10363 0.11737 0.0935 0.0
C438 C 0.08973 0.10345 0.02557 0.0
C439 C 0.04559 0.08555 0.95985 0.0
C440 C 0.01544 0.08258 0.96067 0.0
C441 C 0.05961 0.10032 0.02626 0.0
C442 C 0.99924 0.09463 0.02796 0.0
C443 C 0.01308 0.10902 0.09518 0.0
H444 H 0.39708 0.0959 0.18859 0.0
H445 H 0.3193 0.07629 0.04749 0.0
H446 H 0.34707 0.0465 0.94743 0.0
H447 H 0.39311 0.02528 0.90238 0.0
H448 H 0.47093 0.04537 0.04245 0.0
H449 H 0.44325 0.07565 0.14151 0.0
C450 C 0.38616 0.0853 0.13563 0.0
C451 C 0.35613 0.08832 0.12558 0.0
C452 C 0.40218 0.06808 0.0789 0.0
C453 C 0.34238 0.07435 0.05668 0.0
C454 C 0.35822 0.05723 -0.00035 0.0
C455 C 0.40402 0.0361 0.95499 0.0
C456 C 0.43399 0.03284 0.96575 0.0
C457 C 0.38806 0.05373 0.01075 0.0
C458 C 0.44787 0.04744 0.03312 0.0
C459 C 0.43207 0.06478 0.08959 0.0
H460 H 0.4172 0.40279 0.14466 0.0
H461 H 0.49207 0.36521 0.2642 0.0
H462 H 0.52341 0.38769 0.15649 0.0
H463 H 0.52918 0.41663 0.02486 0.0
H464 H 0.45392 0.45381 0.90595 0.0
H465 H 0.42301 0.43253 0.01602 0.0
C466 C 0.4404 0.39978 0.14744 0.0
C467 C 0.4524 0.3824 0.21159 0.0
C468 C 0.45815 0.41241 0.08495 0.0
C469 C 0.48242 0.37836 0.21448 0.0
C470 C 0.50031 0.39118 0.15311 0.0
C471 C 0.50604 0.4201 0.02357 0.0
C472 C 0.49382 0.43684 0.95817 0.0
C473 C 0.48837 0.40796 0.0874 0.0
C474 C 0.46382 0.44131 0.95672 0.0
C475 C 0.44612 0.42909 0.01934 0.0
H476 H 0.11681 0.40682 0.11377 0.0
H477 H 0.11363 0.47439 0.30383 0.0
H478 H 0.09928 0.50897 0.19447 0.0
H479 H 0.08472 0.51949 0.04591 0.0
H480 H 0.08277 0.45111 0.85889 0.0
H481 H 0.10214 0.41732 0.96483 0.0
C482 C 0.11287 0.4291 0.13094 0.0
C483 C 0.11598 0.43806 0.21664 0.0
C484 C 0.10372 0.44868 0.06809 0.0
C485 C 0.11096 0.46696 0.23841 0.0
C486 C 0.10289 0.48678 0.17586 0.0
C487 C 0.08891 0.49725 0.02871 0.0
C488 C 0.08253 0.48753 0.94578 0.0
C489 C 0.09883 0.47782 0.09076 0.0
C490 C 0.08756 0.45874 0.92319 0.0
C491 C 0.09855 0.4395 0.98355 0.0
H492 H 0.99629 0.84196 0.41267 0.0
H493 H 0.94673 0.90429 0.27069 0.0
H494 H 0.95648 0.94066 0.38093 0.0
H495 H 0.98122 0.95518 0.51465 0.0
H496 H 0.03018 0.89171 0.65523 0.0
H497 H 0.01825 0.8554 0.54897 0.0
C498 C 0.98761 0.86351 0.40592 0.0
C499 C 0.97111 0.8706 0.33364 0.0
C500 C 0.9932 0.88414 0.46924 0.0
C501 C 0.95955 0.8984 0.32612 0.0
C502 C 0.96517 0.9192 0.3889 0.0
C503 C 0.98915 0.93339 0.52208 0.0
C504 C 0.00702 0.92641 0.59189 0.0
C505 C 0.98228 0.91239 0.46033 0.0
C506 C 0.01686 0.89794 0.6012 0.0
C507 C 0.01001 0.87703 0.54059 0.0
H508 H 0.63594 0.94741 0.35708 0.0
H509 H 0.67922 0.02979 0.35991 0.0
H510 H 0.64701 0.04636 0.47415 0.0
H511 H 0.60788 0.03711 0.57478 0.0
H512 H 0.5635 0.95535 0.57287 0.0
H513 H 0.59482 0.93886 0.45504 0.0
C514 C 0.63834 0.96897 0.38286 0.0
C515 C 0.66011 0.98727 0.35085 0.0
C516 C 0.61961 0.97842 0.44807 0.0
C517 C 0.6627 0.01529 0.38373 0.0
C518 C 0.64432 0.02476 0.449 0.0
C519 C 0.605 0.0156 0.54893 0.0
C520 C 0.58366 0.99729 0.58323 0.0
C521 C 0.62292 0.00642 0.48192 0.0
C522 C 0.57984 0.96978 0.54765 0.0
C523 C 0.59779 0.96036 0.48065 0.0
H524 H 0.57498 0.63054 0.32856 0.0
H525 H 0.49815 0.68242 0.3541 0.0
H526 H 0.48042 0.65082 0.46781 0.0
H527 H 0.48685 0.6091 0.56046 0.0
H528 H 0.56334 0.55675 0.53661 0.0
H529 H 0.58112 0.58802 0.42102 0.0
C530 C 0.55435 0.63493 0.35896 0.0
C531 C 0.53797 0.65888 0.3331 0.0
C532 C 0.54426 0.61666 0.42436 0.0
C533 C 0.51127 0.66425 0.37306 0.0
C534 C 0.50108 0.64617 0.438 0.0
C535 C 0.50746 0.60448 0.53017 0.0
C536 C 0.52381 0.58069 0.55717 0.0
C537 C 0.51745 0.62243 0.46426 0.0
C538 C 0.55028 0.57485 0.51656 0.0
C539 C 0.56049 0.59277 0.45081 0.0
H540 H 0.9018 0.54013 0.27218 0.0
H541 H 0.82649 0.50235 0.39212 0.0
H542 H 0.8514 0.50129 0.53016 0.0
H543 H 0.89487 0.50899 0.61445 0.0
H544 H 0.97116 0.54477 0.49477 0.0
H545 H 0.94498 0.54979 0.35904 0.0
C546 C 0.89085 0.53158 0.32844 0.0
C547 C 0.86243 0.52109 0.32173 0.0
C548 C 0.90525 0.53111 0.40763 0.0
C549 C 0.84844 0.51034 0.39538 0.0
C550 C 0.8626 0.50987 0.47441 0.0
C551 C 0.9058 0.51818 0.55903 0.0
C552 C 0.93506 0.52619 0.56446 0.0
C553 C 0.89102 0.52002 0.48098 0.0
C554 C 0.94866 0.53846 0.49236 0.0
C555 C 0.9338 0.54103 0.41454 0.0
loop_
_geom_bond_atom_site_label_1
_geom_bond_atom_site_label_2
_geom_bond_distance
_geom_bond_site_symmetry_2
_ccdc_geom_bond_type
O0 Cd1 2.300 1_556 S
O0 C7 1.275 1_556 S
Cd1 O0 2.300 1_554 S
Cd1 O9 2.381 1_554 S
Cd1 O10 2.378 . S
O2 Cd3 2.385 . S
O2 C7 1.255 . S
Cd3 O2 2.385 . S
Cd3 O4 2.317 . S
O4 Cd3 2.317 . S
O4 C5 1.232 . S
C5 O4 1.232 . S
C5 O6 1.218 . S
O6 C5 1.218 . S
C7 O0 1.275 1_554 S
C7 O2 1.255 . S
C8 O9 1.258 1_554 S
C8 O10 1.256 . S
O9 Cd1 2.381 1_556 S
O9 C8 1.258 1_556 S
O10 Cd1 2.378 . S
O10 C8 1.256 . S
O11 Cd12 2.300 1_556 S
O11 C18 1.275 1_556 S
Cd12 O11 2.300 1_554 S
Cd12 O20 2.381 1_554 S
Cd12 O21 2.378 . S
O13 Cd14 2.385 1_655 S
O13 C18 1.255 . S
Cd14 O13 2.385 1_455 S
Cd14 O15 2.317 1_455 S
O15 Cd14 2.317 1_655 S
O15 C16 1.232 . S
C16 O15 1.232 . S
C16 O17 1.218 . S
O17 C16 1.218 . S
C18 O11 1.275 1_554 S
C18 O13 1.255 . S
C19 O20 1.258 1_554 S
C19 O21 1.256 . S
O20 Cd12 2.381 1_556 S
O20 C19 1.258 1_556 S
O21 Cd12 2.378 . S
O21 C19 1.256 . S
O22 Cd23 2.300 1_556 S
O22 C29 1.275 1_556 S
Cd23 O22 2.300 1_554 S
Cd23 O31 2.381 1_554 S
Cd23 O32 2.378 . S
O24 Cd25 2.385 1_565 S
O24 C29 1.255 . S
Cd25 O24 2.385 1_545 S
Cd25 O26 2.317 1_545 S
O26 Cd25 2.317 1_565 S
O26 C27 1.232 . S
C27 O26 1.232 . S
C27 O28 1.218 . S
O28 C27 1.218 . S
C29 O22 1.275 1_554 S
C29 O24 1.255 . S
C30 O31 1.258 1_554 S
C30 O32 1.256 . S
O31 Cd23 2.381 1_556 S
O31 C30 1.258 1_556 S
O32 Cd23 2.378 . S
O32 C30 1.256 . S
O33 Cd34 2.300 1_556 S
O33 C40 1.275 1_556 S
Cd34 O33 2.300 1_554 S
Cd34 O42 2.381 1_554 S
Cd34 O43 2.378 . S
O35 Cd36 2.385 . S
O35 C40 1.255 . S
Cd36 O35 2.385 . S
Cd36 O37 2.317 . S
O37 Cd36 2.317 . S
O37 C38 1.232 . S
C38 O37 1.232 . S
C38 O39 1.218 . S
O39 C38 1.218 . S
C40 O33 1.275 1_554 S
C40 O35 1.255 . S
C41 O42 1.258 1_554 S
C41 O43 1.256 . S
O42 Cd34 2.381 1_556 S
O42 C41 1.258 1_556 S
O43 Cd34 2.378 . S
O43 C41 1.256 . S
O44 Cd45 2.300 . S
O44 C51 1.275 . S
Cd45 O44 2.300 . S
Cd45 O53 2.381 . S
Cd45 O54 2.378 . S
O46 Cd47 2.385 . S
O46 C51 1.255 . S
Cd47 O46 2.385 . S
Cd47 O48 2.317 . S
O48 Cd47 2.317 . S
O48 C49 1.232 . S
C49 O48 1.232 . S
C49 O50 1.218 . S
O50 C49 1.218 . S
C51 O44 1.275 . S
C51 O46 1.255 . S
C52 O53 1.258 . S
C52 O54 1.256 . S
O53 Cd45 2.381 . S
O53 C52 1.258 . S
O54 Cd45 2.378 . S
O54 C52 1.256 . S
O55 Cd56 2.300 . S
O55 C62 1.275 . S
Cd56 O55 2.300 . S
Cd56 O64 2.381 . S
Cd56 O65 2.378 . S
O57 Cd58 2.385 . S
O57 C62 1.255 . S
Cd58 O57 2.385 . S
Cd58 O59 2.317 . S
O59 Cd58 2.317 . S
O59 C60 1.232 . S
C60 O59 1.232 . S
C60 O61 1.218 . S
O61 C60 1.218 . S
C62 O55 1.275 . S
C62 O57 1.255 . S
C63 O64 1.258 . S
C63 O65 1.256 . S
O64 Cd56 2.381 . S
O64 C63 1.258 . S
O65 Cd56 2.378 . S
O65 C63 1.256 . S
O66 Cd67 2.300 . S
O66 C73 1.275 . S
Cd67 O66 2.300 . S
Cd67 O75 2.381 . S
Cd67 O76 2.378 . S
O68 Cd69 2.385 . S
O68 C73 1.255 . S
Cd69 O68 2.385 . S
Cd69 O70 2.317 . S
O70 Cd69 2.317 . S
O70 C71 1.232 . S
C71 O70 1.232 . S
C71 O72 1.218 . S
O72 C71 1.218 . S
C73 O66 1.275 . S
C73 O68 1.255 . S
C74 O75 1.258 . S
C74 O76 1.256 . S
O75 Cd67 2.381 . S
O75 C74 1.258 . S
O76 Cd67 2.378 . S
O76 C74 1.256 . S
O77 Cd78 2.300 . S
O77 C84 1.275 . S
Cd78 O77 2.300 . S
Cd78 O86 2.381 . S
Cd78 O87 2.378 . S
O79 Cd80 2.385 . S
O79 C84 1.255 . S
Cd80 O79 2.385 . S
Cd80 O81 2.317 . S
O81 Cd80 2.317 . S
O81 C82 1.232 . S
C82 O81 1.232 . S
C82 O83 1.218 . S
O83 C82 1.218 . S
C84 O77 1.275 . S
C84 O79 1.255 . S
C85 O86 1.258 . S
C85 O87 1.256 . S
O86 Cd78 2.381 . S
O86 C85 1.258 . S
O87 Cd78 2.378 . S
O87 C85 1.256 . S
O88 Mg89 1.990 . S
O88 C102 1.253 . S
Mg89 O88 1.990 . S
Mg89 O92 2.180 . S
Mg89 O93 2.117 . S
Mg89 O107 2.030 . S
O90 Mg91 2.072 1_565 S
O90 C102 1.260 . S
Mg91 O90 2.072 1_545 S
Mg91 O92 2.099 1_545 S
Mg91 O94 2.079 . S
Mg91 O95 2.072 . S
Mg91 O97 2.099 1_455 S
Mg91 O108 2.079 1_445 S
O92 Mg89 2.180 . S
O92 Mg91 2.099 1_565 S
O92 C103 1.279 . S
O93 Mg89 2.117 . S
O93 C103 1.250 . S
O94 Mg91 2.079 . S
O94 C104 1.264 1_455 S
O95 Mg91 2.072 . S
O95 C105 1.260 . S
Mg96 O97 2.180 . S
Mg96 O98 2.030 . S
Mg96 O99 1.990 . S
Mg96 O100 2.117 . S
O97 Mg91 2.099 1_655 S
O97 Mg96 2.180 . S
O97 C106 1.279 . S
O98 Mg96 2.030 . S
O98 C104 1.247 . S
O99 Mg96 1.990 . S
O99 C105 1.253 1_655 S
O100 Mg96 2.117 . S
O100 C106 1.250 . S
C101 O107 1.248 1_655 S
C101 O108 1.264 . S
C102 O88 1.253 . S
C102 O90 1.260 . S
C103 O92 1.279 . S
C103 O93 1.250 . S
C104 O94 1.264 1_655 S
C104 O98 1.247 . S
C105 O95 1.260 . S
C105 O99 1.253 1_455 S
C106 O97 1.279 . S
C106 O100 1.250 . S
O107 Mg89 2.030 . S
O107 C101 1.248 1_455 S
O108 Mg91 2.079 1_665 S
O108 C101 1.264 . S
O109 Mg110 1.990 . S
O109 C123 1.253 1_565 S
Mg110 O109 1.990 . S
Mg110 O113 2.180 . S
Mg110 O114 2.117 . S
Mg110 O128 2.030 . S
O111 Mg112 2.072 . S
O111 C123 1.260 . S
Mg112 O111 2.072 . S
Mg112 O113 2.099 1_545 S
Mg112 O115 2.079 1_545 S
Mg112 O116 2.072 . S
Mg112 O118 2.099 . S
Mg112 O129 2.079 . S
O113 Mg110 2.180 . S
O113 Mg112 2.099 1_565 S
O113 C124 1.279 . S
O114 Mg110 2.117 . S
O114 C124 1.250 . S
O115 Mg112 2.079 1_565 S
O115 C125 1.264 . S
O116 Mg112 2.072 . S
O116 C126 1.260 . S
Mg117 O118 2.180 . S
Mg117 O119 2.030 . S
Mg117 O120 1.990 . S
Mg117 O121 2.117 . S
O118 Mg112 2.099 . S
O118 Mg117 2.180 . S
O118 C127 1.279 . S
O119 Mg117 2.030 . S
O119 C125 1.248 1_545 S
O120 Mg117 1.990 . S
O120 C126 1.253 . S
O121 Mg117 2.117 . S
O121 C127 1.250 . S
C122 O128 1.231 1_545 S
C122 O129 1.271 . S
C123 O109 1.253 1_545 S
C123 O111 1.260 . S
C124 O113 1.279 . S
C124 O114 1.250 . S
C125 O115 1.264 . S
C125 O119 1.248 1_565 S
C126 O116 1.260 . S
C126 O120 1.253 . S
C127 O118 1.279 . S
C127 O121 1.250 . S
O128 Mg110 2.030 . S
O128 C122 1.231 1_565 S
O129 Mg112 2.079 . S
O129 C122 1.271 . S
O130 Mg131 1.990 . S
O130 C144 1.253 . S
Mg131 O130 1.990 . S
Mg131 O134 2.180 . S
Mg131 O135 2.117 . S
Mg131 O149 2.030 . S
O132 Mg133 2.072 . S
O132 C144 1.260 . S
Mg133 O132 2.072 . S
Mg133 O134 2.099 . S
Mg133 O136 2.079 . S
Mg133 O137 2.072 . S
Mg133 O139 2.099 . S
Mg133 O150 2.079 . S
O134 Mg131 2.180 . S
O134 Mg133 2.099 . S
O134 C145 1.279 . S
O135 Mg131 2.117 . S
O135 C145 1.250 . S
O136 Mg133 2.079 . S
O136 C146 1.264 . S
O137 Mg133 2.072 . S
O137 C147 1.260 . S
Mg138 O139 2.180 . S
Mg138 O140 2.030 . S
Mg138 O141 1.990 . S
Mg138 O142 2.117 . S
O139 Mg133 2.099 . S
O139 Mg138 2.180 . S
O139 C148 1.279 . S
O140 Mg138 2.030 . S
O140 C146 1.248 . S
O141 Mg138 1.990 . S
O141 C147 1.253 . S
O142 Mg138 2.117 . S
O142 C148 1.250 . S
C143 O149 1.248 . S
C143 O150 1.264 . S
C144 O130 1.253 . S
C144 O132 1.260 . S
C145 O134 1.279 . S
C145 O135 1.250 . S
C146 O136 1.264 . S
C146 O140 1.248 . S
C147 O137 1.260 . S
C147 O141 1.253 . S
C148 O139 1.279 . S
C148 O142 1.250 . S
O149 Mg131 2.030 . S
O149 C143 1.248 . S
O150 Mg133 2.079 . S
O150 C143 1.264 . S
O151 Mg152 1.990 . S
O151 C165 1.253 . S
Mg152 O151 1.990 . S
Mg152 O155 2.180 . S
Mg152 O156 2.117 . S
Mg152 O170 2.030 . S
O153 Mg154 2.072 1_655 S
O153 C165 1.260 . S
Mg154 O153 2.072 1_455 S
Mg154 O155 2.099 1_455 S
Mg154 O157 2.079 . S
Mg154 O158 2.072 . S
Mg154 O160 2.099 . S
Mg154 O171 2.079 1_455 S
O155 Mg152 2.180 . S
O155 Mg154 2.099 1_655 S
O155 C166 1.279 . S
O156 Mg152 2.117 . S
O156 C166 1.250 . S
O157 Mg154 2.079 . S
O157 C167 1.264 . S
O158 Mg154 2.072 . S
O158 C168 1.260 . S
Mg159 O160 2.180 . S
Mg159 O161 2.030 . S
Mg159 O162 1.990 . S
Mg159 O163 2.117 . S
O160 Mg154 2.099 . S
O160 Mg159 2.180 . S
O160 C169 1.279 . S
O161 Mg159 2.030 . S
O161 C167 1.248 . S
O162 Mg159 1.990 . S
O162 C168 1.253 . S
O163 Mg159 2.117 . S
O163 C169 1.250 . S
C164 O170 1.248 . S
C164 O171 1.264 . S
C165 O151 1.253 . S
C165 O153 1.260 . S
C166 O155 1.279 . S
C166 O156 1.250 . S
C167 O157 1.264 . S
C167 O161 1.248 . S
C168 O158 1.260 . S
C168 O162 1.253 . S
C169 O160 1.279 . S
C169 O163 1.250 . S
O170 Mg152 2.030 . S
O170 C164 1.248 . S
O171 Mg154 2.079 1_655 S
O171 C164 1.264 . S
H172 C178 0.930 . S
H173 C181 0.930 . S
H174 C182 0.930 . S
H175 C183 0.930 . S
H176 C186 0.930 . S
H177 C187 0.930 . S
C178 H172 0.930 . S
C178 C179 1.355 . S
C178 C180 1.415 . S
C179 C178 1.355 . S
C179 C181 1.419 . S
C180 C178 1.415 . S
C180 C185 1.425 . S
C180 C187 1.409 . S
C181 H173 0.930 . S
C181 C179 1.419 . S
C181 C182 1.362 . S
C182 H174 0.930 . S
C182 C181 1.362 . S
C182 C185 1.409 . S
C183 H175 0.930 . S
C183 C184 1.355 . S
C183 C185 1.415 . S
C184 C183 1.355 . S
C184 C186 1.419 . S
C185 C180 1.425 . S
C185 C182 1.409 . S
C185 C183 1.415 . S
C186 H176 0.930 . S
C186 C184 1.419 . S
C186 C187 1.362 . S
C187 H177 0.930 . S
C187 C180 1.409 . S
C187 C186 1.362 . S
H188 C194 0.930 . S
H189 C197 0.930 . S
H190 C198 0.930 . S
H191 C199 0.930 . S
H192 C202 0.930 . S
H193 C203 0.930 . S
C194 H188 0.930 . S
C194 C195 1.355 . S
C194 C196 1.415 . S
C195 C194 1.355 . S
C195 C197 1.419 . S
C196 C194 1.415 . S
C196 C201 1.425 . S
C196 C203 1.409 . S
C197 H189 0.930 . S
C197 C195 1.419 . S
C197 C198 1.362 . S
C198 H190 0.930 . S
C198 C197 1.362 . S
C198 C201 1.409 . S
C199 H191 0.930 . S
C199 C200 1.355 . S
C199 C201 1.415 . S
C200 C199 1.355 . S
C200 C202 1.419 . S
C201 C196 1.425 . S
C201 C198 1.409 . S
C201 C199 1.415 . S
C202 H192 0.930 . S
C202 C200 1.419 . S
C202 C203 1.362 . S
C203 H193 0.930 . S
C203 C196 1.409 . S
C203 C202 1.362 . S
H204 C210 0.930 . S
H205 C213 0.930 . S
H206 C214 0.930 . S
H207 C215 0.930 . S
H208 C218 0.930 . S
H209 C219 0.930 . S
C210 H204 0.930 . S
C210 C211 1.355 . S
C210 C212 1.415 . S
C211 C210 1.355 . S
C211 C213 1.419 . S
C212 C210 1.415 . S
C212 C217 1.425 . S
C212 C219 1.409 . S
C213 H205 0.930 . S
C213 C211 1.419 . S
C213 C214 1.362 . S
C214 H206 0.930 . S
C214 C213 1.362 . S
C214 C217 1.409 . S
C215 H207 0.930 . S
C215 C216 1.355 . S
C215 C217 1.415 . S
C216 C215 1.355 . S
C216 C218 1.419 . S
C217 C212 1.425 . S
C217 C214 1.409 . S
C217 C215 1.415 . S
C218 H208 0.930 . S
C218 C216 1.419 . S
C218 C219 1.362 . S
C219 H209 0.930 . S
C219 C212 1.409 . S
C219 C218 1.362 . S
H220 C226 0.930 . S
H221 C229 0.930 . S
H222 C230 0.961 . S
H223 C231 0.930 1_655 S
H224 C234 0.930 . S
H225 C235 0.930 . S
C226 H220 0.930 . S
C226 C227 1.355 . S
C226 C228 1.415 . S
C227 C226 1.355 . S
C227 C229 1.419 . S
C228 C226 1.415 . S
C228 C233 1.425 . S
C228 C235 1.409 . S
C229 H221 0.930 . S
C229 C227 1.419 . S
C229 C230 1.349 1_455 S
C230 H222 0.961 . S
C230 C229 1.349 1_655 S
C230 C233 1.393 1_655 S
C231 H223 0.930 1_455 S
C231 C232 1.355 . S
C231 C233 1.415 . S
C232 C231 1.355 . S
C232 C234 1.419 . S
C233 C228 1.425 . S
C233 C230 1.393 1_455 S
C233 C231 1.415 . S
C234 H224 0.930 . S
C234 C232 1.419 . S
C234 C235 1.362 . S
C235 H225 0.930 . S
C235 C228 1.409 . S
C235 C234 1.362 . S
H236 C242 0.930 . S
H237 C245 0.930 1_545 S
H238 C246 0.930 1_554 S
H239 C247 0.930 . S
H240 C250 0.930 . S
H241 C251 0.930 . S
C242 H236 0.930 . S
C242 C243 1.355 . S
C242 C244 1.415 . S
C243 C242 1.355 . S
C243 C245 1.419 1_556 S
C244 C242 1.415 . S
C244 C249 1.425 . S
C244 C251 1.409 . S
C245 H237 0.930 1_565 S
C245 C243 1.419 1_554 S
C245 C246 1.362 1_564 S
C246 H238 0.930 1_556 S
C246 C245 1.362 1_546 S
C246 C249 1.409 1_545 S
C247 H239 0.930 . S
C247 C248 1.355 1_545 S
C247 C249 1.415 1_545 S
C248 C247 1.355 1_565 S
C248 C250 1.419 . S
C249 C244 1.425 . S
C249 C246 1.409 1_565 S
C249 C247 1.415 1_565 S
C250 H240 0.930 . S
C250 C248 1.419 . S
C250 C251 1.362 . S
C251 H241 0.930 . S
C251 C244 1.409 . S
C251 C250 1.362 . S
H252 C258 0.930 1_554 S
H253 C261 0.930 . S
H254 C262 0.930 . S
H255 C263 0.930 . S
H256 C266 0.930 . S
H257 C267 0.930 . S
C258 H252 0.930 1_556 S
C258 C259 1.355 . S
C258 C260 1.415 . S
C259 C258 1.355 . S
C259 C261 1.419 . S
C260 C258 1.415 . S
C260 C265 1.425 . S
C260 C267 1.409 . S
C261 H253 0.930 . S
C261 C259 1.419 . S
C261 C262 1.362 . S
C262 H254 0.930 . S
C262 C261 1.362 . S
C262 C265 1.409 . S
C263 H255 0.930 . S
C263 C264 1.355 . S
C263 C265 1.415 . S
C264 C263 1.355 . S
C264 C266 1.419 . S
C265 C260 1.425 . S
C265 C262 1.409 . S
C265 C263 1.415 . S
C266 H256 0.930 . S
C266 C264 1.419 . S
C266 C267 1.362 . S
C267 H257 0.930 . S
C267 C260 1.409 . S
C267 C266 1.362 . S
H268 C274 0.930 . S
H269 C277 0.930 . S
H270 C278 0.930 . S
H271 C279 0.930 . S
H272 C282 0.930 . S
H273 C283 0.930 . S
C274 H268 0.930 . S
C274 C275 1.355 . S
C274 C276 1.415 . S
C275 C274 1.355 . S
C275 C277 1.419 1_556 S
C276 C274 1.415 . S
C276 C281 1.425 . S
C276 C283 1.409 . S
C277 H269 0.930 . S
C277 C275 1.419 1_554 S
C277 C278 1.362 . S
C278 H270 0.930 . S
C278 C277 1.362 . S
C278 C281 1.409 1_554 S
C279 H271 0.930 . S
C279 C280 1.355 . S
C279 C281 1.415 . S
C280 C279 1.355 . S
C280 C282 1.419 . S
C281 C276 1.425 . S
C281 C278 1.409 1_556 S
C281 C279 1.415 . S
C282 H272 0.930 . S
C282 C280 1.419 . S
C282 C283 1.362 . S
C283 H273 0.930 . S
C283 C276 1.409 . S
C283 C282 1.362 . S
H284 C290 0.930 1_454 S
H285 C293 0.930 . S
H286 C294 0.930 . S
H287 C295 0.930 . S
H288 C298 0.930 . S
H289 C299 0.930 1_554 S
C290 H284 0.930 1_656 S
C290 C291 1.355 . S
C290 C292 1.415 . S
C291 C290 1.355 . S
C291 C293 1.419 . S
C292 C290 1.415 . S
C292 C297 1.425 . S
C292 C299 1.409 1_655 S
C293 H285 0.930 . S
C293 C291 1.419 . S
C293 C294 1.362 . S
C294 H286 0.930 . S
C294 C293 1.362 . S
C294 C297 1.409 . S
C295 H287 0.930 . S
C295 C296 1.355 . S
C295 C297 1.415 . S
C296 C295 1.355 . S
C296 C298 1.419 1_655 S
C297 C292 1.425 . S
C297 C294 1.409 . S
C297 C295 1.415 . S
C298 H288 0.930 . S
C298 C296 1.419 1_455 S
C298 C299 1.362 . S
C299 H289 0.930 1_556 S
C299 C292 1.409 1_455 S
C299 C298 1.362 . S
H300 C306 0.930 . S
H301 C309 0.930 . S
H302 C310 0.930 . S
H303 C311 0.930 . S
H304 C314 0.930 . S
H305 C315 0.930 . S
C306 H300 0.930 . S
C306 C307 1.355 . S
C306 C308 1.415 . S
C307 C306 1.355 . S
C307 C309 1.419 . S
C308 C306 1.415 . S
C308 C313 1.425 . S
C308 C315 1.409 1_455 S
C309 H301 0.930 . S
C309 C307 1.419 . S
C309 C310 1.362 . S
C310 H302 0.930 . S
C310 C309 1.362 . S
C310 C313 1.409 . S
C311 H303 0.930 . S
C311 C312 1.355 . S
C311 C313 1.415 . S
C312 C311 1.355 . S
C312 C314 1.419 1_455 S
C313 C308 1.425 . S
C313 C310 1.409 . S
C313 C311 1.415 . S
C314 H304 0.930 . S
C314 C312 1.419 1_655 S
C314 C315 1.362 . S
C315 H305 0.930 . S
C315 C308 1.409 1_655 S
C315 C314 1.362 . S
H316 C322 0.930 . S
H317 C325 0.930 . S
H318 C326 0.930 . S
H319 C327 0.930 . S
H320 C330 0.930 . S
H321 C331 0.930 . S
C322 H316 0.930 . S
C322 C323 1.355 . S
C322 C324 1.415 . S
C323 C322 1.355 . S
C323 C325 1.419 . S
C324 C322 1.415 . S
C324 C329 1.425 . S
C324 C331 1.409 . S
C325 H317 0.930 . S
C325 C323 1.419 . S
C325 C326 1.362 . S
C326 H318 0.930 . S
C326 C325 1.362 . S
C326 C329 1.409 . S
C327 H319 0.930 . S
C327 C328 1.355 . S
C327 C329 1.415 . S
C328 C327 1.355 . S
C328 C330 1.419 . S
C329 C324 1.425 . S
C329 C326 1.409 . S
C329 C327 1.415 . S
C330 H320 0.930 . S
C330 C328 1.419 . S
C330 C331 1.362 . S
C331 H321 0.930 . S
C331 C324 1.409 . S
C331 C330 1.362 . S
H332 C338 0.930 . S
H333 C341 0.930 . S
H334 C342 0.930 . S
H335 C343 0.930 . S
H336 C346 0.930 . S
H337 C347 0.930 . S
C338 H332 0.930 . S
C338 C339 1.355 . S
C338 C340 1.415 . S
C339 C338 1.355 . S
C339 C341 1.419 . S
C340 C338 1.415 . S
C340 C345 1.425 . S
C340 C347 1.409 . S
C341 H333 0.930 . S
C341 C339 1.419 . S
C341 C342 1.362 . S
C342 H334 0.930 . S
C342 C341 1.362 . S
C342 C345 1.409 . S
C343 H335 0.930 . S
C343 C344 1.355 . S
C343 C345 1.415 . S
C344 C343 1.355 . S
C344 C346 1.419 . S
C345 C340 1.425 . S
C345 C342 1.409 . S
C345 C343 1.415 . S
C346 H336 0.930 . S
C346 C344 1.419 . S
C346 C347 1.362 . S
C347 H337 0.930 . S
C347 C340 1.409 . S
C347 C346 1.362 . S
H348 C354 0.930 . S
H349 C357 0.930 . S
H350 C358 0.930 . S
H351 C359 0.930 . S
H352 C362 0.930 . S
H353 C363 0.930 . S
C354 H348 0.930 . S
C354 C355 1.355 . S
C354 C356 1.415 . S
C355 C354 1.355 . S
C355 C357 1.419 . S
C356 C354 1.415 . S
C356 C361 1.425 . S
C356 C363 1.409 . S
C357 H349 0.930 . S
C357 C355 1.419 . S
C357 C358 1.362 . S
C358 H350 0.930 . S
C358 C357 1.362 . S
C358 C361 1.409 . S
C359 H351 0.930 . S
C359 C360 1.355 . S
C359 C361 1.415 . S
C360 C359 1.355 . S
C360 C362 1.419 . S
C361 C356 1.425 . S
C361 C358 1.409 . S
C361 C359 1.415 . S
C362 H352 0.930 . S
C362 C360 1.419 . S
C362 C363 1.362 . S
C363 H353 0.930 . S
C363 C356 1.409 . S
C363 C362 1.362 . S
H364 C370 0.930 . S
H365 C373 0.930 . S
H366 C374 0.930 . S
H367 C375 0.930 . S
H368 C378 0.930 . S
H369 C379 0.930 . S
C370 H364 0.930 . S
C370 C371 1.355 1_554 S
C370 C372 1.415 1_554 S
C371 C370 1.355 1_556 S
C371 C373 1.419 . S
C372 C370 1.415 1_556 S
C372 C377 1.425 . S
C372 C379 1.409 1_656 S
C373 H365 0.930 . S
C373 C371 1.419 . S
C373 C374 1.362 . S
C374 H366 0.930 . S
C374 C373 1.362 . S
C374 C377 1.409 . S
C375 H367 0.930 . S
C375 C376 1.355 1_655 S
C375 C377 1.415 . S
C376 C375 1.355 1_455 S
C376 C378 1.419 . S
C377 C372 1.425 . S
C377 C374 1.409 . S
C377 C375 1.415 . S
C378 H368 0.930 . S
C378 C376 1.419 . S
C378 C379 1.362 1_556 S
C379 H369 0.930 . S
C379 C372 1.409 1_454 S
C379 C378 1.362 1_554 S
H380 C386 0.930 . S
H381 C389 0.930 . S
H382 C390 0.930 . S
H383 C391 0.930 . S
H384 C394 0.930 . S
H385 C395 0.930 . S
C386 H380 0.930 . S
C386 C387 1.355 1_554 S
C386 C388 1.415 1_554 S
C387 C386 1.355 1_556 S
C387 C389 1.419 . S
C388 C386 1.415 1_556 S
C388 C393 1.425 . S
C388 C395 1.409 1_566 S
C389 H381 0.930 . S
C389 C387 1.419 . S
C389 C390 1.362 . S
C390 H382 0.930 . S
C390 C389 1.362 . S
C390 C393 1.409 . S
C391 H383 0.930 . S
C391 C392 1.355 1_565 S
C391 C393 1.415 . S
C392 C391 1.355 1_545 S
C392 C394 1.419 . S
C393 C388 1.425 . S
C393 C390 1.409 . S
C393 C391 1.415 . S
C394 H384 0.930 . S
C394 C392 1.419 . S
C394 C395 1.362 1_556 S
C395 H385 0.930 . S
C395 C388 1.409 1_544 S
C395 C394 1.362 1_554 S
H396 C402 0.930 . S
H397 C405 0.930 . S
H398 C406 0.930 . S
H399 C407 0.930 . S
H400 C410 0.930 . S
H401 C411 0.930 . S
C402 H396 0.930 . S
C402 C403 1.355 . S
C402 C404 1.415 . S
C403 C402 1.355 . S
C403 C405 1.419 1_556 S
C404 C402 1.415 . S
C404 C409 1.425 . S
C404 C411 1.409 . S
C405 H397 0.930 . S
C405 C403 1.419 1_554 S
C405 C406 1.362 . S
C406 H398 0.930 . S
C406 C405 1.362 . S
C406 C409 1.409 1_554 S
C407 H399 0.930 . S
C407 C408 1.355 . S
C407 C409 1.415 . S
C408 C407 1.355 . S
C408 C410 1.419 . S
C409 C404 1.425 . S
C409 C406 1.409 1_556 S
C409 C407 1.415 . S
C410 H400 0.930 . S
C410 C408 1.419 . S
C410 C411 1.362 . S
C411 H401 0.930 . S
C411 C404 1.409 . S
C411 C410 1.362 . S
H412 C418 0.930 . S
H413 C421 0.930 . S
H414 C422 0.930 . S
H415 C423 0.930 . S
H416 C426 0.930 . S
H417 C427 0.930 . S
C418 H412 0.930 . S
C418 C419 1.355 1_554 S
C418 C420 1.415 1_554 S
C419 C418 1.355 1_556 S
C419 C421 1.419 . S
C420 C418 1.415 1_556 S
C420 C425 1.425 . S
C420 C427 1.409 1_556 S
C421 H413 0.930 . S
C421 C419 1.419 . S
C421 C422 1.362 . S
C422 H414 0.930 . S
C422 C421 1.362 . S
C422 C425 1.409 . S
C423 H415 0.930 . S
C423 C424 1.355 . S
C423 C425 1.415 . S
C424 C423 1.355 . S
C424 C426 1.419 . S
C425 C420 1.425 . S
C425 C422 1.409 . S
C425 C423 1.415 . S
C426 H416 0.930 . S
C426 C424 1.419 . S
C426 C427 1.362 1_556 S
C427 H417 0.930 . S
C427 C420 1.409 1_554 S
C427 C426 1.362 1_554 S
H428 C434 0.930 . S
H429 C437 0.930 . S
H430 C438 0.930 1_556 S
H431 C439 0.930 . S
H432 C442 0.930 1_655 S
H433 C443 0.930 1_655 S
C434 H428 0.930 . S
C434 C435 1.355 . S
C434 C436 1.415 . S
C435 C434 1.355 . S
C435 C437 1.419 . S
C436 C434 1.415 . S
C436 C441 1.425 . S
C436 C443 1.409 . S
C437 H429 0.930 . S
C437 C435 1.419 . S
C437 C438 1.362 . S
C438 H430 0.930 1_554 S
C438 C437 1.362 . S
C438 C441 1.409 . S
C439 H431 0.930 . S
C439 C440 1.355 . S
C439 C441 1.415 1_556 S
C440 C439 1.355 . S
C440 C442 1.419 1_556 S
C441 C436 1.425 . S
C441 C438 1.409 . S
C441 C439 1.415 1_554 S
C442 H432 0.930 1_455 S
C442 C440 1.419 1_554 S
C442 C443 1.362 . S
C443 H433 0.930 1_455 S
C443 C436 1.409 . S
C443 C442 1.362 . S
H444 C450 0.930 . S
H445 C453 0.930 . S
H446 C454 0.930 . S
H447 C455 0.930 . S
H448 C458 0.930 . S
H449 C459 0.930 . S
C450 H444 0.930 . S
C450 C451 1.355 . S
C450 C452 1.415 . S
C451 C450 1.355 . S
C451 C453 1.419 . S
C452 C450 1.415 . S
C452 C457 1.428 . S
C452 C459 1.409 . S
C453 H445 0.930 . S
C453 C451 1.419 . S
C453 C454 1.362 1_554 S
C454 H446 0.930 . S
C454 C453 1.362 1_556 S
C454 C457 1.408 1_556 S
C455 H447 0.930 . S
C455 C456 1.355 . S
C455 C457 1.412 1_556 S
C456 C455 1.355 . S
C456 C458 1.419 1_556 S
C457 C452 1.428 . S
C457 C454 1.408 1_554 S
C457 C455 1.412 1_554 S
C458 H448 0.930 . S
C458 C456 1.419 1_554 S
C458 C459 1.362 . S
C459 H449 0.930 . S
C459 C452 1.409 . S
C459 C458 1.362 . S
H460 C466 0.930 . S
H461 C469 0.930 . S
H462 C470 0.930 . S
H463 C471 0.930 . S
H464 C474 0.930 . S
H465 C475 0.930 . S
C466 H460 0.930 . S
C466 C467 1.355 . S
C466 C468 1.415 . S
C467 C466 1.355 . S
C467 C469 1.419 . S
C468 C466 1.415 . S
C468 C473 1.425 . S
C468 C475 1.409 1_554 S
C469 H461 0.930 . S
C469 C467 1.419 . S
C469 C470 1.362 . S
C470 H462 0.930 . S
C470 C469 1.362 . S
C470 C473 1.409 . S
C471 H463 0.930 . S
C471 C472 1.355 1_554 S
C471 C473 1.415 . S
C472 C471 1.355 1_556 S
C472 C474 1.419 . S
C473 C468 1.425 . S
C473 C470 1.409 . S
C473 C471 1.415 . S
C474 H464 0.930 . S
C474 C472 1.419 . S
C474 C475 1.362 . S
C475 H465 0.930 . S
C475 C468 1.409 1_556 S
C475 C474 1.362 . S
H476 C482 0.930 . S
H477 C485 0.930 . S
H478 C486 0.930 . S
H479 C487 0.930 . S
H480 C490 0.930 . S
H481 C491 0.930 . S
C482 H476 0.930 . S
C482 C483 1.355 . S
C482 C484 1.415 . S
C483 C482 1.355 . S
C483 C485 1.419 . S
C484 C482 1.415 . S
C484 C489 1.425 . S
C484 C491 1.409 1_554 S
C485 H477 0.930 . S
C485 C483 1.419 . S
C485 C486 1.362 . S
C486 H478 0.930 . S
C486 C485 1.362 . S
C486 C489 1.409 . S
C487 H479 0.930 . S
C487 C488 1.355 1_554 S
C487 C489 1.415 . S
C488 C487 1.355 1_556 S
C488 C490 1.419 . S
C489 C484 1.425 . S
C489 C486 1.409 . S
C489 C487 1.415 . S
C490 H480 0.930 . S
C490 C488 1.419 . S
C490 C491 1.362 . S
C491 H481 0.930 . S
C491 C484 1.409 1_556 S
C491 C490 1.362 . S
H492 C498 0.930 . S
H493 C501 0.930 . S
H494 C502 0.930 . S
H495 C503 0.930 . S
H496 C506 0.930 . S
H497 C507 0.930 . S
C498 H492 0.930 . S
C498 C499 1.355 . S
C498 C500 1.415 . S
C499 C498 1.355 . S
C499 C501 1.419 . S
C500 C498 1.415 . S
C500 C505 1.425 . S
C500 C507 1.409 1_655 S
C501 H493 0.930 . S
C501 C499 1.419 . S
C501 C502 1.362 . S
C502 H494 0.930 . S
C502 C501 1.362 . S
C502 C505 1.409 . S
C503 H495 0.930 . S
C503 C504 1.355 . S
C503 C505 1.415 . S
C504 C503 1.355 . S
C504 C506 1.419 1_655 S
C505 C500 1.425 . S
C505 C502 1.409 . S
C505 C503 1.415 . S
C506 H496 0.930 . S
C506 C504 1.419 1_455 S
C506 C507 1.362 . S
C507 H497 0.930 . S
C507 C500 1.409 1_455 S
C507 C506 1.362 . S
H508 C514 0.930 . S
H509 C517 0.957 . S
H510 C518 0.930 . S
H511 C519 0.954 . S
H512 C522 0.930 . S
H513 C523 0.930 . S
C514 H508 0.930 . S
C514 C515 1.355 . S
C514 C516 1.415 . S
C515 C514 1.355 . S
C515 C517 1.378 1_565 S
C516 C514 1.415 . S
C516 C521 1.425 . S
C516 C523 1.409 . S
C517 H509 0.957 . S
C517 C515 1.378 1_545 S
C517 C518 1.377 . S
C518 H510 0.930 . S
C518 C517 1.377 . S
C518 C521 1.409 1_545 S
C519 H511 0.954 . S
C519 C520 1.338 1_545 S
C519 C521 1.407 1_545 S
C520 C519 1.338 1_565 S
C520 C522 1.419 . S
C521 C516 1.425 . S
C521 C518 1.409 1_565 S
C521 C519 1.407 1_565 S
C522 H512 0.930 . S
C522 C520 1.419 . S
C522 C523 1.362 . S
C523 H513 0.930 . S
C523 C516 1.409 . S
C523 C522 1.362 . S
H524 C530 0.930 . S
H525 C533 0.930 . S
H526 C534 0.930 . S
H527 C535 0.930 . S
H528 C538 0.930 . S
H529 C539 0.930 . S
C530 H524 0.930 . S
C530 C531 1.355 . S
C530 C532 1.415 . S
C531 C530 1.355 . S
C531 C533 1.419 . S
C532 C530 1.415 . S
C532 C537 1.425 . S
C532 C539 1.409 . S
C533 H525 0.930 . S
C533 C531 1.419 . S
C533 C534 1.362 . S
C534 H526 0.930 . S
C534 C533 1.362 . S
C534 C537 1.409 . S
C535 H527 0.930 . S
C535 C536 1.355 . S
C535 C537 1.415 . S
C536 C535 1.355 . S
C536 C538 1.419 . S
C537 C532 1.425 . S
C537 C534 1.409 . S
C537 C535 1.415 . S
C538 H528 0.930 . S
C538 C536 1.419 . S
C538 C539 1.362 . S
C539 H529 0.930 . S
C539 C532 1.409 . S
C539 C538 1.362 . S
H540 C546 0.930 . S
H541 C549 0.930 . S
H542 C550 0.930 . S
H543 C551 0.930 . S
H544 C554 0.930 . S
H545 C555 0.930 . S
C546 H540 0.930 . S
C546 C547 1.355 . S
C546 C548 1.415 . S
C547 C546 1.355 . S
C547 C549 1.419 . S
C548 C546 1.415 . S
C548 C553 1.425 . S
C548 C555 1.409 . S
C549 H541 0.930 . S
C549 C547 1.419 . S
C549 C550 1.362 . S
C550 H542 0.930 . S
C550 C549 1.362 . S
C550 C553 1.409 . S
C551 H543 0.930 . S
C551 C552 1.355 . S
C551 C553 1.415 . S
C552 C551 1.355 . S
C552 C554 1.419 . S
C553 C548 1.425 . S
C553 C550 1.409 . S
C553 C551 1.415 . S
C554 H544 0.930 . S
C554 C552 1.419 . S
C554 C555 1.362 . S
C555 H545 0.930 . S
C555 C548 1.409 . S
C555 C554 1.362 . S
C179 C74 1.602 . S
C184 C103 1.484 1_545 S
C200 C127 1.483 . S
C195 C85 1.580 . S
C216 C148 1.412 . S
C211 C52 1.567 . S
C232 C166 1.477 1_455 S
C227 C63 1.577 . S
C248 C106 1.404 1_565 S
C243 C30 1.450 1_556 S
C259 C41 1.471 1_556 S
C264 C124 1.297 . S
C275 C8 1.485 1_556 S
C280 C145 1.347 . S
C291 C19 1.462 1_556 S
C296 C169 1.305 1_655 S
C312 C104 0.860 1_455 S
C307 C62 0.818 . S
C328 C122 0.873 . S
C323 C73 0.806 . S
C344 C143 0.772 . S
C339 C84 0.802 . S
C355 C51 0.812 . S
C360 C167 0.869 . S
C371 C18 0.933 1_556 S
C376 C102 0.917 . S
C392 C126 0.918 . S
C387 C29 0.930 1_556 S
C408 C147 0.909 . S
C403 C40 0.804 1_556 S
C419 C7 0.896 1_556 S
C424 C165 0.935 . S
C435 C60 1.387 . S
C440 C105 1.527 . S
C451 C71 1.443 . S
C456 C123 1.561 . S
C472 C144 1.577 . S
C467 C82 1.433 . S
C488 C168 1.590 . S
C483 C49 1.457 . S
C499 C16 1.241 . S
C504 C101 1.382 . S
C520 C125 1.459 . S
C515 C27 1.108 . S
C536 C146 1.457 . S
C531 C38 1.108 . S
C547 C5 1.151 . S
C552 C164 1.475 . S
