# Generated by pormake.
# Topology fgl, (4,4)-cn, num edge types: 1
# Building blocks:
#     Node 0, Type 0, BuildingBlock: ESEHIV_clean_sbu_0, # of connection points: 4
#     Node 1, Type 0, BuildingBlock: ESEHIV_clean_sbu_0, # of connection points: 4
#     Node 2, Type 0, BuildingBlock: ESEHIV_clean_sbu_0, # of connection points: 4
#     Node 3, Type 0, BuildingBlock: ESEHIV_clean_sbu_0, # of connection points: 4
#     Node 4, Type 0, BuildingBlock: ESEHIV_clean_sbu_0, # of connection points: 4
#     Node 5, Type 0, BuildingBlock: ESEHIV_clean_sbu_0, # of connection points: 4
#     Node 6, Type 0, BuildingBlock: ESEHIV_clean_sbu_0, # of connection points: 4
#     Node 7, Type 0, BuildingBlock: ESEHIV_clean_sbu_0, # of connection points: 4
#     Node 8, Type 0, BuildingBlock: ESEHIV_clean_sbu_0, # of connection points: 4
#     Node 9, Type 0, BuildingBlock: ESEHIV_clean_sbu_0, # of connection points: 4
#     Node 10, Type 0, BuildingBlock: ESEHIV_clean_sbu_0, # of connection points: 4
#     Node 11, Type 0, BuildingBlock: ESEHIV_clean_sbu_0, # of connection points: 4
#     Node 12, Type 0, BuildingBlock: ESEHIV_clean_sbu_0, # of connection points: 4
#     Node 13, Type 0, BuildingBlock: ESEHIV_clean_sbu_0, # of connection points: 4
#     Node 14, Type 0, BuildingBlock: ESEHIV_clean_sbu_0, # of connection points: 4
#     Node 15, Type 0, BuildingBlock: ESEHIV_clean_sbu_0, # of connection points: 4
#     Node 16, Type 0, BuildingBlock: ESEHIV_clean_sbu_0, # of connection points: 4
#     Node 17, Type 0, BuildingBlock: ESEHIV_clean_sbu_0, # of connection points: 4
#     Node 18, Type 1, BuildingBlock: GALJAG_clean_sbu_0, # of connection points: 4
#     Node 19, Type 1, BuildingBlock: GALJAG_clean_sbu_0, # of connection points: 4
#     Node 20, Type 1, BuildingBlock: GALJAG_clean_sbu_0, # of connection points: 4
#     Node 21, Type 1, BuildingBlock: GALJAG_clean_sbu_0, # of connection points: 4
#     Node 22, Type 1, BuildingBlock: GALJAG_clean_sbu_0, # of connection points: 4
#     Node 23, Type 1, BuildingBlock: GALJAG_clean_sbu_0, # of connection points: 4
#     Node 24, Type 1, BuildingBlock: GALJAG_clean_sbu_0, # of connection points: 4
#     Node 25, Type 1, BuildingBlock: GALJAG_clean_sbu_0, # of connection points: 4
#     Node 26, Type 1, BuildingBlock: GALJAG_clean_sbu_0, # of connection points: 4
#     Node 27, Type 1, BuildingBlock: GALJAG_clean_sbu_0, # of connection points: 4
#     Node 28, Type 1, BuildingBlock: GALJAG_clean_sbu_0, # of connection points: 4
#     Node 29, Type 1, BuildingBlock: GALJAG_clean_sbu_0, # of connection points: 4
#     Node 30, Type 1, BuildingBlock: GALJAG_clean_sbu_0, # of connection points: 4
#     Node 31, Type 1, BuildingBlock: GALJAG_clean_sbu_0, # of connection points: 4
#     Node 32, Type 1, BuildingBlock: GALJAG_clean_sbu_0, # of connection points: 4
#     Node 33, Type 1, BuildingBlock: GALJAG_clean_sbu_0, # of connection points: 4
#     Node 34, Type 1, BuildingBlock: GALJAG_clean_sbu_0, # of connection points: 4
#     Node 35, Type 1, BuildingBlock: GALJAG_clean_sbu_0, # of connection points: 4
#     Edge 36, Type (0, 1), BuildingBlock: UVAHIK_clean_linker_0, # of connection points: 2
#     Edge 37, Type (0, 1), BuildingBlock: UVAHIK_clean_linker_0, # of connection points: 2
#     Edge 38, Type (0, 1), BuildingBlock: UVAHIK_clean_linker_0, # of connection points: 2
#     Edge 39, Type (0, 1), BuildingBlock: UVAHIK_clean_linker_0, # of connection points: 2
#     Edge 40, Type (0, 1), BuildingBlock: UVAHIK_clean_linker_0, # of connection points: 2
#     Edge 41, Type (0, 1), BuildingBlock: UVAHIK_clean_linker_0, # of connection points: 2
#     Edge 42, Type (0, 1), BuildingBlock: UVAHIK_clean_linker_0, # of connection points: 2
#     Edge 43, Type (0, 1), BuildingBlock: UVAHIK_clean_linker_0, # of connection points: 2
#     Edge 44, Type (0, 1), BuildingBlock: UVAHIK_clean_linker_0, # of connection points: 2
#     Edge 45, Type (0, 1), BuildingBlock: UVAHIK_clean_linker_0, # of connection points: 2
#     Edge 46, Type (0, 1), BuildingBlock: UVAHIK_clean_linker_0, # of connection points: 2
#     Edge 47, Type (0, 1), BuildingBlock: UVAHIK_clean_linker_0, # of connection points: 2
#     Edge 48, Type (0, 1), BuildingBlock: UVAHIK_clean_linker_0, # of connection points: 2
#     Edge 49, Type (0, 1), BuildingBlock: UVAHIK_clean_linker_0, # of connection points: 2
#     Edge 50, Type (0, 1), BuildingBlock: UVAHIK_clean_linker_0, # of connection points: 2
#     Edge 51, Type (0, 1), BuildingBlock: UVAHIK_clean_linker_0, # of connection points: 2
#     Edge 52, Type (0, 1), BuildingBlock: UVAHIK_clean_linker_0, # of connection points: 2
#     Edge 53, Type (0, 1), BuildingBlock: UVAHIK_clean_linker_0, # of connection points: 2
#     Edge 54, Type (0, 1), BuildingBlock: UVAHIK_clean_linker_0, # of connection points: 2
#     Edge 55, Type (0, 1), BuildingBlock: UVAHIK_clean_linker_0, # of connection points: 2
#     Edge 56, Type (0, 1), BuildingBlock: UVAHIK_clean_linker_0, # of connection points: 2
#     Edge 57, Type (0, 1), BuildingBlock: UVAHIK_clean_linker_0, # of connection points: 2
#     Edge 58, Type (0, 1), BuildingBlock: UVAHIK_clean_linker_0, # of connection points: 2
#     Edge 59, Type (0, 1), BuildingBlock: UVAHIK_clean_linker_0, # of connection points: 2
#     Edge 60, Type (0, 1), BuildingBlock: UVAHIK_clean_linker_0, # of connection points: 2
#     Edge 61, Type (0, 1), BuildingBlock: UVAHIK_clean_linker_0, # of connection points: 2
#     Edge 62, Type (0, 1), BuildingBlock: UVAHIK_clean_linker_0, # of connection points: 2
#     Edge 63, Type (0, 1), BuildingBlock: UVAHIK_clean_linker_0, # of connection points: 2
#     Edge 64, Type (0, 1), BuildingBlock: UVAHIK_clean_linker_0, # of connection points: 2
#     Edge 65, Type (0, 1), BuildingBlock: UVAHIK_clean_linker_0, # of connection points: 2
#     Edge 66, Type (0, 1), BuildingBlock: UVAHIK_clean_linker_0, # of connection points: 2
#     Edge 67, Type (0, 1), BuildingBlock: UVAHIK_clean_linker_0, # of connection points: 2
#     Edge 68, Type (0, 1), BuildingBlock: UVAHIK_clean_linker_0, # of connection points: 2
#     Edge 69, Type (0, 1), BuildingBlock: UVAHIK_clean_linker_0, # of connection points: 2
#     Edge 70, Type (0, 1), BuildingBlock: UVAHIK_clean_linker_0, # of connection points: 2
#     Edge 71, Type (0, 1), BuildingBlock: UVAHIK_clean_linker_0, # of connection points: 2
#     Edge 72, Type (0, 1), BuildingBlock: UVAHIK_clean_linker_0, # of connection points: 2
#     Edge 73, Type (0, 1), BuildingBlock: UVAHIK_clean_linker_0, # of connection points: 2
#     Edge 74, Type (0, 1), BuildingBlock: UVAHIK_clean_linker_0, # of connection points: 2
#     Edge 75, Type (0, 1), BuildingBlock: UVAHIK_clean_linker_0, # of connection points: 2
#     Edge 76, Type (0, 1), BuildingBlock: UVAHIK_clean_linker_0, # of connection points: 2
#     Edge 77, Type (0, 1), BuildingBlock: UVAHIK_clean_linker_0, # of connection points: 2
#     Edge 78, Type (0, 1), BuildingBlock: UVAHIK_clean_linker_0, # of connection points: 2
#     Edge 79, Type (0, 1), BuildingBlock: UVAHIK_clean_linker_0, # of connection points: 2
#     Edge 80, Type (0, 1), BuildingBlock: UVAHIK_clean_linker_0, # of connection points: 2
#     Edge 81, Type (0, 1), BuildingBlock: UVAHIK_clean_linker_0, # of connection points: 2
#     Edge 82, Type (0, 1), BuildingBlock: UVAHIK_clean_linker_0, # of connection points: 2
#     Edge 83, Type (0, 1), BuildingBlock: UVAHIK_clean_linker_0, # of connection points: 2
#     Edge 84, Type (0, 1), BuildingBlock: UVAHIK_clean_linker_0, # of connection points: 2
#     Edge 85, Type (0, 1), BuildingBlock: UVAHIK_clean_linker_0, # of connection points: 2
#     Edge 86, Type (0, 1), BuildingBlock: UVAHIK_clean_linker_0, # of connection points: 2
#     Edge 87, Type (0, 1), BuildingBlock: UVAHIK_clean_linker_0, # of connection points: 2
#     Edge 88, Type (0, 1), BuildingBlock: UVAHIK_clean_linker_0, # of connection points: 2
#     Edge 89, Type (0, 1), BuildingBlock: UVAHIK_clean_linker_0, # of connection points: 2
#     Edge 90, Type (0, 1), BuildingBlock: UVAHIK_clean_linker_0, # of connection points: 2
#     Edge 91, Type (0, 1), BuildingBlock: UVAHIK_clean_linker_0, # of connection points: 2
#     Edge 92, Type (0, 1), BuildingBlock: UVAHIK_clean_linker_0, # of connection points: 2
#     Edge 93, Type (0, 1), BuildingBlock: UVAHIK_clean_linker_0, # of connection points: 2
#     Edge 94, Type (0, 1), BuildingBlock: UVAHIK_clean_linker_0, # of connection points: 2
#     Edge 95, Type (0, 1), BuildingBlock: UVAHIK_clean_linker_0, # of connection points: 2
#     Edge 96, Type (0, 1), BuildingBlock: UVAHIK_clean_linker_0, # of connection points: 2
#     Edge 97, Type (0, 1), BuildingBlock: UVAHIK_clean_linker_0, # of connection points: 2
#     Edge 98, Type (0, 1), BuildingBlock: UVAHIK_clean_linker_0, # of connection points: 2
#     Edge 99, Type (0, 1), BuildingBlock: UVAHIK_clean_linker_0, # of connection points: 2
#     Edge 100, Type (0, 1), BuildingBlock: UVAHIK_clean_linker_0, # of connection points: 2
#     Edge 101, Type (0, 1), BuildingBlock: UVAHIK_clean_linker_0, # of connection points: 2
#     Edge 102, Type (0, 1), BuildingBlock: UVAHIK_clean_linker_0, # of connection points: 2
#     Edge 103, Type (0, 1), BuildingBlock: UVAHIK_clean_linker_0, # of connection points: 2
#     Edge 104, Type (0, 1), BuildingBlock: UVAHIK_clean_linker_0, # of connection points: 2
#     Edge 105, Type (0, 1), BuildingBlock: UVAHIK_clean_linker_0, # of connection points: 2
#     Edge 106, Type (0, 1), BuildingBlock: UVAHIK_clean_linker_0, # of connection points: 2
#     Edge 107, Type (0, 1), BuildingBlock: UVAHIK_clean_linker_0, # of connection points: 2
# Relax obj value: 0.027
# Max RMSD: 0.112
# Mean RMSD: 0.092
data_MOF--net-fgl--node1-ESEHIV_clean_sbu_0--node2-GALJAG_clean_sbu_0--edge1-UVAHIK_clean_linker_0
_symmetry_space_group_name_H-M    P1
_symmetry_Int_Tables_number       1
_symmetry_cell_setting            triclinic
loop_
_symmetry_equiv_pos_as_xyz
'x, y, z'
_cell_length_a     97.681873
_cell_length_b     97.947458
_cell_length_c     65.099293
_cell_angle_alpha  90.11797
_cell_angle_beta   90.213392
_cell_angle_gamma 119.90937
loop_
_atom_site_label
_atom_site_type_symbol
_atom_site_fract_x
_atom_site_fract_y
_atom_site_fract_z
_atom_type_partial_charge
Cu0 Cu 0.01595 0.53483 0.00593 0.0
N1 N 0.02399 0.55504 0.01712 0.0
N2 N 0.02953 0.57417 0.04016 0.0
C3 C 0.02287 0.55848 0.0369 0.0
C4 C 0.03518 0.58082 0.02169 0.0
C5 C 0.03178 0.56902 0.00756 0.0
O6 O 0.99347 0.52191 0.01132 0.0
C7 C 0.02133 0.5172 0.03566 0.0
O8 O 0.00942 0.51717 0.045 0.0
H9 H 0.0172 0.5496 0.04861 0.0
H10 H 0.03474 0.57058 0.99145 0.0
N11 N 0.01944 0.53492 0.97766 0.0
N12 N 0.02295 0.52654 0.94717 0.0
C13 C 0.0221 0.52438 0.96771 0.0
C14 C 0.01868 0.54413 0.9629 0.0
C15 C 0.02079 0.53896 0.94408 0.0
C16 C 0.98308 0.52608 0.00987 0.0
O17 O 0.96836 0.51595 0.01445 0.0
H18 H 0.02283 0.51497 0.97536 0.0
H19 H 0.01649 0.55376 0.96554 0.0
O20 O 0.02632 0.52464 0.01888 0.0
H21 H 0.04109 0.5933 0.01846 0.0
H22 H 0.02069 0.54392 0.92927 0.0
Cu23 Cu 0.54212 0.54951 0.02613 0.0
N24 N 0.54295 0.55548 0.99734 0.0
N25 N 0.55194 0.56365 0.96567 0.0
C26 C 0.55566 0.56162 0.985 0.0
C27 C 0.53629 0.55854 0.96593 0.0
C28 C 0.53077 0.55352 0.98552 0.0
O29 O 0.55816 0.57241 0.03357 0.0
C30 C 0.52808 0.5176 0.00821 0.0
O31 O 0.54241 0.52264 1.00123 0.0
H32 H 0.56729 0.5642 0.98998 0.0
H33 H 0.51874 0.54863 0.99076 0.0
N34 N 0.54137 0.54334 0.05483 0.0
N35 N 0.53205 0.53223 0.08531 0.0
C36 C 0.52861 0.53644 0.06708 0.0
C37 C 0.55324 0.54353 0.06558 0.0
C38 C 0.54755 0.53674 0.08441 0.0
C39 C 0.57303 0.57778 0.03423 0.0
O40 O 0.57857 0.56835 0.02988 0.0
H41 H 0.51694 0.53392 0.06236 0.0
H42 H 0.56508 0.54784 0.05992 0.0
O43 O 0.52535 0.52684 0.01899 0.0
H44 H 0.52935 0.55857 0.95295 0.0
H45 H 0.55427 0.53507 0.09641 0.0
Cu46 Cu 0.54393 0.07203 0.02241 0.0
N47 N 0.54231 0.08449 1.0021 0.0
N48 N 0.53266 0.0906 0.97477 0.0
C49 C 0.5298 0.07993 0.98959 0.0
C50 C 0.54756 0.10239 0.97816 0.0
C51 C 0.55349 0.0986 0.99513 0.0
O52 O 0.52276 0.05718 0.03197 0.0
C53 C 0.55934 0.06237 0.99335 0.0
O54 O 0.5524 0.06648 0.97933 0.0
H55 H 0.51916 0.06855 0.99061 0.0
H56 H 0.5653 0.1053 1.00143 0.0
N57 N 0.55546 0.08435 0.04468 0.0
N58 N 0.56994 0.09089 0.07342 0.0
C59 C 0.56254 0.07987 0.05867 0.0
C60 C 0.55849 0.09877 0.05056 0.0
C61 C 0.56745 0.10285 0.06834 0.0
C62 C 0.5153 0.06353 0.03967 0.0
O63 O 0.52228 0.07898 0.0402 0.0
H64 H 0.56236 0.06876 0.05778 0.0
H65 H 0.55439 0.10575 0.04259 0.0
O66 O 0.55592 0.06246 0.01219 0.0
H67 H 0.55386 0.1128 0.96875 0.0
H68 H 0.57157 0.11367 0.07695 0.0
Cu69 Cu 0.52867 0.02894 0.52272 0.0
N70 N 0.52855 0.02151 0.49629 0.0
N71 N 0.53846 0.02071 0.46575 0.0
C72 C 0.54079 0.02881 0.48342 0.0
C73 C 0.524 0.00781 0.46754 0.0
C74 C 0.51791 0.00832 0.48648 0.0
O75 O 0.54933 0.03426 0.53456 0.0
C76 C 0.50908 0.04019 0.51297 0.0
O77 O 0.50077 0.02511 0.50851 0.0
H78 H 0.55128 0.03985 0.48716 0.0
H79 H 0.50671 0.99958 0.49277 0.0
N80 N 0.51305 0.01354 0.53932 0.0
N81 N 0.49465 1.00368 0.5637 0.0
C82 C 0.50541 0.01676 0.55397 0.0
C83 C 0.50694 0.99781 0.53979 0.0
C84 C 0.4956 0.99168 0.55497 0.0
C85 C 0.55221 0.02291 0.53311 0.0
O86 O 0.54129 0.00958 0.52501 0.0
H87 H 0.50781 0.02856 0.55751 0.0
H88 H 0.51037 0.99122 0.52977 0.0
O89 O 0.52316 0.0456 0.51972 0.0
H90 H 0.5184 0.99845 0.45629 0.0
H91 H 0.48845 0.97938 0.55901 0.0
Cu92 Cu 0.05462 0.54946 0.5104 0.0
N93 N 0.06798 0.54536 0.52677 0.0
N94 N 0.07467 0.53431 0.55211 0.0
C95 C 0.06296 0.53579 0.54321 0.0
C96 C 0.08761 0.54334 0.54072 0.0
C97 C 0.08346 0.55017 0.52511 0.0
O98 O 0.03671 0.52857 0.50495 0.0
C99 C 0.06046 0.57491 0.53507 0.0
O100 O 0.07444 0.57605 0.53563 0.0
H101 H 0.0508 0.52977 0.54825 0.0
H102 H 0.09119 0.55808 0.51347 0.0
N103 N 0.06381 0.55968 0.48572 0.0
N104 N 0.0668 0.57338 0.45691 0.0
C105 C 0.0592 0.56848 0.47503 0.0
C106 C 0.07478 0.559 0.47404 0.0
C107 C 0.07671 0.5675 0.45631 0.0
C108 C 0.03205 0.52277 0.48705 0.0
O109 O 0.03732 0.53204 0.471 0.0
H110 H 0.05017 0.57095 0.48036 0.0
H111 H 0.08055 0.55233 0.47777 0.0
O112 O 0.0493 0.56344 0.52531 0.0
H113 H 0.09929 0.54505 0.54356 0.0
H114 H 0.08434 0.56869 0.44361 0.0
Cu115 Cu 0.52979 0.57001 0.51769 0.0
N116 N 0.54144 0.58991 0.50615 0.0
N117 N 0.56253 0.61172 0.49487 0.0
C118 C 0.55716 0.5994 0.50781 0.0
C119 C 0.54967 0.60996 0.48472 0.0
C120 C 0.53664 0.59648 0.49177 0.0
O121 O 0.54061 0.56922 0.54223 0.0
C122 C 0.52154 0.5402 0.49875 0.0
O123 O 0.51945 0.53438 0.51737 0.0
H124 H 0.56466 0.59675 0.51726 0.0
H125 H 0.52466 0.59137 0.48606 0.0
N126 N 0.51003 0.56643 0.5258 0.0
N127 N 0.48535 0.55323 0.53762 0.0
C128 C 0.49777 0.55224 0.53048 0.0
C129 C 0.50527 0.57686 0.53011 0.0
C130 C 0.49 0.56872 0.53747 0.0
C131 C 0.55333 0.56867 0.54315 0.0
O132 O 0.55958 0.567 0.52616 0.0
H133 H 0.49822 0.54146 0.52954 0.0
H134 H 0.51253 0.58949 0.52854 0.0
O135 O 0.52666 0.55485 0.4964 0.0
H136 H 0.54976 0.61754 0.47257 0.0
H137 H 0.48298 0.57382 0.54251 0.0
Cu138 Cu 0.72542 0.89969 0.34011 0.0
N139 N 0.73328 0.9183 0.32511 0.0
N140 N 0.73432 0.93983 0.31212 0.0
C141 C 0.72624 0.92707 0.32405 0.0
C142 C 0.74693 0.93906 0.30525 0.0
C143 C 0.74632 0.92577 0.31344 0.0
O144 O 0.71434 0.902 0.36395 0.0
C145 C 0.72289 0.8806 0.3078 0.0
O146 O 0.73805 0.8909 0.30859 0.0
H147 H 0.71532 0.92407 0.33181 0.0
H148 H 0.75483 0.92193 0.31114 0.0
N149 N 0.74168 0.89706 0.3508 0.0
N150 N 0.75326 0.88397 0.36271 0.0
C151 C 0.73974 0.88294 0.35588 0.0
C152 C 0.75697 0.90751 0.35461 0.0
C153 C 0.76417 0.89943 0.36211 0.0
C154 C 0.7231 0.91444 0.37447 0.0
O155 O 0.73772 0.92356 0.36845 0.0
H156 H 0.72855 0.8721 0.35458 0.0
H157 H 0.76252 0.92005 0.35194 0.0
O158 O 0.71381 0.882 0.3207 0.0
H159 H 0.75606 0.94764 0.2954 0.0
H160 H 0.77648 0.90446 0.36635 0.0
Cu161 Cu 0.20469 0.89241 0.36327 0.0
N162 N 0.18515 0.88161 0.3497 0.0
N163 N 0.16409 0.86132 0.33498 0.0
C164 C 0.17831 0.86639 0.34393 0.0
C165 C 0.16189 0.87387 0.33508 0.0
C166 C 0.17495 0.88641 0.34407 0.0
O167 O 0.20221 0.88035 0.38824 0.0
C168 C 0.21978 0.89901 0.32639 0.0
O169 O 0.20863 0.90252 0.32297 0.0
H170 H 0.18357 0.85909 0.34666 0.0
H171 H 0.17684 0.89817 0.34622 0.0
N172 N 0.21039 0.91312 0.37064 0.0
N173 N 0.22593 0.93836 0.37982 0.0
C174 C 0.22535 0.92506 0.3729 0.0
C175 C 0.20117 0.9191 0.37622 0.0
C176 C 0.21072 0.93464 0.38191 0.0
C177 C 0.19103 0.87897 0.3997 0.0
O178 O 0.18313 0.88595 0.39401 0.0
H179 H 0.23561 0.92382 0.37021 0.0
H180 H 0.18843 0.91259 0.37668 0.0
O181 O 0.22068 0.89394 0.34408 0.0
H182 H 0.15167 0.87402 0.32888 0.0
H183 H 0.20674 0.94254 0.38728 0.0
Cu184 Cu 0.21104 0.4115 0.36265 0.0
N185 N 0.20738 0.42371 0.34403 0.0
N186 N 0.19728 0.42871 0.31606 0.0
C187 C 0.1975 0.41754 0.32795 0.0
C188 C 0.20743 0.44253 0.32529 0.0
C189 C 0.21364 0.4394 0.34257 0.0
O190 O 0.19051 0.39301 0.36728 0.0
C191 C 0.24031 0.41979 0.34845 0.0
O192 O 0.24153 0.4335 0.35255 0.0
H193 H 0.19061 0.40499 0.32521 0.0
H194 H 0.22226 0.44793 0.35311 0.0
N195 N 0.21914 0.4219 0.38753 0.0
N196 N 0.23195 0.42702 0.41755 0.0
C197 C 0.22862 0.41908 0.3996 0.0
C198 C 0.21635 0.43209 0.39803 0.0
C199 C 0.22426 0.43527 0.41665 0.0
C200 C 0.18592 0.38615 0.38453 0.0
O201 O 0.19623 0.3898 0.3995 0.0
H202 H 0.23227 0.41065 0.39561 0.0
H203 H 0.20879 0.43653 0.39278 0.0
O204 O 0.22702 0.40739 0.35123 0.0
H205 H 0.21044 0.45411 0.31981 0.0
H206 H 0.22411 0.44285 0.42866 0.0
Cu207 Cu 0.19042 0.34856 0.87044 0.0
N208 N 0.19025 0.33579 0.84913 0.0
N209 N 0.1993 0.33016 0.82076 0.0
C210 C 0.20233 0.34067 0.83596 0.0
C211 C 0.18463 0.3181 0.82452 0.0
C212 C 0.17907 0.3216 0.84212 0.0
O213 O 0.21186 0.3581 0.88205 0.0
C214 C 0.16934 0.3553 0.85232 0.0
O215 O 0.16157 0.33988 0.85386 0.0
H216 H 0.21286 0.35213 0.83708 0.0
H217 H 0.16753 0.31454 0.84885 0.0
N218 N 0.17574 0.33735 0.89096 0.0
N219 N 0.15997 0.33364 0.91765 0.0
C220 C 0.17104 0.34422 0.90496 0.0
C221 C 0.1674 0.3218 0.89487 0.0
C222 C 0.15768 0.31948 0.91142 0.0
C223 C 0.21445 0.34926 0.89396 0.0
O224 O 0.20262 0.33534 0.89868 0.0
H225 H 0.17578 0.35682 0.90577 0.0
H226 H 0.1683 0.31281 0.88632 0.0
O227 O 0.18364 0.36272 0.8587 0.0
H228 H 0.17828 0.30764 0.81511 0.0
H229 H 0.14939 0.30824 0.91807 0.0
Cu230 Cu 0.6908 0.86801 0.84489 0.0
N231 N 0.67712 0.84746 0.83562 0.0
N232 N 0.66994 0.82318 0.82435 0.0
C233 C 0.68178 0.83687 0.83188 0.0
C234 C 0.65728 0.82524 0.82337 0.0
C235 C 0.66175 0.84024 0.83025 0.0
O236 O 0.70378 0.86596 0.86651 0.0
C237 C 0.691 0.88164 0.80841 0.0
O238 O 0.67602 0.87374 0.8135 0.0
H239 H 0.69372 0.83927 0.83461 0.0
H240 H 0.65439 0.84558 0.83067 0.0
N241 N 0.68056 0.8776 0.85757 0.0
N242 N 0.67851 0.89701 0.87263 0.0
C243 C 0.68831 0.89261 0.86419 0.0
C244 C 0.66526 0.8722 0.8621 0.0
C245 C 0.66396 0.88422 0.87129 0.0
C246 C 0.69552 0.85854 0.88212 0.0
O247 O 0.68025 0.85335 0.88155 0.0
H248 H 0.70092 0.90026 0.86249 0.0
H249 H 0.65575 0.86038 0.85918 0.0
O250 O 0.70102 0.88103 0.82053 0.0
H251 H 0.64573 0.81674 0.81748 0.0
H252 H 0.6532 0.88355 0.87681 0.0
Cu253 Cu 0.1952 0.88066 0.85998 0.0
N254 N 0.18214 0.8793 0.8381 0.0
N255 N 0.16832 0.86979 0.80894 0.0
C256 C 0.17673 0.86775 0.82391 0.0
C257 C 0.16846 0.88326 0.81401 0.0
C258 C 0.17702 0.88911 0.83198 0.0
O259 O 0.18551 0.8597 0.87202 0.0
C260 C 0.22231 0.90249 0.8423 0.0
O261 O 0.21347 0.90912 0.84204 0.0
H262 H 0.17945 0.85831 0.82428 0.0
H263 H 0.17964 0.89993 0.83968 0.0
N264 N 0.19743 0.89501 0.8806 0.0
N265 N 0.20746 0.90957 0.90908 0.0
C266 C 0.20851 0.89974 0.89542 0.0
C267 C 0.18903 0.90215 0.88486 0.0
C268 C 0.19521 0.91116 0.90242 0.0
C269 C 0.17374 0.85621 0.88362 0.0
O270 O 0.16954 0.86683 0.88697 0.0
H271 H 0.21718 0.89595 0.89604 0.0
H272 H 0.17886 0.90058 0.87624 0.0
O273 O 0.21638 0.88854 0.84929 0.0
H274 H 0.1629 0.8886 0.80533 0.0
H275 H 0.19071 0.91795 0.90998 0.0
Cu276 Cu 0.39128 0.22994 0.69304 0.0
N277 N 0.39965 0.2487 0.67821 0.0
N278 N 0.40001 0.2695 0.6637 0.0
C279 C 0.39238 0.25724 0.67655 0.0
C280 C 0.41261 0.26869 0.6569 0.0
C281 C 0.41243 0.25585 0.66602 0.0
O282 O 0.38057 0.23269 0.71684 0.0
C283 C 0.38794 0.211 0.66055 0.0
O284 O 0.40321 0.22085 0.66138 0.0
H285 H 0.38139 0.2542 0.68415 0.0
H286 H 0.42084 0.2519 0.66363 0.0
N287 N 0.40665 0.22576 0.7034 0.0
N288 N 0.41653 0.21046 0.71275 0.0
C289 C 0.40345 0.21106 0.7077 0.0
C290 C 0.42234 0.23496 0.70605 0.0
C291 C 0.42848 0.22552 0.71196 0.0
C292 C 0.38977 0.24493 0.7274 0.0
O293 O 0.40456 0.25335 0.72161 0.0
H294 H 0.3917 0.20092 0.70656 0.0
H295 H 0.4289 0.2475 0.70319 0.0
O296 O 0.37905 0.21271 0.67343 0.0
H297 H 0.42128 0.27675 0.64613 0.0
H298 H 0.44083 0.22933 0.71457 0.0
Cu299 Cu 0.8834 0.19764 0.69162 0.0
N300 N 0.89975 0.20042 0.67416 0.0
N301 N 0.91744 0.21165 0.64906 0.0
C302 C 0.90589 0.21191 0.66004 0.0
C303 C 0.91859 0.19941 0.65655 0.0
C304 C 0.90769 0.19253 0.67214 0.0
O305 O 0.88912 0.21911 0.69979 0.0
C306 C 0.86136 0.17226 0.66946 0.0
O307 O 0.8729 0.16913 0.6712 0.0
H308 H 0.9017 0.22014 0.65767 0.0
H309 H 0.90561 0.18241 0.68113 0.0
N310 N 0.88182 0.18629 0.71541 0.0
N311 N 0.87117 0.1733 0.74457 0.0
C312 C 0.86938 0.18067 0.72813 0.0
C313 C 0.89191 0.18233 0.72397 0.0
C314 C 0.88535 0.17429 0.74196 0.0
C315 C 0.90179 0.22595 0.7105 0.0
O316 O 0.90871 0.21786 0.71554 0.0
H317 H 0.85917 0.18195 0.72522 0.0
H318 H 0.90334 0.18535 0.71785 0.0
O319 O 0.86325 0.1851 0.67715 0.0
H320 H 0.92678 0.19576 0.65129 0.0
H321 H 0.89081 0.16987 0.7525 0.0
Cu322 Cu 0.88199 0.72452 0.68848 0.0
N323 N 0.87874 0.73841 0.67257 0.0
N324 N 0.86848 0.74582 0.64718 0.0
C325 C 0.86856 0.73366 0.6567 0.0
C326 C 0.87914 0.75883 0.65747 0.0
C327 C 0.88542 0.75419 0.67325 0.0
O328 O 0.86109 0.70605 0.69118 0.0
C329 C 0.91114 0.73336 0.67317 0.0
O330 O 0.9129 0.74671 0.68025 0.0
H331 H 0.86159 0.72146 0.65198 0.0
H332 H 0.89428 0.76177 0.6843 0.0
N333 N 0.89009 0.73285 0.71438 0.0
N334 N 0.90278 0.73593 0.74414 0.0
C335 C 0.89918 0.72889 0.72553 0.0
C336 C 0.88789 0.74287 0.72619 0.0
C337 C 0.89578 0.74484 0.7446 0.0
C338 C 0.85535 0.69891 0.70802 0.0
O339 O 0.8647 0.70202 0.72401 0.0
H340 H 0.90294 0.72085 0.72005 0.0
H341 H 0.88082 0.74809 0.72188 0.0
O342 O 0.89764 0.721 0.67475 0.0
H343 H 0.8821 0.77079 0.65395 0.0
H344 H 0.89593 0.7519 0.75751 0.0
Cu345 Cu 0.852 0.69083 0.17132 0.0
N346 N 0.8529 0.68106 0.14707 0.0
N347 N 0.86374 0.67695 0.11924 0.0
C348 C 0.86593 0.68644 0.13547 0.0
C349 C 0.84863 0.66513 0.12068 0.0
C350 C 0.84198 0.66767 0.13789 0.0
O351 O 0.87166 0.6965 0.18603 0.0
C352 C 0.83662 0.70436 0.15198 0.0
O353 O 0.82917 0.69002 0.14436 0.0
H354 H 0.87679 0.6972 0.13898 0.0
H355 H 0.83006 0.66027 0.14332 0.0
N356 N 0.83533 0.67739 0.18825 0.0
N357 N 0.8186 0.67071 0.21458 0.0
C358 C 0.82998 0.68261 0.20362 0.0
C359 C 0.82706 0.66157 0.18941 0.0
C360 C 0.81672 0.6574 0.2057 0.0
C361 C 0.8733 0.68461 0.1899 0.0
O362 O 0.86192 0.67062 0.18425 0.0
H363 H 0.83484 0.69499 0.20712 0.0
H364 H 0.8287 0.65362 0.17954 0.0
O365 O 0.84809 0.70806 0.16441 0.0
H366 H 0.84284 0.65517 0.11031 0.0
H367 H 0.80857 0.64553 0.21067 0.0
Cu368 Cu 0.36409 0.21079 0.19802 0.0
N369 N 0.34869 0.19018 0.19118 0.0
N370 N 0.33853 0.1647 0.18308 0.0
C371 C 0.35154 0.17815 0.18902 0.0
C372 C 0.32701 0.16846 0.18151 0.0
C373 C 0.33331 0.18416 0.18646 0.0
O374 O 0.37834 0.20886 0.21766 0.0
C375 C 0.36296 0.22371 0.16129 0.0
O376 O 0.34843 0.2174 0.16808 0.0
H377 H 0.36302 0.17935 0.19175 0.0
H378 H 0.32715 0.19076 0.18614 0.0
N379 N 0.3556 0.22174 0.21153 0.0
N380 N 0.35498 0.2422 0.2257 0.0
C381 C 0.3639 0.23718 0.21614 0.0
C382 C 0.3409 0.21675 0.2185 0.0
C383 C 0.34046 0.2294 0.22717 0.0
C384 C 0.37187 0.2032 0.23496 0.0
O385 O 0.35709 0.19949 0.23759 0.0
H386 H 0.37621 0.24462 0.21222 0.0
H387 H 0.33122 0.20478 0.21759 0.0
O388 O 0.37306 0.22234 0.17232 0.0
H389 H 0.31499 0.16058 0.17653 0.0
H390 H 0.33034 0.22915 0.23427 0.0
Cu391 Cu 0.85562 0.23248 0.19406 0.0
N392 N 0.84662 0.21279 0.1813 0.0
N393 N 0.83648 0.1938 0.15747 0.0
C394 C 0.84159 0.20911 0.1617 0.0
C395 C 0.83857 0.18769 0.17494 0.0
C396 C 0.84483 0.19943 0.18961 0.0
O397 O 0.84516 0.2444 0.18715 0.0
C398 C 0.88105 0.25251 0.16872 0.0
O399 O 0.86987 0.25218 0.15708 0.0
H400 H 0.84172 0.21749 0.15076 0.0
H401 H 0.848 0.19835 0.20521 0.0
N402 N 0.85601 0.23054 0.2225 0.0
N403 N 0.86509 0.23587 0.25475 0.0
C404 C 0.86823 0.23993 0.23481 0.0
C405 C 0.84473 0.2201 0.23503 0.0
C406 C 0.85027 0.22342 0.25499 0.0
C407 C 0.83149 0.24157 0.19257 0.0
O408 O 0.82705 0.25189 0.18833 0.0
H409 H 0.87915 0.24971 0.22923 0.0
H410 H 0.83335 0.21067 0.22999 0.0
O411 O 0.87731 0.24459 0.18523 0.0
H412 H 0.83561 0.17555 0.17701 0.0
H413 H 0.84401 0.21701 0.26856 0.0
In414 In 0.0348 0.67178 0.26155 0.0
O415 O 0.059 0.69422 0.25841 0.0
O416 O 0.04265 0.69456 0.27945 0.0
C417 C 0.03499 0.65579 0.22753 0.0
C418 C 0.03883 0.65565 0.2928 0.0
C419 C 0.00939 0.67518 0.25347 0.0
O420 O 0.045 0.67011 0.2306 0.0
O421 O 0.02496 0.64949 0.24167 0.0
O422 O 0.01073 0.6691 0.26993 0.0
O423 O 0.02067 0.67926 0.24111 0.0
C424 C 0.05614 0.70202 0.27144 0.0
O425 O 0.02569 0.65472 0.28904 0.0
O426 O 0.04975 0.66456 0.28083 0.0
In427 In 0.41705 0.43334 0.29057 0.0
O428 O 0.4233 0.45135 0.26472 0.0
O429 O 0.43628 0.43933 0.26674 0.0
C430 C 0.38913 0.43118 0.30025 0.0
C431 C 0.40784 0.403 0.28129 0.0
C432 C 0.43582 0.44869 0.32321 0.0
O433 O 0.39522 0.43526 0.28267 0.0
O434 O 0.39728 0.42858 0.31304 0.0
O435 O 0.42853 0.43388 0.32151 0.0
O436 O 0.43362 0.45576 0.30849 0.0
C437 C 0.43409 0.44932 0.25734 0.0
O438 O 0.42036 0.41173 0.2912 0.0
O439 O 0.40012 0.40959 0.27605 0.0
In440 In 0.67319 0.07291 0.27313 0.0
O441 O 0.666 0.07713 0.30494 0.0
O442 O 0.64864 0.05857 0.28646 0.0
C443 C 0.70178 0.09879 0.26835 0.0
C444 C 0.68139 0.05061 0.27806 0.0
C445 C 0.65744 0.07609 0.24117 0.0
O446 O 0.69236 0.09797 0.28219 0.0
O447 O 0.69682 0.08658 0.25742 0.0
O448 O 0.65791 0.0636 0.24425 0.0
O449 O 0.66488 0.08689 0.25419 0.0
C450 C 0.65188 0.06604 0.30323 0.0
O451 O 0.67695 0.05314 0.26097 0.0
O452 O 0.68153 0.05919 0.29262 0.0
In453 In 0.04374 0.41519 0.75987 0.0
O454 O 0.02998 0.42493 0.77708 0.0
O455 O 0.05166 0.42927 0.79017 0.0
C456 C 0.01797 0.38678 0.75068 0.0
C457 C 0.05049 0.43418 0.72637 0.0
C458 C 0.06646 0.40879 0.77286 0.0
O459 O 0.01968 0.3938 0.76757 0.0
O460 O 0.02928 0.39401 0.73837 0.0
O461 O 0.06967 0.42209 0.76589 0.0
O462 O 0.05189 0.39881 0.7732 0.0
C463 C 0.03987 0.43121 0.79148 0.0
O464 O 0.05733 0.42637 0.72984 0.0
O465 O 0.0404 0.43238 0.73964 0.0
In466 In 0.66626 0.65355 0.75687 0.0
O467 O 0.6583 0.63368 0.78082 0.0
O468 O 0.64791 0.64818 0.78161 0.0
C469 C 0.69568 0.65842 0.74987 0.0
C470 C 0.64731 0.63684 0.7249 0.0
C471 C 0.6731 0.68357 0.76369 0.0
O472 O 0.68821 0.65219 0.76617 0.0
O473 O 0.6884 0.66232 0.73729 0.0
O474 O 0.66687 0.67628 0.74718 0.0
O475 O 0.67637 0.67591 0.77643 0.0
C476 C 0.64868 0.63687 0.78949 0.0
O477 O 0.64609 0.6475 0.73415 0.0
O478 O 0.65801 0.63448 0.73182 0.0
In479 In 0.40875 0.03652 0.76853 0.0
O480 O 0.43317 0.04604 0.78282 0.0
O481 O 0.41366 0.03807 0.80305 0.0
C482 C 0.4105 0.06422 0.75891 0.0
C483 C 0.41793 0.02658 0.73523 0.0
C484 C 0.37982 0.01314 0.77995 0.0
O485 O 0.42055 0.06325 0.77007 0.0
O486 O 0.39944 0.05115 0.75247 0.0
O487 O 0.3905 0.01055 0.77364 0.0
O488 O 0.38367 0.02749 0.78035 0.0
C489 C 0.4284 0.04407 0.80114 0.0
O490 O 0.419 0.02258 0.75328 0.0
O491 O 0.41213 0.03552 0.73392 0.0
In492 In 0.70573 0.99464 0.5999 0.0
O493 O 0.73098 0.01555 0.59749 0.0
O494 O 0.71557 0.01748 0.61869 0.0
C495 C 0.70616 0.97889 0.56535 0.0
C496 C 0.70593 0.97669 0.63191 0.0
C497 C 0.68265 1.00171 0.59112 0.0
O498 O 0.71674 0.99279 0.56959 0.0
O499 O 0.69544 0.97276 0.57867 0.0
O500 O 0.6822 0.99397 0.60685 0.0
O501 O 0.69448 0.00559 0.57985 0.0
C502 C 0.72912 0.02395 0.61071 0.0
O503 O 0.69341 0.97569 0.62481 0.0
O504 O 0.7183 0.98662 0.62284 0.0
In505 In 0.08738 0.75581 0.59469 0.0
O506 O 0.09283 0.77308 0.56821 0.0
O507 O 0.10887 0.76477 0.57359 0.0
C508 C 0.05762 0.74867 0.60436 0.0
C509 C 0.08174 0.72647 0.58577 0.0
C510 C 0.10336 0.77425 0.62727 0.0
O511 O 0.06387 0.75485 0.5874 0.0
O512 O 0.06638 0.74622 0.61624 0.0
O513 O 0.10115 0.76047 0.62504 0.0
O514 O 0.09776 0.7787 0.61299 0.0
C515 C 0.10546 0.77347 0.56303 0.0
O516 O 0.09161 0.73502 0.59936 0.0
O517 O 0.07502 0.73284 0.57651 0.0
In518 In 0.32143 0.3868 0.61405 0.0
O519 O 0.32515 0.3666 0.60295 0.0
O520 O 0.33392 0.37665 0.63246 0.0
C521 C 0.30388 0.38953 0.58405 0.0
C522 C 0.30127 0.37723 0.64579 0.0
C523 C 0.3484 0.41429 0.60802 0.0
O524 O 0.3091 0.38007 0.58261 0.0
O525 O 0.30728 0.39725 0.60062 0.0
O526 O 0.33904 0.41257 0.6224 0.0
O527 O 0.34422 0.40219 0.59712 0.0
C528 C 0.33239 0.36662 0.61912 0.0
O529 O 0.31455 0.38974 0.64641 0.0
O530 O 0.29815 0.36962 0.6291 0.0
In531 In 0.70833 0.76891 0.09872 0.0
O532 O 0.69442 0.77542 0.12168 0.0
O533 O 0.71926 0.78683 0.12508 0.0
C534 C 0.68435 0.73945 0.08882 0.0
C535 C 0.71145 0.78702 0.06528 0.0
C536 C 0.73224 0.76335 0.10865 0.0
O537 O 0.6866 0.745 0.1068 0.0
O538 O 0.69397 0.74879 0.07582 0.0
O539 O 0.73424 0.77467 0.09738 0.0
O540 O 0.71826 0.75489 0.11484 0.0
C541 C 0.70642 0.78515 0.1318 0.0
O542 O 0.71991 0.78079 0.06818 0.0
O543 O 0.70154 0.78429 0.07933 0.0
In544 In 0.32641 0.9894 0.12029 0.0
O545 O 0.32792 0.97869 0.15107 0.0
O546 O 0.30528 0.97042 0.13786 0.0
C547 C 0.35637 0.99683 0.11031 0.0
C548 C 0.30761 0.97689 0.08671 0.0
C549 C 0.3277 0.01673 0.13078 0.0
O550 O 0.34495 0.98291 0.10957 0.0
O551 O 0.35269 0.00683 0.11618 0.0
O552 O 0.32842 0.01301 0.11239 0.0
O553 O 0.32634 0.00667 0.14393 0.0
C554 C 0.31323 0.96964 0.15264 0.0
O555 O 0.30776 0.98768 0.09746 0.0
O556 O 0.31694 0.97235 0.09286 0.0
In557 In 0.0736 0.38229 0.11003 0.0
O558 O 0.09518 0.40047 0.12791 0.0
O559 O 0.0838 0.37685 0.13848 0.0
C560 C 0.06732 0.4049 0.09776 0.0
C561 C 0.08815 0.37454 0.08071 0.0
C562 C 0.044 0.36012 0.12073 0.0
O563 O 0.07437 0.40572 0.11438 0.0
O564 O 0.06346 0.39267 0.0872 0.0
O565 O 0.05047 0.35938 0.10437 0.0
O566 O 0.05251 0.37197 0.13183 0.0
C567 C 0.09482 0.39084 0.14102 0.0
O568 O 0.08091 0.36565 0.09555 0.0
O569 O 0.08814 0.38741 0.08067 0.0
In570 In 0.37634 0.3318 0.94834 0.0
O571 O 0.36436 0.31368 0.97415 0.0
O572 O 0.38904 0.32356 0.97076 0.0
C573 C 0.35224 0.33764 0.94073 0.0
C574 C 0.40059 0.36101 0.95807 0.0
C575 C 0.37589 0.31542 0.91408 0.0
O576 O 0.353 0.33082 0.95677 0.0
O577 O 0.36359 0.34151 0.92855 0.0
O578 O 0.38573 0.32982 0.91681 0.0
O579 O 0.36636 0.30917 0.92872 0.0
C580 C 0.37682 0.31424 0.98061 0.0
O581 O 0.40198 0.35198 0.94544 0.0
O582 O 0.38702 0.35532 0.96583 0.0
In583 In 0.74172 0.08718 0.94275 0.0
O584 O 0.74264 0.06438 0.94682 0.0
O585 O 0.72555 0.06414 0.9263 0.0
C586 C 0.75911 0.10395 0.97554 0.0
C587 C 0.76151 0.10112 0.91087 0.0
C588 C 0.71388 0.08585 0.95038 0.0
O589 O 0.75181 0.08908 0.97508 0.0
O590 O 0.75777 0.11033 0.95943 0.0
O591 O 0.72107 0.09093 0.93356 0.0
O592 O 0.72093 0.08191 0.96326 0.0
C593 C 0.73141 0.05652 0.93441 0.0
O594 O 0.75043 0.1038 0.91501 0.0
O595 O 0.76253 0.09151 0.92275 0.0
In596 In 0.99918 0.70037 0.93718 0.0
O597 O 0.99305 0.70825 0.9673 0.0
O598 O 0.97448 0.68961 0.95028 0.0
C599 C 0.03018 0.72142 0.93241 0.0
C600 C 1.00006 0.67399 0.94647 0.0
C601 C 0.98668 0.70721 0.90447 0.0
O602 O 0.02197 0.72279 0.94635 0.0
O603 O 0.02276 0.70947 0.92103 0.0
O604 O 0.98628 0.69416 0.9062 0.0
O605 O 0.99354 0.71676 0.91905 0.0
C606 C 0.97847 0.69832 0.96601 0.0
O607 O 0.99538 0.67591 0.92916 0.0
O608 O 1.00437 0.68537 0.95881 0.0
In609 In 0.38912 0.11371 0.44601 0.0
O610 O 0.37445 0.12028 0.46704 0.0
O611 O 0.39826 0.12844 0.47563 0.0
C612 C 0.36335 0.08592 0.4349 0.0
C613 C 0.39487 0.13319 0.41312 0.0
C614 C 0.41108 0.10591 0.45812 0.0
O615 O 0.36421 0.09291 0.45155 0.0
O616 O 0.37546 0.09291 0.42382 0.0
O617 O 0.41486 0.11909 0.45018 0.0
O618 O 0.3964 0.09687 0.45998 0.0
C619 C 0.38535 0.12779 0.47995 0.0
O620 O 0.4001 0.12378 0.41431 0.0
O621 O 0.38717 0.1331 0.42864 0.0
In622 In 0.99758 0.33642 0.44643 0.0
O623 O 0.9859 0.32885 0.47785 0.0
O624 O 0.99189 0.31343 0.46245 0.0
C625 C 0.02744 0.34319 0.43754 0.0
C626 C 0.97545 0.31943 0.41759 0.0
C627 C 1.00058 0.36528 0.45241 0.0
O628 O 0.02134 0.33851 0.45498 0.0
O629 O 0.01861 0.34472 0.42471 0.0
O630 O 0.99526 0.35754 0.43599 0.0
O631 O 1.00452 0.35856 0.46576 0.0
C632 C 0.98601 0.31602 0.47818 0.0
O633 O 0.97225 0.32434 0.4338 0.0
O634 O 0.98974 0.32308 0.41597 0.0
In635 In 0.75738 0.71887 0.43303 0.0
O636 O 0.78082 0.73239 0.45016 0.0
O637 O 0.76418 0.70971 0.46126 0.0
C638 C 0.75721 0.74574 0.42443 0.0
C639 C 0.76741 0.70878 0.40068 0.0
C640 C 0.72682 0.70123 0.44432 0.0
O641 O 0.76512 0.74472 0.4391 0.0
O642 O 0.74936 0.73321 0.41423 0.0
O643 O 0.73164 0.70039 0.42668 0.0
O644 O 0.73744 0.71076 0.45639 0.0
C645 C 0.7775 0.72194 0.46358 0.0
O646 O 0.75993 0.69987 0.41543 0.0
O647 O 0.77005 0.72268 0.40252 0.0
C648 C 0.02082 0.49732 0.06024 0.0
C649 C 0.02789 0.50746 0.04352 0.0
C650 C 0.02617 0.48717 0.06661 0.0
C651 C 0.04783 0.46781 0.04744 0.0
H652 H 0.04838 0.4579 0.10496 0.0
C653 C 0.05461 0.41523 0.0737 0.0
C654 C 0.06374 0.41724 0.09136 0.0
C655 C 0.05096 0.42679 0.06795 0.0
C656 C 0.04846 0.46065 0.08884 0.0
H657 H 0.0465 0.5153 0.02084 0.0
H658 H 0.05604 0.49783 0.03223 0.0
H659 H 0.04144 0.4777 0.09528 0.0
H660 H 0.07641 0.43301 0.11667 0.0
H661 H 0.07031 0.45331 0.10644 0.0
H662 H 0.05514 0.45098 0.04102 0.0
C663 C 0.04613 0.49747 0.04014 0.0
C664 C 0.04429 0.47187 0.08328 0.0
C665 C 0.04073 0.50757 0.0337 0.0
C666 C 0.06928 0.4311 0.10303 0.0
C667 C 0.0657 0.44269 0.09723 0.0
C668 C 0.05205 0.45663 0.05301 0.0
C669 C 0.03876 0.48698 0.05648 0.0
C670 C 0.04383 0.47552 0.0625 0.0
C671 C 0.05643 0.44065 0.07968 0.0
C672 C 0.05232 0.45284 0.07377 0.0
H673 H 0.01087 0.4969 0.0681 0.0
H674 H 0.02009 0.47912 0.07909 0.0
H675 H 0.04741 0.47018 0.03128 0.0
H676 H 0.05013 0.40464 0.06445 0.0
H677 H 0.04361 0.42473 0.0545 0.0
C678 C 0.6 0.59972 0.0443 0.0
C679 C 0.584 0.5945 0.04001 0.0
C680 C 0.61035 0.61541 0.04992 0.0
C681 C 0.61616 0.65553 0.0463 0.0
H682 H 0.64564 0.6648 0.09138 0.0
C683 C 0.66886 0.71817 0.06286 0.0
C684 C 0.67192 0.72313 0.08349 0.0
C685 C 0.65757 0.70263 0.05781 0.0
C686 C 0.63742 0.66242 0.07884 0.0
H687 H 0.56643 0.60182 0.03814 0.0
H688 H 0.58455 0.62924 0.04774 0.0
H689 H 0.62708 0.63742 0.08217 0.0
H690 H 0.66542 0.71564 0.11498 0.0
H691 H 0.64582 0.68845 0.10618 0.0
H692 H 0.62659 0.68054 0.0429 0.0
C693 C 0.58906 0.62116 0.04675 0.0
C694 C 0.62688 0.64672 0.07343 0.0
C695 C 0.57866 0.60542 0.04135 0.0
C696 C 0.66334 0.7122 0.09895 0.0
C697 C 0.65217 0.6966 0.09391 0.0
C698 C 0.62684 0.67123 0.05156 0.0
C699 C 0.60503 0.62634 0.05119 0.0
C700 C 0.61612 0.64307 0.05709 0.0
C701 C 0.64918 0.69159 0.07327 0.0
C702 C 0.63761 0.67488 0.06789 0.0
H703 H 0.60454 0.59166 0.04343 0.0
H704 H 0.6226 0.61903 0.05303 0.0
H705 H 0.60812 0.65314 0.03355 0.0
H706 H 0.67527 0.72629 0.05059 0.0
H707 H 0.65567 0.69914 0.04179 0.0
C708 C 0.49248 0.06183 0.05884 0.0
C709 C 0.49915 0.05411 0.0481 0.0
C710 C 0.47727 0.05341 0.06677 0.0
C711 C 0.43921 0.0173 0.06047 0.0
H712 H 0.43121 0.0295 0.11385 0.0
C713 C 0.37627 0.9902 0.09606 0.0
C714 C 0.37271 1.00128 0.10452 0.0
C715 C 0.39176 0.99474 0.09018 0.0
C716 C 0.43322 0.02598 0.09889 0.0
H717 H 0.49497 0.0314 0.03725 0.0
H718 H 0.46808 0.01657 0.05115 0.0
H719 H 0.45825 0.04062 0.10183 0.0
H720 H 0.38257 0.02575 0.11353 0.0
H721 H 0.40942 0.03362 0.10334 0.0
H722 H 0.41405 1.00292 0.05741 0.0
C723 C 0.47478 0.02921 0.05336 0.0
C724 C 0.44872 0.03234 0.09201 0.0
C725 C 0.49017 0.03768 0.04549 0.0
C726 C 0.38493 0.01691 0.10713 0.0
C727 C 0.40036 0.0214 0.1014 0.0
C728 C 0.42363 0.0109 0.06739 0.0
C729 C 0.46822 0.03702 0.06418 0.0
C730 C 0.45189 0.02843 0.07249 0.0
C731 C 0.40398 0.0104 0.09285 0.0
C732 C 0.42046 0.01553 0.08645 0.0
H733 H 0.49901 0.07447 0.06114 0.0
H734 H 0.47249 0.05984 0.07468 0.0
H735 H 0.44126 0.01412 0.04532 0.0
H736 H 0.36708 0.97807 0.09384 0.0
H737 H 0.39419 0.98598 0.08372 0.0
C738 C 0.48482 0.0423 0.51195 0.0
C739 C 0.50136 0.04987 0.51054 0.0
C740 C 0.47667 0.05015 0.50694 0.0
C741 C 0.47956 0.08872 0.49786 0.0
H742 H 0.44174 0.06297 0.46558 0.0
C743 C 0.43912 0.11152 0.46279 0.0
C744 C 0.42275 0.10117 0.4645 0.0
C745 C 0.44993 0.10665 0.4684 0.0
C746 C 0.45218 0.07031 0.47472 0.0
H747 H 0.52242 0.07199 0.5038 0.0
H748 H 0.50802 0.08589 0.49474 0.0
H749 H 0.45858 0.05242 0.47565 0.0
H750 H 0.40496 0.07771 0.47382 0.0
H751 H 0.42366 0.06927 0.48352 0.0
H752 H 0.47294 0.10663 0.49683 0.0
C753 C 0.50142 0.07379 0.49983 0.0
C754 C 0.46187 0.06426 0.48052 0.0
C755 C 0.50967 0.06586 0.50503 0.0
C756 C 0.41747 0.08596 0.47218 0.0
C757 C 0.42821 0.08109 0.47765 0.0
C758 C 0.46981 0.09484 0.49197 0.0
C759 C 0.48476 0.06582 0.50014 0.0
C760 C 0.47549 0.0732 0.49258 0.0
C761 C 0.44458 0.09128 0.47565 0.0
C762 C 0.4558 0.08555 0.4807 0.0
H763 H 0.47805 0.03006 0.51653 0.0
H764 H 0.46391 0.04377 0.50802 0.0
H765 H 0.48996 0.09593 0.50712 0.0
H766 H 0.44357 0.12333 0.45697 0.0
H767 H 0.46244 0.11477 0.46659 0.0
C768 C 0.01904 0.49886 0.46435 0.0
C769 C 0.02384 0.50544 0.48408 0.0
C770 C 0.014 0.48294 0.46081 0.0
C771 C 1.00222 0.4447 0.48691 0.0
H772 H 0.01903 0.43639 0.43756 0.0
C773 C 0.00614 0.38813 0.47524 0.0
C774 C 1.00194 0.38086 0.45582 0.0
C775 C 0.00732 0.40281 0.4785 0.0
C776 C 0.01408 0.43846 0.45128 0.0
H777 H 0.02626 0.50018 0.51581 0.0
H778 H 0.01774 0.47259 0.50962 0.0
H779 H 0.02294 0.46262 0.44363 0.0
H780 H 0.99567 0.38325 0.42459 0.0
H781 H 0.99786 0.40895 0.43023 0.0
H782 H 0.99378 0.42055 0.49476 0.0
C783 C 0.01767 0.47962 0.49686 0.0
C784 C 0.01626 0.4535 0.45475 0.0
C785 C 0.0226 0.49551 0.50042 0.0
C786 C 0.99896 0.38857 0.43972 0.0
C787 C 1.00027 0.40331 0.44293 0.0
C788 C 1.00014 0.42966 0.48349 0.0
C789 C 0.01373 0.47323 0.4769 0.0
C790 C 0.01044 0.45688 0.47267 0.0
C791 C 1.00445 0.41059 0.46236 0.0
C792 C 0.00614 0.4264 0.4657 0.0
H793 H 0.01974 0.50613 0.45144 0.0
H794 H 0.01069 0.47835 0.44534 0.0
H795 H 0.99737 0.44677 0.50072 0.0
H796 H 0.0085 0.38247 0.48795 0.0
H797 H 0.01074 0.40819 0.49358 0.0
C798 C 0.59016 0.62792 0.50643 0.0
C799 C 0.57884 0.62275 0.49061 0.0
C800 C 0.60619 0.63751 0.50209 0.0
C801 C 0.63403 0.66233 0.46098 0.0
H802 H 0.66355 0.65424 0.49118 0.0
C803 C 0.69827 0.68472 0.43501 0.0
C804 C 0.71001 0.69225 0.45013 0.0
C805 C 0.68231 0.67678 0.44038 0.0
C806 C 0.65544 0.6567 0.48275 0.0
H807 H 0.57537 0.62364 0.45789 0.0
H808 H 0.60332 0.63999 0.45013 0.0
H809 H 0.63558 0.63973 0.49976 0.0
H810 H 0.71432 0.69719 0.48273 0.0
H811 H 0.68638 0.683 0.49216 0.0
H812 H 0.65397 0.67893 0.44352 0.0
C813 C 0.59987 0.63705 0.46601 0.0
C814 C 0.63941 0.64847 0.48772 0.0
C815 C 0.58382 0.62765 0.47042 0.0
C816 C 0.70551 0.69148 0.47076 0.0
C817 C 0.68956 0.68334 0.47616 0.0
C818 C 0.65004 0.6704 0.45584 0.0
C819 C 0.6113 0.64195 0.48175 0.0
C820 C 0.62847 0.65114 0.47688 0.0
C821 C 0.67781 0.67603 0.461 0.0
C822 C 0.66088 0.66764 0.46665 0.0
H823 H 0.58659 0.62444 0.52216 0.0
H824 H 0.61458 0.64133 0.51469 0.0
H825 H 0.62605 0.66494 0.45254 0.0
H826 H 0.7014 0.68515 0.41898 0.0
H827 H 0.67348 0.67112 0.42842 0.0
C828 C 0.98684 0.5451 0.98233 0.0
C829 C 0.98716 0.54194 1.00322 0.0
C830 C 0.98955 0.55987 0.97601 0.0
C831 C 0.98807 0.59463 0.99563 0.0
H832 H 0.01024 0.61393 0.94519 0.0
C833 C 1.00366 0.6574 0.97258 0.0
C834 C 1.00005 0.6594 0.95229 0.0
C835 C 1.00302 0.64341 0.97853 0.0
C836 C 1.00394 0.60861 0.95924 0.0
H837 H 0.98992 0.55119 0.03406 0.0
H838 H 0.99535 0.57729 0.02318 0.0
H839 H 0.00789 0.58906 0.95645 0.0
H840 H 0.99328 0.64848 0.92219 0.0
H841 H 0.99225 0.62396 0.93261 0.0
H842 H 0.98427 0.61426 0.99851 0.0
C843 C 0.99289 0.56843 0.01154 0.0
C844 C 1.00256 0.59436 0.96569 0.0
C845 C 0.98998 0.55358 0.01781 0.0
C846 C 0.99611 0.64725 0.93794 0.0
C847 C 0.99559 0.63327 0.94387 0.0
C848 C 0.98958 0.60892 0.98928 0.0
C849 C 0.99253 0.57171 0.99056 0.0
C850 C 0.99454 0.58715 0.98394 0.0
C851 C 0.99886 0.63115 0.9643 0.0
C852 C 0.99749 0.61605 0.971 0.0
H853 H 0.98425 0.53605 0.97091 0.0
H854 H 0.98885 0.56183 0.95978 0.0
H855 H 0.98151 0.5893 0.00951 0.0
H856 H 0.00678 0.66657 0.98398 0.0
H857 H 1.00578 0.64219 0.99432 0.0
C858 C 0.51777 0.49144 0.99037 0.0
C859 C 0.51512 0.50139 1.00332 0.0
C860 C 0.50552 0.47624 0.98558 0.0
C861 C 0.46631 0.44486 1.00353 0.0
H862 H 0.46192 0.42904 0.94785 0.0
C863 C 0.41143 0.38676 0.97697 0.0
C864 C 0.41378 0.37698 0.96334 0.0
C865 C 0.42383 0.40184 0.9819 0.0
C866 C 0.46307 0.43317 0.96355 0.0
H867 H 0.4974 0.50304 0.02144 0.0
H868 H 0.47607 0.47662 0.01302 0.0
H869 H 0.48341 0.45534 0.95637 0.0
H870 H 0.43105 0.37536 0.94427 0.0
H871 H 0.45273 0.40155 0.95304 0.0
H872 H 0.44602 0.42269 0.01075 0.0
C873 C 0.48767 0.4805 0.0067 0.0
C874 C 0.47541 0.44829 0.96844 0.0
C875 C 0.4999 0.49571 0.01143 0.0
C876 C 0.42883 0.38262 0.95477 0.0
C877 C 0.44125 0.39769 0.95972 0.0
C878 C 0.45399 0.42973 0.99866 0.0
C879 C 0.49029 0.47055 0.99367 0.0
C880 C 0.4772 0.45437 0.98849 0.0
C881 C 0.43893 0.40754 0.97335 0.0
C882 C 0.45216 0.42366 0.97858 0.0
H883 H 0.52933 0.49538 0.98386 0.0
H884 H 0.50804 0.46886 0.9757 0.0
H885 H 0.46744 0.44903 0.01921 0.0
H886 H 0.39996 0.3828 0.98378 0.0
H887 H 0.4215 0.40913 0.9922 0.0
C888 C 0.58189 0.05823 1.00303 0.0
C889 C 0.57329 0.06094 0.9878 0.0
C890 C 0.59649 0.05954 0.99848 0.0
C891 C 0.62298 0.06242 0.95564 0.0
H892 H 0.65587 0.08513 0.99623 0.0
C893 C 0.68937 0.08603 0.93894 0.0
C894 C 0.69804 0.08372 0.95446 0.0
C895 C 0.67398 0.08299 0.94268 0.0
C896 C 0.6468 0.07864 0.98481 0.0
H897 H 0.57292 0.06629 0.95554 0.0
H898 H 0.59838 0.06872 0.94769 0.0
H899 H 0.62897 0.07907 1.00326 0.0
H900 H 0.69747 0.07662 0.98612 0.0
H901 H 0.67075 0.07135 0.99263 0.0
H902 H 0.64096 0.06218 0.9371 0.0
C903 C 0.59383 0.06548 0.96313 0.0
C904 C 0.63134 0.0751 0.98887 0.0
C905 C 0.57922 0.06412 0.96766 0.0
C906 C 0.69112 0.07857 0.97386 0.0
C907 C 0.67581 0.07561 0.97762 0.0
C908 C 0.63849 0.06601 0.95154 0.0
C909 C 0.60286 0.06364 0.97861 0.0
C910 C 0.61921 0.06691 0.97437 0.0
C911 C 0.667 0.07767 0.96206 0.0
C912 C 0.65057 0.07414 0.96611 0.0
H913 H 0.57765 0.05566 0.01869 0.0
H914 H 0.60295 0.05769 0.01068 0.0
H915 H 0.61392 0.05596 0.9442 0.0
H916 H 0.69438 0.08997 0.92383 0.0
H917 H 0.66757 0.08486 0.93044 0.0
C918 C 0.57124 0.01308 0.53122 0.0
C919 C 0.56749 0.02416 0.53923 0.0
C920 C 0.58494 0.01309 0.53722 0.0
C921 C 0.61395 0.02424 0.57882 0.0
H922 H 0.63692 0.01534 0.53743 0.0
C923 C 0.65704 1.00114 0.59855 0.0
C924 C 0.67052 0.00618 0.58627 0.0
C925 C 0.6456 0.0053 0.59359 0.0
C926 C 0.63083 0.01802 0.54923 0.0
H927 H 0.57542 0.04411 0.55984 0.0
H928 H 0.59966 0.04407 0.5706 0.0
H929 H 0.61572 0.02004 0.52709 0.0
H930 H 0.68273 0.01992 0.55948 0.0
H931 H 0.663 0.0273 0.55101 0.0
H932 H 0.62912 0.02213 0.60099 0.0
C933 C 0.5918 0.03536 0.55958 0.0
C934 C 0.61853 0.02059 0.54329 0.0
C935 C 0.57801 0.03546 0.55334 0.0
C936 C 0.67242 0.0157 0.56916 0.0
C937 C 0.66104 0.01989 0.56426 0.0
C938 C 0.62629 0.02163 0.58481 0.0
C939 C 0.5954 0.02414 0.55153 0.0
C940 C 0.60972 0.02344 0.55799 0.0
C941 C 0.64737 0.01463 0.57625 0.0
C942 C 0.63477 0.01828 0.57009 0.0
H943 H 0.56348 0.00422 0.52027 0.0
H944 H 0.58715 0.00413 0.53092 0.0
H945 H 0.60735 0.02632 0.59055 0.0
H946 H 0.65524 0.99382 0.61186 0.0
H947 H 0.63516 1.00087 0.60307 0.0
C948 C 0.0697 0.5982 0.55818 0.0
C949 C 0.05866 0.58792 0.54367 0.0
C950 C 0.06967 0.61183 0.56437 0.0
C951 C 0.0593 0.64049 0.54515 0.0
H952 H 0.06875 0.65662 0.60095 0.0
C953 C 0.06586 0.70072 0.56741 0.0
C954 C 0.07794 0.7101 0.58141 0.0
C955 C 0.06194 0.68513 0.56359 0.0
C956 C 0.06626 0.65237 0.58525 0.0
H957 H 0.03854 0.58355 0.52482 0.0
H958 H 0.03853 0.60756 0.5356 0.0
H959 H 0.06381 0.63011 0.59358 0.0
H960 H 0.09546 0.71052 0.60231 0.0
H961 H 0.0889 0.68343 0.59535 0.0
H962 H 0.06221 0.66287 0.53666 0.0
C963 C 0.04723 0.60502 0.54213 0.0
C964 C 0.06334 0.63713 0.58106 0.0
C965 C 0.04714 0.59123 0.53609 0.0
C966 C 0.08607 0.70358 0.59147 0.0
C967 C 0.08221 0.688 0.58759 0.0
C968 C 0.0623 0.65576 0.54932 0.0
C969 C 0.05869 0.61562 0.55606 0.0
C970 C 0.06005 0.6311 0.56092 0.0
C971 C 0.07006 0.67855 0.57363 0.0
C972 C 0.06604 0.66198 0.56938 0.0
H973 H 0.07871 0.59596 0.56434 0.0
H974 H 0.07874 0.61979 0.57498 0.0
H975 H 0.05703 0.63628 0.52942 0.0
H976 H 0.0593 0.70538 0.55951 0.0
H977 H 0.0524 0.67817 0.55296 0.0
C978 C 0.46528 0.52503 0.53755 0.0
C979 C 0.47079 0.54033 0.54519 0.0
C980 C 0.45204 0.51223 0.54605 0.0
C981 C 0.41645 0.5004 0.57692 0.0
H982 H 0.41974 0.46302 0.58615 0.0
C983 C 0.3664 0.44327 0.61403 0.0
C984 C 0.36292 0.42931 0.60363 0.0
C985 C 0.37988 0.45752 0.60894 0.0
C986 C 0.4186 0.47334 0.58359 0.0
H987 H 0.46636 0.55424 0.5673 0.0
H988 H 0.44304 0.53175 0.58215 0.0
H989 H 0.44234 0.48672 0.57287 0.0
H990 H 0.37084 0.41925 0.57996 0.0
H991 H 0.39419 0.44395 0.57114 0.0
H992 H 0.39256 0.48681 0.58739 0.0
C993 C 0.44904 0.52974 0.56953 0.0
C994 C 0.43154 0.48691 0.57595 0.0
C995 C 0.46235 0.54261 0.56101 0.0
C996 C 0.37322 0.4298 0.5883 0.0
C997 C 0.38667 0.44395 0.58332 0.0
C998 C 0.40345 0.48676 0.58458 0.0
C999 C 0.44395 0.51438 0.5624 0.0
C1000 C 0.43051 0.50048 0.5721 0.0
C1001 C 0.39014 0.45799 0.59352 0.0
C1002 C 0.40431 0.47299 0.58757 0.0
H1003 H 0.47127 0.52292 0.52506 0.0
H1004 H 0.44817 0.50058 0.53984 0.0
H1005 H 0.41531 0.51067 0.57405 0.0
H1006 H 0.35863 0.44322 0.62589 0.0
H1007 H 0.38231 0.46814 0.61713 0.0
C1008 C 0.76608 0.87281 0.38446 0.0
C1009 C 0.7553 0.871 0.36889 0.0
C1010 C 0.76705 0.85979 0.39141 0.0
C1011 C 0.74321 0.81643 0.3932 0.0
H1012 H 0.78302 0.81816 0.40474 0.0
C1013 C 0.74761 0.76059 0.40345 0.0
C1014 C 0.75728 0.76044 0.41936 0.0
C1015 C 0.74772 0.77448 0.39842 0.0
C1016 C 0.77181 0.81756 0.40182 0.0
H1017 H 0.73783 0.85441 0.34749 0.0
H1018 H 0.73956 0.83183 0.35943 0.0
H1019 H 0.78294 0.84195 0.39357 0.0
H1020 H 0.77466 0.77467 0.44247 0.0
H1021 H 0.77483 0.79902 0.43366 0.0
H1022 H 0.73207 0.79206 0.40118 0.0
C1023 C 0.74694 0.84315 0.36674 0.0
C1024 C 0.77177 0.83117 0.39543 0.0
C1025 C 0.74596 0.85609 0.35988 0.0
C1026 C 0.76708 0.77446 0.43014 0.0
C1027 C 0.76724 0.7884 0.42503 0.0
C1028 C 0.74326 0.80286 0.39952 0.0
C1029 C 0.75727 0.84477 0.38284 0.0
C1030 C 0.75747 0.83068 0.39076 0.0
C1031 C 0.75752 0.78853 0.40915 0.0
C1032 C 0.75756 0.80322 0.40363 0.0
H1033 H 0.77337 0.88416 0.39171 0.0
H1034 H 0.77509 0.86139 0.40388 0.0
H1035 H 0.73197 0.81574 0.39019 0.0
H1036 H 0.73997 0.74997 0.39484 0.0
H1037 H 0.74026 0.77426 0.38592 0.0
C1038 C 0.23935 0.96282 0.4006 0.0
C1039 C 0.23984 0.95313 0.38498 0.0
C1040 C 0.25287 0.97701 0.40586 0.0
C1041 C 0.29125 0.00755 0.38593 0.0
H1042 H 0.30173 0.01817 0.44342 0.0
C1043 C 0.34974 0.06237 0.41162 0.0
C1044 C 0.34936 0.07072 0.42898 0.0
C1045 C 0.33657 0.04793 0.40617 0.0
C1046 C 0.29889 0.01553 0.42728 0.0
H1047 H 0.2549 0.95093 0.36244 0.0
H1048 H 0.27852 0.97577 0.37158 0.0
H1049 H 0.27843 0.99333 0.43401 0.0
H1050 H 0.33481 0.07056 0.45411 0.0
H1051 H 0.31172 0.04565 0.44436 0.0
H1052 H 0.3115 0.02984 0.37914 0.0
C1053 C 0.26765 0.97235 0.37976 0.0
C1054 C 0.28553 1.00124 0.4219 0.0
C1055 C 0.25416 0.95805 0.37464 0.0
C1056 C 0.3355 0.06437 0.44071 0.0
C1057 C 0.32229 0.05001 0.43517 0.0
C1058 C 0.30454 0.02192 0.3913 0.0
C1059 C 0.26718 0.98196 0.3955 0.0
C1060 C 0.28153 0.99708 0.40116 0.0
C1061 C 0.32264 0.04154 0.41786 0.0
C1062 C 0.30854 0.02614 0.41207 0.0
H1063 H 0.22858 0.95932 0.40901 0.0
H1064 H 0.25207 0.98421 0.41793 0.0
H1065 H 0.28838 0.00477 0.36981 0.0
H1066 H 0.36029 0.06692 0.40233 0.0
H1067 H 0.33742 0.04169 0.39294 0.0
C1068 C 0.16347 0.37108 0.4088 0.0
C1069 C 0.16877 0.37693 0.38895 0.0
C1070 C 0.1476 0.36495 0.41405 0.0
C1071 C 0.10739 0.35142 0.39257 0.0
H1072 H 0.1009 0.36663 0.44462 0.0
C1073 C 0.04925 0.35037 0.41228 0.0
C1074 C 0.04342 0.34612 0.43234 0.0
C1075 C 0.06418 0.35274 0.4072 0.0
C1076 C 0.10245 0.36209 0.43017 0.0
H1077 H 0.16129 0.37998 0.3587 0.0
H1078 H 0.13374 0.36946 0.36789 0.0
H1079 H 0.12728 0.37221 0.43524 0.0
H1080 H 0.04866 0.34102 0.46282 0.0
H1081 H 0.07474 0.34517 0.45396 0.0
H1082 H 0.08256 0.34158 0.38736 0.0
C1083 C 0.14179 0.3695 0.3794 0.0
C1084 C 0.1176 0.36525 0.4248 0.0
C1085 C 0.15764 0.37559 0.37414 0.0
C1086 C 0.05286 0.34435 0.44724 0.0
C1087 C 0.06781 0.34678 0.44218 0.0
C1088 C 0.09224 0.34829 0.39793 0.0
C1089 C 0.13666 0.36454 0.39959 0.0
C1090 C 0.1203 0.36008 0.40585 0.0
C1091 C 0.07364 0.35097 0.42208 0.0
C1092 C 0.08962 0.35371 0.41671 0.0
H1093 H 0.17169 0.37182 0.42056 0.0
H1094 H 0.14399 0.36092 0.42961 0.0
H1095 H 0.109 0.34708 0.37799 0.0
H1096 H 0.04225 0.35182 0.40045 0.0
H1097 H 0.06839 0.35618 0.39166 0.0
C1098 C 0.16847 0.37952 0.83997 0.0
C1099 C 0.16096 0.36321 0.84363 0.0
C1100 C 0.15999 0.38627 0.83129 0.0
C1101 C 0.12344 0.37481 0.80081 0.0
H1102 H 0.12619 0.41318 0.82173 0.0
C1103 C 0.0744 0.38962 0.78563 0.0
C1104 C 0.07869 0.4051 0.78015 0.0
C1105 C 0.08578 0.38594 0.79236 0.0
C1106 C 0.12543 0.40254 0.81555 0.0
H1107 H 0.13848 0.34138 0.84155 0.0
H1108 H 0.12398 0.353 0.82695 0.0
H1109 H 0.14405 0.40445 0.83522 0.0
H1110 H 0.09834 0.42896 0.77776 0.0
H1111 H 0.1183 0.42252 0.78973 0.0
H1112 H 0.10463 0.37261 0.78158 0.0
C1113 C 0.13644 0.36062 0.8302 0.0
C1114 C 0.13569 0.39757 0.82325 0.0
C1115 C 0.14481 0.35394 0.83876 0.0
C1116 C 0.09466 0.4169 0.78181 0.0
C1117 C 0.10608 0.41323 0.78876 0.0
C1118 C 0.11319 0.3797 0.79326 0.0
C1119 C 0.14388 0.37681 0.82606 0.0
C1120 C 0.13453 0.3834 0.81633 0.0
C1121 C 0.10178 0.39766 0.79395 0.0
C1122 C 0.11378 0.39343 0.80084 0.0
H1123 H 0.18088 0.387 0.84361 0.0
H1124 H 0.16608 0.39881 0.82833 0.0
H1125 H 0.12246 0.36406 0.7947 0.0
H1126 H 0.0622 0.38026 0.78462 0.0
H1127 H 0.08201 0.37387 0.79652 0.0
C1128 C 0.6853 0.81104 0.81162 0.0
C1129 C 0.67085 0.80953 0.8179 0.0
C1130 C 0.68619 0.79786 0.80525 0.0
C1131 C 0.68654 0.76701 0.80385 0.0
H1132 H 0.65278 0.73489 0.77059 0.0
C1133 C 0.68057 0.7061 0.78795 0.0
C1134 C 0.67505 0.69922 0.76852 0.0
C1135 C 0.68096 0.72013 0.79328 0.0
C1136 C 0.6624 0.74382 0.77969 0.0
H1137 H 0.64603 0.79286 0.82266 0.0
H1138 H 0.64757 0.76986 0.81165 0.0
H1139 H 0.65154 0.75813 0.78112 0.0
H1140 H 0.66611 0.70191 0.73919 0.0
H1141 H 0.66703 0.72654 0.74835 0.0
H1142 H 0.69752 0.7528 0.80215 0.0
C1143 C 0.65819 0.7813 0.81132 0.0
C1144 C 0.66157 0.75705 0.78597 0.0
C1145 C 0.6573 0.79449 0.81766 0.0
C1146 C 0.67038 0.70691 0.7543 0.0
C1147 C 0.67079 0.72095 0.75962 0.0
C1148 C 0.68736 0.75377 0.79757 0.0
C1149 C 0.67265 0.78282 0.80502 0.0
C1150 C 0.6736 0.76879 0.79819 0.0
C1151 C 0.67585 0.72762 0.77929 0.0
C1152 C 0.67528 0.74198 0.78546 0.0
H1153 H 0.69592 0.82245 0.81123 0.0
H1154 H 0.69746 0.79951 0.80018 0.0
H1155 H 0.69594 0.77574 0.81341 0.0
H1156 H 0.68418 0.70042 0.79928 0.0
H1157 H 0.68477 0.72483 0.80863 0.0
C1158 C 0.2455 0.9281 0.83254 0.0
C1159 C 0.2391 0.91192 0.83622 0.0
C1160 C 0.26138 0.93755 0.82769 0.0
C1161 C 0.29544 0.93809 0.80512 0.0
H1162 H 0.31831 0.97803 0.83401 0.0
C1163 C 0.36073 0.98469 0.78714 0.0
C1164 C 0.36421 1.00046 0.78681 0.0
C1165 C 0.34607 0.97278 0.79417 0.0
C1166 C 0.31208 0.96699 0.82568 0.0
H1167 H 0.24435 0.89287 0.83723 0.0
H1168 H 0.27239 0.90956 0.82824 0.0
H1169 H 0.29165 0.95886 0.84461 0.0
H1170 H 0.35502 0.01609 0.79324 0.0
H1171 H 0.32944 0.99539 0.80515 0.0
H1172 H 0.31572 0.94648 0.7857 0.0
C1173 C 0.26494 0.91482 0.82935 0.0
C1174 C 0.29685 0.95598 0.83184 0.0
C1175 C 0.24895 0.90531 0.83452 0.0
C1176 C 0.35272 0.00406 0.79342 0.0
C1177 C 0.3381 0.9922 0.8004 0.0
C1178 C 0.31072 0.94919 0.79884 0.0
C1179 C 0.27131 0.93108 0.82619 0.0
C1180 C 0.28822 0.94159 0.82133 0.0
C1181 C 0.33462 0.97642 0.80102 0.0
C1182 C 0.31905 0.96394 0.80875 0.0
H1183 H 0.2383 0.93363 0.83368 0.0
H1184 H 0.26589 0.94998 0.825 0.0
H1185 H 0.289 0.92711 0.7967 0.0
H1186 H 0.36938 0.98156 0.78216 0.0
H1187 H 0.34381 0.96078 0.79456 0.0
C1188 C 0.72341 0.95642 0.32352 0.0
C1189 C 0.73028 0.95181 0.30807 0.0
C1190 C 0.71898 0.96767 0.31956 0.0
C1191 C 0.70616 0.98393 0.27877 0.0
H1192 H 0.71819 0.01888 0.3164 0.0
C1193 C 0.69019 0.03256 0.26367 0.0
C1194 C 0.6866 0.03894 0.28076 0.0
C1195 C 0.69594 0.02215 0.26635 0.0
C1196 C 0.71451 0.00907 0.30588 0.0
H1197 H 0.73793 0.95528 0.2764 0.0
H1198 H 0.72988 0.9749 0.26928 0.0
H1199 H 0.7277 1.00047 0.3223 0.0
H1200 H 0.6857 0.03912 0.314 0.0
H1201 H 0.6951 0.02053 0.31873 0.0
H1202 H 0.6925 0.9921 0.26273 0.0
C1203 C 0.72804 0.96983 0.28449 0.0
C1204 C 0.72007 0.9986 0.30921 0.0
C1205 C 0.73274 0.95874 0.28857 0.0
C1206 C 0.68851 0.03448 0.30055 0.0
C1207 C 0.69403 0.02391 0.30324 0.0
C1208 C 0.7004 0.99427 0.27558 0.0
C1209 C 0.72113 0.97438 0.29997 0.0
C1210 C 0.71588 0.9859 0.29576 0.0
C1211 C 0.69802 0.01776 0.28619 0.0
C1212 C 0.70442 0.00692 0.28919 0.0
H1213 H 0.72153 0.95135 0.33873 0.0
H1214 H 0.71359 0.97091 0.33172 0.0
H1215 H 0.70264 0.97411 0.2683 0.0
H1216 H 0.68892 0.03589 0.24822 0.0
H1217 H 0.69906 0.01783 0.25287 0.0
C1218 C 0.13703 0.83932 0.32847 0.0
C1219 C 0.15346 0.84568 0.32733 0.0
C1220 C 0.12673 0.82395 0.32165 0.0
C1221 C 0.12558 0.78624 0.30877 0.0
H1222 H 0.08531 0.77582 0.28411 0.0
C1223 C 0.08343 0.72561 0.27092 0.0
C1224 C 0.06754 0.71857 0.27692 0.0
C1225 C 0.09416 0.74122 0.27643 0.0
C1226 C 0.09649 0.77855 0.29106 0.0
H1227 H 0.17196 0.84111 0.31755 0.0
H1228 H 0.15409 0.81451 0.30509 0.0
H1229 H 0.10358 0.80291 0.29448 0.0
H1230 H 0.0504 0.7224 0.29319 0.0
H1231 H 0.06907 0.74969 0.3025 0.0
H1232 H 0.11848 0.76184 0.30491 0.0
C1233 C 0.14908 0.82115 0.31184 0.0
C1234 C 0.10696 0.79408 0.29711 0.0
C1235 C 0.15936 0.83644 0.31891 0.0
C1236 C 0.06257 0.72749 0.28835 0.0
C1237 C 0.07323 0.74314 0.2936 0.0
C1238 C 0.11518 0.77075 0.30246 0.0
C1239 C 0.1326 0.81462 0.31325 0.0
C1240 C 0.12161 0.79813 0.30622 0.0
C1241 C 0.08915 0.75016 0.28777 0.0
C1242 C 0.10047 0.76672 0.2937 0.0
H1243 H 0.13215 0.84609 0.33512 0.0
H1244 H 0.11416 0.8193 0.32338 0.0
H1245 H 0.13659 0.78878 0.31604 0.0
H1246 H 0.08759 0.71902 0.26212 0.0
H1247 H 0.10635 0.74637 0.27163 0.0
C1248 C 0.26926 0.43327 0.34209 0.0
C1249 C 0.25463 0.41922 0.34241 0.0
C1250 C 0.2831 0.43312 0.33757 0.0
C1251 C 0.29934 0.41131 0.31182 0.0
H1252 H 0.3354 0.43615 0.34741 0.0
C1253 C 0.36376 0.42987 0.28984 0.0
C1254 C 0.37337 0.42892 0.30525 0.0
C1255 C 0.34868 0.42727 0.29452 0.0
C1256 C 0.32543 0.42904 0.33742 0.0
H1257 H 0.24304 0.39395 0.33767 0.0
H1258 H 0.26747 0.39372 0.32942 0.0
H1259 H 0.30995 0.43378 0.35536 0.0
H1260 H 0.3747 0.42445 0.33759 0.0
H1261 H 0.34846 0.42008 0.34579 0.0
H1262 H 0.31497 0.40677 0.29372 0.0
C1263 C 0.26808 0.40484 0.33282 0.0
C1264 C 0.31088 0.42778 0.34189 0.0
C1265 C 0.25413 0.40497 0.33758 0.0
C1266 C 0.36761 0.42534 0.32541 0.0
C1267 C 0.35259 0.42286 0.33011 0.0
C1268 C 0.31398 0.41269 0.30722 0.0
C1269 C 0.28272 0.41892 0.33309 0.0
C1270 C 0.29773 0.41906 0.32903 0.0
C1271 C 0.34295 0.4238 0.31472 0.0
C1272 C 0.32721 0.42169 0.3199 0.0
H1273 H 0.27014 0.44449 0.34564 0.0
H1274 H 0.29417 0.44418 0.33756 0.0
H1275 H 0.28942 0.40457 0.30161 0.0
H1276 H 0.36787 0.43255 0.27414 0.0
H1277 H 0.34161 0.42825 0.28238 0.0
C1278 C 0.24367 0.36089 0.8878 0.0
C1279 C 0.23051 0.35314 0.90074 0.0
C1280 C 0.25787 0.36117 0.89262 0.0
C1281 C 0.2713 0.33783 0.92279 0.0
H1282 H 0.31352 0.37196 0.91148 0.0
C1283 C 0.32637 0.3356 0.95015 0.0
C1284 C 0.33907 0.34073 0.93646 0.0
C1285 C 0.31378 0.33819 0.94592 0.0
C1286 C 0.30179 0.36227 0.91457 0.0
H1287 H 0.22225 0.34071 0.92954 0.0
H1288 H 0.24694 0.34171 0.93829 0.0
H1289 H 0.29072 0.37526 0.90417 0.0
H1290 H 0.34859 0.35285 0.9077 0.0
H1291 H 0.32657 0.35731 0.90027 0.0
H1292 H 0.28222 0.3248 0.93309 0.0
C1293 C 0.24628 0.34709 0.92409 0.0
C1294 C 0.28871 0.36416 0.91037 0.0
C1295 C 0.23216 0.34668 0.91918 0.0
C1296 C 0.33898 0.34873 0.91857 0.0
C1297 C 0.3264 0.35137 0.91437 0.0
C1298 C 0.28431 0.33596 0.92701 0.0
C1299 C 0.25915 0.35377 0.91052 0.0
C1300 C 0.27328 0.352 0.9146 0.0
C1301 C 0.31355 0.34602 0.92791 0.0
C1302 C 0.29975 0.34816 0.9231 0.0
H1303 H 0.24268 0.36581 0.87335 0.0
H1304 H 0.26751 0.36643 0.8818 0.0
H1305 H 0.25961 0.328 0.92572 0.0
H1306 H 0.3261 0.32947 0.96411 0.0
H1307 H 0.30422 0.3341 0.95687 0.0
C1308 C 0.67266 0.91846 0.87902 0.0
C1309 C 0.68287 0.9123 0.88089 0.0
C1310 C 0.67737 0.93373 0.8859 0.0
C1311 C 0.70508 0.96522 0.9206 0.0
H1312 H 0.69982 0.99299 0.88313 0.0
C1313 C 0.73397 0.03229 0.93559 0.0
C1314 C 0.72552 0.03975 0.92954 0.0
C1315 C 0.72848 0.01652 0.93036 0.0
C1316 C 0.70116 0.98536 0.89396 0.0
H1317 H 0.70573 0.91703 0.89217 0.0
H1318 H 0.71393 0.94364 0.9043 0.0
H1319 H 0.69024 0.9657 0.8733 0.0
H1320 H 0.70451 0.03649 0.91375 0.0
H1321 H 0.69469 0.00896 0.9052 0.0
H1322 H 0.71581 0.98477 0.9414 0.0
C1323 C 0.70233 0.93671 0.89742 0.0
C1324 C 0.69569 0.96971 0.88827 0.0
C1325 C 0.6977 0.92154 0.89031 0.0
C1326 C 0.71136 0.03109 0.91848 0.0
C1327 C 0.70578 0.01532 0.91345 0.0
C1328 C 0.71041 0.98084 0.9264 0.0
C1329 C 0.6923 0.94304 0.89505 0.0
C1330 C 0.69764 0.95949 0.90149 0.0
C1331 C 0.71433 0.00784 0.91914 0.0
C1332 C 0.70857 0.99114 0.91313 0.0
H1333 H 0.66122 0.91164 0.87171 0.0
H1334 H 0.66936 0.93827 0.88402 0.0
H1335 H 0.70662 0.95755 0.93117 0.0
H1336 H 0.74496 0.03871 0.94407 0.0
H1337 H 0.7355 0.01125 0.93478 0.0
C1338 C 0.16125 0.82679 0.8808 0.0
C1339 C 0.16364 0.84019 0.89173 0.0
C1340 C 0.14922 0.81178 0.88664 0.0
C1341 C 0.12085 0.78982 0.92861 0.0
H1342 H 0.09205 0.76666 0.88405 0.0
C1343 C 0.05472 0.74661 0.94157 0.0
C1344 C 0.04705 0.73305 0.92923 0.0
C1345 C 0.07048 0.75791 0.93793 0.0
C1346 C 0.10007 0.77278 0.89667 0.0
H1347 H 0.15624 0.84838 0.9181 0.0
H1348 H 0.13554 0.82242 0.92835 0.0
H1349 H 0.11778 0.78925 0.87639 0.0
H1350 H 0.04997 0.72047 0.90372 0.0
H1351 H 0.0775 0.74013 0.89745 0.0
H1352 H 0.10293 0.77366 0.94893 0.0
C1353 C 0.1428 0.82333 0.9153 0.0
C1354 C 0.11487 0.78572 0.89225 0.0
C1355 C 0.15461 0.83825 0.90935 0.0
C1356 C 0.05555 0.73085 0.91343 0.0
C1357 C 0.0713 0.74214 0.90979 0.0
C1358 C 0.10607 0.77688 0.93302 0.0
C1359 C 0.13961 0.80997 0.90367 0.0
C1360 C 0.12525 0.79465 0.9082 0.0
C1361 C 0.07893 0.75589 0.92186 0.0
C1362 C 0.09533 0.76846 0.91713 0.0
H1363 H 0.168 0.82798 0.86709 0.0
H1364 H 0.14711 0.80167 0.87747 0.0
H1365 H 0.12869 0.79634 0.94122 0.0
H1366 H 0.04848 0.74864 0.95384 0.0
H1367 H 0.0759 0.76847 0.94733 0.0
C1368 C 0.40626 0.18201 0.70744 0.0
C1369 C 0.41739 0.1964 0.71648 0.0
C1370 C 0.40658 0.1682 0.71154 0.0
C1371 C 0.42064 0.1502 0.7497 0.0
H1372 H 0.4107 0.11917 0.70663 0.0
C1373 C 0.42406 0.09354 0.76215 0.0
C1374 C 0.41174 0.0795 0.75381 0.0
C1375 C 0.42537 0.10804 0.7574 0.0
C1376 C 0.41335 0.12765 0.71887 0.0
H1377 H 0.4378 0.20758 0.7366 0.0
H1378 H 0.43853 0.18339 0.74361 0.0
H1379 H 0.41251 0.14428 0.69841 0.0
H1380 H 0.39112 0.06963 0.73396 0.0
H1381 H 0.39335 0.095 0.72569 0.0
H1382 H 0.42143 0.13352 0.77016 0.0
C1383 C 0.4294 0.18282 0.73355 0.0
C1384 C 0.41441 0.14206 0.71416 0.0
C1385 C 0.42909 0.19669 0.7294 0.0
C1386 C 0.40075 0.08026 0.74059 0.0
C1387 C 0.40209 0.09479 0.73577 0.0
C1388 C 0.41962 0.1358 0.7544 0.0
C1389 C 0.41808 0.16839 0.72474 0.0
C1390 C 0.41792 0.15346 0.72955 0.0
C1391 C 0.41442 0.10885 0.74413 0.0
C1392 C 0.41584 0.1243 0.73907 0.0
H1393 H 0.39727 0.18139 0.69709 0.0
H1394 H 0.39758 0.1573 0.70465 0.0
H1395 H 0.42313 0.15862 0.76198 0.0
H1396 H 0.43274 0.09334 0.77237 0.0
H1397 H 0.43509 0.11866 0.76391 0.0
C1398 C 0.90765 0.25391 0.70463 0.0
C1399 C 0.90981 0.24293 0.71601 0.0
C1400 C 0.91719 0.27015 0.7085 0.0
C1401 C 0.94505 0.29878 0.74743 0.0
H1402 H 0.96365 0.32652 0.70089 0.0
C1403 C 0.99097 0.36456 0.75926 0.0
C1404 C 1.00395 0.37123 0.74591 0.0
C1405 C 0.97792 0.3497 0.75516 0.0
C1406 C 0.95863 0.31893 0.71408 0.0
H1407 H 0.92317 0.24038 0.74091 0.0
H1408 H 0.93957 0.2683 0.74757 0.0
H1409 H 0.94331 0.29911 0.69517 0.0
H1410 H 0.01329 0.36759 0.71758 0.0
H1411 H 0.99075 0.3415 0.71067 0.0
H1412 H 0.96081 0.31823 0.76631 0.0
C1413 C 0.93056 0.26457 0.73575 0.0
C1414 C 0.94678 0.30324 0.71079 0.0
C1415 C 0.92118 0.24849 0.73182 0.0
C1416 C 1.00347 0.36279 0.72817 0.0
C1417 C 0.99045 0.34785 0.72413 0.0
C1418 C 0.95691 0.3144 0.7507 0.0
C1419 C 0.92892 0.27568 0.72398 0.0
C1420 C 0.94005 0.29287 0.72742 0.0
C1421 C 0.97753 0.34102 0.73766 0.0
C1422 C 0.96407 0.32466 0.73407 0.0
H1423 H 0.89907 0.25 0.69224 0.0
H1424 H 0.91552 0.27838 0.69923 0.0
H1425 H 0.94 0.29123 0.76065 0.0
H1426 H 0.9909 0.37081 0.77297 0.0
H1427 H 0.96811 0.34502 0.76576 0.0
C1428 C 0.82787 0.69018 0.69546 0.0
C1429 C 0.83796 0.69 0.71079 0.0
C1430 C 0.81183 0.68432 0.69943 0.0
C1431 C 0.78522 0.67732 0.74327 0.0
H1432 H 0.7524 0.65807 0.70175 0.0
C1433 C 0.71964 0.65691 0.7604 0.0
C1434 C 0.71158 0.66072 0.7456 0.0
C1435 C 0.73463 0.65903 0.75623 0.0
C1436 C 0.76146 0.66353 0.71347 0.0
H1437 H 0.83884 0.68249 0.74185 0.0
H1438 H 0.81082 0.67193 0.74859 0.0
H1439 H 0.77904 0.66336 0.69409 0.0
H1440 H 0.71289 0.66967 0.7148 0.0
H1441 H 0.73903 0.67342 0.70757 0.0
H1442 H 0.76766 0.67759 0.76258 0.0
C1443 C 0.81538 0.677 0.73367 0.0
C1444 C 0.77674 0.66656 0.70909 0.0
C1445 C 0.83144 0.68293 0.72974 0.0
C1446 C 0.71879 0.66662 0.72653 0.0
C1447 C 0.73373 0.66866 0.72232 0.0
C1448 C 0.76993 0.67422 0.74767 0.0
C1449 C 0.80546 0.67805 0.71879 0.0
C1450 C 0.78888 0.67366 0.72386 0.0
C1451 C 0.74185 0.66492 0.73713 0.0
C1452 C 0.7579 0.66745 0.73276 0.0
H1453 H 0.83248 0.69558 0.6807 0.0
H1454 H 0.80462 0.68545 0.68763 0.0
H1455 H 0.7943 0.68308 0.7549 0.0
H1456 H 0.71437 0.6523 0.77521 0.0
H1457 H 0.7405 0.65591 0.7679 0.0
C1458 C 0.82175 0.71267 0.1289 0.0
C1459 C 0.83048 0.71512 0.1471 0.0
C1460 C 0.81381 0.72095 0.12513 0.0
C1461 C 0.79486 0.73982 0.15222 0.0
H1462 H 0.79082 0.75284 0.09736 0.0
C1463 C 0.74232 0.74781 0.12755 0.0
C1464 C 0.74516 0.76016 0.11413 0.0
C1465 C 0.75436 0.74455 0.1325 0.0
C1466 C 0.79192 0.74947 0.11284 0.0
H1467 H 0.8381 0.72858 0.17541 0.0
H1468 H 0.82404 0.74312 0.16887 0.0
H1469 H 0.80988 0.74418 0.10398 0.0
H1470 H 0.76296 0.77893 0.09559 0.0
H1471 H 0.784 0.77324 0.1042 0.0
H1472 H 0.77671 0.74489 0.16099 0.0
C1473 C 0.8234 0.73473 0.15751 0.0
C1474 C 0.80278 0.74437 0.1166 0.0
C1475 C 0.83157 0.72653 0.16117 0.0
C1476 C 0.76037 0.76929 0.10593 0.0
C1477 C 0.77241 0.76599 0.1108 0.0
C1478 C 0.78392 0.74484 0.14843 0.0
C1479 C 0.81422 0.73184 0.13955 0.0
C1480 C 0.80419 0.7392 0.13624 0.0
C1481 C 0.76955 0.75353 0.1241 0.0
C1482 C 0.78211 0.74947 0.1286 0.0
H1483 H 0.82067 0.70395 0.11775 0.0
H1484 H 0.80674 0.71827 0.11127 0.0
H1485 H 0.79553 0.73582 0.16748 0.0
H1486 H 0.73073 0.74054 0.13414 0.0
H1487 H 0.75165 0.73473 0.14254 0.0
C1488 C 0.35088 0.14889 0.17312 0.0
C1489 C 0.33738 0.14972 0.17849 0.0
C1490 C 0.34975 0.13444 0.16835 0.0
C1491 C 0.3239 0.09136 0.17433 0.0
H1492 H 0.34872 0.08944 0.12923 0.0
C1493 C 0.32858 0.03583 0.15715 0.0
C1494 C 0.32853 0.03176 0.13644 0.0
C1495 C 0.32954 0.05013 0.16246 0.0
C1496 C 0.3416 0.08972 0.14176 0.0
H1497 H 0.3121 0.13582 0.18334 0.0
H1498 H 0.31007 0.11069 0.17457 0.0
H1499 H 0.35036 0.11439 0.13796 0.0
H1500 H 0.32929 0.0394 0.10502 0.0
H1501 H 0.33073 0.06422 0.11423 0.0
H1502 H 0.31486 0.06659 0.1778 0.0
C1503 C 0.32159 0.12123 0.17427 0.0
C1504 C 0.3427 0.10409 0.14694 0.0
C1505 C 0.32272 0.13568 0.17907 0.0
C1506 C 0.32938 0.04224 0.12113 0.0
C1507 C 0.3303 0.05651 0.12642 0.0
C1508 C 0.32279 0.07697 0.16912 0.0
C1509 C 0.33508 0.12043 0.16877 0.0
C1510 C 0.33388 0.1051 0.1633 0.0
C1511 C 0.33044 0.06067 0.14716 0.0
C1512 C 0.33162 0.07597 0.15276 0.0
H1513 H 0.36234 0.15942 0.17226 0.0
H1514 H 0.36042 0.13426 0.16443 0.0
H1515 H 0.31706 0.09173 0.18714 0.0
H1516 H 0.32799 0.02801 0.1693 0.0
H1517 H 0.32983 0.05303 0.17857 0.0
C1518 C 0.90221 0.2731 0.14668 0.0
C1519 C 0.89786 0.26255 0.16319 0.0
C1520 C 0.91812 0.28305 0.142 0.0
C1521 C 0.95814 0.30049 0.16495 0.0
H1522 H 0.97151 0.31043 0.10831 0.0
C1523 C 0.02026 0.35063 0.14315 0.0
C1524 C 0.02764 0.34829 0.12612 0.0
C1525 C 1.00457 0.3397 0.14779 0.0
C1526 C 0.96802 0.30766 0.12421 0.0
H1527 H 0.90681 0.2539 0.18744 0.0
H1528 H 0.93453 0.27098 0.17898 0.0
H1529 H 0.94397 0.29182 0.11585 0.0
H1530 H 0.02453 0.33256 0.10081 0.0
H1531 H 0.99729 0.31332 0.10915 0.0
H1532 H 0.98226 0.31602 0.17329 0.0
C1533 C 0.92567 0.27184 0.16992 0.0
C1534 C 0.95217 0.29714 0.12855 0.0
C1535 C 0.90976 0.26196 0.17469 0.0
C1536 C 0.01912 0.33471 0.11399 0.0
C1537 C 1.00347 0.32374 0.11869 0.0
C1538 C 0.974 0.31095 0.16061 0.0
C1539 C 0.93006 0.28259 0.15362 0.0
C1540 C 0.94701 0.29348 0.14897 0.0
C1541 C 0.99595 0.32615 0.13556 0.0
C1542 C 0.97914 0.31473 0.14019 0.0
H1543 H 0.89334 0.2739 0.13757 0.0
H1544 H 0.92106 0.29134 0.12952 0.0
H1545 H 0.95456 0.2981 0.18086 0.0
H1546 H 0.02652 0.36103 0.15272 0.0
H1547 H 0.99911 0.34207 0.16072 0.0
C1548 C 0.3961 0.28553 0.63757 0.0
C1549 C 0.39507 0.28056 0.65802 0.0
C1550 C 0.39012 0.29535 0.63191 0.0
C1551 C 0.38081 0.32452 0.65207 0.0
H1552 H 0.34914 0.31097 0.60895 0.0
C1553 C 0.34336 0.35412 0.64211 0.0
C1554 C 0.33905 0.35616 0.62226 0.0
C1555 C 0.35048 0.345 0.64531 0.0
C1556 C 0.35816 0.31511 0.62078 0.0
H1557 H 0.38752 0.28229 0.68865 0.0
H1558 H 0.37745 0.29977 0.67891 0.0
H1559 H 0.36198 0.29553 0.61628 0.0
H1560 H 0.33862 0.35013 0.59016 0.0
H1561 H 0.35159 0.33454 0.59559 0.0
H1562 H 0.37739 0.3442 0.65647 0.0
C1563 C 0.3827 0.29595 0.66723 0.0
C1564 C 0.36547 0.30622 0.62498 0.0
C1565 C 0.38837 0.28591 0.67278 0.0
C1566 C 0.34178 0.34868 0.60564 0.0
C1567 C 0.34916 0.33971 0.6088 0.0
C1568 C 0.37372 0.33352 0.64768 0.0
C1569 C 0.38335 0.30062 0.64671 0.0
C1570 C 0.37665 0.31071 0.64092 0.0
C1571 C 0.35376 0.33789 0.62869 0.0
C1572 C 0.36205 0.32878 0.63227 0.0
H1573 H 0.4011 0.28144 0.62591 0.0
H1574 H 0.39079 0.29884 0.616 0.0
H1575 H 0.38955 0.32833 0.66426 0.0
H1576 H 0.34124 0.35961 0.65526 0.0
H1577 H 0.35339 0.34352 0.66091 0.0
C1578 C 0.83158 0.15753 0.66707 0.0
C1579 C 0.84629 0.16014 0.66007 0.0
C1580 C 0.81755 0.14419 0.66045 0.0
C1581 C 0.80115 0.11265 0.62045 0.0
H1582 H 0.77238 0.08671 0.6631 0.0
C1583 C 0.75669 0.04674 0.60712 0.0
C1584 C 0.74167 0.04019 0.61608 0.0
C1585 C 0.76845 0.06216 0.61188 0.0
C1586 C 0.78013 0.09389 0.65091 0.0
H1587 H 0.85779 0.15137 0.63989 0.0
H1588 H 0.83356 0.12848 0.62817 0.0
H1589 H 0.7942 0.11288 0.67167 0.0
H1590 H 0.72722 0.04474 0.63707 0.0
H1591 H 0.74765 0.07169 0.64521 0.0
H1592 H 0.78727 0.09366 0.59972 0.0
C1593 C 0.83271 0.13657 0.63876 0.0
C1594 C 0.79264 0.10893 0.65584 0.0
C1595 C 0.84664 0.14968 0.64556 0.0
C1596 C 0.73869 0.04941 0.62996 0.0
C1597 C 0.75045 0.06486 0.6347 0.0
C1598 C 0.78863 0.09766 0.61551 0.0
C1599 C 0.818 0.13341 0.64645 0.0
C1600 C 0.8035 0.11837 0.64075 0.0
C1601 C 0.76549 0.07147 0.62568 0.0
C1602 C 0.77813 0.08792 0.63074 0.0
H1603 H 0.83097 0.16532 0.6784 0.0
H1604 H 0.80639 0.14214 0.66656 0.0
H1605 H 0.80915 0.1197 0.60839 0.0
H1606 H 0.75939 0.03994 0.59642 0.0
H1607 H 0.77995 0.06669 0.60491 0.0
C1608 C 0.93996 0.74669 0.66588 0.0
C1609 C 0.92503 0.73302 0.66468 0.0
C1610 C 0.95338 0.74669 0.65872 0.0
C1611 C 0.96784 0.72761 0.62376 0.0
H1612 H 1.00471 0.74698 0.65939 0.0
C1613 C 0.03177 0.7474 0.59664 0.0
C1614 C 0.04144 0.74477 0.6102 0.0
C1615 C 0.01669 0.74416 0.60269 0.0
C1616 C 0.9945 0.74139 0.64931 0.0
H1617 H 0.91248 0.70866 0.65454 0.0
H1618 H 0.93617 0.70873 0.64172 0.0
H1619 H 0.9799 0.74437 0.67116 0.0
H1620 H 0.04274 0.73629 0.6405 0.0
H1621 H 0.01655 0.7307 0.65101 0.0
H1622 H 0.98263 0.72482 0.60179 0.0
C1623 C 0.93733 0.71942 0.64833 0.0
C1624 C 0.98032 0.74002 0.656 0.0
C1625 C 0.92381 0.71937 0.65573 0.0
C1626 C 0.03562 0.73855 0.62973 0.0
C1627 C 0.02063 0.73539 0.63579 0.0
C1628 C 0.98213 0.72911 0.61696 0.0
C1629 C 0.95228 0.73306 0.65004 0.0
C1630 C 0.96688 0.73328 0.64324 0.0
C1631 C 0.01105 0.73833 0.62245 0.0
C1632 C 0.99565 0.73612 0.62964 0.0
H1633 H 0.94139 0.75746 0.67259 0.0
H1634 H 0.96468 0.75745 0.65995 0.0
H1635 H 0.95768 0.72243 0.61358 0.0
H1636 H 0.03593 0.75215 0.58147 0.0
H1637 H 0.00965 0.74668 0.59213 0.0
C1638 C 0.88799 0.67209 0.20443 0.0
C1639 C 0.88771 0.68595 0.19964 0.0
C1640 C 0.9015 0.6727 0.21254 0.0
C1641 C 0.94473 0.698 0.2163 0.0
H1642 H 0.94003 0.66574 0.25471 0.0
C1643 C 0.99415 0.68277 0.22957 0.0
C1644 C 0.99592 0.67774 0.2491 0.0
C1645 C 0.98153 0.68531 0.22534 0.0
C1646 C 0.94169 0.675 0.24423 0.0
H1647 H 0.90153 0.71144 0.2 0.0
H1648 H 0.92534 0.71255 0.21452 0.0
H1649 H 0.91719 0.66801 0.24531 0.0
H1650 H 0.98601 0.67174 0.27966 0.0
H1651 H 0.9642 0.67649 0.2725 0.0
H1652 H 0.96932 0.70514 0.2155 0.0
C1653 C 0.915 0.70116 0.21173 0.0
C1654 C 0.92848 0.67618 0.23861 0.0
C1655 C 0.90134 0.70055 0.20354 0.0
C1656 C 0.98488 0.67547 0.2644 0.0
C1657 C 0.97233 0.67815 0.26023 0.0
C1658 C 0.958 0.69689 0.22205 0.0
C1659 C 0.91523 0.6872 0.21628 0.0
C1660 C 0.92973 0.68742 0.22418 0.0
C1661 C 0.97042 0.68303 0.2406 0.0
C1662 C 0.9566 0.68516 0.23577 0.0
H1663 H 0.87776 0.6606 0.20164 0.0
H1664 H 0.90126 0.66169 0.21539 0.0
H1665 H 0.94616 0.70677 0.20511 0.0
H1666 H 1.00244 0.68459 0.21743 0.0
H1667 H 0.98035 0.68875 0.20994 0.0
C1668 C 0.37568 0.268 0.23897 0.0
C1669 C 0.36 0.25801 0.23255 0.0
C1670 C 0.38072 0.28349 0.24502 0.0
C1671 C 0.37184 0.31532 0.23788 0.0
H1672 H 0.39737 0.33323 0.28691 0.0
C1673 C 0.38738 0.37675 0.26782 0.0
C1674 C 0.40249 0.38638 0.27624 0.0
C1675 C 0.3822 0.36103 0.26295 0.0
C1676 C 0.39044 0.3285 0.27302 0.0
H1677 H 0.33732 0.25642 0.2275 0.0
H1678 H 0.34614 0.28356 0.23802 0.0
H1679 H 0.38824 0.30584 0.27772 0.0
H1680 H 0.42407 0.38714 0.28609 0.0
H1681 H 0.4152 0.35975 0.27708 0.0
H1682 H 0.37425 0.33796 0.23285 0.0
C1683 C 0.35452 0.27936 0.23834 0.0
C1684 C 0.38516 0.31278 0.26781 0.0
C1685 C 0.34943 0.2638 0.2325 0.0
C1686 C 0.41233 0.37997 0.27969 0.0
C1687 C 0.4072 0.36424 0.27464 0.0
C1688 C 0.37722 0.33106 0.24297 0.0
C1689 C 0.37023 0.28938 0.24458 0.0
C1690 C 0.37576 0.30602 0.25023 0.0
C1691 C 0.39206 0.35457 0.26618 0.0
C1692 C 0.38654 0.33785 0.26065 0.0
H1693 H 0.38404 0.26381 0.23939 0.0
H1694 H 0.39292 0.29097 0.24964 0.0
H1695 H 0.36483 0.31049 0.22406 0.0
H1696 H 0.37948 0.38134 0.26513 0.0
H1697 H 0.37036 0.35389 0.25685 0.0
C1698 C 0.81444 0.21254 0.19248 0.0
C1699 C 0.82039 0.22689 0.20292 0.0
C1700 C 0.80287 0.19862 0.20139 0.0
C1701 C 0.78209 0.18088 0.25036 0.0
H1702 H 0.74957 0.1516 0.21307 0.0
C1703 C 0.7218 0.12718 0.2752 0.0
C1704 C 0.71693 0.11319 0.26401 0.0
C1705 C 0.73541 0.1411 0.26948 0.0
C1706 C 0.75864 0.15959 0.22366 0.0
H1707 H 0.81856 0.23832 0.23039 0.0
H1708 H 0.79786 0.214 0.24594 0.0
H1709 H 0.77137 0.17579 0.19975 0.0
H1710 H 0.72285 0.10264 0.23873 0.0
H1711 H 0.74645 0.12683 0.2288 0.0
H1712 H 0.7689 0.16462 0.27436 0.0
C1713 C 0.80259 0.21333 0.23121 0.0
C1714 C 0.7712 0.17344 0.21602 0.0
C1715 C 0.81435 0.22725 0.2223 0.0
C1716 C 0.72622 0.11324 0.24757 0.0
C1717 C 0.73971 0.12711 0.24181 0.0
C1718 C 0.76938 0.16701 0.25806 0.0
C1719 C 0.79658 0.19886 0.22072 0.0
C1720 C 0.78318 0.1842 0.22921 0.0
C1721 C 0.74426 0.14125 0.25241 0.0
C1722 C 0.75763 0.15617 0.24471 0.0
H1723 H 0.81819 0.21218 0.17702 0.0
H1724 H 0.79862 0.18772 0.1929 0.0
H1725 H 0.79117 0.18887 0.26093 0.0
H1726 H 0.71487 0.12746 0.28796 0.0
H1727 H 0.73865 0.15186 0.27787 0.0
C1728 C 0.01758 0.51457 0.91245 0.0
C1729 C 0.02495 0.51706 0.93177 0.0
C1730 C 0.01918 0.50506 0.89769 0.0
C1731 C 0.04489 0.48976 0.88141 0.0
H1732 H 0.00754 0.45763 0.85336 0.0
C1733 C 0.0479 0.44524 0.82548 0.0
C1734 C 0.03797 0.44047 0.80813 0.0
C1735 C 0.04623 0.45423 0.841 0.0
C1736 C 0.01816 0.46668 0.86076 0.0
H1737 H 0.04004 0.51178 0.95058 0.0
H1738 H 0.04303 0.4953 0.92466 0.0
H1739 H 1.00501 0.47429 0.87913 0.0
H1740 H 0.0186 0.44148 0.79333 0.0
H1741 H 0.016 0.45754 0.8199 0.0
H1742 H 0.05815 0.48256 0.86272 0.0
C1743 C 0.03593 0.50065 0.92102 0.0
C1744 C 0.01666 0.47619 0.87563 0.0
C1745 C 0.03413 0.50998 0.93589 0.0
C1746 C 0.02635 0.44488 0.8066 0.0
C1747 C 0.02481 0.45402 0.82196 0.0
C1748 C 0.04643 0.48039 0.86633 0.0
C1749 C 0.02838 0.498 0.9018 0.0
C1750 C 0.03001 0.48784 0.88611 0.0
C1751 C 0.03471 0.45884 0.83942 0.0
C1752 C 0.03308 0.46871 0.85576 0.0
H1753 H 0.01032 0.51975 0.90888 0.0
H1754 H 0.01331 0.50332 0.88297 0.0
H1755 H 0.05541 0.49875 0.88909 0.0
H1756 H 0.05692 0.44196 0.82714 0.0
H1757 H 0.0539 0.45744 0.85432 0.0
C1758 C 0.57849 0.58121 0.95141 0.0
C1759 C 0.56247 0.57001 0.9484 0.0
C1760 C 0.58858 0.58775 0.93463 0.0
C1761 C 0.5932 0.58157 0.87965 0.0
H1762 H 0.62029 0.62696 0.87887 0.0
C1763 C 0.63924 0.61502 0.81539 0.0
C1764 C 0.6393 0.62846 0.80775 0.0
C1765 C 0.63041 0.60735 0.83286 0.0
C1766 C 0.61279 0.61427 0.87886 0.0
H1767 H 0.5446 0.55657 0.92542 0.0
H1768 H 0.5622 0.56803 0.89612 0.0
H1769 H 0.60384 0.61438 0.90878 0.0
H1770 H 0.63014 0.64436 0.81234 0.0
H1771 H 0.61488 0.63109 0.84272 0.0
H1772 H 0.60201 0.58154 0.84953 0.0
C1773 C 0.56696 0.57173 0.91147 0.0
C1774 C 0.60347 0.60705 0.89607 0.0
C1775 C 0.55684 0.56529 0.92824 0.0
C1776 C 0.63037 0.63405 0.81786 0.0
C1777 C 0.62169 0.6265 0.83536 0.0
C1778 C 0.60264 0.58879 0.86248 0.0
C1779 C 0.58291 0.58315 0.91446 0.0
C1780 C 0.59343 0.59064 0.89658 0.0
C1781 C 0.62163 0.6131 0.84311 0.0
C1782 C 0.61238 0.60524 0.8618 0.0
H1783 H 0.58317 0.58518 0.96672 0.0
H1784 H 0.60084 0.59644 0.93744 0.0
H1785 H 0.58568 0.56889 0.87967 0.0
H1786 H 0.64601 0.61045 0.80791 0.0
H1787 H 0.63064 0.59708 0.83855 0.0
C1788 C 0.50603 0.07973 0.95972 0.0
C1789 C 0.52251 0.08857 0.95756 0.0
C1790 C 0.49613 0.07635 0.94267 0.0
C1791 C 0.49587 0.07127 0.88705 0.0
H1792 H 0.45681 0.07246 0.88894 0.0
C1793 C 0.45572 0.05774 0.81582 0.0
C1794 C 0.43932 0.04917 0.81887 0.0
C1795 C 0.46608 0.06321 0.83258 0.0
C1796 C 0.46758 0.07188 0.88824 0.0
H1797 H 0.54154 0.10114 0.93595 0.0
H1798 H 0.52421 0.09527 0.90608 0.0
H1799 H 0.47462 0.08155 0.91852 0.0
H1800 H 0.42088 0.03937 0.84182 0.0
H1801 H 0.43897 0.04857 0.87112 0.0
H1802 H 0.48874 0.06128 0.85701 0.0
C1803 C 0.51898 0.09091 0.92099 0.0
C1804 C 0.47781 0.07716 0.90515 0.0
C1805 C 0.52889 0.0944 0.9381 0.0
C1806 C 0.43348 0.046 0.83901 0.0
C1807 C 0.44384 0.05138 0.85578 0.0
C1808 C 0.48561 0.0659 0.87019 0.0
C1809 C 0.50251 0.08165 0.92306 0.0
C1810 C 0.49203 0.07684 0.90476 0.0
C1811 C 0.46027 0.06014 0.85277 0.0
C1812 C 0.4713 0.06607 0.87061 0.0
H1813 H 0.5008 0.07522 0.97457 0.0
H1814 H 0.48349 0.06911 0.94473 0.0
H1815 H 0.50663 0.07064 0.88644 0.0
H1816 H 0.46056 0.06045 0.80046 0.0
H1817 H 0.47864 0.07009 0.82968 0.0
C1818 C 0.47862 0.01357 0.58021 0.0
C1819 C 0.48435 1.00296 0.57992 0.0
C1820 C 0.46945 0.01366 0.59652 0.0
C1821 C 0.46287 0.00471 0.65102 0.0
H1822 H 0.42616 0.00946 0.6425 0.0
C1823 C 0.42844 0.01046 0.7192 0.0
C1824 C 0.42347 0.0216 0.71717 0.0
C1825 C 0.43427 0.0062 0.70227 0.0
C1826 C 0.43647 0.00828 0.64516 0.0
H1827 H 0.48476 0.98393 0.59624 0.0
H1828 H 0.46875 0.98416 0.62505 0.0
H1829 H 0.43911 0.00541 0.61304 0.0
H1830 H 0.42056 0.03692 0.69582 0.0
H1831 H 0.4311 0.02984 0.6664 0.0
H1832 H 0.46066 0.00816 0.683 0.0
C1833 C 0.47138 0.99239 0.61258 0.0
C1834 C 0.44383 0.00589 0.62828 0.0
C1835 C 0.48042 0.99217 0.59607 0.0
C1836 C 0.42424 0.02825 0.69783 0.0
C1837 C 0.43019 0.02409 0.68093 0.0
C1838 C 0.4556 0.00724 0.66789 0.0
C1839 C 0.46592 1.00322 0.61302 0.0
C1840 C 0.45723 0.00429 0.63102 0.0
C1841 C 0.43538 0.01308 0.68295 0.0
C1842 C 0.44242 0.00927 0.66515 0.0
H1843 H 0.48132 0.02188 0.56782 0.0
H1844 H 0.46552 0.02223 0.59652 0.0
H1845 H 0.47331 1.00371 0.65356 0.0
H1846 H 0.42789 0.00506 0.73392 0.0
H1847 H 0.43792 0.9975 0.70433 0.0
C1848 C 0.08368 0.51887 0.57263 0.0
C1849 C 0.07339 0.5249 0.56987 0.0
C1850 C 0.08212 0.50942 0.58961 0.0
C1851 C 0.06513 0.49945 0.64194 0.0
H1852 H 0.06778 0.46154 0.63464 0.0
C1853 C 0.04516 0.45231 0.70515 0.0
C1854 C 0.05389 0.44464 0.70836 0.0
C1855 C 0.04828 0.4623 0.68835 0.0
C1856 C 0.06722 0.47219 0.63704 0.0
H1857 H 0.05362 0.52594 0.58322 0.0
H1858 H 0.05081 0.50941 0.61257 0.0
H1859 H 0.07205 0.47873 0.60535 0.0
H1860 H 0.07277 0.44144 0.69639 0.0
H1861 H 0.07841 0.45909 0.66713 0.0
H1862 H 0.06031 0.49299 0.67356 0.0
C1863 C 0.06013 0.51202 0.60166 0.0
C1864 C 0.06966 0.48206 0.62021 0.0
C1865 C 0.06164 0.52137 0.58467 0.0
C1866 C 0.06581 0.44716 0.69431 0.0
C1867 C 0.06898 0.45722 0.67748 0.0
C1868 C 0.06274 0.48964 0.65874 0.0
C1869 C 0.07031 0.50587 0.60435 0.0
C1870 C 0.06847 0.49573 0.6224 0.0
C1871 C 0.06027 0.46497 0.67432 0.0
C1872 C 0.06357 0.47577 0.6565 0.0
H1873 H 0.09278 0.52123 0.56148 0.0
H1874 H 0.09024 0.50499 0.59128 0.0
H1875 H 0.06442 0.51003 0.64429 0.0
H1876 H 0.03582 0.45057 0.71561 0.0
H1877 H 0.04111 0.4678 0.68626 0.0
C1878 C 0.57669 0.57285 0.56453 0.0
C1879 C 0.56213 0.57247 0.5629 0.0
C1880 C 0.58575 0.57832 0.58258 0.0
C1881 C 0.59315 0.60574 0.62453 0.0
H1882 H 0.6118 0.58456 0.65385 0.0
C1883 C 0.62375 0.62918 0.70247 0.0
C1884 C 0.63727 0.62819 0.70707 0.0
C1885 C 0.61452 0.6215 0.68523 0.0
C1886 C 0.60688 0.59076 0.64569 0.0
H1887 H 0.54539 0.57686 0.57937 0.0
H1888 H 0.56125 0.58652 0.6105 0.0
H1889 H 0.59598 0.57247 0.6229 0.0
H1890 H 0.6517 0.61829 0.69735 0.0
H1891 H 0.63591 0.6053 0.66681 0.0
H1892 H 0.60427 0.62423 0.64665 0.0
C1893 C 0.56568 0.58267 0.59783 0.0
C1894 C 0.59777 0.58378 0.62802 0.0
C1895 C 0.55657 0.57706 0.57998 0.0
C1896 C 0.64129 0.61921 0.6942 0.0
C1897 C 0.63217 0.61168 0.67676 0.0
C1898 C 0.60239 0.61281 0.64195 0.0
C1899 C 0.58049 0.58366 0.59917 0.0
C1900 C 0.59066 0.59113 0.61744 0.0
C1901 C 0.61871 0.61283 0.67194 0.0
C1902 C 0.60923 0.60535 0.65297 0.0
H1903 H 0.5813 0.56938 0.55168 0.0
H1904 H 0.59715 0.57898 0.58324 0.0
H1905 H 0.58804 0.6118 0.61644 0.0
H1906 H 0.62027 0.6359 0.71222 0.0
H1907 H 0.60404 0.62235 0.68238 0.0
C1908 C 0.04207 0.5979 0.06249 0.0
C1909 C 0.03023 0.58216 0.05918 0.0
C1910 C 0.04268 0.6057 0.0808 0.0
C1911 C 0.02896 0.59867 0.13483 0.0
H1912 H 0.03908 0.64228 0.13276 0.0
C1913 C 0.02315 0.63132 0.20574 0.0
C1914 C 0.03479 0.64717 0.20865 0.0
C1915 C 0.02273 0.62329 0.18771 0.0
C1916 C 0.03643 0.63016 0.13367 0.0
H1917 H 0.00959 0.56241 0.07263 0.0
H1918 H 0.01067 0.57599 0.10454 0.0
H1919 H 0.03802 0.6285 0.10106 0.0
H1920 H 0.05524 0.66696 0.19501 0.0
H1921 H 0.05464 0.65294 0.16368 0.0
H1922 H 0.02736 0.60034 0.16746 0.0
C1923 C 0.01964 0.58223 0.09307 0.0
C1924 C 0.03581 0.62225 0.11546 0.0
C1925 C 0.01903 0.57442 0.07474 0.0
C1926 C 0.04609 0.65477 0.19321 0.0
C1927 C 0.04567 0.64675 0.17518 0.0
C1928 C 0.02958 0.60659 0.15306 0.0
C1929 C 0.03147 0.59799 0.09633 0.0
C1930 C 0.03208 0.60639 0.11578 0.0
C1931 C 0.03395 0.63091 0.17213 0.0
C1932 C 0.03334 0.62245 0.15273 0.0
H1933 H 0.05103 0.60417 0.05104 0.0
H1934 H 0.05211 0.61774 0.0829 0.0
H1935 H 0.02627 0.58654 0.13572 0.0
H1936 H 0.01425 0.62513 0.21732 0.0
H1937 H 0.01342 0.61117 0.18582 0.0
C1938 C 0.50796 0.52529 0.10542 0.0
C1939 C 0.5213 0.52374 0.10176 0.0
C1940 C 0.49767 0.51712 0.12156 0.0
C1941 C 0.48512 0.48257 0.15506 0.0
H1942 H 0.47117 0.50427 0.19195 0.0
C1943 C 0.45588 0.45577 0.23243 0.0
C1944 C 0.44339 0.45786 0.2391 0.0
C1945 C 0.46467 0.4637 0.21515 0.0
C1946 C 0.47476 0.49796 0.18164 0.0
H1947 H 0.53406 0.5121 0.11193 0.0
H1948 H 0.51625 0.498 0.14003 0.0
H1949 H 0.48756 0.51819 0.16246 0.0
H1950 H 0.43028 0.46989 0.23286 0.0
H1951 H 0.44547 0.48358 0.20243 0.0
H1952 H 0.47235 0.46236 0.17409 0.0
C1953 C 0.5137 0.50549 0.13044 0.0
C1954 C 0.48417 0.50595 0.16474 0.0
C1955 C 0.52403 0.51373 0.11446 0.0
C1956 C 0.43988 0.46808 0.22812 0.0
C1957 C 0.44864 0.47598 0.21074 0.0
C1958 C 0.47566 0.47457 0.17186 0.0
C1959 C 0.50042 0.5071 0.13421 0.0
C1960 C 0.48962 0.4984 0.15143 0.0
C1961 C 0.46113 0.47386 0.20401 0.0
C1962 C 0.47053 0.48221 0.18553 0.0
H1963 H 0.5056 0.53297 0.09599 0.0
H1964 H 0.48748 0.51853 0.12401 0.0
H1965 H 0.4889 0.47634 0.14488 0.0
H1966 H 0.45894 0.44804 0.24063 0.0
H1967 H 0.47438 0.46199 0.21067 0.0
C1968 C 0.57611 0.07518 0.09753 0.0
C1969 C 0.57866 0.08991 0.09076 0.0
C1970 C 0.58491 0.07416 0.11376 0.0
C1971 C 0.60812 0.09498 0.15918 0.0
H1972 H 0.62619 0.06782 0.15268 0.0
C1973 C 0.6503 0.09271 0.21963 0.0
C1974 C 0.64878 0.07795 0.22379 0.0
C1975 C 0.64207 0.09452 0.20326 0.0
C1976 C 0.62106 0.0753 0.15487 0.0
H1977 H 0.59243 0.11512 0.09617 0.0
H1978 H 0.6076 0.11327 0.12484 0.0
H1979 H 0.61107 0.07039 0.1246 0.0
H1980 H 0.63739 0.05349 0.21424 0.0
H1981 H 0.6227 0.05652 0.18596 0.0
H1982 H 0.6178 0.09966 0.18959 0.0
C1983 C 0.59875 0.10254 0.11743 0.0
C1984 C 0.61245 0.0768 0.13875 0.0
C1985 C 0.59002 0.10358 0.10103 0.0
C1986 C 0.63886 0.06502 0.2113 0.0
C1987 C 0.63052 0.0668 0.19503 0.0
C1988 C 0.61662 0.09337 0.1754 0.0
C1989 C 0.59638 0.08782 0.12379 0.0
C1990 C 0.60585 0.08661 0.14077 0.0
C1991 C 0.63203 0.08158 0.19078 0.0
C1992 C 0.62316 0.08347 0.17346 0.0
H1993 H 0.56723 0.06435 0.09042 0.0
H1994 H 0.58263 0.06264 0.1186 0.0
H1995 H 0.60301 0.10249 0.16121 0.0
H1996 H 0.65794 0.10291 0.22894 0.0
H1997 H 0.64373 0.10612 0.20025 0.0
C1998 C 0.54427 0.01894 0.42908 0.0
C1999 C 0.54949 0.02484 0.44904 0.0
C2000 C 0.55504 0.02332 0.4129 0.0
C2001 C 0.59447 0.05456 0.39718 0.0
H2002 H 0.5929 0.02328 0.3592 0.0
C2003 C 0.64437 0.06885 0.3391 0.0
C2004 C 0.64001 0.06183 0.31957 0.0
C2005 C 0.6331 0.06444 0.35463 0.0
C2006 C 0.59338 0.03221 0.36948 0.0
H2007 H 0.57031 0.03951 0.46761 0.0
H2008 H 0.58888 0.04727 0.43945 0.0
H2009 H 0.57337 0.01524 0.38649 0.0
H2010 H 0.62044 0.04493 0.30084 0.0
H2011 H 0.60075 0.03751 0.3277 0.0
H2012 H 0.61435 0.07157 0.38015 0.0
C2013 C 0.57644 0.03948 0.43626 0.0
C2014 C 0.58219 0.02758 0.38513 0.0
C2015 C 0.56574 0.03503 0.45242 0.0
C2016 C 0.62417 0.05048 0.31579 0.0
C2017 C 0.61289 0.04614 0.33124 0.0
C2018 C 0.60559 0.05921 0.38145 0.0
C2019 C 0.57121 0.03375 0.41631 0.0
C2020 C 0.58269 0.0387 0.39922 0.0
C2021 C 0.61722 0.05298 0.35091 0.0
C2022 C 0.60524 0.04808 0.36747 0.0
H2023 H 0.53186 0.01118 0.42588 0.0
H2024 H 0.55066 0.0188 0.39763 0.0
H2025 H 0.59501 0.06342 0.40766 0.0
H2026 H 0.65652 0.07759 0.34247 0.0
H2027 H 0.6369 0.0698 0.36967 0.0
C2028 C 0.07592 0.59114 0.42672 0.0
C2029 C 0.06406 0.58204 0.44097 0.0
C2030 C 0.07315 0.59929 0.41108 0.0
C2031 C 0.0408 0.59977 0.3817 0.0
H2032 H 0.0732 0.642 0.367 0.0
C2033 C 0.02917 0.63779 0.32356 0.0
C2034 C 0.04139 0.64714 0.3099 0.0
C2035 C 0.03179 0.62995 0.33978 0.0
C2036 C 0.06407 0.63014 0.37072 0.0
H2037 H 0.03986 0.57432 0.44965 0.0
H2038 H 0.03512 0.58864 0.42263 0.0
H2039 H 0.07813 0.62825 0.39467 0.0
H2040 H 0.06592 0.65547 0.30249 0.0
H2041 H 0.07043 0.64167 0.33045 0.0
H2042 H 0.02678 0.6016 0.35766 0.0
C2043 C 0.04656 0.58941 0.42347 0.0
C2044 C 0.06691 0.62225 0.38663 0.0
C2045 C 0.04936 0.58134 0.43916 0.0
C2046 C 0.05626 0.64842 0.31278 0.0
C2047 C 0.05887 0.64057 0.32894 0.0
C2048 C 0.03798 0.60765 0.36575 0.0
C2049 C 0.0584 0.59848 0.40918 0.0
C2050 C 0.05533 0.60695 0.39232 0.0
C2051 C 0.0467 0.63125 0.34271 0.0
C2052 C 0.04959 0.62293 0.35998 0.0
H2053 H 0.08741 0.59206 0.42772 0.0
H2054 H 0.08251 0.60604 0.40026 0.0
H2055 H 0.03169 0.58791 0.38546 0.0
H2056 H 0.0176 0.63661 0.3218 0.0
H2057 H 0.02218 0.62304 0.35019 0.0
C2058 C 0.50784 0.51319 0.48264 0.0
C2059 C 0.51583 0.52966 0.4805 0.0
C2060 C 0.50077 0.50337 0.46557 0.0
C2061 C 0.49913 0.50334 0.4082 0.0
H2062 H 0.4569 0.468 0.41593 0.0
C2063 C 0.45513 0.47361 0.3412 0.0
C2064 C 0.446 0.4571 0.34108 0.0
C2065 C 0.46466 0.4816 0.35813 0.0
C2066 C 0.46876 0.47769 0.41355 0.0
H2067 H 0.52317 0.54868 0.45854 0.0
H2068 H 0.51073 0.53168 0.42909 0.0
H2069 H 0.47216 0.48333 0.44561 0.0
H2070 H 0.4397 0.43598 0.35859 0.0
H2071 H 0.45626 0.44996 0.38828 0.0
H2072 H 0.49548 0.49796 0.37604 0.0
C2073 C 0.51004 0.52626 0.44381 0.0
C2074 C 0.47756 0.48647 0.43059 0.0
C2075 C 0.51712 0.53605 0.4608 0.0
C2076 C 0.4466 0.44872 0.35824 0.0
C2077 C 0.45603 0.45672 0.37527 0.0
C2078 C 0.4903 0.49464 0.39117 0.0
C2079 C 0.50153 0.50979 0.446 0.0
C2080 C 0.49277 0.49955 0.42811 0.0
C2081 C 0.46516 0.47325 0.3754 0.0
C2082 C 0.47493 0.48185 0.39362 0.0
H2083 H 0.50665 0.50787 0.49758 0.0
H2084 H 0.49453 0.49073 0.46778 0.0
H2085 H 0.51092 0.51313 0.40572 0.0
H2086 H 0.45491 0.4804 0.32821 0.0
H2087 H 0.4714 0.49434 0.35786 0.0
C2088 C 0.70198 0.85982 0.2842 0.0
C2089 C 0.71739 0.86763 0.29239 0.0
C2090 C 0.69802 0.84883 0.26802 0.0
C2091 C 0.71232 0.82426 0.24176 0.0
H2092 H 0.69057 0.82728 0.19356 0.0
C2093 C 0.71914 0.80224 0.16269 0.0
C2094 C 0.70561 0.79355 0.15043 0.0
C2095 C 0.71846 0.80976 0.18065 0.0
C2096 C 0.69649 0.82614 0.20701 0.0
H2097 H 0.74046 0.86952 0.29055 0.0
H2098 H 0.73367 0.85074 0.26291 0.0
H2099 H 0.69255 0.84249 0.22453 0.0
H2100 H 0.68078 0.7862 0.1473 0.0
H2101 H 0.67966 0.7996 0.17865 0.0
H2102 H 0.71675 0.80839 0.22415 0.0
C2103 C 0.72454 0.85288 0.26876 0.0
C2104 C 0.69757 0.83482 0.22479 0.0
C2105 C 0.72848 0.86382 0.2846 0.0
C2106 C 0.69141 0.79279 0.15642 0.0
C2107 C 0.69078 0.80051 0.17433 0.0
C2108 C 0.71134 0.81573 0.22402 0.0
C2109 C 0.70933 0.8453 0.26004 0.0
C2110 C 0.70589 0.83432 0.24223 0.0
C2111 C 0.70427 0.80894 0.1868 0.0
C2112 C 0.70377 0.81685 0.20623 0.0
H2113 H 0.69319 0.86255 0.2898 0.0
H2114 H 0.68616 0.84316 0.26172 0.0
H2115 H 0.71848 0.82325 0.25501 0.0
H2116 H 0.73027 0.80311 0.15854 0.0
H2117 H 0.72914 0.81635 0.18968 0.0
C2118 C 0.24703 0.90665 0.31381 0.0
C2119 C 0.23107 0.9016 0.30976 0.0
C2120 C 0.25791 0.9114 0.29761 0.0
C2121 C 0.2607 0.9097 0.24078 0.0
H2122 H 0.29683 0.95177 0.24596 0.0
C2123 C 0.28934 0.94928 0.17102 0.0
C2124 C 0.30575 0.95948 0.1707 0.0
C2125 C 0.28201 0.94031 0.18843 0.0
C2126 C 0.28699 0.93988 0.24434 0.0
H2127 H 0.21378 0.89668 0.28573 0.0
H2128 H 0.23251 0.90463 0.25771 0.0
H2129 H 0.28087 0.93874 0.27614 0.0
H2130 H 0.32742 0.96806 0.18827 0.0
H2131 H 0.31458 0.95234 0.2188 0.0
H2132 H 0.26645 0.91101 0.2089 0.0
C2133 C 0.23677 0.90502 0.27322 0.0
C2134 C 0.27786 0.9324 0.26166 0.0
C2135 C 0.22603 0.90056 0.28931 0.0
C2136 C 0.31474 0.9603 0.18807 0.0
C2137 C 0.30738 0.95136 0.20558 0.0
C2138 C 0.26982 0.91715 0.22351 0.0
C2139 C 0.25289 0.91084 0.27715 0.0
C2140 C 0.26431 0.91744 0.25991 0.0
C2141 C 0.29091 0.94133 0.20601 0.0
C2142 C 0.28276 0.93254 0.22492 0.0
H2143 H 0.25123 0.90766 0.32947 0.0
H2144 H 0.27027 0.91579 0.30109 0.0
H2145 H 0.25047 0.89806 0.23902 0.0
H2146 H 0.28207 0.9484 0.15791 0.0
H2147 H 0.26928 0.93293 0.18831 0.0
C2148 C 0.18593 0.43814 0.28905 0.0
C2149 C 0.18825 0.42618 0.29736 0.0
C2150 C 0.17691 0.43545 0.27117 0.0
C2151 C 0.15985 0.40759 0.22685 0.0
H2152 H 0.13164 0.42464 0.22278 0.0
C2153 C 0.10762 0.38429 0.1697 0.0
C2154 C 0.10628 0.39565 0.15812 0.0
C2155 C 0.11846 0.38886 0.1859 0.0
C2156 C 0.13958 0.41993 0.22366 0.0
H2157 H 0.18304 0.40205 0.29265 0.0
H2158 H 0.16688 0.39722 0.2625 0.0
H2159 H 0.14916 0.43122 0.25252 0.0
H2160 H 0.1151 0.42067 0.15446 0.0
H2161 H 0.13386 0.42864 0.18313 0.0
H2162 H 0.14976 0.39583 0.19834 0.0
C2163 C 0.17228 0.40881 0.26947 0.0
C2164 C 0.14968 0.42375 0.24063 0.0
C2165 C 0.18141 0.41154 0.28714 0.0
C2166 C 0.11591 0.41167 0.16311 0.0
C2167 C 0.12658 0.41622 0.17954 0.0
C2168 C 0.1496 0.4036 0.21007 0.0
C2169 C 0.16989 0.4207 0.26121 0.0
C2170 C 0.15984 0.41749 0.24256 0.0
C2171 C 0.12799 0.40486 0.19102 0.0
C2172 C 0.13928 0.40963 0.20841 0.0
H2173 H 0.1909 0.44954 0.29643 0.0
H2174 H 0.17549 0.44496 0.26512 0.0
H2175 H 0.16776 0.40285 0.22751 0.0
H2176 H 0.10034 0.37187 0.16617 0.0
H2177 H 0.11925 0.37987 0.19463 0.0
C2178 C 0.14589 0.32672 0.95095 0.0
C2179 C 0.15222 0.33696 0.93414 0.0
C2180 C 0.1389 0.33033 0.96723 0.0
C2181 C 0.13848 0.36404 0.9919 0.0
H2182 H 0.09905 0.3323 0.01576 0.0
C2183 C 0.10303 0.38011 0.04774 0.0
C2184 C 0.09579 0.37012 0.06452 0.0
C2185 C 0.11005 0.37582 0.03227 0.0
C2186 C 0.11018 0.34126 0.00945 0.0
H2187 H 0.1555 0.35872 0.92094 0.0
H2188 H 0.14347 0.36504 0.94925 0.0
H2189 H 0.11096 0.32505 0.98798 0.0
H2190 H 0.09029 0.34785 0.07837 0.0
H2191 H 0.10274 0.34045 0.0515 0.0
H2192 H 0.13777 0.38025 0.01333 0.0
C2193 C 0.14419 0.35437 0.95007 0.0
C2194 C 0.11698 0.3371 0.99353 0.0
C2195 C 0.15112 0.35074 0.93383 0.0
C2196 C 0.09575 0.35578 0.06558 0.0
C2197 C 0.1028 0.35149 0.05012 0.0
C2198 C 0.13171 0.36818 0.00784 0.0
C2199 C 0.13812 0.34429 0.96703 0.0
C2200 C 0.13113 0.34848 0.98446 0.0
C2201 C 0.11001 0.36145 0.03326 0.0
C2202 C 0.11742 0.35688 0.01671 0.0
H2203 H 0.14665 0.31608 0.95177 0.0
H2204 H 0.13442 0.32239 0.98017 0.0
H2205 H 0.14954 0.37302 0.98548 0.0
H2206 H 0.10318 0.39121 0.04647 0.0
H2207 H 0.11529 0.38367 0.01936 0.0
C2208 C 0.69455 0.85413 0.91975 0.0
C2209 C 0.70217 0.85549 0.90097 0.0
C2210 C 0.69878 0.84908 0.93744 0.0
C2211 C 0.71566 0.82484 0.95434 0.0
H2212 H 0.71395 0.84133 0.00789 0.0
C2213 C 0.72324 0.79823 0.03077 0.0
C2214 C 0.71278 0.79643 0.0467 0.0
C2215 C 0.72417 0.80676 0.01302 0.0
C2216 C 0.71437 0.8365 0.99309 0.0
H2217 H 0.72059 0.85298 0.88616 0.0
H2218 H 0.72808 0.84396 0.91737 0.0
H2219 H 0.7126 0.85459 0.97698 0.0
H2220 H 0.69512 0.80226 0.05644 0.0
H2221 H 0.69666 0.81705 0.02561 0.0
H2222 H 0.71708 0.80653 0.97053 0.0
C2223 C 0.71875 0.84686 0.91827 0.0
C2224 C 0.71365 0.84415 0.97532 0.0
C2225 C 0.7146 0.85217 0.90046 0.0
C2226 C 0.70335 0.80346 0.04452 0.0
C2227 C 0.70432 0.81204 0.02685 0.0
C2228 C 0.71639 0.81717 0.97217 0.0
C2229 C 0.71073 0.84507 0.93694 0.0
C2230 C 0.71389 0.83822 0.95568 0.0
C2231 C 0.71471 0.81379 0.01081 0.0
C2232 C 0.71538 0.82269 0.99179 0.0
H2233 H 0.68492 0.8566 0.92069 0.0
H2234 H 0.69217 0.84767 0.95136 0.0
H2235 H 0.71572 0.81985 0.93951 0.0
H2236 H 0.73068 0.79296 0.03195 0.0
H2237 H 0.7324 0.80796 1.00111 0.0
C2238 C 0.21842 0.93 0.93649 0.0
C2239 C 0.21712 0.9164 0.92723 0.0
C2240 C 0.2279 0.93662 0.95397 0.0
C2241 C 0.24738 0.92717 0.99642 0.0
H2242 H 0.2728 0.97256 1.0018 0.0
C2243 C 0.29645 0.9572 0.05796 0.0
C2244 C 0.29726 0.97012 0.06848 0.0
C2245 C 0.2865 0.95071 0.04088 0.0
C2246 C 0.26566 0.95987 1.00061 0.0
H2247 H 0.22466 0.89901 0.92957 0.0
H2248 H 0.24144 0.91077 0.95939 0.0
H2249 H 0.25565 0.96114 0.97186 0.0
H2250 H 0.28837 0.98646 0.06927 0.0
H2251 H 0.27104 0.97517 0.03943 0.0
H2252 H 0.25757 0.92592 0.02504 0.0
C2253 C 0.23499 0.91623 0.95336 0.0
C2254 C 0.25578 0.95331 0.98347 0.0
C2255 C 0.22549 0.90959 0.93599 0.0
C2256 C 0.28801 0.9765 0.06148 0.0
C2257 C 0.27815 0.97009 0.04432 0.0
C2258 C 0.25731 0.93373 0.01348 0.0
C2259 C 0.23633 0.92983 0.96261 0.0
C2260 C 0.24655 0.93687 0.98111 0.0
C2261 C 0.27723 0.95708 0.03386 0.0
C2262 C 0.2666 0.95015 0.01575 0.0
H2263 H 0.21227 0.93565 0.93015 0.0
H2264 H 0.22851 0.947 0.9608 0.0
H2265 H 0.24023 0.91448 0.99535 0.0
H2266 H 0.30346 0.95204 0.06297 0.0
H2267 H 0.2862 0.94081 0.03301 0.0
C2268 C 0.70462 0.90871 0.40478 0.0
C2269 C 0.7176 0.91933 0.39292 0.0
C2270 C 0.70087 0.91377 0.42315 0.0
C2271 C 0.70834 0.95041 0.45075 0.0
H2272 H 0.70036 0.92595 0.50049 0.0
C2273 C 0.71735 0.97891 0.5307 0.0
C2274 C 0.70606 0.97075 0.54596 0.0
C2275 C 0.71696 0.97157 0.51204 0.0
C2276 C 0.70238 0.93285 0.4867 0.0
H2277 H 0.73641 0.94367 0.39081 0.0
H2278 H 0.72998 0.9523 0.42224 0.0
H2279 H 0.70205 0.91481 0.46748 0.0
H2280 H 0.68565 0.94831 0.55368 0.0
H2281 H 0.68507 0.93543 0.52109 0.0
H2282 H 0.70908 0.96857 0.46986 0.0
C2283 C 0.72258 0.94013 0.41757 0.0
C2284 C 0.7033 0.92643 0.46774 0.0
C2285 C 0.72637 0.9351 0.39951 0.0
C2286 C 0.69452 0.95494 0.54223 0.0
C2287 C 0.69422 0.94754 0.52359 0.0
C2288 C 0.70751 0.95682 0.46961 0.0
C2289 C 0.70988 0.92958 0.42979 0.0
C2290 C 0.70667 0.9353 0.44957 0.0
C2291 C 0.70534 0.95583 0.50814 0.0
C2292 C 0.70488 0.94829 0.48792 0.0
H2293 H 0.69767 0.89647 0.40018 0.0
H2294 H 0.69095 0.90533 0.43215 0.0
H2295 H 0.71058 0.95746 0.43706 0.0
H2296 H 0.72642 0.99107 0.53305 0.0
H2297 H 0.72588 0.97826 0.50067 0.0
C2298 C 0.17511 0.87008 0.43166 0.0
C2299 C 0.18596 0.86912 0.41847 0.0
C2300 C 0.16892 0.8601 0.44846 0.0
C2301 C 0.1607 0.82152 0.46797 0.0
H2302 H 0.15024 0.83664 0.51728 0.0
C2303 C 0.12858 0.78237 0.53929 0.0
C2304 C 0.11582 0.78384 0.54653 0.0
C2305 C 0.13869 0.79263 0.52424 0.0
C2306 C 0.15306 0.83223 0.5036 0.0
H2307 H 0.19912 0.85705 0.41297 0.0
H2308 H 0.18832 0.8395 0.44276 0.0
H2309 H 0.16628 0.85529 0.49086 0.0
H2310 H 0.10359 0.7971 0.5436 0.0
H2311 H 0.12133 0.81509 0.51761 0.0
H2312 H 0.14735 0.79839 0.48094 0.0
C2313 C 0.18453 0.848 0.43983 0.0
C2314 C 0.16224 0.84291 0.48842 0.0
C2315 C 0.19082 0.85812 0.42287 0.0
C2316 C 0.11331 0.79566 0.53834 0.0
C2317 C 0.12352 0.80603 0.52355 0.0
C2318 C 0.15161 0.81082 0.48333 0.0
C2319 C 0.1734 0.84882 0.45274 0.0
C2320 C 0.16578 0.83767 0.47012 0.0
C2321 C 0.13638 0.80469 0.51642 0.0
C2322 C 0.14734 0.81604 0.50103 0.0
H2323 H 0.17108 0.87841 0.4288 0.0
H2324 H 0.16018 0.86093 0.45773 0.0
H2325 H 0.1631 0.81704 0.45404 0.0
H2326 H 0.1308 0.77335 0.54531 0.0
H2327 H 0.14852 0.79135 0.51906 0.0
C2328 C 0.23768 0.42822 0.45488 0.0
C2329 C 0.24056 0.42544 0.43458 0.0
C2330 C 0.24492 0.42511 0.47141 0.0
C2331 C 0.27731 0.41675 0.48432 0.0
H2332 H 0.25199 0.39746 0.53273 0.0
C2333 C 0.29559 0.38727 0.54716 0.0
C2334 C 0.29527 0.39222 0.56732 0.0
C2335 C 0.28866 0.3912 0.5311 0.0
C2336 C 0.25921 0.4029 0.51933 0.0
H2337 H 0.25409 0.4181 0.41582 0.0
H2338 H 0.26608 0.41209 0.4444 0.0
H2339 H 0.24107 0.40555 0.50461 0.0
H2340 H 0.28697 0.40465 0.58664 0.0
H2341 H 0.2746 0.41122 0.55866 0.0
H2342 H 0.29527 0.41368 0.49895 0.0
C2343 C 0.2584 0.41684 0.44769 0.0
C2344 C 0.25302 0.40766 0.50327 0.0
C2345 C 0.25131 0.42007 0.43122 0.0
C2346 C 0.28742 0.40069 0.57124 0.0
C2347 C 0.2803 0.40441 0.55525 0.0
C2348 C 0.2834 0.41181 0.50027 0.0
C2349 C 0.25514 0.41909 0.46803 0.0
C2350 C 0.26198 0.41463 0.48552 0.0
C2351 C 0.28106 0.39993 0.53499 0.0
C2352 C 0.27441 0.40483 0.51791 0.0
H2353 H 0.22947 0.43231 0.45808 0.0
H2354 H 0.24235 0.42728 0.48685 0.0
H2355 H 0.28469 0.42234 0.47111 0.0
H2356 H 0.3016 0.38077 0.54371 0.0
H2357 H 0.28929 0.38749 0.51561 0.0
C2358 C 0.2028 0.32534 0.78423 0.0
C2359 C 0.20928 0.33245 0.80332 0.0
C2360 C 0.21242 0.32907 0.76686 0.0
C2361 C 0.249 0.36138 0.7464 0.0
H2362 H 0.24786 0.33066 0.70778 0.0
C2363 C 0.29525 0.37921 0.68258 0.0
C2364 C 0.29033 0.37176 0.66338 0.0
C2365 C 0.28501 0.3739 0.69932 0.0
C2366 C 0.24817 0.33941 0.71825 0.0
H2367 H 0.23112 0.34813 0.81935 0.0
H2368 H 0.24774 0.35479 0.7891 0.0
H2369 H 0.23045 0.3218 0.73761 0.0
H2370 H 0.27081 0.35298 0.64653 0.0
H2371 H 0.25276 0.34394 0.67561 0.0
H2372 H 0.26641 0.37903 0.72706 0.0
C2373 C 0.23521 0.34657 0.78749 0.0
C2374 C 0.23823 0.33431 0.73535 0.0
C2375 C 0.22566 0.34277 0.80481 0.0
C2376 C 0.27494 0.35892 0.66119 0.0
C2377 C 0.26464 0.35368 0.6779 0.0
C2378 C 0.25879 0.36649 0.72925 0.0
C2379 C 0.22865 0.34003 0.76827 0.0
C2380 C 0.2387 0.34525 0.74971 0.0
C2381 C 0.26955 0.36109 0.6972 0.0
C2382 C 0.25865 0.35558 0.71506 0.0
H2383 H 0.19023 0.31741 0.78252 0.0
H2384 H 0.20706 0.32388 0.75219 0.0
H2385 H 0.24938 0.3701 0.75703 0.0
H2386 H 0.30709 0.38906 0.68475 0.0
H2387 H 0.28932 0.37972 0.71401 0.0
C2388 C 0.71089 0.90269 0.78442 0.0
C2389 C 0.69533 0.89104 0.7891 0.0
C2390 C 0.71405 0.91197 0.76661 0.0
C2391 C 0.69572 0.91278 0.71622 0.0
H2392 H 0.72355 0.95798 0.71893 0.0
C2393 C 0.69196 0.95464 0.65717 0.0
C2394 C 0.70613 0.96704 0.64944 0.0
C2395 C 0.69213 0.94546 0.67355 0.0
C2396 C 0.71586 0.94535 0.71785 0.0
H2397 H 0.67101 0.87988 0.77836 0.0
H2398 H 0.67641 0.89583 0.74809 0.0
H2399 H 0.72172 0.94164 0.74841 0.0
H2400 H 0.73159 0.97963 0.65309 0.0
H2401 H 0.73185 0.96368 0.68188 0.0
H2402 H 0.68951 0.91646 0.68599 0.0
C2403 C 0.68629 0.89783 0.75777 0.0
C2404 C 0.71486 0.93596 0.73474 0.0
C2405 C 0.68316 0.88871 0.7754 0.0
C2406 C 0.72046 0.97014 0.65865 0.0
C2407 C 0.72062 0.96105 0.67522 0.0
C2408 C 0.69663 0.92213 0.69949 0.0
C2409 C 0.70173 0.90964 0.75306 0.0
C2410 C 0.70449 0.91956 0.73433 0.0
C2411 C 0.70645 0.94852 0.6828 0.0
C2412 C 0.70646 0.93857 0.7002 0.0
H2413 H 0.72052 0.90485 0.79467 0.0
H2414 H 0.72611 0.92092 0.76343 0.0
H2415 H 0.68791 0.90017 0.71506 0.0
H2416 H 0.68072 0.95196 0.65048 0.0
H2417 H 0.68097 0.93604 0.67915 0.0
C2418 C 0.15841 0.86617 0.77303 0.0
C2419 C 0.16144 0.86004 0.7909 0.0
C2420 C 0.15231 0.85685 0.75536 0.0
C2421 C 0.13149 0.81521 0.73734 0.0
H2422 H 0.1472 0.83408 0.68407 0.0
C2423 C 0.11541 0.77818 0.66246 0.0
C2424 C 0.1112 0.7842 0.64552 0.0
C2425 C 0.12201 0.78742 0.68012 0.0
C2426 C 0.14261 0.82866 0.69882 0.0
H2427 H 0.15994 0.83902 0.80417 0.0
H2428 H 0.14976 0.82299 0.77333 0.0
H2429 H 0.15742 0.85014 0.71505 0.0
H2430 H 0.11086 0.8047 0.63365 0.0
H2431 H 0.12238 0.82078 0.66434 0.0
H2432 H 0.11674 0.79371 0.72105 0.0
C2433 C 0.15194 0.83497 0.773 0.0
C2434 C 0.14843 0.83788 0.7166 0.0
C2435 C 0.15799 0.84426 0.79067 0.0
C2436 C 0.114 0.79973 0.64644 0.0
C2437 C 0.12068 0.80898 0.664 0.0
C2438 C 0.12573 0.80598 0.71956 0.0
C2439 C 0.14909 0.84115 0.75506 0.0
C2440 C 0.14291 0.8313 0.73611 0.0
C2441 C 0.12464 0.8029 0.68113 0.0
C2442 C 0.13117 0.8126 0.70008 0.0
H2443 H 0.16099 0.87826 0.77251 0.0
H2444 H 0.15005 0.86195 0.74193 0.0
H2445 H 0.12678 0.80979 0.75205 0.0
H2446 H 0.1134 0.76626 0.66221 0.0
H2447 H 0.1251 0.78245 0.69296 0.0
C2448 C 0.39189 0.19141 0.64147 0.0
C2449 C 0.38219 0.19789 0.64554 0.0
C2450 C 0.3888 0.18126 0.62488 0.0
C2451 C 0.37018 0.17216 0.57368 0.0
H2452 H 0.38236 0.14005 0.57497 0.0
C2453 C 0.36928 0.13583 0.5017 0.0
C2454 C 0.38303 0.13482 0.49894 0.0
C2455 C 0.36696 0.14212 0.51987 0.0
C2456 C 0.37894 0.14901 0.57434 0.0
H2457 H 0.36117 0.19827 0.63591 0.0
H2458 H 0.35554 0.18021 0.60662 0.0
H2459 H 0.38077 0.15215 0.60694 0.0
H2460 H 0.40512 0.13962 0.5131 0.0
H2461 H 0.40099 0.15038 0.54485 0.0
H2462 H 0.36845 0.16896 0.54093 0.0
C2463 C 0.36568 0.18315 0.61632 0.0
C2464 C 0.37802 0.15596 0.59268 0.0
C2465 C 0.36875 0.19333 0.63321 0.0
C2466 C 0.39441 0.14024 0.51473 0.0
C2467 C 0.39199 0.14631 0.53298 0.0
C2468 C 0.37094 0.16506 0.5553 0.0
C2469 C 0.37589 0.17726 0.61171 0.0
C2470 C 0.37411 0.168 0.59258 0.0
C2471 C 0.37823 0.14729 0.53582 0.0
C2472 C 0.37578 0.15372 0.55538 0.0
H2473 H 0.40234 0.19472 0.65072 0.0
H2474 H 0.39709 0.17722 0.62179 0.0
H2475 H 0.36727 0.18147 0.57293 0.0
H2476 H 0.3603 0.13175 0.48981 0.0
H2477 H 0.35623 0.14266 0.52161 0.0
C2478 C 0.9285 0.23749 0.63198 0.0
C2479 C 0.9263 0.22217 0.63258 0.0
C2480 C 0.93628 0.24747 0.61555 0.0
C2481 C 0.94642 0.24696 0.5612 0.0
H2482 H 0.97388 0.29176 0.57035 0.0
C2483 C 0.97987 0.29067 0.49522 0.0
C2484 C 0.97991 0.30503 0.49573 0.0
C2485 C 0.97421 0.28037 0.51192 0.0
C2486 C 0.96615 0.27929 0.56752 0.0
H2487 H 0.93085 0.20547 0.61647 0.0
H2488 H 0.94469 0.22304 0.5878 0.0
H2489 H 0.96293 0.27419 0.59965 0.0
H2490 H 0.97399 0.31984 0.51407 0.0
H2491 H 0.96403 0.30187 0.54313 0.0
H2492 H 0.94956 0.25214 0.52903 0.0
C2493 C 0.9402 0.22722 0.6 0.0
C2494 C 0.95987 0.26922 0.58432 0.0
C2495 C 0.93241 0.21721 0.61653 0.0
C2496 C 0.97415 0.30888 0.51324 0.0
C2497 C 0.96855 0.29862 0.52995 0.0
C2498 C 0.95273 0.25706 0.54438 0.0
C2499 C 0.94212 0.24244 0.59926 0.0
C2500 C 0.94975 0.25295 0.58138 0.0
C2501 C 0.96853 0.28425 0.52952 0.0
C2502 C 0.96249 0.27337 0.54734 0.0
H2503 H 0.92416 0.24179 0.64422 0.0
H2504 H 0.93739 0.25904 0.61541 0.0
H2505 H 0.93851 0.23453 0.55837 0.0
H2506 H 0.98426 0.2874 0.48193 0.0
H2507 H 0.97447 0.26946 0.51117 0.0
C2508 C 0.86478 0.75708 0.615 0.0
C2509 C 0.85918 0.74481 0.62941 0.0
C2510 C 0.85614 0.75548 0.59705 0.0
C2511 C 0.81616 0.73223 0.57412 0.0
H2512 H 0.83837 0.74445 0.52221 0.0
C2513 C 0.78305 0.71291 0.49688 0.0
C2514 C 0.78783 0.72438 0.48147 0.0
C2515 C 0.79216 0.7158 0.51467 0.0
C2516 C 0.83202 0.74113 0.5366 0.0
H2517 H 0.83981 0.72157 0.63671 0.0
H2518 H 0.82494 0.71869 0.60544 0.0
H2519 H 0.8533 0.74945 0.55419 0.0
H2520 H 0.80608 0.74771 0.47234 0.0
H2521 H 0.82196 0.75277 0.50344 0.0
H2522 H 0.79488 0.7238 0.55658 0.0
C2523 C 0.83595 0.72957 0.60795 0.0
C2524 C 0.84057 0.74404 0.55493 0.0
C2525 C 0.84457 0.73114 0.62578 0.0
C2526 C 0.80211 0.73862 0.48394 0.0
C2527 C 0.81124 0.74151 0.50172 0.0
C2528 C 0.80762 0.72931 0.55583 0.0
C2529 C 0.84168 0.74164 0.59326 0.0
C2530 C 0.83273 0.73948 0.57388 0.0
C2531 C 0.80624 0.73022 0.51742 0.0
C2532 C 0.81543 0.73359 0.53684 0.0
H2533 H 0.87602 0.76771 0.61731 0.0
H2534 H 0.86079 0.76506 0.58613 0.0
H2535 H 0.80978 0.72883 0.58848 0.0
H2536 H 0.77212 0.70181 0.49538 0.0
H2537 H 0.78812 0.70675 0.52633 0.0
C2538 C 0.80979 0.68581 0.23575 0.0
C2539 C 0.81096 0.67222 0.23267 0.0
C2540 C 0.80342 0.68789 0.25382 0.0
C2541 C 0.79597 0.67521 0.30789 0.0
H2542 H 0.77168 0.69669 0.3068 0.0
C2543 C 0.76955 0.68792 0.3808 0.0
C2544 C 0.77201 0.70331 0.38216 0.0
C2545 C 0.7733 0.68271 0.36275 0.0
C2546 C 0.7785 0.69073 0.30735 0.0
H2547 H 0.80595 0.64997 0.2461 0.0
H2548 H 0.79447 0.65346 0.27757 0.0
H2549 H 0.77923 0.68961 0.27461 0.0
H2550 H 0.78051 0.72535 0.36585 0.0
H2551 H 0.78698 0.71626 0.33449 0.0
H2552 H 0.79521 0.67643 0.34074 0.0
C2553 C 0.79874 0.66262 0.26606 0.0
C2554 C 0.78285 0.68669 0.28891 0.0
C2555 C 0.80515 0.66053 0.24791 0.0
C2556 C 0.77844 0.71342 0.36527 0.0
C2557 C 0.78205 0.70818 0.34725 0.0
C2558 C 0.7915 0.67917 0.32638 0.0
C2559 C 0.79793 0.6764 0.26929 0.0
C2560 C 0.79193 0.67919 0.28893 0.0
C2561 C 0.77941 0.69274 0.34571 0.0
C2562 C 0.78301 0.68727 0.32627 0.0
H2563 H 0.81392 0.69494 0.22422 0.0
H2564 H 0.80317 0.69875 0.25585 0.0
H2565 H 0.80309 0.66958 0.30848 0.0
H2566 H 0.7646 0.67988 0.39358 0.0
H2567 H 0.77112 0.67073 0.36197 0.0
C2568 C 0.37575 0.20151 0.27237 0.0
C2569 C 0.38008 0.20032 0.25218 0.0
C2570 C 0.38123 0.19659 0.289 0.0
C2571 C 0.39391 0.16838 0.3025 0.0
H2572 H 0.40343 0.19004 0.35503 0.0
C2573 C 0.40414 0.14157 0.37685 0.0
C2574 C 0.39673 0.14286 0.39464 0.0
C2575 C 0.40495 0.14999 0.35904 0.0
C2576 C 0.40072 0.18377 0.34052 0.0
H2577 H 0.39395 0.1934 0.23359 0.0
H2578 H 0.40355 0.18456 0.26291 0.0
H2579 H 0.40052 0.20275 0.3245 0.0
H2580 H 0.38456 0.15421 0.40773 0.0
H2581 H 0.38585 0.16876 0.37684 0.0
H2582 H 0.39359 0.14917 0.31867 0.0
C2583 C 0.3959 0.1894 0.26577 0.0
C2584 C 0.39911 0.1911 0.32297 0.0
C2585 C 0.39055 0.1946 0.24901 0.0
C2586 C 0.39041 0.15299 0.39433 0.0
C2587 C 0.39125 0.16142 0.3766 0.0
C2588 C 0.39548 0.16101 0.3201 0.0
C2589 C 0.3911 0.19015 0.28596 0.0
C2590 C 0.39528 0.18335 0.30382 0.0
C2591 C 0.39842 0.15997 0.35863 0.0
C2592 C 0.39851 0.16845 0.33946 0.0
H2593 H 0.36767 0.20584 0.27531 0.0
H2594 H 0.37712 0.19718 0.30423 0.0
H2595 H 0.39081 0.162 0.28805 0.0
H2596 H 0.40912 0.13386 0.37657 0.0
H2597 H 0.41069 0.14869 0.34559 0.0
C2598 C 0.86948 0.24381 0.29139 0.0
C2599 C 0.87551 0.24327 0.27201 0.0
C2600 C 0.8797 0.25138 0.30795 0.0
C2601 C 0.91985 0.26411 0.32689 0.0
H2602 H 0.91438 0.294 0.35998 0.0
C2603 C 0.96813 0.30661 0.38298 0.0
C2604 C 0.9635 0.3102 0.40168 0.0
C2605 C 0.95692 0.29794 0.36784 0.0
C2606 C 0.91596 0.28551 0.35112 0.0
H2607 H 0.89693 0.2499 0.25497 0.0
H2608 H 0.91474 0.26305 0.28384 0.0
H2609 H 0.8955 0.27945 0.33258 0.0
H2610 H 0.9435 0.30744 0.4193 0.0
H2611 H 0.92384 0.29197 0.39306 0.0
H2612 H 0.94017 0.26999 0.34542 0.0
C2613 C 0.90213 0.25766 0.28622 0.0
C2614 C 0.90514 0.2772 0.33539 0.0
C2615 C 0.89194 0.25026 0.26964 0.0
C2616 C 0.94742 0.3049 0.40499 0.0
C2617 C 0.93617 0.29611 0.38989 0.0
C2618 C 0.93057 0.2723 0.34271 0.0
C2619 C 0.89614 0.25837 0.30554 0.0
C2620 C 0.90708 0.26656 0.32296 0.0
C2621 C 0.94078 0.29251 0.3711 0.0
C2622 C 0.92889 0.28326 0.35488 0.0
H2623 H 0.85689 0.23862 0.29363 0.0
H2624 H 0.87475 0.25166 0.3227 0.0
H2625 H 0.92151 0.2558 0.31776 0.0
H2626 H 0.98045 0.31062 0.37993 0.0
H2627 H 0.96097 0.29568 0.35345 0.0
C2628 C 0.37151 0.24026 0.75754 0.0
C2629 C 0.3845 0.25045 0.74539 0.0
C2630 C 0.36793 0.2459 0.7755 0.0
C2631 C 0.37537 0.28312 0.8009 0.0
H2632 H 0.36937 0.26084 0.85219 0.0
C2633 C 0.3857 0.31467 0.87878 0.0
C2634 C 0.37531 0.30676 0.89501 0.0
C2635 C 0.38491 0.30675 0.86051 0.0
C2636 C 0.3708 0.26712 0.83797 0.0
H2637 H 0.40348 0.27461 0.74219 0.0
H2638 H 0.39723 0.28428 0.77293 0.0
H2639 H 0.37047 0.24858 0.81986 0.0
H2640 H 0.35604 0.28421 0.90482 0.0
H2641 H 0.35466 0.27034 0.87286 0.0
H2642 H 0.37602 0.30176 0.81884 0.0
C2643 C 0.38977 0.272 0.76882 0.0
C2644 C 0.37139 0.26006 0.81942 0.0
C2645 C 0.39343 0.26639 0.7512 0.0
C2646 C 0.36422 0.29065 0.89261 0.0
C2647 C 0.36348 0.28268 0.87432 0.0
C2648 C 0.37479 0.29014 0.81934 0.0
C2649 C 0.37709 0.26186 0.78136 0.0
C2650 C 0.37409 0.26816 0.80071 0.0
C2651 C 0.37373 0.29067 0.85794 0.0
C2652 C 0.37289 0.28243 0.8382 0.0
H2653 H 0.36445 0.22791 0.75351 0.0
H2654 H 0.35803 0.23779 0.78481 0.0
H2655 H 0.37714 0.28957 0.78674 0.0
H2656 H 0.39442 0.32706 0.88012 0.0
H2657 H 0.3932 0.31323 0.84841 0.0
C2658 C 0.86055 0.15446 0.77354 0.0
C2659 C 0.8603 0.16621 0.76144 0.0
C2660 C 0.84988 0.1475 0.7897 0.0
C2661 C 0.82307 0.15366 0.82394 0.0
H2662 H 0.804 0.10873 0.83306 0.0
C2663 C 0.7717 0.11989 0.88116 0.0
C2664 C 0.77256 0.10862 0.89358 0.0
C2665 C 0.7823 0.12697 0.86494 0.0
C2666 C 0.80933 0.12132 0.83084 0.0
H2667 H 0.8487 0.18003 0.75729 0.0
H2668 H 0.82994 0.16767 0.78497 0.0
H2669 H 0.82281 0.12099 0.8052 0.0
H2670 H 0.7852 0.09595 0.89874 0.0
H2671 H 0.80366 0.1083 0.87058 0.0
H2672 H 0.80951 0.15394 0.84955 0.0
C2673 C 0.83849 0.16392 0.78214 0.0
C2674 C 0.82015 0.12836 0.81488 0.0
C2675 C 0.84916 0.17088 0.76602 0.0
C2676 C 0.78419 0.10456 0.88942 0.0
C2677 C 0.79472 0.11157 0.87319 0.0
C2678 C 0.81221 0.1466 0.83986 0.0
C2679 C 0.83868 0.15212 0.79418 0.0
C2680 C 0.82719 0.14463 0.81124 0.0
C2681 C 0.79392 0.12287 0.86075 0.0
C2682 C 0.80524 0.13035 0.84355 0.0
H2683 H 0.86886 0.15048 0.77041 0.0
H2684 H 0.8505 0.13858 0.7988 0.0
H2685 H 0.82843 0.16625 0.82179 0.0
H2686 H 0.76285 0.12325 0.88397 0.0
H2687 H 0.78127 0.13552 0.85552 0.0
C2688 C 0.9198 0.74539 0.77521 0.0
C2689 C 0.91159 0.73367 0.7603 0.0
C2690 C 0.92853 0.74318 0.79063 0.0
C2691 C 0.9474 0.71943 0.80302 0.0
H2692 H 0.94579 0.73176 0.85919 0.0
C2693 C 0.97112 0.69978 0.87161 0.0
C2694 C 0.97918 0.71088 0.88722 0.0
C2695 C 0.9635 0.7031 0.8558 0.0
C2696 C 0.94653 0.72842 0.84353 0.0
H2697 H 0.90573 0.71019 0.75039 0.0
H2698 H 0.92086 0.70636 0.77713 0.0
H2699 H 0.93134 0.73671 0.83236 0.0
H2700 H 0.98579 0.73427 0.89837 0.0
H2701 H 0.97263 0.74011 0.87072 0.0
H2702 H 0.96249 0.71104 0.81421 0.0
C2703 C 0.92087 0.71742 0.77668 0.0
C2704 C 0.93825 0.73128 0.82815 0.0
C2705 C 0.91218 0.71963 0.76131 0.0
C2706 C 0.97964 0.72544 0.88658 0.0
C2707 C 0.97201 0.72876 0.87081 0.0
C2708 C 0.95566 0.71657 0.81839 0.0
C2709 C 0.92922 0.72918 0.79147 0.0
C2710 C 0.9385 0.72672 0.80774 0.0
C2711 C 0.96376 0.71759 0.8553 0.0
C2712 C 0.95526 0.72096 0.83885 0.0
H2713 H 0.9197 0.75639 0.77476 0.0
H2714 H 0.93495 0.75254 0.80169 0.0
H2715 H 0.94807 0.71602 0.78739 0.0
H2716 H 0.97053 0.68843 0.87173 0.0
H2717 H 0.9571 0.69417 0.84421 0.0
C2718 C 0.87051 0.67171 0.08452 0.0
C2719 C 0.87527 0.679 0.10391 0.0
C2720 C 0.88171 0.67386 0.06965 0.0
C2721 C 0.9229 0.70087 0.05455 0.0
H2722 H 0.91819 0.66515 0.02301 0.0
C2723 C 0.97176 0.70519 1.00027 0.0
C2724 C 0.96686 0.69671 0.98172 0.0
C2725 C 0.96067 0.7032 0.01525 0.0
C2726 C 0.91959 0.6753 0.03148 0.0
H2727 H 0.89572 0.69397 0.12288 0.0
H2728 H 0.91513 0.69785 0.09692 0.0
H2729 H 0.89855 0.66128 0.04877 0.0
H2730 H 0.94653 0.67974 0.96413 0.0
H2731 H 0.92722 0.67653 0.98996 0.0
H2732 H 0.94385 0.71493 0.03715 0.0
C2733 C 0.90271 0.69064 0.09315 0.0
C2734 C 0.90833 0.67306 0.04627 0.0
C2735 C 0.89154 0.68842 0.10804 0.0
C2736 C 0.95068 0.68637 0.97834 0.0
C2737 C 0.93961 0.68445 0.99323 0.0
C2738 C 0.93412 0.70313 0.03967 0.0
C2739 C 0.89793 0.68341 0.07378 0.0
C2740 C 0.90986 0.68581 0.05798 0.0
C2741 C 0.94446 0.69274 0.01194 0.0
C2742 C 0.93261 0.69037 0.02793 0.0
H2743 H 0.85812 0.66454 0.08067 0.0
H2744 H 0.87765 0.66827 0.05478 0.0
H2745 H 0.9243 0.71096 0.06316 0.0
H2746 H 0.98417 0.71321 1.00332 0.0
H2747 H 0.96485 0.70965 0.02957 0.0
C2748 C 0.38243 0.24237 0.13488 0.0
C2749 C 0.36683 0.23229 0.14137 0.0
C2750 C 0.38537 0.25098 0.1165 0.0
C2751 C 0.36541 0.2518 0.06775 0.0
H2752 H 0.39654 0.29626 0.06652 0.0
C2753 C 0.3629 0.29341 0.00733 0.0
C2754 C 0.37708 0.30478 0.99831 0.0
C2755 C 0.36306 0.28443 0.02396 0.0
C2756 C 0.38792 0.28381 0.06652 0.0
H2757 H 0.34217 0.22318 0.13331 0.0
H2758 H 0.34724 0.23798 0.10194 0.0
H2759 H 0.39473 0.2806 0.09675 0.0
H2760 H 0.40258 0.31574 0.99985 0.0
H2761 H 0.40285 0.30011 0.02902 0.0
H2762 H 0.35831 0.25501 0.03784 0.0
C2763 C 0.35727 0.23925 0.1107 0.0
C2764 C 0.38692 0.27482 0.08384 0.0
C2765 C 0.35436 0.23081 0.12891 0.0
C2766 C 0.39144 0.30705 0.00643 0.0
C2767 C 0.39161 0.29815 0.02322 0.0
C2768 C 0.36635 0.26077 0.05056 0.0
C2769 C 0.37277 0.2495 0.10418 0.0
C2770 C 0.37539 0.25875 0.08487 0.0
C2771 C 0.3774 0.28666 0.03213 0.0
C2772 C 0.37739 0.27696 0.04986 0.0
H2773 H 0.39231 0.24383 0.14415 0.0
H2774 H 0.39748 0.25873 0.11191 0.0
H2775 H 0.35664 0.23939 0.06773 0.0
H2776 H 0.35163 0.29139 1.00152 0.0
H2777 H 0.3519 0.27585 0.0306 0.0
C2778 C 0.81951 0.18862 0.12694 0.0
C2779 C 0.8298 0.18553 0.13851 0.0
C2780 C 0.81241 0.18002 0.10903 0.0
C2781 C 0.80391 0.14299 0.08162 0.0
H2782 H 0.79355 0.16225 0.03679 0.0
C2783 C 0.7791 0.1293 0.99195 0.0
C2784 C 0.76808 0.11318 0.99372 0.0
C2785 C 0.78725 0.13817 0.00925 0.0
C2786 C 0.79654 0.15669 0.04898 0.0
H2787 H 0.84121 0.17148 0.14015 0.0
H2788 H 0.82948 0.15694 0.10846 0.0
H2789 H 0.80722 0.17788 0.0668 0.0
H2790 H 0.75682 0.09371 0.01496 0.0
H2791 H 0.77044 0.10923 0.04527 0.0
H2792 H 0.79399 0.12204 0.06336 0.0
C2793 C 0.82631 0.16554 0.1135 0.0
C2794 C 0.80417 0.16563 0.06646 0.0
C2795 C 0.83315 0.17393 0.13161 0.0
C2796 C 0.76536 0.10609 0.01312 0.0
C2797 C 0.77328 0.11502 0.03049 0.0
C2798 C 0.79654 0.13413 0.06399 0.0
C2799 C 0.81568 0.16831 0.10204 0.0
C2800 C 0.80788 0.15889 0.08313 0.0
C2801 C 0.78434 0.13121 0.02884 0.0
C2802 C 0.79262 0.1408 0.04745 0.0
H2803 H 0.81659 0.19737 0.13211 0.0
H2804 H 0.80408 0.18234 0.10096 0.0
H2805 H 0.80629 0.13723 0.09417 0.0
H2806 H 0.7815 0.13505 0.97714 0.0
H2807 H 0.7959 0.15048 0.00717 0.0
loop_
_geom_bond_atom_site_label_1
_geom_bond_atom_site_label_2
_geom_bond_distance
_geom_bond_site_symmetry_2
_ccdc_geom_bond_type
Cu0 N1 1.999 . S
Cu0 O6 1.974 1_554 S
Cu0 N11 1.985 1_554 S
Cu0 O20 1.959 . S
N1 Cu0 1.999 . S
N1 C3 1.263 . S
N1 C5 1.389 . S
N2 C3 1.358 . S
N2 C4 1.400 . S
C3 N1 1.263 . S
C3 N2 1.358 . S
C3 H9 0.930 1_455 S
C4 N2 1.400 . S
C4 C5 1.351 . S
C4 H21 0.930 . S
C5 N1 1.389 . S
C5 C4 1.351 . S
C5 H10 0.930 . S
O6 Cu0 1.974 1_556 S
O6 C16 1.282 1_455 S
C7 O8 1.261 1_455 S
C7 O20 1.251 . S
O8 C7 1.261 1_655 S
H9 C3 0.930 1_655 S
H10 C5 0.930 . S
N11 Cu0 1.985 1_556 S
N11 C13 1.335 . S
N11 C14 1.390 1_455 S
N12 C13 1.345 . S
N12 C15 1.336 1_455 S
C13 N11 1.335 . S
C13 N12 1.345 . S
C13 H18 0.930 . S
C14 N11 1.390 1_655 S
C14 C15 1.346 . S
C14 H19 0.930 . S
C15 N12 1.336 1_655 S
C15 C14 1.346 . S
C15 H22 0.929 . S
C16 O6 1.282 1_655 S
C16 O17 1.216 . S
O17 C16 1.216 . S
H18 C13 0.930 . S
H19 C14 0.930 . S
O20 Cu0 1.959 . S
O20 C7 1.251 . S
H21 C4 0.930 . S
H22 C15 0.929 . S
Cu23 N24 1.999 1_554 S
Cu23 O29 1.974 . S
Cu23 N34 1.985 . S
Cu23 O43 1.973 . S
N24 Cu23 1.999 1_556 S
N24 C26 1.263 . S
N24 C28 1.389 . S
N25 C26 1.358 . S
N25 C27 1.400 . S
C26 N24 1.263 . S
C26 N25 1.358 . S
C26 H32 0.930 . S
C27 N25 1.400 . S
C27 C28 1.351 . S
C27 H44 0.930 . S
C28 N24 1.389 . S
C28 C27 1.351 . S
C28 H33 0.930 . S
O29 Cu23 1.974 . S
O29 C39 1.282 . S
C30 O31 1.262 . S
C30 O43 1.251 . S
O31 C30 1.262 . S
H32 C26 0.930 . S
H33 C28 0.930 . S
N34 Cu23 1.985 . S
N34 C36 1.335 . S
N34 C37 1.390 . S
N35 C36 1.345 . S
N35 C38 1.336 . S
C36 N34 1.335 . S
C36 N35 1.345 . S
C36 H41 0.930 . S
C37 N34 1.390 . S
C37 C38 1.346 . S
C37 H42 0.930 . S
C38 N35 1.336 . S
C38 C37 1.346 . S
C38 H45 0.929 . S
C39 O29 1.282 . S
C39 O40 1.216 . S
O40 C39 1.216 . S
H41 C36 0.930 . S
H42 C37 0.930 . S
O43 Cu23 1.973 . S
O43 C30 1.251 . S
H44 C27 0.930 . S
H45 C38 0.929 . S
Cu46 N47 1.999 1_554 S
Cu46 O52 1.974 . S
Cu46 N57 1.985 . S
Cu46 O66 1.959 . S
N47 Cu46 1.999 1_556 S
N47 C49 1.263 . S
N47 C51 1.389 . S
N48 C49 1.358 . S
N48 C50 1.400 . S
C49 N47 1.263 . S
C49 N48 1.358 . S
C49 H55 0.930 . S
C50 N48 1.400 . S
C50 C51 1.351 . S
C50 H67 0.930 . S
C51 N47 1.389 . S
C51 C50 1.351 . S
C51 H56 0.930 . S
O52 Cu46 1.974 . S
O52 C62 1.282 . S
C53 O54 1.261 . S
C53 O66 1.251 . S
O54 C53 1.261 . S
H55 C49 0.930 . S
H56 C51 0.930 . S
N57 Cu46 1.985 . S
N57 C59 1.335 . S
N57 C60 1.390 . S
N58 C59 1.345 . S
N58 C61 1.336 . S
C59 N57 1.335 . S
C59 N58 1.345 . S
C59 H64 0.930 . S
C60 N57 1.390 . S
C60 C61 1.346 . S
C60 H65 0.930 . S
C61 N58 1.336 . S
C61 C60 1.346 . S
C61 H68 0.929 . S
C62 O52 1.282 . S
C62 O63 1.216 . S
O63 C62 1.216 . S
H64 C59 0.930 . S
H65 C60 0.930 . S
O66 Cu46 1.959 . S
O66 C53 1.251 . S
H67 C50 0.930 . S
H68 C61 0.929 . S
Cu69 N70 1.999 . S
Cu69 O75 1.974 . S
Cu69 N80 1.985 . S
Cu69 O89 1.959 . S
N70 Cu69 1.999 . S
N70 C72 1.263 . S
N70 C74 1.389 . S
N71 C72 1.358 . S
N71 C73 1.400 . S
C72 N70 1.263 . S
C72 N71 1.358 . S
C72 H78 0.930 . S
C73 N71 1.400 . S
C73 C74 1.351 . S
C73 H90 0.930 . S
C74 N70 1.389 . S
C74 C73 1.351 . S
C74 H79 0.930 . S
O75 Cu69 1.974 . S
O75 C85 1.282 . S
C76 O77 1.261 . S
C76 O89 1.251 . S
O77 C76 1.261 . S
H78 C72 0.930 . S
H79 C74 0.930 . S
N80 Cu69 1.985 . S
N80 C82 1.335 . S
N80 C83 1.390 . S
N81 C82 1.345 . S
N81 C84 1.336 . S
C82 N80 1.335 . S
C82 N81 1.345 . S
C82 H87 0.930 . S
C83 N80 1.390 . S
C83 C84 1.346 . S
C83 H88 0.930 . S
C84 N81 1.336 . S
C84 C83 1.346 . S
C84 H91 0.929 . S
C85 O75 1.282 . S
C85 O86 1.216 1_545 S
O86 C85 1.216 1_565 S
H87 C82 0.930 . S
H88 C83 0.930 . S
O89 Cu69 1.959 . S
O89 C76 1.251 . S
H90 C73 0.930 . S
H91 C84 0.929 . S
Cu92 N93 1.999 . S
Cu92 O98 1.974 . S
Cu92 N103 1.985 . S
Cu92 O112 1.959 . S
N93 Cu92 1.999 . S
N93 C95 1.263 . S
N93 C97 1.389 . S
N94 C95 1.358 . S
N94 C96 1.400 . S
C95 N93 1.263 . S
C95 N94 1.358 . S
C95 H101 0.930 . S
C96 N94 1.400 . S
C96 C97 1.351 . S
C96 H113 0.930 . S
C97 N93 1.389 . S
C97 C96 1.351 . S
C97 H102 0.930 . S
O98 Cu92 1.974 . S
O98 C108 1.282 . S
C99 O100 1.261 . S
C99 O112 1.251 . S
O100 C99 1.261 . S
H101 C95 0.930 . S
H102 C97 0.930 . S
N103 Cu92 1.985 . S
N103 C105 1.335 . S
N103 C106 1.390 . S
N104 C105 1.345 . S
N104 C107 1.336 . S
C105 N103 1.335 . S
C105 N104 1.345 . S
C105 H110 0.930 . S
C106 N103 1.390 . S
C106 C107 1.346 . S
C106 H111 0.930 . S
C107 N104 1.336 . S
C107 C106 1.346 . S
C107 H114 0.929 . S
C108 O98 1.282 . S
C108 O109 1.216 . S
O109 C108 1.216 . S
H110 C105 0.930 . S
H111 C106 0.930 . S
O112 Cu92 1.959 . S
O112 C99 1.251 . S
H113 C96 0.930 . S
H114 C107 0.929 . S
Cu115 N116 1.999 . S
Cu115 O121 1.974 . S
Cu115 N126 1.985 . S
Cu115 O135 1.959 . S
N116 Cu115 1.999 . S
N116 C118 1.263 . S
N116 C120 1.389 . S
N117 C118 1.358 . S
N117 C119 1.400 . S
C118 N116 1.263 . S
C118 N117 1.358 . S
C118 H124 0.930 . S
C119 N117 1.400 . S
C119 C120 1.351 . S
C119 H136 0.930 . S
C120 N116 1.389 . S
C120 C119 1.351 . S
C120 H125 0.930 . S
O121 Cu115 1.974 . S
O121 C131 1.282 . S
C122 O123 1.261 . S
C122 O135 1.251 . S
O123 C122 1.261 . S
H124 C118 0.930 . S
H125 C120 0.930 . S
N126 Cu115 1.985 . S
N126 C128 1.335 . S
N126 C129 1.390 . S
N127 C128 1.345 . S
N127 C130 1.336 . S
C128 N126 1.335 . S
C128 N127 1.345 . S
C128 H133 0.930 . S
C129 N126 1.390 . S
C129 C130 1.346 . S
C129 H134 0.930 . S
C130 N127 1.336 . S
C130 C129 1.346 . S
C130 H137 0.929 . S
C131 O121 1.282 . S
C131 O132 1.216 . S
O132 C131 1.216 . S
H133 C128 0.930 . S
H134 C129 0.930 . S
O135 Cu115 1.959 . S
O135 C122 1.251 . S
H136 C119 0.930 . S
H137 C130 0.929 . S
Cu138 N139 1.999 . S
Cu138 O144 1.974 . S
Cu138 N149 1.985 . S
Cu138 O158 1.959 . S
N139 Cu138 1.999 . S
N139 C141 1.263 . S
N139 C143 1.389 . S
N140 C141 1.358 . S
N140 C142 1.400 . S
C141 N139 1.263 . S
C141 N140 1.358 . S
C141 H147 0.930 . S
C142 N140 1.400 . S
C142 C143 1.351 . S
C142 H159 0.930 . S
C143 N139 1.389 . S
C143 C142 1.351 . S
C143 H148 0.930 . S
O144 Cu138 1.974 . S
O144 C154 1.282 . S
C145 O146 1.261 . S
C145 O158 1.251 . S
O146 C145 1.261 . S
H147 C141 0.930 . S
H148 C143 0.930 . S
N149 Cu138 1.985 . S
N149 C151 1.335 . S
N149 C152 1.390 . S
N150 C151 1.345 . S
N150 C153 1.336 . S
C151 N149 1.335 . S
C151 N150 1.345 . S
C151 H156 0.930 . S
C152 N149 1.390 . S
C152 C153 1.346 . S
C152 H157 0.930 . S
C153 N150 1.336 . S
C153 C152 1.346 . S
C153 H160 0.929 . S
C154 O144 1.282 . S
C154 O155 1.216 . S
O155 C154 1.216 . S
H156 C151 0.930 . S
H157 C152 0.930 . S
O158 Cu138 1.959 . S
O158 C145 1.251 . S
H159 C142 0.930 . S
H160 C153 0.929 . S
Cu161 N162 1.999 . S
Cu161 O167 1.974 . S
Cu161 N172 1.985 . S
Cu161 O181 1.959 . S
N162 Cu161 1.999 . S
N162 C164 1.263 . S
N162 C166 1.389 . S
N163 C164 1.358 . S
N163 C165 1.400 . S
C164 N162 1.263 . S
C164 N163 1.358 . S
C164 H170 0.930 . S
C165 N163 1.400 . S
C165 C166 1.351 . S
C165 H182 0.930 . S
C166 N162 1.389 . S
C166 C165 1.351 . S
C166 H171 0.930 . S
O167 Cu161 1.974 . S
O167 C177 1.282 . S
C168 O169 1.261 . S
C168 O181 1.251 . S
O169 C168 1.261 . S
H170 C164 0.930 . S
H171 C166 0.930 . S
N172 Cu161 1.985 . S
N172 C174 1.335 . S
N172 C175 1.390 . S
N173 C174 1.345 . S
N173 C176 1.336 . S
C174 N172 1.335 . S
C174 N173 1.345 . S
C174 H179 0.930 . S
C175 N172 1.390 . S
C175 C176 1.346 . S
C175 H180 0.930 . S
C176 N173 1.336 . S
C176 C175 1.346 . S
C176 H183 0.929 . S
C177 O167 1.282 . S
C177 O178 1.216 . S
O178 C177 1.216 . S
H179 C174 0.930 . S
H180 C175 0.930 . S
O181 Cu161 1.959 . S
O181 C168 1.251 . S
H182 C165 0.930 . S
H183 C176 0.929 . S
Cu184 N185 1.999 . S
Cu184 O190 1.974 . S
Cu184 N195 1.985 . S
Cu184 O204 1.959 . S
N185 Cu184 1.999 . S
N185 C187 1.263 . S
N185 C189 1.389 . S
N186 C187 1.358 . S
N186 C188 1.400 . S
C187 N185 1.263 . S
C187 N186 1.358 . S
C187 H193 0.930 . S
C188 N186 1.400 . S
C188 C189 1.351 . S
C188 H205 0.930 . S
C189 N185 1.389 . S
C189 C188 1.351 . S
C189 H194 0.930 . S
O190 Cu184 1.974 . S
O190 C200 1.282 . S
C191 O192 1.261 . S
C191 O204 1.251 . S
O192 C191 1.261 . S
H193 C187 0.930 . S
H194 C189 0.930 . S
N195 Cu184 1.985 . S
N195 C197 1.335 . S
N195 C198 1.390 . S
N196 C197 1.345 . S
N196 C199 1.336 . S
C197 N195 1.335 . S
C197 N196 1.345 . S
C197 H202 0.930 . S
C198 N195 1.390 . S
C198 C199 1.346 . S
C198 H203 0.930 . S
C199 N196 1.336 . S
C199 C198 1.346 . S
C199 H206 0.929 . S
C200 O190 1.282 . S
C200 O201 1.216 . S
O201 C200 1.216 . S
H202 C197 0.930 . S
H203 C198 0.930 . S
O204 Cu184 1.959 . S
O204 C191 1.251 . S
H205 C188 0.930 . S
H206 C199 0.929 . S
Cu207 N208 1.999 . S
Cu207 O213 1.974 . S
Cu207 N218 1.985 . S
Cu207 O227 1.959 . S
N208 Cu207 1.999 . S
N208 C210 1.263 . S
N208 C212 1.389 . S
N209 C210 1.358 . S
N209 C211 1.400 . S
C210 N208 1.263 . S
C210 N209 1.358 . S
C210 H216 0.930 . S
C211 N209 1.400 . S
C211 C212 1.351 . S
C211 H228 0.930 . S
C212 N208 1.389 . S
C212 C211 1.351 . S
C212 H217 0.930 . S
O213 Cu207 1.974 . S
O213 C223 1.282 . S
C214 O215 1.261 . S
C214 O227 1.251 . S
O215 C214 1.261 . S
H216 C210 0.930 . S
H217 C212 0.930 . S
N218 Cu207 1.985 . S
N218 C220 1.335 . S
N218 C221 1.390 . S
N219 C220 1.345 . S
N219 C222 1.336 . S
C220 N218 1.335 . S
C220 N219 1.345 . S
C220 H225 0.930 . S
C221 N218 1.390 . S
C221 C222 1.346 . S
C221 H226 0.930 . S
C222 N219 1.336 . S
C222 C221 1.346 . S
C222 H229 0.929 . S
C223 O213 1.282 . S
C223 O224 1.216 . S
O224 C223 1.216 . S
H225 C220 0.930 . S
H226 C221 0.930 . S
O227 Cu207 1.959 . S
O227 C214 1.251 . S
H228 C211 0.930 . S
H229 C222 0.929 . S
Cu230 N231 1.999 . S
Cu230 O236 1.974 . S
Cu230 N241 1.985 . S
Cu230 O250 1.959 . S
N231 Cu230 1.999 . S
N231 C233 1.263 . S
N231 C235 1.389 . S
N232 C233 1.358 . S
N232 C234 1.400 . S
C233 N231 1.263 . S
C233 N232 1.358 . S
C233 H239 0.930 . S
C234 N232 1.400 . S
C234 C235 1.351 . S
C234 H251 0.930 . S
C235 N231 1.389 . S
C235 C234 1.351 . S
C235 H240 0.930 . S
O236 Cu230 1.974 . S
O236 C246 1.282 . S
C237 O238 1.261 . S
C237 O250 1.251 . S
O238 C237 1.261 . S
H239 C233 0.930 . S
H240 C235 0.930 . S
N241 Cu230 1.985 . S
N241 C243 1.335 . S
N241 C244 1.390 . S
N242 C243 1.345 . S
N242 C245 1.336 . S
C243 N241 1.335 . S
C243 N242 1.345 . S
C243 H248 0.930 . S
C244 N241 1.390 . S
C244 C245 1.346 . S
C244 H249 0.930 . S
C245 N242 1.336 . S
C245 C244 1.346 . S
C245 H252 0.929 . S
C246 O236 1.282 . S
C246 O247 1.216 . S
O247 C246 1.216 . S
H248 C243 0.930 . S
H249 C244 0.930 . S
O250 Cu230 1.959 . S
O250 C237 1.251 . S
H251 C234 0.930 . S
H252 C245 0.929 . S
Cu253 N254 1.999 . S
Cu253 O259 1.974 . S
Cu253 N264 1.985 . S
Cu253 O273 1.959 . S
N254 Cu253 1.999 . S
N254 C256 1.263 . S
N254 C258 1.389 . S
N255 C256 1.358 . S
N255 C257 1.400 . S
C256 N254 1.263 . S
C256 N255 1.358 . S
C256 H262 0.930 . S
C257 N255 1.400 . S
C257 C258 1.351 . S
C257 H274 0.930 . S
C258 N254 1.389 . S
C258 C257 1.351 . S
C258 H263 0.930 . S
O259 Cu253 1.974 . S
O259 C269 1.282 . S
C260 O261 1.261 . S
C260 O273 1.251 . S
O261 C260 1.261 . S
H262 C256 0.930 . S
H263 C258 0.930 . S
N264 Cu253 1.985 . S
N264 C266 1.335 . S
N264 C267 1.390 . S
N265 C266 1.345 . S
N265 C268 1.336 . S
C266 N264 1.335 . S
C266 N265 1.345 . S
C266 H271 0.930 . S
C267 N264 1.390 . S
C267 C268 1.346 . S
C267 H272 0.930 . S
C268 N265 1.336 . S
C268 C267 1.346 . S
C268 H275 0.929 . S
C269 O259 1.282 . S
C269 O270 1.216 . S
O270 C269 1.216 . S
H271 C266 0.930 . S
H272 C267 0.930 . S
O273 Cu253 1.959 . S
O273 C260 1.251 . S
H274 C257 0.930 . S
H275 C268 0.929 . S
Cu276 N277 1.999 . S
Cu276 O282 1.974 . S
Cu276 N287 1.985 . S
Cu276 O296 1.959 . S
N277 Cu276 1.999 . S
N277 C279 1.263 . S
N277 C281 1.389 . S
N278 C279 1.358 . S
N278 C280 1.400 . S
C279 N277 1.263 . S
C279 N278 1.358 . S
C279 H285 0.930 . S
C280 N278 1.400 . S
C280 C281 1.351 . S
C280 H297 0.930 . S
C281 N277 1.389 . S
C281 C280 1.351 . S
C281 H286 0.930 . S
O282 Cu276 1.974 . S
O282 C292 1.282 . S
C283 O284 1.261 . S
C283 O296 1.251 . S
O284 C283 1.261 . S
H285 C279 0.930 . S
H286 C281 0.930 . S
N287 Cu276 1.985 . S
N287 C289 1.335 . S
N287 C290 1.390 . S
N288 C289 1.345 . S
N288 C291 1.336 . S
C289 N287 1.335 . S
C289 N288 1.345 . S
C289 H294 0.930 . S
C290 N287 1.390 . S
C290 C291 1.346 . S
C290 H295 0.930 . S
C291 N288 1.336 . S
C291 C290 1.346 . S
C291 H298 0.929 . S
C292 O282 1.282 . S
C292 O293 1.216 . S
O293 C292 1.216 . S
H294 C289 0.930 . S
H295 C290 0.930 . S
O296 Cu276 1.959 . S
O296 C283 1.251 . S
H297 C280 0.930 . S
H298 C291 0.929 . S
Cu299 N300 1.999 . S
Cu299 O305 1.974 . S
Cu299 N310 1.985 . S
Cu299 O319 1.959 . S
N300 Cu299 1.999 . S
N300 C302 1.263 . S
N300 C304 1.389 . S
N301 C302 1.358 . S
N301 C303 1.400 . S
C302 N300 1.263 . S
C302 N301 1.358 . S
C302 H308 0.930 . S
C303 N301 1.400 . S
C303 C304 1.351 . S
C303 H320 0.930 . S
C304 N300 1.389 . S
C304 C303 1.351 . S
C304 H309 0.930 . S
O305 Cu299 1.974 . S
O305 C315 1.282 . S
C306 O307 1.261 . S
C306 O319 1.251 . S
O307 C306 1.261 . S
H308 C302 0.930 . S
H309 C304 0.930 . S
N310 Cu299 1.985 . S
N310 C312 1.335 . S
N310 C313 1.390 . S
N311 C312 1.345 . S
N311 C314 1.336 . S
C312 N310 1.335 . S
C312 N311 1.345 . S
C312 H317 0.930 . S
C313 N310 1.390 . S
C313 C314 1.346 . S
C313 H318 0.930 . S
C314 N311 1.336 . S
C314 C313 1.346 . S
C314 H321 0.929 . S
C315 O305 1.282 . S
C315 O316 1.216 . S
O316 C315 1.216 . S
H317 C312 0.930 . S
H318 C313 0.930 . S
O319 Cu299 1.959 . S
O319 C306 1.251 . S
H320 C303 0.930 . S
H321 C314 0.929 . S
Cu322 N323 1.999 . S
Cu322 O328 1.974 . S
Cu322 N333 1.985 . S
Cu322 O342 1.959 . S
N323 Cu322 1.999 . S
N323 C325 1.263 . S
N323 C327 1.389 . S
N324 C325 1.358 . S
N324 C326 1.400 . S
C325 N323 1.263 . S
C325 N324 1.358 . S
C325 H331 0.930 . S
C326 N324 1.400 . S
C326 C327 1.351 . S
C326 H343 0.930 . S
C327 N323 1.389 . S
C327 C326 1.351 . S
C327 H332 0.930 . S
O328 Cu322 1.974 . S
O328 C338 1.282 . S
C329 O330 1.261 . S
C329 O342 1.251 . S
O330 C329 1.261 . S
H331 C325 0.930 . S
H332 C327 0.930 . S
N333 Cu322 1.985 . S
N333 C335 1.335 . S
N333 C336 1.390 . S
N334 C335 1.345 . S
N334 C337 1.336 . S
C335 N333 1.335 . S
C335 N334 1.345 . S
C335 H340 0.930 . S
C336 N333 1.390 . S
C336 C337 1.346 . S
C336 H341 0.930 . S
C337 N334 1.336 . S
C337 C336 1.346 . S
C337 H344 0.929 . S
C338 O328 1.282 . S
C338 O339 1.216 . S
O339 C338 1.216 . S
H340 C335 0.930 . S
H341 C336 0.930 . S
O342 Cu322 1.959 . S
O342 C329 1.251 . S
H343 C326 0.930 . S
H344 C337 0.929 . S
Cu345 N346 1.999 . S
Cu345 O351 1.974 . S
Cu345 N356 1.985 . S
Cu345 O365 1.959 . S
N346 Cu345 1.999 . S
N346 C348 1.263 . S
N346 C350 1.389 . S
N347 C348 1.358 . S
N347 C349 1.400 . S
C348 N346 1.263 . S
C348 N347 1.358 . S
C348 H354 0.930 . S
C349 N347 1.400 . S
C349 C350 1.351 . S
C349 H366 0.930 . S
C350 N346 1.389 . S
C350 C349 1.351 . S
C350 H355 0.930 . S
O351 Cu345 1.974 . S
O351 C361 1.282 . S
C352 O353 1.261 . S
C352 O365 1.251 . S
O353 C352 1.261 . S
H354 C348 0.930 . S
H355 C350 0.930 . S
N356 Cu345 1.985 . S
N356 C358 1.335 . S
N356 C359 1.390 . S
N357 C358 1.345 . S
N357 C360 1.336 . S
C358 N356 1.335 . S
C358 N357 1.345 . S
C358 H363 0.930 . S
C359 N356 1.390 . S
C359 C360 1.346 . S
C359 H364 0.930 . S
C360 N357 1.336 . S
C360 C359 1.346 . S
C360 H367 0.929 . S
C361 O351 1.282 . S
C361 O362 1.216 . S
O362 C361 1.216 . S
H363 C358 0.930 . S
H364 C359 0.930 . S
O365 Cu345 1.959 . S
O365 C352 1.251 . S
H366 C349 0.930 . S
H367 C360 0.929 . S
Cu368 N369 1.999 . S
Cu368 O374 1.974 . S
Cu368 N379 1.985 . S
Cu368 O388 1.959 . S
N369 Cu368 1.999 . S
N369 C371 1.263 . S
N369 C373 1.389 . S
N370 C371 1.358 . S
N370 C372 1.400 . S
C371 N369 1.263 . S
C371 N370 1.358 . S
C371 H377 0.930 . S
C372 N370 1.400 . S
C372 C373 1.351 . S
C372 H389 0.930 . S
C373 N369 1.389 . S
C373 C372 1.351 . S
C373 H378 0.930 . S
O374 Cu368 1.974 . S
O374 C384 1.282 . S
C375 O376 1.261 . S
C375 O388 1.251 . S
O376 C375 1.261 . S
H377 C371 0.930 . S
H378 C373 0.930 . S
N379 Cu368 1.985 . S
N379 C381 1.335 . S
N379 C382 1.390 . S
N380 C381 1.345 . S
N380 C383 1.336 . S
C381 N379 1.335 . S
C381 N380 1.345 . S
C381 H386 0.930 . S
C382 N379 1.390 . S
C382 C383 1.346 . S
C382 H387 0.930 . S
C383 N380 1.336 . S
C383 C382 1.346 . S
C383 H390 0.929 . S
C384 O374 1.282 . S
C384 O385 1.216 . S
O385 C384 1.216 . S
H386 C381 0.930 . S
H387 C382 0.930 . S
O388 Cu368 1.959 . S
O388 C375 1.251 . S
H389 C372 0.930 . S
H390 C383 0.929 . S
Cu391 N392 1.999 . S
Cu391 O397 1.974 . S
Cu391 N402 1.985 . S
Cu391 O411 1.959 . S
N392 Cu391 1.999 . S
N392 C394 1.263 . S
N392 C396 1.389 . S
N393 C394 1.358 . S
N393 C395 1.400 . S
C394 N392 1.263 . S
C394 N393 1.358 . S
C394 H400 0.930 . S
C395 N393 1.400 . S
C395 C396 1.351 . S
C395 H412 0.930 . S
C396 N392 1.389 . S
C396 C395 1.351 . S
C396 H401 0.930 . S
O397 Cu391 1.974 . S
O397 C407 1.282 . S
C398 O399 1.261 . S
C398 O411 1.251 . S
O399 C398 1.261 . S
H400 C394 0.930 . S
H401 C396 0.930 . S
N402 Cu391 1.985 . S
N402 C404 1.335 . S
N402 C405 1.390 . S
N403 C404 1.345 . S
N403 C406 1.336 . S
C404 N402 1.335 . S
C404 N403 1.345 . S
C404 H409 0.930 . S
C405 N402 1.390 . S
C405 C406 1.346 . S
C405 H410 0.930 . S
C406 N403 1.336 . S
C406 C405 1.346 . S
C406 H413 0.929 . S
C407 O397 1.282 . S
C407 O408 1.216 . S
O408 C407 1.216 . S
H409 C404 0.930 . S
H410 C405 0.930 . S
O411 Cu391 1.959 . S
O411 C398 1.251 . S
H412 C395 0.930 . S
H413 C406 0.929 . S
In414 O415 2.294 . S
In414 O416 2.326 . S
In414 O420 2.266 . S
In414 O421 2.326 . S
In414 O422 2.266 . S
In414 O423 2.326 . S
In414 O425 2.294 . S
In414 O426 2.326 . S
O415 In414 2.294 . S
O415 C424 1.240 . S
O416 In414 2.326 . S
O416 C424 1.252 . S
C417 O420 1.252 . S
C417 O421 1.260 . S
C418 O425 1.240 . S
C418 O426 1.252 . S
C419 O422 1.252 . S
C419 O423 1.260 . S
O420 In414 2.266 . S
O420 C417 1.252 . S
O421 In414 2.326 . S
O421 C417 1.260 . S
O422 In414 2.266 . S
O422 C419 1.252 . S
O423 In414 2.326 . S
O423 C419 1.260 . S
C424 O415 1.240 . S
C424 O416 1.252 . S
O425 In414 2.294 . S
O425 C418 1.240 . S
O426 In414 2.326 . S
O426 C418 1.252 . S
In427 O428 2.294 . S
In427 O429 2.326 . S
In427 O433 2.266 . S
In427 O434 2.326 . S
In427 O435 2.266 . S
In427 O436 2.326 . S
In427 O438 2.294 . S
In427 O439 2.326 . S
O428 In427 2.294 . S
O428 C437 1.240 . S
O429 In427 2.326 . S
O429 C437 1.252 . S
C430 O433 1.252 . S
C430 O434 1.260 . S
C431 O438 1.240 . S
C431 O439 1.252 . S
C432 O435 1.252 . S
C432 O436 1.260 . S
O433 In427 2.266 . S
O433 C430 1.252 . S
O434 In427 2.326 . S
O434 C430 1.260 . S
O435 In427 2.266 . S
O435 C432 1.252 . S
O436 In427 2.326 . S
O436 C432 1.260 . S
C437 O428 1.240 . S
C437 O429 1.252 . S
O438 In427 2.294 . S
O438 C431 1.240 . S
O439 In427 2.326 . S
O439 C431 1.252 . S
In440 O441 2.294 . S
In440 O442 2.326 . S
In440 O446 2.266 . S
In440 O447 2.326 . S
In440 O448 2.266 . S
In440 O449 2.326 . S
In440 O451 2.294 . S
In440 O452 2.326 . S
O441 In440 2.294 . S
O441 C450 1.240 . S
O442 In440 2.326 . S
O442 C450 1.252 . S
C443 O446 1.252 . S
C443 O447 1.260 . S
C444 O451 1.240 . S
C444 O452 1.252 . S
C445 O448 1.252 . S
C445 O449 1.260 . S
O446 In440 2.266 . S
O446 C443 1.252 . S
O447 In440 2.326 . S
O447 C443 1.260 . S
O448 In440 2.266 . S
O448 C445 1.252 . S
O449 In440 2.326 . S
O449 C445 1.260 . S
C450 O441 1.240 . S
C450 O442 1.252 . S
O451 In440 2.294 . S
O451 C444 1.240 . S
O452 In440 2.326 . S
O452 C444 1.252 . S
In453 O454 2.294 . S
In453 O455 2.326 . S
In453 O459 2.266 . S
In453 O460 2.326 . S
In453 O461 2.266 . S
In453 O462 2.326 . S
In453 O464 2.294 . S
In453 O465 2.326 . S
O454 In453 2.294 . S
O454 C463 1.240 . S
O455 In453 2.326 . S
O455 C463 1.252 . S
C456 O459 1.252 . S
C456 O460 1.260 . S
C457 O464 1.240 . S
C457 O465 1.252 . S
C458 O461 1.252 . S
C458 O462 1.260 . S
O459 In453 2.266 . S
O459 C456 1.252 . S
O460 In453 2.326 . S
O460 C456 1.260 . S
O461 In453 2.266 . S
O461 C458 1.252 . S
O462 In453 2.326 . S
O462 C458 1.260 . S
C463 O454 1.240 . S
C463 O455 1.252 . S
O464 In453 2.294 . S
O464 C457 1.240 . S
O465 In453 2.326 . S
O465 C457 1.252 . S
In466 O467 2.294 . S
In466 O468 2.326 . S
In466 O472 2.266 . S
In466 O473 2.326 . S
In466 O474 2.266 . S
In466 O475 2.326 . S
In466 O477 2.294 . S
In466 O478 2.326 . S
O467 In466 2.294 . S
O467 C476 1.240 . S
O468 In466 2.326 . S
O468 C476 1.252 . S
C469 O472 1.252 . S
C469 O473 1.260 . S
C470 O477 1.240 . S
C470 O478 1.252 . S
C471 O474 1.252 . S
C471 O475 1.260 . S
O472 In466 2.266 . S
O472 C469 1.252 . S
O473 In466 2.326 . S
O473 C469 1.260 . S
O474 In466 2.266 . S
O474 C471 1.252 . S
O475 In466 2.326 . S
O475 C471 1.260 . S
C476 O467 1.240 . S
C476 O468 1.252 . S
O477 In466 2.294 . S
O477 C470 1.240 . S
O478 In466 2.326 . S
O478 C470 1.252 . S
In479 O480 2.294 . S
In479 O481 2.326 . S
In479 O485 2.266 . S
In479 O486 2.326 . S
In479 O487 2.266 . S
In479 O488 2.326 . S
In479 O490 2.294 . S
In479 O491 2.326 . S
O480 In479 2.294 . S
O480 C489 1.240 . S
O481 In479 2.326 . S
O481 C489 1.252 . S
C482 O485 1.252 . S
C482 O486 1.260 . S
C483 O490 1.240 . S
C483 O491 1.252 . S
C484 O487 1.252 . S
C484 O488 1.260 . S
O485 In479 2.266 . S
O485 C482 1.252 . S
O486 In479 2.326 . S
O486 C482 1.260 . S
O487 In479 2.266 . S
O487 C484 1.252 . S
O488 In479 2.326 . S
O488 C484 1.260 . S
C489 O480 1.240 . S
C489 O481 1.252 . S
O490 In479 2.294 . S
O490 C483 1.240 . S
O491 In479 2.326 . S
O491 C483 1.252 . S
In492 O493 2.294 1_565 S
In492 O494 2.326 1_565 S
In492 O498 2.266 . S
In492 O499 2.326 . S
In492 O500 2.266 . S
In492 O501 2.306 1_565 S
In492 O503 2.294 . S
In492 O504 2.326 . S
O493 In492 2.294 1_545 S
O493 C502 1.240 . S
O494 In492 2.326 1_545 S
O494 C502 1.252 . S
C495 O498 1.252 . S
C495 O499 1.260 . S
C496 O503 1.240 . S
C496 O504 1.252 . S
C497 O500 1.252 . S
C497 O501 1.260 1_565 S
O498 In492 2.266 . S
O498 C495 1.252 . S
O499 In492 2.326 . S
O499 C495 1.260 . S
O500 In492 2.266 . S
O500 C497 1.252 . S
O501 In492 2.306 1_545 S
O501 C497 1.260 1_545 S
C502 O493 1.240 . S
C502 O494 1.252 . S
O503 In492 2.294 . S
O503 C496 1.240 . S
O504 In492 2.326 . S
O504 C496 1.252 . S
In505 O506 2.294 . S
In505 O507 2.326 . S
In505 O511 2.266 . S
In505 O512 2.326 . S
In505 O513 2.266 . S
In505 O514 2.326 . S
In505 O516 2.294 . S
In505 O517 2.326 . S
O506 In505 2.294 . S
O506 C515 1.240 . S
O507 In505 2.326 . S
O507 C515 1.252 . S
C508 O511 1.252 . S
C508 O512 1.260 . S
C509 O516 1.240 . S
C509 O517 1.252 . S
C510 O513 1.252 . S
C510 O514 1.260 . S
O511 In505 2.266 . S
O511 C508 1.252 . S
O512 In505 2.326 . S
O512 C508 1.260 . S
O513 In505 2.266 . S
O513 C510 1.252 . S
O514 In505 2.326 . S
O514 C510 1.260 . S
C515 O506 1.240 . S
C515 O507 1.252 . S
O516 In505 2.294 . S
O516 C509 1.240 . S
O517 In505 2.326 . S
O517 C509 1.252 . S
In518 O519 2.294 . S
In518 O520 2.326 . S
In518 O524 2.266 . S
In518 O525 2.326 . S
In518 O526 2.266 . S
In518 O527 2.326 . S
In518 O529 2.294 . S
In518 O530 2.326 . S
O519 In518 2.294 . S
O519 C528 1.240 . S
O520 In518 2.326 . S
O520 C528 1.252 . S
C521 O524 1.252 . S
C521 O525 1.260 . S
C522 O529 1.240 . S
C522 O530 1.252 . S
C523 O526 1.252 . S
C523 O527 1.260 . S
O524 In518 2.266 . S
O524 C521 1.252 . S
O525 In518 2.326 . S
O525 C521 1.260 . S
O526 In518 2.266 . S
O526 C523 1.252 . S
O527 In518 2.326 . S
O527 C523 1.260 . S
C528 O519 1.240 . S
C528 O520 1.252 . S
O529 In518 2.294 . S
O529 C522 1.240 . S
O530 In518 2.326 . S
O530 C522 1.252 . S
In531 O532 2.294 . S
In531 O533 2.326 . S
In531 O537 2.266 . S
In531 O538 2.326 . S
In531 O539 2.266 . S
In531 O540 2.326 . S
In531 O542 2.294 . S
In531 O543 2.326 . S
O532 In531 2.294 . S
O532 C541 1.240 . S
O533 In531 2.326 . S
O533 C541 1.252 . S
C534 O537 1.252 . S
C534 O538 1.260 . S
C535 O542 1.240 . S
C535 O543 1.252 . S
C536 O539 1.252 . S
C536 O540 1.260 . S
O537 In531 2.266 . S
O537 C534 1.252 . S
O538 In531 2.326 . S
O538 C534 1.260 . S
O539 In531 2.266 . S
O539 C536 1.252 . S
O540 In531 2.326 . S
O540 C536 1.260 . S
C541 O532 1.240 . S
C541 O533 1.252 . S
O542 In531 2.294 . S
O542 C535 1.240 . S
O543 In531 2.326 . S
O543 C535 1.252 . S
In544 O545 2.320 . S
In544 O546 2.328 . S
In544 O550 2.283 1_565 S
In544 O551 2.319 1_565 S
In544 O552 2.229 1_565 S
In544 O553 2.305 1_565 S
In544 O555 2.289 . S
In544 O556 2.354 . S
O545 In544 2.320 . S
O545 C554 1.240 . S
O546 In544 2.328 . S
O546 C554 1.252 . S
C547 O550 1.252 . S
C547 O551 1.260 . S
C548 O555 1.240 . S
C548 O556 1.252 . S
C549 O552 1.252 . S
C549 O553 1.260 . S
O550 In544 2.283 1_545 S
O550 C547 1.252 . S
O551 In544 2.319 1_545 S
O551 C547 1.260 . S
O552 In544 2.229 1_545 S
O552 C549 1.252 . S
O553 In544 2.305 1_545 S
O553 C549 1.260 . S
C554 O545 1.240 . S
C554 O546 1.252 . S
O555 In544 2.289 . S
O555 C548 1.240 . S
O556 In544 2.354 . S
O556 C548 1.252 . S
In557 O558 2.294 . S
In557 O559 2.326 . S
In557 O563 2.266 . S
In557 O564 2.326 . S
In557 O565 2.266 . S
In557 O566 2.326 . S
In557 O568 2.294 . S
In557 O569 2.326 . S
O558 In557 2.294 . S
O558 C567 1.240 . S
O559 In557 2.326 . S
O559 C567 1.252 . S
C560 O563 1.252 . S
C560 O564 1.260 . S
C561 O568 1.240 . S
C561 O569 1.252 . S
C562 O565 1.252 . S
C562 O566 1.260 . S
O563 In557 2.266 . S
O563 C560 1.252 . S
O564 In557 2.326 . S
O564 C560 1.260 . S
O565 In557 2.266 . S
O565 C562 1.252 . S
O566 In557 2.326 . S
O566 C562 1.260 . S
C567 O558 1.240 . S
C567 O559 1.252 . S
O568 In557 2.294 . S
O568 C561 1.240 . S
O569 In557 2.326 . S
O569 C561 1.252 . S
In570 O571 2.294 . S
In570 O572 2.326 . S
In570 O576 2.266 . S
In570 O577 2.326 . S
In570 O578 2.266 . S
In570 O579 2.326 . S
In570 O581 2.294 . S
In570 O582 2.326 . S
O571 In570 2.294 . S
O571 C580 1.240 . S
O572 In570 2.326 . S
O572 C580 1.252 . S
C573 O576 1.252 . S
C573 O577 1.260 . S
C574 O581 1.240 . S
C574 O582 1.252 . S
C575 O578 1.252 . S
C575 O579 1.260 . S
O576 In570 2.266 . S
O576 C573 1.252 . S
O577 In570 2.326 . S
O577 C573 1.260 . S
O578 In570 2.266 . S
O578 C575 1.252 . S
O579 In570 2.326 . S
O579 C575 1.260 . S
C580 O571 1.240 . S
C580 O572 1.252 . S
O581 In570 2.294 . S
O581 C574 1.240 . S
O582 In570 2.326 . S
O582 C574 1.252 . S
In583 O584 2.294 . S
In583 O585 2.326 . S
In583 O589 2.266 . S
In583 O590 2.326 . S
In583 O591 2.266 . S
In583 O592 2.326 . S
In583 O594 2.294 . S
In583 O595 2.326 . S
O584 In583 2.294 . S
O584 C593 1.240 . S
O585 In583 2.326 . S
O585 C593 1.252 . S
C586 O589 1.252 . S
C586 O590 1.260 . S
C587 O594 1.240 . S
C587 O595 1.252 . S
C588 O591 1.252 . S
C588 O592 1.260 . S
O589 In583 2.266 . S
O589 C586 1.252 . S
O590 In583 2.326 . S
O590 C586 1.260 . S
O591 In583 2.266 . S
O591 C588 1.252 . S
O592 In583 2.326 . S
O592 C588 1.260 . S
C593 O584 1.240 . S
C593 O585 1.252 . S
O594 In583 2.294 . S
O594 C587 1.240 . S
O595 In583 2.326 . S
O595 C587 1.252 . S
In596 O597 2.294 . S
In596 O598 2.326 . S
In596 O602 2.266 1_655 S
In596 O603 2.326 1_655 S
In596 O604 2.266 . S
In596 O605 2.326 . S
In596 O607 2.294 . S
In596 O608 2.326 . S
O597 In596 2.294 . S
O597 C606 1.240 . S
O598 In596 2.326 . S
O598 C606 1.252 . S
C599 O602 1.252 . S
C599 O603 1.260 . S
C600 O607 1.240 . S
C600 O608 1.252 . S
C601 O604 1.252 . S
C601 O605 1.260 . S
O602 In596 2.266 1_455 S
O602 C599 1.252 . S
O603 In596 2.326 1_455 S
O603 C599 1.260 . S
O604 In596 2.266 . S
O604 C601 1.252 . S
O605 In596 2.326 . S
O605 C601 1.260 . S
C606 O597 1.240 . S
C606 O598 1.252 . S
O607 In596 2.294 . S
O607 C600 1.240 . S
O608 In596 2.326 . S
O608 C600 1.252 . S
In609 O610 2.294 . S
In609 O611 2.326 . S
In609 O615 2.266 . S
In609 O616 2.326 . S
In609 O617 2.266 . S
In609 O618 2.326 . S
In609 O620 2.294 . S
In609 O621 2.326 . S
O610 In609 2.294 . S
O610 C619 1.240 . S
O611 In609 2.326 . S
O611 C619 1.252 . S
C612 O615 1.252 . S
C612 O616 1.260 . S
C613 O620 1.240 . S
C613 O621 1.252 . S
C614 O617 1.252 . S
C614 O618 1.260 . S
O615 In609 2.266 . S
O615 C612 1.252 . S
O616 In609 2.326 . S
O616 C612 1.260 . S
O617 In609 2.266 . S
O617 C614 1.252 . S
O618 In609 2.326 . S
O618 C614 1.260 . S
C619 O610 1.240 . S
C619 O611 1.252 . S
O620 In609 2.294 . S
O620 C613 1.240 . S
O621 In609 2.326 . S
O621 C613 1.252 . S
In622 O623 2.294 . S
In622 O624 2.326 . S
In622 O628 2.266 1_655 S
In622 O629 2.326 1_655 S
In622 O630 2.266 . S
In622 O631 2.326 1_655 S
In622 O633 2.294 . S
In622 O634 2.326 . S
O623 In622 2.294 . S
O623 C632 1.240 . S
O624 In622 2.326 . S
O624 C632 1.252 . S
C625 O628 1.252 . S
C625 O629 1.260 . S
C626 O633 1.240 . S
C626 O634 1.252 . S
C627 O630 1.252 1_455 S
C627 O631 1.260 . S
O628 In622 2.266 1_455 S
O628 C625 1.252 . S
O629 In622 2.326 1_455 S
O629 C625 1.260 . S
O630 In622 2.266 . S
O630 C627 1.252 1_655 S
O631 In622 2.326 1_455 S
O631 C627 1.260 . S
C632 O623 1.240 . S
C632 O624 1.252 . S
O633 In622 2.294 . S
O633 C626 1.240 . S
O634 In622 2.326 . S
O634 C626 1.252 . S
In635 O636 2.294 . S
In635 O637 2.326 . S
In635 O641 2.266 . S
In635 O642 2.326 . S
In635 O643 2.266 . S
In635 O644 2.326 . S
In635 O646 2.294 . S
In635 O647 2.326 . S
O636 In635 2.294 . S
O636 C645 1.240 . S
O637 In635 2.326 . S
O637 C645 1.252 . S
C638 O641 1.252 . S
C638 O642 1.260 . S
C639 O646 1.240 . S
C639 O647 1.252 . S
C640 O643 1.252 . S
C640 O644 1.260 . S
O641 In635 2.266 . S
O641 C638 1.252 . S
O642 In635 2.326 . S
O642 C638 1.260 . S
O643 In635 2.266 . S
O643 C640 1.252 . S
O644 In635 2.326 . S
O644 C640 1.260 . S
C645 O636 1.240 . S
C645 O637 1.252 . S
O646 In635 2.294 . S
O646 C639 1.240 . S
O647 In635 2.326 . S
O647 C639 1.252 . S
C648 C649 1.352 . S
C648 C650 1.342 . S
C648 H673 0.932 1_455 S
C649 C648 1.352 . S
C649 C665 1.349 . S
C650 C648 1.342 . S
C650 C669 1.429 . S
C650 H674 0.955 . S
C651 C668 1.574 . S
C651 C670 1.368 . S
C651 H675 0.949 . S
H652 C656 0.949 . S
C653 C654 1.349 . S
C653 C655 1.327 . S
C653 H676 0.950 . S
C654 C653 1.349 . S
C654 C666 1.349 . S
C655 C653 1.327 . S
C655 C671 1.429 . S
C655 H677 0.950 . S
C656 H652 0.949 . S
C656 C664 1.574 . S
C656 C672 1.368 . S
H657 C665 0.950 . S
H658 C663 0.950 . S
H659 C664 0.949 . S
H660 C666 0.950 . S
H661 C667 0.950 . S
H662 C668 0.949 . S
C663 H658 0.950 . S
C663 C665 1.327 . S
C663 C669 1.429 . S
C664 C656 1.574 . S
C664 H659 0.949 . S
C664 C670 1.368 . S
C665 C649 1.349 . S
C665 H657 0.950 . S
C665 C663 1.327 . S
C666 C654 1.349 . S
C666 H660 0.950 . S
C666 C667 1.327 . S
C667 H661 0.950 . S
C667 C666 1.327 . S
C667 C671 1.429 . S
C668 C651 1.574 . S
C668 H662 0.949 . S
C668 C672 1.368 . S
C669 C650 1.429 . S
C669 C663 1.429 . S
C669 C670 1.523 . S
C670 C651 1.368 . S
C670 C664 1.368 . S
C670 C669 1.523 . S
C671 C655 1.429 . S
C671 C667 1.429 . S
C671 C672 1.523 . S
C672 C656 1.368 . S
C672 C668 1.368 . S
C672 C671 1.523 . S
H673 C648 0.932 1_655 S
H674 C650 0.955 . S
H675 C651 0.949 . S
H676 C653 0.950 . S
H677 C655 0.950 . S
C678 C679 1.349 . S
C678 C680 1.327 . S
C678 H703 0.950 . S
C679 C678 1.349 . S
C679 C695 1.349 . S
C680 C678 1.327 . S
C680 C699 1.429 . S
C680 H704 0.950 . S
C681 C698 1.574 . S
C681 C700 1.368 . S
C681 H705 0.949 . S
H682 C686 0.949 . S
C683 C684 1.349 . S
C683 C685 1.327 . S
C683 H706 0.950 . S
C684 C683 1.349 . S
C684 C696 1.349 . S
C685 C683 1.327 . S
C685 C701 1.429 . S
C685 H707 0.950 . S
C686 H682 0.949 . S
C686 C694 1.574 . S
C686 C702 1.368 . S
H687 C695 0.950 . S
H688 C693 0.950 . S
H689 C694 0.949 . S
H690 C696 0.950 . S
H691 C697 0.950 . S
H692 C698 0.949 . S
C693 H688 0.950 . S
C693 C695 1.327 . S
C693 C699 1.429 . S
C694 C686 1.574 . S
C694 H689 0.949 . S
C694 C700 1.368 . S
C695 C679 1.349 . S
C695 H687 0.950 . S
C695 C693 1.327 . S
C696 C684 1.349 . S
C696 H690 0.950 . S
C696 C697 1.327 . S
C697 H691 0.950 . S
C697 C696 1.327 . S
C697 C701 1.429 . S
C698 C681 1.574 . S
C698 H692 0.949 . S
C698 C702 1.368 . S
C699 C680 1.429 . S
C699 C693 1.429 . S
C699 C700 1.523 . S
C700 C681 1.368 . S
C700 C694 1.368 . S
C700 C699 1.523 . S
C701 C685 1.429 . S
C701 C697 1.429 . S
C701 C702 1.523 . S
C702 C686 1.368 . S
C702 C698 1.368 . S
C702 C701 1.523 . S
H703 C678 0.950 . S
H704 C680 0.950 . S
H705 C681 0.949 . S
H706 C683 0.950 . S
H707 C685 0.950 . S
C708 C709 1.349 . S
C708 C710 1.327 . S
C708 H733 0.950 . S
C709 C708 1.349 . S
C709 C725 1.349 . S
C710 C708 1.327 . S
C710 C729 1.429 . S
C710 H734 0.950 . S
C711 C728 1.574 . S
C711 C730 1.368 . S
C711 H735 0.949 . S
H712 C716 0.949 . S
C713 C714 1.349 . S
C713 C715 1.327 . S
C713 H736 0.950 1_545 S
C714 C713 1.349 . S
C714 C726 1.349 . S
C715 C713 1.327 . S
C715 C731 1.429 . S
C715 H737 0.950 . S
C716 H712 0.949 . S
C716 C724 1.574 . S
C716 C732 1.368 . S
H717 C725 0.950 . S
H718 C723 0.950 . S
H719 C724 0.949 . S
H720 C726 0.950 . S
H721 C727 0.950 . S
H722 C728 0.949 . S
C723 H718 0.950 . S
C723 C725 1.327 . S
C723 C729 1.429 . S
C724 C716 1.574 . S
C724 H719 0.949 . S
C724 C730 1.368 . S
C725 C709 1.349 . S
C725 H717 0.950 . S
C725 C723 1.327 . S
C726 C714 1.349 . S
C726 H720 0.950 . S
C726 C727 1.327 . S
C727 H721 0.950 . S
C727 C726 1.327 . S
C727 C731 1.429 . S
C728 C711 1.574 . S
C728 H722 0.949 . S
C728 C732 1.368 . S
C729 C710 1.429 . S
C729 C723 1.429 . S
C729 C730 1.523 . S
C730 C711 1.368 . S
C730 C724 1.368 . S
C730 C729 1.523 . S
C731 C715 1.429 . S
C731 C727 1.429 . S
C731 C732 1.523 . S
C732 C716 1.368 . S
C732 C728 1.368 . S
C732 C731 1.523 . S
H733 C708 0.950 . S
H734 C710 0.950 . S
H735 C711 0.949 . S
H736 C713 0.950 1_565 S
H737 C715 0.950 . S
C738 C739 1.349 . S
C738 C740 1.327 . S
C738 H763 0.950 . S
C739 C738 1.349 . S
C739 C755 1.349 . S
C740 C738 1.327 . S
C740 C759 1.429 . S
C740 H764 0.950 . S
C741 C758 1.574 . S
C741 C760 1.368 . S
C741 H765 0.949 . S
H742 C746 0.949 . S
C743 C744 1.349 . S
C743 C745 1.327 . S
C743 H766 0.950 . S
C744 C743 1.349 . S
C744 C756 1.349 . S
C745 C743 1.327 . S
C745 C761 1.429 . S
C745 H767 0.950 . S
C746 H742 0.949 . S
C746 C754 1.574 . S
C746 C762 1.368 . S
H747 C755 0.950 . S
H748 C753 0.950 . S
H749 C754 0.949 . S
H750 C756 0.950 . S
H751 C757 0.950 . S
H752 C758 0.949 . S
C753 H748 0.950 . S
C753 C755 1.327 . S
C753 C759 1.429 . S
C754 C746 1.574 . S
C754 H749 0.949 . S
C754 C760 1.368 . S
C755 C739 1.349 . S
C755 H747 0.950 . S
C755 C753 1.327 . S
C756 C744 1.349 . S
C756 H750 0.950 . S
C756 C757 1.327 . S
C757 H751 0.950 . S
C757 C756 1.327 . S
C757 C761 1.429 . S
C758 C741 1.574 . S
C758 H752 0.949 . S
C758 C762 1.368 . S
C759 C740 1.429 . S
C759 C753 1.429 . S
C759 C760 1.523 . S
C760 C741 1.368 . S
C760 C754 1.368 . S
C760 C759 1.523 . S
C761 C745 1.429 . S
C761 C757 1.429 . S
C761 C762 1.523 . S
C762 C746 1.368 . S
C762 C758 1.368 . S
C762 C761 1.523 . S
H763 C738 0.950 . S
H764 C740 0.950 . S
H765 C741 0.949 . S
H766 C743 0.950 . S
H767 C745 0.950 . S
C768 C769 1.349 . S
C768 C770 1.327 . S
C768 H793 0.950 . S
C769 C768 1.349 . S
C769 C785 1.349 . S
C770 C768 1.327 . S
C770 C789 1.429 . S
C770 H794 0.950 . S
C771 C788 1.574 . S
C771 C790 1.368 . S
C771 H795 0.949 . S
H772 C776 0.949 . S
C773 C774 1.349 . S
C773 C775 1.327 . S
C773 H796 0.950 . S
C774 C773 1.349 . S
C774 C786 1.349 . S
C775 C773 1.327 . S
C775 C791 1.429 . S
C775 H797 0.950 . S
C776 H772 0.949 . S
C776 C784 1.574 . S
C776 C792 1.368 . S
H777 C785 0.950 . S
H778 C783 0.950 . S
H779 C784 0.949 . S
H780 C786 0.950 . S
H781 C787 0.950 . S
H782 C788 0.949 . S
C783 H778 0.950 . S
C783 C785 1.327 . S
C783 C789 1.429 . S
C784 C776 1.574 . S
C784 H779 0.949 . S
C784 C790 1.368 . S
C785 C769 1.349 . S
C785 H777 0.950 . S
C785 C783 1.327 . S
C786 C774 1.349 . S
C786 H780 0.950 . S
C786 C787 1.327 . S
C787 H781 0.950 . S
C787 C786 1.327 . S
C787 C791 1.429 . S
C788 C771 1.574 . S
C788 H782 0.949 . S
C788 C792 1.368 . S
C789 C770 1.429 . S
C789 C783 1.429 . S
C789 C790 1.523 . S
C790 C771 1.368 . S
C790 C784 1.368 . S
C790 C789 1.523 . S
C791 C775 1.429 . S
C791 C787 1.429 . S
C791 C792 1.523 . S
C792 C776 1.368 . S
C792 C788 1.368 . S
C792 C791 1.523 . S
H793 C768 0.950 . S
H794 C770 0.950 . S
H795 C771 0.949 . S
H796 C773 0.950 . S
H797 C775 0.950 . S
C798 C799 1.349 . S
C798 C800 1.327 . S
C798 H823 0.950 . S
C799 C798 1.349 . S
C799 C815 1.349 . S
C800 C798 1.327 . S
C800 C819 1.429 . S
C800 H824 0.950 . S
C801 C818 1.574 . S
C801 C820 1.368 . S
C801 H825 0.949 . S
H802 C806 0.949 . S
C803 C804 1.349 . S
C803 C805 1.327 . S
C803 H826 0.950 . S
C804 C803 1.349 . S
C804 C816 1.349 . S
C805 C803 1.327 . S
C805 C821 1.429 . S
C805 H827 0.950 . S
C806 H802 0.949 . S
C806 C814 1.574 . S
C806 C822 1.368 . S
H807 C815 0.950 . S
H808 C813 0.950 . S
H809 C814 0.949 . S
H810 C816 0.950 . S
H811 C817 0.950 . S
H812 C818 0.949 . S
C813 H808 0.950 . S
C813 C815 1.327 . S
C813 C819 1.429 . S
C814 C806 1.574 . S
C814 H809 0.949 . S
C814 C820 1.368 . S
C815 C799 1.349 . S
C815 H807 0.950 . S
C815 C813 1.327 . S
C816 C804 1.349 . S
C816 H810 0.950 . S
C816 C817 1.327 . S
C817 H811 0.950 . S
C817 C816 1.327 . S
C817 C821 1.429 . S
C818 C801 1.574 . S
C818 H812 0.949 . S
C818 C822 1.368 . S
C819 C800 1.429 . S
C819 C813 1.429 . S
C819 C820 1.523 . S
C820 C801 1.368 . S
C820 C814 1.368 . S
C820 C819 1.523 . S
C821 C805 1.429 . S
C821 C817 1.429 . S
C821 C822 1.523 . S
C822 C806 1.368 . S
C822 C818 1.368 . S
C822 C821 1.523 . S
H823 C798 0.950 . S
H824 C800 0.950 . S
H825 C801 0.949 . S
H826 C803 0.950 . S
H827 C805 0.950 . S
C828 C829 1.349 . S
C828 C830 1.327 . S
C828 H853 0.950 . S
C829 C828 1.349 . S
C829 C845 1.349 1_655 S
C830 C828 1.327 . S
C830 C849 1.429 . S
C830 H854 0.950 . S
C831 C848 1.574 . S
C831 C850 1.368 1_455 S
C831 H855 0.949 . S
H832 C836 0.949 . S
C833 C834 1.349 1_455 S
C833 C835 1.327 . S
C833 H856 0.950 . S
C834 C833 1.349 1_655 S
C834 C846 1.349 . S
C835 C833 1.327 . S
C835 C851 1.429 1_455 S
C835 H857 0.950 . S
C836 H832 0.949 . S
C836 C844 1.574 . S
C836 C852 1.368 . S
H837 C845 0.953 1_554 S
H838 C843 0.950 . S
H839 C844 0.949 . S
H840 C846 0.950 . S
H841 C847 0.950 . S
H842 C848 0.949 . S
C843 H838 0.950 . S
C843 C845 1.327 . S
C843 C849 1.429 1_455 S
C844 C836 1.574 . S
C844 H839 0.949 . S
C844 C850 1.368 . S
C845 C829 1.349 1_455 S
C845 H837 0.953 1_556 S
C845 C843 1.327 . S
C846 C834 1.349 . S
C846 H840 0.950 . S
C846 C847 1.327 . S
C847 H841 0.950 . S
C847 C846 1.327 . S
C847 C851 1.429 . S
C848 C831 1.574 . S
C848 H842 0.949 . S
C848 C852 1.368 1_455 S
C849 C830 1.429 . S
C849 C843 1.429 1_655 S
C849 C850 1.523 . S
C850 C831 1.368 1_655 S
C850 C844 1.368 . S
C850 C849 1.523 . S
C851 C835 1.429 1_655 S
C851 C847 1.429 . S
C851 C852 1.523 . S
C852 C836 1.368 . S
C852 C848 1.368 1_655 S
C852 C851 1.523 . S
H853 C828 0.950 . S
H854 C830 0.950 . S
H855 C831 0.949 . S
H856 C833 0.950 . S
H857 C835 0.950 . S
C858 C859 1.349 . S
C858 C860 1.327 . S
C858 H883 0.950 . S
C859 C858 1.349 . S
C859 C875 1.349 1_556 S
C860 C858 1.327 . S
C860 C879 1.429 . S
C860 H884 0.950 . S
C861 C878 1.574 . S
C861 C880 1.368 . S
C861 H885 0.949 1_556 S
H862 C866 0.949 . S
C863 C864 1.349 . S
C863 C865 1.327 . S
C863 H886 0.950 . S
C864 C863 1.349 . S
C864 C876 1.349 . S
C865 C863 1.327 . S
C865 C881 1.429 . S
C865 H887 0.950 . S
C866 H862 0.949 . S
C866 C874 1.574 . S
C866 C882 1.368 . S
H867 C875 0.950 . S
H868 C873 0.950 . S
H869 C874 0.949 . S
H870 C876 0.950 . S
H871 C877 0.950 . S
H872 C878 0.949 1_554 S
C873 H868 0.950 . S
C873 C875 1.327 . S
C873 C879 1.429 1_554 S
C874 C866 1.574 . S
C874 H869 0.949 . S
C874 C880 1.368 . S
C875 C859 1.349 1_554 S
C875 H867 0.950 . S
C875 C873 1.327 . S
C876 C864 1.349 . S
C876 H870 0.950 . S
C876 C877 1.327 . S
C877 H871 0.950 . S
C877 C876 1.327 . S
C877 C881 1.429 . S
C878 C861 1.574 . S
C878 H872 0.949 1_556 S
C878 C882 1.368 . S
C879 C860 1.429 . S
C879 C873 1.429 1_556 S
C879 C880 1.523 . S
C880 C861 1.368 . S
C880 C874 1.368 . S
C880 C879 1.523 . S
C881 C865 1.429 . S
C881 C877 1.429 . S
C881 C882 1.523 . S
C882 C866 1.368 . S
C882 C878 1.368 . S
C882 C881 1.523 . S
H883 C858 0.950 . S
H884 C860 0.950 . S
H885 C861 0.949 1_554 S
H886 C863 0.950 . S
H887 C865 0.950 . S
C888 C889 1.349 1_554 S
C888 C890 1.327 . S
C888 H913 0.950 . S
C889 C888 1.349 1_556 S
C889 C905 1.349 . S
C890 C888 1.327 . S
C890 C909 1.429 1_554 S
C890 H914 0.950 . S
C891 C908 1.574 . S
C891 C910 1.368 . S
C891 H915 0.949 . S
H892 C896 0.949 . S
C893 C894 1.349 . S
C893 C895 1.327 . S
C893 H916 0.950 . S
C894 C893 1.349 . S
C894 C906 1.349 . S
C895 C893 1.327 . S
C895 C911 1.429 . S
C895 H917 0.950 . S
C896 H892 0.949 . S
C896 C904 1.574 . S
C896 C912 1.368 . S
H897 C905 0.950 . S
H898 C903 0.950 . S
H899 C904 0.949 1_554 S
H900 C906 0.950 . S
H901 C907 0.950 . S
H902 C908 0.949 . S
C903 H898 0.950 . S
C903 C905 1.327 . S
C903 C909 1.429 . S
C904 C896 1.574 . S
C904 H899 0.949 1_556 S
C904 C910 1.368 . S
C905 C889 1.349 . S
C905 H897 0.950 . S
C905 C903 1.327 . S
C906 C894 1.349 . S
C906 H900 0.950 . S
C906 C907 1.327 . S
C907 H901 0.950 . S
C907 C906 1.327 . S
C907 C911 1.429 . S
C908 C891 1.574 . S
C908 H902 0.949 . S
C908 C912 1.368 . S
C909 C890 1.429 1_556 S
C909 C903 1.429 . S
C909 C910 1.523 . S
C910 C891 1.368 . S
C910 C904 1.368 . S
C910 C909 1.523 . S
C911 C895 1.429 . S
C911 C907 1.429 . S
C911 C912 1.523 . S
C912 C896 1.368 . S
C912 C908 1.368 . S
C912 C911 1.523 . S
H913 C888 0.950 . S
H914 C890 0.950 . S
H915 C891 0.949 . S
H916 C893 0.950 . S
H917 C895 0.950 . S
C918 C919 1.349 . S
C918 C920 1.327 . S
C918 H943 0.950 . S
C919 C918 1.349 . S
C919 C935 1.349 . S
C920 C918 1.327 . S
C920 C939 1.429 . S
C920 H944 0.921 1_545 S
C921 C938 1.574 . S
C921 C940 1.368 . S
C921 H945 0.949 . S
H922 C926 0.949 . S
C923 C924 1.349 . S
C923 C925 1.339 . S
C923 H946 0.948 . S
C924 C923 1.349 . S
C924 C936 1.349 . S
C925 C923 1.339 . S
C925 C941 1.427 . S
C925 H947 0.940 1_565 S
C926 H922 0.949 . S
C926 C934 1.574 . S
C926 C942 1.370 . S
H927 C935 0.950 . S
H928 C933 0.950 . S
H929 C934 0.949 . S
H930 C936 0.950 . S
H931 C937 0.950 . S
H932 C938 0.949 . S
C933 H928 0.950 . S
C933 C935 1.327 . S
C933 C939 1.429 . S
C934 C926 1.574 . S
C934 H929 0.949 . S
C934 C940 1.368 1_565 S
C935 C919 1.349 . S
C935 H927 0.950 . S
C935 C933 1.327 . S
C936 C924 1.349 . S
C936 H930 0.950 . S
C936 C937 1.327 . S
C937 H931 0.950 . S
C937 C936 1.327 . S
C937 C941 1.429 . S
C938 C921 1.574 . S
C938 H932 0.949 . S
C938 C942 1.346 1_545 S
C939 C920 1.429 . S
C939 C933 1.429 . S
C939 C940 1.523 . S
C940 C921 1.368 . S
C940 C934 1.368 1_545 S
C940 C939 1.523 . S
C941 C925 1.427 . S
C941 C937 1.429 . S
C941 C942 1.554 . S
C942 C926 1.370 . S
C942 C938 1.346 1_565 S
C942 C941 1.554 . S
H943 C918 0.950 . S
H944 C920 0.921 1_565 S
H945 C921 0.949 . S
H946 C923 0.948 . S
H947 C925 0.940 1_545 S
C948 C949 1.349 . S
C948 C950 1.327 . S
C948 H973 0.950 . S
C949 C948 1.349 . S
C949 C965 1.349 . S
C950 C948 1.327 . S
C950 C969 1.429 . S
C950 H974 0.950 . S
C951 C968 1.574 . S
C951 C970 1.368 . S
C951 H975 0.949 . S
H952 C956 0.949 . S
C953 C954 1.349 . S
C953 C955 1.327 . S
C953 H976 0.950 . S
C954 C953 1.349 . S
C954 C966 1.349 . S
C955 C953 1.327 . S
C955 C971 1.429 . S
C955 H977 0.950 . S
C956 H952 0.949 . S
C956 C964 1.574 . S
C956 C972 1.368 . S
H957 C965 0.950 . S
H958 C963 0.950 . S
H959 C964 0.949 . S
H960 C966 0.950 . S
H961 C967 0.950 . S
H962 C968 0.949 . S
C963 H958 0.950 . S
C963 C965 1.327 . S
C963 C969 1.429 . S
C964 C956 1.574 . S
C964 H959 0.949 . S
C964 C970 1.368 . S
C965 C949 1.349 . S
C965 H957 0.950 . S
C965 C963 1.327 . S
C966 C954 1.349 . S
C966 H960 0.950 . S
C966 C967 1.327 . S
C967 H961 0.950 . S
C967 C966 1.327 . S
C967 C971 1.429 . S
C968 C951 1.574 . S
C968 H962 0.949 . S
C968 C972 1.368 . S
C969 C950 1.429 . S
C969 C963 1.429 . S
C969 C970 1.523 . S
C970 C951 1.368 . S
C970 C964 1.368 . S
C970 C969 1.523 . S
C971 C955 1.429 . S
C971 C967 1.429 . S
C971 C972 1.523 . S
C972 C956 1.368 . S
C972 C968 1.368 . S
C972 C971 1.523 . S
H973 C948 0.950 . S
H974 C950 0.950 . S
H975 C951 0.949 . S
H976 C953 0.950 . S
H977 C955 0.950 . S
C978 C979 1.349 . S
C978 C980 1.327 . S
C978 H1003 0.950 . S
C979 C978 1.349 . S
C979 C995 1.349 . S
C980 C978 1.327 . S
C980 C999 1.429 . S
C980 H1004 0.950 . S
C981 C998 1.574 . S
C981 C1000 1.368 . S
C981 H1005 0.949 . S
H982 C986 0.949 . S
C983 C984 1.349 . S
C983 C985 1.327 . S
C983 H1006 0.950 . S
C984 C983 1.349 . S
C984 C996 1.349 . S
C985 C983 1.327 . S
C985 C1001 1.429 . S
C985 H1007 0.950 . S
C986 H982 0.949 . S
C986 C994 1.574 . S
C986 C1002 1.368 . S
H987 C995 0.950 . S
H988 C993 0.950 . S
H989 C994 0.949 . S
H990 C996 0.950 . S
H991 C997 0.950 . S
H992 C998 0.949 . S
C993 H988 0.950 . S
C993 C995 1.327 . S
C993 C999 1.429 . S
C994 C986 1.574 . S
C994 H989 0.949 . S
C994 C1000 1.368 . S
C995 C979 1.349 . S
C995 H987 0.950 . S
C995 C993 1.327 . S
C996 C984 1.349 . S
C996 H990 0.950 . S
C996 C997 1.327 . S
C997 H991 0.950 . S
C997 C996 1.327 . S
C997 C1001 1.429 . S
C998 C981 1.574 . S
C998 H992 0.949 . S
C998 C1002 1.368 . S
C999 C980 1.429 . S
C999 C993 1.429 . S
C999 C1000 1.523 . S
C1000 C981 1.368 . S
C1000 C994 1.368 . S
C1000 C999 1.523 . S
C1001 C985 1.429 . S
C1001 C997 1.429 . S
C1001 C1002 1.523 . S
C1002 C986 1.368 . S
C1002 C998 1.368 . S
C1002 C1001 1.523 . S
H1003 C978 0.950 . S
H1004 C980 0.950 . S
H1005 C981 0.949 . S
H1006 C983 0.950 . S
H1007 C985 0.950 . S
C1008 C1009 1.349 . S
C1008 C1010 1.327 . S
C1008 H1033 0.950 . S
C1009 C1008 1.349 . S
C1009 C1025 1.349 . S
C1010 C1008 1.327 . S
C1010 C1029 1.429 . S
C1010 H1034 0.950 . S
C1011 C1028 1.574 . S
C1011 C1030 1.368 . S
C1011 H1035 0.949 . S
H1012 C1016 0.949 . S
C1013 C1014 1.349 . S
C1013 C1015 1.327 . S
C1013 H1036 0.950 . S
C1014 C1013 1.349 . S
C1014 C1026 1.349 . S
C1015 C1013 1.327 . S
C1015 C1031 1.429 . S
C1015 H1037 0.950 . S
C1016 H1012 0.949 . S
C1016 C1024 1.574 . S
C1016 C1032 1.368 . S
H1017 C1025 0.950 . S
H1018 C1023 0.950 . S
H1019 C1024 0.949 . S
H1020 C1026 0.950 . S
H1021 C1027 0.950 . S
H1022 C1028 0.949 . S
C1023 H1018 0.950 . S
C1023 C1025 1.327 . S
C1023 C1029 1.429 . S
C1024 C1016 1.574 . S
C1024 H1019 0.949 . S
C1024 C1030 1.368 . S
C1025 C1009 1.349 . S
C1025 H1017 0.950 . S
C1025 C1023 1.327 . S
C1026 C1014 1.349 . S
C1026 H1020 0.950 . S
C1026 C1027 1.327 . S
C1027 H1021 0.950 . S
C1027 C1026 1.327 . S
C1027 C1031 1.429 . S
C1028 C1011 1.574 . S
C1028 H1022 0.949 . S
C1028 C1032 1.368 . S
C1029 C1010 1.429 . S
C1029 C1023 1.429 . S
C1029 C1030 1.523 . S
C1030 C1011 1.368 . S
C1030 C1024 1.368 . S
C1030 C1029 1.523 . S
C1031 C1015 1.429 . S
C1031 C1027 1.429 . S
C1031 C1032 1.523 . S
C1032 C1016 1.368 . S
C1032 C1028 1.368 . S
C1032 C1031 1.523 . S
H1033 C1008 0.950 . S
H1034 C1010 0.950 . S
H1035 C1011 0.949 . S
H1036 C1013 0.950 . S
H1037 C1015 0.950 . S
C1038 C1039 1.349 . S
C1038 C1040 1.327 . S
C1038 H1063 0.950 . S
C1039 C1038 1.349 . S
C1039 C1055 1.349 . S
C1040 C1038 1.327 . S
C1040 C1059 1.429 . S
C1040 H1064 0.950 . S
C1041 C1058 1.574 1_565 S
C1041 C1060 1.368 . S
C1041 H1065 0.949 . S
H1042 C1046 0.949 . S
C1043 C1044 1.349 . S
C1043 C1045 1.327 . S
C1043 H1066 0.950 . S
C1044 C1043 1.349 . S
C1044 C1056 1.349 . S
C1045 C1043 1.327 . S
C1045 C1061 1.429 . S
C1045 H1067 0.950 . S
C1046 H1042 0.949 . S
C1046 C1054 1.574 . S
C1046 C1062 1.368 1_565 S
H1047 C1055 0.950 . S
H1048 C1053 0.950 . S
H1049 C1054 0.949 . S
H1050 C1056 0.950 . S
H1051 C1057 0.950 . S
H1052 C1058 0.949 . S
C1053 H1048 0.950 . S
C1053 C1055 1.327 . S
C1053 C1059 1.429 . S
C1054 C1046 1.574 . S
C1054 H1049 0.949 . S
C1054 C1060 1.368 . S
C1055 C1039 1.349 . S
C1055 H1047 0.950 . S
C1055 C1053 1.327 . S
C1056 C1044 1.349 . S
C1056 H1050 0.950 . S
C1056 C1057 1.327 . S
C1057 H1051 0.950 . S
C1057 C1056 1.327 . S
C1057 C1061 1.429 . S
C1058 C1041 1.574 1_545 S
C1058 H1052 0.949 . S
C1058 C1062 1.368 . S
C1059 C1040 1.429 . S
C1059 C1053 1.429 . S
C1059 C1060 1.523 . S
C1060 C1041 1.368 . S
C1060 C1054 1.368 . S
C1060 C1059 1.523 . S
C1061 C1045 1.429 . S
C1061 C1057 1.429 . S
C1061 C1062 1.523 . S
C1062 C1046 1.368 1_545 S
C1062 C1058 1.368 . S
C1062 C1061 1.523 . S
H1063 C1038 0.950 . S
H1064 C1040 0.950 . S
H1065 C1041 0.949 . S
H1066 C1043 0.950 . S
H1067 C1045 0.950 . S
C1068 C1069 1.349 . S
C1068 C1070 1.327 . S
C1068 H1093 0.950 . S
C1069 C1068 1.349 . S
C1069 C1085 1.349 . S
C1070 C1068 1.327 . S
C1070 C1089 1.429 . S
C1070 H1094 0.950 . S
C1071 C1088 1.574 . S
C1071 C1090 1.368 . S
C1071 H1095 0.949 . S
H1072 C1076 0.949 . S
C1073 C1074 1.349 . S
C1073 C1075 1.327 . S
C1073 H1096 0.950 . S
C1074 C1073 1.349 . S
C1074 C1086 1.349 . S
C1075 C1073 1.327 . S
C1075 C1091 1.429 . S
C1075 H1097 0.950 . S
C1076 H1072 0.949 . S
C1076 C1084 1.574 . S
C1076 C1092 1.368 . S
H1077 C1085 0.950 . S
H1078 C1083 0.950 . S
H1079 C1084 0.949 . S
H1080 C1086 0.950 . S
H1081 C1087 0.950 . S
H1082 C1088 0.949 . S
C1083 H1078 0.950 . S
C1083 C1085 1.327 . S
C1083 C1089 1.429 . S
C1084 C1076 1.574 . S
C1084 H1079 0.949 . S
C1084 C1090 1.368 . S
C1085 C1069 1.349 . S
C1085 H1077 0.950 . S
C1085 C1083 1.327 . S
C1086 C1074 1.349 . S
C1086 H1080 0.950 . S
C1086 C1087 1.327 . S
C1087 H1081 0.950 . S
C1087 C1086 1.327 . S
C1087 C1091 1.429 . S
C1088 C1071 1.574 . S
C1088 H1082 0.949 . S
C1088 C1092 1.368 . S
C1089 C1070 1.429 . S
C1089 C1083 1.429 . S
C1089 C1090 1.523 . S
C1090 C1071 1.368 . S
C1090 C1084 1.368 . S
C1090 C1089 1.523 . S
C1091 C1075 1.429 . S
C1091 C1087 1.429 . S
C1091 C1092 1.523 . S
C1092 C1076 1.368 . S
C1092 C1088 1.368 . S
C1092 C1091 1.523 . S
H1093 C1068 0.950 . S
H1094 C1070 0.950 . S
H1095 C1071 0.949 . S
H1096 C1073 0.950 . S
H1097 C1075 0.950 . S
C1098 C1099 1.349 . S
C1098 C1100 1.327 . S
C1098 H1123 0.950 . S
C1099 C1098 1.349 . S
C1099 C1115 1.349 . S
C1100 C1098 1.327 . S
C1100 C1119 1.429 . S
C1100 H1124 0.950 . S
C1101 C1118 1.574 . S
C1101 C1120 1.368 . S
C1101 H1125 0.949 . S
H1102 C1106 0.949 . S
C1103 C1104 1.349 . S
C1103 C1105 1.327 . S
C1103 H1126 0.950 . S
C1104 C1103 1.349 . S
C1104 C1116 1.349 . S
C1105 C1103 1.327 . S
C1105 C1121 1.429 . S
C1105 H1127 0.950 . S
C1106 H1102 0.949 . S
C1106 C1114 1.574 . S
C1106 C1122 1.368 . S
H1107 C1115 0.950 . S
H1108 C1113 0.950 . S
H1109 C1114 0.949 . S
H1110 C1116 0.950 . S
H1111 C1117 0.950 . S
H1112 C1118 0.949 . S
C1113 H1108 0.950 . S
C1113 C1115 1.327 . S
C1113 C1119 1.429 . S
C1114 C1106 1.574 . S
C1114 H1109 0.949 . S
C1114 C1120 1.368 . S
C1115 C1099 1.349 . S
C1115 H1107 0.950 . S
C1115 C1113 1.327 . S
C1116 C1104 1.349 . S
C1116 H1110 0.950 . S
C1116 C1117 1.327 . S
C1117 H1111 0.950 . S
C1117 C1116 1.327 . S
C1117 C1121 1.429 . S
C1118 C1101 1.574 . S
C1118 H1112 0.949 . S
C1118 C1122 1.368 . S
C1119 C1100 1.429 . S
C1119 C1113 1.429 . S
C1119 C1120 1.523 . S
C1120 C1101 1.368 . S
C1120 C1114 1.368 . S
C1120 C1119 1.523 . S
C1121 C1105 1.429 . S
C1121 C1117 1.429 . S
C1121 C1122 1.523 . S
C1122 C1106 1.368 . S
C1122 C1118 1.368 . S
C1122 C1121 1.523 . S
H1123 C1098 0.950 . S
H1124 C1100 0.950 . S
H1125 C1101 0.949 . S
H1126 C1103 0.950 . S
H1127 C1105 0.950 . S
C1128 C1129 1.349 . S
C1128 C1130 1.327 . S
C1128 H1153 0.950 . S
C1129 C1128 1.349 . S
C1129 C1145 1.349 . S
C1130 C1128 1.327 . S
C1130 C1149 1.429 . S
C1130 H1154 0.950 . S
C1131 C1148 1.574 . S
C1131 C1150 1.368 . S
C1131 H1155 0.949 . S
H1132 C1136 0.949 . S
C1133 C1134 1.349 . S
C1133 C1135 1.327 . S
C1133 H1156 0.950 . S
C1134 C1133 1.349 . S
C1134 C1146 1.349 . S
C1135 C1133 1.327 . S
C1135 C1151 1.429 . S
C1135 H1157 0.950 . S
C1136 H1132 0.949 . S
C1136 C1144 1.574 . S
C1136 C1152 1.368 . S
H1137 C1145 0.950 . S
H1138 C1143 0.950 . S
H1139 C1144 0.949 . S
H1140 C1146 0.950 . S
H1141 C1147 0.950 . S
H1142 C1148 0.949 . S
C1143 H1138 0.950 . S
C1143 C1145 1.327 . S
C1143 C1149 1.429 . S
C1144 C1136 1.574 . S
C1144 H1139 0.949 . S
C1144 C1150 1.368 . S
C1145 C1129 1.349 . S
C1145 H1137 0.950 . S
C1145 C1143 1.327 . S
C1146 C1134 1.349 . S
C1146 H1140 0.950 . S
C1146 C1147 1.327 . S
C1147 H1141 0.950 . S
C1147 C1146 1.327 . S
C1147 C1151 1.429 . S
C1148 C1131 1.574 . S
C1148 H1142 0.949 . S
C1148 C1152 1.368 . S
C1149 C1130 1.429 . S
C1149 C1143 1.429 . S
C1149 C1150 1.523 . S
C1150 C1131 1.368 . S
C1150 C1144 1.368 . S
C1150 C1149 1.523 . S
C1151 C1135 1.429 . S
C1151 C1147 1.429 . S
C1151 C1152 1.523 . S
C1152 C1136 1.368 . S
C1152 C1148 1.368 . S
C1152 C1151 1.523 . S
H1153 C1128 0.950 . S
H1154 C1130 0.950 . S
H1155 C1131 0.949 . S
H1156 C1133 0.950 . S
H1157 C1135 0.950 . S
C1158 C1159 1.349 . S
C1158 C1160 1.327 . S
C1158 H1183 0.950 . S
C1159 C1158 1.349 . S
C1159 C1175 1.349 . S
C1160 C1158 1.327 . S
C1160 C1179 1.429 . S
C1160 H1184 0.950 . S
C1161 C1178 1.574 . S
C1161 C1180 1.368 . S
C1161 H1185 0.949 . S
H1162 C1166 0.949 . S
C1163 C1164 1.339 1_565 S
C1163 C1165 1.327 . S
C1163 H1186 0.950 . S
C1164 C1163 1.339 1_545 S
C1164 C1176 1.360 1_545 S
C1165 C1163 1.327 . S
C1165 C1181 1.429 . S
C1165 H1187 0.950 . S
C1166 H1162 0.949 . S
C1166 C1174 1.574 . S
C1166 C1182 1.368 . S
H1167 C1175 0.950 . S
H1168 C1173 0.950 . S
H1169 C1174 0.949 . S
H1170 C1176 0.938 1_545 S
H1171 C1177 0.950 . S
H1172 C1178 0.949 . S
C1173 H1168 0.950 . S
C1173 C1175 1.327 . S
C1173 C1179 1.429 . S
C1174 C1166 1.574 . S
C1174 H1169 0.949 . S
C1174 C1180 1.368 . S
C1175 C1159 1.349 . S
C1175 H1167 0.950 . S
C1175 C1173 1.327 . S
C1176 C1164 1.360 1_565 S
C1176 H1170 0.938 1_565 S
C1176 C1177 1.340 . S
C1177 H1171 0.950 . S
C1177 C1176 1.340 . S
C1177 C1181 1.429 . S
C1178 C1161 1.574 . S
C1178 H1172 0.949 . S
C1178 C1182 1.368 . S
C1179 C1160 1.429 . S
C1179 C1173 1.429 . S
C1179 C1180 1.523 . S
C1180 C1161 1.368 . S
C1180 C1174 1.368 . S
C1180 C1179 1.523 . S
C1181 C1165 1.429 . S
C1181 C1177 1.429 . S
C1181 C1182 1.523 . S
C1182 C1166 1.368 . S
C1182 C1178 1.368 . S
C1182 C1181 1.523 . S
H1183 C1158 0.950 . S
H1184 C1160 0.950 . S
H1185 C1161 0.949 . S
H1186 C1163 0.950 . S
H1187 C1165 0.950 . S
C1188 C1189 1.349 . S
C1188 C1190 1.327 . S
C1188 H1213 0.950 . S
C1189 C1188 1.349 . S
C1189 C1205 1.349 . S
C1190 C1188 1.327 . S
C1190 C1209 1.429 . S
C1190 H1214 0.950 . S
C1191 C1208 1.574 . S
C1191 C1210 1.368 . S
C1191 H1215 0.949 . S
H1192 C1196 0.949 . S
C1193 C1194 1.349 . S
C1193 C1195 1.327 1_545 S
C1193 H1216 0.950 . S
C1194 C1193 1.349 . S
C1194 C1206 1.349 . S
C1195 C1193 1.327 1_565 S
C1195 C1211 1.429 . S
C1195 H1217 0.950 . S
C1196 H1192 0.949 . S
C1196 C1204 1.574 . S
C1196 C1212 1.368 . S
H1197 C1205 0.950 . S
H1198 C1203 0.950 . S
H1199 C1204 0.949 . S
H1200 C1206 0.950 . S
H1201 C1207 0.950 . S
H1202 C1208 0.949 . S
C1203 H1198 0.950 . S
C1203 C1205 1.327 . S
C1203 C1209 1.429 . S
C1204 C1196 1.574 . S
C1204 H1199 0.949 . S
C1204 C1210 1.368 . S
C1205 C1189 1.349 . S
C1205 H1197 0.950 . S
C1205 C1203 1.327 . S
C1206 C1194 1.349 . S
C1206 H1200 0.950 . S
C1206 C1207 1.327 . S
C1207 H1201 0.950 . S
C1207 C1206 1.327 . S
C1207 C1211 1.429 1_545 S
C1208 C1191 1.574 . S
C1208 H1202 0.949 . S
C1208 C1212 1.368 . S
C1209 C1190 1.429 . S
C1209 C1203 1.429 . S
C1209 C1210 1.523 . S
C1210 C1191 1.368 . S
C1210 C1204 1.368 . S
C1210 C1209 1.523 . S
C1211 C1195 1.429 . S
C1211 C1207 1.429 1_565 S
C1211 C1212 1.523 . S
C1212 C1196 1.368 . S
C1212 C1208 1.368 . S
C1212 C1211 1.523 . S
H1213 C1188 0.950 . S
H1214 C1190 0.950 . S
H1215 C1191 0.949 . S
H1216 C1193 0.950 . S
H1217 C1195 0.950 . S
C1218 C1219 1.349 . S
C1218 C1220 1.327 . S
C1218 H1243 0.950 . S
C1219 C1218 1.349 . S
C1219 C1235 1.349 . S
C1220 C1218 1.327 . S
C1220 C1239 1.429 . S
C1220 H1244 0.950 . S
C1221 C1238 1.574 . S
C1221 C1240 1.368 . S
C1221 H1245 0.949 . S
H1222 C1226 0.949 . S
C1223 C1224 1.349 . S
C1223 C1225 1.327 . S
C1223 H1246 0.950 . S
C1224 C1223 1.349 . S
C1224 C1236 1.349 . S
C1225 C1223 1.327 . S
C1225 C1241 1.429 . S
C1225 H1247 0.950 . S
C1226 H1222 0.949 . S
C1226 C1234 1.574 . S
C1226 C1242 1.368 . S
H1227 C1235 0.950 . S
H1228 C1233 0.950 . S
H1229 C1234 0.949 . S
H1230 C1236 0.950 . S
H1231 C1237 0.950 . S
H1232 C1238 0.949 . S
C1233 H1228 0.950 . S
C1233 C1235 1.327 . S
C1233 C1239 1.429 . S
C1234 C1226 1.574 . S
C1234 H1229 0.949 . S
C1234 C1240 1.368 . S
C1235 C1219 1.349 . S
C1235 H1227 0.950 . S
C1235 C1233 1.327 . S
C1236 C1224 1.349 . S
C1236 H1230 0.950 . S
C1236 C1237 1.327 . S
C1237 H1231 0.950 . S
C1237 C1236 1.327 . S
C1237 C1241 1.429 . S
C1238 C1221 1.574 . S
C1238 H1232 0.949 . S
C1238 C1242 1.368 . S
C1239 C1220 1.429 . S
C1239 C1233 1.429 . S
C1239 C1240 1.523 . S
C1240 C1221 1.368 . S
C1240 C1234 1.368 . S
C1240 C1239 1.523 . S
C1241 C1225 1.429 . S
C1241 C1237 1.429 . S
C1241 C1242 1.523 . S
C1242 C1226 1.368 . S
C1242 C1238 1.368 . S
C1242 C1241 1.523 . S
H1243 C1218 0.950 . S
H1244 C1220 0.950 . S
H1245 C1221 0.949 . S
H1246 C1223 0.950 . S
H1247 C1225 0.950 . S
C1248 C1249 1.349 . S
C1248 C1250 1.327 . S
C1248 H1273 0.950 . S
C1249 C1248 1.349 . S
C1249 C1265 1.349 . S
C1250 C1248 1.327 . S
C1250 C1269 1.429 . S
C1250 H1274 0.950 . S
C1251 C1268 1.574 . S
C1251 C1270 1.368 . S
C1251 H1275 0.949 . S
H1252 C1256 0.949 . S
C1253 C1254 1.349 . S
C1253 C1255 1.327 . S
C1253 H1276 0.950 . S
C1254 C1253 1.349 . S
C1254 C1266 1.349 . S
C1255 C1253 1.327 . S
C1255 C1271 1.429 . S
C1255 H1277 0.950 . S
C1256 H1252 0.949 . S
C1256 C1264 1.574 . S
C1256 C1272 1.368 . S
H1257 C1265 0.950 . S
H1258 C1263 0.950 . S
H1259 C1264 0.949 . S
H1260 C1266 0.950 . S
H1261 C1267 0.950 . S
H1262 C1268 0.949 . S
C1263 H1258 0.950 . S
C1263 C1265 1.327 . S
C1263 C1269 1.429 . S
C1264 C1256 1.574 . S
C1264 H1259 0.949 . S
C1264 C1270 1.368 . S
C1265 C1249 1.349 . S
C1265 H1257 0.950 . S
C1265 C1263 1.327 . S
C1266 C1254 1.349 . S
C1266 H1260 0.950 . S
C1266 C1267 1.327 . S
C1267 H1261 0.950 . S
C1267 C1266 1.327 . S
C1267 C1271 1.429 . S
C1268 C1251 1.574 . S
C1268 H1262 0.949 . S
C1268 C1272 1.368 . S
C1269 C1250 1.429 . S
C1269 C1263 1.429 . S
C1269 C1270 1.523 . S
C1270 C1251 1.368 . S
C1270 C1264 1.368 . S
C1270 C1269 1.523 . S
C1271 C1255 1.429 . S
C1271 C1267 1.429 . S
C1271 C1272 1.523 . S
C1272 C1256 1.368 . S
C1272 C1268 1.368 . S
C1272 C1271 1.523 . S
H1273 C1248 0.950 . S
H1274 C1250 0.950 . S
H1275 C1251 0.949 . S
H1276 C1253 0.950 . S
H1277 C1255 0.950 . S
C1278 C1279 1.349 . S
C1278 C1280 1.327 . S
C1278 H1303 0.950 . S
C1279 C1278 1.349 . S
C1279 C1295 1.349 . S
C1280 C1278 1.327 . S
C1280 C1299 1.429 . S
C1280 H1304 0.950 . S
C1281 C1298 1.574 . S
C1281 C1300 1.368 . S
C1281 H1305 0.949 . S
H1282 C1286 0.949 . S
C1283 C1284 1.349 . S
C1283 C1285 1.327 . S
C1283 H1306 0.950 . S
C1284 C1283 1.349 . S
C1284 C1296 1.349 . S
C1285 C1283 1.327 . S
C1285 C1301 1.429 . S
C1285 H1307 0.950 . S
C1286 H1282 0.949 . S
C1286 C1294 1.574 . S
C1286 C1302 1.368 . S
H1287 C1295 0.950 . S
H1288 C1293 0.950 . S
H1289 C1294 0.949 . S
H1290 C1296 0.950 . S
H1291 C1297 0.950 . S
H1292 C1298 0.949 . S
C1293 H1288 0.950 . S
C1293 C1295 1.327 . S
C1293 C1299 1.429 . S
C1294 C1286 1.574 . S
C1294 H1289 0.949 . S
C1294 C1300 1.368 . S
C1295 C1279 1.349 . S
C1295 H1287 0.950 . S
C1295 C1293 1.327 . S
C1296 C1284 1.349 . S
C1296 H1290 0.950 . S
C1296 C1297 1.327 . S
C1297 H1291 0.950 . S
C1297 C1296 1.327 . S
C1297 C1301 1.429 . S
C1298 C1281 1.574 . S
C1298 H1292 0.949 . S
C1298 C1302 1.368 . S
C1299 C1280 1.429 . S
C1299 C1293 1.429 . S
C1299 C1300 1.523 . S
C1300 C1281 1.368 . S
C1300 C1294 1.368 . S
C1300 C1299 1.523 . S
C1301 C1285 1.429 . S
C1301 C1297 1.429 . S
C1301 C1302 1.523 . S
C1302 C1286 1.368 . S
C1302 C1298 1.368 . S
C1302 C1301 1.523 . S
H1303 C1278 0.950 . S
H1304 C1280 0.950 . S
H1305 C1281 0.949 . S
H1306 C1283 0.950 . S
H1307 C1285 0.950 . S
C1308 C1309 1.349 . S
C1308 C1310 1.327 . S
C1308 H1333 0.950 . S
C1309 C1308 1.349 . S
C1309 C1325 1.349 . S
C1310 C1308 1.327 . S
C1310 C1329 1.429 . S
C1310 H1334 0.950 . S
C1311 C1328 1.574 1_565 S
C1311 C1330 1.368 . S
C1311 H1335 0.949 . S
H1312 C1316 0.949 . S
C1313 C1314 1.349 . S
C1313 C1315 1.327 . S
C1313 H1336 0.950 . S
C1314 C1313 1.349 . S
C1314 C1326 1.349 . S
C1315 C1313 1.327 . S
C1315 C1331 1.429 . S
C1315 H1337 0.950 . S
C1316 H1312 0.949 . S
C1316 C1324 1.574 1_545 S
C1316 C1332 1.368 . S
H1317 C1325 0.950 . S
H1318 C1323 0.950 . S
H1319 C1324 0.949 . S
H1320 C1326 0.950 . S
H1321 C1327 0.950 . S
H1322 C1328 0.949 . S
C1323 H1318 0.950 . S
C1323 C1325 1.327 . S
C1323 C1329 1.429 . S
C1324 C1316 1.574 1_565 S
C1324 H1319 0.949 . S
C1324 C1330 1.368 . S
C1325 C1309 1.349 . S
C1325 H1317 0.950 . S
C1325 C1323 1.327 . S
C1326 C1314 1.349 . S
C1326 H1320 0.950 . S
C1326 C1327 1.327 . S
C1327 H1321 0.950 . S
C1327 C1326 1.327 . S
C1327 C1331 1.429 . S
C1328 C1311 1.574 1_545 S
C1328 H1322 0.949 . S
C1328 C1332 1.368 . S
C1329 C1310 1.429 . S
C1329 C1323 1.429 . S
C1329 C1330 1.523 . S
C1330 C1311 1.368 . S
C1330 C1324 1.368 . S
C1330 C1329 1.523 . S
C1331 C1315 1.429 . S
C1331 C1327 1.429 . S
C1331 C1332 1.523 . S
C1332 C1316 1.368 . S
C1332 C1328 1.368 . S
C1332 C1331 1.523 . S
H1333 C1308 0.950 . S
H1334 C1310 0.950 . S
H1335 C1311 0.949 . S
H1336 C1313 0.950 . S
H1337 C1315 0.950 . S
C1338 C1339 1.349 . S
C1338 C1340 1.327 . S
C1338 H1363 0.950 . S
C1339 C1338 1.349 . S
C1339 C1355 1.349 . S
C1340 C1338 1.327 . S
C1340 C1359 1.429 . S
C1340 H1364 0.950 . S
C1341 C1358 1.574 . S
C1341 C1360 1.368 . S
C1341 H1365 0.949 . S
H1342 C1346 0.949 . S
C1343 C1344 1.349 . S
C1343 C1345 1.327 . S
C1343 H1366 0.950 . S
C1344 C1343 1.349 . S
C1344 C1356 1.349 . S
C1345 C1343 1.327 . S
C1345 C1361 1.429 . S
C1345 H1367 0.950 . S
C1346 H1342 0.949 . S
C1346 C1354 1.574 . S
C1346 C1362 1.368 . S
H1347 C1355 0.950 . S
H1348 C1353 0.950 . S
H1349 C1354 0.949 . S
H1350 C1356 0.950 . S
H1351 C1357 0.950 . S
H1352 C1358 0.949 . S
C1353 H1348 0.950 . S
C1353 C1355 1.327 . S
C1353 C1359 1.429 . S
C1354 C1346 1.574 . S
C1354 H1349 0.949 . S
C1354 C1360 1.368 . S
C1355 C1339 1.349 . S
C1355 H1347 0.950 . S
C1355 C1353 1.327 . S
C1356 C1344 1.349 . S
C1356 H1350 0.950 . S
C1356 C1357 1.327 . S
C1357 H1351 0.950 . S
C1357 C1356 1.327 . S
C1357 C1361 1.429 . S
C1358 C1341 1.574 . S
C1358 H1352 0.949 . S
C1358 C1362 1.368 . S
C1359 C1340 1.429 . S
C1359 C1353 1.429 . S
C1359 C1360 1.523 . S
C1360 C1341 1.368 . S
C1360 C1354 1.368 . S
C1360 C1359 1.523 . S
C1361 C1345 1.429 . S
C1361 C1357 1.429 . S
C1361 C1362 1.523 . S
C1362 C1346 1.368 . S
C1362 C1358 1.368 . S
C1362 C1361 1.523 . S
H1363 C1338 0.950 . S
H1364 C1340 0.950 . S
H1365 C1341 0.949 . S
H1366 C1343 0.950 . S
H1367 C1345 0.950 . S
C1368 C1369 1.349 . S
C1368 C1370 1.327 . S
C1368 H1393 0.950 . S
C1369 C1368 1.349 . S
C1369 C1385 1.349 . S
C1370 C1368 1.327 . S
C1370 C1389 1.429 . S
C1370 H1394 0.950 . S
C1371 C1388 1.574 . S
C1371 C1390 1.368 . S
C1371 H1395 0.949 . S
H1372 C1376 0.949 . S
C1373 C1374 1.349 . S
C1373 C1375 1.327 . S
C1373 H1396 0.950 . S
C1374 C1373 1.349 . S
C1374 C1386 1.349 . S
C1375 C1373 1.327 . S
C1375 C1391 1.429 . S
C1375 H1397 0.950 . S
C1376 H1372 0.949 . S
C1376 C1384 1.574 . S
C1376 C1392 1.368 . S
H1377 C1385 0.950 . S
H1378 C1383 0.950 . S
H1379 C1384 0.949 . S
H1380 C1386 0.950 . S
H1381 C1387 0.950 . S
H1382 C1388 0.949 . S
C1383 H1378 0.950 . S
C1383 C1385 1.327 . S
C1383 C1389 1.429 . S
C1384 C1376 1.574 . S
C1384 H1379 0.949 . S
C1384 C1390 1.368 . S
C1385 C1369 1.349 . S
C1385 H1377 0.950 . S
C1385 C1383 1.327 . S
C1386 C1374 1.349 . S
C1386 H1380 0.950 . S
C1386 C1387 1.327 . S
C1387 H1381 0.950 . S
C1387 C1386 1.327 . S
C1387 C1391 1.429 . S
C1388 C1371 1.574 . S
C1388 H1382 0.949 . S
C1388 C1392 1.368 . S
C1389 C1370 1.429 . S
C1389 C1383 1.429 . S
C1389 C1390 1.523 . S
C1390 C1371 1.368 . S
C1390 C1384 1.368 . S
C1390 C1389 1.523 . S
C1391 C1375 1.429 . S
C1391 C1387 1.429 . S
C1391 C1392 1.523 . S
C1392 C1376 1.368 . S
C1392 C1388 1.368 . S
C1392 C1391 1.523 . S
H1393 C1368 0.950 . S
H1394 C1370 0.950 . S
H1395 C1371 0.949 . S
H1396 C1373 0.950 . S
H1397 C1375 0.950 . S
C1398 C1399 1.349 . S
C1398 C1400 1.327 . S
C1398 H1423 0.950 . S
C1399 C1398 1.349 . S
C1399 C1415 1.349 . S
C1400 C1398 1.327 . S
C1400 C1419 1.429 . S
C1400 H1424 0.950 . S
C1401 C1418 1.574 . S
C1401 C1420 1.368 . S
C1401 H1425 0.949 . S
H1402 C1406 0.949 . S
C1403 C1404 1.334 . S
C1403 C1405 1.317 1_455 S
C1403 H1426 0.979 . S
C1404 C1403 1.334 . S
C1404 C1416 1.349 1_455 S
C1405 C1403 1.317 1_655 S
C1405 C1421 1.429 . S
C1405 H1427 0.950 . S
C1406 H1402 0.949 . S
C1406 C1414 1.574 . S
C1406 C1422 1.368 . S
H1407 C1415 0.950 . S
H1408 C1413 0.950 . S
H1409 C1414 0.949 . S
H1410 C1416 0.950 . S
H1411 C1417 0.950 . S
H1412 C1418 0.949 . S
C1413 H1408 0.950 . S
C1413 C1415 1.327 . S
C1413 C1419 1.429 . S
C1414 C1406 1.574 . S
C1414 H1409 0.949 . S
C1414 C1420 1.368 . S
C1415 C1399 1.349 . S
C1415 H1407 0.950 . S
C1415 C1413 1.327 . S
C1416 C1404 1.349 1_655 S
C1416 H1410 0.950 . S
C1416 C1417 1.327 . S
C1417 H1411 0.950 . S
C1417 C1416 1.327 . S
C1417 C1421 1.429 . S
C1418 C1401 1.574 . S
C1418 H1412 0.949 . S
C1418 C1422 1.368 . S
C1419 C1400 1.429 . S
C1419 C1413 1.429 . S
C1419 C1420 1.523 . S
C1420 C1401 1.368 . S
C1420 C1414 1.368 . S
C1420 C1419 1.523 . S
C1421 C1405 1.429 . S
C1421 C1417 1.429 . S
C1421 C1422 1.523 . S
C1422 C1406 1.368 . S
C1422 C1418 1.368 . S
C1422 C1421 1.523 . S
H1423 C1398 0.950 . S
H1424 C1400 0.950 . S
H1425 C1401 0.949 . S
H1426 C1403 0.979 . S
H1427 C1405 0.950 . S
C1428 C1429 1.349 . S
C1428 C1430 1.327 . S
C1428 H1453 0.950 . S
C1429 C1428 1.349 . S
C1429 C1445 1.349 . S
C1430 C1428 1.327 . S
C1430 C1449 1.429 . S
C1430 H1454 0.950 . S
C1431 C1448 1.574 . S
C1431 C1450 1.368 . S
C1431 H1455 0.949 . S
H1432 C1436 0.949 . S
C1433 C1434 1.349 . S
C1433 C1435 1.327 . S
C1433 H1456 0.950 . S
C1434 C1433 1.349 . S
C1434 C1446 1.349 . S
C1435 C1433 1.327 . S
C1435 C1451 1.429 . S
C1435 H1457 0.950 . S
C1436 H1432 0.949 . S
C1436 C1444 1.574 . S
C1436 C1452 1.368 . S
H1437 C1445 0.950 . S
H1438 C1443 0.950 . S
H1439 C1444 0.949 . S
H1440 C1446 0.950 . S
H1441 C1447 0.950 . S
H1442 C1448 0.949 . S
C1443 H1438 0.950 . S
C1443 C1445 1.327 . S
C1443 C1449 1.429 . S
C1444 C1436 1.574 . S
C1444 H1439 0.949 . S
C1444 C1450 1.368 . S
C1445 C1429 1.349 . S
C1445 H1437 0.950 . S
C1445 C1443 1.327 . S
C1446 C1434 1.349 . S
C1446 H1440 0.950 . S
C1446 C1447 1.327 . S
C1447 H1441 0.950 . S
C1447 C1446 1.327 . S
C1447 C1451 1.429 . S
C1448 C1431 1.574 . S
C1448 H1442 0.949 . S
C1448 C1452 1.368 . S
C1449 C1430 1.429 . S
C1449 C1443 1.429 . S
C1449 C1450 1.523 . S
C1450 C1431 1.368 . S
C1450 C1444 1.368 . S
C1450 C1449 1.523 . S
C1451 C1435 1.429 . S
C1451 C1447 1.429 . S
C1451 C1452 1.523 . S
C1452 C1436 1.368 . S
C1452 C1448 1.368 . S
C1452 C1451 1.523 . S
H1453 C1428 0.950 . S
H1454 C1430 0.950 . S
H1455 C1431 0.949 . S
H1456 C1433 0.950 . S
H1457 C1435 0.950 . S
C1458 C1459 1.349 . S
C1458 C1460 1.327 . S
C1458 H1483 0.950 . S
C1459 C1458 1.349 . S
C1459 C1475 1.349 . S
C1460 C1458 1.327 . S
C1460 C1479 1.429 . S
C1460 H1484 0.950 . S
C1461 C1478 1.574 . S
C1461 C1480 1.368 . S
C1461 H1485 0.949 . S
H1462 C1466 0.949 . S
C1463 C1464 1.349 . S
C1463 C1465 1.327 . S
C1463 H1486 0.950 . S
C1464 C1463 1.349 . S
C1464 C1476 1.349 . S
C1465 C1463 1.327 . S
C1465 C1481 1.429 . S
C1465 H1487 0.950 . S
C1466 H1462 0.949 . S
C1466 C1474 1.574 . S
C1466 C1482 1.368 . S
H1467 C1475 0.950 . S
H1468 C1473 0.950 . S
H1469 C1474 0.949 . S
H1470 C1476 0.950 . S
H1471 C1477 0.950 . S
H1472 C1478 0.949 . S
C1473 H1468 0.950 . S
C1473 C1475 1.327 . S
C1473 C1479 1.429 . S
C1474 C1466 1.574 . S
C1474 H1469 0.949 . S
C1474 C1480 1.368 . S
C1475 C1459 1.349 . S
C1475 H1467 0.950 . S
C1475 C1473 1.327 . S
C1476 C1464 1.349 . S
C1476 H1470 0.950 . S
C1476 C1477 1.327 . S
C1477 H1471 0.950 . S
C1477 C1476 1.327 . S
C1477 C1481 1.429 . S
C1478 C1461 1.574 . S
C1478 H1472 0.949 . S
C1478 C1482 1.368 . S
C1479 C1460 1.429 . S
C1479 C1473 1.429 . S
C1479 C1480 1.523 . S
C1480 C1461 1.368 . S
C1480 C1474 1.368 . S
C1480 C1479 1.523 . S
C1481 C1465 1.429 . S
C1481 C1477 1.429 . S
C1481 C1482 1.523 . S
C1482 C1466 1.368 . S
C1482 C1478 1.368 . S
C1482 C1481 1.523 . S
H1483 C1458 0.950 . S
H1484 C1460 0.950 . S
H1485 C1461 0.949 . S
H1486 C1463 0.950 . S
H1487 C1465 0.950 . S
C1488 C1489 1.349 . S
C1488 C1490 1.327 . S
C1488 H1513 0.950 . S
C1489 C1488 1.349 . S
C1489 C1505 1.349 . S
C1490 C1488 1.327 . S
C1490 C1509 1.429 . S
C1490 H1514 0.950 . S
C1491 C1508 1.574 . S
C1491 C1510 1.368 . S
C1491 H1515 0.949 . S
H1492 C1496 0.949 . S
C1493 C1494 1.349 . S
C1493 C1495 1.327 . S
C1493 H1516 0.950 . S
C1494 C1493 1.349 . S
C1494 C1506 1.349 . S
C1495 C1493 1.327 . S
C1495 C1511 1.429 . S
C1495 H1517 0.950 . S
C1496 H1492 0.949 . S
C1496 C1504 1.574 . S
C1496 C1512 1.368 . S
H1497 C1505 0.950 . S
H1498 C1503 0.950 . S
H1499 C1504 0.949 . S
H1500 C1506 0.950 . S
H1501 C1507 0.950 . S
H1502 C1508 0.949 . S
C1503 H1498 0.950 . S
C1503 C1505 1.327 . S
C1503 C1509 1.429 . S
C1504 C1496 1.574 . S
C1504 H1499 0.949 . S
C1504 C1510 1.368 . S
C1505 C1489 1.349 . S
C1505 H1497 0.950 . S
C1505 C1503 1.327 . S
C1506 C1494 1.349 . S
C1506 H1500 0.950 . S
C1506 C1507 1.327 . S
C1507 H1501 0.950 . S
C1507 C1506 1.327 . S
C1507 C1511 1.429 . S
C1508 C1491 1.574 . S
C1508 H1502 0.949 . S
C1508 C1512 1.368 . S
C1509 C1490 1.429 . S
C1509 C1503 1.429 . S
C1509 C1510 1.523 . S
C1510 C1491 1.368 . S
C1510 C1504 1.368 . S
C1510 C1509 1.523 . S
C1511 C1495 1.429 . S
C1511 C1507 1.429 . S
C1511 C1512 1.523 . S
C1512 C1496 1.368 . S
C1512 C1508 1.368 . S
C1512 C1511 1.523 . S
H1513 C1488 0.950 . S
H1514 C1490 0.950 . S
H1515 C1491 0.949 . S
H1516 C1493 0.950 . S
H1517 C1495 0.950 . S
C1518 C1519 1.349 . S
C1518 C1520 1.327 . S
C1518 H1543 0.950 . S
C1519 C1518 1.349 . S
C1519 C1535 1.349 . S
C1520 C1518 1.327 . S
C1520 C1539 1.429 . S
C1520 H1544 0.950 . S
C1521 C1538 1.574 . S
C1521 C1540 1.368 . S
C1521 H1545 0.949 . S
H1522 C1526 0.949 . S
C1523 C1524 1.349 . S
C1523 C1525 1.327 1_455 S
C1523 H1546 0.950 . S
C1524 C1523 1.349 . S
C1524 C1536 1.349 . S
C1525 C1523 1.327 1_655 S
C1525 C1541 1.429 . S
C1525 H1547 0.950 . S
C1526 H1522 0.949 . S
C1526 C1534 1.574 . S
C1526 C1542 1.368 . S
H1527 C1535 0.950 . S
H1528 C1533 0.950 . S
H1529 C1534 0.949 . S
H1530 C1536 0.950 . S
H1531 C1537 0.950 . S
H1532 C1538 0.949 . S
C1533 H1528 0.950 . S
C1533 C1535 1.327 . S
C1533 C1539 1.429 . S
C1534 C1526 1.574 . S
C1534 H1529 0.949 . S
C1534 C1540 1.368 . S
C1535 C1519 1.349 . S
C1535 H1527 0.950 . S
C1535 C1533 1.327 . S
C1536 C1524 1.349 . S
C1536 H1530 0.950 . S
C1536 C1537 1.327 1_455 S
C1537 H1531 0.950 . S
C1537 C1536 1.327 1_655 S
C1537 C1541 1.429 . S
C1538 C1521 1.574 . S
C1538 H1532 0.949 . S
C1538 C1542 1.368 . S
C1539 C1520 1.429 . S
C1539 C1533 1.429 . S
C1539 C1540 1.523 . S
C1540 C1521 1.368 . S
C1540 C1534 1.368 . S
C1540 C1539 1.523 . S
C1541 C1525 1.429 . S
C1541 C1537 1.429 . S
C1541 C1542 1.523 . S
C1542 C1526 1.368 . S
C1542 C1538 1.368 . S
C1542 C1541 1.523 . S
H1543 C1518 0.950 . S
H1544 C1520 0.950 . S
H1545 C1521 0.949 . S
H1546 C1523 0.950 . S
H1547 C1525 0.950 . S
C1548 C1549 1.349 . S
C1548 C1550 1.327 . S
C1548 H1573 0.950 . S
C1549 C1548 1.349 . S
C1549 C1565 1.349 . S
C1550 C1548 1.327 . S
C1550 C1569 1.429 . S
C1550 H1574 0.950 . S
C1551 C1568 1.574 . S
C1551 C1570 1.368 . S
C1551 H1575 0.949 . S
H1552 C1556 0.949 . S
C1553 C1554 1.349 . S
C1553 C1555 1.327 . S
C1553 H1576 0.950 . S
C1554 C1553 1.349 . S
C1554 C1566 1.349 . S
C1555 C1553 1.327 . S
C1555 C1571 1.429 . S
C1555 H1577 0.950 . S
C1556 H1552 0.949 . S
C1556 C1564 1.574 . S
C1556 C1572 1.368 . S
H1557 C1565 0.950 . S
H1558 C1563 0.950 . S
H1559 C1564 0.949 . S
H1560 C1566 0.950 . S
H1561 C1567 0.950 . S
H1562 C1568 0.949 . S
C1563 H1558 0.950 . S
C1563 C1565 1.327 . S
C1563 C1569 1.429 . S
C1564 C1556 1.574 . S
C1564 H1559 0.949 . S
C1564 C1570 1.368 . S
C1565 C1549 1.349 . S
C1565 H1557 0.950 . S
C1565 C1563 1.327 . S
C1566 C1554 1.349 . S
C1566 H1560 0.950 . S
C1566 C1567 1.327 . S
C1567 H1561 0.950 . S
C1567 C1566 1.327 . S
C1567 C1571 1.429 . S
C1568 C1551 1.574 . S
C1568 H1562 0.949 . S
C1568 C1572 1.368 . S
C1569 C1550 1.429 . S
C1569 C1563 1.429 . S
C1569 C1570 1.523 . S
C1570 C1551 1.368 . S
C1570 C1564 1.368 . S
C1570 C1569 1.523 . S
C1571 C1555 1.429 . S
C1571 C1567 1.429 . S
C1571 C1572 1.523 . S
C1572 C1556 1.368 . S
C1572 C1568 1.368 . S
C1572 C1571 1.523 . S
H1573 C1548 0.950 . S
H1574 C1550 0.950 . S
H1575 C1551 0.949 . S
H1576 C1553 0.950 . S
H1577 C1555 0.950 . S
C1578 C1579 1.349 . S
C1578 C1580 1.327 . S
C1578 H1603 0.950 . S
C1579 C1578 1.349 . S
C1579 C1595 1.349 . S
C1580 C1578 1.327 . S
C1580 C1599 1.429 . S
C1580 H1604 0.950 . S
C1581 C1598 1.574 . S
C1581 C1600 1.368 . S
C1581 H1605 0.949 . S
H1582 C1586 0.949 . S
C1583 C1584 1.349 . S
C1583 C1585 1.327 . S
C1583 H1606 0.950 . S
C1584 C1583 1.349 . S
C1584 C1596 1.349 . S
C1585 C1583 1.327 . S
C1585 C1601 1.429 . S
C1585 H1607 0.950 . S
C1586 H1582 0.949 . S
C1586 C1594 1.574 . S
C1586 C1602 1.368 . S
H1587 C1595 0.950 . S
H1588 C1593 0.950 . S
H1589 C1594 0.949 . S
H1590 C1596 0.950 . S
H1591 C1597 0.950 . S
H1592 C1598 0.949 . S
C1593 H1588 0.950 . S
C1593 C1595 1.327 . S
C1593 C1599 1.429 . S
C1594 C1586 1.574 . S
C1594 H1589 0.949 . S
C1594 C1600 1.368 . S
C1595 C1579 1.349 . S
C1595 H1587 0.950 . S
C1595 C1593 1.327 . S
C1596 C1584 1.349 . S
C1596 H1590 0.950 . S
C1596 C1597 1.327 . S
C1597 H1591 0.950 . S
C1597 C1596 1.327 . S
C1597 C1601 1.429 . S
C1598 C1581 1.574 . S
C1598 H1592 0.949 . S
C1598 C1602 1.368 . S
C1599 C1580 1.429 . S
C1599 C1593 1.429 . S
C1599 C1600 1.523 . S
C1600 C1581 1.368 . S
C1600 C1594 1.368 . S
C1600 C1599 1.523 . S
C1601 C1585 1.429 . S
C1601 C1597 1.429 . S
C1601 C1602 1.523 . S
C1602 C1586 1.368 . S
C1602 C1598 1.368 . S
C1602 C1601 1.523 . S
H1603 C1578 0.950 . S
H1604 C1580 0.950 . S
H1605 C1581 0.949 . S
H1606 C1583 0.950 . S
H1607 C1585 0.950 . S
C1608 C1609 1.349 . S
C1608 C1610 1.327 . S
C1608 H1633 0.950 . S
C1609 C1608 1.349 . S
C1609 C1625 1.349 . S
C1610 C1608 1.327 . S
C1610 C1629 1.429 . S
C1610 H1634 0.950 . S
C1611 C1628 1.574 . S
C1611 C1630 1.368 . S
C1611 H1635 0.949 . S
H1612 C1616 0.902 1_455 S
C1613 C1614 1.349 . S
C1613 C1615 1.327 . S
C1613 H1636 0.950 . S
C1614 C1613 1.349 . S
C1614 C1626 1.349 . S
C1615 C1613 1.327 . S
C1615 C1631 1.429 . S
C1615 H1637 0.950 . S
C1616 H1612 0.902 1_655 S
C1616 C1624 1.647 . S
C1616 C1632 1.351 . S
H1617 C1625 0.950 . S
H1618 C1623 0.950 . S
H1619 C1624 0.949 . S
H1620 C1626 0.950 . S
H1621 C1627 0.950 . S
H1622 C1628 0.949 . S
C1623 H1618 0.950 . S
C1623 C1625 1.327 . S
C1623 C1629 1.429 . S
C1624 C1616 1.647 . S
C1624 H1619 0.949 . S
C1624 C1630 1.368 . S
C1625 C1609 1.349 . S
C1625 H1617 0.950 . S
C1625 C1623 1.327 . S
C1626 C1614 1.349 . S
C1626 H1620 0.950 . S
C1626 C1627 1.327 . S
C1627 H1621 0.950 . S
C1627 C1626 1.327 . S
C1627 C1631 1.429 . S
C1628 C1611 1.574 . S
C1628 H1622 0.949 . S
C1628 C1632 1.368 . S
C1629 C1610 1.429 . S
C1629 C1623 1.429 . S
C1629 C1630 1.523 . S
C1630 C1611 1.368 . S
C1630 C1624 1.368 . S
C1630 C1629 1.523 . S
C1631 C1615 1.429 . S
C1631 C1627 1.429 . S
C1631 C1632 1.523 1_455 S
C1632 C1616 1.351 . S
C1632 C1628 1.368 . S
C1632 C1631 1.523 1_655 S
H1633 C1608 0.950 . S
H1634 C1610 0.950 . S
H1635 C1611 0.949 . S
H1636 C1613 0.950 . S
H1637 C1615 0.950 . S
C1638 C1639 1.349 . S
C1638 C1640 1.327 . S
C1638 H1663 0.950 . S
C1639 C1638 1.349 . S
C1639 C1655 1.349 . S
C1640 C1638 1.327 . S
C1640 C1659 1.429 . S
C1640 H1664 0.950 . S
C1641 C1658 1.574 . S
C1641 C1660 1.368 . S
C1641 H1665 0.949 . S
H1642 C1646 0.949 . S
C1643 C1644 1.349 . S
C1643 C1645 1.327 . S
C1643 H1666 0.950 1_655 S
C1644 C1643 1.349 . S
C1644 C1656 1.349 . S
C1645 C1643 1.327 . S
C1645 C1661 1.429 . S
C1645 H1667 0.950 . S
C1646 H1642 0.949 . S
C1646 C1654 1.574 . S
C1646 C1662 1.368 . S
H1647 C1655 0.950 . S
H1648 C1653 0.950 . S
H1649 C1654 0.949 . S
H1650 C1656 0.950 . S
H1651 C1657 0.950 . S
H1652 C1658 0.949 . S
C1653 H1648 0.950 . S
C1653 C1655 1.327 . S
C1653 C1659 1.429 . S
C1654 C1646 1.574 . S
C1654 H1649 0.949 . S
C1654 C1660 1.368 . S
C1655 C1639 1.349 . S
C1655 H1647 0.950 . S
C1655 C1653 1.327 . S
C1656 C1644 1.349 . S
C1656 H1650 0.950 . S
C1656 C1657 1.327 . S
C1657 H1651 0.950 . S
C1657 C1656 1.327 . S
C1657 C1661 1.429 . S
C1658 C1641 1.574 . S
C1658 H1652 0.949 . S
C1658 C1662 1.368 . S
C1659 C1640 1.429 . S
C1659 C1653 1.429 . S
C1659 C1660 1.523 . S
C1660 C1641 1.368 . S
C1660 C1654 1.368 . S
C1660 C1659 1.523 . S
C1661 C1645 1.429 . S
C1661 C1657 1.429 . S
C1661 C1662 1.523 . S
C1662 C1646 1.368 . S
C1662 C1658 1.368 . S
C1662 C1661 1.523 . S
H1663 C1638 0.950 . S
H1664 C1640 0.950 . S
H1665 C1641 0.949 . S
H1666 C1643 0.950 1_455 S
H1667 C1645 0.950 . S
C1668 C1669 1.349 . S
C1668 C1670 1.327 . S
C1668 H1693 0.950 . S
C1669 C1668 1.349 . S
C1669 C1685 1.349 . S
C1670 C1668 1.327 . S
C1670 C1689 1.429 . S
C1670 H1694 0.950 . S
C1671 C1688 1.574 . S
C1671 C1690 1.368 . S
C1671 H1695 0.949 . S
H1672 C1676 0.949 . S
C1673 C1674 1.349 . S
C1673 C1675 1.327 . S
C1673 H1696 0.950 . S
C1674 C1673 1.349 . S
C1674 C1686 1.349 . S
C1675 C1673 1.327 . S
C1675 C1691 1.429 . S
C1675 H1697 0.950 . S
C1676 H1672 0.949 . S
C1676 C1684 1.574 . S
C1676 C1692 1.368 . S
H1677 C1685 0.950 . S
H1678 C1683 0.950 . S
H1679 C1684 0.949 . S
H1680 C1686 0.950 . S
H1681 C1687 0.950 . S
H1682 C1688 0.949 . S
C1683 H1678 0.950 . S
C1683 C1685 1.327 . S
C1683 C1689 1.429 . S
C1684 C1676 1.574 . S
C1684 H1679 0.949 . S
C1684 C1690 1.368 . S
C1685 C1669 1.349 . S
C1685 H1677 0.950 . S
C1685 C1683 1.327 . S
C1686 C1674 1.349 . S
C1686 H1680 0.950 . S
C1686 C1687 1.327 . S
C1687 H1681 0.950 . S
C1687 C1686 1.327 . S
C1687 C1691 1.429 . S
C1688 C1671 1.574 . S
C1688 H1682 0.949 . S
C1688 C1692 1.368 . S
C1689 C1670 1.429 . S
C1689 C1683 1.429 . S
C1689 C1690 1.523 . S
C1690 C1671 1.368 . S
C1690 C1684 1.368 . S
C1690 C1689 1.523 . S
C1691 C1675 1.429 . S
C1691 C1687 1.429 . S
C1691 C1692 1.523 . S
C1692 C1676 1.368 . S
C1692 C1688 1.368 . S
C1692 C1691 1.523 . S
H1693 C1668 0.950 . S
H1694 C1670 0.950 . S
H1695 C1671 0.949 . S
H1696 C1673 0.950 . S
H1697 C1675 0.950 . S
C1698 C1699 1.349 . S
C1698 C1700 1.327 . S
C1698 H1723 0.950 . S
C1699 C1698 1.349 . S
C1699 C1715 1.349 . S
C1700 C1698 1.327 . S
C1700 C1719 1.429 . S
C1700 H1724 0.950 . S
C1701 C1718 1.574 . S
C1701 C1720 1.368 . S
C1701 H1725 0.949 . S
H1702 C1706 0.949 . S
C1703 C1704 1.349 . S
C1703 C1705 1.327 . S
C1703 H1726 0.950 . S
C1704 C1703 1.349 . S
C1704 C1716 1.349 . S
C1705 C1703 1.327 . S
C1705 C1721 1.429 . S
C1705 H1727 0.950 . S
C1706 H1702 0.949 . S
C1706 C1714 1.574 . S
C1706 C1722 1.368 . S
H1707 C1715 0.950 . S
H1708 C1713 0.950 . S
H1709 C1714 0.949 . S
H1710 C1716 0.950 . S
H1711 C1717 0.950 . S
H1712 C1718 0.949 . S
C1713 H1708 0.950 . S
C1713 C1715 1.327 . S
C1713 C1719 1.429 . S
C1714 C1706 1.574 . S
C1714 H1709 0.949 . S
C1714 C1720 1.368 . S
C1715 C1699 1.349 . S
C1715 H1707 0.950 . S
C1715 C1713 1.327 . S
C1716 C1704 1.349 . S
C1716 H1710 0.950 . S
C1716 C1717 1.327 . S
C1717 H1711 0.950 . S
C1717 C1716 1.327 . S
C1717 C1721 1.429 . S
C1718 C1701 1.574 . S
C1718 H1712 0.949 . S
C1718 C1722 1.368 . S
C1719 C1700 1.429 . S
C1719 C1713 1.429 . S
C1719 C1720 1.523 . S
C1720 C1701 1.368 . S
C1720 C1714 1.368 . S
C1720 C1719 1.523 . S
C1721 C1705 1.429 . S
C1721 C1717 1.429 . S
C1721 C1722 1.523 . S
C1722 C1706 1.368 . S
C1722 C1718 1.368 . S
C1722 C1721 1.523 . S
H1723 C1698 0.950 . S
H1724 C1700 0.950 . S
H1725 C1701 0.949 . S
H1726 C1703 0.950 . S
H1727 C1705 0.950 . S
C1728 C1729 1.349 1_655 S
C1728 C1730 1.327 . S
C1728 H1753 0.950 . S
C1729 C1728 1.349 1_455 S
C1729 C1745 1.349 . S
C1730 C1728 1.327 . S
C1730 C1749 1.429 1_655 S
C1730 H1754 0.950 . S
C1731 C1748 1.574 . S
C1731 C1750 1.368 . S
C1731 H1755 0.949 . S
H1732 C1736 0.937 1_655 S
C1733 C1734 1.349 . S
C1733 C1735 1.327 . S
C1733 H1756 0.950 . S
C1734 C1733 1.349 . S
C1734 C1746 1.349 . S
C1735 C1733 1.327 . S
C1735 C1751 1.429 . S
C1735 H1757 0.950 . S
C1736 H1732 0.937 1_455 S
C1736 C1744 1.574 . S
C1736 C1752 1.368 . S
H1737 C1745 0.950 . S
H1738 C1743 0.950 . S
H1739 C1744 0.949 1_655 S
H1740 C1746 0.950 . S
H1741 C1747 0.950 . S
H1742 C1748 0.949 . S
C1743 H1738 0.950 . S
C1743 C1745 1.327 . S
C1743 C1749 1.429 . S
C1744 C1736 1.574 . S
C1744 H1739 0.949 1_455 S
C1744 C1750 1.368 . S
C1745 C1729 1.349 . S
C1745 H1737 0.950 . S
C1745 C1743 1.327 . S
C1746 C1734 1.349 . S
C1746 H1740 0.950 . S
C1746 C1747 1.327 . S
C1747 H1741 0.950 . S
C1747 C1746 1.327 . S
C1747 C1751 1.429 . S
C1748 C1731 1.574 . S
C1748 H1742 0.949 . S
C1748 C1752 1.368 . S
C1749 C1730 1.429 1_455 S
C1749 C1743 1.429 . S
C1749 C1750 1.523 . S
C1750 C1731 1.368 . S
C1750 C1744 1.368 . S
C1750 C1749 1.523 . S
C1751 C1735 1.429 . S
C1751 C1747 1.429 . S
C1751 C1752 1.523 . S
C1752 C1736 1.368 . S
C1752 C1748 1.368 . S
C1752 C1751 1.523 . S
H1753 C1728 0.950 . S
H1754 C1730 0.950 . S
H1755 C1731 0.949 . S
H1756 C1733 0.950 . S
H1757 C1735 0.950 . S
C1758 C1759 1.349 . S
C1758 C1760 1.327 . S
C1758 H1783 0.950 . S
C1759 C1758 1.349 . S
C1759 C1775 1.349 . S
C1760 C1758 1.327 . S
C1760 C1779 1.429 . S
C1760 H1784 0.950 . S
C1761 C1778 1.574 . S
C1761 C1780 1.368 . S
C1761 H1785 0.949 . S
H1762 C1766 0.949 . S
C1763 C1764 1.349 . S
C1763 C1765 1.327 . S
C1763 H1786 0.950 . S
C1764 C1763 1.349 . S
C1764 C1776 1.349 . S
C1765 C1763 1.327 . S
C1765 C1781 1.429 . S
C1765 H1787 0.950 . S
C1766 H1762 0.949 . S
C1766 C1774 1.574 . S
C1766 C1782 1.368 . S
H1767 C1775 0.950 . S
H1768 C1773 0.950 . S
H1769 C1774 0.949 . S
H1770 C1776 0.950 . S
H1771 C1777 0.950 . S
H1772 C1778 0.949 . S
C1773 H1768 0.950 . S
C1773 C1775 1.327 . S
C1773 C1779 1.429 . S
C1774 C1766 1.574 . S
C1774 H1769 0.949 . S
C1774 C1780 1.368 . S
C1775 C1759 1.349 . S
C1775 H1767 0.950 . S
C1775 C1773 1.327 . S
C1776 C1764 1.349 . S
C1776 H1770 0.950 . S
C1776 C1777 1.327 . S
C1777 H1771 0.950 . S
C1777 C1776 1.327 . S
C1777 C1781 1.429 . S
C1778 C1761 1.574 . S
C1778 H1772 0.949 . S
C1778 C1782 1.368 . S
C1779 C1760 1.429 . S
C1779 C1773 1.429 . S
C1779 C1780 1.523 . S
C1780 C1761 1.368 . S
C1780 C1774 1.368 . S
C1780 C1779 1.523 . S
C1781 C1765 1.429 . S
C1781 C1777 1.429 . S
C1781 C1782 1.523 . S
C1782 C1766 1.368 . S
C1782 C1778 1.368 . S
C1782 C1781 1.523 . S
H1783 C1758 0.950 . S
H1784 C1760 0.950 . S
H1785 C1761 0.949 . S
H1786 C1763 0.950 . S
H1787 C1765 0.950 . S
C1788 C1789 1.349 . S
C1788 C1790 1.327 . S
C1788 H1813 0.950 . S
C1789 C1788 1.349 . S
C1789 C1805 1.349 . S
C1790 C1788 1.327 . S
C1790 C1809 1.429 . S
C1790 H1814 0.950 . S
C1791 C1808 1.574 . S
C1791 C1810 1.368 . S
C1791 H1815 0.949 . S
H1792 C1796 0.949 . S
C1793 C1794 1.349 . S
C1793 C1795 1.327 . S
C1793 H1816 0.950 . S
C1794 C1793 1.349 . S
C1794 C1806 1.349 . S
C1795 C1793 1.327 . S
C1795 C1811 1.429 . S
C1795 H1817 0.950 . S
C1796 H1792 0.949 . S
C1796 C1804 1.574 . S
C1796 C1812 1.368 . S
H1797 C1805 0.950 . S
H1798 C1803 0.950 . S
H1799 C1804 0.949 . S
H1800 C1806 0.950 . S
H1801 C1807 0.950 . S
H1802 C1808 0.949 . S
C1803 H1798 0.950 . S
C1803 C1805 1.327 . S
C1803 C1809 1.429 . S
C1804 C1796 1.574 . S
C1804 H1799 0.949 . S
C1804 C1810 1.368 . S
C1805 C1789 1.349 . S
C1805 H1797 0.950 . S
C1805 C1803 1.327 . S
C1806 C1794 1.349 . S
C1806 H1800 0.950 . S
C1806 C1807 1.327 . S
C1807 H1801 0.950 . S
C1807 C1806 1.327 . S
C1807 C1811 1.429 . S
C1808 C1791 1.574 . S
C1808 H1802 0.949 . S
C1808 C1812 1.368 . S
C1809 C1790 1.429 . S
C1809 C1803 1.429 . S
C1809 C1810 1.523 . S
C1810 C1791 1.368 . S
C1810 C1804 1.368 . S
C1810 C1809 1.523 . S
C1811 C1795 1.429 . S
C1811 C1807 1.429 . S
C1811 C1812 1.523 . S
C1812 C1796 1.368 . S
C1812 C1808 1.368 . S
C1812 C1811 1.523 . S
H1813 C1788 0.950 . S
H1814 C1790 0.950 . S
H1815 C1791 0.949 . S
H1816 C1793 0.950 . S
H1817 C1795 0.950 . S
C1818 C1819 1.349 . S
C1818 C1820 1.327 . S
C1818 H1843 0.950 . S
C1819 C1818 1.349 . S
C1819 C1835 1.349 . S
C1820 C1818 1.327 . S
C1820 C1839 1.429 . S
C1820 H1844 0.950 . S
C1821 C1838 1.574 . S
C1821 C1840 1.368 . S
C1821 H1845 0.949 . S
H1822 C1826 0.949 . S
C1823 C1824 1.349 . S
C1823 C1825 1.327 . S
C1823 H1846 0.950 . S
C1824 C1823 1.349 . S
C1824 C1836 1.349 . S
C1825 C1823 1.327 . S
C1825 C1841 1.429 . S
C1825 H1847 0.950 . S
C1826 H1822 0.949 . S
C1826 C1834 1.574 . S
C1826 C1842 1.368 . S
H1827 C1835 0.950 . S
H1828 C1833 0.950 . S
H1829 C1834 0.949 . S
H1830 C1836 0.950 . S
H1831 C1837 0.950 . S
H1832 C1838 0.949 . S
C1833 H1828 0.950 . S
C1833 C1835 1.327 . S
C1833 C1839 1.429 . S
C1834 C1826 1.574 . S
C1834 H1829 0.949 . S
C1834 C1840 1.368 . S
C1835 C1819 1.349 . S
C1835 H1827 0.950 . S
C1835 C1833 1.327 . S
C1836 C1824 1.349 . S
C1836 H1830 0.950 . S
C1836 C1837 1.327 . S
C1837 H1831 0.950 . S
C1837 C1836 1.327 . S
C1837 C1841 1.429 . S
C1838 C1821 1.574 . S
C1838 H1832 0.949 . S
C1838 C1842 1.368 . S
C1839 C1820 1.429 . S
C1839 C1833 1.429 . S
C1839 C1840 1.523 . S
C1840 C1821 1.368 . S
C1840 C1834 1.368 . S
C1840 C1839 1.523 . S
C1841 C1825 1.429 . S
C1841 C1837 1.429 . S
C1841 C1842 1.523 . S
C1842 C1826 1.368 . S
C1842 C1838 1.368 . S
C1842 C1841 1.523 . S
H1843 C1818 0.950 . S
H1844 C1820 0.950 . S
H1845 C1821 0.949 . S
H1846 C1823 0.950 . S
H1847 C1825 0.950 . S
C1848 C1849 1.349 . S
C1848 C1850 1.327 . S
C1848 H1873 0.950 . S
C1849 C1848 1.349 . S
C1849 C1865 1.349 . S
C1850 C1848 1.327 . S
C1850 C1869 1.429 . S
C1850 H1874 0.950 . S
C1851 C1868 1.574 . S
C1851 C1870 1.368 . S
C1851 H1875 0.949 . S
H1852 C1856 0.949 . S
C1853 C1854 1.349 . S
C1853 C1855 1.327 . S
C1853 H1876 0.950 . S
C1854 C1853 1.349 . S
C1854 C1866 1.349 . S
C1855 C1853 1.327 . S
C1855 C1871 1.429 . S
C1855 H1877 0.950 . S
C1856 H1852 0.949 . S
C1856 C1864 1.574 . S
C1856 C1872 1.368 . S
H1857 C1865 0.950 . S
H1858 C1863 0.950 . S
H1859 C1864 0.949 . S
H1860 C1866 0.950 . S
H1861 C1867 0.950 . S
H1862 C1868 0.949 . S
C1863 H1858 0.950 . S
C1863 C1865 1.327 . S
C1863 C1869 1.429 . S
C1864 C1856 1.574 . S
C1864 H1859 0.949 . S
C1864 C1870 1.368 . S
C1865 C1849 1.349 . S
C1865 H1857 0.950 . S
C1865 C1863 1.327 . S
C1866 C1854 1.349 . S
C1866 H1860 0.950 . S
C1866 C1867 1.327 . S
C1867 H1861 0.950 . S
C1867 C1866 1.327 . S
C1867 C1871 1.429 . S
C1868 C1851 1.574 . S
C1868 H1862 0.949 . S
C1868 C1872 1.368 . S
C1869 C1850 1.429 . S
C1869 C1863 1.429 . S
C1869 C1870 1.523 . S
C1870 C1851 1.368 . S
C1870 C1864 1.368 . S
C1870 C1869 1.523 . S
C1871 C1855 1.429 . S
C1871 C1867 1.429 . S
C1871 C1872 1.523 . S
C1872 C1856 1.368 . S
C1872 C1868 1.368 . S
C1872 C1871 1.523 . S
H1873 C1848 0.950 . S
H1874 C1850 0.950 . S
H1875 C1851 0.949 . S
H1876 C1853 0.950 . S
H1877 C1855 0.950 . S
C1878 C1879 1.349 . S
C1878 C1880 1.327 . S
C1878 H1903 0.950 . S
C1879 C1878 1.349 . S
C1879 C1895 1.349 . S
C1880 C1878 1.327 . S
C1880 C1899 1.429 . S
C1880 H1904 0.950 . S
C1881 C1898 1.574 . S
C1881 C1900 1.368 . S
C1881 H1905 0.949 . S
H1882 C1886 0.949 . S
C1883 C1884 1.349 . S
C1883 C1885 1.327 . S
C1883 H1906 0.950 . S
C1884 C1883 1.349 . S
C1884 C1896 1.349 . S
C1885 C1883 1.327 . S
C1885 C1901 1.429 . S
C1885 H1907 0.950 . S
C1886 H1882 0.949 . S
C1886 C1894 1.574 . S
C1886 C1902 1.368 . S
H1887 C1895 0.950 . S
H1888 C1893 0.950 . S
H1889 C1894 0.949 . S
H1890 C1896 0.950 . S
H1891 C1897 0.950 . S
H1892 C1898 0.949 . S
C1893 H1888 0.950 . S
C1893 C1895 1.327 . S
C1893 C1899 1.429 . S
C1894 C1886 1.574 . S
C1894 H1889 0.949 . S
C1894 C1900 1.368 . S
C1895 C1879 1.349 . S
C1895 H1887 0.950 . S
C1895 C1893 1.327 . S
C1896 C1884 1.349 . S
C1896 H1890 0.950 . S
C1896 C1897 1.327 . S
C1897 H1891 0.950 . S
C1897 C1896 1.327 . S
C1897 C1901 1.429 . S
C1898 C1881 1.574 . S
C1898 H1892 0.949 . S
C1898 C1902 1.368 . S
C1899 C1880 1.429 . S
C1899 C1893 1.429 . S
C1899 C1900 1.523 . S
C1900 C1881 1.368 . S
C1900 C1894 1.368 . S
C1900 C1899 1.523 . S
C1901 C1885 1.429 . S
C1901 C1897 1.429 . S
C1901 C1902 1.523 . S
C1902 C1886 1.368 . S
C1902 C1898 1.368 . S
C1902 C1901 1.523 . S
H1903 C1878 0.950 . S
H1904 C1880 0.950 . S
H1905 C1881 0.949 . S
H1906 C1883 0.950 . S
H1907 C1885 0.950 . S
C1908 C1909 1.349 . S
C1908 C1910 1.327 . S
C1908 H1933 0.950 . S
C1909 C1908 1.349 . S
C1909 C1925 1.349 . S
C1910 C1908 1.327 . S
C1910 C1929 1.429 . S
C1910 H1934 0.950 . S
C1911 C1928 1.574 . S
C1911 C1930 1.368 . S
C1911 H1935 0.949 . S
H1912 C1916 0.949 . S
C1913 C1914 1.349 . S
C1913 C1915 1.327 . S
C1913 H1936 0.950 . S
C1914 C1913 1.349 . S
C1914 C1926 1.349 . S
C1915 C1913 1.327 . S
C1915 C1931 1.429 . S
C1915 H1937 0.950 . S
C1916 H1912 0.949 . S
C1916 C1924 1.574 . S
C1916 C1932 1.368 . S
H1917 C1925 0.950 . S
H1918 C1923 0.950 . S
H1919 C1924 0.949 . S
H1920 C1926 0.950 . S
H1921 C1927 0.950 . S
H1922 C1928 0.949 . S
C1923 H1918 0.950 . S
C1923 C1925 1.327 . S
C1923 C1929 1.429 . S
C1924 C1916 1.574 . S
C1924 H1919 0.949 . S
C1924 C1930 1.368 . S
C1925 C1909 1.349 . S
C1925 H1917 0.950 . S
C1925 C1923 1.327 . S
C1926 C1914 1.349 . S
C1926 H1920 0.950 . S
C1926 C1927 1.327 . S
C1927 H1921 0.950 . S
C1927 C1926 1.327 . S
C1927 C1931 1.429 . S
C1928 C1911 1.574 . S
C1928 H1922 0.949 . S
C1928 C1932 1.368 . S
C1929 C1910 1.429 . S
C1929 C1923 1.429 . S
C1929 C1930 1.523 . S
C1930 C1911 1.368 . S
C1930 C1924 1.368 . S
C1930 C1929 1.523 . S
C1931 C1915 1.429 . S
C1931 C1927 1.429 . S
C1931 C1932 1.523 . S
C1932 C1916 1.368 . S
C1932 C1928 1.368 . S
C1932 C1931 1.523 . S
H1933 C1908 0.950 . S
H1934 C1910 0.950 . S
H1935 C1911 0.949 . S
H1936 C1913 0.950 . S
H1937 C1915 0.950 . S
C1938 C1939 1.349 . S
C1938 C1940 1.327 . S
C1938 H1963 0.950 . S
C1939 C1938 1.349 . S
C1939 C1955 1.349 . S
C1940 C1938 1.327 . S
C1940 C1959 1.429 . S
C1940 H1964 0.950 . S
C1941 C1958 1.574 . S
C1941 C1960 1.368 . S
C1941 H1965 0.949 . S
H1942 C1946 0.949 . S
C1943 C1944 1.349 . S
C1943 C1945 1.327 . S
C1943 H1966 0.950 . S
C1944 C1943 1.349 . S
C1944 C1956 1.349 . S
C1945 C1943 1.327 . S
C1945 C1961 1.429 . S
C1945 H1967 0.950 . S
C1946 H1942 0.949 . S
C1946 C1954 1.574 . S
C1946 C1962 1.368 . S
H1947 C1955 0.950 . S
H1948 C1953 0.950 . S
H1949 C1954 0.949 . S
H1950 C1956 0.950 . S
H1951 C1957 0.950 . S
H1952 C1958 0.949 . S
C1953 H1948 0.950 . S
C1953 C1955 1.327 . S
C1953 C1959 1.429 . S
C1954 C1946 1.574 . S
C1954 H1949 0.949 . S
C1954 C1960 1.368 . S
C1955 C1939 1.349 . S
C1955 H1947 0.950 . S
C1955 C1953 1.327 . S
C1956 C1944 1.349 . S
C1956 H1950 0.950 . S
C1956 C1957 1.327 . S
C1957 H1951 0.950 . S
C1957 C1956 1.327 . S
C1957 C1961 1.429 . S
C1958 C1941 1.574 . S
C1958 H1952 0.949 . S
C1958 C1962 1.368 . S
C1959 C1940 1.429 . S
C1959 C1953 1.429 . S
C1959 C1960 1.523 . S
C1960 C1941 1.368 . S
C1960 C1954 1.368 . S
C1960 C1959 1.523 . S
C1961 C1945 1.429 . S
C1961 C1957 1.429 . S
C1961 C1962 1.523 . S
C1962 C1946 1.368 . S
C1962 C1958 1.368 . S
C1962 C1961 1.523 . S
H1963 C1938 0.950 . S
H1964 C1940 0.950 . S
H1965 C1941 0.949 . S
H1966 C1943 0.950 . S
H1967 C1945 0.950 . S
C1968 C1969 1.349 . S
C1968 C1970 1.327 . S
C1968 H1993 0.950 . S
C1969 C1968 1.349 . S
C1969 C1985 1.349 . S
C1970 C1968 1.327 . S
C1970 C1989 1.429 . S
C1970 H1994 0.950 . S
C1971 C1988 1.574 . S
C1971 C1990 1.368 . S
C1971 H1995 0.949 . S
H1972 C1976 0.949 . S
C1973 C1974 1.349 . S
C1973 C1975 1.327 . S
C1973 H1996 0.950 . S
C1974 C1973 1.349 . S
C1974 C1986 1.349 . S
C1975 C1973 1.327 . S
C1975 C1991 1.429 . S
C1975 H1997 0.950 . S
C1976 H1972 0.949 . S
C1976 C1984 1.574 . S
C1976 C1992 1.368 . S
H1977 C1985 0.950 . S
H1978 C1983 0.950 . S
H1979 C1984 0.949 . S
H1980 C1986 0.950 . S
H1981 C1987 0.950 . S
H1982 C1988 0.949 . S
C1983 H1978 0.950 . S
C1983 C1985 1.327 . S
C1983 C1989 1.429 . S
C1984 C1976 1.574 . S
C1984 H1979 0.949 . S
C1984 C1990 1.368 . S
C1985 C1969 1.349 . S
C1985 H1977 0.950 . S
C1985 C1983 1.327 . S
C1986 C1974 1.349 . S
C1986 H1980 0.950 . S
C1986 C1987 1.327 . S
C1987 H1981 0.950 . S
C1987 C1986 1.327 . S
C1987 C1991 1.429 . S
C1988 C1971 1.574 . S
C1988 H1982 0.949 . S
C1988 C1992 1.368 . S
C1989 C1970 1.429 . S
C1989 C1983 1.429 . S
C1989 C1990 1.523 . S
C1990 C1971 1.368 . S
C1990 C1984 1.368 . S
C1990 C1989 1.523 . S
C1991 C1975 1.429 . S
C1991 C1987 1.429 . S
C1991 C1992 1.523 . S
C1992 C1976 1.368 . S
C1992 C1988 1.368 . S
C1992 C1991 1.523 . S
H1993 C1968 0.950 . S
H1994 C1970 0.950 . S
H1995 C1971 0.949 . S
H1996 C1973 0.950 . S
H1997 C1975 0.950 . S
C1998 C1999 1.349 . S
C1998 C2000 1.327 . S
C1998 H2023 0.950 . S
C1999 C1998 1.349 . S
C1999 C2015 1.349 . S
C2000 C1998 1.327 . S
C2000 C2019 1.429 . S
C2000 H2024 0.950 . S
C2001 C2018 1.574 . S
C2001 C2020 1.368 . S
C2001 H2025 0.949 . S
H2002 C2006 0.949 . S
C2003 C2004 1.349 . S
C2003 C2005 1.327 . S
C2003 H2026 0.950 . S
C2004 C2003 1.349 . S
C2004 C2016 1.349 . S
C2005 C2003 1.327 . S
C2005 C2021 1.429 . S
C2005 H2027 0.950 . S
C2006 H2002 0.949 . S
C2006 C2014 1.574 . S
C2006 C2022 1.368 . S
H2007 C2015 0.950 . S
H2008 C2013 0.950 . S
H2009 C2014 0.949 . S
H2010 C2016 0.950 . S
H2011 C2017 0.950 . S
H2012 C2018 0.949 . S
C2013 H2008 0.950 . S
C2013 C2015 1.327 . S
C2013 C2019 1.429 . S
C2014 C2006 1.574 . S
C2014 H2009 0.949 . S
C2014 C2020 1.368 . S
C2015 C1999 1.349 . S
C2015 H2007 0.950 . S
C2015 C2013 1.327 . S
C2016 C2004 1.349 . S
C2016 H2010 0.950 . S
C2016 C2017 1.327 . S
C2017 H2011 0.950 . S
C2017 C2016 1.327 . S
C2017 C2021 1.429 . S
C2018 C2001 1.574 . S
C2018 H2012 0.949 . S
C2018 C2022 1.368 . S
C2019 C2000 1.429 . S
C2019 C2013 1.429 . S
C2019 C2020 1.523 . S
C2020 C2001 1.368 . S
C2020 C2014 1.368 . S
C2020 C2019 1.523 . S
C2021 C2005 1.429 . S
C2021 C2017 1.429 . S
C2021 C2022 1.523 . S
C2022 C2006 1.368 . S
C2022 C2018 1.368 . S
C2022 C2021 1.523 . S
H2023 C1998 0.950 . S
H2024 C2000 0.950 . S
H2025 C2001 0.949 . S
H2026 C2003 0.950 . S
H2027 C2005 0.950 . S
C2028 C2029 1.349 . S
C2028 C2030 1.327 . S
C2028 H2053 0.950 . S
C2029 C2028 1.349 . S
C2029 C2045 1.349 . S
C2030 C2028 1.327 . S
C2030 C2049 1.429 . S
C2030 H2054 0.950 . S
C2031 C2048 1.574 . S
C2031 C2050 1.368 . S
C2031 H2055 0.949 . S
H2032 C2036 0.949 . S
C2033 C2034 1.349 . S
C2033 C2035 1.327 . S
C2033 H2056 0.950 . S
C2034 C2033 1.349 . S
C2034 C2046 1.349 . S
C2035 C2033 1.327 . S
C2035 C2051 1.429 . S
C2035 H2057 0.950 . S
C2036 H2032 0.949 . S
C2036 C2044 1.574 . S
C2036 C2052 1.368 . S
H2037 C2045 0.950 . S
H2038 C2043 0.950 . S
H2039 C2044 0.949 . S
H2040 C2046 0.950 . S
H2041 C2047 0.950 . S
H2042 C2048 0.949 . S
C2043 H2038 0.950 . S
C2043 C2045 1.327 . S
C2043 C2049 1.429 . S
C2044 C2036 1.574 . S
C2044 H2039 0.949 . S
C2044 C2050 1.368 . S
C2045 C2029 1.349 . S
C2045 H2037 0.950 . S
C2045 C2043 1.327 . S
C2046 C2034 1.349 . S
C2046 H2040 0.950 . S
C2046 C2047 1.327 . S
C2047 H2041 0.950 . S
C2047 C2046 1.327 . S
C2047 C2051 1.429 . S
C2048 C2031 1.574 . S
C2048 H2042 0.949 . S
C2048 C2052 1.368 . S
C2049 C2030 1.429 . S
C2049 C2043 1.429 . S
C2049 C2050 1.523 . S
C2050 C2031 1.368 . S
C2050 C2044 1.368 . S
C2050 C2049 1.523 . S
C2051 C2035 1.429 . S
C2051 C2047 1.429 . S
C2051 C2052 1.523 . S
C2052 C2036 1.368 . S
C2052 C2048 1.368 . S
C2052 C2051 1.523 . S
H2053 C2028 0.950 . S
H2054 C2030 0.950 . S
H2055 C2031 0.949 . S
H2056 C2033 0.950 . S
H2057 C2035 0.950 . S
C2058 C2059 1.349 . S
C2058 C2060 1.327 . S
C2058 H2083 0.950 . S
C2059 C2058 1.349 . S
C2059 C2075 1.349 . S
C2060 C2058 1.327 . S
C2060 C2079 1.429 . S
C2060 H2084 0.950 . S
C2061 C2078 1.574 . S
C2061 C2080 1.368 . S
C2061 H2085 0.949 . S
H2062 C2066 0.949 . S
C2063 C2064 1.349 . S
C2063 C2065 1.327 . S
C2063 H2086 0.950 . S
C2064 C2063 1.349 . S
C2064 C2076 1.349 . S
C2065 C2063 1.327 . S
C2065 C2081 1.429 . S
C2065 H2087 0.950 . S
C2066 H2062 0.949 . S
C2066 C2074 1.574 . S
C2066 C2082 1.368 . S
H2067 C2075 0.950 . S
H2068 C2073 0.950 . S
H2069 C2074 0.949 . S
H2070 C2076 0.950 . S
H2071 C2077 0.950 . S
H2072 C2078 0.949 . S
C2073 H2068 0.950 . S
C2073 C2075 1.327 . S
C2073 C2079 1.429 . S
C2074 C2066 1.574 . S
C2074 H2069 0.949 . S
C2074 C2080 1.368 . S
C2075 C2059 1.349 . S
C2075 H2067 0.950 . S
C2075 C2073 1.327 . S
C2076 C2064 1.349 . S
C2076 H2070 0.950 . S
C2076 C2077 1.327 . S
C2077 H2071 0.950 . S
C2077 C2076 1.327 . S
C2077 C2081 1.429 . S
C2078 C2061 1.574 . S
C2078 H2072 0.949 . S
C2078 C2082 1.368 . S
C2079 C2060 1.429 . S
C2079 C2073 1.429 . S
C2079 C2080 1.523 . S
C2080 C2061 1.368 . S
C2080 C2074 1.368 . S
C2080 C2079 1.523 . S
C2081 C2065 1.429 . S
C2081 C2077 1.429 . S
C2081 C2082 1.523 . S
C2082 C2066 1.368 . S
C2082 C2078 1.368 . S
C2082 C2081 1.523 . S
H2083 C2058 0.950 . S
H2084 C2060 0.950 . S
H2085 C2061 0.949 . S
H2086 C2063 0.950 . S
H2087 C2065 0.950 . S
C2088 C2089 1.349 . S
C2088 C2090 1.327 . S
C2088 H2113 0.950 . S
C2089 C2088 1.349 . S
C2089 C2105 1.349 . S
C2090 C2088 1.327 . S
C2090 C2109 1.429 . S
C2090 H2114 0.950 . S
C2091 C2108 1.574 . S
C2091 C2110 1.368 . S
C2091 H2115 0.949 . S
H2092 C2096 0.949 . S
C2093 C2094 1.349 . S
C2093 C2095 1.327 . S
C2093 H2116 0.950 . S
C2094 C2093 1.349 . S
C2094 C2106 1.349 . S
C2095 C2093 1.327 . S
C2095 C2111 1.429 . S
C2095 H2117 0.950 . S
C2096 H2092 0.949 . S
C2096 C2104 1.574 . S
C2096 C2112 1.368 . S
H2097 C2105 0.950 . S
H2098 C2103 0.950 . S
H2099 C2104 0.949 . S
H2100 C2106 0.950 . S
H2101 C2107 0.950 . S
H2102 C2108 0.949 . S
C2103 H2098 0.950 . S
C2103 C2105 1.327 . S
C2103 C2109 1.429 . S
C2104 C2096 1.574 . S
C2104 H2099 0.949 . S
C2104 C2110 1.368 . S
C2105 C2089 1.349 . S
C2105 H2097 0.950 . S
C2105 C2103 1.327 . S
C2106 C2094 1.349 . S
C2106 H2100 0.950 . S
C2106 C2107 1.327 . S
C2107 H2101 0.950 . S
C2107 C2106 1.327 . S
C2107 C2111 1.429 . S
C2108 C2091 1.574 . S
C2108 H2102 0.949 . S
C2108 C2112 1.368 . S
C2109 C2090 1.429 . S
C2109 C2103 1.429 . S
C2109 C2110 1.523 . S
C2110 C2091 1.368 . S
C2110 C2104 1.368 . S
C2110 C2109 1.523 . S
C2111 C2095 1.429 . S
C2111 C2107 1.429 . S
C2111 C2112 1.523 . S
C2112 C2096 1.368 . S
C2112 C2108 1.368 . S
C2112 C2111 1.523 . S
H2113 C2088 0.950 . S
H2114 C2090 0.950 . S
H2115 C2091 0.949 . S
H2116 C2093 0.950 . S
H2117 C2095 0.950 . S
C2118 C2119 1.349 . S
C2118 C2120 1.327 . S
C2118 H2143 0.950 . S
C2119 C2118 1.349 . S
C2119 C2135 1.349 . S
C2120 C2118 1.327 . S
C2120 C2139 1.429 . S
C2120 H2144 0.950 . S
C2121 C2138 1.574 . S
C2121 C2140 1.368 . S
C2121 H2145 0.949 . S
H2122 C2126 0.949 . S
C2123 C2124 1.349 . S
C2123 C2125 1.327 . S
C2123 H2146 0.950 . S
C2124 C2123 1.349 . S
C2124 C2136 1.349 . S
C2125 C2123 1.327 . S
C2125 C2141 1.429 . S
C2125 H2147 0.950 . S
C2126 H2122 0.949 . S
C2126 C2134 1.574 . S
C2126 C2142 1.368 . S
H2127 C2135 0.950 . S
H2128 C2133 0.950 . S
H2129 C2134 0.949 . S
H2130 C2136 0.950 . S
H2131 C2137 0.950 . S
H2132 C2138 0.949 . S
C2133 H2128 0.950 . S
C2133 C2135 1.327 . S
C2133 C2139 1.429 . S
C2134 C2126 1.574 . S
C2134 H2129 0.949 . S
C2134 C2140 1.368 . S
C2135 C2119 1.349 . S
C2135 H2127 0.950 . S
C2135 C2133 1.327 . S
C2136 C2124 1.349 . S
C2136 H2130 0.950 . S
C2136 C2137 1.327 . S
C2137 H2131 0.950 . S
C2137 C2136 1.327 . S
C2137 C2141 1.429 . S
C2138 C2121 1.574 . S
C2138 H2132 0.949 . S
C2138 C2142 1.368 . S
C2139 C2120 1.429 . S
C2139 C2133 1.429 . S
C2139 C2140 1.523 . S
C2140 C2121 1.368 . S
C2140 C2134 1.368 . S
C2140 C2139 1.523 . S
C2141 C2125 1.429 . S
C2141 C2137 1.429 . S
C2141 C2142 1.523 . S
C2142 C2126 1.368 . S
C2142 C2138 1.368 . S
C2142 C2141 1.523 . S
H2143 C2118 0.950 . S
H2144 C2120 0.950 . S
H2145 C2121 0.949 . S
H2146 C2123 0.950 . S
H2147 C2125 0.950 . S
C2148 C2149 1.349 . S
C2148 C2150 1.327 . S
C2148 H2173 0.950 . S
C2149 C2148 1.349 . S
C2149 C2165 1.349 . S
C2150 C2148 1.327 . S
C2150 C2169 1.429 . S
C2150 H2174 0.950 . S
C2151 C2168 1.574 . S
C2151 C2170 1.368 . S
C2151 H2175 0.949 . S
H2152 C2156 0.949 . S
C2153 C2154 1.349 . S
C2153 C2155 1.327 . S
C2153 H2176 0.950 . S
C2154 C2153 1.349 . S
C2154 C2166 1.349 . S
C2155 C2153 1.327 . S
C2155 C2171 1.429 . S
C2155 H2177 0.950 . S
C2156 H2152 0.949 . S
C2156 C2164 1.574 . S
C2156 C2172 1.368 . S
H2157 C2165 0.950 . S
H2158 C2163 0.950 . S
H2159 C2164 0.949 . S
H2160 C2166 0.950 . S
H2161 C2167 0.950 . S
H2162 C2168 0.949 . S
C2163 H2158 0.950 . S
C2163 C2165 1.327 . S
C2163 C2169 1.429 . S
C2164 C2156 1.574 . S
C2164 H2159 0.949 . S
C2164 C2170 1.368 . S
C2165 C2149 1.349 . S
C2165 H2157 0.950 . S
C2165 C2163 1.327 . S
C2166 C2154 1.349 . S
C2166 H2160 0.950 . S
C2166 C2167 1.327 . S
C2167 H2161 0.950 . S
C2167 C2166 1.327 . S
C2167 C2171 1.429 . S
C2168 C2151 1.574 . S
C2168 H2162 0.949 . S
C2168 C2172 1.368 . S
C2169 C2150 1.429 . S
C2169 C2163 1.429 . S
C2169 C2170 1.523 . S
C2170 C2151 1.368 . S
C2170 C2164 1.368 . S
C2170 C2169 1.523 . S
C2171 C2155 1.429 . S
C2171 C2167 1.429 . S
C2171 C2172 1.523 . S
C2172 C2156 1.368 . S
C2172 C2168 1.368 . S
C2172 C2171 1.523 . S
H2173 C2148 0.950 . S
H2174 C2150 0.950 . S
H2175 C2151 0.949 . S
H2176 C2153 0.950 . S
H2177 C2155 0.950 . S
C2178 C2179 1.349 . S
C2178 C2180 1.327 . S
C2178 H2203 0.950 . S
C2179 C2178 1.349 . S
C2179 C2195 1.349 . S
C2180 C2178 1.327 . S
C2180 C2199 1.429 . S
C2180 H2204 0.950 . S
C2181 C2198 1.574 . S
C2181 C2200 1.368 . S
C2181 H2205 0.949 . S
H2182 C2186 0.949 . S
C2183 C2184 1.349 . S
C2183 C2185 1.327 . S
C2183 H2206 0.950 . S
C2184 C2183 1.349 . S
C2184 C2196 1.349 . S
C2185 C2183 1.327 . S
C2185 C2201 1.429 . S
C2185 H2207 0.950 . S
C2186 H2182 0.949 . S
C2186 C2194 1.574 1_554 S
C2186 C2202 1.368 . S
H2187 C2195 0.950 . S
H2188 C2193 0.950 . S
H2189 C2194 0.945 1_554 S
H2190 C2196 0.950 . S
H2191 C2197 0.950 . S
H2192 C2198 0.949 . S
C2193 H2188 0.950 . S
C2193 C2195 1.327 . S
C2193 C2199 1.429 . S
C2194 C2186 1.574 1_556 S
C2194 H2189 0.945 1_556 S
C2194 C2200 1.368 . S
C2195 C2179 1.349 . S
C2195 H2187 0.950 . S
C2195 C2193 1.327 . S
C2196 C2184 1.349 . S
C2196 H2190 0.950 . S
C2196 C2197 1.327 . S
C2197 H2191 0.950 . S
C2197 C2196 1.327 . S
C2197 C2201 1.429 . S
C2198 C2181 1.574 . S
C2198 H2192 0.949 . S
C2198 C2202 1.368 1_556 S
C2199 C2180 1.429 . S
C2199 C2193 1.429 . S
C2199 C2200 1.523 . S
C2200 C2181 1.368 . S
C2200 C2194 1.368 . S
C2200 C2199 1.523 . S
C2201 C2185 1.429 . S
C2201 C2197 1.429 . S
C2201 C2202 1.523 . S
C2202 C2186 1.368 . S
C2202 C2198 1.368 1_554 S
C2202 C2201 1.523 . S
H2203 C2178 0.950 . S
H2204 C2180 0.950 . S
H2205 C2181 0.949 . S
H2206 C2183 0.950 . S
H2207 C2185 0.950 . S
C2208 C2209 1.349 . S
C2208 C2210 1.327 . S
C2208 H2233 0.950 . S
C2209 C2208 1.349 . S
C2209 C2225 1.349 . S
C2210 C2208 1.327 . S
C2210 C2229 1.429 . S
C2210 H2234 0.950 . S
C2211 C2228 1.574 . S
C2211 C2230 1.368 . S
C2211 H2235 0.949 . S
H2212 C2216 0.949 1_554 S
C2213 C2214 1.349 . S
C2213 C2215 1.327 . S
C2213 H2236 0.950 . S
C2214 C2213 1.349 . S
C2214 C2226 1.349 . S
C2215 C2213 1.327 . S
C2215 C2231 1.429 . S
C2215 H2237 0.950 1_554 S
C2216 H2212 0.949 1_556 S
C2216 C2224 1.574 . S
C2216 C2232 1.368 . S
H2217 C2225 0.950 . S
H2218 C2223 0.950 . S
H2219 C2224 0.949 . S
H2220 C2226 0.950 . S
H2221 C2227 0.950 . S
H2222 C2228 0.949 . S
C2223 H2218 0.950 . S
C2223 C2225 1.327 . S
C2223 C2229 1.429 . S
C2224 C2216 1.574 . S
C2224 H2219 0.949 . S
C2224 C2230 1.368 . S
C2225 C2209 1.349 . S
C2225 H2217 0.950 . S
C2225 C2223 1.327 . S
C2226 C2214 1.349 . S
C2226 H2220 0.950 . S
C2226 C2227 1.327 . S
C2227 H2221 0.950 . S
C2227 C2226 1.327 . S
C2227 C2231 1.429 . S
C2228 C2211 1.574 . S
C2228 H2222 0.949 . S
C2228 C2232 1.368 . S
C2229 C2210 1.429 . S
C2229 C2223 1.429 . S
C2229 C2230 1.523 . S
C2230 C2211 1.368 . S
C2230 C2224 1.368 . S
C2230 C2229 1.523 . S
C2231 C2215 1.429 . S
C2231 C2227 1.429 . S
C2231 C2232 1.523 1_554 S
C2232 C2216 1.368 . S
C2232 C2228 1.368 . S
C2232 C2231 1.523 1_556 S
H2233 C2208 0.950 . S
H2234 C2210 0.950 . S
H2235 C2211 0.949 . S
H2236 C2213 0.950 . S
H2237 C2215 0.950 1_556 S
C2238 C2239 1.349 . S
C2238 C2240 1.327 . S
C2238 H2263 0.950 . S
C2239 C2238 1.349 . S
C2239 C2255 1.349 . S
C2240 C2238 1.327 . S
C2240 C2259 1.429 . S
C2240 H2264 0.950 . S
C2241 C2258 1.574 1_556 S
C2241 C2260 1.368 . S
C2241 H2265 0.949 . S
H2242 C2246 0.949 . S
C2243 C2244 1.349 . S
C2243 C2245 1.327 . S
C2243 H2266 0.950 . S
C2244 C2243 1.349 . S
C2244 C2256 1.349 . S
C2245 C2243 1.327 . S
C2245 C2261 1.429 . S
C2245 H2267 0.950 . S
C2246 H2242 0.949 . S
C2246 C2254 1.574 . S
C2246 C2262 1.368 1_556 S
H2247 C2255 0.950 . S
H2248 C2253 0.950 . S
H2249 C2254 0.949 . S
H2250 C2256 0.950 . S
H2251 C2257 0.950 . S
H2252 C2258 0.949 . S
C2253 H2248 0.950 . S
C2253 C2255 1.327 . S
C2253 C2259 1.429 . S
C2254 C2246 1.574 . S
C2254 H2249 0.949 . S
C2254 C2260 1.368 . S
C2255 C2239 1.349 . S
C2255 H2247 0.950 . S
C2255 C2253 1.327 . S
C2256 C2244 1.349 . S
C2256 H2250 0.950 . S
C2256 C2257 1.327 . S
C2257 H2251 0.950 . S
C2257 C2256 1.327 . S
C2257 C2261 1.429 . S
C2258 C2241 1.574 1_554 S
C2258 H2252 0.949 . S
C2258 C2262 1.368 . S
C2259 C2240 1.429 . S
C2259 C2253 1.429 . S
C2259 C2260 1.523 . S
C2260 C2241 1.368 . S
C2260 C2254 1.368 . S
C2260 C2259 1.523 . S
C2261 C2245 1.429 . S
C2261 C2257 1.429 . S
C2261 C2262 1.523 . S
C2262 C2246 1.368 1_554 S
C2262 C2258 1.368 . S
C2262 C2261 1.523 . S
H2263 C2238 0.950 . S
H2264 C2240 0.950 . S
H2265 C2241 0.949 . S
H2266 C2243 0.950 . S
H2267 C2245 0.950 . S
C2268 C2269 1.349 . S
C2268 C2270 1.327 . S
C2268 H2293 0.950 . S
C2269 C2268 1.349 . S
C2269 C2285 1.349 . S
C2270 C2268 1.327 . S
C2270 C2289 1.429 . S
C2270 H2294 0.950 . S
C2271 C2288 1.574 . S
C2271 C2290 1.368 . S
C2271 H2295 0.949 . S
H2272 C2276 0.949 . S
C2273 C2274 1.349 . S
C2273 C2275 1.327 . S
C2273 H2296 0.950 . S
C2274 C2273 1.349 . S
C2274 C2286 1.349 . S
C2275 C2273 1.327 . S
C2275 C2291 1.429 . S
C2275 H2297 0.950 . S
C2276 H2272 0.949 . S
C2276 C2284 1.574 . S
C2276 C2292 1.368 . S
H2277 C2285 0.950 . S
H2278 C2283 0.950 . S
H2279 C2284 0.949 . S
H2280 C2286 0.950 . S
H2281 C2287 0.950 . S
H2282 C2288 0.949 . S
C2283 H2278 0.950 . S
C2283 C2285 1.327 . S
C2283 C2289 1.429 . S
C2284 C2276 1.574 . S
C2284 H2279 0.949 . S
C2284 C2290 1.368 . S
C2285 C2269 1.349 . S
C2285 H2277 0.950 . S
C2285 C2283 1.327 . S
C2286 C2274 1.349 . S
C2286 H2280 0.950 . S
C2286 C2287 1.327 . S
C2287 H2281 0.950 . S
C2287 C2286 1.327 . S
C2287 C2291 1.429 . S
C2288 C2271 1.574 . S
C2288 H2282 0.949 . S
C2288 C2292 1.368 . S
C2289 C2270 1.429 . S
C2289 C2283 1.429 . S
C2289 C2290 1.523 . S
C2290 C2271 1.368 . S
C2290 C2284 1.368 . S
C2290 C2289 1.523 . S
C2291 C2275 1.429 . S
C2291 C2287 1.429 . S
C2291 C2292 1.523 . S
C2292 C2276 1.368 . S
C2292 C2288 1.368 . S
C2292 C2291 1.523 . S
H2293 C2268 0.950 . S
H2294 C2270 0.950 . S
H2295 C2271 0.949 . S
H2296 C2273 0.950 . S
H2297 C2275 0.950 . S
C2298 C2299 1.349 . S
C2298 C2300 1.327 . S
C2298 H2323 0.950 . S
C2299 C2298 1.349 . S
C2299 C2315 1.349 . S
C2300 C2298 1.327 . S
C2300 C2319 1.429 . S
C2300 H2324 0.950 . S
C2301 C2318 1.574 . S
C2301 C2320 1.368 . S
C2301 H2325 0.949 . S
H2302 C2306 0.949 . S
C2303 C2304 1.349 . S
C2303 C2305 1.327 . S
C2303 H2326 0.950 . S
C2304 C2303 1.349 . S
C2304 C2316 1.349 . S
C2305 C2303 1.327 . S
C2305 C2321 1.429 . S
C2305 H2327 0.950 . S
C2306 H2302 0.949 . S
C2306 C2314 1.574 . S
C2306 C2322 1.368 . S
H2307 C2315 0.950 . S
H2308 C2313 0.950 . S
H2309 C2314 0.949 . S
H2310 C2316 0.950 . S
H2311 C2317 0.950 . S
H2312 C2318 0.949 . S
C2313 H2308 0.950 . S
C2313 C2315 1.327 . S
C2313 C2319 1.429 . S
C2314 C2306 1.574 . S
C2314 H2309 0.949 . S
C2314 C2320 1.368 . S
C2315 C2299 1.349 . S
C2315 H2307 0.950 . S
C2315 C2313 1.327 . S
C2316 C2304 1.349 . S
C2316 H2310 0.950 . S
C2316 C2317 1.327 . S
C2317 H2311 0.950 . S
C2317 C2316 1.327 . S
C2317 C2321 1.429 . S
C2318 C2301 1.574 . S
C2318 H2312 0.949 . S
C2318 C2322 1.368 . S
C2319 C2300 1.429 . S
C2319 C2313 1.429 . S
C2319 C2320 1.523 . S
C2320 C2301 1.368 . S
C2320 C2314 1.368 . S
C2320 C2319 1.523 . S
C2321 C2305 1.429 . S
C2321 C2317 1.429 . S
C2321 C2322 1.523 . S
C2322 C2306 1.368 . S
C2322 C2318 1.368 . S
C2322 C2321 1.523 . S
H2323 C2298 0.950 . S
H2324 C2300 0.950 . S
H2325 C2301 0.949 . S
H2326 C2303 0.950 . S
H2327 C2305 0.950 . S
C2328 C2329 1.349 . S
C2328 C2330 1.327 . S
C2328 H2353 0.950 . S
C2329 C2328 1.349 . S
C2329 C2345 1.349 . S
C2330 C2328 1.327 . S
C2330 C2349 1.429 . S
C2330 H2354 0.950 . S
C2331 C2348 1.574 . S
C2331 C2350 1.368 . S
C2331 H2355 0.949 . S
H2332 C2336 0.949 . S
C2333 C2334 1.349 . S
C2333 C2335 1.327 . S
C2333 H2356 0.950 . S
C2334 C2333 1.349 . S
C2334 C2346 1.349 . S
C2335 C2333 1.327 . S
C2335 C2351 1.429 . S
C2335 H2357 0.950 . S
C2336 H2332 0.949 . S
C2336 C2344 1.574 . S
C2336 C2352 1.368 . S
H2337 C2345 0.950 . S
H2338 C2343 0.950 . S
H2339 C2344 0.949 . S
H2340 C2346 0.950 . S
H2341 C2347 0.950 . S
H2342 C2348 0.949 . S
C2343 H2338 0.950 . S
C2343 C2345 1.327 . S
C2343 C2349 1.429 . S
C2344 C2336 1.574 . S
C2344 H2339 0.949 . S
C2344 C2350 1.368 . S
C2345 C2329 1.349 . S
C2345 H2337 0.950 . S
C2345 C2343 1.327 . S
C2346 C2334 1.349 . S
C2346 H2340 0.950 . S
C2346 C2347 1.327 . S
C2347 H2341 0.950 . S
C2347 C2346 1.327 . S
C2347 C2351 1.429 . S
C2348 C2331 1.574 . S
C2348 H2342 0.949 . S
C2348 C2352 1.368 . S
C2349 C2330 1.429 . S
C2349 C2343 1.429 . S
C2349 C2350 1.523 . S
C2350 C2331 1.368 . S
C2350 C2344 1.368 . S
C2350 C2349 1.523 . S
C2351 C2335 1.429 . S
C2351 C2347 1.429 . S
C2351 C2352 1.523 . S
C2352 C2336 1.368 . S
C2352 C2348 1.368 . S
C2352 C2351 1.523 . S
H2353 C2328 0.950 . S
H2354 C2330 0.950 . S
H2355 C2331 0.949 . S
H2356 C2333 0.950 . S
H2357 C2335 0.950 . S
C2358 C2359 1.349 . S
C2358 C2360 1.327 . S
C2358 H2383 0.950 . S
C2359 C2358 1.349 . S
C2359 C2375 1.349 . S
C2360 C2358 1.327 . S
C2360 C2379 1.429 . S
C2360 H2384 0.950 . S
C2361 C2378 1.574 . S
C2361 C2380 1.368 . S
C2361 H2385 0.949 . S
H2362 C2366 0.949 . S
C2363 C2364 1.349 . S
C2363 C2365 1.327 . S
C2363 H2386 0.950 . S
C2364 C2363 1.349 . S
C2364 C2376 1.349 . S
C2365 C2363 1.327 . S
C2365 C2381 1.429 . S
C2365 H2387 0.950 . S
C2366 H2362 0.949 . S
C2366 C2374 1.574 . S
C2366 C2382 1.368 . S
H2367 C2375 0.950 . S
H2368 C2373 0.950 . S
H2369 C2374 0.949 . S
H2370 C2376 0.950 . S
H2371 C2377 0.950 . S
H2372 C2378 0.949 . S
C2373 H2368 0.950 . S
C2373 C2375 1.327 . S
C2373 C2379 1.429 . S
C2374 C2366 1.574 . S
C2374 H2369 0.949 . S
C2374 C2380 1.368 . S
C2375 C2359 1.349 . S
C2375 H2367 0.950 . S
C2375 C2373 1.327 . S
C2376 C2364 1.349 . S
C2376 H2370 0.950 . S
C2376 C2377 1.327 . S
C2377 H2371 0.950 . S
C2377 C2376 1.327 . S
C2377 C2381 1.429 . S
C2378 C2361 1.574 . S
C2378 H2372 0.949 . S
C2378 C2382 1.368 . S
C2379 C2360 1.429 . S
C2379 C2373 1.429 . S
C2379 C2380 1.523 . S
C2380 C2361 1.368 . S
C2380 C2374 1.368 . S
C2380 C2379 1.523 . S
C2381 C2365 1.429 . S
C2381 C2377 1.429 . S
C2381 C2382 1.523 . S
C2382 C2366 1.368 . S
C2382 C2378 1.368 . S
C2382 C2381 1.523 . S
H2383 C2358 0.950 . S
H2384 C2360 0.950 . S
H2385 C2361 0.949 . S
H2386 C2363 0.950 . S
H2387 C2365 0.950 . S
C2388 C2389 1.349 . S
C2388 C2390 1.327 . S
C2388 H2413 0.950 . S
C2389 C2388 1.349 . S
C2389 C2405 1.349 . S
C2390 C2388 1.327 . S
C2390 C2409 1.429 . S
C2390 H2414 0.950 . S
C2391 C2408 1.574 . S
C2391 C2410 1.368 . S
C2391 H2415 0.949 . S
H2392 C2396 0.949 . S
C2393 C2394 1.349 . S
C2393 C2395 1.327 . S
C2393 H2416 0.950 . S
C2394 C2393 1.349 . S
C2394 C2406 1.349 . S
C2395 C2393 1.327 . S
C2395 C2411 1.429 . S
C2395 H2417 0.950 . S
C2396 H2392 0.949 . S
C2396 C2404 1.574 . S
C2396 C2412 1.368 . S
H2397 C2405 0.950 . S
H2398 C2403 0.950 . S
H2399 C2404 0.949 . S
H2400 C2406 0.950 . S
H2401 C2407 0.950 . S
H2402 C2408 0.949 . S
C2403 H2398 0.950 . S
C2403 C2405 1.327 . S
C2403 C2409 1.429 . S
C2404 C2396 1.574 . S
C2404 H2399 0.949 . S
C2404 C2410 1.368 . S
C2405 C2389 1.349 . S
C2405 H2397 0.950 . S
C2405 C2403 1.327 . S
C2406 C2394 1.349 . S
C2406 H2400 0.950 . S
C2406 C2407 1.327 . S
C2407 H2401 0.950 . S
C2407 C2406 1.327 . S
C2407 C2411 1.429 . S
C2408 C2391 1.574 . S
C2408 H2402 0.949 . S
C2408 C2412 1.368 . S
C2409 C2390 1.429 . S
C2409 C2403 1.429 . S
C2409 C2410 1.523 . S
C2410 C2391 1.368 . S
C2410 C2404 1.368 . S
C2410 C2409 1.523 . S
C2411 C2395 1.429 . S
C2411 C2407 1.429 . S
C2411 C2412 1.523 . S
C2412 C2396 1.368 . S
C2412 C2408 1.368 . S
C2412 C2411 1.523 . S
H2413 C2388 0.950 . S
H2414 C2390 0.950 . S
H2415 C2391 0.949 . S
H2416 C2393 0.950 . S
H2417 C2395 0.950 . S
C2418 C2419 1.349 . S
C2418 C2420 1.327 . S
C2418 H2443 0.950 . S
C2419 C2418 1.349 . S
C2419 C2435 1.349 . S
C2420 C2418 1.327 . S
C2420 C2439 1.429 . S
C2420 H2444 0.950 . S
C2421 C2438 1.574 . S
C2421 C2440 1.368 . S
C2421 H2445 0.949 . S
H2422 C2426 0.949 . S
C2423 C2424 1.349 . S
C2423 C2425 1.327 . S
C2423 H2446 0.950 . S
C2424 C2423 1.349 . S
C2424 C2436 1.349 . S
C2425 C2423 1.327 . S
C2425 C2441 1.429 . S
C2425 H2447 0.950 . S
C2426 H2422 0.949 . S
C2426 C2434 1.574 . S
C2426 C2442 1.368 . S
H2427 C2435 0.950 . S
H2428 C2433 0.950 . S
H2429 C2434 0.949 . S
H2430 C2436 0.950 . S
H2431 C2437 0.950 . S
H2432 C2438 0.949 . S
C2433 H2428 0.950 . S
C2433 C2435 1.327 . S
C2433 C2439 1.429 . S
C2434 C2426 1.574 . S
C2434 H2429 0.949 . S
C2434 C2440 1.368 . S
C2435 C2419 1.349 . S
C2435 H2427 0.950 . S
C2435 C2433 1.327 . S
C2436 C2424 1.349 . S
C2436 H2430 0.950 . S
C2436 C2437 1.327 . S
C2437 H2431 0.950 . S
C2437 C2436 1.327 . S
C2437 C2441 1.429 . S
C2438 C2421 1.574 . S
C2438 H2432 0.949 . S
C2438 C2442 1.368 . S
C2439 C2420 1.429 . S
C2439 C2433 1.429 . S
C2439 C2440 1.523 . S
C2440 C2421 1.368 . S
C2440 C2434 1.368 . S
C2440 C2439 1.523 . S
C2441 C2425 1.429 . S
C2441 C2437 1.429 . S
C2441 C2442 1.523 . S
C2442 C2426 1.368 . S
C2442 C2438 1.368 . S
C2442 C2441 1.523 . S
H2443 C2418 0.950 . S
H2444 C2420 0.950 . S
H2445 C2421 0.949 . S
H2446 C2423 0.950 . S
H2447 C2425 0.950 . S
C2448 C2449 1.349 . S
C2448 C2450 1.327 . S
C2448 H2473 0.950 . S
C2449 C2448 1.349 . S
C2449 C2465 1.349 . S
C2450 C2448 1.327 . S
C2450 C2469 1.429 . S
C2450 H2474 0.950 . S
C2451 C2468 1.574 . S
C2451 C2470 1.368 . S
C2451 H2475 0.949 . S
H2452 C2456 0.949 . S
C2453 C2454 1.349 . S
C2453 C2455 1.327 . S
C2453 H2476 0.950 . S
C2454 C2453 1.349 . S
C2454 C2466 1.349 . S
C2455 C2453 1.327 . S
C2455 C2471 1.429 . S
C2455 H2477 0.950 . S
C2456 H2452 0.949 . S
C2456 C2464 1.574 . S
C2456 C2472 1.368 . S
H2457 C2465 0.950 . S
H2458 C2463 0.950 . S
H2459 C2464 0.949 . S
H2460 C2466 0.950 . S
H2461 C2467 0.950 . S
H2462 C2468 0.949 . S
C2463 H2458 0.950 . S
C2463 C2465 1.327 . S
C2463 C2469 1.429 . S
C2464 C2456 1.574 . S
C2464 H2459 0.949 . S
C2464 C2470 1.368 . S
C2465 C2449 1.349 . S
C2465 H2457 0.950 . S
C2465 C2463 1.327 . S
C2466 C2454 1.349 . S
C2466 H2460 0.950 . S
C2466 C2467 1.327 . S
C2467 H2461 0.950 . S
C2467 C2466 1.327 . S
C2467 C2471 1.429 . S
C2468 C2451 1.574 . S
C2468 H2462 0.949 . S
C2468 C2472 1.368 . S
C2469 C2450 1.429 . S
C2469 C2463 1.429 . S
C2469 C2470 1.523 . S
C2470 C2451 1.368 . S
C2470 C2464 1.368 . S
C2470 C2469 1.523 . S
C2471 C2455 1.429 . S
C2471 C2467 1.429 . S
C2471 C2472 1.523 . S
C2472 C2456 1.368 . S
C2472 C2468 1.368 . S
C2472 C2471 1.523 . S
H2473 C2448 0.950 . S
H2474 C2450 0.950 . S
H2475 C2451 0.949 . S
H2476 C2453 0.950 . S
H2477 C2455 0.950 . S
C2478 C2479 1.349 . S
C2478 C2480 1.327 . S
C2478 H2503 0.950 . S
C2479 C2478 1.349 . S
C2479 C2495 1.349 . S
C2480 C2478 1.327 . S
C2480 C2499 1.429 . S
C2480 H2504 0.950 . S
C2481 C2498 1.574 . S
C2481 C2500 1.368 . S
C2481 H2505 0.949 . S
H2482 C2486 0.949 . S
C2483 C2484 1.349 . S
C2483 C2485 1.327 . S
C2483 H2506 0.950 . S
C2484 C2483 1.349 . S
C2484 C2496 1.349 . S
C2485 C2483 1.327 . S
C2485 C2501 1.429 . S
C2485 H2507 0.950 . S
C2486 H2482 0.949 . S
C2486 C2494 1.574 . S
C2486 C2502 1.368 . S
H2487 C2495 0.950 . S
H2488 C2493 0.950 . S
H2489 C2494 0.949 . S
H2490 C2496 0.950 . S
H2491 C2497 0.950 . S
H2492 C2498 0.949 . S
C2493 H2488 0.950 . S
C2493 C2495 1.327 . S
C2493 C2499 1.429 . S
C2494 C2486 1.574 . S
C2494 H2489 0.949 . S
C2494 C2500 1.368 . S
C2495 C2479 1.349 . S
C2495 H2487 0.950 . S
C2495 C2493 1.327 . S
C2496 C2484 1.349 . S
C2496 H2490 0.950 . S
C2496 C2497 1.327 . S
C2497 H2491 0.950 . S
C2497 C2496 1.327 . S
C2497 C2501 1.429 . S
C2498 C2481 1.574 . S
C2498 H2492 0.949 . S
C2498 C2502 1.368 . S
C2499 C2480 1.429 . S
C2499 C2493 1.429 . S
C2499 C2500 1.523 . S
C2500 C2481 1.368 . S
C2500 C2494 1.368 . S
C2500 C2499 1.523 . S
C2501 C2485 1.429 . S
C2501 C2497 1.429 . S
C2501 C2502 1.523 . S
C2502 C2486 1.368 . S
C2502 C2498 1.368 . S
C2502 C2501 1.523 . S
H2503 C2478 0.950 . S
H2504 C2480 0.950 . S
H2505 C2481 0.949 . S
H2506 C2483 0.950 . S
H2507 C2485 0.950 . S
C2508 C2509 1.349 . S
C2508 C2510 1.327 . S
C2508 H2533 0.950 . S
C2509 C2508 1.349 . S
C2509 C2525 1.349 . S
C2510 C2508 1.327 . S
C2510 C2529 1.429 . S
C2510 H2534 0.950 . S
C2511 C2528 1.574 . S
C2511 C2530 1.368 . S
C2511 H2535 0.949 . S
H2512 C2516 0.949 . S
C2513 C2514 1.349 . S
C2513 C2515 1.327 . S
C2513 H2536 0.950 . S
C2514 C2513 1.349 . S
C2514 C2526 1.349 . S
C2515 C2513 1.327 . S
C2515 C2531 1.429 . S
C2515 H2537 0.950 . S
C2516 H2512 0.949 . S
C2516 C2524 1.574 . S
C2516 C2532 1.368 . S
H2517 C2525 0.950 . S
H2518 C2523 0.950 . S
H2519 C2524 0.949 . S
H2520 C2526 0.950 . S
H2521 C2527 0.950 . S
H2522 C2528 0.949 . S
C2523 H2518 0.950 . S
C2523 C2525 1.327 . S
C2523 C2529 1.429 . S
C2524 C2516 1.574 . S
C2524 H2519 0.949 . S
C2524 C2530 1.368 . S
C2525 C2509 1.349 . S
C2525 H2517 0.950 . S
C2525 C2523 1.327 . S
C2526 C2514 1.349 . S
C2526 H2520 0.950 . S
C2526 C2527 1.327 . S
C2527 H2521 0.950 . S
C2527 C2526 1.327 . S
C2527 C2531 1.429 . S
C2528 C2511 1.574 . S
C2528 H2522 0.949 . S
C2528 C2532 1.368 . S
C2529 C2510 1.429 . S
C2529 C2523 1.429 . S
C2529 C2530 1.523 . S
C2530 C2511 1.368 . S
C2530 C2524 1.368 . S
C2530 C2529 1.523 . S
C2531 C2515 1.429 . S
C2531 C2527 1.429 . S
C2531 C2532 1.523 . S
C2532 C2516 1.368 . S
C2532 C2528 1.368 . S
C2532 C2531 1.523 . S
H2533 C2508 0.950 . S
H2534 C2510 0.950 . S
H2535 C2511 0.949 . S
H2536 C2513 0.950 . S
H2537 C2515 0.950 . S
C2538 C2539 1.349 . S
C2538 C2540 1.327 . S
C2538 H2563 0.950 . S
C2539 C2538 1.349 . S
C2539 C2555 1.349 . S
C2540 C2538 1.327 . S
C2540 C2559 1.429 . S
C2540 H2564 0.950 . S
C2541 C2558 1.574 . S
C2541 C2560 1.368 . S
C2541 H2565 0.949 . S
H2542 C2546 0.949 . S
C2543 C2544 1.349 . S
C2543 C2545 1.327 . S
C2543 H2566 0.950 . S
C2544 C2543 1.349 . S
C2544 C2556 1.349 . S
C2545 C2543 1.327 . S
C2545 C2561 1.429 . S
C2545 H2567 0.950 . S
C2546 H2542 0.949 . S
C2546 C2554 1.574 . S
C2546 C2562 1.368 . S
H2547 C2555 0.950 . S
H2548 C2553 0.950 . S
H2549 C2554 0.949 . S
H2550 C2556 0.950 . S
H2551 C2557 0.950 . S
H2552 C2558 0.949 . S
C2553 H2548 0.950 . S
C2553 C2555 1.327 . S
C2553 C2559 1.429 . S
C2554 C2546 1.574 . S
C2554 H2549 0.949 . S
C2554 C2560 1.368 . S
C2555 C2539 1.349 . S
C2555 H2547 0.950 . S
C2555 C2553 1.327 . S
C2556 C2544 1.349 . S
C2556 H2550 0.950 . S
C2556 C2557 1.327 . S
C2557 H2551 0.950 . S
C2557 C2556 1.327 . S
C2557 C2561 1.429 . S
C2558 C2541 1.574 . S
C2558 H2552 0.949 . S
C2558 C2562 1.368 . S
C2559 C2540 1.429 . S
C2559 C2553 1.429 . S
C2559 C2560 1.523 . S
C2560 C2541 1.368 . S
C2560 C2554 1.368 . S
C2560 C2559 1.523 . S
C2561 C2545 1.429 . S
C2561 C2557 1.429 . S
C2561 C2562 1.523 . S
C2562 C2546 1.368 . S
C2562 C2558 1.368 . S
C2562 C2561 1.523 . S
H2563 C2538 0.950 . S
H2564 C2540 0.950 . S
H2565 C2541 0.949 . S
H2566 C2543 0.950 . S
H2567 C2545 0.950 . S
C2568 C2569 1.349 . S
C2568 C2570 1.327 . S
C2568 H2593 0.950 . S
C2569 C2568 1.349 . S
C2569 C2585 1.349 . S
C2570 C2568 1.327 . S
C2570 C2589 1.429 . S
C2570 H2594 0.950 . S
C2571 C2588 1.574 . S
C2571 C2590 1.368 . S
C2571 H2595 0.949 . S
H2572 C2576 0.949 . S
C2573 C2574 1.349 . S
C2573 C2575 1.327 . S
C2573 H2596 0.950 . S
C2574 C2573 1.349 . S
C2574 C2586 1.349 . S
C2575 C2573 1.327 . S
C2575 C2591 1.429 . S
C2575 H2597 0.950 . S
C2576 H2572 0.949 . S
C2576 C2584 1.574 . S
C2576 C2592 1.368 . S
H2577 C2585 0.950 . S
H2578 C2583 0.950 . S
H2579 C2584 0.949 . S
H2580 C2586 0.950 . S
H2581 C2587 0.950 . S
H2582 C2588 0.949 . S
C2583 H2578 0.950 . S
C2583 C2585 1.327 . S
C2583 C2589 1.429 . S
C2584 C2576 1.574 . S
C2584 H2579 0.949 . S
C2584 C2590 1.368 . S
C2585 C2569 1.349 . S
C2585 H2577 0.950 . S
C2585 C2583 1.327 . S
C2586 C2574 1.349 . S
C2586 H2580 0.950 . S
C2586 C2587 1.327 . S
C2587 H2581 0.950 . S
C2587 C2586 1.327 . S
C2587 C2591 1.429 . S
C2588 C2571 1.574 . S
C2588 H2582 0.949 . S
C2588 C2592 1.368 . S
C2589 C2570 1.429 . S
C2589 C2583 1.429 . S
C2589 C2590 1.523 . S
C2590 C2571 1.368 . S
C2590 C2584 1.368 . S
C2590 C2589 1.523 . S
C2591 C2575 1.429 . S
C2591 C2587 1.429 . S
C2591 C2592 1.523 . S
C2592 C2576 1.368 . S
C2592 C2588 1.368 . S
C2592 C2591 1.523 . S
H2593 C2568 0.950 . S
H2594 C2570 0.950 . S
H2595 C2571 0.949 . S
H2596 C2573 0.950 . S
H2597 C2575 0.950 . S
C2598 C2599 1.349 . S
C2598 C2600 1.327 . S
C2598 H2623 0.950 . S
C2599 C2598 1.349 . S
C2599 C2615 1.349 . S
C2600 C2598 1.327 . S
C2600 C2619 1.429 . S
C2600 H2624 0.950 . S
C2601 C2618 1.574 . S
C2601 C2620 1.368 . S
C2601 H2625 0.949 . S
H2602 C2606 0.949 . S
C2603 C2604 1.349 . S
C2603 C2605 1.327 . S
C2603 H2626 0.950 . S
C2604 C2603 1.349 . S
C2604 C2616 1.349 . S
C2605 C2603 1.327 . S
C2605 C2621 1.429 . S
C2605 H2627 0.950 . S
C2606 H2602 0.949 . S
C2606 C2614 1.574 . S
C2606 C2622 1.368 . S
H2607 C2615 0.950 . S
H2608 C2613 0.950 . S
H2609 C2614 0.949 . S
H2610 C2616 0.950 . S
H2611 C2617 0.950 . S
H2612 C2618 0.949 . S
C2613 H2608 0.950 . S
C2613 C2615 1.327 . S
C2613 C2619 1.429 . S
C2614 C2606 1.574 . S
C2614 H2609 0.949 . S
C2614 C2620 1.368 . S
C2615 C2599 1.349 . S
C2615 H2607 0.950 . S
C2615 C2613 1.327 . S
C2616 C2604 1.349 . S
C2616 H2610 0.950 . S
C2616 C2617 1.327 . S
C2617 H2611 0.950 . S
C2617 C2616 1.327 . S
C2617 C2621 1.429 . S
C2618 C2601 1.574 . S
C2618 H2612 0.949 . S
C2618 C2622 1.368 . S
C2619 C2600 1.429 . S
C2619 C2613 1.429 . S
C2619 C2620 1.523 . S
C2620 C2601 1.368 . S
C2620 C2614 1.368 . S
C2620 C2619 1.523 . S
C2621 C2605 1.429 . S
C2621 C2617 1.429 . S
C2621 C2622 1.523 . S
C2622 C2606 1.368 . S
C2622 C2618 1.368 . S
C2622 C2621 1.523 . S
H2623 C2598 0.950 . S
H2624 C2600 0.950 . S
H2625 C2601 0.949 . S
H2626 C2603 0.950 . S
H2627 C2605 0.950 . S
C2628 C2629 1.349 . S
C2628 C2630 1.327 . S
C2628 H2653 0.950 . S
C2629 C2628 1.349 . S
C2629 C2645 1.349 . S
C2630 C2628 1.327 . S
C2630 C2649 1.429 . S
C2630 H2654 0.950 . S
C2631 C2648 1.574 . S
C2631 C2650 1.368 . S
C2631 H2655 0.949 . S
H2632 C2636 0.949 . S
C2633 C2634 1.349 . S
C2633 C2635 1.327 . S
C2633 H2656 0.950 . S
C2634 C2633 1.349 . S
C2634 C2646 1.349 . S
C2635 C2633 1.327 . S
C2635 C2651 1.429 . S
C2635 H2657 0.950 . S
C2636 H2632 0.949 . S
C2636 C2644 1.574 . S
C2636 C2652 1.368 . S
H2637 C2645 0.950 . S
H2638 C2643 0.950 . S
H2639 C2644 0.949 . S
H2640 C2646 0.950 . S
H2641 C2647 0.950 . S
H2642 C2648 0.949 . S
C2643 H2638 0.950 . S
C2643 C2645 1.327 . S
C2643 C2649 1.429 . S
C2644 C2636 1.574 . S
C2644 H2639 0.949 . S
C2644 C2650 1.368 . S
C2645 C2629 1.349 . S
C2645 H2637 0.950 . S
C2645 C2643 1.327 . S
C2646 C2634 1.349 . S
C2646 H2640 0.950 . S
C2646 C2647 1.327 . S
C2647 H2641 0.950 . S
C2647 C2646 1.327 . S
C2647 C2651 1.429 . S
C2648 C2631 1.574 . S
C2648 H2642 0.949 . S
C2648 C2652 1.368 . S
C2649 C2630 1.429 . S
C2649 C2643 1.429 . S
C2649 C2650 1.523 . S
C2650 C2631 1.368 . S
C2650 C2644 1.368 . S
C2650 C2649 1.523 . S
C2651 C2635 1.429 . S
C2651 C2647 1.429 . S
C2651 C2652 1.523 . S
C2652 C2636 1.368 . S
C2652 C2648 1.368 . S
C2652 C2651 1.523 . S
H2653 C2628 0.950 . S
H2654 C2630 0.950 . S
H2655 C2631 0.949 . S
H2656 C2633 0.950 . S
H2657 C2635 0.950 . S
C2658 C2659 1.349 . S
C2658 C2660 1.327 . S
C2658 H2683 0.950 . S
C2659 C2658 1.349 . S
C2659 C2675 1.349 . S
C2660 C2658 1.327 . S
C2660 C2679 1.429 . S
C2660 H2684 0.950 . S
C2661 C2678 1.574 . S
C2661 C2680 1.368 . S
C2661 H2685 0.949 . S
H2662 C2666 0.949 . S
C2663 C2664 1.349 . S
C2663 C2665 1.327 . S
C2663 H2686 0.950 . S
C2664 C2663 1.349 . S
C2664 C2676 1.349 . S
C2665 C2663 1.327 . S
C2665 C2681 1.429 . S
C2665 H2687 0.950 . S
C2666 H2662 0.949 . S
C2666 C2674 1.574 . S
C2666 C2682 1.368 . S
H2667 C2675 0.950 . S
H2668 C2673 0.950 . S
H2669 C2674 0.949 . S
H2670 C2676 0.950 . S
H2671 C2677 0.950 . S
H2672 C2678 0.949 . S
C2673 H2668 0.950 . S
C2673 C2675 1.327 . S
C2673 C2679 1.429 . S
C2674 C2666 1.574 . S
C2674 H2669 0.949 . S
C2674 C2680 1.368 . S
C2675 C2659 1.349 . S
C2675 H2667 0.950 . S
C2675 C2673 1.327 . S
C2676 C2664 1.349 . S
C2676 H2670 0.950 . S
C2676 C2677 1.327 . S
C2677 H2671 0.950 . S
C2677 C2676 1.327 . S
C2677 C2681 1.429 . S
C2678 C2661 1.574 . S
C2678 H2672 0.949 . S
C2678 C2682 1.368 . S
C2679 C2660 1.429 . S
C2679 C2673 1.429 . S
C2679 C2680 1.523 . S
C2680 C2661 1.368 . S
C2680 C2674 1.368 . S
C2680 C2679 1.523 . S
C2681 C2665 1.429 . S
C2681 C2677 1.429 . S
C2681 C2682 1.523 . S
C2682 C2666 1.368 . S
C2682 C2678 1.368 . S
C2682 C2681 1.523 . S
H2683 C2658 0.950 . S
H2684 C2660 0.950 . S
H2685 C2661 0.949 . S
H2686 C2663 0.950 . S
H2687 C2665 0.950 . S
C2688 C2689 1.349 . S
C2688 C2690 1.327 . S
C2688 H2713 0.950 . S
C2689 C2688 1.349 . S
C2689 C2705 1.349 . S
C2690 C2688 1.327 . S
C2690 C2709 1.429 . S
C2690 H2714 0.950 . S
C2691 C2708 1.574 . S
C2691 C2710 1.368 . S
C2691 H2715 0.949 . S
H2692 C2696 0.949 . S
C2693 C2694 1.349 . S
C2693 C2695 1.327 . S
C2693 H2716 0.950 . S
C2694 C2693 1.349 . S
C2694 C2706 1.349 . S
C2695 C2693 1.327 . S
C2695 C2711 1.429 . S
C2695 H2717 0.950 . S
C2696 H2692 0.949 . S
C2696 C2704 1.574 . S
C2696 C2712 1.368 . S
H2697 C2705 0.950 . S
H2698 C2703 0.950 . S
H2699 C2704 0.949 . S
H2700 C2706 0.950 . S
H2701 C2707 0.950 . S
H2702 C2708 0.949 . S
C2703 H2698 0.950 . S
C2703 C2705 1.327 . S
C2703 C2709 1.429 . S
C2704 C2696 1.574 . S
C2704 H2699 0.949 . S
C2704 C2710 1.368 . S
C2705 C2689 1.349 . S
C2705 H2697 0.950 . S
C2705 C2703 1.327 . S
C2706 C2694 1.349 . S
C2706 H2700 0.950 . S
C2706 C2707 1.327 . S
C2707 H2701 0.950 . S
C2707 C2706 1.327 . S
C2707 C2711 1.429 . S
C2708 C2691 1.574 . S
C2708 H2702 0.949 . S
C2708 C2712 1.368 . S
C2709 C2690 1.429 . S
C2709 C2703 1.429 . S
C2709 C2710 1.523 . S
C2710 C2691 1.368 . S
C2710 C2704 1.368 . S
C2710 C2709 1.523 . S
C2711 C2695 1.429 . S
C2711 C2707 1.429 . S
C2711 C2712 1.523 . S
C2712 C2696 1.368 . S
C2712 C2708 1.368 . S
C2712 C2711 1.523 . S
H2713 C2688 0.950 . S
H2714 C2690 0.950 . S
H2715 C2691 0.949 . S
H2716 C2693 0.950 . S
H2717 C2695 0.950 . S
C2718 C2719 1.349 . S
C2718 C2720 1.327 . S
C2718 H2743 0.950 . S
C2719 C2718 1.349 . S
C2719 C2735 1.349 . S
C2720 C2718 1.327 . S
C2720 C2739 1.429 . S
C2720 H2744 0.950 . S
C2721 C2738 1.574 . S
C2721 C2740 1.368 . S
C2721 H2745 0.949 . S
H2722 C2726 0.949 . S
C2723 C2724 1.349 . S
C2723 C2725 1.327 1_556 S
C2723 H2746 0.950 . S
C2724 C2723 1.349 . S
C2724 C2736 1.349 . S
C2725 C2723 1.327 1_554 S
C2725 C2741 1.429 . S
C2725 H2747 0.950 . S
C2726 H2722 0.949 . S
C2726 C2734 1.574 . S
C2726 C2742 1.368 . S
H2727 C2735 0.950 . S
H2728 C2733 0.950 . S
H2729 C2734 0.949 . S
H2730 C2736 0.950 . S
H2731 C2737 0.950 . S
H2732 C2738 0.949 . S
C2733 H2728 0.950 . S
C2733 C2735 1.327 . S
C2733 C2739 1.429 . S
C2734 C2726 1.574 . S
C2734 H2729 0.949 . S
C2734 C2740 1.368 . S
C2735 C2719 1.349 . S
C2735 H2727 0.950 . S
C2735 C2733 1.327 . S
C2736 C2724 1.349 . S
C2736 H2730 0.950 . S
C2736 C2737 1.327 . S
C2737 H2731 0.950 . S
C2737 C2736 1.327 . S
C2737 C2741 1.429 1_556 S
C2738 C2721 1.574 . S
C2738 H2732 0.949 . S
C2738 C2742 1.368 . S
C2739 C2720 1.429 . S
C2739 C2733 1.429 . S
C2739 C2740 1.523 . S
C2740 C2721 1.368 . S
C2740 C2734 1.368 . S
C2740 C2739 1.523 . S
C2741 C2725 1.429 . S
C2741 C2737 1.429 1_554 S
C2741 C2742 1.523 . S
C2742 C2726 1.368 . S
C2742 C2738 1.368 . S
C2742 C2741 1.523 . S
H2743 C2718 0.950 . S
H2744 C2720 0.950 . S
H2745 C2721 0.949 . S
H2746 C2723 0.950 . S
H2747 C2725 0.950 . S
C2748 C2749 1.349 . S
C2748 C2750 1.327 . S
C2748 H2773 0.950 . S
C2749 C2748 1.349 . S
C2749 C2765 1.349 . S
C2750 C2748 1.327 . S
C2750 C2769 1.429 . S
C2750 H2774 0.950 . S
C2751 C2768 1.574 . S
C2751 C2770 1.368 . S
C2751 H2775 0.949 . S
H2752 C2756 0.949 . S
C2753 C2754 1.346 1_554 S
C2753 C2755 1.346 . S
C2753 H2776 0.934 1_554 S
C2754 C2753 1.346 1_556 S
C2754 C2766 1.349 1_556 S
C2755 C2753 1.346 . S
C2755 C2771 1.429 . S
C2755 H2777 0.950 . S
C2756 H2752 0.949 . S
C2756 C2764 1.574 . S
C2756 C2772 1.368 . S
H2757 C2765 0.950 . S
H2758 C2763 0.950 . S
H2759 C2764 0.949 . S
H2760 C2766 0.950 . S
H2761 C2767 0.950 . S
H2762 C2768 0.949 . S
C2763 H2758 0.950 . S
C2763 C2765 1.327 . S
C2763 C2769 1.429 . S
C2764 C2756 1.574 . S
C2764 H2759 0.949 . S
C2764 C2770 1.368 . S
C2765 C2749 1.349 . S
C2765 H2757 0.950 . S
C2765 C2763 1.327 . S
C2766 C2754 1.349 1_554 S
C2766 H2760 0.950 . S
C2766 C2767 1.327 . S
C2767 H2761 0.950 . S
C2767 C2766 1.327 . S
C2767 C2771 1.429 . S
C2768 C2751 1.574 . S
C2768 H2762 0.949 . S
C2768 C2772 1.368 . S
C2769 C2750 1.429 . S
C2769 C2763 1.429 . S
C2769 C2770 1.523 . S
C2770 C2751 1.368 . S
C2770 C2764 1.368 . S
C2770 C2769 1.523 . S
C2771 C2755 1.429 . S
C2771 C2767 1.429 . S
C2771 C2772 1.523 . S
C2772 C2756 1.368 . S
C2772 C2768 1.368 . S
C2772 C2771 1.523 . S
H2773 C2748 0.950 . S
H2774 C2750 0.950 . S
H2775 C2751 0.949 . S
H2776 C2753 0.934 1_556 S
H2777 C2755 0.950 . S
C2778 C2779 1.349 . S
C2778 C2780 1.327 . S
C2778 H2803 0.950 . S
C2779 C2778 1.349 . S
C2779 C2795 1.349 . S
C2780 C2778 1.327 . S
C2780 C2799 1.429 . S
C2780 H2804 0.950 . S
C2781 C2798 1.574 . S
C2781 C2800 1.368 . S
C2781 H2805 0.949 . S
H2782 C2786 0.949 . S
C2783 C2784 1.349 . S
C2783 C2785 1.327 . S
C2783 H2806 0.950 . S
C2784 C2783 1.349 . S
C2784 C2796 1.349 . S
C2785 C2783 1.327 . S
C2785 C2801 1.429 1_556 S
C2785 H2807 0.950 . S
C2786 H2782 0.949 . S
C2786 C2794 1.574 . S
C2786 C2802 1.368 . S
H2787 C2795 0.950 . S
H2788 C2793 0.950 . S
H2789 C2794 0.949 . S
H2790 C2796 0.950 . S
H2791 C2797 0.950 . S
H2792 C2798 0.949 . S
C2793 H2788 0.950 . S
C2793 C2795 1.327 . S
C2793 C2799 1.429 . S
C2794 C2786 1.574 . S
C2794 H2789 0.949 . S
C2794 C2800 1.368 . S
C2795 C2779 1.349 . S
C2795 H2787 0.950 . S
C2795 C2793 1.327 . S
C2796 C2784 1.349 . S
C2796 H2790 0.950 . S
C2796 C2797 1.327 1_556 S
C2797 H2791 0.950 . S
C2797 C2796 1.327 1_554 S
C2797 C2801 1.429 . S
C2798 C2781 1.574 . S
C2798 H2792 0.949 . S
C2798 C2802 1.368 . S
C2799 C2780 1.429 . S
C2799 C2793 1.429 . S
C2799 C2800 1.523 . S
C2800 C2781 1.368 . S
C2800 C2794 1.368 . S
C2800 C2799 1.523 . S
C2801 C2785 1.429 1_554 S
C2801 C2797 1.429 . S
C2801 C2802 1.523 . S
C2802 C2786 1.368 . S
C2802 C2798 1.368 . S
C2802 C2801 1.523 . S
H2803 C2778 0.950 . S
H2804 C2780 0.950 . S
H2805 C2781 0.949 . S
H2806 C2783 0.950 . S
H2807 C2785 0.950 . S
C649 C7 1.559 . S
C654 C560 1.564 . S
C684 C534 1.856 . S
C679 C39 1.853 . S
C714 C547 1.681 . S
C709 C62 1.680 . S
C739 C76 1.867 . S
C744 C614 1.871 . S
C769 C108 1.497 . S
C774 C627 1.497 . S
C799 N117 1.367 . S
C804 C640 1.380 . S
C834 C600 1.398 . S
C829 C16 1.404 . S
C859 C30 1.750 1_556 S
C864 C574 1.751 . S
C894 C588 1.457 . S
C889 C53 1.453 1_556 S
C919 C85 1.724 . S
C924 C497 1.723 . S
C954 C509 1.557 . S
C949 C99 1.555 . S
C979 N127 1.233 . S
C984 C523 1.264 . S
C1009 N150 1.202 . S
C1014 C638 1.234 . S
C1044 C612 1.650 . S
C1039 N173 1.607 . S
C1074 C625 1.478 . S
C1069 C200 1.478 . S
C1099 C214 1.676 . S
C1104 C458 1.683 . S
C1129 N232 1.538 . S
C1134 C471 1.559 . S
C1159 C260 1.543 . S
C1164 C484 1.560 . S
C1194 C444 1.255 . S
C1189 N140 1.251 . S
C1219 N163 1.348 . S
C1224 C424 1.353 . S
C1254 C430 1.509 . S
C1249 C191 1.507 . S
C1284 C573 1.771 . S
C1279 C223 1.773 . S
C1314 C593 1.392 . S
C1309 N242 1.361 . S
C1344 C599 1.430 . S
C1339 C269 1.434 . S
C1369 N288 1.328 . S
C1374 C482 1.357 . S
C1399 C315 1.586 . S
C1404 C456 1.587 . S
C1429 C338 1.758 . S
C1434 C469 1.757 . S
C1459 C352 1.922 . S
C1464 C536 1.927 . S
C1494 C549 1.586 . S
C1489 N370 1.566 . S
C1524 C562 1.599 . S
C1519 C398 1.593 . S
C1554 C528 1.185 . S
C1549 N278 1.174 . S
C1579 C306 1.642 . S
C1584 C502 1.642 . S
C1609 C329 1.558 . S
C1614 C508 1.560 . S
C1644 C419 1.479 1_655 S
C1639 C361 1.480 . S
C1669 N380 1.408 . S
C1674 C431 1.438 . S
C1704 C443 1.370 . S
C1699 C407 1.372 . S
C1734 C463 1.448 . S
C1729 N12 1.435 . S
C1759 N25 1.524 . S
C1764 C476 1.567 . S
C1794 C489 1.338 . S
C1789 N48 1.297 . S
C1824 C483 1.412 . S
C1819 N81 1.397 . S
C1854 C457 1.626 . S
C1849 N94 1.575 . S
C1884 C470 1.663 . S
C1879 C131 1.644 . S
C1914 C417 1.371 . S
C1909 N2 1.321 . S
C1939 N35 1.430 . S
C1944 C437 1.466 . S
C1969 N58 1.202 . S
C1974 C445 1.228 . S
C2004 C450 1.366 . S
C1999 N71 1.321 . S
C2034 C418 1.451 . S
C2029 N104 1.418 . S
C2064 C432 1.637 . S
C2059 C122 1.633 . S
C2089 C145 1.986 . S
C2094 C541 1.983 . S
C2119 C168 1.685 . S
C2124 C554 1.684 . S
C2149 N186 1.466 . S
C2154 C567 1.516 . S
C2184 C561 1.482 . S
C2179 N219 1.472 . S
C2214 C535 1.865 . S
C2209 C246 1.846 . S
C2244 C548 1.561 . S
C2239 N265 1.546 . S
C2274 C495 1.804 . S
C2269 C154 1.789 . S
C2299 C177 1.702 . S
C2304 C515 1.715 . S
C2329 N196 1.307 . S
C2334 C521 1.339 . S
C2359 N209 1.248 . S
C2364 C522 1.306 . S
C2389 C237 1.835 . S
C2394 C496 1.837 . S
C2424 C510 1.474 . S
C2419 N255 1.420 . S
C2449 C283 1.847 . S
C2454 C619 1.844 . S
C2479 N301 1.479 . S
C2484 C632 1.529 . S
C2509 N324 1.255 . S
C2514 C645 1.288 . S
C2544 C639 1.255 . S
C2539 N357 1.239 . S
C2574 C613 1.828 . S
C2569 C384 1.815 . S
C2599 N403 1.415 . S
C2604 C626 1.428 . S
C2629 C292 1.833 . S
C2634 C575 1.856 . S
C2664 C587 1.402 . S
C2659 N311 1.367 . S
C2689 N334 1.303 . S
C2694 C601 1.335 . S
C2719 N347 1.340 . S
C2724 C606 1.385 . S
C2754 C580 1.885 . S
C2749 C375 1.885 . S
C2779 N393 1.383 . S
C2784 C586 1.439 . S
