# Generated by pormake.
# Topology pth, (4,4)-cn, num edge types: 1
# Building blocks:
#     Node 0, Type 0, BuildingBlock: TATPOV_clean_sbu_0, # of connection points: 4
#     Node 1, Type 0, BuildingBlock: TATPOV_clean_sbu_0, # of connection points: 4
#     Node 2, Type 0, BuildingBlock: TATPOV_clean_sbu_0, # of connection points: 4
#     Node 3, Type 1, BuildingBlock: NAWXER_clean_sbu_0, # of connection points: 4
#     Node 4, Type 1, BuildingBlock: NAWXER_clean_sbu_0, # of connection points: 4
#     Node 5, Type 1, BuildingBlock: NAWXER_clean_sbu_0, # of connection points: 4
#     Edge 6, Type (0, 1), BuildingBlock: UVAHIK_clean_linker_0, # of connection points: 2
#     Edge 7, Type (0, 1), BuildingBlock: UVAHIK_clean_linker_0, # of connection points: 2
#     Edge 8, Type (0, 1), BuildingBlock: UVAHIK_clean_linker_0, # of connection points: 2
#     Edge 9, Type (0, 1), BuildingBlock: UVAHIK_clean_linker_0, # of connection points: 2
#     Edge 10, Type (0, 1), BuildingBlock: UVAHIK_clean_linker_0, # of connection points: 2
#     Edge 11, Type (0, 1), BuildingBlock: UVAHIK_clean_linker_0, # of connection points: 2
#     Edge 12, Type (0, 1), BuildingBlock: UVAHIK_clean_linker_0, # of connection points: 2
#     Edge 13, Type (0, 1), BuildingBlock: UVAHIK_clean_linker_0, # of connection points: 2
#     Edge 14, Type (0, 1), BuildingBlock: UVAHIK_clean_linker_0, # of connection points: 2
#     Edge 15, Type (0, 1), BuildingBlock: UVAHIK_clean_linker_0, # of connection points: 2
#     Edge 16, Type (0, 1), BuildingBlock: UVAHIK_clean_linker_0, # of connection points: 2
#     Edge 17, Type (0, 1), BuildingBlock: UVAHIK_clean_linker_0, # of connection points: 2
# Relax obj value: 0.048
# Max RMSD: 0.171
# Mean RMSD: 0.098
data_MOF--net-pth--node1-TATPOV_clean_sbu_0--node2-NAWXER_clean_sbu_0--edge1-UVAHIK_clean_linker_0
_symmetry_space_group_name_H-M    P1
_symmetry_Int_Tables_number       1
_symmetry_cell_setting            triclinic
loop_
_symmetry_equiv_pos_as_xyz
'x, y, z'
_cell_length_a     30.131686
_cell_length_b     29.8315
_cell_length_c     73.827921
_cell_angle_alpha  92.594939
_cell_angle_beta   92.296076
_cell_angle_gamma 121.05051
loop_
_atom_site_label
_atom_site_type_symbol
_atom_site_fract_x
_atom_site_fract_y
_atom_site_fract_z
_atom_type_partial_charge
Zn0 Zn 0.1658 0.04517 0.05544 0.0
Zn1 Zn 0.10342 0.07633 0.06894 0.0
O2 O 0.11358 0.03352 0.08816 0.0
O3 O 0.16904 0.01257 0.07847 0.0
O4 O 0.0722 0.11382 0.08216 0.0
O5 O 0.22092 0.11843 0.04987 0.0
O6 O 0.16536 0.14007 0.0588 0.0
C7 C 0.13918 0.01075 0.09038 0.0
C8 C 0.0599 -0.0026 0.0369 0.0
O9 O 0.05206 0.02533 0.04843 0.0
O10 O 0.10354 0.0004 0.03725 0.0
C11 C 0.06473 0.11098 0.09903 0.0
O12 O 0.07051 0.07705 0.10796 0.0
C13 C 0.20808 0.15246 0.05204 0.0
Zn14 Zn 0.12771 0.14419 0.39616 0.0
Zn15 Zn 0.03137 0.08058 0.4042 0.0
O16 O 0.07836 0.08972 0.42706 0.0
O17 O 0.15805 0.14878 0.42143 0.0
O18 O 0.96044 0.05132 0.41376 0.0
O19 O 0.11591 0.20014 0.38717 0.0
O20 O 0.0349 0.1429 0.39176 0.0
C21 C 0.12668 0.11718 0.43203 0.0
C22 C 0.07154 0.03765 0.37665 0.0
O23 O 0.03259 0.02834 0.38558 0.0
O24 O 0.11319 0.08227 0.37882 0.0
C25 C 0.94595 0.02732 0.42815 0.0
O26 O 0.97507 0.01222 0.43631 0.0
C27 C 0.06851 0.18641 0.38598 0.0
Zn28 Zn 0.05209 0.92282 0.73867 0.0
Zn29 Zn 0.01475 0.98153 0.72809 0.0
O30 O 0.05511 0.97701 0.7067 0.0
O31 O 0.08055 0.923 0.71442 0.0
O32 O 0.97076 0.00797 0.71715 0.0
O33 O 0.98357 0.863 0.74555 0.0
O34 O 0.9563 0.91609 0.73886 0.0
C35 C 0.07895 0.95299 0.70316 0.0
C36 C 0.09678 0.0275 0.7587 0.0
O37 O 0.06627 0.03426 0.74825 0.0
O38 O 0.09661 0.98484 0.75718 0.0
C39 C 0.97904 0.03257 0.70286 0.0
O40 O 0.0232 0.0493 0.69536 0.0
C41 C 0.94779 0.87332 0.74497 0.0
C42 C 0.07708 0.6396 0.26167 0.0
C43 C 0.0715 0.51823 0.21325 0.0
O44 O 0.11651 0.64034 0.25564 0.0
Zn45 Zn 0.07776 0.58135 0.23759 0.0
O46 O 0.03131 0.6055 0.25478 0.0
Zn47 Zn -0.00651 0.54172 0.23414 0.0
O48 O 0.952 0.48267 0.249 0.0
O49 O 0.0368 0.51988 0.25462 0.0
O50 O 0.02681 0.51046 0.21665 0.0
O51 O 0.11193 0.55537 0.22212 0.0
O52 O 0.04871 0.61506 0.21977 0.0
O53 O 0.96289 0.56916 0.21708 0.0
C54 C 0.99047 0.48574 0.25809 0.0
C55 C 0.0057 0.60838 0.21312 0.0
C56 C 0.5654 0.00454 0.58887 0.0
C57 C 0.43873 0.00064 0.54367 0.0
O58 O 0.52352 0.96327 0.58251 0.0
Zn59 Zn 0.49938 -0.00189 0.56652 0.0
O60 O 0.57591 0.04951 0.584 0.0
Zn61 Zn 0.54494 0.08363 0.56665 0.0
O62 O 0.52748 0.12428 0.58361 0.0
O63 O 0.48009 0.03864 0.58566 0.0
O64 O 0.47767 0.04616 0.5487 0.0
O65 O 0.43473 0.9604 0.55053 0.0
O66 O 0.55945 0.02902 0.54821 0.0
O67 O 0.59958 0.11563 0.54974 0.0
C68 C 0.49191 0.08511 0.59099 0.0
C69 C 0.59486 0.07309 0.54306 0.0
C70 C 0.48488 0.51811 0.9273 0.0
C71 C 0.57518 0.59778 0.87299 0.0
O72 O 0.47878 0.55028 0.91833 0.0
Zn73 Zn 0.52769 0.55965 0.89997 0.0
O74 O 0.51542 0.50317 0.92193 0.0
Zn75 Zn 0.56572 0.51461 0.90105 0.0
O76 O 0.63255 0.54447 0.91483 0.0
O77 O 0.59951 0.59557 0.91613 0.0
O78 O 0.58484 0.56438 0.87948 0.0
O79 O 0.5444 0.60844 0.88079 0.0
O80 O 0.48795 0.48535 0.88476 0.0
O81 O 0.53215 0.44554 0.8881 0.0
C82 C 0.63559 0.58677 0.92079 0.0
C83 C 0.49284 0.44573 0.88121 0.0
C84 C 0.05355 0.14962 0.12805 0.0
C85 C 0.05885 0.1514 0.10922 0.0
C86 C 0.05521 0.19115 0.13824 0.0
C87 C 0.04326 0.30788 0.13494 0.0
H88 H 0.12256 0.35131 0.18172 0.0
C89 C 0.02949 0.44514 0.18876 0.0
C90 C 0.07451 0.48227 0.19949 0.0
C91 C 0.03034 0.40844 0.17661 0.0
C92 C 0.10081 0.34014 0.1686 0.0
H93 H 0.06798 0.19751 0.08622 0.0
H94 H 0.07087 0.27004 0.10404 0.0
H95 H 0.11673 0.27908 0.1628 0.0
H96 H 0.15619 0.51069 0.20549 0.0
H97 H 0.15776 0.44637 0.1841 0.0
H98 H 0.02765 0.36922 0.14071 0.0
C99 C 0.06527 0.23637 0.11091 0.0
C100 C 0.09682 0.29821 0.15786 0.0
C101 C 0.06362 0.19476 0.10069 0.0
C102 C 0.12086 0.48261 0.19744 0.0
C103 C 0.12164 0.44556 0.18528 0.0
C104 C 0.04717 0.34976 0.1457 0.0
C105 C 0.0622 0.23553 0.12987 0.0
C106 C 0.06751 0.28117 0.141 0.0
C107 C 0.07621 0.40774 0.17484 0.0
C108 C 0.07553 0.36604 0.16275 0.0
H109 H 0.04951 0.11673 0.13505 0.0
H110 H 0.05154 0.18869 0.15275 0.0
H111 H 0.02026 0.29568 0.12206 0.0
H112 H -0.00693 0.4437 0.18993 0.0
H113 H -0.00551 0.37952 0.16899 0.0
C114 C 0.88371 -0.00269 0.4527 0.0
C115 C 0.9031 0.02669 0.43757 0.0
C116 C 0.84875 0.00266 0.46315 0.0
C117 C 0.7629 0.05926 0.46414 0.0
H118 H 0.77951 0.0525 0.51611 0.0
C119 C 0.65969 0.11395 0.51928 0.0
C120 C 0.63176 0.07285 0.53046 0.0
C121 C 0.69365 0.11146 0.50732 0.0
C122 C 0.77459 0.05464 0.50162 0.0
H123 H 0.89954 0.08352 0.42118 0.0
H124 H 0.84014 0.09406 0.43964 0.0
H125 H 0.83489 0.0396 0.49612 0.0
H126 H 0.61845 -0.0023 0.5382 0.0
H127 H 0.67813 -0.00574 0.51785 0.0
H128 H 0.70301 0.07546 0.46999 0.0
C129 C 0.85084 0.06597 0.44331 0.0
C130 C 0.80588 0.04661 0.49009 0.0
C131 C 0.88515 0.05999 0.4327 0.0
C132 C 0.63903 0.02987 0.52967 0.0
C133 C 0.67345 0.02794 0.5181 0.0
C134 C 0.73206 0.06809 0.47576 0.0
C135 C 0.83299 0.03823 0.45892 0.0
C136 C 0.79997 0.04792 0.47114 0.0
C137 C 0.70101 0.06851 0.50678 0.0
C138 C 0.73714 0.06505 0.49457 0.0
H139 H 0.89646 0.97103 0.45673 0.0
H140 H 0.83475 0.97942 0.47474 0.0
H141 H 0.75674 0.06012 0.44965 0.0
H142 H 0.65478 0.14747 0.5196 0.0
H143 H 0.71465 0.14328 0.49871 0.0
C144 C 0.86575 0.85797 0.7579 0.0
C145 C 0.89881 0.83939 0.75356 0.0
C146 C 0.82446 0.83004 0.76879 0.0
C147 C 0.78754 0.73464 0.80366 0.0
H148 H 0.6549 0.72685 0.79961 0.0
C149 C 0.62499 0.60125 0.84656 0.0
C150 C 0.6017 0.62354 0.85674 0.0
C151 C 0.65597 0.62731 0.83264 0.0
C152 C 0.69199 0.72922 0.80094 0.0
H153 H 0.91185 0.77486 0.75603 0.0
H154 H 0.83905 0.72543 0.77448 0.0
H155 H 0.71793 0.77045 0.77685 0.0
H156 H 0.59016 0.6894 0.8595 0.0
H157 H 0.64508 0.73555 0.83483 0.0
H158 H 0.76177 0.6932 0.82755 0.0
C159 C 0.84603 0.76248 0.77002 0.0
C160 C 0.72805 0.75406 0.78793 0.0
C161 C 0.88754 0.79059 0.7593 0.0
C162 C 0.60773 0.67136 0.85193 0.0
C163 C 0.63904 0.69768 0.83783 0.0
C164 C 0.7516 0.7097 0.8165 0.0
C165 C 0.81511 0.78274 0.77545 0.0
C166 C 0.77607 0.75651 0.78904 0.0
C167 C 0.66466 0.67646 0.82846 0.0
C168 C 0.70322 0.70612 0.81519 0.0
H169 H 0.87333 0.89547 0.7537 0.0
H170 H 0.80162 0.84693 0.77272 0.0
H171 H 0.82467 0.7372 0.80533 0.0
H172 H 0.62045 0.564 0.84964 0.0
H173 H 0.67425 0.60946 0.82538 0.0
C174 C 0.08821 0.96577 0.11677 0.0
C175 C 0.12828 0.97589 0.10541 0.0
C176 C 0.07264 0.92704 0.12912 0.0
C177 C 0.1151 0.84756 0.15293 0.0
H178 H 0.96775 0.75337 0.15761 0.0
C179 C 0.04741 0.70193 0.20733 0.0
C180 C 0.00834 0.64978 0.2022 0.0
C181 C 0.05736 0.74179 0.1961 0.0
C182 C 0.00896 0.77918 0.15635 0.0
H183 H 0.18447 0.95417 0.09861 0.0
H184 H 0.15739 0.88684 0.12009 0.0
H185 H -0.00344 0.82393 0.13704 0.0
H186 H 0.94689 0.59862 0.18179 0.0
H187 H 0.96493 0.66898 0.16168 0.0
H188 H 0.12776 0.8025 0.17181 0.0
C189 C 0.13813 0.90902 0.11954 0.0
C190 C 0.02553 0.81997 0.14475 0.0
C191 C 0.15367 0.94769 0.10719 0.0
C192 C 0.97716 0.63859 0.18603 0.0
C193 C 0.98757 0.67881 0.17457 0.0
C194 C 0.09861 0.807 0.16447 0.0
C195 C 0.09685 0.8976 0.13044 0.0
C196 C 0.07886 0.85468 0.14294 0.0
C197 C 0.02899 0.73056 0.17927 0.0
C198 C 0.0454 0.77253 0.16645 0.0
H199 H 0.0676 0.98651 0.11574 0.0
H200 H 0.04133 0.91986 0.13754 0.0
H201 H 0.15641 0.87371 0.15198 0.0
H202 H 0.07147 0.71178 0.21991 0.0
H203 H 0.08842 0.78137 0.20042 0.0
C204 C 0.20021 0.13844 0.45459 0.0
C205 C 0.14753 0.10591 0.4486 0.0
C206 C 0.22306 0.1227 0.46767 0.0
C207 C 0.20958 0.00265 0.48439 0.0
H208 H 0.32406 0.10268 0.5181 0.0
C209 C 0.34495 0.96076 0.53214 0.0
C210 C 0.39794 -0.00199 0.53105 0.0
C211 C 0.30685 0.96716 0.52305 0.0
C212 C 0.29199 0.07422 0.5088 0.0
H213 H 0.07675 0.0326 0.45251 0.0
H214 H 0.11678 0.00527 0.47551 0.0
H215 H 0.26975 0.12944 0.50242 0.0
H216 H 0.45254 0.06818 0.51841 0.0
H217 H 0.38671 0.07896 0.5027 0.0
H218 H 0.23305 0.9478 0.49066 0.0
C219 C 0.14046 0.04272 0.46989 0.0
C220 C 0.26096 0.08956 0.49979 0.0
C221 C 0.11743 0.05869 0.45685 0.0
C222 C 0.41204 0.03919 0.51971 0.0
C223 C 0.37437 0.04561 0.51079 0.0
C224 C 0.24059 0.98715 0.49355 0.0
C225 C 0.19388 0.07393 0.47508 0.0
C226 C 0.22053 0.0546 0.48699 0.0
C227 C 0.32153 0.01094 0.51291 0.0
C228 C 0.28318 0.02344 0.50534 0.0
H229 H 0.22453 0.17504 0.44854 0.0
H230 H 0.2644 0.14758 0.47119 0.0
H231 H 0.17892 0.97481 0.47453 0.0
H232 H 0.33302 0.92884 0.54087 0.0
H233 H 0.26622 0.93969 0.52476 0.0
C234 C 0.16906 0.06184 0.78305 0.0
C235 C 0.13445 0.0697 0.77226 0.0
C236 C 0.20672 0.10192 0.79519 0.0
C237 C 0.27945 0.24576 0.80422 0.0
H238 H 0.3162 0.21462 0.851 0.0
C239 C 0.41433 0.40694 0.85947 0.0
C240 C 0.45271 0.40156 0.86884 0.0
C241 C 0.37604 0.3661 0.84774 0.0
C242 C 0.30674 0.22377 0.83789 0.0
H243 H 0.11169 0.12577 0.76611 0.0
H244 H 0.17716 0.19581 0.78763 0.0
H245 H 0.24594 0.14426 0.83098 0.0
H246 H 0.48084 0.34881 0.87322 0.0
H247 H 0.41324 0.27679 0.85264 0.0
H248 H 0.33992 0.32539 0.81126 0.0
C249 C 0.17556 0.15868 0.78642 0.0
C250 C 0.26646 0.18353 0.82642 0.0
C251 C 0.13781 0.11847 0.77417 0.0
C252 C 0.45183 0.35415 0.8662 0.0
C253 C 0.41304 0.31291 0.85451 0.0
C254 C 0.31951 0.286 0.81573 0.0
C255 C 0.21072 0.15095 0.79696 0.0
C256 C 0.25237 0.19404 0.80943 0.0
C257 C 0.37489 0.31865 0.84512 0.0
C258 C 0.33355 0.27544 0.83269 0.0
H259 H 0.16779 0.02486 0.78192 0.0
H260 H 0.23357 0.09479 0.80286 0.0
H261 H 0.27033 0.25508 0.7911 0.0
H262 H 0.41377 0.44291 0.86114 0.0
H263 H 0.34681 0.37147 0.8409 0.0
C264 C 0.88426 0.0005 0.6976 0.0
C265 C 0.93566 0.03356 0.69306 0.0
C266 C 0.84252 -0.00419 0.6869 0.0
C267 C 0.81031 0.01898 0.64039 0.0
H268 H 0.68314 0.9935 0.66063 0.0
C269 C 0.65672 0.04316 0.60129 0.0
C270 C 0.60453 0.0022 0.6009 0.0
C271 C 0.69479 0.04297 0.61255 0.0
C272 C 0.71821 -8e-05 0.65481 0.0
H273 H 0.98358 0.08978 0.67428 0.0
H274 H 0.91106 0.08347 0.65606 0.0
H275 H 0.75531 0.00537 0.68084 0.0
H276 H 0.5513 0.92883 0.61208 0.0
H277 H 0.61851 0.92923 0.63238 0.0
H278 H 0.77372 0.01555 0.61446 0.0
C279 C 0.90272 0.05956 0.6675 0.0
C280 C 0.75965 0.00676 0.66636 0.0
C281 C 0.94446 0.06369 0.67807 0.0
C282 C 0.59121 0.96081 0.61209 0.0
C283 C 0.62949 0.96117 0.62372 0.0
C284 C 0.76925 0.0129 0.62894 0.0
C285 C 0.85108 0.02458 0.6715 0.0
C286 C 0.8065 0.01685 0.65931 0.0
C287 C 0.68167 0.00222 0.62394 0.0
C288 C 0.72298 0.00373 0.63603 0.0
H289 H 0.876 0.97642 0.709 0.0
H290 H 0.80349 0.96808 0.69035 0.0
H291 H 0.845 0.02516 0.63435 0.0
H292 H 0.6684 0.07548 0.59275 0.0
H293 H 0.73458 0.07527 0.61256 0.0
C294 C 0.96797 0.95231 0.02304 0.0
C295 C 0.01751 0.95846 0.02372 0.0
C296 C 0.92741 0.91265 0.01143 0.0
C297 C 0.88488 0.78397 0.98807 0.0
H298 H 0.79245 0.81047 0.95874 0.0
C299 C 0.72715 0.62795 0.93477 0.0
C300 C 0.67981 0.62647 0.93313 0.0
C301 C 0.76934 0.66815 0.94573 0.0
C302 C 0.81748 0.80217 0.96702 0.0
H303 H 0.06347 0.92841 0.01239 0.0
H304 H 0.99293 0.85967 0.99229 0.0
H305 H 0.8635 0.88205 0.97803 0.0
H306 H 0.63878 0.66442 0.94235 0.0
H307 H 0.71121 0.73299 0.96167 0.0
H308 H 0.83844 0.70392 0.97732 0.0
C309 C 0.9853 0.88509 0.00083 0.0
C310 C 0.85823 0.84328 0.97803 0.0
C311 C 0.02581 0.92481 0.01229 0.0
C312 C 0.67499 0.66485 0.94308 0.0
C313 C 0.71671 0.70449 0.95409 0.0
C314 C 0.84384 0.7427 0.97715 0.0
C315 C 0.93557 0.8782 0.00041 0.0
C316 C 0.89229 0.8346 0.98869 0.0
C317 C 0.7647 0.70726 0.95535 0.0
C318 C 0.80947 0.75125 0.96655 0.0
H319 H 0.96026 0.97749 0.03167 0.0
H320 H 0.88933 0.90805 0.01143 0.0
H321 H 0.91026 0.77603 -0.00369 0.0
H322 H 0.732 0.59893 0.92724 0.0
H323 H 0.80587 0.66929 0.94631 0.0
C324 C 0.11429 0.00819 0.35484 0.0
C325 C 0.0705 -0.00368 0.3644 0.0
C326 C 0.11593 0.96927 0.34426 0.0
C327 C 0.05753 0.82588 0.33837 0.0
H328 H 0.12184 0.8573 0.29247 0.0
C329 C 0.03908 0.66784 0.28568 0.0
C330 C 0.08237 0.67856 0.27602 0.0
C331 C 0.04073 0.70608 0.29772 0.0
C332 C 0.10454 0.84819 0.3054 0.0
H333 H -0.00651 0.93411 0.36997 0.0
H334 H -0.00404 0.86589 0.35112 0.0
H335 H 0.11506 0.92446 0.30998 0.0
H336 H 0.16209 0.73719 0.27192 0.0
H337 H 0.16502 0.80468 0.29308 0.0
H338 H 0.04625 0.74921 0.33356 0.0
C339 C 0.02942 0.90544 0.35212 0.0
C340 C 0.10044 0.8866 0.31541 0.0
C341 C 0.02779 0.94457 0.36279 0.0
C342 C 0.12821 0.72783 0.27921 0.0
C343 C 0.1297 0.76649 0.29118 0.0
C344 C 0.06143 0.78738 0.3283 0.0
C345 C 0.07375 0.91733 0.34285 0.0
C346 C 0.07683 0.87591 0.33201 0.0
C347 C 0.08562 0.75619 0.30033 0.0
C348 C 0.08484 0.79808 0.31168 0.0
H349 H 0.14803 0.04758 0.35576 0.0
H350 H 0.15095 0.97975 0.33754 0.0
H351 H 0.04 0.81664 0.35124 0.0
H352 H 0.00323 0.6301 0.2836 0.0
H353 H 0.00602 0.69702 0.30441 0.0
C354 C 0.13528 0.93727 0.68313 0.0
C355 C 0.11152 0.96598 0.68743 0.0
C356 C 0.1734 0.95464 0.67068 0.0
C357 C 0.27233 0.0758 0.6519 0.0
H358 H 0.28996 0.9772 0.62168 0.0
C359 C 0.43949 0.12258 0.60263 0.0
C360 C 0.4601 0.09007 0.60471 0.0
C361 C 0.39738 0.11484 0.61248 0.0
C362 C 0.2855 0.00524 0.63004 0.0
H363 H 0.10745 0.03426 0.68125 0.0
H364 H 0.17385 0.06431 0.65926 0.0
H365 H 0.21053 0.94609 0.63718 0.0
H366 H 0.4566 0.02783 0.6198 0.0
H367 H 0.38419 0.01494 0.63697 0.0
H368 H 0.34811 0.13485 0.64467 0.0
C369 C 0.16333 0.02867 0.66576 0.0
C370 C 0.24006 0.98742 0.63895 0.0
C371 C 0.12487 0.01109 0.67822 0.0
C372 C 0.44123 0.05323 0.61786 0.0
C373 C 0.39954 0.04554 0.62759 0.0
C374 C 0.31788 0.09378 0.64279 0.0
C375 C 0.18885 0.00122 0.66215 0.0
C376 C 0.23353 0.02207 0.65047 0.0
C377 C 0.37564 0.0745 0.6244 0.0
C378 C 0.32545 0.05825 0.63226 0.0
H379 H 0.12605 0.90242 0.68997 0.0
H380 H 0.19252 0.93274 0.66842 0.0
H381 H 0.2687 0.10352 0.66074 0.0
H382 H 0.45299 0.15084 0.59242 0.0
H383 H 0.37965 0.13781 0.60986 0.0
C384 C 0.28998 0.22172 0.03966 0.0
C385 C 0.23963 0.20462 0.04484 0.0
C386 C 0.31709 0.26765 0.03069 0.0
C387 C 0.29366 0.34479 -0.00055 0.0
H388 H 0.44174 0.4427 0.00841 0.0
C389 C 0.41287 0.49709 0.94807 0.0
C390 C 0.45807 0.49714 0.94401 0.0
C391 C 0.38606 0.47221 0.96317 0.0
C392 C 0.40033 0.41575 0.00572 0.0
H393 H 0.17905 0.22349 0.04526 0.0
H394 H 0.22627 0.30331 0.0293 0.0
H395 H 0.39529 0.37779 0.03016 0.0
H396 H 0.51195 0.47355 0.95313 0.0
H397 H 0.46562 0.4304 0.97893 0.0
H398 H 0.29916 0.38057 0.97447 0.0
C399 C 0.24467 0.28115 0.03226 0.0
C400 C 0.3738 0.37868 0.0182 0.0
C401 C 0.21782 0.2356 0.04148 0.0
C402 C 0.47701 0.47395 0.95573 0.0
C403 C 0.45067 0.44961 0.97074 0.0
C404 C 0.32033 0.38159 0.98684 0.0
C405 C 0.29421 0.29713 0.02651 0.0
C406 C 0.32053 0.34177 0.01491 0.0
C407 C 0.40446 0.44765 0.97456 0.0
C408 C 0.37435 0.41626 0.98951 0.0
H409 H 0.30789 0.19881 0.04206 0.0
H410 H 0.35507 0.27876 0.02628 0.0
H411 H 0.2526 0.31662 -0.00348 0.0
H412 H 0.39739 0.5147 0.93929 0.0
H413 H 0.35065 0.47157 0.96581 0.0
C414 C -0.00085 0.19646 0.3701 0.0
C415 C 0.0517 0.21781 0.37602 0.0
C416 C 0.98454 0.22279 0.35826 0.0
C417 C 0.042 0.31886 0.32391 0.0
H418 H 0.91921 0.32957 0.32568 0.0
C419 C 0.02609 0.4701 0.28626 0.0
C420 C 0.98431 0.45216 0.27309 0.0
C421 C 0.02566 0.43762 0.29922 0.0
C422 C 0.95313 0.32605 0.32493 0.0
H423 H 0.12945 0.28531 0.37524 0.0
H424 H 0.10395 0.33161 0.35504 0.0
H425 H 0.93661 0.28186 0.34852 0.0
H426 H 0.90749 0.38714 0.26402 0.0
H427 H 0.90679 0.32936 0.28712 0.0
H428 H 0.05944 0.36404 0.30077 0.0
C429 C 0.07416 0.2938 0.35907 0.0
C430 C 0.96322 0.29899 0.33798 0.0
C431 C 0.08877 0.26744 0.37077 0.0
C432 C 0.94028 0.40183 0.27396 0.0
C433 C 0.93986 0.36893 0.28712 0.0
C434 C 0.03209 0.34586 0.31104 0.0
C435 C 0.02219 0.27102 0.35217 0.0
C436 C 0.00857 0.29634 0.33786 0.0
C437 C 0.98344 0.38626 0.29945 0.0
C438 C 0.98832 0.35081 0.31165 0.0
H439 H 0.96957 0.15826 0.3739 0.0
H440 H 0.94421 0.20421 0.35321 0.0
H441 H 0.07636 0.31617 0.32304 0.0
H442 H 0.06018 0.50907 0.28626 0.0
H443 H 0.05929 0.4522 0.30878 0.0
loop_
_geom_bond_atom_site_label_1
_geom_bond_atom_site_label_2
_geom_bond_distance
_geom_bond_site_symmetry_2
_ccdc_geom_bond_type
Zn0 O3 2.031 1_545 S
Zn0 O5 2.049 . S
Zn0 O10 2.067 . S
Zn1 O2 1.962 . S
Zn1 O4 1.986 . S
Zn1 O6 1.996 . S
Zn1 O9 1.943 . S
O2 Zn1 1.962 . S
O2 C7 1.254 . S
O3 Zn0 2.031 1_565 S
O3 C7 1.269 1_565 S
O4 Zn1 1.986 . S
O4 C11 1.262 . S
O5 Zn0 2.049 . S
O5 C13 1.260 . S
O6 Zn1 1.996 . S
O6 C13 1.257 . S
C7 O2 1.254 . S
C7 O3 1.269 1_545 S
C8 O9 1.249 . S
C8 O10 1.270 . S
O9 Zn1 1.943 . S
O9 C8 1.249 . S
O10 Zn0 2.067 . S
O10 C8 1.270 . S
C11 O4 1.262 . S
C11 O12 1.232 . S
O12 C11 1.232 . S
C13 O5 1.260 . S
C13 O6 1.257 . S
Zn14 O17 2.031 . S
Zn14 O19 2.049 . S
Zn14 O24 2.067 . S
Zn15 O16 1.962 . S
Zn15 O18 1.986 1_455 S
Zn15 O20 1.996 . S
Zn15 O23 1.943 . S
O16 Zn15 1.962 . S
O16 C21 1.254 . S
O17 Zn14 2.031 . S
O17 C21 1.269 . S
O18 Zn15 1.986 1_655 S
O18 C25 1.262 . S
O19 Zn14 2.049 . S
O19 C27 1.260 . S
O20 Zn15 1.996 . S
O20 C27 1.257 . S
C21 O16 1.254 . S
C21 O17 1.269 . S
C22 O23 1.249 . S
C22 O24 1.270 . S
O23 Zn15 1.943 . S
O23 C22 1.249 . S
O24 Zn14 2.067 . S
O24 C22 1.270 . S
C25 O18 1.262 . S
C25 O26 1.232 . S
O26 C25 1.232 . S
C27 O19 1.260 . S
C27 O20 1.257 . S
Zn28 O31 2.031 1_565 S
Zn28 O33 2.049 . S
Zn28 O38 2.067 1_565 S
Zn29 O30 1.962 1_545 S
Zn29 O32 1.986 1_455 S
Zn29 O34 1.996 1_445 S
Zn29 O37 1.943 . S
O30 Zn29 1.962 1_565 S
O30 C35 1.254 1_565 S
O31 Zn28 2.031 1_545 S
O31 C35 1.269 . S
O32 Zn29 1.986 1_655 S
O32 C39 1.262 . S
O33 Zn28 2.049 . S
O33 C41 1.260 1_455 S
O34 Zn29 1.996 1_665 S
O34 C41 1.257 . S
C35 O30 1.254 1_545 S
C35 O31 1.269 . S
C36 O37 1.249 . S
C36 O38 1.270 . S
O37 Zn29 1.943 . S
O37 C36 1.249 . S
O38 Zn28 2.067 1_545 S
O38 C36 1.270 . S
C39 O32 1.262 . S
C39 O40 1.232 1_655 S
O40 C39 1.232 1_455 S
C41 O33 1.260 1_655 S
C41 O34 1.257 . S
C42 O44 1.247 . S
C42 O46 1.258 . S
C43 O50 1.247 . S
C43 O51 1.258 . S
O44 C42 1.247 . S
O44 Zn45 2.028 . S
Zn45 O44 2.028 . S
Zn45 O49 2.035 . S
Zn45 O51 2.035 . S
Zn45 O52 2.028 . S
O46 C42 1.258 . S
O46 Zn47 2.035 1_455 S
Zn47 O46 2.035 1_655 S
Zn47 O48 2.028 1_655 S
Zn47 O50 2.028 1_655 S
Zn47 O53 2.035 1_655 S
O48 Zn47 2.028 1_455 S
O48 C54 1.247 . S
O49 Zn45 2.035 . S
O49 C54 1.258 . S
O50 C43 1.247 . S
O50 Zn47 2.028 1_455 S
O51 C43 1.258 . S
O51 Zn45 2.035 . S
O52 Zn45 2.028 . S
O52 C55 1.247 . S
O53 Zn47 2.035 1_455 S
O53 C55 1.258 . S
C54 O48 1.247 . S
C54 O49 1.258 . S
C55 O52 1.247 . S
C55 O53 1.258 . S
C56 O58 1.247 . S
C56 O60 1.258 . S
C57 O64 1.247 . S
C57 O65 1.258 . S
O58 C56 1.247 . S
O58 Zn59 2.028 1_545 S
Zn59 O58 2.028 1_565 S
Zn59 O63 2.035 1_565 S
Zn59 O65 2.035 1_565 S
Zn59 O66 2.028 1_565 S
O60 C56 1.258 . S
O60 Zn61 2.035 . S
Zn61 O60 2.035 . S
Zn61 O62 2.028 . S
Zn61 O64 2.028 . S
Zn61 O67 2.035 . S
O62 Zn61 2.028 . S
O62 C68 1.247 . S
O63 Zn59 2.035 1_545 S
O63 C68 1.258 . S
O64 C57 1.247 . S
O64 Zn61 2.028 . S
O65 C57 1.258 . S
O65 Zn59 2.035 1_545 S
O66 Zn59 2.028 1_545 S
O66 C69 1.247 . S
O67 Zn61 2.035 . S
O67 C69 1.258 . S
C68 O62 1.247 . S
C68 O63 1.258 . S
C69 O66 1.247 . S
C69 O67 1.258 . S
C70 O72 1.247 . S
C70 O74 1.258 . S
C71 O78 1.247 . S
C71 O79 1.258 . S
O72 C70 1.247 . S
O72 Zn73 2.028 . S
Zn73 O72 2.028 . S
Zn73 O77 2.035 . S
Zn73 O79 2.035 . S
Zn73 O80 2.028 . S
O74 C70 1.258 . S
O74 Zn75 2.035 . S
Zn75 O74 2.035 . S
Zn75 O76 2.028 . S
Zn75 O78 2.028 . S
Zn75 O81 2.035 . S
O76 Zn75 2.028 . S
O76 C82 1.247 . S
O77 Zn73 2.035 . S
O77 C82 1.258 . S
O78 C71 1.247 . S
O78 Zn75 2.028 . S
O79 C71 1.258 . S
O79 Zn73 2.035 . S
O80 Zn73 2.028 . S
O80 C83 1.247 . S
O81 Zn75 2.035 . S
O81 C83 1.258 . S
C82 O76 1.247 . S
C82 O77 1.258 . S
C83 O80 1.247 . S
C83 O81 1.258 . S
C84 C85 1.349 . S
C84 C86 1.327 . S
C84 H109 0.950 . S
C85 C84 1.349 . S
C85 C101 1.349 . S
C86 C84 1.327 . S
C86 C105 1.429 . S
C86 H110 0.950 . S
C87 C104 1.574 . S
C87 C106 1.368 . S
C87 H111 0.949 . S
H88 C92 0.949 . S
C89 C90 1.349 . S
C89 C91 1.327 . S
C89 H112 0.950 . S
C90 C89 1.349 . S
C90 C102 1.349 . S
C91 C89 1.327 . S
C91 C107 1.429 . S
C91 H113 0.950 . S
C92 H88 0.949 . S
C92 C100 1.574 . S
C92 C108 1.368 . S
H93 C101 0.950 . S
H94 C99 0.950 . S
H95 C100 0.949 . S
H96 C102 0.950 . S
H97 C103 0.950 . S
H98 C104 0.949 . S
C99 H94 0.950 . S
C99 C101 1.327 . S
C99 C105 1.429 . S
C100 C92 1.574 . S
C100 H95 0.949 . S
C100 C106 1.368 . S
C101 C85 1.349 . S
C101 H93 0.950 . S
C101 C99 1.327 . S
C102 C90 1.349 . S
C102 H96 0.950 . S
C102 C103 1.327 . S
C103 H97 0.950 . S
C103 C102 1.327 . S
C103 C107 1.429 . S
C104 C87 1.574 . S
C104 H98 0.949 . S
C104 C108 1.368 . S
C105 C86 1.429 . S
C105 C99 1.429 . S
C105 C106 1.523 . S
C106 C87 1.368 . S
C106 C100 1.368 . S
C106 C105 1.523 . S
C107 C91 1.429 . S
C107 C103 1.429 . S
C107 C108 1.523 . S
C108 C92 1.368 . S
C108 C104 1.368 . S
C108 C107 1.523 . S
H109 C84 0.950 . S
H110 C86 0.950 . S
H111 C87 0.949 . S
H112 C89 0.950 . S
H113 C91 0.950 . S
C114 C115 1.349 . S
C114 C116 1.327 . S
C114 H139 0.950 1_545 S
C115 C114 1.349 . S
C115 C131 1.349 . S
C116 C114 1.327 . S
C116 C135 1.429 . S
C116 H140 0.950 1_545 S
C117 C134 1.574 . S
C117 C136 1.368 . S
C117 H141 0.949 . S
H118 C122 0.949 1_565 S
C119 C120 1.349 . S
C119 C121 1.327 . S
C119 H142 0.950 . S
C120 C119 1.349 . S
C120 C132 1.349 . S
C121 C119 1.327 . S
C121 C137 1.429 . S
C121 H143 0.950 . S
C122 H118 0.949 1_545 S
C122 C130 1.574 . S
C122 C138 1.368 . S
H123 C131 0.950 . S
H124 C129 0.950 . S
H125 C130 0.949 1_565 S
H126 C132 0.950 1_565 S
H127 C133 0.950 1_565 S
H128 C134 0.949 . S
C129 H124 0.950 . S
C129 C131 1.327 . S
C129 C135 1.429 . S
C130 C122 1.574 . S
C130 H125 0.949 1_545 S
C130 C136 1.368 . S
C131 C115 1.349 . S
C131 H123 0.950 . S
C131 C129 1.327 . S
C132 C120 1.349 . S
C132 H126 0.950 1_545 S
C132 C133 1.327 . S
C133 H127 0.950 1_545 S
C133 C132 1.327 . S
C133 C137 1.429 . S
C134 C117 1.574 . S
C134 H128 0.949 . S
C134 C138 1.368 . S
C135 C116 1.429 . S
C135 C129 1.429 . S
C135 C136 1.523 . S
C136 C117 1.368 . S
C136 C130 1.368 . S
C136 C135 1.523 . S
C137 C121 1.429 . S
C137 C133 1.429 . S
C137 C138 1.523 . S
C138 C122 1.368 . S
C138 C134 1.368 . S
C138 C137 1.523 . S
H139 C114 0.950 1_565 S
H140 C116 0.950 1_565 S
H141 C117 0.949 . S
H142 C119 0.950 . S
H143 C121 0.950 . S
C144 C145 1.349 . S
C144 C146 1.327 . S
C144 H169 0.950 . S
C145 C144 1.349 . S
C145 C161 1.349 . S
C146 C144 1.327 . S
C146 C165 1.429 . S
C146 H170 0.950 . S
C147 C164 1.574 . S
C147 C166 1.368 . S
C147 H171 0.949 . S
H148 C152 0.949 . S
C149 C150 1.349 . S
C149 C151 1.327 . S
C149 H172 0.950 . S
C150 C149 1.349 . S
C150 C162 1.349 . S
C151 C149 1.327 . S
C151 C167 1.429 . S
C151 H173 0.950 . S
C152 H148 0.949 . S
C152 C160 1.574 . S
C152 C168 1.368 . S
H153 C161 0.950 . S
H154 C159 0.950 . S
H155 C160 0.949 . S
H156 C162 0.950 . S
H157 C163 0.950 . S
H158 C164 0.949 . S
C159 H154 0.950 . S
C159 C161 1.327 . S
C159 C165 1.429 . S
C160 C152 1.574 . S
C160 H155 0.949 . S
C160 C166 1.368 . S
C161 C145 1.349 . S
C161 H153 0.950 . S
C161 C159 1.327 . S
C162 C150 1.349 . S
C162 H156 0.950 . S
C162 C163 1.327 . S
C163 H157 0.950 . S
C163 C162 1.327 . S
C163 C167 1.429 . S
C164 C147 1.574 . S
C164 H158 0.949 . S
C164 C168 1.368 . S
C165 C146 1.429 . S
C165 C159 1.429 . S
C165 C166 1.523 . S
C166 C147 1.368 . S
C166 C160 1.368 . S
C166 C165 1.523 . S
C167 C151 1.429 . S
C167 C163 1.429 . S
C167 C168 1.523 . S
C168 C152 1.368 . S
C168 C164 1.368 . S
C168 C167 1.523 . S
H169 C144 0.950 . S
H170 C146 0.950 . S
H171 C147 0.949 . S
H172 C149 0.950 . S
H173 C151 0.950 . S
C174 C175 1.349 . S
C174 C176 1.327 . S
C174 H199 0.950 . S
C175 C174 1.349 . S
C175 C191 1.349 . S
C176 C174 1.327 . S
C176 C195 1.429 . S
C176 H200 0.950 . S
C177 C194 1.574 . S
C177 C196 1.368 . S
C177 H201 0.949 . S
H178 C182 0.949 . S
C179 C180 1.349 . S
C179 C181 1.327 . S
C179 H202 0.950 . S
C180 C179 1.349 . S
C180 C192 1.349 . S
C181 C179 1.327 . S
C181 C197 1.429 . S
C181 H203 0.950 . S
C182 H178 0.949 . S
C182 C190 1.574 . S
C182 C198 1.368 . S
H183 C191 0.950 . S
H184 C189 0.950 . S
H185 C190 0.949 . S
H186 C192 0.950 . S
H187 C193 0.950 . S
H188 C194 0.949 . S
C189 H184 0.950 . S
C189 C191 1.327 . S
C189 C195 1.429 . S
C190 C182 1.574 . S
C190 H185 0.949 . S
C190 C196 1.368 . S
C191 C175 1.349 . S
C191 H183 0.950 . S
C191 C189 1.327 . S
C192 C180 1.349 . S
C192 H186 0.950 . S
C192 C193 1.327 . S
C193 H187 0.950 . S
C193 C192 1.327 . S
C193 C197 1.429 . S
C194 C177 1.574 . S
C194 H188 0.949 . S
C194 C198 1.368 . S
C195 C176 1.429 . S
C195 C189 1.429 . S
C195 C196 1.523 . S
C196 C177 1.368 . S
C196 C190 1.368 . S
C196 C195 1.523 . S
C197 C181 1.429 . S
C197 C193 1.429 . S
C197 C198 1.523 . S
C198 C182 1.368 . S
C198 C194 1.368 . S
C198 C197 1.523 . S
H199 C174 0.950 . S
H200 C176 0.950 . S
H201 C177 0.949 . S
H202 C179 0.950 . S
H203 C181 0.950 . S
C204 C205 1.349 . S
C204 C206 1.327 . S
C204 H229 0.950 . S
C205 C204 1.349 . S
C205 C221 1.349 . S
C206 C204 1.327 . S
C206 C225 1.429 . S
C206 H230 0.950 . S
C207 C224 1.574 . S
C207 C226 1.368 . S
C207 H231 0.949 . S
H208 C212 0.949 . S
C209 C210 1.349 . S
C209 C211 1.327 . S
C209 H232 0.950 1_545 S
C210 C209 1.349 . S
C210 C222 1.349 . S
C211 C209 1.327 . S
C211 C227 1.429 . S
C211 H233 0.950 . S
C212 H208 0.949 . S
C212 C220 1.574 . S
C212 C228 1.368 . S
H213 C221 0.950 . S
H214 C219 0.950 . S
H215 C220 0.949 . S
H216 C222 0.950 . S
H217 C223 0.950 . S
H218 C224 0.949 . S
C219 H214 0.950 . S
C219 C221 1.327 . S
C219 C225 1.429 . S
C220 C212 1.574 . S
C220 H215 0.949 . S
C220 C226 1.368 . S
C221 C205 1.349 . S
C221 H213 0.950 . S
C221 C219 1.327 . S
C222 C210 1.349 . S
C222 H216 0.950 . S
C222 C223 1.327 . S
C223 H217 0.950 . S
C223 C222 1.327 . S
C223 C227 1.429 . S
C224 C207 1.574 . S
C224 H218 0.949 . S
C224 C228 1.368 . S
C225 C206 1.429 . S
C225 C219 1.429 . S
C225 C226 1.523 . S
C226 C207 1.368 . S
C226 C220 1.368 . S
C226 C225 1.523 . S
C227 C211 1.429 . S
C227 C223 1.429 . S
C227 C228 1.523 . S
C228 C212 1.368 . S
C228 C224 1.368 . S
C228 C227 1.523 . S
H229 C204 0.950 . S
H230 C206 0.950 . S
H231 C207 0.949 . S
H232 C209 0.950 1_565 S
H233 C211 0.950 . S
C234 C235 1.349 . S
C234 C236 1.327 . S
C234 H259 0.950 . S
C235 C234 1.349 . S
C235 C251 1.349 . S
C236 C234 1.327 . S
C236 C255 1.429 . S
C236 H260 0.950 . S
C237 C254 1.574 . S
C237 C256 1.368 . S
C237 H261 0.949 . S
H238 C242 0.949 . S
C239 C240 1.349 . S
C239 C241 1.327 . S
C239 H262 0.950 . S
C240 C239 1.349 . S
C240 C252 1.349 . S
C241 C239 1.327 . S
C241 C257 1.429 . S
C241 H263 0.950 . S
C242 H238 0.949 . S
C242 C250 1.574 . S
C242 C258 1.368 . S
H243 C251 0.950 . S
H244 C249 0.950 . S
H245 C250 0.949 . S
H246 C252 0.950 . S
H247 C253 0.950 . S
H248 C254 0.949 . S
C249 H244 0.950 . S
C249 C251 1.327 . S
C249 C255 1.429 . S
C250 C242 1.574 . S
C250 H245 0.949 . S
C250 C256 1.368 . S
C251 C235 1.349 . S
C251 H243 0.950 . S
C251 C249 1.327 . S
C252 C240 1.349 . S
C252 H246 0.950 . S
C252 C253 1.327 . S
C253 H247 0.950 . S
C253 C252 1.327 . S
C253 C257 1.429 . S
C254 C237 1.574 . S
C254 H248 0.949 . S
C254 C258 1.368 . S
C255 C236 1.429 . S
C255 C249 1.429 . S
C255 C256 1.523 . S
C256 C237 1.368 . S
C256 C250 1.368 . S
C256 C255 1.523 . S
C257 C241 1.429 . S
C257 C253 1.429 . S
C257 C258 1.523 . S
C258 C242 1.368 . S
C258 C254 1.368 . S
C258 C257 1.523 . S
H259 C234 0.950 . S
H260 C236 0.950 . S
H261 C237 0.949 . S
H262 C239 0.950 . S
H263 C241 0.950 . S
C264 C265 1.349 . S
C264 C266 1.327 . S
C264 H289 0.950 1_545 S
C265 C264 1.349 . S
C265 C281 1.349 . S
C266 C264 1.327 . S
C266 C285 1.429 . S
C266 H290 0.950 1_545 S
C267 C284 1.574 . S
C267 C286 1.368 . S
C267 H291 0.949 . S
H268 C272 0.949 1_565 S
C269 C270 1.349 . S
C269 C271 1.327 . S
C269 H292 0.950 . S
C270 C269 1.349 . S
C270 C282 1.349 . S
C271 C269 1.327 . S
C271 C287 1.429 . S
C271 H293 0.950 . S
C272 H268 0.949 1_545 S
C272 C280 1.574 . S
C272 C288 1.368 . S
H273 C281 0.950 . S
H274 C279 0.950 . S
H275 C280 0.949 1_565 S
H276 C282 0.950 1_565 S
H277 C283 0.950 1_565 S
H278 C284 0.949 . S
C279 H274 0.950 . S
C279 C281 1.327 . S
C279 C285 1.429 . S
C280 C272 1.574 . S
C280 H275 0.949 1_545 S
C280 C286 1.368 . S
C281 C265 1.349 . S
C281 H273 0.950 . S
C281 C279 1.327 . S
C282 C270 1.349 . S
C282 H276 0.950 1_545 S
C282 C283 1.327 . S
C283 H277 0.950 1_545 S
C283 C282 1.327 . S
C283 C287 1.429 . S
C284 C267 1.574 . S
C284 H278 0.949 . S
C284 C288 1.368 . S
C285 C266 1.429 . S
C285 C279 1.429 . S
C285 C286 1.523 . S
C286 C267 1.368 . S
C286 C280 1.368 . S
C286 C285 1.523 . S
C287 C271 1.429 . S
C287 C283 1.429 . S
C287 C288 1.523 . S
C288 C272 1.368 . S
C288 C284 1.368 . S
C288 C287 1.523 . S
H289 C264 0.950 1_565 S
H290 C266 0.950 1_565 S
H291 C267 0.949 . S
H292 C269 0.950 . S
H293 C271 0.950 . S
C294 C295 1.349 . S
C294 C296 1.327 . S
C294 H319 0.950 . S
C295 C294 1.349 . S
C295 C311 1.349 . S
C296 C294 1.327 . S
C296 C315 1.429 . S
C296 H320 0.950 . S
C297 C314 1.574 . S
C297 C316 1.368 1_556 S
C297 H321 0.949 . S
H298 C302 0.949 . S
C299 C300 1.349 . S
C299 C301 1.327 . S
C299 H322 0.950 . S
C300 C299 1.349 . S
C300 C312 1.349 . S
C301 C299 1.327 . S
C301 C317 1.429 . S
C301 H323 0.950 . S
C302 H298 0.949 . S
C302 C310 1.574 1_556 S
C302 C318 1.368 . S
H303 C311 0.950 1_455 S
H304 C309 0.950 . S
H305 C310 0.949 . S
H306 C312 0.950 . S
H307 C313 0.950 . S
H308 C314 0.949 . S
C309 H304 0.950 . S
C309 C311 1.327 . S
C309 C315 1.429 . S
C310 C302 1.574 1_554 S
C310 H305 0.949 . S
C310 C316 1.368 . S
C311 C295 1.349 . S
C311 H303 0.950 1_655 S
C311 C309 1.327 . S
C312 C300 1.349 . S
C312 H306 0.950 . S
C312 C313 1.327 . S
C313 H307 0.950 . S
C313 C312 1.327 . S
C313 C317 1.429 . S
C314 C297 1.574 . S
C314 H308 0.949 . S
C314 C318 1.368 . S
C315 C296 1.429 . S
C315 C309 1.429 . S
C315 C316 1.523 . S
C316 C297 1.368 1_554 S
C316 C310 1.368 . S
C316 C315 1.523 . S
C317 C301 1.429 . S
C317 C313 1.429 . S
C317 C318 1.523 . S
C318 C302 1.368 . S
C318 C314 1.368 . S
C318 C317 1.523 . S
H319 C294 0.950 . S
H320 C296 0.950 . S
H321 C297 0.949 . S
H322 C299 0.950 . S
H323 C301 0.950 . S
C324 C325 1.349 . S
C324 C326 1.327 . S
C324 H349 0.950 1_565 S
C325 C324 1.349 . S
C325 C341 1.349 1_455 S
C326 C324 1.327 . S
C326 C345 1.429 . S
C326 H350 0.950 . S
C327 C344 1.574 . S
C327 C346 1.368 1_655 S
C327 H351 0.949 . S
H328 C332 0.949 . S
C329 C330 1.349 . S
C329 C331 1.328 1_455 S
C329 H352 0.950 1_455 S
C330 C329 1.349 . S
C330 C342 1.349 . S
C331 C329 1.328 1_655 S
C331 C347 1.429 1_655 S
C331 H353 0.948 . S
C332 H328 0.949 . S
C332 C340 1.574 . S
C332 C348 1.368 . S
H333 C341 0.950 . S
H334 C339 0.950 . S
H335 C340 0.949 . S
H336 C342 0.950 . S
H337 C343 0.950 . S
H338 C344 0.949 . S
C339 H334 0.950 . S
C339 C341 1.327 . S
C339 C345 1.429 1_655 S
C340 C332 1.574 . S
C340 H335 0.949 . S
C340 C346 1.368 . S
C341 C325 1.349 1_655 S
C341 H333 0.950 . S
C341 C339 1.327 . S
C342 C330 1.349 . S
C342 H336 0.950 . S
C342 C343 1.327 . S
C343 H337 0.950 . S
C343 C342 1.327 . S
C343 C347 1.429 . S
C344 C327 1.574 . S
C344 H338 0.949 . S
C344 C348 1.368 1_655 S
C345 C326 1.429 . S
C345 C339 1.429 1_455 S
C345 C346 1.523 . S
C346 C327 1.368 1_455 S
C346 C340 1.368 . S
C346 C345 1.523 . S
C347 C331 1.429 1_455 S
C347 C343 1.429 . S
C347 C348 1.523 . S
C348 C332 1.368 . S
C348 C344 1.368 1_455 S
C348 C347 1.523 . S
H349 C324 0.950 1_545 S
H350 C326 0.950 . S
H351 C327 0.949 . S
H352 C329 0.950 1_655 S
H353 C331 0.948 . S
C354 C355 1.349 1_565 S
C354 C356 1.327 . S
C354 H379 0.950 . S
C355 C354 1.349 1_545 S
C355 C371 1.349 . S
C356 C354 1.327 . S
C356 C375 1.429 1_565 S
C356 H380 0.950 . S
C357 C374 1.574 . S
C357 C376 1.368 . S
C357 H381 0.949 . S
H358 C362 0.949 . S
C359 C360 1.349 . S
C359 C361 1.327 . S
C359 H382 0.950 . S
C360 C359 1.349 . S
C360 C372 1.349 . S
C361 C359 1.327 . S
C361 C377 1.429 . S
C361 H383 0.950 . S
C362 H358 0.949 . S
C362 C370 1.574 . S
C362 C378 1.368 1_565 S
H363 C371 0.950 . S
H364 C369 0.950 . S
H365 C370 0.949 . S
H366 C372 0.949 1_565 S
H367 C373 0.950 . S
H368 C374 0.949 . S
C369 H364 0.950 . S
C369 C371 1.327 . S
C369 C375 1.429 . S
C370 C362 1.574 . S
C370 H365 0.949 . S
C370 C376 1.368 1_565 S
C371 C355 1.349 . S
C371 H363 0.950 . S
C371 C369 1.327 . S
C372 C360 1.349 . S
C372 H366 0.949 1_545 S
C372 C373 1.327 1_545 S
C373 H367 0.950 . S
C373 C372 1.327 1_565 S
C373 C377 1.429 1_565 S
C374 C357 1.574 . S
C374 H368 0.949 . S
C374 C378 1.368 . S
C375 C356 1.429 1_545 S
C375 C369 1.429 . S
C375 C376 1.523 . S
C376 C357 1.368 . S
C376 C370 1.368 1_545 S
C376 C375 1.523 . S
C377 C361 1.429 . S
C377 C373 1.429 1_545 S
C377 C378 1.523 . S
C378 C362 1.368 1_545 S
C378 C374 1.368 . S
C378 C377 1.523 . S
H379 C354 0.950 . S
H380 C356 0.950 . S
H381 C357 0.949 . S
H382 C359 0.950 . S
H383 C361 0.950 . S
C384 C385 1.349 . S
C384 C386 1.327 . S
C384 H409 0.950 . S
C385 C384 1.349 . S
C385 C401 1.349 . S
C386 C384 1.327 . S
C386 C405 1.429 . S
C386 H410 0.950 . S
C387 C404 1.574 . S
C387 C406 1.368 1_556 S
C387 H411 0.949 . S
H388 C392 0.945 1_554 S
C389 C390 1.349 . S
C389 C391 1.327 . S
C389 H412 0.950 . S
C390 C389 1.349 . S
C390 C402 1.349 . S
C391 C389 1.327 . S
C391 C407 1.429 . S
C391 H413 0.950 . S
C392 H388 0.945 1_556 S
C392 C400 1.560 1_556 S
C392 C408 1.386 . S
H393 C401 0.950 . S
H394 C399 0.948 1_556 S
H395 C400 0.949 . S
H396 C402 0.950 . S
H397 C403 0.950 . S
H398 C404 0.949 . S
C399 H394 0.948 1_554 S
C399 C401 1.327 . S
C399 C405 1.429 . S
C400 C392 1.560 1_554 S
C400 H395 0.949 . S
C400 C406 1.368 . S
C401 C385 1.349 . S
C401 H393 0.950 . S
C401 C399 1.327 . S
C402 C390 1.349 . S
C402 H396 0.950 . S
C402 C403 1.327 . S
C403 H397 0.950 . S
C403 C402 1.327 . S
C403 C407 1.429 . S
C404 C387 1.574 . S
C404 H398 0.949 . S
C404 C408 1.368 . S
C405 C386 1.429 . S
C405 C399 1.429 . S
C405 C406 1.523 . S
C406 C387 1.368 1_554 S
C406 C400 1.368 . S
C406 C405 1.523 . S
C407 C391 1.429 . S
C407 C403 1.429 . S
C407 C408 1.523 . S
C408 C392 1.386 . S
C408 C404 1.368 . S
C408 C407 1.523 . S
H409 C384 0.950 . S
H410 C386 0.950 . S
H411 C387 0.949 . S
H412 C389 0.950 . S
H413 C391 0.950 . S
C414 C415 1.349 . S
C414 C416 1.327 . S
C414 H439 0.950 1_455 S
C415 C414 1.349 . S
C415 C431 1.349 . S
C416 C414 1.327 . S
C416 C435 1.429 . S
C416 H440 0.950 1_455 S
C417 C434 1.574 . S
C417 C436 1.368 . S
C417 H441 0.949 . S
H418 C422 0.949 1_655 S
C419 C420 1.349 . S
C419 C421 1.327 . S
C419 H442 0.950 . S
C420 C419 1.349 . S
C420 C432 1.349 . S
C421 C419 1.327 . S
C421 C437 1.429 . S
C421 H443 0.950 . S
C422 H418 0.949 1_455 S
C422 C430 1.574 . S
C422 C438 1.368 . S
H423 C431 0.950 . S
H424 C429 0.950 . S
H425 C430 0.949 1_655 S
H426 C432 0.950 1_655 S
H427 C433 0.950 1_655 S
H428 C434 0.949 . S
C429 H424 0.950 . S
C429 C431 1.327 . S
C429 C435 1.429 . S
C430 C422 1.574 . S
C430 H425 0.949 1_455 S
C430 C436 1.368 . S
C431 C415 1.349 . S
C431 H423 0.950 . S
C431 C429 1.327 . S
C432 C420 1.349 . S
C432 H426 0.950 1_455 S
C432 C433 1.327 . S
C433 H427 0.950 1_455 S
C433 C432 1.327 . S
C433 C437 1.429 . S
C434 C417 1.574 . S
C434 H428 0.949 . S
C434 C438 1.368 . S
C435 C416 1.429 . S
C435 C429 1.429 . S
C435 C436 1.523 . S
C436 C417 1.368 . S
C436 C430 1.368 . S
C436 C435 1.523 . S
C437 C421 1.429 . S
C437 C433 1.429 . S
C437 C438 1.523 . S
C438 C422 1.368 . S
C438 C434 1.368 . S
C438 C437 1.523 . S
H439 C414 0.950 1_655 S
H440 C416 0.950 1_655 S
H441 C417 0.949 . S
H442 C419 0.950 . S
H443 C421 0.950 . S
C90 C43 1.289 . S
C85 C11 1.274 . S
C115 C25 1.341 . S
C120 C69 1.359 . S
C145 C41 1.327 . S
C150 C71 1.388 . S
C175 C7 1.332 1_565 S
C180 C55 1.332 . S
C210 C57 1.396 . S
C205 C21 1.395 . S
C235 C36 1.355 . S
C240 C83 1.414 . S
C270 C56 1.353 . S
C265 C39 1.337 . S
C295 C8 1.353 1_665 S
C300 C82 1.411 . S
C330 C42 1.475 . S
C325 C22 1.412 1_565 S
C360 C68 1.390 . S
C355 C35 1.389 . S
C390 C70 1.384 . S
C385 C13 1.321 . S
C415 C27 1.371 . S
C420 C54 1.430 . S
