# Generated by pormake.
# Topology cml, (3,6)-cn, num edge types: 1
# Building blocks:
#     Node 0, Type 0, BuildingBlock: WUSLED_clean_sbu_0, # of connection points: 3
#     Node 1, Type 0, BuildingBlock: WUSLED_clean_sbu_0, # of connection points: 3
#     Node 2, Type 0, BuildingBlock: WUSLED_clean_sbu_0, # of connection points: 3
#     Node 3, Type 0, BuildingBlock: WUSLED_clean_sbu_0, # of connection points: 3
#     Node 4, Type 0, BuildingBlock: WUSLED_clean_sbu_0, # of connection points: 3
#     Node 5, Type 0, BuildingBlock: WUSLED_clean_sbu_0, # of connection points: 3
#     Node 6, Type 0, BuildingBlock: WUSLED_clean_sbu_0, # of connection points: 3
#     Node 7, Type 0, BuildingBlock: WUSLED_clean_sbu_0, # of connection points: 3
#     Node 8, Type 1, BuildingBlock: IZENUY_clean_sbu_0, # of connection points: 6
#     Node 9, Type 1, BuildingBlock: IZENUY_clean_sbu_0, # of connection points: 6
#     Node 10, Type 1, BuildingBlock: IZENUY_clean_sbu_0, # of connection points: 6
#     Node 11, Type 1, BuildingBlock: IZENUY_clean_sbu_0, # of connection points: 6
#     Edge 12, Type (0, 1), BuildingBlock: XUDNAN_clean_linker_2, # of connection points: 2
#     Edge 13, Type (0, 1), BuildingBlock: XUDNAN_clean_linker_2, # of connection points: 2
#     Edge 14, Type (0, 1), BuildingBlock: XUDNAN_clean_linker_2, # of connection points: 2
#     Edge 15, Type (0, 1), BuildingBlock: XUDNAN_clean_linker_2, # of connection points: 2
#     Edge 16, Type (0, 1), BuildingBlock: XUDNAN_clean_linker_2, # of connection points: 2
#     Edge 17, Type (0, 1), BuildingBlock: XUDNAN_clean_linker_2, # of connection points: 2
#     Edge 18, Type (0, 1), BuildingBlock: XUDNAN_clean_linker_2, # of connection points: 2
#     Edge 19, Type (0, 1), BuildingBlock: XUDNAN_clean_linker_2, # of connection points: 2
#     Edge 20, Type (0, 1), BuildingBlock: XUDNAN_clean_linker_2, # of connection points: 2
#     Edge 21, Type (0, 1), BuildingBlock: XUDNAN_clean_linker_2, # of connection points: 2
#     Edge 22, Type (0, 1), BuildingBlock: XUDNAN_clean_linker_2, # of connection points: 2
#     Edge 23, Type (0, 1), BuildingBlock: XUDNAN_clean_linker_2, # of connection points: 2
#     Edge 24, Type (0, 1), BuildingBlock: XUDNAN_clean_linker_2, # of connection points: 2
#     Edge 25, Type (0, 1), BuildingBlock: XUDNAN_clean_linker_2, # of connection points: 2
#     Edge 26, Type (0, 1), BuildingBlock: XUDNAN_clean_linker_2, # of connection points: 2
#     Edge 27, Type (0, 1), BuildingBlock: XUDNAN_clean_linker_2, # of connection points: 2
#     Edge 28, Type (0, 1), BuildingBlock: XUDNAN_clean_linker_2, # of connection points: 2
#     Edge 29, Type (0, 1), BuildingBlock: XUDNAN_clean_linker_2, # of connection points: 2
#     Edge 30, Type (0, 1), BuildingBlock: XUDNAN_clean_linker_2, # of connection points: 2
#     Edge 31, Type (0, 1), BuildingBlock: XUDNAN_clean_linker_2, # of connection points: 2
#     Edge 32, Type (0, 1), BuildingBlock: XUDNAN_clean_linker_2, # of connection points: 2
#     Edge 33, Type (0, 1), BuildingBlock: XUDNAN_clean_linker_2, # of connection points: 2
#     Edge 34, Type (0, 1), BuildingBlock: XUDNAN_clean_linker_2, # of connection points: 2
#     Edge 35, Type (0, 1), BuildingBlock: XUDNAN_clean_linker_2, # of connection points: 2
# Relax obj value: 0.051
# Max RMSD: 0.068
# Mean RMSD: 0.065
data_MOF--net-cml--node1-WUSLED_clean_sbu_0--node2-IZENUY_clean_sbu_0--edge1-XUDNAN_clean_linker_2
_symmetry_space_group_name_H-M    P1
_symmetry_Int_Tables_number       1
_symmetry_cell_setting            triclinic
loop_
_symmetry_equiv_pos_as_xyz
'x, y, z'
_cell_length_a     45.463695
_cell_length_b     52.83537
_cell_length_c     48.887191
_cell_angle_alpha  90.457614
_cell_angle_beta   90.139593
_cell_angle_gamma 90.070422
loop_
_atom_site_label
_atom_site_type_symbol
_atom_site_fract_x
_atom_site_fract_y
_atom_site_fract_z
_atom_type_partial_charge
C0 C 0.31771 0.43515 0.9546 0.0
C1 C 0.34598 0.44278 0.96297 0.0
C2 C 0.34309 0.47983 0.9336 0.0
C3 C 0.35857 0.46492 0.95254 0.0
C4 C 0.31431 0.47256 0.92622 0.0
C5 C 0.30182 0.45042 0.93656 0.0
U6 U 0.31097 0.38106 1.00585 0.0
O7 O 0.27214 0.3598 0.01949 0.0
O8 O 0.30822 0.33989 0.99864 0.0
C9 C 0.28166 0.3383 1.00905 0.0
C10 C 0.30486 0.41096 0.96359 0.0
C11 C 0.26021 0.32273 0.99363 0.0
C12 C 0.21519 0.3177 0.96688 0.0
C13 C 0.23689 0.33335 0.97863 0.0
C14 C 0.24062 0.28081 0.98401 0.0
C15 C 0.21644 0.29127 0.97014 0.0
C16 C 0.26221 0.29636 0.99561 0.0
C17 C 0.35835 0.38409 0.07151 0.0
C18 C 0.35058 0.36246 0.11471 0.0
C19 C 0.39764 0.38195 0.10516 0.0
C20 C 0.38722 0.38963 0.07964 0.0
C21 C 0.37934 0.36862 0.12324 0.0
C22 C 0.34016 0.37013 0.08904 0.0
C23 C 0.34765 0.394 0.04517 0.0
O24 O 0.3229 0.39153 0.96392 0.0
O25 O 0.28772 0.41216 0.98517 0.0
O26 O 0.32005 0.40138 0.04437 0.0
O27 O 0.3558 0.38144 0.02316 0.0
H28 H 0.35857 0.43132 0.97705 0.0
H29 H 0.38082 0.46982 0.95853 0.0
H30 H 0.30152 0.48382 0.91212 0.0
H31 H 0.27989 0.44498 0.93005 0.0
H32 H 0.19677 0.32629 0.95639 0.0
H33 H 0.23497 0.3537 0.97673 0.0
H34 H 0.24244 0.26051 0.98653 0.0
H35 H 0.28006 0.28776 1.00694 0.0
H36 H 0.33585 0.35234 0.12814 0.0
H37 H 0.42009 0.38657 0.11076 0.0
H38 H 0.40165 0.40025 0.06635 0.0
H39 H 0.31779 0.36554 0.08313 0.0
C40 C 0.70603 0.67451 0.58752 0.0
C41 C 0.68958 0.65257 0.59253 0.0
C42 C 0.67797 0.66778 0.63845 0.0
C43 C 0.67573 0.64923 0.61772 0.0
C44 C 0.69388 0.69006 0.6331 0.0
C45 C 0.7079 0.69335 0.60783 0.0
U46 U 0.72038 0.65035 0.51595 0.0
O47 O 0.72563 0.67025 0.47675 0.0
O48 O 0.76112 0.64615 0.49222 0.0
C49 C 0.75293 0.6626 0.47365 0.0
C50 C 0.7214 0.67744 0.56124 0.0
C51 C 0.77462 0.68245 0.46701 0.0
C52 C 0.81224 0.71275 0.48081 0.0
C53 C 0.79152 0.69421 0.48753 0.0
C54 C 0.79933 0.70826 0.43295 0.0
C55 C 0.81635 0.72016 0.45343 0.0
C56 C 0.77871 0.6896 0.43969 0.0
C57 C 0.67624 0.58964 0.49657 0.0
C58 C 0.68503 0.55963 0.45952 0.0
C59 C 0.63928 0.5581 0.48474 0.0
C60 C 0.64866 0.57851 0.50089 0.0
C61 C 0.65735 0.5483 0.46389 0.0
C62 C 0.69439 0.58015 0.47572 0.0
C63 C 0.68558 0.61055 0.51473 0.0
O64 O 0.74075 0.65968 0.55564 0.0
O65 O 0.70442 0.6828 0.54029 0.0
O66 O 0.6769 0.63334 0.50783 0.0
O67 O 0.71286 0.60991 0.52366 0.0
H68 H 0.68766 0.63791 0.577 0.0
H69 H 0.66322 0.63205 0.62098 0.0
H70 H 0.69612 0.70464 0.64867 0.0
H71 H 0.72044 0.71045 0.60427 0.0
H72 H 0.82523 0.72112 0.49713 0.0
H73 H 0.78879 0.68899 0.50876 0.0
H74 H 0.80155 0.71364 0.41173 0.0
H75 H 0.76584 0.68077 0.42355 0.0
H76 H 0.69962 0.55246 0.4438 0.0
H77 H 0.61765 0.55023 0.48838 0.0
H78 H 0.63433 0.58561 0.51688 0.0
H79 H 0.71581 0.58845 0.47209 0.0
C80 C 0.70729 0.43342 0.95626 0.0
C81 C 0.67651 0.43586 0.95788 0.0
C82 C 0.67889 0.47729 0.93623 0.0
C83 C 0.66247 0.45754 0.94792 0.0
C84 C 0.70975 0.47505 0.9355 0.0
C85 C 0.72372 0.45335 0.94526 0.0
U86 U 0.72303 0.38289 1.00996 0.0
O87 O 0.72911 0.34173 1.00589 0.0
O88 O 0.76483 0.36523 0.02249 0.0
C89 C 0.75669 0.3426 0.01403 0.0
C90 C 0.7227 0.41029 0.96543 0.0
C91 C 0.77812 0.32884 0.99678 0.0
C92 C 0.79771 0.31693 0.95223 0.0
C93 C 0.77722 0.33026 0.96814 0.0
C94 C 0.82035 0.30069 0.99336 0.0
C95 C 0.81968 0.30204 0.96461 0.0
C96 C 0.79979 0.31395 1.00923 0.0
C97 C 0.68024 0.39 0.07822 0.0
C98 C 0.68963 0.36867 0.12126 0.0
C99 C 0.64537 0.3936 0.11559 0.0
C100 C 0.65385 0.39939 0.08893 0.0
C101 C 0.6632 0.37829 0.13218 0.0
C102 C 0.6981 0.37449 0.09447 0.0
C103 C 0.68869 0.3973 0.05035 0.0
O104 O 0.742 0.41354 0.98523 0.0
O105 O 0.70655 0.38983 0.96836 0.0
O106 O 0.67995 0.38215 0.03049 0.0
O107 O 0.71573 0.4056 0.04719 0.0
H108 H 0.66322 0.42088 0.96645 0.0
H109 H 0.63869 0.45846 0.94864 0.0
H110 H 0.72321 0.49006 0.9272 0.0
H111 H 0.74747 0.45204 0.944 0.0
H112 H 0.79617 0.31819 0.93018 0.0
H113 H 0.76067 0.34163 0.95807 0.0
H114 H 0.83714 0.2898 1.00369 0.0
H115 H 0.8009 0.31266 0.03132 0.0
H116 H 0.70396 0.35695 0.13353 0.0
H117 H 0.62462 0.4009 0.12306 0.0
H118 H 0.63975 0.41133 0.07664 0.0
H119 H 0.7186 0.36707 0.08652 0.0
C120 C 0.33118 0.67749 0.57926 0.0
C121 C 0.33982 0.65345 0.58828 0.0
C122 C 0.35955 0.67186 0.63036 0.0
C123 C 0.3537 0.65066 0.61362 0.0
C124 C 0.35193 0.69603 0.62083 0.0
C125 C 0.33771 0.6988 0.59552 0.0
U126 U 0.31309 0.65428 0.50737 0.0
O127 O 0.27049 0.65006 0.48617 0.0
O128 O 0.30469 0.67458 0.46902 0.0
C129 C 0.2772 0.66685 0.46748 0.0
C130 C 0.3148 0.68035 0.55333 0.0
C131 C 0.25466 0.6864 0.46225 0.0
C132 C 0.2379 0.73012 0.46343 0.0
C133 C 0.25952 0.71199 0.46885 0.0
C134 C 0.20608 0.69744 0.4449 0.0
C135 C 0.21078 0.7231 0.45154 0.0
C136 C 0.22781 0.67933 0.45016 0.0
C137 C 0.35637 0.59483 0.48324 0.0
C138 C 0.34486 0.56474 0.44677 0.0
C139 C 0.39317 0.56472 0.4678 0.0
C140 C 0.38479 0.58476 0.48482 0.0
C141 C 0.37322 0.55419 0.44881 0.0
C142 C 0.33647 0.58491 0.4639 0.0
C143 C 0.34814 0.61498 0.50276 0.0
O144 O 0.33064 0.68623 0.53184 0.0
O145 O 0.29518 0.66263 0.54814 0.0
O146 O 0.32163 0.61374 0.51334 0.0
O147 O 0.3561 0.63808 0.49628 0.0
H148 H 0.33539 0.63675 0.57592 0.0
H149 H 0.35969 0.63184 0.62024 0.0
H150 H 0.35607 0.71269 0.63333 0.0
H151 H 0.33136 0.71753 0.58886 0.0
H152 H 0.24259 0.74972 0.46842 0.0
H153 H 0.28003 0.71802 0.47816 0.0
H154 H 0.1854 0.69122 0.43608 0.0
H155 H 0.22357 0.6597 0.4449 0.0
H156 H 0.32896 0.55702 0.43244 0.0
H157 H 0.41536 0.55745 0.46953 0.0
H158 H 0.4005 0.59225 0.49951 0.0
H159 H 0.31441 0.59248 0.46232 0.0
C160 C 0.84511 0.935 0.99702 0.0
C161 C 0.84717 0.95979 1.00731 0.0
C162 C 0.8633 0.97507 0.96287 0.0
C163 C 0.85607 0.97961 0.99045 0.0
C164 C 0.86034 0.95028 0.95237 0.0
C165 C 0.85132 0.93043 0.96927 0.0
U166 U 0.80663 0.87296 0.01989 0.0
O167 O 0.79973 0.85231 0.98099 0.0
O168 O 0.76409 0.87513 0.99853 0.0
C169 C 0.77206 0.85931 0.97904 0.0
C170 C 0.83863 0.91427 0.01621 0.0
C171 C 0.75065 0.8393 0.97186 0.0
C172 C 0.72119 0.81784 0.93703 0.0
C173 C 0.74201 0.83622 0.94447 0.0
C174 C 0.71725 0.80534 0.98442 0.0
C175 C 0.70852 0.80211 0.95689 0.0
C176 C 0.73813 0.82373 0.99182 0.0
C177 C 0.82669 0.85058 0.0911 0.0
C178 C 0.84715 0.8337 0.1333 0.0
C179 C 0.85076 0.87854 0.12401 0.0
C180 C 0.83638 0.87481 0.09897 0.0
C181 C 0.85601 0.8581 0.14165 0.0
C182 C 0.8325 0.83001 0.10828 0.0
C183 C 0.81022 0.84682 0.06528 0.0
O184 O 0.8483 0.89162 1.00951 0.0
O185 O 0.81216 0.914 0.02695 0.0
O186 O 0.82628 0.84184 0.04358 0.0
O187 O 0.78942 0.8635 0.06054 0.0
H188 H 0.84248 0.96376 0.02864 0.0
H189 H 0.85754 0.99849 0.99913 0.0
H190 H 0.86595 0.94601 0.93132 0.0
H191 H 0.84992 0.91147 0.96079 0.0
H192 H 0.71539 0.81571 0.91564 0.0
H193 H 0.75141 0.84808 0.92875 0.0
H194 H 0.70773 0.79383 1.00035 0.0
H195 H 0.74438 0.82589 1.01311 0.0
H196 H 0.85075 0.8176 0.14647 0.0
H197 H 0.8577 0.8975 0.12963 0.0
H198 H 0.83249 0.89093 0.08588 0.0
H199 H 0.82533 0.81114 0.10251 0.0
C200 C 0.18074 0.14423 0.58457 0.0
C201 C 0.15155 0.149 0.59236 0.0
C202 C 0.16539 0.14844 0.64056 0.0
C203 C 0.14396 0.15117 0.61999 0.0
C204 C 0.19483 0.14456 0.63272 0.0
C205 C 0.20244 0.14248 0.60503 0.0
U206 U 0.21856 0.15309 0.51352 0.0
O207 O 0.22588 0.19419 0.51095 0.0
O208 O 0.2616 0.16944 0.52464 0.0
C209 C 0.25384 0.19246 0.51765 0.0
C210 C 0.18708 0.1382 0.55551 0.0
C211 C 0.27478 0.20595 0.49991 0.0
C212 C 0.31767 0.23323 0.49545 0.0
C213 C 0.29704 0.2208 0.51182 0.0
C214 C 0.29373 0.2164 0.45491 0.0
C215 C 0.31646 0.23105 0.46675 0.0
C216 C 0.27318 0.2039 0.47132 0.0
C217 C 0.19772 0.1042 0.45965 0.0
C218 C 0.18513 0.07187 0.42583 0.0
C219 C 0.166 0.06905 0.47191 0.0
C220 C 0.18048 0.09154 0.47897 0.0
C221 C 0.16845 0.05872 0.44536 0.0
C222 C 0.19972 0.09439 0.43297 0.0
C223 C 0.21437 0.12706 0.46761 0.0
O224 O 0.21326 0.1291 0.5497 0.0
O225 O 0.17727 0.15415 0.53712 0.0
O226 O 0.19846 0.14727 0.47287 0.0
O227 O 0.23515 0.12335 0.48587 0.0
H228 H 0.13433 0.15011 0.57706 0.0
H229 H 0.12103 0.15383 0.62523 0.0
H230 H 0.21193 0.14269 0.64802 0.0
H231 H 0.22516 0.13876 0.59975 0.0
H232 H 0.33502 0.244 0.50534 0.0
H233 H 0.29869 0.22254 0.53387 0.0
H234 H 0.29179 0.21456 0.43291 0.0
H235 H 0.25616 0.19253 0.46169 0.0
H236 H 0.18763 0.06437 0.40529 0.0
H237 H 0.15295 0.05967 0.48732 0.0
H238 H 0.17856 0.09888 0.49965 0.0
H239 H 0.21297 0.10392 0.4178 0.0
C240 C 0.20835 0.93287 0.96749 0.0
C241 C 0.17739 0.93337 0.96707 0.0
C242 C 0.17777 0.97809 0.95497 0.0
C243 C 0.1623 0.95569 0.96075 0.0
C244 C 0.20871 0.97753 0.95536 0.0
C245 C 0.2238 0.95516 0.96143 0.0
U246 U 0.22532 0.87854 0.01613 0.0
O247 O 0.23306 0.83793 1.00842 0.0
O248 O 0.26733 0.86103 0.02805 0.0
C249 C 0.26022 0.83881 0.01765 0.0
C250 C 0.22489 0.90955 0.9744 0.0
C251 C 0.28262 0.82638 1.0003 0.0
C252 C 0.31704 0.82671 0.96226 0.0
C253 C 0.29606 0.83908 0.97855 0.0
C254 C 0.31149 0.78884 0.98932 0.0
C255 C 0.32493 0.80133 0.96729 0.0
C256 C 0.29058 0.80125 1.0056 0.0
C257 C 0.1791 0.87955 0.08361 0.0
C258 C 0.13834 0.8735 0.11505 0.0
C259 C 0.18838 0.86855 0.13116 0.0
C260 C 0.19886 0.87396 0.10488 0.0
C261 C 0.15798 0.86875 0.13668 0.0
C262 C 0.1488 0.87887 0.08888 0.0
C263 C 0.18906 0.88859 0.05661 0.0
O264 O 0.24361 0.91166 0.99484 0.0
O265 O 0.20979 0.88831 0.97488 0.0
O266 O 0.18159 0.87485 0.03517 0.0
O267 O 0.21582 0.89795 0.05506 0.0
H268 H 0.16476 0.91658 0.97179 0.0
H269 H 0.13848 0.95554 0.9609 0.0
H270 H 0.22131 0.99436 0.9507 0.0
H271 H 0.24763 0.95529 0.96149 0.0
H272 H 0.32717 0.83711 0.94577 0.0
H273 H 0.29029 0.85851 0.97413 0.0
H274 H 0.3166 0.76926 0.99363 0.0
H275 H 0.28041 0.79109 0.02227 0.0
H276 H 0.1148 0.87334 0.11841 0.0
H277 H 0.20412 0.86511 0.14736 0.0
H278 H 0.22238 0.87444 0.10142 0.0
H279 H 0.13313 0.88319 0.07284 0.0
C280 C 0.83586 0.18321 0.59008 0.0
C281 C 0.85391 0.16187 0.59272 0.0
C282 C 0.8657 0.17386 0.63972 0.0
C283 C 0.86869 0.15725 0.61725 0.0
C284 C 0.84827 0.19568 0.63674 0.0
C285 C 0.83336 0.20025 0.6121 0.0
U286 U 0.81422 0.1588 0.5204 0.0
O287 O 0.77144 0.15546 0.49976 0.0
O288 O 0.8066 0.17787 0.48098 0.0
C289 C 0.77878 0.17105 0.48008 0.0
C290 C 0.81879 0.18686 0.56478 0.0
C291 C 0.75731 0.19114 0.47366 0.0
C292 C 0.71591 0.21791 0.48627 0.0
C293 C 0.73724 0.20002 0.4933 0.0
C294 C 0.73478 0.21886 0.44002 0.0
C295 C 0.71431 0.22755 0.4595 0.0
C296 C 0.75598 0.20081 0.44704 0.0
C297 C 0.85038 0.09452 0.50069 0.0
C298 C 0.86454 0.07472 0.45753 0.0
C299 C 0.85633 0.04889 0.49749 0.0
C300 C 0.8496 0.07055 0.51274 0.0
C301 C 0.8641 0.05068 0.46975 0.0
C302 C 0.85766 0.09647 0.47285 0.0
C303 C 0.84523 0.11691 0.51828 0.0
O304 O 0.83449 0.1908 0.54266 0.0
O305 O 0.79761 0.17027 0.56086 0.0
O306 O 0.81921 0.11837 0.52982 0.0
O307 O 0.85513 0.13886 0.50969 0.0
H308 H 0.85618 0.14852 0.57591 0.0
H309 H 0.88231 0.14051 0.6187 0.0
H310 H 0.84541 0.20875 0.6537 0.0
H311 H 0.81947 0.21681 0.61042 0.0
H312 H 0.7003 0.22379 0.50175 0.0
H313 H 0.73772 0.19286 0.514 0.0
H314 H 0.73457 0.22609 0.41936 0.0
H315 H 0.77124 0.19423 0.43156 0.0
H316 H 0.87023 0.07671 0.43615 0.0
H317 H 0.85628 0.03079 0.50772 0.0
H318 H 0.84433 0.0686 0.53424 0.0
H319 H 0.85843 0.11476 0.46302 0.0
Fe320 Fe 1.01239 0.8416 0.34471 0.0
Fe321 Fe 1.01112 0.8746 0.39667 0.0
O322 O 1.01199 0.872 0.36062 0.0
Fe323 Fe 1.01209 0.89997 0.3407 0.0
O324 O 0.978 0.89087 0.32418 0.0
O325 O 0.99003 0.85134 0.31483 0.0
O326 O 0.97795 0.83228 0.361 0.0
C327 C 0.97311 0.83334 0.38638 0.0
C328 C 0.05043 0.86692 0.31129 0.0
O329 O 0.99017 0.84554 0.40208 0.0
C330 C 0.04979 0.91418 0.38154 0.0
O331 O 0.03514 0.82667 0.37173 0.0
O332 O 0.04569 0.85826 0.39974 0.0
O333 O 0.03405 0.88629 0.31267 0.0
O334 O 0.04657 0.8485 0.32713 0.0
C335 C 0.97228 0.91174 0.3835 0.0
O336 O 0.03219 0.90418 0.39832 0.0
O337 O 0.04632 0.91116 0.35609 0.0
C338 C 0.05115 0.83647 0.39041 0.0
O339 O 0.97627 0.89113 0.39573 0.0
O340 O 0.98985 0.9188 0.36495 0.0
C341 C 0.97368 0.87052 0.31107 0.0
Fe342 Fe 1.01 0.15518 0.89666 0.0
Fe343 Fe 0.0174 0.12604 0.84255 0.0
O344 O 0.01532 0.15512 0.86072 0.0
Fe345 Fe 0.01886 0.18431 0.8431 0.0
O346 O 0.05153 0.19288 0.86305 0.0
O347 O 0.03158 0.18396 0.90271 0.0
O348 O 0.04374 0.13745 0.90218 0.0
C349 C 0.04967 0.11633 0.89125 0.0
C350 C 0.97426 0.19452 0.88229 0.0
O351 O 0.03587 0.10869 0.87019 0.0
C352 C 0.9832 0.15752 0.80795 0.0
O353 O 0.98772 0.12614 0.89732 0.0
O354 O 0.98125 0.11625 0.85407 0.0
O355 O 0.9944 0.20192 0.86631 0.0
O356 O 0.97593 0.17314 0.89361 0.0
C357 C 0.05958 0.15257 0.81512 0.0
O358 O 0.99914 0.13821 0.81189 0.0
O359 O 0.98667 0.17753 0.82197 0.0
C360 C 0.97389 0.11421 0.87878 0.0
O361 O 0.05375 0.13344 0.82939 0.0
O362 O 0.04352 0.17209 0.81639 0.0
C363 C 0.05228 0.19349 0.88891 0.0
Fe364 Fe 0.51822 0.33497 0.33788 0.0
Fe365 Fe 0.51151 0.37012 0.38802 0.0
O366 O 0.51517 0.36599 0.352 0.0
Fe367 Fe 0.51573 0.39273 0.33022 0.0
O368 O 0.49651 0.37697 0.30195 0.0
O369 O 0.48532 0.339 0.31691 0.0
O370 O 0.49475 0.32011 0.36359 0.0
C371 C 0.47531 0.32918 0.37935 0.0
C372 C 0.55762 0.36343 0.30513 0.0
O373 O 0.47763 0.35151 0.38859 0.0
C374 C 0.55017 0.40844 0.37586 0.0
O375 O 0.55145 0.32872 0.35759 0.0
O376 O 0.53404 0.34259 0.39681 0.0
O377 O 0.55142 0.38438 0.31621 0.0
O378 O 0.54215 0.34399 0.3095 0.0
C379 C 0.47389 0.40832 0.3669 0.0
O380 O 0.54494 0.38911 0.39015 0.0
O381 O 0.5353 0.41315 0.35459 0.0
C382 C 0.5535 0.33087 0.38326 0.0
O383 O 0.48873 0.39857 0.386 0.0
O384 O 0.47999 0.40358 0.34223 0.0
C385 C 0.48142 0.35688 0.30025 0.0
Fe386 Fe 0.5109 0.65266 0.88573 0.0
Fe387 Fe 0.51244 0.62856 0.82853 0.0
O388 O 0.5132 0.65593 0.84957 0.0
Fe389 Fe 0.51634 0.68625 0.83419 0.0
O390 O 0.53879 0.70028 0.86217 0.0
O391 O 0.54555 0.66873 0.89062 0.0
O392 O 0.5322 0.62265 0.88662 0.0
C393 C 0.54963 0.61316 0.86898 0.0
C394 C 0.47555 0.69612 0.87453 0.0
O395 O 0.54588 0.61704 0.84381 0.0
C396 C 0.47611 0.65945 0.79961 0.0
O397 O 0.47586 0.63603 0.8838 0.0
O398 O 0.48947 0.60973 0.85133 0.0
O399 O 0.48235 0.69668 0.84956 0.0
O400 O 0.48951 0.68215 0.89115 0.0
C401 C 0.55396 0.65932 0.80166 0.0
O402 O 0.47898 0.63887 0.81221 0.0
O403 O 0.49419 0.67756 0.80349 0.0
C404 C 0.47162 0.61624 0.8698 0.0
O405 O 0.53527 0.64164 0.80133 0.0
O406 O 0.55079 0.67816 0.81732 0.0
C407 C 0.55294 0.69008 0.88163 0.0
H408 H 0.18626 0.28986 0.9206 0.0
H409 H 0.19012 0.25526 1.00078 0.0
H410 H 0.14951 0.22673 0.98794 0.0
H411 H 0.10686 0.28721 0.91308 0.0
H412 H 0.10764 0.27959 0.87709 0.0
H413 H 0.13715 0.2977 0.89228 0.0
H414 H 0.17484 0.2649 0.87429 0.0
H415 H 0.14544 0.24665 0.8591 0.0
H416 H 0.17042 0.23199 0.88286 0.0
H417 H 0.10879 0.20252 0.96768 0.0
H418 H 0.0694 0.18287 0.94046 0.0
H419 H 0.09088 0.23139 0.87199 0.0
C420 C 0.17842 0.2763 0.9354 0.0
C421 C 0.19156 0.27463 0.96165 0.0
C422 C 0.18076 0.25661 0.98045 0.0
C423 C 0.1576 0.24039 0.97339 0.0
C424 C 0.14537 0.24228 0.94738 0.0
C425 C 0.15529 0.25966 0.92857 0.0
C426 C 0.13807 0.25728 0.90191 0.0
C427 C 0.12144 0.28191 0.89573 0.0
C428 C 0.15841 0.24976 0.87814 0.0
C429 C 0.11694 0.23594 0.90887 0.0
C430 C 0.12165 0.22777 0.93531 0.0
C431 C 0.10485 0.20871 0.94694 0.0
C432 C 0.08242 0.19773 0.93128 0.0
C433 C 0.0769 0.20563 0.90411 0.0
C434 C 0.09465 0.22487 0.89264 0.0
H435 H 0.85326 0.72336 0.4084 0.0
H436 H 0.82805 0.76355 0.4826 0.0
H437 H 0.86438 0.7967 0.47255 0.0
H438 H 0.93 0.73701 0.41174 0.0
H439 H 0.93439 0.74144 0.37546 0.0
H440 H 0.90601 0.72077 0.38799 0.0
H441 H 0.86678 0.74628 0.36142 0.0
H442 H 0.89507 0.76702 0.34876 0.0
H443 H 0.864 0.77997 0.36691 0.0
H444 H 0.90432 0.82458 0.45599 0.0
H445 H 0.9451 0.84648 0.43314 0.0
H446 H 0.94386 0.79012 0.36802 0.0
C447 C 0.85509 0.73928 0.42238 0.0
C448 C 0.83784 0.74058 0.44651 0.0
C449 C 0.84132 0.76169 0.46433 0.0
C450 C 0.86176 0.78079 0.45868 0.0
C451 C 0.87851 0.77878 0.43496 0.0
C452 C 0.87534 0.7587 0.41695 0.0
C453 C 0.89646 0.76119 0.39303 0.0
C454 C 0.91799 0.73877 0.39201 0.0
C455 C 0.87956 0.76377 0.36592 0.0
C456 C 0.91216 0.78567 0.40062 0.0
C457 C 0.90136 0.79538 0.42494 0.0
C458 C 0.91285 0.81726 0.43686 0.0
C459 C 0.93612 0.8295 0.42374 0.0
C460 C 0.94771 0.82004 0.39879 0.0
C461 C 0.93529 0.79793 0.38692 0.0
H462 H 0.84435 0.25472 0.97291 0.0
H463 H 0.84672 0.31899 0.91808 0.0
H464 H 0.88438 0.29747 0.89029 0.0
H465 H 0.92198 0.24283 0.97213 0.0
H466 H 0.91829 0.20888 0.97314 0.0
H467 H 0.89033 0.2287 0.98811 0.0
H468 H 0.85081 0.20672 0.95794 0.0
H469 H 0.87867 0.18687 0.94281 0.0
H470 H 0.85536 0.20588 0.92132 0.0
H471 H 0.92295 0.26999 0.86926 0.0
H472 H 0.96036 0.23846 0.85644 0.0
H473 H 0.9342 0.19176 0.92496 0.0
C474 C 0.8528 0.26434 0.9551 0.0
C475 C 0.84222 0.28859 0.94767 0.0
C476 C 0.85386 0.30028 0.92402 0.0
C477 C 0.87546 0.28825 0.90814 0.0
C478 C 0.88536 0.26447 0.91608 0.0
C479 C 0.87447 0.2526 0.93899 0.0
C480 C 0.88951 0.22725 0.9433 0.0
C481 C 0.90601 0.22691 0.9708 0.0
C482 C 0.86725 0.20539 0.94121 0.0
C483 C 0.91074 0.22688 0.91937 0.0
C484 C 0.90783 0.24854 0.90392 0.0
C485 C 0.92537 0.25292 0.88115 0.0
C486 C 0.94664 0.23486 0.87407 0.0
C487 C 0.95036 0.21256 0.88966 0.0
C488 C 0.93185 0.20848 0.91249 0.0
H489 H 0.17159 0.72637 0.40808 0.0
H490 H 0.1964 0.7635 0.48437 0.0
H491 H 0.15867 0.79599 0.47656 0.0
H492 H 0.15633 0.78257 0.36996 0.0
H493 H 0.12491 0.76951 0.35224 0.0
H494 H 0.15409 0.74899 0.36344 0.0
H495 H 0.11654 0.72201 0.39032 0.0
H496 H 0.08722 0.74242 0.37915 0.0
H497 H 0.09301 0.73715 0.41515 0.0
H498 H 0.11939 0.82484 0.46058 0.0
H499 H 0.07946 0.84803 0.43809 0.0
H500 H 0.07751 0.79183 0.3727 0.0
C501 C 0.16895 0.74118 0.4233 0.0
C502 C 0.18736 0.7424 0.44676 0.0
C503 C 0.18319 0.76234 0.46594 0.0
C504 C 0.1616 0.78082 0.46181 0.0
C505 C 0.14406 0.77912 0.43848 0.0
C506 C 0.14729 0.75978 0.41959 0.0
C507 C 0.12528 0.76246 0.39632 0.0
C508 C 0.1411 0.76611 0.36887 0.0
C509 C 0.10427 0.73965 0.39518 0.0
C510 C 0.10929 0.7864 0.40512 0.0
C511 C 0.12066 0.79564 0.42947 0.0
C512 C 0.11018 0.81774 0.44158 0.0
C513 C 0.08746 0.83081 0.42853 0.0
C514 C 0.07513 0.82177 0.40359 0.0
C515 C 0.08624 0.79915 0.39181 0.0
H516 H 0.66384 0.80449 0.91825 0.0
H517 H 0.70427 0.75398 0.97705 0.0
H518 H 0.66899 0.72056 0.96407 0.0
H519 H 0.58912 0.78383 0.92823 0.0
H520 H 0.57912 0.78606 0.89263 0.0
H521 H 0.60739 0.80635 0.90656 0.0
H522 H 0.64379 0.79031 0.86965 0.0
H523 H 0.61563 0.76997 0.8556 0.0
H524 H 0.65041 0.75681 0.86606 0.0
H525 H 0.62999 0.6925 0.94491 0.0
H526 H 0.58919 0.67128 0.92106 0.0
H527 H 0.57351 0.73915 0.87354 0.0
C528 C 0.66543 0.78635 0.92829 0.0
C529 C 0.68688 0.78202 0.94887 0.0
C530 C 0.68784 0.75804 0.96163 0.0
C531 C 0.66799 0.73881 0.95424 0.0
C532 C 0.64723 0.74373 0.93397 0.0
C533 C 0.64574 0.76686 0.92113 0.0
C534 C 0.62115 0.76705 0.89997 0.0
C535 C 0.59781 0.78701 0.9073 0.0
C536 C 0.63349 0.77128 0.87111 0.0
C537 C 0.60908 0.74039 0.90298 0.0
C538 C 0.62455 0.72736 0.92273 0.0
C539 C 0.61769 0.70252 0.92942 0.0
C540 C 0.59434 0.69063 0.91569 0.0
C541 C 0.57788 0.70347 0.89535 0.0
C542 C 0.58556 0.72874 0.8889 0.0
H543 H 0.34345 0.27785 0.47342 0.0
H544 H 0.34226 0.2112 0.42079 0.0
H545 H 0.38086 0.23007 0.39223 0.0
H546 H 0.35674 0.32394 0.42002 0.0
H547 H 0.38112 0.34306 0.44072 0.0
H548 H 0.35235 0.32495 0.45666 0.0
H549 H 0.39089 0.303 0.48749 0.0
H550 H 0.41976 0.32106 0.47168 0.0
H551 H 0.42167 0.28698 0.47193 0.0
H552 H 0.42053 0.25493 0.37026 0.0
H553 H 0.45923 0.28442 0.35589 0.0
H554 H 0.43616 0.33546 0.42256 0.0
C555 C 0.35131 0.26719 0.45591 0.0
C556 C 0.33946 0.24304 0.4493 0.0
C557 C 0.35037 0.22989 0.42605 0.0
C558 C 0.3725 0.2404 0.40976 0.0
C559 C 0.38365 0.26411 0.41687 0.0
C560 C 0.37349 0.27742 0.43935 0.0
C561 C 0.38987 0.30238 0.44267 0.0
C562 C 0.36875 0.32492 0.43984 0.0
C563 C 0.40654 0.3034 0.47007 0.0
C564 C 0.41097 0.30087 0.41866 0.0
C565 C 0.40685 0.2786 0.4041 0.0
C566 C 0.42392 0.27245 0.38145 0.0
C567 C 0.44596 0.28937 0.3735 0.0
C568 C 0.45091 0.31231 0.38809 0.0
C569 C 0.4329 0.31818 0.41088 0.0
H570 H 0.36798 0.76654 0.98152 0.0
H571 H 0.32993 0.80486 0.91158 0.0
H572 H 0.36434 0.78243 0.8811 0.0
H573 H 0.44308 0.76657 0.95769 0.0
H574 H 0.4513 0.73549 0.97057 0.0
H575 H 0.42398 0.7548 0.98727 0.0
H576 H 0.3856 0.71891 0.98131 0.0
H577 H 0.4128 0.69948 0.96457 0.0
H578 H 0.37844 0.70612 0.94764 0.0
H579 H 0.40204 0.7558 0.85794 0.0
H580 H 0.44121 0.72685 0.84324 0.0
H581 H 0.45534 0.70451 0.92764 0.0
C582 C 0.36675 0.77014 0.95978 0.0
C583 C 0.34622 0.78773 0.94908 0.0
C584 C 0.34569 0.79195 0.92047 0.0
C585 C 0.36505 0.77912 0.9029 0.0
C586 C 0.38489 0.76199 0.91411 0.0
C587 C 0.38596 0.75743 0.94186 0.0
C588 C 0.40948 0.73792 0.94844 0.0
C589 C 0.43338 0.74939 0.9671 0.0
C590 C 0.39575 0.7142 0.96125 0.0
C591 C 0.42141 0.73225 0.92002 0.0
C592 C 0.4068 0.74641 0.90061 0.0
C593 C 0.41366 0.74464 0.87296 0.0
C594 C 0.43606 0.72806 0.86483 0.0
C595 C 0.45162 0.71329 0.88422 0.0
C596 C 0.44399 0.71546 0.91225 0.0
H597 H 0.68319 0.23145 0.41096 0.0
H598 H 0.69321 0.26672 0.49105 0.0
H599 H 0.65375 0.2968 0.47984 0.0
H600 H 0.66984 0.29024 0.37412 0.0
H601 H 0.64349 0.27598 0.35107 0.0
H602 H 0.67276 0.25716 0.36522 0.0
H603 H 0.63446 0.22546 0.38405 0.0
H604 H 0.60508 0.24422 0.37007 0.0
H605 H 0.60545 0.23684 0.406 0.0
H606 H 0.61214 0.32197 0.46098 0.0
H607 H 0.57213 0.34195 0.43491 0.0
H608 H 0.59022 0.29218 0.36587 0.0
C609 C 0.67745 0.24571 0.42604 0.0
C610 C 0.69131 0.24646 0.45205 0.0
C611 C 0.68265 0.2653 0.47122 0.0
C612 C 0.66036 0.28264 0.46497 0.0
C613 C 0.64704 0.28117 0.43933 0.0
C614 C 0.65536 0.26336 0.42005 0.0
C615 C 0.63731 0.26591 0.39404 0.0
C616 C 0.65703 0.27273 0.36967 0.0
C617 C 0.61952 0.24167 0.38821 0.0
C618 C 0.61734 0.28778 0.40185 0.0
C619 C 0.62335 0.29621 0.42812 0.0
C620 C 0.60734 0.31565 0.44034 0.0
C621 C 0.58456 0.32682 0.42536 0.0
C622 C 0.57799 0.31867 0.39832 0.0
C623 C 0.59482 0.29896 0.3864 0.0
H624 H 0.37995 0.51607 0.95667 0.0
H625 H 0.33951 0.49308 0.8798 0.0
H626 H 0.36446 0.52812 0.8565 0.0
H627 H 0.37801 0.58466 0.94441 0.0
H628 H 0.41339 0.59017 0.9601 0.0
H629 H 0.39059 0.56443 0.97156 0.0
H630 H 0.43304 0.53286 0.96233 0.0
H631 H 0.45597 0.55848 0.95096 0.0
H632 H 0.44956 0.53156 0.92886 0.0
H633 H 0.39702 0.56251 0.84042 0.0
H634 H 0.43492 0.59517 0.83272 0.0
H635 H 0.45386 0.59766 0.91964 0.0
C636 C 0.3762 0.51852 0.93497 0.0
C637 C 0.35742 0.50188 0.92017 0.0
C638 C 0.35318 0.5058 0.89178 0.0
C639 C 0.3674 0.52562 0.87828 0.0
C640 C 0.38577 0.54154 0.8934 0.0
C641 C 0.39018 0.53836 0.92113 0.0
C642 C 0.41215 0.55759 0.93219 0.0
C643 C 0.39766 0.57526 0.95331 0.0
C644 C 0.43928 0.54433 0.94429 0.0
C645 C 0.41982 0.57169 0.90621 0.0
C646 C 0.40423 0.56207 0.88412 0.0
C647 C 0.40897 0.57053 0.85759 0.0
C648 C 0.4305 0.58905 0.8534 0.0
C649 C 0.44678 0.59917 0.87563 0.0
C650 C 0.44105 0.59069 0.90244 0.0
H651 H 0.62612 0.50601 0.47958 0.0
H652 H 0.66434 0.54213 0.40852 0.0
H653 H 0.6448 0.50788 0.3791 0.0
H654 H 0.63747 0.44035 0.4571 0.0
H655 H 0.60282 0.42972 0.47072 0.0
H656 H 0.62192 0.45588 0.48667 0.0
H657 H 0.57567 0.48401 0.481 0.0
H658 H 0.55645 0.45795 0.46513 0.0
H659 H 0.55959 0.48766 0.44752 0.0
H660 H 0.61741 0.47229 0.35685 0.0
H661 H 0.58455 0.43716 0.34323 0.0
H662 H 0.56434 0.4233 0.42848 0.0
C663 C 0.63052 0.50668 0.45785 0.0
C664 C 0.64694 0.52681 0.44643 0.0
C665 C 0.65231 0.52678 0.41788 0.0
C666 C 0.64117 0.50744 0.40096 0.0
C667 C 0.62483 0.48812 0.41285 0.0
C668 C 0.6196 0.4875 0.44065 0.0
C669 C 0.60015 0.4652 0.44804 0.0
C670 C 0.61658 0.44669 0.46674 0.0
C671 C 0.57126 0.47425 0.46119 0.0
C672 C 0.59479 0.45367 0.41996 0.0
C673 C 0.60934 0.46719 0.39999 0.0
C674 C 0.60627 0.46134 0.37232 0.0
C675 C 0.58752 0.4414 0.36479 0.0
C676 C 0.5722 0.42738 0.38482 0.0
C677 C 0.57631 0.43334 0.4128 0.0
H678 H 0.62939 0.50332 0.95418 0.0
H679 H 0.69414 0.50128 0.88897 0.0
H680 H 0.66983 0.53737 0.86705 0.0
H681 H 0.56776 0.51715 0.91121 0.0
H682 H 0.55005 0.53789 0.93553 0.0
H683 H 0.5735 0.51279 0.94737 0.0
H684 H 0.60488 0.54539 0.97449 0.0
H685 H 0.58155 0.57062 0.96265 0.0
H686 H 0.62067 0.57199 0.95689 0.0
H687 H 0.63784 0.5719 0.85071 0.0
H688 H 0.59926 0.60298 0.84038 0.0
H689 H 0.554 0.58347 0.91546 0.0
C690 C 0.63848 0.51047 0.93531 0.0
C691 C 0.66403 0.49951 0.92355 0.0
C692 C 0.67513 0.50959 0.89883 0.0
C693 C 0.66135 0.53005 0.88608 0.0
C694 C 0.63636 0.54035 0.89819 0.0
C695 C 0.62493 0.53098 0.92221 0.0
C696 C 0.59714 0.54517 0.93025 0.0
C697 C 0.57054 0.52718 0.93113 0.0
C698 C 0.60132 0.55912 0.9577 0.0
C699 C 0.59459 0.5637 0.90675 0.0
C700 C 0.61761 0.56055 0.88862 0.0
C701 C 0.61979 0.57465 0.86481 0.0
C702 C 0.59767 0.59222 0.85909 0.0
C703 C 0.57358 0.59569 0.87709 0.0
C704 C 0.57229 0.58146 0.90148 0.0
H705 H 0.40493 0.51286 0.46487 0.0
H706 H 0.36201 0.54546 0.39409 0.0
H707 H 0.37967 0.50967 0.36553 0.0
H708 H 0.46918 0.49309 0.43077 0.0
H709 H 0.47335 0.46452 0.4503 0.0
H710 H 0.45518 0.49152 0.46519 0.0
H711 H 0.40926 0.46392 0.47509 0.0
H712 H 0.4273 0.43682 0.46013 0.0
H713 H 0.39189 0.44668 0.44746 0.0
H714 H 0.40587 0.47154 0.34408 0.0
H715 H 0.43751 0.43496 0.33213 0.0
H716 H 0.46243 0.42811 0.41754 0.0
C717 C 0.39915 0.51251 0.44337 0.0
C718 C 0.38215 0.53205 0.43171 0.0
C719 C 0.37476 0.5306 0.40355 0.0
C720 C 0.38479 0.51038 0.38716 0.0
C721 C 0.40195 0.49166 0.39929 0.0
C722 C 0.4089 0.49255 0.42682 0.0
C723 C 0.42864 0.47082 0.43485 0.0
C724 C 0.45834 0.48058 0.44592 0.0
C725 C 0.41335 0.45354 0.45561 0.0
C726 C 0.43218 0.45771 0.40746 0.0
C727 C 0.41658 0.46985 0.38714 0.0
C728 C 0.4179 0.46175 0.35992 0.0
C729 C 0.43592 0.44094 0.35332 0.0
C730 C 0.4524 0.4285 0.37387 0.0
C731 C 0.44995 0.43691 0.4013 0.0
H732 H 0.90198 1.01271 0.97789 0.0
H733 H 0.85158 0.98447 0.90854 0.0
H734 H 0.87258 0.0182 0.87973 0.0
H735 H 0.89448 0.07964 0.96239 0.0
H736 H 0.93127 0.0871 0.97369 0.0
H737 H 0.91158 0.06117 0.98887 0.0
H738 H 0.95431 0.03077 0.9764 0.0
H739 H 0.97411 0.05659 0.96122 0.0
H740 H 0.96638 0.02847 0.94136 0.0
H741 H 0.90106 0.05422 0.85802 0.0
H742 H 0.93447 0.08922 0.84542 0.0
H743 H 0.96445 0.09443 0.92965 0.0
C744 C 0.89487 1.01382 0.95678 0.0
C745 C 0.87498 0.9959 0.94556 0.0
C746 C 0.86696 0.99778 0.9176 0.0
C747 C 0.87863 0.01699 0.90111 0.0
C748 C 0.89822 0.03428 0.91287 0.0
C749 C 0.90619 0.03288 0.94011 0.0
C750 C 0.92826 0.05327 0.94768 0.0
C751 C 0.91563 0.07137 0.96944 0.0
C752 C 0.95749 0.04157 0.95722 0.0
C753 C 0.93165 0.0663 0.92041 0.0
C754 C 0.91416 0.05511 0.90055 0.0
C755 C 0.91463 0.06325 0.87348 0.0
C756 C 0.93369 0.08314 0.86651 0.0
C757 C 0.95196 0.09474 0.88656 0.0
C758 C 0.9505 0.08629 0.91389 0.0
H759 H 0.138 0.04468 0.39849 0.0
H760 H 0.16759 0.01639 0.47701 0.0
H761 H 0.14342 0.97555 0.46732 0.0
H762 H 0.06765 0.01551 0.39933 0.0
H763 H 0.06686 1.00802 0.36331 0.0
H764 H 0.08791 0.0347 0.37554 0.0
H765 H 0.13459 0.01636 0.35248 0.0
H766 H 0.11366 0.98956 0.34023 0.0
H767 H 0.14628 0.98468 0.36053 0.0
H768 H 0.11375 0.93903 0.451 0.0
H769 H 0.07985 0.90867 0.42886 0.0
H770 H 0.07014 0.95912 0.35985 0.0
C771 C 0.13974 0.02975 0.41345 0.0
C772 C 0.1546 0.03385 0.43862 0.0
C773 C 0.15599 1.01391 0.4578 0.0
C774 C 0.14253 0.99053 0.45238 0.0
C775 C 0.12784 0.98721 0.42759 0.0
C776 C 0.12636 1.00618 0.40836 0.0
C777 C 0.10803 0.99785 0.38384 0.0
C778 C 0.08101 0.01504 0.38031 0.0
C779 C 0.12676 0.99707 0.35772 0.0
C780 C 0.09912 0.9714 0.39254 0.0
C781 C 0.11096 0.96571 0.41784 0.0
C782 C 0.10464 0.94311 0.43105 0.0
C783 C 0.08533 0.92601 0.41834 0.0
C784 C 0.07265 0.93144 0.39257 0.0
C785 C 0.08005 0.95426 0.37928 0.0
H786 H 0.12964 0.98457 0.92143 0.0
H787 H 0.18967 0.02573 0.97472 0.0
H788 H 0.16332 0.0655 0.96468 0.0
H789 H 0.1235 0.03245 0.87024 0.0
H790 H 0.08504 0.02664 0.86363 0.0
H791 H 0.1082 1.00137 0.87552 0.0
H792 H 0.07298 0.994 0.91631 0.0
H793 H 0.0497 0.01925 0.90451 0.0
H794 H 0.06415 0.02005 0.93886 0.0
H795 H 0.12965 0.10086 0.94932 0.0
H796 H 0.09288 0.12915 0.92815 0.0
H797 H 0.05583 0.06502 0.88393 0.0
C798 C 0.13711 1.00192 0.93116 0.0
C799 C 0.16175 1.00201 0.9489 0.0
C800 C 0.17105 0.02521 0.96087 0.0
C801 C 0.15611 0.04788 0.95541 0.0
C802 C 0.13195 0.04713 0.9378 0.0
C803 C 0.12259 0.02476 0.92575 0.0
C804 C 0.09642 0.02918 0.90713 0.0
C805 C 0.10374 0.02199 0.87737 0.0
C806 C 0.0692 0.01477 0.91732 0.0
C807 C 0.09259 0.05753 0.91049 0.0
C808 C 0.11311 0.06752 0.92846 0.0
C809 C 0.11355 0.09324 0.93514 0.0
C810 C 0.09253 0.10916 0.92306 0.0
C811 C 0.07155 0.09937 0.90427 0.0
C812 C 0.07172 0.07317 0.898 0.0
H813 H 0.91011 0.04492 0.43374 0.0
H814 H 0.83816 1.00386 0.47122 0.0
H815 H 0.85592 0.96424 0.45002 0.0
H816 H 0.91133 1.00751 0.3689 0.0
H817 H 0.95088 1.00891 0.36673 0.0
H818 H 0.93086 0.03447 0.38268 0.0
H819 H 0.96223 0.02943 0.42662 0.0
H820 H 0.98217 1.00381 0.4109 0.0
H821 H 0.96382 0.99906 0.4431 0.0
H822 H 0.88457 0.92851 0.42946 0.0
H823 H 0.92089 0.89937 0.40877 0.0
H824 H 0.9729 0.96363 0.38256 0.0
C825 C 0.89761 0.02773 0.43687 0.0
C826 C 0.87276 0.02752 0.45423 0.0
C827 C 0.85744 1.00447 0.45828 0.0
C828 C 0.86725 0.98188 0.44618 0.0
C829 C 0.89223 0.98264 0.42978 0.0
C830 C 0.90703 1.005 0.42482 0.0
C831 C 0.93423 1.00035 0.40761 0.0
C832 C 0.93166 1.01359 0.37983 0.0
C833 C 0.96226 1.00865 0.42298 0.0
C834 C 0.93281 0.97182 0.40432 0.0
C835 C 0.90835 0.962 0.41721 0.0
C836 C 0.9035 0.936 0.41883 0.0
C837 C 0.92427 0.9196 0.40713 0.0
C838 C 0.94946 0.92926 0.3938 0.0
C839 C 0.95349 0.95573 0.39207 0.0
H840 H 0.4127 0.39795 0.15781 0.0
H841 H 0.37046 0.32443 0.15187 0.0
H842 H 0.38979 0.31361 0.19774 0.0
H843 H 0.4785 0.37666 0.18958 0.0
H844 H 0.48244 0.40452 0.21078 0.0
H845 H 0.46397 0.40655 0.17828 0.0
H846 H 0.41799 0.42533 0.20228 0.0
H847 H 0.43632 0.42328 0.23488 0.0
H848 H 0.40108 0.40825 0.22989 0.0
H849 H 0.41628 0.31049 0.24421 0.0
H850 H 0.44688 0.31557 0.28599 0.0
H851 H 0.47109 0.39113 0.25991 0.0
C852 C 0.40758 0.37949 0.166 0.0
C853 C 0.39015 0.362 0.1511 0.0
C854 C 0.38356 0.33825 0.16295 0.0
C855 C 0.39455 0.3319 0.18896 0.0
C856 C 0.41195 0.34955 0.20292 0.0
C857 C 0.41831 0.37289 0.19177 0.0
C858 C 0.43797 0.38842 0.2104 0.0
C859 C 0.46746 0.39437 0.19643 0.0
C860 C 0.4224 0.41276 0.21993 0.0
C861 C 0.44197 0.37015 0.23374 0.0
C862 C 0.42682 0.34782 0.22925 0.0
C863 C 0.42809 0.32798 0.24794 0.0
C864 C 0.44551 0.33103 0.27163 0.0
C865 C 0.46143 0.35374 0.27635 0.0
C866 C 0.45921 0.37352 0.25713 0.0
H867 H 0.64587 0.70112 0.67047 0.0
H868 H 0.67927 0.62421 0.66797 0.0
H869 H 0.65465 0.61531 0.71167 0.0
H870 H 0.65159 0.70978 0.74555 0.0
H871 H 0.61794 0.7277 0.74764 0.0
H872 H 0.64003 0.72889 0.7171 0.0
H873 H 0.59505 0.71489 0.68804 0.0
H874 H 0.57286 0.7137 0.71844 0.0
H875 H 0.57586 0.68616 0.69663 0.0
H876 H 0.6232 0.61322 0.75281 0.0
H877 H 0.58672 0.61825 0.78973 0.0
H878 H 0.57461 0.69691 0.76781 0.0
C879 C 0.64844 0.68257 0.67942 0.0
C880 C 0.66443 0.66331 0.6657 0.0
C881 C 0.66684 0.63915 0.67786 0.0
C882 C 0.65313 0.63396 0.70281 0.0
C883 C 0.6372 0.65318 0.71557 0.0
C884 C 0.63483 0.67704 0.70444 0.0
C885 C 0.61497 0.69379 0.72178 0.0
C886 C 0.63217 0.71638 0.73373 0.0
C887 C 0.5881 0.70265 0.70524 0.0
C888 C 0.60611 0.6754 0.74404 0.0
C889 C 0.61937 0.65213 0.74002 0.0
C890 C 0.61309 0.63145 0.75649 0.0
C891 C 0.59235 0.63447 0.77736 0.0
C892 C 0.57832 0.65803 0.78182 0.0
C893 C 0.58567 0.6789 0.76526 0.0
H894 H 0.63704 0.40987 0.16994 0.0
H895 H 0.66736 0.33265 0.15842 0.0
H896 H 0.64837 0.3217 0.20411 0.0
H897 H 0.65108 0.41434 0.24401 0.0
H898 H 0.61825 0.43258 0.2502 0.0
H899 H 0.63707 0.43505 0.21792 0.0
H900 H 0.58896 0.42316 0.19227 0.0
H901 H 0.57002 0.42075 0.22442 0.0
H902 H 0.57006 0.3943 0.20091 0.0
H903 H 0.6213 0.31798 0.24862 0.0
H904 H 0.58868 0.32191 0.28877 0.0
H905 H 0.57638 0.40163 0.27164 0.0
C906 C 0.63991 0.39069 0.17707 0.0
C907 C 0.65379 0.37213 0.16054 0.0
C908 C 0.65724 0.3473 0.17081 0.0
C909 C 0.64642 0.34088 0.19672 0.0
C910 C 0.63242 0.35953 0.21224 0.0
C911 C 0.62929 0.38397 0.20286 0.0
C912 C 0.61179 0.40008 0.22278 0.0
C913 C 0.63069 0.4218 0.23442 0.0
C914 C 0.58354 0.41015 0.20929 0.0
C915 C 0.6049 0.38072 0.24454 0.0
C916 C 0.61716 0.35748 0.23815 0.0
C917 C 0.612 0.33618 0.25406 0.0
C918 C 0.59341 0.33858 0.27679 0.0
C919 C 0.58029 0.36212 0.28349 0.0
C920 C 0.58666 0.38354 0.26742 0.0
H921 H 0.40565 0.6977 0.65496 0.0
H922 H 0.34175 0.63807 0.66862 0.0
H923 H 0.36271 0.63082 0.71445 0.0
H924 H 0.46578 0.66663 0.68728 0.0
H925 H 0.48134 0.69494 0.70222 0.0
H926 H 0.4602 0.6968 0.67111 0.0
H927 H 0.42568 0.72973 0.69386 0.0
H928 H 0.44671 0.72791 0.72508 0.0
H929 H 0.40764 0.72208 0.72554 0.0
H930 H 0.39127 0.62854 0.75752 0.0
H931 H 0.42715 0.63018 0.79521 0.0
H932 H 0.47361 0.69112 0.75467 0.0
C933 C 0.39589 0.68336 0.66779 0.0
C934 C 0.37207 0.6684 0.65822 0.0
C935 C 0.36016 0.64956 0.67542 0.0
C936 C 0.37178 0.64542 0.70156 0.0
C937 C 0.39538 0.66026 0.71029 0.0
C938 C 0.40743 0.67882 0.69399 0.0
C939 C 0.43376 0.69113 0.708 0.0
C940 C 0.46193 0.68712 0.69115 0.0
C941 C 0.4281 0.71939 0.71344 0.0
C942 C 0.43476 0.67636 0.73453 0.0
C943 C 0.4122 0.65882 0.73539 0.0
C944 C 0.40893 0.64228 0.75717 0.0
C945 C 0.42952 0.64333 0.77847 0.0
C946 C 0.45324 0.66077 0.77796 0.0
C947 C 0.45555 0.6778 0.75583 0.0
H948 H 0.90017 0.831 0.16727 0.0
H949 H 0.84213 0.89543 0.1782 0.0
H950 H 0.86435 0.90402 0.22338 0.0
H951 H 0.90016 0.81051 0.2384 0.0
H952 H 0.93853 0.80195 0.23836 0.0
H953 H 0.91746 0.80008 0.20714 0.0
H954 H 0.95509 0.82937 0.18328 0.0
H955 H 0.97629 0.83125 0.21439 0.0
H956 H 0.96359 0.8598 0.19829 0.0
H957 H 0.89333 0.90658 0.26652 0.0
H958 H 0.92844 0.90377 0.30479 0.0
H959 H 0.96835 0.83763 0.26688 0.0
C960 C 0.89197 0.84675 0.17933 0.0
C961 C 0.86942 0.86261 0.16913 0.0
C962 C 0.85957 0.88322 0.18539 0.0
C963 C 0.87193 0.88815 0.21118 0.0
C964 C 0.89419 0.87232 0.22055 0.0
C965 C 0.90424 0.85207 0.20517 0.0
C966 C 0.92924 0.83865 0.21979 0.0
C967 C 0.92083 0.81117 0.22631 0.0
C968 C 0.95774 0.83985 0.20293 0.0
C969 C 0.93166 0.85459 0.2457 0.0
C970 C 0.91111 0.87384 0.24567 0.0
C971 C 0.90944 0.89153 0.26685 0.0
C972 C 0.92955 0.88977 0.28851 0.0
C973 C 0.95117 0.87045 0.28897 0.0
C974 C 0.9519 0.85244 0.26735 0.0
H975 H 0.12517 0.17888 0.66713 0.0
H976 H 0.18501 0.1162 0.68029 0.0
H977 H 0.16746 0.11266 0.72785 0.0
H978 H 0.13094 0.20653 0.73625 0.0
H979 H 0.09254 0.21494 0.73724 0.0
H980 H 0.11174 0.21401 0.70504 0.0
H981 H 0.07292 0.18262 0.6857 0.0
H982 H 0.05365 0.18346 0.7178 0.0
H983 H 0.06567 0.15361 0.70368 0.0
H984 H 0.13967 0.11309 0.77257 0.0
H985 H 0.10512 0.11861 0.8112 0.0
H986 H 0.06427 0.18151 0.7691 0.0
C987 C 0.1348 0.16456 0.68008 0.0
C988 C 0.15662 0.1479 0.66993 0.0
C989 C 0.16867 0.12948 0.68765 0.0
C990 C 0.15872 0.12722 0.7147 0.0
C991 C 0.13686 0.14367 0.72388 0.0
C992 C 0.12523 0.16213 0.70716 0.0
C993 C 0.10106 0.17672 0.7216 0.0
C994 C 0.10959 0.20471 0.72525 0.0
C995 C 0.07159 0.17392 0.70629 0.0
C996 C 0.10044 0.1632 0.74881 0.0
C997 C 0.1213 0.14423 0.74979 0.0
C998 C 0.12356 0.12814 0.77219 0.0
C999 C 0.10382 0.13139 0.79402 0.0
C1000 C 0.08219 0.15065 0.79336 0.0
C1001 C 0.0809 0.16693 0.77054 0.0
H1002 H 0.11356 0.89469 0.16245 0.0
H1003 H 0.17682 0.83443 0.17503 0.0
H1004 H 0.15756 0.82826 0.22182 0.0
H1005 H 0.11622 0.92078 0.23049 0.0
H1006 H 0.07742 0.9277 0.23154 0.0
H1007 H 0.09656 0.92754 0.19932 0.0
H1008 H 0.05953 0.89457 0.17994 0.0
H1009 H 0.04021 0.89473 0.21205 0.0
H1010 H 0.05376 0.86536 0.19798 0.0
H1011 H 0.12962 0.82768 0.26688 0.0
H1012 H 0.09623 0.83332 0.30637 0.0
H1013 H 0.05208 0.8944 0.26399 0.0
C1014 C 0.12328 0.88005 0.17493 0.0
C1015 C 0.14668 0.86497 0.16496 0.0
C1016 C 0.15907 0.84635 0.18225 0.0
C1017 C 0.14818 0.84265 0.20882 0.0
C1018 C 0.125 0.8578 0.21789 0.0
C1019 C 0.11277 0.87616 0.20144 0.0
C1020 C 0.08791 0.88984 0.21586 0.0
C1021 C 0.09496 0.91814 0.21952 0.0
C1022 C 0.05863 0.88588 0.20055 0.0
C1023 C 0.08797 0.87629 0.24302 0.0
C1024 C 0.10942 0.8578 0.24382 0.0
C1025 C 0.11289 0.84224 0.26652 0.0
C1026 C 0.09382 0.84556 0.28885 0.0
C1027 C 0.07167 0.86443 0.28842 0.0
C1028 C 0.06903 0.88006 0.2652 0.0
H1029 H 0.89586 0.20563 0.67539 0.0
H1030 H 0.86708 0.12782 0.66443 0.0
H1031 H 0.89171 0.11621 0.70744 0.0
H1032 H 0.96668 0.19138 0.70225 0.0
H1033 H 0.9673 0.2171 0.72669 0.0
H1034 H 0.94613 0.21987 0.69569 0.0
H1035 H 0.89941 0.22947 0.72417 0.0
H1036 H 0.92048 0.2267 0.75528 0.0
H1037 H 0.88803 0.20758 0.7502 0.0
H1038 H 0.92138 0.11216 0.74961 0.0
H1039 H 0.95451 0.11589 0.78936 0.0
H1040 H 0.96371 0.19647 0.77491 0.0
C1041 C 0.89442 0.18625 0.68227 0.0
C1042 C 0.87968 0.16758 0.6664 0.0
C1043 C 0.87861 0.14235 0.67596 0.0
C1044 C 0.89235 0.1356 0.70049 0.0
C1045 C 0.90699 0.1543 0.71543 0.0
C1046 C 0.90811 0.17913 0.70683 0.0
C1047 C 0.92634 0.19521 0.72646 0.0
C1048 C 0.9532 0.20655 0.7119 0.0
C1049 C 0.90743 0.21597 0.73982 0.0
C1050 C 0.93551 0.17544 0.74718 0.0
C1051 C 0.92398 0.152 0.74033 0.0
C1052 C 0.93033 0.13043 0.75536 0.0
C1053 C 0.94926 0.13274 0.77785 0.0
C1054 C 0.96157 0.15647 0.78528 0.0
C1055 C 0.95424 0.17818 0.76994 0.0
loop_
_geom_bond_atom_site_label_1
_geom_bond_atom_site_label_2
_geom_bond_distance
_geom_bond_site_symmetry_2
_ccdc_geom_bond_type
C0 C1 1.264 . S
C0 C5 1.479 . S
C0 C10 1.465 . S
C1 C0 1.264 . S
C1 C3 1.339 . S
C1 H28 0.967 . S
C2 C3 1.395 . S
C2 C4 1.320 . S
C3 C1 1.339 . S
C3 C2 1.395 . S
C3 H29 0.929 . S
C4 C2 1.320 . S
C4 C5 1.405 . S
C4 H30 0.930 . S
C5 C0 1.479 . S
C5 C4 1.405 . S
C5 H31 0.931 . S
U6 O7 2.454 1_554 S
U6 O8 2.458 . S
U6 C9 2.984 1_554 S
U6 C10 2.847 1_554 S
U6 C23 2.882 . S
U6 O24 2.441 1_554 S
U6 O25 2.420 . S
U6 O26 2.455 . S
U6 O27 2.449 . S
O7 U6 2.454 1_556 S
O7 C9 1.353 . S
O8 U6 2.458 . S
O8 C9 1.286 1_554 S
C9 U6 2.984 1_556 S
C9 O7 1.353 . S
C9 O8 1.286 1_556 S
C9 C11 1.363 . S
C10 C0 1.465 . S
C10 U6 2.847 1_556 S
C10 O24 1.249 . S
C10 O25 1.202 1_556 S
C11 C9 1.363 . S
C11 C13 1.408 . S
C11 C16 1.342 . S
C12 C13 1.310 . S
C12 C15 1.461 . S
C12 H32 0.932 . S
C13 C11 1.408 . S
C13 C12 1.310 . S
C13 H33 0.930 . S
C14 C15 1.474 . S
C14 C16 1.285 . S
C14 H34 0.929 . S
C15 C12 1.461 . S
C15 C14 1.474 . S
C16 C11 1.342 . S
C16 C14 1.285 . S
C16 H35 0.930 1_556 S
C17 C20 1.424 . S
C17 C22 1.245 . S
C17 C23 1.428 . S
C18 C21 1.260 . S
C18 C22 1.477 . S
C18 H36 0.932 . S
C19 C20 1.384 . S
C19 C21 1.479 . S
C19 H37 0.929 . S
C20 C17 1.424 . S
C20 C19 1.384 . S
C20 H38 0.928 . S
C21 C18 1.260 . S
C21 C19 1.479 . S
C22 C17 1.245 . S
C22 C18 1.477 . S
C22 H39 0.932 . S
C23 U6 2.882 . S
C23 C17 1.428 . S
C23 O26 1.301 . S
C23 O27 1.282 . S
O24 U6 2.441 1_556 S
O24 C10 1.249 . S
O25 U6 2.420 . S
O25 C10 1.202 1_554 S
O26 U6 2.455 . S
O26 C23 1.301 . S
O27 U6 2.449 . S
O27 C23 1.282 . S
H28 C1 0.967 . S
H29 C3 0.929 . S
H30 C4 0.930 . S
H31 C5 0.931 . S
H32 C12 0.932 . S
H33 C13 0.930 . S
H34 C14 0.929 . S
H35 C16 0.930 1_554 S
H36 C18 0.932 . S
H37 C19 0.929 . S
H38 C20 0.928 . S
H39 C22 0.932 . S
C40 C41 1.264 . S
C40 C45 1.479 . S
C40 C50 1.465 . S
C41 C40 1.264 . S
C41 C43 1.339 . S
C41 H68 0.931 . S
C42 C43 1.395 . S
C42 C44 1.320 . S
C43 C41 1.339 . S
C43 C42 1.395 . S
C43 H69 0.929 . S
C44 C42 1.320 . S
C44 C45 1.405 . S
C44 H70 0.930 . S
C45 C40 1.479 . S
C45 C44 1.405 . S
C45 H71 0.931 . S
U46 O47 2.454 . S
U46 O48 2.458 . S
U46 C49 2.984 . S
U46 C50 2.847 . S
U46 C63 2.882 . S
U46 O64 2.441 . S
U46 O65 2.420 . S
U46 O66 2.455 . S
U46 O67 2.449 . S
O47 U46 2.454 . S
O47 C49 1.353 . S
O48 U46 2.458 . S
O48 C49 1.286 . S
C49 U46 2.984 . S
C49 O47 1.353 . S
C49 O48 1.286 . S
C49 C51 1.363 . S
C50 C40 1.465 . S
C50 U46 2.847 . S
C50 O64 1.249 . S
C50 O65 1.202 . S
C51 C49 1.363 . S
C51 C53 1.408 . S
C51 C56 1.342 . S
C52 C53 1.310 . S
C52 C55 1.461 . S
C52 H72 0.932 . S
C53 C51 1.408 . S
C53 C52 1.310 . S
C53 H73 0.930 . S
C54 C55 1.474 . S
C54 C56 1.285 . S
C54 H74 0.929 . S
C55 C52 1.461 . S
C55 C54 1.474 . S
C56 C51 1.342 . S
C56 C54 1.285 . S
C56 H75 0.930 . S
C57 C60 1.424 . S
C57 C62 1.245 . S
C57 C63 1.428 . S
C58 C61 1.260 . S
C58 C62 1.477 . S
C58 H76 0.932 . S
C59 C60 1.384 . S
C59 C61 1.479 . S
C59 H77 0.929 . S
C60 C57 1.424 . S
C60 C59 1.384 . S
C60 H78 0.928 . S
C61 C58 1.260 . S
C61 C59 1.479 . S
C62 C57 1.245 . S
C62 C58 1.477 . S
C62 H79 0.932 . S
C63 U46 2.882 . S
C63 C57 1.428 . S
C63 O66 1.301 . S
C63 O67 1.282 . S
O64 U46 2.441 . S
O64 C50 1.249 . S
O65 U46 2.420 . S
O65 C50 1.202 . S
O66 U46 2.455 . S
O66 C63 1.301 . S
O67 U46 2.449 . S
O67 C63 1.282 . S
H68 C41 0.931 . S
H69 C43 0.929 . S
H70 C44 0.930 . S
H71 C45 0.931 . S
H72 C52 0.932 . S
H73 C53 0.930 . S
H74 C54 0.929 . S
H75 C56 0.930 . S
H76 C58 0.932 . S
H77 C59 0.929 . S
H78 C60 0.928 . S
H79 C62 0.932 . S
C80 C81 1.264 . S
C80 C85 1.479 . S
C80 C90 1.465 . S
C81 C80 1.264 . S
C81 C83 1.339 . S
C81 H108 0.931 . S
C82 C83 1.395 . S
C82 C84 1.320 . S
C83 C81 1.339 . S
C83 C82 1.395 . S
C83 H109 0.929 . S
C84 C82 1.320 . S
C84 C85 1.405 . S
C84 H110 0.930 . S
C85 C80 1.479 . S
C85 C84 1.405 . S
C85 H111 0.931 . S
U86 O87 2.457 . S
U86 O88 2.457 1_556 S
U86 C89 2.986 . S
U86 C90 2.850 . S
U86 C103 2.877 1_556 S
U86 O104 2.445 . S
U86 O105 2.422 . S
U86 O106 2.450 1_556 S
U86 O107 2.445 1_556 S
O87 U86 2.457 . S
O87 C89 1.353 . S
O88 U86 2.457 1_554 S
O88 C89 1.286 1_554 S
C89 U86 2.986 . S
C89 O87 1.353 . S
C89 O88 1.286 1_556 S
C89 C91 1.363 . S
C90 C80 1.465 . S
C90 U86 2.850 . S
C90 O104 1.249 . S
C90 O105 1.202 . S
C91 C89 1.363 . S
C91 C93 1.408 . S
C91 C96 1.342 . S
C92 C93 1.310 . S
C92 C95 1.461 . S
C92 H112 0.932 . S
C93 C91 1.408 . S
C93 C92 1.310 . S
C93 H113 0.930 . S
C94 C95 1.474 . S
C94 C96 1.285 . S
C94 H114 0.929 . S
C95 C92 1.461 . S
C95 C94 1.474 . S
C96 C91 1.342 . S
C96 C94 1.285 . S
C96 H115 0.930 1_556 S
C97 C100 1.424 . S
C97 C102 1.245 . S
C97 C103 1.428 . S
C98 C101 1.260 . S
C98 C102 1.477 . S
C98 H116 0.932 . S
C99 C100 1.384 . S
C99 C101 1.479 . S
C99 H117 0.929 . S
C100 C97 1.424 . S
C100 C99 1.384 . S
C100 H118 0.928 . S
C101 C98 1.260 . S
C101 C99 1.479 . S
C102 C97 1.245 . S
C102 C98 1.477 . S
C102 H119 0.932 . S
C103 U86 2.877 1_554 S
C103 C97 1.428 . S
C103 O106 1.301 . S
C103 O107 1.282 . S
O104 U86 2.445 . S
O104 C90 1.249 . S
O105 U86 2.422 . S
O105 C90 1.202 . S
O106 U86 2.450 1_554 S
O106 C103 1.301 . S
O107 U86 2.445 1_554 S
O107 C103 1.282 . S
H108 C81 0.931 . S
H109 C83 0.929 . S
H110 C84 0.930 . S
H111 C85 0.931 . S
H112 C92 0.932 . S
H113 C93 0.930 . S
H114 C94 0.929 . S
H115 C96 0.930 1_554 S
H116 C98 0.932 . S
H117 C99 0.929 . S
H118 C100 0.928 . S
H119 C102 0.932 . S
C120 C121 1.264 . S
C120 C125 1.479 . S
C120 C130 1.465 . S
C121 C120 1.264 . S
C121 C123 1.339 . S
C121 H148 0.931 . S
C122 C123 1.395 . S
C122 C124 1.320 . S
C123 C121 1.339 . S
C123 C122 1.395 . S
C123 H149 0.929 . S
C124 C122 1.320 . S
C124 C125 1.405 . S
C124 H150 0.930 . S
C125 C120 1.479 . S
C125 C124 1.405 . S
C125 H151 0.931 . S
U126 O127 2.454 . S
U126 O128 2.458 . S
U126 C129 2.984 . S
U126 C130 2.847 . S
U126 C143 2.882 . S
U126 O144 2.441 . S
U126 O145 2.420 . S
U126 O146 2.455 . S
U126 O147 2.449 . S
O127 U126 2.454 . S
O127 C129 1.353 . S
O128 U126 2.458 . S
O128 C129 1.286 . S
C129 U126 2.984 . S
C129 O127 1.353 . S
C129 O128 1.286 . S
C129 C131 1.363 . S
C130 C120 1.465 . S
C130 U126 2.847 . S
C130 O144 1.249 . S
C130 O145 1.202 . S
C131 C129 1.363 . S
C131 C133 1.408 . S
C131 C136 1.342 . S
C132 C133 1.310 . S
C132 C135 1.461 . S
C132 H152 0.932 . S
C133 C131 1.408 . S
C133 C132 1.310 . S
C133 H153 0.930 . S
C134 C135 1.474 . S
C134 C136 1.285 . S
C134 H154 0.929 . S
C135 C132 1.461 . S
C135 C134 1.474 . S
C136 C131 1.342 . S
C136 C134 1.285 . S
C136 H155 0.930 . S
C137 C140 1.424 . S
C137 C142 1.245 . S
C137 C143 1.428 . S
C138 C141 1.260 . S
C138 C142 1.477 . S
C138 H156 0.932 . S
C139 C140 1.384 . S
C139 C141 1.479 . S
C139 H157 0.929 . S
C140 C137 1.424 . S
C140 C139 1.384 . S
C140 H158 0.928 . S
C141 C138 1.260 . S
C141 C139 1.479 . S
C142 C137 1.245 . S
C142 C138 1.477 . S
C142 H159 0.932 . S
C143 U126 2.882 . S
C143 C137 1.428 . S
C143 O146 1.301 . S
C143 O147 1.282 . S
O144 U126 2.441 . S
O144 C130 1.249 . S
O145 U126 2.420 . S
O145 C130 1.202 . S
O146 U126 2.455 . S
O146 C143 1.301 . S
O147 U126 2.449 . S
O147 C143 1.282 . S
H148 C121 0.931 . S
H149 C123 0.929 . S
H150 C124 0.930 . S
H151 C125 0.931 . S
H152 C132 0.932 . S
H153 C133 0.930 . S
H154 C134 0.929 . S
H155 C136 0.930 . S
H156 C138 0.932 . S
H157 C139 0.929 . S
H158 C140 0.928 . S
H159 C142 0.932 . S
C160 C161 1.264 . S
C160 C165 1.479 . S
C160 C170 1.465 . S
C161 C160 1.264 . S
C161 C163 1.339 . S
C161 H188 0.968 . S
C162 C163 1.396 . S
C162 C164 1.324 . S
C163 C161 1.339 . S
C163 C162 1.396 . S
C163 H189 0.929 1_565 S
C164 C162 1.324 . S
C164 C165 1.405 . S
C164 H190 0.930 . S
C165 C160 1.479 . S
C165 C164 1.405 . S
C165 H191 0.931 . S
U166 O167 2.454 1_554 S
U166 O168 2.458 . S
U166 C169 2.984 1_554 S
U166 C170 2.847 1_554 S
U166 C183 2.882 . S
U166 O184 2.441 1_554 S
U166 O185 2.420 . S
U166 O186 2.455 . S
U166 O187 2.449 . S
O167 U166 2.454 1_556 S
O167 C169 1.353 . S
O168 U166 2.458 . S
O168 C169 1.286 1_554 S
C169 U166 2.984 1_556 S
C169 O167 1.353 . S
C169 O168 1.286 1_556 S
C169 C171 1.363 . S
C170 C160 1.465 . S
C170 U166 2.847 1_556 S
C170 O184 1.249 . S
C170 O185 1.202 1_556 S
C171 C169 1.363 . S
C171 C173 1.408 . S
C171 C176 1.342 . S
C172 C173 1.310 . S
C172 C175 1.461 . S
C172 H192 0.932 . S
C173 C171 1.408 . S
C173 C172 1.310 . S
C173 H193 0.930 . S
C174 C175 1.474 . S
C174 C176 1.285 . S
C174 H194 0.929 . S
C175 C172 1.461 . S
C175 C174 1.474 . S
C176 C171 1.342 . S
C176 C174 1.285 . S
C176 H195 0.930 1_556 S
C177 C180 1.424 . S
C177 C182 1.245 . S
C177 C183 1.428 . S
C178 C181 1.260 . S
C178 C182 1.477 . S
C178 H196 0.932 . S
C179 C180 1.384 . S
C179 C181 1.479 . S
C179 H197 0.929 . S
C180 C177 1.424 . S
C180 C179 1.384 . S
C180 H198 0.928 . S
C181 C178 1.260 . S
C181 C179 1.479 . S
C182 C177 1.245 . S
C182 C178 1.477 . S
C182 H199 0.932 . S
C183 U166 2.882 . S
C183 C177 1.428 . S
C183 O186 1.301 . S
C183 O187 1.282 . S
O184 U166 2.441 1_556 S
O184 C170 1.249 . S
O185 U166 2.420 . S
O185 C170 1.202 1_554 S
O186 U166 2.455 . S
O186 C183 1.301 . S
O187 U166 2.449 . S
O187 C183 1.282 . S
H188 C161 0.968 . S
H189 C163 0.929 1_545 S
H190 C164 0.930 . S
H191 C165 0.931 . S
H192 C172 0.932 . S
H193 C173 0.930 . S
H194 C174 0.929 . S
H195 C176 0.930 1_554 S
H196 C178 0.932 . S
H197 C179 0.929 . S
H198 C180 0.928 . S
H199 C182 0.932 . S
C200 C201 1.264 . S
C200 C205 1.479 . S
C200 C210 1.465 . S
C201 C200 1.264 . S
C201 C203 1.339 . S
C201 H228 0.931 . S
C202 C203 1.395 . S
C202 C204 1.320 . S
C203 C201 1.339 . S
C203 C202 1.395 . S
C203 H229 0.929 . S
C204 C202 1.320 . S
C204 C205 1.405 . S
C204 H230 0.930 . S
C205 C200 1.479 . S
C205 C204 1.405 . S
C205 H231 0.931 . S
U206 O207 2.454 . S
U206 O208 2.458 . S
U206 C209 2.984 . S
U206 C210 2.847 . S
U206 C223 2.882 . S
U206 O224 2.441 . S
U206 O225 2.420 . S
U206 O226 2.455 . S
U206 O227 2.449 . S
O207 U206 2.454 . S
O207 C209 1.353 . S
O208 U206 2.458 . S
O208 C209 1.286 . S
C209 U206 2.984 . S
C209 O207 1.353 . S
C209 O208 1.286 . S
C209 C211 1.363 . S
C210 C200 1.465 . S
C210 U206 2.847 . S
C210 O224 1.249 . S
C210 O225 1.202 . S
C211 C209 1.363 . S
C211 C213 1.408 . S
C211 C216 1.342 . S
C212 C213 1.310 . S
C212 C215 1.461 . S
C212 H232 0.932 . S
C213 C211 1.408 . S
C213 C212 1.310 . S
C213 H233 0.930 . S
C214 C215 1.474 . S
C214 C216 1.285 . S
C214 H234 0.929 . S
C215 C212 1.461 . S
C215 C214 1.474 . S
C216 C211 1.342 . S
C216 C214 1.285 . S
C216 H235 0.930 . S
C217 C220 1.424 . S
C217 C222 1.245 . S
C217 C223 1.428 . S
C218 C221 1.260 . S
C218 C222 1.477 . S
C218 H236 0.932 . S
C219 C220 1.384 . S
C219 C221 1.479 . S
C219 H237 0.929 . S
C220 C217 1.424 . S
C220 C219 1.384 . S
C220 H238 0.928 . S
C221 C218 1.260 . S
C221 C219 1.479 . S
C222 C217 1.245 . S
C222 C218 1.477 . S
C222 H239 0.932 . S
C223 U206 2.882 . S
C223 C217 1.428 . S
C223 O226 1.301 . S
C223 O227 1.282 . S
O224 U206 2.441 . S
O224 C210 1.249 . S
O225 U206 2.420 . S
O225 C210 1.202 . S
O226 U206 2.455 . S
O226 C223 1.301 . S
O227 U206 2.449 . S
O227 C223 1.282 . S
H228 C201 0.931 . S
H229 C203 0.929 . S
H230 C204 0.930 . S
H231 C205 0.931 . S
H232 C212 0.932 . S
H233 C213 0.930 . S
H234 C214 0.929 . S
H235 C216 0.930 . S
H236 C218 0.932 . S
H237 C219 0.929 . S
H238 C220 0.928 . S
H239 C222 0.932 . S
C240 C241 1.264 . S
C240 C245 1.479 . S
C240 C250 1.465 . S
C241 C240 1.264 . S
C241 C243 1.339 . S
C241 H268 0.931 . S
C242 C243 1.398 . S
C242 C244 1.324 . S
C243 C241 1.339 . S
C243 C242 1.398 . S
C243 H269 0.929 . S
C244 C242 1.324 . S
C244 C245 1.405 . S
C244 H270 0.930 . S
C245 C240 1.479 . S
C245 C244 1.405 . S
C245 H271 0.931 . S
U246 O247 2.457 . S
U246 O248 2.457 1_556 S
U246 C249 2.986 . S
U246 C250 2.850 . S
U246 C263 2.878 1_556 S
U246 O264 2.445 . S
U246 O265 2.422 . S
U246 O266 2.451 1_556 S
U246 O267 2.445 1_556 S
O247 U246 2.457 . S
O247 C249 1.353 . S
O248 U246 2.457 1_554 S
O248 C249 1.286 1_554 S
C249 U246 2.986 . S
C249 O247 1.353 . S
C249 O248 1.286 1_556 S
C249 C251 1.363 . S
C250 C240 1.465 . S
C250 U246 2.850 . S
C250 O264 1.249 . S
C250 O265 1.202 . S
C251 C249 1.363 . S
C251 C253 1.408 . S
C251 C256 1.342 . S
C252 C253 1.310 . S
C252 C255 1.461 . S
C252 H272 0.932 . S
C253 C251 1.408 . S
C253 C252 1.310 . S
C253 H273 0.930 . S
C254 C255 1.474 . S
C254 C256 1.285 . S
C254 H274 0.929 . S
C255 C252 1.461 . S
C255 C254 1.474 . S
C256 C251 1.342 . S
C256 C254 1.285 . S
C256 H275 0.930 1_556 S
C257 C260 1.424 . S
C257 C262 1.245 . S
C257 C263 1.428 . S
C258 C261 1.260 . S
C258 C262 1.477 . S
C258 H276 0.932 . S
C259 C260 1.384 . S
C259 C261 1.479 . S
C259 H277 0.929 . S
C260 C257 1.424 . S
C260 C259 1.384 . S
C260 H278 0.928 . S
C261 C258 1.260 . S
C261 C259 1.479 . S
C262 C257 1.245 . S
C262 C258 1.477 . S
C262 H279 0.932 . S
C263 U246 2.878 1_554 S
C263 C257 1.428 . S
C263 O266 1.301 . S
C263 O267 1.282 . S
O264 U246 2.445 . S
O264 C250 1.249 . S
O265 U246 2.422 . S
O265 C250 1.202 . S
O266 U246 2.451 1_554 S
O266 C263 1.301 . S
O267 U246 2.445 1_554 S
O267 C263 1.282 . S
H268 C241 0.931 . S
H269 C243 0.929 . S
H270 C244 0.930 . S
H271 C245 0.931 . S
H272 C252 0.932 . S
H273 C253 0.930 . S
H274 C254 0.929 . S
H275 C256 0.930 1_554 S
H276 C258 0.932 . S
H277 C259 0.929 . S
H278 C260 0.928 . S
H279 C262 0.932 . S
C280 C281 1.264 . S
C280 C285 1.479 . S
C280 C290 1.465 . S
C281 C280 1.264 . S
C281 C283 1.339 . S
C281 H308 0.931 . S
C282 C283 1.395 . S
C282 C284 1.320 . S
C283 C281 1.339 . S
C283 C282 1.395 . S
C283 H309 0.929 . S
C284 C282 1.320 . S
C284 C285 1.405 . S
C284 H310 0.930 . S
C285 C280 1.479 . S
C285 C284 1.405 . S
C285 H311 0.931 . S
U286 O287 2.454 . S
U286 O288 2.458 . S
U286 C289 2.984 . S
U286 C290 2.847 . S
U286 C303 2.882 . S
U286 O304 2.441 . S
U286 O305 2.420 . S
U286 O306 2.455 . S
U286 O307 2.449 . S
O287 U286 2.454 . S
O287 C289 1.353 . S
O288 U286 2.458 . S
O288 C289 1.286 . S
C289 U286 2.984 . S
C289 O287 1.353 . S
C289 O288 1.286 . S
C289 C291 1.363 . S
C290 C280 1.465 . S
C290 U286 2.847 . S
C290 O304 1.249 . S
C290 O305 1.202 . S
C291 C289 1.363 . S
C291 C293 1.408 . S
C291 C296 1.342 . S
C292 C293 1.310 . S
C292 C295 1.461 . S
C292 H312 0.932 . S
C293 C291 1.408 . S
C293 C292 1.310 . S
C293 H313 0.930 . S
C294 C295 1.474 . S
C294 C296 1.285 . S
C294 H314 0.929 . S
C295 C292 1.461 . S
C295 C294 1.474 . S
C296 C291 1.342 . S
C296 C294 1.285 . S
C296 H315 0.930 . S
C297 C300 1.424 . S
C297 C302 1.245 . S
C297 C303 1.428 . S
C298 C301 1.260 1_545 S
C298 C302 1.477 . S
C298 H316 0.932 . S
C299 C300 1.384 . S
C299 C301 1.479 1_545 S
C299 H317 0.929 1_545 S
C300 C297 1.424 . S
C300 C299 1.384 . S
C300 H318 0.928 . S
C301 C298 1.260 1_565 S
C301 C299 1.479 1_565 S
C302 C297 1.245 . S
C302 C298 1.477 . S
C302 H319 0.932 . S
C303 U286 2.882 . S
C303 C297 1.428 . S
C303 O306 1.301 . S
C303 O307 1.282 . S
O304 U286 2.441 . S
O304 C290 1.249 . S
O305 U286 2.420 . S
O305 C290 1.202 . S
O306 U286 2.455 . S
O306 C303 1.301 . S
O307 U286 2.449 . S
O307 C303 1.282 . S
H308 C281 0.931 . S
H309 C283 0.929 . S
H310 C284 0.930 . S
H311 C285 0.931 . S
H312 C292 0.932 . S
H313 C293 0.930 . S
H314 C294 0.929 . S
H315 C296 0.930 . S
H316 C298 0.932 . S
H317 C299 0.929 1_565 S
H318 C300 0.928 . S
H319 C302 0.932 . S
Fe320 O322 1.918 . S
Fe320 O325 1.997 1_455 S
Fe320 O326 2.002 1_455 S
Fe320 O331 1.976 . S
Fe320 O334 1.996 . S
Fe321 O322 1.918 . S
Fe321 O329 1.997 1_455 S
Fe321 O332 1.996 . S
Fe321 O336 1.976 . S
Fe321 O339 2.002 1_455 S
O322 Fe320 1.918 . S
O322 Fe321 1.918 . S
O322 Fe323 1.918 . S
Fe323 O322 1.918 . S
Fe323 O324 2.002 1_455 S
Fe323 O333 1.976 . S
Fe323 O337 1.996 . S
Fe323 O340 1.997 1_455 S
O324 Fe323 2.002 1_655 S
O324 C341 1.295 . S
O325 Fe320 1.997 1_655 S
O325 C341 1.235 . S
O326 Fe320 2.002 1_655 S
O326 C327 1.295 . S
C327 O326 1.295 . S
C327 O329 1.235 . S
C328 O333 1.287 . S
C328 O334 1.255 . S
O329 Fe321 1.997 1_655 S
O329 C327 1.235 . S
C330 O336 1.287 . S
C330 O337 1.255 . S
O331 Fe320 1.976 . S
O331 C338 1.287 . S
O332 Fe321 1.996 . S
O332 C338 1.255 . S
O333 Fe323 1.976 . S
O333 C328 1.287 . S
O334 Fe320 1.996 . S
O334 C328 1.255 . S
C335 O339 1.295 . S
C335 O340 1.235 . S
O336 Fe321 1.976 . S
O336 C330 1.287 . S
O337 Fe323 1.996 . S
O337 C330 1.255 . S
C338 O331 1.287 . S
C338 O332 1.255 . S
O339 Fe321 2.002 1_655 S
O339 C335 1.295 . S
O340 Fe323 1.997 1_655 S
O340 C335 1.235 . S
C341 O324 1.295 . S
C341 O325 1.235 . S
Fe342 O344 1.919 . S
Fe342 O347 1.981 1_655 S
Fe342 O348 1.986 1_655 S
Fe342 O353 1.992 . S
Fe342 O356 2.011 . S
Fe343 O344 1.919 . S
Fe343 O351 1.981 1_655 S
Fe343 O354 2.011 . S
Fe343 O358 1.991 . S
Fe343 O361 1.987 1_655 S
O344 Fe342 1.919 . S
O344 Fe343 1.919 . S
O344 Fe345 1.919 . S
Fe345 O344 1.919 . S
Fe345 O346 1.987 1_655 S
Fe345 O355 1.991 . S
Fe345 O359 2.011 . S
Fe345 O362 1.982 1_655 S
O346 Fe345 1.987 1_455 S
O346 C363 1.295 . S
O347 Fe342 1.981 1_455 S
O347 C363 1.235 . S
O348 Fe342 1.986 1_455 S
O348 C349 1.295 . S
C349 O348 1.295 . S
C349 O351 1.235 . S
C350 O355 1.287 . S
C350 O356 1.255 . S
O351 Fe343 1.981 1_455 S
O351 C349 1.235 . S
C352 O358 1.287 . S
C352 O359 1.255 . S
O353 Fe342 1.992 . S
O353 C360 1.287 . S
O354 Fe343 2.011 . S
O354 C360 1.255 . S
O355 Fe345 1.991 . S
O355 C350 1.287 . S
O356 Fe342 2.011 . S
O356 C350 1.255 . S
C357 O361 1.295 . S
C357 O362 1.235 . S
O358 Fe343 1.991 . S
O358 C352 1.287 . S
O359 Fe345 2.011 . S
O359 C352 1.255 . S
C360 O353 1.287 . S
C360 O354 1.255 . S
O361 Fe343 1.987 1_455 S
O361 C357 1.295 . S
O362 Fe345 1.982 1_455 S
O362 C357 1.235 . S
C363 O346 1.295 . S
C363 O347 1.235 . S
Fe364 O366 1.918 . S
Fe364 O369 1.997 . S
Fe364 O370 2.002 . S
Fe364 O375 1.976 . S
Fe364 O378 1.996 . S
Fe365 O366 1.918 . S
Fe365 O373 1.997 . S
Fe365 O376 1.996 . S
Fe365 O380 1.976 . S
Fe365 O383 2.002 . S
O366 Fe364 1.918 . S
O366 Fe365 1.918 . S
O366 Fe367 1.918 . S
Fe367 O366 1.918 . S
Fe367 O368 2.002 . S
Fe367 O377 1.976 . S
Fe367 O381 1.996 . S
Fe367 O384 1.997 . S
O368 Fe367 2.002 . S
O368 C385 1.295 . S
O369 Fe364 1.997 . S
O369 C385 1.235 . S
O370 Fe364 2.002 . S
O370 C371 1.295 . S
C371 O370 1.295 . S
C371 O373 1.235 . S
C372 O377 1.287 . S
C372 O378 1.255 . S
O373 Fe365 1.997 . S
O373 C371 1.235 . S
C374 O380 1.287 . S
C374 O381 1.255 . S
O375 Fe364 1.976 . S
O375 C382 1.287 . S
O376 Fe365 1.996 . S
O376 C382 1.255 . S
O377 Fe367 1.976 . S
O377 C372 1.287 . S
O378 Fe364 1.996 . S
O378 C372 1.255 . S
C379 O383 1.295 . S
C379 O384 1.235 . S
O380 Fe365 1.976 . S
O380 C374 1.287 . S
O381 Fe367 1.996 . S
O381 C374 1.255 . S
C382 O375 1.287 . S
C382 O376 1.255 . S
O383 Fe365 2.002 . S
O383 C379 1.295 . S
O384 Fe367 1.997 . S
O384 C379 1.235 . S
C385 O368 1.295 . S
C385 O369 1.235 . S
Fe386 O388 1.918 . S
Fe386 O391 1.997 . S
Fe386 O392 2.002 . S
Fe386 O397 1.976 . S
Fe386 O400 1.996 . S
Fe387 O388 1.918 . S
Fe387 O395 1.997 . S
Fe387 O398 1.996 . S
Fe387 O402 1.976 . S
Fe387 O405 2.002 . S
O388 Fe386 1.918 . S
O388 Fe387 1.918 . S
O388 Fe389 1.918 . S
Fe389 O388 1.918 . S
Fe389 O390 2.002 . S
Fe389 O399 1.976 . S
Fe389 O403 1.996 . S
Fe389 O406 1.997 . S
O390 Fe389 2.002 . S
O390 C407 1.295 . S
O391 Fe386 1.997 . S
O391 C407 1.235 . S
O392 Fe386 2.002 . S
O392 C393 1.295 . S
C393 O392 1.295 . S
C393 O395 1.235 . S
C394 O399 1.287 . S
C394 O400 1.255 . S
O395 Fe387 1.997 . S
O395 C393 1.235 . S
C396 O402 1.287 . S
C396 O403 1.255 . S
O397 Fe386 1.976 . S
O397 C404 1.287 . S
O398 Fe387 1.996 . S
O398 C404 1.255 . S
O399 Fe389 1.976 . S
O399 C394 1.287 . S
O400 Fe386 1.996 . S
O400 C394 1.255 . S
C401 O405 1.295 . S
C401 O406 1.235 . S
O402 Fe387 1.976 . S
O402 C396 1.287 . S
O403 Fe389 1.996 . S
O403 C396 1.255 . S
C404 O397 1.287 . S
C404 O398 1.255 . S
O405 Fe387 2.002 . S
O405 C401 1.295 . S
O406 Fe389 1.997 . S
O406 C401 1.235 . S
C407 O390 1.295 . S
C407 O391 1.235 . S
H408 C420 0.930 . S
H409 C422 0.930 . S
H410 C423 0.930 . S
H411 C427 0.959 . S
H412 C427 0.959 . S
H413 C427 0.961 . S
H414 C428 0.960 . S
H415 C428 0.961 . S
H416 C428 0.959 . S
H417 C431 0.929 . S
H418 C432 0.931 . S
H419 C434 0.930 . S
C420 H408 0.930 . S
C420 C421 1.399 . S
C420 C425 1.399 . S
C421 C420 1.399 . S
C421 C422 1.376 . S
C422 H409 0.930 . S
C422 C421 1.376 . S
C422 C423 1.388 . S
C423 H410 0.930 . S
C423 C422 1.388 . S
C423 C424 1.390 . S
C424 C423 1.390 . S
C424 C425 1.394 . S
C424 C430 1.465 . S
C425 C420 1.399 . S
C425 C424 1.394 . S
C425 C426 1.516 . S
C426 C425 1.516 . S
C426 C427 1.502 . S
C426 C428 1.561 . S
C426 C429 1.526 . S
C427 H411 0.959 . S
C427 H412 0.959 . S
C427 H413 0.961 . S
C427 C426 1.502 . S
C428 H414 0.960 . S
C428 H415 0.961 . S
C428 H416 0.959 . S
C428 C426 1.561 . S
C429 C426 1.526 . S
C429 C430 1.396 . S
C429 C434 1.390 . S
C430 C424 1.465 . S
C430 C429 1.396 . S
C430 C431 1.399 . S
C431 H417 0.929 . S
C431 C430 1.399 . S
C431 C432 1.385 . S
C432 H418 0.931 . S
C432 C431 1.385 . S
C432 C433 1.389 . S
C433 C432 1.389 . S
C433 C434 1.387 . S
C434 H419 0.930 . S
C434 C429 1.390 . S
C434 C433 1.387 . S
H435 C447 0.930 . S
H436 C449 0.930 . S
H437 C450 0.930 . S
H438 C454 0.959 . S
H439 C454 0.959 . S
H440 C454 0.961 . S
H441 C455 0.960 . S
H442 C455 0.961 . S
H443 C455 0.959 . S
H444 C458 0.929 . S
H445 C459 0.931 . S
H446 C461 0.930 . S
C447 H435 0.930 . S
C447 C448 1.399 . S
C447 C452 1.399 . S
C448 C447 1.399 . S
C448 C449 1.376 . S
C449 H436 0.930 . S
C449 C448 1.376 . S
C449 C450 1.388 . S
C450 H437 0.930 . S
C450 C449 1.388 . S
C450 C451 1.390 . S
C451 C450 1.390 . S
C451 C452 1.394 . S
C451 C457 1.465 . S
C452 C447 1.399 . S
C452 C451 1.394 . S
C452 C453 1.516 . S
C453 C452 1.516 . S
C453 C454 1.502 . S
C453 C455 1.561 . S
C453 C456 1.526 . S
C454 H438 0.959 . S
C454 H439 0.959 . S
C454 H440 0.961 . S
C454 C453 1.502 . S
C455 H441 0.960 . S
C455 H442 0.961 . S
C455 H443 0.959 . S
C455 C453 1.561 . S
C456 C453 1.526 . S
C456 C457 1.396 . S
C456 C461 1.390 . S
C457 C451 1.465 . S
C457 C456 1.396 . S
C457 C458 1.399 . S
C458 H444 0.929 . S
C458 C457 1.399 . S
C458 C459 1.385 . S
C459 H445 0.931 . S
C459 C458 1.385 . S
C459 C460 1.389 . S
C460 C459 1.389 . S
C460 C461 1.387 . S
C461 H446 0.930 . S
C461 C456 1.390 . S
C461 C460 1.387 . S
H462 C474 0.930 . S
H463 C476 0.930 . S
H464 C477 0.930 . S
H465 C481 0.959 . S
H466 C481 0.959 . S
H467 C481 0.961 . S
H468 C482 0.960 . S
H469 C482 0.961 . S
H470 C482 0.959 . S
H471 C485 0.929 . S
H472 C486 0.931 . S
H473 C488 0.930 . S
C474 H462 0.930 . S
C474 C475 1.399 . S
C474 C479 1.399 . S
C475 C474 1.399 . S
C475 C476 1.376 . S
C476 H463 0.930 . S
C476 C475 1.376 . S
C476 C477 1.388 . S
C477 H464 0.930 . S
C477 C476 1.388 . S
C477 C478 1.390 . S
C478 C477 1.390 . S
C478 C479 1.394 . S
C478 C484 1.465 . S
C479 C474 1.399 . S
C479 C478 1.394 . S
C479 C480 1.516 . S
C480 C479 1.516 . S
C480 C481 1.502 . S
C480 C482 1.561 . S
C480 C483 1.526 . S
C481 H465 0.959 . S
C481 H466 0.959 . S
C481 H467 0.961 . S
C481 C480 1.502 . S
C482 H468 0.960 . S
C482 H469 0.961 . S
C482 H470 0.959 . S
C482 C480 1.561 . S
C483 C480 1.526 . S
C483 C484 1.396 . S
C483 C488 1.390 . S
C484 C478 1.465 . S
C484 C483 1.396 . S
C484 C485 1.399 . S
C485 H471 0.929 . S
C485 C484 1.399 . S
C485 C486 1.385 . S
C486 H472 0.931 . S
C486 C485 1.385 . S
C486 C487 1.389 . S
C487 C486 1.389 . S
C487 C488 1.387 . S
C488 H473 0.930 . S
C488 C483 1.390 . S
C488 C487 1.387 . S
H489 C501 0.930 . S
H490 C503 0.930 . S
H491 C504 0.930 . S
H492 C508 0.959 . S
H493 C508 0.959 . S
H494 C508 0.961 . S
H495 C509 0.960 . S
H496 C509 0.961 . S
H497 C509 0.959 . S
H498 C512 0.929 . S
H499 C513 0.931 . S
H500 C515 0.930 . S
C501 H489 0.930 . S
C501 C502 1.399 . S
C501 C506 1.399 . S
C502 C501 1.399 . S
C502 C503 1.376 . S
C503 H490 0.930 . S
C503 C502 1.376 . S
C503 C504 1.388 . S
C504 H491 0.930 . S
C504 C503 1.388 . S
C504 C505 1.390 . S
C505 C504 1.390 . S
C505 C506 1.394 . S
C505 C511 1.465 . S
C506 C501 1.399 . S
C506 C505 1.394 . S
C506 C507 1.516 . S
C507 C506 1.516 . S
C507 C508 1.502 . S
C507 C509 1.561 . S
C507 C510 1.526 . S
C508 H492 0.959 . S
C508 H493 0.959 . S
C508 H494 0.961 . S
C508 C507 1.502 . S
C509 H495 0.960 . S
C509 H496 0.961 . S
C509 H497 0.959 . S
C509 C507 1.561 . S
C510 C507 1.526 . S
C510 C511 1.396 . S
C510 C515 1.390 . S
C511 C505 1.465 . S
C511 C510 1.396 . S
C511 C512 1.399 . S
C512 H498 0.929 . S
C512 C511 1.399 . S
C512 C513 1.385 . S
C513 H499 0.931 . S
C513 C512 1.385 . S
C513 C514 1.389 . S
C514 C513 1.389 . S
C514 C515 1.387 . S
C515 H500 0.930 . S
C515 C510 1.390 . S
C515 C514 1.387 . S
H516 C528 0.930 . S
H517 C530 0.930 . S
H518 C531 0.930 . S
H519 C535 0.959 . S
H520 C535 0.959 . S
H521 C535 0.961 . S
H522 C536 0.960 . S
H523 C536 0.961 . S
H524 C536 0.959 . S
H525 C539 0.929 . S
H526 C540 0.931 . S
H527 C542 0.930 . S
C528 H516 0.930 . S
C528 C529 1.399 . S
C528 C533 1.399 . S
C529 C528 1.399 . S
C529 C530 1.376 . S
C530 H517 0.930 . S
C530 C529 1.376 . S
C530 C531 1.388 . S
C531 H518 0.930 . S
C531 C530 1.388 . S
C531 C532 1.390 . S
C532 C531 1.390 . S
C532 C533 1.394 . S
C532 C538 1.465 . S
C533 C528 1.399 . S
C533 C532 1.394 . S
C533 C534 1.516 . S
C534 C533 1.516 . S
C534 C535 1.502 . S
C534 C536 1.561 . S
C534 C537 1.526 . S
C535 H519 0.959 . S
C535 H520 0.959 . S
C535 H521 0.961 . S
C535 C534 1.502 . S
C536 H522 0.960 . S
C536 H523 0.961 . S
C536 H524 0.959 . S
C536 C534 1.561 . S
C537 C534 1.526 . S
C537 C538 1.396 . S
C537 C542 1.390 . S
C538 C532 1.465 . S
C538 C537 1.396 . S
C538 C539 1.399 . S
C539 H525 0.929 . S
C539 C538 1.399 . S
C539 C540 1.385 . S
C540 H526 0.931 . S
C540 C539 1.385 . S
C540 C541 1.389 . S
C541 C540 1.389 . S
C541 C542 1.387 . S
C542 H527 0.930 . S
C542 C537 1.390 . S
C542 C541 1.387 . S
H543 C555 0.930 . S
H544 C557 0.930 . S
H545 C558 0.930 . S
H546 C562 0.959 . S
H547 C562 0.959 . S
H548 C562 0.961 . S
H549 C563 0.960 . S
H550 C563 0.961 . S
H551 C563 0.959 . S
H552 C566 0.929 . S
H553 C567 0.931 . S
H554 C569 0.930 . S
C555 H543 0.930 . S
C555 C556 1.399 . S
C555 C560 1.399 . S
C556 C555 1.399 . S
C556 C557 1.376 . S
C557 H544 0.930 . S
C557 C556 1.376 . S
C557 C558 1.388 . S
C558 H545 0.930 . S
C558 C557 1.388 . S
C558 C559 1.390 . S
C559 C558 1.390 . S
C559 C560 1.394 . S
C559 C565 1.465 . S
C560 C555 1.399 . S
C560 C559 1.394 . S
C560 C561 1.516 . S
C561 C560 1.516 . S
C561 C562 1.502 . S
C561 C563 1.561 . S
C561 C564 1.526 . S
C562 H546 0.959 . S
C562 H547 0.959 . S
C562 H548 0.961 . S
C562 C561 1.502 . S
C563 H549 0.960 . S
C563 H550 0.961 . S
C563 H551 0.959 . S
C563 C561 1.561 . S
C564 C561 1.526 . S
C564 C565 1.396 . S
C564 C569 1.390 . S
C565 C559 1.465 . S
C565 C564 1.396 . S
C565 C566 1.399 . S
C566 H552 0.929 . S
C566 C565 1.399 . S
C566 C567 1.385 . S
C567 H553 0.931 . S
C567 C566 1.385 . S
C567 C568 1.389 . S
C568 C567 1.389 . S
C568 C569 1.387 . S
C569 H554 0.930 . S
C569 C564 1.390 . S
C569 C568 1.387 . S
H570 C582 0.930 . S
H571 C584 0.930 . S
H572 C585 0.930 . S
H573 C589 0.959 . S
H574 C589 0.959 . S
H575 C589 0.961 . S
H576 C590 0.960 . S
H577 C590 0.961 . S
H578 C590 0.959 . S
H579 C593 0.929 . S
H580 C594 0.931 . S
H581 C596 0.930 . S
C582 H570 0.930 . S
C582 C583 1.399 . S
C582 C587 1.399 . S
C583 C582 1.399 . S
C583 C584 1.376 . S
C584 H571 0.930 . S
C584 C583 1.376 . S
C584 C585 1.388 . S
C585 H572 0.930 . S
C585 C584 1.388 . S
C585 C586 1.390 . S
C586 C585 1.390 . S
C586 C587 1.394 . S
C586 C592 1.465 . S
C587 C582 1.399 . S
C587 C586 1.394 . S
C587 C588 1.516 . S
C588 C587 1.516 . S
C588 C589 1.502 . S
C588 C590 1.561 . S
C588 C591 1.526 . S
C589 H573 0.959 . S
C589 H574 0.959 . S
C589 H575 0.961 . S
C589 C588 1.502 . S
C590 H576 0.960 . S
C590 H577 0.961 . S
C590 H578 0.959 . S
C590 C588 1.561 . S
C591 C588 1.526 . S
C591 C592 1.396 . S
C591 C596 1.390 . S
C592 C586 1.465 . S
C592 C591 1.396 . S
C592 C593 1.399 . S
C593 H579 0.929 . S
C593 C592 1.399 . S
C593 C594 1.385 . S
C594 H580 0.931 . S
C594 C593 1.385 . S
C594 C595 1.389 . S
C595 C594 1.389 . S
C595 C596 1.387 . S
C596 H581 0.930 . S
C596 C591 1.390 . S
C596 C595 1.387 . S
H597 C609 0.930 . S
H598 C611 0.930 . S
H599 C612 0.930 . S
H600 C616 0.959 . S
H601 C616 0.959 . S
H602 C616 0.961 . S
H603 C617 0.960 . S
H604 C617 0.961 . S
H605 C617 0.959 . S
H606 C620 0.929 . S
H607 C621 0.931 . S
H608 C623 0.930 . S
C609 H597 0.930 . S
C609 C610 1.399 . S
C609 C614 1.399 . S
C610 C609 1.399 . S
C610 C611 1.376 . S
C611 H598 0.930 . S
C611 C610 1.376 . S
C611 C612 1.388 . S
C612 H599 0.930 . S
C612 C611 1.388 . S
C612 C613 1.390 . S
C613 C612 1.390 . S
C613 C614 1.394 . S
C613 C619 1.465 . S
C614 C609 1.399 . S
C614 C613 1.394 . S
C614 C615 1.516 . S
C615 C614 1.516 . S
C615 C616 1.502 . S
C615 C617 1.561 . S
C615 C618 1.526 . S
C616 H600 0.959 . S
C616 H601 0.959 . S
C616 H602 0.961 . S
C616 C615 1.502 . S
C617 H603 0.960 . S
C617 H604 0.961 . S
C617 H605 0.959 . S
C617 C615 1.561 . S
C618 C615 1.526 . S
C618 C619 1.396 . S
C618 C623 1.390 . S
C619 C613 1.465 . S
C619 C618 1.396 . S
C619 C620 1.399 . S
C620 H606 0.929 . S
C620 C619 1.399 . S
C620 C621 1.385 . S
C621 H607 0.931 . S
C621 C620 1.385 . S
C621 C622 1.389 . S
C622 C621 1.389 . S
C622 C623 1.387 . S
C623 H608 0.930 . S
C623 C618 1.390 . S
C623 C622 1.387 . S
H624 C636 0.930 . S
H625 C638 0.930 . S
H626 C639 0.930 . S
H627 C643 0.959 . S
H628 C643 0.959 . S
H629 C643 0.961 . S
H630 C644 0.960 . S
H631 C644 0.961 . S
H632 C644 0.959 . S
H633 C647 0.929 . S
H634 C648 0.931 . S
H635 C650 0.930 . S
C636 H624 0.930 . S
C636 C637 1.399 . S
C636 C641 1.399 . S
C637 C636 1.399 . S
C637 C638 1.376 . S
C638 H625 0.930 . S
C638 C637 1.376 . S
C638 C639 1.388 . S
C639 H626 0.930 . S
C639 C638 1.388 . S
C639 C640 1.390 . S
C640 C639 1.390 . S
C640 C641 1.394 . S
C640 C646 1.465 . S
C641 C636 1.399 . S
C641 C640 1.394 . S
C641 C642 1.516 . S
C642 C641 1.516 . S
C642 C643 1.502 . S
C642 C644 1.561 . S
C642 C645 1.526 . S
C643 H627 0.959 . S
C643 H628 0.959 . S
C643 H629 0.961 . S
C643 C642 1.502 . S
C644 H630 0.960 . S
C644 H631 0.961 . S
C644 H632 0.959 . S
C644 C642 1.561 . S
C645 C642 1.526 . S
C645 C646 1.396 . S
C645 C650 1.390 . S
C646 C640 1.465 . S
C646 C645 1.396 . S
C646 C647 1.399 . S
C647 H633 0.929 . S
C647 C646 1.399 . S
C647 C648 1.385 . S
C648 H634 0.931 . S
C648 C647 1.385 . S
C648 C649 1.389 . S
C649 C648 1.389 . S
C649 C650 1.387 . S
C650 H635 0.930 . S
C650 C645 1.390 . S
C650 C649 1.387 . S
H651 C663 0.930 . S
H652 C665 0.930 . S
H653 C666 0.930 . S
H654 C670 0.959 . S
H655 C670 0.959 . S
H656 C670 0.961 . S
H657 C671 0.960 . S
H658 C671 0.961 . S
H659 C671 0.959 . S
H660 C674 0.929 . S
H661 C675 0.931 . S
H662 C677 0.930 . S
C663 H651 0.930 . S
C663 C664 1.399 . S
C663 C668 1.399 . S
C664 C663 1.399 . S
C664 C665 1.376 . S
C665 H652 0.930 . S
C665 C664 1.376 . S
C665 C666 1.388 . S
C666 H653 0.930 . S
C666 C665 1.388 . S
C666 C667 1.390 . S
C667 C666 1.390 . S
C667 C668 1.394 . S
C667 C673 1.465 . S
C668 C663 1.399 . S
C668 C667 1.394 . S
C668 C669 1.516 . S
C669 C668 1.516 . S
C669 C670 1.502 . S
C669 C671 1.561 . S
C669 C672 1.526 . S
C670 H654 0.959 . S
C670 H655 0.959 . S
C670 H656 0.961 . S
C670 C669 1.502 . S
C671 H657 0.960 . S
C671 H658 0.961 . S
C671 H659 0.959 . S
C671 C669 1.561 . S
C672 C669 1.526 . S
C672 C673 1.396 . S
C672 C677 1.390 . S
C673 C667 1.465 . S
C673 C672 1.396 . S
C673 C674 1.399 . S
C674 H660 0.929 . S
C674 C673 1.399 . S
C674 C675 1.385 . S
C675 H661 0.931 . S
C675 C674 1.385 . S
C675 C676 1.389 . S
C676 C675 1.389 . S
C676 C677 1.387 . S
C677 H662 0.930 . S
C677 C672 1.390 . S
C677 C676 1.387 . S
H678 C690 0.930 . S
H679 C692 0.930 . S
H680 C693 0.930 . S
H681 C697 0.959 . S
H682 C697 0.959 . S
H683 C697 0.961 . S
H684 C698 0.960 . S
H685 C698 0.961 . S
H686 C698 0.959 . S
H687 C701 0.929 . S
H688 C702 0.931 . S
H689 C704 0.930 . S
C690 H678 0.930 . S
C690 C691 1.399 . S
C690 C695 1.399 . S
C691 C690 1.399 . S
C691 C692 1.376 . S
C692 H679 0.930 . S
C692 C691 1.376 . S
C692 C693 1.388 . S
C693 H680 0.930 . S
C693 C692 1.388 . S
C693 C694 1.390 . S
C694 C693 1.390 . S
C694 C695 1.394 . S
C694 C700 1.465 . S
C695 C690 1.399 . S
C695 C694 1.394 . S
C695 C696 1.516 . S
C696 C695 1.516 . S
C696 C697 1.502 . S
C696 C698 1.561 . S
C696 C699 1.526 . S
C697 H681 0.959 . S
C697 H682 0.959 . S
C697 H683 0.961 . S
C697 C696 1.502 . S
C698 H684 0.960 . S
C698 H685 0.961 . S
C698 H686 0.959 . S
C698 C696 1.561 . S
C699 C696 1.526 . S
C699 C700 1.396 . S
C699 C704 1.390 . S
C700 C694 1.465 . S
C700 C699 1.396 . S
C700 C701 1.399 . S
C701 H687 0.929 . S
C701 C700 1.399 . S
C701 C702 1.385 . S
C702 H688 0.931 . S
C702 C701 1.385 . S
C702 C703 1.389 . S
C703 C702 1.389 . S
C703 C704 1.387 . S
C704 H689 0.930 . S
C704 C699 1.390 . S
C704 C703 1.387 . S
H705 C717 0.930 . S
H706 C719 0.930 . S
H707 C720 0.930 . S
H708 C724 0.959 . S
H709 C724 0.959 . S
H710 C724 0.961 . S
H711 C725 0.960 . S
H712 C725 0.961 . S
H713 C725 0.959 . S
H714 C728 0.929 . S
H715 C729 0.931 . S
H716 C731 0.930 . S
C717 H705 0.930 . S
C717 C718 1.399 . S
C717 C722 1.399 . S
C718 C717 1.399 . S
C718 C719 1.376 . S
C719 H706 0.930 . S
C719 C718 1.376 . S
C719 C720 1.388 . S
C720 H707 0.930 . S
C720 C719 1.388 . S
C720 C721 1.390 . S
C721 C720 1.390 . S
C721 C722 1.394 . S
C721 C727 1.465 . S
C722 C717 1.399 . S
C722 C721 1.394 . S
C722 C723 1.516 . S
C723 C722 1.516 . S
C723 C724 1.502 . S
C723 C725 1.561 . S
C723 C726 1.526 . S
C724 H708 0.959 . S
C724 H709 0.959 . S
C724 H710 0.961 . S
C724 C723 1.502 . S
C725 H711 0.960 . S
C725 H712 0.961 . S
C725 H713 0.959 . S
C725 C723 1.561 . S
C726 C723 1.526 . S
C726 C727 1.396 . S
C726 C731 1.390 . S
C727 C721 1.465 . S
C727 C726 1.396 . S
C727 C728 1.399 . S
C728 H714 0.929 . S
C728 C727 1.399 . S
C728 C729 1.385 . S
C729 H715 0.931 . S
C729 C728 1.385 . S
C729 C730 1.389 . S
C730 C729 1.389 . S
C730 C731 1.387 . S
C731 H716 0.930 . S
C731 C726 1.390 . S
C731 C730 1.387 . S
H732 C744 0.930 . S
H733 C746 0.930 . S
H734 C747 0.930 . S
H735 C751 0.959 . S
H736 C751 0.959 . S
H737 C751 0.961 . S
H738 C752 0.960 . S
H739 C752 0.961 . S
H740 C752 0.959 . S
H741 C755 0.929 . S
H742 C756 0.931 . S
H743 C758 0.930 . S
C744 H732 0.930 . S
C744 C745 1.399 . S
C744 C749 1.399 . S
C745 C744 1.399 . S
C745 C746 1.376 . S
C746 H733 0.930 . S
C746 C745 1.376 . S
C746 C747 1.388 . S
C747 H734 0.930 . S
C747 C746 1.388 . S
C747 C748 1.390 . S
C748 C747 1.390 . S
C748 C749 1.394 . S
C748 C754 1.465 . S
C749 C744 1.399 . S
C749 C748 1.394 . S
C749 C750 1.516 . S
C750 C749 1.516 . S
C750 C751 1.502 . S
C750 C752 1.561 . S
C750 C753 1.526 . S
C751 H735 0.959 . S
C751 H736 0.959 . S
C751 H737 0.961 . S
C751 C750 1.502 . S
C752 H738 0.960 . S
C752 H739 0.961 . S
C752 H740 0.959 . S
C752 C750 1.561 . S
C753 C750 1.526 . S
C753 C754 1.396 . S
C753 C758 1.390 . S
C754 C748 1.465 . S
C754 C753 1.396 . S
C754 C755 1.399 . S
C755 H741 0.929 . S
C755 C754 1.399 . S
C755 C756 1.385 . S
C756 H742 0.931 . S
C756 C755 1.385 . S
C756 C757 1.389 . S
C757 C756 1.389 . S
C757 C758 1.387 . S
C758 H743 0.930 . S
C758 C753 1.390 . S
C758 C757 1.387 . S
H759 C771 0.930 . S
H760 C773 0.930 . S
H761 C774 0.930 . S
H762 C778 0.959 . S
H763 C778 0.959 . S
H764 C778 0.961 . S
H765 C779 0.960 . S
H766 C779 0.961 . S
H767 C779 0.959 . S
H768 C782 0.929 . S
H769 C783 0.931 . S
H770 C785 0.930 . S
C771 H759 0.930 . S
C771 C772 1.399 . S
C771 C776 1.399 . S
C772 C771 1.399 . S
C772 C773 1.376 . S
C773 H760 0.930 . S
C773 C772 1.376 . S
C773 C774 1.388 . S
C774 H761 0.930 . S
C774 C773 1.388 . S
C774 C775 1.390 . S
C775 C774 1.390 . S
C775 C776 1.394 . S
C775 C781 1.465 . S
C776 C771 1.399 . S
C776 C775 1.394 . S
C776 C777 1.516 . S
C777 C776 1.516 . S
C777 C778 1.502 . S
C777 C779 1.561 . S
C777 C780 1.526 . S
C778 H762 0.959 . S
C778 H763 0.959 . S
C778 H764 0.961 . S
C778 C777 1.502 . S
C779 H765 0.960 . S
C779 H766 0.961 . S
C779 H767 0.959 . S
C779 C777 1.561 . S
C780 C777 1.526 . S
C780 C781 1.396 . S
C780 C785 1.390 . S
C781 C775 1.465 . S
C781 C780 1.396 . S
C781 C782 1.399 . S
C782 H768 0.929 . S
C782 C781 1.399 . S
C782 C783 1.385 . S
C783 H769 0.931 . S
C783 C782 1.385 . S
C783 C784 1.389 . S
C784 C783 1.389 . S
C784 C785 1.387 . S
C785 H770 0.930 . S
C785 C780 1.390 . S
C785 C784 1.387 . S
H786 C798 0.930 . S
H787 C800 0.930 . S
H788 C801 0.930 . S
H789 C805 0.959 . S
H790 C805 0.959 . S
H791 C805 0.961 . S
H792 C806 0.960 . S
H793 C806 0.961 . S
H794 C806 0.959 . S
H795 C809 0.929 . S
H796 C810 0.931 . S
H797 C812 0.930 . S
C798 H786 0.930 . S
C798 C799 1.399 . S
C798 C803 1.399 . S
C799 C798 1.399 . S
C799 C800 1.376 . S
C800 H787 0.930 . S
C800 C799 1.376 . S
C800 C801 1.388 . S
C801 H788 0.930 . S
C801 C800 1.388 . S
C801 C802 1.390 . S
C802 C801 1.390 . S
C802 C803 1.394 . S
C802 C808 1.465 . S
C803 C798 1.399 . S
C803 C802 1.394 . S
C803 C804 1.516 . S
C804 C803 1.516 . S
C804 C805 1.502 . S
C804 C806 1.561 . S
C804 C807 1.526 . S
C805 H789 0.959 . S
C805 H790 0.959 . S
C805 H791 0.961 . S
C805 C804 1.502 . S
C806 H792 0.960 . S
C806 H793 0.961 . S
C806 H794 0.959 . S
C806 C804 1.561 . S
C807 C804 1.526 . S
C807 C808 1.396 . S
C807 C812 1.390 . S
C808 C802 1.465 . S
C808 C807 1.396 . S
C808 C809 1.399 . S
C809 H795 0.929 . S
C809 C808 1.399 . S
C809 C810 1.385 . S
C810 H796 0.931 . S
C810 C809 1.385 . S
C810 C811 1.389 . S
C811 C810 1.389 . S
C811 C812 1.387 . S
C812 H797 0.930 . S
C812 C807 1.390 . S
C812 C811 1.387 . S
H813 C825 0.930 . S
H814 C827 0.930 . S
H815 C828 0.930 . S
H816 C832 0.959 . S
H817 C832 0.959 . S
H818 C832 0.961 . S
H819 C833 0.960 . S
H820 C833 0.961 . S
H821 C833 0.959 . S
H822 C836 0.929 . S
H823 C837 0.931 . S
H824 C839 0.930 . S
C825 H813 0.930 . S
C825 C826 1.399 . S
C825 C830 1.399 . S
C826 C825 1.399 . S
C826 C827 1.376 . S
C827 H814 0.930 . S
C827 C826 1.376 . S
C827 C828 1.388 . S
C828 H815 0.930 . S
C828 C827 1.388 . S
C828 C829 1.390 . S
C829 C828 1.390 . S
C829 C830 1.394 . S
C829 C835 1.465 . S
C830 C825 1.399 . S
C830 C829 1.394 . S
C830 C831 1.516 . S
C831 C830 1.516 . S
C831 C832 1.502 . S
C831 C833 1.561 . S
C831 C834 1.526 . S
C832 H816 0.959 . S
C832 H817 0.959 . S
C832 H818 0.961 . S
C832 C831 1.502 . S
C833 H819 0.960 . S
C833 H820 0.961 . S
C833 H821 0.959 . S
C833 C831 1.561 . S
C834 C831 1.526 . S
C834 C835 1.396 . S
C834 C839 1.390 . S
C835 C829 1.465 . S
C835 C834 1.396 . S
C835 C836 1.399 . S
C836 H822 0.929 . S
C836 C835 1.399 . S
C836 C837 1.385 . S
C837 H823 0.931 . S
C837 C836 1.385 . S
C837 C838 1.389 . S
C838 C837 1.389 . S
C838 C839 1.387 . S
C839 H824 0.930 . S
C839 C834 1.390 . S
C839 C838 1.387 . S
H840 C852 0.930 . S
H841 C854 0.930 . S
H842 C855 0.930 . S
H843 C859 0.959 . S
H844 C859 0.959 . S
H845 C859 0.961 . S
H846 C860 0.960 . S
H847 C860 0.961 . S
H848 C860 0.959 . S
H849 C863 0.929 . S
H850 C864 0.931 . S
H851 C866 0.930 . S
C852 H840 0.930 . S
C852 C853 1.399 . S
C852 C857 1.399 . S
C853 C852 1.399 . S
C853 C854 1.376 . S
C854 H841 0.930 . S
C854 C853 1.376 . S
C854 C855 1.388 . S
C855 H842 0.930 . S
C855 C854 1.388 . S
C855 C856 1.390 . S
C856 C855 1.390 . S
C856 C857 1.394 . S
C856 C862 1.465 . S
C857 C852 1.399 . S
C857 C856 1.394 . S
C857 C858 1.516 . S
C858 C857 1.516 . S
C858 C859 1.502 . S
C858 C860 1.561 . S
C858 C861 1.526 . S
C859 H843 0.959 . S
C859 H844 0.959 . S
C859 H845 0.961 . S
C859 C858 1.502 . S
C860 H846 0.960 . S
C860 H847 0.961 . S
C860 H848 0.959 . S
C860 C858 1.561 . S
C861 C858 1.526 . S
C861 C862 1.396 . S
C861 C866 1.390 . S
C862 C856 1.465 . S
C862 C861 1.396 . S
C862 C863 1.399 . S
C863 H849 0.929 . S
C863 C862 1.399 . S
C863 C864 1.385 . S
C864 H850 0.931 . S
C864 C863 1.385 . S
C864 C865 1.389 . S
C865 C864 1.389 . S
C865 C866 1.387 . S
C866 H851 0.930 . S
C866 C861 1.390 . S
C866 C865 1.387 . S
H867 C879 0.930 . S
H868 C881 0.930 . S
H869 C882 0.930 . S
H870 C886 0.959 . S
H871 C886 0.959 . S
H872 C886 0.961 . S
H873 C887 0.960 . S
H874 C887 0.961 . S
H875 C887 0.959 . S
H876 C890 0.929 . S
H877 C891 0.931 . S
H878 C893 0.930 . S
C879 H867 0.930 . S
C879 C880 1.399 . S
C879 C884 1.399 . S
C880 C879 1.399 . S
C880 C881 1.376 . S
C881 H868 0.930 . S
C881 C880 1.376 . S
C881 C882 1.388 . S
C882 H869 0.930 . S
C882 C881 1.388 . S
C882 C883 1.390 . S
C883 C882 1.390 . S
C883 C884 1.394 . S
C883 C889 1.465 . S
C884 C879 1.399 . S
C884 C883 1.394 . S
C884 C885 1.516 . S
C885 C884 1.516 . S
C885 C886 1.502 . S
C885 C887 1.561 . S
C885 C888 1.526 . S
C886 H870 0.959 . S
C886 H871 0.959 . S
C886 H872 0.961 . S
C886 C885 1.502 . S
C887 H873 0.960 . S
C887 H874 0.961 . S
C887 H875 0.959 . S
C887 C885 1.561 . S
C888 C885 1.526 . S
C888 C889 1.396 . S
C888 C893 1.390 . S
C889 C883 1.465 . S
C889 C888 1.396 . S
C889 C890 1.399 . S
C890 H876 0.929 . S
C890 C889 1.399 . S
C890 C891 1.385 . S
C891 H877 0.931 . S
C891 C890 1.385 . S
C891 C892 1.389 . S
C892 C891 1.389 . S
C892 C893 1.387 . S
C893 H878 0.930 . S
C893 C888 1.390 . S
C893 C892 1.387 . S
H894 C906 0.930 . S
H895 C908 0.930 . S
H896 C909 0.930 . S
H897 C913 0.959 . S
H898 C913 0.959 . S
H899 C913 0.961 . S
H900 C914 0.960 . S
H901 C914 0.961 . S
H902 C914 0.959 . S
H903 C917 0.929 . S
H904 C918 0.931 . S
H905 C920 0.930 . S
C906 H894 0.930 . S
C906 C907 1.399 . S
C906 C911 1.399 . S
C907 C906 1.399 . S
C907 C908 1.376 . S
C908 H895 0.930 . S
C908 C907 1.376 . S
C908 C909 1.388 . S
C909 H896 0.930 . S
C909 C908 1.388 . S
C909 C910 1.390 . S
C910 C909 1.390 . S
C910 C911 1.394 . S
C910 C916 1.465 . S
C911 C906 1.399 . S
C911 C910 1.394 . S
C911 C912 1.516 . S
C912 C911 1.516 . S
C912 C913 1.502 . S
C912 C914 1.561 . S
C912 C915 1.526 . S
C913 H897 0.959 . S
C913 H898 0.959 . S
C913 H899 0.961 . S
C913 C912 1.502 . S
C914 H900 0.960 . S
C914 H901 0.961 . S
C914 H902 0.959 . S
C914 C912 1.561 . S
C915 C912 1.526 . S
C915 C916 1.396 . S
C915 C920 1.390 . S
C916 C910 1.465 . S
C916 C915 1.396 . S
C916 C917 1.399 . S
C917 H903 0.929 . S
C917 C916 1.399 . S
C917 C918 1.385 . S
C918 H904 0.931 . S
C918 C917 1.385 . S
C918 C919 1.389 . S
C919 C918 1.389 . S
C919 C920 1.387 . S
C920 H905 0.930 . S
C920 C915 1.390 . S
C920 C919 1.387 . S
H921 C933 0.930 . S
H922 C935 0.930 . S
H923 C936 0.930 . S
H924 C940 0.959 . S
H925 C940 0.959 . S
H926 C940 0.961 . S
H927 C941 0.960 . S
H928 C941 0.961 . S
H929 C941 0.959 . S
H930 C944 0.929 . S
H931 C945 0.931 . S
H932 C947 0.930 . S
C933 H921 0.930 . S
C933 C934 1.399 . S
C933 C938 1.399 . S
C934 C933 1.399 . S
C934 C935 1.376 . S
C935 H922 0.930 . S
C935 C934 1.376 . S
C935 C936 1.388 . S
C936 H923 0.930 . S
C936 C935 1.388 . S
C936 C937 1.390 . S
C937 C936 1.390 . S
C937 C938 1.394 . S
C937 C943 1.465 . S
C938 C933 1.399 . S
C938 C937 1.394 . S
C938 C939 1.516 . S
C939 C938 1.516 . S
C939 C940 1.502 . S
C939 C941 1.561 . S
C939 C942 1.526 . S
C940 H924 0.959 . S
C940 H925 0.959 . S
C940 H926 0.961 . S
C940 C939 1.502 . S
C941 H927 0.960 . S
C941 H928 0.961 . S
C941 H929 0.959 . S
C941 C939 1.561 . S
C942 C939 1.526 . S
C942 C943 1.396 . S
C942 C947 1.390 . S
C943 C937 1.465 . S
C943 C942 1.396 . S
C943 C944 1.399 . S
C944 H930 0.929 . S
C944 C943 1.399 . S
C944 C945 1.385 . S
C945 H931 0.931 . S
C945 C944 1.385 . S
C945 C946 1.389 . S
C946 C945 1.389 . S
C946 C947 1.387 . S
C947 H932 0.930 . S
C947 C942 1.390 . S
C947 C946 1.387 . S
H948 C960 0.930 . S
H949 C962 0.930 . S
H950 C963 0.930 . S
H951 C967 0.959 . S
H952 C967 0.959 . S
H953 C967 0.961 . S
H954 C968 0.960 . S
H955 C968 0.961 . S
H956 C968 0.959 . S
H957 C971 0.929 . S
H958 C972 0.931 . S
H959 C974 0.930 . S
C960 H948 0.930 . S
C960 C961 1.399 . S
C960 C965 1.399 . S
C961 C960 1.399 . S
C961 C962 1.376 . S
C962 H949 0.930 . S
C962 C961 1.376 . S
C962 C963 1.388 . S
C963 H950 0.930 . S
C963 C962 1.388 . S
C963 C964 1.390 . S
C964 C963 1.390 . S
C964 C965 1.394 . S
C964 C970 1.465 . S
C965 C960 1.399 . S
C965 C964 1.394 . S
C965 C966 1.516 . S
C966 C965 1.516 . S
C966 C967 1.502 . S
C966 C968 1.561 . S
C966 C969 1.526 . S
C967 H951 0.959 . S
C967 H952 0.959 . S
C967 H953 0.961 . S
C967 C966 1.502 . S
C968 H954 0.960 . S
C968 H955 0.961 . S
C968 H956 0.959 . S
C968 C966 1.561 . S
C969 C966 1.526 . S
C969 C970 1.396 . S
C969 C974 1.390 . S
C970 C964 1.465 . S
C970 C969 1.396 . S
C970 C971 1.399 . S
C971 H957 0.929 . S
C971 C970 1.399 . S
C971 C972 1.385 . S
C972 H958 0.931 . S
C972 C971 1.385 . S
C972 C973 1.389 . S
C973 C972 1.389 . S
C973 C974 1.387 . S
C974 H959 0.930 . S
C974 C969 1.390 . S
C974 C973 1.387 . S
H975 C987 0.930 . S
H976 C989 0.930 . S
H977 C990 0.930 . S
H978 C994 0.959 . S
H979 C994 0.959 . S
H980 C994 0.961 . S
H981 C995 0.960 . S
H982 C995 0.961 . S
H983 C995 0.959 . S
H984 C998 0.929 . S
H985 C999 0.931 . S
H986 C1001 0.930 . S
C987 H975 0.930 . S
C987 C988 1.399 . S
C987 C992 1.399 . S
C988 C987 1.399 . S
C988 C989 1.376 . S
C989 H976 0.930 . S
C989 C988 1.376 . S
C989 C990 1.388 . S
C990 H977 0.930 . S
C990 C989 1.388 . S
C990 C991 1.390 . S
C991 C990 1.390 . S
C991 C992 1.394 . S
C991 C997 1.465 . S
C992 C987 1.399 . S
C992 C991 1.394 . S
C992 C993 1.516 . S
C993 C992 1.516 . S
C993 C994 1.502 . S
C993 C995 1.561 . S
C993 C996 1.526 . S
C994 H978 0.959 . S
C994 H979 0.959 . S
C994 H980 0.961 . S
C994 C993 1.502 . S
C995 H981 0.960 . S
C995 H982 0.961 . S
C995 H983 0.959 . S
C995 C993 1.561 . S
C996 C993 1.526 . S
C996 C997 1.396 . S
C996 C1001 1.390 . S
C997 C991 1.465 . S
C997 C996 1.396 . S
C997 C998 1.399 . S
C998 H984 0.929 . S
C998 C997 1.399 . S
C998 C999 1.385 . S
C999 H985 0.931 . S
C999 C998 1.385 . S
C999 C1000 1.389 . S
C1000 C999 1.389 . S
C1000 C1001 1.387 . S
C1001 H986 0.930 . S
C1001 C996 1.390 . S
C1001 C1000 1.387 . S
H1002 C1014 0.930 . S
H1003 C1016 0.930 . S
H1004 C1017 0.930 . S
H1005 C1021 0.959 . S
H1006 C1021 0.959 . S
H1007 C1021 0.961 . S
H1008 C1022 0.960 . S
H1009 C1022 0.961 . S
H1010 C1022 0.959 . S
H1011 C1025 0.929 . S
H1012 C1026 0.931 . S
H1013 C1028 0.930 . S
C1014 H1002 0.930 . S
C1014 C1015 1.399 . S
C1014 C1019 1.399 . S
C1015 C1014 1.399 . S
C1015 C1016 1.376 . S
C1016 H1003 0.930 . S
C1016 C1015 1.376 . S
C1016 C1017 1.388 . S
C1017 H1004 0.930 . S
C1017 C1016 1.388 . S
C1017 C1018 1.390 . S
C1018 C1017 1.390 . S
C1018 C1019 1.394 . S
C1018 C1024 1.465 . S
C1019 C1014 1.399 . S
C1019 C1018 1.394 . S
C1019 C1020 1.516 . S
C1020 C1019 1.516 . S
C1020 C1021 1.502 . S
C1020 C1022 1.561 . S
C1020 C1023 1.526 . S
C1021 H1005 0.959 . S
C1021 H1006 0.959 . S
C1021 H1007 0.961 . S
C1021 C1020 1.502 . S
C1022 H1008 0.960 . S
C1022 H1009 0.961 . S
C1022 H1010 0.959 . S
C1022 C1020 1.561 . S
C1023 C1020 1.526 . S
C1023 C1024 1.396 . S
C1023 C1028 1.390 . S
C1024 C1018 1.465 . S
C1024 C1023 1.396 . S
C1024 C1025 1.399 . S
C1025 H1011 0.929 . S
C1025 C1024 1.399 . S
C1025 C1026 1.385 . S
C1026 H1012 0.931 . S
C1026 C1025 1.385 . S
C1026 C1027 1.389 . S
C1027 C1026 1.389 . S
C1027 C1028 1.387 . S
C1028 H1013 0.930 . S
C1028 C1023 1.390 . S
C1028 C1027 1.387 . S
H1029 C1041 0.930 . S
H1030 C1043 0.930 . S
H1031 C1044 0.930 . S
H1032 C1048 0.959 . S
H1033 C1048 0.959 . S
H1034 C1048 0.961 . S
H1035 C1049 0.960 . S
H1036 C1049 0.961 . S
H1037 C1049 0.959 . S
H1038 C1052 0.929 . S
H1039 C1053 0.931 . S
H1040 C1055 0.930 . S
C1041 H1029 0.930 . S
C1041 C1042 1.399 . S
C1041 C1046 1.399 . S
C1042 C1041 1.399 . S
C1042 C1043 1.376 . S
C1043 H1030 0.930 . S
C1043 C1042 1.376 . S
C1043 C1044 1.388 . S
C1044 H1031 0.930 . S
C1044 C1043 1.388 . S
C1044 C1045 1.390 . S
C1045 C1044 1.390 . S
C1045 C1046 1.394 . S
C1045 C1051 1.465 . S
C1046 C1041 1.399 . S
C1046 C1045 1.394 . S
C1046 C1047 1.516 . S
C1047 C1046 1.516 . S
C1047 C1048 1.502 . S
C1047 C1049 1.561 . S
C1047 C1050 1.526 . S
C1048 H1032 0.959 . S
C1048 H1033 0.959 . S
C1048 H1034 0.961 . S
C1048 C1047 1.502 . S
C1049 H1035 0.960 . S
C1049 H1036 0.961 . S
C1049 H1037 0.959 . S
C1049 C1047 1.561 . S
C1050 C1047 1.526 . S
C1050 C1051 1.396 . S
C1050 C1055 1.390 . S
C1051 C1045 1.465 . S
C1051 C1050 1.396 . S
C1051 C1052 1.399 . S
C1052 H1038 0.929 . S
C1052 C1051 1.399 . S
C1052 C1053 1.385 . S
C1053 H1039 0.931 . S
C1053 C1052 1.385 . S
C1053 C1054 1.389 . S
C1054 C1053 1.389 . S
C1054 C1055 1.387 . S
C1055 H1040 0.930 . S
C1055 C1050 1.390 . S
C1055 C1054 1.387 . S
C421 C15 1.548 . S
C433 C363 1.515 . S
C460 C327 1.576 . S
C448 C55 1.574 . S
C487 C350 1.532 . S
C475 C95 1.510 . S
C514 C338 1.549 . S
C502 C135 1.585 . S
C541 C407 1.534 . S
C529 C175 1.535 . S
C568 C371 1.568 . S
C556 C215 1.597 . S
C583 C255 1.498 . S
C595 C394 1.542 . S
C622 C382 1.555 . S
C610 C295 1.578 . S
C637 C2 1.512 . S
C649 C404 1.511 . S
C676 C374 1.583 . S
C664 C61 1.490 . S
C691 C82 1.503 . S
C703 C393 1.551 . S
C718 C141 1.626 . S
C730 C379 1.626 . S
C757 C360 1.513 . S
C745 C162 1.516 1_545 S
C772 C221 1.528 1_565 S
C784 C330 1.590 . S
C811 C349 1.559 . S
C799 C242 1.527 1_545 S
C838 C335 1.616 . S
C826 C301 1.585 . S
C865 C385 1.572 . S
C853 C21 1.571 . S
C892 C401 1.543 . S
C880 C42 1.508 . S
C907 C101 1.426 . S
C919 C372 1.530 . S
C946 C396 1.520 . S
C934 C122 1.531 . S
C973 C341 1.545 . S
C961 C181 1.533 . S
C988 C202 1.547 . S
C1000 C357 1.562 . S
C1015 C261 1.499 . S
C1027 C328 1.523 . S
C1042 C282 1.530 . S
C1054 C352 1.520 . S
