# Generated by pormake.
# Topology ctn, (3,4)-cn, num edge types: 1
# Building blocks:
#     Node 0, Type 0, BuildingBlock: OLANEW_clean_sbu_2, # of connection points: 3
#     Node 1, Type 0, BuildingBlock: OLANEW_clean_sbu_2, # of connection points: 3
#     Node 2, Type 0, BuildingBlock: OLANEW_clean_sbu_2, # of connection points: 3
#     Node 3, Type 0, BuildingBlock: OLANEW_clean_sbu_2, # of connection points: 3
#     Node 4, Type 0, BuildingBlock: OLANEW_clean_sbu_2, # of connection points: 3
#     Node 5, Type 0, BuildingBlock: OLANEW_clean_sbu_2, # of connection points: 3
#     Node 6, Type 0, BuildingBlock: OLANEW_clean_sbu_2, # of connection points: 3
#     Node 7, Type 0, BuildingBlock: OLANEW_clean_sbu_2, # of connection points: 3
#     Node 8, Type 0, BuildingBlock: OLANEW_clean_sbu_2, # of connection points: 3
#     Node 9, Type 0, BuildingBlock: OLANEW_clean_sbu_2, # of connection points: 3
#     Node 10, Type 0, BuildingBlock: OLANEW_clean_sbu_2, # of connection points: 3
#     Node 11, Type 0, BuildingBlock: OLANEW_clean_sbu_2, # of connection points: 3
#     Node 12, Type 0, BuildingBlock: OLANEW_clean_sbu_2, # of connection points: 3
#     Node 13, Type 0, BuildingBlock: OLANEW_clean_sbu_2, # of connection points: 3
#     Node 14, Type 0, BuildingBlock: OLANEW_clean_sbu_2, # of connection points: 3
#     Node 15, Type 0, BuildingBlock: OLANEW_clean_sbu_2, # of connection points: 3
#     Node 16, Type 1, BuildingBlock: AZAVOO_clean_sbu_0, # of connection points: 4
#     Node 17, Type 1, BuildingBlock: AZAVOO_clean_sbu_0, # of connection points: 4
#     Node 18, Type 1, BuildingBlock: AZAVOO_clean_sbu_0, # of connection points: 4
#     Node 19, Type 1, BuildingBlock: AZAVOO_clean_sbu_0, # of connection points: 4
#     Node 20, Type 1, BuildingBlock: AZAVOO_clean_sbu_0, # of connection points: 4
#     Node 21, Type 1, BuildingBlock: AZAVOO_clean_sbu_0, # of connection points: 4
#     Node 22, Type 1, BuildingBlock: AZAVOO_clean_sbu_0, # of connection points: 4
#     Node 23, Type 1, BuildingBlock: AZAVOO_clean_sbu_0, # of connection points: 4
#     Node 24, Type 1, BuildingBlock: AZAVOO_clean_sbu_0, # of connection points: 4
#     Node 25, Type 1, BuildingBlock: AZAVOO_clean_sbu_0, # of connection points: 4
#     Node 26, Type 1, BuildingBlock: AZAVOO_clean_sbu_0, # of connection points: 4
#     Node 27, Type 1, BuildingBlock: AZAVOO_clean_sbu_0, # of connection points: 4
#     Edge 28, Type (0, 1), BuildingBlock: OJICUG_clean_linker_0, # of connection points: 2
#     Edge 29, Type (0, 1), BuildingBlock: OJICUG_clean_linker_0, # of connection points: 2
#     Edge 30, Type (0, 1), BuildingBlock: OJICUG_clean_linker_0, # of connection points: 2
#     Edge 31, Type (0, 1), BuildingBlock: OJICUG_clean_linker_0, # of connection points: 2
#     Edge 32, Type (0, 1), BuildingBlock: OJICUG_clean_linker_0, # of connection points: 2
#     Edge 33, Type (0, 1), BuildingBlock: OJICUG_clean_linker_0, # of connection points: 2
#     Edge 34, Type (0, 1), BuildingBlock: OJICUG_clean_linker_0, # of connection points: 2
#     Edge 35, Type (0, 1), BuildingBlock: OJICUG_clean_linker_0, # of connection points: 2
#     Edge 36, Type (0, 1), BuildingBlock: OJICUG_clean_linker_0, # of connection points: 2
#     Edge 37, Type (0, 1), BuildingBlock: OJICUG_clean_linker_0, # of connection points: 2
#     Edge 38, Type (0, 1), BuildingBlock: OJICUG_clean_linker_0, # of connection points: 2
#     Edge 39, Type (0, 1), BuildingBlock: OJICUG_clean_linker_0, # of connection points: 2
#     Edge 40, Type (0, 1), BuildingBlock: OJICUG_clean_linker_0, # of connection points: 2
#     Edge 41, Type (0, 1), BuildingBlock: OJICUG_clean_linker_0, # of connection points: 2
#     Edge 42, Type (0, 1), BuildingBlock: OJICUG_clean_linker_0, # of connection points: 2
#     Edge 43, Type (0, 1), BuildingBlock: OJICUG_clean_linker_0, # of connection points: 2
#     Edge 44, Type (0, 1), BuildingBlock: OJICUG_clean_linker_0, # of connection points: 2
#     Edge 45, Type (0, 1), BuildingBlock: OJICUG_clean_linker_0, # of connection points: 2
#     Edge 46, Type (0, 1), BuildingBlock: OJICUG_clean_linker_0, # of connection points: 2
#     Edge 47, Type (0, 1), BuildingBlock: OJICUG_clean_linker_0, # of connection points: 2
#     Edge 48, Type (0, 1), BuildingBlock: OJICUG_clean_linker_0, # of connection points: 2
#     Edge 49, Type (0, 1), BuildingBlock: OJICUG_clean_linker_0, # of connection points: 2
#     Edge 50, Type (0, 1), BuildingBlock: OJICUG_clean_linker_0, # of connection points: 2
#     Edge 51, Type (0, 1), BuildingBlock: OJICUG_clean_linker_0, # of connection points: 2
#     Edge 52, Type (0, 1), BuildingBlock: OJICUG_clean_linker_0, # of connection points: 2
#     Edge 53, Type (0, 1), BuildingBlock: OJICUG_clean_linker_0, # of connection points: 2
#     Edge 54, Type (0, 1), BuildingBlock: OJICUG_clean_linker_0, # of connection points: 2
#     Edge 55, Type (0, 1), BuildingBlock: OJICUG_clean_linker_0, # of connection points: 2
#     Edge 56, Type (0, 1), BuildingBlock: OJICUG_clean_linker_0, # of connection points: 2
#     Edge 57, Type (0, 1), BuildingBlock: OJICUG_clean_linker_0, # of connection points: 2
#     Edge 58, Type (0, 1), BuildingBlock: OJICUG_clean_linker_0, # of connection points: 2
#     Edge 59, Type (0, 1), BuildingBlock: OJICUG_clean_linker_0, # of connection points: 2
#     Edge 60, Type (0, 1), BuildingBlock: OJICUG_clean_linker_0, # of connection points: 2
#     Edge 61, Type (0, 1), BuildingBlock: OJICUG_clean_linker_0, # of connection points: 2
#     Edge 62, Type (0, 1), BuildingBlock: OJICUG_clean_linker_0, # of connection points: 2
#     Edge 63, Type (0, 1), BuildingBlock: OJICUG_clean_linker_0, # of connection points: 2
#     Edge 64, Type (0, 1), BuildingBlock: OJICUG_clean_linker_0, # of connection points: 2
#     Edge 65, Type (0, 1), BuildingBlock: OJICUG_clean_linker_0, # of connection points: 2
#     Edge 66, Type (0, 1), BuildingBlock: OJICUG_clean_linker_0, # of connection points: 2
#     Edge 67, Type (0, 1), BuildingBlock: OJICUG_clean_linker_0, # of connection points: 2
#     Edge 68, Type (0, 1), BuildingBlock: OJICUG_clean_linker_0, # of connection points: 2
#     Edge 69, Type (0, 1), BuildingBlock: OJICUG_clean_linker_0, # of connection points: 2
#     Edge 70, Type (0, 1), BuildingBlock: OJICUG_clean_linker_0, # of connection points: 2
#     Edge 71, Type (0, 1), BuildingBlock: OJICUG_clean_linker_0, # of connection points: 2
#     Edge 72, Type (0, 1), BuildingBlock: OJICUG_clean_linker_0, # of connection points: 2
#     Edge 73, Type (0, 1), BuildingBlock: OJICUG_clean_linker_0, # of connection points: 2
#     Edge 74, Type (0, 1), BuildingBlock: OJICUG_clean_linker_0, # of connection points: 2
#     Edge 75, Type (0, 1), BuildingBlock: OJICUG_clean_linker_0, # of connection points: 2
# Relax obj value: 0.051
# Max RMSD: 0.174
# Mean RMSD: 0.090
data_MOF--net-ctn--node1-OLANEW_clean_sbu_2--node2-AZAVOO_clean_sbu_0--edge1-OJICUG_clean_linker_0
_symmetry_space_group_name_H-M    P1
_symmetry_Int_Tables_number       1
_symmetry_cell_setting            triclinic
loop_
_symmetry_equiv_pos_as_xyz
'x, y, z'
_cell_length_a     43.446982
_cell_length_b     45.232079
_cell_length_c     42.960654
_cell_angle_alpha  91.144083
_cell_angle_beta   98.747677
_cell_angle_gamma 99.058929
loop_
_atom_site_label
_atom_site_type_symbol
_atom_site_fract_x
_atom_site_fract_y
_atom_site_fract_z
_atom_type_partial_charge
O0 O 0.04464 0.04569 0.95542 0.0
Cd1 Cd 0.04056 -0.00462 0.97678 0.0
O2 O 0.01349 0.05831 -0.01237 0.0
Cd3 Cd 0.00588 0.01789 0.01422 0.0
O4 O -0.01509 0.00494 0.05608 0.0
C5 C 0.95688 0.00993 0.05588 0.0
O6 O 0.94208 0.01974 0.03013 0.0
C7 C 0.02974 0.06492 0.96576 0.0
C8 C 0.09402 0.96708 0.98236 0.0
O9 O 0.07304 0.96265 0.95756 0.0
O10 O 0.09023 -0.01442 0.00392 0.0
O11 O 0.34847 0.74649 0.27372 0.0
Cd12 Cd 0.29569 0.75092 0.2462 0.0
O13 O 0.32782 0.7024 0.28848 0.0
Cd14 Cd 0.28028 0.6975 0.26184 0.0
O15 O 0.23833 0.6633 0.25216 0.0
C16 C 0.21455 0.66384 0.26599 0.0
O17 O 0.21379 0.68727 0.28426 0.0
C18 C 0.35137 0.72318 0.28931 0.0
C19 C 0.29015 0.77981 0.18927 0.0
O20 O 0.29077 0.7943 0.21538 0.0
O21 O 0.29342 0.75215 0.19033 0.0
O22 O 0.95964 0.47518 0.10783 0.0
Cd23 Cd 0.91974 0.46364 0.06027 0.0
O24 O -0.00358 0.4615 0.08319 0.0
Cd25 Cd 0.96692 0.43964 0.0408 0.0
O26 O 0.96417 0.39902 0.01133 0.0
C27 C -0.01312 0.39677 -0.00362 0.0
O28 O 0.0096 0.4198 -0.0029 0.0
C29 C -0.01165 0.47261 0.10757 0.0
C30 C 0.88563 0.51047 0.04483 0.0
O31 O 0.87532 0.48921 0.06172 0.0
O32 O 0.91209 0.50967 0.03534 0.0
O33 O 0.76919 0.83745 0.23193 0.0
Cd34 Cd 0.7289 0.79327 0.23208 0.0
O35 O 0.73543 0.86855 0.21995 0.0
Cd36 Cd 0.69504 0.83556 0.22708 0.0
O37 O 0.65734 0.80964 0.24813 0.0
C38 C 0.64488 0.82328 0.26786 0.0
O39 O 0.65459 0.85213 0.27382 0.0
C40 C 0.76371 0.86349 0.22485 0.0
C41 C 0.73607 0.75385 0.18403 0.0
O42 O 0.71902 0.77444 0.17863 0.0
O43 O 0.74897 0.75118 0.21249 0.0
O44 O 0.0884 0.01323 0.52484 0.0
Cd45 Cd 0.04063 0.97582 0.5079 0.0
O46 O 0.06258 0.04813 0.50422 0.0
Cd47 Cd 0.02122 0.0181 0.48041 0.0
O48 O -0.00549 0.0036 0.43407 0.0
C49 C 0.97644 0.02072 0.42083 0.0
O50 O 0.9727 0.04473 0.43664 0.0
C51 C 0.08753 0.04066 0.51927 0.0
C52 C 0.02879 0.92463 0.54252 0.0
O53 O 0.0484 0.92674 0.52286 0.0
O54 O 0.01539 0.94734 0.54695 0.0
O55 O 0.21962 0.69125 0.84831 0.0
Cd56 Cd 0.20022 0.65262 0.80615 0.0
O57 O 0.18181 0.71361 0.82578 0.0
Cd58 Cd 0.15076 0.74621 0.81253 0.0
O59 O 0.11847 0.7545 0.77082 0.0
C60 C 0.08909 0.74457 0.76776 0.0
O61 O 0.07749 0.73144 0.79142 0.0
C62 C 0.2048 0.71336 0.84788 0.0
C63 C 0.24782 0.6291 0.7821 0.0
O64 O 0.23802 0.6526 0.77092 0.0
O65 O 0.23534 0.61696 0.8049 0.0
O66 O 0.95283 0.50527 0.42022 0.0
Cd67 Cd 0.91718 0.52038 0.45443 0.0
O68 O -0.00819 0.50895 0.46005 0.0
Cd69 Cd 0.96703 0.52967 0.49338 0.0
O70 O 0.95455 0.56578 0.52158 0.0
C71 C 0.96677 0.59199 0.51538 0.0
O72 O -0.01514 0.59481 0.49336 0.0
C73 C -0.01893 0.50233 0.43106 0.0
C74 C 0.87713 0.4715 0.47263 0.0
O75 O 0.86788 0.48675 0.44919 0.0
O76 O 0.90527 0.47935 0.48742 0.0
O77 O 0.77291 0.73682 0.83235 0.0
Cd78 Cd 0.77604 0.77254 0.78966 0.0
O79 O 0.72463 0.74422 0.83634 0.0
Cd80 Cd 0.71838 0.77953 0.80296 0.0
O81 O 0.69984 0.82014 0.78731 0.0
C82 C 0.67756 0.828 0.80003 0.0
O83 O 0.66608 0.81119 0.8215 0.0
C84 C 0.7481 0.73099 0.84508 0.0
C85 C 0.81377 0.76333 0.74372 0.0
O86 O 0.82527 0.77979 0.76871 0.0
O87 O 0.7849 0.75056 0.74096 0.0
O88 O 0.27284 0.23811 0.3322 0.0
Cd89 Cd 0.27572 0.27365 0.28935 0.0
O90 O 0.22451 0.24529 0.33626 0.0
Cd91 Cd 0.21814 0.28051 0.3028 0.0
O92 O 0.19973 0.32118 0.28724 0.0
C93 C 0.17739 0.32903 0.29986 0.0
O94 O 0.16572 0.31214 0.32118 0.0
C95 C 0.24809 0.23221 0.34499 0.0
C96 C 0.31357 0.26431 0.24358 0.0
O97 O 0.32497 0.28095 0.26846 0.0
O98 O 0.28474 0.25144 0.24084 0.0
O99 O 0.45543 0.97183 0.61177 0.0
Cd100 Cd 0.41295 0.95824 0.56664 0.0
O101 O 0.49142 0.95815 0.58597 0.0
Cd102 Cd 0.46111 0.93557 0.54439 0.0
O103 O 0.45923 0.89533 0.51459 0.0
C104 C 0.48219 0.89376 0.49977 0.0
O105 O 0.50453 0.91718 0.5009 0.0
C106 C 0.48406 0.96961 0.61054 0.0
C107 C 0.37195 0.00046 0.55702 0.0
O108 O 0.36715 0.9789 0.57551 0.0
O109 O 0.39623 0.0022 0.54311 0.0
O110 O 0.2701 0.33767 0.73185 0.0
Cd111 Cd 0.23028 0.2932 0.73255 0.0
O112 O 0.2359 0.36791 0.71774 0.0
Cd113 Cd 0.19571 0.33464 0.72478 0.0
O114 O 0.15818 0.30848 0.74583 0.0
C115 C 0.14508 0.32218 0.76494 0.0
O116 O 0.15403 0.35121 0.77023 0.0
C117 C 0.26431 0.36336 0.72368 0.0
C118 C 0.23722 0.25375 0.68443 0.0
O119 O 0.21981 0.27406 0.6792 0.0
O120 O 0.25061 0.25136 0.71278 0.0
O121 O 0.84833 0.24522 0.77274 0.0
Cd122 Cd 0.79557 0.2489 0.74466 0.0
O123 O 0.8278 0.20156 0.78863 0.0
Cd124 Cd 0.78034 0.19595 0.7617 0.0
O125 O 0.73848 0.16164 0.75186 0.0
C126 C 0.7145 0.16231 0.76534 0.0
O127 O 0.71351 0.18589 0.7833 0.0
C128 C 0.85129 0.22234 0.78903 0.0
C129 C 0.79021 0.27838 0.68808 0.0
O130 O 0.79024 0.29249 0.71427 0.0
O131 O 0.79398 0.25084 0.68891 0.0
O132 O 0.54463 0.54481 0.45407 0.0
Cd133 Cd 0.54032 0.49418 0.47468 0.0
O134 O 0.51353 0.55687 0.4866 0.0
Cd135 Cd 0.50606 0.51614 0.51271 0.0
O136 O 0.48497 0.50341 0.55455 0.0
C137 C 0.45685 0.50822 0.55409 0.0
O138 O 0.44207 0.51763 0.5281 0.0
C139 C 0.52972 0.56384 0.46477 0.0
C140 C 0.59384 0.46596 0.48076 0.0
O141 O 0.57321 0.46175 0.45568 0.0
O142 O 0.58969 0.48421 0.50238 0.0
O143 O 0.58245 0.51753 0.0278 0.0
Cd144 Cd 0.53315 0.48159 0.01277 0.0
O145 O 0.55864 0.5519 0.00313 0.0
Cd146 Cd 0.51706 0.52199 0.97958 0.0
O147 O 0.49105 0.5071 0.93306 0.0
C148 C 0.47349 0.52433 0.91914 0.0
O149 O 0.46979 0.54868 0.93438 0.0
C150 C 0.58278 0.54456 0.01987 0.0
C151 C 0.52361 0.42805 0.04405 0.0
O152 O 0.54067 0.43125 0.0221 0.0
O153 O 0.51179 0.45067 0.05232 0.0
O154 O 0.71803 0.1885 0.34948 0.0
Cd155 Cd 0.69862 0.1488 0.30845 0.0
O156 O 0.68108 0.21132 0.32585 0.0
Cd157 Cd 0.65137 0.24483 0.31171 0.0
O158 O 0.61953 0.25428 0.27017 0.0
C159 C 0.59001 0.24504 0.26718 0.0
O160 O 0.57824 0.23195 0.29078 0.0
C161 C 0.70379 0.21103 0.34823 0.0
C162 C 0.7465 0.12592 0.28423 0.0
O163 O 0.73566 0.14873 0.27244 0.0
O164 O 0.73488 0.11415 0.30767 0.0
O165 O 0.45422 0.00505 0.92201 0.0
Cd166 Cd 0.41869 0.02038 0.95626 0.0
O167 O 0.49357 0.0097 0.96156 0.0
Cd168 Cd 0.46886 0.03064 -0.0052 0.0
O169 O 0.45629 0.06682 0.02279 0.0
C170 C 0.46843 0.09304 0.01651 0.0
O171 O 0.48655 0.09585 -0.00548 0.0
C172 C 0.48261 0.00254 0.93272 0.0
C173 C 0.3782 0.97173 0.97427 0.0
O174 O 0.36915 -0.01289 0.95087 0.0
O175 O 0.40636 0.97934 -0.01089 0.0
Mg176 Mg 0.22195 0.83569 0.01337 0.0
O177 O 0.26615 0.86848 0.00616 0.0
O178 O 0.30777 0.84468 0.0151 0.0
Mg179 Mg 0.2904 0.79639 0.02676 0.0
C180 C 0.29569 0.86807 0.00789 0.0
C181 C 0.19215 0.89383 0.00792 0.0
O182 O 0.2136 0.9001 0.03322 0.0
O183 O 0.22102 0.81201 0.96527 0.0
O184 O 0.26206 0.78768 0.97691 0.0
O185 O 0.23101 0.84643 0.06581 0.0
O186 O 0.24927 0.81033 0.04295 0.0
C187 C 0.23885 0.794 0.95756 0.0
C188 C 0.24751 0.8249 0.06839 0.0
O189 O 0.19012 0.8689 -0.00717 0.0
Mg190 Mg 0.10758 0.5019 0.29559 0.0
O191 O 0.07831 0.49672 0.24541 0.0
O192 O 0.11398 0.50064 0.21262 0.0
Mg193 Mg 0.16403 0.5092 0.2398 0.0
C194 C 0.08538 0.49684 0.21754 0.0
C195 C 0.07075 0.48483 0.34883 0.0
O196 O 0.1006 0.48808 0.36169 0.0
O197 O 0.11969 0.45442 0.29085 0.0
O198 O 0.15627 0.46217 0.25921 0.0
O199 O 0.10991 0.5517 0.29594 0.0
O200 O 0.14505 0.52793 0.27876 0.0
C201 C 0.14017 0.44509 0.27628 0.0
C202 C 0.13511 0.55282 0.28308 0.0
O203 O 0.06423 0.48663 0.3191 0.0
Mg204 Mg 0.77237 0.65406 0.03318 0.0
O205 O 0.7216 0.62799 0.03172 0.0
O206 O 0.68975 0.66242 0.02958 0.0
Mg207 Mg 0.71814 0.70894 0.02807 0.0
C208 C 0.69416 0.6352 0.03088 0.0
C209 C 0.81963 0.61152 0.022 0.0
O210 O 0.8362 0.63778 0.01834 0.0
O211 O 0.76329 0.66234 0.97979 0.0
O212 O 0.73098 0.69624 0.98038 0.0
O213 O 0.77721 0.65983 0.08572 0.0
O214 O 0.7594 0.69218 0.05268 0.0
C215 C 0.74635 0.68026 0.96565 0.0
C216 C 0.7651 0.68406 0.08124 0.0
O217 O 0.79117 0.61025 0.02641 0.0
Mg218 Mg 0.89201 0.03324 0.22451 0.0
O219 O 0.86298 -0.0138 0.22104 0.0
O220 O 0.8951 0.95278 0.217 0.0
Mg221 Mg 0.94472 0.97892 0.21704 0.0
C222 C 0.86777 0.95918 0.21865 0.0
C223 C 0.84391 0.07649 0.23246 0.0
O224 O 0.85889 0.09092 0.21151 0.0
O225 O 0.91273 0.02562 0.27464 0.0
O226 O 0.94596 -0.00646 0.26927 0.0
O227 O 0.88355 0.03535 0.17239 0.0
O228 O 0.92418 0.0182 0.19914 0.0
C229 C 0.9331 0.00986 0.28647 0.0
C230 C 0.90852 0.02304 0.17226 0.0
O231 O 0.85176 0.05193 0.242 0.0
Mg232 Mg 0.27451 0.15542 0.53291 0.0
O233 O 0.22446 0.12763 0.53148 0.0
O234 O 0.19124 0.1608 0.52977 0.0
Mg235 Mg 0.21786 0.20808 0.52831 0.0
C236 C 0.19665 0.13389 0.53088 0.0
C237 C 0.29232 0.09232 0.54493 0.0
O238 O 0.27451 0.095 0.56662 0.0
O239 O 0.26475 0.16385 0.47963 0.0
O240 O 0.23104 0.1964 0.48045 0.0
O241 O 0.27955 0.16104 0.58556 0.0
O242 O 0.25999 0.19258 0.55265 0.0
C243 C 0.24703 0.18119 0.4656 0.0
C244 C 0.26635 0.18466 0.58119 0.0
O245 O 0.29572 0.11297 0.52545 0.0
Mg246 Mg 0.3911 0.53392 0.72173 0.0
O247 O 0.36243 0.48671 0.71892 0.0
O248 O 0.39506 0.45357 0.71583 0.0
Mg249 Mg 0.44454 0.47998 0.71586 0.0
C250 C 0.36758 0.45975 0.7171 0.0
C251 C 0.34439 0.57824 0.73043 0.0
O252 O 0.36109 0.59341 0.71121 0.0
O253 O 0.41161 0.52721 0.77214 0.0
O254 O 0.44525 0.49531 0.76779 0.0
O255 O 0.38285 0.53517 0.66955 0.0
O256 O 0.42359 0.5187 0.69694 0.0
C257 C 0.43206 0.51179 0.7845 0.0
C258 C 0.40797 0.52299 0.66986 0.0
O259 O 0.3506 0.55271 0.73858 0.0
Mg260 Mg 0.72196 0.33473 0.51248 0.0
O261 O 0.76595 0.36768 0.50509 0.0
O262 O 0.80776 0.34413 0.51384 0.0
Mg263 Mg 0.7907 0.29582 0.52568 0.0
C264 C 0.7955 0.36743 0.50666 0.0
C265 C 0.69187 0.39269 0.50704 0.0
O266 O 0.71325 0.399 0.53239 0.0
O267 O 0.72095 0.31099 0.46439 0.0
O268 O 0.76214 0.28684 0.47597 0.0
O269 O 0.73113 0.34549 0.56493 0.0
O270 O 0.74952 0.30952 0.542 0.0
C271 C 0.73881 0.29301 0.45667 0.0
C272 C 0.74774 0.32404 0.56747 0.0
O273 O 0.68994 0.36779 0.49195 0.0
Mg274 Mg 0.60762 0.00071 0.79586 0.0
O275 O 0.57744 -0.00466 0.74617 0.0
O276 O 0.61213 -0.00103 0.71239 0.0
Mg277 Mg 0.6626 0.0076 0.73864 0.0
C278 C 0.58378 -0.00472 0.71803 0.0
C279 C 0.57168 -0.01552 0.84997 0.0
O280 O 0.60163 -0.0118 0.86255 0.0
O281 O 0.61957 0.95319 0.79099 0.0
O282 O 0.65536 0.96069 0.75847 0.0
O283 O 0.61003 0.0505 0.79605 0.0
O284 O 0.64468 0.02655 0.77821 0.0
C285 C 0.63969 0.94374 0.776 0.0
C286 C 0.63492 0.05149 0.78271 0.0
O287 O 0.56479 -0.01433 0.82021 0.0
Mg288 Mg 0.03968 0.23973 0.90604 0.0
O289 O -0.00927 0.22916 0.87512 0.0
O290 O 0.95717 0.20819 0.90614 0.0
Mg291 Mg -0.01639 0.2063 0.95598 0.0
C292 C 0.96301 0.21756 0.87947 0.0
C293 C 0.06446 0.25538 0.84311 0.0
O294 O 0.05679 0.22614 0.83895 0.0
O295 O 0.02361 0.27986 0.92801 0.0
O296 O -0.00943 0.25799 0.95902 0.0
O297 O 0.05047 0.19368 0.89674 0.0
O298 O 0.02729 0.20593 0.93622 0.0
C299 C 0.00475 0.28142 0.94787 0.0
C300 C 0.03732 0.18554 0.92097 0.0
O301 O 0.05912 0.26802 0.86799 0.0
Mg302 Mg 0.5388 0.73952 0.40784 0.0
O303 O 0.49026 0.72895 0.37619 0.0
O304 O 0.45629 0.70694 0.40627 0.0
Mg305 Mg 0.48206 0.70444 0.45628 0.0
C306 C 0.46249 0.71692 0.37993 0.0
C307 C 0.56347 0.75631 0.34523 0.0
O308 O 0.55506 0.72719 0.34033 0.0
O309 O 0.52184 0.779 0.43016 0.0
O310 O 0.48843 0.75607 0.46023 0.0
O311 O 0.55027 0.69382 0.39802 0.0
O312 O 0.52626 0.70508 0.43725 0.0
C313 C 0.50255 0.77988 0.44972 0.0
C314 C 0.53679 0.68512 0.42187 0.0
O315 O 0.55862 0.76858 0.37053 0.0
Mg316 Mg 0.94147 0.7497 0.60502 0.0
O317 O -0.01735 0.74471 0.6437 0.0
O318 O 0.02419 0.73817 0.62096 0.0
Mg319 Mg 0.00952 0.73729 0.56757 0.0
C320 C 0.01141 0.74114 0.64546 0.0
C321 C 0.88692 0.74909 0.64344 0.0
O322 O 0.87575 0.7282 0.62112 0.0
O323 O 0.96596 0.79803 0.59732 0.0
O324 O 0.00486 0.78648 0.57307 0.0
O325 O 0.92658 0.6993 0.59971 0.0
O326 O 0.95979 0.725 0.57255 0.0
C327 C -0.00991 0.80579 0.58365 0.0
C328 C 0.94532 0.69943 0.57901 0.0
O329 O 0.91427 0.76414 0.64327 0.0
Mg330 Mg 0.44154 0.25064 0.10515 0.0
O331 O 0.48308 0.24632 0.14366 0.0
O332 O 0.52466 0.2405 0.12066 0.0
Mg333 Mg 0.50959 0.23923 0.06727 0.0
C334 C 0.51197 0.24323 0.14526 0.0
C335 C 0.38702 0.24974 0.14364 0.0
O336 O 0.37595 0.22876 0.12138 0.0
O337 O 0.46517 0.29912 0.09704 0.0
O338 O 0.50393 0.28824 0.07219 0.0
O339 O 0.42737 0.20019 0.10026 0.0
O340 O 0.46007 0.2261 0.07271 0.0
C341 C 0.48886 0.30726 0.08284 0.0
C342 C 0.44602 0.20044 0.07946 0.0
O343 O 0.41429 0.26492 0.14342 0.0
C344 C 0.24486 0.74124 0.89031 0.0
C345 C 0.21433 0.73748 0.87291 0.0
H346 H 0.27672 0.76248 0.93002 0.0
C347 C 0.19279 0.75515 0.88152 0.0
H348 H 0.26212 0.7282 0.88413 0.0
C349 C 0.2012 0.77501 0.90805 0.0
C350 C 0.23125 0.77743 0.92647 0.0
H351 H 0.16894 0.75248 0.8689 0.0
H352 H 0.18365 0.78724 0.91503 0.0
C353 C 0.25324 0.76098 0.91665 0.0
C354 C -0.00676 0.4918 0.37679 0.0
C355 C 0.00231 0.49348 0.40975 0.0
H356 H 0.00765 0.48751 0.33153 0.0
C357 C 0.03293 0.48884 0.42219 0.0
H358 H 0.96979 0.49514 0.36641 0.0
C359 C 0.0545 0.48434 0.40225 0.0
C360 C 0.0461 0.48446 0.36932 0.0
H361 H 0.04066 0.48967 0.44742 0.0
H362 H 0.07821 0.48193 0.41277 0.0
C363 C 0.01493 0.48737 0.35678 0.0
C364 C 0.71852 0.70437 0.88456 0.0
C365 C 0.74697 0.7114 0.87244 0.0
H366 H 0.69611 0.6885 0.92339 0.0
C367 C 0.77441 0.70266 0.88902 0.0
H368 H 0.69679 0.71028 0.8723 0.0
C369 C 0.77383 0.68962 0.91843 0.0
C370 C 0.74587 0.68537 0.93168 0.0
H371 H 0.79669 0.70761 0.8803 0.0
H372 H 0.79568 0.68512 0.93182 0.0
C373 C 0.71804 0.69172 0.91384 0.0
C374 C 0.94226 0.03428 0.37275 0.0
C375 C 0.96308 0.0159 0.38699 0.0
H376 H 0.9164 0.04675 0.33002 0.0
C377 C 0.9727 -0.00561 0.36814 0.0
H378 H 0.93432 0.05101 0.38661 0.0
C379 C 0.96262 -0.00792 0.33556 0.0
C380 C 0.94252 0.01108 0.32117 0.0
H381 H -0.01125 0.97988 0.37839 0.0
H382 H 0.97097 0.97567 0.32163 0.0
C383 C 0.93202 0.03184 0.34024 0.0
C384 C 0.23529 0.24291 0.62693 0.0
C385 C 0.24305 0.23481 0.65817 0.0
H386 H 0.23735 0.23414 0.57846 0.0
C387 C 0.25784 0.20953 0.66396 0.0
H388 H 0.22418 0.26244 0.62168 0.0
C389 C 0.26492 0.19283 0.63894 0.0
C390 C 0.25769 0.20134 0.60771 0.0
H391 H 0.26415 0.20276 0.68782 0.0
H392 H 0.27649 0.17356 0.64412 0.0
C393 C 0.24279 0.22656 0.60206 0.0
C394 C 0.46002 0.50213 0.61244 0.0
C395 C 0.44267 0.50773 0.58338 0.0
H396 H 0.46263 0.50247 0.66263 0.0
C397 C 0.41255 0.51555 0.58291 0.0
H398 H 0.48327 0.49599 0.61362 0.0
C399 C 0.40076 0.5193 0.61096 0.0
C400 C 0.41877 0.51523 0.64013 0.0
H401 H 0.39845 0.51985 0.56093 0.0
H402 H 0.37791 0.52632 0.6098 0.0
C403 C 0.44818 0.50584 0.64054 0.0
C404 C 0.77155 0.31975 0.6558 0.0
C405 C 0.78353 0.29258 0.65752 0.0
H406 H 0.75078 0.35116 0.62589 0.0
C407 C 0.78647 0.27764 0.62943 0.0
H408 H 0.76897 0.3318 0.67705 0.0
C409 C 0.77626 0.28879 0.60025 0.0
C410 C 0.76267 0.31506 0.59842 0.0
H411 H 0.79574 0.25675 0.6299 0.0
H412 H 0.77781 0.276 0.57914 0.0
C413 C 0.76108 0.33083 0.6265 0.0
C414 C 0.54093 0.98118 0.63422 0.0
C415 C 0.5091 0.97864 0.63807 0.0
H416 H 0.58907 -0.01157 0.65603 0.0
C417 C 0.50184 0.98284 0.6685 0.0
H418 H 0.54743 0.97823 0.61112 0.0
C419 C 0.52597 -0.01149 0.69463 0.0
C420 C 0.5578 -0.00965 0.69073 0.0
H421 H 0.47752 0.98091 0.67225 0.0
H422 H 0.51966 -0.00888 0.71785 0.0
C423 C 0.5649 -0.01296 0.66011 0.0
C424 C 0.90912 0.24013 0.809 0.0
C425 C 0.88117 0.21994 0.80997 0.0
H426 H 0.9574 0.25482 0.82994 0.0
C427 C 0.88144 0.19758 0.83227 0.0
H428 H 0.90973 0.2575 0.79201 0.0
C429 C 0.90843 0.19622 0.85398 0.0
C430 C 0.93606 0.2169 0.85374 0.0
H431 H 0.86043 0.18154 0.83369 0.0
H432 H 0.90744 0.17927 0.87143 0.0
C433 C 0.93644 0.23846 0.83056 0.0
C434 C 0.46597 0.83833 0.48948 0.0
C435 C 0.48573 0.86501 0.48466 0.0
H436 H 0.45587 0.79065 0.48245 0.0
C437 C 0.51024 0.86364 0.467 0.0
H438 H 0.44689 0.83856 0.50299 0.0
C439 C 0.51536 0.83611 0.45508 0.0
C440 C 0.49625 0.80931 0.46082 0.0
H441 H 0.52585 0.88379 0.4628 0.0
H442 H 0.53474 0.83581 0.44199 0.0
C443 C 0.47126 0.8108 0.47783 0.0
C444 C 0.11247 0.27439 0.77755 0.0
C445 C 0.12201 0.30546 0.7829 0.0
H446 H 0.08654 0.23423 0.79214 0.0
C447 C 0.11047 0.32024 0.80669 0.0
H448 H 0.12079 0.26235 0.75928 0.0
C449 C 0.0909 0.30411 0.82558 0.0
C450 C 0.08233 0.27287 0.82101 0.0
H451 H 0.11723 0.34419 0.81134 0.0
H452 H 0.08312 0.31607 0.84426 0.0
C453 C 0.09278 0.25827 0.79636 0.0
C454 C 0.51748 0.61588 0.46775 0.0
C455 C 0.5311 0.59448 0.45266 0.0
H456 H 0.50878 0.66089 0.47015 0.0
C457 C 0.54587 0.6029 0.42652 0.0
H458 H 0.50595 0.61033 0.48801 0.0
C459 C 0.54714 0.63218 0.41595 0.0
C460 C 0.53384 0.6536 0.43144 0.0
H461 H 0.55653 0.58696 0.41431 0.0
H462 H 0.55894 0.63813 0.39595 0.0
C463 C 0.51896 0.64501 0.45739 0.0
C464 C 0.86362 0.7758 0.71995 0.0
C465 C 0.83286 0.75974 0.71836 0.0
H466 H 0.9048 0.78534 0.69752 0.0
C467 C 0.82008 0.74064 0.69178 0.0
H468 H 0.87415 0.79081 0.74003 0.0
C469 C 0.83758 0.73754 0.6675 0.0
C470 C 0.86833 0.75354 0.66902 0.0
H471 H 0.79646 0.72799 0.68968 0.0
H472 H 0.82691 0.72249 0.6475 0.0
C473 C 0.88115 0.77278 0.69552 0.0
C474 C 0.03997 0.87404 0.55737 0.0
C475 C 0.02056 0.89598 0.55779 0.0
H476 H 0.04598 0.82898 0.56589 0.0
C477 C -0.00777 0.88912 0.57026 0.0
H478 H 0.0621 0.87867 0.54831 0.0
C479 C -0.01737 0.86016 0.58025 0.0
C480 C 0.00133 0.83773 0.57801 0.0
H481 H 0.97677 0.90564 0.5709 0.0
H482 H 0.96005 0.85503 0.58834 0.0
C483 C 0.03059 0.84543 0.56746 0.0
C484 C 0.08285 0.74986 0.70944 0.0
C485 C 0.06898 0.74482 0.73676 0.0
H486 H 0.07561 0.75214 0.65927 0.0
C487 C 0.03592 0.73856 0.73388 0.0
H488 H 0.10826 0.75455 0.71082 0.0
C489 C 0.01712 0.73741 0.70424 0.0
C490 C 0.03106 0.74197 0.67688 0.0
H491 H 0.02456 0.73454 0.7545 0.0
H492 H -0.0083 0.73262 0.70273 0.0
C493 C 0.06412 0.74822 0.67984 0.0
C494 C 0.94281 0.61701 0.5568 0.0
C495 C 0.96106 0.61906 0.53228 0.0
H496 H 0.92353 0.64083 0.59105 0.0
C497 C 0.97409 0.64757 0.5237 0.0
H498 H 0.93242 0.59536 0.56398 0.0
C499 C 0.96899 0.67339 0.53906 0.0
C500 C 0.95086 0.67152 0.5636 0.0
H501 H -0.01185 0.65008 0.50487 0.0
H502 H 0.97904 0.69488 0.53128 0.0
C503 C 0.93774 0.64303 0.57233 0.0
C504 C 0.78491 0.91755 0.21885 0.0
C505 C 0.7902 0.88786 0.22243 0.0
H506 H 0.80514 0.96331 0.21486 0.0
C507 C 0.82109 0.88169 0.22386 0.0
H508 H 0.7614 0.92307 0.21764 0.0
C509 C 0.84618 0.90474 0.22204 0.0
C510 C 0.84098 0.93453 0.21899 0.0
H511 H 0.82596 0.85903 0.22646 0.0
H512 H 0.86971 0.89922 0.2235 0.0
C513 C 0.81003 0.94064 0.21727 0.0
C514 C 0.78541 0.12742 0.24652 0.0
C515 C 0.77146 0.11335 0.27098 0.0
H516 H 0.81922 0.12686 0.21517 0.0
C517 C 0.78139 0.08698 0.28251 0.0
H518 H 0.77828 0.14776 0.23709 0.0
C519 C 0.80473 0.07492 0.26985 0.0
C520 C 0.81879 0.08903 0.24546 0.0
H521 H 0.77107 0.07555 0.3013 0.0
H522 H 0.81185 0.05459 0.27932 0.0
C523 C 0.80888 0.11542 0.23394 0.0
C524 C 0.3242 0.94208 0.97338 0.0
C525 C 0.35692 0.94575 0.98367 0.0
H526 H 0.2791 0.91493 0.97342 0.0
C527 C 0.36922 0.92415 0.00273 0.0
H528 H 0.31403 0.95844 0.95878 0.0
C529 C 0.3493 0.89904 0.01074 0.0
C530 C 0.31658 0.89526 0.00035 0.0
H531 H 0.39433 0.92635 0.01101 0.0
H532 H 0.35956 0.88258 0.02512 0.0
C533 C 0.30419 0.91724 0.98189 0.0
C534 C 0.14297 0.36744 0.30792 0.0
C535 C 0.16591 0.35763 0.29213 0.0
H536 H 0.11664 0.40259 0.31529 0.0
C537 C 0.17862 0.37596 0.2697 0.0
H538 H 0.13259 0.35381 0.32527 0.0
C539 C 0.16942 0.40383 0.26392 0.0
C540 C 0.14727 0.41418 0.28045 0.0
H541 H 0.19617 0.36906 0.25696 0.0
H542 H 0.18026 0.41753 0.24688 0.0
C543 C 0.13375 0.39541 0.30215 0.0
C544 C 0.11254 0.09426 0.52698 0.0
C545 C 0.11598 0.06392 0.52697 0.0
H546 H 0.1349 0.13977 0.52831 0.0
C547 C 0.14657 0.05656 0.53052 0.0
H548 H 0.08934 0.10073 0.52445 0.0
C549 C 0.17305 0.07917 0.53242 0.0
C550 C 0.16936 0.10952 0.53103 0.0
H551 H 0.14997 0.03334 0.53039 0.0
H552 H 0.19626 0.07284 0.5342 0.0
C553 C 0.1388 0.11671 0.52908 0.0
C554 C 0.69667 0.10752 0.75284 0.0
C555 C 0.69106 0.13475 0.7654 0.0
H556 H 0.68365 0.06001 0.74867 0.0
C557 C 0.66471 0.13465 0.78078 0.0
H558 H 0.7167 0.10675 0.74078 0.0
C559 C 0.6454 0.10766 0.78498 0.0
C560 C 0.65228 0.08026 0.77417 0.0
H561 H 0.65965 0.15527 0.79059 0.0
H562 H 0.62596 0.10818 0.79795 0.0
C563 C 0.67765 0.08059 0.75739 0.0
C564 C 0.32552 0.02226 0.5699 0.0
C565 C 0.35038 0.02295 0.55233 0.0
H566 H 0.28764 0.0434 0.58117 0.0
C567 C 0.35475 0.04566 0.53077 0.0
H568 H 0.32138 0.00502 0.58661 0.0
C569 C 0.3352 0.06762 0.52746 0.0
C570 C 0.31097 0.06745 0.5458 0.0
H571 H 0.37357 0.04674 0.51673 0.0
H572 H 0.33963 0.08516 0.51115 0.0
C573 C 0.30612 0.04428 0.56673 0.0
C574 C 0.64442 0.45572 0.51188 0.0
C575 C 0.62063 0.44896 0.48552 0.0
H576 H 0.68563 0.4436 0.53906 0.0
C577 C 0.62171 0.42466 0.46497 0.0
H578 H 0.64439 0.47435 0.52812 0.0
C579 C 0.64533 0.40679 0.47138 0.0
C580 C 0.6685 0.413 0.49834 0.0
H581 H 0.60375 0.41883 0.44444 0.0
H582 H 0.64499 0.38775 0.45558 0.0
C583 C 0.66812 0.43805 0.51813 0.0
C584 C 0.74424 0.23937 0.39 0.0
C585 C 0.71365 0.23559 0.37274 0.0
H586 H 0.77637 0.26095 0.42934 0.0
C587 C 0.69231 0.2536 0.3811 0.0
H588 H 0.76133 0.22607 0.38397 0.0
C589 C 0.70095 0.27378 0.40737 0.0
C590 C 0.73103 0.2762 0.42571 0.0
H591 H 0.66843 0.25092 0.36857 0.0
H592 H 0.68353 0.28625 0.41423 0.0
C593 C 0.75286 0.25946 0.41604 0.0
C594 C 0.53458 -0.01056 0.92369 0.0
C595 C 0.50375 -0.00644 0.91137 0.0
H596 H 0.57987 0.9828 0.91403 0.0
C597 C 0.49435 -0.00876 0.87846 0.0
H598 H 0.54257 -0.00923 0.94889 0.0
C599 C 0.5159 -0.01332 0.85832 0.0
C600 C 0.54725 0.98428 0.87071 0.0
H601 H 0.47074 -0.00583 0.86817 0.0
H602 H 0.50834 -0.01369 0.83308 0.0
C603 C 0.55601 -0.0152 0.90363 0.0
C604 C 0.27466 0.20396 0.38883 0.0
C605 C 0.24714 0.21268 0.37241 0.0
H606 H 0.29617 0.18637 0.43147 0.0
C607 C 0.21879 0.20564 0.38471 0.0
H608 H 0.29686 0.20892 0.37997 0.0
C609 C 0.21848 0.19296 0.41399 0.0
C610 C 0.24639 0.18659 0.43166 0.0
H611 H 0.197 0.21153 0.37257 0.0
H612 H 0.19661 0.18967 0.42364 0.0
C613 C 0.27425 0.19089 0.41824 0.0
C614 C 0.47054 0.49734 0.86695 0.0
C615 C 0.46069 0.51916 0.88521 0.0
H616 H 0.46945 0.47797 0.82084 0.0
C617 C 0.44017 0.53748 0.87029 0.0
H618 H 0.48639 0.48287 0.87773 0.0
C619 C 0.4304 0.53464 0.83772 0.0
C620 C 0.44111 0.51354 0.81925 0.0
H621 H 0.43206 0.55445 0.88369 0.0
H622 H 0.41497 0.54948 0.82698 0.0
C623 C 0.46096 0.49463 0.8343 0.0
C624 C 0.75594 0.70911 0.16375 0.0
C625 C 0.74202 0.73489 0.15786 0.0
H626 H 0.77383 0.67256 0.14411 0.0
C627 C 0.73521 0.74339 0.12663 0.0
H628 H 0.76151 0.70204 0.18761 0.0
C629 C 0.74273 0.72687 0.10188 0.0
C630 C 0.75667 0.7011 0.10764 0.0
H631 H 0.72482 0.76332 0.12132 0.0
H632 H 0.73801 0.73473 0.07831 0.0
C633 C 0.76301 0.69226 0.13885 0.0
C634 C 0.91283 0.01711 0.08513 0.0
C635 C 0.94282 0.00909 0.08525 0.0
H636 H 0.87843 0.02764 0.11246 0.0
C637 C 0.96015 0.00288 0.11409 0.0
H638 H 0.89875 0.02189 0.06334 0.0
C639 C 0.94843 0.00617 0.14234 0.0
C640 C 0.91917 0.01575 0.1423 0.0
H641 H -0.01671 -0.00344 0.115 0.0
H642 H 0.96287 0.00232 0.16426 0.0
C643 C 0.90116 0.02045 0.11333 0.0
C644 C 0.27173 0.82111 0.15673 0.0
C645 C 0.28338 0.79377 0.15859 0.0
H646 H 0.25119 0.85253 0.12666 0.0
C647 C 0.28591 0.77849 0.13056 0.0
H648 H 0.26948 0.83343 0.17792 0.0
C649 C 0.27565 0.78949 0.10132 0.0
C650 C 0.26242 0.81596 0.09937 0.0
H651 H 0.2949 0.75745 0.13115 0.0
H652 H 0.2769 0.77646 0.08027 0.0
C653 C 0.26121 0.83204 0.12737 0.0
C654 C 0.00449 0.48501 0.16591 0.0
C655 C 0.01266 0.48102 0.13582 0.0
H656 H 0.02099 0.49286 0.21557 0.0
C657 C 0.04471 0.48335 0.13293 0.0
H658 H 0.97998 0.48324 0.16891 0.0
C659 C 0.06802 0.48888 0.15939 0.0
C660 C 0.06003 0.49207 0.18966 0.0
H661 H 0.05191 0.48057 0.11013 0.0
H662 H 0.09239 0.49016 0.15603 0.0
C663 C 0.02797 0.49035 0.19263 0.0
C664 C 0.38147 0.69724 0.33156 0.0
C665 C 0.38123 0.72032 0.31008 0.0
H666 H 0.40729 0.67806 0.37021 0.0
C667 C 0.40911 0.74083 0.30988 0.0
H668 H 0.36052 0.68093 0.33236 0.0
C669 C 0.4363 0.73881 0.33149 0.0
C670 C 0.43584 0.71657 0.35395 0.0
H671 H 0.40974 0.75874 0.29353 0.0
H672 H 0.45718 0.75545 0.33154 0.0
C673 C 0.40832 0.69554 0.35333 0.0
C674 C 0.96971 0.34134 -0.01292 0.0
C675 C -0.01025 0.36763 0.98164 0.0
H676 H 0.95882 0.29362 0.98092 0.0
C677 C 0.01393 0.3655 0.96375 0.0
H678 H 0.95088 0.34216 0.0008 0.0
C679 C 0.01844 0.33761 0.9522 0.0
C680 C -0.00094 0.3112 0.95857 0.0
H681 H 0.02974 0.38534 0.95907 0.0
H682 H 0.03758 0.33673 0.93891 0.0
C683 C 0.9744 0.31345 0.97581 0.0
C684 C 0.61082 0.8212 0.3101 0.0
C685 C 0.62167 0.80661 0.28569 0.0
H686 H 0.58382 0.81682 0.34794 0.0
C687 C 0.61126 0.77573 0.27956 0.0
H688 H 0.61826 0.845 0.31536 0.0
C689 C 0.59137 0.75959 0.29818 0.0
C690 C 0.58159 0.77396 0.32341 0.0
H691 H 0.61902 0.76386 0.26082 0.0
H692 H 0.58444 0.73568 0.29333 0.0
C693 C 0.59105 0.80504 0.32879 0.0
C694 C 0.04584 0.10328 0.92682 0.0
C695 C 0.03122 0.09538 0.95319 0.0
H696 H 0.0589 0.13793 0.89563 0.0
C697 C 0.01787 0.11714 0.96804 0.0
H698 H 0.05629 0.08705 0.91479 0.0
C699 C 0.01948 0.14612 0.95723 0.0
C700 C 0.03421 0.15418 0.93105 0.0
H701 H 0.00647 0.11199 -0.01154 0.0
H702 H 0.00952 0.16229 0.96981 0.0
C703 C 0.04723 0.13239 0.91579 0.0
C704 C 0.3201 0.2413 0.19187 0.0
C705 C 0.33274 0.26061 0.21831 0.0
H706 H 0.32711 0.2229 0.14777 0.0
C707 C 0.36345 0.27679 0.21986 0.0
H708 H 0.29653 0.22856 0.18981 0.0
C709 C 0.38105 0.27368 0.19551 0.0
C710 C 0.36836 0.25423 0.16914 0.0
H711 H 0.37388 0.29196 0.23984 0.0
H712 H 0.40465 0.28633 0.19747 0.0
C713 C 0.33767 0.23811 0.16767 0.0
C714 C 0.53462 0.37626 0.05301 0.0
C715 C 0.51648 0.39845 0.05786 0.0
H716 H 0.5406 0.33072 0.05756 0.0
C717 C 0.49035 0.39121 0.0737 0.0
H718 H 0.55505 0.38113 0.04119 0.0
C719 C 0.48167 0.36182 0.08299 0.0
C720 C 0.49913 0.3393 0.07676 0.0
H721 H 0.47589 0.4079 0.07776 0.0
H722 H 0.46079 0.35658 0.09405 0.0
C723 C 0.5262 0.34721 0.06244 0.0
C724 C 0.58363 0.25127 0.20898 0.0
C725 C 0.56985 0.24596 0.23632 0.0
H726 H 0.57622 0.25413 0.15886 0.0
C727 C 0.53679 0.23997 0.23355 0.0
H728 H 0.60904 0.25579 0.21027 0.0
C729 C 0.51791 0.23924 0.20401 0.0
C730 C 0.53175 0.24398 0.17661 0.0
H731 H 0.52549 0.23577 0.25419 0.0
H732 H 0.49249 0.23456 0.20261 0.0
C733 C 0.56481 0.25008 0.17946 0.0
C734 C 0.47536 0.14864 0.02452 0.0
C735 C 0.46255 0.12011 0.03326 0.0
H736 H 0.4799 0.19595 0.03182 0.0
C737 C 0.4443 0.11805 0.05778 0.0
H738 H 0.48941 0.15116 0.00568 0.0
C739 C 0.43901 0.14405 0.07315 0.0
C740 C 0.45188 0.17256 0.06425 0.0
H741 H 0.43408 0.09638 0.06508 0.0
H742 H 0.4248 0.14184 0.09187 0.0
C743 C 0.47003 0.17445 0.03971 0.0
C744 C 0.3217 0.38212 0.72343 0.0
C745 C 0.29061 0.3879 0.72118 0.0
H746 H 0.3703 0.4001 0.72362 0.0
C747 C 0.28493 0.41739 0.71673 0.0
H748 H 0.32688 0.35963 0.72672 0.0
C749 C 0.30985 0.44065 0.71509 0.0
C750 C 0.34101 0.43492 0.71759 0.0
H751 H 0.26124 0.42261 0.71489 0.0
H752 H 0.30467 0.46315 0.71197 0.0
C753 C 0.3466 0.40533 0.72153 0.0
C754 C 0.28089 0.58879 0.77922 0.0
C755 C 0.27254 0.61614 0.76886 0.0
H756 H 0.30989 0.55527 0.77509 0.0
C757 C 0.28783 0.63082 0.74554 0.0
H758 H 0.2695 0.57686 0.79709 0.0
C759 C 0.31108 0.61848 0.73297 0.0
C760 C 0.31941 0.59111 0.74332 0.0
H761 H 0.28194 0.65193 0.73704 0.0
H762 H 0.32251 0.63041 0.71512 0.0
C763 C 0.30399 0.57636 0.76653 0.0
C764 C 0.86863 0.42392 0.50116 0.0
C765 C 0.85609 0.4454 0.48211 0.0
H766 H 0.85938 0.38233 0.52363 0.0
C767 C 0.82334 0.4415 0.47194 0.0
H768 H 0.89377 0.42629 0.50935 0.0
C769 C 0.80355 0.41656 0.48054 0.0
C770 C 0.81618 0.3947 0.499 0.0
H771 H 0.81298 0.45777 0.45735 0.0
H772 H 0.77843 0.41408 0.47217 0.0
C773 C 0.84893 0.3987 0.50927 0.0
C774 C 0.64312 0.86636 0.80814 0.0
C775 C 0.66593 0.85651 0.79219 0.0
H776 H 0.61674 0.90147 0.81552 0.0
C777 C 0.67833 0.87471 0.7695 0.0
H778 H 0.63297 0.85283 0.8257 0.0
C779 C 0.66896 0.9025 0.76361 0.0
C780 C 0.64695 0.91289 0.78029 0.0
H781 H 0.69578 0.86777 0.75664 0.0
H782 H 0.67957 0.9161 0.74637 0.0
C783 C 0.63374 0.89425 0.80227 0.0
C784 C 0.60905 0.59783 0.02532 0.0
C785 C 0.61166 0.56734 0.02715 0.0
H786 H 0.63263 0.6428 0.02514 0.0
C787 C 0.64192 0.55922 0.03228 0.0
H788 H 0.58611 0.60487 0.02152 0.0
C789 C 0.66895 0.58116 0.034 0.0
C790 C 0.66616 0.61161 0.03093 0.0
H791 H 0.64466 0.53586 0.03357 0.0
H792 H 0.69193 0.57421 0.03709 0.0
C793 C 0.63586 0.61963 0.0273 0.0
C794 C 0.19677 0.60908 0.25336 0.0
C795 C 0.19118 0.63624 0.26608 0.0
H796 H 0.18379 0.56159 0.24897 0.0
C797 C 0.16491 0.63603 0.28161 0.0
H798 H 0.21674 0.60838 0.24119 0.0
C799 C 0.14564 0.60899 0.28574 0.0
C800 C 0.1525 0.58165 0.27474 0.0
H801 H 0.15987 0.6566 0.29156 0.0
H802 H 0.12625 0.60943 0.2988 0.0
C803 C 0.17781 0.5821 0.25786 0.0
C804 C 0.83702 0.53425 0.04379 0.0
C805 C 0.86785 0.53548 0.03701 0.0
H806 H 0.79736 0.55703 0.04386 0.0
C807 C 0.8818 0.56115 0.02333 0.0
H808 H 0.8255 0.51472 0.05415 0.0
C809 C 0.86575 0.58547 0.01759 0.0
C810 C 0.83522 0.58456 0.02508 0.0
H811 H 0.90548 0.5628 0.01772 0.0
H812 H 0.87751 0.60521 0.00776 0.0
C813 C 0.82081 0.55846 0.03773 0.0
C814 C 0.12167 0.92567 0.96638 0.0
C815 C 0.12083 0.95009 -0.01311 0.0
H816 H 0.14479 0.88868 0.95686 0.0
C817 C 0.14489 0.95698 0.01298 0.0
H818 H 0.10349 0.91975 0.94605 0.0
C819 C 0.16862 0.93932 0.01906 0.0
C820 C 0.16877 0.91416 -0.00066 0.0
H821 H 0.14507 0.9757 0.02917 0.0
H822 H 0.18635 0.94496 0.03981 0.0
C823 C 0.14532 0.90782 0.9726 0.0
loop_
_geom_bond_atom_site_label_1
_geom_bond_atom_site_label_2
_geom_bond_distance
_geom_bond_site_symmetry_2
_ccdc_geom_bond_type
O0 Cd1 2.300 1_556 S
O0 C7 1.275 1_556 S
Cd1 O0 2.300 1_554 S
Cd1 O9 2.381 1_554 S
Cd1 O10 2.378 1_545 S
O2 Cd3 2.385 . S
O2 C7 1.255 . S
Cd3 O2 2.385 . S
Cd3 O4 2.317 . S
O4 Cd3 2.317 . S
O4 C5 1.232 1_455 S
C5 O4 1.232 1_655 S
C5 O6 1.218 . S
O6 C5 1.218 . S
C7 O0 1.275 1_554 S
C7 O2 1.255 . S
C8 O9 1.258 1_564 S
C8 O10 1.256 . S
O9 Cd1 2.381 1_556 S
O9 C8 1.258 1_546 S
O10 Cd1 2.378 1_565 S
O10 C8 1.256 . S
O11 Cd12 2.300 . S
O11 C18 1.275 . S
Cd12 O11 2.300 . S
Cd12 O20 2.381 . S
Cd12 O21 2.378 . S
O13 Cd14 2.385 . S
O13 C18 1.255 . S
Cd14 O13 2.385 . S
Cd14 O15 2.317 . S
O15 Cd14 2.317 . S
O15 C16 1.232 . S
C16 O15 1.232 . S
C16 O17 1.218 . S
O17 C16 1.218 . S
C18 O11 1.275 . S
C18 O13 1.255 . S
C19 O20 1.258 . S
C19 O21 1.256 . S
O20 Cd12 2.381 . S
O20 C19 1.258 . S
O21 Cd12 2.378 . S
O21 C19 1.256 . S
O22 Cd23 2.300 . S
O22 C29 1.275 1_655 S
Cd23 O22 2.300 . S
Cd23 O31 2.381 . S
Cd23 O32 2.378 . S
O24 Cd25 2.385 . S
O24 C29 1.255 . S
Cd25 O24 2.385 . S
Cd25 O26 2.317 1_455 S
O26 Cd25 2.317 1_655 S
O26 C27 1.232 1_655 S
C27 O26 1.232 1_455 S
C27 O28 1.218 . S
O28 C27 1.218 . S
C29 O22 1.275 1_455 S
C29 O24 1.255 . S
C30 O31 1.258 . S
C30 O32 1.256 . S
O31 Cd23 2.381 . S
O31 C30 1.258 . S
O32 Cd23 2.378 . S
O32 C30 1.256 . S
O33 Cd34 2.300 . S
O33 C40 1.275 . S
Cd34 O33 2.300 . S
Cd34 O42 2.381 . S
Cd34 O43 2.378 . S
O35 Cd36 2.385 . S
O35 C40 1.255 . S
Cd36 O35 2.385 . S
Cd36 O37 2.317 . S
O37 Cd36 2.317 . S
O37 C38 1.232 . S
C38 O37 1.232 . S
C38 O39 1.218 . S
O39 C38 1.218 . S
C40 O33 1.275 . S
C40 O35 1.255 . S
C41 O42 1.258 . S
C41 O43 1.256 . S
O42 Cd34 2.381 . S
O42 C41 1.258 . S
O43 Cd34 2.378 . S
O43 C41 1.256 . S
O44 Cd45 2.295 1_545 S
O44 C51 1.298 . S
Cd45 O44 2.295 1_565 S
Cd45 O53 2.381 . S
Cd45 O54 2.378 . S
O46 Cd47 2.385 . S
O46 C51 1.255 . S
Cd47 O46 2.385 . S
Cd47 O48 2.317 . S
O48 Cd47 2.317 . S
O48 C49 1.232 . S
C49 O48 1.232 . S
C49 O50 1.218 . S
O50 C49 1.218 . S
C51 O44 1.298 . S
C51 O46 1.255 . S
C52 O53 1.258 . S
C52 O54 1.256 . S
O53 Cd45 2.381 . S
O53 C52 1.258 . S
O54 Cd45 2.378 . S
O54 C52 1.256 . S
O55 Cd56 2.300 . S
O55 C62 1.275 . S
Cd56 O55 2.300 . S
Cd56 O64 2.381 . S
Cd56 O65 2.378 . S
O57 Cd58 2.385 . S
O57 C62 1.255 . S
Cd58 O57 2.385 . S
Cd58 O59 2.317 . S
O59 Cd58 2.317 . S
O59 C60 1.232 . S
C60 O59 1.232 . S
C60 O61 1.218 . S
O61 C60 1.218 . S
C62 O55 1.275 . S
C62 O57 1.255 . S
C63 O64 1.258 . S
C63 O65 1.256 . S
O64 Cd56 2.381 . S
O64 C63 1.258 . S
O65 Cd56 2.378 . S
O65 C63 1.256 . S
O66 Cd67 2.300 . S
O66 C73 1.275 1_655 S
Cd67 O66 2.300 . S
Cd67 O75 2.381 . S
Cd67 O76 2.378 . S
O68 Cd69 2.385 . S
O68 C73 1.255 . S
Cd69 O68 2.385 . S
Cd69 O70 2.323 . S
O70 Cd69 2.323 . S
O70 C71 1.235 . S
C71 O70 1.235 . S
C71 O72 1.218 . S
O72 C71 1.218 . S
C73 O66 1.275 1_455 S
C73 O68 1.255 . S
C74 O75 1.258 . S
C74 O76 1.256 . S
O75 Cd67 2.381 . S
O75 C74 1.258 . S
O76 Cd67 2.378 . S
O76 C74 1.256 . S
O77 Cd78 2.300 . S
O77 C84 1.275 . S
Cd78 O77 2.300 . S
Cd78 O86 2.381 . S
Cd78 O87 2.378 . S
O79 Cd80 2.385 . S
O79 C84 1.255 . S
Cd80 O79 2.385 . S
Cd80 O81 2.317 . S
O81 Cd80 2.317 . S
O81 C82 1.232 . S
C82 O81 1.232 . S
C82 O83 1.218 . S
O83 C82 1.218 . S
C84 O77 1.275 . S
C84 O79 1.255 . S
C85 O86 1.258 . S
C85 O87 1.256 . S
O86 Cd78 2.381 . S
O86 C85 1.258 . S
O87 Cd78 2.378 . S
O87 C85 1.256 . S
O88 Cd89 2.300 . S
O88 C95 1.275 . S
Cd89 O88 2.300 . S
Cd89 O97 2.381 . S
Cd89 O98 2.378 . S
O90 Cd91 2.385 . S
O90 C95 1.255 . S
Cd91 O90 2.385 . S
Cd91 O92 2.317 . S
O92 Cd91 2.317 . S
O92 C93 1.232 . S
C93 O92 1.232 . S
C93 O94 1.218 . S
O94 C93 1.218 . S
C95 O88 1.275 . S
C95 O90 1.255 . S
C96 O97 1.258 . S
C96 O98 1.256 . S
O97 Cd89 2.381 . S
O97 C96 1.258 . S
O98 Cd89 2.378 . S
O98 C96 1.256 . S
O99 Cd100 2.300 1_565 S
O99 C106 1.275 . S
Cd100 O99 2.300 1_545 S
Cd100 O108 2.381 . S
Cd100 O109 2.378 . S
O101 Cd102 2.385 . S
O101 C106 1.255 . S
Cd102 O101 2.385 . S
Cd102 O103 2.317 . S
O103 Cd102 2.317 . S
O103 C104 1.232 . S
C104 O103 1.232 . S
C104 O105 1.218 . S
O105 C104 1.218 . S
C106 O99 1.275 . S
C106 O101 1.255 . S
C107 O108 1.258 . S
C107 O109 1.256 . S
O108 Cd100 2.381 . S
O108 C107 1.258 . S
O109 Cd100 2.378 . S
O109 C107 1.256 . S
O110 Cd111 2.300 . S
O110 C117 1.275 . S
Cd111 O110 2.300 . S
Cd111 O119 2.381 . S
Cd111 O120 2.378 . S
O112 Cd113 2.385 . S
O112 C117 1.255 . S
Cd113 O112 2.385 . S
Cd113 O114 2.317 . S
O114 Cd113 2.317 . S
O114 C115 1.232 . S
C115 O114 1.232 . S
C115 O116 1.218 . S
O116 C115 1.218 . S
C117 O110 1.275 . S
C117 O112 1.255 . S
C118 O119 1.258 . S
C118 O120 1.256 . S
O119 Cd111 2.381 . S
O119 C118 1.258 . S
O120 Cd111 2.378 . S
O120 C118 1.256 . S
O121 Cd122 2.300 . S
O121 C128 1.275 . S
Cd122 O121 2.300 . S
Cd122 O130 2.381 . S
Cd122 O131 2.378 . S
O123 Cd124 2.385 . S
O123 C128 1.255 . S
Cd124 O123 2.385 . S
Cd124 O125 2.317 . S
O125 Cd124 2.317 . S
O125 C126 1.232 . S
C126 O125 1.232 . S
C126 O127 1.218 . S
O127 C126 1.218 . S
C128 O121 1.275 . S
C128 O123 1.255 . S
C129 O130 1.258 . S
C129 O131 1.256 . S
O130 Cd122 2.381 . S
O130 C129 1.258 . S
O131 Cd122 2.378 . S
O131 C129 1.256 . S
O132 Cd133 2.300 . S
O132 C139 1.275 . S
Cd133 O132 2.300 . S
Cd133 O141 2.381 . S
Cd133 O142 2.378 . S
O134 Cd135 2.385 . S
O134 C139 1.255 . S
Cd135 O134 2.385 . S
Cd135 O136 2.317 . S
O136 Cd135 2.317 . S
O136 C137 1.232 . S
C137 O136 1.232 . S
C137 O138 1.218 . S
O138 C137 1.218 . S
C139 O132 1.275 . S
C139 O134 1.255 . S
C140 O141 1.258 . S
C140 O142 1.256 . S
O141 Cd133 2.381 . S
O141 C140 1.258 . S
O142 Cd133 2.378 . S
O142 C140 1.256 . S
O143 Cd144 2.311 . S
O143 C150 1.265 1_554 S
Cd144 O143 2.311 . S
Cd144 O152 2.381 . S
Cd144 O153 2.378 . S
O145 Cd146 2.385 . S
O145 C150 1.255 . S
Cd146 O145 2.385 . S
Cd146 O147 2.317 . S
O147 Cd146 2.317 . S
O147 C148 1.232 . S
C148 O147 1.232 . S
C148 O149 1.218 . S
O149 C148 1.218 . S
C150 O143 1.265 1_556 S
C150 O145 1.255 . S
C151 O152 1.258 . S
C151 O153 1.256 . S
O152 Cd144 2.381 . S
O152 C151 1.258 . S
O153 Cd144 2.378 . S
O153 C151 1.256 . S
O154 Cd155 2.300 . S
O154 C161 1.275 . S
Cd155 O154 2.300 . S
Cd155 O163 2.381 . S
Cd155 O164 2.378 . S
O156 Cd157 2.385 . S
O156 C161 1.255 . S
Cd157 O156 2.385 . S
Cd157 O158 2.317 . S
O158 Cd157 2.317 . S
O158 C159 1.232 . S
C159 O158 1.232 . S
C159 O160 1.218 . S
O160 C159 1.218 . S
C161 O154 1.275 . S
C161 O156 1.255 . S
C162 O163 1.258 . S
C162 O164 1.256 . S
O163 Cd155 2.381 . S
O163 C162 1.258 . S
O164 Cd155 2.378 . S
O164 C162 1.256 . S
O165 Cd166 2.300 1_546 S
O165 C172 1.275 . S
Cd166 O165 2.300 1_564 S
Cd166 O174 2.382 1_554 S
Cd166 O175 2.379 . S
O167 Cd168 2.406 . S
O167 C172 1.233 1_554 S
Cd168 O167 2.406 . S
Cd168 O169 2.317 . S
O169 Cd168 2.317 . S
O169 C170 1.232 . S
C170 O169 1.232 . S
C170 O171 1.218 . S
O171 C170 1.218 . S
C172 O165 1.275 . S
C172 O167 1.233 1_556 S
C173 O174 1.277 . S
C173 O175 1.237 1_556 S
O174 Cd166 2.382 1_556 S
O174 C173 1.277 . S
O175 Cd166 2.379 . S
O175 C173 1.237 1_554 S
Mg176 O177 2.028 . S
Mg176 O183 1.986 1_554 S
Mg176 O185 2.114 . S
Mg176 O186 2.251 . S
Mg176 O189 2.010 . S
O177 Mg176 2.028 . S
O177 C180 1.250 . S
O178 Mg179 2.028 1_554 S
O178 C180 1.248 . S
Mg179 O178 2.028 1_556 S
Mg179 O184 2.032 . S
Mg179 O186 2.079 1_556 S
C180 O177 1.250 . S
C180 O178 1.248 . S
C181 O182 1.264 . S
C181 O189 1.249 . S
O182 C181 1.264 . S
O183 Mg176 1.986 1_556 S
O183 C187 1.246 . S
O184 Mg179 2.032 . S
O184 C187 1.259 . S
O185 Mg176 2.114 . S
O185 C188 1.252 . S
O186 Mg176 2.251 . S
O186 Mg179 2.079 1_554 S
O186 C188 1.273 . S
C187 O183 1.246 . S
C187 O184 1.259 . S
C188 O185 1.252 . S
C188 O186 1.273 . S
O189 Mg176 2.010 . S
O189 C181 1.249 . S
Mg190 O191 2.028 . S
Mg190 O197 1.986 . S
Mg190 O199 2.114 . S
Mg190 O200 2.251 . S
Mg190 O203 2.010 . S
O191 Mg190 2.028 . S
O191 C194 1.250 . S
O192 Mg193 2.028 . S
O192 C194 1.248 . S
Mg193 O192 2.028 . S
Mg193 O198 2.032 . S
Mg193 O200 2.079 . S
C194 O191 1.250 . S
C194 O192 1.248 . S
C195 O196 1.264 . S
C195 O203 1.249 . S
O196 C195 1.264 . S
O197 Mg190 1.986 . S
O197 C201 1.246 . S
O198 Mg193 2.032 . S
O198 C201 1.259 . S
O199 Mg190 2.114 . S
O199 C202 1.252 . S
O200 Mg190 2.251 . S
O200 Mg193 2.079 . S
O200 C202 1.273 . S
C201 O197 1.246 . S
C201 O198 1.259 . S
C202 O199 1.252 . S
C202 O200 1.273 . S
O203 Mg190 2.010 . S
O203 C195 1.249 . S
Mg204 O205 2.028 . S
Mg204 O211 1.986 1_554 S
Mg204 O213 2.114 . S
Mg204 O214 2.251 . S
Mg204 O217 2.010 . S
O205 Mg204 2.028 . S
O205 C208 1.250 1_554 S
O206 Mg207 2.028 . S
O206 C208 1.248 . S
Mg207 O206 2.028 . S
Mg207 O212 2.032 . S
Mg207 O214 2.079 1_556 S
C208 O205 1.250 1_556 S
C208 O206 1.248 . S
C209 O210 1.264 . S
C209 O217 1.249 . S
O210 C209 1.264 . S
O211 Mg204 1.986 1_556 S
O211 C215 1.246 . S
O212 Mg207 2.032 . S
O212 C215 1.259 . S
O213 Mg204 2.114 . S
O213 C216 1.252 . S
O214 Mg204 2.251 . S
O214 Mg207 2.079 1_554 S
O214 C216 1.273 . S
C215 O211 1.246 . S
C215 O212 1.259 . S
C216 O213 1.252 . S
C216 O214 1.273 . S
O217 Mg204 2.010 . S
O217 C209 1.249 . S
Mg218 O219 2.028 . S
Mg218 O225 1.986 . S
Mg218 O227 2.114 . S
Mg218 O228 2.251 . S
Mg218 O231 2.010 . S
O219 Mg218 2.028 . S
O219 C222 1.250 1_545 S
O220 Mg221 2.028 . S
O220 C222 1.248 . S
Mg221 O220 2.028 . S
Mg221 O226 2.032 . S
Mg221 O228 2.079 1_565 S
C222 O219 1.250 1_565 S
C222 O220 1.248 . S
C223 O224 1.264 . S
C223 O231 1.249 . S
O224 C223 1.264 . S
O225 Mg218 1.986 . S
O225 C229 1.246 . S
O226 Mg221 2.032 . S
O226 C229 1.259 1_565 S
O227 Mg218 2.114 . S
O227 C230 1.252 . S
O228 Mg218 2.251 . S
O228 Mg221 2.079 1_545 S
O228 C230 1.273 . S
C229 O225 1.246 . S
C229 O226 1.259 1_545 S
C230 O227 1.252 . S
C230 O228 1.273 . S
O231 Mg218 2.010 . S
O231 C223 1.249 . S
Mg232 O233 2.028 . S
Mg232 O239 1.986 . S
Mg232 O241 2.114 . S
Mg232 O242 2.251 . S
Mg232 O245 2.010 . S
O233 Mg232 2.028 . S
O233 C236 1.250 . S
O234 Mg235 2.028 . S
O234 C236 1.248 . S
Mg235 O234 2.028 . S
Mg235 O240 2.032 . S
Mg235 O242 2.079 . S
C236 O233 1.250 . S
C236 O234 1.248 . S
C237 O238 1.264 . S
C237 O245 1.249 . S
O238 C237 1.264 . S
O239 Mg232 1.986 . S
O239 C243 1.246 . S
O240 Mg235 2.032 . S
O240 C243 1.259 . S
O241 Mg232 2.114 . S
O241 C244 1.252 . S
O242 Mg232 2.251 . S
O242 Mg235 2.079 . S
O242 C244 1.273 . S
C243 O239 1.246 . S
C243 O240 1.259 . S
C244 O241 1.252 . S
C244 O242 1.273 . S
O245 Mg232 2.010 . S
O245 C237 1.249 . S
Mg246 O247 2.028 . S
Mg246 O253 1.986 . S
Mg246 O255 2.114 . S
Mg246 O256 2.251 . S
Mg246 O259 2.010 . S
O247 Mg246 2.028 . S
O247 C250 1.250 . S
O248 Mg249 2.028 . S
O248 C250 1.248 . S
Mg249 O248 2.028 . S
Mg249 O254 2.032 . S
Mg249 O256 2.079 . S
C250 O247 1.250 . S
C250 O248 1.248 . S
C251 O252 1.264 . S
C251 O259 1.249 . S
O252 C251 1.264 . S
O253 Mg246 1.986 . S
O253 C257 1.246 . S
O254 Mg249 2.032 . S
O254 C257 1.259 . S
O255 Mg246 2.114 . S
O255 C258 1.252 . S
O256 Mg246 2.251 . S
O256 Mg249 2.079 . S
O256 C258 1.273 . S
C257 O253 1.246 . S
C257 O254 1.259 . S
C258 O255 1.252 . S
C258 O256 1.273 . S
O259 Mg246 2.010 . S
O259 C251 1.249 . S
Mg260 O261 2.028 . S
Mg260 O267 1.986 . S
Mg260 O269 2.114 . S
Mg260 O270 2.251 . S
Mg260 O273 2.010 . S
O261 Mg260 2.028 . S
O261 C264 1.250 . S
O262 Mg263 2.028 . S
O262 C264 1.248 . S
Mg263 O262 2.028 . S
Mg263 O268 2.032 . S
Mg263 O270 2.079 . S
C264 O261 1.250 . S
C264 O262 1.248 . S
C265 O266 1.264 . S
C265 O273 1.249 . S
O266 C265 1.264 . S
O267 Mg260 1.986 . S
O267 C271 1.246 . S
O268 Mg263 2.032 . S
O268 C271 1.259 . S
O269 Mg260 2.114 . S
O269 C272 1.252 . S
O270 Mg260 2.251 . S
O270 Mg263 2.079 . S
O270 C272 1.273 . S
C271 O267 1.246 . S
C271 O268 1.259 . S
C272 O269 1.252 . S
C272 O270 1.273 . S
O273 Mg260 2.010 . S
O273 C265 1.249 . S
Mg274 O275 2.028 1_545 S
Mg274 O281 1.986 1_545 S
Mg274 O283 2.114 . S
Mg274 O284 2.251 . S
Mg274 O287 2.010 . S
O275 Mg274 2.028 1_565 S
O275 C278 1.250 . S
O276 Mg277 2.028 . S
O276 C278 1.248 . S
Mg277 O276 2.028 . S
Mg277 O282 2.032 . S
Mg277 O284 2.079 1_565 S
C278 O275 1.250 . S
C278 O276 1.248 . S
C279 O280 1.264 . S
C279 O287 1.249 . S
O280 C279 1.264 . S
O281 Mg274 1.986 1_565 S
O281 C285 1.246 . S
O282 Mg277 2.032 . S
O282 C285 1.259 . S
O283 Mg274 2.114 . S
O283 C286 1.252 . S
O284 Mg274 2.251 . S
O284 Mg277 2.079 1_545 S
O284 C286 1.273 . S
C285 O281 1.246 . S
C285 O282 1.259 . S
C286 O283 1.252 . S
C286 O284 1.273 . S
O287 Mg274 2.010 . S
O287 C279 1.249 . S
Mg288 O289 2.028 1_455 S
Mg288 O295 1.986 . S
Mg288 O297 2.114 . S
Mg288 O298 2.251 . S
Mg288 O301 2.010 . S
O289 Mg288 2.028 1_655 S
O289 C292 1.250 . S
O290 Mg291 2.028 . S
O290 C292 1.248 . S
Mg291 O290 2.028 . S
Mg291 O296 2.032 . S
Mg291 O298 2.079 1_655 S
C292 O289 1.250 . S
C292 O290 1.248 . S
C293 O294 1.264 . S
C293 O301 1.249 . S
O294 C293 1.264 . S
O295 Mg288 1.986 . S
O295 C299 1.246 . S
O296 Mg291 2.032 . S
O296 C299 1.259 1_655 S
O297 Mg288 2.114 . S
O297 C300 1.252 . S
O298 Mg288 2.251 . S
O298 Mg291 2.079 1_455 S
O298 C300 1.273 . S
C299 O295 1.246 . S
C299 O296 1.259 1_455 S
C300 O297 1.252 . S
C300 O298 1.273 . S
O301 Mg288 2.010 . S
O301 C293 1.249 . S
Mg302 O303 2.028 . S
Mg302 O309 1.986 . S
Mg302 O311 2.114 . S
Mg302 O312 2.251 . S
Mg302 O315 2.010 . S
O303 Mg302 2.028 . S
O303 C306 1.250 . S
O304 Mg305 2.028 . S
O304 C306 1.248 . S
Mg305 O304 2.028 . S
Mg305 O310 2.032 . S
Mg305 O312 2.079 . S
C306 O303 1.250 . S
C306 O304 1.248 . S
C307 O308 1.264 . S
C307 O315 1.249 . S
O308 C307 1.264 . S
O309 Mg302 1.986 . S
O309 C313 1.246 . S
O310 Mg305 2.032 . S
O310 C313 1.259 . S
O311 Mg302 2.114 . S
O311 C314 1.252 . S
O312 Mg302 2.251 . S
O312 Mg305 2.079 . S
O312 C314 1.273 . S
C313 O309 1.246 . S
C313 O310 1.259 . S
C314 O311 1.252 . S
C314 O312 1.273 . S
O315 Mg302 2.010 . S
O315 C307 1.249 . S
Mg316 O317 2.028 . S
Mg316 O323 1.986 . S
Mg316 O325 2.114 1_455 S
Mg316 O326 2.251 . S
Mg316 O329 2.010 1_455 S
O317 Mg316 2.028 . S
O317 C320 1.250 . S
O318 Mg319 2.028 . S
O318 C320 1.248 . S
Mg319 O318 2.028 . S
Mg319 O324 2.032 . S
Mg319 O326 2.079 . S
C320 O317 1.250 . S
C320 O318 1.248 . S
C321 O322 1.264 . S
C321 O329 1.249 . S
O322 C321 1.264 . S
O323 Mg316 1.986 . S
O323 C327 1.246 . S
O324 Mg319 2.032 . S
O324 C327 1.259 . S
O325 Mg316 2.114 1_655 S
O325 C328 1.252 1_655 S
O326 Mg316 2.251 . S
O326 Mg319 2.079 . S
O326 C328 1.273 . S
C327 O323 1.246 . S
C327 O324 1.259 . S
C328 O325 1.252 1_455 S
C328 O326 1.273 . S
O329 Mg316 2.010 1_655 S
O329 C321 1.249 . S
Mg330 O331 2.028 . S
Mg330 O337 1.986 . S
Mg330 O339 2.114 . S
Mg330 O340 2.251 . S
Mg330 O343 2.010 . S
O331 Mg330 2.028 . S
O331 C334 1.250 . S
O332 Mg333 2.028 . S
O332 C334 1.248 . S
Mg333 O332 2.028 . S
Mg333 O338 2.032 . S
Mg333 O340 2.079 . S
C334 O331 1.250 . S
C334 O332 1.248 . S
C335 O336 1.264 . S
C335 O343 1.249 . S
O336 C335 1.264 . S
O337 Mg330 1.986 . S
O337 C341 1.246 . S
O338 Mg333 2.032 . S
O338 C341 1.259 . S
O339 Mg330 2.114 . S
O339 C342 1.252 . S
O340 Mg330 2.251 . S
O340 Mg333 2.079 . S
O340 C342 1.273 . S
C341 O337 1.246 . S
C341 O338 1.259 . S
C342 O339 1.252 . S
C342 O340 1.273 . S
O343 Mg330 2.010 . S
O343 C335 1.249 . S
C344 C345 1.387 . S
C344 H348 0.950 . S
C344 C353 1.390 . S
C345 C344 1.387 . S
C345 C347 1.387 . S
H346 C353 0.950 . S
C347 C345 1.387 . S
C347 C349 1.390 . S
C347 H351 0.950 . S
H348 C344 0.950 . S
C349 C347 1.390 . S
C349 C350 1.387 . S
C349 H352 0.950 . S
C350 C349 1.387 . S
C350 C353 1.387 . S
H351 C347 0.950 . S
H352 C349 0.950 . S
C353 C344 1.390 . S
C353 H346 0.950 . S
C353 C350 1.387 . S
C354 C355 1.387 . S
C354 H358 0.950 . S
C354 C363 1.390 . S
C355 C354 1.387 . S
C355 C357 1.387 . S
H356 C363 0.950 . S
C357 C355 1.387 . S
C357 C359 1.390 . S
C357 H361 0.950 . S
H358 C354 0.950 . S
C359 C357 1.390 . S
C359 C360 1.387 . S
C359 H362 0.950 . S
C360 C359 1.387 . S
C360 C363 1.387 . S
H361 C357 0.950 . S
H362 C359 0.950 . S
C363 C354 1.390 . S
C363 H356 0.950 . S
C363 C360 1.387 . S
C364 C365 1.387 . S
C364 H368 0.950 . S
C364 C373 1.390 . S
C365 C364 1.387 . S
C365 C367 1.387 . S
H366 C373 0.950 . S
C367 C365 1.387 . S
C367 C369 1.390 . S
C367 H371 0.950 . S
H368 C364 0.950 . S
C369 C367 1.390 . S
C369 C370 1.387 . S
C369 H372 0.950 . S
C370 C369 1.387 . S
C370 C373 1.387 . S
H371 C367 0.950 . S
H372 C369 0.950 . S
C373 C364 1.390 . S
C373 H366 0.950 . S
C373 C370 1.387 . S
C374 C375 1.378 1_655 S
C374 H378 0.950 1_655 S
C374 C383 1.390 . S
C375 C374 1.378 1_455 S
C375 C377 1.377 1_445 S
H376 C383 0.950 . S
C377 C375 1.377 1_665 S
C377 C379 1.390 . S
C377 H381 0.950 . S
H378 C374 0.950 1_455 S
C379 C377 1.390 . S
C379 C380 1.387 1_565 S
C379 H382 0.950 . S
C380 C379 1.387 1_545 S
C380 C383 1.387 . S
H381 C377 0.950 . S
H382 C379 0.950 . S
C383 C374 1.390 . S
C383 H376 0.950 . S
C383 C380 1.387 . S
C384 C385 1.387 . S
C384 H388 0.950 . S
C384 C393 1.390 . S
C385 C384 1.387 . S
C385 C387 1.387 . S
H386 C393 0.950 . S
C387 C385 1.387 . S
C387 C389 1.390 . S
C387 H391 0.950 . S
H388 C384 0.950 . S
C389 C387 1.390 . S
C389 C390 1.387 . S
C389 H392 0.950 . S
C390 C389 1.387 . S
C390 C393 1.387 . S
H391 C387 0.950 . S
H392 C389 0.950 . S
C393 C384 1.390 . S
C393 H386 0.950 . S
C393 C390 1.387 . S
C394 C395 1.387 . S
C394 H398 0.950 . S
C394 C403 1.390 . S
C395 C394 1.387 . S
C395 C397 1.387 . S
H396 C403 0.950 . S
C397 C395 1.387 . S
C397 C399 1.390 . S
C397 H401 0.950 . S
H398 C394 0.950 . S
C399 C397 1.390 . S
C399 C400 1.387 . S
C399 H402 0.950 . S
C400 C399 1.387 . S
C400 C403 1.387 . S
H401 C397 0.950 . S
H402 C399 0.950 . S
C403 C394 1.390 . S
C403 H396 0.950 . S
C403 C400 1.387 . S
C404 C405 1.387 . S
C404 H408 0.950 . S
C404 C413 1.390 . S
C405 C404 1.387 . S
C405 C407 1.387 . S
H406 C413 0.950 . S
C407 C405 1.387 . S
C407 C409 1.390 . S
C407 H411 0.950 . S
H408 C404 0.950 . S
C409 C407 1.390 . S
C409 C410 1.387 . S
C409 H412 0.950 . S
C410 C409 1.387 . S
C410 C413 1.387 . S
H411 C407 0.950 . S
H412 C409 0.950 . S
C413 C404 1.390 . S
C413 H406 0.950 . S
C413 C410 1.387 . S
C414 C415 1.387 . S
C414 H418 0.950 . S
C414 C423 1.390 . S
C415 C414 1.387 . S
C415 C417 1.387 1_565 S
H416 C423 0.950 . S
C417 C415 1.387 1_545 S
C417 C419 1.390 . S
C417 H421 0.950 . S
H418 C414 0.950 . S
C419 C417 1.390 . S
C419 C420 1.387 1_545 S
C419 H422 0.950 . S
C420 C419 1.387 1_565 S
C420 C423 1.387 . S
H421 C417 0.950 . S
H422 C419 0.950 . S
C423 C414 1.390 . S
C423 H416 0.950 . S
C423 C420 1.387 . S
C424 C425 1.387 . S
C424 H428 0.950 . S
C424 C433 1.390 . S
C425 C424 1.387 . S
C425 C427 1.387 . S
H426 C433 0.950 . S
C427 C425 1.387 . S
C427 C429 1.390 . S
C427 H431 0.950 . S
H428 C424 0.950 . S
C429 C427 1.390 . S
C429 C430 1.387 . S
C429 H432 0.950 . S
C430 C429 1.387 . S
C430 C433 1.387 . S
H431 C427 0.950 . S
H432 C429 0.950 . S
C433 C424 1.390 . S
C433 H426 0.950 . S
C433 C430 1.387 . S
C434 C435 1.387 . S
C434 H438 0.950 . S
C434 C443 1.390 . S
C435 C434 1.387 . S
C435 C437 1.387 . S
H436 C443 0.950 . S
C437 C435 1.387 . S
C437 C439 1.390 . S
C437 H441 0.950 . S
H438 C434 0.950 . S
C439 C437 1.390 . S
C439 C440 1.387 . S
C439 H442 0.950 . S
C440 C439 1.387 . S
C440 C443 1.387 . S
H441 C437 0.950 . S
H442 C439 0.950 . S
C443 C434 1.390 . S
C443 H436 0.950 . S
C443 C440 1.387 . S
C444 C445 1.387 . S
C444 H448 0.950 . S
C444 C453 1.390 . S
C445 C444 1.387 . S
C445 C447 1.387 . S
H446 C453 0.950 . S
C447 C445 1.387 . S
C447 C449 1.390 . S
C447 H451 0.950 . S
H448 C444 0.950 . S
C449 C447 1.390 . S
C449 C450 1.387 . S
C449 H452 0.950 . S
C450 C449 1.387 . S
C450 C453 1.387 . S
H451 C447 0.950 . S
H452 C449 0.950 . S
C453 C444 1.390 . S
C453 H446 0.950 . S
C453 C450 1.387 . S
C454 C455 1.387 . S
C454 H458 0.950 . S
C454 C463 1.390 . S
C455 C454 1.387 . S
C455 C457 1.387 . S
H456 C463 0.950 . S
C457 C455 1.387 . S
C457 C459 1.390 . S
C457 H461 0.950 . S
H458 C454 0.950 . S
C459 C457 1.390 . S
C459 C460 1.387 . S
C459 H462 0.950 . S
C460 C459 1.387 . S
C460 C463 1.387 . S
H461 C457 0.950 . S
H462 C459 0.950 . S
C463 C454 1.390 . S
C463 H456 0.950 . S
C463 C460 1.387 . S
C464 C465 1.387 . S
C464 H468 0.950 . S
C464 C473 1.390 . S
C465 C464 1.387 . S
C465 C467 1.387 . S
H466 C473 0.950 . S
C467 C465 1.387 . S
C467 C469 1.390 . S
C467 H471 0.950 . S
H468 C464 0.950 . S
C469 C467 1.390 . S
C469 C470 1.387 . S
C469 H472 0.950 . S
C470 C469 1.387 . S
C470 C473 1.387 . S
H471 C467 0.950 . S
H472 C469 0.950 . S
C473 C464 1.390 . S
C473 H466 0.950 . S
C473 C470 1.387 . S
C474 C475 1.387 . S
C474 H478 0.950 . S
C474 C483 1.390 . S
C475 C474 1.387 . S
C475 C477 1.387 . S
H476 C483 0.950 . S
C477 C475 1.387 . S
C477 C479 1.390 . S
C477 H481 0.950 . S
H478 C474 0.950 . S
C479 C477 1.390 . S
C479 C480 1.387 . S
C479 H482 0.950 1_455 S
C480 C479 1.387 . S
C480 C483 1.387 . S
H481 C477 0.950 . S
H482 C479 0.950 1_655 S
C483 C474 1.390 . S
C483 H476 0.950 . S
C483 C480 1.387 . S
C484 C485 1.387 . S
C484 H488 0.950 . S
C484 C493 1.390 . S
C485 C484 1.387 . S
C485 C487 1.387 . S
H486 C493 0.950 . S
C487 C485 1.387 . S
C487 C489 1.390 . S
C487 H491 0.950 . S
H488 C484 0.950 . S
C489 C487 1.390 . S
C489 C490 1.387 . S
C489 H492 0.950 . S
C490 C489 1.387 . S
C490 C493 1.387 . S
H491 C487 0.950 . S
H492 C489 0.950 . S
C493 C484 1.390 . S
C493 H486 0.950 . S
C493 C490 1.387 . S
C494 C495 1.387 . S
C494 H498 0.950 . S
C494 C503 1.390 . S
C495 C494 1.387 . S
C495 C497 1.387 1_455 S
H496 C503 0.950 . S
C497 C495 1.387 1_655 S
C497 C499 1.390 . S
C497 H501 0.950 . S
H498 C494 0.950 . S
C499 C497 1.390 . S
C499 C500 1.387 1_655 S
C499 H502 0.950 . S
C500 C499 1.387 1_455 S
C500 C503 1.387 . S
H501 C497 0.950 . S
H502 C499 0.950 . S
C503 C494 1.390 . S
C503 H496 0.950 . S
C503 C500 1.387 . S
C504 C505 1.387 . S
C504 H508 0.950 . S
C504 C513 1.390 . S
C505 C504 1.387 . S
C505 C507 1.387 . S
H506 C513 0.950 . S
C507 C505 1.387 . S
C507 C509 1.390 . S
C507 H511 0.950 . S
H508 C504 0.950 . S
C509 C507 1.390 . S
C509 C510 1.387 . S
C509 H512 0.950 . S
C510 C509 1.387 . S
C510 C513 1.387 . S
H511 C507 0.950 . S
H512 C509 0.950 . S
C513 C504 1.390 . S
C513 H506 0.950 . S
C513 C510 1.387 . S
C514 C515 1.387 . S
C514 H518 0.950 . S
C514 C523 1.390 . S
C515 C514 1.387 . S
C515 C517 1.387 . S
H516 C523 0.950 . S
C517 C515 1.387 . S
C517 C519 1.390 . S
C517 H521 0.950 . S
H518 C514 0.950 . S
C519 C517 1.390 . S
C519 C520 1.387 . S
C519 H522 0.950 . S
C520 C519 1.387 . S
C520 C523 1.387 . S
H521 C517 0.950 . S
H522 C519 0.950 . S
C523 C514 1.390 . S
C523 H516 0.950 . S
C523 C520 1.387 . S
C524 C525 1.387 . S
C524 H528 0.950 . S
C524 C533 1.390 . S
C525 C524 1.387 . S
C525 C527 1.387 1_556 S
H526 C533 0.950 . S
C527 C525 1.387 1_554 S
C527 C529 1.390 . S
C527 H531 0.950 . S
H528 C524 0.950 . S
C529 C527 1.390 . S
C529 C530 1.387 . S
C529 H532 0.950 . S
C530 C529 1.387 . S
C530 C533 1.387 1_554 S
H531 C527 0.950 . S
H532 C529 0.950 . S
C533 C524 1.390 . S
C533 H526 0.950 . S
C533 C530 1.387 1_556 S
C534 C535 1.387 . S
C534 H538 0.950 . S
C534 C543 1.390 . S
C535 C534 1.387 . S
C535 C537 1.387 . S
H536 C543 0.950 . S
C537 C535 1.387 . S
C537 C539 1.390 . S
C537 H541 0.950 . S
H538 C534 0.950 . S
C539 C537 1.390 . S
C539 C540 1.387 . S
C539 H542 0.950 . S
C540 C539 1.387 . S
C540 C543 1.387 . S
H541 C537 0.950 . S
H542 C539 0.950 . S
C543 C534 1.390 . S
C543 H536 0.950 . S
C543 C540 1.387 . S
C544 C545 1.387 . S
C544 H548 0.950 . S
C544 C553 1.390 . S
C545 C544 1.387 . S
C545 C547 1.387 . S
H546 C553 0.950 . S
C547 C545 1.387 . S
C547 C549 1.390 . S
C547 H551 0.950 . S
H548 C544 0.950 . S
C549 C547 1.390 . S
C549 C550 1.387 . S
C549 H552 0.950 . S
C550 C549 1.387 . S
C550 C553 1.387 . S
H551 C547 0.950 . S
H552 C549 0.950 . S
C553 C544 1.390 . S
C553 H546 0.950 . S
C553 C550 1.387 . S
C554 C555 1.387 . S
C554 H558 0.950 . S
C554 C563 1.390 . S
C555 C554 1.387 . S
C555 C557 1.387 . S
H556 C563 0.950 . S
C557 C555 1.387 . S
C557 C559 1.390 . S
C557 H561 0.950 . S
H558 C554 0.950 . S
C559 C557 1.390 . S
C559 C560 1.387 . S
C559 H562 0.950 . S
C560 C559 1.387 . S
C560 C563 1.387 . S
H561 C557 0.950 . S
H562 C559 0.950 . S
C563 C554 1.390 . S
C563 H556 0.950 . S
C563 C560 1.387 . S
C564 C565 1.387 . S
C564 H568 0.950 . S
C564 C573 1.390 . S
C565 C564 1.387 . S
C565 C567 1.387 . S
H566 C573 0.950 . S
C567 C565 1.387 . S
C567 C569 1.390 . S
C567 H571 0.950 . S
H568 C564 0.950 . S
C569 C567 1.390 . S
C569 C570 1.387 . S
C569 H572 0.950 . S
C570 C569 1.387 . S
C570 C573 1.387 . S
H571 C567 0.950 . S
H572 C569 0.950 . S
C573 C564 1.390 . S
C573 H566 0.950 . S
C573 C570 1.387 . S
C574 C575 1.387 . S
C574 H578 0.950 . S
C574 C583 1.390 . S
C575 C574 1.387 . S
C575 C577 1.387 . S
H576 C583 0.950 . S
C577 C575 1.387 . S
C577 C579 1.390 . S
C577 H581 0.950 . S
H578 C574 0.950 . S
C579 C577 1.390 . S
C579 C580 1.387 . S
C579 H582 0.950 . S
C580 C579 1.387 . S
C580 C583 1.387 . S
H581 C577 0.950 . S
H582 C579 0.950 . S
C583 C574 1.390 . S
C583 H576 0.950 . S
C583 C580 1.387 . S
C584 C585 1.387 . S
C584 H588 0.950 . S
C584 C593 1.390 . S
C585 C584 1.387 . S
C585 C587 1.387 . S
H586 C593 0.950 . S
C587 C585 1.387 . S
C587 C589 1.390 . S
C587 H591 0.950 . S
H588 C584 0.950 . S
C589 C587 1.390 . S
C589 C590 1.387 . S
C589 H592 0.950 . S
C590 C589 1.387 . S
C590 C593 1.387 . S
H591 C587 0.950 . S
H592 C589 0.950 . S
C593 C584 1.390 . S
C593 H586 0.950 . S
C593 C590 1.387 . S
C594 C595 1.387 . S
C594 H598 0.950 . S
C594 C603 1.390 . S
C595 C594 1.387 . S
C595 C597 1.387 1_545 S
H596 C603 0.950 . S
C597 C595 1.387 1_565 S
C597 C599 1.390 . S
C597 H601 0.950 . S
H598 C594 0.950 . S
C599 C597 1.390 . S
C599 C600 1.387 1_565 S
C599 H602 0.950 . S
C600 C599 1.387 1_545 S
C600 C603 1.387 . S
H601 C597 0.950 . S
H602 C599 0.950 . S
C603 C594 1.390 . S
C603 H596 0.950 . S
C603 C600 1.387 . S
C604 C605 1.387 . S
C604 H608 0.950 . S
C604 C613 1.390 . S
C605 C604 1.387 . S
C605 C607 1.387 . S
H606 C613 0.950 . S
C607 C605 1.387 . S
C607 C609 1.390 . S
C607 H611 0.950 . S
H608 C604 0.950 . S
C609 C607 1.390 . S
C609 C610 1.387 . S
C609 H612 0.950 . S
C610 C609 1.387 . S
C610 C613 1.387 . S
H611 C607 0.950 . S
H612 C609 0.950 . S
C613 C604 1.390 . S
C613 H606 0.950 . S
C613 C610 1.387 . S
C614 C615 1.387 . S
C614 H618 0.950 . S
C614 C623 1.390 . S
C615 C614 1.387 . S
C615 C617 1.387 . S
H616 C623 0.950 . S
C617 C615 1.387 . S
C617 C619 1.390 . S
C617 H621 0.950 . S
H618 C614 0.950 . S
C619 C617 1.390 . S
C619 C620 1.387 . S
C619 H622 0.950 . S
C620 C619 1.387 . S
C620 C623 1.387 . S
H621 C617 0.950 . S
H622 C619 0.950 . S
C623 C614 1.390 . S
C623 H616 0.950 . S
C623 C620 1.387 . S
C624 C625 1.387 . S
C624 H628 0.950 . S
C624 C633 1.390 . S
C625 C624 1.387 . S
C625 C627 1.387 . S
H626 C633 0.950 . S
C627 C625 1.387 . S
C627 C629 1.390 . S
C627 H631 0.950 . S
H628 C624 0.950 . S
C629 C627 1.390 . S
C629 C630 1.387 . S
C629 H632 0.950 . S
C630 C629 1.387 . S
C630 C633 1.387 . S
H631 C627 0.950 . S
H632 C629 0.950 . S
C633 C624 1.390 . S
C633 H626 0.950 . S
C633 C630 1.387 . S
C634 C635 1.387 . S
C634 H638 0.950 . S
C634 C643 1.390 . S
C635 C634 1.387 . S
C635 C637 1.387 . S
H636 C643 0.950 . S
C637 C635 1.387 . S
C637 C639 1.390 . S
C637 H641 0.950 1_545 S
H638 C634 0.950 . S
C639 C637 1.390 . S
C639 C640 1.387 . S
C639 H642 0.950 1_545 S
C640 C639 1.387 . S
C640 C643 1.387 . S
H641 C637 0.950 1_565 S
H642 C639 0.950 1_565 S
C643 C634 1.390 . S
C643 H636 0.950 . S
C643 C640 1.387 . S
C644 C645 1.387 . S
C644 H648 0.950 . S
C644 C653 1.390 . S
C645 C644 1.387 . S
C645 C647 1.387 . S
H646 C653 0.950 . S
C647 C645 1.387 . S
C647 C649 1.390 . S
C647 H651 0.950 . S
H648 C644 0.950 . S
C649 C647 1.390 . S
C649 C650 1.387 . S
C649 H652 0.950 . S
C650 C649 1.387 . S
C650 C653 1.387 . S
H651 C647 0.950 . S
H652 C649 0.950 . S
C653 C644 1.390 . S
C653 H646 0.950 . S
C653 C650 1.387 . S
C654 C655 1.387 . S
C654 H658 0.950 . S
C654 C663 1.390 . S
C655 C654 1.387 . S
C655 C657 1.387 . S
H656 C663 0.950 . S
C657 C655 1.387 . S
C657 C659 1.390 . S
C657 H661 0.950 . S
H658 C654 0.950 . S
C659 C657 1.390 . S
C659 C660 1.387 . S
C659 H662 0.950 . S
C660 C659 1.387 . S
C660 C663 1.387 . S
H661 C657 0.950 . S
H662 C659 0.950 . S
C663 C654 1.390 . S
C663 H656 0.950 . S
C663 C660 1.387 . S
C664 C665 1.387 . S
C664 H668 0.950 . S
C664 C673 1.390 . S
C665 C664 1.387 . S
C665 C667 1.387 . S
H666 C673 0.950 . S
C667 C665 1.387 . S
C667 C669 1.390 . S
C667 H671 0.950 . S
H668 C664 0.950 . S
C669 C667 1.390 . S
C669 C670 1.387 . S
C669 H672 0.950 . S
C670 C669 1.387 . S
C670 C673 1.387 . S
H671 C667 0.950 . S
H672 C669 0.950 . S
C673 C664 1.390 . S
C673 H666 0.950 . S
C673 C670 1.387 . S
C674 C675 1.385 1_655 S
C674 H678 0.950 . S
C674 C683 1.390 1_554 S
C675 C674 1.385 1_455 S
C675 C677 1.392 . S
H676 C683 0.950 . S
C677 C675 1.392 . S
C677 C679 1.390 . S
C677 H681 0.950 . S
H678 C674 0.950 . S
C679 C677 1.390 . S
C679 C680 1.387 1_554 S
C679 H682 0.950 . S
C680 C679 1.387 1_556 S
C680 C683 1.387 1_455 S
H681 C677 0.950 . S
H682 C679 0.950 . S
C683 C674 1.390 1_556 S
C683 H676 0.950 . S
C683 C680 1.387 1_655 S
C684 C685 1.387 . S
C684 H688 0.950 . S
C684 C693 1.390 . S
C685 C684 1.387 . S
C685 C687 1.387 . S
H686 C693 0.950 . S
C687 C685 1.387 . S
C687 C689 1.390 . S
C687 H691 0.950 . S
H688 C684 0.950 . S
C689 C687 1.390 . S
C689 C690 1.387 . S
C689 H692 0.950 . S
C690 C689 1.387 . S
C690 C693 1.387 . S
H691 C687 0.950 . S
H692 C689 0.950 . S
C693 C684 1.390 . S
C693 H686 0.950 . S
C693 C690 1.387 . S
C694 C695 1.387 . S
C694 H698 0.950 1_556 S
C694 C703 1.390 . S
C695 C694 1.387 . S
C695 C697 1.387 1_455 S
H696 C703 0.950 . S
C697 C695 1.387 1_655 S
C697 C699 1.390 . S
C697 H701 0.950 . S
H698 C694 0.950 1_554 S
C699 C697 1.390 . S
C699 C700 1.387 1_655 S
C699 H702 0.950 . S
C700 C699 1.387 1_455 S
C700 C703 1.387 . S
H701 C697 0.950 . S
H702 C699 0.950 . S
C703 C694 1.390 . S
C703 H696 0.950 . S
C703 C700 1.387 . S
C704 C705 1.387 . S
C704 H708 0.950 . S
C704 C713 1.390 . S
C705 C704 1.387 . S
C705 C707 1.387 . S
H706 C713 0.950 . S
C707 C705 1.387 . S
C707 C709 1.390 . S
C707 H711 0.950 . S
H708 C704 0.950 . S
C709 C707 1.390 . S
C709 C710 1.387 . S
C709 H712 0.950 . S
C710 C709 1.387 . S
C710 C713 1.387 . S
H711 C707 0.950 . S
H712 C709 0.950 . S
C713 C704 1.390 . S
C713 H706 0.950 . S
C713 C710 1.387 . S
C714 C715 1.387 . S
C714 H718 0.950 . S
C714 C723 1.390 . S
C715 C714 1.387 . S
C715 C717 1.387 . S
H716 C723 0.950 . S
C717 C715 1.387 . S
C717 C719 1.390 . S
C717 H721 0.950 . S
H718 C714 0.950 . S
C719 C717 1.390 . S
C719 C720 1.387 . S
C719 H722 0.950 . S
C720 C719 1.387 . S
C720 C723 1.387 . S
H721 C717 0.950 . S
H722 C719 0.950 . S
C723 C714 1.390 . S
C723 H716 0.950 . S
C723 C720 1.387 . S
C724 C725 1.387 . S
C724 H728 0.950 . S
C724 C733 1.390 . S
C725 C724 1.387 . S
C725 C727 1.387 . S
H726 C733 0.950 . S
C727 C725 1.387 . S
C727 C729 1.390 . S
C727 H731 0.950 . S
H728 C724 0.950 . S
C729 C727 1.390 . S
C729 C730 1.387 . S
C729 H732 0.950 . S
C730 C729 1.387 . S
C730 C733 1.387 . S
H731 C727 0.950 . S
H732 C729 0.950 . S
C733 C724 1.390 . S
C733 H726 0.950 . S
C733 C730 1.387 . S
C734 C735 1.387 . S
C734 H738 0.950 . S
C734 C743 1.390 . S
C735 C734 1.387 . S
C735 C737 1.387 . S
H736 C743 0.950 . S
C737 C735 1.387 . S
C737 C739 1.390 . S
C737 H741 0.950 . S
H738 C734 0.950 . S
C739 C737 1.390 . S
C739 C740 1.387 . S
C739 H742 0.950 . S
C740 C739 1.387 . S
C740 C743 1.387 . S
H741 C737 0.950 . S
H742 C739 0.950 . S
C743 C734 1.390 . S
C743 H736 0.950 . S
C743 C740 1.387 . S
C744 C745 1.387 . S
C744 H748 0.950 . S
C744 C753 1.390 . S
C745 C744 1.387 . S
C745 C747 1.387 . S
H746 C753 0.950 . S
C747 C745 1.387 . S
C747 C749 1.390 . S
C747 H751 0.950 . S
H748 C744 0.950 . S
C749 C747 1.390 . S
C749 C750 1.387 . S
C749 H752 0.950 . S
C750 C749 1.387 . S
C750 C753 1.387 . S
H751 C747 0.950 . S
H752 C749 0.950 . S
C753 C744 1.390 . S
C753 H746 0.950 . S
C753 C750 1.387 . S
C754 C755 1.387 . S
C754 H758 0.950 . S
C754 C763 1.390 . S
C755 C754 1.387 . S
C755 C757 1.387 . S
H756 C763 0.950 . S
C757 C755 1.387 . S
C757 C759 1.390 . S
C757 H761 0.950 . S
H758 C754 0.950 . S
C759 C757 1.390 . S
C759 C760 1.387 . S
C759 H762 0.950 . S
C760 C759 1.387 . S
C760 C763 1.387 . S
H761 C757 0.950 . S
H762 C759 0.950 . S
C763 C754 1.390 . S
C763 H756 0.950 . S
C763 C760 1.387 . S
C764 C765 1.387 . S
C764 H768 0.950 . S
C764 C773 1.390 . S
C765 C764 1.387 . S
C765 C767 1.387 . S
H766 C773 0.950 . S
C767 C765 1.387 . S
C767 C769 1.390 . S
C767 H771 0.950 . S
H768 C764 0.950 . S
C769 C767 1.390 . S
C769 C770 1.387 . S
C769 H772 0.950 . S
C770 C769 1.387 . S
C770 C773 1.387 . S
H771 C767 0.950 . S
H772 C769 0.950 . S
C773 C764 1.390 . S
C773 H766 0.950 . S
C773 C770 1.387 . S
C774 C775 1.387 . S
C774 H778 0.950 . S
C774 C783 1.390 . S
C775 C774 1.387 . S
C775 C777 1.387 . S
H776 C783 0.950 . S
C777 C775 1.387 . S
C777 C779 1.390 . S
C777 H781 0.950 . S
H778 C774 0.950 . S
C779 C777 1.390 . S
C779 C780 1.387 . S
C779 H782 0.950 . S
C780 C779 1.387 . S
C780 C783 1.387 . S
H781 C777 0.950 . S
H782 C779 0.950 . S
C783 C774 1.390 . S
C783 H776 0.950 . S
C783 C780 1.387 . S
C784 C785 1.387 . S
C784 H788 0.950 . S
C784 C793 1.390 . S
C785 C784 1.387 . S
C785 C787 1.387 1_556 S
H786 C793 0.950 . S
C787 C785 1.387 1_554 S
C787 C789 1.390 . S
C787 H791 0.950 . S
H788 C784 0.950 . S
C789 C787 1.390 . S
C789 C790 1.387 1_554 S
C789 H792 0.950 . S
C790 C789 1.387 1_556 S
C790 C793 1.387 . S
H791 C787 0.950 . S
H792 C789 0.950 . S
C793 C784 1.390 . S
C793 H786 0.950 . S
C793 C790 1.387 . S
C794 C795 1.387 . S
C794 H798 0.950 . S
C794 C803 1.390 . S
C795 C794 1.387 . S
C795 C797 1.387 . S
H796 C803 0.950 . S
C797 C795 1.387 . S
C797 C799 1.390 . S
C797 H801 0.950 . S
H798 C794 0.950 . S
C799 C797 1.390 . S
C799 C800 1.387 . S
C799 H802 0.950 . S
C800 C799 1.387 . S
C800 C803 1.387 . S
H801 C797 0.950 . S
H802 C799 0.950 . S
C803 C794 1.390 . S
C803 H796 0.950 . S
C803 C800 1.387 . S
C804 C805 1.387 . S
C804 H808 0.950 . S
C804 C813 1.390 . S
C805 C804 1.387 . S
C805 C807 1.387 . S
H806 C813 0.950 . S
C807 C805 1.387 . S
C807 C809 1.390 . S
C807 H811 0.950 . S
H808 C804 0.950 . S
C809 C807 1.390 . S
C809 C810 1.387 . S
C809 H812 0.950 . S
C810 C809 1.387 . S
C810 C813 1.387 . S
H811 C807 0.950 . S
H812 C809 0.950 . S
C813 C804 1.390 . S
C813 H806 0.950 . S
C813 C810 1.387 . S
C814 C815 1.387 1_556 S
C814 H818 0.950 . S
C814 C823 1.390 . S
C815 C814 1.387 1_554 S
C815 C817 1.387 . S
H816 C823 0.950 . S
C817 C815 1.387 . S
C817 C819 1.390 . S
C817 H821 0.950 . S
H818 C814 0.950 . S
C819 C817 1.390 . S
C819 C820 1.387 . S
C819 H822 0.950 . S
C820 C819 1.387 . S
C820 C823 1.387 1_554 S
H821 C817 0.950 . S
H822 C819 0.950 . S
C823 C814 1.390 . S
C823 H816 0.950 . S
C823 C820 1.387 1_556 S
C350 C187 1.230 . S
C345 C62 1.214 . S
C360 C195 1.388 . S
C355 C73 1.543 . S
C365 C84 1.450 . S
C370 C215 1.465 . S
C380 C229 1.315 . S
C375 C49 1.184 . S
C390 C244 1.409 . S
C385 C118 1.398 . S
C400 C258 1.634 . S
C395 C137 1.364 . S
C405 C129 1.598 . S
C410 C272 1.615 . S
C420 C278 1.760 . S
C415 C106 1.775 . S
C425 C128 1.770 . S
C430 C292 1.789 . S
C440 C313 1.633 . S
C435 C104 1.466 . S
C445 C115 1.513 . S
C450 C293 1.504 . S
C460 C314 1.778 . S
C455 C139 1.683 . S
C465 C85 1.550 . S
C470 C321 1.242 . S
C475 C52 1.290 . S
C480 C327 1.282 . S
C485 C60 0.955 . S
C490 C320 1.062 . S
C495 C71 1.464 . S
C500 C328 1.577 . S
C505 C40 1.667 . S
C510 C222 1.720 . S
C515 C162 1.223 . S
C520 C223 1.017 . S
C530 C180 1.202 . S
C525 C173 1.262 . S
C540 C201 1.647 . S
C535 C93 1.539 . S
C545 C51 1.413 . S
C550 C236 1.438 . S
C560 C286 1.538 . S
C555 C126 1.353 . S
C570 C237 1.412 . S
C565 C107 1.638 . S
C580 C265 1.396 . S
C575 C140 1.604 . S
C590 C271 1.230 . S
C585 C161 1.213 . S
C595 C172 1.542 . S
C600 C279 1.381 . S
C605 C95 1.449 . S
C610 C243 1.465 . S
C620 C257 1.317 . S
C615 C148 1.179 . S
C625 C41 1.398 . S
C630 C216 1.410 . S
C640 C230 1.634 . S
C635 C5 1.359 . S
C650 C188 1.615 . S
C645 C19 1.599 . S
C660 C194 1.763 . S
C655 C29 1.775 . S
C665 C18 1.773 . S
C670 C306 1.791 . S
C675 C27 1.466 . S
C680 C299 1.633 . S
C685 C38 1.508 . S
C690 C307 1.509 . S
C695 C7 1.683 1_556 S
C700 C300 1.777 . S
C710 C335 1.235 . S
C705 C96 1.550 . S
C720 C341 1.282 . S
C715 C151 1.290 . S
C730 C334 1.062 . S
C725 C159 0.954 . S
C735 C170 1.462 . S
C740 C342 1.580 . S
C745 C117 1.664 . S
C750 C250 1.722 . S
C760 C251 1.025 . S
C755 C63 1.226 . S
C770 C264 1.205 . S
C765 C74 1.264 . S
C780 C285 1.647 . S
C775 C82 1.539 . S
C785 C150 1.413 . S
C790 C208 1.438 . S
C800 C202 1.538 . S
C795 C16 1.354 . S
C805 C30 1.637 . S
C810 C209 1.413 . S
C820 C181 1.402 . S
C815 C8 1.605 . S
