# Generated by pormake.
# Topology zzz, (3,6)-cn, num edge types: 1
# Building blocks:
#     Node 0, Type 0, BuildingBlock: OLANEW_clean_sbu_2, # of connection points: 3
#     Node 1, Type 0, BuildingBlock: OLANEW_clean_sbu_2, # of connection points: 3
#     Node 2, Type 0, BuildingBlock: OLANEW_clean_sbu_2, # of connection points: 3
#     Node 3, Type 0, BuildingBlock: OLANEW_clean_sbu_2, # of connection points: 3
#     Node 4, Type 0, BuildingBlock: OLANEW_clean_sbu_2, # of connection points: 3
#     Node 5, Type 0, BuildingBlock: OLANEW_clean_sbu_2, # of connection points: 3
#     Node 6, Type 0, BuildingBlock: OLANEW_clean_sbu_2, # of connection points: 3
#     Node 7, Type 0, BuildingBlock: OLANEW_clean_sbu_2, # of connection points: 3
#     Node 8, Type 1, BuildingBlock: CIFDUS_clean_sbu_1, # of connection points: 6
#     Node 9, Type 1, BuildingBlock: CIFDUS_clean_sbu_1, # of connection points: 6
#     Node 10, Type 1, BuildingBlock: CIFDUS_clean_sbu_1, # of connection points: 6
#     Node 11, Type 1, BuildingBlock: CIFDUS_clean_sbu_1, # of connection points: 6
#     Edge 12, Type (0, 1), BuildingBlock: UVAHIK_clean_linker_0, # of connection points: 2
#     Edge 13, Type (0, 1), BuildingBlock: UVAHIK_clean_linker_0, # of connection points: 2
#     Edge 14, Type (0, 1), BuildingBlock: UVAHIK_clean_linker_0, # of connection points: 2
#     Edge 15, Type (0, 1), BuildingBlock: UVAHIK_clean_linker_0, # of connection points: 2
#     Edge 16, Type (0, 1), BuildingBlock: UVAHIK_clean_linker_0, # of connection points: 2
#     Edge 17, Type (0, 1), BuildingBlock: UVAHIK_clean_linker_0, # of connection points: 2
#     Edge 18, Type (0, 1), BuildingBlock: UVAHIK_clean_linker_0, # of connection points: 2
#     Edge 19, Type (0, 1), BuildingBlock: UVAHIK_clean_linker_0, # of connection points: 2
#     Edge 20, Type (0, 1), BuildingBlock: UVAHIK_clean_linker_0, # of connection points: 2
#     Edge 21, Type (0, 1), BuildingBlock: UVAHIK_clean_linker_0, # of connection points: 2
#     Edge 22, Type (0, 1), BuildingBlock: UVAHIK_clean_linker_0, # of connection points: 2
#     Edge 23, Type (0, 1), BuildingBlock: UVAHIK_clean_linker_0, # of connection points: 2
#     Edge 24, Type (0, 1), BuildingBlock: UVAHIK_clean_linker_0, # of connection points: 2
#     Edge 25, Type (0, 1), BuildingBlock: UVAHIK_clean_linker_0, # of connection points: 2
#     Edge 26, Type (0, 1), BuildingBlock: UVAHIK_clean_linker_0, # of connection points: 2
#     Edge 27, Type (0, 1), BuildingBlock: UVAHIK_clean_linker_0, # of connection points: 2
#     Edge 28, Type (0, 1), BuildingBlock: UVAHIK_clean_linker_0, # of connection points: 2
#     Edge 29, Type (0, 1), BuildingBlock: UVAHIK_clean_linker_0, # of connection points: 2
#     Edge 30, Type (0, 1), BuildingBlock: UVAHIK_clean_linker_0, # of connection points: 2
#     Edge 31, Type (0, 1), BuildingBlock: UVAHIK_clean_linker_0, # of connection points: 2
#     Edge 32, Type (0, 1), BuildingBlock: UVAHIK_clean_linker_0, # of connection points: 2
#     Edge 33, Type (0, 1), BuildingBlock: UVAHIK_clean_linker_0, # of connection points: 2
#     Edge 34, Type (0, 1), BuildingBlock: UVAHIK_clean_linker_0, # of connection points: 2
#     Edge 35, Type (0, 1), BuildingBlock: UVAHIK_clean_linker_0, # of connection points: 2
# Relax obj value: 0.141
# Max RMSD: 0.189
# Mean RMSD: 0.112
data_MOF--net-zzz--node1-OLANEW_clean_sbu_2--node2-CIFDUS_clean_sbu_1--edge1-UVAHIK_clean_linker_0
_symmetry_space_group_name_H-M    P1
_symmetry_Int_Tables_number       1
_symmetry_cell_setting            triclinic
loop_
_symmetry_equiv_pos_as_xyz
'x, y, z'
_cell_length_a     66.620811
_cell_length_b     66.625137
_cell_length_c     22.484031
_cell_angle_alpha  90.023244
_cell_angle_beta   89.946087
_cell_angle_gamma 89.991699
loop_
_atom_site_label
_atom_site_type_symbol
_atom_site_fract_x
_atom_site_fract_y
_atom_site_fract_z
_atom_type_partial_charge
O0 O 0.78216 0.62129 0.98458 0.0
Cd1 Cd 0.77934 0.61 0.88126 0.0
O2 O 0.79625 0.62554 0.07168 0.0
Cd3 Cd 0.82014 0.6194 0.13584 0.0
O4 O 0.84333 0.60667 0.193 0.0
C5 C 0.84377 0.5877 0.19865 0.0
O6 O 0.83044 0.57684 0.17001 0.0
C7 C 0.79724 0.619 0.01859 0.0
C8 C 0.7399 0.5989 0.85372 0.0
O9 O 0.7459 0.61701 0.84633 0.0
O10 O 0.75255 0.5861 0.8739 0.0
O11 O 0.90628 0.78392 0.96596 0.0
Cd12 Cd 0.89294 0.75164 0.00035 0.0
O13 O 0.91347 0.79071 0.05903 0.0
Cd14 Cd 0.92393 0.8114 0.12798 0.0
O15 O 0.9365 0.83532 0.18281 0.0
C16 C 0.9273 0.85193 0.18842 0.0
O17 O 0.90999 0.85439 0.16144 0.0
C18 C 0.91363 0.79579 0.00451 0.0
C19 C 0.9093 0.7184 0.94185 0.0
O20 O 0.91832 0.72661 0.9859 0.0
O21 O 0.89257 0.72599 0.92493 0.0
O22 O 0.74025 0.89937 0.98294 0.0
Cd23 Cd 0.744 0.91088 0.88001 0.0
O24 O 0.72589 0.89677 0.07043 0.0
Cd25 Cd 0.70069 0.90215 0.13115 0.0
O26 O 0.67601 0.9137 0.18546 0.0
C27 C 0.6755 0.91005 0.2409 0.0
O28 O 0.6897 0.89891 0.26439 0.0
C29 C 0.72553 0.90321 0.01719 0.0
C30 C 0.78333 0.92352 0.85602 0.0
O31 O 0.7781 0.90521 0.84793 0.0
O32 O 0.77 0.93579 0.87531 0.0
O33 O 0.63215 0.73452 0.9674 0.0
Cd34 Cd 0.64172 0.76799 0.00327 0.0
O35 O 0.6158 0.73054 0.05125 0.0
Cd36 Cd 0.596 0.71435 0.11298 0.0
O37 O 0.57955 0.69524 0.1755 0.0
C38 C 0.57271 0.67838 0.15851 0.0
O39 O 0.57496 0.67301 0.10273 0.0
C40 C 0.62175 0.72345 0.00167 0.0
C41 C 0.62187 0.80048 0.95102 0.0
O42 O 0.6388 0.79438 0.93073 0.0
O43 O 0.61416 0.79095 0.99498 0.0
O44 O 0.23765 0.40109 0.48299 0.0
Cd45 Cd 0.27064 0.39353 0.44016 0.0
O46 O 0.22687 0.40306 0.39115 0.0
Cd47 Cd 0.2045 0.41111 0.32413 0.0
O48 O 0.1806 0.42068 0.26423 0.0
C49 C 0.167 0.43258 0.28249 0.0
O50 O 0.16757 0.43898 0.33774 0.0
C51 C 0.22336 0.40415 0.44669 0.0
C52 C 0.30263 0.41215 0.49849 0.0
O53 O 0.29213 0.42161 0.45987 0.0
O54 O 0.2979 0.39392 0.51017 0.0
O55 O 0.12496 0.23589 0.47121 0.0
Cd56 Cd 0.14166 0.26805 0.45093 0.0
O57 O 0.13437 0.22263 0.38597 0.0
Cd58 Cd 0.13208 0.19844 0.3202 0.0
O59 O 0.12173 0.17386 0.26351 0.0
C60 C 0.10328 0.16906 0.2665 0.0
O61 O 0.09157 0.17887 0.30353 0.0
C62 C 0.12534 0.22104 0.43562 0.0
C63 C 0.1214 0.30146 0.49738 0.0
O64 O 0.11833 0.2955 0.44392 0.0
O65 O 0.13389 0.29152 0.52915 0.0
O66 O 0.28342 0.12055 0.49579 0.0
Cd67 Cd 0.25257 0.13918 0.47162 0.0
O68 O 0.29457 0.12331 0.40411 0.0
Cd69 Cd 0.31626 0.11634 0.33342 0.0
O70 O 0.3403 0.10559 0.27506 0.0
C71 C 0.34633 0.08759 0.28088 0.0
O72 O 0.33794 0.07619 0.32159 0.0
C73 C 0.29713 0.11742 0.45743 0.0
C74 C 0.21762 0.12535 0.52781 0.0
O75 O 0.22252 0.11923 0.47571 0.0
O76 O 0.22939 0.13777 0.55385 0.0
O77 O 0.40483 0.2842 0.46668 0.0
Cd78 Cd 0.39388 0.25165 0.42725 0.0
O79 O 0.40994 0.29367 0.37444 0.0
Cd80 Cd 0.42177 0.31489 0.30875 0.0
O81 O 0.43698 0.3357 0.24857 0.0
C82 C 0.43329 0.35441 0.25025 0.0
O83 O 0.41995 0.36118 0.28837 0.0
C84 C 0.41009 0.29766 0.42976 0.0
C85 C 0.4106 0.21821 0.48369 0.0
O86 O 0.41982 0.22718 0.44127 0.0
O87 O 0.39357 0.22523 0.5002 0.0
O88 O 0.01912 0.03085 0.7965 0.0
Mn89 Mn 0.01274 0.01334 0.72217 0.0
O90 O 0.99539 0.05488 0.8025 0.0
Mn91 Mn 0.98291 0.04931 0.73012 0.0
O92 O 0.00652 0.99576 0.64756 0.0
O93 O 0.04143 0.00377 0.72373 0.0
Mn94 Mn 0.04198 0.97736 0.71765 0.0
O95 O 0.00331 0.98971 0.77686 0.0
O96 O 0.03031 0.97173 0.64445 0.0
O97 O 0.02146 0.0369 0.66582 0.0
O98 O 0.99615 0.05929 0.66411 0.0
O99 O 0.06834 0.9856 0.72287 0.0
O100 O 0.02829 0.96715 0.78274 0.0
C101 C 0.96511 0.02234 0.72469 0.0
C102 C 0.01105 0.04605 0.82239 0.0
C103 C 0.01491 0.9805 0.62272 0.0
C104 C 0.06085 0.00352 0.72524 0.0
C105 C 0.01097 0.97345 0.79769 0.0
C106 C 0.01326 0.05312 0.64618 0.0
O107 O 0.98438 0.02312 0.72237 0.0
O108 O 0.95669 0.03979 0.72801 0.0
O109 O 0.53431 0.99895 0.79278 0.0
Mn110 Mn 0.51046 0.00919 0.74002 0.0
O111 O 0.5544 0.02514 0.81329 0.0
Mn112 Mn 0.54641 0.03921 0.74636 0.0
O113 O 0.4866 0.01935 0.6873 0.0
O114 O 0.50087 0.98087 0.73368 0.0
Mn115 Mn 0.47463 0.97882 0.73606 0.0
O116 O 0.49247 0.01342 0.81484 0.0
O117 O 0.46555 0.99348 0.67132 0.0
O118 O 0.5285 0.00494 0.66561 0.0
O119 O 0.55401 0.02712 0.67467 0.0
O120 O 0.48488 0.95283 0.73123 0.0
O121 O 0.46803 0.9899 0.8099 0.0
C122 C 0.51915 0.05674 0.7434 0.0
C123 C 0.54927 0.00688 0.82028 0.0
C124 C 0.47109 0.01154 0.66226 0.0
C125 C 0.50214 0.96163 0.7337 0.0
C126 C 0.47672 0.00469 0.83568 0.0
C127 C 0.54506 0.01278 0.64737 0.0
O128 O 0.52013 0.03749 0.74592 0.0
O129 O 0.53649 0.06535 0.7472 0.0
O130 O 0.52646 0.5361 0.76465 0.0
Mn131 Mn 0.51264 0.51421 0.71215 0.0
O132 O 0.50262 0.55532 0.80613 0.0
Mn133 Mn 0.48473 0.55016 0.74485 0.0
O134 O 0.49917 0.49193 0.65956 0.0
O135 O 0.53995 0.5044 0.69043 0.0
Mn136 Mn 0.54146 0.47815 0.6858 0.0
O137 O 0.51215 0.4945 0.78343 0.0
O138 O 0.52368 0.4716 0.62565 0.0
O139 O 0.51284 0.53426 0.64124 0.0
O140 O 0.49299 0.56001 0.67085 0.0
O141 O 0.56727 0.48826 0.67351 0.0
O142 O 0.53351 0.46927 0.76129 0.0
C143 C 0.46623 0.52351 0.74147 0.0
C144 C 0.52082 0.54973 0.80143 0.0
C145 C 0.50542 0.47731 0.62685 0.0
C146 C 0.55905 0.5055 0.68357 0.0
C147 C 0.52078 0.47777 0.7959 0.0
C148 C 0.50472 0.5516 0.63301 0.0
O149 O 0.48537 0.52405 0.73458 0.0
O150 O 0.45861 0.54073 0.75536 0.0
O151 O 0.02444 0.50125 0.80482 0.0
Mn152 Mn 0.00628 0.50414 0.73012 0.0
O153 O 0.04958 0.52369 0.79426 0.0
Mn154 Mn 0.0426 0.53328 0.71904 0.0
O155 O 0.98797 0.50705 0.65601 0.0
O156 O 0.99652 0.47619 0.74166 0.0
Mn157 Mn 0.97032 0.47404 0.74203 0.0
O158 O 0.98272 0.51537 0.78263 0.0
O159 O 0.96269 0.48478 0.66855 0.0
O160 O 0.02958 0.49244 0.67774 0.0
O161 O 0.05111 0.51737 0.65636 0.0
O162 O 0.98094 0.44809 0.74475 0.0
O163 O 0.96258 0.48943 0.80685 0.0
C164 C 0.01606 0.55159 0.71358 0.0
C165 C 0.04055 0.50985 0.8234 0.0
C166 C 0.97155 0.49866 0.63903 0.0
C167 C 0.99808 0.45701 0.73999 0.0
C168 C 0.96783 0.50778 0.81162 0.0
C169 C 0.04507 0.49936 0.65037 0.0
O170 O 0.0162 0.53231 0.71844 0.0
O171 O 0.03374 0.55944 0.70892 0.0
C172 C 0.18455 0.10741 0.5245 0.0
C173 C 0.19894 0.11825 0.55698 0.0
C174 C 0.16719 0.1002 0.55224 0.0
C175 C 0.14959 0.08306 0.69666 0.0
H176 H 0.09776 0.08123 0.61862 0.0
C177 C 0.06702 0.04116 0.72186 0.0
C178 C 0.07423 0.02135 0.72478 0.0
C179 C 0.08035 0.05722 0.71255 0.0
C180 C 0.11201 0.08189 0.64148 0.0
H181 H 0.20614 0.13042 0.64386 0.0
H182 H 0.17597 0.11746 0.69256 0.0
H183 H 0.12457 0.10203 0.57699 0.0
H184 H 0.10131 0.00318 0.72613 0.0
H185 H 0.12422 0.03085 0.71183 0.0
H186 H 0.13737 0.06218 0.75936 0.0
C187 C 0.17812 0.11463 0.64554 0.0
C188 C 0.12742 0.09365 0.61739 0.0
C189 C 0.19539 0.12205 0.61762 0.0
C190 C 0.09509 0.01817 0.72324 0.0
C191 C 0.10833 0.0341 0.71536 0.0
C192 C 0.13426 0.07115 0.72026 0.0
C193 C 0.16391 0.10348 0.61326 0.0
C194 C 0.14658 0.09382 0.64367 0.0
C195 C 0.10115 0.05374 0.70832 0.0
C196 C 0.11554 0.06985 0.69168 0.0
H197 H 0.18676 0.1043 0.47766 0.0
H198 H 0.15666 0.09143 0.5263 0.0
H199 H 0.16416 0.08284 0.71794 0.0
H200 H 0.05119 0.04425 0.72549 0.0
H201 H 0.07441 0.07227 0.70794 0.0
C202 C 0.43916 0.19443 0.5 0.0
C203 C 0.41925 0.20007 0.5119 0.0
C204 C 0.44729 0.17713 0.52553 0.0
C205 C 0.43984 0.14067 0.64857 0.0
H206 H 0.47862 0.11001 0.55761 0.0
C207 C 0.4947 0.06558 0.66495 0.0
C208 C 0.50159 0.06813 0.72331 0.0
C209 C 0.48154 0.07953 0.63972 0.0
C210 C 0.46755 0.1181 0.58351 0.0
H211 H 0.39219 0.19191 0.5598 0.0
H212 H 0.40621 0.16143 0.60327 0.0
H213 H 0.4617 0.13819 0.51159 0.0
H214 H 0.50052 0.08714 0.80111 0.0
H215 H 0.47741 0.1115 0.75771 0.0
H216 H 0.44542 0.12023 0.72012 0.0
C217 C 0.41571 0.17058 0.57515 0.0
C218 C 0.45808 0.13457 0.55731 0.0
C219 C 0.40764 0.18803 0.55002 0.0
C220 C 0.49482 0.08456 0.75665 0.0
C221 C 0.48159 0.09849 0.7316 0.0
C222 C 0.44918 0.12404 0.67466 0.0
C223 C 0.43564 0.16487 0.56311 0.0
C224 C 0.44444 0.14636 0.58984 0.0
C225 C 0.47516 0.09644 0.67223 0.0
C226 C 0.46348 0.11277 0.64285 0.0
H227 H 0.44857 0.20344 0.47116 0.0
H228 H 0.46282 0.17351 0.51624 0.0
H229 H 0.42948 0.14942 0.67517 0.0
H230 H 0.50034 0.05341 0.63767 0.0
H231 H 0.47674 0.07726 0.59422 0.0
C232 C 0.32145 0.44295 0.5292 0.0
C233 C 0.31991 0.42192 0.52791 0.0
C234 C 0.33792 0.45222 0.55615 0.0
C235 C 0.39054 0.44535 0.59026 0.0
H236 H 0.3826 0.48737 0.7074 0.0
C237 C 0.43859 0.49949 0.76176 0.0
C238 C 0.45325 0.50687 0.72274 0.0
C239 C 0.4233 0.48697 0.7408 0.0
C240 C 0.3851 0.47554 0.67519 0.0
H241 H 0.33446 0.3941 0.55335 0.0
H242 H 0.3636 0.4104 0.59905 0.0
H243 H 0.35356 0.47 0.66555 0.0
H244 H 0.46324 0.5076 0.6312 0.0
H245 H 0.4366 0.48563 0.5943 0.0
H246 H 0.42195 0.45146 0.59776 0.0
C247 C 0.3519 0.41963 0.57977 0.0
C248 C 0.36846 0.46573 0.65095 0.0
C249 C 0.33521 0.41034 0.55391 0.0
C250 C 0.45257 0.50138 0.66256 0.0
C251 C 0.4372 0.48897 0.64142 0.0
C252 C 0.40716 0.45546 0.6136 0.0
C253 C 0.35336 0.44065 0.58126 0.0
C254 C 0.37103 0.45056 0.60827 0.0
C255 C 0.42218 0.48192 0.68012 0.0
C256 C 0.40465 0.47061 0.65655 0.0
H257 H 0.30988 0.45226 0.50962 0.0
H258 H 0.33878 0.46846 0.55643 0.0
H259 H 0.39289 0.43382 0.55697 0.0
H260 H 0.43856 0.50401 0.80807 0.0
H261 H 0.41201 0.48171 0.77179 0.0
C262 C 0.11204 0.3241 0.58237 0.0
C263 C 0.11083 0.31929 0.52159 0.0
C264 C 0.10174 0.34071 0.6053 0.0
C265 C 0.05905 0.37448 0.57062 0.0
H266 H 0.08082 0.40665 0.69906 0.0
C267 C 0.01778 0.4446 0.65471 0.0
C268 C 0.01554 0.44618 0.71652 0.0
C269 C 0.03118 0.43071 0.63033 0.0
C270 C 0.07453 0.39775 0.66333 0.0
H271 H 0.0983 0.32851 0.43694 0.0
H272 H 0.08073 0.35766 0.47649 0.0
H273 H 0.10087 0.37944 0.65667 0.0
H274 H 0.02542 0.43485 0.80166 0.0
H275 H 0.04949 0.41087 0.75918 0.0
H276 H 0.03278 0.39278 0.57704 0.0
C277 C 0.08923 0.34835 0.50689 0.0
C278 C 0.08598 0.3821 0.63913 0.0
C279 C 0.09939 0.33167 0.48409 0.0
C280 C 0.02735 0.43418 0.75385 0.0
C281 C 0.04102 0.42045 0.72948 0.0
C282 C 0.04772 0.3902 0.59438 0.0
C283 C 0.09008 0.353 0.56793 0.0
C284 C 0.07833 0.37017 0.59265 0.0
C285 C 0.04267 0.41818 0.66738 0.0
C286 C 0.05527 0.40198 0.64116 0.0
H287 H 0.12071 0.31486 0.61251 0.0
H288 H 0.10255 0.34362 0.65262 0.0
H289 H 0.05244 0.3654 0.53582 0.0
H290 H 0.00849 0.45349 0.6252 0.0
H291 H 0.03231 0.42956 0.58239 0.0
C292 C 0.80948 0.95052 0.85241 0.0
C293 C 0.80412 0.93034 0.84361 0.0
C294 C 0.82903 0.95706 0.84102 0.0
C295 C 0.87518 0.94445 0.75775 0.0
H296 H 0.89849 0.98428 0.86267 0.0
C297 C 0.94034 0.99708 0.69052 0.0
C298 C 0.95331 0.00411 0.73491 0.0
C299 C 0.92472 0.98389 0.70484 0.0
C300 C 0.89245 0.9729 0.83334 0.0
H301 H 0.81519 0.90119 0.81575 0.0
H302 H 0.84944 0.91262 0.79622 0.0
H303 H 0.86608 0.96977 0.88678 0.0
H304 H 0.96065 0.00273 0.82843 0.0
H305 H 0.93377 0.97924 0.85354 0.0
H306 H 0.90165 0.94767 0.70422 0.0
C307 C 0.83842 0.92341 0.81148 0.0
C308 C 0.87366 0.9648 0.84676 0.0
C309 C 0.81881 0.91685 0.82294 0.0
C310 C 0.95104 0.99712 0.79329 0.0
C311 C 0.93546 0.98392 0.8077 0.0
C312 C 0.89405 0.95257 0.74428 0.0
C313 C 0.84378 0.9436 0.8206 0.0
C314 C 0.86457 0.95079 0.80856 0.0
C315 C 0.92162 0.97776 0.7641 0.0
C316 C 0.90277 0.96717 0.7814 0.0
H317 H 0.79854 0.96135 0.868 0.0
H318 H 0.83252 0.97279 0.8475 0.0
H319 H 0.8686 0.93373 0.72725 0.0
H320 H 0.9415 0.00281 0.64554 0.0
H321 H 0.91423 0.9797 0.67022 0.0
C322 C 0.59201 0.82312 0.94244 0.0
C323 C 0.61176 0.81835 0.92571 0.0
C324 C 0.58265 0.84033 0.92036 0.0
C325 C 0.5856 0.87839 0.79994 0.0
H326 H 0.54867 0.90678 0.90329 0.0
C327 C 0.52861 0.95209 0.80549 0.0
C328 C 0.5203 0.95022 0.74858 0.0
C329 C 0.5427 0.93814 0.82585 0.0
C330 C 0.55919 0.89934 0.87391 0.0
H331 H 0.63718 0.82795 0.87256 0.0
H332 H 0.621 0.85827 0.83502 0.0
H333 H 0.56757 0.87861 0.9419 0.0
H334 H 0.51976 0.93234 0.66839 0.0
H335 H 0.54445 0.90797 0.70333 0.0
H336 H 0.5775 0.8995 0.73229 0.0
C337 C 0.61259 0.8485 0.86435 0.0
C338 C 0.5698 0.88287 0.89589 0.0
C339 C 0.6219 0.83114 0.88605 0.0
C340 C 0.52652 0.93442 0.71177 0.0
C341 C 0.54067 0.92048 0.73195 0.0
C342 C 0.57511 0.89503 0.77805 0.0
C343 C 0.59285 0.85338 0.88146 0.0
C344 C 0.58281 0.87188 0.85891 0.0
C345 C 0.54861 0.92188 0.78988 0.0
C346 C 0.56145 0.9055 0.81442 0.0
H347 H 0.58373 0.81352 0.9726 0.0
H348 H 0.56729 0.8433 0.9335 0.0
H349 H 0.59544 0.87029 0.77002 0.0
H350 H 0.5234 0.96368 0.83558 0.0
H351 H 0.54859 0.9399 0.87041 0.0
C352 C 0.71289 0.57287 0.84676 0.0
C353 C 0.71903 0.59289 0.83938 0.0
C354 C 0.69329 0.56706 0.83306 0.0
C355 C 0.64908 0.58158 0.74426 0.0
H356 H 0.62321 0.54105 0.84133 0.0
C357 C 0.58559 0.53028 0.65905 0.0
C358 C 0.57142 0.5229 0.6996 0.0
C359 C 0.60092 0.5431 0.67819 0.0
C360 C 0.62996 0.55266 0.81417 0.0
H361 H 0.70929 0.62255 0.81203 0.0
H362 H 0.67494 0.61239 0.7885 0.0
H363 H 0.65516 0.555 0.87252 0.0
H364 H 0.56218 0.52275 0.79182 0.0
H365 H 0.58841 0.54567 0.82517 0.0
H366 H 0.62379 0.57916 0.68582 0.0
C367 C 0.68539 0.60116 0.80437 0.0
C368 C 0.64849 0.56044 0.83167 0.0
C369 C 0.70505 0.60699 0.81809 0.0
C370 C 0.57242 0.52896 0.75922 0.0
C371 C 0.58775 0.54172 0.77849 0.0
C372 C 0.63046 0.57382 0.72676 0.0
C373 C 0.67927 0.58111 0.81175 0.0
C374 C 0.65854 0.5746 0.7962 0.0
C375 C 0.60257 0.54847 0.73859 0.0
C376 C 0.62089 0.5589 0.76079 0.0
H377 H 0.72328 0.5616 0.86282 0.0
H378 H 0.68924 0.55141 0.83823 0.0
H379 H 0.65641 0.59246 0.71581 0.0
H380 H 0.58544 0.52527 0.6132 0.0
H381 H 0.61224 0.54766 0.64634 0.0
C382 C 0.906 0.68843 0.87481 0.0
C383 C 0.91791 0.70059 0.91182 0.0
C384 C 0.91415 0.67139 0.84744 0.0
C385 C 0.96168 0.65019 0.79597 0.0
H386 H 0.93597 0.59821 0.81079 0.0
C387 C 0.99475 0.5803 0.68348 0.0
C388 C 0.99848 0.56448 0.72311 0.0
C389 C 0.98184 0.59594 0.69943 0.0
C390 C 0.94321 0.61265 0.80613 0.0
H391 H 0.94772 0.7045 0.94872 0.0
H392 H 0.96202 0.67504 0.89993 0.0
H393 H 0.91985 0.62801 0.85375 0.0
H394 H 0.99206 0.5527 0.81067 0.0
H395 H 0.96906 0.57979 0.83827 0.0
H396 H 0.98515 0.63489 0.74929 0.0
C397 C 0.94637 0.67864 0.89237 0.0
C398 C 0.93398 0.62969 0.83033 0.0
C399 C 0.93816 0.69545 0.92049 0.0
C400 C 0.98864 0.56421 0.77823 0.0
C401 C 0.97567 0.57983 0.79422 0.0
C402 C 0.97074 0.63324 0.77113 0.0
C403 C 0.93445 0.66642 0.8557 0.0
C404 C 0.94332 0.64856 0.82636 0.0
C405 C 0.97259 0.59613 0.75563 0.0
C406 C 0.96176 0.61425 0.77673 0.0
H407 H 0.89033 0.69196 0.86748 0.0
H408 H 0.90467 0.66225 0.8192 0.0
H409 H 0.96912 0.66458 0.79189 0.0
H410 H 0.00266 0.58108 0.6414 0.0
H411 H 0.97975 0.60833 0.66887 0.0
C412 C 0.09644 0.20298 0.48151 0.0
C413 C 0.11486 0.20226 0.45149 0.0
C414 C 0.08658 0.18528 0.49742 0.0
C415 C 0.08448 0.13043 0.46752 0.0
H416 H 0.05583 0.13046 0.61768 0.0
C417 C 0.04461 0.06219 0.5887 0.0
C418 C 0.02497 0.06686 0.60742 0.0
C419 C 0.05669 0.07694 0.56209 0.0
C420 C 0.06378 0.13025 0.57561 0.0
H421 H 0.1379 0.18252 0.41667 0.0
H422 H 0.12077 0.15151 0.44482 0.0
H423 H 0.07516 0.15983 0.58883 0.0
H424 H 0.00214 0.09023 0.60763 0.0
H425 H 0.0233 0.1157 0.56327 0.0
H426 H 0.07304 0.10048 0.45542 0.0
C427 C 0.11361 0.16573 0.45452 0.0
C428 C 0.07474 0.14712 0.55882 0.0
C429 C 0.12339 0.18349 0.43822 0.0
C430 C 0.01726 0.08606 0.59484 0.0
C431 C 0.02937 0.10075 0.56946 0.0
C432 C 0.07362 0.11336 0.4848 0.0
C433 C 0.09511 0.16642 0.48464 0.0
C434 C 0.08482 0.14767 0.50391 0.0
C435 C 0.0494 0.09658 0.555 0.0
C436 C 0.06278 0.11338 0.53834 0.0
H437 H 0.08953 0.21727 0.49214 0.0
H438 H 0.07218 0.18642 0.51952 0.0
H439 H 0.09204 0.13035 0.42486 0.0
H440 H 0.05094 0.04748 0.59692 0.0
H441 H 0.07199 0.0733 0.55004 0.0
C442 C 0.31535 0.09186 0.51848 0.0
C443 C 0.31579 0.10693 0.47489 0.0
C444 C 0.33302 0.08209 0.53551 0.0
C445 C 0.37415 0.07386 0.58904 0.0
H446 H 0.41307 0.0566 0.47115 0.0
C447 C 0.45079 0.04271 0.65883 0.0
C448 C 0.4568 0.02479 0.63133 0.0
C449 C 0.43492 0.05395 0.63577 0.0
C450 C 0.40233 0.06132 0.50452 0.0
H451 H 0.33532 0.12458 0.41815 0.0
H452 H 0.36603 0.1071 0.44631 0.0
H453 H 0.3821 0.0732 0.43922 0.0
H454 H 0.4509 0.00435 0.55863 0.0
H455 H 0.42298 0.02401 0.51794 0.0
H456 H 0.39413 0.06183 0.65428 0.0
C457 C 0.35196 0.10246 0.46618 0.0
C458 C 0.38468 0.07093 0.48631 0.0
C459 C 0.33431 0.11232 0.44956 0.0
C460 C 0.4468 0.01837 0.5798 0.0
C461 C 0.43088 0.02964 0.55657 0.0
C462 C 0.39182 0.06442 0.60722 0.0
C463 C 0.35151 0.08726 0.50943 0.0
C464 C 0.37035 0.0772 0.52841 0.0
C465 C 0.42448 0.04732 0.58517 0.0
C466 C 0.40609 0.05798 0.56522 0.0
H467 H 0.3013 0.0875 0.53908 0.0
H468 H 0.33218 0.07036 0.56877 0.0
H469 H 0.36352 0.07871 0.62258 0.0
H470 H 0.45772 0.04755 0.69998 0.0
H471 H 0.43047 0.06758 0.65857 0.0
C472 C 0.41111 0.33498 0.42022 0.0
C473 C 0.41679 0.31754 0.45082 0.0
C474 C 0.41787 0.3538 0.43897 0.0
C475 C 0.44409 0.38994 0.4637 0.0
H476 H 0.45337 0.40084 0.63069 0.0
C477 C 0.49479 0.4547 0.54418 0.0
C478 C 0.49068 0.46376 0.59918 0.0
C479 C 0.4831 0.43866 0.52398 0.0
C480 C 0.45057 0.39829 0.58388 0.0
H481 H 0.43352 0.30598 0.52578 0.0
H482 H 0.44601 0.33871 0.55756 0.0
H483 H 0.43754 0.36959 0.6015 0.0
H484 H 0.47146 0.46295 0.67678 0.0
H485 H 0.45071 0.43545 0.64127 0.0
H486 H 0.45663 0.4189 0.44625 0.0
C487 C 0.43599 0.33804 0.51973 0.0
C488 C 0.44178 0.38012 0.56703 0.0
C489 C 0.42897 0.31924 0.50139 0.0
C490 C 0.47442 0.45681 0.63303 0.0
C491 C 0.46278 0.44073 0.61309 0.0
C492 C 0.45267 0.40822 0.48061 0.0
C493 C 0.43065 0.35558 0.4885 0.0
C494 C 0.43874 0.37553 0.50667 0.0
C495 C 0.46719 0.43115 0.55882 0.0
C496 C 0.45636 0.41252 0.54088 0.0
H497 H 0.40122 0.33411 0.38211 0.0
H498 H 0.41298 0.36697 0.41478 0.0
H499 H 0.44216 0.38692 0.41673 0.0
H500 H 0.50759 0.45948 0.518 0.0
H501 H 0.48727 0.43147 0.48259 0.0
C502 C 0.20141 0.42237 0.51889 0.0
C503 C 0.20329 0.41004 0.46858 0.0
C504 C 0.18253 0.42913 0.53727 0.0
C505 C 0.13168 0.4387 0.48005 0.0
H506 H 0.11871 0.44428 0.64733 0.0
C507 C 0.06367 0.46711 0.6476 0.0
C508 C 0.05868 0.48527 0.61988 0.0
C509 C 0.07922 0.45519 0.62552 0.0
C510 C 0.1219 0.44258 0.60037 0.0
H511 H 0.1868 0.39365 0.40123 0.0
H512 H 0.15382 0.40565 0.43275 0.0
H513 H 0.14993 0.42811 0.61817 0.0
H514 H 0.06594 0.50533 0.54731 0.0
H515 H 0.09326 0.48457 0.50846 0.0
H516 H 0.10363 0.45325 0.46232 0.0
C517 C 0.16697 0.41058 0.45697 0.0
C518 C 0.13996 0.43353 0.58371 0.0
C519 C 0.18586 0.40382 0.43866 0.0
C520 C 0.06924 0.49115 0.56874 0.0
C521 C 0.08483 0.47922 0.54649 0.0
C522 C 0.1136 0.4478 0.49674 0.0
C523 C 0.16512 0.42355 0.50597 0.0
C524 C 0.14521 0.43176 0.52342 0.0
C525 C 0.09033 0.46132 0.57554 0.0
C526 C 0.10863 0.4501 0.55714 0.0
H527 H 0.21461 0.42731 0.54293 0.0
H528 H 0.18165 0.43922 0.57496 0.0
H529 H 0.13534 0.43768 0.43319 0.0
H530 H 0.05635 0.46268 0.68854 0.0
H531 H 0.083 0.44152 0.64889 0.0
C532 C 0.93947 0.8228 0.01339 0.0
C533 C 0.92199 0.81538 0.98638 0.0
C534 C 0.94725 0.84148 0.99721 0.0
C535 C 0.94672 0.87851 0.87498 0.0
H536 H 0.97075 0.91338 0.99341 0.0
C537 C 0.97872 0.95531 0.80993 0.0
C538 C 0.99804 0.95954 0.83127 0.0
C539 C 0.96747 0.93964 0.83416 0.0
C540 C 0.96414 0.90377 0.95985 0.0
H541 H 0.89917 0.82138 0.9203 0.0
H542 H 0.91261 0.85419 0.89213 0.0
H543 H 0.95479 0.88206 0.02438 0.0
H544 H 0.02087 0.95075 0.89451 0.0
H545 H 0.00125 0.92317 0.93709 0.0
H546 H 0.9562 0.90008 0.81045 0.0
C547 C 0.92039 0.84556 0.92576 0.0
C548 C 0.95505 0.8858 0.97751 0.0
C549 C 0.91265 0.8268 0.94189 0.0
C550 C 0.00581 0.94804 0.87819 0.0
C551 C 0.99456 0.93231 0.90255 0.0
C552 C 0.95571 0.8965 0.85742 0.0
C553 C 0.93778 0.85315 0.95332 0.0
C554 C 0.94643 0.87283 0.93518 0.0
C555 C 0.97545 0.92762 0.87973 0.0
C556 C 0.9647 0.90925 0.89953 0.0
H557 H 0.9474 0.81396 0.04624 0.0
H558 H 0.96096 0.84657 0.01824 0.0
H559 H 0.94055 0.86877 0.84104 0.0
H560 H 0.97286 0.96322 0.7717 0.0
H561 H 0.95278 0.93649 0.81571 0.0
C562 C 0.69929 0.92942 0.03224 0.0
C563 C 0.70804 0.91471 0.99583 0.0
C564 C 0.68159 0.93901 0.01502 0.0
C565 C 0.63709 0.93221 0.92077 0.0
H566 H 0.63057 0.98959 0.94223 0.0
C567 C 0.57144 0.97703 0.81868 0.0
C568 C 0.56388 0.99365 0.84981 0.0
C569 C 0.58782 0.96627 0.84059 0.0
C570 C 0.63196 0.97349 0.93696 0.0
H571 H 0.70572 0.89897 0.91189 0.0
H572 H 0.67467 0.91585 0.88129 0.0
H573 H 0.66213 0.97368 0.96959 0.0
H574 H 0.56745 0.01223 0.92795 0.0
H575 H 0.59589 0.99315 0.96752 0.0
H576 H 0.60687 0.93198 0.88834 0.0
C577 C 0.68137 0.91976 0.92362 0.0
C578 C 0.65013 0.9644 0.95233 0.0
C579 C 0.69921 0.91027 0.94074 0.0
C580 C 0.57281 0.99921 0.90379 0.0
C581 C 0.5892 0.98841 0.92596 0.0
C582 C 0.61885 0.94129 0.90572 0.0
C583 C 0.67225 0.93407 0.96094 0.0
C584 C 0.65294 0.94369 0.94414 0.0
C585 C 0.5972 0.97208 0.8939 0.0
C586 C 0.61609 0.96208 0.91335 0.0
H587 H 0.70606 0.93341 0.0744 0.0
H588 H 0.67494 0.94993 0.0448 0.0
H589 H 0.6387 0.91616 0.91484 0.0
H590 H 0.56536 0.973 0.77561 0.0
H591 H 0.59375 0.95406 0.81407 0.0
C592 C 0.61274 0.69815 0.92364 0.0
C593 C 0.61642 0.70278 0.98364 0.0
C594 C 0.60642 0.67888 0.90732 0.0
C595 C 0.57652 0.63873 0.96318 0.0
H596 H 0.59951 0.60543 0.83922 0.0
C597 C 0.53598 0.56673 0.88981 0.0
C598 C 0.53622 0.56252 0.8288 0.0
C599 C 0.54913 0.58104 0.91352 0.0
C600 C 0.59272 0.61462 0.87347 0.0
H601 H 0.6187 0.6903 0.0724 0.0
H602 H 0.60707 0.65682 0.04402 0.0
H603 H 0.61644 0.63642 0.86868 0.0
H604 H 0.55001 0.56981 0.74441 0.0
H605 H 0.57225 0.59527 0.78461 0.0
H606 H 0.55212 0.6181 0.96576 0.0
C607 C 0.60856 0.66827 0.01009 0.0
C608 C 0.60254 0.63228 0.89051 0.0
C609 C 0.61494 0.68747 0.02635 0.0
C610 C 0.54989 0.57257 0.79193 0.0
C611 C 0.56272 0.58713 0.81523 0.0
C612 C 0.56644 0.62139 0.94525 0.0
C613 C 0.60376 0.66396 0.95075 0.0
C614 C 0.5944 0.64455 0.93512 0.0
C615 C 0.5623 0.59188 0.87626 0.0
C616 C 0.57423 0.60918 0.89954 0.0
H617 H 0.61407 0.7096 0.88968 0.0
H618 H 0.60283 0.67586 0.8612 0.0
H619 H 0.56987 0.64808 0.99737 0.0
H620 H 0.52541 0.5592 0.91888 0.0
H621 H 0.54861 0.58388 0.96089 0.0
C622 C 0.81412 0.59134 0.96193 0.0
C623 C 0.81548 0.60852 0.9978 0.0
C624 C 0.8315 0.58097 0.94494 0.0
C625 C 0.88637 0.58699 0.92765 0.0
H626 H 0.88664 0.5288 0.93222 0.0
C627 C 0.94701 0.53865 0.81331 0.0
C628 C 0.95377 0.52133 0.84249 0.0
C629 C 0.93136 0.55007 0.83707 0.0
C630 C 0.88688 0.54505 0.93136 0.0
H631 H 0.836 0.62896 0.04151 0.0
H632 H 0.86626 0.61075 0.01292 0.0
H633 H 0.85657 0.54708 0.9626 0.0
H634 H 0.94932 0.50205 0.9188 0.0
H635 H 0.92198 0.5222 0.9612 0.0
H636 H 0.91673 0.58495 0.89682 0.0
C637 C 0.85185 0.60519 0.99795 0.0
C638 C 0.86956 0.55552 0.94796 0.0
C639 C 0.83451 0.61547 0.015 0.0
C640 C 0.94463 0.51561 0.89616 0.0
C641 C 0.92892 0.52704 0.92004 0.0
C642 C 0.90366 0.57652 0.91088 0.0
C643 C 0.85056 0.58772 0.96309 0.0
C644 C 0.86905 0.5766 0.94595 0.0
C645 C 0.92194 0.54426 0.89028 0.0
C646 C 0.90407 0.55543 0.91211 0.0
H647 H 0.79962 0.58565 0.94816 0.0
H648 H 0.83001 0.56772 0.91737 0.0
H649 H 0.88646 0.60323 0.92524 0.0
H650 H 0.95298 0.5427 0.77015 0.0
H651 H 0.92596 0.56286 0.81212 0.0
C652 C 0.07399 0.15058 0.22344 0.0
C653 C 0.09486 0.15335 0.22711 0.0
C654 C 0.06587 0.13645 0.18435 0.0
C655 C 0.07832 0.10774 0.04794 0.0
H656 H 0.02899 0.07969 0.0864 0.0
C657 C 0.04142 0.05095 0.88676 0.0
C658 C 0.02095 0.05455 0.87572 0.0
C659 C 0.05121 0.06065 0.93372 0.0
C660 C 0.04277 0.08743 0.07509 0.0
H661 H 0.12362 0.14298 0.19394 0.0
H662 H 0.10949 0.11794 0.12677 0.0
H663 H 0.04498 0.10079 0.16133 0.0
H664 H 0.99456 0.07052 0.90679 0.0
H665 H 0.0116 0.08717 0.98908 0.0
H666 H 0.07602 0.0943 0.96163 0.0
C667 C 0.09934 0.12704 0.15304 0.0
C668 C 0.05191 0.0996 0.11788 0.0
C669 C 0.10746 0.14132 0.19181 0.0
C670 C 0.01034 0.06746 0.91397 0.0
C671 C 0.02007 0.07692 0.96134 0.0
C672 C 0.06929 0.09539 0.00538 0.0
C673 C 0.07842 0.12456 0.14831 0.0
C674 C 0.06961 0.11023 0.10453 0.0
C675 C 0.04067 0.07389 0.9711 0.0
C676 C 0.05123 0.08539 0.01817 0.0
H677 H 0.06384 0.15964 0.24985 0.0
H678 H 0.0497 0.13526 0.18132 0.0
H679 H 0.09176 0.11589 0.03561 0.0
H680 H 0.05005 0.04117 0.85795 0.0
H681 H 0.06708 0.05794 0.94046 0.0
C682 C 0.36578 0.05855 0.23987 0.0
C683 C 0.36199 0.0793 0.24098 0.0
C684 C 0.37985 0.05051 0.20038 0.0
C685 C 0.42397 0.06242 0.1089 0.0
H686 H 0.40628 0.01736 0.01331 0.0
C687 C 0.46858 0.03326 0.90431 0.0
C688 C 0.46723 0.01275 0.89022 0.0
C689 C 0.45729 0.04129 0.95121 0.0
C690 C 0.41171 0.02967 0.04032 0.0
H691 H 0.37049 0.10796 0.20276 0.0
H692 H 0.39529 0.09386 0.13411 0.0
H693 H 0.38389 0.03146 0.0877 0.0
H694 H 0.4541 0.98436 0.91655 0.0
H695 H 0.43519 0.99809 -0.00033 0.0
H696 H 0.45193 0.06048 0.06211 0.0
C697 C 0.38728 0.08386 0.16377 0.0
C698 C 0.39877 0.03782 0.08282 0.0
C699 C 0.373 0.0919 0.20282 0.0
C700 C 0.45525 1.00027 0.92587 0.0
C701 C 0.44426 0.00821 0.97326 0.0
C702 C 0.43707 0.05409 0.0668 0.0
C703 C 0.39064 0.06305 0.1616 0.0
C704 C 0.40472 0.0543 0.11744 0.0
C705 C 0.44463 0.02892 0.98554 0.0
C706 C 0.43109 0.03761 0.03181 0.0
H707 H 0.35762 0.04842 0.26877 0.0
H708 H 0.38228 0.03443 0.20005 0.0
H709 H 0.42899 0.07505 0.13533 0.0
H710 H 0.47759 0.04328 0.8773 0.0
H711 H 0.45788 0.05732 0.95884 0.0
C712 C 0.4388 0.38888 0.20847 0.0
C713 C 0.44374 0.36836 0.20932 0.0
C714 C 0.44836 0.40195 0.16891 0.0
C715 C 0.49352 0.40739 0.0746 0.0
H716 H 0.46053 0.44467 0.98542 0.0
C717 C 0.52146 0.44756 0.86264 0.0
C718 C 0.51469 0.46717 0.85111 0.0
C719 C 0.51409 0.43678 0.91129 0.0
C720 C 0.47005 0.43462 0.01063 0.0
H721 H 0.46284 0.34557 0.16986 0.0
H722 H 0.47944 0.36836 0.10077 0.0
H723 H 0.44516 0.42348 0.06099 0.0
H724 H 0.49545 0.49111 0.88361 0.0
H725 H 0.48292 0.47243 0.96893 0.0
H726 H 0.51841 0.41842 0.02393 0.0
C727 C 0.46828 0.37437 0.131 0.0
C728 C 0.46121 0.42243 0.05391 0.0
C729 C 0.45866 0.36128 0.17034 0.0
C730 C 0.50093 0.476 0.8908 0.0
C731 C 0.49362 0.46523 0.93957 0.0
C732 C 0.50239 0.41964 0.03147 0.0
C733 C 0.46315 0.39483 0.12956 0.0
C734 C 0.4728 0.40853 0.08593 0.0
C735 C 0.49982 0.44536 0.94979 0.0
C736 C 0.49073 0.43325 -0.00152 0.0
H737 H 0.42744 0.39485 0.23808 0.0
H738 H 0.44423 0.41768 0.16929 0.0
H739 H 0.50291 0.39703 0.09917 0.0
H740 H 0.532 0.44023 0.83303 0.0
H741 H 0.51905 0.42144 0.91736 0.0
C742 C 0.13634 0.45318 0.26094 0.0
C743 C 0.1511 0.43959 0.24149 0.0
C744 C 0.12177 0.46034 0.22149 0.0
C745 C 0.09793 0.44988 0.07582 0.0
H746 H 0.08688 0.50702 0.07559 0.0
C747 C 0.0427 0.48543 0.90841 0.0
C748 C 0.04977 0.50281 0.87968 0.0
C749 C 0.05262 0.47787 0.95845 0.0
C750 C 0.08979 0.49103 0.07512 0.0
H751 H 0.16191 0.42259 0.16562 0.0
H752 H 0.13669 0.43518 0.09689 0.0
H753 H 0.10909 0.49293 0.15094 0.0
H754 H 0.07241 0.52625 0.88265 0.0
H755 H 0.08967 0.51299 0.96921 0.0
H756 H 0.07928 0.44809 -0.00139 0.0
C757 C 0.1362 0.44015 0.14274 0.0
C758 C 0.10236 0.48292 0.11867 0.0
C759 C 0.15076 0.43304 0.18208 0.0
C760 C 0.06654 0.51281 0.90344 0.0
C761 C 0.07639 0.50529 0.95346 0.0
C762 C 0.08534 0.45798 0.03233 0.0
C763 C 0.12162 0.454 0.16183 0.0
C764 C 0.10686 0.46231 0.11887 0.0
C765 C 0.06975 0.48756 0.98102 0.0
C766 C 0.08141 0.47871 0.03084 0.0
H767 H 0.13611 0.45845 0.30652 0.0
H768 H 0.11062 0.47082 0.23772 0.0
H769 H 0.10089 0.4339 0.07523 0.0
H770 H 0.02982 0.47735 0.89141 0.0
H771 H 0.04699 0.4643 0.97911 0.0
C772 C 0.95554 0.86657 0.24768 0.0
C773 C 0.93591 0.86819 0.22531 0.0
C774 C 0.9636 0.88172 0.2833 0.0
C775 C 0.94912 0.92187 0.38553 0.0
H776 H 0.0045 0.93855 0.36623 0.0
C777 C 0.98679 0.9777 0.54832 0.0
C778 C 0.00596 0.97187 0.568 0.0
C779 C 0.97781 0.96802 0.4998 0.0
C780 C 0.98903 0.93401 0.37237 0.0
H781 H 0.90943 0.88713 0.22235 0.0
H782 H 0.92352 0.91355 0.2852 0.0
H783 H 0.98954 0.91561 0.29428 0.0
H784 H 0.03099 0.95181 0.55054 0.0
H785 H 0.01534 0.93494 0.46724 0.0
H786 H 0.9488 0.93965 0.46483 0.0
C787 C 0.93261 0.9005 0.27511 0.0
C788 C 0.98047 0.92088 0.33113 0.0
C789 C 0.92459 0.8854 0.23898 0.0
C790 C 0.01619 0.95668 0.53684 0.0
C791 C 0.00726 0.94709 0.48855 0.0
C792 C 0.95772 0.93492 0.42706 0.0
C793 C 0.95219 0.89879 0.29773 0.0
C794 C 0.96057 0.91434 0.33797 0.0
C795 C 0.98786 0.95242 0.46986 0.0
C796 C 0.97792 0.94077 0.42171 0.0
H797 H 0.96468 0.85353 0.23791 0.0
H798 H 0.97864 0.87986 0.30069 0.0
H799 H 0.93378 0.91697 0.39219 0.0
H800 H 0.97848 0.98933 0.57131 0.0
H801 H 0.96292 0.97261 0.48615 0.0
C802 C 0.66022 0.91636 0.34098 0.0
C803 C 0.65982 0.91919 0.27907 0.0
C804 C 0.64625 0.92598 0.37755 0.0
C805 C 0.59708 0.95158 0.37926 0.0
H806 H 0.61856 0.97745 0.52003 0.0
C807 C 0.5485 0.98564 0.57005 0.0
C808 C 0.55536 0.00373 0.59528 0.0
C809 C 0.5599 0.97571 0.52672 0.0
C810 C 0.61234 0.97043 0.48068 0.0
H811 H 0.64398 0.93386 0.20683 0.0
H812 H 0.61959 0.95069 0.27089 0.0
H813 H 0.6409 0.95871 0.45476 0.0
H814 H 0.57905 0.02611 0.59177 0.0
H815 H 0.59874 0.00885 0.51643 0.0
H816 H 0.56846 0.96351 0.40546 0.0
C817 C 0.63069 0.94095 0.29102 0.0
C818 C 0.6251 0.95949 0.44366 0.0
C819 C 0.64473 0.93139 0.25439 0.0
C820 C 0.57335 0.01213 0.57391 0.0
C821 C 0.58473 0.00219 0.53088 0.0
C822 C 0.58424 0.96245 0.41669 0.0
C823 C 0.6315 0.9386 0.35309 0.0
C824 C 0.61765 0.94995 0.39252 0.0
C825 C 0.57841 0.98363 0.50795 0.0
C826 C 0.59178 0.97208 0.46763 0.0
H827 H 0.67154 0.90697 0.36146 0.0
H828 H 0.64707 0.92363 0.42516 0.0
H829 H 0.5909 0.9443 0.34031 0.0
H830 H 0.53474 0.9787 0.58545 0.0
H831 H 0.55468 0.9614 0.50996 0.0
C832 C 0.55664 0.67145 0.25714 0.0
C833 C 0.56337 0.66446 0.20163 0.0
C834 C 0.54848 0.65813 0.29865 0.0
C835 C 0.55069 0.6063 0.34698 0.0
H836 H 0.50063 0.61807 0.4278 0.0
C837 C 0.51871 0.55365 0.52904 0.0
C838 C 0.50967 0.563 0.57831 0.0
C839 C 0.52379 0.56484 0.47845 0.0
C840 C 0.51476 0.61464 0.40624 0.0
H841 H 0.56677 0.63806 0.14597 0.0
H842 H 0.55292 0.61473 0.21933 0.0
H843 H 0.5124 0.64022 0.3489 0.0
H844 H 0.49909 0.59152 0.61313 0.0
H845 H 0.50848 0.61094 0.52663 0.0
H846 H 0.55364 0.58128 0.40586 0.0
C847 C 0.55384 0.63053 0.2303 0.0
C848 C 0.52141 0.6273 0.36082 0.0
C849 C 0.56166 0.6439 0.18833 0.0
C850 C 0.50581 0.58373 0.57578 0.0
C851 C 0.51109 0.5949 0.52576 0.0
C852 C 0.54421 0.59379 0.39311 0.0
C853 C 0.54722 0.63753 0.28586 0.0
C854 C 0.53953 0.62337 0.33124 0.0
C855 C 0.52015 0.58566 0.47632 0.0
C856 C 0.52628 0.59795 0.42396 0.0
H857 H 0.55772 0.68721 0.2686 0.0
H858 H 0.5436 0.66387 0.34138 0.0
H859 H 0.56481 0.60304 0.32507 0.0
H860 H 0.52182 0.53769 0.52946 0.0
H861 H 0.5305 0.55713 0.44098 0.0
C862 C 0.87397 0.5892 0.26519 0.0
C863 C 0.85859 0.57796 0.23826 0.0
C864 C 0.88757 0.58001 0.30394 0.0
C865 C 0.89197 0.53686 0.40399 0.0
H866 H 0.94911 0.54786 0.39854 0.0
C867 C 0.94638 0.49491 0.55727 0.0
C868 C 0.96151 0.50627 0.58481 0.0
C869 C 0.93522 0.50293 0.51044 0.0
C870 C 0.93317 0.54477 0.40101 0.0
H871 H 0.84566 0.54819 0.23021 0.0
H872 H 0.86931 0.53224 0.29798 0.0
H873 H 0.92678 0.56357 0.32596 0.0
H874 H 0.97725 0.53478 0.58341 0.0
H875 H 0.9575 0.54894 0.50242 0.0
H876 H 0.8981 0.5185 0.47961 0.0
C877 C 0.87077 0.54817 0.28936 0.0
C878 C 0.92041 0.55375 0.3594 0.0
C879 C 0.85728 0.55731 0.25032 0.0
C880 C 0.96577 0.52557 0.56292 0.0
C881 C 0.95446 0.53368 0.51635 0.0
C882 C 0.90468 0.52801 0.44575 0.0
C883 C 0.88597 0.55944 0.3169 0.0
C884 C 0.89968 0.54985 0.36044 0.0
C885 C 0.93876 0.5226 0.49037 0.0
C886 C 0.92545 0.5318 0.44478 0.0
H887 H 0.87542 0.60514 0.25671 0.0
H888 H 0.89904 0.58911 0.32489 0.0
H889 H 0.87602 0.53384 0.4066 0.0
H890 H 0.94287 0.4799 0.5726 0.0
H891 H 0.9236 0.49377 0.49053 0.0
loop_
_geom_bond_atom_site_label_1
_geom_bond_atom_site_label_2
_geom_bond_distance
_geom_bond_site_symmetry_2
_ccdc_geom_bond_type
O0 Cd1 2.300 . S
O0 C7 1.275 . S
Cd1 O0 2.300 . S
Cd1 O9 2.381 . S
Cd1 O10 2.378 . S
O2 Cd3 2.385 . S
O2 C7 1.255 . S
Cd3 O2 2.385 . S
Cd3 O4 2.317 . S
O4 Cd3 2.317 . S
O4 C5 1.232 . S
C5 O4 1.232 . S
C5 O6 1.218 . S
O6 C5 1.218 . S
C7 O0 1.275 . S
C7 O2 1.255 . S
C8 O9 1.258 . S
C8 O10 1.256 . S
O9 Cd1 2.381 . S
O9 C8 1.258 . S
O10 Cd1 2.378 . S
O10 C8 1.256 . S
O11 Cd12 2.300 . S
O11 C18 1.275 . S
Cd12 O11 2.300 . S
Cd12 O20 2.381 . S
Cd12 O21 2.378 . S
O13 Cd14 2.385 1_655 S
O13 C18 1.255 . S
Cd14 O13 2.385 1_455 S
Cd14 O15 2.317 1_455 S
O15 Cd14 2.317 1_655 S
O15 C16 1.232 . S
C16 O15 1.232 . S
C16 O17 1.218 . S
O17 C16 1.218 . S
C18 O11 1.275 . S
C18 O13 1.255 . S
C19 O20 1.258 . S
C19 O21 1.256 . S
O20 Cd12 2.381 . S
O20 C19 1.258 . S
O21 Cd12 2.378 . S
O21 C19 1.256 . S
O22 Cd23 2.300 . S
O22 C29 1.275 . S
Cd23 O22 2.300 . S
Cd23 O31 2.381 . S
Cd23 O32 2.378 . S
O24 Cd25 2.385 1_565 S
O24 C29 1.255 . S
Cd25 O24 2.385 1_545 S
Cd25 O26 2.317 1_545 S
O26 Cd25 2.317 1_565 S
O26 C27 1.232 . S
C27 O26 1.232 . S
C27 O28 1.218 . S
O28 C27 1.218 . S
C29 O22 1.275 . S
C29 O24 1.255 . S
C30 O31 1.258 . S
C30 O32 1.256 . S
O31 Cd23 2.381 . S
O31 C30 1.258 . S
O32 Cd23 2.378 . S
O32 C30 1.256 . S
O33 Cd34 2.300 . S
O33 C40 1.275 . S
Cd34 O33 2.300 . S
Cd34 O42 2.381 . S
Cd34 O43 2.378 . S
O35 Cd36 2.385 . S
O35 C40 1.255 . S
Cd36 O35 2.385 . S
Cd36 O37 2.317 . S
O37 Cd36 2.317 . S
O37 C38 1.232 . S
C38 O37 1.232 . S
C38 O39 1.218 . S
O39 C38 1.218 . S
C40 O33 1.275 . S
C40 O35 1.255 . S
C41 O42 1.258 . S
C41 O43 1.256 . S
O42 Cd34 2.381 . S
O42 C41 1.258 . S
O43 Cd34 2.378 . S
O43 C41 1.256 . S
O44 Cd45 2.300 . S
O44 C51 1.275 . S
Cd45 O44 2.300 . S
Cd45 O53 2.381 . S
Cd45 O54 2.378 . S
O46 Cd47 2.385 . S
O46 C51 1.255 . S
Cd47 O46 2.385 . S
Cd47 O48 2.317 . S
O48 Cd47 2.317 . S
O48 C49 1.232 . S
C49 O48 1.232 . S
C49 O50 1.218 . S
O50 C49 1.218 . S
C51 O44 1.275 . S
C51 O46 1.255 . S
C52 O53 1.258 . S
C52 O54 1.256 . S
O53 Cd45 2.381 . S
O53 C52 1.258 . S
O54 Cd45 2.378 . S
O54 C52 1.256 . S
O55 Cd56 2.300 . S
O55 C62 1.275 . S
Cd56 O55 2.300 . S
Cd56 O64 2.381 . S
Cd56 O65 2.378 . S
O57 Cd58 2.385 . S
O57 C62 1.255 . S
Cd58 O57 2.385 . S
Cd58 O59 2.317 . S
O59 Cd58 2.317 . S
O59 C60 1.232 . S
C60 O59 1.232 . S
C60 O61 1.218 . S
O61 C60 1.218 . S
C62 O55 1.275 . S
C62 O57 1.255 . S
C63 O64 1.258 . S
C63 O65 1.256 . S
O64 Cd56 2.381 . S
O64 C63 1.258 . S
O65 Cd56 2.378 . S
O65 C63 1.256 . S
O66 Cd67 2.300 . S
O66 C73 1.275 . S
Cd67 O66 2.300 . S
Cd67 O75 2.381 . S
Cd67 O76 2.378 . S
O68 Cd69 2.385 . S
O68 C73 1.255 . S
Cd69 O68 2.385 . S
Cd69 O70 2.317 . S
O70 Cd69 2.317 . S
O70 C71 1.232 . S
C71 O70 1.232 . S
C71 O72 1.218 . S
O72 C71 1.218 . S
C73 O66 1.275 . S
C73 O68 1.255 . S
C74 O75 1.258 . S
C74 O76 1.256 . S
O75 Cd67 2.381 . S
O75 C74 1.258 . S
O76 Cd67 2.378 . S
O76 C74 1.256 . S
O77 Cd78 2.300 . S
O77 C84 1.275 . S
Cd78 O77 2.300 . S
Cd78 O86 2.381 . S
Cd78 O87 2.378 . S
O79 Cd80 2.385 . S
O79 C84 1.255 . S
Cd80 O79 2.385 . S
Cd80 O81 2.317 . S
O81 Cd80 2.317 . S
O81 C82 1.232 . S
C82 O81 1.232 . S
C82 O83 1.218 . S
O83 C82 1.218 . S
C84 O77 1.275 . S
C84 O79 1.255 . S
C85 O86 1.258 . S
C85 O87 1.256 . S
O86 Cd78 2.381 . S
O86 C85 1.258 . S
O87 Cd78 2.378 . S
O87 C85 1.256 . S
O88 Mn89 2.163 . S
O88 C102 1.244 . S
Mn89 O88 2.163 . S
Mn89 O92 2.160 1_445 S
Mn89 O93 2.221 . S
Mn89 O95 2.163 1_545 S
Mn89 O97 2.160 . S
Mn89 O107 2.221 1_455 S
O90 Mn91 2.080 1_455 S
O90 C102 1.265 . S
Mn91 O90 2.080 1_655 S
Mn91 O98 2.089 . S
Mn91 O107 2.290 . S
Mn91 O108 2.251 . S
O92 Mn89 2.160 1_665 S
O92 C103 1.239 1_655 S
O93 Mn89 2.221 . S
O93 Mn94 2.290 1_545 S
O93 C104 1.278 . S
Mn94 O93 2.290 1_565 S
Mn94 O96 2.089 . S
Mn94 O99 2.251 . S
Mn94 O100 2.087 . S
O95 Mn89 2.163 1_565 S
O95 C105 1.244 . S
O96 Mn94 2.089 . S
O96 C103 1.256 . S
O97 Mn89 2.160 . S
O97 C106 1.239 . S
O98 Mn91 2.089 . S
O98 C106 1.256 1_655 S
O99 Mn94 2.251 . S
O99 C104 1.241 1_565 S
O100 Mn94 2.087 . S
O100 C105 1.256 . S
C101 O107 1.278 . S
C101 O108 1.241 . S
C102 O88 1.244 . S
C102 O90 1.265 . S
C103 O92 1.239 1_455 S
C103 O96 1.256 . S
C104 O93 1.278 . S
C104 O99 1.241 1_545 S
C105 O95 1.244 . S
C105 O100 1.256 . S
C106 O97 1.239 . S
C106 O98 1.256 1_455 S
O107 Mn89 2.221 1_655 S
O107 Mn91 2.290 . S
O107 C101 1.278 . S
O108 Mn91 2.251 . S
O108 C101 1.241 . S
O109 Mn110 2.163 . S
O109 C123 1.244 . S
Mn110 O109 2.163 . S
Mn110 O113 2.160 . S
Mn110 O114 2.221 1_545 S
Mn110 O116 2.163 . S
Mn110 O118 2.160 1_545 S
Mn110 O128 2.221 . S
O111 Mn112 2.087 . S
O111 C123 1.256 . S
Mn112 O111 2.087 . S
Mn112 O119 2.089 . S
Mn112 O128 2.290 . S
Mn112 O129 2.251 . S
O113 Mn110 2.160 . S
O113 C124 1.239 . S
O114 Mn110 2.221 1_565 S
O114 Mn115 2.290 . S
O114 C125 1.278 . S
Mn115 O114 2.290 . S
Mn115 O117 2.089 . S
Mn115 O120 2.251 . S
Mn115 O121 2.104 . S
O116 Mn110 2.163 . S
O116 C126 1.244 . S
O117 Mn115 2.089 . S
O117 C124 1.256 1_565 S
O118 Mn110 2.160 1_565 S
O118 C127 1.239 1_565 S
O119 Mn112 2.089 . S
O119 C127 1.256 . S
O120 Mn115 2.251 . S
O120 C125 1.241 . S
O121 Mn115 2.104 . S
O121 C126 1.235 1_565 S
C122 O128 1.278 . S
C122 O129 1.241 . S
C123 O109 1.244 . S
C123 O111 1.256 . S
C124 O113 1.239 . S
C124 O117 1.256 1_545 S
C125 O114 1.278 . S
C125 O120 1.241 . S
C126 O116 1.244 . S
C126 O121 1.235 1_545 S
C127 O118 1.239 1_545 S
C127 O119 1.256 . S
O128 Mn110 2.221 . S
O128 Mn112 2.290 . S
O128 C122 1.278 . S
O129 Mn112 2.251 . S
O129 C122 1.241 . S
O130 Mn131 2.163 . S
O130 C144 1.244 . S
Mn131 O130 2.163 . S
Mn131 O134 2.160 . S
Mn131 O135 2.221 . S
Mn131 O137 2.163 . S
Mn131 O139 2.160 . S
Mn131 O149 2.221 . S
O132 Mn133 2.087 . S
O132 C144 1.256 . S
Mn133 O132 2.087 . S
Mn133 O140 2.089 . S
Mn133 O149 2.290 . S
Mn133 O150 2.251 . S
O134 Mn131 2.160 . S
O134 C145 1.239 . S
O135 Mn131 2.221 . S
O135 Mn136 2.290 . S
O135 C146 1.278 . S
Mn136 O135 2.290 . S
Mn136 O138 2.089 . S
Mn136 O141 2.251 . S
Mn136 O142 2.087 . S
O137 Mn131 2.163 . S
O137 C147 1.244 . S
O138 Mn136 2.089 . S
O138 C145 1.256 . S
O139 Mn131 2.160 . S
O139 C148 1.239 . S
O140 Mn133 2.089 . S
O140 C148 1.256 . S
O141 Mn136 2.251 . S
O141 C146 1.241 . S
O142 Mn136 2.087 . S
O142 C147 1.256 . S
C143 O149 1.278 . S
C143 O150 1.241 . S
C144 O130 1.244 . S
C144 O132 1.256 . S
C145 O134 1.239 . S
C145 O138 1.256 . S
C146 O135 1.278 . S
C146 O141 1.241 . S
C147 O137 1.244 . S
C147 O142 1.256 . S
C148 O139 1.239 . S
C148 O140 1.256 . S
O149 Mn131 2.221 . S
O149 Mn133 2.290 . S
O149 C143 1.278 . S
O150 Mn133 2.251 . S
O150 C143 1.241 . S
O151 Mn152 2.163 . S
O151 C165 1.244 . S
Mn152 O151 2.163 . S
Mn152 O155 2.160 1_455 S
Mn152 O156 2.221 . S
Mn152 O158 2.163 1_455 S
Mn152 O160 2.160 . S
Mn152 O170 2.221 . S
O153 Mn154 2.087 . S
O153 C165 1.256 . S
Mn154 O153 2.087 . S
Mn154 O161 2.089 . S
Mn154 O170 2.290 . S
Mn154 O171 2.251 . S
O155 Mn152 2.160 1_655 S
O155 C166 1.239 . S
O156 Mn152 2.221 . S
O156 Mn157 2.290 1_455 S
O156 C167 1.278 . S
Mn157 O156 2.290 1_655 S
Mn157 O159 2.089 . S
Mn157 O162 2.251 . S
Mn157 O163 2.087 . S
O158 Mn152 2.163 1_655 S
O158 C168 1.244 . S
O159 Mn157 2.089 . S
O159 C166 1.256 . S
O160 Mn152 2.160 . S
O160 C169 1.239 . S
O161 Mn154 2.089 . S
O161 C169 1.256 . S
O162 Mn157 2.251 . S
O162 C167 1.241 1_655 S
O163 Mn157 2.087 . S
O163 C168 1.256 . S
C164 O170 1.278 . S
C164 O171 1.241 . S
C165 O151 1.244 . S
C165 O153 1.256 . S
C166 O155 1.239 . S
C166 O159 1.256 . S
C167 O156 1.278 . S
C167 O162 1.241 1_455 S
C168 O158 1.244 . S
C168 O163 1.256 . S
C169 O160 1.239 . S
C169 O161 1.256 . S
O170 Mn152 2.221 . S
O170 Mn154 2.290 . S
O170 C164 1.278 . S
O171 Mn154 2.251 . S
O171 C164 1.241 . S
C172 C173 1.349 . S
C172 C174 1.327 . S
C172 H197 0.950 . S
C173 C172 1.349 . S
C173 C189 1.349 . S
C174 C172 1.327 . S
C174 C193 1.429 . S
C174 H198 0.950 . S
C175 C192 1.574 . S
C175 C194 1.368 . S
C175 H199 0.949 . S
H176 C180 0.949 . S
C177 C178 1.349 . S
C177 C179 1.327 . S
C177 H200 0.950 . S
C178 C177 1.349 . S
C178 C190 1.349 . S
C179 C177 1.327 . S
C179 C195 1.429 . S
C179 H201 0.950 . S
C180 H176 0.949 . S
C180 C188 1.574 . S
C180 C196 1.368 . S
H181 C189 0.950 . S
H182 C187 0.950 . S
H183 C188 0.949 . S
H184 C190 0.950 1_565 S
H185 C191 0.950 1_565 S
H186 C192 0.949 . S
C187 H182 0.950 . S
C187 C189 1.327 . S
C187 C193 1.429 . S
C188 C180 1.574 . S
C188 H183 0.949 . S
C188 C194 1.368 . S
C189 C173 1.349 . S
C189 H181 0.950 . S
C189 C187 1.327 . S
C190 C178 1.349 . S
C190 H184 0.950 1_545 S
C190 C191 1.327 . S
C191 H185 0.950 1_545 S
C191 C190 1.327 . S
C191 C195 1.429 . S
C192 C175 1.574 . S
C192 H186 0.949 . S
C192 C196 1.368 . S
C193 C174 1.429 . S
C193 C187 1.429 . S
C193 C194 1.523 . S
C194 C175 1.368 . S
C194 C188 1.368 . S
C194 C193 1.523 . S
C195 C179 1.429 . S
C195 C191 1.429 . S
C195 C196 1.523 . S
C196 C180 1.368 . S
C196 C192 1.368 . S
C196 C195 1.523 . S
H197 C172 0.950 . S
H198 C174 0.950 . S
H199 C175 0.949 . S
H200 C177 0.950 . S
H201 C179 0.950 . S
C202 C203 1.349 . S
C202 C204 1.327 . S
C202 H227 0.950 . S
C203 C202 1.349 . S
C203 C219 1.349 . S
C204 C202 1.327 . S
C204 C223 1.429 . S
C204 H228 0.950 . S
C205 C222 1.574 . S
C205 C224 1.368 . S
C205 H229 0.949 . S
H206 C210 0.949 . S
C207 C208 1.349 . S
C207 C209 1.327 . S
C207 H230 0.950 . S
C208 C207 1.349 . S
C208 C220 1.349 . S
C209 C207 1.327 . S
C209 C225 1.429 . S
C209 H231 0.950 . S
C210 H206 0.949 . S
C210 C218 1.574 . S
C210 C226 1.368 . S
H211 C219 0.950 . S
H212 C217 0.950 . S
H213 C218 0.949 . S
H214 C220 0.950 . S
H215 C221 0.950 . S
H216 C222 0.949 . S
C217 H212 0.950 . S
C217 C219 1.327 . S
C217 C223 1.429 . S
C218 C210 1.574 . S
C218 H213 0.949 . S
C218 C224 1.368 . S
C219 C203 1.349 . S
C219 H211 0.950 . S
C219 C217 1.327 . S
C220 C208 1.349 . S
C220 H214 0.950 . S
C220 C221 1.327 . S
C221 H215 0.950 . S
C221 C220 1.327 . S
C221 C225 1.429 . S
C222 C205 1.574 . S
C222 H216 0.949 . S
C222 C226 1.368 . S
C223 C204 1.429 . S
C223 C217 1.429 . S
C223 C224 1.523 . S
C224 C205 1.368 . S
C224 C218 1.368 . S
C224 C223 1.523 . S
C225 C209 1.429 . S
C225 C221 1.429 . S
C225 C226 1.523 . S
C226 C210 1.368 . S
C226 C222 1.368 . S
C226 C225 1.523 . S
H227 C202 0.950 . S
H228 C204 0.950 . S
H229 C205 0.949 . S
H230 C207 0.950 . S
H231 C209 0.950 . S
C232 C233 1.349 . S
C232 C234 1.327 . S
C232 H257 0.950 . S
C233 C232 1.349 . S
C233 C249 1.349 . S
C234 C232 1.327 . S
C234 C253 1.429 . S
C234 H258 0.950 . S
C235 C252 1.574 . S
C235 C254 1.368 . S
C235 H259 0.949 . S
H236 C240 0.949 . S
C237 C238 1.349 . S
C237 C239 1.327 . S
C237 H260 0.950 . S
C238 C237 1.349 . S
C238 C250 1.349 . S
C239 C237 1.327 . S
C239 C255 1.429 . S
C239 H261 0.950 . S
C240 H236 0.949 . S
C240 C248 1.574 . S
C240 C256 1.368 . S
H241 C249 0.950 . S
H242 C247 0.950 . S
H243 C248 0.949 . S
H244 C250 0.950 . S
H245 C251 0.950 . S
H246 C252 0.949 . S
C247 H242 0.950 . S
C247 C249 1.327 . S
C247 C253 1.429 . S
C248 C240 1.574 . S
C248 H243 0.949 . S
C248 C254 1.368 . S
C249 C233 1.349 . S
C249 H241 0.950 . S
C249 C247 1.327 . S
C250 C238 1.349 . S
C250 H244 0.950 . S
C250 C251 1.327 . S
C251 H245 0.950 . S
C251 C250 1.327 . S
C251 C255 1.429 . S
C252 C235 1.574 . S
C252 H246 0.949 . S
C252 C256 1.368 . S
C253 C234 1.429 . S
C253 C247 1.429 . S
C253 C254 1.523 . S
C254 C235 1.368 . S
C254 C248 1.368 . S
C254 C253 1.523 . S
C255 C239 1.429 . S
C255 C251 1.429 . S
C255 C256 1.523 . S
C256 C240 1.368 . S
C256 C252 1.368 . S
C256 C255 1.523 . S
H257 C232 0.950 . S
H258 C234 0.950 . S
H259 C235 0.949 . S
H260 C237 0.950 . S
H261 C239 0.950 . S
C262 C263 1.349 . S
C262 C264 1.327 . S
C262 H287 0.950 . S
C263 C262 1.349 . S
C263 C279 1.349 . S
C264 C262 1.327 . S
C264 C283 1.429 . S
C264 H288 0.950 . S
C265 C282 1.574 . S
C265 C284 1.368 . S
C265 H289 0.949 . S
H266 C270 0.949 . S
C267 C268 1.349 . S
C267 C269 1.327 . S
C267 H290 0.918 1_455 S
C268 C267 1.349 . S
C268 C280 1.349 . S
C269 C267 1.327 . S
C269 C285 1.429 . S
C269 H291 0.950 . S
C270 H266 0.949 . S
C270 C278 1.574 . S
C270 C286 1.368 . S
H271 C279 0.950 . S
H272 C277 0.950 . S
H273 C278 0.949 . S
H274 C280 0.950 . S
H275 C281 0.950 . S
H276 C282 0.949 . S
C277 H272 0.950 . S
C277 C279 1.327 . S
C277 C283 1.429 . S
C278 C270 1.574 . S
C278 H273 0.949 . S
C278 C284 1.368 . S
C279 C263 1.349 . S
C279 H271 0.950 . S
C279 C277 1.327 . S
C280 C268 1.349 . S
C280 H274 0.950 . S
C280 C281 1.327 . S
C281 H275 0.950 . S
C281 C280 1.327 . S
C281 C285 1.429 . S
C282 C265 1.574 . S
C282 H276 0.949 . S
C282 C286 1.368 . S
C283 C264 1.429 . S
C283 C277 1.429 . S
C283 C284 1.523 . S
C284 C265 1.368 . S
C284 C278 1.368 . S
C284 C283 1.523 . S
C285 C269 1.429 . S
C285 C281 1.429 . S
C285 C286 1.523 . S
C286 C270 1.368 . S
C286 C282 1.368 . S
C286 C285 1.523 . S
H287 C262 0.950 . S
H288 C264 0.950 . S
H289 C265 0.949 . S
H290 C267 0.918 1_655 S
H291 C269 0.950 . S
C292 C293 1.349 . S
C292 C294 1.327 . S
C292 H317 0.950 . S
C293 C292 1.349 . S
C293 C309 1.349 1_554 S
C294 C292 1.327 . S
C294 C313 1.429 1_554 S
C294 H318 0.950 . S
C295 C312 1.574 . S
C295 C314 1.368 . S
C295 H319 0.949 . S
H296 C300 0.949 . S
C297 C298 1.349 1_565 S
C297 C299 1.327 . S
C297 H320 0.950 . S
C298 C297 1.349 1_545 S
C298 C310 1.349 . S
C299 C297 1.327 . S
C299 C315 1.429 . S
C299 H321 0.950 . S
C300 H296 0.949 . S
C300 C308 1.574 1_545 S
C300 C316 1.368 1_545 S
H301 C309 0.950 . S
H302 C307 0.950 . S
H303 C308 0.949 1_545 S
H304 C310 0.950 . S
H305 C311 0.950 . S
H306 C312 0.949 . S
C307 H302 0.950 . S
C307 C309 1.327 . S
C307 C313 1.429 . S
C308 C300 1.574 1_565 S
C308 H303 0.949 1_565 S
C308 C314 1.368 . S
C309 C293 1.349 1_556 S
C309 H301 0.950 . S
C309 C307 1.327 . S
C310 C298 1.349 . S
C310 H304 0.950 . S
C310 C311 1.327 . S
C311 H305 0.950 . S
C311 C310 1.327 . S
C311 C315 1.429 1_545 S
C312 C295 1.574 . S
C312 H306 0.949 . S
C312 C316 1.368 . S
C313 C294 1.429 1_556 S
C313 C307 1.429 . S
C313 C314 1.523 . S
C314 C295 1.368 . S
C314 C308 1.368 . S
C314 C313 1.523 . S
C315 C299 1.429 . S
C315 C311 1.429 1_565 S
C315 C316 1.523 . S
C316 C300 1.368 1_565 S
C316 C312 1.368 . S
C316 C315 1.523 . S
H317 C292 0.950 . S
H318 C294 0.950 . S
H319 C295 0.949 . S
H320 C297 0.950 . S
H321 C299 0.950 . S
C322 C323 1.349 1_556 S
C322 C324 1.327 . S
C322 H347 0.950 . S
C323 C322 1.349 1_554 S
C323 C339 1.349 . S
C324 C322 1.327 . S
C324 C343 1.429 . S
C324 H348 0.950 . S
C325 C342 1.574 . S
C325 C344 1.368 . S
C325 H349 0.949 . S
H326 C330 0.949 . S
C327 C328 1.349 . S
C327 C329 1.327 . S
C327 H350 0.950 . S
C328 C327 1.349 . S
C328 C340 1.349 . S
C329 C327 1.327 . S
C329 C345 1.429 . S
C329 H351 0.950 . S
C330 H326 0.949 . S
C330 C338 1.574 . S
C330 C346 1.368 . S
H331 C339 0.950 . S
H332 C337 0.950 . S
H333 C338 0.949 . S
H334 C340 0.950 . S
H335 C341 0.950 . S
H336 C342 0.949 . S
C337 H332 0.950 . S
C337 C339 1.327 . S
C337 C343 1.429 1_554 S
C338 C330 1.574 . S
C338 H333 0.949 . S
C338 C344 1.368 . S
C339 C323 1.349 . S
C339 H331 0.950 . S
C339 C337 1.327 . S
C340 C328 1.349 . S
C340 H334 0.950 . S
C340 C341 1.327 . S
C341 H335 0.950 . S
C341 C340 1.327 . S
C341 C345 1.429 . S
C342 C325 1.574 . S
C342 H336 0.949 . S
C342 C346 1.368 . S
C343 C324 1.429 . S
C343 C337 1.429 1_556 S
C343 C344 1.523 . S
C344 C325 1.368 . S
C344 C338 1.368 . S
C344 C343 1.523 . S
C345 C329 1.429 . S
C345 C341 1.429 . S
C345 C346 1.523 . S
C346 C330 1.368 . S
C346 C342 1.368 . S
C346 C345 1.523 . S
H347 C322 0.950 . S
H348 C324 0.950 . S
H349 C325 0.949 . S
H350 C327 0.950 . S
H351 C329 0.950 . S
C352 C353 1.349 . S
C352 C354 1.327 . S
C352 H377 0.950 . S
C353 C352 1.349 . S
C353 C369 1.349 1_554 S
C354 C352 1.327 . S
C354 C373 1.429 1_554 S
C354 H378 0.950 . S
C355 C372 1.574 . S
C355 C374 1.368 . S
C355 H379 0.949 . S
H356 C360 0.949 . S
C357 C358 1.349 . S
C357 C359 1.327 . S
C357 H380 0.950 . S
C358 C357 1.349 . S
C358 C370 1.349 . S
C359 C357 1.327 . S
C359 C375 1.429 . S
C359 H381 0.950 . S
C360 H356 0.949 . S
C360 C368 1.574 . S
C360 C376 1.368 . S
H361 C369 0.950 . S
H362 C367 0.950 . S
H363 C368 0.949 1_554 S
H364 C370 0.950 . S
H365 C371 0.950 . S
H366 C372 0.949 . S
C367 H362 0.950 . S
C367 C369 1.327 . S
C367 C373 1.429 . S
C368 C360 1.574 . S
C368 H363 0.949 1_556 S
C368 C374 1.368 . S
C369 C353 1.349 1_556 S
C369 H361 0.950 . S
C369 C367 1.327 . S
C370 C358 1.349 . S
C370 H364 0.950 . S
C370 C371 1.327 . S
C371 H365 0.950 . S
C371 C370 1.327 . S
C371 C375 1.429 . S
C372 C355 1.574 . S
C372 H366 0.949 . S
C372 C376 1.368 . S
C373 C354 1.429 1_556 S
C373 C367 1.429 . S
C373 C374 1.523 . S
C374 C355 1.368 . S
C374 C368 1.368 . S
C374 C373 1.523 . S
C375 C359 1.429 . S
C375 C371 1.429 . S
C375 C376 1.523 . S
C376 C360 1.368 . S
C376 C372 1.368 . S
C376 C375 1.523 . S
H377 C352 0.950 . S
H378 C354 0.950 . S
H379 C355 0.949 . S
H380 C357 0.950 . S
H381 C359 0.950 . S
C382 C383 1.349 . S
C382 C384 1.327 . S
C382 H407 0.950 . S
C383 C382 1.349 . S
C383 C399 1.349 1_554 S
C384 C382 1.327 . S
C384 C403 1.429 1_554 S
C384 H408 0.950 . S
C385 C402 1.574 . S
C385 C404 1.368 . S
C385 H409 0.949 . S
H386 C390 0.949 . S
C387 C388 1.349 . S
C387 C389 1.327 . S
C387 H410 0.950 . S
C388 C387 1.349 . S
C388 C400 1.349 1_455 S
C389 C387 1.327 . S
C389 C405 1.429 1_455 S
C389 H411 0.950 . S
C390 H386 0.949 . S
C390 C398 1.574 . S
C390 C406 1.368 . S
H391 C399 0.950 . S
H392 C397 0.950 . S
H393 C398 0.949 1_554 S
H394 C400 0.950 . S
H395 C401 0.950 . S
H396 C402 0.949 . S
C397 H392 0.950 . S
C397 C399 1.327 . S
C397 C403 1.429 . S
C398 C390 1.574 . S
C398 H393 0.949 1_556 S
C398 C404 1.368 . S
C399 C383 1.349 1_556 S
C399 H391 0.950 . S
C399 C397 1.327 . S
C400 C388 1.349 1_655 S
C400 H394 0.950 . S
C400 C401 1.327 . S
C401 H395 0.950 . S
C401 C400 1.327 . S
C401 C405 1.429 . S
C402 C385 1.574 . S
C402 H396 0.949 . S
C402 C406 1.368 . S
C403 C384 1.429 1_556 S
C403 C397 1.429 . S
C403 C404 1.523 . S
C404 C385 1.368 . S
C404 C398 1.368 . S
C404 C403 1.523 . S
C405 C389 1.429 1_655 S
C405 C401 1.429 . S
C405 C406 1.523 . S
C406 C390 1.368 . S
C406 C402 1.368 . S
C406 C405 1.523 . S
H407 C382 0.950 . S
H408 C384 0.950 . S
H409 C385 0.949 . S
H410 C387 0.950 . S
H411 C389 0.950 . S
C412 C413 1.349 . S
C412 C414 1.327 . S
C412 H437 0.950 . S
C413 C412 1.349 . S
C413 C429 1.349 . S
C414 C412 1.327 . S
C414 C433 1.429 . S
C414 H438 0.950 . S
C415 C432 1.574 . S
C415 C434 1.368 . S
C415 H439 0.949 . S
H416 C420 0.949 . S
C417 C418 1.349 . S
C417 C419 1.327 . S
C417 H440 0.950 . S
C418 C417 1.349 . S
C418 C430 1.340 1_455 S
C419 C417 1.327 . S
C419 C435 1.429 . S
C419 H441 0.950 . S
C420 H416 0.949 . S
C420 C428 1.574 . S
C420 C436 1.368 . S
H421 C429 0.950 . S
H422 C427 0.950 . S
H423 C428 0.949 . S
H424 C430 0.967 . S
H425 C431 0.949 . S
H426 C432 0.949 . S
C427 H422 0.950 . S
C427 C429 1.327 . S
C427 C433 1.429 . S
C428 C420 1.574 . S
C428 H423 0.949 . S
C428 C434 1.368 . S
C429 C413 1.349 . S
C429 H421 0.950 . S
C429 C427 1.327 . S
C430 C418 1.340 1_655 S
C430 H424 0.967 . S
C430 C431 1.320 1_655 S
C431 H425 0.949 . S
C431 C430 1.320 1_455 S
C431 C435 1.429 . S
C432 C415 1.574 . S
C432 H426 0.949 . S
C432 C436 1.368 . S
C433 C414 1.429 . S
C433 C427 1.429 . S
C433 C434 1.523 . S
C434 C415 1.368 . S
C434 C428 1.368 . S
C434 C433 1.523 . S
C435 C419 1.429 . S
C435 C431 1.429 . S
C435 C436 1.523 . S
C436 C420 1.368 . S
C436 C432 1.368 . S
C436 C435 1.523 . S
H437 C412 0.950 . S
H438 C414 0.950 . S
H439 C415 0.949 . S
H440 C417 0.950 . S
H441 C419 0.950 . S
C442 C443 1.349 . S
C442 C444 1.327 . S
C442 H467 0.950 . S
C443 C442 1.349 . S
C443 C459 1.349 . S
C444 C442 1.327 . S
C444 C463 1.429 . S
C444 H468 0.950 . S
C445 C462 1.574 . S
C445 C464 1.368 . S
C445 H469 0.949 . S
H446 C450 0.949 . S
C447 C448 1.349 . S
C447 C449 1.327 . S
C447 H470 0.950 . S
C448 C447 1.349 . S
C448 C460 1.349 . S
C449 C447 1.327 . S
C449 C465 1.429 . S
C449 H471 0.950 . S
C450 H446 0.949 . S
C450 C458 1.574 . S
C450 C466 1.368 . S
H451 C459 0.950 . S
H452 C457 0.950 . S
H453 C458 0.949 . S
H454 C460 0.959 . S
H455 C461 0.950 . S
H456 C462 0.949 . S
C457 H452 0.950 . S
C457 C459 1.327 . S
C457 C463 1.429 . S
C458 C450 1.574 . S
C458 H453 0.949 . S
C458 C464 1.368 . S
C459 C443 1.349 . S
C459 H451 0.950 . S
C459 C457 1.327 . S
C460 C448 1.349 . S
C460 H454 0.959 . S
C460 C461 1.327 . S
C461 H455 0.950 . S
C461 C460 1.327 . S
C461 C465 1.429 . S
C462 C445 1.574 . S
C462 H456 0.949 . S
C462 C466 1.368 . S
C463 C444 1.429 . S
C463 C457 1.429 . S
C463 C464 1.523 . S
C464 C445 1.368 . S
C464 C458 1.368 . S
C464 C463 1.523 . S
C465 C449 1.429 . S
C465 C461 1.429 . S
C465 C466 1.523 . S
C466 C450 1.368 . S
C466 C462 1.368 . S
C466 C465 1.523 . S
H467 C442 0.950 . S
H468 C444 0.950 . S
H469 C445 0.949 . S
H470 C447 0.950 . S
H471 C449 0.950 . S
C472 C473 1.349 . S
C472 C474 1.327 . S
C472 H497 0.950 . S
C473 C472 1.349 . S
C473 C489 1.349 . S
C474 C472 1.327 . S
C474 C493 1.429 . S
C474 H498 0.950 . S
C475 C492 1.574 . S
C475 C494 1.368 . S
C475 H499 0.949 . S
H476 C480 0.949 . S
C477 C478 1.349 . S
C477 C479 1.327 . S
C477 H500 0.950 . S
C478 C477 1.349 . S
C478 C490 1.349 . S
C479 C477 1.327 . S
C479 C495 1.429 . S
C479 H501 0.950 . S
C480 H476 0.949 . S
C480 C488 1.574 . S
C480 C496 1.368 . S
H481 C489 0.950 . S
H482 C487 0.950 . S
H483 C488 0.949 . S
H484 C490 0.950 . S
H485 C491 0.950 . S
H486 C492 0.949 . S
C487 H482 0.950 . S
C487 C489 1.327 . S
C487 C493 1.429 . S
C488 C480 1.574 . S
C488 H483 0.949 . S
C488 C494 1.368 . S
C489 C473 1.349 . S
C489 H481 0.950 . S
C489 C487 1.327 . S
C490 C478 1.349 . S
C490 H484 0.950 . S
C490 C491 1.327 . S
C491 H485 0.950 . S
C491 C490 1.327 . S
C491 C495 1.429 . S
C492 C475 1.574 . S
C492 H486 0.949 . S
C492 C496 1.368 . S
C493 C474 1.429 . S
C493 C487 1.429 . S
C493 C494 1.523 . S
C494 C475 1.368 . S
C494 C488 1.368 . S
C494 C493 1.523 . S
C495 C479 1.429 . S
C495 C491 1.429 . S
C495 C496 1.523 . S
C496 C480 1.368 . S
C496 C492 1.368 . S
C496 C495 1.523 . S
H497 C472 0.950 . S
H498 C474 0.950 . S
H499 C475 0.949 . S
H500 C477 0.950 . S
H501 C479 0.950 . S
C502 C503 1.349 . S
C502 C504 1.327 . S
C502 H527 0.950 . S
C503 C502 1.349 . S
C503 C519 1.349 . S
C504 C502 1.327 . S
C504 C523 1.429 . S
C504 H528 0.950 . S
C505 C522 1.574 . S
C505 C524 1.368 . S
C505 H529 0.949 . S
H506 C510 0.949 . S
C507 C508 1.349 . S
C507 C509 1.327 . S
C507 H530 0.950 . S
C508 C507 1.349 . S
C508 C520 1.349 . S
C509 C507 1.327 . S
C509 C525 1.429 . S
C509 H531 0.950 . S
C510 H506 0.949 . S
C510 C518 1.574 . S
C510 C526 1.368 . S
H511 C519 0.950 . S
H512 C517 0.950 . S
H513 C518 0.949 . S
H514 C520 0.950 . S
H515 C521 0.950 . S
H516 C522 0.949 . S
C517 H512 0.950 . S
C517 C519 1.327 . S
C517 C523 1.429 . S
C518 C510 1.574 . S
C518 H513 0.949 . S
C518 C524 1.368 . S
C519 C503 1.349 . S
C519 H511 0.950 . S
C519 C517 1.327 . S
C520 C508 1.349 . S
C520 H514 0.950 . S
C520 C521 1.327 . S
C521 H515 0.950 . S
C521 C520 1.327 . S
C521 C525 1.429 . S
C522 C505 1.574 . S
C522 H516 0.949 . S
C522 C526 1.368 . S
C523 C504 1.429 . S
C523 C517 1.429 . S
C523 C524 1.523 . S
C524 C505 1.368 . S
C524 C518 1.368 . S
C524 C523 1.523 . S
C525 C509 1.429 . S
C525 C521 1.429 . S
C525 C526 1.523 . S
C526 C510 1.368 . S
C526 C522 1.368 . S
C526 C525 1.523 . S
H527 C502 0.950 . S
H528 C504 0.950 . S
H529 C505 0.949 . S
H530 C507 0.950 . S
H531 C509 0.950 . S
C532 C533 1.349 1_556 S
C532 C534 1.327 . S
C532 H557 0.950 . S
C533 C532 1.349 1_554 S
C533 C549 1.349 . S
C534 C532 1.327 . S
C534 C553 1.429 . S
C534 H558 0.950 1_655 S
C535 C552 1.574 . S
C535 C554 1.368 . S
C535 H559 0.949 . S
H536 C540 0.949 . S
C537 C538 1.349 1_655 S
C537 C539 1.327 . S
C537 H560 0.950 . S
C538 C537 1.349 1_455 S
C538 C550 1.349 . S
C539 C537 1.327 . S
C539 C555 1.408 1_655 S
C539 H561 0.950 . S
C540 H536 0.949 . S
C540 C548 1.574 . S
C540 C556 1.368 1_455 S
H541 C549 0.950 . S
H542 C547 0.950 . S
H543 C548 0.949 . S
H544 C550 0.950 . S
H545 C551 0.950 . S
H546 C552 0.949 . S
C547 H542 0.950 . S
C547 C549 1.327 . S
C547 C553 1.429 1_554 S
C548 C540 1.574 . S
C548 H543 0.949 . S
C548 C554 1.368 1_455 S
C549 C533 1.349 . S
C549 H541 0.950 . S
C549 C547 1.327 . S
C550 C538 1.349 . S
C550 H544 0.950 . S
C550 C551 1.327 . S
C551 H545 0.950 . S
C551 C550 1.327 . S
C551 C555 1.461 . S
C552 C535 1.574 . S
C552 H546 0.949 . S
C552 C556 1.368 . S
C553 C534 1.429 . S
C553 C547 1.429 1_556 S
C553 C554 1.523 . S
C554 C535 1.368 . S
C554 C548 1.368 1_655 S
C554 C553 1.523 . S
C555 C539 1.408 1_455 S
C555 C551 1.461 . S
C555 C556 1.513 1_455 S
C556 C540 1.368 1_655 S
C556 C552 1.368 . S
C556 C555 1.513 1_655 S
H557 C532 0.950 . S
H558 C534 0.950 1_455 S
H559 C535 0.949 . S
H560 C537 0.950 . S
H561 C539 0.950 . S
C562 C563 1.349 . S
C562 C564 1.327 . S
C562 H587 0.950 . S
C563 C562 1.349 . S
C563 C579 1.349 1_554 S
C564 C562 1.327 . S
C564 C583 1.429 1_554 S
C564 H588 0.950 1_565 S
C565 C582 1.574 . S
C565 C584 1.368 . S
C565 H589 0.949 . S
H566 C570 0.949 . S
C567 C568 1.349 1_565 S
C567 C569 1.327 . S
C567 H590 0.950 . S
C568 C567 1.349 1_545 S
C568 C580 1.349 . S
C569 C567 1.327 . S
C569 C585 1.428 . S
C569 H591 0.950 . S
C570 H566 0.949 . S
C570 C578 1.574 . S
C570 C586 1.368 1_545 S
H571 C579 0.950 . S
H572 C577 0.950 . S
H573 C578 0.949 . S
H574 C580 0.950 . S
H575 C581 0.950 . S
H576 C582 0.949 . S
C577 H572 0.950 . S
C577 C579 1.327 . S
C577 C583 1.429 . S
C578 C570 1.574 . S
C578 H573 0.949 . S
C578 C584 1.368 1_545 S
C579 C563 1.349 1_556 S
C579 H571 0.950 . S
C579 C577 1.327 . S
C580 C568 1.349 . S
C580 H574 0.950 . S
C580 C581 1.327 . S
C581 H575 0.950 . S
C581 C580 1.327 . S
C581 C585 1.430 1_545 S
C582 C565 1.574 . S
C582 H576 0.949 . S
C582 C586 1.368 . S
C583 C564 1.429 1_556 S
C583 C577 1.429 . S
C583 C584 1.523 . S
C584 C565 1.368 . S
C584 C578 1.368 1_565 S
C584 C583 1.523 . S
C585 C569 1.428 . S
C585 C581 1.430 1_565 S
C585 C586 1.523 . S
C586 C570 1.368 1_565 S
C586 C582 1.368 . S
C586 C585 1.523 . S
H587 C562 0.950 . S
H588 C564 0.950 1_545 S
H589 C565 0.949 . S
H590 C567 0.950 . S
H591 C569 0.950 . S
C592 C593 1.349 1_556 S
C592 C594 1.327 . S
C592 H617 0.950 . S
C593 C592 1.349 1_554 S
C593 C609 1.349 . S
C594 C592 1.327 . S
C594 C613 1.429 . S
C594 H618 0.950 . S
C595 C612 1.574 . S
C595 C614 1.368 . S
C595 H619 0.949 1_556 S
H596 C600 0.949 . S
C597 C598 1.349 . S
C597 C599 1.327 . S
C597 H620 0.950 . S
C598 C597 1.349 . S
C598 C610 1.349 . S
C599 C597 1.327 . S
C599 C615 1.429 . S
C599 H621 0.950 . S
C600 H596 0.949 . S
C600 C608 1.574 . S
C600 C616 1.368 . S
H601 C609 0.950 . S
H602 C607 0.950 . S
H603 C608 0.949 . S
H604 C610 0.950 . S
H605 C611 0.950 . S
H606 C612 0.949 . S
C607 H602 0.950 . S
C607 C609 1.327 . S
C607 C613 1.429 1_554 S
C608 C600 1.574 . S
C608 H603 0.949 . S
C608 C614 1.368 . S
C609 C593 1.349 . S
C609 H601 0.950 . S
C609 C607 1.327 . S
C610 C598 1.349 . S
C610 H604 0.950 . S
C610 C611 1.327 . S
C611 H605 0.950 . S
C611 C610 1.327 . S
C611 C615 1.429 . S
C612 C595 1.574 . S
C612 H606 0.949 . S
C612 C616 1.368 . S
C613 C594 1.429 . S
C613 C607 1.429 1_556 S
C613 C614 1.523 . S
C614 C595 1.368 . S
C614 C608 1.368 . S
C614 C613 1.523 . S
C615 C599 1.429 . S
C615 C611 1.429 . S
C615 C616 1.523 . S
C616 C600 1.368 . S
C616 C612 1.368 . S
C616 C615 1.523 . S
H617 C592 0.950 . S
H618 C594 0.950 . S
H619 C595 0.949 1_554 S
H620 C597 0.950 . S
H621 C599 0.950 . S
C622 C623 1.349 . S
C622 C624 1.327 1_554 S
C622 H647 0.950 . S
C623 C622 1.349 . S
C623 C639 1.349 . S
C624 C622 1.327 1_556 S
C624 C643 1.429 . S
C624 H648 0.950 . S
C625 C642 1.574 . S
C625 C644 1.368 . S
C625 H649 0.949 . S
H626 C630 0.949 . S
C627 C628 1.349 . S
C627 C629 1.327 . S
C627 H650 0.950 . S
C628 C627 1.349 . S
C628 C640 1.349 . S
C629 C627 1.327 . S
C629 C645 1.429 . S
C629 H651 0.950 . S
C630 H626 0.949 . S
C630 C638 1.574 . S
C630 C646 1.368 . S
H631 C639 0.950 . S
H632 C637 0.950 . S
H633 C638 0.949 . S
H634 C640 0.950 . S
H635 C641 0.950 . S
H636 C642 0.949 . S
C637 H632 0.950 . S
C637 C639 1.327 1_556 S
C637 C643 1.429 . S
C638 C630 1.574 . S
C638 H633 0.949 . S
C638 C644 1.368 . S
C639 C623 1.349 . S
C639 H631 0.950 . S
C639 C637 1.327 1_554 S
C640 C628 1.349 . S
C640 H634 0.950 . S
C640 C641 1.327 . S
C641 H635 0.950 . S
C641 C640 1.327 . S
C641 C645 1.429 . S
C642 C625 1.574 . S
C642 H636 0.949 . S
C642 C646 1.368 . S
C643 C624 1.429 . S
C643 C637 1.429 . S
C643 C644 1.523 . S
C644 C625 1.368 . S
C644 C638 1.368 . S
C644 C643 1.523 . S
C645 C629 1.429 . S
C645 C641 1.429 . S
C645 C646 1.523 . S
C646 C630 1.368 . S
C646 C642 1.368 . S
C646 C645 1.523 . S
H647 C622 0.950 . S
H648 C624 0.950 . S
H649 C625 0.949 . S
H650 C627 0.950 . S
H651 C629 0.950 . S
C652 C653 1.349 . S
C652 C654 1.327 . S
C652 H677 0.950 . S
C653 C652 1.349 . S
C653 C669 1.349 . S
C654 C652 1.327 . S
C654 C673 1.429 . S
C654 H678 0.950 . S
C655 C672 1.584 . S
C655 C674 1.353 1_556 S
C655 H679 0.954 . S
H656 C660 0.949 . S
C657 C658 1.349 . S
C657 C659 1.327 . S
C657 H680 0.950 . S
C658 C657 1.349 . S
C658 C670 1.349 . S
C659 C657 1.327 . S
C659 C675 1.429 . S
C659 H681 0.950 . S
C660 H656 0.949 . S
C660 C668 1.574 . S
C660 C676 1.368 1_554 S
H661 C669 0.950 . S
H662 C667 0.950 . S
H663 C668 0.949 . S
H664 C670 0.950 . S
H665 C671 0.932 1_554 S
H666 C672 0.949 . S
C667 H662 0.950 . S
C667 C669 1.327 . S
C667 C673 1.429 . S
C668 C660 1.574 . S
C668 H663 0.949 . S
C668 C674 1.368 . S
C669 C653 1.349 . S
C669 H661 0.950 . S
C669 C667 1.327 . S
C670 C658 1.349 . S
C670 H664 0.950 . S
C670 C671 1.327 . S
C671 H665 0.932 1_556 S
C671 C670 1.327 . S
C671 C675 1.429 . S
C672 C655 1.584 . S
C672 H666 0.949 . S
C672 C676 1.368 . S
C673 C654 1.429 . S
C673 C667 1.429 . S
C673 C674 1.523 . S
C674 C655 1.353 1_554 S
C674 C668 1.368 . S
C674 C673 1.523 . S
C675 C659 1.429 . S
C675 C671 1.429 . S
C675 C676 1.523 . S
C676 C660 1.368 1_556 S
C676 C672 1.368 . S
C676 C675 1.523 . S
H677 C652 0.950 . S
H678 C654 0.950 . S
H679 C655 0.954 . S
H680 C657 0.950 . S
H681 C659 0.950 . S
C682 C683 1.349 . S
C682 C684 1.327 . S
C682 H707 0.950 . S
C683 C682 1.349 . S
C683 C699 1.349 . S
C684 C682 1.327 . S
C684 C703 1.429 . S
C684 H708 0.950 . S
C685 C702 1.574 1_554 S
C685 C704 1.368 . S
C685 H709 0.949 . S
H686 C690 0.949 1_556 S
C687 C688 1.349 . S
C687 C689 1.327 . S
C687 H710 0.950 . S
C688 C687 1.349 . S
C688 C700 1.349 . S
C689 C687 1.327 . S
C689 C705 1.429 . S
C689 H711 0.950 . S
C690 H686 0.949 1_554 S
C690 C698 1.574 . S
C690 C706 1.368 1_554 S
H691 C699 0.950 . S
H692 C697 0.950 . S
H693 C698 0.949 . S
H694 C700 0.950 1_565 S
H695 C701 0.950 . S
H696 C702 0.949 . S
C697 H692 0.950 . S
C697 C699 1.327 . S
C697 C703 1.429 . S
C698 C690 1.574 . S
C698 H693 0.949 . S
C698 C704 1.368 . S
C699 C683 1.349 . S
C699 H691 0.950 . S
C699 C697 1.327 . S
C700 C688 1.349 . S
C700 H694 0.950 1_545 S
C700 C701 1.327 . S
C701 H695 0.950 . S
C701 C700 1.327 . S
C701 C705 1.429 . S
C702 C685 1.574 1_556 S
C702 H696 0.949 . S
C702 C706 1.368 . S
C703 C684 1.429 . S
C703 C697 1.429 . S
C703 C704 1.523 . S
C704 C685 1.368 . S
C704 C698 1.368 . S
C704 C703 1.523 . S
C705 C689 1.429 . S
C705 C701 1.429 . S
C705 C706 1.523 . S
C706 C690 1.368 1_556 S
C706 C702 1.368 . S
C706 C705 1.523 . S
H707 C682 0.950 . S
H708 C684 0.950 . S
H709 C685 0.949 . S
H710 C687 0.950 . S
H711 C689 0.950 . S
C712 C713 1.349 . S
C712 C714 1.327 . S
C712 H737 0.950 . S
C713 C712 1.349 . S
C713 C729 1.349 . S
C714 C712 1.327 . S
C714 C733 1.429 . S
C714 H738 0.950 . S
C715 C732 1.576 . S
C715 C734 1.365 1_556 S
C715 H739 0.950 . S
H716 C720 0.949 . S
C717 C718 1.349 . S
C717 C719 1.327 . S
C717 H740 0.950 . S
C718 C717 1.349 . S
C718 C730 1.349 . S
C719 C717 1.327 . S
C719 C735 1.429 . S
C719 H741 0.950 . S
C720 H716 0.949 . S
C720 C728 1.574 . S
C720 C736 1.368 1_554 S
H721 C729 0.950 . S
H722 C727 0.950 . S
H723 C728 0.949 . S
H724 C730 0.950 . S
H725 C731 0.950 . S
H726 C732 0.949 . S
C727 H722 0.950 . S
C727 C729 1.327 . S
C727 C733 1.429 . S
C728 C720 1.574 . S
C728 H723 0.949 . S
C728 C734 1.368 . S
C729 C713 1.349 . S
C729 H721 0.950 . S
C729 C727 1.327 . S
C730 C718 1.349 . S
C730 H724 0.950 . S
C730 C731 1.327 . S
C731 H725 0.950 . S
C731 C730 1.327 . S
C731 C735 1.429 . S
C732 C715 1.576 . S
C732 H726 0.949 . S
C732 C736 1.368 . S
C733 C714 1.429 . S
C733 C727 1.429 . S
C733 C734 1.523 . S
C734 C715 1.365 1_554 S
C734 C728 1.368 . S
C734 C733 1.523 . S
C735 C719 1.429 . S
C735 C731 1.429 . S
C735 C736 1.523 . S
C736 C720 1.368 1_556 S
C736 C732 1.368 . S
C736 C735 1.523 . S
H737 C712 0.950 . S
H738 C714 0.950 . S
H739 C715 0.950 . S
H740 C717 0.950 . S
H741 C719 0.950 . S
C742 C743 1.349 . S
C742 C744 1.327 . S
C742 H767 0.950 . S
C743 C742 1.349 . S
C743 C759 1.349 . S
C744 C742 1.327 . S
C744 C763 1.429 . S
C744 H768 0.950 . S
C745 C762 1.574 . S
C745 C764 1.368 . S
C745 H769 0.949 . S
H746 C750 0.949 . S
C747 C748 1.349 . S
C747 C749 1.327 . S
C747 H770 0.950 . S
C748 C747 1.349 . S
C748 C760 1.349 . S
C749 C747 1.327 . S
C749 C765 1.429 . S
C749 H771 0.950 . S
C750 H746 0.949 . S
C750 C758 1.574 1_556 S
C750 C766 1.368 . S
H751 C759 0.950 . S
H752 C757 0.950 . S
H753 C758 0.949 . S
H754 C760 0.950 . S
H755 C761 0.950 . S
H756 C762 0.949 1_556 S
C757 H752 0.950 . S
C757 C759 1.327 . S
C757 C763 1.429 . S
C758 C750 1.574 1_554 S
C758 H753 0.949 . S
C758 C764 1.368 . S
C759 C743 1.349 . S
C759 H751 0.950 . S
C759 C757 1.327 . S
C760 C748 1.349 . S
C760 H754 0.950 . S
C760 C761 1.327 . S
C761 H755 0.950 . S
C761 C760 1.327 . S
C761 C765 1.429 . S
C762 C745 1.574 . S
C762 H756 0.949 1_554 S
C762 C766 1.368 1_554 S
C763 C744 1.429 . S
C763 C757 1.429 . S
C763 C764 1.523 . S
C764 C745 1.368 . S
C764 C758 1.368 . S
C764 C763 1.523 . S
C765 C749 1.429 . S
C765 C761 1.429 . S
C765 C766 1.523 . S
C766 C750 1.368 . S
C766 C762 1.368 1_556 S
C766 C765 1.523 . S
H767 C742 0.950 . S
H768 C744 0.950 . S
H769 C745 0.949 . S
H770 C747 0.950 . S
H771 C749 0.950 . S
C772 C773 1.349 . S
C772 C774 1.327 . S
C772 H797 0.950 . S
C773 C772 1.349 . S
C773 C789 1.349 . S
C774 C772 1.327 . S
C774 C793 1.429 . S
C774 H798 0.950 . S
C775 C792 1.574 . S
C775 C794 1.368 . S
C775 H799 0.949 . S
H776 C780 0.949 1_455 S
C777 C778 1.349 . S
C777 C779 1.327 . S
C777 H800 0.950 . S
C778 C777 1.349 . S
C778 C790 1.349 1_655 S
C779 C777 1.327 . S
C779 C795 1.429 . S
C779 H801 0.950 . S
C780 H776 0.949 1_655 S
C780 C788 1.574 . S
C780 C796 1.368 . S
H781 C789 0.950 . S
H782 C787 0.950 . S
H783 C788 0.949 1_455 S
H784 C790 0.950 . S
H785 C791 0.950 . S
H786 C792 0.949 . S
C787 H782 0.950 . S
C787 C789 1.327 . S
C787 C793 1.429 . S
C788 C780 1.574 . S
C788 H783 0.949 1_655 S
C788 C794 1.368 . S
C789 C773 1.349 . S
C789 H781 0.950 . S
C789 C787 1.327 . S
C790 C778 1.349 1_455 S
C790 H784 0.950 . S
C790 C791 1.327 . S
C791 H785 0.950 . S
C791 C790 1.327 . S
C791 C795 1.429 1_455 S
C792 C775 1.574 . S
C792 H786 0.949 . S
C792 C796 1.368 . S
C793 C774 1.429 . S
C793 C787 1.429 . S
C793 C794 1.523 . S
C794 C775 1.368 . S
C794 C788 1.368 . S
C794 C793 1.523 . S
C795 C779 1.429 . S
C795 C791 1.429 1_655 S
C795 C796 1.523 . S
C796 C780 1.368 . S
C796 C792 1.368 . S
C796 C795 1.523 . S
H797 C772 0.950 . S
H798 C774 0.950 . S
H799 C775 0.949 . S
H800 C777 0.950 . S
H801 C779 0.950 . S
C802 C803 1.349 . S
C802 C804 1.327 . S
C802 H827 0.950 . S
C803 C802 1.349 . S
C803 C819 1.349 . S
C804 C802 1.327 . S
C804 C823 1.429 . S
C804 H828 0.950 . S
C805 C822 1.574 . S
C805 C824 1.368 . S
C805 H829 0.949 1_565 S
H806 C810 0.949 . S
C807 C808 1.349 1_545 S
C807 C809 1.327 . S
C807 H830 0.950 . S
C808 C807 1.349 1_565 S
C808 C820 1.349 . S
C809 C807 1.327 . S
C809 C825 1.429 1_545 S
C809 H831 0.950 . S
C810 H806 0.949 . S
C810 C818 1.574 . S
C810 C826 1.368 . S
H811 C819 0.950 . S
H812 C817 0.990 . S
H813 C818 0.949 . S
H814 C820 0.950 . S
H815 C821 0.950 . S
H816 C822 0.949 1_545 S
C817 H812 0.990 . S
C817 C819 1.327 . S
C817 C823 1.429 . S
C818 C810 1.574 . S
C818 H813 0.949 . S
C818 C824 1.368 . S
C819 C803 1.349 . S
C819 H811 0.950 . S
C819 C817 1.327 . S
C820 C808 1.349 . S
C820 H814 0.950 . S
C820 C821 1.327 . S
C821 H815 0.950 . S
C821 C820 1.327 . S
C821 C825 1.429 . S
C822 C805 1.574 . S
C822 H816 0.949 1_565 S
C822 C826 1.368 . S
C823 C804 1.429 . S
C823 C817 1.429 . S
C823 C824 1.523 . S
C824 C805 1.368 . S
C824 C818 1.368 . S
C824 C823 1.523 . S
C825 C809 1.429 1_565 S
C825 C821 1.429 . S
C825 C826 1.523 . S
C826 C810 1.368 . S
C826 C822 1.368 . S
C826 C825 1.523 . S
H827 C802 0.950 . S
H828 C804 0.950 . S
H829 C805 0.949 1_545 S
H830 C807 0.950 . S
H831 C809 0.950 . S
C832 C833 1.349 . S
C832 C834 1.327 . S
C832 H857 0.950 . S
C833 C832 1.349 . S
C833 C849 1.349 . S
C834 C832 1.327 . S
C834 C853 1.429 . S
C834 H858 0.950 . S
C835 C852 1.574 . S
C835 C854 1.368 . S
C835 H859 0.949 . S
H836 C840 0.949 . S
C837 C838 1.349 . S
C837 C839 1.327 . S
C837 H860 0.950 . S
C838 C837 1.349 . S
C838 C850 1.349 . S
C839 C837 1.327 . S
C839 C855 1.429 . S
C839 H861 0.950 . S
C840 H836 0.949 . S
C840 C848 1.574 . S
C840 C856 1.368 . S
H841 C849 0.950 . S
H842 C847 0.950 . S
H843 C848 0.949 . S
H844 C850 0.950 . S
H845 C851 0.950 . S
H846 C852 0.949 . S
C847 H842 0.950 . S
C847 C849 1.327 . S
C847 C853 1.429 . S
C848 C840 1.574 . S
C848 H843 0.949 . S
C848 C854 1.368 . S
C849 C833 1.349 . S
C849 H841 0.950 . S
C849 C847 1.327 . S
C850 C838 1.349 . S
C850 H844 0.950 . S
C850 C851 1.327 . S
C851 H845 0.950 . S
C851 C850 1.327 . S
C851 C855 1.429 . S
C852 C835 1.574 . S
C852 H846 0.949 . S
C852 C856 1.368 . S
C853 C834 1.429 . S
C853 C847 1.429 . S
C853 C854 1.523 . S
C854 C835 1.368 . S
C854 C848 1.368 . S
C854 C853 1.523 . S
C855 C839 1.429 . S
C855 C851 1.429 . S
C855 C856 1.523 . S
C856 C840 1.368 . S
C856 C852 1.368 . S
C856 C855 1.523 . S
H857 C832 0.950 . S
H858 C834 0.950 . S
H859 C835 0.949 . S
H860 C837 0.950 . S
H861 C839 0.950 . S
C862 C863 1.349 . S
C862 C864 1.327 . S
C862 H887 0.950 . S
C863 C862 1.349 . S
C863 C879 1.349 . S
C864 C862 1.327 . S
C864 C883 1.429 . S
C864 H888 0.950 . S
C865 C882 1.574 . S
C865 C884 1.368 . S
C865 H889 0.949 . S
H866 C870 0.949 . S
C867 C868 1.349 . S
C867 C869 1.327 . S
C867 H890 0.950 . S
C868 C867 1.349 . S
C868 C880 1.349 . S
C869 C867 1.327 . S
C869 C885 1.429 . S
C869 H891 0.950 . S
C870 H866 0.949 . S
C870 C878 1.574 . S
C870 C886 1.368 . S
H871 C879 0.950 . S
H872 C877 0.950 . S
H873 C878 0.949 . S
H874 C880 0.950 . S
H875 C881 0.950 . S
H876 C882 0.949 . S
C877 H872 0.950 . S
C877 C879 1.327 . S
C877 C883 1.429 . S
C878 C870 1.574 . S
C878 H873 0.949 . S
C878 C884 1.368 . S
C879 C863 1.349 . S
C879 H871 0.950 . S
C879 C877 1.327 . S
C880 C868 1.349 . S
C880 H874 0.950 . S
C880 C881 1.327 . S
C881 H875 0.950 . S
C881 C880 1.327 . S
C881 C885 1.429 . S
C882 C865 1.574 . S
C882 H876 0.949 . S
C882 C886 1.368 . S
C883 C864 1.429 . S
C883 C877 1.429 . S
C883 C884 1.523 . S
C884 C865 1.368 . S
C884 C878 1.368 . S
C884 C883 1.523 . S
C885 C869 1.429 . S
C885 C881 1.429 . S
C885 C886 1.523 . S
C886 C870 1.368 . S
C886 C882 1.368 . S
C886 C885 1.523 . S
H887 C862 0.950 . S
H888 C864 0.950 . S
H889 C865 0.949 . S
H890 C867 0.950 . S
H891 C869 0.950 . S
C173 C74 1.558 . S
C178 C104 1.390 . S
C208 C122 1.390 . S
C203 C85 1.557 . S
C238 C143 1.390 . S
C233 C52 1.558 . S
C268 C167 1.389 . S
C263 C63 1.557 . S
C298 C101 1.315 . S
C293 C30 1.443 . S
C323 C41 1.442 . S
C328 C125 1.314 . S
C353 C8 1.443 . S
C358 C146 1.315 . S
C383 C19 1.443 . S
C388 C164 1.314 . S
C418 C106 0.430 . S
C413 C62 0.345 . S
C448 C124 0.430 . S
C443 C73 0.345 . S
C478 C145 0.429 . S
C473 C84 0.344 . S
C503 C51 0.345 . S
C508 C169 0.430 . S
C533 C18 0.553 . S
C538 C105 0.508 . S
C568 C123 0.508 . S
C563 C29 0.554 . S
C598 C144 0.508 . S
C593 C40 0.553 . S
C623 C7 0.554 . S
C628 C168 0.508 . S
C653 C60 1.433 . S
C658 C102 1.572 . S
C683 C71 1.434 . S
C688 C126 1.572 . S
C718 C147 1.572 . S
C713 C82 1.433 . S
C748 C165 1.572 . S
C743 C49 1.433 . S
C773 C16 1.188 . S
C778 C103 1.416 1_655 S
C808 C127 1.416 1_565 S
C803 C27 1.188 . S
C838 C148 1.416 . S
C833 C38 1.188 . S
C863 C5 1.188 . S
C868 C166 1.417 . S
