# Generated by pormake.
# Topology gar, (4,6)-cn, num edge types: 1
# Building blocks:
#     Node 0, Type 0, BuildingBlock: QUQFOY_clean_sbu_1, # of connection points: 4
#     Node 1, Type 0, BuildingBlock: QUQFOY_clean_sbu_1, # of connection points: 4
#     Node 2, Type 0, BuildingBlock: QUQFOY_clean_sbu_1, # of connection points: 4
#     Node 3, Type 0, BuildingBlock: QUQFOY_clean_sbu_1, # of connection points: 4
#     Node 4, Type 0, BuildingBlock: QUQFOY_clean_sbu_1, # of connection points: 4
#     Node 5, Type 0, BuildingBlock: QUQFOY_clean_sbu_1, # of connection points: 4
#     Node 6, Type 0, BuildingBlock: QUQFOY_clean_sbu_1, # of connection points: 4
#     Node 7, Type 0, BuildingBlock: QUQFOY_clean_sbu_1, # of connection points: 4
#     Node 8, Type 0, BuildingBlock: QUQFOY_clean_sbu_1, # of connection points: 4
#     Node 9, Type 0, BuildingBlock: QUQFOY_clean_sbu_1, # of connection points: 4
#     Node 10, Type 0, BuildingBlock: QUQFOY_clean_sbu_1, # of connection points: 4
#     Node 11, Type 0, BuildingBlock: QUQFOY_clean_sbu_1, # of connection points: 4
#     Node 12, Type 0, BuildingBlock: QUQFOY_clean_sbu_1, # of connection points: 4
#     Node 13, Type 0, BuildingBlock: QUQFOY_clean_sbu_1, # of connection points: 4
#     Node 14, Type 0, BuildingBlock: QUQFOY_clean_sbu_1, # of connection points: 4
#     Node 15, Type 0, BuildingBlock: QUQFOY_clean_sbu_1, # of connection points: 4
#     Node 16, Type 0, BuildingBlock: QUQFOY_clean_sbu_1, # of connection points: 4
#     Node 17, Type 0, BuildingBlock: QUQFOY_clean_sbu_1, # of connection points: 4
#     Node 18, Type 0, BuildingBlock: QUQFOY_clean_sbu_1, # of connection points: 4
#     Node 19, Type 0, BuildingBlock: QUQFOY_clean_sbu_1, # of connection points: 4
#     Node 20, Type 0, BuildingBlock: QUQFOY_clean_sbu_1, # of connection points: 4
#     Node 21, Type 0, BuildingBlock: QUQFOY_clean_sbu_1, # of connection points: 4
#     Node 22, Type 0, BuildingBlock: QUQFOY_clean_sbu_1, # of connection points: 4
#     Node 23, Type 0, BuildingBlock: QUQFOY_clean_sbu_1, # of connection points: 4
#     Node 24, Type 1, BuildingBlock: BETDIP_clean_sbu_0, # of connection points: 6
#     Node 25, Type 1, BuildingBlock: BETDIP_clean_sbu_0, # of connection points: 6
#     Node 26, Type 1, BuildingBlock: BETDIP_clean_sbu_0, # of connection points: 6
#     Node 27, Type 1, BuildingBlock: BETDIP_clean_sbu_0, # of connection points: 6
#     Node 28, Type 1, BuildingBlock: BETDIP_clean_sbu_0, # of connection points: 6
#     Node 29, Type 1, BuildingBlock: BETDIP_clean_sbu_0, # of connection points: 6
#     Node 30, Type 1, BuildingBlock: BETDIP_clean_sbu_0, # of connection points: 6
#     Node 31, Type 1, BuildingBlock: BETDIP_clean_sbu_0, # of connection points: 6
#     Node 32, Type 1, BuildingBlock: BETDIP_clean_sbu_0, # of connection points: 6
#     Node 33, Type 1, BuildingBlock: BETDIP_clean_sbu_0, # of connection points: 6
#     Node 34, Type 1, BuildingBlock: BETDIP_clean_sbu_0, # of connection points: 6
#     Node 35, Type 1, BuildingBlock: BETDIP_clean_sbu_0, # of connection points: 6
#     Node 36, Type 1, BuildingBlock: BETDIP_clean_sbu_0, # of connection points: 6
#     Node 37, Type 1, BuildingBlock: BETDIP_clean_sbu_0, # of connection points: 6
#     Node 38, Type 1, BuildingBlock: BETDIP_clean_sbu_0, # of connection points: 6
#     Node 39, Type 1, BuildingBlock: BETDIP_clean_sbu_0, # of connection points: 6
#     Edge 40, Type (0, 1), BuildingBlock: OJICUG_clean_linker_0, # of connection points: 2
#     Edge 41, Type (0, 1), BuildingBlock: OJICUG_clean_linker_0, # of connection points: 2
#     Edge 42, Type (0, 1), BuildingBlock: OJICUG_clean_linker_0, # of connection points: 2
#     Edge 43, Type (0, 1), BuildingBlock: OJICUG_clean_linker_0, # of connection points: 2
#     Edge 44, Type (0, 1), BuildingBlock: OJICUG_clean_linker_0, # of connection points: 2
#     Edge 45, Type (0, 1), BuildingBlock: OJICUG_clean_linker_0, # of connection points: 2
#     Edge 46, Type (0, 1), BuildingBlock: OJICUG_clean_linker_0, # of connection points: 2
#     Edge 47, Type (0, 1), BuildingBlock: OJICUG_clean_linker_0, # of connection points: 2
#     Edge 48, Type (0, 1), BuildingBlock: OJICUG_clean_linker_0, # of connection points: 2
#     Edge 49, Type (0, 1), BuildingBlock: OJICUG_clean_linker_0, # of connection points: 2
#     Edge 50, Type (0, 1), BuildingBlock: OJICUG_clean_linker_0, # of connection points: 2
#     Edge 51, Type (0, 1), BuildingBlock: OJICUG_clean_linker_0, # of connection points: 2
#     Edge 52, Type (0, 1), BuildingBlock: OJICUG_clean_linker_0, # of connection points: 2
#     Edge 53, Type (0, 1), BuildingBlock: OJICUG_clean_linker_0, # of connection points: 2
#     Edge 54, Type (0, 1), BuildingBlock: OJICUG_clean_linker_0, # of connection points: 2
#     Edge 55, Type (0, 1), BuildingBlock: OJICUG_clean_linker_0, # of connection points: 2
#     Edge 56, Type (0, 1), BuildingBlock: OJICUG_clean_linker_0, # of connection points: 2
#     Edge 57, Type (0, 1), BuildingBlock: OJICUG_clean_linker_0, # of connection points: 2
#     Edge 58, Type (0, 1), BuildingBlock: OJICUG_clean_linker_0, # of connection points: 2
#     Edge 59, Type (0, 1), BuildingBlock: OJICUG_clean_linker_0, # of connection points: 2
#     Edge 60, Type (0, 1), BuildingBlock: OJICUG_clean_linker_0, # of connection points: 2
#     Edge 61, Type (0, 1), BuildingBlock: OJICUG_clean_linker_0, # of connection points: 2
#     Edge 62, Type (0, 1), BuildingBlock: OJICUG_clean_linker_0, # of connection points: 2
#     Edge 63, Type (0, 1), BuildingBlock: OJICUG_clean_linker_0, # of connection points: 2
#     Edge 64, Type (0, 1), BuildingBlock: OJICUG_clean_linker_0, # of connection points: 2
#     Edge 65, Type (0, 1), BuildingBlock: OJICUG_clean_linker_0, # of connection points: 2
#     Edge 66, Type (0, 1), BuildingBlock: OJICUG_clean_linker_0, # of connection points: 2
#     Edge 67, Type (0, 1), BuildingBlock: OJICUG_clean_linker_0, # of connection points: 2
#     Edge 68, Type (0, 1), BuildingBlock: OJICUG_clean_linker_0, # of connection points: 2
#     Edge 69, Type (0, 1), BuildingBlock: OJICUG_clean_linker_0, # of connection points: 2
#     Edge 70, Type (0, 1), BuildingBlock: OJICUG_clean_linker_0, # of connection points: 2
#     Edge 71, Type (0, 1), BuildingBlock: OJICUG_clean_linker_0, # of connection points: 2
#     Edge 72, Type (0, 1), BuildingBlock: OJICUG_clean_linker_0, # of connection points: 2
#     Edge 73, Type (0, 1), BuildingBlock: OJICUG_clean_linker_0, # of connection points: 2
#     Edge 74, Type (0, 1), BuildingBlock: OJICUG_clean_linker_0, # of connection points: 2
#     Edge 75, Type (0, 1), BuildingBlock: OJICUG_clean_linker_0, # of connection points: 2
#     Edge 76, Type (0, 1), BuildingBlock: OJICUG_clean_linker_0, # of connection points: 2
#     Edge 77, Type (0, 1), BuildingBlock: OJICUG_clean_linker_0, # of connection points: 2
#     Edge 78, Type (0, 1), BuildingBlock: OJICUG_clean_linker_0, # of connection points: 2
#     Edge 79, Type (0, 1), BuildingBlock: OJICUG_clean_linker_0, # of connection points: 2
#     Edge 80, Type (0, 1), BuildingBlock: OJICUG_clean_linker_0, # of connection points: 2
#     Edge 81, Type (0, 1), BuildingBlock: OJICUG_clean_linker_0, # of connection points: 2
#     Edge 82, Type (0, 1), BuildingBlock: OJICUG_clean_linker_0, # of connection points: 2
#     Edge 83, Type (0, 1), BuildingBlock: OJICUG_clean_linker_0, # of connection points: 2
#     Edge 84, Type (0, 1), BuildingBlock: OJICUG_clean_linker_0, # of connection points: 2
#     Edge 85, Type (0, 1), BuildingBlock: OJICUG_clean_linker_0, # of connection points: 2
#     Edge 86, Type (0, 1), BuildingBlock: OJICUG_clean_linker_0, # of connection points: 2
#     Edge 87, Type (0, 1), BuildingBlock: OJICUG_clean_linker_0, # of connection points: 2
#     Edge 88, Type (0, 1), BuildingBlock: OJICUG_clean_linker_0, # of connection points: 2
#     Edge 89, Type (0, 1), BuildingBlock: OJICUG_clean_linker_0, # of connection points: 2
#     Edge 90, Type (0, 1), BuildingBlock: OJICUG_clean_linker_0, # of connection points: 2
#     Edge 91, Type (0, 1), BuildingBlock: OJICUG_clean_linker_0, # of connection points: 2
#     Edge 92, Type (0, 1), BuildingBlock: OJICUG_clean_linker_0, # of connection points: 2
#     Edge 93, Type (0, 1), BuildingBlock: OJICUG_clean_linker_0, # of connection points: 2
#     Edge 94, Type (0, 1), BuildingBlock: OJICUG_clean_linker_0, # of connection points: 2
#     Edge 95, Type (0, 1), BuildingBlock: OJICUG_clean_linker_0, # of connection points: 2
#     Edge 96, Type (0, 1), BuildingBlock: OJICUG_clean_linker_0, # of connection points: 2
#     Edge 97, Type (0, 1), BuildingBlock: OJICUG_clean_linker_0, # of connection points: 2
#     Edge 98, Type (0, 1), BuildingBlock: OJICUG_clean_linker_0, # of connection points: 2
#     Edge 99, Type (0, 1), BuildingBlock: OJICUG_clean_linker_0, # of connection points: 2
#     Edge 100, Type (0, 1), BuildingBlock: OJICUG_clean_linker_0, # of connection points: 2
#     Edge 101, Type (0, 1), BuildingBlock: OJICUG_clean_linker_0, # of connection points: 2
#     Edge 102, Type (0, 1), BuildingBlock: OJICUG_clean_linker_0, # of connection points: 2
#     Edge 103, Type (0, 1), BuildingBlock: OJICUG_clean_linker_0, # of connection points: 2
#     Edge 104, Type (0, 1), BuildingBlock: OJICUG_clean_linker_0, # of connection points: 2
#     Edge 105, Type (0, 1), BuildingBlock: OJICUG_clean_linker_0, # of connection points: 2
#     Edge 106, Type (0, 1), BuildingBlock: OJICUG_clean_linker_0, # of connection points: 2
#     Edge 107, Type (0, 1), BuildingBlock: OJICUG_clean_linker_0, # of connection points: 2
#     Edge 108, Type (0, 1), BuildingBlock: OJICUG_clean_linker_0, # of connection points: 2
#     Edge 109, Type (0, 1), BuildingBlock: OJICUG_clean_linker_0, # of connection points: 2
#     Edge 110, Type (0, 1), BuildingBlock: OJICUG_clean_linker_0, # of connection points: 2
#     Edge 111, Type (0, 1), BuildingBlock: OJICUG_clean_linker_0, # of connection points: 2
#     Edge 112, Type (0, 1), BuildingBlock: OJICUG_clean_linker_0, # of connection points: 2
#     Edge 113, Type (0, 1), BuildingBlock: OJICUG_clean_linker_0, # of connection points: 2
#     Edge 114, Type (0, 1), BuildingBlock: OJICUG_clean_linker_0, # of connection points: 2
#     Edge 115, Type (0, 1), BuildingBlock: OJICUG_clean_linker_0, # of connection points: 2
#     Edge 116, Type (0, 1), BuildingBlock: OJICUG_clean_linker_0, # of connection points: 2
#     Edge 117, Type (0, 1), BuildingBlock: OJICUG_clean_linker_0, # of connection points: 2
#     Edge 118, Type (0, 1), BuildingBlock: OJICUG_clean_linker_0, # of connection points: 2
#     Edge 119, Type (0, 1), BuildingBlock: OJICUG_clean_linker_0, # of connection points: 2
#     Edge 120, Type (0, 1), BuildingBlock: OJICUG_clean_linker_0, # of connection points: 2
#     Edge 121, Type (0, 1), BuildingBlock: OJICUG_clean_linker_0, # of connection points: 2
#     Edge 122, Type (0, 1), BuildingBlock: OJICUG_clean_linker_0, # of connection points: 2
#     Edge 123, Type (0, 1), BuildingBlock: OJICUG_clean_linker_0, # of connection points: 2
#     Edge 124, Type (0, 1), BuildingBlock: OJICUG_clean_linker_0, # of connection points: 2
#     Edge 125, Type (0, 1), BuildingBlock: OJICUG_clean_linker_0, # of connection points: 2
#     Edge 126, Type (0, 1), BuildingBlock: OJICUG_clean_linker_0, # of connection points: 2
#     Edge 127, Type (0, 1), BuildingBlock: OJICUG_clean_linker_0, # of connection points: 2
#     Edge 128, Type (0, 1), BuildingBlock: OJICUG_clean_linker_0, # of connection points: 2
#     Edge 129, Type (0, 1), BuildingBlock: OJICUG_clean_linker_0, # of connection points: 2
#     Edge 130, Type (0, 1), BuildingBlock: OJICUG_clean_linker_0, # of connection points: 2
#     Edge 131, Type (0, 1), BuildingBlock: OJICUG_clean_linker_0, # of connection points: 2
#     Edge 132, Type (0, 1), BuildingBlock: OJICUG_clean_linker_0, # of connection points: 2
#     Edge 133, Type (0, 1), BuildingBlock: OJICUG_clean_linker_0, # of connection points: 2
#     Edge 134, Type (0, 1), BuildingBlock: OJICUG_clean_linker_0, # of connection points: 2
#     Edge 135, Type (0, 1), BuildingBlock: OJICUG_clean_linker_0, # of connection points: 2
# Relax obj value: 0.258
# Max RMSD: 0.378
# Mean RMSD: 0.191
data_MOF--net-gar--node1-QUQFOY_clean_sbu_1--node2-BETDIP_clean_sbu_0--edge1-OJICUG_clean_linker_0
_symmetry_space_group_name_H-M    P1
_symmetry_Int_Tables_number       1
_symmetry_cell_setting            triclinic
loop_
_symmetry_equiv_pos_as_xyz
'x, y, z'
_cell_length_a     50.453196
_cell_length_b     43.268555
_cell_length_c     40.6761
_cell_angle_alpha  98.635008
_cell_angle_beta   99.776027
_cell_angle_gamma 105.35417
loop_
_atom_site_label
_atom_site_type_symbol
_atom_site_fract_x
_atom_site_fract_y
_atom_site_fract_z
_atom_type_partial_charge
O0 O 0.04014 0.30439 0.44206 0.0
Cd1 Cd 0.04024 0.33222 0.40691 0.0
Cd2 Cd 0.03701 0.37808 0.46604 0.0
O3 O 0.05022 0.34399 0.48738 0.0
O4 O 0.0522 0.30717 0.37059 0.0
O5 O 0.07804 0.35613 0.40149 0.0
C6 C 0.07573 0.33034 0.37918 0.0
C7 C 0.0464 0.42619 0.50593 0.0
C8 C 0.04756 0.31473 0.47394 0.0
C9 C 0.98819 0.34875 0.40304 0.0
O10 O 0.99863 0.36463 0.43342 0.0
O11 O 1.00239 0.3356 0.38571 0.0
O12 O 1.02671 0.40047 0.50619 0.0
O13 O 0.06064 0.42485 0.48251 0.0
O14 O 0.07131 0.73765 0.75492 0.0
Cd15 Cd 0.08934 0.76414 0.80372 0.0
Cd16 Cd 0.10866 0.81296 0.7732 0.0
O17 O 0.09296 0.77662 0.73096 0.0
O18 O 0.06245 0.759 0.83581 0.0
O19 O 0.07645 0.80304 0.81452 0.0
C20 C 0.06041 0.78747 0.8318 0.0
C21 C 0.10446 0.8623 0.76297 0.0
C22 C 0.07743 0.7478 0.72858 0.0
C23 C 0.15171 0.79149 0.81358 0.0
O24 O 0.14564 0.81445 0.80114 0.0
O25 O 0.13226 0.76797 0.81821 0.0
O26 O 0.12237 0.84985 0.75151 0.0
O27 O 0.08939 0.84719 0.7814 0.0
O28 O 0.59576 0.85314 0.94667 0.0
Cd29 Cd 0.56457 0.85507 0.97068 0.0
Cd30 Cd 0.5481 0.88338 0.92313 0.0
O31 O 0.57895 0.86959 0.90114 0.0
O32 O 0.57238 0.83211 1.00682 0.0
O33 O 0.5329 0.81502 0.96659 0.0
C34 C 0.54758 0.81208 0.99438 0.0
C35 C 0.50006 0.85894 0.90362 0.0
C36 C 0.59711 0.85845 0.91721 0.0
C37 C 0.5626 0.92204 0.99336 0.0
O38 O 0.55759 0.92409 0.96219 0.0
O39 O 0.56568 0.89605 1.00139 0.0
O40 O 0.51335 0.88229 0.89063 0.0
O41 O 0.5145 0.84803 0.92581 0.0
O42 O 0.56687 0.22614 0.26729 0.0
Cd43 Cd 0.58263 0.25743 0.31386 0.0
Cd44 Cd 0.59542 0.29952 0.27311 0.0
O45 O 0.5735 0.26221 0.23418 0.0
O46 O 0.55524 0.25535 0.3448 0.0
O47 O 0.56989 0.29672 0.31978 0.0
C48 C 0.5539 0.28337 0.33837 0.0
C49 C 0.59767 0.3502 0.26313 0.0
C50 C 0.56516 0.23299 0.2378 0.0
C51 C 0.64208 0.28305 0.31796 0.0
O52 O 0.63323 0.29786 0.29604 0.0
O53 O 0.6251 0.26452 0.33159 0.0
O54 O 0.61067 0.33252 0.2482 0.0
O55 O 0.58228 0.33872 0.28316 0.0
O56 O 0.09431 0.78451 0.19762 0.0
Cd57 Cd 0.10359 0.82499 0.23501 0.0
Cd58 Cd 0.12946 0.85633 0.18731 0.0
O59 O 0.11702 0.80568 0.16033 0.0
O60 O 0.08032 0.80609 0.26648 0.0
O61 O 0.07378 0.84709 0.24328 0.0
C62 C 0.06588 0.8261 0.26178 0.0
C63 C 0.1168 0.90244 0.16612 0.0
C64 C 0.10313 0.78068 0.17037 0.0
C65 C 0.16712 0.85192 0.25381 0.0
O66 O 0.16565 0.8643 0.22706 0.0
O67 O 0.14471 0.83677 0.26204 0.0
O68 O 0.13734 0.89242 0.15833 0.0
O69 O 0.10288 0.88623 0.1852 0.0
O70 O 0.57957 0.79618 0.49891 0.0
Cd71 Cd 0.55973 0.79313 0.53944 0.0
Cd72 Cd 0.5205 0.81856 0.47778 0.0
O73 O 0.55423 0.81049 0.45638 0.0
O74 O 0.58288 0.77258 0.57165 0.0
O75 O 0.53908 0.74687 0.54559 0.0
C76 C 0.56189 0.74621 0.56511 0.0
C77 C 0.47451 0.81528 0.44563 0.0
C78 C 0.5761 0.80284 0.46925 0.0
C79 C 0.54725 0.86019 0.55272 0.0
O80 O 0.53304 0.85379 0.5222 0.0
O81 O 0.55871 0.83976 0.56463 0.0
O82 O 0.49658 0.83895 0.44651 0.0
O83 O 0.4786 0.79236 0.46104 0.0
O84 O 0.60346 0.27794 0.70558 0.0
Cd85 Cd 0.61354 0.31793 0.74392 0.0
Cd86 Cd 0.63958 0.34954 0.69606 0.0
O87 O 0.62546 0.29942 0.6679 0.0
O88 O 0.58922 0.29958 0.77478 0.0
O89 O 0.58424 0.34111 0.75152 0.0
C90 C 0.57534 0.32009 0.76961 0.0
C91 C 0.62762 0.39588 0.67499 0.0
C92 C 0.61127 0.27441 0.67759 0.0
C93 C 0.67735 0.34428 0.76254 0.0
O94 O 0.67582 0.35657 0.7357 0.0
O95 O 0.65491 0.32923 0.77086 0.0
O96 O 0.64775 0.38522 0.66684 0.0
O97 O 0.61387 0.38032 0.69462 0.0
O98 O 0.02987 0.23641 1.00573 0.0
Cd99 Cd 0.0309 0.27185 0.97569 0.0
Cd100 Cd 1.0215 0.30728 0.03726 0.0
O101 O 0.03186 0.26641 0.05571 0.0
O102 O 0.04997 0.25868 0.93827 0.0
O103 O 0.06957 0.30316 0.97851 0.0
C104 C 0.07149 0.28389 0.95206 0.0
C105 C 0.04052 0.36345 0.06561 0.0
C106 C 0.03257 0.23956 0.03792 0.0
C107 C 0.97707 0.29316 0.96976 0.0
O108 O 0.98364 0.30176 1.00221 0.0
O109 O 0.99341 0.28162 0.95409 0.0
O110 O 1.02115 0.34326 0.07548 0.0
O111 O 0.05101 0.35125 0.04171 0.0
O112 O 0.44622 0.09656 0.28591 0.0
Cd113 Cd 0.41367 0.10123 0.3167 0.0
Cd114 Cd 0.46946 0.07095 0.36535 0.0
O115 O 0.48024 0.08023 0.31621 0.0
O116 O 0.38223 0.12457 0.29715 0.0
O117 O 0.4126 0.14838 0.34386 0.0
C118 C 0.39125 0.14988 0.32207 0.0
C119 C 0.50048 0.07267 0.422 0.0
C120 C 0.46934 0.08793 0.28827 0.0
C121 C 0.40345 0.03036 0.34217 0.0
O122 O 0.42952 0.03612 0.35611 0.0
O123 O 0.3944 0.05192 0.32812 0.0
O124 O 0.49793 0.05171 0.39454 0.0
O125 O 0.48723 0.09404 0.4175 0.0
O126 O 0.30691 0.21567 0.63656 0.0
Cd127 Cd 0.29736 0.17704 0.596 0.0
Cd128 Cd 0.27186 0.22552 0.56571 0.0
O129 O 0.28772 0.25156 0.61626 0.0
O130 O 0.31729 0.14695 0.61696 0.0
O131 O 0.32924 0.16828 0.57408 0.0
C132 C 0.3341 0.15099 0.59637 0.0
C133 C 0.28442 0.24887 0.51799 0.0
C134 C 0.30079 0.24247 0.641 0.0
C135 C 0.23215 0.16039 0.57257 0.0
O136 O 0.23482 0.18756 0.56266 0.0
O137 O 0.2539 0.15171 0.58352 0.0
O138 O 0.2654 0.25595 0.53273 0.0
O139 O 0.29608 0.2284 0.52996 0.0
O140 O 0.15847 0.07874 0.82335 0.0
Cd141 Cd 0.19012 0.08822 0.86515 0.0
Cd142 Cd 0.15656 0.12152 0.89317 0.0
O143 O 0.13219 0.10754 0.84285 0.0
O144 O 0.21396 0.06632 0.84288 0.0
O145 O 0.19807 0.05232 0.88753 0.0
C146 C 0.21261 0.04802 0.86497 0.0
C147 C 0.13908 0.10551 0.94087 0.0
C148 C 0.13748 0.0896 0.81838 0.0
C149 C 0.21518 0.16061 0.89169 0.0
O150 O 0.19227 0.16175 0.9002 0.0
O151 O 0.21813 0.13381 0.87814 0.0
O152 O 0.13419 0.1299 0.92877 0.0
O153 O 0.15362 0.0898 0.92567 0.0
O154 O 0.25035 0.91544 0.08209 0.0
Cd155 Cd 0.24129 0.93758 0.04239 0.0
Cd156 Cd 0.2382 0.87891 0.02069 0.0
O157 O 0.21697 0.87067 0.0578 0.0
O158 O 0.25633 0.98192 0.0696 0.0
O159 O 0.21126 0.95868 0.04416 0.0
C160 C 0.23085 0.9831 0.06409 0.0
C161 C 0.23642 0.83783 0.97873 0.0
C162 C 0.23402 0.8885 0.0844 0.0
C163 C 0.28553 0.93114 0.01732 0.0
O164 O 0.28001 0.90717 0.03205 0.0
O165 O 0.26612 0.94337 1.00814 0.0
O166 O 0.24503 0.83693 1.01009 0.0
O167 O 0.22415 0.85952 0.97177 0.0
O168 O 0.35731 0.43258 0.19363 0.0
Cd169 Cd 0.36239 0.46394 0.15949 0.0
Cd170 Cd 0.37727 0.40911 0.12709 0.0
O171 O 0.36562 0.38863 0.16755 0.0
O172 O 0.34576 0.4986 0.17772 0.0
O173 O 0.32643 0.46393 0.12852 0.0
C174 C 0.32524 0.48751 0.15129 0.0
C175 C 0.35905 0.3816 0.07035 0.0
C176 C 0.35847 0.4034 0.1925 0.0
C177 C 0.42074 0.47537 0.14162 0.0
O178 O 0.41555 0.44448 0.13386 0.0
O179 O 0.40215 0.4877 0.15097 0.0
O180 O 0.37821 0.37393 0.08991 0.0
O181 O 0.34891 0.40376 0.08364 0.0
O182 O 0.91403 0.21679 0.26624 0.0
Cd183 Cd 0.89378 0.1811 0.22315 0.0
Cd184 Cd 0.8815 0.24036 0.19477 0.0
O185 O 0.91814 0.2433 0.22638 0.0
O186 O 0.90954 0.14516 0.21452 0.0
O187 O 0.90907 0.18233 0.18182 0.0
C188 C 0.91439 0.15564 0.18727 0.0
C189 C 0.8767 0.26705 0.15276 0.0
C190 C 0.91524 0.24344 0.25661 0.0
C191 C 0.83426 0.18176 0.2012 0.0
O192 O 0.84332 0.21074 0.19674 0.0
O193 O 0.85086 0.16566 0.21044 0.0
O194 O 0.87681 0.28092 0.18332 0.0
O195 O 0.88239 0.23948 0.14748 0.0
O196 O 0.1872 0.54396 0.31905 0.0
Cd197 Cd 0.22568 0.54617 0.35608 0.0
Cd198 Cd 0.17972 0.58654 0.40213 0.0
O199 O 0.15977 0.56676 0.34774 0.0
O200 O 0.25368 0.51891 0.33782 0.0
O201 O 0.23215 0.50354 0.37631 0.0
C202 C 0.24923 0.49781 0.35735 0.0
C203 C 0.15501 0.58971 0.453 0.0
C204 C 0.16504 0.55405 0.31934 0.0
C205 C 0.23913 0.62681 0.38708 0.0
O206 O 0.2173 0.62415 0.40051 0.0
O207 O 0.24502 0.60094 0.37278 0.0
O208 O 0.1518 0.60555 0.42877 0.0
O209 O 0.17157 0.57185 0.4489 0.0
O210 O 0.86334 0.93461 0.70214 0.0
Cd211 Cd 0.86712 0.9657 0.66751 0.0
Cd212 Cd 0.8776 0.9124 0.63005 0.0
O213 O 0.86477 0.89016 0.66881 0.0
O214 O 0.84877 0.99967 0.68277 0.0
O215 O 0.83084 0.96219 0.6352 0.0
C216 C 0.8286 0.98648 0.65618 0.0
C217 C 0.85831 0.88598 0.57347 0.0
C218 C 0.861 0.90414 0.69671 0.0
C219 C 0.9237 0.97645 0.64598 0.0
O220 O 0.91715 0.94554 0.63646 0.0
O221 O 0.9063 0.98935 0.65772 0.0
O222 O 0.87699 0.87707 0.59236 0.0
O223 O 0.84939 0.90904 0.58731 0.0
O224 O 0.96797 1.0189 0.24804 0.0
Cd225 Cd 0.9417 1.01763 0.27936 0.0
Cd226 Cd 0.98446 1.01616 0.33156 0.0
O227 O 1.00467 0.03067 0.29093 0.0
O228 O 0.9136 0.03649 0.25888 0.0
O229 O 0.94264 0.05823 0.30975 0.0
C230 C 0.92212 0.05892 0.28629 0.0
C231 C 1.00924 0.03689 0.38917 0.0
C232 C 0.99429 0.02818 0.25923 0.0
C233 C 0.92582 0.96163 0.30953 0.0
O234 O 0.95025 0.97374 0.32921 0.0
O235 O 0.91859 0.97503 0.2855 0.0
O236 O 1.01409 1.01334 0.37001 0.0
O237 O 0.99152 0.05036 0.3751 0.0
O238 O 0.4239 0.73018 0.74312 0.0
Cd239 Cd 0.39365 0.69076 0.71024 0.0
Cd240 Cd 0.37292 0.74456 0.67997 0.0
O241 O 0.41394 0.75119 0.7005 0.0
O242 O 0.40501 0.65131 0.70688 0.0
O243 O 0.40005 0.67822 0.66446 0.0
C244 C 0.40566 0.65368 0.67568 0.0
C245 C 0.35804 0.76492 0.63596 0.0
C246 C 0.41879 0.7544 0.73252 0.0
C247 C 0.33465 0.69537 0.70942 0.0
O248 O 0.34089 0.72265 0.70038 0.0
O249 O 0.35194 0.67885 0.71271 0.0
O250 O 0.36509 0.78264 0.66637 0.0
O251 O 0.36142 0.73607 0.63074 0.0
O252 O 0.47632 0.52126 0.75524 0.0
Cd253 Cd 0.44743 0.51814 0.78379 0.0
Cd254 Cd 0.48837 0.51338 0.83682 0.0
O255 O 0.51118 0.52783 0.79918 0.0
O256 O 0.42072 0.53911 0.76343 0.0
O257 O 0.4474 0.55717 0.816 0.0
C258 C 0.42816 0.55983 0.7921 0.0
C259 C 0.51096 0.53267 0.89471 0.0
C260 C 0.50233 0.52792 0.76782 0.0
C261 C 0.42991 0.45993 0.81106 0.0
O262 O 0.45397 0.47105 0.83154 0.0
O263 O 0.42347 0.47464 0.78779 0.0
O264 O 0.51606 0.50902 0.87605 0.0
O265 O 0.49417 0.5469 0.88001 0.0
O266 O 0.68772 0.0402 0.81534 0.0
Cd267 Cd 0.72543 0.04234 0.85393 0.0
Cd268 Cd 0.67912 0.08225 0.89749 0.0
O269 O 0.65984 0.06305 0.84295 0.0
O270 O 0.75394 1.01543 0.83735 0.0
O271 O 0.73108 0.99995 0.87482 0.0
C272 C 0.74886 0.99444 0.85686 0.0
C273 C 0.65298 0.08433 0.94669 0.0
C274 C 0.66547 0.05022 0.81488 0.0
C275 C 0.74015 0.12238 0.88671 0.0
O276 O 0.71763 0.11981 0.8987 0.0
O277 O 0.74578 0.0965 0.87217 0.0
O278 O 0.65119 0.10151 0.92344 0.0
O279 O 0.66891 0.06571 0.94248 0.0
O280 O 0.8052 0.7178 0.14191 0.0
Cd281 Cd 0.79659 0.68031 0.10052 0.0
Cd282 Cd 0.77407 0.7289 0.07048 0.0
O283 O 0.78954 0.75553 0.12058 0.0
O284 O 0.81613 0.64987 0.1207 0.0
O285 O 0.82886 0.67291 0.07901 0.0
C286 C 0.83333 0.65489 0.10067 0.0
C287 C 0.7853 0.75255 0.02267 0.0
C288 C 0.80045 0.74539 0.14589 0.0
C289 C 0.7326 0.66479 0.07641 0.0
O290 O 0.73637 0.69266 0.0679 0.0
O291 O 0.75352 0.6545 0.08651 0.0
O292 O 0.7683 0.76116 0.04001 0.0
O293 O 0.79583 0.73024 0.032 0.0
O294 O 0.94827 0.5983 0.79258 0.0
Cd295 Cd 0.91477 0.59991 0.82264 0.0
Cd296 Cd 0.97105 0.57293 0.87095 0.0
O297 O 0.98322 0.58409 0.82342 0.0
O298 O 0.88341 0.62308 0.80243 0.0
O299 O 0.91256 0.6464 0.85013 0.0
C300 C 0.89175 0.6481 0.82765 0.0
C301 C 1.00163 0.57656 0.92766 0.0
C302 C 0.97228 0.59167 0.79556 0.0
C303 C 0.90649 0.52843 0.84781 0.0
O304 O 0.93271 0.53543 0.86152 0.0
O305 O 0.89648 0.54957 0.83395 0.0
O306 O 1.00056 0.55604 0.90053 0.0
O307 O 0.98713 0.59665 0.92273 0.0
O308 O 0.75514 0.39095 0.5889 0.0
Cd309 Cd 0.75158 0.41694 0.55146 0.0
Cd310 Cd 0.74774 0.36195 0.52527 0.0
O311 O 0.72747 0.34366 0.55967 0.0
O312 O 0.72373 0.44168 0.5513 0.0
O313 O 0.76737 0.45923 0.5828 0.0
C314 C 0.7431 0.46349 0.57451 0.0
C315 C 0.73419 0.34619 0.46899 0.0
C316 C 0.74064 0.36199 0.58802 0.0
C317 C 0.79795 0.40847 0.52726 0.0
O318 O 0.79098 0.38243 0.53857 0.0
O319 O 0.77985 0.42339 0.52121 0.0
O320 O 0.7412 0.3267 0.48763 0.0
O321 O 0.73102 0.37344 0.48306 0.0
O322 O 0.65697 0.58362 0.32946 0.0
Cd323 Cd 0.68787 0.59237 0.37167 0.0
Cd324 Cd 0.65564 0.62409 0.39916 0.0
O325 O 0.62959 0.61017 0.3497 0.0
O326 O 0.71057 0.56956 0.34899 0.0
O327 O 0.69398 0.55532 0.3932 0.0
C328 C 0.70795 0.55041 0.37018 0.0
C329 C 0.64226 0.6056 0.44787 0.0
C330 C 0.63534 0.5933 0.32484 0.0
C331 C 0.71363 0.66408 0.39715 0.0
O332 O 0.69043 0.66506 0.40489 0.0
O333 O 0.71703 0.63719 0.38475 0.0
O334 O 0.63548 0.62991 0.4376 0.0
O335 O 0.65624 0.59124 0.43013 0.0
Tb336 Tb 0.04775 0.05001 0.08273 0.0
Tb337 Tb 0.09631 0.09526 0.13075 0.0
C338 C 0.99746 1.02099 0.0531 0.0
C339 C 0.97348 0.03414 0.05373 0.0
C340 C 0.95264 1.01941 0.0701 0.0
C341 C 0.93808 0.03811 0.08613 0.0
C342 C 0.94434 0.07175 0.08608 0.0
C343 C 0.96199 0.0851 0.06532 0.0
C344 C 0.97612 0.06617 0.04876 0.0
C345 C 0.09196 0.06586 0.05498 0.0
C346 C 0.05565 0.12832 0.09355 0.0
C347 C 0.14496 0.1284 0.16313 0.0
C348 C 0.17077 0.11893 0.16944 0.0
C349 C 0.1921 0.13224 0.15299 0.0
C350 C 0.20894 0.11361 0.14259 0.0
C351 C 0.20477 0.08218 0.14948 0.0
C352 C 0.18733 0.07169 0.17148 0.0
C353 C 0.17024 0.09003 0.18147 0.0
C354 C 0.05176 0.07866 0.15803 0.0
C355 C 0.08874 1.01696 0.12049 0.0
O356 O 1.00896 1.01752 0.08304 0.0
O357 O 1.01646 0.03471 0.03724 0.0
O358 O 0.08443 0.08469 0.076 0.0
O359 O 0.07428 0.0367 0.04933 0.0
O360 O 0.03847 0.09787 0.08278 0.0
O361 O 0.08091 0.13361 0.11256 0.0
O362 O 0.13533 0.12717 0.13086 0.0
O363 O 0.12499 0.115 0.17786 0.0
O364 O 0.05966 0.06053 0.137 0.0
O365 O 0.06948 0.10771 0.16438 0.0
O366 O 0.10648 0.04742 0.13038 0.0
O367 O 0.06311 1.01202 0.10225 0.0
H368 H 0.95006 0.99465 0.07402 0.0
H369 H 0.92382 0.02697 0.1011 0.0
H370 H 0.96707 0.11089 0.06452 0.0
H371 H 0.9915 0.07785 0.03543 0.0
H372 H 0.19287 0.15461 0.14372 0.0
H373 H 0.22243 0.12193 0.12561 0.0
H374 H 0.18445 0.04758 0.17741 0.0
H375 H 0.15424 0.07939 0.19463 0.0
Tb376 Tb 0.32131 0.81396 0.32719 0.0
Tb377 Tb 0.31132 0.84236 0.38387 0.0
C378 C 0.32296 0.79708 0.26632 0.0
C379 C 0.31089 0.81055 0.23916 0.0
C380 C 0.29676 0.83339 0.24772 0.0
C381 C 0.28303 0.84542 0.22274 0.0
C382 C 0.28313 0.83459 0.18868 0.0
C383 C 0.29711 0.81148 0.17982 0.0
C384 C 0.31104 0.79939 0.2052 0.0
C385 C 0.36085 0.81229 0.37911 0.0
C386 C 0.34412 0.89327 0.34905 0.0
C387 C 0.30423 0.86135 0.44174 0.0
C388 C 0.30902 0.84689 0.4708 0.0
C389 C 0.32487 0.82477 0.46981 0.0
C390 C 0.32887 0.80931 0.49662 0.0
C391 C 0.31708 0.81594 0.52463 0.0
C392 C 0.30119 0.83809 0.52562 0.0
C393 C 0.29707 0.85355 0.49849 0.0
C394 C 0.27428 0.84598 0.33027 0.0
C395 C 0.29263 0.76306 0.36704 0.0
O396 O 0.30398 0.78101 0.28058 0.0
O397 O 0.3442 0.81795 0.28871 0.0
O398 O 0.35115 0.83612 0.37572 0.0
O399 O 0.34833 0.78907 0.35299 0.0
O400 O 0.33478 0.86757 0.32308 0.0
O401 O 0.34034 0.88781 0.37898 0.0
O402 O 0.32711 0.87372 0.43149 0.0
O403 O 0.28382 0.84252 0.41696 0.0
O404 O 0.28205 0.82117 0.33502 0.0
O405 O 0.28767 0.8695 0.35568 0.0
O406 O 0.29978 0.79001 0.39126 0.0
O407 O 0.29701 0.7669 0.3367 0.0
H408 H 0.29562 0.84129 0.27369 0.0
H409 H 0.27191 0.86273 0.22999 0.0
H410 H 0.29734 0.80302 0.15345 0.0
H411 H 0.32151 0.78128 0.19842 0.0
H412 H 0.33443 0.81974 0.44847 0.0
H413 H 0.34181 0.79292 0.49587 0.0
H414 H 0.29215 0.84344 0.54734 0.0
H415 H 0.28468 0.87054 0.49906 0.0
Tb416 Tb 0.61051 0.07052 0.61151 0.0
Tb417 Tb 0.55181 0.06265 0.63118 0.0
C418 C 0.66159 0.07482 0.61374 0.0
C419 C 0.68317 0.05785 0.6219 0.0
C420 C 0.69729 0.06018 0.65553 0.0
C421 C 0.71987 0.04704 0.6619 0.0
C422 C 0.72909 0.03166 0.63478 0.0
C423 C 0.71446 0.02894 0.60127 0.0
C424 C 0.69186 0.04174 0.59498 0.0
C425 C 0.57112 0.07139 0.55639 0.0
C426 C 0.56899 0.99899 0.60613 0.0
C427 C 0.50106 0.05936 0.63139 0.0
C428 C 0.47725 0.07273 0.62151 0.0
C429 C 0.48081 0.10347 0.61244 0.0
C430 C 0.45785 0.11639 0.60702 0.0
C431 C 0.43095 0.099 0.61091 0.0
C432 C 0.42764 0.06791 0.61917 0.0
C433 C 0.4504 0.05508 0.6244 0.0
C434 C 0.59101 0.0586 0.68537 0.0
C435 C 0.59265 0.13438 0.63349 0.0
O436 O 0.6528 0.0893 0.63867 0.0
O437 O 0.6412 0.06015 0.58695 0.0
O438 O 0.5686 0.06926 0.58681 0.0
O439 O 0.59725 0.07309 0.55717 0.0
O440 O 0.59527 1.01768 0.6097 0.0
O441 O 0.548 1.0115 0.60991 0.0
O442 O 0.50864 0.04163 0.60768 0.0
O443 O 0.52261 0.07829 0.65503 0.0
O444 O 0.59357 0.06294 0.65554 0.0
O445 O 0.56477 0.0564 0.68451 0.0
O446 O 0.56697 0.11518 0.63203 0.0
O447 O 0.61373 0.12236 0.62891 0.0
H448 H 0.69136 0.07273 0.67689 0.0
H449 H 0.73021 0.04924 0.6881 0.0
H450 H 0.72105 1.01798 0.57959 0.0
H451 H 0.68176 0.03997 0.56876 0.0
H452 H 0.50138 0.11775 0.6103 0.0
H453 H 0.46142 0.14044 0.60086 0.0
H454 H 0.40734 0.05332 0.62173 0.0
H455 H 0.4471 0.03143 0.63153 0.0
Tb456 Tb 0.29433 0.32011 0.84939 0.0
Tb457 Tb 0.35044 0.30412 0.86007 0.0
C458 C 0.24491 0.32228 0.8501 0.0
C459 C 0.22275 0.31613 0.87034 0.0
C460 C 0.20642 0.28414 0.86998 0.0
C461 C 0.18298 0.27877 0.88499 0.0
C462 C 0.1749 0.30524 0.9004 0.0
C463 C 0.19184 0.33724 0.90159 0.0
C464 C 0.2154 0.34256 0.88681 0.0
C465 C 0.33722 0.3642 0.83858 0.0
C466 C 0.33288 0.33294 0.92449 0.0
C467 C 0.39956 0.30024 0.86282 0.0
C468 C 0.42298 0.30189 0.84539 0.0
C469 C 0.42647 0.31883 0.81881 0.0
C470 C 0.45063 0.32179 0.80518 0.0
C471 C 0.47171 0.30813 0.8182 0.0
C472 C 0.46777 0.29134 0.84493 0.0
C473 C 0.44364 0.28805 0.85805 0.0
C474 C 0.30745 0.26085 0.87231 0.0
C475 C 0.31415 0.29388 0.78459 0.0
O476 O 0.25088 0.29688 0.83496 0.0
O477 O 0.2674 0.34754 0.8624 0.0
O478 O 0.33794 0.34732 0.86109 0.0
O479 O 0.31127 0.35897 0.82312 0.0
O480 O 0.30722 0.32698 0.90538 0.0
O481 O 0.3543 0.32939 0.91127 0.0
O482 O 0.39378 0.32758 0.87204 0.0
O483 O 0.37699 0.27487 0.85203 0.0
O484 O 0.30675 0.27691 0.84903 0.0
O485 O 0.33337 0.26666 0.888 0.0
O486 O 0.33907 0.29855 0.80473 0.0
O487 O 0.29218 0.29783 0.7967 0.0
H488 H 0.21117 0.26312 0.85722 0.0
H489 H 0.17099 0.25376 0.88406 0.0
H490 H 0.18633 0.35836 0.91272 0.0
H491 H 0.22727 0.3675 0.88714 0.0
H492 H 0.41078 0.32998 0.80891 0.0
H493 H 0.45268 0.33464 0.78444 0.0
H494 H 0.48364 0.28128 0.8565 0.0
H495 H 0.44148 0.27532 0.87891 0.0
Tb496 Tb 0.07179 0.10534 0.61259 0.0
Tb497 Tb 0.07827 0.0351 0.59763 0.0
C498 C 0.08364 0.1658 0.62511 0.0
C499 C 0.08064 0.18729 0.60209 0.0
C500 C 0.09791 0.21956 0.61044 0.0
C501 C 0.09447 0.24033 0.58834 0.0
C502 C 0.07357 0.22872 0.55811 0.0
C503 C 0.05686 0.19597 0.54942 0.0
C504 C 0.06055 0.17523 0.57125 0.0
C505 C 1.02651 0.06155 0.62153 0.0
C506 C 0.05391 0.06484 0.53602 0.0
C507 C 0.06595 0.97471 0.58745 0.0
C508 C 0.05867 0.95463 0.61168 0.0
C509 C 0.05298 0.96931 0.64187 0.0
C510 C 0.05721 0.95674 0.67102 0.0
C511 C 0.06732 0.9297 0.66987 0.0
C512 C 0.07042 0.91317 0.63901 0.0
C513 C 0.06606 0.92568 0.6098 0.0
C514 C 0.12429 0.07882 0.59 0.0
C515 C 0.09368 0.07482 0.67417 0.0
O516 O 0.1024 0.15058 0.62084 0.0
O517 O 0.05965 0.14655 0.62784 0.0
O518 O 0.04837 0.05695 0.61295 0.0
O519 O 0.0297 0.09253 0.62418 0.0
O520 O 0.05745 0.0934 0.55657 0.0
O521 O 0.05971 0.03966 0.5472 0.0
O522 O 0.04777 0.98992 0.57721 0.0
O523 O 0.092 0.99388 0.59709 0.0
O524 O 0.10223 0.0836 0.59795 0.0
O525 O 0.12041 0.04766 0.58642 0.0
O526 O 0.08808 0.04601 0.65344 0.0
O527 O 0.09142 0.10136 0.66304 0.0
H528 H 0.11373 0.22867 0.63405 0.0
H529 H 0.10783 0.26549 0.59503 0.0
H530 H 0.04039 0.18668 0.5264 0.0
H531 H 0.04721 0.15007 0.56448 0.0
H532 H 0.04826 0.99238 0.64402 0.0
H533 H 0.05506 0.96971 0.69492 0.0
H534 H 0.07824 0.89208 0.63818 0.0
H535 H 0.07122 0.91476 0.58689 0.0
Tb536 Tb 0.31874 0.76757 0.84829 0.0
Tb537 Tb 0.32652 0.83905 0.8419 0.0
C538 C 0.31005 0.70739 0.83238 0.0
C539 C 0.32808 0.68659 0.82619 0.0
C540 C 0.33949 0.68573 0.79712 0.0
C541 C 0.35783 0.66749 0.79234 0.0
C542 C 0.36457 0.64909 0.81618 0.0
C543 C 0.35323 0.6498 0.84538 0.0
C544 C 0.33507 0.66846 0.85034 0.0
C545 C 0.30939 0.80425 0.89899 0.0
C546 C 0.37887 0.81855 0.87778 0.0
C547 C 0.33249 0.89864 0.85769 0.0
C548 C 0.31212 0.91716 0.85922 0.0
C549 C 0.3123 0.93614 0.89043 0.0
C550 C 0.29366 0.95473 0.89206 0.0
C551 C 0.27476 0.9546 0.8624 0.0
C552 C 0.27363 0.9343 0.83155 0.0
C553 C 0.29212 0.91564 0.82995 0.0
C554 C 0.33879 0.80202 0.79264 0.0
C555 C 0.26546 0.7901 0.81555 0.0
O556 O 0.30596 0.72551 0.80988 0.0
O557 O 0.31489 0.72322 0.864 0.0
O558 O 0.3044 0.80579 0.86819 0.0
O559 O 0.31905 0.77956 0.90211 0.0
O560 O 0.36468 0.78701 0.86627 0.0
O561 O 0.36677 0.84192 0.87421 0.0
O562 O 0.33364 0.88015 0.88033 0.0
O563 O 0.33316 0.88414 0.82721 0.0
O564 O 0.34113 0.80089 0.82328 0.0
O565 O 0.3316 0.82818 0.78874 0.0
O566 O 0.28165 0.82079 0.82161 0.0
O567 O 0.2756 0.76596 0.82309 0.0
H568 H 0.33471 0.6997 0.77844 0.0
H569 H 0.36701 0.66788 0.7702 0.0
H570 H 0.35796 0.6355 0.86403 0.0
H571 H 0.32655 0.66878 0.87306 0.0
H572 H 0.3272 0.93707 0.91341 0.0
H573 H 0.29487 0.9702 0.91616 0.0
H574 H 0.25879 0.93334 0.80851 0.0
H575 H 0.29096 0.9005 0.80569 0.0
Tb576 Tb 0.53201 0.07508 0.08717 0.0
Tb577 Tb 0.58371 0.0796 0.14112 0.0
C578 C 0.48853 0.04558 0.04283 0.0
C579 C 0.45824 0.03156 0.03655 0.0
C580 C 0.44637 1.00106 1.01435 0.0
C581 C 0.4178 0.98527 1.00895 0.0
C582 C 0.40076 0.99991 0.02567 0.0
C583 C 0.41253 0.0309 0.0474 0.0
C584 C 0.44133 0.04666 0.05304 0.0
C585 C 0.55704 0.1327 0.1254 0.0
C586 C 0.52483 0.07122 0.16689 0.0
C587 C 0.62834 0.10482 0.18476 0.0
C588 C 0.65841 0.11146 0.1882 0.0
C589 C 0.67587 0.13957 0.21132 0.0
C590 C 0.70463 0.14874 0.21323 0.0
C591 C 0.71614 0.12985 0.19194 0.0
C592 C 0.69875 0.10095 0.16955 0.0
C593 C 0.66979 0.09185 0.16748 0.0
C594 C 0.55964 1.02206 0.10105 0.0
C595 C 0.59152 0.08842 0.06298 0.0
O596 O 0.50299 0.0308 0.0615 0.0
O597 O 0.49911 0.07768 0.04974 0.0
O598 O 0.55447 0.10525 0.13286 0.0
O599 O 0.54218 0.12863 0.09458 0.0
O600 O 0.51236 0.06932 0.13404 0.0
O601 O 0.55246 0.07472 0.17464 0.0
O602 O 0.61684 0.12134 0.16503 0.0
O603 O 0.61348 0.07399 0.18028 0.0
O604 O 0.56197 0.04979 0.09446 0.0
O605 O 0.57371 0.02602 0.13216 0.0
O606 O 0.60355 0.08845 0.09538 0.0
O607 O 0.56376 0.08406 0.05454 0.0
H608 H 0.45936 0.98916 1.00164 0.0
H609 H 0.40904 0.96147 0.99197 0.0
H610 H 0.39964 0.04235 0.06077 0.0
H611 H 0.45041 0.07012 0.07057 0.0
H612 H 0.66715 0.1549 0.22724 0.0
H613 H 0.71784 0.17098 0.23085 0.0
H614 H 0.7074 0.08628 0.15283 0.0
H615 H 0.65628 0.07019 0.14924 0.0
Tb616 Tb 0.29184 0.30312 0.33601 0.0
Tb617 Tb 0.34751 0.34214 0.36458 0.0
C618 C 0.24268 0.26558 0.32542 0.0
C619 C 0.21782 0.27491 0.33169 0.0
C620 C 0.22162 0.30458 0.35385 0.0
C621 C 0.19881 0.3155 0.35848 0.0
C622 C 0.17118 0.29586 0.34302 0.0
C623 C 0.16735 0.26558 0.32123 0.0
C624 C 0.19058 0.25552 0.3151 0.0
C625 C 0.31575 0.33301 0.29226 0.0
C626 C 0.29884 0.38048 0.35717 0.0
C627 C 0.39743 0.37773 0.37826 0.0
C628 C 0.42317 0.36766 0.37754 0.0
C629 C 0.43767 0.37442 0.3517 0.0
C630 C 0.45955 0.36129 0.34722 0.0
C631 C 0.46786 0.34149 0.3689 0.0
C632 C 0.45367 0.33517 0.39524 0.0
C633 C 0.43145 0.34796 0.39941 0.0
C634 C 0.32331 0.31074 0.40832 0.0
C635 C 0.34162 0.2662 0.33754 0.0
O636 O 0.26191 0.2692 0.35286 0.0
O637 O 0.25354 0.27758 0.30142 0.0
O638 O 0.32725 0.3191 0.31328 0.0
O639 O 0.28992 0.32929 0.29452 0.0
O640 O 0.28112 0.3502 0.34996 0.0
O641 O 0.32645 0.38309 0.36255 0.0
O642 O 0.38051 0.37222 0.34844 0.0
O643 O 0.38374 0.36969 0.40181 0.0
O644 O 0.31195 0.32547 0.38787 0.0
O645 O 0.34884 0.31427 0.40492 0.0
O646 O 0.35924 0.29642 0.34873 0.0
O647 O 0.31389 0.26308 0.33109 0.0
H648 H 0.24227 0.31932 0.3681 0.0
H649 H 0.20314 0.33936 0.37453 0.0
H650 H 0.14654 0.24925 0.30929 0.0
H651 H 0.18726 0.23249 0.2979 0.0
H652 H 0.43138 0.38897 0.33408 0.0
H653 H 0.46942 0.36602 0.3261 0.0
H654 H 0.45964 0.32028 0.41261 0.0
H655 H 0.42043 0.34179 0.41929 0.0
Tb656 Tb 0.57235 0.60315 0.11659 0.0
Tb657 Tb 0.58308 0.54201 0.10339 0.0
C658 C 0.57726 0.66178 0.11982 0.0
C659 C 0.55899 0.67636 0.10006 0.0
C660 C 0.55431 0.66998 0.06433 0.0
C661 C 0.5392 0.68656 0.04598 0.0
C662 C 0.52843 0.70942 0.06318 0.0
C663 C 0.52976 0.71215 0.0983 0.0
C664 C 0.54547 0.6961 0.1168 0.0
C665 C 0.52489 0.5603 0.12023 0.0
C666 C 0.55133 0.56033 0.04157 0.0
C667 C 0.58968 0.48703 0.10085 0.0
C668 C 0.58739 0.46755 0.12636 0.0
C669 C 0.57291 0.47461 0.15172 0.0
C670 C 0.57591 0.4616 0.18067 0.0
C671 C 0.59302 0.44112 0.18399 0.0
C672 C 0.60627 0.43277 0.15767 0.0
C673 C 0.60369 0.4463 0.12902 0.0
C674 C 0.62168 0.5905 0.08988 0.0
C675 C 0.59354 0.57873 0.18043 0.0
O676 O 0.5912 0.64637 0.10243 0.0
O677 O 0.56597 0.64567 0.14125 0.0
O678 O 0.54667 0.55341 0.11392 0.0
O679 O 0.52901 0.59132 0.1228 0.0
O680 O 0.55829 0.59005 0.06061 0.0
O681 O 0.55563 0.53585 0.05486 0.0
O682 O 0.56604 0.49146 0.0868 0.0
O683 O 0.61059 0.51411 0.11086 0.0
O684 O 0.61093 0.59131 0.11586 0.0
O685 O 0.61012 0.56195 0.07054 0.0
O686 O 0.58921 0.55066 0.15926 0.0
O687 O 0.59124 0.60476 0.1688 0.0
H688 H 0.56363 0.65375 0.05059 0.0
H689 H 0.53864 0.68396 0.01894 0.0
H690 H 0.52114 0.72928 0.11189 0.0
H691 H 0.54811 0.70025 0.14426 0.0
H692 H 0.56016 0.4911 0.14974 0.0
H693 H 0.56536 0.46796 0.20062 0.0
H694 H 0.61879 0.41599 0.15935 0.0
H695 H 0.6151 0.44113 0.1096 0.0
Tb696 Tb 0.80771 0.26582 0.33792 0.0
Tb697 Tb 0.81809 0.33884 0.33917 0.0
C698 C 0.8064 0.20746 0.33263 0.0
C699 C 0.82504 0.18811 0.32495 0.0
C700 C 0.82273 0.17285 0.29135 0.0
C701 C 0.84017 0.15401 0.28425 0.0
C702 C 0.85997 0.14977 0.31052 0.0
C703 C 0.86207 0.1649 0.34427 0.0
C704 C 0.84476 0.18396 0.35142 0.0
C705 C 0.79197 0.29666 0.38769 0.0
C706 C 0.8686 0.31557 0.36542 0.0
C707 C 0.82155 0.39802 0.34896 0.0
C708 C 0.80421 0.41835 0.35731 0.0
C709 C 0.77703 0.4048 0.36222 0.0
C710 C 0.75979 0.42476 0.3667 0.0
C711 C 0.76977 0.458 0.36574 0.0
C712 C 0.7974 0.47151 0.36223 0.0
C713 C 0.81454 0.4517 0.358 0.0
C714 C 0.83491 0.30816 0.28948 0.0
C715 C 0.75623 0.29049 0.31597 0.0
O716 O 0.79478 0.21879 0.30751 0.0
O717 O 0.81556 0.22893 0.36151 0.0
O718 O 0.81273 0.30832 0.37523 0.0
O719 O 0.78219 0.26575 0.37525 0.0
O720 O 0.85353 0.28529 0.35012 0.0
O721 O 0.85738 0.33967 0.36968 0.0
O722 O 0.83028 0.38383 0.37311 0.0
O723 O 0.81244 0.37855 0.31882 0.0
O724 O 0.81378 0.29641 0.3016 0.0
O725 O 0.84469 0.33903 0.30266 0.0
O726 O 0.77293 0.32067 0.32779 0.0
O727 O 0.76573 0.26471 0.31267 0.0
H728 H 0.80747 0.1754 0.27056 0.0
H729 H 0.83782 0.14238 0.25819 0.0
H730 H 0.87638 0.16126 0.36534 0.0
H731 H 0.84655 0.19496 0.37776 0.0
H732 H 0.7689 0.37885 0.36142 0.0
H733 H 0.73844 0.41408 0.36926 0.0
H734 H 0.8054 0.49725 0.36175 0.0
H735 H 0.83554 0.46219 0.35415 0.0
Tb736 Tb 0.03794 0.58048 0.59823 0.0
Tb737 Tb 0.09145 0.59714 0.65151 0.0
C738 C 0.99258 0.55266 0.55613 0.0
C739 C 0.96528 0.52893 0.55377 0.0
C740 C 0.96074 0.49552 0.54078 0.0
C741 C 0.93398 0.47343 0.53511 0.0
C742 C 0.91149 0.48462 0.54204 0.0
C743 C 0.91619 0.51778 0.556 0.0
C744 C 0.94287 0.53982 0.56171 0.0
C745 C 0.06379 0.64357 0.62151 0.0
C746 C 0.03223 0.58426 0.67752 0.0
C747 C 0.13138 0.62423 0.70135 0.0
C748 C 0.16156 0.62961 0.70856 0.0
C749 C 0.17846 0.65349 0.73671 0.0
C750 C 0.20763 0.66162 0.74182 0.0
C751 C 0.22005 0.64597 0.71866 0.0
C752 C 0.20296 0.62106 0.69119 0.0
C753 C 0.17378 0.61299 0.68609 0.0
C754 C 0.07572 0.53775 0.61545 0.0
C755 C 0.09632 0.59482 0.5722 0.0
O756 O 1.01437 0.54138 0.55867 0.0
O757 O 0.99791 0.58148 0.57586 0.0
O758 O 0.0616 0.62054 0.63691 0.0
O759 O 0.04944 0.63121 0.59056 0.0
O760 O 1.01875 0.57807 0.64465 0.0
O761 O 0.06026 0.59083 0.68519 0.0
O762 O 0.12233 0.63986 0.67859 0.0
O763 O 0.11587 0.59366 0.69683 0.0
O764 O 0.05968 0.55323 0.62558 0.0
O765 O 0.10177 0.55451 0.62852 0.0
O766 O 0.10962 0.60627 0.60519 0.0
O767 O 0.06843 0.58175 0.5643 0.0
H768 H 0.97765 0.48656 0.5341 0.0
H769 H 0.93065 0.4479 0.52424 0.0
H770 H 0.89909 0.52674 0.56201 0.0
H771 H 0.94572 0.56546 0.57156 0.0
H772 H 0.16911 0.66658 0.75403 0.0
H773 H 0.22047 0.68088 0.76317 0.0
H774 H 0.21209 0.60912 0.67267 0.0
H775 H 0.16078 0.59472 0.66399 0.0
Tb776 Tb 0.79085 0.82473 0.35288 0.0
Tb777 Tb 0.84689 0.80888 0.36365 0.0
C778 C 0.74163 0.82777 0.35345 0.0
C779 C 0.71987 0.82456 0.37419 0.0
C780 C 0.71131 0.79716 0.38889 0.0
C781 C 0.68811 0.79297 0.40439 0.0
C782 C 0.67293 0.81609 0.40561 0.0
C783 C 0.68233 0.84402 0.39192 0.0
C784 C 0.70539 0.84809 0.37635 0.0
C785 C 0.83369 0.8685 0.34141 0.0
C786 C 0.82983 0.83836 0.42783 0.0
C787 C 0.89582 0.80477 0.36577 0.0
C788 C 0.91843 0.80679 0.3471 0.0
C789 C 0.91998 0.82265 0.31949 0.0
C790 C 0.94326 0.82576 0.30422 0.0
C791 C 0.96532 0.81327 0.31658 0.0
C792 C 0.96335 0.79757 0.34437 0.0
C793 C 0.94011 0.79417 0.35918 0.0
C794 C 0.80424 0.76578 0.37657 0.0
C795 C 0.81061 0.79785 0.28833 0.0
O796 O 0.74743 0.80117 0.34125 0.0
O797 O 0.76412 0.85328 0.36342 0.0
O798 O 0.83445 0.85205 0.36431 0.0
O799 O 0.80774 0.86276 0.32563 0.0
O800 O 0.80412 0.83255 0.40893 0.0
O801 O 0.85111 0.83465 0.41451 0.0
O802 O 0.89024 0.83208 0.37581 0.0
O803 O 0.87317 0.77951 0.35499 0.0
O804 O 0.80322 0.78146 0.35296 0.0
O805 O 0.83023 0.77187 0.3921 0.0
O806 O 0.83559 0.80329 0.30853 0.0
O807 O 0.7885 0.80159 0.30028 0.0
H808 H 0.72204 0.77856 0.38764 0.0
H809 H 0.68157 0.77105 0.41446 0.0
H810 H 0.67179 0.8628 0.39304 0.0
H811 H 0.71151 0.86941 0.3652 0.0
H812 H 0.90342 0.83279 0.31002 0.0
H813 H 0.94387 0.83776 0.28273 0.0
H814 H 0.98009 0.78843 0.35536 0.0
H815 H 0.93938 0.78224 0.38076 0.0
Tb816 Tb 0.83396 0.31094 0.84009 0.0
Tb817 Tb 0.8225 0.33781 0.89477 0.0
C818 C 0.83967 0.29473 0.78073 0.0
C819 C 0.82449 0.30338 0.75194 0.0
C820 C 0.80589 0.32126 0.75852 0.0
C821 C 0.78882 0.32793 0.73212 0.0
C822 C 0.79053 0.31738 0.69858 0.0
C823 C 0.80916 0.29934 0.69176 0.0
C824 C 0.82609 0.29212 0.71858 0.0
C825 C 0.87158 0.30557 0.89241 0.0
C826 C 0.85367 0.39004 0.85956 0.0
C827 C 0.81485 0.35569 0.9528 0.0
C828 C 0.82245 0.3432 0.98264 0.0
C829 C 0.83992 0.32292 0.98145 0.0
C830 C 0.84775 0.31052 1.00961 0.0
C831 C 0.83783 0.31791 0.03907 0.0
C832 C 0.82023 0.33818 0.04018 0.0
C833 C 0.81256 0.3509 1.01185 0.0
C834 C 0.78518 0.34109 0.84091 0.0
C835 C 0.80067 0.25924 0.87507 0.0
O836 O 0.82295 0.27552 0.79513 0.0
O837 O 0.85758 0.31959 0.80281 0.0
O838 O 0.863 0.33053 0.89028 0.0
O839 O 0.85913 0.28405 0.86511 0.0
O840 O 0.84486 0.364 0.83409 0.0
O841 O 0.85046 0.38442 0.88967 0.0
O842 O 0.83651 0.37052 0.94169 0.0
O843 O 0.79539 0.33448 0.92865 0.0
O844 O 0.79359 0.31662 0.84535 0.0
O845 O 0.79794 0.36434 0.86677 0.0
O846 O 0.80967 0.28513 0.90068 0.0
O847 O 0.80491 0.26461 0.84509 0.0
H848 H 0.80416 0.32949 0.78418 0.0
H849 H 0.77428 0.34136 0.73796 0.0
H850 H 0.81091 0.29131 0.6659 0.0
H851 H 0.84015 0.27785 0.7134 0.0
H852 H 0.84772 0.31697 0.95882 0.0
H853 H 0.86182 0.2955 1.00845 0.0
H854 H 0.81229 0.34391 0.06273 0.0
H855 H 0.79899 0.36654 1.01265 0.0
Tb856 Tb 0.7935 0.80036 0.83569 0.0
Tb857 Tb 0.84856 0.84314 0.87115 0.0
C858 C 0.7417 0.77259 0.82557 0.0
C859 C 0.71842 0.78482 0.83351 0.0
C860 C 0.70135 0.7686 0.8532 0.0
C861 C 0.68156 0.78171 0.86517 0.0
C862 C 0.6784 0.81136 0.85766 0.0
C863 C 0.69489 0.82724 0.83708 0.0
C864 C 0.71491 0.81416 0.82522 0.0
C865 C 0.82373 0.82765 0.79522 0.0
C866 C 0.80038 0.87957 0.8612 0.0
C867 C 0.90069 0.87173 0.88277 0.0
C868 C 0.92609 0.86094 0.8831 0.0
C869 C 0.95035 0.88215 0.87746 0.0
C870 C 0.97317 0.87092 0.87224 0.0
C871 C 0.97195 0.83788 0.87158 0.0
C872 C 0.94785 0.81698 0.87855 0.0
C873 C 0.92538 0.8286 0.88474 0.0
C874 C 0.81796 0.81704 0.91248 0.0
C875 C 0.84114 0.76389 0.84074 0.0
O876 O 0.75992 0.77216 0.8524 0.0
O877 O 0.75386 0.7835 0.80185 0.0
O878 O 0.82201 0.84069 0.82426 0.0
O879 O 0.80689 0.79781 0.78695 0.0
O880 O 0.7835 0.84848 0.85175 0.0
O881 O 0.82823 0.88391 0.86855 0.0
O882 O 0.88377 0.86477 0.85277 0.0
O883 O 0.88697 0.86586 0.90685 0.0
O884 O 0.8199 0.80296 0.88374 0.0
O885 O 0.83428 0.84711 0.91922 0.0
O886 O 0.85772 0.79434 0.85588 0.0
O887 O 0.81361 0.75976 0.8302 0.0
H888 H 0.70394 0.74622 0.86024 0.0
H889 H 0.66893 0.7688 0.88075 0.0
H890 H 0.69305 0.85032 0.83127 0.0
H891 H 0.72815 0.82751 0.8105 0.0
H892 H 0.95137 0.90726 0.87619 0.0
H893 H 0.99158 0.88819 0.86815 0.0
H894 H 0.94581 0.79138 0.87814 0.0
H895 H 0.90713 0.81213 0.8899 0.0
Tb896 Tb 0.56253 0.54876 0.59602 0.0
Tb897 Tb 0.61216 0.5882 0.64439 0.0
C898 C 0.51188 0.52524 0.56587 0.0
C899 C 0.48964 0.53643 0.57786 0.0
C900 C 0.49436 0.54959 0.6127 0.0
C901 C 0.47615 0.56461 0.62524 0.0
C902 C 0.45295 0.56746 0.60299 0.0
C903 C 0.44817 0.55487 0.56787 0.0
C904 C 0.46648 0.5392 0.55529 0.0
C905 C 0.60621 0.56198 0.56649 0.0
C906 C 0.57582 0.62714 0.61108 0.0
C907 C 0.66115 0.6163 0.67889 0.0
C908 C 0.68682 0.60747 0.67554 0.0
C909 C 0.69971 0.61578 0.6487 0.0
C910 C 0.71499 0.5967 0.63525 0.0
C911 C 0.71833 0.57009 0.64934 0.0
C912 C 0.70932 0.56489 0.6793 0.0
C913 C 0.69368 0.58373 0.69255 0.0
C914 C 0.56733 0.57512 0.67207 0.0
C915 C 0.60109 0.51085 0.62953 0.0
O916 O 0.52463 0.51066 0.58648 0.0
O917 O 0.52978 0.54745 0.55572 0.0
O918 O 0.60085 0.58087 0.58959 0.0
O919 O 0.58667 0.53416 0.55996 0.0
O920 O 0.55584 0.5984 0.60315 0.0
O921 O 0.60152 0.62863 0.62569 0.0
O922 O 0.64966 0.62606 0.65271 0.0
O923 O 0.64238 0.59513 0.68928 0.0
O924 O 0.5736 0.55624 0.65016 0.0
O925 O 0.58684 0.60284 0.67922 0.0
O926 O 0.62067 0.53982 0.63643 0.0
O927 O 0.57478 0.50872 0.61573 0.0
H928 H 0.51298 0.54963 0.63014 0.0
H929 H 0.48093 0.57522 0.65225 0.0
H930 H 0.43057 0.55749 0.55031 0.0
H931 H 0.46315 0.53028 0.52813 0.0
H932 H 0.69529 0.63444 0.63552 0.0
H933 H 0.72212 0.60094 0.61218 0.0
H934 H 0.71185 0.54426 0.69031 0.0
H935 H 0.68436 0.57719 0.71361 0.0
Tb936 Tb 0.11025 0.57743 0.11747 0.0
Tb937 Tb 0.05164 0.56934 0.13729 0.0
C938 C 0.16145 0.58182 0.12103 0.0
C939 C 0.18288 0.56506 0.13037 0.0
C940 C 0.20898 0.58343 0.15161 0.0
C941 C 0.23139 0.57003 0.15638 0.0
C942 C 0.22827 0.53773 0.1401 0.0
C943 C 0.2016 0.51883 0.12006 0.0
C944 C 0.1792 0.53234 0.11516 0.0
C945 C 0.07127 0.57776 0.06247 0.0
C946 C 0.06791 0.5056 0.11027 0.0
C947 C 1.00104 0.56596 0.13801 0.0
C948 C 0.97716 0.57887 0.12732 0.0
C949 C 0.98086 0.61033 0.12004 0.0
C950 C 0.95773 0.62281 0.11414 0.0
C951 C 0.93051 0.60418 0.11568 0.0
C952 C 0.92704 0.57238 0.12197 0.0
C953 C 0.95001 0.56 0.12773 0.0
C954 C 0.09097 0.56549 0.19135 0.0
C955 C 0.09106 0.64107 0.13645 0.0
O956 O 0.15231 0.59633 0.14556 0.0
O957 O 0.14143 0.56712 0.09388 0.0
O958 O 0.06831 0.57558 0.09273 0.0
O959 O 0.09753 0.58007 0.06339 0.0
O960 O 0.0941 0.52415 0.11276 0.0
O961 O 0.04741 0.51815 0.11625 0.0
O962 O 1.00842 0.54734 0.11486 0.0
O963 O 1.02272 0.5857 0.16097 0.0
O964 O 0.09345 0.56986 0.16154 0.0
O965 O 0.06481 0.56351 0.19071 0.0
O966 O 0.06581 0.62149 0.13615 0.0
O967 O 0.11254 0.62951 0.13253 0.0
H968 H 0.21243 0.60876 0.16343 0.0
H969 H 0.25151 0.58564 0.1717 0.0
H970 H 0.19803 0.49366 0.10772 0.0
H971 H 0.15929 0.51743 0.09866 0.0
H972 H 1.00166 0.6255 0.11978 0.0
H973 H 0.96135 0.64743 0.10952 0.0
H974 H 0.90649 0.55693 0.12269 0.0
H975 H 0.94661 0.53575 0.13341 0.0
C976 C 0.0528 0.21584 0.08737 0.0
C977 C 0.03692 0.21125 0.05395 0.0
H978 H 0.07152 0.19383 0.12585 0.0
C979 C 1.02653 0.17888 0.03458 0.0
H980 H 0.06163 0.24026 0.10301 0.0
C981 C 0.03158 0.15219 0.04796 0.0
C982 C 0.04782 0.15671 0.08105 0.0
H983 H 1.01452 0.1741 1.00865 0.0
H984 H 1.02369 0.12805 0.03168 0.0
C985 C 0.05852 0.1891 0.10048 0.0
C986 C 0.22015 0.87556 0.27617 0.0
C987 C 0.19486 0.85076 0.27315 0.0
H988 H 0.26487 0.89355 0.29707 0.0
C989 C 0.19628 0.82334 0.28761 0.0
H990 H 0.21996 0.89683 0.2652 0.0
C991 C 0.22214 0.82082 0.30459 0.0
C992 C 0.24726 0.84607 0.30846 0.0
H993 H 0.17733 0.80348 0.28541 0.0
H994 H 0.22233 0.7996 0.31567 0.0
C995 C 0.24589 0.87353 0.29423 0.0
C996 C 0.53026 0.90862 0.56885 0.0
C997 C 0.55211 0.89392 0.5726 0.0
H998 H 0.51818 0.95266 0.5768 0.0
C999 C 0.57931 0.91377 0.58972 0.0
H1000 H 0.50914 0.89416 0.5553 0.0
C1001 C 0.58469 0.9477 0.6013 0.0
C1002 C 0.56291 0.96254 0.59662 0.0
H1003 H 0.59675 0.90348 0.5923 0.0
H1004 H 0.60609 0.96244 0.61324 0.0
C1005 C 0.53548 0.94228 0.58105 0.0
C1006 C 0.53631 0.28968 0.79372 0.0
C1007 C 0.54909 0.31782 0.78225 0.0
H1008 H 0.5016 0.26377 0.81205 0.0
C1009 C 0.53583 0.34257 0.78163 0.0
H1010 H 0.54561 0.26982 0.79395 0.0
C1011 C 0.51064 0.33949 0.79295 0.0
C1012 C 0.49791 0.31132 0.80464 0.0
H1013 H 0.54506 0.36447 0.77271 0.0
H1014 H 0.5015 0.35948 0.79308 0.0
C1015 C 0.51098 0.28631 0.80433 0.0
C1016 C 0.06964 0.88999 0.74445 0.0
C1017 C 0.09762 0.88902 0.74947 0.0
H1018 H 0.03771 0.90402 0.71375 0.0
C1019 C 0.11675 0.90787 0.7337 0.0
H1020 H 0.05456 0.87542 0.75638 0.0
C1021 C 0.10706 0.92391 0.70948 0.0
C1022 C 0.07833 0.92111 0.70122 0.0
H1023 H 0.13846 0.90755 0.73756 0.0
H1024 H 0.12144 0.93614 0.6952 0.0
C1025 C 0.05993 0.906 0.72005 0.0
C1026 C 0.45439 0.81728 0.90265 0.0
C1027 C 0.46904 0.84748 0.89617 0.0
H1028 H 0.41396 0.7841 0.90168 0.0
C1029 C 0.45392 0.86823 0.88506 0.0
H1030 H 0.46566 0.80097 0.91161 0.0
C1031 C 0.42477 0.85917 0.88061 0.0
C1032 C 0.40991 0.82877 0.88645 0.0
H1033 H 0.46467 0.89185 0.8804 0.0
H1034 H 0.41386 0.87582 0.8717 0.0
C1035 C 0.42494 0.80775 0.8973 0.0
C1036 C 0.56914 0.17958 0.21374 0.0
C1037 C 0.56064 0.20695 0.20832 0.0
H1038 H 0.57692 0.13644 0.19179 0.0
C1039 C 0.55286 0.21144 0.17487 0.0
H1040 H 0.5762 0.17604 0.23921 0.0
C1041 C 0.55281 0.18803 0.1471 0.0
C1042 C 0.5613 0.16064 0.15285 0.0
H1043 H 0.54692 0.23296 0.17027 0.0
H1044 H 0.54575 0.19102 0.12143 0.0
C1045 C 0.57005 0.15713 0.18639 0.0
C1046 C 0.09736 0.30425 0.33643 0.0
C1047 C 0.10043 0.32501 0.36769 0.0
H1048 H 0.11741 0.28022 0.30311 0.0
C1049 C 0.12675 0.33693 0.3903 0.0
H1050 H 0.07704 0.29442 0.31881 0.0
C1051 C 0.1495 0.32732 0.38236 0.0
C1052 C 0.14679 0.30655 0.35093 0.0
H1053 H 0.1294 0.35215 0.41506 0.0
H1054 H 0.16885 0.33542 0.40168 0.0
C1055 C 0.12045 0.29564 0.3278 0.0
C1056 C 1.00222 1.02362 0.20006 0.0
C1057 C 1.01175 0.03899 0.23478 0.0
H1058 H 1.00735 1.02405 0.14886 0.0
C1059 C 0.03477 0.06757 0.24416 0.0
H1060 H 0.98425 1.00179 0.19195 0.0
C1061 C 0.0474 0.08095 0.21915 0.0
C1062 C 0.03755 0.06568 0.18439 0.0
H1063 H 0.04218 0.08035 0.27055 0.0
H1064 H 0.06497 0.10317 0.22706 0.0
C1065 C 1.01519 0.03655 0.17527 0.0
C1066 C 0.34565 0.81007 0.61307 0.0
C1067 C 0.3457 0.77731 0.60791 0.0
H1068 H 0.33632 0.84811 0.58995 0.0
C1069 C 0.33353 0.75643 0.57601 0.0
H1070 H 0.35471 0.82652 0.63765 0.0
C1071 C 0.3225 0.76863 0.54905 0.0
C1072 C 0.32377 0.80178 0.55387 0.0
H1073 H 0.33286 0.73089 0.57173 0.0
H1074 H 0.31379 0.75251 0.52422 0.0
C1075 C 0.33483 0.82231 0.58605 0.0
C1076 C 0.65508 0.04768 0.74873 0.0
C1077 C 0.64657 0.05034 0.78047 0.0
H1078 H 0.64556 0.04842 0.69455 0.0
C1079 C 0.62018 0.05615 0.77948 0.0
H1080 H 0.67526 0.04374 0.74771 0.0
C1081 C 0.60322 0.05879 0.74896 0.0
C1082 C 0.61156 0.05643 0.71731 0.0
H1083 H 0.61239 0.0588 0.80264 0.0
H1084 H 0.58319 0.06302 0.75038 0.0
C1085 C 0.63805 0.05079 0.71792 0.0
C1086 C 0.36782 0.35106 0.01813 0.0
C1087 C 0.35079 0.36719 0.03332 0.0
H1088 H 0.37564 0.32796 0.97205 0.0
C1089 C 0.32712 0.37108 1.01246 0.0
H1090 H 0.38635 0.3479 0.03336 0.0
C1091 C 0.32073 0.35921 0.97711 0.0
C1092 C 0.33822 0.34383 0.96194 0.0
H1093 H 0.31369 0.38354 0.02341 0.0
H1094 H 0.30257 0.36285 0.96159 0.0
C1095 C 0.36175 0.33978 0.98289 0.0
C1096 C 0.03648 0.02636 0.44161 0.0
C1097 C 1.02206 0.04612 0.42652 0.0
H1098 H 0.0575 1.01664 0.48717 0.0
C1099 C 1.0188 0.07315 0.44781 0.0
H1100 H 0.03929 1.00521 0.42628 0.0
C1101 C 0.02957 0.08002 0.48333 0.0
C1102 C 0.04347 0.0597 0.49835 0.0
H1103 H 1.00767 0.08881 0.43706 0.0
H1104 H 1.02648 0.10074 0.49905 0.0
C1105 C 0.04685 0.03291 0.47684 0.0
C1106 C 0.38786 0.75431 0.77404 0.0
C1107 C 0.40021 0.76907 0.74975 0.0
H1108 H 0.35856 0.75322 0.80569 0.0
C1109 C 0.39196 0.79534 0.73921 0.0
H1110 H 0.39387 0.73442 0.78332 0.0
C1111 C 0.37024 0.805 0.75092 0.0
C1112 C 0.35746 0.78925 0.77436 0.0
H1113 H 0.40195 0.80787 0.72138 0.0
H1114 H 0.36418 0.82528 0.74261 0.0
C1115 C 0.36688 0.76438 0.78612 0.0
C1116 C 0.64672 0.07659 1.00786 0.0
C1117 C 0.63759 0.08601 0.97689 0.0
H1118 H 0.64086 0.0707 0.05847 0.0
C1119 C 0.61339 0.09707 0.97548 0.0
H1120 H 0.66504 0.06787 1.01079 0.0
C1121 C 0.59897 0.09802 1.00294 0.0
C1122 C 0.60833 0.08904 0.03409 0.0
H1123 H 0.6051 0.10452 0.95263 0.0
H1124 H 0.58026 0.10601 0.99966 0.0
C1125 C 0.63276 0.07844 0.03573 0.0
C1126 C 0.32991 0.39539 0.23679 0.0
C1127 C 0.34937 0.38611 0.21953 0.0
H1128 H 0.30411 0.38564 0.27294 0.0
C1129 C 0.35907 0.35994 0.22781 0.0
H1130 H 0.32186 0.41527 0.23098 0.0
C1131 C 0.34934 0.3434 0.25276 0.0
C1132 C 0.32909 0.35209 0.26891 0.0
H1133 H 0.3741 0.35227 0.215 0.0
H1134 H 0.35682 0.32312 0.25847 0.0
C1135 C 0.31967 0.37835 0.2608 0.0
C1136 C 0.19618 1.00816 0.08358 0.0
C1137 C 0.22424 1.01029 0.08309 0.0
H1138 H 0.16829 0.03033 0.10493 0.0
C1139 C 0.24613 0.03707 0.10368 0.0
H1140 H 0.17897 0.98778 0.06794 0.0
C1141 C 0.23999 0.06088 0.12548 0.0
C1142 C 0.21201 0.05779 0.12697 0.0
H1143 H 0.26801 0.03925 0.10356 0.0
H1144 H 0.25695 0.08124 0.14155 0.0
C1145 C 0.19011 0.03196 0.10524 0.0
C1146 C 0.69641 0.61171 0.07579 0.0
C1147 C 0.70381 0.64584 0.07886 0.0
H1148 H 0.66475 0.56777 0.0767 0.0
C1149 C 0.68429 0.66206 0.08745 0.0
H1150 H 0.71101 0.59847 0.06978 0.0
C1151 C 0.65806 0.64453 0.0927 0.0
C1152 C 0.65044 0.61029 0.08856 0.0
H1153 H 0.68953 0.68845 0.09083 0.0
H1154 H 0.64358 0.65773 0.09915 0.0
C1155 C 0.66995 0.59416 0.08003 0.0
C1156 C 0.72215 0.50551 0.39325 0.0
C1157 C 0.72123 0.52424 0.36797 0.0
H1158 H 0.73857 0.46907 0.41222 0.0
C1159 C 0.73419 0.51876 0.34063 0.0
H1160 H 0.71216 0.50927 0.41445 0.0
C1161 C 0.74895 0.49602 0.33938 0.0
C1162 C 0.75108 0.47852 0.36547 0.0
H1163 H 0.73353 0.53254 0.32051 0.0
H1164 H 0.75935 0.4927 0.31845 0.0
C1165 C 0.73704 0.48258 0.39195 0.0
C1166 C 0.84921 0.41356 0.54111 0.0
C1167 C 0.82709 0.42426 0.52584 0.0
H1168 H 0.89391 0.42484 0.55839 0.0
C1169 C 0.83315 0.45279 0.51247 0.0
H1170 H 0.84502 0.3916 0.55154 0.0
C1171 C 0.86081 0.47163 0.51649 0.0
C1172 C 0.88283 0.4622 0.53385 0.0
H1173 H 0.8165 0.46142 0.50018 0.0
H1174 H 0.86496 0.49416 0.50701 0.0
C1175 C 0.87705 0.43249 0.54505 0.0
C1176 C 0.35027 0.17731 0.30836 0.0
C1177 C 0.37804 0.17939 0.32557 0.0
H1178 H 0.31707 0.20054 0.29855 0.0
C1179 C 0.39306 0.21071 0.34654 0.0
H1180 H 0.33728 0.15434 0.2919 0.0
C1181 C 0.38152 0.23789 0.34972 0.0
C1182 C 0.35371 0.23584 0.33296 0.0
H1183 H 0.41431 0.21456 0.36054 0.0
H1184 H 0.39468 0.26086 0.36605 0.0
C1185 C 0.3384 0.20436 0.31228 0.0
C1186 C 0.36353 0.11918 0.62451 0.0
C1187 C 0.35873 0.13746 0.59946 0.0
H1188 H 0.38988 0.09367 0.64828 0.0
C1189 C 0.37832 0.14364 0.57853 0.0
H1190 H 0.34924 0.11421 0.64147 0.0
C1191 C 0.40183 0.13164 0.58237 0.0
C1192 C 0.40643 0.11298 0.60719 0.0
H1193 H 0.37553 0.15784 0.55915 0.0
H1194 H 0.41614 0.13654 0.56544 0.0
C1195 C 0.38694 0.10722 0.62833 0.0
C1196 C 0.76233 0.70189 0.41705 0.0
C1197 C 0.73526 0.69404 0.39645 0.0
H1198 H 0.80535 0.73159 0.42731 0.0
C1199 C 0.7307 0.71046 0.36979 0.0
H1200 H 0.76644 0.68859 0.43692 0.0
C1201 C 0.75311 0.73388 0.36325 0.0
C1202 C 0.78022 0.74198 0.38393 0.0
H1203 H 0.71019 0.70367 0.35269 0.0
H1204 H 0.74941 0.74459 0.34122 0.0
C1205 C 0.78456 0.7261 0.4112 0.0
C1206 C 0.87622 0.46834 0.82023 0.0
C1207 C 0.88838 0.49408 0.84936 0.0
H1208 H 0.85632 0.41627 0.79994 0.0
C1209 C 0.88849 0.48467 0.8812 0.0
H1210 H 0.87645 0.47376 0.79513 0.0
C1211 C 0.87699 0.45167 0.88401 0.0
C1212 C 0.86535 0.4257 0.85513 0.0
H1213 H 0.89823 0.50302 0.9044 0.0
H1214 H 0.87792 0.44644 0.90932 0.0
C1215 C 0.86499 0.43494 0.82304 0.0
C1216 C 0.13103 0.95948 0.15139 0.0
C1217 C 0.10976 0.93169 0.15404 0.0
H1218 H 0.14152 1.0081 0.1406 0.0
C1219 C 0.0817 0.93253 0.14536 0.0
H1220 H 0.15293 0.9602 0.15802 0.0
C1221 C 0.07516 0.95959 0.13389 0.0
C1222 C 0.09642 0.98768 0.13178 0.0
H1223 H 0.0646 0.91191 0.14694 0.0
H1224 H 0.05322 0.95872 0.12727 0.0
C1225 C 0.12451 0.98714 0.14123 0.0
C1226 C 0.93889 0.28093 0.91603 0.0
C1227 C 0.95038 0.29736 0.95012 0.0
H1228 H 0.90565 0.27056 0.87181 0.0
C1229 C 0.93618 0.31813 0.96494 0.0
H1230 H 0.949 0.26488 0.90348 0.0
C1231 C 0.91128 0.32208 0.9463 0.0
C1232 C 0.89946 0.30484 0.91248 0.0
H1233 H 0.9444 0.3315 0.99103 0.0
H1234 H 0.90093 0.33797 0.95863 0.0
C1235 C 0.91383 0.28431 0.89778 0.0
C1236 C 0.5797 0.21685 0.65871 0.0
C1237 C 0.60548 0.23981 0.65923 0.0
H1238 H 0.5555 0.16664 0.65029 0.0
C1239 C 0.627 0.22785 0.64943 0.0
H1240 H 0.56287 0.22503 0.66683 0.0
C1241 C 0.62301 0.19376 0.64051 0.0
C1242 C 0.59731 0.17083 0.64091 0.0
H1243 H 0.64743 0.24475 0.65063 0.0
H1244 H 0.64028 0.18541 0.63416 0.0
C1245 C 0.5756 0.18312 0.64949 0.0
C1246 C 0.60061 0.81762 0.42182 0.0
C1247 C 0.59959 0.80393 0.45098 0.0
H1248 H 0.62406 0.83176 0.38445 0.0
C1249 C 0.62257 0.79334 0.46437 0.0
H1250 H 0.5835 0.82622 0.41085 0.0
C1251 C 0.64603 0.79692 0.44955 0.0
C1252 C 0.64736 0.8112 0.42078 0.0
H1253 H 0.62275 0.78275 0.48688 0.0
H1254 H 0.66347 0.78925 0.4613 0.0
C1255 C 0.62414 0.82117 0.40693 0.0
C1256 C 0.05984 0.30267 0.53104 0.0
C1257 C 0.05417 0.29275 0.4955 0.0
H1258 H 0.0701 0.28948 0.57891 0.0
C1259 C 0.05549 0.26194 0.48062 0.0
H1260 H 0.05888 0.32633 0.54306 0.0
C1261 C 0.0625 0.24128 0.5011 0.0
C1262 C 0.06794 0.25112 0.53659 0.0
H1263 H 0.05136 0.25385 0.45322 0.0
H1264 H 0.06367 0.21766 0.48923 0.0
C1265 C 0.06654 0.28183 0.5515 0.0
C1266 C 0.68066 0.25678 0.32275 0.0
C1267 C 0.67187 0.28494 0.3225 0.0
H1268 H 0.7145 0.23584 0.31939 0.0
C1269 C 0.69038 0.31369 0.318 0.0
H1270 H 0.66633 0.23407 0.32512 0.0
C1271 C 0.71696 0.3143 0.31317 0.0
C1272 C 0.7261 0.2864 0.31356 0.0
H1273 H 0.6839 0.33557 0.31698 0.0
H1274 H 0.73057 0.33703 0.30973 0.0
C1275 C 0.70773 0.25747 0.31823 0.0
C1276 C 0.56828 0.94468 0.05497 0.0
C1277 C 0.562 0.94797 0.02076 0.0
H1278 H 0.57169 0.96521 0.10735 0.0
C1279 C 0.55294 0.97449 1.01325 0.0
H1280 H 0.57504 0.92421 0.06159 0.0
C1281 C 0.55062 0.99758 0.03951 0.0
C1282 C 0.55748 0.99465 0.07373 0.0
H1283 H 0.54753 0.97736 0.98718 0.0
H1284 H 0.5442 1.01824 0.03297 0.0
C1285 C 0.56602 0.96783 0.08123 0.0
C1286 C 1.02344 0.78728 0.86639 0.0
C1287 C 0.0388 0.80102 0.84372 0.0
H1288 H 0.99106 0.78858 0.89393 0.0
C1289 C 0.03216 0.82694 0.83048 0.0
H1290 H 1.02794 0.76716 0.87683 0.0
C1291 C 1.01053 0.8386 0.83938 0.0
C1292 C 0.99521 0.82522 0.86242 0.0
H1293 H 0.04316 0.83775 0.81238 0.0
H1294 H 1.00551 0.8577 0.82746 0.0
C1295 C 1.00206 0.7994 0.87587 0.0
C1296 C 0.12622 0.06464 0.97832 0.0
C1297 C 0.12829 0.09593 0.97117 0.0
H1298 H 0.11307 0.03067 1.01019 0.0
C1299 C 0.11965 0.11789 0.99313 0.0
H1300 H 0.13254 0.04703 0.96198 0.0
C1301 C 0.10913 0.10876 0.02128 0.0
C1302 C 0.10641 0.07715 0.02787 0.0
H1303 H 0.12097 0.14222 0.98852 0.0
H1304 H 0.10225 0.12612 0.03724 0.0
C1305 C 0.11514 0.05527 1.00604 0.0
C1306 C 0.74625 0.31533 0.61387 0.0
C1307 C 0.74648 0.34819 0.61783 0.0
H1308 H 0.76054 0.27968 0.63697 0.0
C1309 C 0.75874 0.36976 0.64931 0.0
H1310 H 0.73729 0.29845 0.58954 0.0
C1311 C 0.77265 0.35939 0.67575 0.0
C1312 C 0.77393 0.32709 0.67127 0.0
H1313 H 0.75938 0.3953 0.65273 0.0
H1314 H 0.78356 0.37713 0.69911 0.0
C1315 C 0.76001 0.30481 0.6406 0.0
C1316 C 0.51338 0.08698 0.48863 0.0
C1317 C 0.51739 0.07162 0.45714 0.0
H1318 H 0.52559 0.09831 0.54407 0.0
C1319 C 0.5377 0.05452 0.4598 0.0
H1320 H 0.49796 0.10028 0.48834 0.0
C1321 C 0.5538 0.05382 0.49182 0.0
C1322 C 0.55 0.06917 0.52329 0.0
H1323 H 0.54176 0.04215 0.43685 0.0
H1324 H 0.56975 0.04127 0.49188 0.0
C1325 C 0.5291 0.08553 0.52096 0.0
C1326 C 0.82651 0.76088 0.20636 0.0
C1327 C 0.80479 0.76331 0.18131 0.0
H1328 H 0.84524 0.76972 0.25923 0.0
C1329 C 0.78494 0.77811 0.19147 0.0
H1330 H 0.84183 0.74915 0.19938 0.0
C1331 C 0.78645 0.78936 0.22626 0.0
C1332 C 0.80815 0.78653 0.25129 0.0
H1333 H 0.76754 0.77955 0.1727 0.0
H1334 H 0.77062 0.80004 0.23353 0.0
C1335 C 0.82832 0.77256 0.24077 0.0
C1336 C 0.1125 0.1086 0.77012 0.0
C1337 C 0.12185 0.08392 0.78264 0.0
H1338 H 0.09677 0.12546 0.726 0.0
C1339 C 0.12058 0.05569 0.75939 0.0
H1340 H 0.1138 0.13092 0.78731 0.0
C1341 C 0.11085 0.05245 0.72439 0.0
C1342 C 0.10258 0.07763 0.71158 0.0
H1343 H 0.12794 0.03639 0.76824 0.0
H1344 H 0.11065 0.03058 0.7073 0.0
C1345 C 0.10314 0.1056 0.73492 0.0
C1346 C 0.72864 0.31046 0.41553 0.0
C1347 C 0.74002 0.342 0.43536 0.0
H1348 H 0.73732 0.27066 0.38697 0.0
C1349 C 0.7665 0.36155 0.43296 0.0
H1350 H 0.70842 0.295 0.41744 0.0
C1351 C 0.7837 0.34736 0.41631 0.0
C1352 C 0.77376 0.31418 0.40089 0.0
H1353 H 0.77572 0.38599 0.44856 0.0
H1354 H 0.80527 0.36142 0.41805 0.0
C1355 C 0.74566 0.29635 0.39904 0.0
C1356 C 0.51 0.07863 0.25949 0.0
C1357 C 0.48337 0.08444 0.25677 0.0
H1358 H 0.54318 0.07018 0.23538 0.0
C1359 C 0.47014 0.08502 0.22307 0.0
H1360 H 0.52145 0.07768 0.28419 0.0
C1361 C 0.48271 0.08002 0.19419 0.0
C1362 C 0.50943 0.07432 0.19712 0.0
H1363 H 0.44968 0.08908 0.21877 0.0
H1364 H 0.47147 0.08105 0.16942 0.0
C1365 C 0.52263 0.07402 0.23085 0.0
C1366 C 0.80097 0.75181 0.96637 0.0
C1367 C 0.79286 0.76842 0.99368 0.0
H1368 H 0.8143 0.75356 0.91887 0.0
C1369 C 0.79228 0.80074 0.99323 0.0
H1370 H 0.80162 0.72691 0.96572 0.0
C1371 C 0.80027 0.81629 0.96687 0.0
C1372 C 0.8082 0.79968 0.9395 0.0
H1373 H 0.78627 0.81439 1.01379 0.0
H1374 H 0.80019 0.84142 0.96786 0.0
C1375 C 0.8081 0.76705 0.93938 0.0
C1376 C 0.92193 0.14172 0.12849 0.0
C1377 C 0.92374 0.13591 0.16175 0.0
H1378 H 0.92627 0.12523 0.07789 0.0
C1379 C 0.93237 0.10925 0.16986 0.0
H1380 H 0.91508 0.16203 0.12156 0.0
C1381 C 0.93873 0.08838 0.14507 0.0
C1382 C 0.93627 0.09351 0.11152 0.0
H1383 H 0.93407 0.10431 0.19535 0.0
H1384 H 0.94593 0.06842 0.15238 0.0
C1385 C 0.92815 0.12061 0.1035 0.0
C1386 C 0.46921 0.48377 0.12834 0.0
C1387 C 0.44807 0.49698 0.13757 0.0
H1388 H 0.51 0.49305 0.1156 0.0
C1389 C 0.45282 0.53093 0.14118 0.0
H1390 H 0.46634 0.45771 0.12523 0.0
C1391 C 0.47766 0.55097 0.13534 0.0
C1392 C 0.49868 0.53783 0.12588 0.0
H1393 H 0.43715 0.54208 0.14807 0.0
H1394 H 0.48035 0.57698 0.13824 0.0
C1395 C 0.49425 0.50396 0.12267 0.0
C1396 C 0.39334 0.58739 0.77109 0.0
C1397 C 0.41377 0.58475 0.79774 0.0
H1398 H 0.36145 0.60964 0.7563 0.0
C1399 C 0.41897 0.60463 0.83014 0.0
H1400 H 0.3889 0.57234 0.74582 0.0
C1401 C 0.40335 0.62619 0.83605 0.0
C1402 C 0.38236 0.62805 0.80965 0.0
H1403 H 0.43462 0.60303 0.8511 0.0
H1404 H 0.40749 0.64118 0.86129 0.0
C1405 C 0.37773 0.60884 0.77701 0.0
C1406 C 0.29427 0.64885 0.71255 0.0
C1407 C 0.30626 0.68254 0.71503 0.0
H1408 H 0.25707 0.61065 0.71203 0.0
C1409 C 0.29055 0.70416 0.72175 0.0
H1410 H 0.3061 0.63177 0.70753 0.0
C1411 C 0.26287 0.6922 0.72458 0.0
C1412 C 0.25039 0.65841 0.72052 0.0
H1413 H 0.2995 0.73032 0.72428 0.0
H1414 H 0.25087 0.70932 0.72844 0.0
C1415 C 0.26636 0.63681 0.71507 0.0
C1416 C 0.78963 0.96662 0.85189 0.0
C1417 C 0.76244 0.96524 0.85838 0.0
H1418 H 0.82278 0.94336 0.84864 0.0
C1419 C 0.74846 0.93496 0.86638 0.0
H1420 H 0.80185 0.98871 0.84565 0.0
C1421 C 0.76035 0.90803 0.86707 0.0
C1422 C 0.78768 0.90954 0.86112 0.0
H1423 H 0.72765 0.93164 0.87157 0.0
H1424 H 0.74793 0.88576 0.87277 0.0
C1425 C 0.80196 0.94007 0.85379 0.0
C1426 C 0.7801 0.98151 0.62366 0.0
C1427 C 0.80329 0.99816 0.65064 0.0
H1428 H 0.73839 0.97798 0.59824 0.0
C1429 C 0.80168 1.02549 0.67293 0.0
H1430 H 0.78045 0.96017 0.60621 0.0
C1431 C 0.77763 0.03613 0.66808 0.0
C1432 C 0.75436 1.01955 0.64098 0.0
H1433 H 0.81912 0.03887 0.69408 0.0
H1434 H 0.77758 0.05779 0.68527 0.0
C1435 C 0.75594 0.99191 0.61902 0.0
C1436 C 0.41131 0.41882 0.84573 0.0
C1437 C 0.40759 0.43237 0.81656 0.0
H1438 H 0.39162 0.38708 0.87612 0.0
C1439 C 0.38087 0.42205 0.79427 0.0
H1440 H 0.43148 0.42655 0.86364 0.0
C1441 C 0.35828 0.39956 0.80139 0.0
C1442 C 0.36179 0.38671 0.83087 0.0
H1443 H 0.37707 0.43207 0.77167 0.0
H1444 H 0.3379 0.39262 0.78398 0.0
C1445 C 0.38853 0.3962 0.85286 0.0
C1446 C 0.25494 0.69027 0.40604 0.0
C1447 C 0.25564 0.66173 0.38417 0.0
H1448 H 0.26599 0.74324 0.41884 0.0
C1449 C 0.26934 0.6675 0.35703 0.0
H1450 H 0.24441 0.68768 0.42698 0.0
C1451 C 0.28111 0.69978 0.35173 0.0
C1452 C 0.28045 0.72828 0.37366 0.0
H1453 H 0.27011 0.64687 0.3389 0.0
H1454 H 0.29075 0.70236 0.33006 0.0
C1455 C 0.26737 0.72259 0.40125 0.0
C1456 C 0.54218 0.6863 0.56933 0.0
C1457 C 0.56443 0.71598 0.57838 0.0
H1458 H 0.52786 0.63536 0.57245 0.0
C1459 C 0.58977 0.71608 0.59932 0.0
H1460 H 0.5224 0.68495 0.55303 0.0
C1461 C 0.59285 0.68768 0.61051 0.0
C1462 C 0.57077 0.65785 0.60123 0.0
H1463 H 0.60754 0.73812 0.6068 0.0
H1464 H 0.61296 0.68911 0.62613 0.0
C1465 C 0.54528 0.65772 0.58057 0.0
C1466 C 0.73027 0.36914 0.78585 0.0
C1467 C 0.70526 0.3437 0.78225 0.0
H1468 H 0.77484 0.38837 0.80767 0.0
C1469 C 0.70716 0.31645 0.79678 0.0
H1470 H 0.72976 0.39036 0.77491 0.0
C1471 C 0.73318 0.31468 0.81431 0.0
C1472 C 0.758 0.34057 0.81876 0.0
H1473 H 0.68846 0.29613 0.79422 0.0
H1474 H 0.73371 0.29351 0.82534 0.0
C1475 C 0.75614 0.36788 0.80447 0.0
C1476 C 0.03079 0.41354 0.09571 0.0
C1477 C 0.04857 0.39968 0.07909 0.0
H1478 H 1.02252 0.45736 0.11799 0.0
C1479 C 0.07294 0.42107 0.07339 0.0
H1480 H 1.01164 0.39796 0.10021 0.0
C1481 C 0.07939 0.45521 0.08403 0.0
C1482 C 0.06137 0.46911 0.10007 0.0
H1483 H 0.08702 0.41142 0.06048 0.0
H1484 H 0.0983 0.47077 0.07899 0.0
C1485 C 0.03695 0.44772 0.10574 0.0
C1486 C 0.02858 0.79542 0.28799 0.0
C1487 C 0.04023 0.82345 0.27568 0.0
H1488 H 0.99539 0.76946 0.30865 0.0
C1489 C 1.02655 0.84784 0.27572 0.0
H1490 H 0.03825 0.77585 0.28778 0.0
C1491 C 1.00207 0.84455 0.28857 0.0
C1492 C 0.99053 0.81654 0.3012 0.0
H1493 H 0.03495 0.86964 0.2662 0.0
H1494 H 0.99256 0.86425 0.28922 0.0
C1495 C 1.00395 0.79184 0.30017 0.0
C1496 C 0.62308 0.40014 0.24768 0.0
C1497 C 0.59817 0.38112 0.25409 0.0
H1498 H 0.64097 0.43611 0.22082 0.0
C1499 C 0.57262 0.38761 0.24417 0.0
H1500 H 0.64293 0.39519 0.25548 0.0
C1501 C 0.57132 0.41017 0.2236 0.0
C1502 C 0.5957 0.42635 0.21364 0.0
H1503 H 0.55324 0.37267 0.24885 0.0
H1504 H 0.5509 0.41231 0.21272 0.0
C1505 C 0.62191 0.42317 0.22782 0.0
C1506 C 0.9441 0.36295 0.40386 0.0
C1507 C 0.95804 0.34183 0.39016 0.0
H1508 H 0.90468 0.37092 0.40703 0.0
C1509 C 0.94249 0.31197 0.36803 0.0
H1510 H 0.95575 0.386 0.4212 0.0
C1511 C 0.9132 0.30293 0.36055 0.0
C1512 C 0.89926 0.3239 0.3747 0.0
H1513 H 0.95288 0.29506 0.35765 0.0
H1514 H 0.90154 0.27965 0.34369 0.0
C1515 C 0.91492 0.35416 0.39601 0.0
C1516 C 0.04613 0.69743 0.68836 0.0
C1517 C 0.06994 0.72482 0.6958 0.0
H1518 H 1.02471 0.65043 0.65658 0.0
C1519 C 0.08866 0.72807 0.67359 0.0
H1520 H 0.03143 0.69449 0.70506 0.0
C1521 C 0.08515 0.70258 0.64624 0.0
C1522 C 0.06245 0.67426 0.6404 0.0
H1523 H 0.10733 0.74901 0.67906 0.0
H1524 H 0.10127 0.7039 0.63153 0.0
C1525 C 0.04219 0.6725 0.66049 0.0
C1526 C 0.61997 0.84982 0.86757 0.0
C1527 C 0.61919 0.84945 0.90185 0.0
H1528 H 0.63958 0.83793 0.82645 0.0
C1529 C 0.63902 0.83829 0.92165 0.0
H1530 H 0.6049 0.85817 0.85173 0.0
C1531 C 0.65856 0.8268 0.90733 0.0
C1532 C 0.65882 0.82607 0.87284 0.0
H1533 H 0.63922 0.83778 0.94824 0.0
H1534 H 0.67334 0.81812 0.92327 0.0
C1535 C 0.63977 0.8383 0.85317 0.0
C1536 C 0.51676 0.51956 0.71257 0.0
C1537 C 0.5218 0.5382 0.74559 0.0
H1538 H 0.52804 0.51596 0.66406 0.0
C1539 C 0.54224 0.56899 0.75467 0.0
H1540 H 0.50077 0.49595 0.70484 0.0
C1541 C 0.55671 0.58137 0.73061 0.0
C1542 C 0.55145 0.56279 0.69737 0.0
H1543 H 0.54604 0.58409 0.77978 0.0
H1544 H 0.57201 0.60545 0.73806 0.0
C1545 C 0.53196 0.53133 0.68904 0.0
C1546 C 0.85761 0.26026 0.09141 0.0
C1547 C 0.86741 0.28063 0.12389 0.0
H1548 H 0.83933 0.25596 0.03912 0.0
C1549 C 0.86603 0.31289 0.12879 0.0
H1550 H 0.85765 0.23495 0.08721 0.0
C1551 C 0.85579 0.32499 0.10116 0.0
C1552 C 0.84649 0.30473 0.06862 0.0
H1553 H 0.87307 0.32879 0.15382 0.0
H1554 H 0.85573 0.3503 0.10509 0.0
C1555 C 0.847 0.27217 0.06399 0.0
C1556 C 0.15461 0.55276 0.25356 0.0
C1557 C 0.14611 0.55486 0.28531 0.0
H1558 H 0.14529 0.55483 0.19973 0.0
C1559 C 0.11992 0.56105 0.28477 0.0
H1560 H 0.1747 0.54864 0.25227 0.0
C1561 C 0.1031 0.56452 0.2546 0.0
C1562 C 0.11142 0.56266 0.22294 0.0
H1563 H 0.11221 0.56338 0.30801 0.0
H1564 H 0.08319 0.56897 0.25629 0.0
C1565 C 0.13776 0.55672 0.22312 0.0
C1566 C 0.82599 0.87713 0.51629 0.0
C1567 C 0.84926 0.87183 0.53652 0.0
H1568 H 0.80122 0.87022 0.46577 0.0
C1569 C 0.86519 0.85444 0.5208 0.0
H1570 H 0.81341 0.89057 0.52774 0.0
C1571 C 0.85853 0.84337 0.48558 0.0
C1572 C 0.83548 0.84891 0.46523 0.0
H1573 H 0.88337 0.85014 0.53557 0.0
H1574 H 0.8716 0.83054 0.47428 0.0
C1575 C 0.81898 0.86546 0.48091 0.0
C1576 C 0.53408 0.51979 0.94814 0.0
C1577 C 0.52234 0.54121 0.93217 0.0
H1578 H 0.55186 0.50876 0.99476 0.0
C1579 C 0.52027 0.56944 0.95256 0.0
H1580 H 0.53589 0.49772 0.93335 0.0
C1581 C 0.52976 0.57603 0.98817 0.0
C1582 C 0.54097 0.55416 1.00405 0.0
H1583 H 0.51125 0.58638 0.94102 0.0
H1584 H 0.52799 0.59795 1.00326 0.0
C1585 C 0.54304 0.52602 0.98353 0.0
C1586 C 0.90062 0.29372 0.26752 0.0
C1587 C 0.89521 0.26017 0.26673 0.0
H1588 H 0.88539 0.33522 0.27516 0.0
C1589 C 0.86871 0.24191 0.27023 0.0
H1590 H 0.92061 0.3081 0.26383 0.0
C1591 C 0.84791 0.2569 0.27439 0.0
C1592 C 0.85386 0.2907 0.2774 0.0
H1593 H 0.86377 0.21579 0.26836 0.0
H1594 H 0.82746 0.24226 0.27581 0.0
C1595 C 0.88024 0.30897 0.27328 0.0
C1596 C 0.15253 0.58774 0.5167 0.0
C1597 C 0.14042 0.59188 0.48401 0.0
H1598 H 0.14966 0.58646 0.56927 0.0
C1599 C 0.11392 0.598 0.48164 0.0
H1600 H 0.17274 0.58303 0.5205 0.0
C1601 C 0.10014 0.59901 0.50972 0.0
C1602 C 0.11241 0.59536 0.54253 0.0
H1603 H 0.1033 0.6013 0.45754 0.0
H1604 H 0.0796 0.60291 0.50564 0.0
C1605 C 0.13919 0.58996 0.54519 0.0
C1606 C 0.84403 0.84999 0.71407 0.0
C1607 C 0.85263 0.88449 0.72243 0.0
H1608 H 0.82803 0.80499 0.73038 0.0
C1609 C 0.85217 0.89995 0.75523 0.0
H1610 H 0.84384 0.83723 0.68896 0.0
C1611 C 0.84341 0.88143 0.77901 0.0
C1612 C 0.83449 0.84697 0.77046 0.0
H1613 H 0.85849 0.92641 0.76257 0.0
H1614 H 0.84314 0.89418 0.80394 0.0
C1615 C 0.83491 0.83146 0.73775 0.0
C1616 C 0.75531 0.50909 0.62426 0.0
C1617 C 0.73753 0.49184 0.59269 0.0
H1618 H 0.76283 0.54788 0.66738 0.0
C1619 C 0.71397 0.50106 0.57957 0.0
H1620 H 0.7734 0.502 0.63511 0.0
C1621 C 0.70832 0.52744 0.5978 0.0
C1622 C 0.726 0.54442 0.62941 0.0
H1623 H 0.69992 0.48786 0.55543 0.0
H1624 H 0.68976 0.53408 0.58771 0.0
C1625 C 0.74939 0.53515 0.64272 0.0
C1626 C 0.20029 0.10842 0.58185 0.0
C1627 C 0.20361 0.13994 0.57514 0.0
H1628 H 0.1734 0.06557 0.59209 0.0
C1629 C 0.18018 0.15232 0.57425 0.0
H1630 H 0.21761 0.09794 0.58313 0.0
C1631 C 0.15431 0.1335 0.57992 0.0
C1632 C 0.15129 0.10184 0.58646 0.0
H1633 H 0.18196 0.17672 0.56967 0.0
H1634 H 0.13671 0.14347 0.57855 0.0
C1635 C 0.17473 0.08981 0.58723 0.0
C1636 C 0.24202 1.01869 0.83807 0.0
C1637 C 0.22771 1.02337 0.86427 0.0
H1638 H 0.26832 0.99341 0.81729 0.0
C1639 C 0.22853 1.00489 0.88976 0.0
H1640 H 0.24189 0.03272 0.81813 0.0
C1641 C 0.24363 0.98214 0.88912 0.0
C1642 C 0.25791 0.97757 0.86288 0.0
H1643 H 0.21775 1.00816 0.91028 0.0
H1644 H 0.24409 0.96809 0.90901 0.0
C1645 C 0.25699 0.99602 0.8374 0.0
C1646 C 0.33555 0.93242 0.02335 0.0
C1647 C 0.31461 0.94778 0.01642 0.0
H1648 H 0.37955 0.93729 0.03188 0.0
C1649 C 0.32201 0.98009 1.01129 0.0
H1650 H 0.33034 0.90755 0.02745 0.0
C1651 C 0.35013 0.99714 1.0141 0.0
C1652 C 0.37105 0.98191 0.02165 0.0
H1653 H 0.30622 0.99254 1.00613 0.0
H1654 H 0.35556 1.02218 1.01054 0.0
C1655 C 0.3636 0.94936 0.02582 0.0
C1656 C 0.85247 0.67685 0.80952 0.0
C1657 C 0.87839 0.67753 0.83067 0.0
H1658 H 0.82065 0.70109 0.79578 0.0
C1659 C 0.89138 0.70738 0.85508 0.0
H1660 H 0.84104 0.65505 0.79027 0.0
C1661 C 0.87969 0.73446 0.85791 0.0
C1662 C 0.85382 0.73392 0.83691 0.0
H1663 H 0.91108 0.71009 0.87234 0.0
H1664 H 0.891 0.75591 0.87747 0.0
C1665 C 0.8405 0.70383 0.81276 0.0
C1666 C 0.86211 0.62211 0.12777 0.0
C1667 C 0.85798 0.6416 0.10375 0.0
H1668 H 0.88808 0.59587 0.15086 0.0
C1669 C 0.87826 0.64924 0.08396 0.0
H1670 H 0.84722 0.61599 0.14381 0.0
C1671 C 0.90188 0.63752 0.08794 0.0
C1672 C 0.90583 0.61771 0.11175 0.0
H1673 H 0.87595 0.66441 0.06542 0.0
H1674 H 0.91682 0.64359 0.07196 0.0
C1675 C 0.88562 0.6104 0.13172 0.0
C1676 C 0.23332 0.20669 0.8645 0.0
C1677 C 0.2371 0.19053 0.89155 0.0
H1678 H 0.25303 0.24027 0.83604 0.0
C1679 C 0.26388 0.19829 0.91287 0.0
H1680 H 0.21308 0.19992 0.84684 0.0
C1681 C 0.2866 0.22205 0.90726 0.0
C1682 C 0.28301 0.23762 0.8796 0.0
H1683 H 0.26742 0.18514 0.93305 0.0
H1684 H 0.30716 0.22741 0.92385 0.0
C1685 C 0.25617 0.22976 0.85833 0.0
C1686 C 0.38522 0.98575 0.37398 0.0
C1687 C 0.38423 0.99661 0.34289 0.0
H1688 H 0.37371 0.9464 0.40024 0.0
C1689 C 0.36933 0.97268 0.31303 0.0
H1690 H 0.39689 1.00277 0.39753 0.0
C1691 C 0.35642 0.93932 0.31443 0.0
C1692 C 0.3577 0.92863 0.34579 0.0
H1693 H 0.36864 0.9794 0.28839 0.0
H1694 H 0.34559 0.92187 0.29089 0.0
C1695 C 0.37201 0.95292 0.37545 0.0
C1696 C 0.64166 0.45027 0.65487 0.0
C1697 C 0.6208 0.42504 0.66255 0.0
H1698 H 0.65237 0.49691 0.63944 0.0
C1699 C 0.59338 0.4283 0.65844 0.0
H1700 H 0.66306 0.44901 0.65776 0.0
C1701 C 0.58703 0.45537 0.64682 0.0
C1702 C 0.608 0.48094 0.63983 0.0
H1703 H 0.5766 0.40965 0.66391 0.0
H1704 H 0.56562 0.45661 0.6441 0.0
C1705 C 0.63551 0.47792 0.6443 0.0
C1706 C 0.43953 0.84412 0.4226 0.0
C1707 C 0.44543 0.81509 0.42885 0.0
H1708 H 0.40827 0.86651 0.40313 0.0
C1709 C 0.42291 0.78591 0.41989 0.0
H1710 H 0.45623 0.86715 0.42931 0.0
C1711 C 0.39561 0.78554 0.40459 0.0
C1712 C 0.38962 0.81444 0.39847 0.0
H1713 H 0.42647 0.76309 0.42422 0.0
H1714 H 0.37904 0.76238 0.39729 0.0
C1715 C 0.41194 0.84387 0.40794 0.0
C1716 C 0.07381 0.72211 0.15294 0.0
C1717 C 0.09923 0.74589 0.15389 0.0
H1718 H 0.05138 0.67163 0.14689 0.0
C1719 C 0.12213 0.73486 0.14732 0.0
H1720 H 0.05594 0.72956 0.15873 0.0
C1721 C 0.11974 0.70097 0.14108 0.0
C1722 C 0.09435 0.6773 0.14117 0.0
H1723 H 0.14235 0.75244 0.14908 0.0
H1724 H 0.13798 0.69344 0.13715 0.0
C1725 C 0.07135 0.68862 0.14652 0.0
C1726 C 0.12165 0.31641 0.95456 0.0
C1727 C 0.09778 0.28972 0.9386 0.0
H1728 H 0.16459 0.34181 0.95592 0.0
C1729 C 0.09958 0.268 0.91019 0.0
H1730 H 0.12117 0.33352 0.97664 0.0
C1731 C 0.12447 0.27292 0.89799 0.0
C1732 C 0.14845 0.29961 0.91396 0.0
H1733 H 0.0817 0.24709 0.89724 0.0
H1734 H 0.12464 0.25597 0.87562 0.0
C1735 C 0.14661 0.32125 0.94249 0.0
C1736 C 0.51888 0.75619 0.99464 0.0
C1737 C 0.53644 0.78706 1.01237 0.0
H1738 H 0.50143 0.70627 0.99777 0.0
C1739 C 0.5455 0.7935 0.04778 0.0
H1740 H 0.51162 0.75116 0.96719 0.0
C1741 C 0.53955 0.76837 0.06512 0.0
C1742 C 0.52459 0.73642 0.04714 0.0
H1743 H 0.55865 0.81754 0.06183 0.0
H1744 H 0.54928 0.77354 0.09202 0.0
C1745 C 0.51297 0.73076 1.01206 0.0
C1746 C 0.19005 0.76439 0.8259 0.0
C1747 C 0.18077 0.78977 0.81486 0.0
H1748 H 0.2245 0.74391 0.83418 0.0
C1749 C 0.19859 0.8122 0.80039 0.0
H1750 H 0.1766 0.74635 0.83645 0.0
C1751 C 0.22499 0.80989 0.7976 0.0
C1752 C 0.23496 0.7857 0.81005 0.0
H1753 H 0.19219 0.83174 0.79076 0.0
H1754 H 0.23819 0.82815 0.78699 0.0
C1755 C 0.21713 0.76251 0.82376 0.0
C1756 C 0.03335 0.46016 0.55217 0.0
C1757 C 0.05306 0.45569 0.53265 0.0
H1758 H 1.02503 0.49031 0.5938 0.0
C1759 C 0.07973 0.47881 0.54001 0.0
H1760 H 1.01256 0.44266 0.54688 0.0
C1761 C 0.08691 0.50549 0.56705 0.0
C1762 C 0.06738 0.50979 0.58677 0.0
H1763 H 0.09532 0.47585 0.52546 0.0
H1764 H 0.1078 0.52282 0.57249 0.0
C1765 C 0.0404 0.48728 0.57891 0.0
C1766 C 0.51074 0.28146 0.3616 0.0
C1767 C 0.53336 0.29904 0.34949 0.0
H1768 H 0.47191 0.28063 0.37642 0.0
C1769 C 0.53495 0.33108 0.34524 0.0
H1770 H 0.5088 0.25658 0.36468 0.0
C1771 C 0.51412 0.34506 0.3524 0.0
C1772 C 0.49094 0.3272 0.36353 0.0
H1773 H 0.55214 0.34534 0.33594 0.0
H1774 H 0.51617 0.36987 0.349 0.0
C1775 C 0.48965 0.29533 0.3684 0.0
C1776 C 0.63325 0.56314 0.48451 0.0
C1777 C 0.63438 0.59483 0.47913 0.0
H1778 H 0.62333 0.5279 0.51615 0.0
C1779 C 0.62769 0.61617 0.50392 0.0
H1780 H 0.63811 0.54599 0.46593 0.0
C1781 C 0.62002 0.6061 0.53315 0.0
C1782 C 0.61822 0.57413 0.53809 0.0
H1783 H 0.62836 0.64075 0.50073 0.0
H1784 H 0.61452 0.62305 0.5513 0.0
C1785 C 0.62492 0.5528 0.51337 0.0
C1786 C 0.2599 0.89487 0.14311 0.0
C1787 C 0.24201 0.87418 0.11326 0.0
H1788 H 0.28776 0.8983 0.19005 0.0
C1789 C 0.23654 0.84009 0.10901 0.0
H1790 H 0.26464 0.92125 0.14669 0.0
C1791 C 0.24993 0.82702 0.13372 0.0
C1792 C 0.26867 0.84792 0.16281 0.0
H1793 H 0.2232 0.8237 0.08587 0.0
H1794 H 0.24595 0.80072 0.12995 0.0
C1795 C 0.27323 0.88182 0.16769 0.0
C1796 C 0.03926 0.56021 0.96606 0.0
C1797 C 1.01829 0.57629 0.96294 0.0
H1798 H 0.07158 0.54819 0.99882 0.0
C1799 C 1.0133 0.59117 0.99397 0.0
H1800 H 0.04399 0.54825 0.94337 0.0
C1801 C 0.02885 0.59026 0.02652 0.0
C1802 C 0.0504 0.57492 0.02929 0.0
H1803 H 0.99729 0.60363 0.99315 0.0
H1804 H 1.02471 0.60264 0.0494 0.0
C1805 C 0.05511 0.55998 0.99826 0.0
C1806 C 0.32892 0.25897 0.70079 0.0
C1807 C 0.30606 0.26045 0.67666 0.0
H1808 H 0.34937 0.26834 0.75324 0.0
C1809 C 0.28612 0.27428 0.6881 0.0
H1810 H 0.3444 0.24803 0.69284 0.0
C1811 C 0.28857 0.28535 0.72314 0.0
C1812 C 0.31129 0.28331 0.74728 0.0
H1813 H 0.2679 0.27502 0.67015 0.0
H1814 H 0.27255 0.29512 0.73132 0.0
C1815 C 0.33164 0.27049 0.73551 0.0
C1816 C 0.61051 0.61216 0.27638 0.0
C1817 C 0.61954 0.58742 0.28916 0.0
H1818 H 0.59566 0.62916 0.23193 0.0
C1819 C 0.61836 0.55911 0.26609 0.0
H1820 H 0.61185 0.63457 0.29345 0.0
C1821 C 0.60919 0.55594 0.23099 0.0
C1822 C 0.60134 0.58123 0.21793 0.0
H1823 H 0.62557 0.53979 0.27516 0.0
H1824 H 0.60925 0.53413 0.21405 0.0
C1825 C 0.60165 0.60919 0.24108 0.0
C1826 C 0.2643 0.80132 0.96303 0.0
C1827 C 0.2491 0.82274 0.95365 0.0
H1828 H 0.29679 0.78009 0.95412 0.0
C1829 C 0.25341 0.83716 0.92562 0.0
H1830 H 0.26144 0.79006 0.98475 0.0
C1831 C 0.27422 0.83235 0.909 0.0
C1832 C 0.29046 0.81239 0.91961 0.0
H1833 H 0.24229 0.85411 0.91809 0.0
H1834 H 0.27766 0.8444 0.88791 0.0
C1835 C 0.28504 0.79636 0.94624 0.0
C1836 C 1.01553 0.58865 0.76912 0.0
C1837 C 0.98755 0.59072 0.76506 0.0
H1838 H 0.0509 0.58537 0.74672 0.0
C1839 C 0.97435 0.59014 0.73103 0.0
H1840 H 1.02702 0.5888 0.7942 0.0
C1841 C 0.98818 0.58745 0.70303 0.0
C1842 C 1.01623 0.58557 0.70726 0.0
H1843 H 0.95293 0.59136 0.72578 0.0
H1844 H 0.97679 0.5872 0.67786 0.0
C1845 C 0.02945 0.5865 0.74132 0.0
C1846 C 0.27807 0.28283 0.47226 0.0
C1847 C 0.29314 0.26414 0.48892 0.0
H1848 H 0.27509 0.31173 0.43345 0.0
C1849 C 0.31725 0.26049 0.47778 0.0
H1850 H 0.25933 0.2862 0.47994 0.0
C1851 C 0.32635 0.27536 0.45158 0.0
C1852 C 0.31159 0.29423 0.43506 0.0
H1853 H 0.32952 0.24645 0.4897 0.0
H1854 H 0.34526 0.27209 0.4443 0.0
C1855 C 0.28704 0.29746 0.4455 0.0
C1856 C 0.41609 0.60089 0.66539 0.0
C1857 C 0.41357 0.62916 0.65389 0.0
H1858 H 0.42989 0.55843 0.6573 0.0
C1859 C 0.42022 0.63445 0.62264 0.0
H1860 H 0.41072 0.596 0.68918 0.0
C1861 C 0.43122 0.6128 0.60435 0.0
C1862 C 0.43543 0.58573 0.61716 0.0
H1863 H 0.41829 0.65605 0.61321 0.0
H1864 H 0.43807 0.61834 0.58149 0.0
C1865 C 0.42686 0.5793 0.64711 0.0
C1866 C 0.97001 0.98399 0.62678 0.0
C1867 C 0.951 0.99758 0.64127 0.0
H1868 H 1.00809 0.99295 0.60791 0.0
C1869 C 0.95762 0.03182 0.64943 0.0
H1870 H 0.96555 0.95768 0.61981 0.0
C1871 C 0.98222 0.05182 0.64313 0.0
C1872 C 1.00115 0.03843 0.62839 0.0
H1873 H 0.94358 0.04335 0.6603 0.0
H1874 H 0.98628 0.07811 0.64967 0.0
C1875 C 0.99467 1.00419 0.6202 0.0
C1876 C 0.88079 0.07817 0.27064 0.0
C1877 C 0.90751 0.08358 0.29117 0.0
H1878 H 0.84431 0.09381 0.26165 0.0
C1879 C 0.9193 0.11166 0.31707 0.0
H1880 H 0.87112 0.05649 0.25063 0.0
C1881 C 0.90432 0.13397 0.3226 0.0
C1882 C 0.87702 0.12791 0.30293 0.0
H1883 H 0.94 0.11632 0.3331 0.0
H1884 H 0.91403 0.15573 0.34247 0.0
C1885 C 0.86551 0.09985 0.27676 0.0
C1886 C 0.79228 0.13437 0.19806 0.0
C1887 C 0.80382 0.16737 0.19669 0.0
H1888 H 0.75492 0.09645 0.19777 0.0
C1889 C 0.78602 0.18708 0.19166 0.0
H1890 H 0.80552 0.11856 0.20148 0.0
C1891 C 0.75737 0.17438 0.18925 0.0
C1892 C 0.74603 0.14185 0.19189 0.0
H1893 H 0.79421 0.21253 0.19023 0.0
H1894 H 0.74406 0.19014 0.18572 0.0
C1895 C 0.76346 0.12166 0.1957 0.0
C1896 C 0.24898 0.43817 0.36661 0.0
C1897 C 0.26257 0.46815 0.35773 0.0
H1898 H 0.2482 0.38883 0.37269 0.0
C1899 C 0.28905 0.46864 0.34925 0.0
H1900 H 0.22874 0.4354 0.37333 0.0
C1901 C 0.30101 0.4416 0.35006 0.0
C1902 C 0.28703 0.41135 0.35829 0.0
H1903 H 0.301 0.49041 0.3422 0.0
H1904 H 0.32124 0.44428 0.34335 0.0
C1905 C 0.26044 0.41079 0.36626 0.0
C1906 C 0.27943 0.49067 0.11809 0.0
C1907 C 0.30066 0.50062 0.14807 0.0
H1908 H 0.24053 0.49492 0.09166 0.0
C1909 C 0.29774 0.52247 0.17556 0.0
H1910 H 0.28098 0.47384 0.09643 0.0
C1911 C 0.27418 0.53402 0.17319 0.0
C1912 C 0.25297 0.52438 0.14308 0.0
H1913 H 0.31352 0.5304 0.19922 0.0
H1914 H 0.27254 0.55026 0.19523 0.0
C1915 C 0.25601 0.50254 0.11554 0.0
C1916 C 0.87706 0.92324 0.29425 0.0
C1917 C 0.90386 0.93452 0.31648 0.0
H1918 H 0.83417 0.89393 0.28498 0.0
C1919 C 0.9078 0.92244 0.34659 0.0
H1920 H 0.87306 0.93201 0.27087 0.0
C1921 C 0.88512 0.90041 0.35468 0.0
C1922 C 0.85826 0.89019 0.33279 0.0
H1923 H 0.92803 0.9309 0.36442 0.0
H1924 H 0.88835 0.89233 0.37857 0.0
C1925 C 0.8546 0.9015 0.30238 0.0
C1926 C 0.758 0.18549 0.9088 0.0
C1927 C 0.75817 0.15728 0.88598 0.0
H1928 H 0.77119 0.23841 0.92424 0.0
C1929 C 0.77321 0.16353 0.86007 0.0
H1930 H 0.74655 0.1825 0.92891 0.0
C1931 C 0.78671 0.19603 0.85673 0.0
C1932 C 0.78659 0.22419 0.87959 0.0
H1933 H 0.77374 0.14318 0.84138 0.0
H1934 H 0.79733 0.19907 0.8359 0.0
C1935 C 0.77221 0.21798 0.90605 0.0
loop_
_geom_bond_atom_site_label_1
_geom_bond_atom_site_label_2
_geom_bond_distance
_geom_bond_site_symmetry_2
_ccdc_geom_bond_type
O0 Cd1 2.223 1_655 S
O0 C8 1.315 . S
Cd1 O0 2.223 1_455 S
Cd1 O4 2.297 . S
Cd1 O5 2.439 . S
Cd1 O11 2.240 1_455 S
Cd2 O3 2.240 1_655 S
Cd2 O10 2.223 . S
Cd2 O12 2.297 . S
Cd2 O13 2.439 1_655 S
O3 Cd2 2.240 1_455 S
O3 C8 1.279 1_455 S
O4 Cd1 2.297 . S
O4 C6 1.247 . S
O5 Cd1 2.439 . S
O5 C6 1.208 . S
C6 O4 1.247 . S
C6 O5 1.208 . S
C7 O12 1.247 1_455 S
C7 O13 1.208 . S
C8 O0 1.315 . S
C8 O3 1.279 1_655 S
C9 O10 1.315 . S
C9 O11 1.279 . S
O10 Cd2 2.223 . S
O10 C9 1.315 . S
O11 Cd1 2.240 1_655 S
O11 C9 1.279 . S
O12 Cd2 2.297 . S
O12 C7 1.247 1_655 S
O13 Cd2 2.439 1_455 S
O13 C7 1.208 . S
O14 Cd15 2.223 . S
O14 C22 1.315 . S
Cd15 O14 2.223 . S
Cd15 O18 2.297 . S
Cd15 O19 2.439 . S
Cd15 O25 2.240 . S
Cd16 O17 2.240 . S
Cd16 O24 2.223 . S
Cd16 O26 2.297 . S
Cd16 O27 2.439 . S
O17 Cd16 2.240 . S
O17 C22 1.279 . S
O18 Cd15 2.297 . S
O18 C20 1.247 . S
O19 Cd15 2.439 . S
O19 C20 1.208 . S
C20 O18 1.247 . S
C20 O19 1.208 . S
C21 O26 1.247 . S
C21 O27 1.208 . S
C22 O14 1.315 . S
C22 O17 1.279 . S
C23 O24 1.315 . S
C23 O25 1.279 . S
O24 Cd16 2.223 . S
O24 C23 1.315 . S
O25 Cd15 2.240 . S
O25 C23 1.279 . S
O26 Cd16 2.297 . S
O26 C21 1.247 . S
O27 Cd16 2.439 . S
O27 C21 1.208 . S
O28 Cd29 2.223 . S
O28 C36 1.315 . S
Cd29 O28 2.223 . S
Cd29 O32 2.297 . S
Cd29 O33 2.439 . S
Cd29 O39 2.240 . S
Cd30 O31 2.240 . S
Cd30 O38 2.223 . S
Cd30 O40 2.297 . S
Cd30 O41 2.439 . S
O31 Cd30 2.240 . S
O31 C36 1.279 . S
O32 Cd29 2.297 . S
O32 C34 1.247 . S
O33 Cd29 2.439 . S
O33 C34 1.208 . S
C34 O32 1.247 . S
C34 O33 1.208 . S
C35 O40 1.247 . S
C35 O41 1.208 . S
C36 O28 1.315 . S
C36 O31 1.279 . S
C37 O38 1.315 . S
C37 O39 1.279 . S
O38 Cd30 2.223 . S
O38 C37 1.315 . S
O39 Cd29 2.240 . S
O39 C37 1.279 . S
O40 Cd30 2.297 . S
O40 C35 1.247 . S
O41 Cd30 2.439 . S
O41 C35 1.208 . S
O42 Cd43 2.223 . S
O42 C50 1.315 . S
Cd43 O42 2.223 . S
Cd43 O46 2.297 . S
Cd43 O47 2.439 . S
Cd43 O53 2.240 . S
Cd44 O45 2.240 . S
Cd44 O52 2.223 . S
Cd44 O54 2.297 . S
Cd44 O55 2.439 . S
O45 Cd44 2.240 . S
O45 C50 1.279 . S
O46 Cd43 2.297 . S
O46 C48 1.247 . S
O47 Cd43 2.439 . S
O47 C48 1.208 . S
C48 O46 1.247 . S
C48 O47 1.208 . S
C49 O54 1.247 . S
C49 O55 1.208 . S
C50 O42 1.315 . S
C50 O45 1.279 . S
C51 O52 1.315 . S
C51 O53 1.279 . S
O52 Cd44 2.223 . S
O52 C51 1.315 . S
O53 Cd43 2.240 . S
O53 C51 1.279 . S
O54 Cd44 2.297 . S
O54 C49 1.247 . S
O55 Cd44 2.439 . S
O55 C49 1.208 . S
O56 Cd57 2.223 . S
O56 C64 1.315 . S
Cd57 O56 2.223 . S
Cd57 O60 2.297 . S
Cd57 O61 2.439 . S
Cd57 O67 2.240 . S
Cd58 O59 2.240 . S
Cd58 O66 2.223 . S
Cd58 O68 2.297 . S
Cd58 O69 2.439 . S
O59 Cd58 2.240 . S
O59 C64 1.279 . S
O60 Cd57 2.297 . S
O60 C62 1.247 . S
O61 Cd57 2.439 . S
O61 C62 1.208 . S
C62 O60 1.247 . S
C62 O61 1.208 . S
C63 O68 1.247 . S
C63 O69 1.208 . S
C64 O56 1.315 . S
C64 O59 1.279 . S
C65 O66 1.315 . S
C65 O67 1.279 . S
O66 Cd58 2.223 . S
O66 C65 1.315 . S
O67 Cd57 2.240 . S
O67 C65 1.279 . S
O68 Cd58 2.297 . S
O68 C63 1.247 . S
O69 Cd58 2.439 . S
O69 C63 1.208 . S
O70 Cd71 2.223 . S
O70 C78 1.315 . S
Cd71 O70 2.223 . S
Cd71 O74 2.297 . S
Cd71 O75 2.439 . S
Cd71 O81 2.240 . S
Cd72 O73 2.240 . S
Cd72 O80 2.223 . S
Cd72 O82 2.297 . S
Cd72 O83 2.439 . S
O73 Cd72 2.240 . S
O73 C78 1.279 . S
O74 Cd71 2.297 . S
O74 C76 1.247 . S
O75 Cd71 2.439 . S
O75 C76 1.208 . S
C76 O74 1.247 . S
C76 O75 1.208 . S
C77 O82 1.247 . S
C77 O83 1.208 . S
C78 O70 1.315 . S
C78 O73 1.279 . S
C79 O80 1.315 . S
C79 O81 1.279 . S
O80 Cd72 2.223 . S
O80 C79 1.315 . S
O81 Cd71 2.240 . S
O81 C79 1.279 . S
O82 Cd72 2.297 . S
O82 C77 1.247 . S
O83 Cd72 2.439 . S
O83 C77 1.208 . S
O84 Cd85 2.223 . S
O84 C92 1.315 . S
Cd85 O84 2.223 . S
Cd85 O88 2.297 . S
Cd85 O89 2.439 . S
Cd85 O95 2.240 . S
Cd86 O87 2.240 . S
Cd86 O94 2.223 . S
Cd86 O96 2.297 . S
Cd86 O97 2.439 . S
O87 Cd86 2.240 . S
O87 C92 1.279 . S
O88 Cd85 2.297 . S
O88 C90 1.247 . S
O89 Cd85 2.439 . S
O89 C90 1.208 . S
C90 O88 1.247 . S
C90 O89 1.208 . S
C91 O96 1.247 . S
C91 O97 1.208 . S
C92 O84 1.315 . S
C92 O87 1.279 . S
C93 O94 1.315 . S
C93 O95 1.279 . S
O94 Cd86 2.223 . S
O94 C93 1.315 . S
O95 Cd85 2.240 . S
O95 C93 1.279 . S
O96 Cd86 2.297 . S
O96 C91 1.247 . S
O97 Cd86 2.439 . S
O97 C91 1.208 . S
O98 Cd99 2.223 1_655 S
O98 C106 1.305 1_656 S
Cd99 O98 2.223 1_455 S
Cd99 O102 2.297 . S
Cd99 O103 2.439 . S
Cd99 O109 2.240 1_455 S
Cd100 O101 2.240 . S
Cd100 O108 2.223 1_455 S
Cd100 O110 2.297 1_455 S
Cd100 O111 2.439 . S
O101 Cd100 2.240 . S
O101 C106 1.281 . S
O102 Cd99 2.297 . S
O102 C104 1.247 . S
O103 Cd99 2.439 . S
O103 C104 1.208 . S
C104 O102 1.247 . S
C104 O103 1.208 . S
C105 O110 1.247 1_455 S
C105 O111 1.208 . S
C106 O98 1.305 1_454 S
C106 O101 1.281 . S
C107 O108 1.315 1_556 S
C107 O109 1.279 . S
O108 Cd100 2.223 1_655 S
O108 C107 1.315 1_554 S
O109 Cd99 2.240 1_655 S
O109 C107 1.279 . S
O110 Cd100 2.297 1_655 S
O110 C105 1.247 1_655 S
O111 Cd100 2.439 . S
O111 C105 1.208 . S
O112 Cd113 2.223 . S
O112 C120 1.315 . S
Cd113 O112 2.223 . S
Cd113 O116 2.297 . S
Cd113 O117 2.439 . S
Cd113 O123 2.240 . S
Cd114 O115 2.240 . S
Cd114 O122 2.223 1_545 S
Cd114 O124 2.297 . S
Cd114 O125 2.439 . S
O115 Cd114 2.240 . S
O115 C120 1.279 . S
O116 Cd113 2.297 . S
O116 C118 1.247 . S
O117 Cd113 2.439 . S
O117 C118 1.208 . S
C118 O116 1.247 . S
C118 O117 1.208 . S
C119 O124 1.247 . S
C119 O125 1.208 . S
C120 O112 1.315 . S
C120 O115 1.279 . S
C121 O122 1.315 . S
C121 O123 1.279 1_565 S
O122 Cd114 2.223 1_565 S
O122 C121 1.315 . S
O123 Cd113 2.240 . S
O123 C121 1.279 1_545 S
O124 Cd114 2.297 . S
O124 C119 1.247 . S
O125 Cd114 2.439 . S
O125 C119 1.208 . S
O126 Cd127 2.223 . S
O126 C134 1.315 . S
Cd127 O126 2.223 . S
Cd127 O130 2.297 . S
Cd127 O131 2.439 . S
Cd127 O137 2.240 . S
Cd128 O129 2.240 . S
Cd128 O136 2.223 . S
Cd128 O138 2.297 . S
Cd128 O139 2.439 . S
O129 Cd128 2.240 . S
O129 C134 1.279 . S
O130 Cd127 2.297 . S
O130 C132 1.247 . S
O131 Cd127 2.439 . S
O131 C132 1.208 . S
C132 O130 1.247 . S
C132 O131 1.208 . S
C133 O138 1.247 . S
C133 O139 1.208 . S
C134 O126 1.315 . S
C134 O129 1.279 . S
C135 O136 1.315 . S
C135 O137 1.279 . S
O136 Cd128 2.223 . S
O136 C135 1.315 . S
O137 Cd127 2.240 . S
O137 C135 1.279 . S
O138 Cd128 2.297 . S
O138 C133 1.247 . S
O139 Cd128 2.439 . S
O139 C133 1.208 . S
O140 Cd141 2.223 . S
O140 C148 1.315 . S
Cd141 O140 2.223 . S
Cd141 O144 2.297 . S
Cd141 O145 2.439 . S
Cd141 O151 2.240 . S
Cd142 O143 2.240 . S
Cd142 O150 2.223 . S
Cd142 O152 2.297 . S
Cd142 O153 2.439 . S
O143 Cd142 2.240 . S
O143 C148 1.279 . S
O144 Cd141 2.297 . S
O144 C146 1.247 . S
O145 Cd141 2.439 . S
O145 C146 1.208 . S
C146 O144 1.247 . S
C146 O145 1.208 . S
C147 O152 1.247 . S
C147 O153 1.208 . S
C148 O140 1.315 . S
C148 O143 1.279 . S
C149 O150 1.315 . S
C149 O151 1.279 . S
O150 Cd142 2.223 . S
O150 C149 1.315 . S
O151 Cd141 2.240 . S
O151 C149 1.279 . S
O152 Cd142 2.297 . S
O152 C147 1.247 . S
O153 Cd142 2.439 . S
O153 C147 1.208 . S
O154 Cd155 2.223 . S
O154 C162 1.315 . S
Cd155 O154 2.223 . S
Cd155 O158 2.297 . S
Cd155 O159 2.439 1_554 S
Cd155 O165 2.243 . S
Cd156 O157 2.240 1_556 S
Cd156 O164 2.223 1_556 S
Cd156 O166 2.297 . S
Cd156 O167 2.439 . S
O157 Cd156 2.240 1_554 S
O157 C162 1.279 . S
O158 Cd155 2.297 . S
O158 C160 1.247 . S
O159 Cd155 2.439 1_556 S
O159 C160 1.208 1_556 S
C160 O158 1.247 . S
C160 O159 1.208 1_554 S
C161 O166 1.247 . S
C161 O167 1.208 . S
C162 O154 1.315 . S
C162 O157 1.279 . S
C163 O164 1.315 . S
C163 O165 1.281 . S
O164 Cd156 2.223 1_554 S
O164 C163 1.315 . S
O165 Cd155 2.243 . S
O165 C163 1.281 . S
O166 Cd156 2.297 . S
O166 C161 1.247 . S
O167 Cd156 2.439 . S
O167 C161 1.208 . S
O168 Cd169 2.223 . S
O168 C176 1.315 . S
Cd169 O168 2.223 . S
Cd169 O172 2.297 . S
Cd169 O173 2.439 . S
Cd169 O179 2.240 . S
Cd170 O171 2.240 . S
Cd170 O178 2.223 . S
Cd170 O180 2.297 . S
Cd170 O181 2.439 . S
O171 Cd170 2.240 . S
O171 C176 1.279 . S
O172 Cd169 2.297 . S
O172 C174 1.247 . S
O173 Cd169 2.439 . S
O173 C174 1.208 . S
C174 O172 1.247 . S
C174 O173 1.208 . S
C175 O180 1.247 . S
C175 O181 1.208 . S
C176 O168 1.315 . S
C176 O171 1.279 . S
C177 O178 1.315 . S
C177 O179 1.279 . S
O178 Cd170 2.223 . S
O178 C177 1.315 . S
O179 Cd169 2.240 . S
O179 C177 1.279 . S
O180 Cd170 2.297 . S
O180 C175 1.247 . S
O181 Cd170 2.439 . S
O181 C175 1.208 . S
O182 Cd183 2.223 . S
O182 C190 1.315 . S
Cd183 O182 2.223 . S
Cd183 O186 2.297 . S
Cd183 O187 2.439 . S
Cd183 O193 2.240 . S
Cd184 O185 2.240 . S
Cd184 O192 2.223 . S
Cd184 O194 2.297 . S
Cd184 O195 2.439 . S
O185 Cd184 2.240 . S
O185 C190 1.279 . S
O186 Cd183 2.297 . S
O186 C188 1.247 . S
O187 Cd183 2.439 . S
O187 C188 1.208 . S
C188 O186 1.247 . S
C188 O187 1.208 . S
C189 O194 1.247 . S
C189 O195 1.208 . S
C190 O182 1.315 . S
C190 O185 1.279 . S
C191 O192 1.315 . S
C191 O193 1.279 . S
O192 Cd184 2.223 . S
O192 C191 1.315 . S
O193 Cd183 2.240 . S
O193 C191 1.279 . S
O194 Cd184 2.297 . S
O194 C189 1.247 . S
O195 Cd184 2.439 . S
O195 C189 1.208 . S
O196 Cd197 2.223 . S
O196 C204 1.315 . S
Cd197 O196 2.223 . S
Cd197 O200 2.297 . S
Cd197 O201 2.439 . S
Cd197 O207 2.240 . S
Cd198 O199 2.240 . S
Cd198 O206 2.223 . S
Cd198 O208 2.297 . S
Cd198 O209 2.439 . S
O199 Cd198 2.240 . S
O199 C204 1.279 . S
O200 Cd197 2.297 . S
O200 C202 1.247 . S
O201 Cd197 2.439 . S
O201 C202 1.208 . S
C202 O200 1.247 . S
C202 O201 1.208 . S
C203 O208 1.247 . S
C203 O209 1.208 . S
C204 O196 1.315 . S
C204 O199 1.279 . S
C205 O206 1.315 . S
C205 O207 1.279 . S
O206 Cd198 2.223 . S
O206 C205 1.315 . S
O207 Cd197 2.240 . S
O207 C205 1.279 . S
O208 Cd198 2.297 . S
O208 C203 1.247 . S
O209 Cd198 2.439 . S
O209 C203 1.208 . S
O210 Cd211 2.223 . S
O210 C218 1.315 . S
Cd211 O210 2.223 . S
Cd211 O214 2.297 . S
Cd211 O215 2.439 . S
Cd211 O221 2.240 . S
Cd212 O213 2.240 . S
Cd212 O220 2.223 . S
Cd212 O222 2.297 . S
Cd212 O223 2.439 . S
O213 Cd212 2.240 . S
O213 C218 1.279 . S
O214 Cd211 2.297 . S
O214 C216 1.247 . S
O215 Cd211 2.439 . S
O215 C216 1.208 . S
C216 O214 1.247 . S
C216 O215 1.208 . S
C217 O222 1.247 . S
C217 O223 1.208 . S
C218 O210 1.315 . S
C218 O213 1.279 . S
C219 O220 1.315 . S
C219 O221 1.279 . S
O220 Cd212 2.223 . S
O220 C219 1.315 . S
O221 Cd211 2.240 . S
O221 C219 1.279 . S
O222 Cd212 2.297 . S
O222 C217 1.247 . S
O223 Cd212 2.439 . S
O223 C217 1.208 . S
O224 Cd225 2.223 . S
O224 C232 1.315 . S
Cd225 O224 2.223 . S
Cd225 O228 2.297 1_565 S
Cd225 O229 2.439 1_565 S
Cd225 O235 2.240 . S
Cd226 O227 2.240 1_565 S
Cd226 O234 2.223 . S
Cd226 O236 2.297 . S
Cd226 O237 2.439 1_565 S
O227 Cd226 2.240 1_545 S
O227 C232 1.279 1_545 S
O228 Cd225 2.297 1_545 S
O228 C230 1.247 . S
O229 Cd225 2.439 1_545 S
O229 C230 1.208 . S
C230 O228 1.247 . S
C230 O229 1.208 . S
C231 O236 1.247 1_545 S
C231 O237 1.208 . S
C232 O224 1.315 . S
C232 O227 1.279 1_565 S
C233 O234 1.315 . S
C233 O235 1.279 . S
O234 Cd226 2.223 . S
O234 C233 1.315 . S
O235 Cd225 2.240 . S
O235 C233 1.279 . S
O236 Cd226 2.297 . S
O236 C231 1.247 1_565 S
O237 Cd226 2.439 1_545 S
O237 C231 1.208 . S
O238 Cd239 2.223 . S
O238 C246 1.315 . S
Cd239 O238 2.223 . S
Cd239 O242 2.297 . S
Cd239 O243 2.439 . S
Cd239 O249 2.240 . S
Cd240 O241 2.240 . S
Cd240 O248 2.223 . S
Cd240 O250 2.297 . S
Cd240 O251 2.439 . S
O241 Cd240 2.240 . S
O241 C246 1.279 . S
O242 Cd239 2.297 . S
O242 C244 1.247 . S
O243 Cd239 2.439 . S
O243 C244 1.208 . S
C244 O242 1.247 . S
C244 O243 1.208 . S
C245 O250 1.247 . S
C245 O251 1.208 . S
C246 O238 1.315 . S
C246 O241 1.279 . S
C247 O248 1.315 . S
C247 O249 1.279 . S
O248 Cd240 2.223 . S
O248 C247 1.315 . S
O249 Cd239 2.240 . S
O249 C247 1.279 . S
O250 Cd240 2.297 . S
O250 C245 1.247 . S
O251 Cd240 2.439 . S
O251 C245 1.208 . S
O252 Cd253 2.223 . S
O252 C260 1.315 . S
Cd253 O252 2.223 . S
Cd253 O256 2.297 . S
Cd253 O257 2.439 . S
Cd253 O263 2.240 . S
Cd254 O255 2.240 . S
Cd254 O262 2.223 . S
Cd254 O264 2.297 . S
Cd254 O265 2.439 . S
O255 Cd254 2.240 . S
O255 C260 1.279 . S
O256 Cd253 2.297 . S
O256 C258 1.247 . S
O257 Cd253 2.439 . S
O257 C258 1.208 . S
C258 O256 1.247 . S
C258 O257 1.208 . S
C259 O264 1.247 . S
C259 O265 1.208 . S
C260 O252 1.315 . S
C260 O255 1.279 . S
C261 O262 1.315 . S
C261 O263 1.279 . S
O262 Cd254 2.223 . S
O262 C261 1.315 . S
O263 Cd253 2.240 . S
O263 C261 1.279 . S
O264 Cd254 2.297 . S
O264 C259 1.247 . S
O265 Cd254 2.439 . S
O265 C259 1.208 . S
O266 Cd267 2.223 . S
O266 C274 1.315 . S
Cd267 O266 2.223 . S
Cd267 O270 2.297 1_545 S
Cd267 O271 2.439 1_545 S
Cd267 O277 2.240 . S
Cd268 O269 2.240 . S
Cd268 O276 2.223 . S
Cd268 O278 2.297 . S
Cd268 O279 2.439 . S
O269 Cd268 2.240 . S
O269 C274 1.279 . S
O270 Cd267 2.297 1_565 S
O270 C272 1.247 . S
O271 Cd267 2.439 1_565 S
O271 C272 1.208 . S
C272 O270 1.247 . S
C272 O271 1.208 . S
C273 O278 1.247 . S
C273 O279 1.208 . S
C274 O266 1.315 . S
C274 O269 1.279 . S
C275 O276 1.315 . S
C275 O277 1.279 . S
O276 Cd268 2.223 . S
O276 C275 1.315 . S
O277 Cd267 2.240 . S
O277 C275 1.279 . S
O278 Cd268 2.297 . S
O278 C273 1.247 . S
O279 Cd268 2.439 . S
O279 C273 1.208 . S
O280 Cd281 2.223 . S
O280 C288 1.315 . S
Cd281 O280 2.223 . S
Cd281 O284 2.297 . S
Cd281 O285 2.439 . S
Cd281 O291 2.240 . S
Cd282 O283 2.240 . S
Cd282 O290 2.223 . S
Cd282 O292 2.297 . S
Cd282 O293 2.439 . S
O283 Cd282 2.240 . S
O283 C288 1.279 . S
O284 Cd281 2.297 . S
O284 C286 1.247 . S
O285 Cd281 2.439 . S
O285 C286 1.208 . S
C286 O284 1.247 . S
C286 O285 1.208 . S
C287 O292 1.247 . S
C287 O293 1.208 . S
C288 O280 1.315 . S
C288 O283 1.279 . S
C289 O290 1.315 . S
C289 O291 1.279 . S
O290 Cd282 2.223 . S
O290 C289 1.315 . S
O291 Cd281 2.240 . S
O291 C289 1.279 . S
O292 Cd282 2.297 . S
O292 C287 1.247 . S
O293 Cd282 2.439 . S
O293 C287 1.208 . S
O294 Cd295 2.223 . S
O294 C302 1.315 . S
Cd295 O294 2.223 . S
Cd295 O298 2.297 . S
Cd295 O299 2.439 . S
Cd295 O305 2.240 . S
Cd296 O297 2.240 . S
Cd296 O304 2.223 . S
Cd296 O306 2.297 . S
Cd296 O307 2.439 . S
O297 Cd296 2.240 . S
O297 C302 1.279 . S
O298 Cd295 2.297 . S
O298 C300 1.247 . S
O299 Cd295 2.439 . S
O299 C300 1.208 . S
C300 O298 1.247 . S
C300 O299 1.208 . S
C301 O306 1.247 . S
C301 O307 1.208 . S
C302 O294 1.315 . S
C302 O297 1.279 . S
C303 O304 1.315 . S
C303 O305 1.279 . S
O304 Cd296 2.223 . S
O304 C303 1.315 . S
O305 Cd295 2.240 . S
O305 C303 1.279 . S
O306 Cd296 2.297 . S
O306 C301 1.247 . S
O307 Cd296 2.439 . S
O307 C301 1.208 . S
O308 Cd309 2.223 . S
O308 C316 1.315 . S
Cd309 O308 2.223 . S
Cd309 O312 2.297 . S
Cd309 O313 2.439 . S
Cd309 O319 2.240 . S
Cd310 O311 2.240 . S
Cd310 O318 2.223 . S
Cd310 O320 2.297 . S
Cd310 O321 2.439 . S
O311 Cd310 2.240 . S
O311 C316 1.279 . S
O312 Cd309 2.297 . S
O312 C314 1.247 . S
O313 Cd309 2.439 . S
O313 C314 1.208 . S
C314 O312 1.247 . S
C314 O313 1.208 . S
C315 O320 1.247 . S
C315 O321 1.208 . S
C316 O308 1.315 . S
C316 O311 1.279 . S
C317 O318 1.315 . S
C317 O319 1.279 . S
O318 Cd310 2.223 . S
O318 C317 1.315 . S
O319 Cd309 2.240 . S
O319 C317 1.279 . S
O320 Cd310 2.297 . S
O320 C315 1.247 . S
O321 Cd310 2.439 . S
O321 C315 1.208 . S
O322 Cd323 2.223 . S
O322 C330 1.315 . S
Cd323 O322 2.223 . S
Cd323 O326 2.297 . S
Cd323 O327 2.439 . S
Cd323 O333 2.240 . S
Cd324 O325 2.240 . S
Cd324 O332 2.223 . S
Cd324 O334 2.297 . S
Cd324 O335 2.439 . S
O325 Cd324 2.240 . S
O325 C330 1.279 . S
O326 Cd323 2.297 . S
O326 C328 1.247 . S
O327 Cd323 2.439 . S
O327 C328 1.208 . S
C328 O326 1.247 . S
C328 O327 1.208 . S
C329 O334 1.247 . S
C329 O335 1.208 . S
C330 O322 1.315 . S
C330 O325 1.279 . S
C331 O332 1.315 . S
C331 O333 1.279 . S
O332 Cd324 2.223 . S
O332 C331 1.315 . S
O333 Cd323 2.240 . S
O333 C331 1.279 . S
O334 Cd324 2.297 . S
O334 C329 1.247 . S
O335 Cd324 2.439 . S
O335 C329 1.208 . S
Tb336 C338 2.809 1_455 S
Tb336 O356 2.484 1_455 S
Tb336 O357 2.440 1_455 S
Tb336 O358 2.658 . S
Tb336 O359 2.409 . S
Tb336 O360 2.378 . S
Tb336 O364 2.325 . S
Tb336 O367 2.341 1_545 S
Tb337 C347 2.809 . S
Tb337 O358 2.325 . S
Tb337 O361 2.341 . S
Tb337 O362 2.484 . S
Tb337 O363 2.440 . S
Tb337 O364 2.658 . S
Tb337 O365 2.409 . S
Tb337 O366 2.378 . S
C338 Tb336 2.809 1_655 S
C338 C339 1.514 . S
C338 O356 1.248 . S
C338 O357 1.266 . S
C339 C338 1.514 . S
C339 C340 1.359 . S
C339 C344 1.348 . S
C340 C339 1.359 . S
C340 C341 1.380 . S
C340 H368 0.929 . S
C341 C340 1.380 . S
C341 C342 1.347 . S
C341 H369 0.931 . S
C342 C341 1.347 . S
C342 C343 1.369 . S
C343 C342 1.369 . S
C343 C344 1.408 . S
C343 H370 0.930 . S
C344 C339 1.348 . S
C344 C343 1.408 . S
C344 H371 0.930 . S
C345 O358 1.281 . S
C345 O359 1.254 . S
C346 O360 1.236 . S
C346 O361 1.266 . S
C347 Tb337 2.809 . S
C347 C348 1.514 . S
C347 O362 1.248 . S
C347 O363 1.266 . S
C348 C347 1.514 . S
C348 C349 1.364 . S
C348 C353 1.348 . S
C349 C348 1.364 . S
C349 C350 1.371 1_545 S
C349 H372 0.932 1_545 S
C350 C349 1.371 1_565 S
C350 C351 1.347 . S
C350 H373 0.931 . S
C351 C350 1.347 . S
C351 C352 1.354 1_565 S
C352 C351 1.354 1_545 S
C352 C353 1.436 . S
C352 H374 0.920 . S
C353 C348 1.348 . S
C353 C352 1.436 . S
C353 H375 0.930 . S
C354 O364 1.281 . S
C354 O365 1.254 . S
C355 O366 1.236 1_565 S
C355 O367 1.266 . S
O356 Tb336 2.484 1_655 S
O356 C338 1.248 . S
O357 Tb336 2.440 1_655 S
O357 C338 1.266 . S
O358 Tb336 2.658 . S
O358 Tb337 2.325 . S
O358 C345 1.281 . S
O359 Tb336 2.409 . S
O359 C345 1.254 . S
O360 Tb336 2.378 . S
O360 C346 1.236 . S
O361 Tb337 2.341 . S
O361 C346 1.266 . S
O362 Tb337 2.484 . S
O362 C347 1.248 . S
O363 Tb337 2.440 . S
O363 C347 1.266 . S
O364 Tb336 2.325 . S
O364 Tb337 2.658 . S
O364 C354 1.281 . S
O365 Tb337 2.409 . S
O365 C354 1.254 . S
O366 Tb337 2.378 . S
O366 C355 1.236 1_545 S
O367 Tb336 2.341 1_565 S
O367 C355 1.266 . S
H368 C340 0.929 . S
H369 C341 0.931 . S
H370 C343 0.930 . S
H371 C344 0.930 . S
H372 C349 0.932 1_565 S
H373 C350 0.931 . S
H374 C352 0.920 . S
H375 C353 0.930 . S
Tb376 C378 2.809 . S
Tb376 O396 2.484 . S
Tb376 O397 2.440 . S
Tb376 O398 2.658 . S
Tb376 O399 2.409 . S
Tb376 O400 2.378 . S
Tb376 O404 2.325 . S
Tb376 O407 2.341 . S
Tb377 C387 2.809 . S
Tb377 O398 2.325 . S
Tb377 O401 2.341 . S
Tb377 O402 2.484 . S
Tb377 O403 2.440 . S
Tb377 O404 2.658 . S
Tb377 O405 2.409 . S
Tb377 O406 2.378 . S
C378 Tb376 2.809 . S
C378 C379 1.514 . S
C378 O396 1.248 . S
C378 O397 1.266 . S
C379 C378 1.514 . S
C379 C380 1.359 . S
C379 C384 1.348 . S
C380 C379 1.359 . S
C380 C381 1.380 . S
C380 H408 0.929 . S
C381 C380 1.380 . S
C381 C382 1.347 . S
C381 H409 0.931 . S
C382 C381 1.347 . S
C382 C383 1.369 . S
C383 C382 1.369 . S
C383 C384 1.408 . S
C383 H410 0.930 . S
C384 C379 1.348 . S
C384 C383 1.408 . S
C384 H411 0.930 . S
C385 O398 1.281 . S
C385 O399 1.254 . S
C386 O400 1.236 . S
C386 O401 1.266 . S
C387 Tb377 2.809 . S
C387 C388 1.514 . S
C387 O402 1.248 . S
C387 O403 1.266 . S
C388 C387 1.514 . S
C388 C389 1.359 . S
C388 C393 1.348 . S
C389 C388 1.359 . S
C389 C390 1.380 . S
C389 H412 0.929 . S
C390 C389 1.380 . S
C390 C391 1.347 . S
C390 H413 0.931 . S
C391 C390 1.347 . S
C391 C392 1.369 . S
C392 C391 1.369 . S
C392 C393 1.408 . S
C392 H414 0.930 . S
C393 C388 1.348 . S
C393 C392 1.408 . S
C393 H415 0.930 . S
C394 O404 1.281 . S
C394 O405 1.254 . S
C395 O406 1.236 . S
C395 O407 1.266 . S
O396 Tb376 2.484 . S
O396 C378 1.248 . S
O397 Tb376 2.440 . S
O397 C378 1.266 . S
O398 Tb376 2.658 . S
O398 Tb377 2.325 . S
O398 C385 1.281 . S
O399 Tb376 2.409 . S
O399 C385 1.254 . S
O400 Tb376 2.378 . S
O400 C386 1.236 . S
O401 Tb377 2.341 . S
O401 C386 1.266 . S
O402 Tb377 2.484 . S
O402 C387 1.248 . S
O403 Tb377 2.440 . S
O403 C387 1.266 . S
O404 Tb376 2.325 . S
O404 Tb377 2.658 . S
O404 C394 1.281 . S
O405 Tb377 2.409 . S
O405 C394 1.254 . S
O406 Tb377 2.378 . S
O406 C395 1.236 . S
O407 Tb376 2.341 . S
O407 C395 1.266 . S
H408 C380 0.929 . S
H409 C381 0.931 . S
H410 C383 0.930 . S
H411 C384 0.930 . S
H412 C389 0.929 . S
H413 C390 0.931 . S
H414 C392 0.930 . S
H415 C393 0.930 . S
Tb416 C418 2.809 . S
Tb416 O436 2.484 . S
Tb416 O437 2.440 . S
Tb416 O438 2.658 . S
Tb416 O439 2.409 . S
Tb416 O440 2.378 . S
Tb416 O444 2.325 . S
Tb416 O447 2.341 . S
Tb417 C427 2.809 . S
Tb417 O438 2.325 . S
Tb417 O441 2.341 1_545 S
Tb417 O442 2.484 . S
Tb417 O443 2.440 . S
Tb417 O444 2.658 . S
Tb417 O445 2.409 . S
Tb417 O446 2.378 . S
C418 Tb416 2.809 . S
C418 C419 1.514 . S
C418 O436 1.248 . S
C418 O437 1.266 . S
C419 C418 1.514 . S
C419 C420 1.359 1_545 S
C419 C424 1.348 1_545 S
C420 C419 1.359 1_565 S
C420 C421 1.380 . S
C420 H448 0.929 . S
C421 C420 1.380 . S
C421 C422 1.347 . S
C421 H449 0.931 . S
C422 C421 1.347 . S
C422 C423 1.369 . S
C423 C422 1.369 . S
C423 C424 1.413 . S
C423 H450 0.930 . S
C424 C419 1.348 1_565 S
C424 C423 1.413 . S
C424 H451 0.926 1_565 S
C425 O438 1.281 . S
C425 O439 1.254 . S
C426 O440 1.236 1_565 S
C426 O441 1.266 . S
C427 Tb417 2.809 . S
C427 C428 1.514 . S
C427 O442 1.248 . S
C427 O443 1.266 . S
C428 C427 1.514 . S
C428 C429 1.359 . S
C428 C433 1.348 . S
C429 C428 1.359 . S
C429 C430 1.380 . S
C429 H452 0.929 . S
C430 C429 1.380 . S
C430 C431 1.347 . S
C430 H453 0.931 . S
C431 C430 1.347 . S
C431 C432 1.369 . S
C432 C431 1.369 . S
C432 C433 1.408 . S
C432 H454 0.930 . S
C433 C428 1.348 . S
C433 C432 1.408 . S
C433 H455 0.930 . S
C434 O444 1.281 . S
C434 O445 1.254 . S
C435 O446 1.236 . S
C435 O447 1.266 . S
O436 Tb416 2.484 . S
O436 C418 1.248 . S
O437 Tb416 2.440 . S
O437 C418 1.266 . S
O438 Tb416 2.658 . S
O438 Tb417 2.325 . S
O438 C425 1.281 . S
O439 Tb416 2.409 . S
O439 C425 1.254 . S
O440 Tb416 2.378 . S
O440 C426 1.236 1_545 S
O441 Tb417 2.341 1_565 S
O441 C426 1.266 . S
O442 Tb417 2.484 . S
O442 C427 1.248 . S
O443 Tb417 2.440 . S
O443 C427 1.266 . S
O444 Tb416 2.325 . S
O444 Tb417 2.658 . S
O444 C434 1.281 . S
O445 Tb417 2.409 . S
O445 C434 1.254 . S
O446 Tb417 2.378 . S
O446 C435 1.236 . S
O447 Tb416 2.341 . S
O447 C435 1.266 . S
H448 C420 0.929 . S
H449 C421 0.931 . S
H450 C423 0.930 . S
H451 C424 0.926 1_545 S
H452 C429 0.929 . S
H453 C430 0.931 . S
H454 C432 0.930 . S
H455 C433 0.930 . S
Tb456 C458 2.809 . S
Tb456 O476 2.484 . S
Tb456 O477 2.440 . S
Tb456 O478 2.658 . S
Tb456 O479 2.409 . S
Tb456 O480 2.378 . S
Tb456 O484 2.325 . S
Tb456 O487 2.341 . S
Tb457 C467 2.809 . S
Tb457 O478 2.325 . S
Tb457 O481 2.341 . S
Tb457 O482 2.484 . S
Tb457 O483 2.440 . S
Tb457 O484 2.658 . S
Tb457 O485 2.409 . S
Tb457 O486 2.378 . S
C458 Tb456 2.809 . S
C458 C459 1.514 . S
C458 O476 1.248 . S
C458 O477 1.266 . S
C459 C458 1.514 . S
C459 C460 1.359 . S
C459 C464 1.348 . S
C460 C459 1.359 . S
C460 C461 1.380 . S
C460 H488 0.929 . S
C461 C460 1.380 . S
C461 C462 1.347 . S
C461 H489 0.931 . S
C462 C461 1.347 . S
C462 C463 1.369 . S
C463 C462 1.369 . S
C463 C464 1.408 . S
C463 H490 0.930 . S
C464 C459 1.348 . S
C464 C463 1.408 . S
C464 H491 0.930 . S
C465 O478 1.281 . S
C465 O479 1.254 . S
C466 O480 1.236 . S
C466 O481 1.266 . S
C467 Tb457 2.809 . S
C467 C468 1.514 . S
C467 O482 1.248 . S
C467 O483 1.266 . S
C468 C467 1.514 . S
C468 C469 1.359 . S
C468 C473 1.348 . S
C469 C468 1.359 . S
C469 C470 1.380 . S
C469 H492 0.929 . S
C470 C469 1.380 . S
C470 C471 1.347 . S
C470 H493 0.931 . S
C471 C470 1.347 . S
C471 C472 1.369 . S
C472 C471 1.369 . S
C472 C473 1.408 . S
C472 H494 0.930 . S
C473 C468 1.348 . S
C473 C472 1.408 . S
C473 H495 0.930 . S
C474 O484 1.281 . S
C474 O485 1.254 . S
C475 O486 1.236 . S
C475 O487 1.266 . S
O476 Tb456 2.484 . S
O476 C458 1.248 . S
O477 Tb456 2.440 . S
O477 C458 1.266 . S
O478 Tb456 2.658 . S
O478 Tb457 2.325 . S
O478 C465 1.281 . S
O479 Tb456 2.409 . S
O479 C465 1.254 . S
O480 Tb456 2.378 . S
O480 C466 1.236 . S
O481 Tb457 2.341 . S
O481 C466 1.266 . S
O482 Tb457 2.484 . S
O482 C467 1.248 . S
O483 Tb457 2.440 . S
O483 C467 1.266 . S
O484 Tb456 2.325 . S
O484 Tb457 2.658 . S
O484 C474 1.281 . S
O485 Tb457 2.409 . S
O485 C474 1.254 . S
O486 Tb457 2.378 . S
O486 C475 1.236 . S
O487 Tb456 2.341 . S
O487 C475 1.266 . S
H488 C460 0.929 . S
H489 C461 0.931 . S
H490 C463 0.930 . S
H491 C464 0.930 . S
H492 C469 0.929 . S
H493 C470 0.931 . S
H494 C472 0.930 . S
H495 C473 0.930 . S
Tb496 C498 2.809 . S
Tb496 O516 2.484 . S
Tb496 O517 2.440 . S
Tb496 O518 2.658 . S
Tb496 O519 2.409 1_455 S
Tb496 O520 2.378 . S
Tb496 O524 2.325 . S
Tb496 O527 2.341 . S
Tb497 C507 2.809 1_545 S
Tb497 O518 2.325 . S
Tb497 O521 2.341 . S
Tb497 O522 2.484 1_545 S
Tb497 O523 2.440 1_545 S
Tb497 O524 2.658 . S
Tb497 O525 2.409 . S
Tb497 O526 2.378 . S
C498 Tb496 2.809 . S
C498 C499 1.514 . S
C498 O516 1.248 . S
C498 O517 1.266 . S
C499 C498 1.514 . S
C499 C500 1.359 . S
C499 C504 1.392 . S
C500 C499 1.359 . S
C500 C501 1.380 . S
C500 H528 0.929 . S
C501 C500 1.380 . S
C501 C502 1.347 . S
C501 H529 0.931 . S
C502 C501 1.347 . S
C502 C503 1.369 1_455 S
C503 C502 1.369 1_655 S
C503 C504 1.395 1_655 S
C503 H530 0.930 . S
C504 C499 1.392 . S
C504 C503 1.395 1_455 S
C504 H531 0.901 1_455 S
C505 O518 1.281 . S
C505 O519 1.254 1_455 S
C506 O520 1.236 . S
C506 O521 1.266 . S
C507 Tb497 2.809 1_565 S
C507 C508 1.514 . S
C507 O522 1.248 . S
C507 O523 1.266 . S
C508 C507 1.514 . S
C508 C509 1.359 . S
C508 C513 1.348 . S
C509 C508 1.359 . S
C509 C510 1.380 . S
C509 H532 0.929 . S
C510 C509 1.380 . S
C510 C511 1.347 . S
C510 H533 0.931 . S
C511 C510 1.347 . S
C511 C512 1.369 . S
C512 C511 1.369 . S
C512 C513 1.408 . S
C512 H534 0.930 . S
C513 C508 1.348 . S
C513 C512 1.408 . S
C513 H535 0.930 . S
C514 O524 1.281 . S
C514 O525 1.254 . S
C515 O526 1.236 . S
C515 O527 1.266 . S
O516 Tb496 2.484 . S
O516 C498 1.248 . S
O517 Tb496 2.440 . S
O517 C498 1.266 . S
O518 Tb496 2.658 . S
O518 Tb497 2.325 . S
O518 C505 1.281 . S
O519 Tb496 2.409 1_655 S
O519 C505 1.254 1_655 S
O520 Tb496 2.378 . S
O520 C506 1.236 . S
O521 Tb497 2.341 . S
O521 C506 1.266 . S
O522 Tb497 2.484 1_565 S
O522 C507 1.248 . S
O523 Tb497 2.440 1_565 S
O523 C507 1.266 . S
O524 Tb496 2.325 . S
O524 Tb497 2.658 . S
O524 C514 1.281 . S
O525 Tb497 2.409 . S
O525 C514 1.254 . S
O526 Tb497 2.378 . S
O526 C515 1.236 . S
O527 Tb496 2.341 . S
O527 C515 1.266 . S
H528 C500 0.929 . S
H529 C501 0.931 . S
H530 C503 0.930 . S
H531 C504 0.901 1_655 S
H532 C509 0.929 . S
H533 C510 0.931 . S
H534 C512 0.930 . S
H535 C513 0.930 . S
Tb536 C538 2.809 . S
Tb536 O556 2.484 . S
Tb536 O557 2.440 . S
Tb536 O558 2.658 . S
Tb536 O559 2.409 . S
Tb536 O560 2.378 . S
Tb536 O564 2.325 . S
Tb536 O567 2.341 . S
Tb537 C547 2.809 . S
Tb537 O558 2.325 . S
Tb537 O561 2.341 . S
Tb537 O562 2.484 . S
Tb537 O563 2.440 . S
Tb537 O564 2.658 . S
Tb537 O565 2.409 . S
Tb537 O566 2.378 . S
C538 Tb536 2.809 . S
C538 C539 1.514 . S
C538 O556 1.248 . S
C538 O557 1.266 . S
C539 C538 1.514 . S
C539 C540 1.359 . S
C539 C544 1.348 . S
C540 C539 1.359 . S
C540 C541 1.380 . S
C540 H568 0.929 . S
C541 C540 1.380 . S
C541 C542 1.347 . S
C541 H569 0.931 . S
C542 C541 1.347 . S
C542 C543 1.369 . S
C543 C542 1.369 . S
C543 C544 1.408 . S
C543 H570 0.930 . S
C544 C539 1.348 . S
C544 C543 1.408 . S
C544 H571 0.930 . S
C545 O558 1.281 . S
C545 O559 1.254 . S
C546 O560 1.236 . S
C546 O561 1.266 . S
C547 Tb537 2.809 . S
C547 C548 1.514 . S
C547 O562 1.248 . S
C547 O563 1.266 . S
C548 C547 1.514 . S
C548 C549 1.359 . S
C548 C553 1.348 . S
C549 C548 1.359 . S
C549 C550 1.380 . S
C549 H572 0.929 . S
C550 C549 1.380 . S
C550 C551 1.347 . S
C550 H573 0.931 . S
C551 C550 1.347 . S
C551 C552 1.369 . S
C552 C551 1.369 . S
C552 C553 1.408 . S
C552 H574 0.930 . S
C553 C548 1.348 . S
C553 C552 1.408 . S
C553 H575 0.930 . S
C554 O564 1.281 . S
C554 O565 1.254 . S
C555 O566 1.236 . S
C555 O567 1.266 . S
O556 Tb536 2.484 . S
O556 C538 1.248 . S
O557 Tb536 2.440 . S
O557 C538 1.266 . S
O558 Tb536 2.658 . S
O558 Tb537 2.325 . S
O558 C545 1.281 . S
O559 Tb536 2.409 . S
O559 C545 1.254 . S
O560 Tb536 2.378 . S
O560 C546 1.236 . S
O561 Tb537 2.341 . S
O561 C546 1.266 . S
O562 Tb537 2.484 . S
O562 C547 1.248 . S
O563 Tb537 2.440 . S
O563 C547 1.266 . S
O564 Tb536 2.325 . S
O564 Tb537 2.658 . S
O564 C554 1.281 . S
O565 Tb537 2.409 . S
O565 C554 1.254 . S
O566 Tb537 2.378 . S
O566 C555 1.236 . S
O567 Tb536 2.341 . S
O567 C555 1.266 . S
H568 C540 0.929 . S
H569 C541 0.931 . S
H570 C543 0.930 . S
H571 C544 0.930 . S
H572 C549 0.929 . S
H573 C550 0.931 . S
H574 C552 0.930 . S
H575 C553 0.930 . S
Tb576 C578 2.809 . S
Tb576 O596 2.484 1_545 S
Tb576 O597 2.440 . S
Tb576 O598 2.658 . S
Tb576 O599 2.409 . S
Tb576 O600 2.378 . S
Tb576 O604 2.325 . S
Tb576 O607 2.341 . S
Tb577 C587 2.809 . S
Tb577 O598 2.325 . S
Tb577 O601 2.341 . S
Tb577 O602 2.484 . S
Tb577 O603 2.440 . S
Tb577 O604 2.658 . S
Tb577 O605 2.409 1_545 S
Tb577 O606 2.378 . S
C578 Tb576 2.809 . S
C578 C579 1.514 1_545 S
C578 O596 1.248 1_545 S
C578 O597 1.266 . S
C579 C578 1.514 1_565 S
C579 C580 1.359 . S
C579 C584 1.348 1_565 S
C580 C579 1.359 . S
C580 C581 1.380 . S
C580 H608 0.929 . S
C581 C580 1.380 . S
C581 C582 1.347 . S
C581 H609 0.931 . S
C582 C581 1.347 . S
C582 C583 1.369 1_565 S
C583 C582 1.369 1_545 S
C583 C584 1.408 . S
C583 H610 0.930 . S
C584 C579 1.348 1_545 S
C584 C583 1.408 . S
C584 H611 0.930 . S
C585 O598 1.281 . S
C585 O599 1.254 . S
C586 O600 1.236 . S
C586 O601 1.266 . S
C587 Tb577 2.809 . S
C587 C588 1.514 . S
C587 O602 1.248 . S
C587 O603 1.266 . S
C588 C587 1.514 . S
C588 C589 1.359 . S
C588 C593 1.348 . S
C589 C588 1.359 . S
C589 C590 1.380 . S
C589 H612 0.929 . S
C590 C589 1.380 . S
C590 C591 1.347 . S
C590 H613 0.931 . S
C591 C590 1.347 . S
C591 C592 1.369 . S
C592 C591 1.369 . S
C592 C593 1.408 . S
C592 H614 0.930 . S
C593 C588 1.348 . S
C593 C592 1.408 . S
C593 H615 0.930 . S
C594 O604 1.281 1_565 S
C594 O605 1.254 . S
C595 O606 1.236 . S
C595 O607 1.266 . S
O596 Tb576 2.484 1_565 S
O596 C578 1.248 1_565 S
O597 Tb576 2.440 . S
O597 C578 1.266 . S
O598 Tb576 2.658 . S
O598 Tb577 2.325 . S
O598 C585 1.281 . S
O599 Tb576 2.409 . S
O599 C585 1.254 . S
O600 Tb576 2.378 . S
O600 C586 1.236 . S
O601 Tb577 2.341 . S
O601 C586 1.266 . S
O602 Tb577 2.484 . S
O602 C587 1.248 . S
O603 Tb577 2.440 . S
O603 C587 1.266 . S
O604 Tb576 2.325 . S
O604 Tb577 2.658 . S
O604 C594 1.281 1_545 S
O605 Tb577 2.409 1_565 S
O605 C594 1.254 . S
O606 Tb577 2.378 . S
O606 C595 1.236 . S
O607 Tb576 2.341 . S
O607 C595 1.266 . S
H608 C580 0.929 . S
H609 C581 0.931 . S
H610 C583 0.930 . S
H611 C584 0.930 . S
H612 C589 0.929 . S
H613 C590 0.931 . S
H614 C592 0.930 . S
H615 C593 0.930 . S
Tb616 C618 2.809 . S
Tb616 O636 2.484 . S
Tb616 O637 2.440 . S
Tb616 O638 2.658 . S
Tb616 O639 2.409 . S
Tb616 O640 2.378 . S
Tb616 O644 2.325 . S
Tb616 O647 2.341 . S
Tb617 C627 2.809 . S
Tb617 O638 2.325 . S
Tb617 O641 2.341 . S
Tb617 O642 2.484 . S
Tb617 O643 2.440 . S
Tb617 O644 2.658 . S
Tb617 O645 2.409 . S
Tb617 O646 2.378 . S
C618 Tb616 2.809 . S
C618 C619 1.514 . S
C618 O636 1.248 . S
C618 O637 1.266 . S
C619 C618 1.514 . S
C619 C620 1.359 . S
C619 C624 1.348 . S
C620 C619 1.359 . S
C620 C621 1.380 . S
C620 H648 0.929 . S
C621 C620 1.380 . S
C621 C622 1.347 . S
C621 H649 0.931 . S
C622 C621 1.347 . S
C622 C623 1.369 . S
C623 C622 1.369 . S
C623 C624 1.408 . S
C623 H650 0.930 . S
C624 C619 1.348 . S
C624 C623 1.408 . S
C624 H651 0.930 . S
C625 O638 1.281 . S
C625 O639 1.254 . S
C626 O640 1.236 . S
C626 O641 1.266 . S
C627 Tb617 2.809 . S
C627 C628 1.514 . S
C627 O642 1.248 . S
C627 O643 1.266 . S
C628 C627 1.514 . S
C628 C629 1.359 . S
C628 C633 1.348 . S
C629 C628 1.359 . S
C629 C630 1.380 . S
C629 H652 0.929 . S
C630 C629 1.380 . S
C630 C631 1.347 . S
C630 H653 0.931 . S
C631 C630 1.347 . S
C631 C632 1.369 . S
C632 C631 1.369 . S
C632 C633 1.408 . S
C632 H654 0.930 . S
C633 C628 1.348 . S
C633 C632 1.408 . S
C633 H655 0.930 . S
C634 O644 1.281 . S
C634 O645 1.254 . S
C635 O646 1.236 . S
C635 O647 1.266 . S
O636 Tb616 2.484 . S
O636 C618 1.248 . S
O637 Tb616 2.440 . S
O637 C618 1.266 . S
O638 Tb616 2.658 . S
O638 Tb617 2.325 . S
O638 C625 1.281 . S
O639 Tb616 2.409 . S
O639 C625 1.254 . S
O640 Tb616 2.378 . S
O640 C626 1.236 . S
O641 Tb617 2.341 . S
O641 C626 1.266 . S
O642 Tb617 2.484 . S
O642 C627 1.248 . S
O643 Tb617 2.440 . S
O643 C627 1.266 . S
O644 Tb616 2.325 . S
O644 Tb617 2.658 . S
O644 C634 1.281 . S
O645 Tb617 2.409 . S
O645 C634 1.254 . S
O646 Tb617 2.378 . S
O646 C635 1.236 . S
O647 Tb616 2.341 . S
O647 C635 1.266 . S
H648 C620 0.929 . S
H649 C621 0.931 . S
H650 C623 0.930 . S
H651 C624 0.930 . S
H652 C629 0.929 . S
H653 C630 0.931 . S
H654 C632 0.930 . S
H655 C633 0.930 . S
Tb656 C658 2.809 . S
Tb656 O676 2.484 . S
Tb656 O677 2.440 . S
Tb656 O678 2.658 . S
Tb656 O679 2.409 . S
Tb656 O680 2.378 . S
Tb656 O684 2.325 . S
Tb656 O687 2.341 . S
Tb657 C667 2.809 . S
Tb657 O678 2.325 . S
Tb657 O681 2.341 . S
Tb657 O682 2.484 . S
Tb657 O683 2.440 . S
Tb657 O684 2.658 . S
Tb657 O685 2.409 . S
Tb657 O686 2.378 . S
C658 Tb656 2.809 . S
C658 C659 1.514 . S
C658 O676 1.248 . S
C658 O677 1.266 . S
C659 C658 1.514 . S
C659 C660 1.359 . S
C659 C664 1.348 . S
C660 C659 1.359 . S
C660 C661 1.380 . S
C660 H688 0.929 . S
C661 C660 1.380 . S
C661 C662 1.347 . S
C661 H689 0.931 . S
C662 C661 1.347 . S
C662 C663 1.369 . S
C663 C662 1.369 . S
C663 C664 1.408 . S
C663 H690 0.930 . S
C664 C659 1.348 . S
C664 C663 1.408 . S
C664 H691 0.930 . S
C665 O678 1.281 . S
C665 O679 1.254 . S
C666 O680 1.236 . S
C666 O681 1.266 . S
C667 Tb657 2.809 . S
C667 C668 1.514 . S
C667 O682 1.248 . S
C667 O683 1.266 . S
C668 C667 1.514 . S
C668 C669 1.359 . S
C668 C673 1.348 . S
C669 C668 1.359 . S
C669 C670 1.380 . S
C669 H692 0.929 . S
C670 C669 1.380 . S
C670 C671 1.347 . S
C670 H693 0.931 . S
C671 C670 1.347 . S
C671 C672 1.369 . S
C672 C671 1.369 . S
C672 C673 1.408 . S
C672 H694 0.930 . S
C673 C668 1.348 . S
C673 C672 1.408 . S
C673 H695 0.930 . S
C674 O684 1.281 . S
C674 O685 1.254 . S
C675 O686 1.236 . S
C675 O687 1.266 . S
O676 Tb656 2.484 . S
O676 C658 1.248 . S
O677 Tb656 2.440 . S
O677 C658 1.266 . S
O678 Tb656 2.658 . S
O678 Tb657 2.325 . S
O678 C665 1.281 . S
O679 Tb656 2.409 . S
O679 C665 1.254 . S
O680 Tb656 2.378 . S
O680 C666 1.236 . S
O681 Tb657 2.341 . S
O681 C666 1.266 . S
O682 Tb657 2.484 . S
O682 C667 1.248 . S
O683 Tb657 2.440 . S
O683 C667 1.266 . S
O684 Tb656 2.325 . S
O684 Tb657 2.658 . S
O684 C674 1.281 . S
O685 Tb657 2.409 . S
O685 C674 1.254 . S
O686 Tb657 2.378 . S
O686 C675 1.236 . S
O687 Tb656 2.341 . S
O687 C675 1.266 . S
H688 C660 0.929 . S
H689 C661 0.931 . S
H690 C663 0.930 . S
H691 C664 0.930 . S
H692 C669 0.929 . S
H693 C670 0.931 . S
H694 C672 0.930 . S
H695 C673 0.930 . S
Tb696 C698 2.809 . S
Tb696 O716 2.484 . S
Tb696 O717 2.440 . S
Tb696 O718 2.658 . S
Tb696 O719 2.409 . S
Tb696 O720 2.378 . S
Tb696 O724 2.325 . S
Tb696 O727 2.341 . S
Tb697 C707 2.809 . S
Tb697 O718 2.325 . S
Tb697 O721 2.341 . S
Tb697 O722 2.484 . S
Tb697 O723 2.440 . S
Tb697 O724 2.658 . S
Tb697 O725 2.409 . S
Tb697 O726 2.378 . S
C698 Tb696 2.809 . S
C698 C699 1.514 . S
C698 O716 1.248 . S
C698 O717 1.266 . S
C699 C698 1.514 . S
C699 C700 1.359 . S
C699 C704 1.348 . S
C700 C699 1.359 . S
C700 C701 1.380 . S
C700 H728 0.929 . S
C701 C700 1.380 . S
C701 C702 1.347 . S
C701 H729 0.931 . S
C702 C701 1.347 . S
C702 C703 1.369 . S
C703 C702 1.369 . S
C703 C704 1.408 . S
C703 H730 0.930 . S
C704 C699 1.348 . S
C704 C703 1.408 . S
C704 H731 0.930 . S
C705 O718 1.281 . S
C705 O719 1.254 . S
C706 O720 1.236 . S
C706 O721 1.266 . S
C707 Tb697 2.809 . S
C707 C708 1.514 . S
C707 O722 1.248 . S
C707 O723 1.266 . S
C708 C707 1.514 . S
C708 C709 1.359 . S
C708 C713 1.348 . S
C709 C708 1.359 . S
C709 C710 1.380 . S
C709 H732 0.929 . S
C710 C709 1.380 . S
C710 C711 1.347 . S
C710 H733 0.931 . S
C711 C710 1.347 . S
C711 C712 1.369 . S
C712 C711 1.369 . S
C712 C713 1.408 . S
C712 H734 0.930 . S
C713 C708 1.348 . S
C713 C712 1.408 . S
C713 H735 0.930 . S
C714 O724 1.281 . S
C714 O725 1.254 . S
C715 O726 1.236 . S
C715 O727 1.266 . S
O716 Tb696 2.484 . S
O716 C698 1.248 . S
O717 Tb696 2.440 . S
O717 C698 1.266 . S
O718 Tb696 2.658 . S
O718 Tb697 2.325 . S
O718 C705 1.281 . S
O719 Tb696 2.409 . S
O719 C705 1.254 . S
O720 Tb696 2.378 . S
O720 C706 1.236 . S
O721 Tb697 2.341 . S
O721 C706 1.266 . S
O722 Tb697 2.484 . S
O722 C707 1.248 . S
O723 Tb697 2.440 . S
O723 C707 1.266 . S
O724 Tb696 2.325 . S
O724 Tb697 2.658 . S
O724 C714 1.281 . S
O725 Tb697 2.409 . S
O725 C714 1.254 . S
O726 Tb697 2.378 . S
O726 C715 1.236 . S
O727 Tb696 2.341 . S
O727 C715 1.266 . S
H728 C700 0.929 . S
H729 C701 0.931 . S
H730 C703 0.930 . S
H731 C704 0.930 . S
H732 C709 0.929 . S
H733 C710 0.931 . S
H734 C712 0.930 . S
H735 C713 0.930 . S
Tb736 C738 2.809 1_455 S
Tb736 O756 2.484 1_455 S
Tb736 O757 2.440 1_455 S
Tb736 O758 2.658 . S
Tb736 O759 2.409 . S
Tb736 O760 2.378 1_455 S
Tb736 O764 2.325 . S
Tb736 O767 2.341 . S
Tb737 C747 2.809 . S
Tb737 O758 2.325 . S
Tb737 O761 2.341 . S
Tb737 O762 2.484 . S
Tb737 O763 2.440 . S
Tb737 O764 2.658 . S
Tb737 O765 2.409 . S
Tb737 O766 2.378 . S
C738 Tb736 2.809 1_655 S
C738 C739 1.514 . S
C738 O756 1.248 . S
C738 O757 1.266 . S
C739 C738 1.514 . S
C739 C740 1.359 . S
C739 C744 1.348 . S
C740 C739 1.359 . S
C740 C741 1.380 . S
C740 H768 0.929 . S
C741 C740 1.380 . S
C741 C742 1.347 . S
C741 H769 0.931 . S
C742 C741 1.347 . S
C742 C743 1.369 . S
C743 C742 1.369 . S
C743 C744 1.408 . S
C743 H770 0.930 . S
C744 C739 1.348 . S
C744 C743 1.408 . S
C744 H771 0.930 . S
C745 O758 1.281 . S
C745 O759 1.254 . S
C746 O760 1.236 1_455 S
C746 O761 1.266 . S
C747 Tb737 2.809 . S
C747 C748 1.514 . S
C747 O762 1.248 . S
C747 O763 1.266 . S
C748 C747 1.514 . S
C748 C749 1.359 . S
C748 C753 1.348 . S
C749 C748 1.359 . S
C749 C750 1.380 . S
C749 H772 0.929 . S
C750 C749 1.380 . S
C750 C751 1.347 . S
C750 H773 0.931 . S
C751 C750 1.347 . S
C751 C752 1.369 . S
C752 C751 1.369 . S
C752 C753 1.408 . S
C752 H774 0.930 . S
C753 C748 1.348 . S
C753 C752 1.408 . S
C753 H775 0.930 . S
C754 O764 1.281 . S
C754 O765 1.254 . S
C755 O766 1.236 . S
C755 O767 1.266 . S
O756 Tb736 2.484 1_655 S
O756 C738 1.248 . S
O757 Tb736 2.440 1_655 S
O757 C738 1.266 . S
O758 Tb736 2.658 . S
O758 Tb737 2.325 . S
O758 C745 1.281 . S
O759 Tb736 2.409 . S
O759 C745 1.254 . S
O760 Tb736 2.378 1_655 S
O760 C746 1.236 1_655 S
O761 Tb737 2.341 . S
O761 C746 1.266 . S
O762 Tb737 2.484 . S
O762 C747 1.248 . S
O763 Tb737 2.440 . S
O763 C747 1.266 . S
O764 Tb736 2.325 . S
O764 Tb737 2.658 . S
O764 C754 1.281 . S
O765 Tb737 2.409 . S
O765 C754 1.254 . S
O766 Tb737 2.378 . S
O766 C755 1.236 . S
O767 Tb736 2.341 . S
O767 C755 1.266 . S
H768 C740 0.929 . S
H769 C741 0.931 . S
H770 C743 0.930 . S
H771 C744 0.930 . S
H772 C749 0.929 . S
H773 C750 0.931 . S
H774 C752 0.930 . S
H775 C753 0.930 . S
Tb776 C778 2.809 . S
Tb776 O796 2.484 . S
Tb776 O797 2.440 . S
Tb776 O798 2.658 . S
Tb776 O799 2.409 . S
Tb776 O800 2.378 . S
Tb776 O804 2.325 . S
Tb776 O807 2.341 . S
Tb777 C787 2.809 . S
Tb777 O798 2.325 . S
Tb777 O801 2.341 . S
Tb777 O802 2.484 . S
Tb777 O803 2.440 . S
Tb777 O804 2.658 . S
Tb777 O805 2.409 . S
Tb777 O806 2.378 . S
C778 Tb776 2.809 . S
C778 C779 1.514 . S
C778 O796 1.248 . S
C778 O797 1.266 . S
C779 C778 1.514 . S
C779 C780 1.359 . S
C779 C784 1.348 . S
C780 C779 1.359 . S
C780 C781 1.380 . S
C780 H808 0.929 . S
C781 C780 1.380 . S
C781 C782 1.347 . S
C781 H809 0.931 . S
C782 C781 1.347 . S
C782 C783 1.369 . S
C783 C782 1.369 . S
C783 C784 1.408 . S
C783 H810 0.930 . S
C784 C779 1.348 . S
C784 C783 1.408 . S
C784 H811 0.930 . S
C785 O798 1.281 . S
C785 O799 1.254 . S
C786 O800 1.236 . S
C786 O801 1.266 . S
C787 Tb777 2.809 . S
C787 C788 1.514 . S
C787 O802 1.248 . S
C787 O803 1.266 . S
C788 C787 1.514 . S
C788 C789 1.359 . S
C788 C793 1.348 . S
C789 C788 1.359 . S
C789 C790 1.380 . S
C789 H812 0.929 . S
C790 C789 1.380 . S
C790 C791 1.347 . S
C790 H813 0.931 . S
C791 C790 1.347 . S
C791 C792 1.369 . S
C792 C791 1.369 . S
C792 C793 1.408 . S
C792 H814 0.930 . S
C793 C788 1.348 . S
C793 C792 1.408 . S
C793 H815 0.930 . S
C794 O804 1.281 . S
C794 O805 1.254 . S
C795 O806 1.236 . S
C795 O807 1.266 . S
O796 Tb776 2.484 . S
O796 C778 1.248 . S
O797 Tb776 2.440 . S
O797 C778 1.266 . S
O798 Tb776 2.658 . S
O798 Tb777 2.325 . S
O798 C785 1.281 . S
O799 Tb776 2.409 . S
O799 C785 1.254 . S
O800 Tb776 2.378 . S
O800 C786 1.236 . S
O801 Tb777 2.341 . S
O801 C786 1.266 . S
O802 Tb777 2.484 . S
O802 C787 1.248 . S
O803 Tb777 2.440 . S
O803 C787 1.266 . S
O804 Tb776 2.325 . S
O804 Tb777 2.658 . S
O804 C794 1.281 . S
O805 Tb777 2.409 . S
O805 C794 1.254 . S
O806 Tb777 2.378 . S
O806 C795 1.236 . S
O807 Tb776 2.341 . S
O807 C795 1.266 . S
H808 C780 0.929 . S
H809 C781 0.931 . S
H810 C783 0.930 . S
H811 C784 0.930 . S
H812 C789 0.929 . S
H813 C790 0.931 . S
H814 C792 0.930 . S
H815 C793 0.930 . S
Tb816 C818 2.809 . S
Tb816 O836 2.484 . S
Tb816 O837 2.440 . S
Tb816 O838 2.658 . S
Tb816 O839 2.409 . S
Tb816 O840 2.378 . S
Tb816 O844 2.325 . S
Tb816 O847 2.341 . S
Tb817 C827 2.809 . S
Tb817 O838 2.325 . S
Tb817 O841 2.341 . S
Tb817 O842 2.484 . S
Tb817 O843 2.440 . S
Tb817 O844 2.658 . S
Tb817 O845 2.409 . S
Tb817 O846 2.378 . S
C818 Tb816 2.809 . S
C818 C819 1.514 . S
C818 O836 1.248 . S
C818 O837 1.266 . S
C819 C818 1.514 . S
C819 C820 1.359 . S
C819 C824 1.348 . S
C820 C819 1.359 . S
C820 C821 1.380 . S
C820 H848 0.929 . S
C821 C820 1.380 . S
C821 C822 1.347 . S
C821 H849 0.931 . S
C822 C821 1.347 . S
C822 C823 1.369 . S
C823 C822 1.369 . S
C823 C824 1.408 . S
C823 H850 0.930 . S
C824 C819 1.348 . S
C824 C823 1.408 . S
C824 H851 0.930 . S
C825 O838 1.281 . S
C825 O839 1.254 . S
C826 O840 1.236 . S
C826 O841 1.266 . S
C827 Tb817 2.809 . S
C827 C828 1.514 . S
C827 O842 1.248 . S
C827 O843 1.266 . S
C828 C827 1.514 . S
C828 C829 1.359 . S
C828 C833 1.348 . S
C829 C828 1.359 . S
C829 C830 1.380 1_556 S
C829 H852 0.929 . S
C830 C829 1.380 1_554 S
C830 C831 1.347 . S
C830 H853 0.931 . S
C831 C830 1.347 . S
C831 C832 1.369 . S
C832 C831 1.369 . S
C832 C833 1.408 1_554 S
C832 H854 0.930 . S
C833 C828 1.348 . S
C833 C832 1.408 1_556 S
C833 H855 0.930 . S
C834 O844 1.281 . S
C834 O845 1.254 . S
C835 O846 1.236 . S
C835 O847 1.266 . S
O836 Tb816 2.484 . S
O836 C818 1.248 . S
O837 Tb816 2.440 . S
O837 C818 1.266 . S
O838 Tb816 2.658 . S
O838 Tb817 2.325 . S
O838 C825 1.281 . S
O839 Tb816 2.409 . S
O839 C825 1.254 . S
O840 Tb816 2.378 . S
O840 C826 1.236 . S
O841 Tb817 2.341 . S
O841 C826 1.266 . S
O842 Tb817 2.484 . S
O842 C827 1.248 . S
O843 Tb817 2.440 . S
O843 C827 1.266 . S
O844 Tb816 2.325 . S
O844 Tb817 2.658 . S
O844 C834 1.281 . S
O845 Tb817 2.409 . S
O845 C834 1.254 . S
O846 Tb817 2.378 . S
O846 C835 1.236 . S
O847 Tb816 2.341 . S
O847 C835 1.266 . S
H848 C820 0.929 . S
H849 C821 0.931 . S
H850 C823 0.930 . S
H851 C824 0.930 . S
H852 C829 0.929 . S
H853 C830 0.931 . S
H854 C832 0.930 . S
H855 C833 0.930 . S
Tb856 C858 2.809 . S
Tb856 O876 2.484 . S
Tb856 O877 2.440 . S
Tb856 O878 2.658 . S
Tb856 O879 2.409 . S
Tb856 O880 2.378 . S
Tb856 O884 2.325 . S
Tb856 O887 2.341 . S
Tb857 C867 2.809 . S
Tb857 O878 2.325 . S
Tb857 O881 2.341 . S
Tb857 O882 2.484 . S
Tb857 O883 2.440 . S
Tb857 O884 2.658 . S
Tb857 O885 2.409 . S
Tb857 O886 2.378 . S
C858 Tb856 2.809 . S
C858 C859 1.514 . S
C858 O876 1.248 . S
C858 O877 1.266 . S
C859 C858 1.514 . S
C859 C860 1.359 . S
C859 C864 1.348 . S
C860 C859 1.359 . S
C860 C861 1.380 . S
C860 H888 0.929 . S
C861 C860 1.380 . S
C861 C862 1.347 . S
C861 H889 0.931 . S
C862 C861 1.347 . S
C862 C863 1.369 . S
C863 C862 1.369 . S
C863 C864 1.408 . S
C863 H890 0.930 . S
C864 C859 1.348 . S
C864 C863 1.408 . S
C864 H891 0.930 . S
C865 O878 1.281 . S
C865 O879 1.254 . S
C866 O880 1.236 . S
C866 O881 1.266 . S
C867 Tb857 2.809 . S
C867 C868 1.514 . S
C867 O882 1.248 . S
C867 O883 1.266 . S
C868 C867 1.514 . S
C868 C869 1.359 . S
C868 C873 1.348 . S
C869 C868 1.359 . S
C869 C870 1.380 . S
C869 H892 0.929 . S
C870 C869 1.380 . S
C870 C871 1.347 . S
C870 H893 0.931 . S
C871 C870 1.347 . S
C871 C872 1.369 . S
C872 C871 1.369 . S
C872 C873 1.408 . S
C872 H894 0.930 . S
C873 C868 1.348 . S
C873 C872 1.408 . S
C873 H895 0.930 . S
C874 O884 1.281 . S
C874 O885 1.254 . S
C875 O886 1.236 . S
C875 O887 1.266 . S
O876 Tb856 2.484 . S
O876 C858 1.248 . S
O877 Tb856 2.440 . S
O877 C858 1.266 . S
O878 Tb856 2.658 . S
O878 Tb857 2.325 . S
O878 C865 1.281 . S
O879 Tb856 2.409 . S
O879 C865 1.254 . S
O880 Tb856 2.378 . S
O880 C866 1.236 . S
O881 Tb857 2.341 . S
O881 C866 1.266 . S
O882 Tb857 2.484 . S
O882 C867 1.248 . S
O883 Tb857 2.440 . S
O883 C867 1.266 . S
O884 Tb856 2.325 . S
O884 Tb857 2.658 . S
O884 C874 1.281 . S
O885 Tb857 2.409 . S
O885 C874 1.254 . S
O886 Tb857 2.378 . S
O886 C875 1.236 . S
O887 Tb856 2.341 . S
O887 C875 1.266 . S
H888 C860 0.929 . S
H889 C861 0.931 . S
H890 C863 0.930 . S
H891 C864 0.930 . S
H892 C869 0.929 . S
H893 C870 0.931 . S
H894 C872 0.930 . S
H895 C873 0.930 . S
Tb896 C898 2.809 . S
Tb896 O916 2.484 . S
Tb896 O917 2.440 . S
Tb896 O918 2.658 . S
Tb896 O919 2.409 . S
Tb896 O920 2.378 . S
Tb896 O924 2.325 . S
Tb896 O927 2.341 . S
Tb897 C907 2.809 . S
Tb897 O918 2.325 . S
Tb897 O921 2.341 . S
Tb897 O922 2.484 . S
Tb897 O923 2.440 . S
Tb897 O924 2.658 . S
Tb897 O925 2.409 . S
Tb897 O926 2.378 . S
C898 Tb896 2.809 . S
C898 C899 1.514 . S
C898 O916 1.248 . S
C898 O917 1.266 . S
C899 C898 1.514 . S
C899 C900 1.359 . S
C899 C904 1.348 . S
C900 C899 1.359 . S
C900 C901 1.380 . S
C900 H928 0.929 . S
C901 C900 1.380 . S
C901 C902 1.347 . S
C901 H929 0.931 . S
C902 C901 1.347 . S
C902 C903 1.369 . S
C903 C902 1.369 . S
C903 C904 1.408 . S
C903 H930 0.930 . S
C904 C899 1.348 . S
C904 C903 1.408 . S
C904 H931 0.930 . S
C905 O918 1.281 . S
C905 O919 1.254 . S
C906 O920 1.236 . S
C906 O921 1.266 . S
C907 Tb897 2.809 . S
C907 C908 1.514 . S
C907 O922 1.248 . S
C907 O923 1.266 . S
C908 C907 1.514 . S
C908 C909 1.359 . S
C908 C913 1.348 . S
C909 C908 1.359 . S
C909 C910 1.380 . S
C909 H932 0.929 . S
C910 C909 1.380 . S
C910 C911 1.347 . S
C910 H933 0.931 . S
C911 C910 1.347 . S
C911 C912 1.369 . S
C912 C911 1.369 . S
C912 C913 1.408 . S
C912 H934 0.930 . S
C913 C908 1.348 . S
C913 C912 1.408 . S
C913 H935 0.930 . S
C914 O924 1.281 . S
C914 O925 1.254 . S
C915 O926 1.236 . S
C915 O927 1.266 . S
O916 Tb896 2.484 . S
O916 C898 1.248 . S
O917 Tb896 2.440 . S
O917 C898 1.266 . S
O918 Tb896 2.658 . S
O918 Tb897 2.325 . S
O918 C905 1.281 . S
O919 Tb896 2.409 . S
O919 C905 1.254 . S
O920 Tb896 2.378 . S
O920 C906 1.236 . S
O921 Tb897 2.341 . S
O921 C906 1.266 . S
O922 Tb897 2.484 . S
O922 C907 1.248 . S
O923 Tb897 2.440 . S
O923 C907 1.266 . S
O924 Tb896 2.325 . S
O924 Tb897 2.658 . S
O924 C914 1.281 . S
O925 Tb897 2.409 . S
O925 C914 1.254 . S
O926 Tb897 2.378 . S
O926 C915 1.236 . S
O927 Tb896 2.341 . S
O927 C915 1.266 . S
H928 C900 0.929 . S
H929 C901 0.931 . S
H930 C903 0.930 . S
H931 C904 0.930 . S
H932 C909 0.929 . S
H933 C910 0.931 . S
H934 C912 0.930 . S
H935 C913 0.930 . S
Tb936 C938 2.809 . S
Tb936 O956 2.484 . S
Tb936 O957 2.440 . S
Tb936 O958 2.658 . S
Tb936 O959 2.409 . S
Tb936 O960 2.378 . S
Tb936 O964 2.325 . S
Tb936 O967 2.341 . S
Tb937 C947 2.809 1_455 S
Tb937 O958 2.325 . S
Tb937 O961 2.341 . S
Tb937 O962 2.484 1_455 S
Tb937 O963 2.440 1_455 S
Tb937 O964 2.658 . S
Tb937 O965 2.409 . S
Tb937 O966 2.378 . S
C938 Tb936 2.809 . S
C938 C939 1.514 . S
C938 O956 1.248 . S
C938 O957 1.266 . S
C939 C938 1.514 . S
C939 C940 1.359 . S
C939 C944 1.348 . S
C940 C939 1.359 . S
C940 C941 1.380 . S
C940 H968 0.929 . S
C941 C940 1.380 . S
C941 C942 1.347 . S
C941 H969 0.931 . S
C942 C941 1.347 . S
C942 C943 1.369 . S
C943 C942 1.369 . S
C943 C944 1.408 . S
C943 H970 0.930 . S
C944 C939 1.348 . S
C944 C943 1.408 . S
C944 H971 0.930 . S
C945 O958 1.281 . S
C945 O959 1.254 . S
C946 O960 1.236 . S
C946 O961 1.266 . S
C947 Tb937 2.809 1_655 S
C947 C948 1.514 . S
C947 O962 1.248 . S
C947 O963 1.266 . S
C948 C947 1.514 . S
C948 C949 1.359 . S
C948 C953 1.348 . S
C949 C948 1.359 . S
C949 C950 1.380 . S
C949 H972 0.929 . S
C950 C949 1.380 . S
C950 C951 1.347 . S
C950 H973 0.931 . S
C951 C950 1.347 . S
C951 C952 1.369 . S
C952 C951 1.369 . S
C952 C953 1.408 . S
C952 H974 0.930 . S
C953 C948 1.348 . S
C953 C952 1.408 . S
C953 H975 0.930 . S
C954 O964 1.281 . S
C954 O965 1.254 . S
C955 O966 1.236 . S
C955 O967 1.266 . S
O956 Tb936 2.484 . S
O956 C938 1.248 . S
O957 Tb936 2.440 . S
O957 C938 1.266 . S
O958 Tb936 2.658 . S
O958 Tb937 2.325 . S
O958 C945 1.281 . S
O959 Tb936 2.409 . S
O959 C945 1.254 . S
O960 Tb936 2.378 . S
O960 C946 1.236 . S
O961 Tb937 2.341 . S
O961 C946 1.266 . S
O962 Tb937 2.484 1_655 S
O962 C947 1.248 . S
O963 Tb937 2.440 1_655 S
O963 C947 1.266 . S
O964 Tb936 2.325 . S
O964 Tb937 2.658 . S
O964 C954 1.281 . S
O965 Tb937 2.409 . S
O965 C954 1.254 . S
O966 Tb937 2.378 . S
O966 C955 1.236 . S
O967 Tb936 2.341 . S
O967 C955 1.266 . S
H968 C940 0.929 . S
H969 C941 0.931 . S
H970 C943 0.930 . S
H971 C944 0.930 . S
H972 C949 0.929 . S
H973 C950 0.931 . S
H974 C952 0.930 . S
H975 C953 0.930 . S
C976 C977 1.387 . S
C976 H980 0.950 . S
C976 C985 1.390 . S
C977 C976 1.387 . S
C977 C979 1.387 . S
H978 C985 0.950 . S
C979 C977 1.387 . S
C979 C981 1.390 . S
C979 H983 0.950 1_455 S
H980 C976 0.950 . S
C981 C979 1.390 . S
C981 C982 1.387 . S
C981 H984 0.950 . S
C982 C981 1.387 . S
C982 C985 1.387 . S
H983 C979 0.950 1_655 S
H984 C981 0.950 . S
C985 C976 1.390 . S
C985 H978 0.950 . S
C985 C982 1.387 . S
C986 C987 1.387 . S
C986 H990 0.950 . S
C986 C995 1.390 . S
C987 C986 1.387 . S
C987 C989 1.387 . S
H988 C995 0.950 . S
C989 C987 1.387 . S
C989 C991 1.390 . S
C989 H993 0.950 . S
H990 C986 0.950 . S
C991 C989 1.390 . S
C991 C992 1.387 . S
C991 H994 0.950 . S
C992 C991 1.387 . S
C992 C995 1.387 . S
H993 C989 0.950 . S
H994 C991 0.950 . S
C995 C986 1.390 . S
C995 H988 0.950 . S
C995 C992 1.387 . S
C996 C997 1.387 . S
C996 H1000 0.950 . S
C996 C1005 1.390 . S
C997 C996 1.387 . S
C997 C999 1.387 . S
H998 C1005 0.950 . S
C999 C997 1.387 . S
C999 C1001 1.390 . S
C999 H1003 0.950 . S
H1000 C996 0.950 . S
C1001 C999 1.390 . S
C1001 C1002 1.387 . S
C1001 H1004 0.950 . S
C1002 C1001 1.387 . S
C1002 C1005 1.387 . S
H1003 C999 0.950 . S
H1004 C1001 0.950 . S
C1005 C996 1.390 . S
C1005 H998 0.950 . S
C1005 C1002 1.387 . S
C1006 C1007 1.387 . S
C1006 H1010 0.950 . S
C1006 C1015 1.390 . S
C1007 C1006 1.387 . S
C1007 C1009 1.387 . S
H1008 C1015 0.950 . S
C1009 C1007 1.387 . S
C1009 C1011 1.390 . S
C1009 H1013 0.950 . S
H1010 C1006 0.950 . S
C1011 C1009 1.390 . S
C1011 C1012 1.387 . S
C1011 H1014 0.950 . S
C1012 C1011 1.387 . S
C1012 C1015 1.387 . S
H1013 C1009 0.950 . S
H1014 C1011 0.950 . S
C1015 C1006 1.390 . S
C1015 H1008 0.950 . S
C1015 C1012 1.387 . S
C1016 C1017 1.387 . S
C1016 H1020 0.950 . S
C1016 C1025 1.390 . S
C1017 C1016 1.387 . S
C1017 C1019 1.387 . S
H1018 C1025 0.950 . S
C1019 C1017 1.387 . S
C1019 C1021 1.390 . S
C1019 H1023 0.950 . S
H1020 C1016 0.950 . S
C1021 C1019 1.390 . S
C1021 C1022 1.387 . S
C1021 H1024 0.950 . S
C1022 C1021 1.387 . S
C1022 C1025 1.387 . S
H1023 C1019 0.950 . S
H1024 C1021 0.950 . S
C1025 C1016 1.390 . S
C1025 H1018 0.950 . S
C1025 C1022 1.387 . S
C1026 C1027 1.387 . S
C1026 H1030 0.950 . S
C1026 C1035 1.390 . S
C1027 C1026 1.387 . S
C1027 C1029 1.387 . S
H1028 C1035 0.950 . S
C1029 C1027 1.387 . S
C1029 C1031 1.390 . S
C1029 H1033 0.950 . S
H1030 C1026 0.950 . S
C1031 C1029 1.390 . S
C1031 C1032 1.387 . S
C1031 H1034 0.950 . S
C1032 C1031 1.387 . S
C1032 C1035 1.387 . S
H1033 C1029 0.950 . S
H1034 C1031 0.950 . S
C1035 C1026 1.390 . S
C1035 H1028 0.950 . S
C1035 C1032 1.387 . S
C1036 C1037 1.387 . S
C1036 H1040 0.950 . S
C1036 C1045 1.390 . S
C1037 C1036 1.387 . S
C1037 C1039 1.387 . S
H1038 C1045 0.950 . S
C1039 C1037 1.387 . S
C1039 C1041 1.390 . S
C1039 H1043 0.950 . S
H1040 C1036 0.950 . S
C1041 C1039 1.390 . S
C1041 C1042 1.387 . S
C1041 H1044 0.950 . S
C1042 C1041 1.387 . S
C1042 C1045 1.387 . S
H1043 C1039 0.950 . S
H1044 C1041 0.950 . S
C1045 C1036 1.390 . S
C1045 H1038 0.950 . S
C1045 C1042 1.387 . S
C1046 C1047 1.387 . S
C1046 H1050 0.950 . S
C1046 C1055 1.390 . S
C1047 C1046 1.387 . S
C1047 C1049 1.387 . S
H1048 C1055 0.950 . S
C1049 C1047 1.387 . S
C1049 C1051 1.390 . S
C1049 H1053 0.950 . S
H1050 C1046 0.950 . S
C1051 C1049 1.390 . S
C1051 C1052 1.387 . S
C1051 H1054 0.950 . S
C1052 C1051 1.387 . S
C1052 C1055 1.387 . S
H1053 C1049 0.950 . S
H1054 C1051 0.950 . S
C1055 C1046 1.390 . S
C1055 H1048 0.950 . S
C1055 C1052 1.387 . S
C1056 C1057 1.387 1_565 S
C1056 H1060 0.950 . S
C1056 C1065 1.390 1_665 S
C1057 C1056 1.387 1_545 S
C1057 C1059 1.387 . S
H1058 C1065 0.950 1_565 S
C1059 C1057 1.387 . S
C1059 C1061 1.390 1_655 S
C1059 H1063 0.950 . S
H1060 C1056 0.950 . S
C1061 C1059 1.390 1_455 S
C1061 C1062 1.387 . S
C1061 H1064 0.950 . S
C1062 C1061 1.387 . S
C1062 C1065 1.387 . S
H1063 C1059 0.950 . S
H1064 C1061 0.950 . S
C1065 C1056 1.390 1_445 S
C1065 H1058 0.950 1_545 S
C1065 C1062 1.387 . S
C1066 C1067 1.387 . S
C1066 H1070 0.950 . S
C1066 C1075 1.390 . S
C1067 C1066 1.387 . S
C1067 C1069 1.387 . S
H1068 C1075 0.950 . S
C1069 C1067 1.387 . S
C1069 C1071 1.390 . S
C1069 H1073 0.950 . S
H1070 C1066 0.950 . S
C1071 C1069 1.390 . S
C1071 C1072 1.387 . S
C1071 H1074 0.950 . S
C1072 C1071 1.387 . S
C1072 C1075 1.387 . S
H1073 C1069 0.950 . S
H1074 C1071 0.950 . S
C1075 C1066 1.390 . S
C1075 H1068 0.950 . S
C1075 C1072 1.387 . S
C1076 C1077 1.387 . S
C1076 H1080 0.950 1_545 S
C1076 C1085 1.390 . S
C1077 C1076 1.387 . S
C1077 C1079 1.387 . S
H1078 C1085 0.950 1_565 S
C1079 C1077 1.387 . S
C1079 C1081 1.390 . S
C1079 H1083 0.950 . S
H1080 C1076 0.950 1_565 S
C1081 C1079 1.390 . S
C1081 C1082 1.387 . S
C1081 H1084 0.950 . S
C1082 C1081 1.387 . S
C1082 C1085 1.387 . S
H1083 C1079 0.950 . S
H1084 C1081 0.950 . S
C1085 C1076 1.390 . S
C1085 H1078 0.950 1_545 S
C1085 C1082 1.387 . S
C1086 C1087 1.387 . S
C1086 H1090 0.950 . S
C1086 C1095 1.390 . S
C1087 C1086 1.387 . S
C1087 C1089 1.387 . S
H1088 C1095 0.950 . S
C1089 C1087 1.387 . S
C1089 C1091 1.390 . S
C1089 H1093 0.950 . S
H1090 C1086 0.950 . S
C1091 C1089 1.390 . S
C1091 C1092 1.387 . S
C1091 H1094 0.950 . S
C1092 C1091 1.387 . S
C1092 C1095 1.387 . S
H1093 C1089 0.950 . S
H1094 C1091 0.950 . S
C1095 C1086 1.390 . S
C1095 H1088 0.950 . S
C1095 C1092 1.387 . S
C1096 C1097 1.387 1_565 S
C1096 H1100 0.950 . S
C1096 C1105 1.390 1_665 S
C1097 C1096 1.387 1_545 S
C1097 C1099 1.387 . S
H1098 C1105 0.950 1_565 S
C1099 C1097 1.387 . S
C1099 C1101 1.390 1_655 S
C1099 H1103 0.950 . S
H1100 C1096 0.950 . S
C1101 C1099 1.390 1_455 S
C1101 C1102 1.387 . S
C1101 H1104 0.950 . S
C1102 C1101 1.387 . S
C1102 C1105 1.387 . S
H1103 C1099 0.950 . S
H1104 C1101 0.950 . S
C1105 C1096 1.390 1_445 S
C1105 H1098 0.950 1_545 S
C1105 C1102 1.387 . S
C1106 C1107 1.387 . S
C1106 H1110 0.950 . S
C1106 C1115 1.390 . S
C1107 C1106 1.387 . S
C1107 C1109 1.387 . S
H1108 C1115 0.950 . S
C1109 C1107 1.387 . S
C1109 C1111 1.390 . S
C1109 H1113 0.950 . S
H1110 C1106 0.950 . S
C1111 C1109 1.390 . S
C1111 C1112 1.387 . S
C1111 H1114 0.950 . S
C1112 C1111 1.387 . S
C1112 C1115 1.387 . S
H1113 C1109 0.950 . S
H1114 C1111 0.950 . S
C1115 C1106 1.390 . S
C1115 H1108 0.950 . S
C1115 C1112 1.387 . S
C1116 C1117 1.387 . S
C1116 H1120 0.950 . S
C1116 C1125 1.390 1_556 S
C1117 C1116 1.387 . S
C1117 C1119 1.387 1_556 S
H1118 C1125 0.950 . S
C1119 C1117 1.387 1_554 S
C1119 C1121 1.390 . S
C1119 H1123 0.950 1_554 S
H1120 C1116 0.950 . S
C1121 C1119 1.390 . S
C1121 C1122 1.387 . S
C1121 H1124 0.950 . S
C1122 C1121 1.387 . S
C1122 C1125 1.387 . S
H1123 C1119 0.950 1_556 S
H1124 C1121 0.950 . S
C1125 C1116 1.390 1_554 S
C1125 H1118 0.950 . S
C1125 C1122 1.387 . S
C1126 C1127 1.387 . S
C1126 H1130 0.950 . S
C1126 C1135 1.390 . S
C1127 C1126 1.387 . S
C1127 C1129 1.387 . S
H1128 C1135 0.950 . S
C1129 C1127 1.387 . S
C1129 C1131 1.390 . S
C1129 H1133 0.950 . S
H1130 C1126 0.950 . S
C1131 C1129 1.390 . S
C1131 C1132 1.387 . S
C1131 H1134 0.950 . S
C1132 C1131 1.387 . S
C1132 C1135 1.387 . S
H1133 C1129 0.950 . S
H1134 C1131 0.950 . S
C1135 C1126 1.390 . S
C1135 H1128 0.950 . S
C1135 C1132 1.387 . S
C1136 C1137 1.387 . S
C1136 H1140 0.950 . S
C1136 C1145 1.390 . S
C1137 C1136 1.387 . S
C1137 C1139 1.387 . S
H1138 C1145 0.950 . S
C1139 C1137 1.387 . S
C1139 C1141 1.390 . S
C1139 H1143 0.950 . S
H1140 C1136 0.950 . S
C1141 C1139 1.390 . S
C1141 C1142 1.387 . S
C1141 H1144 0.950 . S
C1142 C1141 1.387 . S
C1142 C1145 1.387 . S
H1143 C1139 0.950 . S
H1144 C1141 0.950 . S
C1145 C1136 1.390 . S
C1145 H1138 0.950 . S
C1145 C1142 1.387 . S
C1146 C1147 1.387 . S
C1146 H1150 0.950 . S
C1146 C1155 1.390 . S
C1147 C1146 1.387 . S
C1147 C1149 1.387 . S
H1148 C1155 0.950 . S
C1149 C1147 1.387 . S
C1149 C1151 1.390 . S
C1149 H1153 0.950 . S
H1150 C1146 0.950 . S
C1151 C1149 1.390 . S
C1151 C1152 1.387 . S
C1151 H1154 0.950 . S
C1152 C1151 1.387 . S
C1152 C1155 1.387 . S
H1153 C1149 0.950 . S
H1154 C1151 0.950 . S
C1155 C1146 1.390 . S
C1155 H1148 0.950 . S
C1155 C1152 1.387 . S
C1156 C1157 1.387 . S
C1156 H1160 0.950 . S
C1156 C1165 1.390 . S
C1157 C1156 1.387 . S
C1157 C1159 1.387 . S
H1158 C1165 0.950 . S
C1159 C1157 1.387 . S
C1159 C1161 1.390 . S
C1159 H1163 0.950 . S
H1160 C1156 0.950 . S
C1161 C1159 1.390 . S
C1161 C1162 1.387 . S
C1161 H1164 0.950 . S
C1162 C1161 1.387 . S
C1162 C1165 1.387 . S
H1163 C1159 0.950 . S
H1164 C1161 0.950 . S
C1165 C1156 1.390 . S
C1165 H1158 0.950 . S
C1165 C1162 1.387 . S
C1166 C1167 1.387 . S
C1166 H1170 0.950 . S
C1166 C1175 1.390 . S
C1167 C1166 1.387 . S
C1167 C1169 1.387 . S
H1168 C1175 0.950 . S
C1169 C1167 1.387 . S
C1169 C1171 1.390 . S
C1169 H1173 0.950 . S
H1170 C1166 0.950 . S
C1171 C1169 1.390 . S
C1171 C1172 1.387 . S
C1171 H1174 0.950 . S
C1172 C1171 1.387 . S
C1172 C1175 1.387 . S
H1173 C1169 0.950 . S
H1174 C1171 0.950 . S
C1175 C1166 1.390 . S
C1175 H1168 0.950 . S
C1175 C1172 1.387 . S
C1176 C1177 1.387 . S
C1176 H1180 0.950 . S
C1176 C1185 1.390 . S
C1177 C1176 1.387 . S
C1177 C1179 1.387 . S
H1178 C1185 0.950 . S
C1179 C1177 1.387 . S
C1179 C1181 1.390 . S
C1179 H1183 0.950 . S
H1180 C1176 0.950 . S
C1181 C1179 1.390 . S
C1181 C1182 1.387 . S
C1181 H1184 0.950 . S
C1182 C1181 1.387 . S
C1182 C1185 1.387 . S
H1183 C1179 0.950 . S
H1184 C1181 0.950 . S
C1185 C1176 1.390 . S
C1185 H1178 0.950 . S
C1185 C1182 1.387 . S
C1186 C1187 1.387 . S
C1186 H1190 0.950 . S
C1186 C1195 1.390 . S
C1187 C1186 1.387 . S
C1187 C1189 1.387 . S
H1188 C1195 0.950 . S
C1189 C1187 1.387 . S
C1189 C1191 1.390 . S
C1189 H1193 0.950 . S
H1190 C1186 0.950 . S
C1191 C1189 1.390 . S
C1191 C1192 1.387 . S
C1191 H1194 0.950 . S
C1192 C1191 1.387 . S
C1192 C1195 1.387 . S
H1193 C1189 0.950 . S
H1194 C1191 0.950 . S
C1195 C1186 1.390 . S
C1195 H1188 0.950 . S
C1195 C1192 1.387 . S
C1196 C1197 1.387 . S
C1196 H1200 0.950 . S
C1196 C1205 1.390 . S
C1197 C1196 1.387 . S
C1197 C1199 1.387 . S
H1198 C1205 0.950 . S
C1199 C1197 1.387 . S
C1199 C1201 1.390 . S
C1199 H1203 0.950 . S
H1200 C1196 0.950 . S
C1201 C1199 1.390 . S
C1201 C1202 1.387 . S
C1201 H1204 0.950 . S
C1202 C1201 1.387 . S
C1202 C1205 1.387 . S
H1203 C1199 0.950 . S
H1204 C1201 0.950 . S
C1205 C1196 1.390 . S
C1205 H1198 0.950 . S
C1205 C1202 1.387 . S
C1206 C1207 1.387 . S
C1206 H1210 0.950 . S
C1206 C1215 1.390 . S
C1207 C1206 1.387 . S
C1207 C1209 1.387 . S
H1208 C1215 0.950 . S
C1209 C1207 1.387 . S
C1209 C1211 1.390 . S
C1209 H1213 0.950 . S
H1210 C1206 0.950 . S
C1211 C1209 1.390 . S
C1211 C1212 1.387 . S
C1211 H1214 0.950 . S
C1212 C1211 1.387 . S
C1212 C1215 1.387 . S
H1213 C1209 0.950 . S
H1214 C1211 0.950 . S
C1215 C1206 1.390 . S
C1215 H1208 0.950 . S
C1215 C1212 1.387 . S
C1216 C1217 1.387 . S
C1216 H1220 0.950 . S
C1216 C1225 1.390 . S
C1217 C1216 1.387 . S
C1217 C1219 1.387 . S
H1218 C1225 0.950 . S
C1219 C1217 1.387 . S
C1219 C1221 1.390 . S
C1219 H1223 0.950 . S
H1220 C1216 0.950 . S
C1221 C1219 1.390 . S
C1221 C1222 1.387 . S
C1221 H1224 0.950 . S
C1222 C1221 1.387 . S
C1222 C1225 1.387 . S
H1223 C1219 0.950 . S
H1224 C1221 0.950 . S
C1225 C1216 1.390 . S
C1225 H1218 0.950 . S
C1225 C1222 1.387 . S
C1226 C1227 1.387 . S
C1226 H1230 0.950 . S
C1226 C1235 1.390 . S
C1227 C1226 1.387 . S
C1227 C1229 1.387 . S
H1228 C1235 0.950 . S
C1229 C1227 1.387 . S
C1229 C1231 1.390 . S
C1229 H1233 0.950 . S
H1230 C1226 0.950 . S
C1231 C1229 1.390 . S
C1231 C1232 1.387 . S
C1231 H1234 0.950 . S
C1232 C1231 1.387 . S
C1232 C1235 1.387 . S
H1233 C1229 0.950 . S
H1234 C1231 0.950 . S
C1235 C1226 1.390 . S
C1235 H1228 0.950 . S
C1235 C1232 1.387 . S
C1236 C1237 1.387 . S
C1236 H1240 0.950 . S
C1236 C1245 1.390 . S
C1237 C1236 1.387 . S
C1237 C1239 1.387 . S
H1238 C1245 0.950 . S
C1239 C1237 1.387 . S
C1239 C1241 1.390 . S
C1239 H1243 0.950 . S
H1240 C1236 0.950 . S
C1241 C1239 1.390 . S
C1241 C1242 1.387 . S
C1241 H1244 0.950 . S
C1242 C1241 1.387 . S
C1242 C1245 1.387 . S
H1243 C1239 0.950 . S
H1244 C1241 0.950 . S
C1245 C1236 1.390 . S
C1245 H1238 0.950 . S
C1245 C1242 1.387 . S
C1246 C1247 1.387 . S
C1246 H1250 0.950 . S
C1246 C1255 1.390 . S
C1247 C1246 1.387 . S
C1247 C1249 1.387 . S
H1248 C1255 0.950 . S
C1249 C1247 1.387 . S
C1249 C1251 1.390 . S
C1249 H1253 0.950 . S
H1250 C1246 0.950 . S
C1251 C1249 1.390 . S
C1251 C1252 1.387 . S
C1251 H1254 0.950 . S
C1252 C1251 1.387 . S
C1252 C1255 1.387 . S
H1253 C1249 0.950 . S
H1254 C1251 0.950 . S
C1255 C1246 1.390 . S
C1255 H1248 0.950 . S
C1255 C1252 1.387 . S
C1256 C1257 1.387 1_455 S
C1256 H1260 0.950 . S
C1256 C1265 1.390 . S
C1257 C1256 1.387 1_655 S
C1257 C1259 1.387 . S
H1258 C1265 0.950 . S
C1259 C1257 1.387 . S
C1259 C1261 1.390 . S
C1259 H1263 0.950 . S
H1260 C1256 0.950 . S
C1261 C1259 1.390 . S
C1261 C1262 1.387 1_655 S
C1261 H1264 0.950 . S
C1262 C1261 1.387 1_455 S
C1262 C1265 1.387 . S
H1263 C1259 0.950 . S
H1264 C1261 0.950 . S
C1265 C1256 1.390 . S
C1265 H1258 0.950 . S
C1265 C1262 1.387 . S
C1266 C1267 1.387 . S
C1266 H1270 0.950 . S
C1266 C1275 1.390 . S
C1267 C1266 1.387 . S
C1267 C1269 1.387 . S
H1268 C1275 0.950 . S
C1269 C1267 1.387 . S
C1269 C1271 1.390 . S
C1269 H1273 0.950 . S
H1270 C1266 0.950 . S
C1271 C1269 1.390 . S
C1271 C1272 1.387 . S
C1271 H1274 0.950 . S
C1272 C1271 1.387 . S
C1272 C1275 1.387 . S
H1273 C1269 0.950 . S
H1274 C1271 0.950 . S
C1275 C1266 1.390 . S
C1275 H1268 0.950 . S
C1275 C1272 1.387 . S
C1276 C1277 1.387 . S
C1276 H1280 0.950 . S
C1276 C1285 1.390 1_556 S
C1277 C1276 1.387 . S
C1277 C1279 1.387 1_556 S
H1278 C1285 0.950 . S
C1279 C1277 1.387 1_554 S
C1279 C1281 1.390 . S
C1279 H1283 0.950 1_554 S
H1280 C1276 0.950 . S
C1281 C1279 1.390 . S
C1281 C1282 1.387 . S
C1281 H1284 0.950 . S
C1282 C1281 1.387 . S
C1282 C1285 1.387 . S
H1283 C1279 0.950 1_556 S
H1284 C1281 0.950 . S
C1285 C1276 1.390 1_554 S
C1285 H1278 0.950 . S
C1285 C1282 1.387 . S
C1286 C1287 1.387 1_455 S
C1286 H1290 0.950 . S
C1286 C1295 1.390 1_455 S
C1287 C1286 1.387 1_655 S
C1287 C1289 1.405 . S
H1288 C1295 0.950 1_455 S
C1289 C1287 1.405 . S
C1289 C1291 1.390 . S
C1289 H1293 0.950 . S
H1290 C1286 0.950 . S
C1291 C1289 1.390 . S
C1291 C1292 1.387 . S
C1291 H1294 0.950 . S
C1292 C1291 1.387 . S
C1292 C1295 1.387 . S
H1293 C1289 0.950 . S
H1294 C1291 0.950 . S
C1295 C1286 1.390 1_655 S
C1295 H1288 0.950 1_655 S
C1295 C1292 1.387 . S
C1296 C1297 1.387 . S
C1296 H1300 0.950 . S
C1296 C1305 1.390 . S
C1297 C1296 1.387 . S
C1297 C1299 1.387 . S
H1298 C1305 0.950 . S
C1299 C1297 1.387 . S
C1299 C1301 1.390 1_556 S
C1299 H1303 0.950 1_556 S
H1300 C1296 0.950 . S
C1301 C1299 1.390 1_554 S
C1301 C1302 1.387 . S
C1301 H1304 0.950 . S
C1302 C1301 1.387 . S
C1302 C1305 1.387 1_554 S
H1303 C1299 0.950 1_554 S
H1304 C1301 0.950 . S
C1305 C1296 1.390 . S
C1305 H1298 0.950 . S
C1305 C1302 1.387 1_556 S
C1306 C1307 1.387 . S
C1306 H1310 0.950 . S
C1306 C1315 1.390 . S
C1307 C1306 1.387 . S
C1307 C1309 1.387 . S
H1308 C1315 0.950 . S
C1309 C1307 1.387 . S
C1309 C1311 1.390 . S
C1309 H1313 0.950 . S
H1310 C1306 0.950 . S
C1311 C1309 1.390 . S
C1311 C1312 1.387 . S
C1311 H1314 0.950 . S
C1312 C1311 1.387 . S
C1312 C1315 1.387 . S
H1313 C1309 0.950 . S
H1314 C1311 0.950 . S
C1315 C1306 1.390 . S
C1315 H1308 0.950 . S
C1315 C1312 1.387 . S
C1316 C1317 1.387 . S
C1316 H1320 0.950 . S
C1316 C1325 1.390 . S
C1317 C1316 1.387 . S
C1317 C1319 1.387 . S
H1318 C1325 0.950 . S
C1319 C1317 1.387 . S
C1319 C1321 1.390 . S
C1319 H1323 0.950 . S
H1320 C1316 0.950 . S
C1321 C1319 1.390 . S
C1321 C1322 1.387 . S
C1321 H1324 0.950 . S
C1322 C1321 1.387 . S
C1322 C1325 1.387 . S
H1323 C1319 0.950 . S
H1324 C1321 0.950 . S
C1325 C1316 1.390 . S
C1325 H1318 0.950 . S
C1325 C1322 1.387 . S
C1326 C1327 1.387 . S
C1326 H1330 0.950 . S
C1326 C1335 1.390 . S
C1327 C1326 1.387 . S
C1327 C1329 1.387 . S
H1328 C1335 0.950 . S
C1329 C1327 1.387 . S
C1329 C1331 1.390 . S
C1329 H1333 0.950 . S
H1330 C1326 0.950 . S
C1331 C1329 1.390 . S
C1331 C1332 1.387 . S
C1331 H1334 0.950 . S
C1332 C1331 1.387 . S
C1332 C1335 1.387 . S
H1333 C1329 0.950 . S
H1334 C1331 0.950 . S
C1335 C1326 1.390 . S
C1335 H1328 0.950 . S
C1335 C1332 1.387 . S
C1336 C1337 1.387 . S
C1336 H1340 0.950 . S
C1336 C1345 1.390 . S
C1337 C1336 1.387 . S
C1337 C1339 1.387 . S
H1338 C1345 0.950 . S
C1339 C1337 1.387 . S
C1339 C1341 1.390 . S
C1339 H1343 0.950 . S
H1340 C1336 0.950 . S
C1341 C1339 1.390 . S
C1341 C1342 1.387 . S
C1341 H1344 0.950 . S
C1342 C1341 1.387 . S
C1342 C1345 1.387 . S
H1343 C1339 0.950 . S
H1344 C1341 0.950 . S
C1345 C1336 1.390 . S
C1345 H1338 0.950 . S
C1345 C1342 1.387 . S
C1346 C1347 1.387 . S
C1346 H1350 0.950 . S
C1346 C1355 1.390 . S
C1347 C1346 1.387 . S
C1347 C1349 1.387 . S
H1348 C1355 0.950 . S
C1349 C1347 1.387 . S
C1349 C1351 1.390 . S
C1349 H1353 0.950 . S
H1350 C1346 0.950 . S
C1351 C1349 1.390 . S
C1351 C1352 1.387 . S
C1351 H1354 0.950 . S
C1352 C1351 1.387 . S
C1352 C1355 1.387 . S
H1353 C1349 0.950 . S
H1354 C1351 0.950 . S
C1355 C1346 1.390 . S
C1355 H1348 0.950 . S
C1355 C1352 1.387 . S
C1356 C1357 1.387 . S
C1356 H1360 0.950 1_545 S
C1356 C1365 1.390 1_545 S
C1357 C1356 1.387 . S
C1357 C1359 1.387 . S
H1358 C1365 0.950 . S
C1359 C1357 1.387 . S
C1359 C1361 1.390 . S
C1359 H1363 0.950 . S
H1360 C1356 0.950 1_565 S
C1361 C1359 1.390 . S
C1361 C1362 1.387 . S
C1361 H1364 0.950 . S
C1362 C1361 1.387 . S
C1362 C1365 1.387 1_545 S
H1363 C1359 0.950 . S
H1364 C1361 0.950 . S
C1365 C1356 1.390 1_565 S
C1365 H1358 0.950 . S
C1365 C1362 1.387 1_565 S
C1366 C1367 1.387 . S
C1366 H1370 0.950 . S
C1366 C1375 1.390 . S
C1367 C1366 1.387 . S
C1367 C1369 1.387 . S
H1368 C1375 0.950 . S
C1369 C1367 1.387 . S
C1369 C1371 1.390 . S
C1369 H1373 0.950 1_556 S
H1370 C1366 0.950 . S
C1371 C1369 1.390 . S
C1371 C1372 1.387 . S
C1371 H1374 0.950 . S
C1372 C1371 1.387 . S
C1372 C1375 1.387 . S
H1373 C1369 0.950 1_554 S
H1374 C1371 0.950 . S
C1375 C1366 1.390 . S
C1375 H1368 0.950 . S
C1375 C1372 1.387 . S
C1376 C1377 1.387 . S
C1376 H1380 0.950 . S
C1376 C1385 1.390 . S
C1377 C1376 1.387 . S
C1377 C1379 1.387 . S
H1378 C1385 0.950 . S
C1379 C1377 1.387 . S
C1379 C1381 1.390 . S
C1379 H1383 0.950 . S
H1380 C1376 0.950 . S
C1381 C1379 1.390 . S
C1381 C1382 1.387 . S
C1381 H1384 0.950 . S
C1382 C1381 1.387 . S
C1382 C1385 1.387 . S
H1383 C1379 0.950 . S
H1384 C1381 0.950 . S
C1385 C1376 1.390 . S
C1385 H1378 0.950 . S
C1385 C1382 1.387 . S
C1386 C1387 1.387 . S
C1386 H1390 0.950 . S
C1386 C1395 1.390 . S
C1387 C1386 1.387 . S
C1387 C1389 1.387 . S
H1388 C1395 0.950 . S
C1389 C1387 1.387 . S
C1389 C1391 1.390 . S
C1389 H1393 0.950 . S
H1390 C1386 0.950 . S
C1391 C1389 1.390 . S
C1391 C1392 1.387 . S
C1391 H1394 0.950 . S
C1392 C1391 1.387 . S
C1392 C1395 1.387 . S
H1393 C1389 0.950 . S
H1394 C1391 0.950 . S
C1395 C1386 1.390 . S
C1395 H1388 0.950 . S
C1395 C1392 1.387 . S
C1396 C1397 1.387 . S
C1396 H1400 0.950 . S
C1396 C1405 1.390 . S
C1397 C1396 1.387 . S
C1397 C1399 1.387 . S
H1398 C1405 0.950 . S
C1399 C1397 1.387 . S
C1399 C1401 1.390 . S
C1399 H1403 0.950 . S
H1400 C1396 0.950 . S
C1401 C1399 1.390 . S
C1401 C1402 1.387 . S
C1401 H1404 0.950 . S
C1402 C1401 1.387 . S
C1402 C1405 1.387 . S
H1403 C1399 0.950 . S
H1404 C1401 0.950 . S
C1405 C1396 1.390 . S
C1405 H1398 0.950 . S
C1405 C1402 1.387 . S
C1406 C1407 1.387 . S
C1406 H1410 0.950 . S
C1406 C1415 1.390 . S
C1407 C1406 1.387 . S
C1407 C1409 1.387 . S
H1408 C1415 0.950 . S
C1409 C1407 1.387 . S
C1409 C1411 1.390 . S
C1409 H1413 0.950 . S
H1410 C1406 0.950 . S
C1411 C1409 1.390 . S
C1411 C1412 1.387 . S
C1411 H1414 0.950 . S
C1412 C1411 1.387 . S
C1412 C1415 1.387 . S
H1413 C1409 0.950 . S
H1414 C1411 0.950 . S
C1415 C1406 1.390 . S
C1415 H1408 0.950 . S
C1415 C1412 1.387 . S
C1416 C1417 1.387 . S
C1416 H1420 0.950 . S
C1416 C1425 1.390 . S
C1417 C1416 1.387 . S
C1417 C1419 1.387 . S
H1418 C1425 0.950 . S
C1419 C1417 1.387 . S
C1419 C1421 1.390 . S
C1419 H1423 0.950 . S
H1420 C1416 0.950 . S
C1421 C1419 1.390 . S
C1421 C1422 1.387 . S
C1421 H1424 0.950 . S
C1422 C1421 1.387 . S
C1422 C1425 1.387 . S
H1423 C1419 0.950 . S
H1424 C1421 0.950 . S
C1425 C1416 1.390 . S
C1425 H1418 0.950 . S
C1425 C1422 1.387 . S
C1426 C1427 1.387 . S
C1426 H1430 0.950 . S
C1426 C1435 1.390 . S
C1427 C1426 1.387 . S
C1427 C1429 1.387 . S
H1428 C1435 0.950 . S
C1429 C1427 1.387 . S
C1429 C1431 1.390 . S
C1429 H1433 0.950 . S
H1430 C1426 0.950 . S
C1431 C1429 1.390 . S
C1431 C1432 1.387 . S
C1431 H1434 0.950 . S
C1432 C1431 1.387 . S
C1432 C1435 1.387 . S
H1433 C1429 0.950 . S
H1434 C1431 0.950 . S
C1435 C1426 1.390 . S
C1435 H1428 0.950 . S
C1435 C1432 1.387 . S
C1436 C1437 1.387 . S
C1436 H1440 0.950 . S
C1436 C1445 1.390 . S
C1437 C1436 1.387 . S
C1437 C1439 1.387 . S
H1438 C1445 0.950 . S
C1439 C1437 1.387 . S
C1439 C1441 1.390 . S
C1439 H1443 0.950 . S
H1440 C1436 0.950 . S
C1441 C1439 1.390 . S
C1441 C1442 1.387 . S
C1441 H1444 0.950 . S
C1442 C1441 1.387 . S
C1442 C1445 1.387 . S
H1443 C1439 0.950 . S
H1444 C1441 0.950 . S
C1445 C1436 1.390 . S
C1445 H1438 0.950 . S
C1445 C1442 1.387 . S
C1446 C1447 1.387 . S
C1446 H1450 0.950 . S
C1446 C1455 1.390 . S
C1447 C1446 1.387 . S
C1447 C1449 1.387 . S
H1448 C1455 0.950 . S
C1449 C1447 1.387 . S
C1449 C1451 1.390 . S
C1449 H1453 0.950 . S
H1450 C1446 0.950 . S
C1451 C1449 1.390 . S
C1451 C1452 1.387 . S
C1451 H1454 0.950 . S
C1452 C1451 1.387 . S
C1452 C1455 1.387 . S
H1453 C1449 0.950 . S
H1454 C1451 0.950 . S
C1455 C1446 1.390 . S
C1455 H1448 0.950 . S
C1455 C1452 1.387 . S
C1456 C1457 1.387 . S
C1456 H1460 0.950 . S
C1456 C1465 1.390 . S
C1457 C1456 1.387 . S
C1457 C1459 1.387 . S
H1458 C1465 0.950 . S
C1459 C1457 1.387 . S
C1459 C1461 1.390 . S
C1459 H1463 0.950 . S
H1460 C1456 0.950 . S
C1461 C1459 1.390 . S
C1461 C1462 1.387 . S
C1461 H1464 0.950 . S
C1462 C1461 1.387 . S
C1462 C1465 1.387 . S
H1463 C1459 0.950 . S
H1464 C1461 0.950 . S
C1465 C1456 1.390 . S
C1465 H1458 0.950 . S
C1465 C1462 1.387 . S
C1466 C1467 1.387 . S
C1466 H1470 0.950 . S
C1466 C1475 1.390 . S
C1467 C1466 1.387 . S
C1467 C1469 1.387 . S
H1468 C1475 0.950 . S
C1469 C1467 1.387 . S
C1469 C1471 1.390 . S
C1469 H1473 0.950 . S
H1470 C1466 0.950 . S
C1471 C1469 1.390 . S
C1471 C1472 1.387 . S
C1471 H1474 0.950 . S
C1472 C1471 1.387 . S
C1472 C1475 1.387 . S
H1473 C1469 0.950 . S
H1474 C1471 0.950 . S
C1475 C1466 1.390 . S
C1475 H1468 0.950 . S
C1475 C1472 1.387 . S
C1476 C1477 1.387 . S
C1476 H1480 0.950 1_455 S
C1476 C1485 1.390 . S
C1477 C1476 1.387 . S
C1477 C1479 1.387 . S
H1478 C1485 0.950 1_655 S
C1479 C1477 1.387 . S
C1479 C1481 1.390 . S
C1479 H1483 0.950 . S
H1480 C1476 0.950 1_655 S
C1481 C1479 1.390 . S
C1481 C1482 1.387 . S
C1481 H1484 0.950 . S
C1482 C1481 1.387 . S
C1482 C1485 1.387 . S
H1483 C1479 0.950 . S
H1484 C1481 0.950 . S
C1485 C1476 1.390 . S
C1485 H1478 0.950 1_455 S
C1485 C1482 1.387 . S
C1486 C1487 1.387 . S
C1486 H1490 0.950 . S
C1486 C1495 1.390 . S
C1487 C1486 1.387 . S
C1487 C1489 1.387 . S
H1488 C1495 0.950 . S
C1489 C1487 1.387 . S
C1489 C1491 1.390 . S
C1489 H1493 0.950 . S
H1490 C1486 0.950 . S
C1491 C1489 1.390 . S
C1491 C1492 1.387 . S
C1491 H1494 0.950 . S
C1492 C1491 1.387 . S
C1492 C1495 1.387 . S
H1493 C1489 0.950 . S
H1494 C1491 0.950 . S
C1495 C1486 1.390 . S
C1495 H1488 0.950 . S
C1495 C1492 1.387 . S
C1496 C1497 1.387 . S
C1496 H1500 0.950 . S
C1496 C1505 1.390 . S
C1497 C1496 1.387 . S
C1497 C1499 1.387 . S
H1498 C1505 0.950 . S
C1499 C1497 1.387 . S
C1499 C1501 1.390 . S
C1499 H1503 0.950 . S
H1500 C1496 0.950 . S
C1501 C1499 1.390 . S
C1501 C1502 1.387 . S
C1501 H1504 0.950 . S
C1502 C1501 1.387 . S
C1502 C1505 1.387 . S
H1503 C1499 0.950 . S
H1504 C1501 0.950 . S
C1505 C1496 1.390 . S
C1505 H1498 0.950 . S
C1505 C1502 1.387 . S
C1506 C1507 1.387 . S
C1506 H1510 0.950 . S
C1506 C1515 1.390 . S
C1507 C1506 1.387 . S
C1507 C1509 1.387 . S
H1508 C1515 0.950 . S
C1509 C1507 1.387 . S
C1509 C1511 1.390 . S
C1509 H1513 0.950 . S
H1510 C1506 0.950 . S
C1511 C1509 1.390 . S
C1511 C1512 1.387 . S
C1511 H1514 0.950 . S
C1512 C1511 1.387 . S
C1512 C1515 1.387 . S
H1513 C1509 0.950 . S
H1514 C1511 0.950 . S
C1515 C1506 1.390 . S
C1515 H1508 0.950 . S
C1515 C1512 1.387 . S
C1516 C1517 1.387 . S
C1516 H1520 0.950 . S
C1516 C1525 1.390 . S
C1517 C1516 1.387 . S
C1517 C1519 1.387 . S
H1518 C1525 0.950 . S
C1519 C1517 1.387 . S
C1519 C1521 1.390 . S
C1519 H1523 0.950 . S
H1520 C1516 0.950 . S
C1521 C1519 1.390 . S
C1521 C1522 1.387 . S
C1521 H1524 0.950 . S
C1522 C1521 1.387 . S
C1522 C1525 1.387 . S
H1523 C1519 0.950 . S
H1524 C1521 0.950 . S
C1525 C1516 1.390 . S
C1525 H1518 0.950 . S
C1525 C1522 1.387 . S
C1526 C1527 1.387 . S
C1526 H1530 0.950 . S
C1526 C1535 1.390 . S
C1527 C1526 1.387 . S
C1527 C1529 1.387 . S
H1528 C1535 0.950 . S
C1529 C1527 1.387 . S
C1529 C1531 1.390 . S
C1529 H1533 0.950 . S
H1530 C1526 0.950 . S
C1531 C1529 1.390 . S
C1531 C1532 1.387 . S
C1531 H1534 0.950 . S
C1532 C1531 1.387 . S
C1532 C1535 1.387 . S
H1533 C1529 0.950 . S
H1534 C1531 0.950 . S
C1535 C1526 1.390 . S
C1535 H1528 0.950 . S
C1535 C1532 1.387 . S
C1536 C1537 1.387 . S
C1536 H1540 0.950 . S
C1536 C1545 1.390 . S
C1537 C1536 1.387 . S
C1537 C1539 1.387 . S
H1538 C1545 0.950 . S
C1539 C1537 1.387 . S
C1539 C1541 1.390 . S
C1539 H1543 0.950 . S
H1540 C1536 0.950 . S
C1541 C1539 1.390 . S
C1541 C1542 1.387 . S
C1541 H1544 0.950 . S
C1542 C1541 1.387 . S
C1542 C1545 1.387 . S
H1543 C1539 0.950 . S
H1544 C1541 0.950 . S
C1545 C1536 1.390 . S
C1545 H1538 0.950 . S
C1545 C1542 1.387 . S
C1546 C1547 1.387 . S
C1546 H1550 0.950 . S
C1546 C1555 1.390 . S
C1547 C1546 1.387 . S
C1547 C1549 1.387 . S
H1548 C1555 0.950 . S
C1549 C1547 1.387 . S
C1549 C1551 1.390 . S
C1549 H1553 0.950 . S
H1550 C1546 0.950 . S
C1551 C1549 1.390 . S
C1551 C1552 1.387 . S
C1551 H1554 0.950 . S
C1552 C1551 1.387 . S
C1552 C1555 1.387 . S
H1553 C1549 0.950 . S
H1554 C1551 0.950 . S
C1555 C1546 1.390 . S
C1555 H1548 0.950 . S
C1555 C1552 1.387 . S
C1556 C1557 1.387 . S
C1556 H1560 0.950 . S
C1556 C1565 1.390 . S
C1557 C1556 1.387 . S
C1557 C1559 1.387 . S
H1558 C1565 0.950 . S
C1559 C1557 1.387 . S
C1559 C1561 1.390 . S
C1559 H1563 0.950 . S
H1560 C1556 0.950 . S
C1561 C1559 1.390 . S
C1561 C1562 1.387 . S
C1561 H1564 0.950 . S
C1562 C1561 1.387 . S
C1562 C1565 1.387 . S
H1563 C1559 0.950 . S
H1564 C1561 0.950 . S
C1565 C1556 1.390 . S
C1565 H1558 0.950 . S
C1565 C1562 1.387 . S
C1566 C1567 1.387 . S
C1566 H1570 0.950 . S
C1566 C1575 1.390 . S
C1567 C1566 1.387 . S
C1567 C1569 1.387 . S
H1568 C1575 0.950 . S
C1569 C1567 1.387 . S
C1569 C1571 1.390 . S
C1569 H1573 0.950 . S
H1570 C1566 0.950 . S
C1571 C1569 1.390 . S
C1571 C1572 1.387 . S
C1571 H1574 0.950 . S
C1572 C1571 1.387 . S
C1572 C1575 1.387 . S
H1573 C1569 0.950 . S
H1574 C1571 0.950 . S
C1575 C1566 1.390 . S
C1575 H1568 0.950 . S
C1575 C1572 1.387 . S
C1576 C1577 1.387 . S
C1576 H1580 0.950 . S
C1576 C1585 1.390 . S
C1577 C1576 1.387 . S
C1577 C1579 1.387 . S
H1578 C1585 0.950 . S
C1579 C1577 1.387 . S
C1579 C1581 1.390 . S
C1579 H1583 0.950 . S
H1580 C1576 0.950 . S
C1581 C1579 1.390 . S
C1581 C1582 1.387 1_556 S
C1581 H1584 0.950 1_556 S
C1582 C1581 1.387 1_554 S
C1582 C1585 1.387 1_554 S
H1583 C1579 0.950 . S
H1584 C1581 0.950 1_554 S
C1585 C1576 1.390 . S
C1585 H1578 0.950 . S
C1585 C1582 1.387 1_556 S
C1586 C1587 1.387 . S
C1586 H1590 0.950 . S
C1586 C1595 1.390 . S
C1587 C1586 1.387 . S
C1587 C1589 1.387 . S
H1588 C1595 0.950 . S
C1589 C1587 1.387 . S
C1589 C1591 1.390 . S
C1589 H1593 0.950 . S
H1590 C1586 0.950 . S
C1591 C1589 1.390 . S
C1591 C1592 1.387 . S
C1591 H1594 0.950 . S
C1592 C1591 1.387 . S
C1592 C1595 1.387 . S
H1593 C1589 0.950 . S
H1594 C1591 0.950 . S
C1595 C1586 1.390 . S
C1595 H1588 0.950 . S
C1595 C1592 1.387 . S
C1596 C1597 1.387 . S
C1596 H1600 0.950 . S
C1596 C1605 1.390 . S
C1597 C1596 1.387 . S
C1597 C1599 1.387 . S
H1598 C1605 0.950 . S
C1599 C1597 1.387 . S
C1599 C1601 1.390 . S
C1599 H1603 0.950 . S
H1600 C1596 0.950 . S
C1601 C1599 1.390 . S
C1601 C1602 1.387 . S
C1601 H1604 0.950 . S
C1602 C1601 1.387 . S
C1602 C1605 1.387 . S
H1603 C1599 0.950 . S
H1604 C1601 0.950 . S
C1605 C1596 1.390 . S
C1605 H1598 0.950 . S
C1605 C1602 1.387 . S
C1606 C1607 1.387 . S
C1606 H1610 0.950 . S
C1606 C1615 1.390 . S
C1607 C1606 1.387 . S
C1607 C1609 1.387 . S
H1608 C1615 0.950 . S
C1609 C1607 1.387 . S
C1609 C1611 1.390 . S
C1609 H1613 0.950 . S
H1610 C1606 0.950 . S
C1611 C1609 1.390 . S
C1611 C1612 1.387 . S
C1611 H1614 0.950 . S
C1612 C1611 1.387 . S
C1612 C1615 1.387 . S
H1613 C1609 0.950 . S
H1614 C1611 0.950 . S
C1615 C1606 1.390 . S
C1615 H1608 0.950 . S
C1615 C1612 1.387 . S
C1616 C1617 1.387 . S
C1616 H1620 0.950 . S
C1616 C1625 1.390 . S
C1617 C1616 1.387 . S
C1617 C1619 1.387 . S
H1618 C1625 0.950 . S
C1619 C1617 1.387 . S
C1619 C1621 1.390 . S
C1619 H1623 0.950 . S
H1620 C1616 0.950 . S
C1621 C1619 1.390 . S
C1621 C1622 1.387 . S
C1621 H1624 0.950 . S
C1622 C1621 1.387 . S
C1622 C1625 1.387 . S
H1623 C1619 0.950 . S
H1624 C1621 0.950 . S
C1625 C1616 1.390 . S
C1625 H1618 0.950 . S
C1625 C1622 1.387 . S
C1626 C1627 1.387 . S
C1626 H1630 0.950 . S
C1626 C1635 1.390 . S
C1627 C1626 1.387 . S
C1627 C1629 1.387 . S
H1628 C1635 0.950 . S
C1629 C1627 1.387 . S
C1629 C1631 1.390 . S
C1629 H1633 0.950 . S
H1630 C1626 0.950 . S
C1631 C1629 1.390 . S
C1631 C1632 1.387 . S
C1631 H1634 0.950 . S
C1632 C1631 1.387 . S
C1632 C1635 1.387 . S
H1633 C1629 0.950 . S
H1634 C1631 0.950 . S
C1635 C1626 1.390 . S
C1635 H1628 0.950 . S
C1635 C1632 1.387 . S
C1636 C1637 1.394 . S
C1636 H1640 0.927 1_565 S
C1636 C1645 1.407 . S
C1637 C1636 1.394 . S
C1637 C1639 1.387 . S
H1638 C1645 0.950 . S
C1639 C1637 1.387 . S
C1639 C1641 1.390 . S
C1639 H1643 0.950 . S
H1640 C1636 0.927 1_545 S
C1641 C1639 1.390 . S
C1641 C1642 1.387 . S
C1641 H1644 0.950 . S
C1642 C1641 1.387 . S
C1642 C1645 1.387 . S
H1643 C1639 0.950 . S
H1644 C1641 0.950 . S
C1645 C1636 1.407 . S
C1645 H1638 0.950 . S
C1645 C1642 1.387 . S
C1646 C1647 1.387 . S
C1646 H1650 0.950 . S
C1646 C1655 1.390 . S
C1647 C1646 1.387 . S
C1647 C1649 1.387 . S
H1648 C1655 0.950 . S
C1649 C1647 1.387 . S
C1649 C1651 1.390 . S
C1649 H1653 0.950 1_554 S
H1650 C1646 0.950 . S
C1651 C1649 1.390 . S
C1651 C1652 1.387 . S
C1651 H1654 0.950 . S
C1652 C1651 1.387 . S
C1652 C1655 1.387 . S
H1653 C1649 0.950 1_556 S
H1654 C1651 0.950 . S
C1655 C1646 1.390 . S
C1655 H1648 0.950 . S
C1655 C1652 1.387 . S
C1656 C1657 1.387 . S
C1656 H1660 0.950 . S
C1656 C1665 1.390 . S
C1657 C1656 1.387 . S
C1657 C1659 1.387 . S
H1658 C1665 0.950 . S
C1659 C1657 1.387 . S
C1659 C1661 1.390 . S
C1659 H1663 0.950 . S
H1660 C1656 0.950 . S
C1661 C1659 1.390 . S
C1661 C1662 1.387 . S
C1661 H1664 0.950 . S
C1662 C1661 1.387 . S
C1662 C1665 1.387 . S
H1663 C1659 0.950 . S
H1664 C1661 0.950 . S
C1665 C1656 1.390 . S
C1665 H1658 0.950 . S
C1665 C1662 1.387 . S
C1666 C1667 1.387 . S
C1666 H1670 0.950 . S
C1666 C1675 1.390 . S
C1667 C1666 1.387 . S
C1667 C1669 1.387 . S
H1668 C1675 0.950 . S
C1669 C1667 1.387 . S
C1669 C1671 1.390 . S
C1669 H1673 0.950 . S
H1670 C1666 0.950 . S
C1671 C1669 1.390 . S
C1671 C1672 1.387 . S
C1671 H1674 0.950 . S
C1672 C1671 1.387 . S
C1672 C1675 1.387 . S
H1673 C1669 0.950 . S
H1674 C1671 0.950 . S
C1675 C1666 1.390 . S
C1675 H1668 0.950 . S
C1675 C1672 1.387 . S
C1676 C1677 1.387 . S
C1676 H1680 0.950 . S
C1676 C1685 1.390 . S
C1677 C1676 1.387 . S
C1677 C1679 1.387 . S
H1678 C1685 0.950 . S
C1679 C1677 1.387 . S
C1679 C1681 1.390 . S
C1679 H1683 0.950 . S
H1680 C1676 0.950 . S
C1681 C1679 1.390 . S
C1681 C1682 1.387 . S
C1681 H1684 0.950 . S
C1682 C1681 1.387 . S
C1682 C1685 1.387 . S
H1683 C1679 0.950 . S
H1684 C1681 0.950 . S
C1685 C1676 1.390 . S
C1685 H1678 0.950 . S
C1685 C1682 1.387 . S
C1686 C1687 1.387 . S
C1686 H1690 0.950 . S
C1686 C1695 1.390 . S
C1687 C1686 1.387 . S
C1687 C1689 1.387 . S
H1688 C1695 0.950 . S
C1689 C1687 1.387 . S
C1689 C1691 1.390 . S
C1689 H1693 0.950 . S
H1690 C1686 0.950 . S
C1691 C1689 1.390 . S
C1691 C1692 1.387 . S
C1691 H1694 0.950 . S
C1692 C1691 1.387 . S
C1692 C1695 1.387 . S
H1693 C1689 0.950 . S
H1694 C1691 0.950 . S
C1695 C1686 1.390 . S
C1695 H1688 0.950 . S
C1695 C1692 1.387 . S
C1696 C1697 1.387 . S
C1696 H1700 0.950 . S
C1696 C1705 1.390 . S
C1697 C1696 1.387 . S
C1697 C1699 1.387 . S
H1698 C1705 0.950 . S
C1699 C1697 1.387 . S
C1699 C1701 1.390 . S
C1699 H1703 0.950 . S
H1700 C1696 0.950 . S
C1701 C1699 1.390 . S
C1701 C1702 1.387 . S
C1701 H1704 0.950 . S
C1702 C1701 1.387 . S
C1702 C1705 1.387 . S
H1703 C1699 0.950 . S
H1704 C1701 0.950 . S
C1705 C1696 1.390 . S
C1705 H1698 0.950 . S
C1705 C1702 1.387 . S
C1706 C1707 1.387 . S
C1706 H1710 0.950 . S
C1706 C1715 1.390 . S
C1707 C1706 1.387 . S
C1707 C1709 1.387 . S
H1708 C1715 0.950 . S
C1709 C1707 1.387 . S
C1709 C1711 1.390 . S
C1709 H1713 0.950 . S
H1710 C1706 0.950 . S
C1711 C1709 1.390 . S
C1711 C1712 1.387 . S
C1711 H1714 0.950 . S
C1712 C1711 1.387 . S
C1712 C1715 1.387 . S
H1713 C1709 0.950 . S
H1714 C1711 0.950 . S
C1715 C1706 1.390 . S
C1715 H1708 0.950 . S
C1715 C1712 1.387 . S
C1716 C1717 1.387 . S
C1716 H1720 0.950 . S
C1716 C1725 1.390 . S
C1717 C1716 1.387 . S
C1717 C1719 1.387 . S
H1718 C1725 0.950 . S
C1719 C1717 1.387 . S
C1719 C1721 1.390 . S
C1719 H1723 0.950 . S
H1720 C1716 0.950 . S
C1721 C1719 1.390 . S
C1721 C1722 1.387 . S
C1721 H1724 0.950 . S
C1722 C1721 1.387 . S
C1722 C1725 1.387 . S
H1723 C1719 0.950 . S
H1724 C1721 0.950 . S
C1725 C1716 1.390 . S
C1725 H1718 0.950 . S
C1725 C1722 1.387 . S
C1726 C1727 1.387 . S
C1726 H1730 0.950 . S
C1726 C1735 1.390 . S
C1727 C1726 1.387 . S
C1727 C1729 1.387 . S
H1728 C1735 0.950 . S
C1729 C1727 1.387 . S
C1729 C1731 1.390 . S
C1729 H1733 0.950 . S
H1730 C1726 0.950 . S
C1731 C1729 1.390 . S
C1731 C1732 1.387 . S
C1731 H1734 0.950 . S
C1732 C1731 1.387 . S
C1732 C1735 1.387 . S
H1733 C1729 0.950 . S
H1734 C1731 0.950 . S
C1735 C1726 1.390 . S
C1735 H1728 0.950 . S
C1735 C1732 1.387 . S
C1736 C1737 1.387 . S
C1736 H1740 0.950 . S
C1736 C1745 1.390 . S
C1737 C1736 1.387 . S
C1737 C1739 1.387 1_556 S
H1738 C1745 0.950 . S
C1739 C1737 1.387 1_554 S
C1739 C1741 1.390 . S
C1739 H1743 0.950 . S
H1740 C1736 0.950 . S
C1741 C1739 1.390 . S
C1741 C1742 1.387 . S
C1741 H1744 0.950 . S
C1742 C1741 1.387 . S
C1742 C1745 1.387 1_554 S
H1743 C1739 0.950 . S
H1744 C1741 0.950 . S
C1745 C1736 1.390 . S
C1745 H1738 0.950 . S
C1745 C1742 1.387 1_556 S
C1746 C1747 1.387 . S
C1746 H1750 0.950 . S
C1746 C1755 1.390 . S
C1747 C1746 1.387 . S
C1747 C1749 1.387 . S
H1748 C1755 0.950 . S
C1749 C1747 1.387 . S
C1749 C1751 1.390 . S
C1749 H1753 0.950 . S
H1750 C1746 0.950 . S
C1751 C1749 1.390 . S
C1751 C1752 1.387 . S
C1751 H1754 0.950 . S
C1752 C1751 1.387 . S
C1752 C1755 1.387 . S
H1753 C1749 0.950 . S
H1754 C1751 0.950 . S
C1755 C1746 1.390 . S
C1755 H1748 0.950 . S
C1755 C1752 1.387 . S
C1756 C1757 1.387 1_655 S
C1756 H1760 0.950 . S
C1756 C1765 1.390 1_655 S
C1757 C1756 1.387 1_455 S
C1757 C1759 1.387 . S
H1758 C1765 0.950 1_655 S
C1759 C1757 1.387 . S
C1759 C1761 1.390 . S
C1759 H1763 0.950 . S
H1760 C1756 0.950 . S
C1761 C1759 1.390 . S
C1761 C1762 1.387 . S
C1761 H1764 0.950 . S
C1762 C1761 1.387 . S
C1762 C1765 1.387 . S
H1763 C1759 0.950 . S
H1764 C1761 0.950 . S
C1765 C1756 1.390 1_455 S
C1765 H1758 0.950 1_455 S
C1765 C1762 1.387 . S
C1766 C1767 1.387 . S
C1766 H1770 0.950 . S
C1766 C1775 1.390 . S
C1767 C1766 1.387 . S
C1767 C1769 1.387 . S
H1768 C1775 0.950 . S
C1769 C1767 1.387 . S
C1769 C1771 1.390 . S
C1769 H1773 0.950 . S
H1770 C1766 0.950 . S
C1771 C1769 1.390 . S
C1771 C1772 1.387 . S
C1771 H1774 0.950 . S
C1772 C1771 1.387 . S
C1772 C1775 1.387 . S
H1773 C1769 0.950 . S
H1774 C1771 0.950 . S
C1775 C1766 1.390 . S
C1775 H1768 0.950 . S
C1775 C1772 1.387 . S
C1776 C1777 1.387 . S
C1776 H1780 0.950 . S
C1776 C1785 1.390 . S
C1777 C1776 1.387 . S
C1777 C1779 1.387 . S
H1778 C1785 0.950 . S
C1779 C1777 1.387 . S
C1779 C1781 1.390 . S
C1779 H1783 0.950 . S
H1780 C1776 0.950 . S
C1781 C1779 1.390 . S
C1781 C1782 1.387 . S
C1781 H1784 0.950 . S
C1782 C1781 1.387 . S
C1782 C1785 1.387 . S
H1783 C1779 0.950 . S
H1784 C1781 0.950 . S
C1785 C1776 1.390 . S
C1785 H1778 0.950 . S
C1785 C1782 1.387 . S
C1786 C1787 1.387 . S
C1786 H1790 0.950 . S
C1786 C1795 1.390 . S
C1787 C1786 1.387 . S
C1787 C1789 1.387 . S
H1788 C1795 0.950 . S
C1789 C1787 1.387 . S
C1789 C1791 1.390 . S
C1789 H1793 0.950 . S
H1790 C1786 0.950 . S
C1791 C1789 1.390 . S
C1791 C1792 1.387 . S
C1791 H1794 0.950 . S
C1792 C1791 1.387 . S
C1792 C1795 1.387 . S
H1793 C1789 0.950 . S
H1794 C1791 0.950 . S
C1795 C1786 1.390 . S
C1795 H1788 0.950 . S
C1795 C1792 1.387 . S
C1796 C1797 1.387 . S
C1796 H1800 0.950 . S
C1796 C1805 1.390 . S
C1797 C1796 1.387 . S
C1797 C1799 1.387 . S
H1798 C1805 0.950 . S
C1799 C1797 1.387 . S
C1799 C1801 1.390 1_656 S
C1799 H1803 0.950 . S
H1800 C1796 0.950 . S
C1801 C1799 1.390 1_454 S
C1801 C1802 1.387 . S
C1801 H1804 0.950 . S
C1802 C1801 1.387 . S
C1802 C1805 1.387 1_454 S
H1803 C1799 0.950 . S
H1804 C1801 0.950 . S
C1805 C1796 1.390 . S
C1805 H1798 0.950 . S
C1805 C1802 1.387 1_656 S
C1806 C1807 1.387 . S
C1806 H1810 0.950 . S
C1806 C1815 1.390 . S
C1807 C1806 1.387 . S
C1807 C1809 1.387 . S
H1808 C1815 0.950 . S
C1809 C1807 1.387 . S
C1809 C1811 1.390 . S
C1809 H1813 0.950 . S
H1810 C1806 0.950 . S
C1811 C1809 1.390 . S
C1811 C1812 1.387 . S
C1811 H1814 0.950 . S
C1812 C1811 1.387 . S
C1812 C1815 1.387 . S
H1813 C1809 0.950 . S
H1814 C1811 0.950 . S
C1815 C1806 1.390 . S
C1815 H1808 0.950 . S
C1815 C1812 1.387 . S
C1816 C1817 1.387 . S
C1816 H1820 0.950 . S
C1816 C1825 1.390 . S
C1817 C1816 1.387 . S
C1817 C1819 1.387 . S
H1818 C1825 0.950 . S
C1819 C1817 1.387 . S
C1819 C1821 1.390 . S
C1819 H1823 0.950 . S
H1820 C1816 0.950 . S
C1821 C1819 1.390 . S
C1821 C1822 1.387 . S
C1821 H1824 0.950 . S
C1822 C1821 1.387 . S
C1822 C1825 1.387 . S
H1823 C1819 0.950 . S
H1824 C1821 0.950 . S
C1825 C1816 1.390 . S
C1825 H1818 0.950 . S
C1825 C1822 1.387 . S
C1826 C1827 1.387 . S
C1826 H1830 0.950 . S
C1826 C1835 1.390 . S
C1827 C1826 1.387 . S
C1827 C1829 1.387 . S
H1828 C1835 0.950 . S
C1829 C1827 1.387 . S
C1829 C1831 1.390 . S
C1829 H1833 0.950 . S
H1830 C1826 0.950 . S
C1831 C1829 1.390 . S
C1831 C1832 1.387 . S
C1831 H1834 0.950 . S
C1832 C1831 1.387 . S
C1832 C1835 1.387 . S
H1833 C1829 0.950 . S
H1834 C1831 0.950 . S
C1835 C1826 1.390 . S
C1835 H1828 0.950 . S
C1835 C1832 1.387 . S
C1836 C1837 1.387 . S
C1836 H1840 0.950 . S
C1836 C1845 1.390 . S
C1837 C1836 1.387 . S
C1837 C1839 1.387 . S
H1838 C1845 0.950 . S
C1839 C1837 1.387 . S
C1839 C1841 1.390 . S
C1839 H1843 0.950 . S
H1840 C1836 0.950 . S
C1841 C1839 1.390 . S
C1841 C1842 1.387 . S
C1841 H1844 0.950 . S
C1842 C1841 1.387 . S
C1842 C1845 1.387 . S
H1843 C1839 0.950 . S
H1844 C1841 0.950 . S
C1845 C1836 1.390 . S
C1845 H1838 0.950 . S
C1845 C1842 1.387 . S
C1846 C1847 1.387 . S
C1846 H1850 0.950 . S
C1846 C1855 1.390 . S
C1847 C1846 1.387 . S
C1847 C1849 1.387 . S
H1848 C1855 0.950 . S
C1849 C1847 1.387 . S
C1849 C1851 1.390 . S
C1849 H1853 0.950 . S
H1850 C1846 0.950 . S
C1851 C1849 1.390 . S
C1851 C1852 1.387 . S
C1851 H1854 0.950 . S
C1852 C1851 1.387 . S
C1852 C1855 1.387 . S
H1853 C1849 0.950 . S
H1854 C1851 0.950 . S
C1855 C1846 1.390 . S
C1855 H1848 0.950 . S
C1855 C1852 1.387 . S
C1856 C1857 1.387 . S
C1856 H1860 0.950 . S
C1856 C1865 1.390 . S
C1857 C1856 1.387 . S
C1857 C1859 1.387 . S
H1858 C1865 0.950 . S
C1859 C1857 1.387 . S
C1859 C1861 1.390 . S
C1859 H1863 0.950 . S
H1860 C1856 0.950 . S
C1861 C1859 1.390 . S
C1861 C1862 1.387 . S
C1861 H1864 0.950 . S
C1862 C1861 1.387 . S
C1862 C1865 1.387 . S
H1863 C1859 0.950 . S
H1864 C1861 0.950 . S
C1865 C1856 1.390 . S
C1865 H1858 0.950 . S
C1865 C1862 1.387 . S
C1866 C1867 1.387 . S
C1866 H1870 0.950 . S
C1866 C1875 1.390 . S
C1867 C1866 1.387 . S
C1867 C1869 1.387 . S
H1868 C1875 0.950 . S
C1869 C1867 1.387 . S
C1869 C1871 1.390 . S
C1869 H1873 0.950 . S
H1870 C1866 0.950 . S
C1871 C1869 1.390 . S
C1871 C1872 1.387 . S
C1871 H1874 0.950 1_565 S
C1872 C1871 1.387 . S
C1872 C1875 1.387 . S
H1873 C1869 0.950 . S
H1874 C1871 0.950 1_545 S
C1875 C1866 1.390 . S
C1875 H1868 0.950 . S
C1875 C1872 1.387 . S
C1876 C1877 1.387 . S
C1876 H1880 0.950 . S
C1876 C1885 1.390 . S
C1877 C1876 1.387 . S
C1877 C1879 1.387 . S
H1878 C1885 0.950 . S
C1879 C1877 1.387 . S
C1879 C1881 1.390 . S
C1879 H1883 0.950 . S
H1880 C1876 0.950 . S
C1881 C1879 1.390 . S
C1881 C1882 1.387 . S
C1881 H1884 0.950 . S
C1882 C1881 1.387 . S
C1882 C1885 1.387 . S
H1883 C1879 0.950 . S
H1884 C1881 0.950 . S
C1885 C1876 1.390 . S
C1885 H1878 0.950 . S
C1885 C1882 1.387 . S
C1886 C1887 1.387 . S
C1886 H1890 0.950 . S
C1886 C1895 1.390 . S
C1887 C1886 1.387 . S
C1887 C1889 1.387 . S
H1888 C1895 0.950 . S
C1889 C1887 1.387 . S
C1889 C1891 1.390 . S
C1889 H1893 0.950 . S
H1890 C1886 0.950 . S
C1891 C1889 1.390 . S
C1891 C1892 1.387 . S
C1891 H1894 0.950 . S
C1892 C1891 1.387 . S
C1892 C1895 1.387 . S
H1893 C1889 0.950 . S
H1894 C1891 0.950 . S
C1895 C1886 1.390 . S
C1895 H1888 0.950 . S
C1895 C1892 1.387 . S
C1896 C1897 1.387 . S
C1896 H1900 0.950 . S
C1896 C1905 1.390 . S
C1897 C1896 1.387 . S
C1897 C1899 1.387 . S
H1898 C1905 0.950 . S
C1899 C1897 1.387 . S
C1899 C1901 1.390 . S
C1899 H1903 0.950 . S
H1900 C1896 0.950 . S
C1901 C1899 1.390 . S
C1901 C1902 1.387 . S
C1901 H1904 0.950 . S
C1902 C1901 1.387 . S
C1902 C1905 1.387 . S
H1903 C1899 0.950 . S
H1904 C1901 0.950 . S
C1905 C1896 1.390 . S
C1905 H1898 0.950 . S
C1905 C1902 1.387 . S
C1906 C1907 1.387 . S
C1906 H1910 0.950 . S
C1906 C1915 1.390 . S
C1907 C1906 1.387 . S
C1907 C1909 1.387 . S
H1908 C1915 0.950 . S
C1909 C1907 1.387 . S
C1909 C1911 1.390 . S
C1909 H1913 0.950 . S
H1910 C1906 0.950 . S
C1911 C1909 1.390 . S
C1911 C1912 1.387 . S
C1911 H1914 0.950 . S
C1912 C1911 1.387 . S
C1912 C1915 1.387 . S
H1913 C1909 0.950 . S
H1914 C1911 0.950 . S
C1915 C1906 1.390 . S
C1915 H1908 0.950 . S
C1915 C1912 1.387 . S
C1916 C1917 1.387 . S
C1916 H1920 0.950 . S
C1916 C1925 1.390 . S
C1917 C1916 1.387 . S
C1917 C1919 1.387 . S
H1918 C1925 0.950 . S
C1919 C1917 1.387 . S
C1919 C1921 1.390 . S
C1919 H1923 0.950 . S
H1920 C1916 0.950 . S
C1921 C1919 1.390 . S
C1921 C1922 1.387 . S
C1921 H1924 0.950 . S
C1922 C1921 1.387 . S
C1922 C1925 1.387 . S
H1923 C1919 0.950 . S
H1924 C1921 0.950 . S
C1925 C1916 1.390 . S
C1925 H1918 0.950 . S
C1925 C1922 1.387 . S
C1926 C1927 1.387 . S
C1926 H1930 0.950 . S
C1926 C1935 1.390 . S
C1927 C1926 1.387 . S
C1927 C1929 1.387 . S
H1928 C1935 0.950 . S
C1929 C1927 1.387 . S
C1929 C1931 1.390 . S
C1929 H1933 0.950 . S
H1930 C1926 0.950 . S
C1931 C1929 1.390 . S
C1931 C1932 1.387 . S
C1931 H1934 0.950 . S
C1932 C1931 1.387 . S
C1932 C1935 1.387 . S
H1933 C1929 0.950 . S
H1934 C1931 0.950 . S
C1935 C1926 1.390 . S
C1935 H1928 0.950 . S
C1935 C1932 1.387 . S
C977 C106 2.787 . S
C982 C346 2.672 . S
C987 C65 2.031 . S
C992 C394 2.014 . S
C997 C79 1.774 . S
C1002 C426 1.757 . S
C1012 C471 1.522 . S
C1007 C90 1.578 . S
C1017 C21 0.787 . S
C1022 C511 0.793 . S
C1032 C546 1.236 . S
C1027 C35 1.239 . S
C1042 C585 1.451 . S
C1037 C50 1.446 . S
C1047 C6 1.326 . S
C1052 C622 1.381 . S
C1062 C354 2.552 . S
C1057 C232 2.479 1_545 S
C1067 C245 0.781 . S
C1072 C391 0.776 . S
C1082 C434 2.404 . S
C1077 C274 2.419 . S
C1092 C466 1.173 . S
C1087 C175 1.168 1_556 S
C1097 C231 1.319 . S
C1102 C506 1.305 . S
C1112 C554 0.746 . S
C1107 C246 0.746 . S
C1122 C595 2.085 . S
C1117 C273 2.033 . S
C1132 C625 2.332 . S
C1127 C176 2.280 . S
C1142 C351 2.211 . S
C1137 C160 2.078 . S
C1147 C289 2.131 . S
C1152 C674 2.119 . S
C1162 C711 1.367 . S
C1157 C328 1.320 . S
C1172 C742 1.393 . S
C1167 C317 1.533 . S
C1177 C118 2.640 . S
C1182 C635 2.693 . S
C1187 C132 1.460 . S
C1192 C431 1.457 . S
C1197 C331 1.833 . S
C1202 C794 1.845 . S
C1212 C826 2.018 . S
C1207 C303 1.983 . S
C1222 C355 2.237 . S
C1217 C63 2.297 . S
C1232 C825 2.470 . S
C1227 C107 2.415 . S
C1237 C92 1.578 . S
C1242 C435 1.600 . S
C1247 C78 1.835 . S
C1252 C782 1.779 . S
C1262 C502 1.199 . S
C1257 C8 1.164 . S
C1267 C51 1.233 . S
C1272 C715 1.312 . S
C1282 C594 1.668 . S
C1277 C37 1.673 . S
C1292 C871 1.400 . S
C1287 C20 1.372 1_655 S
C1302 C345 2.212 . S
C1297 C147 2.131 . S
C1312 C822 0.930 . S
C1307 C316 0.962 . S
C1317 C119 2.241 . S
C1322 C425 2.333 . S
C1327 C288 1.277 . S
C1332 C795 1.284 . S
C1337 C148 1.569 . S
C1342 C515 1.569 . S
C1352 C705 0.662 . S
C1347 C315 0.708 . S
C1357 C120 2.498 . S
C1362 C586 2.360 . S
C1367 C287 1.992 1_556 S
C1372 C874 2.027 . S
C1377 C188 1.987 . S
C1382 C342 2.021 . S
C1387 C177 2.447 . S
C1392 C665 2.475 . S
C1397 C258 1.244 . S
C1402 C542 1.304 . S
C1407 C247 1.292 . S
C1412 C751 1.210 . S
C1422 C866 2.608 . S
C1417 C272 2.609 . S
C1427 C216 1.450 . S
C1432 C422 1.417 . S
C1442 C465 2.088 . S
C1437 C261 2.002 . S
C1452 C395 2.182 . S
C1447 C205 2.185 . S
C1457 C76 2.367 . S
C1462 C906 2.314 . S
C1472 C834 2.076 . S
C1467 C93 2.092 . S
C1477 C105 1.426 . S
C1482 C946 1.416 . S
C1487 C62 1.575 1_655 S
C1492 C791 1.528 . S
C1497 C49 0.781 . S
C1502 C671 0.780 . S
C1512 C706 1.522 . S
C1507 C9 1.518 . S
C1522 C745 1.387 . S
C1517 C22 1.382 . S
C1532 C862 1.660 . S
C1527 C36 1.648 . S
C1542 C914 2.492 . S
C1537 C260 2.428 . S
C1547 C189 0.737 . S
C1552 C831 0.741 . S
C1562 C954 2.350 . S
C1557 C204 2.364 . S
C1572 C786 1.019 . S
C1567 C217 1.023 . S
C1582 C666 1.422 . S
C1577 C259 1.424 . S
C1587 C190 0.741 . S
C1592 C714 0.740 . S
C1602 C755 2.263 . S
C1597 C203 2.209 . S
C1607 C218 2.347 . S
C1612 C865 2.411 . S
C1622 C911 2.229 . S
C1617 C314 2.091 . S
C1627 C135 2.187 . S
C1632 C514 2.165 . S
C1642 C551 1.377 . S
C1637 C146 1.325 1_565 S
C1652 C582 1.305 . S
C1647 C163 1.416 . S
C1662 C875 2.732 . S
C1657 C300 2.688 . S
C1667 C286 1.432 . S
C1672 C951 1.434 . S
C1682 C474 1.831 . S
C1677 C149 1.809 . S
C1692 C386 1.976 . S
C1687 C121 1.956 . S
C1697 C91 2.273 . S
C1702 C915 2.228 . S
C1712 C385 2.040 . S
C1707 C77 1.948 . S
C1717 C64 1.559 . S
C1722 C955 1.593 . S
C1727 C104 1.662 . S
C1732 C462 1.600 . S
C1737 C34 0.893 . S
C1742 C662 0.913 . S
C1752 C555 1.322 . S
C1747 C23 1.225 . S
C1757 C7 1.194 . S
C1762 C754 1.322 . S
C1767 C48 1.381 . S
C1772 C631 1.398 . S
C1782 C905 2.144 . S
C1777 C329 2.071 . S
C1787 C162 0.926 . S
C1792 C382 0.903 . S
C1802 C945 2.309 . S
C1797 C301 2.232 . S
C1807 C134 1.287 . S
C1812 C475 1.304 . S
C1817 C330 1.578 . S
C1822 C675 1.578 . S
C1832 C545 0.664 . S
C1827 C161 0.698 . S
C1837 C302 2.437 . S
C1842 C746 2.318 1_655 S
C1852 C634 1.984 . S
C1847 C133 1.959 . S
C1862 C902 2.082 . S
C1857 C244 2.045 . S
C1872 C505 2.470 1_665 S
C1867 C219 2.426 . S
C1877 C230 1.148 . S
C1882 C702 1.181 . S
C1892 C591 1.330 . S
C1887 C191 1.441 . S
C1897 C202 2.803 . S
C1902 C626 2.817 . S
C1907 C174 1.548 . S
C1912 C942 1.530 . S
C1922 C785 2.120 . S
C1917 C233 2.018 . S
C1932 C835 2.128 . S
C1927 C275 2.152 . S
