# Generated by pormake.
# Topology wbl, (4,4)-cn, num edge types: 1
# Building blocks:
#     Node 0, Type 0, BuildingBlock: MUDLON_clean_sbu_0, # of connection points: 4
#     Node 1, Type 0, BuildingBlock: MUDLON_clean_sbu_0, # of connection points: 4
#     Node 2, Type 0, BuildingBlock: MUDLON_clean_sbu_0, # of connection points: 4
#     Node 3, Type 0, BuildingBlock: MUDLON_clean_sbu_0, # of connection points: 4
#     Node 4, Type 0, BuildingBlock: MUDLON_clean_sbu_0, # of connection points: 4
#     Node 5, Type 0, BuildingBlock: MUDLON_clean_sbu_0, # of connection points: 4
#     Node 6, Type 0, BuildingBlock: MUDLON_clean_sbu_0, # of connection points: 4
#     Node 7, Type 0, BuildingBlock: MUDLON_clean_sbu_0, # of connection points: 4
#     Node 8, Type 1, BuildingBlock: QUQFOY_clean_sbu_3, # of connection points: 4
#     Node 9, Type 1, BuildingBlock: QUQFOY_clean_sbu_3, # of connection points: 4
#     Node 10, Type 1, BuildingBlock: QUQFOY_clean_sbu_3, # of connection points: 4
#     Node 11, Type 1, BuildingBlock: QUQFOY_clean_sbu_3, # of connection points: 4
#     Node 12, Type 1, BuildingBlock: QUQFOY_clean_sbu_3, # of connection points: 4
#     Node 13, Type 1, BuildingBlock: QUQFOY_clean_sbu_3, # of connection points: 4
#     Node 14, Type 1, BuildingBlock: QUQFOY_clean_sbu_3, # of connection points: 4
#     Node 15, Type 1, BuildingBlock: QUQFOY_clean_sbu_3, # of connection points: 4
#     Edge 16, Type (0, 1), BuildingBlock: XUDNAN_clean_linker_2, # of connection points: 2
#     Edge 17, Type (0, 1), BuildingBlock: XUDNAN_clean_linker_2, # of connection points: 2
#     Edge 18, Type (0, 1), BuildingBlock: XUDNAN_clean_linker_2, # of connection points: 2
#     Edge 19, Type (0, 1), BuildingBlock: XUDNAN_clean_linker_2, # of connection points: 2
#     Edge 20, Type (0, 1), BuildingBlock: XUDNAN_clean_linker_2, # of connection points: 2
#     Edge 21, Type (0, 1), BuildingBlock: XUDNAN_clean_linker_2, # of connection points: 2
#     Edge 22, Type (0, 1), BuildingBlock: XUDNAN_clean_linker_2, # of connection points: 2
#     Edge 23, Type (0, 1), BuildingBlock: XUDNAN_clean_linker_2, # of connection points: 2
#     Edge 24, Type (0, 1), BuildingBlock: XUDNAN_clean_linker_2, # of connection points: 2
#     Edge 25, Type (0, 1), BuildingBlock: XUDNAN_clean_linker_2, # of connection points: 2
#     Edge 26, Type (0, 1), BuildingBlock: XUDNAN_clean_linker_2, # of connection points: 2
#     Edge 27, Type (0, 1), BuildingBlock: XUDNAN_clean_linker_2, # of connection points: 2
#     Edge 28, Type (0, 1), BuildingBlock: XUDNAN_clean_linker_2, # of connection points: 2
#     Edge 29, Type (0, 1), BuildingBlock: XUDNAN_clean_linker_2, # of connection points: 2
#     Edge 30, Type (0, 1), BuildingBlock: XUDNAN_clean_linker_2, # of connection points: 2
#     Edge 31, Type (0, 1), BuildingBlock: XUDNAN_clean_linker_2, # of connection points: 2
#     Edge 32, Type (0, 1), BuildingBlock: XUDNAN_clean_linker_2, # of connection points: 2
#     Edge 33, Type (0, 1), BuildingBlock: XUDNAN_clean_linker_2, # of connection points: 2
#     Edge 34, Type (0, 1), BuildingBlock: XUDNAN_clean_linker_2, # of connection points: 2
#     Edge 35, Type (0, 1), BuildingBlock: XUDNAN_clean_linker_2, # of connection points: 2
#     Edge 36, Type (0, 1), BuildingBlock: XUDNAN_clean_linker_2, # of connection points: 2
#     Edge 37, Type (0, 1), BuildingBlock: XUDNAN_clean_linker_2, # of connection points: 2
#     Edge 38, Type (0, 1), BuildingBlock: XUDNAN_clean_linker_2, # of connection points: 2
#     Edge 39, Type (0, 1), BuildingBlock: XUDNAN_clean_linker_2, # of connection points: 2
#     Edge 40, Type (0, 1), BuildingBlock: XUDNAN_clean_linker_2, # of connection points: 2
#     Edge 41, Type (0, 1), BuildingBlock: XUDNAN_clean_linker_2, # of connection points: 2
#     Edge 42, Type (0, 1), BuildingBlock: XUDNAN_clean_linker_2, # of connection points: 2
#     Edge 43, Type (0, 1), BuildingBlock: XUDNAN_clean_linker_2, # of connection points: 2
#     Edge 44, Type (0, 1), BuildingBlock: XUDNAN_clean_linker_2, # of connection points: 2
#     Edge 45, Type (0, 1), BuildingBlock: XUDNAN_clean_linker_2, # of connection points: 2
#     Edge 46, Type (0, 1), BuildingBlock: XUDNAN_clean_linker_2, # of connection points: 2
#     Edge 47, Type (0, 1), BuildingBlock: XUDNAN_clean_linker_2, # of connection points: 2
# Relax obj value: 0.236
# Max RMSD: 0.222
# Mean RMSD: 0.173
data_MOF--net-wbl--node1-MUDLON_clean_sbu_0--node2-QUQFOY_clean_sbu_3--edge1-XUDNAN_clean_linker_2
_symmetry_space_group_name_H-M    P1
_symmetry_Int_Tables_number       1
_symmetry_cell_setting            triclinic
loop_
_symmetry_equiv_pos_as_xyz
'x, y, z'
_cell_length_a     35.022713
_cell_length_b     35.430212
_cell_length_c     76.702591
_cell_angle_alpha  90.359601
_cell_angle_beta   90.259887
_cell_angle_gamma 89.965022
loop_
_atom_site_label
_atom_site_type_symbol
_atom_site_fract_x
_atom_site_fract_y
_atom_site_fract_z
_atom_type_partial_charge
Mg0 Mg 0.00225 -0.0011 0.34757 0.0
C1 C -0.00306 0.90726 0.36221 0.0
O2 O 0.97426 0.88354 0.35398 0.0
C3 C 0.94682 0.0522 0.33133 0.0
O4 O 0.97229 0.07577 0.33772 0.0
C5 C 0.06494 0.97468 0.32296 0.0
O6 O 0.05558 0.94132 0.32896 0.0
O7 O 0.04839 0.0039 0.32899 0.0
O8 O -0.00102 0.9411 0.35685 0.0
O9 O 0.01003 0.03373 0.37068 0.0
C10 C 0.98112 0.04844 0.37808 0.0
O11 O 0.9472 0.04402 0.37099 0.0
O12 O 0.95131 0.01694 0.33365 0.0
Mg13 Mg 0.13865 0.49957 0.59609 0.0
C14 C 0.21123 0.50222 0.61547 0.0
O15 O 0.21528 0.53111 0.60499 0.0
C16 C 0.11143 0.42426 0.57939 0.0
O17 O 0.13553 0.40775 0.59008 0.0
C18 C 0.16621 0.53893 0.56445 0.0
O19 O 0.16223 0.5043 0.5585 0.0
O20 O 0.15786 0.54611 0.58024 0.0
O21 O 0.18493 0.47853 0.6121 0.0
O22 O 0.0994 0.51582 0.61654 0.0
C23 C 0.06519 0.50392 0.61704 0.0
O24 O 0.05057 0.48721 0.60321 0.0
O25 O 0.10889 0.45998 0.57936 0.0
Mg26 Mg 0.65788 0.65348 0.84215 0.0
C27 C 0.61941 0.71111 0.8631 0.0
O28 O 0.59123 0.69011 0.85718 0.0
C29 C 0.7179 0.62315 0.81785 0.0
O30 O 0.68912 0.62283 0.80682 0.0
C31 C 0.59992 0.67898 0.81517 0.0
O32 O 0.609 0.71254 0.82125 0.0
O33 O 0.61555 0.64977 0.82159 0.0
O34 O 0.65289 0.70486 0.85742 0.0
O35 O 0.65164 0.61115 0.86229 0.0
C36 C 0.67879 0.61572 0.87318 0.0
O37 O 0.70354 0.64283 0.8703 0.0
O38 O 0.714 0.63951 0.83252 0.0
Mg39 Mg 0.51218 0.15547 0.09496 0.0
C40 C 0.55212 0.14013 0.12893 0.0
O41 O 0.51749 0.12942 0.13313 0.0
C42 C 0.49139 0.09562 0.06777 0.0
O43 O 0.50122 0.12208 0.05675 0.0
C44 C 0.56678 0.18129 0.06907 0.0
O45 O 0.57854 0.14728 0.07325 0.0
O46 O 0.53584 0.19344 0.07571 0.0
O47 O 0.55901 0.14875 0.1132 0.0
O48 O 0.46748 0.17697 0.11184 0.0
C49 C 0.44034 0.15462 0.11558 0.0
O50 O 0.43424 0.12538 0.10534 0.0
O51 O 0.49423 0.10177 0.08405 0.0
Mg52 Mg 0.16499 0.50206 0.93656 0.0
C53 C 0.15785 0.57451 0.91302 0.0
O54 O 0.12088 0.57428 0.91583 0.0
C55 C 0.0896 0.48267 0.95352 0.0
O56 O 0.09388 0.45141 0.94444 0.0
C57 C 0.21094 0.53493 0.96284 0.0
O58 O 0.18095 0.55662 0.9604 0.0
O59 O 0.21254 0.50367 0.9546 0.0
O60 O 0.17911 0.54983 0.92009 0.0
O61 O 0.15826 0.45426 0.91874 0.0
C62 C 0.1373 0.46448 0.90604 0.0
O63 O 0.1229 0.49863 0.90622 0.0
O64 O 0.1139 0.50909 0.95199 0.0
Mg65 Mg 0.65973 0.65992 0.18463 0.0
C66 C 0.62455 0.62452 0.15274 0.0
O67 O 0.65948 0.61159 0.15112 0.0
C68 C 0.67201 0.58611 0.20211 0.0
O69 O 0.66827 0.57536 0.18577 0.0
C70 C 0.62335 0.72128 0.2072 0.0
O71 O 0.62503 0.69556 0.21944 0.0
O72 O 0.6384 0.71459 0.19247 0.0
O73 O 0.61521 0.64125 0.16679 0.0
O74 O 0.70888 0.66457 0.1676 0.0
C75 C 0.73446 0.63916 0.16674 0.0
O76 O 0.73758 0.61491 0.17954 0.0
O77 O 0.66878 0.62089 0.20592 0.0
Mg78 Mg 0.49264 0.14107 0.43092 0.0
C79 C 0.50845 0.21827 0.41029 0.0
O80 O 0.50777 0.23909 0.42452 0.0
C81 C 0.43373 0.12158 0.45692 0.0
O82 O 0.46407 0.1201 0.46702 0.0
C83 C 0.56482 0.16267 0.45054 0.0
O84 O 0.56871 0.18613 0.43749 0.0
O85 O 0.53649 0.14032 0.45076 0.0
O86 O 0.50241 0.183 0.41112 0.0
O87 O 0.49175 0.09122 0.41438 0.0
C88 C 0.46455 0.09607 0.40357 0.0
O89 O 0.44367 0.12676 0.40505 0.0
O90 O 0.43646 0.13703 0.44209 0.0
Mg91 Mg 0.01757 0.98852 0.68193 0.0
C92 C 0.07415 0.96278 0.65462 0.0
O93 O 0.07219 0.93139 0.66358 0.0
C94 C 0.00279 0.04106 0.71246 0.0
O95 O 0.99288 0.00948 0.72006 0.0
C96 C 0.06722 0.94239 0.7043 0.0
O97 O 0.08975 0.97035 0.69987 0.0
O98 O 0.03309 0.94195 0.69858 0.0
O99 O 0.05623 0.9918 0.66 0.0
O100 O 0.96191 0.98537 0.66922 0.0
C101 C 0.94806 0.01801 0.66651 0.0
O102 O 0.96743 0.04766 0.67171 0.0
O103 O 0.01675 0.04016 0.69721 0.0
C104 C 0.53658 0.73276 0.04394 0.0
O105 O 0.56498 0.75002 0.03753 0.0
Cd106 Cd 0.56041 0.78677 0.01129 0.0
O107 O 0.50465 0.73201 0.03597 0.0
Cd108 Cd 0.47594 0.75203 0.00806 0.0
C109 C 0.48239 0.84303 0.02066 0.0
O110 O 0.53273 0.74611 0.99011 0.0
O111 O 0.48438 0.77255 0.97762 0.0
O112 O 0.45417 0.68728 0.00694 0.0
C113 C 0.51851 0.7608 0.97654 0.0
O114 O 0.51782 0.83973 0.01729 0.0
C115 C 0.41932 0.69474 0.00403 0.0
O116 O 0.45998 0.81474 0.01976 0.0
O117 O 0.41025 0.72946 0.00308 0.0
C118 C 0.41805 0.05144 0.23063 0.0
O119 O 0.44585 0.05465 0.2412 0.0
Cd120 Cd 0.45619 0.01182 0.26465 0.0
O121 O 0.39278 0.02599 0.23278 0.0
Cd122 Cd 0.3772 0.97708 0.25508 0.0
C123 C 0.45253 0.92646 0.24278 0.0
O124 O 0.39824 0.01184 0.28053 0.0
O125 O 0.39349 0.95185 0.2844 0.0
O126 O 0.31386 0.00374 0.25264 0.0
C127 C 0.39796 0.98443 0.29102 0.0
O128 O 0.47141 0.94981 0.25209 0.0
C129 C 0.2957 0.97316 0.25468 0.0
O130 O 0.41694 0.93089 0.23998 0.0
O131 O 0.3155 0.94317 0.25584 0.0
C132 C 0.13604 0.88944 0.4726 0.0
O133 O 0.1334 0.92241 0.4791 0.0
Cd134 Cd 0.15684 0.9421 0.50724 0.0
O135 O 0.1544 0.8635 0.48047 0.0
Cd136 Cd 0.195 0.85928 0.50717 0.0
C137 C 0.25022 0.9346 0.49649 0.0
O138 O 0.14761 0.8894 0.52563 0.0
O139 O 0.20006 0.87475 0.53865 0.0
O140 O 0.17807 0.79332 0.50293 0.0
C141 C 0.16679 0.88855 0.53963 0.0
O142 O 0.22372 0.95547 0.50247 0.0
C143 C 0.20808 0.78016 0.50994 0.0
O144 O 0.24605 0.89898 0.495 0.0
O145 O 0.2329 0.80371 0.51526 0.0
C146 C 0.25157 0.62404 0.79808 0.0
O147 O 0.2606 0.5918 0.7921 0.0
Cd148 Cd 0.28164 0.58102 0.76268 0.0
O149 O 0.25115 0.65301 0.78838 0.0
Cd150 Cd 0.26141 0.6686 0.7573 0.0
C151 C 0.35442 0.64697 0.76125 0.0
O152 O 0.23812 0.61061 0.74334 0.0
O153 O 0.27053 0.64834 0.72711 0.0
O154 O 0.20101 0.70126 0.75896 0.0
C155 C 0.25129 0.61818 0.72838 0.0
O156 O 0.34291 0.61289 0.76054 0.0
C157 C 0.21272 0.73255 0.75308 0.0
O158 O 0.33078 0.67436 0.76183 0.0
O159 O 0.24803 0.73477 0.74937 0.0
C160 C 0.91793 0.10714 0.49758 0.0
O161 O 0.90669 0.0784 0.5059 0.0
Cd162 Cd 0.86796 0.08224 0.53157 0.0
O163 O 0.91205 0.1404 0.50331 0.0
Cd164 Cd 0.88637 0.17127 0.52982 0.0
C165 C 0.79768 0.14561 0.51873 0.0
O166 O 0.89987 0.12299 0.55115 0.0
O167 O 0.85983 0.16577 0.55936 0.0
O168 O 0.94609 0.20413 0.53408 0.0
C169 C 0.87874 0.13631 0.56306 0.0
O170 O 0.80794 0.11288 0.52373 0.0
C171 C 0.93245 0.23721 0.53315 0.0
O172 O 0.8214 0.17283 0.51805 0.0
O173 O 0.89676 0.24008 0.53027 0.0
C174 C 0.00907 0.41283 0.73313 0.0
O175 O 0.04081 0.40033 0.73867 0.0
Cd176 Cd 0.04589 0.36421 0.76482 0.0
O177 O 0.9788 0.40839 0.74203 0.0
Cd178 Cd 0.96177 0.38256 0.77118 0.0
C179 C 0.97816 0.29535 0.75752 0.0
O180 O 0.0187 0.40051 0.78782 0.0
O181 O 0.98485 0.35592 0.79888 0.0
O182 O 0.92385 0.44016 0.77285 0.0
C183 C 0.01179 0.37947 0.80073 0.0
O184 O 0.01299 0.30397 0.76028 0.0
C185 C 0.89717 0.426 0.78179 0.0
O186 O 0.95189 0.32003 0.7588 0.0
O187 O 0.89946 0.39106 0.78523 0.0
C188 C 0.74027 0.51941 0.98907 0.0
O189 O 0.75329 0.54828 -0.00299 0.0
Cd190 Cd 0.77811 0.5536 0.0259 0.0
O191 O 0.73948 0.48719 -0.00358 0.0
Cd192 Cd 0.76102 0.46126 0.02516 0.0
C193 C 0.85253 0.49187 0.01902 0.0
O194 O 0.73896 0.51368 0.04232 0.0
O195 O 0.77251 0.47401 0.05687 0.0
O196 O 0.70523 0.42029 0.02646 0.0
C197 C 0.75345 0.50447 0.05679 0.0
O198 O 0.84048 0.52463 0.02315 0.0
C199 C 0.72383 0.38965 0.02764 0.0
O200 O 0.82964 0.46401 0.01738 0.0
O201 O 0.76004 0.39207 0.0273 0.0
C202 C 0.62783 0.24616 0.29625 0.0
O203 O 0.61882 0.21755 0.28706 0.0
Cd204 Cd 0.64692 0.19972 0.25993 0.0
O205 O 0.65358 0.26896 0.29117 0.0
Cd206 Cd 0.69671 0.27632 0.26565 0.0
C207 C 0.74051 0.19365 0.27439 0.0
O208 O 0.65103 0.25576 0.24359 0.0
O209 O 0.70882 0.26179 0.23472 0.0
O210 O 0.68066 0.34225 0.27067 0.0
C211 C 0.6744 0.25403 0.23107 0.0
O212 O 0.71068 0.17863 0.2678 0.0
C213 C 0.71225 0.35535 0.26546 0.0
O214 O 0.74279 0.2293 0.27671 0.0
O215 O 0.73783 0.33163 0.26118 0.0
H216 H 0.11872 0.92269 0.31311 0.0
H217 H 0.07587 0.03462 0.30128 0.0
H218 H 0.12453 0.04108 0.27832 0.0
H219 H 0.21448 0.9456 0.31014 0.0
H220 H 0.22943 0.90133 0.30067 0.0
H221 H 0.18755 0.90317 0.31409 0.0
H222 H 0.14771 0.87357 0.28894 0.0
H223 H 0.18957 0.872 0.27535 0.0
H224 H 0.14713 0.89585 0.26787 0.0
H225 H 0.18127 0.03842 0.25907 0.0
H226 H 0.24575 0.02962 0.24698 0.0
H227 H 0.253 0.91973 0.27139 0.0
C228 C 0.11913 0.94824 0.30545 0.0
C229 C 0.09344 0.97809 0.30891 0.0
C230 C 0.09533 0.01142 0.29886 0.0
C231 C 0.12262 0.01519 0.28568 0.0
C232 C 0.14779 0.98539 0.28269 0.0
C233 C 0.14647 0.95262 0.29235 0.0
C234 C 0.17952 0.92669 0.28793 0.0
C235 C 0.2042 0.91877 0.30417 0.0
C236 C 0.16511 0.88985 0.27952 0.0
C237 C 0.20057 0.95072 0.27482 0.0
C238 C 0.1812 0.98404 0.27167 0.0
C239 C 0.19643 0.01222 0.26121 0.0
C240 C 0.23309 0.00695 0.25439 0.0
C241 C 0.25425 0.9739 0.25816 0.0
C242 C 0.23714 0.94488 0.26797 0.0
H243 H 0.19692 0.6074 0.57352 0.0
H244 H 0.16333 0.53899 0.52891 0.0
H245 H 0.17931 0.59153 0.50927 0.0
H246 H 0.15926 0.69182 0.55957 0.0
H247 H 0.19751 0.72125 0.56763 0.0
H248 H 0.18778 0.67685 0.5779 0.0
H249 H 0.25781 0.65602 0.57286 0.0
H250 H 0.26777 0.70045 0.5625 0.0
H251 H 0.27726 0.65676 0.55115 0.0
H252 H 0.18792 0.65428 0.49526 0.0
H253 H 0.19304 0.72192 0.48768 0.0
H254 H 0.22713 0.74805 0.54073 0.0
C255 C 0.19352 0.60332 0.55959 0.0
C256 C 0.17872 0.56928 0.55271 0.0
C257 C 0.17473 0.56486 0.53444 0.0
C258 C 0.18382 0.59449 0.52318 0.0
C259 C 0.19773 0.62797 0.53039 0.0
C260 C 0.2032 0.63234 0.54815 0.0
C261 C 0.2166 0.67186 0.55264 0.0
C262 C 0.18861 0.69159 0.56516 0.0
C263 C 0.25728 0.67122 0.56023 0.0
C264 C 0.21588 0.6896 0.53473 0.0
C265 C 0.2051 0.66373 0.52205 0.0
C266 C 0.19759 0.67455 0.50492 0.0
C267 C 0.20049 0.7129 0.50073 0.0
C268 C 0.21145 0.73965 0.51353 0.0
C269 C 0.22016 0.72774 0.53059 0.0
H270 H 0.53744 0.72384 0.81002 0.0
H271 H 0.59465 0.62359 0.79062 0.0
H272 H 0.54137 0.61213 0.77012 0.0
H273 H 0.4491 0.68442 0.81203 0.0
H274 H 0.42222 0.72552 0.80563 0.0
H275 H 0.46819 0.73103 0.8158 0.0
H276 H 0.49138 0.77037 0.78954 0.0
H277 H 0.44529 0.76497 0.77925 0.0
H278 H 0.4879 0.75092 0.76782 0.0
H279 H 0.47938 0.60571 0.75539 0.0
H280 H 0.41077 0.60217 0.74857 0.0
H281 H 0.39143 0.7056 0.7778 0.0
C282 C 0.53921 0.70026 0.801 0.0
C283 C 0.57018 0.67478 0.80168 0.0
C284 C 0.57114 0.64346 0.79019 0.0
C285 C 0.54119 0.63694 0.77842 0.0
C286 C 0.51047 0.66195 0.77837 0.0
C287 C 0.50915 0.693 0.78936 0.0
C288 C 0.47045 0.71219 0.7885 0.0
C289 C 0.45138 0.71331 0.80656 0.0
C290 C 0.47398 0.75197 0.78082 0.0
C291 C 0.44962 0.68584 0.77606 0.0
C292 C 0.47367 0.65772 0.77001 0.0
C293 C 0.46042 0.62794 0.75974 0.0
C294 C 0.42136 0.62609 0.75601 0.0
C295 C 0.39591 0.6537 0.76261 0.0
C296 C 0.41042 0.68462 0.77227 0.0
H297 H 0.50927 0.061 0.03703 0.0
H298 H 0.44434 0.04637 0.08449 0.0
H299 H 0.42536 0.98244 0.0747 0.0
H300 H 0.44676 0.003 0.0075 0.0
H301 H 0.48738 0.9837 -0.00383 0.0
H302 H 0.48954 0.03076 0.0052 0.0
H303 H 0.55027 0.01276 0.02274 0.0
H304 H 0.54839 0.96589 0.01373 0.0
H305 H 0.54892 0.97259 0.03705 0.0
H306 H 0.41835 0.91813 0.06102 0.0
H307 H 0.43087 0.85661 0.04661 0.0
H308 H 0.50425 0.91214 0.00937 0.0
C309 C 0.4902 0.04469 0.04511 0.0
C310 C 0.47789 0.05862 0.06139 0.0
C311 C 0.45394 0.03613 0.07192 0.0
C312 C 0.44275 -3e-05 0.06639 0.0
C313 C 0.45594 0.98669 0.05037 0.0
C314 C 0.47942 0.00829 0.03995 0.0
C315 C 0.49404 0.98577 0.02455 0.0
C316 C 0.47849 0.00177 0.00734 0.0
C317 C 0.53799 0.98415 0.02454 0.0
C318 C 0.47667 0.94765 0.02839 0.0
C319 C 0.45363 0.94903 0.04297 0.0
C320 C 0.43597 0.91678 0.04947 0.0
C321 C 0.4431 0.88203 0.0412 0.0
C322 C 0.46848 0.87988 0.02694 0.0
C323 C 0.4846 0.9132 0.02023 0.0
H324 H 0.22127 0.60731 0.97371 0.0
H325 H 0.27607 0.49741 0.97324 0.0
H326 H 0.33385 0.52584 0.9867 0.0
H327 H 0.30062 0.65731 0.9604 0.0
H328 H 0.29084 0.69878 0.97337 0.0
H329 H 0.25221 0.66893 0.96626 0.0
H330 H 0.23047 0.66074 -0.00173 0.0
H331 H 0.26893 0.69084 0.0055 0.0
H332 H 0.26408 0.64407 0.01434 0.0
H333 H 0.38721 0.56753 -0.00226 0.0
H334 H 0.43259 0.61875 0.00467 0.0
H335 H 0.34282 0.70148 -0.00331 0.0
C336 C 0.245 0.5889 0.97682 0.0
C337 C 0.24408 0.55003 0.9726 0.0
C338 C 0.27612 0.5272 0.97649 0.0
C339 C 0.30896 0.5431 0.98416 0.0
C340 C 0.30917 0.58178 0.98775 0.0
C341 C 0.27796 0.60434 0.9842 0.0
C342 C 0.28643 0.64559 0.98768 0.0
C343 C 0.28229 0.66901 0.97093 0.0
C344 C 0.26097 0.66122 0.00232 0.0
C345 C 0.32764 0.64295 0.99347 0.0
C346 C 0.3401 0.60589 0.99365 0.0
C347 C 0.37765 0.59658 -0.0022 0.0
C348 C 0.40322 0.62592 0.00168 0.0
C349 C 0.39123 0.66413 0.00122 0.0
C350 C 0.35279 0.67258 -0.00273 0.0
H351 H 0.60109 0.75618 0.23759 0.0
H352 H 0.58826 0.76081 0.18132 0.0
H353 H 0.54095 0.81191 0.18447 0.0
H354 H 0.50373 0.77448 0.24855 0.0
H355 H 0.51473 0.80417 0.26707 0.0
H356 H 0.54749 0.76752 0.26058 0.0
H357 H 0.60196 0.81664 0.258 0.0
H358 H 0.56951 0.85333 0.26473 0.0
H359 H 0.59511 0.85759 0.2445 0.0
H360 H 0.49147 0.85904 0.19376 0.0
H361 H 0.45118 0.90707 0.20846 0.0
H362 H 0.5005 0.87625 0.2583 0.0
C363 C 0.58851 0.76818 0.22596 0.0
C364 C 0.59823 0.75447 0.20923 0.0
C365 C 0.58138 0.77102 0.19428 0.0
C366 C 0.55425 0.79985 0.19592 0.0
C367 C 0.54474 0.81226 0.21259 0.0
C368 C 0.56195 0.79761 0.22733 0.0
C369 C 0.54771 0.81716 0.24367 0.0
C370 C 0.5272 0.78916 0.25567 0.0
C371 C 0.58053 0.83739 0.25329 0.0
C372 C 0.51986 0.84504 0.23578 0.0
C373 C 0.51793 0.84115 0.21786 0.0
C374 C 0.49302 0.86269 0.20776 0.0
C375 C 0.47012 0.88963 0.21618 0.0
C376 C 0.4731 0.89519 0.23439 0.0
C377 C 0.49805 0.87251 0.24431 0.0
H378 H 0.40195 0.10012 0.4879 0.0
H379 H 0.39814 0.07905 0.43212 0.0
H380 H 0.356 0.02438 0.43682 0.0
H381 H 0.40079 0.00427 0.50192 0.0
H382 H 0.36926 0.0124 0.52007 0.0
H383 H 0.39991 0.04973 0.5126 0.0
H384 H 0.34147 0.09369 0.50824 0.0
H385 H 0.31084 0.05686 0.51615 0.0
H386 H 0.30176 0.0776 0.49514 0.0
H387 H 0.31844 0.96927 0.44768 0.0
H388 H 0.27466 0.92645 0.46328 0.0
H389 H 0.29714 0.98694 0.51152 0.0
C390 C 0.39167 0.0843 0.4767 0.0
C391 C 0.40312 0.0938 0.45968 0.0
C392 C 0.38927 0.07253 0.44527 0.0
C393 C 0.36577 0.04111 0.44782 0.0
C394 C 0.35587 0.03179 0.46481 0.0
C395 C 0.36732 0.05341 0.47896 0.0
C396 C 0.35046 0.03864 0.49573 0.0
C397 C 0.38199 0.02549 0.50832 0.0
C398 C 0.32458 0.06846 0.50431 0.0
C399 C 0.32763 0.0055 0.48876 0.0
C400 C 0.33213 0.00135 0.47096 0.0
C401 C 0.31444 0.97234 0.4616 0.0
C402 C 0.29003 0.94794 0.47057 0.0
C403 C 0.28299 0.95345 0.48853 0.0
C404 C 0.30252 0.98209 0.49779 0.0
H405 H 0.14204 0.92463 0.71033 0.0
H406 H 0.02638 0.88863 0.72162 0.0
H407 H 0.05186 0.8342 0.73799 0.0
H408 H 0.17838 0.83444 0.70202 0.0
H409 H 0.2247 0.84317 0.71157 0.0
H410 H 0.19759 0.88164 0.7026 0.0
H411 H 0.20206 0.91735 0.73212 0.0
H412 H 0.22924 0.87893 0.74121 0.0
H413 H 0.18608 0.89459 0.75173 0.0
H414 H 0.08947 0.78198 0.7514 0.0
H415 H 0.13626 0.73322 0.75958 0.0
H416 H 0.22772 0.80204 0.73876 0.0
C417 C 0.12207 0.90569 0.71652 0.0
C418 C 0.08223 0.91094 0.71484 0.0
C419 C 0.057 0.88512 0.7228 0.0
C420 C 0.07121 0.85428 0.73218 0.0
C421 C 0.11066 0.84967 0.73342 0.0
C422 C 0.13576 0.87457 0.72576 0.0
C423 C 0.17674 0.86154 0.72782 0.0
C424 C 0.19543 0.85479 0.70994 0.0
C425 C 0.19989 0.88979 0.73888 0.0
C426 C 0.17071 0.82487 0.73746 0.0
C427 C 0.13243 0.81894 0.74081 0.0
C428 C 0.11955 0.78642 0.74897 0.0
C429 C 0.14639 0.75886 0.75354 0.0
C430 C 0.18567 0.7638 0.7498 0.0
C431 C 0.19795 0.79757 0.7419 0.0
H432 H 0.75006 0.598 0.7873 0.0
H433 H 0.75455 0.58465 0.8435 0.0
H434 H 0.7982 0.53061 0.84002 0.0
H435 H 0.75266 0.50116 0.77567 0.0
H436 H 0.78388 0.50678 0.75725 0.0
H437 H 0.75317 0.54502 0.76388 0.0
H438 H 0.81149 0.58958 0.76692 0.0
H439 H 0.84227 0.55172 0.75993 0.0
H440 H 0.8514 0.57563 0.78035 0.0
H441 H 0.83534 0.47403 0.83043 0.0
H442 H 0.87612 0.42674 0.81564 0.0
H443 H 0.85409 0.48064 0.76602 0.0
C444 C 0.76083 0.58406 0.79885 0.0
C445 C 0.749 0.59548 0.81565 0.0
C446 C 0.76358 0.57662 0.8305 0.0
C447 C 0.78805 0.54563 0.82867 0.0
C448 C 0.79832 0.53436 0.81192 0.0
C449 C 0.7862 0.55364 0.79729 0.0
C450 C 0.80292 0.53649 0.78085 0.0
C451 C 0.77126 0.52148 0.7687 0.0
C452 C 0.82855 0.56506 0.77147 0.0
C453 C 0.82606 0.50447 0.78856 0.0
C454 C 0.82215 0.50321 0.80647 0.0
C455 C 0.83914 0.47503 0.81645 0.0
C456 C 0.86188 0.44814 0.80795 0.0
C457 C 0.86809 0.45032 0.78979 0.0
C458 C 0.84973 0.4786 0.77995 0.0
H459 H 0.55776 0.25702 0.06226 0.0
H460 H 0.63341 0.16193 0.05299 0.0
H461 H 0.67981 0.2043 0.03911 0.0
H462 H 0.58078 0.30864 0.02159 0.0
H463 H 0.57829 0.35392 0.03236 0.0
H464 H 0.54908 0.31542 0.03979 0.0
H465 H 0.57729 0.32328 0.0709 0.0
H466 H 0.60675 0.36155 0.06357 0.0
H467 H 0.62831 0.3213 0.07398 0.0
H468 H 0.7214 0.25784 0.02956 0.0
H469 H 0.7534 0.31855 0.02351 0.0
H470 H 0.65019 0.37853 0.03807 0.0
C471 C 0.58365 0.24496 0.05693 0.0
C472 C 0.59187 0.20612 0.0587 0.0
C473 C 0.62639 0.19157 0.05178 0.0
C474 C 0.65298 0.21541 0.04384 0.0
C475 C 0.64452 0.25372 0.04275 0.0
C476 C 0.61051 0.26838 0.04891 0.0
C477 C 0.60944 0.3109 0.04705 0.0
C478 C 0.5775 0.32292 0.03444 0.0
C479 C 0.60521 0.33039 0.06494 0.0
C480 C 0.64851 0.31791 0.03933 0.0
C481 C 0.66828 0.28456 0.03689 0.0
C482 C 0.70597 0.28411 0.0311 0.0
C483 C 0.72396 0.3187 0.02776 0.0
C484 C 0.70416 0.35318 0.03014 0.0
C485 C 0.66582 0.35259 0.03582 0.0
H486 H 0.91443 0.12229 0.33351 0.0
H487 H 0.90562 0.0149 0.30628 0.0
H488 H 0.85342 0.04059 0.28805 0.0
H489 H 0.81182 0.14018 0.33403 0.0
H490 H 0.8174 0.19041 0.33154 0.0
H491 H 0.85395 0.16339 0.34238 0.0
H492 H 0.9041 0.18914 0.32077 0.0
H493 H 0.86763 0.21585 0.30972 0.0
H494 H 0.89667 0.18286 0.29765 0.0
H495 H 0.80364 0.07806 0.2725 0.0
H496 H 0.75553 0.12326 0.2619 0.0
H497 H 0.79563 0.20648 0.29953 0.0
C498 C 0.90148 0.10422 0.3237 0.0
C499 C 0.91416 0.06671 0.32117 0.0
C500 C 0.89621 0.04368 0.30842 0.0
C501 C 0.86672 0.05808 0.29798 0.0
C502 C 0.85523 0.09533 0.30065 0.0
C503 C 0.8716 0.11794 0.31336 0.0
C504 C 0.85296 0.15657 0.31396 0.0
C505 C 0.83284 0.163 0.33152 0.0
C506 C 0.88209 0.18795 0.3103 0.0
C507 C 0.8243 0.15253 0.29921 0.0
C508 C 0.82604 0.11689 0.2918 0.0
C509 C 0.80192 0.10599 0.27823 0.0
C510 C 0.77471 0.1319 0.2723 0.0
C511 C 0.77188 0.1684 0.27988 0.0
C512 C 0.79743 0.17897 0.29335 0.0
H513 H 0.10725 0.34701 0.57597 0.0
H514 H 0.05399 0.45106 0.55864 0.0
H515 H 0.00493 0.41438 0.54292 0.0
H516 H 0.0876 0.29231 0.53555 0.0
H517 H 0.07868 0.24948 0.54741 0.0
H518 H 0.11182 0.28391 0.55595 0.0
H519 H 0.07365 0.28687 0.5848 0.0
H520 H 0.04034 0.25266 0.57635 0.0
H521 H 0.02337 0.29773 0.58412 0.0
H522 H 0.95735 0.3668 0.532 0.0
H523 H 0.91712 0.31113 0.52521 0.0
H524 H 0.0027 0.23834 0.54852 0.0
C525 C 0.08569 0.36208 0.56862 0.0
C526 C 0.08449 0.40191 0.56859 0.0
C527 C 0.0556 0.42054 0.55887 0.0
C528 C 0.02756 0.39997 0.54987 0.0
C529 C 0.02903 0.36076 0.55049 0.0
C530 C 0.05761 0.34197 0.55942 0.0
C531 C 0.05166 0.29969 0.55867 0.0
C532 C 0.08438 0.2802 0.5488 0.0
C533 C 0.04696 0.28329 0.57708 0.0
C534 C 0.01467 0.29778 0.54841 0.0
C535 C 0.00211 0.33328 0.54375 0.0
C536 C 0.96721 0.33877 0.53529 0.0
C537 C 0.9445 0.30708 0.53155 0.0
C538 C 0.95698 0.27049 0.53619 0.0
C539 C 0.99271 0.26592 0.54454 0.0
H540 H 0.63311 0.20053 0.45249 0.0
H541 H 0.56112 0.1221 0.48062 0.0
H542 H 0.61039 0.11671 0.50346 0.0
H543 H 0.718 0.15383 0.45923 0.0
H544 H 0.7473 0.19526 0.46202 0.0
H545 H 0.70424 0.19775 0.44924 0.0
H546 H 0.67977 0.25262 0.46868 0.0
H547 H 0.72289 0.25033 0.48156 0.0
H548 H 0.67701 0.24642 0.49195 0.0
H549 H 0.66956 0.11258 0.5208 0.0
H550 H 0.7357 0.11009 0.53182 0.0
H551 H 0.76985 0.1923 0.49324 0.0
C552 C 0.6274 0.18284 0.46364 0.0
C553 C 0.59331 0.1617 0.46477 0.0
C554 C 0.58707 0.13849 0.47945 0.0
C555 C 0.61476 0.13544 0.49256 0.0
C556 C 0.64837 0.15603 0.49088 0.0
C557 C 0.65479 0.17948 0.47688 0.0
C558 C 0.69477 0.19582 0.47748 0.0
C559 C 0.7174 0.18499 0.46102 0.0
C560 C 0.69352 0.23885 0.48008 0.0
C561 C 0.71041 0.17633 0.49352 0.0
C562 C 0.68287 0.15402 0.50119 0.0
C563 C 0.69119 0.13049 0.51516 0.0
C564 C 0.72884 0.1291 0.52126 0.0
C565 C 0.75764 0.15117 0.51342 0.0
C566 C 0.74812 0.17579 0.49967 0.0
H567 H 0.02771 0.07985 0.74129 0.0
H568 H 0.94604 0.08319 0.69875 0.0
H569 H 0.92437 0.14613 0.70837 0.0
H570 H 0.96735 0.13429 0.77335 0.0
H571 H 0.00829 0.15851 0.78229 0.0
H572 H 0.01319 0.11116 0.77383 0.0
H573 H 0.06674 0.13363 0.7531 0.0
H574 H 0.06208 0.18083 0.76153 0.0
H575 H 0.05739 0.17217 0.73843 0.0
H576 H 0.91524 0.2104 0.72095 0.0
H577 H 0.92357 0.27387 0.73403 0.0
H578 H 0.01312 0.23033 0.76757 0.0
C579 C 0.00474 0.09368 0.7343 0.0
C580 C 0.98856 0.07711 0.71928 0.0
C581 C 0.95901 0.09587 0.71018 0.0
C582 C 0.9462 0.13138 0.71567 0.0
C583 C 0.96315 0.14755 0.73036 0.0
C584 C 0.99182 0.1294 0.73956 0.0
C585 C 0.00784 0.15465 0.7538 0.0
C586 C -0.00139 0.1387 0.77189 0.0
C587 C 0.05106 0.16068 0.75156 0.0
C588 C 0.98547 0.19047 0.75039 0.0
C589 C 0.95883 0.18533 0.73726 0.0
C590 C 0.93568 0.21472 0.73139 0.0
C591 C 0.94054 0.25059 0.73889 0.0
C592 C 0.96901 0.25676 0.75172 0.0
C593 C 0.99116 0.22619 0.75776 0.0
H594 H 0.02393 0.44046 0.95569 0.0
H595 H 0.08568 0.53238 0.9807 0.0
H596 H 0.03505 0.53786 0.00276 0.0
H597 H 0.93276 0.4807 0.96033 0.0
H598 H 0.90842 0.4368 0.96432 0.0
H599 H 0.95155 0.43708 0.95168 0.0
H600 H 0.9817 0.38847 0.97276 0.0
H601 H 0.93869 0.38835 0.98559 0.0
H602 H 0.98394 0.39895 -0.00423 0.0
H603 H 0.97682 0.53685 0.02068 0.0
H604 H 0.91119 0.53363 0.03192 0.0
H605 H 0.88546 0.44296 -0.00457 0.0
C606 C 0.02696 0.46142 0.96595 0.0
C607 C 0.0588 0.48593 0.96653 0.0
C608 C 0.06149 0.51339 0.97997 0.0
C609 C 0.03306 0.51649 0.99265 0.0
C610 C 0.00205 0.49197 0.99172 0.0
C611 C -0.00144 0.46516 0.97865 0.0
C612 C 0.96061 0.44471 0.9798 0.0
C613 C 0.93694 0.45017 0.96304 0.0
C614 C 0.96661 0.40262 0.98371 0.0
C615 C 0.94287 0.46511 -0.00479 0.0
C616 C 0.96772 0.4917 0.00207 0.0
C617 C 0.95722 0.51588 0.01558 0.0
C618 C 0.91987 0.51386 0.02185 0.0
C619 C 0.89335 0.48795 0.01459 0.0
C620 C 0.90538 0.46247 0.00146 0.0
H621 H 0.70668 0.51822 0.19715 0.0
H622 H 0.65985 0.59112 0.23735 0.0
H623 H 0.67374 0.54227 0.25947 0.0
H624 H 0.67008 0.43377 0.21228 0.0
H625 H 0.71134 0.40583 0.20672 0.0
H626 H 0.70079 0.44797 0.1947 0.0
H627 H 0.76838 0.47372 0.20183 0.0
H628 H 0.77905 0.43169 0.21405 0.0
H629 H 0.78379 0.47746 0.22423 0.0
H630 H 0.68325 0.4815 0.27598 0.0
H631 H 0.69067 0.41529 0.2857 0.0
H632 H 0.73754 0.38508 0.23539 0.0
C633 C 0.69972 0.52408 0.21065 0.0
C634 C 0.68197 0.55823 0.21558 0.0
C635 C 0.67351 0.56506 0.23335 0.0
C636 C 0.6814 0.53756 0.24598 0.0
C637 C 0.69858 0.5039 0.24063 0.0
C638 C 0.70812 0.49737 0.22341 0.0
C639 C 0.72466 0.45832 0.22081 0.0
C640 C 0.70025 0.43512 0.20788 0.0
C641 C 0.76646 0.46045 0.21488 0.0
C642 C 0.72167 0.44324 0.23916 0.0
C643 C 0.70655 0.46992 0.25044 0.0
C644 C 0.69627 0.46078 0.26745 0.0
C645 C 0.70061 0.42323 0.27289 0.0
C646 C 0.71582 0.39568 0.26145 0.0
C647 C 0.7275 0.40612 0.2446 0.0
H648 H 0.05269 0.9463 0.38008 0.0
H649 H 0.99032 0.84047 0.37977 0.0
H650 H 0.02388 0.82132 0.40669 0.0
H651 H 0.14347 0.90523 0.39804 0.0
H652 H 0.15351 0.94741 0.41048 0.0
H653 H 0.1281 0.9505 0.39004 0.0
H654 H 0.07449 0.98572 0.40558 0.0
H655 H 0.09762 0.98208 0.42641 0.0
H656 H 0.04963 0.96447 0.4236 0.0
H657 H 0.06167 0.8155 0.43492 0.0
H658 H 0.09766 0.82552 0.46251 0.0
H659 H 0.13305 0.93576 0.44457 0.0
C660 C 0.04644 0.91887 0.38553 0.0
C661 C 0.01879 0.89493 0.3778 0.0
C662 C 0.01144 0.8593 0.3854 0.0
C663 C 0.03048 0.84807 0.40067 0.0
C664 C 0.05722 0.87255 0.40808 0.0
C665 C 0.06542 0.90709 0.40067 0.0
C666 C 0.0939 0.92899 0.41167 0.0
C667 C 0.132 0.93327 0.40198 0.0
C668 C 0.07786 0.96759 0.41719 0.0
C669 C 0.0982 0.90276 0.42701 0.0
C670 C 0.07797 0.86969 0.42447 0.0
C671 C 0.07772 0.84124 0.43698 0.0
C672 C 0.09821 0.84711 0.45258 0.0
C673 C 0.11767 0.88153 0.45563 0.0
C674 C 0.118 0.90936 0.44258 0.0
H675 H 0.25737 0.55742 0.62886 0.0
H676 H 0.19628 0.45575 0.64321 0.0
H677 H 0.20609 0.47134 0.67429 0.0
H678 H 0.32573 0.5596 0.66708 0.0
H679 H 0.32256 0.61031 0.6684 0.0
H680 H 0.31812 0.5868 0.64758 0.0
H681 H 0.25318 0.62018 0.64267 0.0
H682 H 0.25685 0.64304 0.66359 0.0
H683 H 0.21569 0.61446 0.65848 0.0
H684 H 0.21205 0.50378 0.70342 0.0
H685 H 0.21888 0.54776 0.72838 0.0
H686 H 0.27503 0.62857 0.69483 0.0
C687 C 0.24738 0.53756 0.6385 0.0
C688 C 0.22611 0.50531 0.63355 0.0
C689 C 0.21293 0.48048 0.64663 0.0
C690 C 0.21825 0.48918 0.66436 0.0
C691 C 0.23721 0.52251 0.66877 0.0
C692 C 0.25224 0.54596 0.6562 0.0
C693 C 0.26769 0.58207 0.66419 0.0
C694 C 0.31111 0.58484 0.66167 0.0
C695 C 0.24711 0.61697 0.65679 0.0
C696 C 0.25771 0.57595 0.68312 0.0
C697 C 0.24051 0.54129 0.68555 0.0
C698 C 0.22625 0.53063 0.70173 0.0
C699 C 0.23001 0.5559 0.71581 0.0
C700 C 0.24765 0.5915 0.71357 0.0
C701 C 0.26179 0.6014 0.697 0.0
H702 H 0.55185 0.73769 0.87562 0.0
H703 H 0.67316 0.73352 0.88704 0.0
H704 H 0.66063 0.75611 0.91695 0.0
H705 H 0.52961 0.82211 0.90551 0.0
H706 H 0.48433 0.80162 0.91127 0.0
H707 H 0.50365 0.79401 0.88978 0.0
H708 H 0.49792 0.72184 0.89415 0.0
H709 H 0.47937 0.72906 0.91569 0.0
H710 H 0.52127 0.70025 0.91258 0.0
H711 H 0.63413 0.76376 0.94681 0.0
H712 H 0.59598 0.76313 0.9738 0.0
H713 H 0.4918 0.76521 0.94307 0.0
C714 C 0.57589 0.74308 0.88421 0.0
C715 C 0.61345 0.73398 0.87902 0.0
C716 C 0.6442 0.74077 0.89066 0.0
C717 C 0.63733 0.75351 0.90771 0.0
C718 C 0.59969 0.76015 0.91274 0.0
C719 C 0.56952 0.75613 0.90119 0.0
C720 C 0.53152 0.76115 0.91029 0.0
C721 C 0.51108 0.79686 0.90383 0.0
C722 C 0.50607 0.72598 0.90805 0.0
C723 C 0.54491 0.76588 0.92896 0.0
C724 C 0.58435 0.76576 0.93007 0.0
C725 C 0.60329 0.76511 0.94608 0.0
C726 C 0.58141 0.76441 0.96133 0.0
C727 C 0.54104 0.7645 0.96045 0.0
C728 C 0.52265 0.76602 0.94408 0.0
H729 H 0.39671 0.09981 0.13064 0.0
H730 H 0.4552 0.20516 0.14202 0.0
H731 H 0.44771 0.19367 0.17347 0.0
H732 H 0.33041 0.1009 0.16956 0.0
H733 H 0.33546 0.05061 0.17214 0.0
H734 H 0.33775 0.07114 0.15072 0.0
H735 H 0.40352 0.0394 0.14596 0.0
H736 H 0.40189 0.01939 0.16741 0.0
H737 H 0.44172 0.04853 0.16125 0.0
H738 H 0.44646 0.16473 0.20296 0.0
H739 H 0.4456 0.12323 0.22869 0.0
H740 H 0.38663 0.03715 0.1985 0.0
C741 C 0.40644 0.12134 0.13969 0.0
C742 C 0.42643 0.15349 0.1338 0.0
C743 C 0.43952 0.18048 0.14616 0.0
C744 C 0.43547 0.17415 0.16409 0.0
C745 C 0.41771 0.14101 0.16945 0.0
C746 C 0.4027 0.11538 0.15762 0.0
C747 C 0.38899 0.07997 0.16666 0.0
C748 C 0.34556 0.07541 0.16465 0.0
C749 C 0.41032 0.04478 0.15992 0.0
C750 C 0.39996 0.08908 0.18533 0.0
C751 C 0.41631 0.12451 0.18667 0.0
C752 C 0.43268 0.13743 0.20219 0.0
C753 C 0.43232 0.11356 0.21669 0.0
C754 C 0.41559 0.07724 0.21561 0.0
C755 C 0.39869 0.06518 0.19979 0.0
H756 H 0.12521 0.59008 0.88158 0.0
H757 H 0.22854 0.60591 0.91199 0.0
H758 H 0.26149 0.63018 0.88596 0.0
H759 H 0.16837 0.55148 0.84688 0.0
H760 H 0.13889 0.57192 0.83007 0.0
H761 H 0.1201 0.56582 0.85161 0.0
H762 H 0.10356 0.63661 0.8538 0.0
H763 H 0.12161 0.64335 0.83206 0.0
H764 H 0.14013 0.6713 0.8499 0.0
H765 H 0.28614 0.64209 0.85608 0.0
H766 H 0.3004 0.641 0.82445 0.0
H767 H 0.18217 0.61457 0.81311 0.0
C768 C 0.15416 0.60048 0.8829 0.0
C769 C 0.17419 0.597 0.8988 0.0
C770 C 0.21264 0.60902 0.89993 0.0
C771 C 0.23153 0.62285 0.88523 0.0
C772 C 0.21157 0.62431 0.86949 0.0
C773 C 0.17361 0.61375 0.86824 0.0
C774 C 0.16038 0.61271 0.8494 0.0
C775 C 0.14614 0.57311 0.84418 0.0
C776 C 0.1296 0.6428 0.8461 0.0
C777 C 0.19721 0.6225 0.84023 0.0
C778 C 0.22619 0.62998 0.85206 0.0
C779 C 0.26351 0.63707 0.8467 0.0
C780 C 0.27141 0.63625 0.82879 0.0
C781 C 0.24223 0.62802 0.8166 0.0
C782 C 0.20469 0.62146 0.82232 0.0
H783 H 0.64964 0.62818 0.11934 0.0
H784 H 0.54744 0.63747 0.15081 0.0
H785 H 0.5116 0.66045 0.12508 0.0
H786 H 0.63823 0.71225 0.09891 0.0
H787 H 0.6567 0.69772 0.07802 0.0
H788 H 0.6722 0.6741 0.09747 0.0
H789 H 0.65092 0.60977 0.08468 0.0
H790 H 0.63586 0.63293 0.06496 0.0
H791 H 0.60268 0.60397 0.07679 0.0
H792 H 0.48893 0.68859 0.09675 0.0
H793 H 0.48168 0.72121 0.06849 0.0
H794 H 0.60061 0.69867 0.05681 0.0
C795 C 0.61934 0.63354 0.12067 0.0
C796 C 0.60106 0.63039 0.13697 0.0
C797 C 0.56175 0.63918 0.13835 0.0
C798 C 0.54123 0.65225 0.12382 0.0
C799 C 0.56058 0.6566 0.1081 0.0
C800 C 0.59877 0.64739 0.10645 0.0
C801 C 0.61427 0.65908 0.0889 0.0
C802 C 0.64728 0.68748 0.09096 0.0
C803 C 0.62665 0.62436 0.0782 0.0
C804 C 0.57918 0.67743 0.08113 0.0
C805 C 0.54825 0.67492 0.09221 0.0
C806 C 0.51287 0.69045 0.08793 0.0
C807 C 0.50905 0.70898 0.0719 0.0
C808 C 0.54067 0.7126 0.0606 0.0
C809 C 0.57608 0.69654 0.0653 0.0
H810 H 0.42393 0.112 0.37461 0.0
H811 H 0.48923 0.02233 0.39887 0.0
H812 H 0.47555 0.98083 0.3733 0.0
H813 H 0.35099 0.05447 0.35458 0.0
H814 H 0.34891 0.08336 0.33534 0.0
H815 H 0.36193 0.10411 0.35602 0.0
H816 H 0.42496 0.1291 0.34268 0.0
H817 H 0.41214 0.1086 0.32197 0.0
H818 H 0.45701 0.0965 0.3321 0.0
H819 H 0.45399 0.94987 0.34416 0.0
H820 H 0.43261 0.93525 0.31391 0.0
H821 H 0.38493 0.04774 0.30969 0.0
C822 C 0.43509 0.08349 0.37474 0.0
C823 C 0.45731 0.07018 0.38878 0.0
C824 C 0.47201 0.03296 0.38822 0.0
C825 C 0.46421 0.00923 0.37382 0.0
C826 C 0.44199 0.02344 0.36016 0.0
C827 C 0.42802 0.05991 0.36055 0.0
C828 C 0.40697 0.06987 0.34402 0.0
C829 C 0.3647 0.07844 0.34772 0.0
C830 C 0.42645 0.10295 0.33464 0.0
C831 C 0.41145 0.03343 0.33403 0.0
C832 C 0.43113 0.00659 0.34354 0.0
C833 C 0.43859 0.97076 0.33665 0.0
C834 C 0.42626 0.96263 0.31954 0.0
C835 C 0.4074 0.99053 0.30954 0.0
C836 C 0.39954 0.02601 0.31703 0.0
H837 H 0.1249 0.91146 0.64112 0.0
H838 H 0.06064 0.01239 0.62819 0.0
H839 H 0.08098 0.00637 0.59758 0.0
H840 H 0.20526 0.92968 0.61045 0.0
H841 H 0.21054 0.88023 0.60533 0.0
H842 H 0.19406 0.89465 0.62659 0.0
H843 H 0.13394 0.8529 0.62256 0.0
H844 H 0.14995 0.83872 0.60125 0.0
H845 H 0.10351 0.85994 0.60383 0.0
H846 H 0.09984 0.98424 0.56795 0.0
H847 H 0.12315 0.95176 0.54145 0.0
H848 H 0.1794 0.86787 0.57351 0.0
C849 C 0.11585 0.93276 0.63191 0.0
C850 C 0.09122 0.96241 0.63703 0.0
C851 C 0.07978 0.98963 0.62461 0.0
C852 C 0.09107 0.98638 0.60717 0.0
C853 C 0.11442 0.95621 0.60244 0.0
C854 C 0.12741 0.93032 0.61449 0.0
C855 C 0.15126 0.89983 0.60584 0.0
C856 C 0.19274 0.90119 0.61244 0.0
C857 C 0.13359 0.86054 0.60853 0.0
C858 C 0.14844 0.9119 0.58696 0.0
C859 C 0.12692 0.94443 0.58531 0.0
C860 C 0.11745 0.95926 0.56908 0.0
C861 C 0.13054 0.94051 0.55413 0.0
C862 C 0.15327 0.90765 0.55554 0.0
C863 C 0.16261 0.89338 0.57216 0.0
H864 H 0.73024 0.62614 0.8992 0.0
H865 H 0.63642 0.55358 0.88331 0.0
H866 H 0.64409 0.51719 0.91071 0.0
H867 H 0.78804 0.55466 0.92019 0.0
H868 H 0.80356 0.58665 0.93714 0.0
H869 H 0.79202 0.60443 0.91581 0.0
H870 H 0.74323 0.65095 0.92952 0.0
H871 H 0.75463 0.63337 0.95086 0.0
H872 H 0.70587 0.63289 0.94323 0.0
H873 H 0.66236 0.48996 0.94093 0.0
H874 H 0.68613 0.47791 0.97098 0.0
H875 H 0.76551 0.57104 0.96603 0.0
C876 C 0.7114 0.60239 0.9013 0.0
C877 C 0.68281 0.5926 0.88908 0.0
C878 C 0.6586 0.56151 0.8925 0.0
C879 C 0.66286 0.54066 0.90799 0.0
C880 C 0.69138 0.55138 0.91982 0.0
C881 C 0.71509 0.58167 0.91656 0.0
C882 C 0.74225 0.5892 0.93149 0.0
C883 C 0.78393 0.58337 0.92582 0.0
C884 C 0.73609 0.62894 0.93923 0.0
C885 C 0.72977 0.55893 0.94394 0.0
C886 C 0.70087 0.53683 0.937 0.0
C887 C 0.68496 0.50716 0.94643 0.0
C888 C 0.69864 0.50046 0.96345 0.0
C889 C 0.72732 0.52382 0.97084 0.0
C890 C 0.74322 0.55299 0.9608 0.0
H891 H 0.53881 0.14606 0.16392 0.0
H892 H 0.62726 0.15987 0.125 0.0
H893 H 0.66964 0.18809 0.14737 0.0
H894 H 0.55182 0.23205 0.18427 0.0
H895 H 0.54324 0.21589 0.20614 0.0
H896 H 0.52178 0.19157 0.18793 0.0
H897 H 0.55235 0.12867 0.19775 0.0
H898 H 0.57342 0.15252 0.21624 0.0
H899 H 0.6032 0.12625 0.20139 0.0
H900 H 0.70001 0.22018 0.17333 0.0
H901 H 0.71709 0.2511 0.20129 0.0
H902 H 0.60768 0.21802 0.22271 0.0
C903 C 0.56749 0.15394 0.16018 0.0
C904 C 0.57983 0.15052 0.14273 0.0
C905 C 0.61729 0.16201 0.13832 0.0
C906 C 0.64154 0.17813 0.15092 0.0
C907 C 0.6279 0.18246 0.16786 0.0
C908 C 0.59189 0.17032 0.17254 0.0
C909 C 0.58303 0.18056 0.19128 0.0
C910 C 0.5479 0.20657 0.19246 0.0
C911 C 0.5777 0.14487 0.20232 0.0
C912 C 0.61928 0.20123 0.19627 0.0
C913 C 0.645 0.20167 0.18266 0.0
C914 C 0.68024 0.21971 0.18413 0.0
C915 C 0.68962 0.2373 0.20002 0.0
C916 C 0.66369 0.237 0.21413 0.0
C917 C 0.62804 0.21887 0.21213 0.0
H918 H 0.93037 0.09461 0.39496 0.0
H919 H 0.03878 0.03749 0.40138 0.0
H920 H 0.03741 0.05099 0.43299 0.0
H921 H 0.95189 0.16982 0.42933 0.0
H922 H 0.90251 0.17157 0.43579 0.0
H923 H 0.91473 0.16133 0.41345 0.0
H924 H 0.8752 0.09968 0.41487 0.0
H925 H 0.86337 0.10932 0.43724 0.0
H926 H 0.88612 0.06537 0.43144 0.0
H927 H 0.01715 0.05886 0.46407 0.0
H928 H 0.98509 0.07071 0.49233 0.0
H929 H 0.89415 0.1301 0.46564 0.0
C930 C 0.95432 0.08593 0.40296 0.0
C931 C 0.98433 0.06414 0.39589 0.0
C932 C 0.0153 0.05352 0.40668 0.0
C933 C 0.01481 0.06127 0.42461 0.0
C934 C 0.98387 0.08119 0.43135 0.0
C935 C 0.95487 0.09464 0.42078 0.0
C936 C 0.92437 0.11442 0.43139 0.0
C937 C 0.92333 0.1568 0.42724 0.0
C938 C 0.88496 0.09608 0.42856 0.0
C939 C 0.9394 0.10762 0.44964 0.0
C940 C 0.97383 0.08848 0.44933 0.0
C941 C 0.99095 0.07503 0.46453 0.0
C942 C 0.97252 0.0816 0.48045 0.0
C943 C 0.93782 0.10187 0.48098 0.0
C944 C 0.92129 0.11543 0.46546 0.0
H945 H 0.09874 0.50632 0.64917 0.0
H946 H 0.98951 0.48975 0.62336 0.0
H947 H 0.96089 0.47152 0.65152 0.0
H948 H 0.09445 0.42675 0.67379 0.0
H949 H 0.11774 0.44612 0.69285 0.0
H950 H 0.12759 0.46537 0.67172 0.0
H951 H 0.10808 0.5319 0.68259 0.0
H952 H 0.09843 0.51296 0.70387 0.0
H953 H 0.06191 0.53885 0.69241 0.0
H954 H 0.94616 0.4485 0.68191 0.0
H955 H 0.9472 0.42054 0.7114 0.0
H956 H 0.06742 0.44822 0.71633 0.0
C957 C 0.06844 0.50027 0.64952 0.0
C958 C 0.04616 0.50005 0.63411 0.0
C959 C 0.00696 0.49056 0.63505 0.0
C960 C 0.99048 0.4802 0.65099 0.0
C961 C 0.01367 0.47933 0.66582 0.0
C962 C 0.05182 0.48923 0.6652 0.0
C963 C 0.0718 0.48157 0.68236 0.0
C964 C 0.10482 0.45327 0.68003 0.0
C965 C 0.08587 0.51853 0.69081 0.0
C966 C 0.03926 0.46463 0.69257 0.0
C967 C 0.00573 0.46437 0.68299 0.0
C968 C 0.97216 0.44893 0.68958 0.0
C969 C 0.97302 0.4331 0.70633 0.0
C970 C 0.00741 0.43212 0.7161 0.0
C971 C 0.04074 0.44847 0.70914 0.0
H972 H 0.51524 0.17976 0.37972 0.0
H973 H 0.53361 0.29047 0.40286 0.0
H974 H 0.56341 0.31173 0.37531 0.0
H975 H 0.60376 0.17476 0.35897 0.0
H976 H 0.58598 0.1492 0.34025 0.0
H977 H 0.5627 0.14446 0.36097 0.0
H978 H 0.49832 0.16473 0.34713 0.0
H979 H 0.52125 0.16925 0.32629 0.0
H980 H 0.4954 0.20863 0.33543 0.0
H981 H 0.59665 0.31826 0.34568 0.0
H982 H 0.62733 0.31027 0.31682 0.0
H983 H 0.58634 0.19479 0.31435 0.0
C984 C 0.52483 0.20877 0.37902 0.0
C985 C 0.52197 0.23352 0.39348 0.0
C986 C 0.53531 0.27107 0.39192 0.0
C987 C 0.55234 0.28333 0.37635 0.0
C988 C 0.55568 0.25765 0.36254 0.0
C989 C 0.54202 0.22121 0.36378 0.0
C990 C 0.55104 0.19802 0.34774 0.0
C991 C 0.57743 0.16466 0.35226 0.0
C992 C 0.51431 0.18439 0.33861 0.0
C993 C 0.57168 0.22716 0.33707 0.0
C994 C 0.57439 0.26136 0.34577 0.0
C995 C 0.59426 0.29172 0.3387 0.0
C996 C 0.61169 0.28689 0.32234 0.0
C997 C 0.60893 0.25202 0.31326 0.0
C998 C 0.58848 0.22201 0.32079 0.0
H999 H 0.94213 0.99056 0.63369 0.0
H1000 H 0.88772 0.06418 0.67124 0.0
H1001 H 0.8516 0.09496 0.64764 0.0
H1002 H 0.96445 0.05532 0.60663 0.0
H1003 H 0.95679 0.03107 0.58618 0.0
H1004 H 0.9666 0.00449 0.60549 0.0
H1005 H 0.90405 0.96647 0.60147 0.0
H1006 H 0.8944 0.9922 0.58172 0.0
H1007 H 0.85934 0.99107 0.59883 0.0
H1008 H 0.83644 0.12894 0.62054 0.0
H1009 H 0.84011 0.16066 0.59201 0.0
H1010 H 0.90678 0.06714 0.57171 0.0
C1011 C 0.92045 0.01121 0.63694 0.0
C1012 C 0.91665 0.02438 0.6542 0.0
C1013 C 0.88999 0.05313 0.65808 0.0
C1014 C 0.8695 0.07084 0.64473 0.0
C1015 C 0.87613 0.05944 0.62759 0.0
C1016 C 0.90041 0.02968 0.62364 0.0
C1017 C 0.90844 0.02782 0.60425 0.0
C1018 C 0.9516 0.02983 0.60044 0.0
C1019 C 0.89048 0.99228 0.59609 0.0
C1020 C 0.88789 0.063 0.59824 0.0
C1021 C 0.86833 0.08014 0.61175 0.0
C1022 C 0.85065 0.11517 0.60974 0.0
C1023 C 0.85315 0.13314 0.59354 0.0
C1024 C 0.87375 0.11632 0.5797 0.0
C1025 C 0.89064 0.08053 0.58205 0.0
H1026 H 0.13185 0.48617 0.87269 0.0
H1027 H 0.12084 0.38844 0.90593 0.0
H1028 H 0.0927 0.35227 0.88113 0.0
H1029 H 0.04515 0.47736 0.85198 0.0
H1030 H 0.06197 0.49405 0.83123 0.0
H1031 H 0.08554 0.50859 0.851 0.0
H1032 H 0.14996 0.48308 0.83836 0.0
H1033 H 0.12539 0.46817 0.81881 0.0
H1034 H 0.1528 0.4346 0.83124 0.0
H1035 H 0.05496 0.33178 0.85407 0.0
H1036 H 0.01792 0.32636 0.82656 0.0
H1037 H 0.05724 0.43729 0.81128 0.0
C1038 C 0.12461 0.45675 0.87459 0.0
C1039 C 0.12852 0.43984 0.89107 0.0
C1040 C 0.11848 0.40154 0.89325 0.0
C1041 C 0.10234 0.38097 0.87928 0.0
C1042 C 0.09735 0.39911 0.86329 0.0
C1043 C 0.10901 0.43596 0.86084 0.0
C1044 C 0.09805 0.45034 0.84302 0.0
C1045 C 0.07109 0.48459 0.84439 0.0
C1046 C 0.13368 0.45958 0.83222 0.0
C1047 C 0.07741 0.41626 0.83585 0.0
C1048 C 0.07707 0.38693 0.84768 0.0
C1049 C 0.05596 0.35418 0.84456 0.0
C1050 C 0.03482 0.35146 0.82897 0.0
C1051 C 0.0352 0.38124 0.81674 0.0
C1052 C 0.05715 0.41372 0.8202 0.0
H1053 H 0.76357 0.57109 0.15601 0.0
H1054 H 0.73604 0.68366 0.13778 0.0
H1055 H 0.74366 0.66198 0.1074 0.0
H1056 H 0.83274 0.54563 0.1202 0.0
H1057 H 0.81564 0.49766 0.1195 0.0
H1058 H 0.81532 0.52371 0.13977 0.0
H1059 H 0.74309 0.50998 0.14287 0.0
H1060 H 0.74283 0.48471 0.12246 0.0
H1061 H 0.71078 0.52392 0.12571 0.0
H1062 H 0.74192 0.62615 0.07954 0.0
H1063 H 0.73958 0.57999 0.05543 0.0
H1064 H 0.76957 0.49032 0.09129 0.0
C1065 C 0.76084 0.59163 0.14568 0.0
C1066 C 0.74947 0.6292 0.1493 0.0
C1067 C 0.74504 0.65486 0.13534 0.0
C1068 C 0.74915 0.64276 0.11803 0.0
C1069 C 0.7581 0.60502 0.1149 0.0
C1070 C 0.76471 0.57996 0.12831 0.0
C1071 C 0.77044 0.54016 0.12137 0.0
C1072 C 0.81096 0.52596 0.12545 0.0
C1073 C 0.73997 0.51312 0.12853 0.0
C1074 C 0.76494 0.54663 0.10201 0.0
C1075 C 0.75785 0.58427 0.0986 0.0
C1076 C 0.74846 0.59678 0.08196 0.0
C1077 C 0.74687 0.57025 0.06838 0.0
C1078 C 0.75478 0.53164 0.07147 0.0
C1079 C 0.76407 0.51977 0.08852 0.0
loop_
_geom_bond_atom_site_label_1
_geom_bond_atom_site_label_2
_geom_bond_distance
_geom_bond_site_symmetry_2
_ccdc_geom_bond_type
Mg0 O7 2.141 . S
Mg0 O8 2.048 1_545 S
Mg0 O9 2.048 1_455 S
Mg0 O12 2.141 1_455 S
C1 O2 1.313 . S
C1 O8 1.195 . S
O2 C1 1.313 . S
C3 O4 1.245 . S
C3 O12 1.289 . S
O4 C3 1.245 . S
C5 O6 1.245 . S
C5 O7 1.289 1_565 S
O6 C5 1.245 . S
O7 Mg0 2.141 . S
O7 C5 1.289 1_545 S
O8 Mg0 2.048 1_565 S
O8 C1 1.195 . S
O9 Mg0 2.048 1_655 S
O9 C10 1.195 . S
C10 O9 1.195 . S
C10 O11 1.313 1_545 S
O11 C10 1.313 1_565 S
O12 Mg0 2.141 1_655 S
O12 C3 1.289 . S
Mg13 O20 2.141 . S
Mg13 O21 2.048 . S
Mg13 O22 2.048 . S
Mg13 O25 2.141 . S
C14 O15 1.313 . S
C14 O21 1.195 . S
O15 C14 1.313 . S
C16 O17 1.245 . S
C16 O25 1.289 . S
O17 C16 1.245 . S
C18 O19 1.245 . S
C18 O20 1.289 . S
O19 C18 1.245 . S
O20 Mg13 2.141 . S
O20 C18 1.289 . S
O21 Mg13 2.048 . S
O21 C14 1.195 . S
O22 Mg13 2.048 . S
O22 C23 1.195 . S
C23 O22 1.195 . S
C23 O24 1.313 . S
O24 C23 1.313 . S
O25 Mg13 2.141 . S
O25 C16 1.289 . S
Mg26 O33 2.141 . S
Mg26 O34 2.048 . S
Mg26 O35 2.048 . S
Mg26 O38 2.141 . S
C27 O28 1.313 . S
C27 O34 1.195 . S
O28 C27 1.313 . S
C29 O30 1.245 . S
C29 O38 1.289 . S
O30 C29 1.245 . S
C31 O32 1.245 . S
C31 O33 1.289 . S
O32 C31 1.245 . S
O33 Mg26 2.141 . S
O33 C31 1.289 . S
O34 Mg26 2.048 . S
O34 C27 1.195 . S
O35 Mg26 2.048 . S
O35 C36 1.195 . S
C36 O35 1.195 . S
C36 O37 1.313 . S
O37 C36 1.313 . S
O38 Mg26 2.141 . S
O38 C29 1.289 . S
Mg39 O46 2.141 . S
Mg39 O47 2.048 . S
Mg39 O48 2.048 . S
Mg39 O51 2.141 . S
C40 O41 1.313 . S
C40 O47 1.195 . S
O41 C40 1.313 . S
C42 O43 1.245 . S
C42 O51 1.289 . S
O43 C42 1.245 . S
C44 O45 1.245 . S
C44 O46 1.289 . S
O45 C44 1.245 . S
O46 Mg39 2.141 . S
O46 C44 1.289 . S
O47 Mg39 2.048 . S
O47 C40 1.195 . S
O48 Mg39 2.048 . S
O48 C49 1.195 . S
C49 O48 1.195 . S
C49 O50 1.313 . S
O50 C49 1.313 . S
O51 Mg39 2.141 . S
O51 C42 1.289 . S
Mg52 O59 2.141 . S
Mg52 O60 2.048 . S
Mg52 O61 2.048 . S
Mg52 O64 2.141 . S
C53 O54 1.313 . S
C53 O60 1.195 . S
O54 C53 1.313 . S
C55 O56 1.245 . S
C55 O64 1.289 . S
O56 C55 1.245 . S
C57 O58 1.245 . S
C57 O59 1.289 . S
O58 C57 1.245 . S
O59 Mg52 2.141 . S
O59 C57 1.289 . S
O60 Mg52 2.048 . S
O60 C53 1.195 . S
O61 Mg52 2.048 . S
O61 C62 1.195 . S
C62 O61 1.195 . S
C62 O63 1.313 . S
O63 C62 1.313 . S
O64 Mg52 2.141 . S
O64 C55 1.289 . S
Mg65 O72 2.141 . S
Mg65 O73 2.048 . S
Mg65 O74 2.048 . S
Mg65 O77 2.141 . S
C66 O67 1.313 . S
C66 O73 1.195 . S
O67 C66 1.313 . S
C68 O69 1.245 . S
C68 O77 1.289 . S
O69 C68 1.245 . S
C70 O71 1.245 . S
C70 O72 1.289 . S
O71 C70 1.245 . S
O72 Mg65 2.141 . S
O72 C70 1.289 . S
O73 Mg65 2.048 . S
O73 C66 1.195 . S
O74 Mg65 2.048 . S
O74 C75 1.195 . S
C75 O74 1.195 . S
C75 O76 1.313 . S
O76 C75 1.313 . S
O77 Mg65 2.141 . S
O77 C68 1.289 . S
Mg78 O85 2.141 . S
Mg78 O86 2.048 . S
Mg78 O87 2.048 . S
Mg78 O90 2.141 . S
C79 O80 1.313 . S
C79 O86 1.195 . S
O80 C79 1.313 . S
C81 O82 1.245 . S
C81 O90 1.289 . S
O82 C81 1.245 . S
C83 O84 1.245 . S
C83 O85 1.289 . S
O84 C83 1.245 . S
O85 Mg78 2.141 . S
O85 C83 1.289 . S
O86 Mg78 2.048 . S
O86 C79 1.195 . S
O87 Mg78 2.048 . S
O87 C88 1.195 . S
C88 O87 1.195 . S
C88 O89 1.313 . S
O89 C88 1.313 . S
O90 Mg78 2.141 . S
O90 C81 1.289 . S
Mg91 O98 2.141 . S
Mg91 O99 2.048 . S
Mg91 O100 2.048 1_465 S
Mg91 O103 2.141 1_465 S
C92 O93 1.313 . S
C92 O99 1.195 . S
O93 C92 1.313 . S
C94 O95 1.245 1_655 S
C94 O103 1.289 . S
O95 C94 1.245 1_455 S
C96 O97 1.245 . S
C96 O98 1.289 . S
O97 C96 1.245 . S
O98 Mg91 2.141 . S
O98 C96 1.289 . S
O99 Mg91 2.048 . S
O99 C92 1.195 . S
O100 Mg91 2.048 1_645 S
O100 C101 1.195 . S
C101 O100 1.195 . S
C101 O102 1.313 1_655 S
O102 C101 1.313 1_455 S
O103 Mg91 2.141 1_645 S
O103 C94 1.289 . S
C104 O105 1.306 . S
C104 O107 1.160 . S
O105 C104 1.306 . S
O105 Cd106 2.228 . S
Cd106 O105 2.228 . S
Cd106 O110 2.273 1_554 S
Cd106 O114 2.277 . S
O107 C104 1.160 . S
O107 Cd108 2.203 . S
Cd108 O107 2.203 . S
Cd108 O110 2.411 1_554 S
Cd108 O111 2.333 1_554 S
Cd108 O112 2.352 . S
Cd108 O116 2.277 . S
Cd108 O117 2.356 . S
C109 O114 1.209 . S
C109 O116 1.226 . S
O110 Cd106 2.273 1_556 S
O110 Cd108 2.411 1_556 S
O110 C113 1.320 . S
O111 Cd108 2.333 1_556 S
O111 C113 1.214 . S
O112 Cd108 2.352 . S
O112 C115 1.258 . S
C113 O110 1.320 . S
C113 O111 1.214 . S
O114 Cd106 2.277 . S
O114 C109 1.209 . S
C115 O112 1.258 . S
C115 O117 1.282 . S
O116 Cd108 2.277 . S
O116 C109 1.226 . S
O117 Cd108 2.356 . S
O117 C115 1.282 . S
C118 O119 1.306 . S
C118 O121 1.160 . S
O119 C118 1.306 . S
O119 Cd120 2.228 . S
Cd120 O119 2.228 . S
Cd120 O124 2.273 . S
Cd120 O128 2.277 . S
O121 C118 1.160 . S
O121 Cd122 2.203 . S
Cd122 O121 2.203 . S
Cd122 O124 2.411 . S
Cd122 O125 2.333 . S
Cd122 O126 2.352 . S
Cd122 O130 2.277 . S
Cd122 O131 2.356 . S
C123 O128 1.209 . S
C123 O130 1.226 . S
O124 Cd120 2.273 . S
O124 Cd122 2.411 . S
O124 C127 1.320 . S
O125 Cd122 2.333 . S
O125 C127 1.214 . S
O126 Cd122 2.352 . S
O126 C129 1.258 . S
C127 O124 1.320 . S
C127 O125 1.214 . S
O128 Cd120 2.277 . S
O128 C123 1.209 . S
C129 O126 1.258 . S
C129 O131 1.282 . S
O130 Cd122 2.277 . S
O130 C123 1.226 . S
O131 Cd122 2.356 . S
O131 C129 1.282 . S
C132 O133 1.306 . S
C132 O135 1.160 . S
O133 C132 1.306 . S
O133 Cd134 2.228 . S
Cd134 O133 2.228 . S
Cd134 O138 2.273 . S
Cd134 O142 2.277 . S
O135 C132 1.160 . S
O135 Cd136 2.203 . S
Cd136 O135 2.203 . S
Cd136 O138 2.411 . S
Cd136 O139 2.333 . S
Cd136 O140 2.352 . S
Cd136 O144 2.277 . S
Cd136 O145 2.356 . S
C137 O142 1.209 . S
C137 O144 1.226 . S
O138 Cd134 2.273 . S
O138 Cd136 2.411 . S
O138 C141 1.320 . S
O139 Cd136 2.333 . S
O139 C141 1.214 . S
O140 Cd136 2.352 . S
O140 C143 1.258 . S
C141 O138 1.320 . S
C141 O139 1.214 . S
O142 Cd134 2.277 . S
O142 C137 1.209 . S
C143 O140 1.258 . S
C143 O145 1.282 . S
O144 Cd136 2.277 . S
O144 C137 1.226 . S
O145 Cd136 2.356 . S
O145 C143 1.282 . S
C146 O147 1.306 . S
C146 O149 1.160 . S
O147 C146 1.306 . S
O147 Cd148 2.228 . S
Cd148 O147 2.228 . S
Cd148 O152 2.273 . S
Cd148 O156 2.277 . S
O149 C146 1.160 . S
O149 Cd150 2.203 . S
Cd150 O149 2.203 . S
Cd150 O152 2.411 . S
Cd150 O153 2.333 . S
Cd150 O154 2.352 . S
Cd150 O158 2.277 . S
Cd150 O159 2.356 . S
C151 O156 1.209 . S
C151 O158 1.226 . S
O152 Cd148 2.273 . S
O152 Cd150 2.411 . S
O152 C155 1.320 . S
O153 Cd150 2.333 . S
O153 C155 1.214 . S
O154 Cd150 2.352 . S
O154 C157 1.258 . S
C155 O152 1.320 . S
C155 O153 1.214 . S
O156 Cd148 2.277 . S
O156 C151 1.209 . S
C157 O154 1.258 . S
C157 O159 1.282 . S
O158 Cd150 2.277 . S
O158 C151 1.226 . S
O159 Cd150 2.356 . S
O159 C157 1.282 . S
C160 O161 1.306 . S
C160 O163 1.160 . S
O161 C160 1.306 . S
O161 Cd162 2.228 . S
Cd162 O161 2.228 . S
Cd162 O166 2.273 . S
Cd162 O170 2.277 . S
O163 C160 1.160 . S
O163 Cd164 2.203 . S
Cd164 O163 2.203 . S
Cd164 O166 2.411 . S
Cd164 O167 2.333 . S
Cd164 O168 2.352 . S
Cd164 O172 2.277 . S
Cd164 O173 2.356 . S
C165 O170 1.209 . S
C165 O172 1.226 . S
O166 Cd162 2.273 . S
O166 Cd164 2.411 . S
O166 C169 1.320 . S
O167 Cd164 2.333 . S
O167 C169 1.214 . S
O168 Cd164 2.352 . S
O168 C171 1.258 . S
C169 O166 1.320 . S
C169 O167 1.214 . S
O170 Cd162 2.277 . S
O170 C165 1.209 . S
C171 O168 1.258 . S
C171 O173 1.282 . S
O172 Cd164 2.277 . S
O172 C165 1.226 . S
O173 Cd164 2.356 . S
O173 C171 1.282 . S
C174 O175 1.306 1_655 S
C174 O177 1.160 . S
O175 C174 1.306 1_455 S
O175 Cd176 2.228 . S
Cd176 O175 2.228 . S
Cd176 O180 2.273 1_455 S
Cd176 O184 2.277 1_455 S
O177 C174 1.160 . S
O177 Cd178 2.203 . S
Cd178 O177 2.203 . S
Cd178 O180 2.411 . S
Cd178 O181 2.333 . S
Cd178 O182 2.352 . S
Cd178 O186 2.277 . S
Cd178 O187 2.356 . S
C179 O184 1.209 . S
C179 O186 1.226 . S
O180 Cd176 2.273 1_655 S
O180 Cd178 2.411 . S
O180 C183 1.320 . S
O181 Cd178 2.333 . S
O181 C183 1.214 . S
O182 Cd178 2.352 . S
O182 C185 1.258 . S
C183 O180 1.320 . S
C183 O181 1.214 . S
O184 Cd176 2.277 1_655 S
O184 C179 1.209 . S
C185 O182 1.258 . S
C185 O187 1.282 . S
O186 Cd178 2.277 . S
O186 C179 1.226 . S
O187 Cd178 2.356 . S
O187 C185 1.282 . S
C188 O189 1.306 1_556 S
C188 O191 1.160 1_556 S
O189 C188 1.306 1_554 S
O189 Cd190 2.228 . S
Cd190 O189 2.228 . S
Cd190 O194 2.273 . S
Cd190 O198 2.277 . S
O191 C188 1.160 1_554 S
O191 Cd192 2.203 . S
Cd192 O191 2.203 . S
Cd192 O194 2.411 . S
Cd192 O195 2.333 . S
Cd192 O196 2.352 . S
Cd192 O200 2.277 . S
Cd192 O201 2.356 . S
C193 O198 1.209 . S
C193 O200 1.226 . S
O194 Cd190 2.273 . S
O194 Cd192 2.411 . S
O194 C197 1.320 . S
O195 Cd192 2.333 . S
O195 C197 1.214 . S
O196 Cd192 2.352 . S
O196 C199 1.258 . S
C197 O194 1.320 . S
C197 O195 1.214 . S
O198 Cd190 2.277 . S
O198 C193 1.209 . S
C199 O196 1.258 . S
C199 O201 1.282 . S
O200 Cd192 2.277 . S
O200 C193 1.226 . S
O201 Cd192 2.356 . S
O201 C199 1.282 . S
C202 O203 1.306 . S
C202 O205 1.160 . S
O203 C202 1.306 . S
O203 Cd204 2.228 . S
Cd204 O203 2.228 . S
Cd204 O208 2.273 . S
Cd204 O212 2.277 . S
O205 C202 1.160 . S
O205 Cd206 2.203 . S
Cd206 O205 2.203 . S
Cd206 O208 2.411 . S
Cd206 O209 2.333 . S
Cd206 O210 2.352 . S
Cd206 O214 2.277 . S
Cd206 O215 2.356 . S
C207 O212 1.209 . S
C207 O214 1.226 . S
O208 Cd204 2.273 . S
O208 Cd206 2.411 . S
O208 C211 1.320 . S
O209 Cd206 2.333 . S
O209 C211 1.214 . S
O210 Cd206 2.352 . S
O210 C213 1.258 . S
C211 O208 1.320 . S
C211 O209 1.214 . S
O212 Cd204 2.277 . S
O212 C207 1.209 . S
C213 O210 1.258 . S
C213 O215 1.282 . S
O214 Cd206 2.277 . S
O214 C207 1.226 . S
O215 Cd206 2.356 . S
O215 C213 1.282 . S
H216 C228 0.930 . S
H217 C230 0.930 1_545 S
H218 C231 0.930 . S
H219 C235 0.959 . S
H220 C235 0.959 . S
H221 C235 0.961 . S
H222 C236 0.960 . S
H223 C236 0.961 . S
H224 C236 0.959 . S
H225 C239 0.929 1_545 S
H226 C240 0.931 . S
H227 C242 0.930 . S
C228 H216 0.930 . S
C228 C229 1.399 . S
C228 C233 1.399 . S
C229 C228 1.399 . S
C229 C230 1.377 . S
C230 H217 0.930 1_565 S
C230 C229 1.377 . S
C230 C231 1.388 1_565 S
C231 H218 0.930 . S
C231 C230 1.388 1_545 S
C231 C232 1.390 1_545 S
C232 C231 1.390 1_565 S
C232 C233 1.394 . S
C232 C238 1.465 . S
C233 C228 1.399 . S
C233 C232 1.394 . S
C233 C234 1.516 . S
C234 C233 1.516 . S
C234 C235 1.502 . S
C234 C236 1.561 . S
C234 C237 1.526 . S
C235 H219 0.959 . S
C235 H220 0.959 . S
C235 H221 0.961 . S
C235 C234 1.502 . S
C236 H222 0.960 . S
C236 H223 0.961 . S
C236 H224 0.959 . S
C236 C234 1.561 . S
C237 C234 1.526 . S
C237 C238 1.396 . S
C237 C242 1.390 . S
C238 C232 1.465 . S
C238 C237 1.396 . S
C238 C239 1.399 . S
C239 H225 0.929 1_565 S
C239 C238 1.399 . S
C239 C240 1.385 . S
C240 H226 0.931 . S
C240 C239 1.385 . S
C240 C241 1.389 . S
C241 C240 1.389 . S
C241 C242 1.387 . S
C242 H227 0.930 . S
C242 C237 1.390 . S
C242 C241 1.387 . S
H243 C255 0.930 . S
H244 C257 0.930 . S
H245 C258 0.930 . S
H246 C262 0.959 . S
H247 C262 0.959 . S
H248 C262 0.961 . S
H249 C263 0.960 . S
H250 C263 0.961 . S
H251 C263 0.959 . S
H252 C266 0.929 . S
H253 C267 0.931 . S
H254 C269 0.930 . S
C255 H243 0.930 . S
C255 C256 1.399 . S
C255 C260 1.399 . S
C256 C255 1.399 . S
C256 C257 1.376 . S
C257 H244 0.930 . S
C257 C256 1.376 . S
C257 C258 1.388 . S
C258 H245 0.930 . S
C258 C257 1.388 . S
C258 C259 1.390 . S
C259 C258 1.390 . S
C259 C260 1.394 . S
C259 C265 1.465 . S
C260 C255 1.399 . S
C260 C259 1.394 . S
C260 C261 1.516 . S
C261 C260 1.516 . S
C261 C262 1.502 . S
C261 C263 1.561 . S
C261 C264 1.526 . S
C262 H246 0.959 . S
C262 H247 0.959 . S
C262 H248 0.961 . S
C262 C261 1.502 . S
C263 H249 0.960 . S
C263 H250 0.961 . S
C263 H251 0.959 . S
C263 C261 1.561 . S
C264 C261 1.526 . S
C264 C265 1.396 . S
C264 C269 1.390 . S
C265 C259 1.465 . S
C265 C264 1.396 . S
C265 C266 1.399 . S
C266 H252 0.929 . S
C266 C265 1.399 . S
C266 C267 1.385 . S
C267 H253 0.931 . S
C267 C266 1.385 . S
C267 C268 1.389 . S
C268 C267 1.389 . S
C268 C269 1.387 . S
C269 H254 0.930 . S
C269 C264 1.390 . S
C269 C268 1.387 . S
H270 C282 0.930 . S
H271 C284 0.930 . S
H272 C285 0.930 . S
H273 C289 0.959 . S
H274 C289 0.959 . S
H275 C289 0.961 . S
H276 C290 0.960 . S
H277 C290 0.961 . S
H278 C290 0.959 . S
H279 C293 0.929 . S
H280 C294 0.931 . S
H281 C296 0.930 . S
C282 H270 0.930 . S
C282 C283 1.399 . S
C282 C287 1.399 . S
C283 C282 1.399 . S
C283 C284 1.376 . S
C284 H271 0.930 . S
C284 C283 1.376 . S
C284 C285 1.388 . S
C285 H272 0.930 . S
C285 C284 1.388 . S
C285 C286 1.390 . S
C286 C285 1.390 . S
C286 C287 1.394 . S
C286 C292 1.465 . S
C287 C282 1.399 . S
C287 C286 1.394 . S
C287 C288 1.516 . S
C288 C287 1.516 . S
C288 C289 1.502 . S
C288 C290 1.561 . S
C288 C291 1.526 . S
C289 H273 0.959 . S
C289 H274 0.959 . S
C289 H275 0.961 . S
C289 C288 1.502 . S
C290 H276 0.960 . S
C290 H277 0.961 . S
C290 H278 0.959 . S
C290 C288 1.561 . S
C291 C288 1.526 . S
C291 C292 1.396 . S
C291 C296 1.390 . S
C292 C286 1.465 . S
C292 C291 1.396 . S
C292 C293 1.399 . S
C293 H279 0.929 . S
C293 C292 1.399 . S
C293 C294 1.385 . S
C294 H280 0.931 . S
C294 C293 1.385 . S
C294 C295 1.389 . S
C295 C294 1.389 . S
C295 C296 1.387 . S
C296 H281 0.930 . S
C296 C291 1.390 . S
C296 C295 1.387 . S
H297 C309 0.930 . S
H298 C311 0.930 . S
H299 C312 0.930 1_565 S
H300 C316 0.959 . S
H301 C316 0.959 . S
H302 C316 0.961 . S
H303 C317 0.960 . S
H304 C317 0.961 . S
H305 C317 0.959 . S
H306 C320 0.929 . S
H307 C321 0.931 . S
H308 C323 0.930 . S
C309 H297 0.930 . S
C309 C310 1.399 . S
C309 C314 1.399 . S
C310 C309 1.399 . S
C310 C311 1.376 . S
C311 H298 0.930 . S
C311 C310 1.376 . S
C311 C312 1.388 . S
C312 H299 0.930 1_545 S
C312 C311 1.388 . S
C312 C313 1.390 1_545 S
C313 C312 1.390 1_565 S
C313 C314 1.394 1_565 S
C313 C319 1.465 . S
C314 C309 1.399 . S
C314 C313 1.394 1_545 S
C314 C315 1.516 . S
C315 C314 1.516 . S
C315 C316 1.502 . S
C315 C317 1.561 . S
C315 C318 1.526 1_545 S
C316 H300 0.959 . S
C316 H301 0.959 . S
C316 H302 0.961 . S
C316 C315 1.502 . S
C317 H303 0.960 . S
C317 H304 0.961 . S
C317 H305 0.959 . S
C317 C315 1.561 . S
C318 C315 1.526 1_565 S
C318 C319 1.396 . S
C318 C323 1.390 . S
C319 C313 1.465 . S
C319 C318 1.396 . S
C319 C320 1.399 . S
C320 H306 0.929 . S
C320 C319 1.399 . S
C320 C321 1.385 . S
C321 H307 0.931 . S
C321 C320 1.385 . S
C321 C322 1.389 . S
C322 C321 1.389 . S
C322 C323 1.387 . S
C323 H308 0.930 . S
C323 C318 1.390 . S
C323 C322 1.387 . S
H324 C336 0.930 . S
H325 C338 0.930 . S
H326 C339 0.930 . S
H327 C343 0.959 . S
H328 C343 0.959 . S
H329 C343 0.961 . S
H330 C344 0.960 . S
H331 C344 0.955 1_554 S
H332 C344 0.959 1_554 S
H333 C347 0.929 . S
H334 C348 0.931 1_554 S
H335 C350 0.930 . S
C336 H324 0.930 . S
C336 C337 1.399 . S
C336 C341 1.399 . S
C337 C336 1.399 . S
C337 C338 1.376 . S
C338 H325 0.930 . S
C338 C337 1.376 . S
C338 C339 1.388 . S
C339 H326 0.930 . S
C339 C338 1.388 . S
C339 C340 1.390 . S
C340 C339 1.390 . S
C340 C341 1.394 . S
C340 C346 1.465 . S
C341 C336 1.399 . S
C341 C340 1.394 . S
C341 C342 1.516 . S
C342 C341 1.516 . S
C342 C343 1.502 . S
C342 C344 1.561 . S
C342 C345 1.526 . S
C343 H327 0.959 . S
C343 H328 0.959 . S
C343 H329 0.961 . S
C343 C342 1.502 . S
C344 H330 0.960 . S
C344 H331 0.955 1_556 S
C344 H332 0.959 1_556 S
C344 C342 1.561 . S
C345 C342 1.526 . S
C345 C346 1.396 . S
C345 C350 1.390 . S
C346 C340 1.465 . S
C346 C345 1.396 . S
C346 C347 1.399 . S
C347 H333 0.929 . S
C347 C346 1.399 . S
C347 C348 1.385 . S
C348 H334 0.931 1_556 S
C348 C347 1.385 . S
C348 C349 1.389 . S
C349 C348 1.389 . S
C349 C350 1.387 . S
C350 H335 0.930 . S
C350 C345 1.390 . S
C350 C349 1.387 . S
H351 C363 0.930 . S
H352 C365 0.930 . S
H353 C366 0.930 . S
H354 C370 0.959 . S
H355 C370 0.959 . S
H356 C370 0.961 . S
H357 C371 0.960 . S
H358 C371 0.961 . S
H359 C371 0.959 . S
H360 C374 0.929 . S
H361 C375 0.931 . S
H362 C377 0.930 . S
C363 H351 0.930 . S
C363 C364 1.399 . S
C363 C368 1.399 . S
C364 C363 1.399 . S
C364 C365 1.376 . S
C365 H352 0.930 . S
C365 C364 1.376 . S
C365 C366 1.388 . S
C366 H353 0.930 . S
C366 C365 1.388 . S
C366 C367 1.390 . S
C367 C366 1.390 . S
C367 C368 1.394 . S
C367 C373 1.465 . S
C368 C363 1.399 . S
C368 C367 1.394 . S
C368 C369 1.516 . S
C369 C368 1.516 . S
C369 C370 1.502 . S
C369 C371 1.561 . S
C369 C372 1.526 . S
C370 H354 0.959 . S
C370 H355 0.959 . S
C370 H356 0.961 . S
C370 C369 1.502 . S
C371 H357 0.960 . S
C371 H358 0.961 . S
C371 H359 0.959 . S
C371 C369 1.561 . S
C372 C369 1.526 . S
C372 C373 1.396 . S
C372 C377 1.390 . S
C373 C367 1.465 . S
C373 C372 1.396 . S
C373 C374 1.399 . S
C374 H360 0.929 . S
C374 C373 1.399 . S
C374 C375 1.385 . S
C375 H361 0.931 . S
C375 C374 1.385 . S
C375 C376 1.389 . S
C376 C375 1.389 . S
C376 C377 1.387 . S
C377 H362 0.930 . S
C377 C372 1.390 . S
C377 C376 1.387 . S
H378 C390 0.930 . S
H379 C392 0.930 . S
H380 C393 0.930 . S
H381 C397 0.959 . S
H382 C397 0.959 . S
H383 C397 0.961 . S
H384 C398 0.960 . S
H385 C398 0.961 . S
H386 C398 0.959 . S
H387 C401 0.929 . S
H388 C402 0.931 . S
H389 C404 0.930 . S
C390 H378 0.930 . S
C390 C391 1.399 . S
C390 C395 1.399 . S
C391 C390 1.399 . S
C391 C392 1.376 . S
C392 H379 0.930 . S
C392 C391 1.376 . S
C392 C393 1.388 . S
C393 H380 0.930 . S
C393 C392 1.388 . S
C393 C394 1.390 . S
C394 C393 1.390 . S
C394 C395 1.394 . S
C394 C400 1.465 1_545 S
C395 C390 1.399 . S
C395 C394 1.394 . S
C395 C396 1.516 1_545 S
C396 C395 1.516 1_565 S
C396 C397 1.502 . S
C396 C398 1.561 1_565 S
C396 C399 1.526 . S
C397 H381 0.959 . S
C397 H382 0.959 . S
C397 H383 0.961 . S
C397 C396 1.502 . S
C398 H384 0.960 . S
C398 H385 0.961 . S
C398 H386 0.959 . S
C398 C396 1.561 1_545 S
C399 C396 1.526 . S
C399 C400 1.396 . S
C399 C404 1.390 . S
C400 C394 1.465 1_565 S
C400 C399 1.396 . S
C400 C401 1.399 . S
C401 H387 0.929 . S
C401 C400 1.399 . S
C401 C402 1.385 . S
C402 H388 0.931 . S
C402 C401 1.385 . S
C402 C403 1.389 . S
C403 C402 1.389 . S
C403 C404 1.387 . S
C404 H389 0.930 . S
C404 C399 1.390 . S
C404 C403 1.387 . S
H405 C417 0.930 . S
H406 C419 0.930 . S
H407 C420 0.930 . S
H408 C424 0.959 . S
H409 C424 0.959 . S
H410 C424 0.961 . S
H411 C425 0.960 . S
H412 C425 0.961 . S
H413 C425 0.959 . S
H414 C428 0.929 . S
H415 C429 0.931 . S
H416 C431 0.930 . S
C417 H405 0.930 . S
C417 C418 1.399 . S
C417 C422 1.399 . S
C418 C417 1.399 . S
C418 C419 1.376 . S
C419 H406 0.930 . S
C419 C418 1.376 . S
C419 C420 1.388 . S
C420 H407 0.930 . S
C420 C419 1.388 . S
C420 C421 1.390 . S
C421 C420 1.390 . S
C421 C422 1.394 . S
C421 C427 1.465 . S
C422 C417 1.399 . S
C422 C421 1.394 . S
C422 C423 1.516 . S
C423 C422 1.516 . S
C423 C424 1.502 . S
C423 C425 1.561 . S
C423 C426 1.526 . S
C424 H408 0.959 . S
C424 H409 0.959 . S
C424 H410 0.961 . S
C424 C423 1.502 . S
C425 H411 0.960 . S
C425 H412 0.961 . S
C425 H413 0.959 . S
C425 C423 1.561 . S
C426 C423 1.526 . S
C426 C427 1.396 . S
C426 C431 1.390 . S
C427 C421 1.465 . S
C427 C426 1.396 . S
C427 C428 1.399 . S
C428 H414 0.929 . S
C428 C427 1.399 . S
C428 C429 1.385 . S
C429 H415 0.931 . S
C429 C428 1.385 . S
C429 C430 1.389 . S
C430 C429 1.389 . S
C430 C431 1.387 . S
C431 H416 0.930 . S
C431 C426 1.390 . S
C431 C430 1.387 . S
H432 C444 0.930 . S
H433 C446 0.930 . S
H434 C447 0.930 . S
H435 C451 0.959 . S
H436 C451 0.959 . S
H437 C451 0.961 . S
H438 C452 0.960 . S
H439 C452 0.961 . S
H440 C452 0.959 . S
H441 C455 0.929 . S
H442 C456 0.931 . S
H443 C458 0.930 . S
C444 H432 0.930 . S
C444 C445 1.399 . S
C444 C449 1.399 . S
C445 C444 1.399 . S
C445 C446 1.376 . S
C446 H433 0.930 . S
C446 C445 1.376 . S
C446 C447 1.388 . S
C447 H434 0.930 . S
C447 C446 1.388 . S
C447 C448 1.390 . S
C448 C447 1.390 . S
C448 C449 1.394 . S
C448 C454 1.465 . S
C449 C444 1.399 . S
C449 C448 1.394 . S
C449 C450 1.516 . S
C450 C449 1.516 . S
C450 C451 1.502 . S
C450 C452 1.561 . S
C450 C453 1.526 . S
C451 H435 0.959 . S
C451 H436 0.959 . S
C451 H437 0.961 . S
C451 C450 1.502 . S
C452 H438 0.960 . S
C452 H439 0.961 . S
C452 H440 0.959 . S
C452 C450 1.561 . S
C453 C450 1.526 . S
C453 C454 1.396 . S
C453 C458 1.390 . S
C454 C448 1.465 . S
C454 C453 1.396 . S
C454 C455 1.399 . S
C455 H441 0.929 . S
C455 C454 1.399 . S
C455 C456 1.385 . S
C456 H442 0.931 . S
C456 C455 1.385 . S
C456 C457 1.389 . S
C457 C456 1.389 . S
C457 C458 1.387 . S
C458 H443 0.930 . S
C458 C453 1.390 . S
C458 C457 1.387 . S
H459 C471 0.930 . S
H460 C473 0.930 . S
H461 C474 0.930 . S
H462 C478 0.959 . S
H463 C478 0.959 . S
H464 C478 0.961 . S
H465 C479 0.960 . S
H466 C479 0.961 . S
H467 C479 0.959 . S
H468 C482 0.929 . S
H469 C483 0.931 . S
H470 C485 0.930 . S
C471 H459 0.930 . S
C471 C472 1.399 . S
C471 C476 1.399 . S
C472 C471 1.399 . S
C472 C473 1.376 . S
C473 H460 0.930 . S
C473 C472 1.376 . S
C473 C474 1.388 . S
C474 H461 0.930 . S
C474 C473 1.388 . S
C474 C475 1.390 . S
C475 C474 1.390 . S
C475 C476 1.394 . S
C475 C481 1.465 . S
C476 C471 1.399 . S
C476 C475 1.394 . S
C476 C477 1.516 . S
C477 C476 1.516 . S
C477 C478 1.502 . S
C477 C479 1.561 . S
C477 C480 1.526 . S
C478 H462 0.959 . S
C478 H463 0.959 . S
C478 H464 0.961 . S
C478 C477 1.502 . S
C479 H465 0.960 . S
C479 H466 0.961 . S
C479 H467 0.959 . S
C479 C477 1.561 . S
C480 C477 1.526 . S
C480 C481 1.396 . S
C480 C485 1.390 . S
C481 C475 1.465 . S
C481 C480 1.396 . S
C481 C482 1.399 . S
C482 H468 0.929 . S
C482 C481 1.399 . S
C482 C483 1.385 . S
C483 H469 0.931 . S
C483 C482 1.385 . S
C483 C484 1.389 . S
C484 C483 1.389 . S
C484 C485 1.387 . S
C485 H470 0.930 . S
C485 C480 1.390 . S
C485 C484 1.387 . S
H486 C498 0.930 . S
H487 C500 0.930 . S
H488 C501 0.930 . S
H489 C505 0.959 . S
H490 C505 0.959 . S
H491 C505 0.961 . S
H492 C506 0.960 . S
H493 C506 0.961 . S
H494 C506 0.959 . S
H495 C509 0.929 . S
H496 C510 0.931 . S
H497 C512 0.930 . S
C498 H486 0.930 . S
C498 C499 1.399 . S
C498 C503 1.399 . S
C499 C498 1.399 . S
C499 C500 1.376 . S
C500 H487 0.930 . S
C500 C499 1.376 . S
C500 C501 1.388 . S
C501 H488 0.930 . S
C501 C500 1.388 . S
C501 C502 1.390 . S
C502 C501 1.390 . S
C502 C503 1.394 . S
C502 C508 1.465 . S
C503 C498 1.399 . S
C503 C502 1.394 . S
C503 C504 1.516 . S
C504 C503 1.516 . S
C504 C505 1.502 . S
C504 C506 1.561 . S
C504 C507 1.526 . S
C505 H489 0.959 . S
C505 H490 0.959 . S
C505 H491 0.961 . S
C505 C504 1.502 . S
C506 H492 0.960 . S
C506 H493 0.961 . S
C506 H494 0.959 . S
C506 C504 1.561 . S
C507 C504 1.526 . S
C507 C508 1.396 . S
C507 C512 1.390 . S
C508 C502 1.465 . S
C508 C507 1.396 . S
C508 C509 1.399 . S
C509 H495 0.929 . S
C509 C508 1.399 . S
C509 C510 1.385 . S
C510 H496 0.931 . S
C510 C509 1.385 . S
C510 C511 1.389 . S
C511 C510 1.389 . S
C511 C512 1.387 . S
C512 H497 0.930 . S
C512 C507 1.390 . S
C512 C511 1.387 . S
H513 C525 0.930 . S
H514 C527 0.930 . S
H515 C528 0.930 . S
H516 C532 0.959 . S
H517 C532 0.959 . S
H518 C532 0.961 . S
H519 C533 0.960 . S
H520 C533 0.961 1_655 S
H521 C533 0.959 1_655 S
H522 C536 0.929 . S
H523 C537 0.931 . S
H524 C539 0.930 . S
C525 H513 0.930 . S
C525 C526 1.399 . S
C525 C530 1.399 . S
C526 C525 1.399 . S
C526 C527 1.376 . S
C527 H514 0.930 . S
C527 C526 1.376 . S
C527 C528 1.388 . S
C528 H515 0.930 . S
C528 C527 1.388 . S
C528 C529 1.390 . S
C529 C528 1.390 . S
C529 C530 1.394 . S
C529 C535 1.465 1_455 S
C530 C525 1.399 . S
C530 C529 1.394 . S
C530 C531 1.516 . S
C531 C530 1.516 . S
C531 C532 1.502 . S
C531 C533 1.561 . S
C531 C534 1.526 1_455 S
C532 H516 0.959 . S
C532 H517 0.959 . S
C532 H518 0.961 . S
C532 C531 1.502 . S
C533 H519 0.960 . S
C533 H520 0.961 1_455 S
C533 H521 0.959 1_455 S
C533 C531 1.561 . S
C534 C531 1.526 1_655 S
C534 C535 1.396 . S
C534 C539 1.390 . S
C535 C529 1.465 1_655 S
C535 C534 1.396 . S
C535 C536 1.399 . S
C536 H522 0.929 . S
C536 C535 1.399 . S
C536 C537 1.385 . S
C537 H523 0.931 . S
C537 C536 1.385 . S
C537 C538 1.389 . S
C538 C537 1.389 . S
C538 C539 1.387 . S
C539 H524 0.930 . S
C539 C534 1.390 . S
C539 C538 1.387 . S
H540 C552 0.930 . S
H541 C554 0.930 . S
H542 C555 0.930 . S
H543 C559 0.959 . S
H544 C559 0.959 . S
H545 C559 0.961 . S
H546 C560 0.960 . S
H547 C560 0.961 . S
H548 C560 0.959 . S
H549 C563 0.929 . S
H550 C564 0.931 . S
H551 C566 0.930 . S
C552 H540 0.930 . S
C552 C553 1.399 . S
C552 C557 1.399 . S
C553 C552 1.399 . S
C553 C554 1.376 . S
C554 H541 0.930 . S
C554 C553 1.376 . S
C554 C555 1.388 . S
C555 H542 0.930 . S
C555 C554 1.388 . S
C555 C556 1.390 . S
C556 C555 1.390 . S
C556 C557 1.394 . S
C556 C562 1.465 . S
C557 C552 1.399 . S
C557 C556 1.394 . S
C557 C558 1.516 . S
C558 C557 1.516 . S
C558 C559 1.502 . S
C558 C560 1.561 . S
C558 C561 1.526 . S
C559 H543 0.959 . S
C559 H544 0.959 . S
C559 H545 0.961 . S
C559 C558 1.502 . S
C560 H546 0.960 . S
C560 H547 0.961 . S
C560 H548 0.959 . S
C560 C558 1.561 . S
C561 C558 1.526 . S
C561 C562 1.396 . S
C561 C566 1.390 . S
C562 C556 1.465 . S
C562 C561 1.396 . S
C562 C563 1.399 . S
C563 H549 0.929 . S
C563 C562 1.399 . S
C563 C564 1.385 . S
C564 H550 0.931 . S
C564 C563 1.385 . S
C564 C565 1.389 . S
C565 C564 1.389 . S
C565 C566 1.387 . S
C566 H551 0.930 . S
C566 C561 1.390 . S
C566 C565 1.387 . S
H567 C579 0.930 . S
H568 C581 0.930 . S
H569 C582 0.930 . S
H570 C586 0.959 . S
H571 C586 0.959 . S
H572 C586 0.961 . S
H573 C587 0.961 . S
H574 C587 0.961 . S
H575 C587 0.959 1_455 S
H576 C590 0.929 . S
H577 C591 0.931 . S
H578 C593 0.930 . S
C579 H567 0.930 . S
C579 C580 1.399 . S
C579 C584 1.399 . S
C580 C579 1.399 . S
C580 C581 1.376 . S
C581 H568 0.930 . S
C581 C580 1.376 . S
C581 C582 1.388 . S
C582 H569 0.930 . S
C582 C581 1.388 . S
C582 C583 1.390 . S
C583 C582 1.390 . S
C583 C584 1.394 . S
C583 C589 1.465 . S
C584 C579 1.399 . S
C584 C583 1.394 . S
C584 C585 1.516 . S
C585 C584 1.516 . S
C585 C586 1.502 . S
C585 C587 1.561 . S
C585 C588 1.526 . S
C586 H570 0.959 . S
C586 H571 0.959 . S
C586 H572 0.961 . S
C586 C585 1.502 . S
C587 H573 0.961 . S
C587 H574 0.961 . S
C587 H575 0.959 1_655 S
C587 C585 1.561 . S
C588 C585 1.526 . S
C588 C589 1.396 . S
C588 C593 1.390 . S
C589 C583 1.465 . S
C589 C588 1.396 . S
C589 C590 1.399 . S
C590 H576 0.929 . S
C590 C589 1.399 . S
C590 C591 1.385 . S
C591 H577 0.931 . S
C591 C590 1.385 . S
C591 C592 1.389 . S
C592 C591 1.389 . S
C592 C593 1.387 . S
C593 H578 0.930 . S
C593 C588 1.390 . S
C593 C592 1.387 . S
H594 C606 0.930 . S
H595 C608 0.930 . S
H596 C609 0.930 1_554 S
H597 C613 0.959 . S
H598 C613 0.959 . S
H599 C613 0.961 . S
H600 C614 0.960 . S
H601 C614 0.961 1_655 S
H602 C614 0.959 . S
H603 C617 0.929 . S
H604 C618 0.931 . S
H605 C620 0.930 1_556 S
C606 H594 0.930 . S
C606 C607 1.399 . S
C606 C611 1.399 . S
C607 C606 1.399 . S
C607 C608 1.376 . S
C608 H595 0.930 . S
C608 C607 1.376 . S
C608 C609 1.388 . S
C609 H596 0.930 1_556 S
C609 C608 1.388 . S
C609 C610 1.390 . S
C610 C609 1.390 . S
C610 C611 1.394 . S
C610 C616 1.465 1_456 S
C611 C606 1.399 . S
C611 C610 1.394 . S
C611 C612 1.516 1_455 S
C612 C611 1.516 1_655 S
C612 C613 1.502 . S
C612 C614 1.561 1_655 S
C612 C615 1.526 . S
C613 H597 0.959 . S
C613 H598 0.959 . S
C613 H599 0.961 . S
C613 C612 1.502 . S
C614 H600 0.960 . S
C614 H601 0.961 1_455 S
C614 H602 0.959 . S
C614 C612 1.561 1_455 S
C615 C612 1.526 . S
C615 C616 1.396 1_556 S
C615 C620 1.389 1_556 S
C616 C610 1.465 1_654 S
C616 C615 1.396 1_554 S
C616 C617 1.399 . S
C617 H603 0.929 . S
C617 C616 1.399 . S
C617 C618 1.385 . S
C618 H604 0.931 . S
C618 C617 1.385 . S
C618 C619 1.389 . S
C619 C618 1.389 . S
C619 C620 1.387 . S
C620 H605 0.930 1_554 S
C620 C615 1.389 1_554 S
C620 C619 1.387 . S
H621 C633 0.930 . S
H622 C635 0.930 . S
H623 C636 0.930 . S
H624 C640 0.959 . S
H625 C640 0.959 . S
H626 C640 0.961 . S
H627 C641 0.960 . S
H628 C641 0.961 . S
H629 C641 0.959 . S
H630 C644 0.929 . S
H631 C645 0.931 . S
H632 C647 0.930 . S
C633 H621 0.930 . S
C633 C634 1.399 . S
C633 C638 1.399 . S
C634 C633 1.399 . S
C634 C635 1.376 . S
C635 H622 0.930 . S
C635 C634 1.376 . S
C635 C636 1.388 . S
C636 H623 0.930 . S
C636 C635 1.388 . S
C636 C637 1.390 . S
C637 C636 1.390 . S
C637 C638 1.394 . S
C637 C643 1.465 . S
C638 C633 1.399 . S
C638 C637 1.394 . S
C638 C639 1.516 . S
C639 C638 1.516 . S
C639 C640 1.502 . S
C639 C641 1.561 . S
C639 C642 1.526 . S
C640 H624 0.959 . S
C640 H625 0.959 . S
C640 H626 0.961 . S
C640 C639 1.502 . S
C641 H627 0.960 . S
C641 H628 0.961 . S
C641 H629 0.959 . S
C641 C639 1.561 . S
C642 C639 1.526 . S
C642 C643 1.396 . S
C642 C647 1.390 . S
C643 C637 1.465 . S
C643 C642 1.396 . S
C643 C644 1.399 . S
C644 H630 0.929 . S
C644 C643 1.399 . S
C644 C645 1.385 . S
C645 H631 0.931 . S
C645 C644 1.385 . S
C645 C646 1.389 . S
C646 C645 1.389 . S
C646 C647 1.387 . S
C647 H632 0.930 . S
C647 C642 1.390 . S
C647 C646 1.387 . S
H648 C660 0.930 . S
H649 C662 0.930 . S
H650 C663 0.930 . S
H651 C667 0.959 . S
H652 C667 0.959 . S
H653 C667 0.961 . S
H654 C668 0.960 . S
H655 C668 0.961 . S
H656 C668 0.959 . S
H657 C671 0.929 . S
H658 C672 0.931 . S
H659 C674 0.930 . S
C660 H648 0.930 . S
C660 C661 1.399 . S
C660 C665 1.399 . S
C661 C660 1.399 . S
C661 C662 1.376 . S
C662 H649 0.930 . S
C662 C661 1.376 . S
C662 C663 1.388 . S
C663 H650 0.930 . S
C663 C662 1.388 . S
C663 C664 1.390 . S
C664 C663 1.390 . S
C664 C665 1.394 . S
C664 C670 1.465 . S
C665 C660 1.399 . S
C665 C664 1.394 . S
C665 C666 1.516 . S
C666 C665 1.516 . S
C666 C667 1.502 . S
C666 C668 1.561 . S
C666 C669 1.526 . S
C667 H651 0.959 . S
C667 H652 0.959 . S
C667 H653 0.961 . S
C667 C666 1.502 . S
C668 H654 0.960 . S
C668 H655 0.961 . S
C668 H656 0.959 . S
C668 C666 1.561 . S
C669 C666 1.526 . S
C669 C670 1.396 . S
C669 C674 1.390 . S
C670 C664 1.465 . S
C670 C669 1.396 . S
C670 C671 1.399 . S
C671 H657 0.929 . S
C671 C670 1.399 . S
C671 C672 1.385 . S
C672 H658 0.931 . S
C672 C671 1.385 . S
C672 C673 1.389 . S
C673 C672 1.389 . S
C673 C674 1.387 . S
C674 H659 0.930 . S
C674 C669 1.390 . S
C674 C673 1.387 . S
H675 C687 0.930 . S
H676 C689 0.930 . S
H677 C690 0.930 . S
H678 C694 0.959 . S
H679 C694 0.959 . S
H680 C694 0.961 . S
H681 C695 0.960 . S
H682 C695 0.961 . S
H683 C695 0.959 . S
H684 C698 0.929 . S
H685 C699 0.931 . S
H686 C701 0.930 . S
C687 H675 0.930 . S
C687 C688 1.399 . S
C687 C692 1.399 . S
C688 C687 1.399 . S
C688 C689 1.376 . S
C689 H676 0.930 . S
C689 C688 1.376 . S
C689 C690 1.388 . S
C690 H677 0.930 . S
C690 C689 1.388 . S
C690 C691 1.390 . S
C691 C690 1.390 . S
C691 C692 1.394 . S
C691 C697 1.465 . S
C692 C687 1.399 . S
C692 C691 1.394 . S
C692 C693 1.516 . S
C693 C692 1.516 . S
C693 C694 1.502 . S
C693 C695 1.561 . S
C693 C696 1.526 . S
C694 H678 0.959 . S
C694 H679 0.959 . S
C694 H680 0.961 . S
C694 C693 1.502 . S
C695 H681 0.960 . S
C695 H682 0.961 . S
C695 H683 0.959 . S
C695 C693 1.561 . S
C696 C693 1.526 . S
C696 C697 1.396 . S
C696 C701 1.390 . S
C697 C691 1.465 . S
C697 C696 1.396 . S
C697 C698 1.399 . S
C698 H684 0.929 . S
C698 C697 1.399 . S
C698 C699 1.385 . S
C699 H685 0.931 . S
C699 C698 1.385 . S
C699 C700 1.389 . S
C700 C699 1.389 . S
C700 C701 1.387 . S
C701 H686 0.930 . S
C701 C696 1.390 . S
C701 C700 1.387 . S
H702 C714 0.930 . S
H703 C716 0.930 . S
H704 C717 0.930 . S
H705 C721 0.959 . S
H706 C721 0.959 . S
H707 C721 0.961 . S
H708 C722 0.960 . S
H709 C722 0.961 . S
H710 C722 0.959 . S
H711 C725 0.929 . S
H712 C726 0.931 . S
H713 C728 0.930 . S
C714 H702 0.930 . S
C714 C715 1.399 . S
C714 C719 1.399 . S
C715 C714 1.399 . S
C715 C716 1.376 . S
C716 H703 0.930 . S
C716 C715 1.376 . S
C716 C717 1.388 . S
C717 H704 0.930 . S
C717 C716 1.388 . S
C717 C718 1.390 . S
C718 C717 1.390 . S
C718 C719 1.394 . S
C718 C724 1.465 . S
C719 C714 1.399 . S
C719 C718 1.394 . S
C719 C720 1.516 . S
C720 C719 1.516 . S
C720 C721 1.502 . S
C720 C722 1.561 . S
C720 C723 1.526 . S
C721 H705 0.959 . S
C721 H706 0.959 . S
C721 H707 0.961 . S
C721 C720 1.502 . S
C722 H708 0.960 . S
C722 H709 0.961 . S
C722 H710 0.959 . S
C722 C720 1.561 . S
C723 C720 1.526 . S
C723 C724 1.396 . S
C723 C728 1.390 . S
C724 C718 1.465 . S
C724 C723 1.396 . S
C724 C725 1.399 . S
C725 H711 0.929 . S
C725 C724 1.399 . S
C725 C726 1.385 . S
C726 H712 0.931 . S
C726 C725 1.385 . S
C726 C727 1.389 . S
C727 C726 1.389 . S
C727 C728 1.387 . S
C728 H713 0.930 . S
C728 C723 1.390 . S
C728 C727 1.387 . S
H729 C741 0.930 . S
H730 C743 0.930 . S
H731 C744 0.930 . S
H732 C748 0.959 1_545 S
H733 C748 0.959 . S
H734 C748 0.961 . S
H735 C749 0.960 . S
H736 C749 0.961 . S
H737 C749 0.959 . S
H738 C752 0.929 . S
H739 C753 0.931 . S
H740 C755 0.930 . S
C741 H729 0.930 . S
C741 C742 1.399 . S
C741 C746 1.399 . S
C742 C741 1.399 . S
C742 C743 1.376 . S
C743 H730 0.930 . S
C743 C742 1.376 . S
C743 C744 1.388 . S
C744 H731 0.930 . S
C744 C743 1.388 . S
C744 C745 1.390 . S
C745 C744 1.390 . S
C745 C746 1.394 . S
C745 C751 1.465 . S
C746 C741 1.399 . S
C746 C745 1.394 . S
C746 C747 1.516 1_545 S
C747 C746 1.516 1_565 S
C747 C748 1.502 . S
C747 C749 1.561 . S
C747 C750 1.526 1_565 S
C748 H732 0.959 1_565 S
C748 H733 0.959 . S
C748 H734 0.961 . S
C748 C747 1.502 . S
C749 H735 0.960 . S
C749 H736 0.961 . S
C749 H737 0.959 . S
C749 C747 1.561 . S
C750 C747 1.526 1_545 S
C750 C751 1.396 . S
C750 C755 1.390 1_545 S
C751 C745 1.465 . S
C751 C750 1.396 . S
C751 C752 1.399 . S
C752 H738 0.929 . S
C752 C751 1.399 . S
C752 C753 1.385 . S
C753 H739 0.931 . S
C753 C752 1.385 . S
C753 C754 1.389 1_545 S
C754 C753 1.389 1_565 S
C754 C755 1.387 . S
C755 H740 0.930 . S
C755 C750 1.390 1_565 S
C755 C754 1.387 . S
H756 C768 0.930 . S
H757 C770 0.930 . S
H758 C771 0.930 . S
H759 C775 0.959 . S
H760 C775 0.959 . S
H761 C775 0.961 . S
H762 C776 0.960 . S
H763 C776 0.961 . S
H764 C776 0.959 . S
H765 C779 0.929 . S
H766 C780 0.931 . S
H767 C782 0.930 . S
C768 H756 0.930 . S
C768 C769 1.399 . S
C768 C773 1.399 . S
C769 C768 1.399 . S
C769 C770 1.376 . S
C770 H757 0.930 . S
C770 C769 1.376 . S
C770 C771 1.388 . S
C771 H758 0.930 . S
C771 C770 1.388 . S
C771 C772 1.390 . S
C772 C771 1.390 . S
C772 C773 1.394 . S
C772 C778 1.465 . S
C773 C768 1.399 . S
C773 C772 1.394 . S
C773 C774 1.516 . S
C774 C773 1.516 . S
C774 C775 1.502 . S
C774 C776 1.561 . S
C774 C777 1.526 . S
C775 H759 0.959 . S
C775 H760 0.959 . S
C775 H761 0.961 . S
C775 C774 1.502 . S
C776 H762 0.960 . S
C776 H763 0.961 . S
C776 H764 0.959 . S
C776 C774 1.561 . S
C777 C774 1.526 . S
C777 C778 1.396 . S
C777 C782 1.390 . S
C778 C772 1.465 . S
C778 C777 1.396 . S
C778 C779 1.399 . S
C779 H765 0.929 . S
C779 C778 1.399 . S
C779 C780 1.385 . S
C780 H766 0.931 . S
C780 C779 1.385 . S
C780 C781 1.389 . S
C781 C780 1.389 . S
C781 C782 1.387 . S
C782 H767 0.930 . S
C782 C777 1.390 . S
C782 C781 1.387 . S
H783 C795 0.930 . S
H784 C797 0.930 . S
H785 C798 0.930 . S
H786 C802 0.959 . S
H787 C802 0.959 . S
H788 C802 0.961 . S
H789 C803 0.960 . S
H790 C803 0.961 . S
H791 C803 0.959 . S
H792 C806 0.929 . S
H793 C807 0.931 . S
H794 C809 0.930 . S
C795 H783 0.930 . S
C795 C796 1.399 . S
C795 C800 1.399 . S
C796 C795 1.399 . S
C796 C797 1.376 . S
C797 H784 0.930 . S
C797 C796 1.376 . S
C797 C798 1.388 . S
C798 H785 0.930 . S
C798 C797 1.388 . S
C798 C799 1.390 . S
C799 C798 1.390 . S
C799 C800 1.394 . S
C799 C805 1.465 . S
C800 C795 1.399 . S
C800 C799 1.394 . S
C800 C801 1.516 . S
C801 C800 1.516 . S
C801 C802 1.502 . S
C801 C803 1.561 . S
C801 C804 1.526 . S
C802 H786 0.959 . S
C802 H787 0.959 . S
C802 H788 0.961 . S
C802 C801 1.502 . S
C803 H789 0.960 . S
C803 H790 0.961 . S
C803 H791 0.959 . S
C803 C801 1.561 . S
C804 C801 1.526 . S
C804 C805 1.396 . S
C804 C809 1.390 . S
C805 C799 1.465 . S
C805 C804 1.396 . S
C805 C806 1.399 . S
C806 H792 0.929 . S
C806 C805 1.399 . S
C806 C807 1.385 . S
C807 H793 0.931 . S
C807 C806 1.385 . S
C807 C808 1.389 . S
C808 C807 1.389 . S
C808 C809 1.387 . S
C809 H794 0.930 . S
C809 C804 1.390 . S
C809 C808 1.387 . S
H810 C822 0.930 . S
H811 C824 0.930 . S
H812 C825 0.930 . S
H813 C829 0.959 . S
H814 C829 0.959 . S
H815 C829 0.961 . S
H816 C830 0.960 . S
H817 C830 0.961 . S
H818 C830 0.959 . S
H819 C833 0.929 . S
H820 C834 0.931 . S
H821 C836 0.930 . S
C822 H810 0.930 . S
C822 C823 1.399 . S
C822 C827 1.399 . S
C823 C822 1.399 . S
C823 C824 1.376 . S
C824 H811 0.930 . S
C824 C823 1.376 . S
C824 C825 1.388 . S
C825 H812 0.930 . S
C825 C824 1.388 . S
C825 C826 1.390 . S
C826 C825 1.390 . S
C826 C827 1.394 . S
C826 C832 1.465 . S
C827 C822 1.399 . S
C827 C826 1.394 . S
C827 C828 1.516 . S
C828 C827 1.516 . S
C828 C829 1.502 . S
C828 C830 1.561 . S
C828 C831 1.526 . S
C829 H813 0.959 . S
C829 H814 0.959 . S
C829 H815 0.961 . S
C829 C828 1.502 . S
C830 H816 0.960 . S
C830 H817 0.961 . S
C830 H818 0.959 . S
C830 C828 1.561 . S
C831 C828 1.526 . S
C831 C832 1.396 . S
C831 C836 1.390 . S
C832 C826 1.465 . S
C832 C831 1.396 . S
C832 C833 1.399 1_545 S
C833 H819 0.929 . S
C833 C832 1.399 1_565 S
C833 C834 1.385 . S
C834 H820 0.931 . S
C834 C833 1.385 . S
C834 C835 1.389 . S
C835 C834 1.389 . S
C835 C836 1.387 1_565 S
C836 H821 0.930 . S
C836 C831 1.390 . S
C836 C835 1.387 1_545 S
H837 C849 0.930 . S
H838 C851 0.930 . S
H839 C852 0.930 . S
H840 C856 0.959 . S
H841 C856 0.959 . S
H842 C856 0.961 . S
H843 C857 0.960 . S
H844 C857 0.961 . S
H845 C857 0.959 . S
H846 C860 0.929 . S
H847 C861 0.931 . S
H848 C863 0.930 . S
C849 H837 0.930 . S
C849 C850 1.399 . S
C849 C854 1.399 . S
C850 C849 1.399 . S
C850 C851 1.376 . S
C851 H838 0.930 . S
C851 C850 1.376 . S
C851 C852 1.388 . S
C852 H839 0.930 . S
C852 C851 1.388 . S
C852 C853 1.390 . S
C853 C852 1.390 . S
C853 C854 1.394 . S
C853 C859 1.465 . S
C854 C849 1.399 . S
C854 C853 1.394 . S
C854 C855 1.516 . S
C855 C854 1.516 . S
C855 C856 1.502 . S
C855 C857 1.561 . S
C855 C858 1.526 . S
C856 H840 0.959 . S
C856 H841 0.959 . S
C856 H842 0.961 . S
C856 C855 1.502 . S
C857 H843 0.960 . S
C857 H844 0.961 . S
C857 H845 0.959 . S
C857 C855 1.561 . S
C858 C855 1.526 . S
C858 C859 1.396 . S
C858 C863 1.390 . S
C859 C853 1.465 . S
C859 C858 1.396 . S
C859 C860 1.399 . S
C860 H846 0.929 . S
C860 C859 1.399 . S
C860 C861 1.385 . S
C861 H847 0.931 . S
C861 C860 1.385 . S
C861 C862 1.389 . S
C862 C861 1.389 . S
C862 C863 1.387 . S
C863 H848 0.930 . S
C863 C858 1.390 . S
C863 C862 1.387 . S
H864 C876 0.930 . S
H865 C878 0.930 . S
H866 C879 0.930 . S
H867 C883 0.959 . S
H868 C883 0.959 . S
H869 C883 0.961 . S
H870 C884 0.960 . S
H871 C884 0.961 . S
H872 C884 0.959 . S
H873 C887 0.929 . S
H874 C888 0.931 . S
H875 C890 0.930 . S
C876 H864 0.930 . S
C876 C877 1.399 . S
C876 C881 1.399 . S
C877 C876 1.399 . S
C877 C878 1.376 . S
C878 H865 0.930 . S
C878 C877 1.376 . S
C878 C879 1.388 . S
C879 H866 0.930 . S
C879 C878 1.388 . S
C879 C880 1.390 . S
C880 C879 1.390 . S
C880 C881 1.394 . S
C880 C886 1.465 . S
C881 C876 1.399 . S
C881 C880 1.394 . S
C881 C882 1.516 . S
C882 C881 1.516 . S
C882 C883 1.502 . S
C882 C884 1.561 . S
C882 C885 1.526 . S
C883 H867 0.959 . S
C883 H868 0.959 . S
C883 H869 0.961 . S
C883 C882 1.502 . S
C884 H870 0.960 . S
C884 H871 0.961 . S
C884 H872 0.959 . S
C884 C882 1.561 . S
C885 C882 1.526 . S
C885 C886 1.396 . S
C885 C890 1.390 . S
C886 C880 1.465 . S
C886 C885 1.396 . S
C886 C887 1.399 . S
C887 H873 0.929 . S
C887 C886 1.399 . S
C887 C888 1.385 . S
C888 H874 0.931 . S
C888 C887 1.385 . S
C888 C889 1.389 . S
C889 C888 1.389 . S
C889 C890 1.387 . S
C890 H875 0.930 . S
C890 C885 1.390 . S
C890 C889 1.387 . S
H891 C903 0.930 . S
H892 C905 0.930 . S
H893 C906 0.930 . S
H894 C910 0.959 . S
H895 C910 0.959 . S
H896 C910 0.961 . S
H897 C911 0.960 . S
H898 C911 0.961 . S
H899 C911 0.959 . S
H900 C914 0.929 . S
H901 C915 0.931 . S
H902 C917 0.930 . S
C903 H891 0.930 . S
C903 C904 1.399 . S
C903 C908 1.399 . S
C904 C903 1.399 . S
C904 C905 1.376 . S
C905 H892 0.930 . S
C905 C904 1.376 . S
C905 C906 1.388 . S
C906 H893 0.930 . S
C906 C905 1.388 . S
C906 C907 1.390 . S
C907 C906 1.390 . S
C907 C908 1.394 . S
C907 C913 1.465 . S
C908 C903 1.399 . S
C908 C907 1.394 . S
C908 C909 1.516 . S
C909 C908 1.516 . S
C909 C910 1.502 . S
C909 C911 1.561 . S
C909 C912 1.526 . S
C910 H894 0.959 . S
C910 H895 0.959 . S
C910 H896 0.961 . S
C910 C909 1.502 . S
C911 H897 0.960 . S
C911 H898 0.961 . S
C911 H899 0.959 . S
C911 C909 1.561 . S
C912 C909 1.526 . S
C912 C913 1.396 . S
C912 C917 1.390 . S
C913 C907 1.465 . S
C913 C912 1.396 . S
C913 C914 1.399 . S
C914 H900 0.929 . S
C914 C913 1.399 . S
C914 C915 1.385 . S
C915 H901 0.931 . S
C915 C914 1.385 . S
C915 C916 1.389 . S
C916 C915 1.389 . S
C916 C917 1.387 . S
C917 H902 0.930 . S
C917 C912 1.390 . S
C917 C916 1.387 . S
H918 C930 0.930 . S
H919 C932 0.930 . S
H920 C933 0.930 . S
H921 C937 0.959 . S
H922 C937 0.959 . S
H923 C937 0.961 . S
H924 C938 0.960 . S
H925 C938 0.961 . S
H926 C938 0.959 . S
H927 C941 0.929 . S
H928 C942 0.931 . S
H929 C944 0.930 . S
C930 H918 0.930 . S
C930 C931 1.399 . S
C930 C935 1.399 . S
C931 C930 1.399 . S
C931 C932 1.376 . S
C932 H919 0.930 . S
C932 C931 1.376 . S
C932 C933 1.388 . S
C933 H920 0.930 . S
C933 C932 1.388 . S
C933 C934 1.390 . S
C934 C933 1.390 . S
C934 C935 1.394 . S
C934 C940 1.465 . S
C935 C930 1.399 . S
C935 C934 1.394 . S
C935 C936 1.516 . S
C936 C935 1.516 . S
C936 C937 1.502 . S
C936 C938 1.561 . S
C936 C939 1.526 . S
C937 H921 0.959 . S
C937 H922 0.959 . S
C937 H923 0.961 . S
C937 C936 1.502 . S
C938 H924 0.960 . S
C938 H925 0.961 . S
C938 H926 0.959 . S
C938 C936 1.561 . S
C939 C936 1.526 . S
C939 C940 1.396 . S
C939 C944 1.390 . S
C940 C934 1.465 . S
C940 C939 1.396 . S
C940 C941 1.399 . S
C941 H927 0.929 . S
C941 C940 1.399 . S
C941 C942 1.385 . S
C942 H928 0.931 . S
C942 C941 1.385 . S
C942 C943 1.389 . S
C943 C942 1.389 . S
C943 C944 1.387 . S
C944 H929 0.930 . S
C944 C939 1.390 . S
C944 C943 1.387 . S
H945 C957 0.930 . S
H946 C959 0.930 . S
H947 C960 0.930 . S
H948 C964 0.959 . S
H949 C964 0.959 . S
H950 C964 0.961 . S
H951 C965 0.960 . S
H952 C965 0.961 . S
H953 C965 0.959 . S
H954 C968 0.929 . S
H955 C969 0.931 . S
H956 C971 0.930 . S
C957 H945 0.930 . S
C957 C958 1.399 . S
C957 C962 1.399 . S
C958 C957 1.399 . S
C958 C959 1.376 . S
C959 H946 0.930 . S
C959 C958 1.376 . S
C959 C960 1.388 . S
C960 H947 0.930 . S
C960 C959 1.388 . S
C960 C961 1.390 . S
C961 C960 1.390 . S
C961 C962 1.394 . S
C961 C967 1.465 . S
C962 C957 1.399 . S
C962 C961 1.394 . S
C962 C963 1.516 . S
C963 C962 1.516 . S
C963 C964 1.502 . S
C963 C965 1.561 . S
C963 C966 1.526 . S
C964 H948 0.959 . S
C964 H949 0.959 . S
C964 H950 0.961 . S
C964 C963 1.502 . S
C965 H951 0.960 . S
C965 H952 0.961 . S
C965 H953 0.959 . S
C965 C963 1.561 . S
C966 C963 1.526 . S
C966 C967 1.396 . S
C966 C971 1.390 . S
C967 C961 1.465 . S
C967 C966 1.396 . S
C967 C968 1.399 . S
C968 H954 0.929 . S
C968 C967 1.399 . S
C968 C969 1.385 1_455 S
C969 H955 0.931 . S
C969 C968 1.385 1_655 S
C969 C970 1.389 . S
C970 C969 1.389 . S
C970 C971 1.387 1_655 S
C971 H956 0.930 . S
C971 C966 1.390 . S
C971 C970 1.387 1_455 S
H972 C984 0.930 . S
H973 C986 0.930 . S
H974 C987 0.930 . S
H975 C991 0.959 . S
H976 C991 0.959 . S
H977 C991 0.961 . S
H978 C992 0.960 . S
H979 C992 0.961 . S
H980 C992 0.959 . S
H981 C995 0.929 . S
H982 C996 0.931 . S
H983 C998 0.930 . S
C984 H972 0.930 . S
C984 C985 1.399 . S
C984 C989 1.399 . S
C985 C984 1.399 . S
C985 C986 1.376 . S
C986 H973 0.930 . S
C986 C985 1.376 . S
C986 C987 1.388 . S
C987 H974 0.930 . S
C987 C986 1.388 . S
C987 C988 1.390 . S
C988 C987 1.390 . S
C988 C989 1.394 . S
C988 C994 1.465 . S
C989 C984 1.399 . S
C989 C988 1.394 . S
C989 C990 1.516 . S
C990 C989 1.516 . S
C990 C991 1.502 . S
C990 C992 1.561 . S
C990 C993 1.526 . S
C991 H975 0.959 . S
C991 H976 0.959 . S
C991 H977 0.961 . S
C991 C990 1.502 . S
C992 H978 0.960 . S
C992 H979 0.961 . S
C992 H980 0.959 . S
C992 C990 1.561 . S
C993 C990 1.526 . S
C993 C994 1.396 . S
C993 C998 1.390 . S
C994 C988 1.465 . S
C994 C993 1.396 . S
C994 C995 1.399 . S
C995 H981 0.929 . S
C995 C994 1.399 . S
C995 C996 1.385 . S
C996 H982 0.931 . S
C996 C995 1.385 . S
C996 C997 1.389 . S
C997 C996 1.389 . S
C997 C998 1.387 . S
C998 H983 0.930 . S
C998 C993 1.390 . S
C998 C997 1.387 . S
H999 C1011 0.930 . S
H1000 C1013 0.930 . S
H1001 C1014 0.930 . S
H1002 C1018 0.959 . S
H1003 C1018 0.959 . S
H1004 C1018 0.961 . S
H1005 C1019 0.960 . S
H1006 C1019 0.961 . S
H1007 C1019 0.959 . S
H1008 C1022 0.929 . S
H1009 C1023 0.931 . S
H1010 C1025 0.930 . S
C1011 H999 0.930 . S
C1011 C1012 1.399 . S
C1011 C1016 1.399 . S
C1012 C1011 1.399 . S
C1012 C1013 1.376 . S
C1013 H1000 0.930 . S
C1013 C1012 1.376 . S
C1013 C1014 1.388 . S
C1014 H1001 0.930 . S
C1014 C1013 1.388 . S
C1014 C1015 1.390 . S
C1015 C1014 1.390 . S
C1015 C1016 1.394 . S
C1015 C1021 1.465 . S
C1016 C1011 1.399 . S
C1016 C1015 1.394 . S
C1016 C1017 1.516 . S
C1017 C1016 1.516 . S
C1017 C1018 1.502 . S
C1017 C1019 1.561 . S
C1017 C1020 1.526 . S
C1018 H1002 0.959 . S
C1018 H1003 0.959 . S
C1018 H1004 0.961 . S
C1018 C1017 1.502 . S
C1019 H1005 0.960 . S
C1019 H1006 0.961 . S
C1019 H1007 0.959 . S
C1019 C1017 1.561 . S
C1020 C1017 1.526 . S
C1020 C1021 1.396 . S
C1020 C1025 1.390 . S
C1021 C1015 1.465 . S
C1021 C1020 1.396 . S
C1021 C1022 1.399 . S
C1022 H1008 0.929 . S
C1022 C1021 1.399 . S
C1022 C1023 1.385 . S
C1023 H1009 0.931 . S
C1023 C1022 1.385 . S
C1023 C1024 1.389 . S
C1024 C1023 1.389 . S
C1024 C1025 1.387 . S
C1025 H1010 0.930 . S
C1025 C1020 1.390 . S
C1025 C1024 1.387 . S
H1026 C1038 0.930 . S
H1027 C1040 0.930 . S
H1028 C1041 0.930 . S
H1029 C1045 0.959 1_655 S
H1030 C1045 0.957 1_655 S
H1031 C1045 0.961 . S
H1032 C1046 0.960 . S
H1033 C1046 0.961 . S
H1034 C1046 0.959 . S
H1035 C1049 0.929 . S
H1036 C1050 0.931 . S
H1037 C1052 0.929 . S
C1038 H1026 0.930 . S
C1038 C1039 1.399 . S
C1038 C1043 1.399 . S
C1039 C1038 1.399 . S
C1039 C1040 1.376 . S
C1040 H1027 0.930 . S
C1040 C1039 1.376 . S
C1040 C1041 1.388 . S
C1041 H1028 0.930 . S
C1041 C1040 1.388 . S
C1041 C1042 1.390 . S
C1042 C1041 1.390 . S
C1042 C1043 1.394 . S
C1042 C1048 1.465 . S
C1043 C1038 1.399 . S
C1043 C1042 1.394 . S
C1043 C1044 1.516 . S
C1044 C1043 1.516 . S
C1044 C1045 1.502 . S
C1044 C1046 1.561 . S
C1044 C1047 1.526 . S
C1045 H1029 0.959 1_455 S
C1045 H1030 0.957 1_455 S
C1045 H1031 0.961 . S
C1045 C1044 1.502 . S
C1046 H1032 0.960 . S
C1046 H1033 0.961 . S
C1046 H1034 0.959 . S
C1046 C1044 1.561 . S
C1047 C1044 1.526 . S
C1047 C1048 1.396 . S
C1047 C1052 1.390 . S
C1048 C1042 1.465 . S
C1048 C1047 1.396 . S
C1048 C1049 1.399 . S
C1049 H1035 0.929 . S
C1049 C1048 1.399 . S
C1049 C1050 1.385 . S
C1050 H1036 0.931 . S
C1050 C1049 1.385 . S
C1050 C1051 1.389 . S
C1051 C1050 1.389 . S
C1051 C1052 1.387 . S
C1052 H1037 0.929 . S
C1052 C1047 1.390 . S
C1052 C1051 1.387 . S
H1053 C1065 0.930 . S
H1054 C1067 0.930 . S
H1055 C1068 0.930 . S
H1056 C1072 0.959 . S
H1057 C1072 0.959 . S
H1058 C1072 0.961 . S
H1059 C1073 0.960 . S
H1060 C1073 0.961 . S
H1061 C1073 0.959 . S
H1062 C1076 0.929 . S
H1063 C1077 0.931 . S
H1064 C1079 0.930 . S
C1065 H1053 0.930 . S
C1065 C1066 1.399 . S
C1065 C1070 1.399 . S
C1066 C1065 1.399 . S
C1066 C1067 1.376 . S
C1067 H1054 0.930 . S
C1067 C1066 1.376 . S
C1067 C1068 1.388 . S
C1068 H1055 0.930 . S
C1068 C1067 1.388 . S
C1068 C1069 1.390 . S
C1069 C1068 1.390 . S
C1069 C1070 1.394 . S
C1069 C1075 1.465 . S
C1070 C1065 1.399 . S
C1070 C1069 1.394 . S
C1070 C1071 1.516 . S
C1071 C1070 1.516 . S
C1071 C1072 1.502 . S
C1071 C1073 1.561 . S
C1071 C1074 1.526 . S
C1072 H1056 0.959 . S
C1072 H1057 0.959 . S
C1072 H1058 0.961 . S
C1072 C1071 1.502 . S
C1073 H1059 0.960 . S
C1073 H1060 0.961 . S
C1073 H1061 0.959 . S
C1073 C1071 1.561 . S
C1074 C1071 1.526 . S
C1074 C1075 1.396 . S
C1074 C1079 1.390 . S
C1075 C1069 1.465 . S
C1075 C1074 1.396 . S
C1075 C1076 1.399 . S
C1076 H1062 0.929 . S
C1076 C1075 1.399 . S
C1076 C1077 1.385 . S
C1077 H1063 0.931 . S
C1077 C1076 1.385 . S
C1077 C1078 1.389 . S
C1078 C1077 1.389 . S
C1078 C1079 1.387 . S
C1079 H1064 0.930 . S
C1079 C1074 1.390 . S
C1079 C1078 1.387 . S
C241 C129 1.251 . S
C229 C5 1.253 . S
C268 C143 1.302 . S
C256 C18 1.303 . S
C295 C151 1.259 . S
C283 C31 1.275 . S
C310 C42 1.103 . S
C322 C109 1.170 . S
C337 C57 1.432 . S
C349 C115 1.415 1_556 S
C364 C70 1.454 . S
C376 C123 1.452 . S
C403 C137 1.475 . S
C391 C81 1.479 . S
C430 C157 1.437 . S
C418 C96 1.449 . S
C445 C29 1.406 . S
C457 C185 1.400 . S
C484 C199 1.457 . S
C472 C44 1.388 . S
C499 C3 1.477 . S
C511 C207 1.472 . S
C538 C171 1.463 . S
C526 C16 1.454 . S
C553 C83 1.257 . S
C565 C165 1.248 . S
C580 C94 1.154 . S
C592 C179 1.222 . S
C619 C193 1.295 . S
C607 C55 1.251 . S
C634 C68 1.314 . S
C646 C213 1.335 . S
C673 C132 1.372 . S
C661 C1 1.364 . S
C700 C155 1.337 . S
C688 C14 1.374 . S
C715 C27 1.360 . S
C727 C113 1.297 . S
C742 C49 1.325 . S
C754 C118 1.285 . S
C769 C53 1.661 . S
C781 C146 1.627 . S
C808 C104 1.675 . S
C796 C66 1.629 . S
C835 C127 1.710 . S
C823 C88 1.677 . S
C862 C141 1.692 . S
C850 C92 1.637 . S
C889 C188 1.684 . S
C877 C36 1.675 . S
C916 C211 1.649 . S
C904 C40 1.628 . S
C931 C10 1.694 . S
C943 C160 1.619 . S
C970 C174 1.646 . S
C958 C23 1.704 . S
C997 C202 1.367 . S
C985 C79 1.358 . S
C1012 C101 1.373 . S
C1024 C169 1.335 . S
C1051 C183 1.374 1_455 S
C1039 C62 1.376 . S
C1078 C197 1.394 . S
C1066 C75 1.382 . S
