# Generated by pormake.
# Topology gar, (4,6)-cn, num edge types: 1
# Building blocks:
#     Node 0, Type 0, BuildingBlock: QUQFOY_clean_sbu_1, # of connection points: 4
#     Node 1, Type 0, BuildingBlock: QUQFOY_clean_sbu_1, # of connection points: 4
#     Node 2, Type 0, BuildingBlock: QUQFOY_clean_sbu_1, # of connection points: 4
#     Node 3, Type 0, BuildingBlock: QUQFOY_clean_sbu_1, # of connection points: 4
#     Node 4, Type 0, BuildingBlock: QUQFOY_clean_sbu_1, # of connection points: 4
#     Node 5, Type 0, BuildingBlock: QUQFOY_clean_sbu_1, # of connection points: 4
#     Node 6, Type 0, BuildingBlock: QUQFOY_clean_sbu_1, # of connection points: 4
#     Node 7, Type 0, BuildingBlock: QUQFOY_clean_sbu_1, # of connection points: 4
#     Node 8, Type 0, BuildingBlock: QUQFOY_clean_sbu_1, # of connection points: 4
#     Node 9, Type 0, BuildingBlock: QUQFOY_clean_sbu_1, # of connection points: 4
#     Node 10, Type 0, BuildingBlock: QUQFOY_clean_sbu_1, # of connection points: 4
#     Node 11, Type 0, BuildingBlock: QUQFOY_clean_sbu_1, # of connection points: 4
#     Node 12, Type 0, BuildingBlock: QUQFOY_clean_sbu_1, # of connection points: 4
#     Node 13, Type 0, BuildingBlock: QUQFOY_clean_sbu_1, # of connection points: 4
#     Node 14, Type 0, BuildingBlock: QUQFOY_clean_sbu_1, # of connection points: 4
#     Node 15, Type 0, BuildingBlock: QUQFOY_clean_sbu_1, # of connection points: 4
#     Node 16, Type 0, BuildingBlock: QUQFOY_clean_sbu_1, # of connection points: 4
#     Node 17, Type 0, BuildingBlock: QUQFOY_clean_sbu_1, # of connection points: 4
#     Node 18, Type 0, BuildingBlock: QUQFOY_clean_sbu_1, # of connection points: 4
#     Node 19, Type 0, BuildingBlock: QUQFOY_clean_sbu_1, # of connection points: 4
#     Node 20, Type 0, BuildingBlock: QUQFOY_clean_sbu_1, # of connection points: 4
#     Node 21, Type 0, BuildingBlock: QUQFOY_clean_sbu_1, # of connection points: 4
#     Node 22, Type 0, BuildingBlock: QUQFOY_clean_sbu_1, # of connection points: 4
#     Node 23, Type 0, BuildingBlock: QUQFOY_clean_sbu_1, # of connection points: 4
#     Node 24, Type 1, BuildingBlock: BETDEL_clean_sbu_0, # of connection points: 6
#     Node 25, Type 1, BuildingBlock: BETDEL_clean_sbu_0, # of connection points: 6
#     Node 26, Type 1, BuildingBlock: BETDEL_clean_sbu_0, # of connection points: 6
#     Node 27, Type 1, BuildingBlock: BETDEL_clean_sbu_0, # of connection points: 6
#     Node 28, Type 1, BuildingBlock: BETDEL_clean_sbu_0, # of connection points: 6
#     Node 29, Type 1, BuildingBlock: BETDEL_clean_sbu_0, # of connection points: 6
#     Node 30, Type 1, BuildingBlock: BETDEL_clean_sbu_0, # of connection points: 6
#     Node 31, Type 1, BuildingBlock: BETDEL_clean_sbu_0, # of connection points: 6
#     Node 32, Type 1, BuildingBlock: BETDEL_clean_sbu_0, # of connection points: 6
#     Node 33, Type 1, BuildingBlock: BETDEL_clean_sbu_0, # of connection points: 6
#     Node 34, Type 1, BuildingBlock: BETDEL_clean_sbu_0, # of connection points: 6
#     Node 35, Type 1, BuildingBlock: BETDEL_clean_sbu_0, # of connection points: 6
#     Node 36, Type 1, BuildingBlock: BETDEL_clean_sbu_0, # of connection points: 6
#     Node 37, Type 1, BuildingBlock: BETDEL_clean_sbu_0, # of connection points: 6
#     Node 38, Type 1, BuildingBlock: BETDEL_clean_sbu_0, # of connection points: 6
#     Node 39, Type 1, BuildingBlock: BETDEL_clean_sbu_0, # of connection points: 6
#     Edge 40, Type (0, 1), BuildingBlock: UVAHIK_clean_linker_0, # of connection points: 2
#     Edge 41, Type (0, 1), BuildingBlock: UVAHIK_clean_linker_0, # of connection points: 2
#     Edge 42, Type (0, 1), BuildingBlock: UVAHIK_clean_linker_0, # of connection points: 2
#     Edge 43, Type (0, 1), BuildingBlock: UVAHIK_clean_linker_0, # of connection points: 2
#     Edge 44, Type (0, 1), BuildingBlock: UVAHIK_clean_linker_0, # of connection points: 2
#     Edge 45, Type (0, 1), BuildingBlock: UVAHIK_clean_linker_0, # of connection points: 2
#     Edge 46, Type (0, 1), BuildingBlock: UVAHIK_clean_linker_0, # of connection points: 2
#     Edge 47, Type (0, 1), BuildingBlock: UVAHIK_clean_linker_0, # of connection points: 2
#     Edge 48, Type (0, 1), BuildingBlock: UVAHIK_clean_linker_0, # of connection points: 2
#     Edge 49, Type (0, 1), BuildingBlock: UVAHIK_clean_linker_0, # of connection points: 2
#     Edge 50, Type (0, 1), BuildingBlock: UVAHIK_clean_linker_0, # of connection points: 2
#     Edge 51, Type (0, 1), BuildingBlock: UVAHIK_clean_linker_0, # of connection points: 2
#     Edge 52, Type (0, 1), BuildingBlock: UVAHIK_clean_linker_0, # of connection points: 2
#     Edge 53, Type (0, 1), BuildingBlock: UVAHIK_clean_linker_0, # of connection points: 2
#     Edge 54, Type (0, 1), BuildingBlock: UVAHIK_clean_linker_0, # of connection points: 2
#     Edge 55, Type (0, 1), BuildingBlock: UVAHIK_clean_linker_0, # of connection points: 2
#     Edge 56, Type (0, 1), BuildingBlock: UVAHIK_clean_linker_0, # of connection points: 2
#     Edge 57, Type (0, 1), BuildingBlock: UVAHIK_clean_linker_0, # of connection points: 2
#     Edge 58, Type (0, 1), BuildingBlock: UVAHIK_clean_linker_0, # of connection points: 2
#     Edge 59, Type (0, 1), BuildingBlock: UVAHIK_clean_linker_0, # of connection points: 2
#     Edge 60, Type (0, 1), BuildingBlock: UVAHIK_clean_linker_0, # of connection points: 2
#     Edge 61, Type (0, 1), BuildingBlock: UVAHIK_clean_linker_0, # of connection points: 2
#     Edge 62, Type (0, 1), BuildingBlock: UVAHIK_clean_linker_0, # of connection points: 2
#     Edge 63, Type (0, 1), BuildingBlock: UVAHIK_clean_linker_0, # of connection points: 2
#     Edge 64, Type (0, 1), BuildingBlock: UVAHIK_clean_linker_0, # of connection points: 2
#     Edge 65, Type (0, 1), BuildingBlock: UVAHIK_clean_linker_0, # of connection points: 2
#     Edge 66, Type (0, 1), BuildingBlock: UVAHIK_clean_linker_0, # of connection points: 2
#     Edge 67, Type (0, 1), BuildingBlock: UVAHIK_clean_linker_0, # of connection points: 2
#     Edge 68, Type (0, 1), BuildingBlock: UVAHIK_clean_linker_0, # of connection points: 2
#     Edge 69, Type (0, 1), BuildingBlock: UVAHIK_clean_linker_0, # of connection points: 2
#     Edge 70, Type (0, 1), BuildingBlock: UVAHIK_clean_linker_0, # of connection points: 2
#     Edge 71, Type (0, 1), BuildingBlock: UVAHIK_clean_linker_0, # of connection points: 2
#     Edge 72, Type (0, 1), BuildingBlock: UVAHIK_clean_linker_0, # of connection points: 2
#     Edge 73, Type (0, 1), BuildingBlock: UVAHIK_clean_linker_0, # of connection points: 2
#     Edge 74, Type (0, 1), BuildingBlock: UVAHIK_clean_linker_0, # of connection points: 2
#     Edge 75, Type (0, 1), BuildingBlock: UVAHIK_clean_linker_0, # of connection points: 2
#     Edge 76, Type (0, 1), BuildingBlock: UVAHIK_clean_linker_0, # of connection points: 2
#     Edge 77, Type (0, 1), BuildingBlock: UVAHIK_clean_linker_0, # of connection points: 2
#     Edge 78, Type (0, 1), BuildingBlock: UVAHIK_clean_linker_0, # of connection points: 2
#     Edge 79, Type (0, 1), BuildingBlock: UVAHIK_clean_linker_0, # of connection points: 2
#     Edge 80, Type (0, 1), BuildingBlock: UVAHIK_clean_linker_0, # of connection points: 2
#     Edge 81, Type (0, 1), BuildingBlock: UVAHIK_clean_linker_0, # of connection points: 2
#     Edge 82, Type (0, 1), BuildingBlock: UVAHIK_clean_linker_0, # of connection points: 2
#     Edge 83, Type (0, 1), BuildingBlock: UVAHIK_clean_linker_0, # of connection points: 2
#     Edge 84, Type (0, 1), BuildingBlock: UVAHIK_clean_linker_0, # of connection points: 2
#     Edge 85, Type (0, 1), BuildingBlock: UVAHIK_clean_linker_0, # of connection points: 2
#     Edge 86, Type (0, 1), BuildingBlock: UVAHIK_clean_linker_0, # of connection points: 2
#     Edge 87, Type (0, 1), BuildingBlock: UVAHIK_clean_linker_0, # of connection points: 2
#     Edge 88, Type (0, 1), BuildingBlock: UVAHIK_clean_linker_0, # of connection points: 2
#     Edge 89, Type (0, 1), BuildingBlock: UVAHIK_clean_linker_0, # of connection points: 2
#     Edge 90, Type (0, 1), BuildingBlock: UVAHIK_clean_linker_0, # of connection points: 2
#     Edge 91, Type (0, 1), BuildingBlock: UVAHIK_clean_linker_0, # of connection points: 2
#     Edge 92, Type (0, 1), BuildingBlock: UVAHIK_clean_linker_0, # of connection points: 2
#     Edge 93, Type (0, 1), BuildingBlock: UVAHIK_clean_linker_0, # of connection points: 2
#     Edge 94, Type (0, 1), BuildingBlock: UVAHIK_clean_linker_0, # of connection points: 2
#     Edge 95, Type (0, 1), BuildingBlock: UVAHIK_clean_linker_0, # of connection points: 2
#     Edge 96, Type (0, 1), BuildingBlock: UVAHIK_clean_linker_0, # of connection points: 2
#     Edge 97, Type (0, 1), BuildingBlock: UVAHIK_clean_linker_0, # of connection points: 2
#     Edge 98, Type (0, 1), BuildingBlock: UVAHIK_clean_linker_0, # of connection points: 2
#     Edge 99, Type (0, 1), BuildingBlock: UVAHIK_clean_linker_0, # of connection points: 2
#     Edge 100, Type (0, 1), BuildingBlock: UVAHIK_clean_linker_0, # of connection points: 2
#     Edge 101, Type (0, 1), BuildingBlock: UVAHIK_clean_linker_0, # of connection points: 2
#     Edge 102, Type (0, 1), BuildingBlock: UVAHIK_clean_linker_0, # of connection points: 2
#     Edge 103, Type (0, 1), BuildingBlock: UVAHIK_clean_linker_0, # of connection points: 2
#     Edge 104, Type (0, 1), BuildingBlock: UVAHIK_clean_linker_0, # of connection points: 2
#     Edge 105, Type (0, 1), BuildingBlock: UVAHIK_clean_linker_0, # of connection points: 2
#     Edge 106, Type (0, 1), BuildingBlock: UVAHIK_clean_linker_0, # of connection points: 2
#     Edge 107, Type (0, 1), BuildingBlock: UVAHIK_clean_linker_0, # of connection points: 2
#     Edge 108, Type (0, 1), BuildingBlock: UVAHIK_clean_linker_0, # of connection points: 2
#     Edge 109, Type (0, 1), BuildingBlock: UVAHIK_clean_linker_0, # of connection points: 2
#     Edge 110, Type (0, 1), BuildingBlock: UVAHIK_clean_linker_0, # of connection points: 2
#     Edge 111, Type (0, 1), BuildingBlock: UVAHIK_clean_linker_0, # of connection points: 2
#     Edge 112, Type (0, 1), BuildingBlock: UVAHIK_clean_linker_0, # of connection points: 2
#     Edge 113, Type (0, 1), BuildingBlock: UVAHIK_clean_linker_0, # of connection points: 2
#     Edge 114, Type (0, 1), BuildingBlock: UVAHIK_clean_linker_0, # of connection points: 2
#     Edge 115, Type (0, 1), BuildingBlock: UVAHIK_clean_linker_0, # of connection points: 2
#     Edge 116, Type (0, 1), BuildingBlock: UVAHIK_clean_linker_0, # of connection points: 2
#     Edge 117, Type (0, 1), BuildingBlock: UVAHIK_clean_linker_0, # of connection points: 2
#     Edge 118, Type (0, 1), BuildingBlock: UVAHIK_clean_linker_0, # of connection points: 2
#     Edge 119, Type (0, 1), BuildingBlock: UVAHIK_clean_linker_0, # of connection points: 2
#     Edge 120, Type (0, 1), BuildingBlock: UVAHIK_clean_linker_0, # of connection points: 2
#     Edge 121, Type (0, 1), BuildingBlock: UVAHIK_clean_linker_0, # of connection points: 2
#     Edge 122, Type (0, 1), BuildingBlock: UVAHIK_clean_linker_0, # of connection points: 2
#     Edge 123, Type (0, 1), BuildingBlock: UVAHIK_clean_linker_0, # of connection points: 2
#     Edge 124, Type (0, 1), BuildingBlock: UVAHIK_clean_linker_0, # of connection points: 2
#     Edge 125, Type (0, 1), BuildingBlock: UVAHIK_clean_linker_0, # of connection points: 2
#     Edge 126, Type (0, 1), BuildingBlock: UVAHIK_clean_linker_0, # of connection points: 2
#     Edge 127, Type (0, 1), BuildingBlock: UVAHIK_clean_linker_0, # of connection points: 2
#     Edge 128, Type (0, 1), BuildingBlock: UVAHIK_clean_linker_0, # of connection points: 2
#     Edge 129, Type (0, 1), BuildingBlock: UVAHIK_clean_linker_0, # of connection points: 2
#     Edge 130, Type (0, 1), BuildingBlock: UVAHIK_clean_linker_0, # of connection points: 2
#     Edge 131, Type (0, 1), BuildingBlock: UVAHIK_clean_linker_0, # of connection points: 2
#     Edge 132, Type (0, 1), BuildingBlock: UVAHIK_clean_linker_0, # of connection points: 2
#     Edge 133, Type (0, 1), BuildingBlock: UVAHIK_clean_linker_0, # of connection points: 2
#     Edge 134, Type (0, 1), BuildingBlock: UVAHIK_clean_linker_0, # of connection points: 2
#     Edge 135, Type (0, 1), BuildingBlock: UVAHIK_clean_linker_0, # of connection points: 2
# Relax obj value: 0.152
# Max RMSD: 0.266
# Mean RMSD: 0.180
data_MOF--net-gar--node1-QUQFOY_clean_sbu_1--node2-BETDEL_clean_sbu_0--edge1-UVAHIK_clean_linker_0
_symmetry_space_group_name_H-M    P1
_symmetry_Int_Tables_number       1
_symmetry_cell_setting            triclinic
loop_
_symmetry_equiv_pos_as_xyz
'x, y, z'
_cell_length_a     72.626932
_cell_length_b     69.728855
_cell_length_c     71.205805
_cell_angle_alpha  95.721419
_cell_angle_beta   93.112818
_cell_angle_gamma 103.08002
loop_
_atom_site_label
_atom_site_type_symbol
_atom_site_fract_x
_atom_site_fract_y
_atom_site_fract_z
_atom_type_partial_charge
O0 O 0.01821 0.24472 0.40224 0.0
Cd1 Cd 0.02038 0.26783 0.38559 0.0
Cd2 Cd 0.01227 0.28654 0.41815 0.0
O3 O 0.01602 0.26173 0.42945 0.0
O4 O 0.03307 0.2593 0.36325 0.0
O5 O 0.04605 0.28557 0.38369 0.0
C6 C 0.04725 0.27401 0.36868 0.0
C7 C 0.02762 0.31712 0.43414 0.0
C8 C 0.01746 0.24576 0.4201 0.0
C9 C 0.98434 0.282 0.38489 0.0
O10 O 0.98718 0.28558 0.40277 0.0
O11 O 0.99645 0.27593 0.37511 0.0
O12 O 0.01307 0.30612 0.44046 0.0
O13 O 0.03371 0.31061 0.4186 0.0
O14 O 0.98041 0.73714 0.62499 0.0
Cd15 Cd 0.98895 0.76046 0.64611 0.0
Cd16 Cd 0.00576 0.77985 0.61812 0.0
O17 O 0.99335 0.75336 0.60217 0.0
O18 O 0.97269 0.75339 0.66708 0.0
O19 O 0.97264 0.77974 0.65216 0.0
C20 C 0.96611 0.76881 0.66505 0.0
C21 C 0.00398 0.80827 0.60399 0.0
C22 C 0.9839 0.73759 0.60773 0.0
C23 C 0.0313 0.77357 0.65051 0.0
O24 O 0.03012 0.78074 0.63489 0.0
O25 O 0.01639 0.76516 0.65773 0.0
O26 O 0.01499 0.79711 0.59841 0.0
O27 O 0.99394 0.80342 0.61795 0.0
O28 O 0.56452 0.7725 0.89411 0.0
Cd29 Cd 0.54677 0.77617 0.91505 0.0
Cd30 Cd 0.52735 0.78856 0.88589 0.0
O31 O 0.54712 0.77868 0.8701 0.0
O32 O 0.55327 0.76017 0.93482 0.0
O33 O 0.52498 0.75385 0.91913 0.0
C34 C 0.53627 0.74928 0.9317 0.0
C35 C 0.49638 0.78376 0.87238 0.0
C36 C 0.56173 0.77355 0.87651 0.0
C37 C 0.54341 0.81787 0.92068 0.0
O38 O 0.53555 0.81456 0.90392 0.0
O39 O 0.54872 0.80416 0.92837 0.0
O40 O 0.51034 0.79605 0.86657 0.0
O41 O 0.50008 0.77335 0.88551 0.0
O42 O 0.47369 0.23349 0.12254 0.0
Cd43 Cd 0.48087 0.25575 0.14487 0.0
Cd44 Cd 0.50106 0.27624 0.11897 0.0
O45 O 0.48993 0.25024 0.10173 0.0
O46 O 0.46264 0.24763 0.16411 0.0
O47 O 0.46483 0.27535 0.15089 0.0
C48 C 0.45697 0.26369 0.16268 0.0
C49 C 0.50032 0.30536 0.10553 0.0
C50 C 0.47929 0.23441 0.10598 0.0
C51 C 0.52312 0.26795 0.15308 0.0
O52 O 0.52368 0.2761 0.13785 0.0
O53 O 0.50734 0.2593 0.15858 0.0
O54 O 0.51208 0.29476 0.10077 0.0
O55 O 0.48905 0.29962 0.11835 0.0
O56 O 0.01655 0.75553 0.15553 0.0
Cd57 Cd 0.01992 0.78266 0.17148 0.0
Cd58 Cd 0.03578 0.7972 0.14125 0.0
O59 O 0.02771 0.76784 0.12997 0.0
O60 O 0.00282 0.77834 0.19231 0.0
O61 O -3e-05 0.79846 0.17073 0.0
C62 C 0.9941 0.79073 0.18571 0.0
C63 C 0.02702 0.82038 0.12334 0.0
C64 C 0.02063 0.75303 0.13847 0.0
C65 C 0.06114 0.80337 0.17696 0.0
O66 O 0.06018 0.80571 0.15948 0.0
O67 O 0.04643 0.79503 0.18454 0.0
O68 O 0.0405 0.81198 0.11883 0.0
O69 O 0.01854 0.81581 0.13833 0.0
O70 O 0.5335 0.76199 0.37343 0.0
Cd71 Cd 0.51355 0.76406 0.39257 0.0
Cd72 Cd 0.49582 0.77519 0.36105 0.0
O73 O 0.51964 0.77077 0.34843 0.0
O74 O 0.52302 0.75214 0.41422 0.0
O75 O 0.49557 0.73892 0.39784 0.0
C76 C 0.50797 0.73799 0.41124 0.0
C77 C 0.46653 0.76129 0.34453 0.0
C78 C 0.53338 0.76518 0.35618 0.0
C79 C 0.50395 0.80413 0.39647 0.0
O80 O 0.4974 0.80054 0.37924 0.0
O81 O 0.51092 0.7915 0.40434 0.0
O82 O 0.47783 0.77671 0.33959 0.0
O83 O 0.47197 0.7535 0.35896 0.0
O84 O 0.52374 0.2622 0.6481 0.0
Cd85 Cd 0.52445 0.28604 0.66812 0.0
Cd86 Cd 0.54446 0.30681 0.64301 0.0
O87 O 0.5414 0.27912 0.62834 0.0
O88 O 0.50513 0.27626 0.68588 0.0
O89 O 0.50365 0.30088 0.66898 0.0
C90 C 0.49653 0.28963 0.68141 0.0
C91 C 0.53575 0.33086 0.62625 0.0
C92 C 0.53218 0.26271 0.6329 0.0
C93 C 0.5643 0.30863 0.68122 0.0
O94 O 0.5653 0.31502 0.66511 0.0
O95 O 0.54926 0.29688 0.68511 0.0
O96 O 0.55158 0.32579 0.62411 0.0
O97 O 0.52488 0.32248 0.63834 0.0
O98 O 0.00049 0.22128 0.88072 0.0
Cd99 Cd 0.99747 0.23967 0.86033 0.0
Cd100 Cd 0.98308 0.25833 0.89048 0.0
O101 O 0.99331 0.23881 0.9056 0.0
O102 O 0.01213 0.23065 0.83982 0.0
O103 O 0.0199 0.26088 0.85515 0.0
C104 C 0.02354 0.24792 0.84249 0.0
C105 C 0.9881 0.29132 0.90359 0.0
C106 C -0.00106 0.22394 0.89843 0.0
C107 C 0.9566 0.24064 0.85589 0.0
O108 O 0.9584 0.24761 0.87324 0.0
O109 O 0.97087 0.23766 0.84751 0.0
O110 O 0.97615 0.27735 0.91 0.0
O111 O 0.99764 0.28651 0.8898 0.0
O112 O 0.39726 0.06213 0.24305 0.0
Cd113 Cd 0.37851 0.0551 0.26339 0.0
Cd114 Cd 0.40955 0.04792 0.28242 0.0
O115 O 0.4222 0.05638 0.2585 0.0
O116 O 0.35609 0.06451 0.25468 0.0
O117 O 0.37278 0.07617 0.28201 0.0
C118 C 0.35862 0.07624 0.27023 0.0
C119 C 0.42677 0.06128 0.31106 0.0
C120 C 0.41465 0.06162 0.24396 0.0
C121 C 0.37549 0.014 0.27423 0.0
O122 O 0.39249 0.01978 0.2814 0.0
O123 O 0.36743 0.02586 0.26643 0.0
O124 O 0.43153 0.04775 0.3 0.0
O125 O 0.41192 0.06732 0.3059 0.0
O126 O 0.27706 0.16293 0.53791 0.0
Cd127 Cd 0.27407 0.14084 0.51562 0.0
Cd128 Cd 0.25604 0.1655 0.49799 0.0
O129 O 0.25994 0.1812 0.52474 0.0
O130 O 0.29046 0.1235 0.52404 0.0
O131 O 0.29522 0.13922 0.49866 0.0
C132 C 0.30016 0.12732 0.50969 0.0
C133 C 0.26413 0.18254 0.47185 0.0
C134 C 0.26948 0.17771 0.539 0.0
C135 C 0.23357 0.12404 0.50017 0.0
O136 O 0.23423 0.14036 0.49344 0.0
O137 O 0.24784 0.12145 0.50985 0.0
O138 O 0.24887 0.18323 0.48005 0.0
O139 O 0.27516 0.17234 0.47869 0.0
O140 O 0.13687 0.01115 0.74673 0.0
Cd141 Cd 0.15439 0.0118 0.77072 0.0
Cd142 Cd 0.12576 0.02392 0.78837 0.0
O143 O 0.11336 0.01994 0.76103 0.0
O144 O 0.17411 -0.00205 0.76194 0.0
O145 O 0.15468 0.98724 0.78345 0.0
C146 C 0.16851 0.98504 0.7734 0.0
C147 C 0.10752 0.0122 0.81273 0.0
C148 C 0.12068 0.01528 0.74592 0.0
C149 C 0.1635 0.05299 0.7914 0.0
O150 O 0.14633 0.04971 0.79547 0.0
O151 O 0.16966 0.03953 0.78214 0.0
O152 O 0.1048 0.02704 0.80444 0.0
O153 O 0.12052 0.00361 0.80695 0.0
O154 O 0.236 0.89695 0.04953 0.0
Cd155 Cd 0.24104 0.9172 0.03019 0.0
Cd156 Cd 0.24699 0.88357 0.00623 0.0
O157 O 0.23891 0.87118 0.03027 0.0
O158 O 0.23233 0.94039 0.04147 0.0
O159 O 0.21967 0.92281 0.01432 0.0
C160 C 0.22019 0.93759 0.027 0.0
C161 C 0.23884 0.86084 0.97904 0.0
C162 C 0.23542 0.87858 0.04631 0.0
C163 C 0.27884 0.92073 0.01415 0.0
O164 O 0.27299 0.90306 0.00628 0.0
O165 O 0.26827 0.92895 0.02421 0.0
O166 O 0.25188 0.85981 0.99157 0.0
O167 O 0.23028 0.87509 0.98177 0.0
O168 O 0.24477 0.39197 0.07344 0.0
Cd169 Cd 0.24663 0.41058 0.05251 0.0
Cd170 Cd 0.25623 0.37741 0.03264 0.0
O171 O 0.24809 0.36456 0.05691 0.0
O172 O 0.23382 0.43156 0.06223 0.0
O173 O 0.22369 0.4116 0.03576 0.0
C174 C 0.22166 0.42603 0.04774 0.0
C175 C 0.25003 0.35913 0.00262 0.0
C176 C 0.2451 0.37374 0.07239 0.0
C177 C 0.28547 0.41705 0.0394 0.0
O178 O 0.28143 0.39855 0.03406 0.0
O179 O 0.27321 0.42527 0.04668 0.0
O180 O 0.26219 0.35593 0.01506 0.0
O181 O 0.24027 0.37187 0.00767 0.0
O182 O 0.79677 0.16121 0.06129 0.0
Cd183 Cd 0.78943 0.1428 0.03616 0.0
Cd184 Cd 0.78375 0.17567 0.0229 0.0
O185 O 0.79557 0.18874 0.04912 0.0
O186 O 0.79856 0.1188 0.04054 0.0
O187 O 0.80852 0.13759 0.01811 0.0
C188 C 0.80896 0.12214 0.02659 0.0
C189 C 0.79458 0.19162 0.99717 0.0
C190 C 0.79888 0.1799 0.0632 0.0
C191 C 0.74964 0.14254 0.02313 0.0
O192 O 0.7556 0.1607 0.02093 0.0
O193 O 0.76109 0.13239 0.02823 0.0
O194 O 0.78438 0.1989 0.0089 0.0
O195 O 0.79872 0.17501 -4e-05 0.0
O196 O 0.10139 0.47299 0.21088 0.0
Cd197 Cd 0.121 0.4854 0.23326 0.0
Cd198 Cd 0.09183 0.49828 0.24728 0.0
O199 O 0.07789 0.4849 0.22171 0.0
O200 O 0.14304 0.47394 0.22806 0.0
O201 O 0.12808 0.47036 0.25418 0.0
C202 C 0.1418 0.46739 0.24433 0.0
C203 C 0.07872 0.4893 0.27503 0.0
C204 C 0.08451 0.4751 0.2088 0.0
C205 C 0.12609 0.52946 0.24228 0.0
O206 O 0.10964 0.52607 0.24828 0.0
O207 O 0.1328 0.51524 0.23539 0.0
O208 O 0.07197 0.50076 0.26479 0.0
O209 O 0.09297 0.4827 0.26934 0.0
O210 O 0.74762 0.8961 0.57178 0.0
Cd211 Cd 0.75096 0.91537 0.55129 0.0
Cd212 Cd 0.75939 0.88329 0.53044 0.0
O213 O 0.75039 0.86937 0.55382 0.0
O214 O 0.73792 0.93659 0.55975 0.0
O215 O 0.72908 0.91649 0.53315 0.0
C216 C 0.72662 0.93112 0.5446 0.0
C217 C 0.75106 0.86646 0.50003 0.0
C218 C 0.74726 0.8777 0.56966 0.0
C219 C 0.79013 0.92122 0.53862 0.0
O220 O 0.7856 0.90292 0.5324 0.0
O221 O 0.77807 0.92948 0.5463 0.0
O222 O 0.76281 0.86145 0.51172 0.0
O223 O 0.74319 0.88057 0.50593 0.0
O224 O 0.88915 0.05679 0.20606 0.0
Cd225 Cd 0.86864 0.05056 0.22505 0.0
Cd226 Cd 0.8978 0.04026 0.24562 0.0
O227 O 0.91277 0.05044 0.22331 0.0
O228 O 0.84912 0.06526 0.21846 0.0
O229 O 0.86589 0.07089 0.24619 0.0
C230 C 0.85298 0.07503 0.23511 0.0
C231 C 0.91287 0.04545 0.27623 0.0
C232 C 0.90641 0.05584 0.20821 0.0
C233 C 0.86209 0.00839 0.23263 0.0
O234 O 0.87879 0.01322 0.24066 0.0
O235 O 0.85486 0.02124 0.22545 0.0
O236 O 0.91772 0.03421 0.26287 0.0
O237 O 0.89994 0.05469 0.27205 0.0
O238 O 0.30566 0.67138 0.56853 0.0
Cd239 Cd 0.29496 0.64794 0.54799 0.0
Cd240 Cd 0.28697 0.67556 0.52668 0.0
O241 O 0.29848 0.69341 0.5511 0.0
O242 O 0.30669 0.62578 0.55297 0.0
O243 O 0.30998 0.64066 0.52681 0.0
C244 C 0.31331 0.62694 0.53655 0.0
C245 C 0.2932 0.69041 0.49909 0.0
C246 C 0.30521 0.68917 0.56656 0.0
C247 C 0.25444 0.64293 0.53507 0.0
O248 O 0.26003 0.65799 0.52641 0.0
O249 O 0.26619 0.63652 0.54512 0.0
O250 O 0.28248 0.69627 0.5111 0.0
O251 O 0.30057 0.67583 0.50262 0.0
O252 O 0.39248 0.55693 0.70507 0.0
Cd253 Cd 0.37535 0.55267 0.72735 0.0
Cd254 Cd 0.40643 0.54126 0.74167 0.0
O255 O 0.41933 0.55468 0.71973 0.0
O256 O 0.3542 0.56543 0.72116 0.0
O257 O 0.37421 0.57558 0.74658 0.0
C258 C 0.35968 0.57757 0.73633 0.0
C259 C 0.42129 0.54506 0.77218 0.0
C260 C 0.41024 0.5582 0.7052 0.0
C261 C 0.37049 0.51003 0.73251 0.0
O262 O 0.38844 0.51372 0.73495 0.0
O263 O 0.3621 0.52399 0.73095 0.0
O264 O 0.42712 0.53554 0.75814 0.0
O265 O 0.40767 0.55365 0.76868 0.0
O266 O 0.61267 0.99223 0.71681 0.0
Cd267 Cd 0.627 -0.0011 0.74343 0.0
Cd268 Cd 0.59331 0.00458 0.75272 0.0
O269 O 0.58409 0.99271 0.72546 0.0
O270 O 0.65197 0.99306 0.73901 0.0
O271 O 0.63244 0.97733 0.7582 0.0
C272 C 0.64851 0.98004 0.75074 0.0
C273 C 0.57928 0.99003 0.77781 0.0
C274 C 0.59497 0.98971 0.71269 0.0
C275 C 0.62494 0.04008 0.75879 0.0
O276 O 0.607 0.03419 0.75746 0.0
O277 O 0.63524 0.02798 0.755 0.0
O278 O 0.57106 0.00072 0.76796 0.0
O279 O 0.59552 0.98726 0.77309 0.0
O280 O 0.77797 0.66304 0.03658 0.0
Cd281 Cd 0.7734 0.64298 0.01238 0.0
Cd282 Cd 0.75987 0.67324 0.99801 0.0
O283 O 0.76891 0.68775 0.02466 0.0
O284 O 0.78636 0.62226 0.01975 0.0
O285 O 0.79469 0.63968 0.99606 0.0
C286 C 0.79729 0.62608 0.00629 0.0
C287 C 0.76647 0.69088 0.97189 0.0
C288 C 0.77531 0.68052 0.03862 0.0
C289 C 0.73205 0.6341 -0.00094 0.0
O290 O 0.73465 0.65208 0.99583 0.0
O291 O 0.74585 0.62728 0.0049 0.0
O292 O 0.75402 0.6942 0.98323 0.0
O293 O 0.7755 0.67752 0.97548 0.0
O294 O 0.91686 0.56547 0.74927 0.0
Cd295 Cd 0.8964 0.55763 0.76784 0.0
Cd296 Cd 0.92559 0.54917 0.78832 0.0
O297 O 0.94053 0.55873 0.766 0.0
O298 O 0.87461 0.56682 0.75713 0.0
O299 O 0.88868 0.57812 0.7857 0.0
C300 C 0.87553 0.57816 0.77274 0.0
C301 C 0.93873 0.56295 0.81843 0.0
C302 C 0.93417 0.56476 0.75129 0.0
C303 C 0.89213 0.51561 0.77701 0.0
O304 O 0.90871 0.52078 0.7853 0.0
O305 O 0.88486 0.52815 0.76937 0.0
O306 O 0.94559 0.55006 0.8086 0.0
O307 O 0.9241 0.56804 0.81117 0.0
O308 O 0.73576 0.40321 0.55593 0.0
Cd309 Cd 0.74207 0.42363 0.53685 0.0
Cd310 Cd 0.74877 0.39077 0.51371 0.0
O311 O 0.73826 0.37738 0.53653 0.0
O312 O 0.73014 0.44565 0.54496 0.0
O313 O 0.72209 0.42653 0.5176 0.0
C314 C 0.71983 0.44123 0.52911 0.0
C315 C 0.74329 0.36957 0.48541 0.0
C316 C 0.7344 0.3847 0.55245 0.0
C317 C 0.7809 0.4277 0.52432 0.0
O318 O 0.77508 0.4101 0.51628 0.0
O319 O 0.76984 0.43623 0.53335 0.0
O320 O 0.75501 0.36778 0.49892 0.0
O321 O 0.73429 0.38349 0.48794 0.0
O322 O 0.63951 0.51226 0.24685 0.0
Cd323 Cd 0.65636 0.51235 0.27116 0.0
Cd324 Cd 0.62795 0.52449 0.28858 0.0
O325 O 0.61568 0.52022 0.2612 0.0
O326 O 0.67592 0.49788 0.26337 0.0
O327 O 0.65468 0.48724 0.2834 0.0
C328 C 0.66894 0.48473 0.27416 0.0
C329 C 0.60926 0.51192 0.31228 0.0
C330 C 0.62312 0.51587 0.24608 0.0
C331 C 0.66583 0.55326 0.29248 0.0
O332 O 0.64852 0.55033 0.29604 0.0
O333 O 0.6719 0.53963 0.28339 0.0
O334 O 0.60665 0.52702 0.30436 0.0
O335 O 0.6226 0.50374 0.30669 0.0
Dy336 Dy 0.98648 0.01533 0.00602 0.0
C337 C 0.06697 0.02897 0.01481 0.0
C338 C 0.94866 0.01395 0.00187 0.0
Dy339 Dy 0.02952 0.02847 0.01605 0.0
O340 O 0.95968 0.01383 0.98814 0.0
O341 O 0.95824 0.01434 0.01791 0.0
O342 O 0.99145 0.99436 0.98177 0.0
O343 O 0.01132 0.02132 0.98996 0.0
C344 C 0.00796 0.00528 0.97914 0.0
C345 C 0.00843 0.03899 0.04306 0.0
O346 O 0.02574 0.05434 0.00173 0.0
O347 O 0.99329 0.04833 0.00446 0.0
O348 O 0.0599 0.0383 0.02831 0.0
O349 O 0.05363 0.01953 0.00219 0.0
O350 O 0.02538 0.04927 0.04085 0.0
O351 O 0.00473 0.02298 0.03216 0.0
O352 O 0.98957 0.98868 0.01971 0.0
O353 O 0.02262 0.99668 0.02231 0.0
C354 C 0.00953 0.05998 0.00073 0.0
C355 C 0.00606 0.9843 0.0239 0.0
Dy356 Dy 0.25835 0.76795 0.24122 0.0
C357 C 0.26934 0.76304 0.32128 0.0
C358 C 0.24915 0.77423 0.20521 0.0
Dy359 Dy 0.26092 0.76943 0.2851 0.0
O360 O 0.26585 0.77279 0.21155 0.0
O361 O 0.23755 0.77208 0.21846 0.0
O362 O 0.2798 0.74915 0.23976 0.0
O363 O 0.28067 0.77028 0.26329 0.0
C364 C 0.28773 0.7564 0.2566 0.0
C365 C 0.23177 0.78122 0.26958 0.0
O366 O 0.27736 0.80009 0.28301 0.0
O367 O 0.26882 0.80053 0.25103 0.0
O368 O 0.25252 0.76328 0.31422 0.0
O369 O 0.28152 0.76653 0.30867 0.0
O370 O 0.23968 0.78852 0.28641 0.0
O371 O 0.23869 0.76719 0.26307 0.0
O372 O 0.24119 0.73778 0.24344 0.0
O373 O 0.25039 0.73677 0.27511 0.0
C374 C 0.27686 0.80952 0.26779 0.0
C375 C 0.24176 0.72809 0.25845 0.0
Dy376 Dy 0.54002 0.03709 0.50945 0.0
C377 C 0.46167 0.04233 0.50025 0.0
C378 C 0.57507 0.02899 0.5132 0.0
Dy379 Dy 0.49629 0.03454 0.50805 0.0
O380 O 0.5649 0.02748 0.49733 0.0
O381 O 0.5663 0.03546 0.52703 0.0
O382 O 0.54227 0.05766 0.48678 0.0
O383 O 0.51747 0.03537 0.4877 0.0
C384 C 0.52495 0.05012 0.47965 0.0
C385 C 0.51092 0.02203 0.53847 0.0
O386 O 0.49633 0.00588 0.49112 0.0
O387 O 0.52601 0.0045 0.50408 0.0
O388 O 0.46529 0.03095 0.51267 0.0
O389 O 0.47688 0.0492 0.49199 0.0
O390 O 0.49331 0.01531 0.53189 0.0
O391 O 0.51874 0.03618 0.52982 0.0
O392 O 0.54121 0.06664 0.52547 0.0
O393 O 0.50935 0.06659 0.51858 0.0
C394 C 0.50954 0.99598 0.4944 0.0
C395 C 0.52689 0.07562 0.52557 0.0
Dy396 Dy 0.24252 0.282 0.76352 0.0
C397 C 0.32348 0.29499 0.76693 0.0
C398 C 0.2043 0.27616 0.7657 0.0
Dy399 Dy 0.28538 0.28525 0.77081 0.0
O400 O 0.21597 0.29317 0.76524 0.0
O401 O 0.21346 0.26212 0.76463 0.0
O402 O 0.24911 0.30616 0.74466 0.0
O403 O 0.26768 0.30618 0.76843 0.0
C404 C 0.26524 0.31466 0.754 0.0
C405 C 0.26317 0.25237 0.78048 0.0
O406 O 0.28056 0.3002 0.79874 0.0
O407 O 0.24774 0.28866 0.79522 0.0
O408 O 0.3146 0.2795 0.77426 0.0
O409 O 0.3116 0.30541 0.7622 0.0
O410 O 0.27978 0.26056 0.78908 0.0
O411 O 0.26026 0.26097 0.76621 0.0
O412 O 0.24664 0.26697 0.73549 0.0
O413 O 0.27966 0.27496 0.73947 0.0
C414 C 0.26369 0.29737 0.8057 0.0
C415 C 0.26346 0.26764 0.72886 0.0
Dy416 Dy 0.00413 0.01924 0.49346 0.0
C417 C 0.04558 0.05024 0.5659 0.0
C418 C 0.98469 0.01225 0.45854 0.0
Dy419 Dy 0.02208 0.03713 0.53386 0.0
O420 O 0.00297 0.01621 0.46175 0.0
O421 O 0.97683 0.01146 0.47452 0.0
O422 O 0.03079 0.00876 0.48812 0.0
O423 O 0.03219 0.03494 0.5059 0.0
C424 C 0.04168 0.02315 0.49941 0.0
C425 C 0.98479 0.02119 0.53177 0.0
O426 O 0.02232 0.06568 0.52183 0.0
O427 O 0.00686 0.0517 0.49233 0.0
O428 O 0.02933 0.05475 0.56263 0.0
O429 O 0.04919 0.03928 0.55135 0.0
O430 O 0.99604 0.02214 0.54677 0.0
O431 O 0.99363 0.03054 0.51945 0.0
O432 O -0.00079 0.99196 0.50817 0.0
O433 O 0.02372 0.00523 0.53139 0.0
C434 C 0.01495 0.06726 0.50471 0.0
C435 C 0.01101 0.98992 0.5223 0.0
Dy436 Dy 0.28084 0.78968 0.77811 0.0
C437 C 0.21154 0.75784 0.73146 0.0
C438 C 0.3121 0.79929 0.80331 0.0
Dy439 Dy 0.24283 0.76823 0.75659 0.0
O440 O 0.31041 0.80716 0.78771 0.0
O441 O 0.29643 0.78667 0.80544 0.0
O442 O 0.29151 0.80195 0.75181 0.0
O443 O 0.27222 0.7744 0.74967 0.0
C444 C 0.2808 0.78762 0.74036 0.0
C445 C 0.24331 0.77055 0.79438 0.0
O446 O 0.25725 0.74302 0.75431 0.0
O447 O 0.28091 0.75731 0.77809 0.0
O448 O 0.21313 0.75081 0.74753 0.0
O449 O 0.22728 0.77014 0.72888 0.0
O450 O 0.23236 0.75608 0.78327 0.0
O451 O 0.25158 0.78355 0.78477 0.0
O452 O 0.2663 0.81485 0.7805 0.0
O453 O 0.2426 0.80057 0.75672 0.0
C454 C 0.27142 0.74178 0.76637 0.0
C455 C 0.25205 0.81609 0.76851 0.0
Dy456 Dy 0.5143 0.03083 0.03895 0.0
C457 C 0.52014 0.00583 0.95907 0.0
C458 C 0.50653 0.04014 0.07514 0.0
Dy459 Dy 0.51469 0.02392 0.99315 0.0
O460 O 0.50187 0.0225 0.06587 0.0
O461 O 0.51576 0.05277 0.06472 0.0
O462 O 0.53008 0.00648 0.04067 0.0
O463 O 0.51167 0.00644 0.01691 0.0
C464 C 0.52356 -0.00204 0.02375 0.0
C465 C 0.50971 0.05996 0.00573 0.0
O466 O 0.4846 0.0099 0.9972 0.0
O467 O 0.48359 0.02402 0.02831 0.0
O468 O 0.50666 0.01506 0.96205 0.0
O469 O 0.53069 0.00674 0.97461 0.0
O470 O 0.51041 0.05448 0.98776 0.0
O471 O 0.51249 0.04622 0.01469 0.0
O472 O 0.54315 0.04851 0.03483 0.0
O473 O 0.54533 0.03511 0.00368 0.0
C474 C 0.47521 0.01413 0.01198 0.0
C475 C 0.55287 0.04588 0.0199 0.0
Dy476 Dy 0.26731 0.3101 0.28223 0.0
C477 C 0.25826 0.22658 0.27922 0.0
C478 C 0.26694 0.34928 0.28409 0.0
Dy479 Dy 0.25715 0.26447 0.27411 0.0
O480 O 0.26757 0.33948 0.29858 0.0
O481 O 0.26701 0.33776 0.26862 0.0
O482 O 0.28534 0.30714 0.30825 0.0
O483 O 0.26037 0.28568 0.29897 0.0
C484 C 0.27448 0.29018 0.31091 0.0
C485 C 0.24885 0.28297 0.24489 0.0
O486 O 0.22981 0.26829 0.28486 0.0
O487 O 0.23543 0.30208 0.28227 0.0
O488 O 0.25239 0.23202 0.26343 0.0
O489 O 0.2633 0.24175 0.292 0.0
O490 O 0.23962 0.26518 0.24743 0.0
O491 O 0.26304 0.2888 0.25686 0.0
O492 O 0.2942 0.30695 0.27002 0.0
O493 O 0.28858 0.27272 0.27022 0.0
C494 C 0.22403 0.28504 0.28523 0.0
C495 C 0.29979 0.29009 0.26774 0.0
Dy496 Dy 0.50123 0.51589 0.99269 0.0
C497 C 0.53543 0.54233 0.06781 0.0
C498 C 0.48161 0.50805 0.95786 0.0
Dy499 Dy 0.51469 0.53347 0.03366 0.0
O500 O 0.49841 0.50511 0.96153 0.0
O501 O 0.47528 0.51454 0.97338 0.0
O502 O 0.53061 0.51217 0.98781 0.0
O503 O 0.52685 0.53588 0.00658 0.0
C504 C 0.53888 0.52703 0.00018 0.0
C505 C 0.47705 0.52282 0.02614 0.0
O506 O 0.51555 0.56207 0.02197 0.0
O507 O 0.49861 0.54763 0.99345 0.0
O508 O 0.51758 0.54226 0.06515 0.0
O509 O 0.54205 0.5381 0.05173 0.0
O510 O 0.48545 0.53738 0.03879 0.0
O511 O 0.48896 0.51381 0.0197 0.0
O512 O 0.49862 0.48734 0.00534 0.0
O513 O 0.5173 0.50179 0.03284 0.0
C514 C 0.50628 0.5634 0.00578 0.0
C515 C 0.50838 0.48589 0.02125 0.0
Dy516 Dy 0.77283 0.28399 0.27571 0.0
C517 C 0.69859 0.24799 0.24175 0.0
C518 C 0.80906 0.29685 0.29185 0.0
Dy519 Dy 0.7323 0.26051 0.26314 0.0
O520 O 0.80425 0.28893 0.27454 0.0
O521 O 0.794 0.29826 0.30045 0.0
O522 O 0.77575 0.29246 0.24632 0.0
O523 O 0.75926 0.26465 0.25052 0.0
C524 C 0.76473 0.27602 0.23821 0.0
C525 C 0.73991 0.26822 0.30059 0.0
O526 O 0.74642 0.23519 0.26253 0.0
O527 O 0.77273 0.25286 0.28192 0.0
O528 O 0.70136 0.24486 0.25927 0.0
O529 O 0.71436 0.2574 0.23586 0.0
O530 O 0.72749 0.25264 0.29261 0.0
O531 O 0.7459 0.27943 0.28835 0.0
O532 O 0.75995 0.31014 0.27572 0.0
O533 O 0.7307 0.29227 0.26131 0.0
C534 C 0.76224 0.23592 0.27308 0.0
C535 C 0.74271 0.30929 0.26798 0.0
Dy536 Dy 0.01823 0.53449 0.54032 0.0
C537 C 0.02075 0.50905 0.45978 0.0
C538 C 0.01375 0.54499 0.57722 0.0
Dy539 Dy 0.0164 0.52684 0.49441 0.0
O540 O 0.00901 0.52698 0.56873 0.0
O541 O 0.02102 0.55732 0.56556 0.0
O542 O 0.03578 0.51171 0.54143 0.0
O543 O 0.01579 0.50982 0.51847 0.0
C544 C 0.02883 0.50254 0.52486 0.0
C545 C 0.01063 0.56254 0.50704 0.0
O546 O 0.98685 0.51214 0.50011 0.0
O547 O 0.98713 0.52611 0.53153 0.0
O548 O 0.00729 0.51811 0.46347 0.0
O549 O 0.03179 0.50985 0.47496 0.0
O550 O 0.01059 0.55679 0.48903 0.0
O551 O 0.01447 0.54924 0.51601 0.0
O552 O 0.04628 0.55264 0.53468 0.0
O553 O 0.04731 0.53946 0.50326 0.0
C554 C 0.97816 0.51602 0.51553 0.0
C555 C 0.05543 0.55025 0.5193 0.0
Dy556 Dy 0.74052 0.77669 0.26277 0.0
C557 C 0.8219 0.80123 0.26666 0.0
C558 C 0.70283 0.76196 0.26591 0.0
Dy559 Dy 0.78415 0.78695 0.27011 0.0
O560 O 0.7098 0.77652 0.25639 0.0
O561 O 0.71646 0.75524 0.27339 0.0
O562 O 0.74235 0.80194 0.24515 0.0
O563 O 0.76266 0.80386 0.26788 0.0
C564 C 0.75823 0.81214 0.25394 0.0
C565 C 0.76618 0.75154 0.27898 0.0
O566 O 0.77735 0.80206 0.29714 0.0
O567 O 0.74529 0.78634 0.29422 0.0
O568 O 0.81489 0.78735 0.27693 0.0
O569 O 0.80829 0.80755 0.25863 0.0
O570 O 0.78197 0.76174 0.28794 0.0
O571 O 0.76203 0.75982 0.26495 0.0
O572 O 0.74724 0.76187 0.23558 0.0
O573 O 0.77941 0.77711 0.2387 0.0
C574 C 0.76066 0.79728 0.30437 0.0
C575 C 0.764 0.76641 0.22846 0.0
Dy576 Dy 0.75781 0.27394 0.74527 0.0
C577 C 0.77654 0.27122 0.82461 0.0
C578 C 0.74599 0.27944 0.70976 0.0
Dy579 Dy 0.76442 0.277 0.78927 0.0
O580 O 0.76196 0.27495 0.71428 0.0
O581 O 0.73655 0.28083 0.72458 0.0
O582 O 0.77815 0.2538 0.74272 0.0
O583 O 0.78164 0.27639 0.76547 0.0
C584 C 0.78772 0.2619 0.75866 0.0
C585 C 0.73454 0.28927 0.77605 0.0
O586 O 0.78165 0.30669 0.78513 0.0
O587 O 0.77091 0.3065 0.75358 0.0
O588 O 0.76021 0.27495 0.8201 0.0
O589 O 0.78625 0.27084 0.80988 0.0
O590 O 0.74388 0.29684 0.79223 0.0
O591 O 0.7406 0.27481 0.76909 0.0
O592 O 0.73931 0.24503 0.74991 0.0
O593 O 0.75133 0.24442 0.78083 0.0
C594 C 0.78049 0.31566 0.76968 0.0
C595 C 0.74073 0.23578 0.76511 0.0
Dy596 Dy 0.76468 0.80186 0.76982 0.0
C597 C 0.76486 0.72008 0.77049 0.0
C598 C 0.75944 0.83882 0.76641 0.0
Dy599 Dy 0.75973 0.7563 0.76372 0.0
O600 O 0.76842 0.83405 0.78087 0.0
O601 O 0.75366 0.82352 0.75385 0.0
O602 O 0.78002 0.8027 0.79846 0.0
O603 O 0.75864 0.77794 0.78737 0.0
C604 C 0.7712 0.78473 0.80071 0.0
C605 C 0.75262 0.77294 0.73275 0.0
O606 O 0.73071 0.75669 0.77226 0.0
O607 O 0.73303 0.79019 0.76985 0.0
O608 O 0.75809 0.72403 0.75439 0.0
O609 O 0.76862 0.73579 0.78268 0.0
O610 O 0.74443 0.75473 0.73501 0.0
O611 O 0.76526 0.78013 0.746 0.0
O612 O 0.79303 0.80125 0.75944 0.0
O613 O 0.79136 0.76818 0.76338 0.0
C614 C 0.72301 0.77222 0.77216 0.0
C615 C 0.80102 0.78597 0.76005 0.0
Dy616 Dy 0.48122 0.51327 0.49952 0.0
C617 C 0.56219 0.5267 0.50661 0.0
C618 C 0.4433 0.51172 0.49666 0.0
Dy619 Dy 0.52469 0.52607 0.50838 0.0
O620 O 0.45395 0.51245 0.48258 0.0
O621 O 0.45331 0.5114 0.51223 0.0
O622 O 0.48553 0.49209 0.475 0.0
O623 O 0.50562 0.51895 0.48294 0.0
C624 C 0.502 0.50295 0.47209 0.0
C625 C 0.50466 0.53722 0.53602 0.0
O626 O 0.52052 0.55248 0.49507 0.0
O627 O 0.48799 0.54622 0.49789 0.0
O628 O 0.55483 0.53347 0.52138 0.0
O629 O 0.54912 0.51982 0.49295 0.0
O630 O 0.52163 0.5471 0.53334 0.0
O631 O 0.50033 0.52114 0.52516 0.0
O632 O 0.48476 0.48701 0.51358 0.0
O633 O 0.5177 0.49397 0.51374 0.0
C634 C 0.5042 0.55798 0.49424 0.0
C635 C 0.50121 0.48211 0.51652 0.0
Dy636 Dy 0.03118 0.52785 0.01778 0.0
C637 C 0.95203 0.53119 0.00432 0.0
C638 C 0.06613 0.52017 0.02364 0.0
Dy639 Dy 0.98692 0.52422 0.01239 0.0
O640 O 0.0574 0.5201 0.00723 0.0
O641 O 0.05594 0.52497 0.03704 0.0
O642 O 0.03697 0.55359 0.00048 0.0
O643 O 0.01113 0.53218 0.99586 0.0
C644 C 0.0199 0.54896 0.99218 0.0
C645 C -0.0018 0.50342 0.03836 0.0
O646 O 0.98906 0.49834 0.99216 0.0
O647 O 0.01906 0.49666 0.00426 0.0
O648 O 0.95866 0.52851 0.02092 0.0
O649 O 0.9643 0.52961 0.99197 0.0
O650 O 0.98113 0.49871 0.03004 0.0
O651 O 0.00698 0.52006 0.03435 0.0
O652 O 0.02896 0.55319 0.03866 0.0
O653 O -0.00115 0.55511 0.02684 0.0
C654 C 0.00312 0.48912 0.99336 0.0
C655 C 0.01491 0.56245 0.03763 0.0
C656 C 0.00264 0.21231 0.93036 0.0
C657 C 0.00269 0.20899 0.91055 0.0
C658 C 0.00474 0.19749 0.94161 0.0
C659 C 0.99537 0.14378 0.93906 0.0
H660 H 0.02884 0.15246 0.98501 0.0
C661 C 0.02615 0.09259 0.99089 0.0
C662 C 0.00919 0.07926 0.99392 0.0
C663 C 0.02569 0.10988 0.98267 0.0
C664 C 0.01944 0.14988 0.97221 0.0
H665 H 0.00562 0.18776 0.8871 0.0
H666 H 0.00908 0.16192 0.90673 0.0
H667 H 0.02825 0.18004 0.96626 0.0
H668 H 0.97847 0.07409 0.99147 0.0
H669 H 0.97775 0.10416 0.97701 0.0
H670 H 0.98655 0.11372 0.94487 0.0
C671 C 0.00733 0.17594 0.91351 0.0
C672 C 0.01903 0.16563 0.96157 0.0
C673 C 0.00544 0.19079 0.9023 0.0
C674 C 0.99181 0.08397 0.98926 0.0
C675 C 0.99136 0.10114 0.9809 0.0
C676 C 0.9956 0.12816 0.94978 0.0
C677 C 0.0067 0.17904 0.93323 0.0
C678 C 0.00711 0.16264 0.94481 0.0
C679 C 0.00828 0.11405 0.97719 0.0
C680 C 0.00768 0.13101 0.96641 0.0
H681 H 0.00064 0.22621 0.93717 0.0
H682 H 0.00414 0.2002 0.95679 0.0
H683 H 0.9859 0.14113 0.92631 0.0
H684 H 0.03978 0.08945 0.99441 0.0
H685 H 0.03894 0.11955 0.97987 0.0
C686 C 0.09675 0.81406 0.17961 0.0
C687 C 0.07969 0.80826 0.18822 0.0
C688 C 0.11418 0.81517 0.1896 0.0
C689 C 0.14971 0.82203 0.21816 0.0
H690 H 0.14859 0.77294 0.23991 0.0
C691 C 0.21109 0.80506 0.26584 0.0
C692 C 0.2156 0.78691 0.26015 0.0
C693 C 0.19539 0.81004 0.25701 0.0
C694 C 0.1491 0.78673 0.23393 0.0
H695 H 0.06769 0.80078 0.21458 0.0
H696 H 0.09799 0.8026 0.23181 0.0
H697 H 0.11945 0.77871 0.22541 0.0
H698 H 0.20749 0.75982 0.24083 0.0
H699 H 0.17994 0.76837 0.22568 0.0
H700 H 0.17954 0.82991 0.2268 0.0
C701 C 0.09786 0.80604 0.2173 0.0
C702 C 0.13242 0.79011 0.22578 0.0
C703 C 0.08052 0.80503 0.2074 0.0
C704 C 0.20435 0.77394 0.24543 0.0
C705 C 0.18857 0.77878 0.23682 0.0
C706 C 0.16643 0.81877 0.22665 0.0
C707 C 0.11479 0.81042 0.2083 0.0
C708 C 0.13256 0.80772 0.21771 0.0
C709 C 0.18384 0.79677 0.24264 0.0
C710 C 0.16625 0.80096 0.23439 0.0
H711 H 0.09661 0.81674 0.16488 0.0
H712 H 0.12705 0.81856 0.18234 0.0
H713 H 0.15015 0.83571 0.21202 0.0
H714 H 0.21965 0.81533 0.27712 0.0
H715 H 0.19193 0.82396 0.26179 0.0
C716 C 0.51329 0.82884 0.4254 0.0
C717 C 0.50337 0.82313 0.40747 0.0
C718 C 0.51292 0.84687 0.43568 0.0
C719 C 0.48557 0.88516 0.44094 0.0
H720 H 0.53337 0.91924 0.46254 0.0
C721 C 0.49307 0.96711 0.47099 0.0
C722 C 0.50648 0.97503 0.48637 0.0
C723 C 0.4916 0.94786 0.46229 0.0
C724 C 0.51983 0.9098 0.45692 0.0
H725 H 0.485 0.83177 0.38643 0.0
H726 H 0.4843 0.86322 0.40449 0.0
H727 H 0.53292 0.887 0.44573 0.0
H728 H 0.52808 0.96863 0.5054 0.0
H729 H 0.52511 0.93497 0.4907 0.0
H730 H 0.47242 0.90786 0.45228 0.0
C731 C 0.49233 0.85369 0.41055 0.0
C732 C 0.51961 0.89133 0.44722 0.0
C733 C 0.49286 0.83575 0.40017 0.0
C734 C 0.51779 0.96305 0.4934 0.0
C735 C 0.51616 0.94377 0.48488 0.0
C736 C 0.48575 0.90358 0.45083 0.0
C737 C 0.50246 0.85949 0.42835 0.0
C738 C 0.5025 0.87886 0.43905 0.0
C739 C 0.50336 0.93607 0.46894 0.0
C740 C 0.50291 0.91617 0.45889 0.0
H741 H 0.5215 0.81947 0.43145 0.0
H742 H 0.52073 0.85091 0.44944 0.0
H743 H 0.47214 0.87573 0.43494 0.0
H744 H 0.48421 0.97602 0.4652 0.0
H745 H 0.48171 0.94252 0.44995 0.0
C746 C 0.47186 0.27937 0.7039 0.0
C747 C 0.47933 0.29214 0.69069 0.0
C748 C 0.45598 0.28189 0.71318 0.0
C749 C 0.41465 0.30422 0.7097 0.0
H750 H 0.41242 0.2957 0.76263 0.0
C751 C 0.3505 0.31382 0.75098 0.0
C752 C 0.34322 0.29834 0.76165 0.0
C753 C 0.36823 0.3154 0.74373 0.0
C754 C 0.41279 0.29804 0.74783 0.0
H755 H 0.47592 0.31757 0.67683 0.0
H756 H 0.44818 0.32206 0.69317 0.0
H757 H 0.44104 0.29391 0.74682 0.0
H758 H 0.34901 0.27283 0.77378 0.0
H759 H 0.37997 0.27554 0.76118 0.0
H760 H 0.3863 0.30811 0.71066 0.0
C761 C 0.45454 0.30997 0.6962 0.0
C762 C 0.42918 0.29698 0.73875 0.0
C763 C 0.47047 0.30744 0.68688 0.0
C764 C 0.35432 0.28496 0.76565 0.0
C765 C 0.37208 0.28656 0.75847 0.0
C766 C 0.39827 0.30532 0.7188 0.0
C767 C 0.44717 0.29727 0.70954 0.0
C768 C 0.43021 0.29976 0.7195 0.0
C769 C 0.37907 0.30155 0.74708 0.0
C770 C 0.39705 0.30197 0.7379 0.0
H771 H 0.47828 0.26738 0.70713 0.0
H772 H 0.45048 0.2716 0.72308 0.0
H773 H 0.41487 0.30621 0.69482 0.0
H774 H 0.34222 0.32435 0.74769 0.0
H775 H 0.37333 0.32727 0.73525 0.0
C776 C 0.99231 0.83925 0.60115 0.0
C777 C 0.0031 0.82599 0.59449 0.0
C778 C 0.99211 0.85623 0.59223 0.0
C779 C 0.02082 0.88939 0.56212 0.0
H780 H 0.97534 0.90882 0.55418 0.0
C781 C 0.0236 0.96765 0.54235 0.0
C782 C 0.00986 0.97019 0.52875 0.0
C783 C 0.02218 0.94947 0.54939 0.0
C784 C 0.98811 0.90345 0.55614 0.0
H785 H 0.02165 0.81981 0.57292 0.0
H786 H 0.02111 0.84913 0.55736 0.0
H787 H 0.97352 0.87794 0.56835 0.0
H788 H 0.98383 0.95552 0.51179 0.0
H789 H 0.98145 0.92355 0.52404 0.0
H790 H 0.03541 0.91468 0.54981 0.0
C791 C 0.0131 0.84669 0.56965 0.0
C792 C 0.98711 0.88591 0.56445 0.0
C793 C 0.01334 0.82982 0.57855 0.0
C794 C 0.99471 0.95402 0.5222 0.0
C795 C 0.99325 0.93578 0.52932 0.0
C796 C 0.02182 0.90687 0.55387 0.0
C797 C 0.00269 0.86023 0.5765 0.0
C798 C 0.00348 0.87873 0.56757 0.0
C799 C 0.00697 0.93334 0.54303 0.0
C800 C 0.00553 0.91418 0.5509 0.0
H801 H 0.98426 0.83668 0.61339 0.0
H802 H 0.98406 0.86647 0.59793 0.0
H803 H 0.03374 0.8844 0.56451 0.0
H804 H 0.03544 0.97978 0.54777 0.0
H805 H 0.03284 0.94818 0.56012 0.0
C806 C 0.47358 0.79418 0.85037 0.0
C807 C 0.47673 0.78285 0.86496 0.0
C808 C 0.45524 0.79511 0.84441 0.0
C809 C 0.40709 0.7889 0.86042 0.0
H810 H 0.39374 0.79119 0.80735 0.0
C811 C 0.33138 0.78849 0.82857 0.0
C812 C 0.33031 0.80064 0.81414 0.0
C813 C 0.34901 0.78683 0.83628 0.0
C814 C 0.39732 0.79081 0.82226 0.0
H815 H 0.46303 0.76319 0.88442 0.0
H816 H 0.43078 0.76459 0.87375 0.0
H817 H 0.42447 0.78536 0.81697 0.0
H818 H 0.34669 0.82153 0.79731 0.0
H819 H 0.37745 0.81882 0.81089 0.0
H820 H 0.37974 0.79423 0.86558 0.0
C821 C 0.44261 0.77297 0.86713 0.0
C822 C 0.41492 0.78741 0.82777 0.0
C823 C 0.46105 0.77202 0.87312 0.0
C824 C 0.34711 0.81202 0.80838 0.0
C825 C 0.36471 0.81032 0.81603 0.0
C826 C 0.38938 0.79221 0.85487 0.0
C827 C 0.43952 0.7847 0.85283 0.0
C828 C 0.42015 0.7867 0.84693 0.0
C829 C 0.36584 0.79723 0.82962 0.0
C830 C 0.38444 0.79348 0.83575 0.0
H831 H 0.48533 0.80276 0.84381 0.0
H832 H 0.45344 0.80451 0.83356 0.0
H833 H 0.41076 0.78865 0.87532 0.0
H834 H 0.31861 0.77951 0.83323 0.0
H835 H 0.34943 0.77662 0.84672 0.0
C836 C 0.46972 0.19752 0.09843 0.0
C837 C 0.47558 0.21632 0.09227 0.0
C838 C 0.46985 0.18042 0.08645 0.0
C839 C 0.49483 0.1655 0.04589 0.0
H840 H 0.46161 0.11395 0.04845 0.0
C841 C 0.50488 0.09397 0.00328 0.0
C842 C 0.50422 0.0779 0.01381 0.0
C843 C 0.49931 0.11084 0.01094 0.0
C844 C 0.47101 0.12827 0.04763 0.0
H845 H 0.48451 0.23184 0.06818 0.0
H846 H 0.48419 0.202 0.04713 0.0
H847 H 0.45414 0.14351 0.06459 0.0
H848 H 0.49658 0.06639 0.04014 0.0
H849 H 0.48712 0.09588 0.0537 0.0
H850 H 0.5118 0.15022 0.02913 0.0
C851 C 0.48011 0.20048 0.06141 0.0
C852 C 0.46675 0.14519 0.05688 0.0
C853 C 0.48015 0.21758 0.07343 0.0
C854 C 0.49763 0.07878 0.03195 0.0
C855 C 0.49193 0.09553 0.03956 0.0
C856 C 0.499 0.14861 0.03655 0.0
C857 C 0.47566 0.18175 0.06799 0.0
C858 C 0.47881 0.16398 0.05641 0.0
C859 C 0.49276 0.11176 0.02916 0.0
C860 C 0.48734 0.12979 0.03763 0.0
H861 H 0.46614 0.19604 0.11286 0.0
H862 H 0.46646 0.16629 0.09207 0.0
H863 H 0.50465 0.17966 0.0455 0.0
H864 H 0.50977 0.09352 0.98917 0.0
H865 H 0.49997 0.12308 0.00257 0.0
C866 C 0.07849 0.2948 0.36147 0.0
C867 C 0.06455 0.27698 0.35826 0.0
C868 C 0.09505 0.29718 0.35189 0.0
C869 C 0.11636 0.27437 0.31114 0.0
H870 H 0.1637 0.30301 0.33865 0.0
C871 C 0.19084 0.26741 0.29027 0.0
C872 C 0.20468 0.2852 0.29064 0.0
C873 C 0.17305 0.26755 0.29681 0.0
C874 C 0.15055 0.29514 0.33074 0.0
H875 H 0.05701 0.24765 0.34254 0.0
H876 H 0.08601 0.25144 0.32649 0.0
H877 H 0.13407 0.30121 0.35358 0.0
H878 H 0.21057 0.31712 0.29784 0.0
H879 H 0.17963 0.31722 0.30957 0.0
H880 H 0.13316 0.26761 0.28863 0.0
C881 C 0.08405 0.26389 0.33588 0.0
C882 C 0.13352 0.29418 0.33923 0.0
C883 C 0.06742 0.26164 0.34522 0.0
C884 C 0.20022 0.30315 0.29731 0.0
C885 C 0.18256 0.30323 0.30413 0.0
C886 C 0.13343 0.27507 0.30277 0.0
C887 C 0.09814 0.28166 0.3391 0.0
C888 C 0.11618 0.28365 0.32961 0.0
C889 C 0.16889 0.28542 0.30412 0.0
C890 C 0.15068 0.28538 0.31254 0.0
H891 H 0.07661 0.30693 0.37134 0.0
H892 H 0.10539 0.31121 0.35451 0.0
H893 H 0.1033 0.26649 0.30309 0.0
H894 H 0.19383 0.25336 0.28518 0.0
H895 H 0.16277 0.2536 0.29675 0.0
C896 C 0.93617 0.05356 0.19279 0.0
C897 C 0.91864 0.05896 0.19223 0.0
C898 C 0.94648 0.05369 0.17679 0.0
C899 C 0.95522 0.03971 0.13716 0.0
H900 H 0.96448 0.08207 0.10498 0.0
C901 C 0.98153 0.02858 0.06305 0.0
C902 C 0.99719 0.04308 0.059 0.0
C903 C 0.97169 0.03182 0.07894 0.0
C904 C 0.96202 0.07016 0.11387 0.0
H905 H 0.8988 0.06989 0.17467 0.0
H906 H 0.91701 0.07034 0.14677 0.0
H907 H 0.94868 0.08625 0.13421 0.0
H908 H 0.01441 0.07261 0.06792 0.0
H909 H 0.99707 0.07835 0.09571 0.0
H910 H 0.96836 0.02353 0.11691 0.0
C911 C 0.92266 0.06589 0.15961 0.0
C912 C 0.95291 0.07251 0.13051 0.0
C913 C 0.91221 0.06557 0.17559 0.0
C914 C 0.00242 0.06116 0.07077 0.0
C915 C 0.99245 0.06448 0.08659 0.0
C916 C 0.96407 0.03727 0.12047 0.0
C917 C 0.93963 0.05943 0.15991 0.0
C918 C 0.9495 0.05732 0.14236 0.0
C919 C 0.97719 0.04969 0.09102 0.0
C920 C 0.96758 0.05244 0.10864 0.0
H921 H 0.9416 0.04845 0.20537 0.0
H922 H 0.95966 0.04889 0.17749 0.0
H923 H 0.95258 0.02766 0.1459 0.0
H924 H 0.97717 0.01451 0.05421 0.0
H925 H 0.95984 0.02025 0.08187 0.0
C926 C 0.29914 0.68927 0.46475 0.0
C927 C 0.29612 0.69992 0.48162 0.0
C928 C 0.2989 0.69763 0.44769 0.0
C929 C 0.27926 0.7359 0.42688 0.0
H930 H 0.30828 0.72475 0.38474 0.0
C931 C 0.25911 0.75113 0.3517 0.0
C932 C 0.27375 0.75791 0.34024 0.0
C933 C 0.2632 0.74506 0.36922 0.0
C934 C 0.30024 0.72822 0.39646 0.0
H935 H 0.29209 0.72809 0.49432 0.0
H936 H 0.2925 0.74295 0.46487 0.0
H937 H 0.31451 0.71298 0.41505 0.0
H938 H 0.30412 0.76406 0.33804 0.0
H939 H 0.31138 0.75403 0.36896 0.0
H940 H 0.26531 0.75153 0.40857 0.0
C941 C 0.29424 0.7279 0.46452 0.0
C942 C 0.30365 0.72125 0.41375 0.0
C943 C 0.29415 0.71945 0.48142 0.0
C944 C 0.29258 0.75887 0.34667 0.0
C945 C 0.29671 0.75296 0.36428 0.0
C946 C 0.27598 0.74299 0.40971 0.0
C947 C 0.29591 0.71686 0.44734 0.0
C948 C 0.29311 0.72492 0.42914 0.0
C949 C 0.28204 0.74585 0.3757 0.0
C950 C 0.28627 0.73906 0.39422 0.0
H951 H 0.30064 0.67414 0.46457 0.0
H952 H 0.30013 0.68866 0.4347 0.0
H953 H 0.27061 0.73872 0.43829 0.0
H954 H 0.24446 0.7501 0.34695 0.0
H955 H 0.25153 0.73935 0.3775 0.0
C956 C 0.59936 0.99026 0.67821 0.0
C957 C 0.58729 0.9856 0.69271 0.0
C958 C 0.59179 0.99019 0.65976 0.0
C959 C 0.55106 0.97421 0.62538 0.0
H960 H 0.56322 0.02832 0.61301 0.0
C961 C 0.51025 -0.00014 0.5641 0.0
C962 C 0.52006 0.01539 0.55476 0.0
C963 C 0.51901 0.99407 0.57987 0.0
C964 C 0.55997 0.01301 0.61586 0.0
H965 H 0.55801 0.97543 0.69896 0.0
H966 H 0.54484 0.97492 0.6665 0.0
H967 H 0.57818 0.02015 0.64143 0.0
H968 H 0.5465 0.03715 0.5546 0.0
H969 H 0.56235 0.02609 0.58082 0.0
H970 H 0.53314 0.96689 0.59959 0.0
C971 C 0.56009 0.97882 0.66954 0.0
C972 C 0.56851 0.0084 0.63225 0.0
C973 C 0.56763 0.97924 0.68809 0.0
C974 C 0.53879 0.02482 0.56124 0.0
C975 C 0.54772 0.01871 0.57659 0.0
C976 C 0.5428 0.97872 0.60865 0.0
C977 C 0.57209 0.98505 0.65545 0.0
C978 C 0.56403 0.98904 0.63721 0.0
C979 C 0.53787 0.0035 0.58638 0.0
C980 C 0.54705 -0.00176 0.60375 0.0
H981 H 0.61456 0.99521 0.68132 0.0
H982 H 0.60126 0.99503 0.64903 0.0
H983 H 0.54739 0.95918 0.62906 0.0
H984 H 0.49572 0.99243 0.55942 0.0
H985 H 0.51082 0.98254 0.58718 0.0
C986 C 0.235 0.3522 0.96921 0.0
C987 C 0.24889 0.34993 0.98277 0.0
C988 C 0.23544 0.34533 0.95009 0.0
C989 C 0.25871 0.31382 0.91764 0.0
H990 H 0.24468 0.34575 0.88017 0.0
C991 C 0.27758 0.3062 0.83941 0.0
C992 C 0.26222 0.30399 0.82586 0.0
C993 C 0.27562 0.31147 0.85859 0.0
C994 C 0.24858 0.33666 0.8905 0.0
H995 H 0.27394 0.33833 0.98692 0.0
H996 H 0.27511 0.32706 0.95383 0.0
H997 H 0.24119 0.3548 0.91352 0.0
H998 H 0.23294 0.30607 0.82172 0.0
H999 H 0.22974 0.31573 0.85505 0.0
H1000 H 0.26673 0.29615 0.89448 0.0
C1001 C 0.26352 0.33361 0.95781 0.0
C1002 C 0.24643 0.34172 0.90963 0.0
C1003 C 0.2629 0.34019 0.97688 0.0
C1004 C 0.24503 0.30757 0.83182 0.0
C1005 C 0.2432 0.31319 0.85088 0.0
C1006 C 0.26116 0.30899 0.89854 0.0
C1007 C 0.24995 0.33628 0.94405 0.0
C1008 C 0.25148 0.33039 0.92352 0.0
C1009 C 0.2584 0.31501 0.86449 0.0
C1010 C 0.25612 0.32036 0.88479 0.0
H1011 H 0.22398 0.35959 0.9733 0.0
H1012 H 0.22449 0.34731 0.94003 0.0
H1013 H 0.2624 0.30445 0.92777 0.0
H1014 H 0.29097 0.30346 0.83527 0.0
H1015 H 0.28759 0.31289 0.86881 0.0
C1016 C 0.93778 0.03994 0.2992 0.0
C1017 C 0.92092 0.04616 0.29588 0.0
C1018 C 0.94427 0.03794 0.31755 0.0
C1019 C 0.92717 0.02695 0.36333 0.0
H1020 H 0.98039 0.04399 0.38097 0.0
C1021 C 0.95685 0.01659 0.43843 0.0
C1022 C 0.97505 0.01286 0.43992 0.0
C1023 C 0.94929 0.02072 0.42117 0.0
C1024 C 0.96551 0.03887 0.37619 0.0
H1025 H 0.89785 0.05565 0.30923 0.0
H1026 H 0.90915 0.05192 0.34147 0.0
H1027 H 0.96953 0.05274 0.35074 0.0
H1028 H -0.00088 0.00928 0.42442 0.0
H1029 H 0.98574 0.01566 0.39425 0.0
H1030 H 0.92322 0.01259 0.38855 0.0
C1031 C 0.91732 0.04865 0.32978 0.0
C1032 C 0.95929 0.04403 0.35891 0.0
C1033 C 0.91096 0.05095 0.31139 0.0
C1034 C 0.98509 0.01222 0.42368 0.0
C1035 C 0.9775 0.01613 0.40644 0.0
C1036 C 0.93343 0.02162 0.38059 0.0
C1037 C 0.93391 0.04187 0.333 0.0
C1038 C 0.94011 0.03793 0.35217 0.0
C1039 C 0.95976 0.02106 0.40507 0.0
C1040 C 0.95274 0.02726 0.3871 0.0
H1041 H 0.94576 0.03612 0.28754 0.0
H1042 H 0.95702 0.03255 0.31955 0.0
H1043 H 0.91232 0.02187 0.35839 0.0
H1044 H 0.94889 0.01732 0.45081 0.0
H1045 H 0.93562 0.0245 0.42067 0.0
C1046 C 0.31512 0.70006 0.60098 0.0
C1047 C 0.31008 0.70469 0.58293 0.0
C1048 C 0.31589 0.71368 0.61696 0.0
C1049 C 0.32119 0.74892 0.64811 0.0
H1050 H 0.27304 0.76416 0.6498 0.0
C1051 C 0.30076 0.79393 0.71319 0.0
C1052 C 0.28427 0.78349 0.72038 0.0
C1053 C 0.30548 0.78797 0.69512 0.0
C1054 C 0.28662 0.76022 0.64941 0.0
H1055 H 0.30364 0.72794 0.56733 0.0
H1056 H 0.30476 0.75148 0.59524 0.0
H1057 H 0.28077 0.74728 0.62059 0.0
H1058 H 0.2593 0.7594 0.71416 0.0
H1059 H 0.26723 0.74938 0.68231 0.0
H1060 H 0.32674 0.76144 0.67717 0.0
C1061 C 0.30794 0.73728 0.597 0.0
C1062 C 0.29111 0.75069 0.63272 0.0
C1063 C 0.30734 0.72378 0.58104 0.0
C1064 C 0.27205 0.76772 0.70889 0.0
C1065 C 0.27658 0.76201 0.69071 0.0
C1066 C 0.31682 0.75877 0.66475 0.0
C1067 C 0.31152 0.73207 0.61513 0.0
C1068 C 0.30824 0.74456 0.63205 0.0
C1069 C 0.29355 0.77178 0.68388 0.0
C1070 C 0.2993 0.76404 0.66563 0.0
H1071 H 0.31742 0.68554 0.6029 0.0
H1072 H 0.31863 0.7093 0.63083 0.0
H1073 H 0.33447 0.74433 0.6479 0.0
H1074 H 0.31045 0.80612 0.72183 0.0
H1075 H 0.31861 0.79573 0.69007 0.0
C1076 C 0.581 0.97356 0.80738 0.0
C1077 C 0.57083 0.98239 0.79478 0.0
C1078 C 0.57399 0.96896 0.8247 0.0
C1079 C 0.53144 0.96538 0.8524 0.0
H1080 H 0.56872 0.98746 0.89458 0.0
C1081 C 0.51281 -0.00204 0.92415 0.0
C1082 C 0.52359 0.99638 0.94062 0.0
C1083 C 0.51723 0.99045 0.90648 0.0
C1084 C 0.55816 0.98079 0.88304 0.0
H1085 H 0.54478 0.99206 0.78983 0.0
H1086 H 0.53275 0.98432 0.81998 0.0
H1087 H 0.57897 0.98388 0.86279 0.0
H1088 H 0.54665 0.98473 0.95181 0.0
H1089 H 0.55434 0.97151 0.92091 0.0
H1090 H 0.51055 0.9632 0.87268 0.0
C1091 C 0.54603 0.98077 0.81653 0.0
C1092 C 0.56405 0.97871 0.86478 0.0
C1093 C 0.55302 0.98538 0.79929 0.0
C1094 C 0.53828 0.98636 0.93926 0.0
C1095 C 0.54268 0.97881 0.9216 0.0
C1096 C 0.52554 0.9675 0.87069 0.0
C1097 C 0.55668 0.97304 0.82968 0.0
C1098 C 0.55071 0.97158 0.84918 0.0
C1099 C 0.53248 0.98117 0.90498 0.0
C1100 C 0.5388 0.97581 0.88612 0.0
H1101 H 0.59471 0.97095 0.80423 0.0
H1102 H 0.58241 0.96278 0.83445 0.0
H1103 H 0.52085 0.95952 0.8407 0.0
H1104 H 0.50137 0.00558 0.92487 0.0
H1105 H 0.50923 0.99272 0.89393 0.0
C1106 C 0.24738 0.37483 0.1076 0.0
C1107 C 0.24306 0.36362 0.08975 0.0
C1108 C 0.24643 0.36556 0.12413 0.0
C1109 C 0.24444 0.31632 0.14148 0.0
H1110 H 0.23357 0.34396 0.18809 0.0
C1111 C 0.23297 0.28214 0.21265 0.0
C1112 C 0.24633 0.29223 0.22743 0.0
C1113 C 0.23127 0.29038 0.19568 0.0
C1114 C 0.2366 0.33611 0.17514 0.0
H1115 H 0.23388 0.33386 0.07524 0.0
H1116 H 0.23122 0.31761 0.10413 0.0
H1117 H 0.23193 0.35868 0.15858 0.0
H1118 H 0.26841 0.31876 0.23599 0.0
H1119 H 0.26471 0.33364 0.2067 0.0
H1120 H 0.24839 0.29341 0.15825 0.0
C1121 C 0.23603 0.33359 0.10541 0.0
C1122 C 0.23584 0.34458 0.15821 0.0
C1123 C 0.2374 0.34289 0.08881 0.0
C1124 C 0.25774 0.31085 0.22503 0.0
C1125 C 0.25571 0.3193 0.20826 0.0
C1126 C 0.24475 0.30766 0.15836 0.0
C1127 C 0.2407 0.34479 0.12335 0.0
C1128 C 0.2401 0.335 0.14115 0.0
C1129 C 0.2426 0.30903 0.19338 0.0
C1130 C 0.24112 0.31763 0.17535 0.0
H1131 H 0.25203 0.39084 0.10883 0.0
H1132 H 0.25064 0.37478 0.13751 0.0
H1133 H 0.24813 0.30856 0.12882 0.0
H1134 H 0.22404 0.26772 0.21406 0.0
H1135 H 0.22106 0.28223 0.18438 0.0
C1136 C 0.20792 0.96662 0.03949 0.0
C1137 C 0.20739 0.95111 0.02511 0.0
C1138 C 0.19569 0.9793 0.03802 0.0
C1139 C 0.1646 0.99672 0.00424 0.0
H1140 H 0.13654 0.00488 0.04799 0.0
C1141 C 0.09207 0.01577 -0.00056 0.0
C1142 C 0.08667 0.02697 0.01475 0.0
C1143 C 0.10975 0.01115 0.00031 0.0
C1144 C 0.14455 0.00321 0.03578 0.0
H1145 H 0.19394 0.93697 0.99773 0.0
H1146 H 0.17241 0.95906 0.99524 0.0
H1147 H 0.16182 0.98738 0.05026 0.0
H1148 H 0.09582 0.04331 0.04242 0.0
H1149 H 0.12701 0.03541 0.04391 0.0
H1150 H 0.14698 0.01215 0.98963 0.0
C1151 C 0.18243 0.9615 0.00756 0.0
C1152 C 0.15899 0.99309 0.03706 0.0
C1153 C 0.19463 0.94875 0.00906 0.0
C1154 C 0.09967 0.03454 0.03049 0.0
C1155 C 0.11743 0.02993 0.03136 0.0
C1156 C 0.1502 0.00695 0.00298 0.0
C1157 C 0.18273 0.97678 0.02212 0.0
C1158 C 0.16885 0.98933 0.02119 0.0
C1159 C 0.12242 0.01767 0.01651 0.0
C1160 C 0.13969 0.00985 0.0186 0.0
H1161 H 0.21768 0.96892 0.052 0.0
H1162 H 0.19635 0.99106 0.04937 0.0
H1163 H 0.17221 0.99432 0.99188 0.0
H1164 H 0.0823 0.00982 0.9871 0.0
H1165 H 0.11301 0.0015 0.98871 0.0
C1166 C 0.69699 0.63027 -0.00132 0.0
C1167 C 0.71258 0.6215 0.99756 0.0
C1168 C 0.67872 0.61859 -0.00073 0.0
C1169 C 0.64774 0.57049 0.9858 0.0
H1170 H 0.62071 0.58262 0.02928 0.0
C1171 C 0.57219 0.52518 0.99468 0.0
C1172 C 0.55944 0.53582 0.00204 0.0
C1173 C 0.59153 0.53417 0.99525 0.0
C1174 C 0.62789 0.57916 0.01689 0.0
H1175 H 0.72115 0.59356 0.99537 0.0
H1176 H 0.68894 0.57306 0.99574 0.0
H1177 H 0.65292 0.60151 0.02683 0.0
H1178 H 0.55683 0.56402 0.01604 0.0
H1179 H 0.59022 0.57996 0.01635 0.0
H1180 H 0.62252 0.54885 0.97528 0.0
C1181 C 0.69104 0.58901 0.99646 0.0
C1182 C 0.64639 0.58993 0.01559 0.0
C1183 C 0.70941 0.60073 0.99628 0.0
C1184 C 0.56637 0.55543 0.01033 0.0
C1185 C 0.5856 0.56452 0.01062 0.0
C1186 C 0.62906 0.55995 0.98689 0.0
C1187 C 0.67563 0.5979 -0.00166 0.0
C1188 C 0.65639 0.5858 -3e-05 0.0
C1189 C 0.59846 0.55409 0.00295 0.0
C1190 C 0.6188 0.56429 0.00237 0.0
H1191 H 0.69896 0.64622 -0.00022 0.0
H1192 H 0.66699 0.62573 0.00059 0.0
H1193 H 0.65521 0.56713 0.97358 0.0
H1194 H 0.56718 0.50997 0.98833 0.0
H1195 H 0.60101 0.52552 0.98955 0.0
C1196 C 0.69559 0.46779 0.27062 0.0
C1197 C 0.67697 0.46719 0.27545 0.0
C1198 C 0.70304 0.45101 0.27088 0.0
C1199 C 0.68934 0.39772 0.26355 0.0
H1200 H 0.73741 0.39882 0.29066 0.0
C1201 C 0.7161 0.3265 0.2674 0.0
C1202 C 0.7357 0.32765 0.26825 0.0
C1203 C 0.70921 0.34367 0.26859 0.0
C1204 C 0.72413 0.39829 0.28271 0.0
H1205 H 0.65159 0.44866 0.28446 0.0
H1206 H 0.66449 0.41902 0.28432 0.0
H1207 H 0.7249 0.42857 0.29263 0.0
H1208 H 0.76345 0.34773 0.27064 0.0
H1209 H 0.75145 0.37779 0.27179 0.0
H1210 H 0.68877 0.36788 0.25286 0.0
C1211 C 0.67332 0.4326 0.28058 0.0
C1212 C 0.71692 0.41531 0.28401 0.0
C1213 C 0.666 0.44954 0.28073 0.0
C1214 C 0.74827 0.34638 0.27003 0.0
C1215 C 0.74135 0.36362 0.27085 0.0
C1216 C 0.6967 0.38083 0.26193 0.0
C1217 C 0.69188 0.4332 0.27558 0.0
C1218 C 0.69941 0.41512 0.27454 0.0
C1219 C 0.7217 0.3625 0.27028 0.0
C1220 C 0.71416 0.38079 0.27159 0.0
H1221 H 0.7044 0.48122 0.26656 0.0
H1222 H 0.71735 0.45179 0.26687 0.0
H1223 H 0.67594 0.39732 0.25587 0.0
H1224 H 0.70601 0.3123 0.26632 0.0
H1225 H 0.69403 0.34208 0.26857 0.0
C1226 C 0.81405 0.42777 0.51678 0.0
C1227 C 0.80067 0.43833 0.52274 0.0
C1228 C 0.83267 0.4377 0.51486 0.0
C1229 C 0.86842 0.46213 0.50217 0.0
H1230 H 0.89331 0.50628 0.53912 0.0
C1231 C 0.94624 0.50321 0.49788 0.0
C1232 C 0.95742 0.50865 0.51513 0.0
C1233 C 0.92659 0.49642 0.49769 0.0
C1234 C 0.88661 0.49388 0.52875 0.0
H1235 H 0.79625 0.46759 0.5312 0.0
H1236 H 0.8287 0.48504 0.52737 0.0
H1237 H 0.86014 0.49055 0.54122 0.0
H1238 H 0.95684 0.51109 0.54571 0.0
H1239 H 0.92283 0.4986 0.5454 0.0
H1240 H 0.89515 0.46468 0.49037 0.0
C1241 C 0.82491 0.46903 0.52457 0.0
C1242 C 0.86749 0.48505 0.52978 0.0
C1243 C 0.80629 0.45905 0.52672 0.0
C1244 C 0.9486 0.50716 0.53216 0.0
C1245 C 0.92904 0.50014 0.53198 0.0
C1246 C 0.8876 0.4708 0.50128 0.0
C1247 C 0.83831 0.45845 0.51861 0.0
C1248 C 0.85824 0.46885 0.51668 0.0
C1249 C 0.91776 0.4947 0.51476 0.0
C1250 C 0.89701 0.48658 0.51474 0.0
H1251 H 0.81019 0.41177 0.51374 0.0
H1252 H 0.8427 0.42901 0.51069 0.0
H1253 H 0.86165 0.44996 0.4916 0.0
H1254 H 0.95263 0.5044 0.48452 0.0
H1255 H 0.91831 0.49263 0.48417 0.0
C1256 C 0.33168 0.09053 0.26015 0.0
C1257 C 0.34553 0.08926 0.27423 0.0
C1258 C 0.31936 0.10294 0.26358 0.0
C1259 C 0.3156 0.14745 0.29388 0.0
H1260 H 0.26406 0.13392 0.27061 0.0
C1261 C 0.26942 0.20372 0.2993 0.0
C1262 C 0.26195 0.20707 0.28164 0.0
C1263 C 0.27628 0.1868 0.30106 0.0
C1264 C 0.2784 0.13785 0.27723 0.0
H1265 H 0.35705 0.09964 0.30313 0.0
H1266 H 0.33528 0.1212 0.30926 0.0
H1267 H 0.28295 0.109 0.26915 0.0
H1268 H 0.25446 0.19489 0.25233 0.0
H1269 H 0.26654 0.16524 0.25536 0.0
H1270 H 0.31119 0.17637 0.30165 0.0
C1271 C 0.33417 0.1128 0.29544 0.0
C1272 C 0.28925 0.12364 0.27635 0.0
C1273 C 0.34661 0.10043 0.29196 0.0
C1274 C 0.26018 0.1926 0.26608 0.0
C1275 C 0.26703 0.17563 0.26785 0.0
C1276 C 0.30472 0.16158 0.29488 0.0
C1277 C 0.32049 0.11429 0.28123 0.0
C1278 C 0.30814 0.12845 0.28425 0.0
C1279 C 0.27576 0.17294 0.28521 0.0
C1280 C 0.28616 0.15706 0.2862 0.0
H1281 H 0.3305 0.08214 0.24631 0.0
H1282 H 0.30928 0.10401 0.25218 0.0
H1283 H 0.33016 0.15177 0.29988 0.0
H1284 H 0.27078 0.2146 0.31158 0.0
H1285 H 0.28266 0.18494 0.31467 0.0
C1286 C 0.3199 0.10373 0.51748 0.0
C1287 C 0.31619 0.11795 0.50605 0.0
C1288 C 0.3348 0.09457 0.51418 0.0
C1289 C 0.38047 0.10112 0.49324 0.0
H1290 H 0.37342 0.04494 0.49753 0.0
C1291 C 0.44156 0.06131 0.48393 0.0
C1292 C 0.44365 0.04841 0.49741 0.0
C1293 C 0.42518 0.06859 0.48243 0.0
C1294 C 0.37566 0.06066 0.4964 0.0
H1295 H 0.32525 0.13371 0.48216 0.0
H1296 H 0.3515 0.11769 0.47644 0.0
H1297 H 0.34646 0.06027 0.49968 0.0
H1298 H 0.43015 0.03255 0.51953 0.0
H1299 H 0.40165 0.0454 0.51713 0.0
H1300 H 0.40976 0.10165 0.49045 0.0
C1301 C 0.34282 0.11372 0.48799 0.0
C1302 C 0.36021 0.06944 0.49761 0.0
C1303 C 0.32777 0.12284 0.49123 0.0
C1304 C 0.42886 0.04242 0.50897 0.0
C1305 C 0.41249 0.04973 0.50751 0.0
C1306 C 0.39595 0.09235 0.49209 0.0
C1307 C 0.34644 0.09943 0.49941 0.0
C1308 C 0.3625 0.08983 0.49637 0.0
C1309 C 0.41057 0.06314 0.49442 0.0
C1310 C 0.3938 0.07208 0.49397 0.0
H1311 H 0.31128 0.09962 0.52903 0.0
H1312 H 0.3374 0.08388 0.52343 0.0
H1313 H 0.38273 0.1169 0.49242 0.0
H1314 H 0.45275 0.06609 0.47478 0.0
H1315 H 0.42403 0.07865 0.47201 0.0
C1316 C 0.67161 0.58921 0.30516 0.0
C1317 C 0.67847 0.57331 0.29685 0.0
C1318 C 0.68251 0.60866 0.30627 0.0
C1319 C 0.71244 0.64835 0.31223 0.0
H1320 H 0.73212 0.66058 0.26414 0.0
C1321 C 0.76081 0.72412 0.29959 0.0
C1322 C 0.75594 0.7318 0.28301 0.0
C1323 C 0.75153 0.70505 0.30299 0.0
C1324 C 0.72667 0.6574 0.27764 0.0
H1325 H 0.70276 0.56527 0.28449 0.0
H1326 H 0.72166 0.59914 0.28642 0.0
H1327 H 0.71655 0.62656 0.26806 0.0
H1328 H 0.73738 0.72589 0.25718 0.0
H1329 H 0.72132 0.69253 0.26301 0.0
H1330 H 0.72251 0.67939 0.32167 0.0
C1331 C 0.70776 0.59657 0.29183 0.0
C1332 C 0.71795 0.6379 0.27996 0.0
C1333 C 0.69694 0.57716 0.29081 0.0
C1334 C 0.74145 0.72028 0.27005 0.0
C1335 C 0.73232 0.70118 0.27334 0.0
C1336 C 0.7214 0.6679 0.30997 0.0
C1337 C 0.70042 0.61255 0.29901 0.0
C1338 C 0.71063 0.63317 0.29722 0.0
C1339 C 0.7374 0.6933 0.28974 0.0
C1340 C 0.72841 0.67261 0.29256 0.0
H1341 H 0.65748 0.58677 0.31002 0.0
H1342 H 0.67649 0.62071 0.31184 0.0
H1343 H 0.70694 0.6451 0.32569 0.0
H1344 H 0.7719 0.73277 0.30984 0.0
H1345 H 0.75575 0.69928 0.3157 0.0
C1346 C 0.86138 0.49038 0.77116 0.0
C1347 C 0.88097 0.49497 0.77628 0.0
C1348 C 0.85068 0.47097 0.77037 0.0
C1349 C 0.8329 0.42768 0.75926 0.0
H1350 H 0.8438 0.39371 0.79619 0.0
C1351 C 0.79547 0.34473 0.75332 0.0
C1352 C 0.79115 0.33644 0.77018 0.0
C1353 C 0.80651 0.36402 0.75386 0.0
C1354 C 0.84042 0.40305 0.78588 0.0
H1355 H 0.90475 0.48278 0.7845 0.0
H1356 H 0.88615 0.44869 0.78258 0.0
H1357 H 0.86275 0.42747 0.79787 0.0
H1358 H 0.7945 0.34203 0.80084 0.0
H1359 H 0.81318 0.37584 0.8018 0.0
H1360 H 0.81005 0.40358 0.74776 0.0
C1361 C 0.87896 0.4602 0.77959 0.0
C1362 C 0.8515 0.42234 0.78667 0.0
C1363 C 0.88966 0.47971 0.78059 0.0
C1364 C 0.79774 0.34795 0.78759 0.0
C1365 C 0.80857 0.3673 0.78814 0.0
C1366 C 0.8217 0.40847 0.75859 0.0
C1367 C 0.85934 0.4556 0.77445 0.0
C1368 C 0.84785 0.43491 0.7734 0.0
C1369 C 0.81328 0.37551 0.77129 0.0
C1370 C 0.82528 0.39592 0.77191 0.0
H1371 H 0.85422 0.50184 0.76793 0.0
H1372 H 0.83555 0.46808 0.76677 0.0
H1373 H 0.82985 0.43682 0.74861 0.0
H1374 H 0.79073 0.33618 0.73968 0.0
H1375 H 0.81007 0.36974 0.7406 0.0
C1376 C 0.0265 0.83491 0.09278 0.0
C1377 C 0.02166 0.83487 0.11159 0.0
C1378 C 0.02242 0.84912 0.08177 0.0
C1379 C 0.99554 0.88882 0.07993 0.0
H1380 H 0.0343 0.90915 0.04696 0.0
C1381 C 0.02356 0.96225 0.03924 0.0
C1382 C 0.00631 0.96555 0.03194 0.0
C1383 C 0.02401 0.94517 0.04771 0.0
C1384 C 0.02338 0.90378 0.05618 0.0
H1385 H 0.00834 0.84934 0.13355 0.0
H1386 H 0.00194 0.8748 0.11462 0.0
H1387 H 0.03754 0.88201 0.06457 0.0
H1388 H 0.97597 0.95323 0.02762 0.0
H1389 H 0.97681 0.92302 0.04205 0.0
H1390 H 0.98198 0.91149 0.07223 0.0
C1391 C 0.00844 0.86354 0.10815 0.0
C1392 C 0.02507 0.88792 0.06609 0.0
C1393 C 0.01222 0.84904 0.11907 0.0
C1394 C 0.9895 0.95116 0.03312 0.0
C1395 C 0.98997 0.93391 0.04151 0.0
C1396 C 0.99395 0.90489 0.07013 0.0
C1397 C 0.01375 0.86394 0.08942 0.0
C1398 C 0.01126 0.88028 0.07822 0.0
C1399 C 0.00725 0.93075 0.04896 0.0
C1400 C 0.00801 0.91274 0.05833 0.0
H1401 H 0.03351 0.82396 0.08653 0.0
H1402 H 0.02625 0.84856 0.06728 0.0
H1403 H 0.98448 0.88317 0.08891 0.0
H1404 H 0.0368 0.97305 0.03876 0.0
H1405 H 0.03753 0.94351 0.05364 0.0
C1406 C 0.92128 0.23347 0.85496 0.0
C1407 C 0.93785 0.23674 0.8453 0.0
C1408 C 0.90361 0.23144 0.84525 0.0
C1409 C 0.87139 0.24374 0.8255 0.0
H1410 H 0.8597 0.22413 0.77229 0.0
C1411 C 0.81637 0.26964 0.78104 0.0
C1412 C 0.80416 0.25612 0.76739 0.0
C1413 C 0.83151 0.26435 0.79029 0.0
C1414 C 0.86261 0.22939 0.78723 0.0
H1415 H 0.94892 0.23975 0.81782 0.0
H1416 H 0.91821 0.23718 0.80097 0.0
H1417 H 0.88786 0.21848 0.78909 0.0
H1418 H 0.79835 0.22662 0.75226 0.0
H1419 H 0.82499 0.21712 0.7687 0.0
H1420 H 0.84605 0.25431 0.82381 0.0
C1421 C 0.9187 0.23558 0.81595 0.0
C1422 C 0.87888 0.22639 0.79681 0.0
C1423 C 0.93636 0.23721 0.82562 0.0
C1424 C 0.80762 0.23728 0.76277 0.0
C1425 C 0.82283 0.23189 0.77215 0.0
C1426 C 0.85508 0.24651 0.81602 0.0
C1427 C 0.90213 0.23309 0.82572 0.0
C1428 C 0.88373 0.23398 0.81596 0.0
C1429 C 0.83479 0.24533 0.7862 0.0
C1430 C 0.8508 0.23994 0.79664 0.0
H1431 H 0.92199 0.23271 0.8701 0.0
H1432 H 0.89115 0.22899 0.85318 0.0
H1433 H 0.87465 0.25001 0.84016 0.0
H1434 H 0.8142 0.2844 0.78463 0.0
H1435 H 0.84073 0.27528 0.80061 0.0
C1436 C 0.52424 0.22557 0.62694 0.0
C1437 C 0.53205 0.24406 0.62087 0.0
C1438 C 0.52505 0.208 0.61604 0.0
C1439 C 0.53028 0.18738 0.56756 0.0
H1440 H 0.54322 0.14455 0.5923 0.0
C1441 C 0.54597 0.10476 0.54736 0.0
C1442 C 0.52999 0.09621 0.53475 0.0
C1443 C 0.54785 0.12363 0.55716 0.0
C1444 C 0.53979 0.15645 0.58516 0.0
H1445 H 0.54659 0.25853 0.59842 0.0
H1446 H 0.54789 0.22787 0.5794 0.0
H1447 H 0.54301 0.17579 0.61106 0.0
H1448 H 0.50385 0.1011 0.52197 0.0
H1449 H 0.50719 0.13386 0.53895 0.0
H1450 H 0.52696 0.16801 0.54168 0.0
C1451 C 0.54111 0.22698 0.59257 0.0
C1452 C 0.53945 0.17425 0.59593 0.0
C1453 C 0.54041 0.24455 0.60351 0.0
C1454 C 0.5163 0.10719 0.53166 0.0
C1455 C 0.51826 0.12605 0.54129 0.0
C1456 C 0.5305 0.16955 0.55681 0.0
C1457 C 0.53357 0.20851 0.59877 0.0
C1458 C 0.53452 0.18984 0.58727 0.0
C1459 C 0.53391 0.13438 0.55435 0.0
C1460 C 0.53509 0.15383 0.56552 0.0
H1461 H 0.5177 0.22463 0.64023 0.0
H1462 H 0.51887 0.19398 0.62107 0.0
H1463 H 0.52633 0.19908 0.56048 0.0
H1464 H 0.55676 0.09668 0.55007 0.0
H1465 H 0.56015 0.12976 0.56702 0.0
C1466 C 0.56201 0.75144 0.35196 0.0
C1467 C 0.54931 0.76208 0.34509 0.0
C1468 C 0.57718 0.74858 0.34169 0.0
C1469 C 0.59605 0.75166 0.29422 0.0
H1470 H 0.64391 0.75581 0.32306 0.0
C1471 C 0.66967 0.76638 0.26358 0.0
C1472 C 0.68299 0.75663 0.27071 0.0
C1473 C 0.65182 0.76392 0.27069 0.0
C1474 C 0.63058 0.75429 0.3148 0.0
H1475 H 0.54247 0.77793 0.32196 0.0
H1476 H 0.56937 0.77354 0.30432 0.0
H1477 H 0.61604 0.75832 0.33959 0.0
H1478 H 0.68782 0.73568 0.28989 0.0
H1479 H 0.65664 0.7314 0.30235 0.0
H1480 H 0.61103 0.74841 0.26937 0.0
C1481 C 0.56735 0.76698 0.31744 0.0
C1482 C 0.61456 0.75571 0.32428 0.0
C1483 C 0.552 0.76963 0.32762 0.0
C1484 C 0.67781 0.74345 0.28421 0.0
C1485 C 0.66004 0.74108 0.29141 0.0
C1486 C 0.61218 0.75043 0.28471 0.0
C1487 C 0.58021 0.75653 0.32442 0.0
C1488 C 0.59708 0.75446 0.31414 0.0
C1489 C 0.64709 0.75177 0.28514 0.0
C1490 C 0.62961 0.75177 0.29493 0.0
H1491 H 0.56019 0.74519 0.36525 0.0
H1492 H 0.58653 0.74009 0.34733 0.0
H1493 H 0.58277 0.75035 0.28595 0.0
H1494 H 0.67334 0.77663 0.25315 0.0
H1495 H 0.64216 0.77241 0.26567 0.0
C1496 C 0.01819 0.20999 0.42009 0.0
C1497 C 0.01854 0.22844 0.43019 0.0
C1498 C 0.01934 0.19373 0.42969 0.0
C1499 C 0.01244 0.17465 0.47611 0.0
H1500 H 0.04026 0.13716 0.45539 0.0
C1501 C 0.02152 0.10453 0.51094 0.0
C1502 C 0.01656 0.08706 0.49825 0.0
C1503 C 0.02323 0.12306 0.50425 0.0
C1504 C 0.03247 0.14755 0.46135 0.0
H1505 H 0.02048 0.24431 0.45833 0.0
H1506 H 0.02281 0.21603 0.47503 0.0
H1507 H 0.04051 0.16717 0.44046 0.0
H1508 H 0.00966 0.07539 0.46859 0.0
H1509 H 0.01281 0.10742 0.45713 0.0
H1510 H 0.00439 0.15479 0.49698 0.0
C1511 C 0.02133 0.21404 0.4597 0.0
C1512 C 0.03251 0.16466 0.45274 0.0
C1513 C 0.02008 0.23027 0.4501 0.0
C1514 C 0.01343 0.08849 0.47883 0.0
C1515 C 0.01538 0.10688 0.47218 0.0
C1516 C 0.01254 0.15755 0.48482 0.0
C1517 C 0.02099 0.19557 0.44961 0.0
C1518 C 0.02214 0.1782 0.45974 0.0
C1519 C 0.02035 0.12434 0.48477 0.0
C1520 C 0.0222 0.14365 0.47724 0.0
H1521 H 0.01692 0.20805 0.40475 0.0
H1522 H 0.01867 0.17963 0.42146 0.0
H1523 H 0.00419 0.18469 0.48179 0.0
H1524 H 0.02401 0.1039 0.52598 0.0
H1525 H 0.02707 0.13637 0.51422 0.0
C1526 C 0.55852 0.27327 0.15589 0.0
C1527 C 0.54101 0.26684 0.1635 0.0
C1528 C 0.57515 0.27009 0.16453 0.0
C1529 C 0.59652 0.25931 0.20924 0.0
H1530 H 0.63055 0.23912 0.17658 0.0
C1531 C 0.66319 0.2381 0.24013 0.0
C1532 C 0.67987 0.24513 0.23139 0.0
C1533 C 0.64554 0.23846 0.23145 0.0
C1534 C 0.62127 0.24488 0.18589 0.0
H1535 H 0.5274 0.25273 0.18661 0.0
H1536 H 0.55645 0.24732 0.20172 0.0
H1537 H 0.60148 0.24576 0.16278 0.0
H1538 H 0.69123 0.25718 0.2064 0.0
H1539 H 0.66057 0.25798 0.19133 0.0
H1540 H 0.61644 0.2588 0.23233 0.0
C1541 C 0.55729 0.25479 0.18906 0.0
C1542 C 0.60463 0.24872 0.17798 0.0
C1543 C 0.54064 0.25787 0.18036 0.0
C1544 C 0.67857 0.2516 0.21343 0.0
C1545 C 0.66097 0.252 0.20477 0.0
C1546 C 0.6132 0.25556 0.21716 0.0
C1547 C 0.57467 0.26054 0.18103 0.0
C1548 C 0.59216 0.25615 0.18955 0.0
C1549 C 0.64427 0.24588 0.21387 0.0
C1550 C 0.62587 0.24845 0.20556 0.0
H1551 H 0.55936 0.28025 0.14295 0.0
H1552 H 0.58839 0.27499 0.1582 0.0
H1553 H 0.58726 0.26518 0.21851 0.0
H1554 H 0.66382 0.23301 0.25399 0.0
H1555 H 0.63293 0.23332 0.23869 0.0
C1556 C 0.55432 0.84201 0.94994 0.0
C1557 C 0.54502 0.83742 0.93163 0.0
C1558 C 0.55408 0.85978 0.96086 0.0
C1559 C 0.52391 0.89432 0.96713 0.0
H1560 H 0.56778 0.93243 0.9924 0.0
C1561 C 0.51787 0.9712 0.99699 0.0
C1562 C 0.52782 0.97989 0.0143 0.0
C1563 C 0.52132 0.95392 0.98787 0.0
C1564 C 0.55538 0.92177 0.98567 0.0
H1565 H 0.52888 0.84829 0.91018 0.0
H1566 H 0.52832 0.87902 0.9293 0.0
H1567 H 0.57191 0.90194 0.97453 0.0
H1568 H 0.5491 0.97736 0.03583 0.0
H1569 H 0.55478 0.94651 0.02009 0.0
H1570 H 0.50726 0.91366 0.97829 0.0
C1571 C 0.53571 0.86885 0.93519 0.0
C1572 C 0.55777 0.90441 0.97542 0.0
C1573 C 0.53611 0.85127 0.92424 0.0
C1574 C 0.5413 0.97094 0.02243 0.0
C1575 C 0.54462 0.95339 0.01337 0.0
C1576 C 0.5215 0.91146 0.97749 0.0
C1577 C 0.54435 0.87308 0.95371 0.0
C1578 C 0.54207 0.89078 0.96574 0.0
C1579 C 0.5345 0.94461 0.99605 0.0
C1580 C 0.53722 0.92563 0.98651 0.0
H1581 H 0.56138 0.83168 0.95601 0.0
H1582 H 0.56083 0.86277 0.97513 0.0
H1583 H 0.51154 0.88381 0.96011 0.0
H1584 H 0.50728 0.97769 0.99046 0.0
H1585 H 0.51359 0.94785 0.97435 0.0
C1586 C 0.94466 0.76109 0.69088 0.0
C1587 C 0.95118 0.77332 0.67693 0.0
C1588 C 0.92985 0.76439 0.70147 0.0
C1589 C 0.90255 0.80109 0.71644 0.0
H1590 H 0.86358 0.75417 0.7218 0.0
C1591 C 0.82898 0.80312 0.74395 0.0
C1592 C 0.8206 0.78783 0.75444 0.0
C1593 C 0.84626 0.80304 0.73618 0.0
C1594 C 0.87446 0.76741 0.72075 0.0
H1595 H 0.94766 0.79903 0.66359 0.0
H1596 H 0.92156 0.80474 0.68212 0.0
H1597 H 0.89101 0.75095 0.70484 0.0
H1598 H 0.82445 0.76135 0.76619 0.0
H1599 H 0.85472 0.76151 0.7531 0.0
H1600 H 0.88582 0.81755 0.73237 0.0
C1601 C 0.92805 0.79265 0.68487 0.0
C1602 C 0.89018 0.76556 0.71095 0.0
C1603 C 0.94291 0.78932 0.6742 0.0
C1604 C 0.8304 0.77319 0.75796 0.0
C1605 C 0.8477 0.77321 0.75034 0.0
C1606 C 0.88678 0.80295 0.72635 0.0
C1607 C 0.92116 0.77999 0.69839 0.0
C1608 C 0.90445 0.78233 0.70874 0.0
C1609 C 0.85555 0.78775 0.73885 0.0
C1610 C 0.87259 0.78609 0.72869 0.0
H1611 H 0.95081 0.74874 0.69348 0.0
H1612 H 0.9251 0.75459 0.71202 0.0
H1613 H 0.91339 0.81427 0.71505 0.0
H1614 H 0.82176 0.81459 0.74094 0.0
H1615 H 0.85186 0.81442 0.72733 0.0
C1616 C 0.07986 0.01256 0.83197 0.0
C1617 C 0.09646 0.00597 0.82883 0.0
C1618 C 0.07011 0.00825 0.84796 0.0
C1619 C 0.07797 -0.00099 0.89674 0.0
H1620 H 0.02302 0.98523 0.89474 0.0
C1621 C 0.01323 0.98439 0.95013 0.0
C1622 C 0.01914 0.00163 0.963 0.0
C1623 C 0.02315 0.98167 0.93414 0.0
C1624 C 0.03837 0.98882 0.89554 0.0
H1625 H 0.11565 0.98929 0.83979 0.0
H1626 H 0.09867 0.98199 0.86806 0.0
H1627 H 0.03888 0.98561 0.86535 0.0
H1628 H 0.04018 0.0294 0.96938 0.0
H1629 H 0.05765 0.0245 0.94172 0.0
H1630 H 0.07744 0.00282 0.92694 0.0
C1631 C 0.09323 0.99045 0.85802 0.0
C1632 C 0.04744 0.98918 0.87872 0.0
C1633 C 0.10287 0.99453 0.84182 0.0
C1634 C 0.03542 0.01584 0.95985 0.0
C1635 C 0.04545 0.01302 0.94401 0.0
C1636 C 0.06889 -0.00116 0.91357 0.0
C1637 C 0.07684 0.99744 0.86133 0.0
C1638 C 0.06732 0.99464 0.87913 0.0
C1639 C 0.03928 0.99604 0.93083 0.0
C1640 C 0.04899 0.9941 0.91314 0.0
H1641 H 0.07454 0.02137 0.82221 0.0
H1642 H 0.05766 0.01403 0.85021 0.0
H1643 H 0.09331 0.0034 0.8975 0.0
H1644 H 0.00073 0.97319 0.95223 0.0
H1645 H 0.01813 0.96839 0.92428 0.0
C1646 C 0.73076 0.3793 0.5864 0.0
C1647 C 0.72941 0.37152 0.56729 0.0
C1648 C 0.72829 0.36664 0.60054 0.0
C1649 C 0.73243 0.31641 0.60854 0.0
H1650 H 0.71284 0.32976 0.65643 0.0
C1651 C 0.72236 0.28841 0.68775 0.0
C1652 C 0.74034 0.28464 0.69117 0.0
C1653 C 0.71774 0.29572 0.67102 0.0
C1654 C 0.71805 0.32555 0.64304 0.0
H1655 H 0.72312 0.3444 0.54789 0.0
H1656 H 0.71833 0.32235 0.57251 0.0
H1657 H 0.70943 0.34896 0.63031 0.0
H1658 H 0.76734 0.28466 0.67966 0.0
H1659 H 0.75954 0.29792 0.65065 0.0
H1660 H 0.74092 0.29292 0.62121 0.0
C1661 C 0.72185 0.33821 0.57664 0.0
C1662 C 0.71633 0.33676 0.62814 0.0
C1663 C 0.72451 0.35085 0.56253 0.0
C1664 C 0.75335 0.28742 0.67729 0.0
C1665 C 0.74881 0.29491 0.66063 0.0
C1666 C 0.73401 0.3051 0.62338 0.0
C1667 C 0.72422 0.34595 0.59583 0.0
C1668 C 0.72391 0.33263 0.61087 0.0
C1669 C 0.7311 0.29956 0.65749 0.0
C1670 C 0.72726 0.30984 0.64095 0.0
H1671 H 0.73455 0.39516 0.59051 0.0
H1672 H 0.73043 0.37312 0.61519 0.0
H1673 H 0.73859 0.3129 0.59549 0.0
H1674 H 0.71204 0.28623 0.69824 0.0
H1675 H 0.70385 0.29878 0.66888 0.0
C1676 C 0.45578 0.06483 0.33254 0.0
C1677 C 0.43793 0.06901 0.32928 0.0
C1678 C 0.46579 0.07022 0.35022 0.0
C1679 C 0.4571 0.07678 0.39977 0.0
H1680 H 0.51206 0.08888 0.40575 0.0
C1681 C 0.52279 0.07638 0.45866 0.0
C1682 C 0.51505 0.05785 0.4646 0.0
C1683 C 0.51317 0.08347 0.44428 0.0
C1684 C 0.49672 0.08592 0.4045 0.0
H1685 H 0.41693 0.08295 0.34168 0.0
H1686 H 0.43448 0.09228 0.3729 0.0
H1687 H 0.49609 0.09278 0.37588 0.0
H1688 H 0.49138 0.03217 0.4603 0.0
H1689 H 0.47475 0.04434 0.43521 0.0
H1690 H 0.45773 0.06938 0.42822 0.0
C1691 C 0.44064 0.08478 0.36168 0.0
C1692 C 0.48757 0.08798 0.38732 0.0
C1693 C 0.43064 0.0795 0.34384 0.0
C1694 C 0.49757 0.0466 0.45609 0.0
C1695 C 0.48796 0.05367 0.44183 0.0
C1696 C 0.46625 0.07478 0.41698 0.0
C1697 C 0.45818 0.07986 0.36512 0.0
C1698 C 0.46768 0.08253 0.38449 0.0
C1699 C 0.49568 0.07212 0.43566 0.0
C1700 C 0.48615 0.07844 0.4192 0.0
H1701 H 0.46185 0.05689 0.32157 0.0
H1702 H 0.47909 0.06591 0.35244 0.0
H1703 H 0.44176 0.07245 0.39806 0.0
H1704 H 0.53624 0.08535 0.46509 0.0
H1705 H 0.51945 0.09776 0.43985 0.0
C1706 C 0.78353 0.68335 0.07363 0.0
C1707 C 0.77789 0.69175 0.05776 0.0
C1708 C 0.78362 0.6928 0.09191 0.0
C1709 C 0.76072 0.72781 0.11827 0.0
H1710 H 0.7989 0.72774 0.15848 0.0
C1711 C 0.78371 0.76298 0.20106 0.0
C1712 C 0.76596 0.75871 0.20869 0.0
C1713 C 0.78575 0.75558 0.18253 0.0
C1714 C 0.7882 0.72802 0.14738 0.0
H1715 H 0.76882 0.71721 0.04868 0.0
H1716 H 0.76919 0.73374 0.08055 0.0
H1717 H 0.80253 0.71436 0.12625 0.0
H1718 H 0.7364 0.74334 0.20268 0.0
H1719 H 0.74001 0.73031 0.17034 0.0
H1720 H 0.74645 0.74159 0.13935 0.0
C1721 C 0.77321 0.71967 0.07885 0.0
C1722 C 0.7902 0.72019 0.12895 0.0
C1723 C 0.77315 0.71025 0.06057 0.0
C1724 C 0.75027 0.74695 0.19727 0.0
C1725 C 0.75231 0.73957 0.17869 0.0
C1726 C 0.7587 0.73559 0.1367 0.0
C1727 C 0.77807 0.71086 0.09474 0.0
C1728 C 0.77645 0.71994 0.1142 0.0
C1729 C 0.7701 0.74375 0.17114 0.0
C1730 C 0.77237 0.73571 0.15149 0.0
H1731 H 0.78727 0.66913 0.072 0.0
H1732 H 0.78732 0.68554 0.10384 0.0
H1733 H 0.74975 0.72762 0.10728 0.0
H1734 H 0.79611 0.77206 0.2094 0.0
H1735 H 0.79958 0.7593 0.17706 0.0
C1736 C 0.11993 0.01315 0.7105 0.0
C1737 C 0.11143 0.01708 0.72729 0.0
C1738 C 0.11282 0.01764 0.69325 0.0
C1739 C 0.07097 0.02954 0.66906 0.0
H1740 H 0.10794 0.0541 0.63611 0.0
C1741 C 0.04779 0.05883 0.601 0.0
C1742 C 0.05586 0.0525 0.58472 0.0
C1743 C 0.05545 0.05691 0.61898 0.0
C1744 C 0.09744 0.04719 0.64512 0.0
H1745 H 0.08825 0.02804 0.73892 0.0
H1746 H 0.07594 0.03593 0.70888 0.0
H1747 H 0.11869 0.04429 0.66596 0.0
H1748 H 0.07892 0.04044 0.57442 0.0
H1749 H 0.09234 0.03719 0.60573 0.0
H1750 H 0.04973 0.03235 0.64816 0.0
C1751 C 0.08804 0.02928 0.70902 0.0
C1752 C 0.10359 0.04147 0.66219 0.0
C1753 C 0.09513 0.02476 0.72627 0.0
C1754 C 0.07243 0.04548 0.58675 0.0
C1755 C 0.08013 0.04364 0.60471 0.0
C1756 C 0.06483 0.03531 0.65201 0.0
C1757 C 0.09705 0.02618 0.69237 0.0
C1758 C 0.09044 0.03241 0.67429 0.0
C1759 C 0.07137 0.04873 0.621 0.0
C1760 C 0.07799 0.04406 0.63977 0.0
H1761 H 0.13245 0.00715 0.71073 0.0
H1762 H 0.11984 0.01464 0.68062 0.0
H1763 H 0.06046 0.02243 0.67794 0.0
H1764 H 0.03499 0.06427 0.59982 0.0
H1765 H 0.04857 0.06127 0.63129 0.0
C1766 C 0.75167 0.34191 0.46539 0.0
C1767 C 0.74099 0.35637 0.46747 0.0
C1768 C 0.75076 0.33022 0.44818 0.0
C1769 C 0.72262 0.31227 0.4029 0.0
H1770 H 0.77121 0.30895 0.38434 0.0
C1771 C 0.72947 0.26493 0.33323 0.0
C1772 C 0.74139 0.27531 0.3209 0.0
C1773 C 0.72943 0.27302 0.352 0.0
C1774 C 0.75755 0.30971 0.38938 0.0
H1775 H 0.72045 0.36942 0.45333 0.0
H1776 H 0.71887 0.34885 0.42305 0.0
H1777 H 0.77018 0.32679 0.41537 0.0
H1778 H 0.76298 0.30189 0.31852 0.0
H1779 H 0.7632 0.3158 0.3513 0.0
H1780 H 0.71005 0.29546 0.37665 0.0
C1781 C 0.7279 0.34662 0.43485 0.0
C1782 C 0.75694 0.31979 0.40716 0.0
C1783 C 0.72886 0.35843 0.45213 0.0
C1784 C 0.75377 0.2935 0.32778 0.0
C1785 C 0.75389 0.30146 0.34653 0.0
C1786 C 0.72323 0.30201 0.38514 0.0
C1787 C 0.73911 0.33266 0.43266 0.0
C1788 C 0.73949 0.32132 0.41403 0.0
C1789 C 0.7415 0.29148 0.35873 0.0
C1790 C 0.74072 0.30085 0.37814 0.0
H1791 H 0.76105 0.33983 0.47697 0.0
H1792 H 0.75934 0.31938 0.44695 0.0
H1793 H 0.70899 0.31313 0.40794 0.0
H1794 H 0.71976 0.25088 0.32824 0.0
H1795 H 0.71986 0.26497 0.3612 0.0
C1796 C 0.41736 0.06982 0.21062 0.0
C1797 C 0.4259 0.06582 0.22753 0.0
C1798 C 0.42734 0.07133 0.19441 0.0
C1799 C 0.44549 0.05552 0.1609 0.0
H1800 H 0.49918 0.0791 0.15998 0.0
C1801 C 0.48856 0.03044 0.10269 0.0
C1802 C 0.50006 0.04526 0.09379 0.0
C1803 C 0.48056 0.03533 0.11932 0.0
C1804 C 0.48414 0.0726 0.16002 0.0
H1805 H 0.45202 0.06157 0.24101 0.0
H1806 H 0.46928 0.064 0.21266 0.0
H1807 H 0.48299 0.08523 0.18853 0.0
H1808 H 0.5129 0.0767 0.09552 0.0
H1809 H 0.49895 0.08529 0.12492 0.0
H1810 H 0.44662 0.04263 0.13261 0.0
C1811 C 0.45494 0.06607 0.21196 0.0
C1812 C 0.47493 0.07601 0.17635 0.0
C1813 C 0.44496 0.06453 0.22816 0.0
C1814 C 0.50408 0.06501 0.10218 0.0
C1815 C 0.49613 0.06991 0.11895 0.0
C1816 C 0.45469 0.05201 0.1447 0.0
C1817 C 0.44604 0.06892 0.19479 0.0
C1818 C 0.45555 0.06727 0.17701 0.0
C1819 C 0.48396 0.05513 0.12741 0.0
C1820 C 0.47416 0.06022 0.14422 0.0
H1821 H 0.40278 0.07109 0.20969 0.0
H1822 H 0.42022 0.07382 0.18141 0.0
H1823 H 0.43061 0.04837 0.16104 0.0
H1824 H 0.4853 0.01509 0.09654 0.0
H1825 H 0.47149 0.02361 0.12575 0.0
C1826 C 0.78185 0.69714 0.94152 0.0
C1827 C 0.76964 0.70174 0.95505 0.0
C1828 C 0.78369 0.7067 0.92507 0.0
C1829 C 0.7571 0.73251 0.89464 0.0
H1830 H 0.8049 0.75009 0.8727 0.0
C1831 C 0.78736 0.78301 0.83238 0.0
C1832 C 0.77287 0.77496 0.81799 0.0
C1833 C 0.78825 0.77392 0.849 0.0
C1834 C 0.79147 0.74534 0.87873 0.0
H1835 H 0.75037 0.72053 0.96225 0.0
H1836 H 0.75369 0.73718 0.93381 0.0
H1837 H 0.80437 0.73505 0.90241 0.0
H1838 H 0.74811 0.75104 0.80958 0.0
H1839 H 0.7498 0.73512 0.83829 0.0
H1840 H 0.74417 0.74291 0.87125 0.0
C1841 C 0.7616 0.72598 0.93569 0.0
C1842 C 0.79115 0.73657 0.89563 0.0
C1843 C 0.75977 0.71648 0.95205 0.0
C1844 C 0.75949 0.75756 0.82039 0.0
C1845 C 0.76036 0.74852 0.83692 0.0
C1846 C 0.75742 0.74115 0.87778 0.0
C1847 C 0.77332 0.72099 0.92184 0.0
C1848 C 0.77394 0.73014 0.90381 0.0
C1849 C 0.77459 0.75671 0.85154 0.0
C1850 C 0.77457 0.74765 0.86959 0.0
H1851 H 0.78967 0.68587 0.94343 0.0
H1852 H 0.79277 0.70246 0.91462 0.0
H1853 H 0.74358 0.72749 0.90041 0.0
H1854 H 0.79785 0.79642 0.83087 0.0
H1855 H 0.79931 0.78067 0.86006 0.0
C1856 C 0.82363 0.09398 0.03213 0.0
C1857 C 0.82084 0.10839 0.02056 0.0
C1858 C 0.83471 0.08081 0.02665 0.0
C1859 C 0.87243 0.07494 0.99545 0.0
H1860 H 0.86152 0.02197 0.01092 0.0
C1861 C 0.92304 0.02347 0.98293 0.0
C1862 C 0.9296 0.0178 -4e-05 0.0
C1863 C 0.90684 0.03106 0.98213 0.0
C1864 C 0.86464 0.03667 0.00641 0.0
H1865 H 0.82714 0.12011 0.99396 0.0
H1866 H 0.84624 0.09675 0.9841 0.0
H1867 H 0.83859 0.04249 0.01526 0.0
H1868 H 0.92377 0.01417 0.02907 0.0
H1869 H 0.89517 0.02708 0.02758 0.0
H1870 H 0.89855 0.06908 0.98674 0.0
C1871 C 0.84015 0.09588 0.99763 0.0
C1872 C 0.85161 0.04849 0.009 0.0
C1873 C 0.82919 0.10925 0.00324 0.0
C1874 C 0.91896 0.01843 0.01577 0.0
C1875 C 0.9026 0.02576 0.01489 0.0
C1876 C 0.88532 0.063 0.99262 0.0
C1877 C 0.84311 0.08154 0.00932 0.0
C1878 C 0.85563 0.06801 0.0041 0.0
C1879 C 0.8968 0.0328 0.99826 0.0
C1880 C 0.88177 0.04398 -0.00145 0.0
H1881 H 0.81746 0.093 0.04562 0.0
H1882 H 0.83703 0.07033 0.03625 0.0
H1883 H 0.87613 0.08993 0.99171 0.0
H1884 H 0.93103 0.02314 0.97053 0.0
H1885 H 0.90256 0.03628 0.96912 0.0
C1886 C 0.31705 0.42055 0.0261 0.0
C1887 C 0.30458 0.42899 0.03682 0.0
C1888 C 0.33514 0.43161 0.02364 0.0
C1889 C 0.36453 0.48295 0.02719 0.0
H1890 H 0.40593 0.45635 0.02944 0.0
C1891 C 0.44424 0.52326 0.03471 0.0
C1892 C 0.45648 0.5142 0.0243 0.0
C1893 C 0.42507 0.51384 0.03464 0.0
C1894 C 0.39449 0.46393 0.02852 0.0
H1895 H 0.30132 0.45577 0.05326 0.0
H1896 H 0.33315 0.47498 0.04932 0.0
H1897 H 0.37387 0.438 0.03303 0.0
H1898 H 0.4582 0.4888 0.00484 0.0
H1899 H 0.42474 0.47236 0.00471 0.0
H1900 H 0.38543 0.50903 0.02309 0.0
C1901 C 0.32878 0.45988 0.04254 0.0
C1902 C 0.37609 0.45341 0.03057 0.0
C1903 C 0.31058 0.44883 0.0449 0.0
C1904 C 0.44909 0.49604 0.01313 0.0
C1905 C 0.42998 0.48659 0.01313 0.0
C1906 C 0.38301 0.49353 0.02525 0.0
C1907 C 0.3413 0.45135 0.03196 0.0
C1908 C 0.36086 0.46275 0.02987 0.0
C1909 C 0.41787 0.49517 0.02422 0.0
C1910 C 0.39816 0.48408 0.02583 0.0
H1911 H 0.31283 0.40538 0.01949 0.0
H1912 H 0.34426 0.42469 0.01509 0.0
H1913 H 0.35309 0.49053 0.02635 0.0
H1914 H 0.4496 0.53731 0.04339 0.0
H1915 H 0.41608 0.52076 0.04338 0.0
C1916 C 0.35586 0.60727 0.75753 0.0
C1917 C 0.3496 0.59337 0.74148 0.0
C1918 C 0.34652 0.62245 0.76191 0.0
C1919 C 0.30128 0.63735 0.752 0.0
H1920 H 0.33182 0.69051 0.76684 0.0
C1921 C 0.27123 0.70755 0.75127 0.0
C1922 C 0.27825 0.72324 0.76567 0.0
C1923 C 0.279 0.69087 0.74976 0.0
C1924 C 0.32304 0.67572 0.76298 0.0
H1925 H 0.32846 0.58438 0.7176 0.0
H1926 H 0.31237 0.61086 0.72511 0.0
H1927 H 0.34724 0.66304 0.76183 0.0
H1928 H 0.29841 0.73328 0.79028 0.0
H1929 H 0.31171 0.7042 0.78777 0.0
H1930 H 0.2771 0.65011 0.75292 0.0
C1931 C 0.32433 0.60994 0.73446 0.0
C1932 C 0.3319 0.65995 0.76012 0.0
C1933 C 0.33366 0.59482 0.73008 0.0
C1934 C 0.29275 0.72157 0.77889 0.0
C1935 C 0.30048 0.70493 0.7774 0.0
C1936 C 0.29242 0.65313 0.75486 0.0
C1937 C 0.33068 0.62402 0.75036 0.0
C1938 C 0.32115 0.64059 0.75444 0.0
C1939 C 0.29394 0.68952 0.76263 0.0
C1940 C 0.3032 0.67253 0.76027 0.0
H1941 H 0.36806 0.60652 0.76664 0.0
H1942 H 0.35165 0.63294 0.77437 0.0
H1943 H 0.29255 0.62257 0.7479 0.0
H1944 H 0.26011 0.70836 0.74082 0.0
H1945 H 0.27373 0.67935 0.73812 0.0
C1946 C 0.22776 0.61528 0.54163 0.0
C1947 C 0.23414 0.63275 0.53324 0.0
C1948 C 0.20858 0.60564 0.53972 0.0
C1949 C 0.16415 0.60158 0.51024 0.0
H1950 H 0.14029 0.58115 0.55388 0.0
C1951 C 0.08468 0.57257 0.53631 0.0
C1952 C 0.07588 0.5597 0.52027 0.0
C1953 C 0.10411 0.58097 0.53757 0.0
C1954 C 0.14673 0.58689 0.54159 0.0
H1955 H 0.22535 0.65384 0.51633 0.0
H1956 H 0.1919 0.63721 0.51327 0.0
H1957 H 0.17402 0.59695 0.55674 0.0
H1958 H 0.08061 0.54558 0.49295 0.0
H1959 H 0.11458 0.56013 0.49527 0.0
H1960 H 0.13675 0.59204 0.49524 0.0
C1961 C 0.20177 0.63077 0.52105 0.0
C1962 C 0.16609 0.59572 0.54318 0.0
C1963 C 0.22093 0.64038 0.52292 0.0
C1964 C 0.08691 0.55553 0.50546 0.0
C1965 C 0.10637 0.56391 0.50675 0.0
C1966 C 0.14478 0.59278 0.50866 0.0
C1967 C 0.19538 0.6133 0.52941 0.0
C1968 C 0.17498 0.60328 0.52755 0.0
C1969 C 0.11518 0.57665 0.52286 0.0
C1970 C 0.13584 0.58547 0.52436 0.0
H1971 H 0.2376 0.60896 0.5496 0.0
H1972 H 0.2041 0.59208 0.54614 0.0
H1973 H 0.17065 0.60706 0.49788 0.0
H1974 H 0.07661 0.5762 0.54795 0.0
H1975 H 0.11043 0.59101 0.55002 0.0
C1976 C 0.68116 0.97457 0.74957 0.0
C1977 C 0.6627 0.96869 0.75527 0.0
C1978 C 0.69451 0.96351 0.75289 0.0
C1979 C 0.70486 0.92375 0.77977 0.0
H1980 H 0.73419 0.91434 0.7373 0.0
C1981 C 0.74397 0.86074 0.74896 0.0
C1982 C 0.75376 0.85765 0.76549 0.0
C1983 C 0.73599 0.8771 0.74871 0.0
C1984 C 0.72615 0.91687 0.7493 0.0
H1985 H 0.64388 0.94696 0.76942 0.0
H1986 H 0.66711 0.92722 0.77478 0.0
H1987 H 0.71338 0.93705 0.73564 0.0
H1988 H 0.76374 0.86958 0.79445 0.0
H1989 H 0.74983 0.89845 0.794 0.0
H1990 H 0.71697 0.90271 0.79299 0.0
C1991 C 0.67136 0.94061 0.76803 0.0
C1992 C 0.71435 0.93004 0.74845 0.0
C1993 C 0.658 0.95181 0.76485 0.0
C1994 C 0.75624 0.87169 0.78153 0.0
C1995 C 0.74817 0.88808 0.78131 0.0
C1996 C 0.71665 0.91051 0.7806 0.0
C1997 C 0.68968 0.94618 0.76181 0.0
C1998 C 0.70332 0.93339 0.76353 0.0
C1999 C 0.73762 0.89071 0.765 0.0
C2000 C 0.72712 0.90664 0.76521 0.0
H2001 H 0.68531 0.98769 0.7424 0.0
H2002 H 0.7086 0.96844 0.74826 0.0
H2003 H 0.69673 0.92621 0.79172 0.0
H2004 H 0.74185 0.8501 0.7364 0.0
H2005 H 0.72777 0.87855 0.73599 0.0
C2006 C 0.70733 0.95534 0.55456 0.0
C2007 C 0.71144 0.94154 0.54059 0.0
C2008 C 0.69323 0.96547 0.55088 0.0
C2009 C 0.65112 0.96373 0.51818 0.0
H2010 H 0.65807 0.01835 0.54007 0.0
C2011 C 0.59867 0.01145 0.4999 0.0
C2012 C 0.59251 0.02167 0.51543 0.0
C2013 C 0.61398 0.00262 0.50229 0.0
C2014 C 0.6559 0.00308 0.53395 0.0
H2015 H 0.704 0.92762 0.51175 0.0
H2016 H 0.67965 0.94564 0.50514 0.0
H2017 H 0.68316 0.00093 0.54522 0.0
H2018 H 0.59779 0.03119 0.54553 0.0
H2019 H 0.62478 0.01599 0.5497 0.0
H2020 H 0.62391 0.96605 0.50675 0.0
C2021 C 0.68708 0.94836 0.5191 0.0
C2022 C 0.67024 0.99304 0.53694 0.0
C2023 C 0.7011 0.93808 0.52284 0.0
C2024 C 0.60232 0.02347 0.5333 0.0
C2025 C 0.61776 0.01481 0.53567 0.0
C2026 C 0.63687 0.97385 0.51504 0.0
C2027 C 0.68297 0.96222 0.53308 0.0
C2028 C 0.66798 0.97316 0.52925 0.0
C2029 C 0.62355 0.004 0.52025 0.0
C2030 C 0.63904 0.99358 0.52301 0.0
H2031 H 0.71494 0.95826 0.56844 0.0
H2032 H 0.69024 0.97568 0.56214 0.0
H2033 H 0.64871 0.94837 0.51227 0.0
H2034 H 0.59134 0.00981 0.48596 0.0
H2035 H 0.61825 0.99458 0.49012 0.0
C2036 C 0.34008 0.4856 0.73567 0.0
C2037 C 0.35936 0.48945 0.73221 0.0
C2038 C 0.32994 0.46622 0.73673 0.0
C2039 C 0.32836 0.41415 0.72242 0.0
H2040 H 0.30198 0.40457 0.76775 0.0
C2041 C 0.27471 0.34109 0.7329 0.0
C2042 C 0.27739 0.33354 0.75014 0.0
C2043 C 0.2855 0.35961 0.72972 0.0
C2044 C 0.30933 0.40705 0.75505 0.0
H2045 H 0.38295 0.476 0.72642 0.0
H2046 H 0.36504 0.44207 0.72791 0.0
H2047 H 0.31872 0.43826 0.76349 0.0
H2048 H 0.29363 0.33903 0.77738 0.0
H2049 H 0.31224 0.37161 0.77195 0.0
H2050 H 0.31874 0.38289 0.71393 0.0
C2051 C 0.35789 0.45409 0.72994 0.0
C2052 C 0.31874 0.42629 0.75255 0.0
C2053 C 0.36813 0.47349 0.7292 0.0
C2054 C 0.29128 0.34456 0.76399 0.0
C2055 C 0.30185 0.36319 0.76092 0.0
C2056 C 0.31865 0.39491 0.72478 0.0
C2057 C 0.3388 0.45033 0.73401 0.0
C2058 C 0.3284 0.42999 0.73626 0.0
C2059 C 0.2989 0.37095 0.74385 0.0
C2060 C 0.30917 0.39121 0.74118 0.0
H2061 H 0.33296 0.49759 0.73808 0.0
H2062 H 0.31518 0.46363 0.73977 0.0
H2063 H 0.33569 0.41668 0.70972 0.0
H2064 H 0.26412 0.3328 0.72199 0.0
H2065 H 0.28294 0.36535 0.71648 0.0
C2066 C 0.131 0.56613 0.25125 0.0
C2067 C 0.13787 0.54993 0.24373 0.0
C2068 C 0.1425 0.58534 0.25296 0.0
C2069 C 0.1739 0.62233 0.26525 0.0
H2070 H 0.20558 0.63823 0.22475 0.0
C2071 C 0.23047 0.69628 0.27249 0.0
C2072 C 0.23135 0.70708 0.25678 0.0
C2073 C 0.21956 0.67683 0.27105 0.0
C2074 C 0.19674 0.63406 0.23615 0.0
H2075 H 0.1622 0.5412 0.23214 0.0
H2076 H 0.18218 0.57453 0.23532 0.0
H2077 H 0.18471 0.60524 0.22162 0.0
H2078 H 0.2217 0.70575 0.22715 0.0
H2079 H 0.20264 0.67207 0.22476 0.0
H2080 H 0.18563 0.65139 0.27956 0.0
C2081 C 0.16786 0.57248 0.23964 0.0
C2082 C 0.18493 0.61509 0.23443 0.0
C2083 C 0.1564 0.55335 0.2379 0.0
C2084 C 0.2214 0.69789 0.23954 0.0
C2085 C 0.21052 0.6785 0.23812 0.0
C2086 C 0.18572 0.64135 0.26696 0.0
C2087 C 0.16106 0.5887 0.24718 0.0
C2088 C 0.17337 0.609 0.24896 0.0
C2089 C 0.20936 0.6678 0.25389 0.0
C2090 C 0.19724 0.64743 0.2524 0.0
H2091 H 0.11679 0.564 0.25586 0.0
H2092 H 0.13678 0.59758 0.25863 0.0
H2093 H 0.16531 0.618 0.27678 0.0
H2094 H 0.23798 0.70289 0.28597 0.0
H2095 H 0.21913 0.66885 0.28338 0.0
C2096 C 0.52098 0.71897 0.43444 0.0
C2097 C 0.50579 0.72076 0.42216 0.0
C2098 C 0.5199 0.70199 0.44353 0.0
C2099 C 0.48789 0.65933 0.45923 0.0
H2100 H 0.53016 0.63436 0.45342 0.0
C2101 C 0.48664 0.58141 0.48129 0.0
C2102 C 0.5038 0.57754 0.48813 0.0
C2103 C 0.48639 0.59938 0.47428 0.0
C2104 C 0.51839 0.64128 0.45552 0.0
H2105 H 0.47725 0.70648 0.41039 0.0
H2106 H 0.47528 0.67675 0.42662 0.0
H2107 H 0.53029 0.6649 0.43961 0.0
H2108 H 0.53403 0.58979 0.49377 0.0
H2109 H 0.53354 0.62139 0.48222 0.0
H2110 H 0.47612 0.63595 0.47548 0.0
C2111 C 0.48803 0.68854 0.42905 0.0
C2112 C 0.51843 0.65873 0.44749 0.0
C2113 C 0.48918 0.7055 0.41974 0.0
C2114 C 0.52061 0.59225 0.48839 0.0
C2115 C 0.52033 0.61032 0.48164 0.0
C2116 C 0.48794 0.64196 0.46751 0.0
C2117 C 0.50355 0.6865 0.44072 0.0
C2118 C 0.50321 0.66793 0.44926 0.0
C2119 C 0.50327 0.614 0.47418 0.0
C2120 C 0.50321 0.6327 0.46575 0.0
H2121 H 0.53397 0.73046 0.43668 0.0
H2122 H 0.53197 0.70087 0.45264 0.0
H2123 H 0.47604 0.66623 0.46089 0.0
H2124 H 0.47344 0.57033 0.4808 0.0
H2125 H 0.47303 0.60152 0.46844 0.0
C2126 C 0.59915 0.32251 0.68941 0.0
C2127 C 0.58129 0.31313 0.69482 0.0
C2128 C 0.61559 0.32368 0.70107 0.0
C2129 C 0.64847 0.32879 0.73143 0.0
H2130 H 0.64912 0.27806 0.74907 0.0
C2131 C 0.71254 0.3122 0.775 0.0
C2132 C 0.71735 0.29449 0.76828 0.0
C2133 C 0.69593 0.3167 0.76762 0.0
C2134 C 0.64914 0.29233 0.74428 0.0
H2135 H 0.56659 0.29917 0.71745 0.0
H2136 H 0.59522 0.3014 0.73778 0.0
H2137 H 0.61999 0.28308 0.73402 0.0
H2138 H 0.70873 0.26761 0.74871 0.0
H2139 H 0.67992 0.27542 0.73588 0.0
H2140 H 0.67796 0.33771 0.74128 0.0
C2141 C 0.59654 0.30745 0.72436 0.0
C2142 C 0.6324 0.2953 0.73585 0.0
C2143 C 0.58013 0.30625 0.71271 0.0
C2144 C 0.70542 0.28142 0.75408 0.0
C2145 C 0.68884 0.28581 0.74684 0.0
C2146 C 0.66527 0.32585 0.74003 0.0
C2147 C 0.61449 0.31553 0.71837 0.0
C2148 C 0.63192 0.31344 0.72906 0.0
C2149 C 0.68384 0.3034 0.75362 0.0
C2150 C 0.66582 0.30743 0.74617 0.0
H2151 H 0.60055 0.32803 0.67574 0.0
H2152 H 0.62922 0.32991 0.69601 0.0
H2153 H 0.64849 0.34296 0.72641 0.0
H2154 H 0.72156 0.32251 0.78594 0.0
H2155 H 0.69235 0.33033 0.77311 0.0
C2156 C 0.98033 0.31665 0.92727 0.0
C2157 C 0.99022 0.3122 0.9116 0.0
C2158 C 0.98157 0.33627 0.93455 0.0
C2159 C 0.01119 0.387 0.93604 0.0
H2160 H 0.9663 0.40157 0.9543 0.0
C2161 C 0.98537 0.46093 0.96958 0.0
C2162 C 0.00118 0.46943 0.98243 0.0
C2163 C 0.98384 0.44233 0.95936 0.0
C2164 C 0.97892 0.39785 0.94906 0.0
H2165 H 0.00929 0.32491 0.89135 0.0
H2166 H 0.01134 0.35931 0.90399 0.0
H2167 H 0.96397 0.36817 0.93904 0.0
H2168 H 0.02774 0.46489 0.99464 0.0
H2169 H 0.02488 0.43257 0.97718 0.0
H2170 H 0.02609 0.41675 0.94586 0.0
C2171 C 0.00276 0.34756 0.91075 0.0
C2172 C 0.97765 0.3786 0.94053 0.0
C2173 C 0.00155 0.32785 0.90348 0.0
C2174 C 0.01539 0.45891 0.98481 0.0
C2175 C 0.01384 0.44037 0.97466 0.0
C2176 C 0.01246 0.40626 0.94453 0.0
C2177 C 0.99268 0.35199 0.92632 0.0
C2178 C 0.99383 0.37285 0.93419 0.0
C2179 C -0.00192 0.43184 0.96179 0.0
C2180 C 0.9964 0.41183 0.95142 0.0
H2181 H 0.97154 0.30495 0.93394 0.0
H2182 H 0.97394 0.3391 0.94678 0.0
H2183 H 0.02395 0.38306 0.93141 0.0
H2184 H 0.97421 0.46865 0.96735 0.0
H2185 H 0.97159 0.43624 0.94944 0.0
C2186 C 0.96818 0.80917 0.18809 0.0
C2187 C 0.97792 0.79583 0.19519 0.0
C2188 C 0.95275 0.81367 0.19708 0.0
C2189 C 0.92965 0.81085 0.24236 0.0
H2190 H 0.88421 0.81045 0.21101 0.0
C2191 C 0.85501 0.79675 0.2695 0.0
C2192 C 0.84181 0.80642 0.26201 0.0
C2193 C 0.87308 0.79934 0.26288 0.0
C2194 C 0.89688 0.811 0.21999 0.0
H2195 H 0.97924 0.77691 0.21742 0.0
H2196 H 0.95231 0.78451 0.23286 0.0
H2197 H 0.91301 0.80755 0.19615 0.0
H2198 H 0.83737 0.82725 0.24256 0.0
H2199 H 0.86901 0.83193 0.23107 0.0
H2200 H 0.9133 0.81371 0.26619 0.0
C2201 C 0.9567 0.79176 0.22054 0.0
C2202 C 0.9134 0.80932 0.21146 0.0
C2203 C 0.97206 0.78726 0.21157 0.0
C2204 C 0.84728 0.81955 0.24852 0.0
C2205 C 0.86534 0.82212 0.24186 0.0
C2206 C 0.91311 0.8125 0.25089 0.0
C2207 C 0.9468 0.80495 0.21338 0.0
C2208 C 0.92988 0.80882 0.22252 0.0
C2209 C 0.87827 0.81165 0.24861 0.0
C2210 C 0.89643 0.81222 0.23979 0.0
H2211 H 0.9724 0.81608 0.17554 0.0
H2212 H 0.94552 0.82401 0.1913 0.0
H2213 H 0.94221 0.81089 0.2513 0.0
H2214 H 0.85112 0.78651 0.27989 0.0
H2215 H 0.88262 0.79092 0.26827 0.0
C2216 C 0.48759 0.33554 0.10176 0.0
C2217 C 0.49973 0.3233 0.09621 0.0
C2218 C 0.48718 0.35242 0.09275 0.0
C2219 C 0.49907 0.39348 0.07964 0.0
H2220 H 0.50198 0.39224 0.02529 0.0
C2221 C 0.51865 0.46484 0.04427 0.0
C2222 C 0.50783 0.4662 0.02767 0.0
C2223 C 0.51685 0.44682 0.05172 0.0
C2224 C 0.50101 0.39278 0.04045 0.0
H2225 H 0.52084 0.31909 0.07674 0.0
H2226 H 0.5202 0.34847 0.0612 0.0
H2227 H 0.49943 0.36168 0.04012 0.0
H2228 H 0.4871 0.44941 0.0055 0.0
H2229 H 0.48402 0.41774 0.01855 0.0
H2230 H 0.50067 0.42452 0.08002 0.0
C2231 C 0.51085 0.34497 0.07235 0.0
C2232 C 0.49972 0.37533 0.04897 0.0
C2233 C 0.51132 0.3282 0.08139 0.0
C2234 C 0.49566 0.44888 0.01829 0.0
C2235 C 0.4939 0.43075 0.02576 0.0
C2236 C 0.50046 0.41091 0.07115 0.0
C2237 C 0.49882 0.35731 0.07794 0.0
C2238 C 0.49894 0.37553 0.0687 0.0
C2239 C 0.50421 0.42964 0.04277 0.0
C2240 C 0.50169 0.41081 0.05149 0.0
H2241 H 0.47844 0.33213 0.11308 0.0
H2242 H 0.47765 0.36156 0.09729 0.0
H2243 H 0.49864 0.39418 0.09487 0.0
H2244 H 0.52832 0.47781 0.05181 0.0
H2245 H 0.52531 0.44637 0.0646 0.0
C2246 C 0.96828 0.29469 0.35862 0.0
C2247 C 0.96718 0.28572 0.3754 0.0
C2248 C 0.95222 0.2991 0.35004 0.0
C2249 C 0.90185 0.30108 0.35841 0.0
H2250 H 0.89809 0.3005 0.30392 0.0
C2251 C 0.83363 0.31114 0.31877 0.0
C2252 C 0.82838 0.30015 0.30094 0.0
C2253 C 0.85163 0.3126 0.32776 0.0
C2254 C 0.89868 0.30045 0.31913 0.0
H2255 H 0.94857 0.27394 0.3963 0.0
H2256 H 0.92018 0.28003 0.38065 0.0
H2257 H 0.92642 0.29519 0.3196 0.0
H2258 H 0.83763 0.28213 0.27845 0.0
H2259 H 0.86821 0.28356 0.29434 0.0
H2260 H 0.87336 0.30447 0.35768 0.0
C2261 C 0.9335 0.28472 0.37446 0.0
C2262 C 0.91527 0.29781 0.32827 0.0
C2263 C 0.94973 0.28096 0.38337 0.0
C2264 C 0.84141 0.29091 0.29213 0.0
C2265 C 0.85911 0.29191 0.30125 0.0
C2266 C 0.88501 0.30308 0.34919 0.0
C2267 C 0.93449 0.29401 0.3577 0.0
C2268 C 0.91708 0.29786 0.34806 0.0
C2269 C 0.86451 0.30267 0.31927 0.0
C2270 C 0.88305 0.30249 0.32936 0.0
H2271 H 0.9817 0.29879 0.35239 0.0
H2272 H 0.95386 0.30672 0.33751 0.0
H2273 H 0.90274 0.30184 0.3737 0.0
H2274 H 0.82379 0.31844 0.32581 0.0
H2275 H 0.85531 0.32137 0.34142 0.0
C2276 C 0.97444 0.70061 0.6014 0.0
C2277 C 0.97911 0.71914 0.59449 0.0
C2278 C 0.97362 0.68324 0.58945 0.0
C2279 C 0.99477 0.66763 0.5466 0.0
H2280 H 0.96354 0.61594 0.55262 0.0
C2281 C 0.00415 0.59581 0.50435 0.0
C2282 C 0.00486 0.58026 0.51522 0.0
C2283 C -0.00161 0.61251 0.51211 0.0
C2284 C 0.97237 0.63029 0.55082 0.0
H2285 H 0.9848 0.73388 0.56927 0.0
H2286 H 0.98289 0.70354 0.54834 0.0
H2287 H 0.95663 0.64564 0.56911 0.0
H2288 H -0.00065 0.56939 0.54226 0.0
H2289 H 0.98969 0.59867 0.55603 0.0
H2290 H 0.01071 0.65229 0.52862 0.0
C2291 C 0.98046 0.70246 0.56311 0.0
C2292 C 0.96842 0.64729 0.56025 0.0
C2293 C 0.98144 0.71984 0.57508 0.0
C2294 C -0.00061 0.58143 0.5338 0.0
C2295 C 0.99354 0.59804 0.54154 0.0
C2296 C -0.00136 0.65067 0.53711 0.0
C2297 C 0.9773 0.68404 0.57032 0.0
C2298 C 0.97981 0.66613 0.55854 0.0
C2299 C 0.99306 0.6138 0.53081 0.0
C2300 C 0.98773 0.63181 0.53942 0.0
H2301 H 0.97256 0.69956 0.61628 0.0
H2302 H 0.97127 0.66933 0.59552 0.0
H2303 H 0.00407 0.68185 0.54522 0.0
H2304 H 0.00814 0.59511 0.4899 0.0
H2305 H -0.00199 0.62437 0.50347 0.0
C2306 C 0.57263 0.76859 0.84386 0.0
C2307 C 0.57621 0.76991 0.86363 0.0
C2308 C 0.58694 0.76676 0.83188 0.0
C2309 C 0.63797 0.7812 0.83174 0.0
H2310 H 0.63305 0.74252 0.78754 0.0
C2311 C 0.69576 0.78713 0.78006 0.0
C2312 C 0.70325 0.77023 0.77737 0.0
C2313 C 0.67847 0.78608 0.78799 0.0
C2314 C 0.63454 0.75341 0.79982 0.0
H2315 H 0.59742 0.76966 0.88624 0.0
H2316 H 0.62238 0.76683 0.86534 0.0
H2317 H 0.60618 0.74189 0.80725 0.0
H2318 H 0.69768 0.73863 0.77953 0.0
H2319 H 0.6673 0.73684 0.79328 0.0
H2320 H 0.66616 0.7928 0.82446 0.0
C2321 C 0.60851 0.76719 0.85916 0.0
C2322 C 0.61921 0.75309 0.81101 0.0
C2323 C 0.59419 0.76875 0.8711 0.0
C2324 C 0.69239 0.75196 0.78152 0.0
C2325 C 0.67496 0.75088 0.78932 0.0
C2326 C 0.6531 0.78172 0.82044 0.0
C2327 C 0.60511 0.76651 0.83949 0.0
C2328 C 0.62091 0.76687 0.82718 0.0
C2329 C 0.66819 0.76808 0.79322 0.0
C2330 C 0.65159 0.76778 0.80444 0.0
H2331 H 0.55889 0.76934 0.83766 0.0
H2332 H 0.58402 0.76632 0.81674 0.0
H2333 H 0.63957 0.7921 0.84404 0.0
H2334 H 0.70362 0.80143 0.77687 0.0
H2335 H 0.67341 0.7995 0.79063 0.0
C2336 C 0.43981 0.56597 0.68796 0.0
C2337 C 0.4199 0.56145 0.6876 0.0
C2338 C 0.4488 0.56626 0.67106 0.0
C2339 C 0.44588 0.53979 0.62717 0.0
H2340 H 0.47366 0.58517 0.60499 0.0
C2341 C 0.47666 0.52936 0.55519 0.0
C2342 C 0.49409 0.54184 0.55235 0.0
C2343 C 0.46698 0.53333 0.57102 0.0
C2344 C 0.46619 0.57229 0.61109 0.0
H2345 H 0.39385 0.55442 0.66921 0.0
H2346 H 0.40965 0.55442 0.63976 0.0
H2347 H 0.4586 0.59021 0.63445 0.0
H2348 H 0.51519 0.56824 0.56385 0.0
H2349 H 0.49889 0.57465 0.59198 0.0
H2350 H 0.45399 0.52169 0.60467 0.0
C2351 C 0.41819 0.55799 0.65315 0.0
C2352 C 0.45748 0.57526 0.62787 0.0
C2353 C 0.40921 0.55804 0.67001 0.0
C2354 C 0.50169 0.55841 0.56563 0.0
C2355 C 0.49222 0.56217 0.5817 0.0
C2356 C 0.45484 0.53678 0.61064 0.0
C2357 C 0.438 0.56177 0.65358 0.0
C2358 C 0.44723 0.559 0.63592 0.0
C2359 C 0.47477 0.5496 0.5847 0.0
C2360 C 0.46507 0.55298 0.60228 0.0
H2361 H 0.44844 0.56869 0.70128 0.0
H2362 H 0.46412 0.5691 0.67161 0.0
H2363 H 0.43813 0.52706 0.63332 0.0
H2364 H 0.47059 0.51634 0.54534 0.0
H2365 H 0.45342 0.52351 0.57253 0.0
C2366 C 0.80091 0.19109 0.96302 0.0
C2367 C 0.80044 0.20185 0.98063 0.0
C2368 C 0.80304 0.2008 0.94673 0.0
C2369 C 0.79434 0.24673 0.93007 0.0
H2370 H 0.81365 0.22708 0.88415 0.0
C2371 C 0.80072 0.26318 0.84682 0.0
C2372 C 0.78255 0.26647 0.84328 0.0
C2373 C 0.80599 0.25748 0.86421 0.0
C2374 C 0.80847 0.233 0.89693 0.0
H2375 H 0.80365 0.23119 0.99552 0.0
H2376 H 0.80848 0.24829 0.9674 0.0
H2377 H 0.81931 0.21348 0.91358 0.0
H2378 H 0.75565 0.26655 0.85497 0.0
H2379 H 0.76454 0.25612 0.88506 0.0
H2380 H 0.78384 0.26648 0.91362 0.0
C2381 C 0.80628 0.2323 0.96585 0.0
C2382 C 0.81149 0.225 0.91376 0.0
C2383 C 0.80367 0.22255 0.982 0.0
C2384 C 0.76981 0.26425 0.85742 0.0
C2385 C 0.77498 0.25839 0.87471 0.0
C2386 C 0.79154 0.25487 0.91336 0.0
C2387 C 0.80513 0.22149 0.94789 0.0
C2388 C 0.80409 0.23146 0.93046 0.0
C2389 C 0.7931 0.25484 0.87831 0.0
C2390 C 0.79811 0.24774 0.89647 0.0
H2391 H 0.79838 0.17507 0.96166 0.0
H2392 H 0.80194 0.19193 0.93317 0.0
H2393 H 0.78814 0.25195 0.9425 0.0
H2394 H 0.81081 0.26483 0.83608 0.0
H2395 H 0.82011 0.2551 0.86658 0.0
C2396 C 0.05445 0.46993 0.188 0.0
C2397 C 0.07333 0.46819 0.19041 0.0
C2398 C 0.04505 0.46691 0.16993 0.0
C2399 C 0.05699 0.47523 0.12267 0.0
H2400 H 0.00398 0.45102 0.10806 0.0
C2401 C 0.02327 0.48908 0.05246 0.0
C2402 C 0.00515 0.49279 0.05292 0.0
C2403 C 0.03075 0.48077 0.06727 0.0
C2404 C 0.01878 0.45797 0.11195 0.0
H2405 H 0.09657 0.46029 0.17591 0.0
H2406 H 0.08018 0.45528 0.14438 0.0
H2407 H 0.01833 0.44532 0.13825 0.0
H2408 H 0.98012 0.49003 0.06848 0.0
H2409 H 0.99341 0.47644 0.09496 0.0
H2410 H 0.0574 0.48901 0.0973 0.0
C2411 C 0.07275 0.45908 0.15648 0.0
C2412 C 0.02699 0.45457 0.12917 0.0
C2413 C 0.08209 0.46191 0.17455 0.0
C2414 C 0.99418 0.48728 0.06793 0.0
C2415 C 0.00179 0.47936 0.08301 0.0
C2416 C 0.04876 0.47888 0.10566 0.0
C2417 C 0.0544 0.46223 0.15396 0.0
C2418 C 0.04611 0.46342 0.13479 0.0
C2419 C 0.02037 0.47643 0.08308 0.0
C2420 C 0.02945 0.47059 0.10019 0.0
H2421 H 0.04725 0.47459 0.19995 0.0
H2422 H 0.03093 0.46953 0.16837 0.0
H2423 H 0.07168 0.48254 0.12681 0.0
H2424 H 0.03166 0.49263 0.04065 0.0
H2425 H 0.04484 0.47814 0.06648 0.0
C2426 C 0.73986 0.86613 0.46598 0.0
C2427 C 0.7482 0.85736 0.48009 0.0
C2428 C 0.73977 0.8591 0.44683 0.0
C2429 C 0.73481 0.83597 0.40733 0.0
H2430 H 0.78103 0.8217 0.39259 0.0
C2431 C 0.74149 0.7989 0.33247 0.0
C2432 C 0.7588 0.80467 0.32427 0.0
C2433 C 0.73967 0.80558 0.35129 0.0
C2434 C 0.76809 0.8258 0.39641 0.0
H2435 H 0.76194 0.8336 0.48527 0.0
H2436 H 0.76137 0.82111 0.45207 0.0
H2437 H 0.77815 0.83248 0.42561 0.0
H2438 H 0.78771 0.82222 0.32946 0.0
H2439 H 0.78446 0.83406 0.36223 0.0
H2440 H 0.72495 0.82972 0.37797 0.0
C2441 C 0.75538 0.83375 0.45568 0.0
C2442 C 0.76632 0.83171 0.41541 0.0
C2443 C 0.75556 0.84082 0.47474 0.0
C2444 C 0.7742 0.81741 0.33533 0.0
C2445 C 0.77236 0.82412 0.35416 0.0
C2446 C 0.73659 0.83006 0.38827 0.0
C2447 C 0.74796 0.84312 0.44145 0.0
C2448 C 0.74963 0.83679 0.42114 0.0
C2449 C 0.75509 0.81822 0.3624 0.0
C2450 C 0.75325 0.82487 0.38259 0.0
H2451 H 0.73414 0.87895 0.46965 0.0
H2452 H 0.734 0.86673 0.43624 0.0
H2453 H 0.72173 0.83968 0.41126 0.0
H2454 H 0.72932 0.78904 0.32443 0.0
H2455 H 0.72625 0.8005 0.35723 0.0
C2456 C 0.44439 0.53586 0.79492 0.0
C2457 C 0.42878 0.54424 0.79179 0.0
C2458 C 0.44985 0.53222 0.81309 0.0
C2459 C 0.44426 0.54379 0.86417 0.0
H2460 H 0.4578 0.49348 0.86775 0.0
C2461 C 0.45661 0.51568 0.93628 0.0
C2462 C 0.47299 0.50838 0.93867 0.0
C2463 C 0.45014 0.51906 0.91832 0.0
C2464 C 0.45418 0.50764 0.86699 0.0
H2465 H 0.40713 0.55614 0.80543 0.0
H2466 H 0.41658 0.54964 0.8372 0.0
H2467 H 0.44947 0.50264 0.83682 0.0
H2468 H 0.49501 0.49811 0.92413 0.0
H2469 H 0.48368 0.50388 0.89275 0.0
H2470 H 0.44898 0.54874 0.89439 0.0
C2471 C 0.4247 0.54602 0.8256 0.0
C2472 C 0.44947 0.51294 0.84925 0.0
C2473 C 0.41928 0.54975 0.80739 0.0
C2474 C 0.48228 0.50365 0.92267 0.0
C2475 C 0.47577 0.50695 0.9047 0.0
C2476 C 0.44893 0.53845 0.88194 0.0
C2477 C 0.43978 0.53677 0.82859 0.0
C2478 C 0.44459 0.53116 0.84758 0.0
C2479 C 0.45988 0.51512 0.90237 0.0
C2480 C 0.45406 0.52036 0.88355 0.0
H2481 H 0.45211 0.53157 0.78323 0.0
H2482 H 0.46182 0.52554 0.81492 0.0
H2483 H 0.44077 0.55801 0.86341 0.0
H2484 H 0.44919 0.51948 0.94839 0.0
H2485 H 0.43768 0.52505 0.91697 0.0
C2486 C 0.79769 0.18133 0.09824 0.0
C2487 C 0.80223 0.19114 0.08223 0.0
C2488 C 0.79651 0.19212 0.11555 0.0
C2489 C 0.78715 0.24023 0.13332 0.0
H2490 H 0.79478 0.22189 0.18214 0.0
C2491 C 0.77667 0.28059 0.20633 0.0
C2492 C 0.76652 0.26827 0.21857 0.0
C2493 C 0.78153 0.27242 0.18909 0.0
C2494 C 0.79254 0.22711 0.16856 0.0
H2495 H 0.811 0.21992 0.07218 0.0
H2496 H 0.8097 0.23878 0.10258 0.0
H2497 H 0.80553 0.20589 0.15416 0.0
H2498 H 0.75234 0.23802 0.22189 0.0
H2499 H 0.76101 0.2238 0.1919 0.0
H2500 H 0.77434 0.26162 0.14796 0.0
C2501 C 0.80629 0.22275 0.10162 0.0
C2502 C 0.79867 0.21796 0.15254 0.0
C2503 C 0.80721 0.21196 0.08425 0.0
C2504 C 0.76029 0.24786 0.21279 0.0
C2505 C 0.76535 0.23969 0.19572 0.0
C2506 C 0.78127 0.24956 0.14942 0.0
C2507 C 0.80012 0.21294 0.11726 0.0
C2508 C 0.79572 0.22414 0.13465 0.0
C2509 C 0.77647 0.25183 0.18401 0.0
C2510 C 0.78356 0.2428 0.16708 0.0
H2511 H 0.79371 0.1653 0.09712 0.0
H2512 H 0.79159 0.18402 0.12722 0.0
H2513 H 0.78432 0.24519 0.11976 0.0
H2514 H 0.78159 0.29639 0.21046 0.0
H2515 H 0.79005 0.28207 0.18021 0.0
C2516 C 0.05417 0.49057 0.29802 0.0
C2517 C 0.07067 0.48461 0.2931 0.0
C2518 C 0.0473 0.48773 0.31569 0.0
C2519 C 0.06408 0.48417 0.36405 0.0
H2520 H 0.0104 0.47179 0.37175 0.0
C2521 C 0.03834 0.48999 0.43883 0.0
C2522 C 0.02395 0.50033 0.44092 0.0
C2523 C 0.04267 0.48334 0.42082 0.0
C2524 C 0.02544 0.4753 0.36983 0.0
H2525 H 0.09254 0.47033 0.30259 0.0
H2526 H 0.08052 0.46543 0.33362 0.0
H2527 H 0.02062 0.46839 0.33972 0.0
H2528 H 0.00223 0.5111 0.42604 0.0
H2529 H 0.00998 0.49986 0.39454 0.0
H2530 H 0.06895 0.49184 0.394 0.0
C2531 C 0.07298 0.47239 0.32377 0.0
C2532 C 0.03129 0.47331 0.35151 0.0
C2533 C 0.07982 0.47513 0.306 0.0
C2534 C 0.01341 0.50318 0.42478 0.0
C2535 C 0.01778 0.49661 0.40675 0.0
C2536 C 0.05824 0.4862 0.38235 0.0
C2537 C 0.05681 0.47895 0.3289 0.0
C2538 C 0.05065 0.4782 0.34839 0.0
C2539 C 0.03273 0.48698 0.40455 0.0
C2540 C 0.03884 0.48225 0.38541 0.0
H2541 H 0.04675 0.49786 0.28838 0.0
H2542 H 0.03496 0.49319 0.31928 0.0
H2543 H 0.07909 0.48829 0.3621 0.0
H2544 H 0.04653 0.48741 0.45111 0.0
H2545 H 0.05404 0.47568 0.41962 0.0
C2546 C 0.73837 0.84538 0.58343 0.0
C2547 C 0.74431 0.86615 0.58607 0.0
C2548 C 0.73664 0.8345 0.599 0.0
C2549 C 0.73638 0.84037 0.65206 0.0
H2550 H 0.74974 0.78941 0.64701 0.0
C2551 C 0.76014 0.80216 0.71451 0.0
C2552 C 0.7497 0.7828 0.71577 0.0
C2553 C 0.75737 0.81168 0.6986 0.0
C2554 C 0.7458 0.80354 0.64854 0.0
H2555 H 0.75309 0.89181 0.6071 0.0
H2556 H 0.751 0.87298 0.63409 0.0
H2557 H 0.74895 0.80736 0.61941 0.0
H2558 H 0.72861 0.75797 0.70113 0.0
H2559 H 0.72438 0.77443 0.6728 0.0
H2560 H 0.73442 0.83687 0.68154 0.0
C2561 C 0.74695 0.86496 0.62013 0.0
C2562 C 0.74522 0.81384 0.6327 0.0
C2563 C 0.74829 0.87582 0.60459 0.0
C2564 C 0.73675 0.77295 0.70058 0.0
C2565 C 0.73433 0.78232 0.68441 0.0
C2566 C 0.73739 0.83027 0.66794 0.0
C2567 C 0.7412 0.84411 0.6176 0.0
C2568 C 0.74066 0.83252 0.63424 0.0
C2569 C 0.74453 0.80182 0.68338 0.0
C2570 C 0.74223 0.81185 0.66634 0.0
H2571 H 0.73506 0.83751 0.56931 0.0
H2572 H 0.73175 0.81855 0.59639 0.0
H2573 H 0.73232 0.85441 0.65383 0.0
H2574 H 0.77054 0.80995 0.72578 0.0
H2575 H 0.76558 0.82663 0.698 0.0
C2576 C 0.70193 0.46691 0.53818 0.0
C2577 C 0.7058 0.45275 0.52445 0.0
C2578 C 0.68843 0.47759 0.53407 0.0
C2579 C 0.64636 0.47482 0.50183 0.0
H2580 H 0.65199 0.52931 0.5236 0.0
C2581 C 0.58741 0.51536 0.48953 0.0
C2582 C 0.58167 0.52404 0.50618 0.0
C2583 C 0.60464 0.50971 0.48971 0.0
C2584 C 0.65026 0.5141 0.51744 0.0
H2585 H 0.69894 0.43902 0.49547 0.0
H2586 H 0.67553 0.45794 0.48815 0.0
H2587 H 0.67832 0.5132 0.52748 0.0
H2588 H 0.58981 0.53483 0.53573 0.0
H2589 H 0.62 0.52485 0.53611 0.0
H2590 H 0.61824 0.4756 0.49203 0.0
C2591 C 0.6827 0.46053 0.50223 0.0
C2592 C 0.66528 0.50485 0.51969 0.0
C2593 C 0.69614 0.44973 0.50639 0.0
C2594 C 0.59395 0.52815 0.52272 0.0
C2595 C 0.61124 0.5225 0.5229 0.0
C2596 C 0.63142 0.4841 0.49948 0.0
C2597 C 0.67857 0.47446 0.51608 0.0
C2598 C 0.66337 0.48498 0.5122 0.0
C2599 C 0.61645 0.51265 0.50654 0.0
C2600 C 0.6331 0.50373 0.5075 0.0
H2601 H 0.70911 0.46956 0.55226 0.0
H2602 H 0.68537 0.48793 0.54518 0.0
H2603 H 0.64426 0.45942 0.49615 0.0
H2604 H 0.57823 0.51217 0.47654 0.0
H2605 H 0.60845 0.50244 0.47682 0.0
C2606 C 0.20037 0.11029 0.48565 0.0
C2607 C 0.21567 0.1085 0.49779 0.0
C2608 C 0.18287 0.09671 0.48483 0.0
C2609 C 0.14911 0.06091 0.4805 0.0
H2610 H 0.12979 0.05299 0.52957 0.0
C2611 C 0.07253 0.01718 0.48895 0.0
C2612 C 0.06259 0.02809 0.50058 0.0
C2613 C 0.09226 0.02339 0.48876 0.0
C2614 C 0.13506 0.05492 0.51577 0.0
H2615 H 0.22474 0.09052 0.51803 0.0
H2616 H 0.19408 0.06694 0.51669 0.0
H2617 H 0.1627 0.07045 0.52776 0.0
H2618 H 0.06544 0.05369 0.5214 0.0
H2619 H 0.09976 0.06414 0.52147 0.0
H2620 H 0.12121 0.04597 0.46857 0.0
C2621 C 0.19568 0.07891 0.50786 0.0
C2622 C 0.15393 0.06478 0.51472 0.0
C2623 C 0.21325 0.09238 0.50856 0.0
C2624 C 0.07274 0.04483 0.51249 0.0
C2625 C 0.09241 0.05082 0.51253 0.0
C2626 C 0.13028 0.05085 0.48155 0.0
C2627 C 0.18022 0.08113 0.49624 0.0
C2628 C 0.16102 0.06833 0.4971 0.0
C2629 C 0.10235 0.04039 0.50044 0.0
C2630 C 0.12294 0.04823 0.49922 0.0
H2631 H 0.20176 0.12249 0.47712 0.0
H2632 H 0.17117 0.09892 0.47586 0.0
H2633 H 0.15425 0.06331 0.46673 0.0
H2634 H 0.06502 0.00426 0.47958 0.0
H2635 H 0.09961 0.01506 0.47934 0.0
C2636 C 0.17078 0.95309 0.7859 0.0
C2637 C 0.17775 0.96827 0.77477 0.0
C2638 C 0.17942 0.93711 0.78668 0.0
C2639 C 0.22398 0.92152 0.77763 0.0
H2640 H 0.19189 0.86838 0.77271 0.0
C2641 C 0.22919 0.83543 0.75755 0.0
C2642 C 0.24503 0.83453 0.76942 0.0
C2643 C 0.22153 0.85211 0.75918 0.0
C2644 C 0.20105 0.88313 0.77403 0.0
H2645 H 0.19942 0.97871 0.75592 0.0
H2646 H 0.21435 0.95092 0.75725 0.0
H2647 H 0.17746 0.89681 0.7741 0.0
H2648 H 0.2655 0.8508 0.79206 0.0
H2649 H 0.25211 0.88005 0.79483 0.0
H2650 H 0.24756 0.90777 0.77714 0.0
C2651 C 0.20234 0.95139 0.76551 0.0
C2652 C 0.19278 0.89942 0.77505 0.0
C2653 C 0.19367 0.96727 0.76465 0.0
C2654 C 0.25331 0.85099 0.78267 0.0
C2655 C 0.24567 0.86777 0.78424 0.0
C2656 C 0.23225 0.90521 0.77671 0.0
C2657 C 0.19528 0.93606 0.77645 0.0
C2658 C 0.20413 0.91881 0.77663 0.0
C2659 C 0.22953 0.86839 0.77268 0.0
C2660 C 0.22087 0.88581 0.77465 0.0
H2661 H 0.15857 0.95345 0.79389 0.0
H2662 H 0.17374 0.92561 0.79537 0.0
H2663 H 0.23312 0.93628 0.77904 0.0
H2664 H 0.22245 0.82311 0.7471 0.0
H2665 H 0.20932 0.85226 0.74981 0.0
C2666 C 0.31195 0.92186 0.00563 0.0
C2667 C 0.29819 0.93188 0.01159 0.0
C2668 C 0.33042 0.93237 0.0038 0.0
C2669 C 0.3666 0.95798 0.99286 0.0
H2670 H 0.38844 0.00258 0.03052 0.0
C2671 C 0.4442 0.00139 0.99273 0.0
C2672 C 0.45442 0.00699 0.0105 0.0
C2673 C 0.42455 0.99416 0.99145 0.0
C2674 C 0.38261 0.99008 0.01996 0.0
H2675 H 0.29271 0.96079 0.01959 0.0
H2676 H 0.32475 0.9792 0.01577 0.0
H2677 H 0.3554 0.98568 0.03091 0.0
H2678 H 0.45211 0.00945 0.04085 0.0
H2679 H 0.41808 0.9962 0.03867 0.0
H2680 H 0.39415 0.96158 0.98268 0.0
C2681 C 0.3215 0.96318 0.01309 0.0
C2682 C 0.36354 0.98056 0.01999 0.0
C2683 C 0.30311 0.95264 0.01521 0.0
C2684 C 0.44462 0.0054 0.02694 0.0
C2685 C 0.42505 -0.00208 0.02567 0.0
C2686 C 0.38575 0.96732 0.99299 0.0
C2687 C 0.33545 0.95316 0.00759 0.0
C2688 C 0.35535 0.9642 0.00661 0.0
C2689 C 0.41476 0.99214 0.00792 0.0
C2690 C 0.39406 0.98329 0.00673 0.0
H2691 H 0.30859 0.90584 0.00282 0.0
H2692 H 0.34085 0.9241 -0.00012 0.0
H2693 H 0.36068 0.94567 0.98211 0.0
H2694 H 0.45136 0.00265 0.9798 0.0
H2695 H 0.41705 0.99016 0.97754 0.0
C2696 C 0.84835 0.59095 0.76059 0.0
C2697 C 0.86174 0.59063 0.77548 0.0
C2698 C 0.83529 0.60271 0.76284 0.0
C2699 C 0.8284 0.64721 0.79082 0.0
H2700 H 0.77747 0.63011 0.76618 0.0
C2701 C 0.7783 0.69979 0.79185 0.0
C2702 C 0.7704 0.70163 0.77387 0.0
C2703 C 0.7865 0.68393 0.79457 0.0
C2704 C 0.79164 0.63506 0.77314 0.0
H2705 H 0.87172 0.60211 0.80457 0.0
H2706 H 0.84871 0.62265 0.80859 0.0
H2707 H 0.79787 0.60668 0.76668 0.0
H2708 H 0.76371 0.68784 0.74494 0.0
H2709 H 0.77816 0.66006 0.74965 0.0
H2710 H 0.82234 0.67567 0.79693 0.0
C2711 C 0.8485 0.61393 0.79508 0.0
C2712 C 0.80334 0.62169 0.7734 0.0
C2713 C 0.86165 0.60216 0.7928 0.0
C2714 C 0.76972 0.68672 0.75893 0.0
C2715 C 0.77793 0.6708 0.76166 0.0
C2716 C 0.81668 0.66053 0.79064 0.0
C2717 C 0.83523 0.6144 0.78007 0.0
C2718 C 0.82201 0.62776 0.78185 0.0
C2719 C 0.78693 0.66961 0.77937 0.0
C2720 C 0.79833 0.65471 0.78145 0.0
H2721 H 0.84805 0.58226 0.74704 0.0
H2722 H 0.82554 0.60301 0.75087 0.0
H2723 H 0.84277 0.65245 0.79722 0.0
H2724 H 0.77885 0.71104 0.80365 0.0
H2725 H 0.79306 0.68321 0.80844 0.0
C2726 C 0.8154 0.60155 0.01542 0.0
C2727 C 0.81227 0.61511 0.00297 0.0
C2728 C 0.82947 0.59111 0.01264 0.0
C2729 C 0.87382 0.5922 0.98935 0.0
H2730 H 0.86532 0.53829 0.00223 0.0
C2731 C 0.93102 0.54608 0.9841 0.0
C2732 C 0.93431 0.5376 0.00068 0.0
C2733 C 0.91513 0.55408 0.98168 0.0
C2734 C 0.86789 0.55333 -0.00143 0.0
H2735 H 0.82146 0.62828 0.97773 0.0
H2736 H 0.84601 0.60975 0.97269 0.0
H2737 H 0.83939 0.55519 0.00266 0.0
H2738 H 0.92344 0.53026 0.02744 0.0
H2739 H 0.89556 0.54387 0.02311 0.0
H2740 H 0.90243 0.59026 0.9854 0.0
C2741 C 0.83766 0.6074 0.98476 0.0
C2742 C 0.85307 0.56306 -0.00111 0.0
C2743 C 0.82355 0.61796 0.9876 0.0
C2744 C 0.92118 0.53665 0.0145 0.0
C2745 C 0.9052 0.54438 0.01198 0.0
C2746 C 0.88863 0.58237 0.98888 0.0
C2747 C 0.84076 0.59382 0.99726 0.0
C2748 C 0.85597 0.5828 0.99477 0.0
C2749 C 0.90214 0.55345 0.99569 0.0
C2750 C 0.88592 0.563 0.99393 0.0
H2751 H 0.80706 0.59907 0.02748 0.0
H2752 H 0.83171 0.58114 0.02281 0.0
H2753 H 0.87662 0.60743 0.98625 0.0
H2754 H 0.94102 0.54711 0.97329 0.0
H2755 H 0.91307 0.5609 0.96895 0.0
C2756 C 0.19351 0.07792 0.78796 0.0
C2757 C 0.1757 0.07328 0.79538 0.0
C2758 C 0.20363 0.0976 0.7888 0.0
C2759 C 0.2118 0.13953 0.77821 0.0
H2760 H 0.2181 0.17932 0.82167 0.0
C2761 C 0.23661 0.22262 0.77128 0.0
C2762 C 0.25164 0.23308 0.78422 0.0
C2763 C 0.22681 0.20356 0.77404 0.0
C2764 C 0.21645 0.16833 0.80945 0.0
H2765 H 0.1552 0.08558 0.81072 0.0
H2766 H 0.17298 0.11995 0.81225 0.0
H2767 H 0.20336 0.14464 0.82488 0.0
H2768 H 0.26771 0.23234 0.81058 0.0
H2769 H 0.2505 0.19902 0.81547 0.0
H2770 H 0.22482 0.16308 0.76274 0.0
C2771 C 0.17904 0.10834 0.80572 0.0
C2772 C 0.20797 0.14855 0.81126 0.0
C2773 C 0.16883 0.08865 0.80479 0.0
C2774 C 0.25621 0.22452 0.80036 0.0
C2775 C 0.24631 0.20552 0.8032 0.0
C2776 C 0.22009 0.15927 0.77635 0.0
C2777 C 0.19623 0.11304 0.79719 0.0
C2778 C 0.20564 0.13396 0.79566 0.0
C2779 C 0.23177 0.19471 0.78988 0.0
C2780 C 0.22251 0.17387 0.79193 0.0
H2781 H 0.19929 0.06647 0.78073 0.0
H2782 H 0.21702 0.10079 0.78239 0.0
H2783 H 0.20995 0.12865 0.76587 0.0
H2784 H 0.23277 0.22893 0.75876 0.0
H2785 H 0.21549 0.19564 0.76367 0.0
C2786 C 0.37441 0.97877 0.27946 0.0
C2787 C 0.36491 0.99335 0.27493 0.0
C2788 C 0.36437 0.95917 0.27961 0.0
C2789 C 0.33888 0.92074 0.28813 0.0
H2790 H 0.2975 0.89923 0.24966 0.0
C2791 C 0.29149 0.84198 0.28711 0.0
C2792 C 0.28603 0.83087 0.26932 0.0
C2793 C 0.30046 0.86209 0.28846 0.0
C2794 C 0.30911 0.90493 0.26041 0.0
H2795 H 0.33738 -0.00103 0.26755 0.0
H2796 H 0.31984 0.96499 0.26833 0.0
H2797 H 0.31486 0.93348 0.25061 0.0
H2798 H 0.2858 0.83211 0.23897 0.0
H2799 H 0.30184 0.86692 0.24131 0.0
H2800 H 0.33365 0.89188 0.29738 0.0
C2801 C 0.3351 0.9685 0.27125 0.0
C2802 C 0.31891 0.92469 0.26113 0.0
C2803 C 0.34515 0.98803 0.2709 0.0
C2804 C 0.28968 0.84028 0.25291 0.0
C2805 C 0.2988 0.8603 0.25425 0.0
C2806 C 0.32918 0.9009 0.2873 0.0
C2807 C 0.34459 0.95378 0.27542 0.0
C2808 C 0.33395 0.93284 0.27497 0.0
C2809 C 0.30431 0.87147 0.27204 0.0
C2810 C 0.31424 0.89273 0.27336 0.0
H2811 H 0.38965 0.9824 0.28257 0.0
H2812 H 0.37219 0.94817 0.28261 0.0
H2813 H 0.35022 0.92658 0.29914 0.0
H2814 H 0.28876 0.8352 0.30003 0.0
H2815 H 0.30423 0.87031 0.30238 0.0
C2816 C 0.51223 0.3498 0.61552 0.0
C2817 C 0.53016 0.34543 0.61469 0.0
C2818 C 0.50687 0.36298 0.60387 0.0
C2819 C 0.51908 0.38569 0.55987 0.0
H2820 H 0.49332 0.4254 0.57981 0.0
C2821 C 0.51823 0.45642 0.5251 0.0
C2822 C 0.5016 0.46353 0.52478 0.0
C2823 C 0.51945 0.44012 0.53459 0.0
C2824 C 0.50023 0.41419 0.57394 0.0
H2825 H 0.55665 0.35178 0.60126 0.0
H2826 H 0.54748 0.37489 0.58132 0.0
H2827 H 0.4999 0.40084 0.59978 0.0
H2828 H 0.47299 0.45872 0.53374 0.0
H2829 H 0.47519 0.43018 0.5504 0.0
H2830 H 0.51987 0.39935 0.53421 0.0
C2831 C 0.53736 0.36786 0.59062 0.0
C2832 C 0.50402 0.40012 0.58538 0.0
C2833 C 0.54268 0.35471 0.60219 0.0
C2834 C 0.48599 0.45358 0.53368 0.0
C2835 C 0.48728 0.43734 0.54334 0.0
C2836 C 0.51537 0.39977 0.54847 0.0
C2837 C 0.51934 0.37204 0.59117 0.0
C2838 C 0.51382 0.38595 0.5786 0.0
C2839 C 0.50412 0.4306 0.54409 0.0
C2840 C 0.50622 0.4144 0.55549 0.0
H2841 H 0.50224 0.34284 0.62497 0.0
H2842 H 0.49285 0.3658 0.60458 0.0
H2843 H 0.52626 0.3747 0.55404 0.0
H2844 H 0.53051 0.4637 0.51836 0.0
H2845 H 0.53269 0.43543 0.53505 0.0
C2846 C 0.44352 0.76032 0.31699 0.0
C2847 C 0.44766 0.75347 0.33426 0.0
C2848 C 0.42527 0.75464 0.308 0.0
C2849 C 0.37625 0.7406 0.31932 0.0
H2850 H 0.36643 0.73351 0.26466 0.0
C2851 C 0.31079 0.73467 0.25829 0.0
C2852 C 0.30434 0.75117 0.2657 0.0
C2853 C 0.32692 0.73025 0.26685 0.0
C2854 C 0.36883 0.73511 0.27994 0.0
H2855 H 0.43612 0.73464 0.35529 0.0
H2856 H 0.404 0.72481 0.33958 0.0
H2857 H 0.39775 0.73312 0.27871 0.0
H2858 H 0.30981 0.77617 0.28756 0.0
H2859 H 0.33761 0.76834 0.30261 0.0
H2860 H 0.34752 0.74322 0.32054 0.0
C2861 C 0.41495 0.73462 0.33306 0.0
C2862 C 0.38681 0.73505 0.28798 0.0
C2863 C 0.43333 0.74018 0.34201 0.0
C2864 C 0.31417 0.76307 0.28182 0.0
C2865 C 0.3301 0.75857 0.29045 0.0
C2866 C 0.35831 0.74073 0.31128 0.0
C2867 C 0.41068 0.74206 0.31612 0.0
C2868 C 0.39087 0.73843 0.30773 0.0
C2869 C 0.33674 0.74219 0.28302 0.0
C2870 C 0.3546 0.73863 0.29151 0.0
H2871 H 0.45428 0.77051 0.3106 0.0
H2872 H 0.42241 0.76086 0.29511 0.0
H2873 H 0.37895 0.74335 0.33457 0.0
H2874 H 0.30345 0.72529 0.24584 0.0
H2875 H 0.33172 0.71753 0.26082 0.0
C2876 C 0.01993 0.71708 0.1392 0.0
C2877 C 0.01847 0.73282 0.12879 0.0
C2878 C 0.02001 0.69845 0.12992 0.0
C2879 C 0.02722 0.67436 0.08246 0.0
H2880 H 0.00681 0.6259 0.10422 0.0
C2881 C 0.00813 0.59598 0.04128 0.0
C2882 C 0.01707 0.58208 0.0485 0.0
C2883 C 0.00951 0.61441 0.05158 0.0
C2884 C 0.0127 0.63937 0.09812 0.0
H2885 H 0.01499 0.74122 0.10057 0.0
H2886 H 0.01396 0.70855 0.08437 0.0
H2887 H 0.00542 0.65778 0.12101 0.0
H2888 H 0.03441 0.57644 0.07212 0.0
H2889 H 0.03626 0.6087 0.09056 0.0
H2890 H 0.03352 0.65565 0.0591 0.0
C2891 C 0.01595 0.71067 0.09968 0.0
C2892 C 0.01199 0.65767 0.10773 0.0
C2893 C 0.01631 0.72939 0.10895 0.0
C2894 C 0.02747 0.58696 0.06623 0.0
C2895 C 0.02845 0.60528 0.07677 0.0
C2896 C 0.02754 0.65606 0.0727 0.0
C2897 C 0.01823 0.69503 0.11 0.0
C2898 C 0.01915 0.67545 0.09998 0.0
C2899 C 0.0195 0.61913 0.06947 0.0
C2900 C 0.02024 0.63845 0.08043 0.0
H2901 H 0.02181 0.71937 0.15452 0.0
H2902 H 0.02206 0.68696 0.13842 0.0
H2903 H 0.03338 0.68764 0.07622 0.0
H2904 H 0.00012 0.59265 0.02759 0.0
H2905 H 0.00246 0.62487 0.04572 0.0
C2906 C 0.05194 0.27155 0.83266 0.0
C2907 C 0.04065 0.25222 0.83185 0.0
C2908 C 0.06857 0.2752 0.82321 0.0
C2909 C 0.09461 0.25198 0.78679 0.0
H2910 H 0.13841 0.28973 0.81254 0.0
C2911 C 0.17247 0.25485 0.77009 0.0
C2912 C 0.1842 0.27374 0.76946 0.0
C2913 C 0.15396 0.25289 0.77554 0.0
C2914 C 0.12624 0.2793 0.80508 0.0
H2915 H 0.03786 0.22158 0.8204 0.0
H2916 H 0.06699 0.22778 0.80457 0.0
H2917 H 0.10799 0.28538 0.82628 0.0
H2918 H 0.18573 0.30531 0.7734 0.0
H2919 H 0.15353 0.30186 0.78311 0.0
H2920 H 0.11326 0.24541 0.76599 0.0
C2921 C 0.06287 0.24028 0.81199 0.0
C2922 C 0.10875 0.27686 0.8129 0.0
C2923 C 0.04618 0.23669 0.82122 0.0
C2924 C 0.17698 0.29057 0.7738 0.0
C2925 C 0.15861 0.28862 0.77944 0.0
C2926 C 0.11218 0.25425 0.7791 0.0
C2927 C 0.07438 0.25955 0.81295 0.0
C2928 C 0.09271 0.26305 0.80394 0.0
C2929 C 0.14702 0.26978 0.78065 0.0
C2930 C 0.12818 0.26786 0.78824 0.0
H2931 H 0.04798 0.28384 0.84064 0.0
H2932 H 0.07689 0.29029 0.82401 0.0
H2933 H 0.08252 0.24149 0.77928 0.0
H2934 H 0.17774 0.24165 0.76684 0.0
H2935 H 0.14535 0.23819 0.77646 0.0
C2936 C 0.54402 0.72457 0.95194 0.0
C2937 C 0.53031 0.73175 0.94192 0.0
C2938 C 0.53879 0.70755 0.96098 0.0
C2939 C 0.52465 0.676 0.98589 0.0
H2940 H 0.48568 0.6323 0.96052 0.0
C2941 C 0.50901 0.59978 0.01415 0.0
C2942 C 0.50553 0.58317 0.00046 0.0
C2943 C 0.50906 0.61857 0.00882 0.0
C2944 C 0.4967 0.6443 0.96775 0.0
H2945 H 0.50026 0.72707 0.93396 0.0
H2946 H 0.49097 0.6976 0.95033 0.0
H2947 H 0.49197 0.66398 0.94783 0.0
H2948 H 0.4992 0.57317 0.97048 0.0
H2949 H 0.50012 0.6058 0.96111 0.0
H2950 H 0.53039 0.65597 0.00497 0.0
C2951 C 0.50586 0.70485 0.95079 0.0
C2952 C 0.5001 0.66263 0.96063 0.0
C2953 C 0.51115 0.72179 0.94148 0.0
C2954 C 0.50181 0.58565 0.98141 0.0
C2955 C 0.50218 0.60443 0.97604 0.0
C2956 C 0.52148 0.65759 0.99282 0.0
C2957 C 0.51965 0.69739 0.96051 0.0
C2958 C 0.51444 0.67861 0.96935 0.0
C2959 C 0.50595 0.62119 0.98964 0.0
C2960 C 0.50776 0.64135 0.98359 0.0
H2961 H 0.55892 0.73182 0.95242 0.0
H2962 H 0.5499 0.70208 0.96788 0.0
H2963 H 0.53548 0.68808 0.99329 0.0
H2964 H 0.51172 0.59829 0.02898 0.0
H2965 H 0.51166 0.63104 0.01975 0.0
C2966 C 0.06684 0.78236 0.65159 0.0
C2967 C 0.05014 0.77343 0.6595 0.0
C2968 C 0.0845 0.78046 0.65894 0.0
C2969 C 0.10884 0.76699 0.70109 0.0
H2970 H 0.14533 0.75691 0.66578 0.0
C2971 C 0.17658 0.74476 0.72621 0.0
C2972 C 0.19346 0.75568 0.72014 0.0
C2973 C 0.15906 0.74556 0.71763 0.0
C2974 C 0.13531 0.75981 0.6758 0.0
H2975 H 0.039 0.75591 0.68166 0.0
H2976 H 0.06968 0.75242 0.69428 0.0
H2977 H 0.11494 0.76224 0.65383 0.0
H2978 H 0.20541 0.77503 0.69969 0.0
H2979 H 0.17475 0.77635 0.68458 0.0
H2980 H 0.12915 0.76444 0.72304 0.0
C2981 C 0.0692 0.7611 0.68255 0.0
C2982 C 0.11794 0.76297 0.66898 0.0
C2983 C 0.05157 0.76306 0.67526 0.0
C2984 C 0.19258 0.76644 0.70461 0.0
C2985 C 0.17504 0.76718 0.69596 0.0
C2986 C 0.12613 0.76373 0.70788 0.0
C2987 C 0.08586 0.76956 0.67433 0.0
C2988 C 0.1045 0.7666 0.68156 0.0
C2989 C 0.1581 0.75723 0.70277 0.0
C2990 C 0.13955 0.76008 0.69532 0.0
H2991 H 0.06627 0.79052 0.63949 0.0
H2992 H 0.09709 0.78747 0.6525 0.0
H2993 H 0.09897 0.77007 0.71119 0.0
H2994 H 0.17686 0.7363 0.73814 0.0
H2995 H 0.14624 0.73745 0.72295 0.0
C2996 C 0.0312 0.34211 0.46238 0.0
C2997 C 0.03624 0.33698 0.44412 0.0
C2998 C 0.03728 0.36147 0.47114 0.0
C2999 C 0.05611 0.40242 0.4897 0.0
H3000 H 0.04509 0.44118 0.45801 0.0
C3001 C 0.05149 0.48046 0.52151 0.0
C3002 C 0.03509 0.48594 0.51486 0.0
C3003 C 0.05701 0.46434 0.51209 0.0
C3004 C 0.04836 0.43056 0.46702 0.0
H3005 H 0.05245 0.34781 0.42109 0.0
H3006 H 0.06307 0.38191 0.43646 0.0
H3007 H 0.04584 0.4082 0.44357 0.0
H3008 H 0.01162 0.47907 0.49329 0.0
H3009 H 0.02112 0.451 0.47693 0.0
H3010 H 0.0573 0.42431 0.51328 0.0
C3011 C 0.05432 0.37088 0.44391 0.0
C3012 C 0.04902 0.41174 0.45873 0.0
C3013 C 0.04831 0.35138 0.43516 0.0
C3014 C 0.02444 0.47526 0.49858 0.0
C3015 C 0.02998 0.45927 0.48914 0.0
C3016 C 0.05541 0.42122 0.49799 0.0
C3017 C 0.04851 0.3762 0.46184 0.0
C3018 C 0.05214 0.39722 0.47007 0.0
C3019 C 0.04623 0.45349 0.49587 0.0
C3020 C 0.05076 0.43521 0.48681 0.0
H3021 H 0.02201 0.33132 0.4697 0.0
H3022 H 0.03232 0.36509 0.48482 0.0
H3023 H 0.05883 0.39162 0.49876 0.0
H3024 H 0.05995 0.48853 0.53403 0.0
H3025 H 0.06963 0.46028 0.51756 0.0
C3026 C 0.43679 0.28667 0.17432 0.0
C3027 C 0.44202 0.26846 0.17442 0.0
C3028 C 0.42283 0.29105 0.18574 0.0
C3029 C 0.39742 0.27545 0.22771 0.0
H3030 H 0.35968 0.30099 0.2076 0.0
C3031 C 0.32569 0.27307 0.25952 0.0
C3032 C 0.31846 0.29018 0.26026 0.0
C3033 C 0.34228 0.27239 0.25067 0.0
C3034 C 0.37028 0.29411 0.21353 0.0
H3035 H 0.43652 0.2405 0.18643 0.0
H3036 H 0.41206 0.24792 0.20592 0.0
H3037 H 0.38557 0.29604 0.18865 0.0
H3038 H 0.32338 0.32024 0.25275 0.0
H3039 H 0.35234 0.31899 0.23728 0.0
H3040 H 0.38181 0.27305 0.25237 0.0
C3041 C 0.41897 0.25905 0.1974 0.0
C3042 C 0.38514 0.29128 0.20267 0.0
C3043 C 0.43293 0.25472 0.18608 0.0
C3044 C 0.32855 0.30682 0.25246 0.0
C3045 C 0.34507 0.30607 0.24346 0.0
C3046 C 0.38252 0.27818 0.2385 0.0
C3047 C 0.41378 0.27729 0.19746 0.0
C3048 C 0.39874 0.28164 0.20951 0.0
C3049 C 0.35196 0.28875 0.24224 0.0
C3050 C 0.36864 0.2873 0.23144 0.0
H3051 H 0.44358 0.29759 0.16554 0.0
H3052 H 0.4193 0.30531 0.18556 0.0
H3053 H 0.40787 0.26837 0.23361 0.0
H3054 H 0.31832 0.25999 0.2654 0.0
H3055 H 0.34713 0.25876 0.24983 0.0
C3056 C 0.60364 0.4932 0.34062 0.0
C3057 C 0.59749 0.50476 0.3276 0.0
C3058 C 0.59312 0.48811 0.35607 0.0
C3059 C 0.54586 0.48431 0.37426 0.0
H3060 H 0.57334 0.49969 0.4237 0.0
C3061 C 0.52926 0.51349 0.4527 0.0
C3062 C 0.51344 0.49894 0.45628 0.0
C3063 C 0.53998 0.51017 0.43756 0.0
C3064 C 0.5655 0.49515 0.40998 0.0
H3065 H 0.57513 0.51924 0.32 0.0
H3066 H 0.55674 0.51014 0.34668 0.0
H3067 H 0.59081 0.50047 0.39527 0.0
H3068 H 0.49627 0.46953 0.44674 0.0
H3069 H 0.51483 0.46389 0.41976 0.0
H3070 H 0.52052 0.4797 0.38895 0.0
C3071 C 0.56967 0.50506 0.34505 0.0
C3072 C 0.5755 0.49544 0.39374 0.0
C3073 C 0.58028 0.5104 0.32985 0.0
C3074 C 0.50846 0.48097 0.44433 0.0
C3075 C 0.51905 0.47775 0.42893 0.0
C3076 C 0.53587 0.48379 0.39052 0.0
C3077 C 0.57612 0.49417 0.35851 0.0
C3078 C 0.56574 0.49061 0.37569 0.0
C3079 C 0.53492 0.49235 0.42542 0.0
C3080 C 0.54557 0.48979 0.40851 0.0
H3081 H 0.61686 0.48867 0.33924 0.0
H3082 H 0.59839 0.47966 0.36622 0.0
H3083 H 0.538 0.48037 0.36052 0.0
H3084 H 0.53319 0.52767 0.46139 0.0
H3085 H 0.5519 0.52185 0.43499 0.0
C3086 C 0.23245 0.87369 0.08049 0.0
C3087 C 0.23167 0.86562 0.06151 0.0
C3088 C 0.23096 0.86139 0.09493 0.0
C3089 C 0.23938 0.81317 0.10435 0.0
H3090 H 0.2158 0.82347 0.15066 0.0
C3091 C 0.2261 0.78174 0.18157 0.0
C3092 C 0.24455 0.77997 0.18656 0.0
C3093 C 0.22214 0.78943 0.16486 0.0
C3094 C 0.2222 0.82017 0.13771 0.0
H3095 H 0.22752 0.83824 0.04269 0.0
H3096 H 0.22458 0.81683 0.06783 0.0
H3097 H 0.21206 0.84233 0.12427 0.0
H3098 H 0.27316 0.78403 0.17788 0.0
H3099 H 0.26638 0.79775 0.14879 0.0
H3100 H 0.2495 0.791 0.11776 0.0
C3101 C 0.22683 0.83268 0.0716 0.0
C3102 C 0.22026 0.83116 0.12269 0.0
C3103 C 0.22843 0.84495 0.0572 0.0
C3104 C 0.25881 0.78521 0.17427 0.0
C3105 C 0.25488 0.79298 0.15759 0.0
C3106 C 0.24128 0.80215 0.11934 0.0
C3107 C 0.22854 0.84079 0.09064 0.0
C3108 C 0.22909 0.828 0.10597 0.0
C3109 C 0.23659 0.79554 0.1529 0.0
C3110 C 0.23299 0.80577 0.1363 0.0
H3111 H 0.23495 0.88955 0.08425 0.0
H3112 H 0.23251 0.86811 0.10948 0.0
H3113 H 0.24654 0.8105 0.09174 0.0
H3114 H 0.21483 0.7777 0.19083 0.0
H3115 H 0.20785 0.79094 0.16147 0.0
C3116 C 0.96615 0.57046 0.84258 0.0
C3117 C 0.94735 0.57111 0.83761 0.0
C3118 C 0.97395 0.57607 0.86116 0.0
C3119 C 0.95966 0.57428 0.90844 0.0
H3120 H 0.01239 0.60057 0.92219 0.0
C3121 C 0.99541 0.56502 0.97947 0.0
C3122 C 0.01289 0.55994 0.97796 0.0
C3123 C 0.98752 0.57315 0.96474 0.0
C3124 C 0.99763 0.59321 0.91861 0.0
H3125 H 0.92219 0.57897 0.84792 0.0
H3126 H 0.93578 0.58835 0.88079 0.0
H3127 H -0.0021 0.60301 0.89102 0.0
H3128 H 0.03665 0.56052 0.96085 0.0
H3129 H 0.02278 0.57417 0.93477 0.0
H3130 H 0.95961 0.56325 0.93533 0.0
C3131 C 0.94447 0.58365 0.87017 0.0
C3132 C 0.98933 0.59472 0.90082 0.0
C3133 C 0.93673 0.57833 0.85141 0.0
C3134 C 0.02306 0.56428 0.96218 0.0
C3135 C 0.01513 0.57223 0.94733 0.0
C3136 C 0.96799 0.57261 0.92615 0.0
C3137 C 0.96305 0.58222 0.87524 0.0
C3138 C 0.97048 0.58464 0.89532 0.0
C3139 C 0.997 0.57622 0.9482 0.0
C3140 C 0.9873 0.58141 0.93115 0.0
H3141 H 0.97471 0.56509 0.83219 0.0
H3142 H 0.98822 0.57457 0.86469 0.0
H3143 H 0.94515 0.5662 0.90451 0.0
H3144 H 0.98776 0.56254 0.99194 0.0
H3145 H 0.97378 0.57653 0.96611 0.0
C3146 C 0.25689 0.20072 0.56151 0.0
C3147 C 0.27066 0.18995 0.55745 0.0
C3148 C 0.25676 0.2104 0.57968 0.0
C3149 C 0.2751 0.20984 0.62948 0.0
H3150 H 0.25687 0.25786 0.63827 0.0
C3151 C 0.2811 0.25461 0.70316 0.0
C3152 C 0.2644 0.25955 0.70899 0.0
C3153 C 0.28206 0.24679 0.68449 0.0
C3154 C 0.26189 0.24439 0.63599 0.0
H3155 H 0.29571 0.18182 0.56893 0.0
H3156 H 0.29605 0.1994 0.60027 0.0
H3157 H 0.25911 0.24388 0.60586 0.0
H3158 H 0.2357 0.26046 0.69967 0.0
H3159 H 0.23754 0.24706 0.66688 0.0
H3160 H 0.2783 0.21072 0.65966 0.0
C3161 C 0.28485 0.19977 0.58973 0.0
C3162 C 0.26313 0.2363 0.61742 0.0
C3163 C 0.28478 0.18982 0.57168 0.0
C3164 C 0.24874 0.25672 0.69565 0.0
C3165 C 0.24982 0.24917 0.67687 0.0
C3166 C 0.27414 0.21809 0.64799 0.0
C3167 C 0.27058 0.2098 0.59414 0.0
C3168 C 0.2697 0.21886 0.61389 0.0
C3169 C 0.26644 0.244 0.67116 0.0
C3170 C 0.26747 0.2354 0.65144 0.0
H3171 H 0.24573 0.20099 0.55088 0.0
H3172 H 0.2454 0.21773 0.58251 0.0
H3173 H 0.27977 0.19615 0.62744 0.0
H3174 H 0.29342 0.25658 0.71307 0.0
H3175 H 0.29509 0.24304 0.68043 0.0
C3176 C 0.59533 0.52116 0.22649 0.0
C3177 C 0.61328 0.51671 0.22749 0.0
C3178 C 0.58688 0.52399 0.2092 0.0
C3179 C 0.59908 0.53807 0.16218 0.0
H3180 H 0.54523 0.51803 0.14858 0.0
C3181 C 0.56398 0.53991 0.08771 0.0
C3182 C 0.54563 0.54326 0.08647 0.0
C3183 C 0.57264 0.53792 0.10519 0.0
C3184 C 0.56025 0.52399 0.15229 0.0
H3185 H 0.63612 0.51107 0.21092 0.0
H3186 H 0.62126 0.51584 0.18074 0.0
H3187 H 0.55914 0.51077 0.1782 0.0
H3188 H 0.52226 0.54808 0.10252 0.0
H3189 H 0.53751 0.545 0.13314 0.0
H3190 H 0.60018 0.55131 0.13627 0.0
C3191 C 0.61387 0.51743 0.1934 0.0
C3192 C 0.56822 0.51976 0.16924 0.0
C3193 C 0.6223 0.51453 0.21069 0.0
C3194 C 0.53641 0.54546 0.10309 0.0
C3195 C 0.54508 0.54351 0.12058 0.0
C3196 C 0.59109 0.54234 0.14524 0.0
C3197 C 0.59619 0.52248 0.19252 0.0
C3198 C 0.58773 0.52672 0.17437 0.0
C3199 C 0.56312 0.53927 0.12178 0.0
C3200 C 0.57158 0.53533 0.14008 0.0
H3201 H 0.58798 0.52296 0.23914 0.0
H3202 H 0.57332 0.528 0.20903 0.0
H3203 H 0.6141 0.54394 0.16588 0.0
H3204 H 0.57136 0.53806 0.07508 0.0
H3205 H 0.58647 0.53451 0.10557 0.0
C3206 C 0.24216 0.8295 0.9611 0.0
C3207 C 0.23461 0.84639 0.96189 0.0
C3208 C 0.24028 0.81685 0.94435 0.0
C3209 C 0.21598 0.80367 0.89623 0.0
H3210 H 0.26449 0.79393 0.88309 0.0
C3211 C 0.22735 0.76305 0.82396 0.0
C3212 C 0.24201 0.77437 0.81487 0.0
C3213 C 0.22519 0.76831 0.84306 0.0
C3214 C 0.25081 0.79637 0.88665 0.0
H3215 H 0.21815 0.86265 0.94613 0.0
H3216 H 0.21513 0.84064 0.91656 0.0
H3217 H 0.26163 0.80971 0.9145 0.0
H3218 H 0.26616 0.79959 0.81852 0.0
H3219 H 0.26271 0.80842 0.85184 0.0
H3220 H 0.20546 0.79096 0.86792 0.0
C3221 C 0.22236 0.83711 0.92901 0.0
C3222 C 0.24912 0.80527 0.90466 0.0
C3223 C 0.22417 0.84978 0.94588 0.0
C3224 C 0.25484 0.79052 0.82524 0.0
C3225 C 0.25287 0.79556 0.84431 0.0
C3226 C 0.21765 0.79459 0.87818 0.0
C3227 C 0.23089 0.82086 0.92797 0.0
C3228 C 0.2318 0.8094 0.90952 0.0
C3229 C 0.23789 0.7847 0.85333 0.0
C3230 C 0.23523 0.79134 0.87313 0.0
H3231 H 0.25002 0.8263 0.97331 0.0
H3232 H 0.24669 0.80423 0.94405 0.0
H3233 H 0.20244 0.80655 0.89966 0.0
H3234 H 0.21724 0.75058 0.81619 0.0
H3235 H 0.21356 0.75971 0.84977 0.0
C3236 C 0.96588 0.56904 0.73802 0.0
C3237 C 0.94665 0.56959 0.73587 0.0
C3238 C 0.97709 0.57114 0.7227 0.0
C3239 C 0.9908 0.55836 0.68522 0.0
H3240 H 0.98408 0.59049 0.6451 0.0
C3241 C 0.00262 0.53591 0.60824 0.0
C3242 C 0.01042 0.55061 0.59698 0.0
C3243 C -0.00155 0.54112 0.62666 0.0
C3244 C 0.98639 0.58166 0.6563 0.0
H3245 H 0.92444 0.57398 0.71627 0.0
H3246 H 0.94385 0.57725 0.6895 0.0
H3247 H 0.97056 0.59618 0.67522 0.0
H3248 H 0.0204 0.58222 0.59609 0.0
H3249 H 0.01312 0.59139 0.62848 0.0
H3250 H 0.00639 0.54366 0.66625 0.0
C3251 C 0.95037 0.57543 0.70306 0.0
C3252 C 0.97848 0.58478 0.67347 0.0
C3253 C 0.93917 0.5734 0.71839 0.0
C3254 C 0.01436 0.57062 0.60453 0.0
C3255 C 0.01013 0.57585 0.623 0.0
C3256 C -0.00128 0.55527 0.66809 0.0
C3257 C 0.9693 0.57379 0.70491 0.0
C3258 C 0.98014 0.57278 0.68791 0.0
C3259 C 0.00199 0.56115 0.63419 0.0
C3260 C 0.99611 0.56647 0.65325 0.0
H3261 H 0.97215 0.56635 0.75137 0.0
H3262 H 0.99173 0.57015 0.72465 0.0
H3263 H 0.99223 0.54874 0.69597 0.0
H3264 H -0.00059 0.52038 0.60271 0.0
H3265 H 0.99189 0.52945 0.6348 0.0
C3266 C 0.25352 0.19717 0.44382 0.0
C3267 C 0.26836 0.19277 0.45481 0.0
C3268 C 0.25713 0.20663 0.42759 0.0
C3269 C 0.29055 0.2418 0.40621 0.0
H3270 H 0.26289 0.21678 0.35867 0.0
C3271 C 0.29389 0.2818 0.33794 0.0
C3272 C 0.27665 0.2787 0.3269 0.0
C3273 C 0.29552 0.27043 0.35289 0.0
C3274 C 0.27061 0.2241 0.37185 0.0
H3275 H 0.29868 0.19508 0.45757 0.0
H3276 H 0.30508 0.21243 0.4293 0.0
H3277 H 0.26072 0.19868 0.38635 0.0
H3278 H 0.24749 0.26174 0.32306 0.0
H3279 H 0.25007 0.2425 0.34915 0.0
H3280 H 0.29954 0.2677 0.39212 0.0
C3281 C 0.29065 0.20818 0.43324 0.0
C3282 C 0.26947 0.21363 0.38762 0.0
C3283 C 0.28697 0.19824 0.44932 0.0
C3284 C 0.26105 0.26429 0.33117 0.0
C3285 C 0.2626 0.25311 0.34608 0.0
C3286 C 0.29144 0.25247 0.39047 0.0
C3287 C 0.27569 0.21229 0.42219 0.0
C3288 C 0.27911 0.22252 0.40503 0.0
C3289 C 0.27987 0.25588 0.35711 0.0
C3290 C 0.28105 0.24392 0.37321 0.0
H3291 H 0.23903 0.19307 0.44763 0.0
H3292 H 0.24539 0.20975 0.41933 0.0
H3293 H 0.29803 0.24897 0.41955 0.0
H3294 H 0.30614 0.29283 0.3349 0.0
H3295 H 0.30907 0.27291 0.36099 0.0
C3296 C 0.32835 0.59865 0.54048 0.0
C3297 C 0.32383 0.61245 0.529 0.0
C3298 C 0.33777 0.58448 0.53338 0.0
C3299 C 0.36894 0.57476 0.49649 0.0
H3300 H 0.35838 0.52253 0.5136 0.0
C3301 C 0.41676 0.52154 0.4794 0.0
C3302 C 0.42419 0.51555 0.49586 0.0
C3303 C 0.40071 0.52941 0.47985 0.0
C3304 C 0.36139 0.53701 0.50861 0.0
H3305 H 0.32547 0.62211 0.501 0.0
H3306 H 0.34187 0.59719 0.4885 0.0
H3307 H 0.33759 0.54481 0.52114 0.0
H3308 H 0.41997 0.51149 0.52522 0.0
H3309 H 0.39186 0.52508 0.52601 0.0
H3310 H 0.39301 0.56716 0.4844 0.0
C3311 C 0.33828 0.59749 0.50308 0.0
C3312 C 0.34958 0.54981 0.51299 0.0
C3313 C 0.3289 0.61176 0.51022 0.0
C3314 C 0.41449 0.51603 0.51234 0.0
C3315 C 0.39837 0.52374 0.51276 0.0
C3316 C 0.38067 0.56191 0.492 0.0
C3317 C 0.34282 0.58368 0.51459 0.0
C3318 C 0.35359 0.56907 0.50752 0.0
C3319 C 0.39177 0.53123 0.49674 0.0
C3320 C 0.37734 0.54315 0.49851 0.0
H3321 H 0.32469 0.5988 0.55503 0.0
H3322 H 0.34142 0.57439 0.54279 0.0
H3323 H 0.37255 0.58954 0.49219 0.0
H3324 H 0.42399 0.52128 0.46649 0.0
H3325 H 0.39579 0.53489 0.46726 0.0
C3326 C 0.81511 0.95308 0.544 0.0
C3327 C 0.80948 0.933 0.53656 0.0
C3328 C 0.83338 0.96412 0.54202 0.0
C3329 C 0.87626 0.97887 0.54709 0.0
H3330 H 0.90106 0.97269 0.50069 0.0
C3331 C 0.95683 0.0017 0.5454 0.0
C3332 C 0.96432 0.01203 0.53056 0.0
C3333 C 0.93747 0.99335 0.54502 0.0
C3334 C 0.89425 0.97472 0.51365 0.0
H3335 H 0.81863 0.90889 0.52097 0.0
H3336 H 0.85051 0.92811 0.5177 0.0
H3337 H 0.86773 0.95594 0.50183 0.0
H3338 H 0.95752 0.02169 0.50359 0.0
H3339 H 0.9234 0.00673 0.50275 0.0
H3340 H 0.90274 0.99747 0.55898 0.0
C3341 C 0.84072 0.93537 0.52489 0.0
C3342 C 0.87525 0.965 0.51438 0.0
C3343 C 0.82248 0.9243 0.52692 0.0
C3344 C 0.9521 0.01364 0.51513 0.0
C3345 C 0.93262 0.00512 0.51468 0.0
C3346 C 0.89523 0.98848 0.54639 0.0
C3347 C 0.84641 0.95537 0.5325 0.0
C3348 C 0.86613 0.96676 0.53119 0.0
C3349 C 0.92512 0.99507 0.52975 0.0
C3350 C 0.90452 0.98626 0.52978 0.0
H3351 H 0.80542 0.96028 0.55142 0.0
H3352 H 0.8373 0.97956 0.5479 0.0
H3353 H 0.8697 0.98043 0.56028 0.0
H3354 H 0.96594 0.0001 0.55742 0.0
H3355 H 0.93217 0.98537 0.55666 0.0
C3356 C 0.8427 0.09735 0.26032 0.0
C3357 C 0.84282 0.09049 0.24111 0.0
C3358 C 0.83266 0.11168 0.26579 0.0
C3359 C 0.79566 0.13624 0.24719 0.0
H3360 H 0.81584 0.17588 0.28978 0.0
C3361 C 0.75802 0.19896 0.26756 0.0
C3362 C 0.76969 0.21784 0.27337 0.0
C3363 C 0.76567 0.1822 0.2661 0.0
C3364 C 0.81005 0.16505 0.27773 0.0
H3365 H 0.8329 0.09356 0.21255 0.0
H3366 H 0.81623 0.11902 0.2219 0.0
H3367 H 0.83204 0.14968 0.28172 0.0
H3368 H 0.79853 0.23389 0.2825 0.0
H3369 H 0.81194 0.20506 0.27923 0.0
H3370 H 0.77445 0.15232 0.24235 0.0
C3371 C 0.82319 0.11292 0.23291 0.0
C3372 C 0.81922 0.14976 0.27327 0.0
C3373 C 0.83293 0.0984 0.2275 0.0
C3374 C 0.78907 0.21954 0.27815 0.0
C3375 C 0.79677 0.20289 0.27636 0.0
C3376 C 0.7867 0.15171 0.25142 0.0
C3377 C 0.82276 0.11969 0.25215 0.0
C3378 C 0.81232 0.13528 0.25776 0.0
C3379 C 0.78526 0.18397 0.27007 0.0
C3380 C 0.79389 0.16652 0.26661 0.0
H3381 H 0.8501 0.09142 0.27115 0.0
H3382 H 0.83249 0.11625 0.28075 0.0
H3383 H 0.78959 0.12514 0.23542 0.0
H3384 H 0.743 0.19715 0.2639 0.0
H3385 H 0.75622 0.16788 0.26163 0.0
C3386 C 0.71585 0.14462 0.02446 0.0
C3387 C 0.7292 0.13327 0.02076 0.0
C3388 C 0.69662 0.13542 0.02417 0.0
C3389 C 0.66496 0.08575 0.02657 0.0
H3390 H 0.62556 0.1119 0.01177 0.0
C3391 C 0.58559 0.04722 0.01038 0.0
C3392 C 0.57315 0.05569 0.02109 0.0
C3393 C 0.6047 0.05679 0.01092 0.0
C3394 C 0.63649 0.10455 0.01603 0.0
H3395 H 0.73296 0.10368 0.01283 0.0
H3396 H 0.6994 0.08774 0.01124 0.0
H3397 H 0.65879 0.12842 0.01014 0.0
H3398 H 0.57079 0.08074 0.04067 0.0
H3399 H 0.60431 0.09783 0.04113 0.0
H3400 H 0.64243 0.06153 0.03163 0.0
C3401 C 0.70371 0.10359 0.01524 0.0
C3402 C 0.65551 0.11399 0.0152 0.0
C3403 C 0.72295 0.11273 0.01595 0.0
C3404 C 0.58014 0.07387 0.03238 0.0
C3405 C 0.5992 0.08367 0.03257 0.0
C3406 C 0.64596 0.07617 0.02701 0.0
C3407 C 0.69032 0.11474 0.01978 0.0
C3408 C 0.67002 0.10471 0.02046 0.0
C3409 C 0.61158 0.07517 0.02184 0.0
C3410 C 0.63162 0.08552 0.02178 0.0
H3411 H 0.72035 0.16049 0.02836 0.0
H3412 H 0.68682 0.14449 0.02799 0.0
H3413 H 0.67567 0.07831 0.03122 0.0
H3414 H 0.58055 0.03316 0.00163 0.0
H3415 H 0.61406 0.05004 0.00252 0.0
C3416 C 0.1575 0.45385 0.27062 0.0
C3417 C 0.15638 0.45774 0.25166 0.0
C3418 C 0.17224 0.44598 0.27764 0.0
C3419 C 0.21993 0.43888 0.26668 0.0
H3420 H 0.20823 0.39539 0.29728 0.0
C3421 C 0.25992 0.37705 0.26785 0.0
C3422 C 0.26166 0.36846 0.28465 0.0
C3423 C 0.25073 0.39256 0.26733 0.0
C3424 C 0.21186 0.40782 0.2891 0.0
H3425 H 0.16958 0.45607 0.2251 0.0
H3426 H 0.19482 0.44196 0.23714 0.0
H3427 H 0.18395 0.41298 0.28951 0.0
H3428 H 0.25661 0.37023 0.31443 0.0
H3429 H 0.24039 0.39731 0.31348 0.0
H3430 H 0.24755 0.43296 0.26547 0.0
C3431 C 0.18471 0.44545 0.24678 0.0
C3432 C 0.19792 0.41789 0.28463 0.0
C3433 C 0.17008 0.45334 0.23981 0.0
C3434 C 0.25541 0.37661 0.30128 0.0
C3435 C 0.24605 0.392 0.30072 0.0
C3436 C 0.23381 0.42873 0.27105 0.0
C3437 C 0.1861 0.44184 0.26581 0.0
C3438 C 0.20162 0.43312 0.27286 0.0
C3439 C 0.243 0.3996 0.28357 0.0
C3440 C 0.22974 0.41274 0.28186 0.0
H3441 H 0.14721 0.45721 0.28011 0.0
H3442 H 0.17296 0.44343 0.29239 0.0
H3443 H 0.22337 0.45088 0.25797 0.0
H3444 H 0.26462 0.37101 0.25483 0.0
H3445 H 0.24849 0.39803 0.25387 0.0
C3446 C 0.20159 0.44843 0.06021 0.0
C3447 C 0.20592 0.43603 0.04513 0.0
C3448 C 0.18684 0.45804 0.05793 0.0
C3449 C 0.1439 0.45695 0.02643 0.0
H3450 H 0.1486 0.50955 0.05265 0.0
C3451 C 0.09128 0.50494 0.0106 0.0
C3452 C 0.08362 0.51305 0.02636 0.0
C3453 C 0.1067 0.49632 0.013 0.0
C3454 C 0.14707 0.49482 0.04535 0.0
H3455 H 0.19831 0.42414 0.01574 0.0
H3456 H 0.17295 0.44142 0.0115 0.0
H3457 H 0.17457 0.49295 0.05615 0.0
H3458 H 0.08634 0.51905 0.05695 0.0
H3459 H 0.1137 0.50428 0.06116 0.0
H3460 H 0.11655 0.45913 0.01529 0.0
C3461 C 0.1806 0.44334 0.02529 0.0
C3462 C 0.1619 0.48523 0.04739 0.0
C3463 C 0.19522 0.43349 0.02767 0.0
C3464 C 0.09205 0.51297 0.04456 0.0
C3465 C 0.10768 0.50455 0.04696 0.0
C3466 C 0.1292 0.46665 0.0242 0.0
C3467 C 0.17618 0.45573 0.04041 0.0
C3468 C 0.1605 0.46612 0.03801 0.0
C3469 C 0.11492 0.49583 0.0312 0.0
C3470 C 0.13062 0.48566 0.03366 0.0
H3471 H 0.20948 0.45057 0.07391 0.0
H3472 H 0.18366 0.46709 0.07002 0.0
H3473 H 0.14208 0.44212 0.01929 0.0
H3474 H 0.08505 0.50477 0.9964 0.0
H3475 H 0.11214 0.48991 0.00061 0.0
C3476 C 0.8336 0.98083 0.22138 0.0
C3477 C 0.85108 0.98769 0.23216 0.0
C3478 C 0.82331 0.96124 0.22132 0.0
C3479 C 0.82861 0.91204 0.23384 0.0
H3480 H 0.77407 0.90133 0.2363 0.0
C3481 C 0.78525 0.84177 0.26047 0.0
C3482 C 0.76859 0.83167 0.24953 0.0
C3483 C 0.79518 0.86024 0.25629 0.0
C3484 C 0.78927 0.90409 0.23539 0.0
H3485 H 0.87135 0.97939 0.25147 0.0
H3486 H 0.8533 0.94569 0.25177 0.0
H3487 H 0.7917 0.93482 0.23263 0.0
H3488 H 0.74903 0.83297 0.22585 0.0
H3489 H 0.76623 0.86564 0.21881 0.0
H3490 H 0.8262 0.88145 0.23738 0.0
C3491 C 0.8477 0.95514 0.24292 0.0
C3492 C 0.79937 0.92324 0.23322 0.0
C3493 C 0.85802 0.97458 0.24286 0.0
C3494 C 0.76188 0.84046 0.23448 0.0
C3495 C 0.77166 0.85911 0.23047 0.0
C3496 C 0.81854 0.89299 0.23623 0.0
C3497 C 0.83024 0.94818 0.23214 0.0
C3498 C 0.81922 0.92752 0.23274 0.0
C3499 C 0.78845 0.86911 0.2413 0.0
C3500 C 0.79883 0.88892 0.2373 0.0
H3501 H 0.82791 0.99055 0.21293 0.0
H3502 H 0.81 0.95631 0.2127 0.0
H3503 H 0.84381 0.91466 0.23305 0.0
H3504 H 0.79059 0.83545 0.27233 0.0
H3505 H 0.80795 0.86777 0.26502 0.0
C3506 C 0.62539 0.07595 0.75804 0.0
C3507 C 0.63416 0.06122 0.76365 0.0
C3508 C 0.63546 0.09577 0.76009 0.0
C3509 C 0.67599 0.13189 0.78481 0.0
H3510 H 0.68187 0.15397 0.73703 0.0
C3511 C 0.73289 0.20288 0.77775 0.0
C3512 C 0.72852 0.21578 0.76518 0.0
C3513 C 0.72068 0.18433 0.77828 0.0
C3514 C 0.68013 0.14829 0.75059 0.0
H3515 H 0.65973 0.05563 0.7769 0.0
H3516 H 0.67709 0.09033 0.781 0.0
H3517 H 0.66035 0.12189 0.73808 0.0
H3518 H 0.70785 0.21961 0.74358 0.0
H3519 H 0.6863 0.18778 0.74499 0.0
H3520 H 0.69545 0.15836 0.79749 0.0
C3521 C 0.66258 0.08654 0.77482 0.0
C3522 C 0.66781 0.12988 0.75114 0.0
C3523 C 0.65269 0.06673 0.77239 0.0
C3524 C 0.71175 0.20984 0.7532 0.0
C3525 C 0.6994 0.19151 0.75398 0.0
C3526 C 0.68806 0.15052 0.78436 0.0
C3527 C 0.65424 0.10112 0.7682 0.0
C3528 C 0.6658 0.12145 0.76819 0.0
C3529 C 0.70369 0.17847 0.7665 0.0
C3530 C 0.69046 0.15887 0.76718 0.0
H3531 H 0.61114 0.07205 0.75119 0.0
H3532 H 0.62878 0.10684 0.75493 0.0
H3533 H 0.67462 0.12562 0.79813 0.0
H3534 H 0.74577 0.20708 0.78709 0.0
H3535 H 0.72468 0.17455 0.78783 0.0
loop_
_geom_bond_atom_site_label_1
_geom_bond_atom_site_label_2
_geom_bond_distance
_geom_bond_site_symmetry_2
_ccdc_geom_bond_type
O0 Cd1 2.223 . S
O0 C8 1.315 . S
Cd1 O0 2.223 . S
Cd1 O4 2.297 . S
Cd1 O5 2.439 . S
Cd1 O11 2.195 1_455 S
Cd2 O3 2.240 . S
Cd2 O10 2.223 1_455 S
Cd2 O12 2.297 . S
Cd2 O13 2.439 . S
O3 Cd2 2.240 . S
O3 C8 1.279 . S
O4 Cd1 2.297 . S
O4 C6 1.247 . S
O5 Cd1 2.439 . S
O5 C6 1.208 . S
C6 O4 1.247 . S
C6 O5 1.208 . S
C7 O12 1.247 . S
C7 O13 1.208 . S
C8 O0 1.315 . S
C8 O3 1.279 . S
C9 O10 1.315 . S
C9 O11 1.323 . S
O10 Cd2 2.223 1_655 S
O10 C9 1.315 . S
O11 Cd1 2.195 1_655 S
O11 C9 1.323 . S
O12 Cd2 2.297 . S
O12 C7 1.247 . S
O13 Cd2 2.439 . S
O13 C7 1.208 . S
O14 Cd15 2.234 . S
O14 C22 1.315 . S
Cd15 O14 2.234 . S
Cd15 O18 2.273 1_455 S
Cd15 O19 2.415 1_455 S
Cd15 O25 2.260 . S
Cd16 O17 2.240 1_455 S
Cd16 O24 2.223 . S
Cd16 O26 2.297 . S
Cd16 O27 2.439 . S
O17 Cd16 2.240 1_655 S
O17 C22 1.279 1_655 S
O18 Cd15 2.273 1_655 S
O18 C20 1.247 . S
O19 Cd15 2.415 1_655 S
O19 C20 1.208 . S
C20 O18 1.247 . S
C20 O19 1.208 . S
C21 O26 1.247 . S
C21 O27 1.208 . S
C22 O14 1.315 . S
C22 O17 1.279 1_455 S
C23 O24 1.315 . S
C23 O25 1.279 . S
O24 Cd16 2.223 . S
O24 C23 1.315 . S
O25 Cd15 2.260 . S
O25 C23 1.279 . S
O26 Cd16 2.297 . S
O26 C21 1.247 . S
O27 Cd16 2.439 . S
O27 C21 1.208 . S
O28 Cd29 2.223 . S
O28 C36 1.315 . S
Cd29 O28 2.223 . S
Cd29 O32 2.297 . S
Cd29 O33 2.439 . S
Cd29 O39 2.240 . S
Cd30 O31 2.240 . S
Cd30 O38 2.223 . S
Cd30 O40 2.297 . S
Cd30 O41 2.439 . S
O31 Cd30 2.240 . S
O31 C36 1.279 . S
O32 Cd29 2.297 . S
O32 C34 1.247 . S
O33 Cd29 2.439 . S
O33 C34 1.208 . S
C34 O32 1.247 . S
C34 O33 1.208 . S
C35 O40 1.247 . S
C35 O41 1.208 . S
C36 O28 1.315 . S
C36 O31 1.279 . S
C37 O38 1.315 . S
C37 O39 1.279 . S
O38 Cd30 2.223 . S
O38 C37 1.315 . S
O39 Cd29 2.240 . S
O39 C37 1.279 . S
O40 Cd30 2.297 . S
O40 C35 1.247 . S
O41 Cd30 2.439 . S
O41 C35 1.208 . S
O42 Cd43 2.223 . S
O42 C50 1.315 . S
Cd43 O42 2.223 . S
Cd43 O46 2.297 . S
Cd43 O47 2.439 . S
Cd43 O53 2.240 . S
Cd44 O45 2.240 . S
Cd44 O52 2.223 . S
Cd44 O54 2.297 . S
Cd44 O55 2.439 . S
O45 Cd44 2.240 . S
O45 C50 1.279 . S
O46 Cd43 2.297 . S
O46 C48 1.247 . S
O47 Cd43 2.439 . S
O47 C48 1.208 . S
C48 O46 1.247 . S
C48 O47 1.208 . S
C49 O54 1.247 . S
C49 O55 1.208 . S
C50 O42 1.315 . S
C50 O45 1.279 . S
C51 O52 1.315 . S
C51 O53 1.279 . S
O52 Cd44 2.223 . S
O52 C51 1.315 . S
O53 Cd43 2.240 . S
O53 C51 1.279 . S
O54 Cd44 2.297 . S
O54 C49 1.247 . S
O55 Cd44 2.439 . S
O55 C49 1.208 . S
O56 Cd57 2.223 . S
O56 C64 1.315 . S
Cd57 O56 2.223 . S
Cd57 O60 2.297 1_455 S
Cd57 O61 2.439 1_455 S
Cd57 O67 2.240 . S
Cd58 O59 2.240 . S
Cd58 O66 2.223 . S
Cd58 O68 2.297 . S
Cd58 O69 2.439 . S
O59 Cd58 2.240 . S
O59 C64 1.279 . S
O60 Cd57 2.297 1_655 S
O60 C62 1.247 . S
O61 Cd57 2.439 1_655 S
O61 C62 1.208 . S
C62 O60 1.247 . S
C62 O61 1.208 . S
C63 O68 1.247 . S
C63 O69 1.208 . S
C64 O56 1.315 . S
C64 O59 1.279 . S
C65 O66 1.315 . S
C65 O67 1.279 . S
O66 Cd58 2.223 . S
O66 C65 1.315 . S
O67 Cd57 2.240 . S
O67 C65 1.279 . S
O68 Cd58 2.297 . S
O68 C63 1.247 . S
O69 Cd58 2.439 . S
O69 C63 1.208 . S
O70 Cd71 2.223 . S
O70 C78 1.315 . S
Cd71 O70 2.223 . S
Cd71 O74 2.297 . S
Cd71 O75 2.439 . S
Cd71 O81 2.240 . S
Cd72 O73 2.240 . S
Cd72 O80 2.223 . S
Cd72 O82 2.297 . S
Cd72 O83 2.439 . S
O73 Cd72 2.240 . S
O73 C78 1.279 . S
O74 Cd71 2.297 . S
O74 C76 1.247 . S
O75 Cd71 2.439 . S
O75 C76 1.208 . S
C76 O74 1.247 . S
C76 O75 1.208 . S
C77 O82 1.247 . S
C77 O83 1.208 . S
C78 O70 1.315 . S
C78 O73 1.279 . S
C79 O80 1.315 . S
C79 O81 1.279 . S
O80 Cd72 2.223 . S
O80 C79 1.315 . S
O81 Cd71 2.240 . S
O81 C79 1.279 . S
O82 Cd72 2.297 . S
O82 C77 1.247 . S
O83 Cd72 2.439 . S
O83 C77 1.208 . S
O84 Cd85 2.223 . S
O84 C92 1.315 . S
Cd85 O84 2.223 . S
Cd85 O88 2.297 . S
Cd85 O89 2.439 . S
Cd85 O95 2.240 . S
Cd86 O87 2.240 . S
Cd86 O94 2.223 . S
Cd86 O96 2.297 . S
Cd86 O97 2.439 . S
O87 Cd86 2.240 . S
O87 C92 1.279 . S
O88 Cd85 2.297 . S
O88 C90 1.247 . S
O89 Cd85 2.439 . S
O89 C90 1.208 . S
C90 O88 1.247 . S
C90 O89 1.208 . S
C91 O96 1.247 . S
C91 O97 1.208 . S
C92 O84 1.315 . S
C92 O87 1.279 . S
C93 O94 1.315 . S
C93 O95 1.279 . S
O94 Cd86 2.223 . S
O94 C93 1.315 . S
O95 Cd85 2.240 . S
O95 C93 1.279 . S
O96 Cd86 2.297 . S
O96 C91 1.247 . S
O97 Cd86 2.439 . S
O97 C91 1.208 . S
O98 Cd99 2.223 1_655 S
O98 C106 1.315 1_655 S
Cd99 O98 2.223 1_455 S
Cd99 O102 2.297 . S
Cd99 O103 2.439 . S
Cd99 O109 2.240 1_455 S
Cd100 O101 2.240 1_655 S
Cd100 O108 2.223 . S
Cd100 O110 2.297 . S
Cd100 O111 2.439 1_655 S
O101 Cd100 2.240 1_455 S
O101 C106 1.279 . S
O102 Cd99 2.297 . S
O102 C104 1.247 . S
O103 Cd99 2.439 . S
O103 C104 1.208 . S
C104 O102 1.247 . S
C104 O103 1.208 . S
C105 O110 1.247 1_455 S
C105 O111 1.208 . S
C106 O98 1.315 1_455 S
C106 O101 1.279 . S
C107 O108 1.315 . S
C107 O109 1.279 . S
O108 Cd100 2.223 . S
O108 C107 1.315 . S
O109 Cd99 2.240 1_655 S
O109 C107 1.279 . S
O110 Cd100 2.297 . S
O110 C105 1.247 1_655 S
O111 Cd100 2.439 1_455 S
O111 C105 1.208 . S
O112 Cd113 2.223 . S
O112 C120 1.315 . S
Cd113 O112 2.223 . S
Cd113 O116 2.297 . S
Cd113 O117 2.439 . S
Cd113 O123 2.240 . S
Cd114 O115 2.240 . S
Cd114 O122 2.223 1_545 S
Cd114 O124 2.297 . S
Cd114 O125 2.439 . S
O115 Cd114 2.240 . S
O115 C120 1.279 . S
O116 Cd113 2.297 . S
O116 C118 1.247 . S
O117 Cd113 2.439 . S
O117 C118 1.208 . S
C118 O116 1.247 . S
C118 O117 1.208 . S
C119 O124 1.247 . S
C119 O125 1.208 . S
C120 O112 1.315 . S
C120 O115 1.279 . S
C121 O122 1.328 . S
C121 O123 1.234 1_565 S
O122 Cd114 2.223 1_565 S
O122 C121 1.328 . S
O123 Cd113 2.240 . S
O123 C121 1.234 1_545 S
O124 Cd114 2.297 . S
O124 C119 1.247 . S
O125 Cd114 2.439 . S
O125 C119 1.208 . S
O126 Cd127 2.223 . S
O126 C134 1.315 . S
Cd127 O126 2.223 . S
Cd127 O130 2.297 . S
Cd127 O131 2.439 . S
Cd127 O137 2.240 . S
Cd128 O129 2.240 . S
Cd128 O136 2.223 . S
Cd128 O138 2.297 . S
Cd128 O139 2.439 . S
O129 Cd128 2.240 . S
O129 C134 1.279 . S
O130 Cd127 2.297 . S
O130 C132 1.247 . S
O131 Cd127 2.439 . S
O131 C132 1.208 . S
C132 O130 1.247 . S
C132 O131 1.208 . S
C133 O138 1.247 . S
C133 O139 1.208 . S
C134 O126 1.315 . S
C134 O129 1.279 . S
C135 O136 1.315 . S
C135 O137 1.279 . S
O136 Cd128 2.223 . S
O136 C135 1.315 . S
O137 Cd127 2.240 . S
O137 C135 1.279 . S
O138 Cd128 2.297 . S
O138 C133 1.247 . S
O139 Cd128 2.439 . S
O139 C133 1.208 . S
O140 Cd141 2.223 1_545 S
O140 C148 1.315 1_545 S
Cd141 O140 2.223 1_565 S
Cd141 O144 2.297 . S
Cd141 O145 2.439 . S
Cd141 O151 2.240 1_565 S
Cd142 O143 2.240 1_545 S
Cd142 O150 2.223 . S
Cd142 O152 2.297 . S
Cd142 O153 2.439 1_545 S
O143 Cd142 2.240 1_565 S
O143 C148 1.279 . S
O144 Cd141 2.297 . S
O144 C146 1.247 . S
O145 Cd141 2.439 . S
O145 C146 1.208 . S
C146 O144 1.247 . S
C146 O145 1.208 . S
C147 O152 1.247 . S
C147 O153 1.208 1_545 S
C148 O140 1.315 1_565 S
C148 O143 1.279 . S
C149 O150 1.315 . S
C149 O151 1.279 . S
O150 Cd142 2.223 . S
O150 C149 1.315 . S
O151 Cd141 2.240 1_545 S
O151 C149 1.279 . S
O152 Cd142 2.297 . S
O152 C147 1.247 . S
O153 Cd142 2.439 1_565 S
O153 C147 1.208 1_565 S
O154 Cd155 2.223 . S
O154 C162 1.315 . S
Cd155 O154 2.223 . S
Cd155 O158 2.297 . S
Cd155 O159 2.439 . S
Cd155 O165 2.240 . S
Cd156 O157 2.240 . S
Cd156 O164 2.223 . S
Cd156 O166 2.297 1_554 S
Cd156 O167 2.439 1_554 S
O157 Cd156 2.240 . S
O157 C162 1.279 . S
O158 Cd155 2.297 . S
O158 C160 1.247 . S
O159 Cd155 2.439 . S
O159 C160 1.208 . S
C160 O158 1.247 . S
C160 O159 1.208 . S
C161 O166 1.247 . S
C161 O167 1.208 . S
C162 O154 1.315 . S
C162 O157 1.279 . S
C163 O164 1.315 . S
C163 O165 1.279 . S
O164 Cd156 2.223 . S
O164 C163 1.315 . S
O165 Cd155 2.240 . S
O165 C163 1.279 . S
O166 Cd156 2.297 1_556 S
O166 C161 1.247 . S
O167 Cd156 2.439 1_556 S
O167 C161 1.208 . S
O168 Cd169 2.223 . S
O168 C176 1.315 . S
Cd169 O168 2.223 . S
Cd169 O172 2.297 . S
Cd169 O173 2.439 . S
Cd169 O179 2.240 . S
Cd170 O171 2.240 . S
Cd170 O178 2.223 . S
Cd170 O180 2.297 1_554 S
Cd170 O181 2.439 1_554 S
O171 Cd170 2.240 . S
O171 C176 1.279 . S
O172 Cd169 2.297 . S
O172 C174 1.247 . S
O173 Cd169 2.439 . S
O173 C174 1.208 . S
C174 O172 1.247 . S
C174 O173 1.208 . S
C175 O180 1.247 . S
C175 O181 1.208 . S
C176 O168 1.315 . S
C176 O171 1.279 . S
C177 O178 1.315 . S
C177 O179 1.279 . S
O178 Cd170 2.223 . S
O178 C177 1.315 . S
O179 Cd169 2.240 . S
O179 C177 1.279 . S
O180 Cd170 2.297 1_556 S
O180 C175 1.247 . S
O181 Cd170 2.439 1_556 S
O181 C175 1.208 . S
O182 Cd183 2.223 . S
O182 C190 1.315 . S
Cd183 O182 2.223 . S
Cd183 O186 2.297 . S
Cd183 O187 2.439 1_554 S
Cd183 O193 2.240 1_554 S
Cd184 O185 2.240 1_556 S
Cd184 O192 2.223 1_556 S
Cd184 O194 2.297 . S
Cd184 O195 2.439 . S
O185 Cd184 2.240 1_554 S
O185 C190 1.279 . S
O186 Cd183 2.297 . S
O186 C188 1.247 . S
O187 Cd183 2.439 1_556 S
O187 C188 1.208 1_556 S
C188 O186 1.247 . S
C188 O187 1.208 1_554 S
C189 O194 1.247 . S
C189 O195 1.208 . S
C190 O182 1.315 . S
C190 O185 1.279 . S
C191 O192 1.315 . S
C191 O193 1.278 1_554 S
O192 Cd184 2.223 1_554 S
O192 C191 1.315 . S
O193 Cd183 2.240 1_556 S
O193 C191 1.278 1_556 S
O194 Cd184 2.297 . S
O194 C189 1.247 . S
O195 Cd184 2.439 . S
O195 C189 1.208 . S
O196 Cd197 2.223 . S
O196 C204 1.315 . S
Cd197 O196 2.223 . S
Cd197 O200 2.297 . S
Cd197 O201 2.439 . S
Cd197 O207 2.240 . S
Cd198 O199 2.240 . S
Cd198 O206 2.223 . S
Cd198 O208 2.297 . S
Cd198 O209 2.439 . S
O199 Cd198 2.240 . S
O199 C204 1.279 . S
O200 Cd197 2.297 . S
O200 C202 1.247 . S
O201 Cd197 2.439 . S
O201 C202 1.208 . S
C202 O200 1.247 . S
C202 O201 1.208 . S
C203 O208 1.247 . S
C203 O209 1.208 . S
C204 O196 1.315 . S
C204 O199 1.279 . S
C205 O206 1.315 . S
C205 O207 1.279 . S
O206 Cd198 2.223 . S
O206 C205 1.315 . S
O207 Cd197 2.240 . S
O207 C205 1.279 . S
O208 Cd198 2.297 . S
O208 C203 1.247 . S
O209 Cd198 2.439 . S
O209 C203 1.208 . S
O210 Cd211 2.223 . S
O210 C218 1.315 . S
Cd211 O210 2.223 . S
Cd211 O214 2.297 . S
Cd211 O215 2.439 . S
Cd211 O221 2.240 . S
Cd212 O213 2.240 . S
Cd212 O220 2.223 . S
Cd212 O222 2.297 . S
Cd212 O223 2.439 . S
O213 Cd212 2.240 . S
O213 C218 1.279 . S
O214 Cd211 2.297 . S
O214 C216 1.247 . S
O215 Cd211 2.439 . S
O215 C216 1.208 . S
C216 O214 1.247 . S
C216 O215 1.208 . S
C217 O222 1.247 . S
C217 O223 1.208 . S
C218 O210 1.315 . S
C218 O213 1.279 . S
C219 O220 1.315 . S
C219 O221 1.279 . S
O220 Cd212 2.223 . S
O220 C219 1.315 . S
O221 Cd211 2.240 . S
O221 C219 1.279 . S
O222 Cd212 2.297 . S
O222 C217 1.247 . S
O223 Cd212 2.439 . S
O223 C217 1.208 . S
O224 Cd225 2.223 . S
O224 C232 1.315 . S
Cd225 O224 2.223 . S
Cd225 O228 2.297 . S
Cd225 O229 2.439 . S
Cd225 O235 2.240 . S
Cd226 O227 2.240 . S
Cd226 O234 2.223 . S
Cd226 O236 2.297 . S
Cd226 O237 2.439 . S
O227 Cd226 2.240 . S
O227 C232 1.279 . S
O228 Cd225 2.297 . S
O228 C230 1.247 . S
O229 Cd225 2.439 . S
O229 C230 1.208 . S
C230 O228 1.247 . S
C230 O229 1.208 . S
C231 O236 1.247 . S
C231 O237 1.208 . S
C232 O224 1.315 . S
C232 O227 1.279 . S
C233 O234 1.315 . S
C233 O235 1.279 . S
O234 Cd226 2.223 . S
O234 C233 1.315 . S
O235 Cd225 2.240 . S
O235 C233 1.279 . S
O236 Cd226 2.297 . S
O236 C231 1.247 . S
O237 Cd226 2.439 . S
O237 C231 1.208 . S
O238 Cd239 2.223 . S
O238 C246 1.315 . S
Cd239 O238 2.223 . S
Cd239 O242 2.297 . S
Cd239 O243 2.439 . S
Cd239 O249 2.240 . S
Cd240 O241 2.240 . S
Cd240 O248 2.223 . S
Cd240 O250 2.297 . S
Cd240 O251 2.439 . S
O241 Cd240 2.240 . S
O241 C246 1.279 . S
O242 Cd239 2.297 . S
O242 C244 1.247 . S
O243 Cd239 2.439 . S
O243 C244 1.208 . S
C244 O242 1.247 . S
C244 O243 1.208 . S
C245 O250 1.247 . S
C245 O251 1.208 . S
C246 O238 1.315 . S
C246 O241 1.279 . S
C247 O248 1.315 . S
C247 O249 1.279 . S
O248 Cd240 2.223 . S
O248 C247 1.315 . S
O249 Cd239 2.240 . S
O249 C247 1.279 . S
O250 Cd240 2.297 . S
O250 C245 1.247 . S
O251 Cd240 2.439 . S
O251 C245 1.208 . S
O252 Cd253 2.223 . S
O252 C260 1.315 . S
Cd253 O252 2.223 . S
Cd253 O256 2.297 . S
Cd253 O257 2.439 . S
Cd253 O263 2.240 . S
Cd254 O255 2.240 . S
Cd254 O262 2.223 . S
Cd254 O264 2.297 . S
Cd254 O265 2.439 . S
O255 Cd254 2.240 . S
O255 C260 1.279 . S
O256 Cd253 2.297 . S
O256 C258 1.247 . S
O257 Cd253 2.439 . S
O257 C258 1.208 . S
C258 O256 1.247 . S
C258 O257 1.208 . S
C259 O264 1.247 . S
C259 O265 1.208 . S
C260 O252 1.315 . S
C260 O255 1.279 . S
C261 O262 1.315 . S
C261 O263 1.279 . S
O262 Cd254 2.223 . S
O262 C261 1.315 . S
O263 Cd253 2.240 . S
O263 C261 1.279 . S
O264 Cd254 2.297 . S
O264 C259 1.247 . S
O265 Cd254 2.439 . S
O265 C259 1.208 . S
O266 Cd267 2.223 . S
O266 C274 1.315 . S
Cd267 O266 2.223 . S
Cd267 O270 2.297 1_545 S
Cd267 O271 2.439 1_545 S
Cd267 O277 2.240 . S
Cd268 O269 2.240 . S
Cd268 O276 2.223 . S
Cd268 O278 2.297 . S
Cd268 O279 2.439 . S
O269 Cd268 2.240 . S
O269 C274 1.279 . S
O270 Cd267 2.297 1_565 S
O270 C272 1.247 . S
O271 Cd267 2.439 1_565 S
O271 C272 1.208 . S
C272 O270 1.247 . S
C272 O271 1.208 . S
C273 O278 1.247 . S
C273 O279 1.208 . S
C274 O266 1.315 . S
C274 O269 1.279 . S
C275 O276 1.315 . S
C275 O277 1.279 . S
O276 Cd268 2.223 . S
O276 C275 1.315 . S
O277 Cd267 2.240 . S
O277 C275 1.279 . S
O278 Cd268 2.297 . S
O278 C273 1.247 . S
O279 Cd268 2.439 . S
O279 C273 1.208 . S
O280 Cd281 2.223 . S
O280 C288 1.315 . S
Cd281 O280 2.223 . S
Cd281 O284 2.297 . S
Cd281 O285 2.439 . S
Cd281 O291 2.240 . S
Cd282 O283 2.240 . S
Cd282 O290 2.223 . S
Cd282 O292 2.297 1_554 S
Cd282 O293 2.439 1_554 S
O283 Cd282 2.240 . S
O283 C288 1.279 . S
O284 Cd281 2.297 . S
O284 C286 1.247 . S
O285 Cd281 2.439 . S
O285 C286 1.208 . S
C286 O284 1.247 . S
C286 O285 1.208 . S
C287 O292 1.247 . S
C287 O293 1.208 . S
C288 O280 1.315 . S
C288 O283 1.279 . S
C289 O290 1.315 . S
C289 O291 1.279 . S
O290 Cd282 2.223 . S
O290 C289 1.315 . S
O291 Cd281 2.240 . S
O291 C289 1.279 . S
O292 Cd282 2.297 1_556 S
O292 C287 1.247 . S
O293 Cd282 2.439 1_556 S
O293 C287 1.208 . S
O294 Cd295 2.223 . S
O294 C302 1.315 . S
Cd295 O294 2.223 . S
Cd295 O298 2.297 . S
Cd295 O299 2.439 . S
Cd295 O305 2.240 . S
Cd296 O297 2.240 . S
Cd296 O304 2.223 . S
Cd296 O306 2.297 . S
Cd296 O307 2.439 . S
O297 Cd296 2.240 . S
O297 C302 1.279 . S
O298 Cd295 2.297 . S
O298 C300 1.247 . S
O299 Cd295 2.439 . S
O299 C300 1.208 . S
C300 O298 1.247 . S
C300 O299 1.208 . S
C301 O306 1.247 . S
C301 O307 1.208 . S
C302 O294 1.315 . S
C302 O297 1.279 . S
C303 O304 1.315 . S
C303 O305 1.279 . S
O304 Cd296 2.223 . S
O304 C303 1.315 . S
O305 Cd295 2.240 . S
O305 C303 1.279 . S
O306 Cd296 2.297 . S
O306 C301 1.247 . S
O307 Cd296 2.439 . S
O307 C301 1.208 . S
O308 Cd309 2.223 . S
O308 C316 1.315 . S
Cd309 O308 2.223 . S
Cd309 O312 2.297 . S
Cd309 O313 2.439 . S
Cd309 O319 2.240 . S
Cd310 O311 2.240 . S
Cd310 O318 2.223 . S
Cd310 O320 2.297 . S
Cd310 O321 2.439 . S
O311 Cd310 2.240 . S
O311 C316 1.279 . S
O312 Cd309 2.297 . S
O312 C314 1.247 . S
O313 Cd309 2.439 . S
O313 C314 1.208 . S
C314 O312 1.247 . S
C314 O313 1.208 . S
C315 O320 1.247 . S
C315 O321 1.208 . S
C316 O308 1.315 . S
C316 O311 1.279 . S
C317 O318 1.315 . S
C317 O319 1.279 . S
O318 Cd310 2.223 . S
O318 C317 1.315 . S
O319 Cd309 2.240 . S
O319 C317 1.279 . S
O320 Cd310 2.297 . S
O320 C315 1.247 . S
O321 Cd310 2.439 . S
O321 C315 1.208 . S
O322 Cd323 2.223 . S
O322 C330 1.315 . S
Cd323 O322 2.223 . S
Cd323 O326 2.297 . S
Cd323 O327 2.439 . S
Cd323 O333 2.240 . S
Cd324 O325 2.240 . S
Cd324 O332 2.223 . S
Cd324 O334 2.297 . S
Cd324 O335 2.439 . S
O325 Cd324 2.240 . S
O325 C330 1.279 . S
O326 Cd323 2.297 . S
O326 C328 1.247 . S
O327 Cd323 2.439 . S
O327 C328 1.208 . S
C328 O326 1.247 . S
C328 O327 1.208 . S
C329 O334 1.247 . S
C329 O335 1.208 . S
C330 O322 1.315 . S
C330 O325 1.279 . S
C331 O332 1.315 . S
C331 O333 1.279 . S
O332 Cd324 2.223 . S
O332 C331 1.315 . S
O333 Cd323 2.240 . S
O333 C331 1.279 . S
O334 Cd324 2.297 . S
O334 C329 1.247 . S
O335 Cd324 2.439 . S
O335 C329 1.208 . S
Dy336 O340 2.398 1_554 S
Dy336 O341 2.491 . S
Dy336 O342 2.429 1_554 S
Dy336 O343 2.664 1_655 S
Dy336 O347 2.326 1_655 S
Dy336 O351 2.310 1_655 S
Dy336 O352 2.351 . S
C337 O348 1.185 . S
C337 O349 1.355 . S
C338 O340 1.185 1_554 S
C338 O341 1.355 . S
Dy339 O343 2.310 . S
Dy339 O346 2.351 . S
Dy339 O348 2.398 . S
Dy339 O349 2.491 . S
Dy339 O350 2.403 . S
Dy339 O351 2.664 . S
Dy339 O353 2.326 . S
O340 Dy336 2.398 1_556 S
O340 C338 1.185 1_556 S
O341 Dy336 2.491 . S
O341 C338 1.355 . S
O342 Dy336 2.429 1_556 S
O342 C344 1.201 1_655 S
O343 Dy336 2.664 1_455 S
O343 Dy339 2.310 . S
O343 C344 1.268 1_554 S
C344 O342 1.201 1_455 S
C344 O343 1.268 1_556 S
C345 O350 1.254 . S
C345 O351 1.268 . S
O346 Dy339 2.351 . S
O346 C354 1.249 . S
O347 Dy336 2.326 1_455 S
O347 C354 1.267 . S
O348 C337 1.185 . S
O348 Dy339 2.398 . S
O349 C337 1.355 . S
O349 Dy339 2.491 . S
O350 Dy339 2.403 . S
O350 C345 1.254 . S
O351 Dy336 2.310 1_455 S
O351 Dy339 2.664 . S
O351 C345 1.268 . S
O352 Dy336 2.351 . S
O352 C355 1.253 1_655 S
O353 Dy339 2.326 . S
O353 C355 1.273 . S
C354 O346 1.249 . S
C354 O347 1.267 . S
C355 O352 1.253 1_455 S
C355 O353 1.273 . S
Dy356 O360 2.398 . S
Dy356 O361 2.491 . S
Dy356 O362 2.403 . S
Dy356 O363 2.664 . S
Dy356 O367 2.326 . S
Dy356 O371 2.310 . S
Dy356 O372 2.351 . S
C357 O368 1.185 . S
C357 O369 1.355 . S
C358 O360 1.185 . S
C358 O361 1.355 . S
Dy359 O363 2.310 . S
Dy359 O366 2.351 . S
Dy359 O368 2.398 . S
Dy359 O369 2.491 . S
Dy359 O370 2.403 . S
Dy359 O371 2.664 . S
Dy359 O373 2.326 . S
O360 Dy356 2.398 . S
O360 C358 1.185 . S
O361 Dy356 2.491 . S
O361 C358 1.355 . S
O362 Dy356 2.403 . S
O362 C364 1.254 . S
O363 Dy356 2.664 . S
O363 Dy359 2.310 . S
O363 C364 1.268 . S
C364 O362 1.254 . S
C364 O363 1.268 . S
C365 O370 1.254 . S
C365 O371 1.268 . S
O366 Dy359 2.351 . S
O366 C374 1.249 . S
O367 Dy356 2.326 . S
O367 C374 1.267 . S
O368 C357 1.185 . S
O368 Dy359 2.398 . S
O369 C357 1.355 . S
O369 Dy359 2.491 . S
O370 Dy359 2.403 . S
O370 C365 1.254 . S
O371 Dy356 2.310 . S
O371 Dy359 2.664 . S
O371 C365 1.268 . S
O372 Dy356 2.351 . S
O372 C375 1.249 . S
O373 Dy359 2.326 . S
O373 C375 1.267 . S
C374 O366 1.249 . S
C374 O367 1.267 . S
C375 O372 1.249 . S
C375 O373 1.267 . S
Dy376 O380 2.398 . S
Dy376 O381 2.491 . S
Dy376 O382 2.403 . S
Dy376 O383 2.664 . S
Dy376 O387 2.326 . S
Dy376 O391 2.310 . S
Dy376 O392 2.351 . S
C377 O388 1.185 . S
C377 O389 1.355 . S
C378 O380 1.185 . S
C378 O381 1.355 . S
Dy379 O383 2.310 . S
Dy379 O386 2.351 1_545 S
Dy379 O388 2.398 . S
Dy379 O389 2.491 . S
Dy379 O390 2.403 . S
Dy379 O391 2.664 . S
Dy379 O393 2.326 . S
O380 Dy376 2.398 . S
O380 C378 1.185 . S
O381 Dy376 2.491 . S
O381 C378 1.355 . S
O382 Dy376 2.403 . S
O382 C384 1.254 . S
O383 Dy376 2.664 . S
O383 Dy379 2.310 . S
O383 C384 1.268 . S
C384 O382 1.254 . S
C384 O383 1.268 . S
C385 O390 1.254 . S
C385 O391 1.268 . S
O386 Dy379 2.351 1_565 S
O386 C394 1.249 . S
O387 Dy376 2.326 . S
O387 C394 1.267 1_545 S
O388 C377 1.185 . S
O388 Dy379 2.398 . S
O389 C377 1.355 . S
O389 Dy379 2.491 . S
O390 Dy379 2.403 . S
O390 C385 1.254 . S
O391 Dy376 2.310 . S
O391 Dy379 2.664 . S
O391 C385 1.268 . S
O392 Dy376 2.351 . S
O392 C395 1.249 . S
O393 Dy379 2.326 . S
O393 C395 1.267 . S
C394 O386 1.249 . S
C394 O387 1.267 1_565 S
C395 O392 1.249 . S
C395 O393 1.267 . S
Dy396 O400 2.398 . S
Dy396 O401 2.491 . S
Dy396 O402 2.403 . S
Dy396 O403 2.664 . S
Dy396 O407 2.326 . S
Dy396 O411 2.310 . S
Dy396 O412 2.351 . S
C397 O408 1.185 . S
C397 O409 1.355 . S
C398 O400 1.185 . S
C398 O401 1.355 . S
Dy399 O403 2.310 . S
Dy399 O406 2.351 . S
Dy399 O408 2.398 . S
Dy399 O409 2.491 . S
Dy399 O410 2.403 . S
Dy399 O411 2.664 . S
Dy399 O413 2.326 . S
O400 Dy396 2.398 . S
O400 C398 1.185 . S
O401 Dy396 2.491 . S
O401 C398 1.355 . S
O402 Dy396 2.403 . S
O402 C404 1.254 . S
O403 Dy396 2.664 . S
O403 Dy399 2.310 . S
O403 C404 1.268 . S
C404 O402 1.254 . S
C404 O403 1.268 . S
C405 O410 1.254 . S
C405 O411 1.268 . S
O406 Dy399 2.351 . S
O406 C414 1.249 . S
O407 Dy396 2.326 . S
O407 C414 1.267 . S
O408 C397 1.185 . S
O408 Dy399 2.398 . S
O409 C397 1.355 . S
O409 Dy399 2.491 . S
O410 Dy399 2.403 . S
O410 C405 1.254 . S
O411 Dy396 2.310 . S
O411 Dy399 2.664 . S
O411 C405 1.268 . S
O412 Dy396 2.351 . S
O412 C415 1.249 . S
O413 Dy399 2.326 . S
O413 C415 1.267 . S
C414 O406 1.249 . S
C414 O407 1.267 . S
C415 O412 1.249 . S
C415 O413 1.267 . S
Dy416 O420 2.398 . S
Dy416 O421 2.491 1_455 S
Dy416 O422 2.403 . S
Dy416 O423 2.664 . S
Dy416 O427 2.326 . S
Dy416 O431 2.310 1_455 S
Dy416 O432 2.351 1_545 S
C417 O428 1.185 . S
C417 O429 1.355 . S
C418 O420 1.185 . S
C418 O421 1.355 1_455 S
Dy419 O423 2.310 . S
Dy419 O426 2.351 . S
Dy419 O428 2.398 . S
Dy419 O429 2.491 . S
Dy419 O430 2.403 1_455 S
Dy419 O431 2.664 1_455 S
Dy419 O433 2.326 . S
O420 Dy416 2.398 . S
O420 C418 1.185 . S
O421 Dy416 2.491 1_655 S
O421 C418 1.355 1_655 S
O422 Dy416 2.403 . S
O422 C424 1.254 . S
O423 Dy416 2.664 . S
O423 Dy419 2.310 . S
O423 C424 1.268 . S
C424 O422 1.254 . S
C424 O423 1.268 . S
C425 O430 1.254 . S
C425 O431 1.268 . S
O426 Dy419 2.351 . S
O426 C434 1.249 . S
O427 Dy416 2.326 . S
O427 C434 1.267 . S
O428 C417 1.185 . S
O428 Dy419 2.398 . S
O429 C417 1.355 . S
O429 Dy419 2.491 . S
O430 Dy419 2.403 1_655 S
O430 C425 1.254 . S
O431 Dy416 2.310 1_655 S
O431 Dy419 2.664 1_655 S
O431 C425 1.268 . S
O432 Dy416 2.351 1_565 S
O432 C435 1.249 . S
O433 Dy419 2.326 . S
O433 C435 1.267 1_545 S
C434 O426 1.249 . S
C434 O427 1.267 . S
C435 O432 1.249 . S
C435 O433 1.267 1_565 S
Dy436 O440 2.398 . S
Dy436 O441 2.491 . S
Dy436 O442 2.403 . S
Dy436 O443 2.664 . S
Dy436 O447 2.326 . S
Dy436 O451 2.310 . S
Dy436 O452 2.351 . S
C437 O448 1.185 . S
C437 O449 1.355 . S
C438 O440 1.185 . S
C438 O441 1.355 . S
Dy439 O443 2.310 . S
Dy439 O446 2.351 . S
Dy439 O448 2.398 . S
Dy439 O449 2.491 . S
Dy439 O450 2.403 . S
Dy439 O451 2.664 . S
Dy439 O453 2.326 . S
O440 Dy436 2.398 . S
O440 C438 1.185 . S
O441 Dy436 2.491 . S
O441 C438 1.355 . S
O442 Dy436 2.403 . S
O442 C444 1.254 . S
O443 Dy436 2.664 . S
O443 Dy439 2.310 . S
O443 C444 1.268 . S
C444 O442 1.254 . S
C444 O443 1.268 . S
C445 O450 1.254 . S
C445 O451 1.268 . S
O446 Dy439 2.351 . S
O446 C454 1.249 . S
O447 Dy436 2.326 . S
O447 C454 1.267 . S
O448 C437 1.185 . S
O448 Dy439 2.398 . S
O449 C437 1.355 . S
O449 Dy439 2.491 . S
O450 Dy439 2.403 . S
O450 C445 1.254 . S
O451 Dy436 2.310 . S
O451 Dy439 2.664 . S
O451 C445 1.268 . S
O452 Dy436 2.351 . S
O452 C455 1.249 . S
O453 Dy439 2.326 . S
O453 C455 1.267 . S
C454 O446 1.249 . S
C454 O447 1.267 . S
C455 O452 1.249 . S
C455 O453 1.267 . S
Dy456 O460 2.398 . S
Dy456 O461 2.491 . S
Dy456 O462 2.403 1_545 S
Dy456 O463 2.664 . S
Dy456 O467 2.326 . S
Dy456 O471 2.310 . S
Dy456 O472 2.351 . S
C457 O468 1.185 . S
C457 O469 1.355 . S
C458 O460 1.185 . S
C458 O461 1.355 . S
Dy459 O463 2.310 1_556 S
Dy459 O466 2.351 1_556 S
Dy459 O468 2.398 . S
Dy459 O469 2.491 . S
Dy459 O470 2.403 1_556 S
Dy459 O471 2.664 1_556 S
Dy459 O473 2.326 1_556 S
O460 Dy456 2.398 . S
O460 C458 1.185 . S
O461 Dy456 2.491 . S
O461 C458 1.355 . S
O462 Dy456 2.403 1_565 S
O462 C464 1.254 . S
O463 Dy456 2.664 . S
O463 Dy459 2.310 1_554 S
O463 C464 1.268 1_545 S
C464 O462 1.254 . S
C464 O463 1.268 1_565 S
C465 O470 1.254 . S
C465 O471 1.268 . S
O466 Dy459 2.351 1_554 S
O466 C474 1.249 . S
O467 Dy456 2.326 . S
O467 C474 1.267 . S
O468 C457 1.185 . S
O468 Dy459 2.398 . S
O469 C457 1.355 . S
O469 Dy459 2.491 . S
O470 Dy459 2.403 1_554 S
O470 C465 1.254 . S
O471 Dy456 2.310 . S
O471 Dy459 2.664 1_554 S
O471 C465 1.268 . S
O472 Dy456 2.351 . S
O472 C475 1.249 . S
O473 Dy459 2.326 1_554 S
O473 C475 1.267 . S
C474 O466 1.249 . S
C474 O467 1.267 . S
C475 O472 1.249 . S
C475 O473 1.267 . S
Dy476 O480 2.398 . S
Dy476 O481 2.491 . S
Dy476 O482 2.403 . S
Dy476 O483 2.664 . S
Dy476 O487 2.326 . S
Dy476 O491 2.310 . S
Dy476 O492 2.351 . S
C477 O488 1.185 . S
C477 O489 1.355 . S
C478 O480 1.185 . S
C478 O481 1.355 . S
Dy479 O483 2.310 . S
Dy479 O486 2.351 . S
Dy479 O488 2.398 . S
Dy479 O489 2.491 . S
Dy479 O490 2.403 . S
Dy479 O491 2.664 . S
Dy479 O493 2.326 . S
O480 Dy476 2.398 . S
O480 C478 1.185 . S
O481 Dy476 2.491 . S
O481 C478 1.355 . S
O482 Dy476 2.403 . S
O482 C484 1.254 . S
O483 Dy476 2.664 . S
O483 Dy479 2.310 . S
O483 C484 1.268 . S
C484 O482 1.254 . S
C484 O483 1.268 . S
C485 O490 1.254 . S
C485 O491 1.268 . S
O486 Dy479 2.351 . S
O486 C494 1.249 . S
O487 Dy476 2.326 . S
O487 C494 1.267 . S
O488 C477 1.185 . S
O488 Dy479 2.398 . S
O489 C477 1.355 . S
O489 Dy479 2.491 . S
O490 Dy479 2.403 . S
O490 C485 1.254 . S
O491 Dy476 2.310 . S
O491 Dy479 2.664 . S
O491 C485 1.268 . S
O492 Dy476 2.351 . S
O492 C495 1.249 . S
O493 Dy479 2.326 . S
O493 C495 1.267 . S
C494 O486 1.249 . S
C494 O487 1.267 . S
C495 O492 1.249 . S
C495 O493 1.267 . S
Dy496 O500 2.398 . S
Dy496 O501 2.491 . S
Dy496 O502 2.403 . S
Dy496 O503 2.664 1_556 S
Dy496 O507 2.326 . S
Dy496 O511 2.310 1_556 S
Dy496 O512 2.351 1_556 S
C497 O508 1.185 . S
C497 O509 1.355 . S
C498 O500 1.185 . S
C498 O501 1.355 . S
Dy499 O503 2.310 . S
Dy499 O506 2.351 . S
Dy499 O508 2.398 . S
Dy499 O509 2.491 . S
Dy499 O510 2.403 . S
Dy499 O511 2.664 . S
Dy499 O513 2.326 . S
O500 Dy496 2.398 . S
O500 C498 1.185 . S
O501 Dy496 2.491 . S
O501 C498 1.355 . S
O502 Dy496 2.403 . S
O502 C504 1.254 1_556 S
O503 Dy496 2.664 1_554 S
O503 Dy499 2.310 . S
O503 C504 1.268 . S
C504 O502 1.254 1_554 S
C504 O503 1.268 . S
C505 O510 1.254 . S
C505 O511 1.268 . S
O506 Dy499 2.351 . S
O506 C514 1.249 . S
O507 Dy496 2.326 . S
O507 C514 1.267 1_556 S
O508 C497 1.185 . S
O508 Dy499 2.398 . S
O509 C497 1.355 . S
O509 Dy499 2.491 . S
O510 Dy499 2.403 . S
O510 C505 1.254 . S
O511 Dy496 2.310 1_554 S
O511 Dy499 2.664 . S
O511 C505 1.268 . S
O512 Dy496 2.351 1_554 S
O512 C515 1.249 . S
O513 Dy499 2.326 . S
O513 C515 1.267 . S
C514 O506 1.249 . S
C514 O507 1.267 1_554 S
C515 O512 1.249 . S
C515 O513 1.267 . S
Dy516 O520 2.398 . S
Dy516 O521 2.491 . S
Dy516 O522 2.403 . S
Dy516 O523 2.664 . S
Dy516 O527 2.326 . S
Dy516 O531 2.310 . S
Dy516 O532 2.351 . S
C517 O528 1.185 . S
C517 O529 1.355 . S
C518 O520 1.185 . S
C518 O521 1.355 . S
Dy519 O523 2.310 . S
Dy519 O526 2.351 . S
Dy519 O528 2.398 . S
Dy519 O529 2.491 . S
Dy519 O530 2.403 . S
Dy519 O531 2.664 . S
Dy519 O533 2.326 . S
O520 Dy516 2.398 . S
O520 C518 1.185 . S
O521 Dy516 2.491 . S
O521 C518 1.355 . S
O522 Dy516 2.403 . S
O522 C524 1.254 . S
O523 Dy516 2.664 . S
O523 Dy519 2.310 . S
O523 C524 1.268 . S
C524 O522 1.254 . S
C524 O523 1.268 . S
C525 O530 1.254 . S
C525 O531 1.268 . S
O526 Dy519 2.351 . S
O526 C534 1.249 . S
O527 Dy516 2.326 . S
O527 C534 1.267 . S
O528 C517 1.185 . S
O528 Dy519 2.398 . S
O529 C517 1.355 . S
O529 Dy519 2.491 . S
O530 Dy519 2.403 . S
O530 C525 1.254 . S
O531 Dy516 2.310 . S
O531 Dy519 2.664 . S
O531 C525 1.268 . S
O532 Dy516 2.351 . S
O532 C535 1.249 . S
O533 Dy519 2.326 . S
O533 C535 1.267 . S
C534 O526 1.249 . S
C534 O527 1.267 . S
C535 O532 1.249 . S
C535 O533 1.267 . S
Dy536 O540 2.398 1_455 S
Dy536 O541 2.491 1_455 S
Dy536 O542 2.403 . S
Dy536 O543 2.664 . S
Dy536 O547 2.326 1_455 S
Dy536 O551 2.310 . S
Dy536 O552 2.351 . S
C537 O548 1.185 . S
C537 O549 1.355 . S
C538 O540 1.185 . S
C538 O541 1.355 . S
Dy539 O543 2.310 . S
Dy539 O546 2.351 1_455 S
Dy539 O548 2.398 . S
Dy539 O549 2.491 . S
Dy539 O550 2.403 . S
Dy539 O551 2.664 . S
Dy539 O553 2.326 . S
O540 Dy536 2.398 1_655 S
O540 C538 1.185 . S
O541 Dy536 2.491 1_655 S
O541 C538 1.355 . S
O542 Dy536 2.403 . S
O542 C544 1.254 . S
O543 Dy536 2.664 . S
O543 Dy539 2.310 . S
O543 C544 1.268 . S
C544 O542 1.254 . S
C544 O543 1.268 . S
C545 O550 1.254 . S
C545 O551 1.268 . S
O546 Dy539 2.351 1_655 S
O546 C554 1.249 . S
O547 Dy536 2.326 1_655 S
O547 C554 1.267 . S
O548 C537 1.185 . S
O548 Dy539 2.398 . S
O549 C537 1.355 . S
O549 Dy539 2.491 . S
O550 Dy539 2.403 . S
O550 C545 1.254 . S
O551 Dy536 2.310 . S
O551 Dy539 2.664 . S
O551 C545 1.268 . S
O552 Dy536 2.351 . S
O552 C555 1.249 . S
O553 Dy539 2.326 . S
O553 C555 1.267 . S
C554 O546 1.249 . S
C554 O547 1.267 . S
C555 O552 1.249 . S
C555 O553 1.267 . S
Dy556 O560 2.398 . S
Dy556 O561 2.491 . S
Dy556 O562 2.403 . S
Dy556 O563 2.664 . S
Dy556 O567 2.326 . S
Dy556 O571 2.310 . S
Dy556 O572 2.351 . S
C557 O568 1.185 . S
C557 O569 1.355 . S
C558 O560 1.185 . S
C558 O561 1.355 . S
Dy559 O563 2.310 . S
Dy559 O566 2.351 . S
Dy559 O568 2.398 . S
Dy559 O569 2.491 . S
Dy559 O570 2.403 . S
Dy559 O571 2.664 . S
Dy559 O573 2.326 . S
O560 Dy556 2.398 . S
O560 C558 1.185 . S
O561 Dy556 2.491 . S
O561 C558 1.355 . S
O562 Dy556 2.403 . S
O562 C564 1.254 . S
O563 Dy556 2.664 . S
O563 Dy559 2.310 . S
O563 C564 1.268 . S
C564 O562 1.254 . S
C564 O563 1.268 . S
C565 O570 1.254 . S
C565 O571 1.268 . S
O566 Dy559 2.351 . S
O566 C574 1.249 . S
O567 Dy556 2.326 . S
O567 C574 1.267 . S
O568 C557 1.185 . S
O568 Dy559 2.398 . S
O569 C557 1.355 . S
O569 Dy559 2.491 . S
O570 Dy559 2.403 . S
O570 C565 1.254 . S
O571 Dy556 2.310 . S
O571 Dy559 2.664 . S
O571 C565 1.268 . S
O572 Dy556 2.351 . S
O572 C575 1.249 . S
O573 Dy559 2.326 . S
O573 C575 1.267 . S
C574 O566 1.249 . S
C574 O567 1.267 . S
C575 O572 1.249 . S
C575 O573 1.267 . S
Dy576 O580 2.398 . S
Dy576 O581 2.491 . S
Dy576 O582 2.403 . S
Dy576 O583 2.664 . S
Dy576 O587 2.326 . S
Dy576 O591 2.310 . S
Dy576 O592 2.351 . S
C577 O588 1.185 . S
C577 O589 1.355 . S
C578 O580 1.185 . S
C578 O581 1.355 . S
Dy579 O583 2.310 . S
Dy579 O586 2.351 . S
Dy579 O588 2.398 . S
Dy579 O589 2.491 . S
Dy579 O590 2.403 . S
Dy579 O591 2.664 . S
Dy579 O593 2.326 . S
O580 Dy576 2.398 . S
O580 C578 1.185 . S
O581 Dy576 2.491 . S
O581 C578 1.355 . S
O582 Dy576 2.403 . S
O582 C584 1.254 . S
O583 Dy576 2.664 . S
O583 Dy579 2.310 . S
O583 C584 1.268 . S
C584 O582 1.254 . S
C584 O583 1.268 . S
C585 O590 1.254 . S
C585 O591 1.268 . S
O586 Dy579 2.351 . S
O586 C594 1.249 . S
O587 Dy576 2.326 . S
O587 C594 1.267 . S
O588 C577 1.185 . S
O588 Dy579 2.398 . S
O589 C577 1.355 . S
O589 Dy579 2.491 . S
O590 Dy579 2.403 . S
O590 C585 1.254 . S
O591 Dy576 2.310 . S
O591 Dy579 2.664 . S
O591 C585 1.268 . S
O592 Dy576 2.351 . S
O592 C595 1.249 . S
O593 Dy579 2.326 . S
O593 C595 1.267 . S
C594 O586 1.249 . S
C594 O587 1.267 . S
C595 O592 1.249 . S
C595 O593 1.267 . S
Dy596 O600 2.398 . S
Dy596 O601 2.491 . S
Dy596 O602 2.403 . S
Dy596 O603 2.664 . S
Dy596 O607 2.326 . S
Dy596 O611 2.310 . S
Dy596 O612 2.351 . S
C597 O608 1.185 . S
C597 O609 1.355 . S
C598 O600 1.185 . S
C598 O601 1.355 . S
Dy599 O603 2.310 . S
Dy599 O606 2.351 . S
Dy599 O608 2.398 . S
Dy599 O609 2.491 . S
Dy599 O610 2.403 . S
Dy599 O611 2.664 . S
Dy599 O613 2.326 . S
O600 Dy596 2.398 . S
O600 C598 1.185 . S
O601 Dy596 2.491 . S
O601 C598 1.355 . S
O602 Dy596 2.403 . S
O602 C604 1.254 . S
O603 Dy596 2.664 . S
O603 Dy599 2.310 . S
O603 C604 1.268 . S
C604 O602 1.254 . S
C604 O603 1.268 . S
C605 O610 1.254 . S
C605 O611 1.268 . S
O606 Dy599 2.351 . S
O606 C614 1.249 . S
O607 Dy596 2.326 . S
O607 C614 1.267 . S
O608 C597 1.185 . S
O608 Dy599 2.398 . S
O609 C597 1.355 . S
O609 Dy599 2.491 . S
O610 Dy599 2.403 . S
O610 C605 1.254 . S
O611 Dy596 2.310 . S
O611 Dy599 2.664 . S
O611 C605 1.268 . S
O612 Dy596 2.351 . S
O612 C615 1.249 . S
O613 Dy599 2.326 . S
O613 C615 1.267 . S
C614 O606 1.249 . S
C614 O607 1.267 . S
C615 O612 1.249 . S
C615 O613 1.267 . S
Dy616 O620 2.398 . S
Dy616 O621 2.491 . S
Dy616 O622 2.403 . S
Dy616 O623 2.664 . S
Dy616 O627 2.326 . S
Dy616 O631 2.310 . S
Dy616 O632 2.351 . S
C617 O628 1.185 . S
C617 O629 1.355 . S
C618 O620 1.185 . S
C618 O621 1.355 . S
Dy619 O623 2.310 . S
Dy619 O626 2.351 . S
Dy619 O628 2.398 . S
Dy619 O629 2.491 . S
Dy619 O630 2.403 . S
Dy619 O631 2.664 . S
Dy619 O633 2.326 . S
O620 Dy616 2.398 . S
O620 C618 1.185 . S
O621 Dy616 2.491 . S
O621 C618 1.355 . S
O622 Dy616 2.403 . S
O622 C624 1.254 . S
O623 Dy616 2.664 . S
O623 Dy619 2.310 . S
O623 C624 1.268 . S
C624 O622 1.254 . S
C624 O623 1.268 . S
C625 O630 1.254 . S
C625 O631 1.268 . S
O626 Dy619 2.351 . S
O626 C634 1.249 . S
O627 Dy616 2.326 . S
O627 C634 1.267 . S
O628 C617 1.185 . S
O628 Dy619 2.398 . S
O629 C617 1.355 . S
O629 Dy619 2.491 . S
O630 Dy619 2.403 . S
O630 C625 1.254 . S
O631 Dy616 2.310 . S
O631 Dy619 2.664 . S
O631 C625 1.268 . S
O632 Dy616 2.351 . S
O632 C635 1.249 . S
O633 Dy619 2.326 . S
O633 C635 1.267 . S
C634 O626 1.249 . S
C634 O627 1.267 . S
C635 O632 1.249 . S
C635 O633 1.267 . S
Dy636 O640 2.398 . S
Dy636 O641 2.491 . S
Dy636 O642 2.403 1_554 S
Dy636 O643 2.664 . S
Dy636 O647 2.326 . S
Dy636 O651 2.310 . S
Dy636 O652 2.351 . S
C637 O648 1.185 . S
C637 O649 1.355 . S
C638 O640 1.185 . S
C638 O641 1.355 . S
Dy639 O643 2.310 1_655 S
Dy639 O646 2.351 . S
Dy639 O648 2.398 . S
Dy639 O649 2.491 . S
Dy639 O650 2.417 . S
Dy639 O651 2.664 1_655 S
Dy639 O653 2.326 1_655 S
O640 Dy636 2.398 . S
O640 C638 1.185 . S
O641 Dy636 2.491 . S
O641 C638 1.355 . S
O642 Dy636 2.403 1_556 S
O642 C644 1.242 1_556 S
O643 Dy636 2.664 . S
O643 Dy639 2.310 1_455 S
O643 C644 1.319 . S
C644 O642 1.242 1_554 S
C644 O643 1.319 . S
C645 O650 1.216 1_455 S
C645 O651 1.268 . S
O646 Dy639 2.351 . S
O646 C654 1.249 1_655 S
O647 Dy636 2.326 . S
O647 C654 1.267 . S
O648 C637 1.185 . S
O648 Dy639 2.398 . S
O649 C637 1.355 . S
O649 Dy639 2.491 . S
O650 Dy639 2.417 . S
O650 C645 1.216 1_655 S
O651 Dy636 2.310 . S
O651 Dy639 2.664 1_455 S
O651 C645 1.268 . S
O652 Dy636 2.351 . S
O652 C655 1.249 . S
O653 Dy639 2.326 1_455 S
O653 C655 1.267 . S
C654 O646 1.249 1_455 S
C654 O647 1.267 . S
C655 O652 1.249 . S
C655 O653 1.267 . S
C656 C657 1.349 . S
C656 C658 1.331 . S
C656 H681 0.932 1_455 S
C657 C656 1.349 . S
C657 C673 1.352 . S
C658 C656 1.331 . S
C658 C677 1.429 . S
C658 H682 0.950 . S
C659 C676 1.574 . S
C659 C678 1.368 . S
C659 H683 0.949 . S
H660 C664 0.949 . S
C661 C662 1.349 1_556 S
C661 C663 1.327 . S
C661 H684 0.950 . S
C662 C661 1.349 1_554 S
C662 C674 1.349 . S
C663 C661 1.327 . S
C663 C679 1.429 . S
C663 H685 0.950 . S
C664 H660 0.949 . S
C664 C672 1.574 . S
C664 C680 1.368 . S
H665 C673 0.950 . S
H666 C671 0.950 . S
H667 C672 0.949 . S
H668 C674 0.950 . S
H669 C675 0.950 . S
H670 C676 0.949 . S
C671 H666 0.950 . S
C671 C673 1.327 . S
C671 C677 1.429 . S
C672 C664 1.574 . S
C672 H667 0.949 . S
C672 C678 1.368 . S
C673 C657 1.352 . S
C673 H665 0.950 . S
C673 C671 1.327 . S
C674 C662 1.349 . S
C674 H668 0.950 . S
C674 C675 1.327 . S
C675 H669 0.950 . S
C675 C674 1.327 . S
C675 C679 1.429 1_554 S
C676 C659 1.574 . S
C676 H670 0.949 . S
C676 C680 1.368 . S
C677 C658 1.429 . S
C677 C671 1.429 . S
C677 C678 1.523 . S
C678 C659 1.368 . S
C678 C672 1.368 . S
C678 C677 1.523 . S
C679 C663 1.429 . S
C679 C675 1.429 1_556 S
C679 C680 1.523 . S
C680 C664 1.368 . S
C680 C676 1.368 . S
C680 C679 1.523 . S
H681 C656 0.932 1_655 S
H682 C658 0.950 . S
H683 C659 0.949 . S
H684 C661 0.950 . S
H685 C663 0.950 . S
C686 C687 1.349 . S
C686 C688 1.327 . S
C686 H711 0.950 . S
C687 C686 1.349 . S
C687 C703 1.349 . S
C688 C686 1.327 . S
C688 C707 1.429 . S
C688 H712 0.950 . S
C689 C706 1.574 . S
C689 C708 1.368 . S
C689 H713 0.949 . S
H690 C694 0.949 . S
C691 C692 1.349 . S
C691 C693 1.327 . S
C691 H714 0.950 . S
C692 C691 1.349 . S
C692 C704 1.349 . S
C693 C691 1.327 . S
C693 C709 1.429 . S
C693 H715 0.950 . S
C694 H690 0.949 . S
C694 C702 1.574 . S
C694 C710 1.368 . S
H695 C703 0.950 . S
H696 C701 0.950 . S
H697 C702 0.949 . S
H698 C704 0.950 . S
H699 C705 0.950 . S
H700 C706 0.949 . S
C701 H696 0.950 . S
C701 C703 1.327 . S
C701 C707 1.429 . S
C702 C694 1.574 . S
C702 H697 0.949 . S
C702 C708 1.368 . S
C703 C687 1.349 . S
C703 H695 0.950 . S
C703 C701 1.327 . S
C704 C692 1.349 . S
C704 H698 0.950 . S
C704 C705 1.327 . S
C705 H699 0.950 . S
C705 C704 1.327 . S
C705 C709 1.429 . S
C706 C689 1.574 . S
C706 H700 0.949 . S
C706 C710 1.368 . S
C707 C688 1.429 . S
C707 C701 1.429 . S
C707 C708 1.523 . S
C708 C689 1.368 . S
C708 C702 1.368 . S
C708 C707 1.523 . S
C709 C693 1.429 . S
C709 C705 1.429 . S
C709 C710 1.523 . S
C710 C694 1.368 . S
C710 C706 1.368 . S
C710 C709 1.523 . S
H711 C686 0.950 . S
H712 C688 0.950 . S
H713 C689 0.949 . S
H714 C691 0.950 . S
H715 C693 0.950 . S
C716 C717 1.349 . S
C716 C718 1.327 . S
C716 H741 0.950 . S
C717 C716 1.349 . S
C717 C733 1.349 . S
C718 C716 1.327 . S
C718 C737 1.429 . S
C718 H742 0.950 . S
C719 C736 1.574 . S
C719 C738 1.368 . S
C719 H743 0.949 . S
H720 C724 0.949 . S
C721 C722 1.349 . S
C721 C723 1.327 . S
C721 H744 0.950 . S
C722 C721 1.349 . S
C722 C734 1.349 . S
C723 C721 1.327 . S
C723 C739 1.429 . S
C723 H745 0.950 . S
C724 H720 0.949 . S
C724 C732 1.574 . S
C724 C740 1.368 . S
H725 C733 0.950 . S
H726 C731 0.950 . S
H727 C732 0.949 . S
H728 C734 0.950 . S
H729 C735 0.950 . S
H730 C736 0.949 . S
C731 H726 0.950 . S
C731 C733 1.327 . S
C731 C737 1.429 . S
C732 C724 1.574 . S
C732 H727 0.949 . S
C732 C738 1.368 . S
C733 C717 1.349 . S
C733 H725 0.950 . S
C733 C731 1.327 . S
C734 C722 1.349 . S
C734 H728 0.950 . S
C734 C735 1.327 . S
C735 H729 0.950 . S
C735 C734 1.327 . S
C735 C739 1.429 . S
C736 C719 1.574 . S
C736 H730 0.949 . S
C736 C740 1.368 . S
C737 C718 1.429 . S
C737 C731 1.429 . S
C737 C738 1.523 . S
C738 C719 1.368 . S
C738 C732 1.368 . S
C738 C737 1.523 . S
C739 C723 1.429 . S
C739 C735 1.429 . S
C739 C740 1.523 . S
C740 C724 1.368 . S
C740 C736 1.368 . S
C740 C739 1.523 . S
H741 C716 0.950 . S
H742 C718 0.950 . S
H743 C719 0.949 . S
H744 C721 0.950 . S
H745 C723 0.950 . S
C746 C747 1.349 . S
C746 C748 1.327 . S
C746 H771 0.950 . S
C747 C746 1.349 . S
C747 C763 1.349 . S
C748 C746 1.327 . S
C748 C767 1.429 . S
C748 H772 0.950 . S
C749 C766 1.574 . S
C749 C768 1.368 . S
C749 H773 0.949 . S
H750 C754 0.949 . S
C751 C752 1.349 . S
C751 C753 1.327 . S
C751 H774 0.950 . S
C752 C751 1.349 . S
C752 C764 1.349 . S
C753 C751 1.327 . S
C753 C769 1.429 . S
C753 H775 0.950 . S
C754 H750 0.949 . S
C754 C762 1.574 . S
C754 C770 1.368 . S
H755 C763 0.950 . S
H756 C761 0.950 . S
H757 C762 0.949 . S
H758 C764 0.950 . S
H759 C765 0.950 . S
H760 C766 0.949 . S
C761 H756 0.950 . S
C761 C763 1.327 . S
C761 C767 1.429 . S
C762 C754 1.574 . S
C762 H757 0.949 . S
C762 C768 1.368 . S
C763 C747 1.349 . S
C763 H755 0.950 . S
C763 C761 1.327 . S
C764 C752 1.349 . S
C764 H758 0.950 . S
C764 C765 1.327 . S
C765 H759 0.950 . S
C765 C764 1.327 . S
C765 C769 1.429 . S
C766 C749 1.574 . S
C766 H760 0.949 . S
C766 C770 1.368 . S
C767 C748 1.429 . S
C767 C761 1.429 . S
C767 C768 1.523 . S
C768 C749 1.368 . S
C768 C762 1.368 . S
C768 C767 1.523 . S
C769 C753 1.429 . S
C769 C765 1.429 . S
C769 C770 1.523 . S
C770 C754 1.368 . S
C770 C766 1.368 . S
C770 C769 1.523 . S
H771 C746 0.950 . S
H772 C748 0.950 . S
H773 C749 0.949 . S
H774 C751 0.950 . S
H775 C753 0.950 . S
C776 C777 1.349 . S
C776 C778 1.327 . S
C776 H801 0.950 1_455 S
C777 C776 1.349 . S
C777 C793 1.349 . S
C778 C776 1.327 . S
C778 C797 1.429 . S
C778 H802 0.925 1_455 S
C779 C796 1.574 . S
C779 C798 1.368 . S
C779 H803 0.949 . S
H780 C784 0.949 . S
C781 C782 1.349 . S
C781 C783 1.327 . S
C781 H804 0.950 . S
C782 C781 1.349 . S
C782 C794 1.349 . S
C783 C781 1.327 . S
C783 C799 1.429 . S
C783 H805 0.950 . S
C784 H780 0.949 . S
C784 C792 1.574 . S
C784 C800 1.368 . S
H785 C793 0.950 . S
H786 C791 0.950 . S
H787 C792 0.967 . S
H788 C794 0.950 . S
H789 C795 0.950 . S
H790 C796 0.949 . S
C791 H786 0.950 . S
C791 C793 1.327 . S
C791 C797 1.429 . S
C792 C784 1.574 . S
C792 H787 0.967 . S
C792 C798 1.368 . S
C793 C777 1.349 . S
C793 H785 0.950 . S
C793 C791 1.327 . S
C794 C782 1.349 . S
C794 H788 0.950 . S
C794 C795 1.327 . S
C795 H789 0.950 . S
C795 C794 1.327 . S
C795 C799 1.429 . S
C796 C779 1.574 . S
C796 H790 0.949 . S
C796 C800 1.368 . S
C797 C778 1.429 . S
C797 C791 1.429 . S
C797 C798 1.523 . S
C798 C779 1.368 . S
C798 C792 1.368 . S
C798 C797 1.523 . S
C799 C783 1.429 . S
C799 C795 1.429 . S
C799 C800 1.523 . S
C800 C784 1.368 . S
C800 C796 1.368 . S
C800 C799 1.523 . S
H801 C776 0.950 1_655 S
H802 C778 0.925 1_655 S
H803 C779 0.949 . S
H804 C781 0.950 . S
H805 C783 0.950 . S
C806 C807 1.349 . S
C806 C808 1.327 . S
C806 H831 0.950 . S
C807 C806 1.349 . S
C807 C823 1.349 . S
C808 C806 1.327 . S
C808 C827 1.429 . S
C808 H832 0.950 . S
C809 C826 1.574 . S
C809 C828 1.368 . S
C809 H833 0.949 . S
H810 C814 0.949 . S
C811 C812 1.349 . S
C811 C813 1.327 . S
C811 H834 0.950 . S
C812 C811 1.349 . S
C812 C824 1.349 . S
C813 C811 1.327 . S
C813 C829 1.429 . S
C813 H835 0.950 . S
C814 H810 0.949 . S
C814 C822 1.574 . S
C814 C830 1.368 . S
H815 C823 0.950 . S
H816 C821 0.950 . S
H817 C822 0.949 . S
H818 C824 0.950 . S
H819 C825 0.950 . S
H820 C826 0.949 . S
C821 H816 0.950 . S
C821 C823 1.327 . S
C821 C827 1.429 . S
C822 C814 1.574 . S
C822 H817 0.949 . S
C822 C828 1.368 . S
C823 C807 1.349 . S
C823 H815 0.950 . S
C823 C821 1.327 . S
C824 C812 1.349 . S
C824 H818 0.950 . S
C824 C825 1.327 . S
C825 H819 0.950 . S
C825 C824 1.327 . S
C825 C829 1.429 . S
C826 C809 1.574 . S
C826 H820 0.949 . S
C826 C830 1.368 . S
C827 C808 1.429 . S
C827 C821 1.429 . S
C827 C828 1.523 . S
C828 C809 1.368 . S
C828 C822 1.368 . S
C828 C827 1.523 . S
C829 C813 1.429 . S
C829 C825 1.429 . S
C829 C830 1.523 . S
C830 C814 1.368 . S
C830 C826 1.368 . S
C830 C829 1.523 . S
H831 C806 0.950 . S
H832 C808 0.950 . S
H833 C809 0.949 . S
H834 C811 0.950 . S
H835 C813 0.950 . S
C836 C837 1.349 . S
C836 C838 1.327 . S
C836 H861 0.950 . S
C837 C836 1.349 . S
C837 C853 1.349 . S
C838 C836 1.327 . S
C838 C857 1.429 . S
C838 H862 0.950 . S
C839 C856 1.574 . S
C839 C858 1.368 . S
C839 H863 0.949 . S
H840 C844 0.949 . S
C841 C842 1.349 . S
C841 C843 1.327 . S
C841 H864 0.950 . S
C842 C841 1.349 . S
C842 C854 1.349 . S
C843 C841 1.327 . S
C843 C859 1.429 . S
C843 H865 0.950 . S
C844 H840 0.949 . S
C844 C852 1.574 . S
C844 C860 1.368 . S
H845 C853 0.950 . S
H846 C851 0.950 . S
H847 C852 0.949 . S
H848 C854 0.950 . S
H849 C855 0.950 . S
H850 C856 0.949 . S
C851 H846 0.950 . S
C851 C853 1.327 . S
C851 C857 1.429 . S
C852 C844 1.574 . S
C852 H847 0.949 . S
C852 C858 1.368 . S
C853 C837 1.349 . S
C853 H845 0.950 . S
C853 C851 1.327 . S
C854 C842 1.349 . S
C854 H848 0.950 . S
C854 C855 1.327 . S
C855 H849 0.950 . S
C855 C854 1.327 . S
C855 C859 1.429 . S
C856 C839 1.574 . S
C856 H850 0.949 . S
C856 C860 1.368 . S
C857 C838 1.429 . S
C857 C851 1.429 . S
C857 C858 1.523 . S
C858 C839 1.368 . S
C858 C852 1.368 . S
C858 C857 1.523 . S
C859 C843 1.429 . S
C859 C855 1.429 . S
C859 C860 1.523 . S
C860 C844 1.368 . S
C860 C856 1.368 . S
C860 C859 1.523 . S
H861 C836 0.950 . S
H862 C838 0.950 . S
H863 C839 0.949 . S
H864 C841 0.950 . S
H865 C843 0.950 . S
C866 C867 1.349 . S
C866 C868 1.327 . S
C866 H891 0.950 . S
C867 C866 1.349 . S
C867 C883 1.349 . S
C868 C866 1.327 . S
C868 C887 1.429 . S
C868 H892 0.950 . S
C869 C886 1.574 . S
C869 C888 1.368 . S
C869 H893 0.949 . S
H870 C874 0.949 . S
C871 C872 1.349 . S
C871 C873 1.327 . S
C871 H894 0.950 . S
C872 C871 1.349 . S
C872 C884 1.349 . S
C873 C871 1.327 . S
C873 C889 1.429 . S
C873 H895 0.950 . S
C874 H870 0.949 . S
C874 C882 1.574 . S
C874 C890 1.368 . S
H875 C883 0.950 . S
H876 C881 0.950 . S
H877 C882 0.949 . S
H878 C884 0.950 . S
H879 C885 0.950 . S
H880 C886 0.949 . S
C881 H876 0.950 . S
C881 C883 1.327 . S
C881 C887 1.429 . S
C882 C874 1.574 . S
C882 H877 0.949 . S
C882 C888 1.368 . S
C883 C867 1.349 . S
C883 H875 0.950 . S
C883 C881 1.327 . S
C884 C872 1.349 . S
C884 H878 0.950 . S
C884 C885 1.327 . S
C885 H879 0.950 . S
C885 C884 1.327 . S
C885 C889 1.429 . S
C886 C869 1.574 . S
C886 H880 0.949 . S
C886 C890 1.368 . S
C887 C868 1.429 . S
C887 C881 1.429 . S
C887 C888 1.523 . S
C888 C869 1.368 . S
C888 C882 1.368 . S
C888 C887 1.523 . S
C889 C873 1.429 . S
C889 C885 1.429 . S
C889 C890 1.523 . S
C890 C874 1.368 . S
C890 C886 1.368 . S
C890 C889 1.523 . S
H891 C866 0.950 . S
H892 C868 0.950 . S
H893 C869 0.949 . S
H894 C871 0.950 . S
H895 C873 0.950 . S
C896 C897 1.349 . S
C896 C898 1.327 . S
C896 H921 0.950 . S
C897 C896 1.349 . S
C897 C913 1.349 . S
C898 C896 1.327 . S
C898 C917 1.429 . S
C898 H922 0.950 . S
C899 C916 1.574 . S
C899 C918 1.368 . S
C899 H923 0.949 . S
H900 C904 0.949 . S
C901 C902 1.349 . S
C901 C903 1.327 . S
C901 H924 0.950 . S
C902 C901 1.349 . S
C902 C914 1.349 1_655 S
C903 C901 1.327 . S
C903 C919 1.429 . S
C903 H925 0.950 . S
C904 H900 0.949 . S
C904 C912 1.574 . S
C904 C920 1.368 . S
H905 C913 0.950 . S
H906 C911 0.950 . S
H907 C912 0.949 . S
H908 C914 0.950 . S
H909 C915 0.950 . S
H910 C916 0.949 . S
C911 H906 0.950 . S
C911 C913 1.327 . S
C911 C917 1.429 . S
C912 C904 1.574 . S
C912 H907 0.949 . S
C912 C918 1.368 . S
C913 C897 1.349 . S
C913 H905 0.950 . S
C913 C911 1.327 . S
C914 C902 1.349 1_455 S
C914 H908 0.950 . S
C914 C915 1.327 1_455 S
C915 H909 0.950 . S
C915 C914 1.327 1_655 S
C915 C919 1.429 . S
C916 C899 1.574 . S
C916 H910 0.949 . S
C916 C920 1.368 . S
C917 C898 1.429 . S
C917 C911 1.429 . S
C917 C918 1.523 . S
C918 C899 1.368 . S
C918 C912 1.368 . S
C918 C917 1.523 . S
C919 C903 1.429 . S
C919 C915 1.429 . S
C919 C920 1.523 . S
C920 C904 1.368 . S
C920 C916 1.368 . S
C920 C919 1.523 . S
H921 C896 0.950 . S
H922 C898 0.950 . S
H923 C899 0.949 . S
H924 C901 0.950 . S
H925 C903 0.950 . S
C926 C927 1.349 . S
C926 C928 1.327 . S
C926 H951 0.950 . S
C927 C926 1.349 . S
C927 C943 1.349 . S
C928 C926 1.327 . S
C928 C947 1.429 . S
C928 H952 0.950 . S
C929 C946 1.574 . S
C929 C948 1.368 . S
C929 H953 0.949 . S
H930 C934 0.949 . S
C931 C932 1.349 . S
C931 C933 1.327 . S
C931 H954 0.950 . S
C932 C931 1.349 . S
C932 C944 1.349 . S
C933 C931 1.327 . S
C933 C949 1.429 . S
C933 H955 0.950 . S
C934 H930 0.949 . S
C934 C942 1.574 . S
C934 C950 1.368 . S
H935 C943 0.950 . S
H936 C941 0.950 . S
H937 C942 0.949 . S
H938 C944 0.950 . S
H939 C945 0.950 . S
H940 C946 0.949 . S
C941 H936 0.950 . S
C941 C943 1.327 . S
C941 C947 1.429 . S
C942 C934 1.574 . S
C942 H937 0.949 . S
C942 C948 1.368 . S
C943 C927 1.349 . S
C943 H935 0.950 . S
C943 C941 1.327 . S
C944 C932 1.349 . S
C944 H938 0.950 . S
C944 C945 1.327 . S
C945 H939 0.950 . S
C945 C944 1.327 . S
C945 C949 1.429 . S
C946 C929 1.574 . S
C946 H940 0.949 . S
C946 C950 1.368 . S
C947 C928 1.429 . S
C947 C941 1.429 . S
C947 C948 1.523 . S
C948 C929 1.368 . S
C948 C942 1.368 . S
C948 C947 1.523 . S
C949 C933 1.429 . S
C949 C945 1.429 . S
C949 C950 1.523 . S
C950 C934 1.368 . S
C950 C946 1.368 . S
C950 C949 1.523 . S
H951 C926 0.950 . S
H952 C928 0.950 . S
H953 C929 0.949 . S
H954 C931 0.950 . S
H955 C933 0.950 . S
C956 C957 1.349 . S
C956 C958 1.327 . S
C956 H981 0.950 . S
C957 C956 1.349 . S
C957 C973 1.349 . S
C958 C956 1.327 . S
C958 C977 1.429 . S
C958 H982 0.950 . S
C959 C976 1.574 . S
C959 C978 1.368 . S
C959 H983 0.949 1_545 S
H960 C964 0.949 . S
C961 C962 1.349 . S
C961 C963 1.327 . S
C961 H984 0.950 1_545 S
C962 C961 1.349 . S
C962 C974 1.349 . S
C963 C961 1.327 . S
C963 C979 1.429 . S
C963 H985 0.950 1_545 S
C964 H960 0.949 . S
C964 C972 1.574 . S
C964 C980 1.368 . S
H965 C973 0.950 . S
H966 C971 0.938 1_565 S
H967 C972 0.949 . S
H968 C974 0.950 . S
H969 C975 0.950 . S
H970 C976 0.949 1_565 S
C971 H966 0.938 1_545 S
C971 C973 1.327 . S
C971 C977 1.429 . S
C972 C964 1.574 . S
C972 H967 0.949 . S
C972 C978 1.368 . S
C973 C957 1.349 . S
C973 H965 0.950 . S
C973 C971 1.327 . S
C974 C962 1.349 . S
C974 H968 0.950 . S
C974 C975 1.327 . S
C975 H969 0.950 . S
C975 C974 1.327 . S
C975 C979 1.429 . S
C976 C959 1.574 . S
C976 H970 0.949 1_545 S
C976 C980 1.368 . S
C977 C958 1.429 . S
C977 C971 1.429 . S
C977 C978 1.523 . S
C978 C959 1.368 . S
C978 C972 1.368 . S
C978 C977 1.523 . S
C979 C963 1.429 . S
C979 C975 1.429 . S
C979 C980 1.523 . S
C980 C964 1.368 . S
C980 C976 1.368 . S
C980 C979 1.523 . S
H981 C956 0.950 . S
H982 C958 0.950 . S
H983 C959 0.949 1_565 S
H984 C961 0.950 1_565 S
H985 C963 0.950 1_565 S
C986 C987 1.349 . S
C986 C988 1.327 . S
C986 H1011 0.950 . S
C987 C986 1.349 . S
C987 C1003 1.349 . S
C988 C986 1.327 . S
C988 C1007 1.429 . S
C988 H1012 0.950 . S
C989 C1006 1.574 . S
C989 C1008 1.368 . S
C989 H1013 0.949 . S
H990 C994 0.949 . S
C991 C992 1.349 . S
C991 C993 1.327 . S
C991 H1014 0.950 . S
C992 C991 1.349 . S
C992 C1004 1.349 . S
C993 C991 1.327 . S
C993 C1009 1.429 . S
C993 H1015 0.950 . S
C994 H990 0.949 . S
C994 C1002 1.574 . S
C994 C1010 1.368 . S
H995 C1003 0.950 . S
H996 C1001 0.950 . S
H997 C1002 0.949 . S
H998 C1004 0.950 . S
H999 C1005 0.950 . S
H1000 C1006 0.949 . S
C1001 H996 0.950 . S
C1001 C1003 1.327 . S
C1001 C1007 1.429 . S
C1002 C994 1.574 . S
C1002 H997 0.949 . S
C1002 C1008 1.368 . S
C1003 C987 1.349 . S
C1003 H995 0.950 . S
C1003 C1001 1.327 . S
C1004 C992 1.349 . S
C1004 H998 0.950 . S
C1004 C1005 1.327 . S
C1005 H999 0.950 . S
C1005 C1004 1.327 . S
C1005 C1009 1.429 . S
C1006 C989 1.574 . S
C1006 H1000 0.949 . S
C1006 C1010 1.368 . S
C1007 C988 1.429 . S
C1007 C1001 1.429 . S
C1007 C1008 1.523 . S
C1008 C989 1.368 . S
C1008 C1002 1.368 . S
C1008 C1007 1.523 . S
C1009 C993 1.429 . S
C1009 C1005 1.429 . S
C1009 C1010 1.523 . S
C1010 C994 1.368 . S
C1010 C1006 1.368 . S
C1010 C1009 1.523 . S
H1011 C986 0.950 . S
H1012 C988 0.950 . S
H1013 C989 0.949 . S
H1014 C991 0.950 . S
H1015 C993 0.950 . S
C1016 C1017 1.349 . S
C1016 C1018 1.327 . S
C1016 H1041 0.950 . S
C1017 C1016 1.349 . S
C1017 C1033 1.349 . S
C1018 C1016 1.327 . S
C1018 C1037 1.429 . S
C1018 H1042 0.950 . S
C1019 C1036 1.574 . S
C1019 C1038 1.368 . S
C1019 H1043 0.949 . S
H1020 C1024 0.949 . S
C1021 C1022 1.322 1_655 S
C1021 C1023 1.327 . S
C1021 H1044 0.950 . S
C1022 C1021 1.322 1_455 S
C1022 C1034 1.358 . S
C1023 C1021 1.327 . S
C1023 C1039 1.429 . S
C1023 H1045 0.950 . S
C1024 H1020 0.949 . S
C1024 C1032 1.574 . S
C1024 C1040 1.368 . S
H1025 C1033 0.950 . S
H1026 C1031 0.950 . S
H1027 C1032 0.949 . S
H1028 C1034 0.950 . S
H1029 C1035 0.950 . S
H1030 C1036 0.949 . S
C1031 H1026 0.950 . S
C1031 C1033 1.327 . S
C1031 C1037 1.429 . S
C1032 C1024 1.574 . S
C1032 H1027 0.949 . S
C1032 C1038 1.368 . S
C1033 C1017 1.349 . S
C1033 H1025 0.950 . S
C1033 C1031 1.327 . S
C1034 C1022 1.358 . S
C1034 H1028 0.950 . S
C1034 C1035 1.327 1_455 S
C1035 H1029 0.950 . S
C1035 C1034 1.327 1_655 S
C1035 C1039 1.429 . S
C1036 C1019 1.574 . S
C1036 H1030 0.949 . S
C1036 C1040 1.368 . S
C1037 C1018 1.429 . S
C1037 C1031 1.429 . S
C1037 C1038 1.523 . S
C1038 C1019 1.368 . S
C1038 C1032 1.368 . S
C1038 C1037 1.523 . S
C1039 C1023 1.429 . S
C1039 C1035 1.429 . S
C1039 C1040 1.523 . S
C1040 C1024 1.368 . S
C1040 C1036 1.368 . S
C1040 C1039 1.523 . S
H1041 C1016 0.950 . S
H1042 C1018 0.950 . S
H1043 C1019 0.949 . S
H1044 C1021 0.950 . S
H1045 C1023 0.950 . S
C1046 C1047 1.349 . S
C1046 C1048 1.327 . S
C1046 H1071 0.950 . S
C1047 C1046 1.349 . S
C1047 C1063 1.349 . S
C1048 C1046 1.327 . S
C1048 C1067 1.429 . S
C1048 H1072 0.950 . S
C1049 C1066 1.574 . S
C1049 C1068 1.368 . S
C1049 H1073 0.949 . S
H1050 C1054 0.949 . S
C1051 C1052 1.349 . S
C1051 C1053 1.327 . S
C1051 H1074 0.950 . S
C1052 C1051 1.349 . S
C1052 C1064 1.349 . S
C1053 C1051 1.327 . S
C1053 C1069 1.429 . S
C1053 H1075 0.950 . S
C1054 H1050 0.949 . S
C1054 C1062 1.574 . S
C1054 C1070 1.368 . S
H1055 C1063 0.950 . S
H1056 C1061 0.950 . S
H1057 C1062 0.949 . S
H1058 C1064 0.950 . S
H1059 C1065 0.950 . S
H1060 C1066 0.949 . S
C1061 H1056 0.950 . S
C1061 C1063 1.327 . S
C1061 C1067 1.429 . S
C1062 C1054 1.574 . S
C1062 H1057 0.949 . S
C1062 C1068 1.368 . S
C1063 C1047 1.349 . S
C1063 H1055 0.950 . S
C1063 C1061 1.327 . S
C1064 C1052 1.349 . S
C1064 H1058 0.950 . S
C1064 C1065 1.327 . S
C1065 H1059 0.950 . S
C1065 C1064 1.327 . S
C1065 C1069 1.429 . S
C1066 C1049 1.574 . S
C1066 H1060 0.949 . S
C1066 C1070 1.368 . S
C1067 C1048 1.429 . S
C1067 C1061 1.429 . S
C1067 C1068 1.523 . S
C1068 C1049 1.368 . S
C1068 C1062 1.368 . S
C1068 C1067 1.523 . S
C1069 C1053 1.429 . S
C1069 C1065 1.429 . S
C1069 C1070 1.523 . S
C1070 C1054 1.368 . S
C1070 C1066 1.368 . S
C1070 C1069 1.523 . S
H1071 C1046 0.950 . S
H1072 C1048 0.950 . S
H1073 C1049 0.949 . S
H1074 C1051 0.950 . S
H1075 C1053 0.950 . S
C1076 C1077 1.349 . S
C1076 C1078 1.327 . S
C1076 H1101 0.950 . S
C1077 C1076 1.349 . S
C1077 C1093 1.349 . S
C1078 C1076 1.327 . S
C1078 C1097 1.429 . S
C1078 H1102 0.950 . S
C1079 C1096 1.574 . S
C1079 C1098 1.368 . S
C1079 H1103 0.949 . S
H1080 C1084 0.949 . S
C1081 C1082 1.349 . S
C1081 C1083 1.327 . S
C1081 H1104 0.950 . S
C1082 C1081 1.349 . S
C1082 C1094 1.349 . S
C1083 C1081 1.327 . S
C1083 C1099 1.429 . S
C1083 H1105 0.950 . S
C1084 H1080 0.949 . S
C1084 C1092 1.574 . S
C1084 C1100 1.368 . S
H1085 C1093 0.950 . S
H1086 C1091 0.950 . S
H1087 C1092 0.949 . S
H1088 C1094 0.950 . S
H1089 C1095 0.950 . S
H1090 C1096 0.949 . S
C1091 H1086 0.950 . S
C1091 C1093 1.327 . S
C1091 C1097 1.429 . S
C1092 C1084 1.574 . S
C1092 H1087 0.949 . S
C1092 C1098 1.368 . S
C1093 C1077 1.349 . S
C1093 H1085 0.950 . S
C1093 C1091 1.327 . S
C1094 C1082 1.349 . S
C1094 H1088 0.950 . S
C1094 C1095 1.327 . S
C1095 H1089 0.950 . S
C1095 C1094 1.327 . S
C1095 C1099 1.429 . S
C1096 C1079 1.574 . S
C1096 H1090 0.949 . S
C1096 C1100 1.368 . S
C1097 C1078 1.429 . S
C1097 C1091 1.429 . S
C1097 C1098 1.523 . S
C1098 C1079 1.368 . S
C1098 C1092 1.368 . S
C1098 C1097 1.523 . S
C1099 C1083 1.429 . S
C1099 C1095 1.429 . S
C1099 C1100 1.523 . S
C1100 C1084 1.368 . S
C1100 C1096 1.368 . S
C1100 C1099 1.523 . S
H1101 C1076 0.950 . S
H1102 C1078 0.950 . S
H1103 C1079 0.949 . S
H1104 C1081 0.950 . S
H1105 C1083 0.950 . S
C1106 C1107 1.349 . S
C1106 C1108 1.327 . S
C1106 H1131 0.950 . S
C1107 C1106 1.349 . S
C1107 C1123 1.349 . S
C1108 C1106 1.327 . S
C1108 C1127 1.429 . S
C1108 H1132 0.950 . S
C1109 C1126 1.574 . S
C1109 C1128 1.368 . S
C1109 H1133 0.949 . S
H1110 C1114 0.949 . S
C1111 C1112 1.349 . S
C1111 C1113 1.327 . S
C1111 H1134 0.950 . S
C1112 C1111 1.349 . S
C1112 C1124 1.349 . S
C1113 C1111 1.327 . S
C1113 C1129 1.429 . S
C1113 H1135 0.950 . S
C1114 H1110 0.949 . S
C1114 C1122 1.574 . S
C1114 C1130 1.368 . S
H1115 C1123 0.950 . S
H1116 C1121 0.950 . S
H1117 C1122 0.949 . S
H1118 C1124 0.950 . S
H1119 C1125 0.950 . S
H1120 C1126 0.949 . S
C1121 H1116 0.950 . S
C1121 C1123 1.327 . S
C1121 C1127 1.429 . S
C1122 C1114 1.574 . S
C1122 H1117 0.949 . S
C1122 C1128 1.368 . S
C1123 C1107 1.349 . S
C1123 H1115 0.950 . S
C1123 C1121 1.327 . S
C1124 C1112 1.349 . S
C1124 H1118 0.950 . S
C1124 C1125 1.327 . S
C1125 H1119 0.950 . S
C1125 C1124 1.327 . S
C1125 C1129 1.429 . S
C1126 C1109 1.574 . S
C1126 H1120 0.949 . S
C1126 C1130 1.368 . S
C1127 C1108 1.429 . S
C1127 C1121 1.429 . S
C1127 C1128 1.523 . S
C1128 C1109 1.368 . S
C1128 C1122 1.368 . S
C1128 C1127 1.523 . S
C1129 C1113 1.429 . S
C1129 C1125 1.429 . S
C1129 C1130 1.523 . S
C1130 C1114 1.368 . S
C1130 C1126 1.368 . S
C1130 C1129 1.523 . S
H1131 C1106 0.950 . S
H1132 C1108 0.950 . S
H1133 C1109 0.949 . S
H1134 C1111 0.950 . S
H1135 C1113 0.950 . S
C1136 C1137 1.349 . S
C1136 C1138 1.327 . S
C1136 H1161 0.950 . S
C1137 C1136 1.349 . S
C1137 C1153 1.349 . S
C1138 C1136 1.327 . S
C1138 C1157 1.429 . S
C1138 H1162 0.950 . S
C1139 C1156 1.574 . S
C1139 C1158 1.368 . S
C1139 H1163 0.949 . S
H1140 C1144 0.949 . S
C1141 C1142 1.349 . S
C1141 C1143 1.327 1_545 S
C1141 H1164 0.950 . S
C1142 C1141 1.349 . S
C1142 C1154 1.349 . S
C1143 C1141 1.327 1_565 S
C1143 C1159 1.429 . S
C1143 H1165 0.950 . S
C1144 H1140 0.949 . S
C1144 C1152 1.574 . S
C1144 C1160 1.368 . S
H1145 C1153 0.970 . S
H1146 C1151 0.950 . S
H1147 C1152 0.949 . S
H1148 C1154 0.950 . S
H1149 C1155 0.950 . S
H1150 C1156 0.949 . S
C1151 H1146 0.950 . S
C1151 C1153 1.327 . S
C1151 C1157 1.429 . S
C1152 C1144 1.574 . S
C1152 H1147 0.949 . S
C1152 C1158 1.368 . S
C1153 C1137 1.349 . S
C1153 H1145 0.970 . S
C1153 C1151 1.327 . S
C1154 C1142 1.349 . S
C1154 H1148 0.950 . S
C1154 C1155 1.327 1_545 S
C1155 H1149 0.950 . S
C1155 C1154 1.327 1_565 S
C1155 C1159 1.429 . S
C1156 C1139 1.574 . S
C1156 H1150 0.949 . S
C1156 C1160 1.368 . S
C1157 C1138 1.429 . S
C1157 C1151 1.429 . S
C1157 C1158 1.523 . S
C1158 C1139 1.368 . S
C1158 C1152 1.368 . S
C1158 C1157 1.523 . S
C1159 C1143 1.429 . S
C1159 C1155 1.429 . S
C1159 C1160 1.523 . S
C1160 C1144 1.368 . S
C1160 C1156 1.368 . S
C1160 C1159 1.523 . S
H1161 C1136 0.950 . S
H1162 C1138 0.950 . S
H1163 C1139 0.949 . S
H1164 C1141 0.950 . S
H1165 C1143 0.950 . S
C1166 C1167 1.349 . S
C1166 C1168 1.327 . S
C1166 H1191 0.950 . S
C1167 C1166 1.349 . S
C1167 C1183 1.349 . S
C1168 C1166 1.327 . S
C1168 C1187 1.429 . S
C1168 H1192 0.950 . S
C1169 C1186 1.574 . S
C1169 C1188 1.368 . S
C1169 H1193 0.949 1_554 S
H1170 C1174 0.949 . S
C1171 C1172 1.349 . S
C1171 C1173 1.327 . S
C1171 H1194 0.950 1_554 S
C1172 C1171 1.349 . S
C1172 C1184 1.349 . S
C1173 C1171 1.327 . S
C1173 C1189 1.429 . S
C1173 H1195 0.950 1_554 S
C1174 H1170 0.949 . S
C1174 C1182 1.574 . S
C1174 C1190 1.368 . S
H1175 C1183 0.950 1_556 S
H1176 C1181 0.950 1_556 S
H1177 C1182 0.949 . S
H1178 C1184 0.950 . S
H1179 C1185 0.950 . S
H1180 C1186 0.949 1_556 S
C1181 H1176 0.950 1_554 S
C1181 C1183 1.327 . S
C1181 C1187 1.429 . S
C1182 C1174 1.574 . S
C1182 H1177 0.949 . S
C1182 C1188 1.368 . S
C1183 C1167 1.349 . S
C1183 H1175 0.950 1_554 S
C1183 C1181 1.327 . S
C1184 C1172 1.349 . S
C1184 H1178 0.950 . S
C1184 C1185 1.327 . S
C1185 H1179 0.950 . S
C1185 C1184 1.327 . S
C1185 C1189 1.429 . S
C1186 C1169 1.574 . S
C1186 H1180 0.949 1_554 S
C1186 C1190 1.368 . S
C1187 C1168 1.429 . S
C1187 C1181 1.429 . S
C1187 C1188 1.523 . S
C1188 C1169 1.368 . S
C1188 C1182 1.368 . S
C1188 C1187 1.523 . S
C1189 C1173 1.429 . S
C1189 C1185 1.429 . S
C1189 C1190 1.523 . S
C1190 C1174 1.368 . S
C1190 C1186 1.368 . S
C1190 C1189 1.523 . S
H1191 C1166 0.950 . S
H1192 C1168 0.950 . S
H1193 C1169 0.949 1_556 S
H1194 C1171 0.950 1_556 S
H1195 C1173 0.950 1_556 S
C1196 C1197 1.349 . S
C1196 C1198 1.327 . S
C1196 H1221 0.950 . S
C1197 C1196 1.349 . S
C1197 C1213 1.349 . S
C1198 C1196 1.327 . S
C1198 C1217 1.429 . S
C1198 H1222 0.950 . S
C1199 C1216 1.574 . S
C1199 C1218 1.368 . S
C1199 H1223 0.949 . S
H1200 C1204 0.949 . S
C1201 C1202 1.349 . S
C1201 C1203 1.327 . S
C1201 H1224 0.950 . S
C1202 C1201 1.349 . S
C1202 C1214 1.349 . S
C1203 C1201 1.327 . S
C1203 C1219 1.429 . S
C1203 H1225 0.950 . S
C1204 H1200 0.949 . S
C1204 C1212 1.574 . S
C1204 C1220 1.368 . S
H1205 C1213 0.950 . S
H1206 C1211 0.950 . S
H1207 C1212 0.949 . S
H1208 C1214 0.950 . S
H1209 C1215 0.950 . S
H1210 C1216 0.949 . S
C1211 H1206 0.950 . S
C1211 C1213 1.327 . S
C1211 C1217 1.429 . S
C1212 C1204 1.574 . S
C1212 H1207 0.949 . S
C1212 C1218 1.368 . S
C1213 C1197 1.349 . S
C1213 H1205 0.950 . S
C1213 C1211 1.327 . S
C1214 C1202 1.349 . S
C1214 H1208 0.950 . S
C1214 C1215 1.327 . S
C1215 H1209 0.950 . S
C1215 C1214 1.327 . S
C1215 C1219 1.429 . S
C1216 C1199 1.574 . S
C1216 H1210 0.949 . S
C1216 C1220 1.368 . S
C1217 C1198 1.429 . S
C1217 C1211 1.429 . S
C1217 C1218 1.523 . S
C1218 C1199 1.368 . S
C1218 C1212 1.368 . S
C1218 C1217 1.523 . S
C1219 C1203 1.429 . S
C1219 C1215 1.429 . S
C1219 C1220 1.523 . S
C1220 C1204 1.368 . S
C1220 C1216 1.368 . S
C1220 C1219 1.523 . S
H1221 C1196 0.950 . S
H1222 C1198 0.950 . S
H1223 C1199 0.949 . S
H1224 C1201 0.950 . S
H1225 C1203 0.950 . S
C1226 C1227 1.349 . S
C1226 C1228 1.327 . S
C1226 H1251 0.950 . S
C1227 C1226 1.349 . S
C1227 C1243 1.349 . S
C1228 C1226 1.327 . S
C1228 C1247 1.429 . S
C1228 H1252 0.950 . S
C1229 C1246 1.574 . S
C1229 C1248 1.368 . S
C1229 H1253 0.949 . S
H1230 C1234 0.949 . S
C1231 C1232 1.349 . S
C1231 C1233 1.327 . S
C1231 H1254 0.950 . S
C1232 C1231 1.349 . S
C1232 C1244 1.349 . S
C1233 C1231 1.327 . S
C1233 C1249 1.429 . S
C1233 H1255 0.950 . S
C1234 H1230 0.949 . S
C1234 C1242 1.574 . S
C1234 C1250 1.368 . S
H1235 C1243 0.950 . S
H1236 C1241 0.950 . S
H1237 C1242 0.949 . S
H1238 C1244 0.950 . S
H1239 C1245 0.950 . S
H1240 C1246 0.949 . S
C1241 H1236 0.950 . S
C1241 C1243 1.327 . S
C1241 C1247 1.429 . S
C1242 C1234 1.574 . S
C1242 H1237 0.949 . S
C1242 C1248 1.368 . S
C1243 C1227 1.349 . S
C1243 H1235 0.950 . S
C1243 C1241 1.327 . S
C1244 C1232 1.349 . S
C1244 H1238 0.950 . S
C1244 C1245 1.327 . S
C1245 H1239 0.950 . S
C1245 C1244 1.327 . S
C1245 C1249 1.429 . S
C1246 C1229 1.574 . S
C1246 H1240 0.949 . S
C1246 C1250 1.368 . S
C1247 C1228 1.429 . S
C1247 C1241 1.429 . S
C1247 C1248 1.523 . S
C1248 C1229 1.368 . S
C1248 C1242 1.368 . S
C1248 C1247 1.523 . S
C1249 C1233 1.429 . S
C1249 C1245 1.429 . S
C1249 C1250 1.523 . S
C1250 C1234 1.368 . S
C1250 C1246 1.368 . S
C1250 C1249 1.523 . S
H1251 C1226 0.950 . S
H1252 C1228 0.950 . S
H1253 C1229 0.949 . S
H1254 C1231 0.950 . S
H1255 C1233 0.950 . S
C1256 C1257 1.349 . S
C1256 C1258 1.327 . S
C1256 H1281 0.950 . S
C1257 C1256 1.349 . S
C1257 C1273 1.349 . S
C1258 C1256 1.327 . S
C1258 C1277 1.429 . S
C1258 H1282 0.950 . S
C1259 C1276 1.574 . S
C1259 C1278 1.368 . S
C1259 H1283 0.949 . S
H1260 C1264 0.949 . S
C1261 C1262 1.349 . S
C1261 C1263 1.327 . S
C1261 H1284 0.950 . S
C1262 C1261 1.349 . S
C1262 C1274 1.349 . S
C1263 C1261 1.327 . S
C1263 C1279 1.429 . S
C1263 H1285 0.950 . S
C1264 H1260 0.949 . S
C1264 C1272 1.574 . S
C1264 C1280 1.368 . S
H1265 C1273 0.950 . S
H1266 C1271 0.950 . S
H1267 C1272 0.949 . S
H1268 C1274 0.950 . S
H1269 C1275 0.950 . S
H1270 C1276 0.949 . S
C1271 H1266 0.950 . S
C1271 C1273 1.327 . S
C1271 C1277 1.429 . S
C1272 C1264 1.574 . S
C1272 H1267 0.949 . S
C1272 C1278 1.368 . S
C1273 C1257 1.349 . S
C1273 H1265 0.950 . S
C1273 C1271 1.327 . S
C1274 C1262 1.349 . S
C1274 H1268 0.950 . S
C1274 C1275 1.327 . S
C1275 H1269 0.950 . S
C1275 C1274 1.327 . S
C1275 C1279 1.429 . S
C1276 C1259 1.574 . S
C1276 H1270 0.949 . S
C1276 C1280 1.368 . S
C1277 C1258 1.429 . S
C1277 C1271 1.429 . S
C1277 C1278 1.523 . S
C1278 C1259 1.368 . S
C1278 C1272 1.368 . S
C1278 C1277 1.523 . S
C1279 C1263 1.429 . S
C1279 C1275 1.429 . S
C1279 C1280 1.523 . S
C1280 C1264 1.368 . S
C1280 C1276 1.368 . S
C1280 C1279 1.523 . S
H1281 C1256 0.950 . S
H1282 C1258 0.950 . S
H1283 C1259 0.949 . S
H1284 C1261 0.950 . S
H1285 C1263 0.950 . S
C1286 C1287 1.349 . S
C1286 C1288 1.327 . S
C1286 H1311 0.950 . S
C1287 C1286 1.349 . S
C1287 C1303 1.349 . S
C1288 C1286 1.327 . S
C1288 C1307 1.429 . S
C1288 H1312 0.950 . S
C1289 C1306 1.574 . S
C1289 C1308 1.368 . S
C1289 H1313 0.949 . S
H1290 C1294 0.949 . S
C1291 C1292 1.349 . S
C1291 C1293 1.327 . S
C1291 H1314 0.950 . S
C1292 C1291 1.349 . S
C1292 C1304 1.349 . S
C1293 C1291 1.327 . S
C1293 C1309 1.429 . S
C1293 H1315 0.950 . S
C1294 H1290 0.949 . S
C1294 C1302 1.574 . S
C1294 C1310 1.368 . S
H1295 C1303 0.950 . S
H1296 C1301 0.950 . S
H1297 C1302 0.949 . S
H1298 C1304 0.950 . S
H1299 C1305 0.950 . S
H1300 C1306 0.949 . S
C1301 H1296 0.950 . S
C1301 C1303 1.327 . S
C1301 C1307 1.429 . S
C1302 C1294 1.574 . S
C1302 H1297 0.949 . S
C1302 C1308 1.368 . S
C1303 C1287 1.349 . S
C1303 H1295 0.950 . S
C1303 C1301 1.327 . S
C1304 C1292 1.349 . S
C1304 H1298 0.950 . S
C1304 C1305 1.327 . S
C1305 H1299 0.950 . S
C1305 C1304 1.327 . S
C1305 C1309 1.429 . S
C1306 C1289 1.574 . S
C1306 H1300 0.949 . S
C1306 C1310 1.368 . S
C1307 C1288 1.429 . S
C1307 C1301 1.429 . S
C1307 C1308 1.523 . S
C1308 C1289 1.368 . S
C1308 C1302 1.368 . S
C1308 C1307 1.523 . S
C1309 C1293 1.429 . S
C1309 C1305 1.429 . S
C1309 C1310 1.523 . S
C1310 C1294 1.368 . S
C1310 C1306 1.368 . S
C1310 C1309 1.523 . S
H1311 C1286 0.950 . S
H1312 C1288 0.950 . S
H1313 C1289 0.949 . S
H1314 C1291 0.950 . S
H1315 C1293 0.950 . S
C1316 C1317 1.349 . S
C1316 C1318 1.327 . S
C1316 H1341 0.950 . S
C1317 C1316 1.349 . S
C1317 C1333 1.349 . S
C1318 C1316 1.327 . S
C1318 C1337 1.429 . S
C1318 H1342 0.950 . S
C1319 C1336 1.574 . S
C1319 C1338 1.368 . S
C1319 H1343 0.949 . S
H1320 C1324 0.949 . S
C1321 C1322 1.349 . S
C1321 C1323 1.327 . S
C1321 H1344 0.950 . S
C1322 C1321 1.349 . S
C1322 C1334 1.349 . S
C1323 C1321 1.327 . S
C1323 C1339 1.429 . S
C1323 H1345 0.950 . S
C1324 H1320 0.949 . S
C1324 C1332 1.574 . S
C1324 C1340 1.368 . S
H1325 C1333 0.950 . S
H1326 C1331 0.950 . S
H1327 C1332 0.949 . S
H1328 C1334 0.950 . S
H1329 C1335 0.950 . S
H1330 C1336 0.949 . S
C1331 H1326 0.950 . S
C1331 C1333 1.327 . S
C1331 C1337 1.429 . S
C1332 C1324 1.574 . S
C1332 H1327 0.949 . S
C1332 C1338 1.368 . S
C1333 C1317 1.349 . S
C1333 H1325 0.950 . S
C1333 C1331 1.327 . S
C1334 C1322 1.349 . S
C1334 H1328 0.950 . S
C1334 C1335 1.327 . S
C1335 H1329 0.950 . S
C1335 C1334 1.327 . S
C1335 C1339 1.429 . S
C1336 C1319 1.574 . S
C1336 H1330 0.949 . S
C1336 C1340 1.368 . S
C1337 C1318 1.429 . S
C1337 C1331 1.429 . S
C1337 C1338 1.523 . S
C1338 C1319 1.368 . S
C1338 C1332 1.368 . S
C1338 C1337 1.523 . S
C1339 C1323 1.429 . S
C1339 C1335 1.429 . S
C1339 C1340 1.523 . S
C1340 C1324 1.368 . S
C1340 C1336 1.368 . S
C1340 C1339 1.523 . S
H1341 C1316 0.950 . S
H1342 C1318 0.950 . S
H1343 C1319 0.949 . S
H1344 C1321 0.950 . S
H1345 C1323 0.950 . S
C1346 C1347 1.349 . S
C1346 C1348 1.327 . S
C1346 H1371 0.950 . S
C1347 C1346 1.349 . S
C1347 C1363 1.349 . S
C1348 C1346 1.327 . S
C1348 C1367 1.429 . S
C1348 H1372 0.950 . S
C1349 C1366 1.574 . S
C1349 C1368 1.368 . S
C1349 H1373 0.949 . S
H1350 C1354 0.949 . S
C1351 C1352 1.349 . S
C1351 C1353 1.327 . S
C1351 H1374 0.950 . S
C1352 C1351 1.349 . S
C1352 C1364 1.349 . S
C1353 C1351 1.327 . S
C1353 C1369 1.429 . S
C1353 H1375 0.950 . S
C1354 H1350 0.949 . S
C1354 C1362 1.574 . S
C1354 C1370 1.368 . S
H1355 C1363 0.950 . S
H1356 C1361 0.950 . S
H1357 C1362 0.949 . S
H1358 C1364 0.950 . S
H1359 C1365 0.950 . S
H1360 C1366 0.949 . S
C1361 H1356 0.950 . S
C1361 C1363 1.327 . S
C1361 C1367 1.429 . S
C1362 C1354 1.574 . S
C1362 H1357 0.949 . S
C1362 C1368 1.368 . S
C1363 C1347 1.349 . S
C1363 H1355 0.950 . S
C1363 C1361 1.327 . S
C1364 C1352 1.349 . S
C1364 H1358 0.950 . S
C1364 C1365 1.327 . S
C1365 H1359 0.950 . S
C1365 C1364 1.327 . S
C1365 C1369 1.429 . S
C1366 C1349 1.574 . S
C1366 H1360 0.949 . S
C1366 C1370 1.368 . S
C1367 C1348 1.429 . S
C1367 C1361 1.429 . S
C1367 C1368 1.523 . S
C1368 C1349 1.368 . S
C1368 C1362 1.368 . S
C1368 C1367 1.523 . S
C1369 C1353 1.429 . S
C1369 C1365 1.429 . S
C1369 C1370 1.523 . S
C1370 C1354 1.368 . S
C1370 C1366 1.368 . S
C1370 C1369 1.523 . S
H1371 C1346 0.950 . S
H1372 C1348 0.950 . S
H1373 C1349 0.949 . S
H1374 C1351 0.950 . S
H1375 C1353 0.950 . S
C1376 C1377 1.349 . S
C1376 C1378 1.327 . S
C1376 H1401 0.950 . S
C1377 C1376 1.349 . S
C1377 C1393 1.349 . S
C1378 C1376 1.327 . S
C1378 C1397 1.429 . S
C1378 H1402 0.950 . S
C1379 C1396 1.574 . S
C1379 C1398 1.368 . S
C1379 H1403 0.949 . S
H1380 C1384 0.949 . S
C1381 C1382 1.349 . S
C1381 C1383 1.327 . S
C1381 H1404 0.950 . S
C1382 C1381 1.349 . S
C1382 C1394 1.349 . S
C1383 C1381 1.327 . S
C1383 C1399 1.429 . S
C1383 H1405 0.950 . S
C1384 H1380 0.949 . S
C1384 C1392 1.574 . S
C1384 C1400 1.368 . S
H1385 C1393 0.950 . S
H1386 C1391 0.950 . S
H1387 C1392 0.949 . S
H1388 C1394 0.950 1_655 S
H1389 C1395 0.947 1_655 S
H1390 C1396 0.949 . S
C1391 H1386 0.950 . S
C1391 C1393 1.327 . S
C1391 C1397 1.429 . S
C1392 C1384 1.574 . S
C1392 H1387 0.949 . S
C1392 C1398 1.368 . S
C1393 C1377 1.349 . S
C1393 H1385 0.950 . S
C1393 C1391 1.327 . S
C1394 C1382 1.349 . S
C1394 H1388 0.950 1_455 S
C1394 C1395 1.327 . S
C1395 H1389 0.947 1_455 S
C1395 C1394 1.327 . S
C1395 C1399 1.429 . S
C1396 C1379 1.574 . S
C1396 H1390 0.949 . S
C1396 C1400 1.368 . S
C1397 C1378 1.429 . S
C1397 C1391 1.429 . S
C1397 C1398 1.523 . S
C1398 C1379 1.368 . S
C1398 C1392 1.368 . S
C1398 C1397 1.523 . S
C1399 C1383 1.429 . S
C1399 C1395 1.429 . S
C1399 C1400 1.523 . S
C1400 C1384 1.368 . S
C1400 C1396 1.368 . S
C1400 C1399 1.523 . S
H1401 C1376 0.950 . S
H1402 C1378 0.950 . S
H1403 C1379 0.949 . S
H1404 C1381 0.950 . S
H1405 C1383 0.950 . S
C1406 C1407 1.349 . S
C1406 C1408 1.327 . S
C1406 H1431 0.950 . S
C1407 C1406 1.349 . S
C1407 C1423 1.349 . S
C1408 C1406 1.327 . S
C1408 C1427 1.429 . S
C1408 H1432 0.950 . S
C1409 C1426 1.574 . S
C1409 C1428 1.368 . S
C1409 H1433 0.949 . S
H1410 C1414 0.949 . S
C1411 C1412 1.349 . S
C1411 C1413 1.327 . S
C1411 H1434 0.950 . S
C1412 C1411 1.349 . S
C1412 C1424 1.349 . S
C1413 C1411 1.327 . S
C1413 C1429 1.429 . S
C1413 H1435 0.950 . S
C1414 H1410 0.949 . S
C1414 C1422 1.574 . S
C1414 C1430 1.368 . S
H1415 C1423 0.950 . S
H1416 C1421 0.950 . S
H1417 C1422 0.949 . S
H1418 C1424 0.950 . S
H1419 C1425 0.950 . S
H1420 C1426 0.949 . S
C1421 H1416 0.950 . S
C1421 C1423 1.327 . S
C1421 C1427 1.429 . S
C1422 C1414 1.574 . S
C1422 H1417 0.949 . S
C1422 C1428 1.368 . S
C1423 C1407 1.349 . S
C1423 H1415 0.950 . S
C1423 C1421 1.327 . S
C1424 C1412 1.349 . S
C1424 H1418 0.950 . S
C1424 C1425 1.327 . S
C1425 H1419 0.950 . S
C1425 C1424 1.327 . S
C1425 C1429 1.429 . S
C1426 C1409 1.574 . S
C1426 H1420 0.949 . S
C1426 C1430 1.368 . S
C1427 C1408 1.429 . S
C1427 C1421 1.429 . S
C1427 C1428 1.523 . S
C1428 C1409 1.368 . S
C1428 C1422 1.368 . S
C1428 C1427 1.523 . S
C1429 C1413 1.429 . S
C1429 C1425 1.429 . S
C1429 C1430 1.523 . S
C1430 C1414 1.368 . S
C1430 C1426 1.368 . S
C1430 C1429 1.523 . S
H1431 C1406 0.950 . S
H1432 C1408 0.950 . S
H1433 C1409 0.949 . S
H1434 C1411 0.950 . S
H1435 C1413 0.950 . S
C1436 C1437 1.349 . S
C1436 C1438 1.327 . S
C1436 H1461 0.950 . S
C1437 C1436 1.349 . S
C1437 C1453 1.349 . S
C1438 C1436 1.327 . S
C1438 C1457 1.429 . S
C1438 H1462 0.950 . S
C1439 C1456 1.574 . S
C1439 C1458 1.368 . S
C1439 H1463 0.949 . S
H1440 C1444 0.949 . S
C1441 C1442 1.349 . S
C1441 C1443 1.327 . S
C1441 H1464 0.950 . S
C1442 C1441 1.349 . S
C1442 C1454 1.349 . S
C1443 C1441 1.327 . S
C1443 C1459 1.429 . S
C1443 H1465 0.950 . S
C1444 H1440 0.949 . S
C1444 C1452 1.574 . S
C1444 C1460 1.368 . S
H1445 C1453 0.950 . S
H1446 C1451 0.950 . S
H1447 C1452 0.949 . S
H1448 C1454 0.950 . S
H1449 C1455 0.950 . S
H1450 C1456 0.949 . S
C1451 H1446 0.950 . S
C1451 C1453 1.327 . S
C1451 C1457 1.429 . S
C1452 C1444 1.574 . S
C1452 H1447 0.949 . S
C1452 C1458 1.368 . S
C1453 C1437 1.349 . S
C1453 H1445 0.950 . S
C1453 C1451 1.327 . S
C1454 C1442 1.349 . S
C1454 H1448 0.950 . S
C1454 C1455 1.327 . S
C1455 H1449 0.950 . S
C1455 C1454 1.327 . S
C1455 C1459 1.429 . S
C1456 C1439 1.574 . S
C1456 H1450 0.949 . S
C1456 C1460 1.368 . S
C1457 C1438 1.429 . S
C1457 C1451 1.429 . S
C1457 C1458 1.523 . S
C1458 C1439 1.368 . S
C1458 C1452 1.368 . S
C1458 C1457 1.523 . S
C1459 C1443 1.429 . S
C1459 C1455 1.429 . S
C1459 C1460 1.523 . S
C1460 C1444 1.368 . S
C1460 C1456 1.368 . S
C1460 C1459 1.523 . S
H1461 C1436 0.950 . S
H1462 C1438 0.950 . S
H1463 C1439 0.949 . S
H1464 C1441 0.950 . S
H1465 C1443 0.950 . S
C1466 C1467 1.349 . S
C1466 C1468 1.327 . S
C1466 H1491 0.950 . S
C1467 C1466 1.349 . S
C1467 C1483 1.349 . S
C1468 C1466 1.327 . S
C1468 C1487 1.429 . S
C1468 H1492 0.950 . S
C1469 C1486 1.574 . S
C1469 C1488 1.368 . S
C1469 H1493 0.949 . S
H1470 C1474 0.949 . S
C1471 C1472 1.349 . S
C1471 C1473 1.327 . S
C1471 H1494 0.950 . S
C1472 C1471 1.349 . S
C1472 C1484 1.349 . S
C1473 C1471 1.327 . S
C1473 C1489 1.429 . S
C1473 H1495 0.950 . S
C1474 H1470 0.949 . S
C1474 C1482 1.574 . S
C1474 C1490 1.368 . S
H1475 C1483 0.950 . S
H1476 C1481 0.950 . S
H1477 C1482 0.949 . S
H1478 C1484 0.950 . S
H1479 C1485 0.950 . S
H1480 C1486 0.949 . S
C1481 H1476 0.950 . S
C1481 C1483 1.327 . S
C1481 C1487 1.429 . S
C1482 C1474 1.574 . S
C1482 H1477 0.949 . S
C1482 C1488 1.368 . S
C1483 C1467 1.349 . S
C1483 H1475 0.950 . S
C1483 C1481 1.327 . S
C1484 C1472 1.349 . S
C1484 H1478 0.950 . S
C1484 C1485 1.327 . S
C1485 H1479 0.950 . S
C1485 C1484 1.327 . S
C1485 C1489 1.429 . S
C1486 C1469 1.574 . S
C1486 H1480 0.949 . S
C1486 C1490 1.368 . S
C1487 C1468 1.429 . S
C1487 C1481 1.429 . S
C1487 C1488 1.523 . S
C1488 C1469 1.368 . S
C1488 C1482 1.368 . S
C1488 C1487 1.523 . S
C1489 C1473 1.429 . S
C1489 C1485 1.429 . S
C1489 C1490 1.523 . S
C1490 C1474 1.368 . S
C1490 C1486 1.368 . S
C1490 C1489 1.523 . S
H1491 C1466 0.950 . S
H1492 C1468 0.950 . S
H1493 C1469 0.949 . S
H1494 C1471 0.950 . S
H1495 C1473 0.950 . S
C1496 C1497 1.349 . S
C1496 C1498 1.327 . S
C1496 H1521 0.950 . S
C1497 C1496 1.349 . S
C1497 C1513 1.347 . S
C1498 C1496 1.327 . S
C1498 C1517 1.429 . S
C1498 H1522 0.950 . S
C1499 C1516 1.574 . S
C1499 C1518 1.368 1_655 S
C1499 H1523 0.949 . S
H1500 C1504 0.949 . S
C1501 C1502 1.349 1_655 S
C1501 C1503 1.327 . S
C1501 H1524 0.950 . S
C1502 C1501 1.349 1_455 S
C1502 C1514 1.349 . S
C1503 C1501 1.327 . S
C1503 C1519 1.429 1_655 S
C1503 H1525 0.950 . S
C1504 H1500 0.949 . S
C1504 C1512 1.574 . S
C1504 C1520 1.368 . S
H1505 C1513 0.952 1_655 S
H1506 C1511 0.962 . S
H1507 C1512 0.949 . S
H1508 C1514 0.950 . S
H1509 C1515 0.950 . S
H1510 C1516 0.949 . S
C1511 H1506 0.962 . S
C1511 C1513 1.329 1_655 S
C1511 C1517 1.414 1_655 S
C1512 C1504 1.574 . S
C1512 H1507 0.949 . S
C1512 C1518 1.368 . S
C1513 C1497 1.347 . S
C1513 H1505 0.952 1_455 S
C1513 C1511 1.329 1_455 S
C1514 C1502 1.349 . S
C1514 H1508 0.950 . S
C1514 C1515 1.327 . S
C1515 H1509 0.950 . S
C1515 C1514 1.327 . S
C1515 C1519 1.429 . S
C1516 C1499 1.574 . S
C1516 H1510 0.949 . S
C1516 C1520 1.368 1_655 S
C1517 C1498 1.429 . S
C1517 C1511 1.414 1_455 S
C1517 C1518 1.523 . S
C1518 C1499 1.368 1_455 S
C1518 C1512 1.368 . S
C1518 C1517 1.523 . S
C1519 C1503 1.429 1_455 S
C1519 C1515 1.429 . S
C1519 C1520 1.523 . S
C1520 C1504 1.368 . S
C1520 C1516 1.368 1_455 S
C1520 C1519 1.523 . S
H1521 C1496 0.950 . S
H1522 C1498 0.950 . S
H1523 C1499 0.949 . S
H1524 C1501 0.950 . S
H1525 C1503 0.950 . S
C1526 C1527 1.349 . S
C1526 C1528 1.327 . S
C1526 H1551 0.950 . S
C1527 C1526 1.349 . S
C1527 C1543 1.349 . S
C1528 C1526 1.327 . S
C1528 C1547 1.429 . S
C1528 H1552 0.950 . S
C1529 C1546 1.574 . S
C1529 C1548 1.368 . S
C1529 H1553 0.949 . S
H1530 C1534 0.949 . S
C1531 C1532 1.349 . S
C1531 C1533 1.327 . S
C1531 H1554 0.950 . S
C1532 C1531 1.349 . S
C1532 C1544 1.349 . S
C1533 C1531 1.327 . S
C1533 C1549 1.429 . S
C1533 H1555 0.950 . S
C1534 H1530 0.949 . S
C1534 C1542 1.574 . S
C1534 C1550 1.368 . S
H1535 C1543 0.950 . S
H1536 C1541 0.950 . S
H1537 C1542 0.949 . S
H1538 C1544 0.950 . S
H1539 C1545 0.950 . S
H1540 C1546 0.949 . S
C1541 H1536 0.950 . S
C1541 C1543 1.327 . S
C1541 C1547 1.429 . S
C1542 C1534 1.574 . S
C1542 H1537 0.949 . S
C1542 C1548 1.368 . S
C1543 C1527 1.349 . S
C1543 H1535 0.950 . S
C1543 C1541 1.327 . S
C1544 C1532 1.349 . S
C1544 H1538 0.950 . S
C1544 C1545 1.327 . S
C1545 H1539 0.950 . S
C1545 C1544 1.327 . S
C1545 C1549 1.429 . S
C1546 C1529 1.574 . S
C1546 H1540 0.949 . S
C1546 C1550 1.368 . S
C1547 C1528 1.429 . S
C1547 C1541 1.429 . S
C1547 C1548 1.523 . S
C1548 C1529 1.368 . S
C1548 C1542 1.368 . S
C1548 C1547 1.523 . S
C1549 C1533 1.429 . S
C1549 C1545 1.429 . S
C1549 C1550 1.523 . S
C1550 C1534 1.368 . S
C1550 C1546 1.368 . S
C1550 C1549 1.523 . S
H1551 C1526 0.950 . S
H1552 C1528 0.950 . S
H1553 C1529 0.949 . S
H1554 C1531 0.950 . S
H1555 C1533 0.950 . S
C1556 C1557 1.349 . S
C1556 C1558 1.327 . S
C1556 H1581 0.950 . S
C1557 C1556 1.349 . S
C1557 C1573 1.349 . S
C1558 C1556 1.327 . S
C1558 C1577 1.429 . S
C1558 H1582 0.950 . S
C1559 C1576 1.574 . S
C1559 C1578 1.368 . S
C1559 H1583 0.949 . S
H1560 C1564 0.949 . S
C1561 C1562 1.349 1_556 S
C1561 C1563 1.327 . S
C1561 H1584 0.950 . S
C1562 C1561 1.349 1_554 S
C1562 C1574 1.349 . S
C1563 C1561 1.327 . S
C1563 C1579 1.429 . S
C1563 H1585 0.950 . S
C1564 H1560 0.949 . S
C1564 C1572 1.574 . S
C1564 C1580 1.368 . S
H1565 C1573 0.950 . S
H1566 C1571 0.950 . S
H1567 C1572 0.949 . S
H1568 C1574 0.950 . S
H1569 C1575 0.941 1_554 S
H1570 C1576 0.949 . S
C1571 H1566 0.950 . S
C1571 C1573 1.327 . S
C1571 C1577 1.429 . S
C1572 C1564 1.574 . S
C1572 H1567 0.949 . S
C1572 C1578 1.368 . S
C1573 C1557 1.349 . S
C1573 H1565 0.950 . S
C1573 C1571 1.327 . S
C1574 C1562 1.349 . S
C1574 H1568 0.950 . S
C1574 C1575 1.317 1_554 S
C1575 H1569 0.941 1_556 S
C1575 C1574 1.317 1_556 S
C1575 C1579 1.448 . S
C1576 C1559 1.574 . S
C1576 H1570 0.949 . S
C1576 C1580 1.368 . S
C1577 C1558 1.429 . S
C1577 C1571 1.429 . S
C1577 C1578 1.523 . S
C1578 C1559 1.368 . S
C1578 C1572 1.368 . S
C1578 C1577 1.523 . S
C1579 C1563 1.429 . S
C1579 C1575 1.448 . S
C1579 C1580 1.523 . S
C1580 C1564 1.368 . S
C1580 C1576 1.368 . S
C1580 C1579 1.523 . S
H1581 C1556 0.950 . S
H1582 C1558 0.950 . S
H1583 C1559 0.949 . S
H1584 C1561 0.950 . S
H1585 C1563 0.950 . S
C1586 C1587 1.349 . S
C1586 C1588 1.327 . S
C1586 H1611 0.950 . S
C1587 C1586 1.349 . S
C1587 C1603 1.349 . S
C1588 C1586 1.327 . S
C1588 C1607 1.429 . S
C1588 H1612 0.950 . S
C1589 C1606 1.574 . S
C1589 C1608 1.368 . S
C1589 H1613 0.949 . S
H1590 C1594 0.949 . S
C1591 C1592 1.349 . S
C1591 C1593 1.327 . S
C1591 H1614 0.950 . S
C1592 C1591 1.349 . S
C1592 C1604 1.349 . S
C1593 C1591 1.327 . S
C1593 C1609 1.429 . S
C1593 H1615 0.950 . S
C1594 H1590 0.949 . S
C1594 C1602 1.574 . S
C1594 C1610 1.368 . S
H1595 C1603 0.950 . S
H1596 C1601 0.950 . S
H1597 C1602 0.949 . S
H1598 C1604 0.950 . S
H1599 C1605 0.950 . S
H1600 C1606 0.949 . S
C1601 H1596 0.950 . S
C1601 C1603 1.327 . S
C1601 C1607 1.429 . S
C1602 C1594 1.574 . S
C1602 H1597 0.949 . S
C1602 C1608 1.368 . S
C1603 C1587 1.349 . S
C1603 H1595 0.950 . S
C1603 C1601 1.327 . S
C1604 C1592 1.349 . S
C1604 H1598 0.950 . S
C1604 C1605 1.327 . S
C1605 H1599 0.950 . S
C1605 C1604 1.327 . S
C1605 C1609 1.429 . S
C1606 C1589 1.574 . S
C1606 H1600 0.949 . S
C1606 C1610 1.368 . S
C1607 C1588 1.429 . S
C1607 C1601 1.429 . S
C1607 C1608 1.523 . S
C1608 C1589 1.368 . S
C1608 C1602 1.368 . S
C1608 C1607 1.523 . S
C1609 C1593 1.429 . S
C1609 C1605 1.429 . S
C1609 C1610 1.523 . S
C1610 C1594 1.368 . S
C1610 C1606 1.368 . S
C1610 C1609 1.523 . S
H1611 C1586 0.950 . S
H1612 C1588 0.950 . S
H1613 C1589 0.949 . S
H1614 C1591 0.950 . S
H1615 C1593 0.950 . S
C1616 C1617 1.349 . S
C1616 C1618 1.327 . S
C1616 H1641 0.950 . S
C1617 C1616 1.349 . S
C1617 C1633 1.349 1_545 S
C1618 C1616 1.327 . S
C1618 C1637 1.429 . S
C1618 H1642 0.950 . S
C1619 C1636 1.574 . S
C1619 C1638 1.368 1_565 S
C1619 H1643 0.949 . S
H1620 C1624 0.949 . S
C1621 C1622 1.349 . S
C1621 C1623 1.327 . S
C1621 H1644 0.950 1_545 S
C1622 C1621 1.349 . S
C1622 C1634 1.349 . S
C1623 C1621 1.327 . S
C1623 C1639 1.429 . S
C1623 H1645 0.950 1_545 S
C1624 H1620 0.949 . S
C1624 C1632 1.574 . S
C1624 C1640 1.368 . S
H1625 C1633 0.950 . S
H1626 C1631 0.950 . S
H1627 C1632 0.949 . S
H1628 C1634 0.950 . S
H1629 C1635 0.950 . S
H1630 C1636 0.949 . S
C1631 H1626 0.950 . S
C1631 C1633 1.327 . S
C1631 C1637 1.429 1_565 S
C1632 C1624 1.574 . S
C1632 H1627 0.949 . S
C1632 C1638 1.368 . S
C1633 C1617 1.349 1_565 S
C1633 H1625 0.950 . S
C1633 C1631 1.327 . S
C1634 C1622 1.349 . S
C1634 H1628 0.950 . S
C1634 C1635 1.327 . S
C1635 H1629 0.950 . S
C1635 C1634 1.327 . S
C1635 C1639 1.429 . S
C1636 C1619 1.574 . S
C1636 H1630 0.949 . S
C1636 C1640 1.368 1_565 S
C1637 C1618 1.429 . S
C1637 C1631 1.429 1_545 S
C1637 C1638 1.523 . S
C1638 C1619 1.368 1_545 S
C1638 C1632 1.368 . S
C1638 C1637 1.523 . S
C1639 C1623 1.429 . S
C1639 C1635 1.429 . S
C1639 C1640 1.523 . S
C1640 C1624 1.368 . S
C1640 C1636 1.368 1_545 S
C1640 C1639 1.523 . S
H1641 C1616 0.950 . S
H1642 C1618 0.950 . S
H1643 C1619 0.949 . S
H1644 C1621 0.950 1_565 S
H1645 C1623 0.950 1_565 S
C1646 C1647 1.349 . S
C1646 C1648 1.327 . S
C1646 H1671 0.950 . S
C1647 C1646 1.349 . S
C1647 C1663 1.349 . S
C1648 C1646 1.327 . S
C1648 C1667 1.429 . S
C1648 H1672 0.950 . S
C1649 C1666 1.574 . S
C1649 C1668 1.368 . S
C1649 H1673 0.949 . S
H1650 C1654 0.949 . S
C1651 C1652 1.349 . S
C1651 C1653 1.327 . S
C1651 H1674 0.950 . S
C1652 C1651 1.349 . S
C1652 C1664 1.349 . S
C1653 C1651 1.327 . S
C1653 C1669 1.429 . S
C1653 H1675 0.950 . S
C1654 H1650 0.949 . S
C1654 C1662 1.574 . S
C1654 C1670 1.368 . S
H1655 C1663 0.950 . S
H1656 C1661 0.950 . S
H1657 C1662 0.949 . S
H1658 C1664 0.950 . S
H1659 C1665 0.950 . S
H1660 C1666 0.949 . S
C1661 H1656 0.950 . S
C1661 C1663 1.327 . S
C1661 C1667 1.429 . S
C1662 C1654 1.574 . S
C1662 H1657 0.949 . S
C1662 C1668 1.368 . S
C1663 C1647 1.349 . S
C1663 H1655 0.950 . S
C1663 C1661 1.327 . S
C1664 C1652 1.349 . S
C1664 H1658 0.950 . S
C1664 C1665 1.327 . S
C1665 H1659 0.950 . S
C1665 C1664 1.327 . S
C1665 C1669 1.429 . S
C1666 C1649 1.574 . S
C1666 H1660 0.949 . S
C1666 C1670 1.368 . S
C1667 C1648 1.429 . S
C1667 C1661 1.429 . S
C1667 C1668 1.523 . S
C1668 C1649 1.368 . S
C1668 C1662 1.368 . S
C1668 C1667 1.523 . S
C1669 C1653 1.429 . S
C1669 C1665 1.429 . S
C1669 C1670 1.523 . S
C1670 C1654 1.368 . S
C1670 C1666 1.368 . S
C1670 C1669 1.523 . S
H1671 C1646 0.950 . S
H1672 C1648 0.950 . S
H1673 C1649 0.949 . S
H1674 C1651 0.950 . S
H1675 C1653 0.950 . S
C1676 C1677 1.349 . S
C1676 C1678 1.327 . S
C1676 H1701 0.950 . S
C1677 C1676 1.349 . S
C1677 C1693 1.349 . S
C1678 C1676 1.327 . S
C1678 C1697 1.429 . S
C1678 H1702 0.950 . S
C1679 C1696 1.574 . S
C1679 C1698 1.368 . S
C1679 H1703 0.949 . S
H1680 C1684 0.949 . S
C1681 C1682 1.349 . S
C1681 C1683 1.327 . S
C1681 H1704 0.950 . S
C1682 C1681 1.349 . S
C1682 C1694 1.349 . S
C1683 C1681 1.327 . S
C1683 C1699 1.429 . S
C1683 H1705 0.950 . S
C1684 H1680 0.949 . S
C1684 C1692 1.574 . S
C1684 C1700 1.368 . S
H1685 C1693 0.950 . S
H1686 C1691 0.950 . S
H1687 C1692 0.949 . S
H1688 C1694 0.950 . S
H1689 C1695 0.950 . S
H1690 C1696 0.949 . S
C1691 H1686 0.950 . S
C1691 C1693 1.327 . S
C1691 C1697 1.429 . S
C1692 C1684 1.574 . S
C1692 H1687 0.949 . S
C1692 C1698 1.368 . S
C1693 C1677 1.349 . S
C1693 H1685 0.950 . S
C1693 C1691 1.327 . S
C1694 C1682 1.349 . S
C1694 H1688 0.950 . S
C1694 C1695 1.327 . S
C1695 H1689 0.950 . S
C1695 C1694 1.327 . S
C1695 C1699 1.429 . S
C1696 C1679 1.574 . S
C1696 H1690 0.949 . S
C1696 C1700 1.368 . S
C1697 C1678 1.429 . S
C1697 C1691 1.429 . S
C1697 C1698 1.523 . S
C1698 C1679 1.368 . S
C1698 C1692 1.368 . S
C1698 C1697 1.523 . S
C1699 C1683 1.429 . S
C1699 C1695 1.429 . S
C1699 C1700 1.523 . S
C1700 C1684 1.368 . S
C1700 C1696 1.368 . S
C1700 C1699 1.523 . S
H1701 C1676 0.950 . S
H1702 C1678 0.950 . S
H1703 C1679 0.949 . S
H1704 C1681 0.950 . S
H1705 C1683 0.950 . S
C1706 C1707 1.349 . S
C1706 C1708 1.327 . S
C1706 H1731 0.950 . S
C1707 C1706 1.349 . S
C1707 C1723 1.349 . S
C1708 C1706 1.327 . S
C1708 C1727 1.429 . S
C1708 H1732 0.950 . S
C1709 C1726 1.574 . S
C1709 C1728 1.368 . S
C1709 H1733 0.949 . S
H1710 C1714 0.949 . S
C1711 C1712 1.349 . S
C1711 C1713 1.327 . S
C1711 H1734 0.950 . S
C1712 C1711 1.349 . S
C1712 C1724 1.349 . S
C1713 C1711 1.327 . S
C1713 C1729 1.429 . S
C1713 H1735 0.950 . S
C1714 H1710 0.949 . S
C1714 C1722 1.574 . S
C1714 C1730 1.368 . S
H1715 C1723 0.950 . S
H1716 C1721 0.950 . S
H1717 C1722 0.949 . S
H1718 C1724 0.950 . S
H1719 C1725 0.950 . S
H1720 C1726 0.949 . S
C1721 H1716 0.950 . S
C1721 C1723 1.327 . S
C1721 C1727 1.429 . S
C1722 C1714 1.574 . S
C1722 H1717 0.949 . S
C1722 C1728 1.368 . S
C1723 C1707 1.349 . S
C1723 H1715 0.950 . S
C1723 C1721 1.327 . S
C1724 C1712 1.349 . S
C1724 H1718 0.950 . S
C1724 C1725 1.327 . S
C1725 H1719 0.950 . S
C1725 C1724 1.327 . S
C1725 C1729 1.429 . S
C1726 C1709 1.574 . S
C1726 H1720 0.949 . S
C1726 C1730 1.368 . S
C1727 C1708 1.429 . S
C1727 C1721 1.429 . S
C1727 C1728 1.523 . S
C1728 C1709 1.368 . S
C1728 C1722 1.368 . S
C1728 C1727 1.523 . S
C1729 C1713 1.429 . S
C1729 C1725 1.429 . S
C1729 C1730 1.523 . S
C1730 C1714 1.368 . S
C1730 C1726 1.368 . S
C1730 C1729 1.523 . S
H1731 C1706 0.950 . S
H1732 C1708 0.950 . S
H1733 C1709 0.949 . S
H1734 C1711 0.950 . S
H1735 C1713 0.950 . S
C1736 C1737 1.366 . S
C1736 C1738 1.327 . S
C1736 H1761 0.950 . S
C1737 C1736 1.366 . S
C1737 C1753 1.341 1_545 S
C1738 C1736 1.327 . S
C1738 C1757 1.429 . S
C1738 H1762 0.950 . S
C1739 C1756 1.567 1_565 S
C1739 C1758 1.362 1_565 S
C1739 H1763 0.961 . S
H1740 C1744 0.949 . S
C1741 C1742 1.349 . S
C1741 C1743 1.327 . S
C1741 H1764 0.950 . S
C1742 C1741 1.349 . S
C1742 C1754 1.349 . S
C1743 C1741 1.327 . S
C1743 C1759 1.429 . S
C1743 H1765 0.950 . S
C1744 H1740 0.949 . S
C1744 C1752 1.574 . S
C1744 C1760 1.368 . S
H1745 C1753 0.950 . S
H1746 C1751 0.950 . S
H1747 C1752 0.949 . S
H1748 C1754 0.950 . S
H1749 C1755 0.950 . S
H1750 C1756 0.949 1_565 S
C1751 H1746 0.950 . S
C1751 C1753 1.327 . S
C1751 C1757 1.429 1_565 S
C1752 C1744 1.574 . S
C1752 H1747 0.949 . S
C1752 C1758 1.368 . S
C1753 C1737 1.341 1_565 S
C1753 H1745 0.950 . S
C1753 C1751 1.327 . S
C1754 C1742 1.349 . S
C1754 H1748 0.950 . S
C1754 C1755 1.327 . S
C1755 H1749 0.950 . S
C1755 C1754 1.327 . S
C1755 C1759 1.429 . S
C1756 C1739 1.567 1_545 S
C1756 H1750 0.949 1_545 S
C1756 C1760 1.368 . S
C1757 C1738 1.429 . S
C1757 C1751 1.429 1_545 S
C1757 C1758 1.523 . S
C1758 C1739 1.362 1_545 S
C1758 C1752 1.368 . S
C1758 C1757 1.523 . S
C1759 C1743 1.429 . S
C1759 C1755 1.429 . S
C1759 C1760 1.523 . S
C1760 C1744 1.368 . S
C1760 C1756 1.368 . S
C1760 C1759 1.523 . S
H1761 C1736 0.950 . S
H1762 C1738 0.950 . S
H1763 C1739 0.961 . S
H1764 C1741 0.950 . S
H1765 C1743 0.950 . S
C1766 C1767 1.349 . S
C1766 C1768 1.327 . S
C1766 H1791 0.950 . S
C1767 C1766 1.349 . S
C1767 C1783 1.349 . S
C1768 C1766 1.327 . S
C1768 C1787 1.429 . S
C1768 H1792 0.950 . S
C1769 C1786 1.574 . S
C1769 C1788 1.368 . S
C1769 H1793 0.949 . S
H1770 C1774 0.949 . S
C1771 C1772 1.349 . S
C1771 C1773 1.327 . S
C1771 H1794 0.950 . S
C1772 C1771 1.349 . S
C1772 C1784 1.349 . S
C1773 C1771 1.327 . S
C1773 C1789 1.429 . S
C1773 H1795 0.950 . S
C1774 H1770 0.949 . S
C1774 C1782 1.574 . S
C1774 C1790 1.368 . S
H1775 C1783 0.950 . S
H1776 C1781 0.950 . S
H1777 C1782 0.949 . S
H1778 C1784 0.950 . S
H1779 C1785 0.950 . S
H1780 C1786 0.949 . S
C1781 H1776 0.950 . S
C1781 C1783 1.327 . S
C1781 C1787 1.429 . S
C1782 C1774 1.574 . S
C1782 H1777 0.949 . S
C1782 C1788 1.368 . S
C1783 C1767 1.349 . S
C1783 H1775 0.950 . S
C1783 C1781 1.327 . S
C1784 C1772 1.349 . S
C1784 H1778 0.950 . S
C1784 C1785 1.327 . S
C1785 H1779 0.950 . S
C1785 C1784 1.327 . S
C1785 C1789 1.429 . S
C1786 C1769 1.574 . S
C1786 H1780 0.949 . S
C1786 C1790 1.368 . S
C1787 C1768 1.429 . S
C1787 C1781 1.429 . S
C1787 C1788 1.523 . S
C1788 C1769 1.368 . S
C1788 C1782 1.368 . S
C1788 C1787 1.523 . S
C1789 C1773 1.429 . S
C1789 C1785 1.429 . S
C1789 C1790 1.523 . S
C1790 C1774 1.368 . S
C1790 C1786 1.368 . S
C1790 C1789 1.523 . S
H1791 C1766 0.950 . S
H1792 C1768 0.950 . S
H1793 C1769 0.949 . S
H1794 C1771 0.950 . S
H1795 C1773 0.950 . S
C1796 C1797 1.349 . S
C1796 C1798 1.327 . S
C1796 H1821 0.950 . S
C1797 C1796 1.349 . S
C1797 C1813 1.349 . S
C1798 C1796 1.327 . S
C1798 C1817 1.429 . S
C1798 H1822 0.950 . S
C1799 C1816 1.574 . S
C1799 C1818 1.368 . S
C1799 H1823 0.949 1_545 S
H1800 C1804 0.949 . S
C1801 C1802 1.349 1_565 S
C1801 C1803 1.330 . S
C1801 H1824 0.950 . S
C1802 C1801 1.349 1_545 S
C1802 C1814 1.349 . S
C1803 C1801 1.330 . S
C1803 C1819 1.406 1_565 S
C1803 H1825 0.970 . S
C1804 H1800 0.949 . S
C1804 C1812 1.574 . S
C1804 C1820 1.368 . S
H1805 C1813 0.950 . S
H1806 C1811 0.954 1_565 S
H1807 C1812 0.949 . S
H1808 C1814 0.950 . S
H1809 C1815 0.950 . S
H1810 C1816 0.949 1_565 S
C1811 H1806 0.954 1_545 S
C1811 C1813 1.327 . S
C1811 C1817 1.429 . S
C1812 C1804 1.574 . S
C1812 H1807 0.949 . S
C1812 C1818 1.368 . S
C1813 C1797 1.349 . S
C1813 H1805 0.950 . S
C1813 C1811 1.327 . S
C1814 C1802 1.349 . S
C1814 H1808 0.950 . S
C1814 C1815 1.327 . S
C1815 H1809 0.950 . S
C1815 C1814 1.327 . S
C1815 C1819 1.429 . S
C1816 C1799 1.574 . S
C1816 H1810 0.949 1_545 S
C1816 C1820 1.368 . S
C1817 C1798 1.429 . S
C1817 C1811 1.429 . S
C1817 C1818 1.523 . S
C1818 C1799 1.368 . S
C1818 C1812 1.368 . S
C1818 C1817 1.523 . S
C1819 C1803 1.406 1_545 S
C1819 C1815 1.429 . S
C1819 C1820 1.523 . S
C1820 C1804 1.368 . S
C1820 C1816 1.368 . S
C1820 C1819 1.523 . S
H1821 C1796 0.950 . S
H1822 C1798 0.950 . S
H1823 C1799 0.949 1_565 S
H1824 C1801 0.950 . S
H1825 C1803 0.970 . S
C1826 C1827 1.349 . S
C1826 C1828 1.327 . S
C1826 H1851 0.950 . S
C1827 C1826 1.349 . S
C1827 C1843 1.349 . S
C1828 C1826 1.327 . S
C1828 C1847 1.429 . S
C1828 H1852 0.950 . S
C1829 C1846 1.574 . S
C1829 C1848 1.368 . S
C1829 H1853 0.949 . S
H1830 C1834 0.949 . S
C1831 C1832 1.349 . S
C1831 C1833 1.327 . S
C1831 H1854 0.950 . S
C1832 C1831 1.349 . S
C1832 C1844 1.349 . S
C1833 C1831 1.327 . S
C1833 C1849 1.429 . S
C1833 H1855 0.950 . S
C1834 H1830 0.949 . S
C1834 C1842 1.574 . S
C1834 C1850 1.368 . S
H1835 C1843 0.950 . S
H1836 C1841 0.950 . S
H1837 C1842 0.949 . S
H1838 C1844 0.950 . S
H1839 C1845 0.950 . S
H1840 C1846 0.949 . S
C1841 H1836 0.950 . S
C1841 C1843 1.327 . S
C1841 C1847 1.429 . S
C1842 C1834 1.574 . S
C1842 H1837 0.949 . S
C1842 C1848 1.368 . S
C1843 C1827 1.349 . S
C1843 H1835 0.950 . S
C1843 C1841 1.327 . S
C1844 C1832 1.349 . S
C1844 H1838 0.950 . S
C1844 C1845 1.327 . S
C1845 H1839 0.950 . S
C1845 C1844 1.327 . S
C1845 C1849 1.429 . S
C1846 C1829 1.574 . S
C1846 H1840 0.949 . S
C1846 C1850 1.368 . S
C1847 C1828 1.429 . S
C1847 C1841 1.429 . S
C1847 C1848 1.523 . S
C1848 C1829 1.368 . S
C1848 C1842 1.368 . S
C1848 C1847 1.523 . S
C1849 C1833 1.429 . S
C1849 C1845 1.429 . S
C1849 C1850 1.523 . S
C1850 C1834 1.368 . S
C1850 C1846 1.368 . S
C1850 C1849 1.523 . S
H1851 C1826 0.950 . S
H1852 C1828 0.950 . S
H1853 C1829 0.949 . S
H1854 C1831 0.950 . S
H1855 C1833 0.950 . S
C1856 C1857 1.349 . S
C1856 C1858 1.327 . S
C1856 H1881 0.950 . S
C1857 C1856 1.349 . S
C1857 C1873 1.349 1_554 S
C1858 C1856 1.327 . S
C1858 C1877 1.429 . S
C1858 H1882 0.950 . S
C1859 C1876 1.574 . S
C1859 C1878 1.368 1_556 S
C1859 H1883 0.949 . S
H1860 C1864 0.949 . S
C1861 C1862 1.349 1_556 S
C1861 C1863 1.327 . S
C1861 H1884 0.950 . S
C1862 C1861 1.349 1_554 S
C1862 C1874 1.349 . S
C1863 C1861 1.327 . S
C1863 C1879 1.429 1_556 S
C1863 H1885 0.950 . S
C1864 H1860 0.949 . S
C1864 C1872 1.574 . S
C1864 C1880 1.368 . S
H1865 C1873 0.950 . S
H1866 C1871 0.950 . S
H1867 C1872 0.949 . S
H1868 C1874 0.950 . S
H1869 C1875 0.950 . S
H1870 C1876 0.949 . S
C1871 H1866 0.950 . S
C1871 C1873 1.327 . S
C1871 C1877 1.429 1_556 S
C1872 C1864 1.574 . S
C1872 H1867 0.949 . S
C1872 C1878 1.368 . S
C1873 C1857 1.349 1_556 S
C1873 H1865 0.950 . S
C1873 C1871 1.327 . S
C1874 C1862 1.349 . S
C1874 H1868 0.950 . S
C1874 C1875 1.327 . S
C1875 H1869 0.950 . S
C1875 C1874 1.327 . S
C1875 C1879 1.429 . S
C1876 C1859 1.574 . S
C1876 H1870 0.949 . S
C1876 C1880 1.368 1_556 S
C1877 C1858 1.429 . S
C1877 C1871 1.429 1_554 S
C1877 C1878 1.523 . S
C1878 C1859 1.368 1_554 S
C1878 C1872 1.368 . S
C1878 C1877 1.523 . S
C1879 C1863 1.429 1_554 S
C1879 C1875 1.429 . S
C1879 C1880 1.523 . S
C1880 C1864 1.368 . S
C1880 C1876 1.368 1_554 S
C1880 C1879 1.523 . S
H1881 C1856 0.950 . S
H1882 C1858 0.950 . S
H1883 C1859 0.949 . S
H1884 C1861 0.950 . S
H1885 C1863 0.950 . S
C1886 C1887 1.349 . S
C1886 C1888 1.327 . S
C1886 H1911 0.950 . S
C1887 C1886 1.349 . S
C1887 C1903 1.349 . S
C1888 C1886 1.327 . S
C1888 C1907 1.429 . S
C1888 H1912 0.950 . S
C1889 C1906 1.574 . S
C1889 C1908 1.368 . S
C1889 H1913 0.956 . S
H1890 C1894 0.949 . S
C1891 C1892 1.349 . S
C1891 C1893 1.327 . S
C1891 H1914 0.950 . S
C1892 C1891 1.349 . S
C1892 C1904 1.349 . S
C1893 C1891 1.327 . S
C1893 C1909 1.429 . S
C1893 H1915 0.985 . S
C1894 H1890 0.949 . S
C1894 C1902 1.574 . S
C1894 C1910 1.368 . S
H1895 C1903 0.974 . S
H1896 C1901 0.957 . S
H1897 C1902 0.949 . S
H1898 C1904 0.950 . S
H1899 C1905 0.950 . S
H1900 C1906 0.970 . S
C1901 H1896 0.957 . S
C1901 C1903 1.327 . S
C1901 C1907 1.429 . S
C1902 C1894 1.574 . S
C1902 H1897 0.949 . S
C1902 C1908 1.368 . S
C1903 C1887 1.349 . S
C1903 H1895 0.974 . S
C1903 C1901 1.327 . S
C1904 C1892 1.349 . S
C1904 H1898 0.950 . S
C1904 C1905 1.327 . S
C1905 H1899 0.950 . S
C1905 C1904 1.327 . S
C1905 C1909 1.429 . S
C1906 C1889 1.574 . S
C1906 H1900 0.970 . S
C1906 C1910 1.368 . S
C1907 C1888 1.429 . S
C1907 C1901 1.429 . S
C1907 C1908 1.523 . S
C1908 C1889 1.368 . S
C1908 C1902 1.368 . S
C1908 C1907 1.523 . S
C1909 C1893 1.429 . S
C1909 C1905 1.429 . S
C1909 C1910 1.523 . S
C1910 C1894 1.368 . S
C1910 C1906 1.368 . S
C1910 C1909 1.523 . S
H1911 C1886 0.950 . S
H1912 C1888 0.950 . S
H1913 C1889 0.956 . S
H1914 C1891 0.950 . S
H1915 C1893 0.985 . S
C1916 C1917 1.349 . S
C1916 C1918 1.327 . S
C1916 H1941 0.950 . S
C1917 C1916 1.349 . S
C1917 C1933 1.349 . S
C1918 C1916 1.327 . S
C1918 C1937 1.429 . S
C1918 H1942 0.950 . S
C1919 C1936 1.574 . S
C1919 C1938 1.368 . S
C1919 H1943 0.949 . S
H1920 C1924 0.949 . S
C1921 C1922 1.349 . S
C1921 C1923 1.327 . S
C1921 H1944 0.950 . S
C1922 C1921 1.349 . S
C1922 C1934 1.349 . S
C1923 C1921 1.327 . S
C1923 C1939 1.429 . S
C1923 H1945 0.950 . S
C1924 H1920 0.949 . S
C1924 C1932 1.574 . S
C1924 C1940 1.368 . S
H1925 C1933 0.950 . S
H1926 C1931 0.950 . S
H1927 C1932 0.949 . S
H1928 C1934 0.950 . S
H1929 C1935 0.950 . S
H1930 C1936 0.949 . S
C1931 H1926 0.950 . S
C1931 C1933 1.327 . S
C1931 C1937 1.429 . S
C1932 C1924 1.574 . S
C1932 H1927 0.949 . S
C1932 C1938 1.368 . S
C1933 C1917 1.349 . S
C1933 H1925 0.950 . S
C1933 C1931 1.327 . S
C1934 C1922 1.349 . S
C1934 H1928 0.950 . S
C1934 C1935 1.327 . S
C1935 H1929 0.950 . S
C1935 C1934 1.327 . S
C1935 C1939 1.429 . S
C1936 C1919 1.574 . S
C1936 H1930 0.949 . S
C1936 C1940 1.368 . S
C1937 C1918 1.429 . S
C1937 C1931 1.429 . S
C1937 C1938 1.523 . S
C1938 C1919 1.368 . S
C1938 C1932 1.368 . S
C1938 C1937 1.523 . S
C1939 C1923 1.429 . S
C1939 C1935 1.429 . S
C1939 C1940 1.523 . S
C1940 C1924 1.368 . S
C1940 C1936 1.368 . S
C1940 C1939 1.523 . S
H1941 C1916 0.950 . S
H1942 C1918 0.950 . S
H1943 C1919 0.949 . S
H1944 C1921 0.950 . S
H1945 C1923 0.950 . S
C1946 C1947 1.349 . S
C1946 C1948 1.327 . S
C1946 H1971 0.950 . S
C1947 C1946 1.349 . S
C1947 C1963 1.349 . S
C1948 C1946 1.327 . S
C1948 C1967 1.429 . S
C1948 H1972 0.950 . S
C1949 C1966 1.574 . S
C1949 C1968 1.368 . S
C1949 H1973 0.949 . S
H1950 C1954 0.949 . S
C1951 C1952 1.349 . S
C1951 C1953 1.327 . S
C1951 H1974 0.950 . S
C1952 C1951 1.349 . S
C1952 C1964 1.349 . S
C1953 C1951 1.327 . S
C1953 C1969 1.429 . S
C1953 H1975 0.950 . S
C1954 H1950 0.949 . S
C1954 C1962 1.574 . S
C1954 C1970 1.368 . S
H1955 C1963 0.950 . S
H1956 C1961 0.950 . S
H1957 C1962 0.949 . S
H1958 C1964 0.950 . S
H1959 C1965 0.950 . S
H1960 C1966 0.949 . S
C1961 H1956 0.950 . S
C1961 C1963 1.327 . S
C1961 C1967 1.429 . S
C1962 C1954 1.574 . S
C1962 H1957 0.949 . S
C1962 C1968 1.368 . S
C1963 C1947 1.349 . S
C1963 H1955 0.950 . S
C1963 C1961 1.327 . S
C1964 C1952 1.349 . S
C1964 H1958 0.950 . S
C1964 C1965 1.327 . S
C1965 H1959 0.950 . S
C1965 C1964 1.327 . S
C1965 C1969 1.429 . S
C1966 C1949 1.574 . S
C1966 H1960 0.949 . S
C1966 C1970 1.368 . S
C1967 C1948 1.429 . S
C1967 C1961 1.429 . S
C1967 C1968 1.523 . S
C1968 C1949 1.368 . S
C1968 C1962 1.368 . S
C1968 C1967 1.523 . S
C1969 C1953 1.429 . S
C1969 C1965 1.429 . S
C1969 C1970 1.523 . S
C1970 C1954 1.368 . S
C1970 C1966 1.368 . S
C1970 C1969 1.523 . S
H1971 C1946 0.950 . S
H1972 C1948 0.950 . S
H1973 C1949 0.949 . S
H1974 C1951 0.950 . S
H1975 C1953 0.950 . S
C1976 C1977 1.349 . S
C1976 C1978 1.327 . S
C1976 H2001 0.950 . S
C1977 C1976 1.349 . S
C1977 C1993 1.349 . S
C1978 C1976 1.327 . S
C1978 C1997 1.429 . S
C1978 H2002 0.950 . S
C1979 C1996 1.574 . S
C1979 C1998 1.368 . S
C1979 H2003 0.949 . S
H1980 C1984 0.949 . S
C1981 C1982 1.349 . S
C1981 C1983 1.327 . S
C1981 H2004 0.950 . S
C1982 C1981 1.349 . S
C1982 C1994 1.349 . S
C1983 C1981 1.327 . S
C1983 C1999 1.429 . S
C1983 H2005 0.950 . S
C1984 H1980 0.949 . S
C1984 C1992 1.574 . S
C1984 C2000 1.368 . S
H1985 C1993 0.950 . S
H1986 C1991 0.950 . S
H1987 C1992 0.949 . S
H1988 C1994 0.950 . S
H1989 C1995 0.950 . S
H1990 C1996 0.949 . S
C1991 H1986 0.950 . S
C1991 C1993 1.327 . S
C1991 C1997 1.429 . S
C1992 C1984 1.574 . S
C1992 H1987 0.949 . S
C1992 C1998 1.368 . S
C1993 C1977 1.349 . S
C1993 H1985 0.950 . S
C1993 C1991 1.327 . S
C1994 C1982 1.349 . S
C1994 H1988 0.950 . S
C1994 C1995 1.327 . S
C1995 H1989 0.950 . S
C1995 C1994 1.327 . S
C1995 C1999 1.429 . S
C1996 C1979 1.574 . S
C1996 H1990 0.949 . S
C1996 C2000 1.368 . S
C1997 C1978 1.429 . S
C1997 C1991 1.429 . S
C1997 C1998 1.523 . S
C1998 C1979 1.368 . S
C1998 C1992 1.368 . S
C1998 C1997 1.523 . S
C1999 C1983 1.429 . S
C1999 C1995 1.429 . S
C1999 C2000 1.523 . S
C2000 C1984 1.368 . S
C2000 C1996 1.368 . S
C2000 C1999 1.523 . S
H2001 C1976 0.950 . S
H2002 C1978 0.950 . S
H2003 C1979 0.949 . S
H2004 C1981 0.950 . S
H2005 C1983 0.950 . S
C2006 C2007 1.349 . S
C2006 C2008 1.327 . S
C2006 H2031 0.950 . S
C2007 C2006 1.349 . S
C2007 C2023 1.349 . S
C2008 C2006 1.327 . S
C2008 C2027 1.429 . S
C2008 H2032 0.950 . S
C2009 C2026 1.574 . S
C2009 C2028 1.368 . S
C2009 H2033 0.949 . S
H2010 C2014 0.949 . S
C2011 C2012 1.349 . S
C2011 C2013 1.327 . S
C2011 H2034 0.950 . S
C2012 C2011 1.349 . S
C2012 C2024 1.349 1_565 S
C2013 C2011 1.327 . S
C2013 C2029 1.429 . S
C2013 H2035 0.950 . S
C2014 H2010 0.949 . S
C2014 C2022 1.574 . S
C2014 C2030 1.368 . S
H2015 C2023 0.950 . S
H2016 C2021 0.950 . S
H2017 C2022 0.949 . S
H2018 C2024 0.950 . S
H2019 C2025 0.950 . S
H2020 C2026 0.949 . S
C2021 H2016 0.950 . S
C2021 C2023 1.327 . S
C2021 C2027 1.429 . S
C2022 C2014 1.574 . S
C2022 H2017 0.949 . S
C2022 C2028 1.368 . S
C2023 C2007 1.349 . S
C2023 H2015 0.950 . S
C2023 C2021 1.327 . S
C2024 C2012 1.349 1_545 S
C2024 H2018 0.950 . S
C2024 C2025 1.327 1_545 S
C2025 H2019 0.950 . S
C2025 C2024 1.327 1_565 S
C2025 C2029 1.429 . S
C2026 C2009 1.574 . S
C2026 H2020 0.949 . S
C2026 C2030 1.368 . S
C2027 C2008 1.429 . S
C2027 C2021 1.429 . S
C2027 C2028 1.523 . S
C2028 C2009 1.368 . S
C2028 C2022 1.368 . S
C2028 C2027 1.523 . S
C2029 C2013 1.429 . S
C2029 C2025 1.429 . S
C2029 C2030 1.523 . S
C2030 C2014 1.368 . S
C2030 C2026 1.368 . S
C2030 C2029 1.523 . S
H2031 C2006 0.950 . S
H2032 C2008 0.950 . S
H2033 C2009 0.949 . S
H2034 C2011 0.950 . S
H2035 C2013 0.950 . S
C2036 C2037 1.349 . S
C2036 C2038 1.327 . S
C2036 H2061 0.950 . S
C2037 C2036 1.349 . S
C2037 C2053 1.349 . S
C2038 C2036 1.327 . S
C2038 C2057 1.429 . S
C2038 H2062 0.950 . S
C2039 C2056 1.574 . S
C2039 C2058 1.368 . S
C2039 H2063 0.949 . S
H2040 C2044 0.949 . S
C2041 C2042 1.349 . S
C2041 C2043 1.327 . S
C2041 H2064 0.950 . S
C2042 C2041 1.349 . S
C2042 C2054 1.349 . S
C2043 C2041 1.327 . S
C2043 C2059 1.429 . S
C2043 H2065 0.950 . S
C2044 H2040 0.949 . S
C2044 C2052 1.574 . S
C2044 C2060 1.368 . S
H2045 C2053 0.950 . S
H2046 C2051 0.950 . S
H2047 C2052 0.949 . S
H2048 C2054 0.950 . S
H2049 C2055 0.950 . S
H2050 C2056 0.949 . S
C2051 H2046 0.950 . S
C2051 C2053 1.327 . S
C2051 C2057 1.429 . S
C2052 C2044 1.574 . S
C2052 H2047 0.949 . S
C2052 C2058 1.368 . S
C2053 C2037 1.349 . S
C2053 H2045 0.950 . S
C2053 C2051 1.327 . S
C2054 C2042 1.349 . S
C2054 H2048 0.950 . S
C2054 C2055 1.327 . S
C2055 H2049 0.950 . S
C2055 C2054 1.327 . S
C2055 C2059 1.429 . S
C2056 C2039 1.574 . S
C2056 H2050 0.949 . S
C2056 C2060 1.368 . S
C2057 C2038 1.429 . S
C2057 C2051 1.429 . S
C2057 C2058 1.523 . S
C2058 C2039 1.368 . S
C2058 C2052 1.368 . S
C2058 C2057 1.523 . S
C2059 C2043 1.429 . S
C2059 C2055 1.429 . S
C2059 C2060 1.523 . S
C2060 C2044 1.368 . S
C2060 C2056 1.368 . S
C2060 C2059 1.523 . S
H2061 C2036 0.950 . S
H2062 C2038 0.950 . S
H2063 C2039 0.949 . S
H2064 C2041 0.950 . S
H2065 C2043 0.950 . S
C2066 C2067 1.349 . S
C2066 C2068 1.327 . S
C2066 H2091 0.950 . S
C2067 C2066 1.349 . S
C2067 C2083 1.349 . S
C2068 C2066 1.327 . S
C2068 C2087 1.429 . S
C2068 H2092 0.950 . S
C2069 C2086 1.574 . S
C2069 C2088 1.368 . S
C2069 H2093 0.949 . S
H2070 C2074 0.949 . S
C2071 C2072 1.349 . S
C2071 C2073 1.327 . S
C2071 H2094 0.950 . S
C2072 C2071 1.349 . S
C2072 C2084 1.349 . S
C2073 C2071 1.327 . S
C2073 C2089 1.429 . S
C2073 H2095 0.950 . S
C2074 H2070 0.949 . S
C2074 C2082 1.574 . S
C2074 C2090 1.368 . S
H2075 C2083 0.950 . S
H2076 C2081 0.950 . S
H2077 C2082 0.949 . S
H2078 C2084 0.950 . S
H2079 C2085 0.950 . S
H2080 C2086 0.949 . S
C2081 H2076 0.950 . S
C2081 C2083 1.327 . S
C2081 C2087 1.429 . S
C2082 C2074 1.574 . S
C2082 H2077 0.949 . S
C2082 C2088 1.368 . S
C2083 C2067 1.349 . S
C2083 H2075 0.950 . S
C2083 C2081 1.327 . S
C2084 C2072 1.349 . S
C2084 H2078 0.950 . S
C2084 C2085 1.327 . S
C2085 H2079 0.950 . S
C2085 C2084 1.327 . S
C2085 C2089 1.429 . S
C2086 C2069 1.574 . S
C2086 H2080 0.949 . S
C2086 C2090 1.368 . S
C2087 C2068 1.429 . S
C2087 C2081 1.429 . S
C2087 C2088 1.523 . S
C2088 C2069 1.368 . S
C2088 C2082 1.368 . S
C2088 C2087 1.523 . S
C2089 C2073 1.429 . S
C2089 C2085 1.429 . S
C2089 C2090 1.523 . S
C2090 C2074 1.368 . S
C2090 C2086 1.368 . S
C2090 C2089 1.523 . S
H2091 C2066 0.950 . S
H2092 C2068 0.950 . S
H2093 C2069 0.949 . S
H2094 C2071 0.950 . S
H2095 C2073 0.950 . S
C2096 C2097 1.349 . S
C2096 C2098 1.327 . S
C2096 H2121 0.950 . S
C2097 C2096 1.349 . S
C2097 C2113 1.349 . S
C2098 C2096 1.327 . S
C2098 C2117 1.429 . S
C2098 H2122 0.950 . S
C2099 C2116 1.574 . S
C2099 C2118 1.368 . S
C2099 H2123 0.949 . S
H2100 C2104 0.949 . S
C2101 C2102 1.349 . S
C2101 C2103 1.327 . S
C2101 H2124 0.950 . S
C2102 C2101 1.349 . S
C2102 C2114 1.349 . S
C2103 C2101 1.327 . S
C2103 C2119 1.429 . S
C2103 H2125 0.950 . S
C2104 H2100 0.949 . S
C2104 C2112 1.574 . S
C2104 C2120 1.368 . S
H2105 C2113 0.950 . S
H2106 C2111 0.950 . S
H2107 C2112 0.949 . S
H2108 C2114 0.950 . S
H2109 C2115 0.950 . S
H2110 C2116 0.949 . S
C2111 H2106 0.950 . S
C2111 C2113 1.327 . S
C2111 C2117 1.429 . S
C2112 C2104 1.574 . S
C2112 H2107 0.949 . S
C2112 C2118 1.368 . S
C2113 C2097 1.349 . S
C2113 H2105 0.950 . S
C2113 C2111 1.327 . S
C2114 C2102 1.349 . S
C2114 H2108 0.950 . S
C2114 C2115 1.327 . S
C2115 H2109 0.950 . S
C2115 C2114 1.327 . S
C2115 C2119 1.429 . S
C2116 C2099 1.574 . S
C2116 H2110 0.949 . S
C2116 C2120 1.368 . S
C2117 C2098 1.429 . S
C2117 C2111 1.429 . S
C2117 C2118 1.523 . S
C2118 C2099 1.368 . S
C2118 C2112 1.368 . S
C2118 C2117 1.523 . S
C2119 C2103 1.429 . S
C2119 C2115 1.429 . S
C2119 C2120 1.523 . S
C2120 C2104 1.368 . S
C2120 C2116 1.368 . S
C2120 C2119 1.523 . S
H2121 C2096 0.950 . S
H2122 C2098 0.950 . S
H2123 C2099 0.949 . S
H2124 C2101 0.950 . S
H2125 C2103 0.950 . S
C2126 C2127 1.349 . S
C2126 C2128 1.327 . S
C2126 H2151 0.950 . S
C2127 C2126 1.349 . S
C2127 C2143 1.349 . S
C2128 C2126 1.327 . S
C2128 C2147 1.429 . S
C2128 H2152 0.950 . S
C2129 C2146 1.574 . S
C2129 C2148 1.368 . S
C2129 H2153 0.949 . S
H2130 C2134 0.949 . S
C2131 C2132 1.349 . S
C2131 C2133 1.327 . S
C2131 H2154 0.950 . S
C2132 C2131 1.349 . S
C2132 C2144 1.349 . S
C2133 C2131 1.327 . S
C2133 C2149 1.429 . S
C2133 H2155 0.950 . S
C2134 H2130 0.949 . S
C2134 C2142 1.574 . S
C2134 C2150 1.368 . S
H2135 C2143 0.950 . S
H2136 C2141 0.950 . S
H2137 C2142 0.949 . S
H2138 C2144 0.950 . S
H2139 C2145 0.950 . S
H2140 C2146 0.949 . S
C2141 H2136 0.950 . S
C2141 C2143 1.327 . S
C2141 C2147 1.429 . S
C2142 C2134 1.574 . S
C2142 H2137 0.949 . S
C2142 C2148 1.368 . S
C2143 C2127 1.349 . S
C2143 H2135 0.950 . S
C2143 C2141 1.327 . S
C2144 C2132 1.349 . S
C2144 H2138 0.950 . S
C2144 C2145 1.327 . S
C2145 H2139 0.950 . S
C2145 C2144 1.327 . S
C2145 C2149 1.429 . S
C2146 C2129 1.574 . S
C2146 H2140 0.949 . S
C2146 C2150 1.368 . S
C2147 C2128 1.429 . S
C2147 C2141 1.429 . S
C2147 C2148 1.523 . S
C2148 C2129 1.368 . S
C2148 C2142 1.368 . S
C2148 C2147 1.523 . S
C2149 C2133 1.429 . S
C2149 C2145 1.429 . S
C2149 C2150 1.523 . S
C2150 C2134 1.368 . S
C2150 C2146 1.368 . S
C2150 C2149 1.523 . S
H2151 C2126 0.950 . S
H2152 C2128 0.950 . S
H2153 C2129 0.949 . S
H2154 C2131 0.950 . S
H2155 C2133 0.950 . S
C2156 C2157 1.349 . S
C2156 C2158 1.327 . S
C2156 H2181 0.950 . S
C2157 C2156 1.349 . S
C2157 C2173 1.349 . S
C2158 C2156 1.327 . S
C2158 C2177 1.429 . S
C2158 H2182 0.950 . S
C2159 C2176 1.574 . S
C2159 C2178 1.368 . S
C2159 H2183 0.957 . S
H2160 C2164 0.949 1_554 S
C2161 C2162 1.349 . S
C2161 C2163 1.327 1_554 S
C2161 H2184 0.923 1_554 S
C2162 C2161 1.349 . S
C2162 C2174 1.349 . S
C2163 C2161 1.327 1_556 S
C2163 C2179 1.428 . S
C2163 H2185 0.961 . S
C2164 H2160 0.949 1_556 S
C2164 C2172 1.574 . S
C2164 C2180 1.368 . S
H2165 C2173 0.960 . S
H2166 C2171 0.968 . S
H2167 C2172 0.949 . S
H2168 C2174 0.950 . S
H2169 C2175 0.950 . S
H2170 C2176 0.970 . S
C2171 H2166 0.968 . S
C2171 C2173 1.327 . S
C2171 C2177 1.429 . S
C2172 C2164 1.574 . S
C2172 H2167 0.949 . S
C2172 C2178 1.368 . S
C2173 C2157 1.349 . S
C2173 H2165 0.960 . S
C2173 C2171 1.327 . S
C2174 C2162 1.349 . S
C2174 H2168 0.950 . S
C2174 C2175 1.327 . S
C2175 H2169 0.950 . S
C2175 C2174 1.327 . S
C2175 C2179 1.429 1_554 S
C2176 C2159 1.574 . S
C2176 H2170 0.970 . S
C2176 C2180 1.368 . S
C2177 C2158 1.429 . S
C2177 C2171 1.429 . S
C2177 C2178 1.523 . S
C2178 C2159 1.368 . S
C2178 C2172 1.368 . S
C2178 C2177 1.523 . S
C2179 C2163 1.428 . S
C2179 C2175 1.429 1_556 S
C2179 C2180 1.522 . S
C2180 C2164 1.368 . S
C2180 C2176 1.368 . S
C2180 C2179 1.522 . S
H2181 C2156 0.950 . S
H2182 C2158 0.950 . S
H2183 C2159 0.957 . S
H2184 C2161 0.923 1_556 S
H2185 C2163 0.961 . S
C2186 C2187 1.349 . S
C2186 C2188 1.327 . S
C2186 H2211 0.950 . S
C2187 C2186 1.349 . S
C2187 C2203 1.349 . S
C2188 C2186 1.327 . S
C2188 C2207 1.429 . S
C2188 H2212 0.950 . S
C2189 C2206 1.574 . S
C2189 C2208 1.368 . S
C2189 H2213 0.949 . S
H2190 C2194 0.949 . S
C2191 C2192 1.349 . S
C2191 C2193 1.327 . S
C2191 H2214 0.950 . S
C2192 C2191 1.349 . S
C2192 C2204 1.349 . S
C2193 C2191 1.327 . S
C2193 C2209 1.429 . S
C2193 H2215 0.950 . S
C2194 H2190 0.949 . S
C2194 C2202 1.574 . S
C2194 C2210 1.368 . S
H2195 C2203 0.950 . S
H2196 C2201 0.950 . S
H2197 C2202 0.949 . S
H2198 C2204 0.950 . S
H2199 C2205 0.950 . S
H2200 C2206 0.949 . S
C2201 H2196 0.950 . S
C2201 C2203 1.327 . S
C2201 C2207 1.429 . S
C2202 C2194 1.574 . S
C2202 H2197 0.949 . S
C2202 C2208 1.368 . S
C2203 C2187 1.349 . S
C2203 H2195 0.950 . S
C2203 C2201 1.327 . S
C2204 C2192 1.349 . S
C2204 H2198 0.950 . S
C2204 C2205 1.327 . S
C2205 H2199 0.950 . S
C2205 C2204 1.327 . S
C2205 C2209 1.429 . S
C2206 C2189 1.574 . S
C2206 H2200 0.949 . S
C2206 C2210 1.368 . S
C2207 C2188 1.429 . S
C2207 C2201 1.429 . S
C2207 C2208 1.523 . S
C2208 C2189 1.368 . S
C2208 C2202 1.368 . S
C2208 C2207 1.523 . S
C2209 C2193 1.429 . S
C2209 C2205 1.429 . S
C2209 C2210 1.523 . S
C2210 C2194 1.368 . S
C2210 C2206 1.368 . S
C2210 C2209 1.523 . S
H2211 C2186 0.950 . S
H2212 C2188 0.950 . S
H2213 C2189 0.949 . S
H2214 C2191 0.950 . S
H2215 C2193 0.950 . S
C2216 C2217 1.349 . S
C2216 C2218 1.327 . S
C2216 H2241 0.950 . S
C2217 C2216 1.349 . S
C2217 C2233 1.349 . S
C2218 C2216 1.327 . S
C2218 C2237 1.429 . S
C2218 H2242 0.950 . S
C2219 C2236 1.574 . S
C2219 C2238 1.368 . S
C2219 H2243 0.949 . S
H2220 C2224 0.949 . S
C2221 C2222 1.349 . S
C2221 C2223 1.327 . S
C2221 H2244 0.950 . S
C2222 C2221 1.349 . S
C2222 C2234 1.349 . S
C2223 C2221 1.327 . S
C2223 C2239 1.429 . S
C2223 H2245 0.950 . S
C2224 H2220 0.949 . S
C2224 C2232 1.574 . S
C2224 C2240 1.368 . S
H2225 C2233 0.950 . S
H2226 C2231 0.950 . S
H2227 C2232 0.949 . S
H2228 C2234 0.950 . S
H2229 C2235 0.950 . S
H2230 C2236 0.949 . S
C2231 H2226 0.950 . S
C2231 C2233 1.327 . S
C2231 C2237 1.429 . S
C2232 C2224 1.574 . S
C2232 H2227 0.949 . S
C2232 C2238 1.368 . S
C2233 C2217 1.349 . S
C2233 H2225 0.950 . S
C2233 C2231 1.327 . S
C2234 C2222 1.349 . S
C2234 H2228 0.950 . S
C2234 C2235 1.327 . S
C2235 H2229 0.950 . S
C2235 C2234 1.327 . S
C2235 C2239 1.429 . S
C2236 C2219 1.574 . S
C2236 H2230 0.949 . S
C2236 C2240 1.368 . S
C2237 C2218 1.429 . S
C2237 C2231 1.429 . S
C2237 C2238 1.523 . S
C2238 C2219 1.368 . S
C2238 C2232 1.368 . S
C2238 C2237 1.523 . S
C2239 C2223 1.429 . S
C2239 C2235 1.429 . S
C2239 C2240 1.523 . S
C2240 C2224 1.368 . S
C2240 C2236 1.368 . S
C2240 C2239 1.523 . S
H2241 C2216 0.950 . S
H2242 C2218 0.950 . S
H2243 C2219 0.949 . S
H2244 C2221 0.950 . S
H2245 C2223 0.950 . S
C2246 C2247 1.349 . S
C2246 C2248 1.327 . S
C2246 H2271 0.950 . S
C2247 C2246 1.349 . S
C2247 C2263 1.349 . S
C2248 C2246 1.327 . S
C2248 C2267 1.429 . S
C2248 H2272 0.950 . S
C2249 C2266 1.574 . S
C2249 C2268 1.368 . S
C2249 H2273 0.949 . S
H2250 C2254 0.949 . S
C2251 C2252 1.349 . S
C2251 C2253 1.327 . S
C2251 H2274 0.950 . S
C2252 C2251 1.349 . S
C2252 C2264 1.349 . S
C2253 C2251 1.327 . S
C2253 C2269 1.429 . S
C2253 H2275 0.950 . S
C2254 H2250 0.949 . S
C2254 C2262 1.574 . S
C2254 C2270 1.368 . S
H2255 C2263 0.950 . S
H2256 C2261 0.950 . S
H2257 C2262 0.949 . S
H2258 C2264 0.950 . S
H2259 C2265 0.950 . S
H2260 C2266 0.949 . S
C2261 H2256 0.950 . S
C2261 C2263 1.327 . S
C2261 C2267 1.429 . S
C2262 C2254 1.574 . S
C2262 H2257 0.949 . S
C2262 C2268 1.368 . S
C2263 C2247 1.349 . S
C2263 H2255 0.950 . S
C2263 C2261 1.327 . S
C2264 C2252 1.349 . S
C2264 H2258 0.950 . S
C2264 C2265 1.327 . S
C2265 H2259 0.950 . S
C2265 C2264 1.327 . S
C2265 C2269 1.429 . S
C2266 C2249 1.574 . S
C2266 H2260 0.949 . S
C2266 C2270 1.368 . S
C2267 C2248 1.429 . S
C2267 C2261 1.429 . S
C2267 C2268 1.523 . S
C2268 C2249 1.368 . S
C2268 C2262 1.368 . S
C2268 C2267 1.523 . S
C2269 C2253 1.429 . S
C2269 C2265 1.429 . S
C2269 C2270 1.523 . S
C2270 C2254 1.368 . S
C2270 C2266 1.368 . S
C2270 C2269 1.523 . S
H2271 C2246 0.950 . S
H2272 C2248 0.950 . S
H2273 C2249 0.949 . S
H2274 C2251 0.950 . S
H2275 C2253 0.950 . S
C2276 C2277 1.349 1_655 S
C2276 C2278 1.327 . S
C2276 H2301 0.950 . S
C2277 C2276 1.349 1_455 S
C2277 C2293 1.349 . S
C2278 C2276 1.327 . S
C2278 C2297 1.429 1_655 S
C2278 H2302 0.950 . S
C2279 C2296 1.574 . S
C2279 C2298 1.368 . S
C2279 H2303 0.949 . S
H2280 C2284 0.949 . S
C2281 C2282 1.349 . S
C2281 C2283 1.327 . S
C2281 H2304 0.950 . S
C2282 C2281 1.349 . S
C2282 C2294 1.349 1_455 S
C2283 C2281 1.327 . S
C2283 C2299 1.429 . S
C2283 H2305 0.950 . S
C2284 H2280 0.949 . S
C2284 C2292 1.574 . S
C2284 C2300 1.368 1_655 S
H2285 C2293 0.950 . S
H2286 C2291 0.950 . S
H2287 C2292 0.949 . S
H2288 C2294 0.950 . S
H2289 C2295 0.950 . S
H2290 C2296 0.949 . S
C2291 H2286 0.950 . S
C2291 C2293 1.327 . S
C2291 C2297 1.429 . S
C2292 C2284 1.574 . S
C2292 H2287 0.949 . S
C2292 C2298 1.368 1_655 S
C2293 C2277 1.349 . S
C2293 H2285 0.950 . S
C2293 C2291 1.327 . S
C2294 C2282 1.349 1_655 S
C2294 H2288 0.950 . S
C2294 C2295 1.327 . S
C2295 H2289 0.950 . S
C2295 C2294 1.327 . S
C2295 C2299 1.429 1_655 S
C2296 C2279 1.574 . S
C2296 H2290 0.949 . S
C2296 C2300 1.368 . S
C2297 C2278 1.429 1_455 S
C2297 C2291 1.429 . S
C2297 C2298 1.523 . S
C2298 C2279 1.368 . S
C2298 C2292 1.368 1_455 S
C2298 C2297 1.523 . S
C2299 C2283 1.429 . S
C2299 C2295 1.429 1_455 S
C2299 C2300 1.523 . S
C2300 C2284 1.368 1_455 S
C2300 C2296 1.368 . S
C2300 C2299 1.523 . S
H2301 C2276 0.950 . S
H2302 C2278 0.950 . S
H2303 C2279 0.949 . S
H2304 C2281 0.950 . S
H2305 C2283 0.950 . S
C2306 C2307 1.349 . S
C2306 C2308 1.327 . S
C2306 H2331 0.950 . S
C2307 C2306 1.349 . S
C2307 C2323 1.349 . S
C2308 C2306 1.327 . S
C2308 C2327 1.429 . S
C2308 H2332 0.950 . S
C2309 C2326 1.574 . S
C2309 C2328 1.368 . S
C2309 H2333 0.949 . S
H2310 C2314 0.949 . S
C2311 C2312 1.349 . S
C2311 C2313 1.327 . S
C2311 H2334 0.950 . S
C2312 C2311 1.349 . S
C2312 C2324 1.349 . S
C2313 C2311 1.327 . S
C2313 C2329 1.429 . S
C2313 H2335 0.950 . S
C2314 H2310 0.949 . S
C2314 C2322 1.574 . S
C2314 C2330 1.368 . S
H2315 C2323 0.950 . S
H2316 C2321 0.950 . S
H2317 C2322 0.949 . S
H2318 C2324 0.950 . S
H2319 C2325 0.950 . S
H2320 C2326 0.949 . S
C2321 H2316 0.950 . S
C2321 C2323 1.327 . S
C2321 C2327 1.429 . S
C2322 C2314 1.574 . S
C2322 H2317 0.949 . S
C2322 C2328 1.368 . S
C2323 C2307 1.349 . S
C2323 H2315 0.950 . S
C2323 C2321 1.327 . S
C2324 C2312 1.349 . S
C2324 H2318 0.950 . S
C2324 C2325 1.327 . S
C2325 H2319 0.950 . S
C2325 C2324 1.327 . S
C2325 C2329 1.429 . S
C2326 C2309 1.574 . S
C2326 H2320 0.949 . S
C2326 C2330 1.368 . S
C2327 C2308 1.429 . S
C2327 C2321 1.429 . S
C2327 C2328 1.523 . S
C2328 C2309 1.368 . S
C2328 C2322 1.368 . S
C2328 C2327 1.523 . S
C2329 C2313 1.429 . S
C2329 C2325 1.429 . S
C2329 C2330 1.523 . S
C2330 C2314 1.368 . S
C2330 C2326 1.368 . S
C2330 C2329 1.523 . S
H2331 C2306 0.950 . S
H2332 C2308 0.950 . S
H2333 C2309 0.949 . S
H2334 C2311 0.950 . S
H2335 C2313 0.950 . S
C2336 C2337 1.349 . S
C2336 C2338 1.327 . S
C2336 H2361 0.950 . S
C2337 C2336 1.349 . S
C2337 C2353 1.349 . S
C2338 C2336 1.327 . S
C2338 C2357 1.429 . S
C2338 H2362 0.950 . S
C2339 C2356 1.574 . S
C2339 C2358 1.368 . S
C2339 H2363 0.949 . S
H2340 C2344 0.949 . S
C2341 C2342 1.349 . S
C2341 C2343 1.327 . S
C2341 H2364 0.950 . S
C2342 C2341 1.349 . S
C2342 C2354 1.349 . S
C2343 C2341 1.327 . S
C2343 C2359 1.429 . S
C2343 H2365 0.950 . S
C2344 H2340 0.949 . S
C2344 C2352 1.574 . S
C2344 C2360 1.368 . S
H2345 C2353 0.950 . S
H2346 C2351 0.950 . S
H2347 C2352 0.949 . S
H2348 C2354 0.950 . S
H2349 C2355 0.950 . S
H2350 C2356 0.949 . S
C2351 H2346 0.950 . S
C2351 C2353 1.327 . S
C2351 C2357 1.429 . S
C2352 C2344 1.574 . S
C2352 H2347 0.949 . S
C2352 C2358 1.368 . S
C2353 C2337 1.349 . S
C2353 H2345 0.950 . S
C2353 C2351 1.327 . S
C2354 C2342 1.349 . S
C2354 H2348 0.950 . S
C2354 C2355 1.327 . S
C2355 H2349 0.950 . S
C2355 C2354 1.327 . S
C2355 C2359 1.429 . S
C2356 C2339 1.574 . S
C2356 H2350 0.949 . S
C2356 C2360 1.368 . S
C2357 C2338 1.429 . S
C2357 C2351 1.429 . S
C2357 C2358 1.523 . S
C2358 C2339 1.368 . S
C2358 C2352 1.368 . S
C2358 C2357 1.523 . S
C2359 C2343 1.429 . S
C2359 C2355 1.429 . S
C2359 C2360 1.523 . S
C2360 C2344 1.368 . S
C2360 C2356 1.368 . S
C2360 C2359 1.523 . S
H2361 C2336 0.950 . S
H2362 C2338 0.950 . S
H2363 C2339 0.949 . S
H2364 C2341 0.950 . S
H2365 C2343 0.950 . S
C2366 C2367 1.349 . S
C2366 C2368 1.327 . S
C2366 H2391 0.950 . S
C2367 C2366 1.349 . S
C2367 C2383 1.349 . S
C2368 C2366 1.327 . S
C2368 C2387 1.429 . S
C2368 H2392 0.950 . S
C2369 C2386 1.574 . S
C2369 C2388 1.368 . S
C2369 H2393 0.949 . S
H2370 C2374 0.949 . S
C2371 C2372 1.349 . S
C2371 C2373 1.327 . S
C2371 H2394 0.950 . S
C2372 C2371 1.349 . S
C2372 C2384 1.349 . S
C2373 C2371 1.327 . S
C2373 C2389 1.429 . S
C2373 H2395 0.950 . S
C2374 H2370 0.949 . S
C2374 C2382 1.574 . S
C2374 C2390 1.368 . S
H2375 C2383 0.950 . S
H2376 C2381 0.950 . S
H2377 C2382 0.949 . S
H2378 C2384 0.950 . S
H2379 C2385 0.950 . S
H2380 C2386 0.949 . S
C2381 H2376 0.950 . S
C2381 C2383 1.327 . S
C2381 C2387 1.429 . S
C2382 C2374 1.574 . S
C2382 H2377 0.949 . S
C2382 C2388 1.368 . S
C2383 C2367 1.349 . S
C2383 H2375 0.950 . S
C2383 C2381 1.327 . S
C2384 C2372 1.349 . S
C2384 H2378 0.950 . S
C2384 C2385 1.327 . S
C2385 H2379 0.950 . S
C2385 C2384 1.327 . S
C2385 C2389 1.429 . S
C2386 C2369 1.574 . S
C2386 H2380 0.949 . S
C2386 C2390 1.368 . S
C2387 C2368 1.429 . S
C2387 C2381 1.429 . S
C2387 C2388 1.523 . S
C2388 C2369 1.368 . S
C2388 C2382 1.368 . S
C2388 C2387 1.523 . S
C2389 C2373 1.429 . S
C2389 C2385 1.429 . S
C2389 C2390 1.523 . S
C2390 C2374 1.368 . S
C2390 C2386 1.368 . S
C2390 C2389 1.523 . S
H2391 C2366 0.950 . S
H2392 C2368 0.950 . S
H2393 C2369 0.949 . S
H2394 C2371 0.950 . S
H2395 C2373 0.950 . S
C2396 C2397 1.349 . S
C2396 C2398 1.327 . S
C2396 H2421 0.950 . S
C2397 C2396 1.349 . S
C2397 C2413 1.349 . S
C2398 C2396 1.327 . S
C2398 C2417 1.429 . S
C2398 H2422 0.950 . S
C2399 C2416 1.574 . S
C2399 C2418 1.368 . S
C2399 H2423 0.949 . S
H2400 C2404 0.949 . S
C2401 C2402 1.349 . S
C2401 C2403 1.327 . S
C2401 H2424 0.950 . S
C2402 C2401 1.349 . S
C2402 C2414 1.349 . S
C2403 C2401 1.327 . S
C2403 C2419 1.429 . S
C2403 H2425 0.950 . S
C2404 H2400 0.949 . S
C2404 C2412 1.574 . S
C2404 C2420 1.368 . S
H2405 C2413 0.950 . S
H2406 C2411 0.950 . S
H2407 C2412 0.949 . S
H2408 C2414 0.950 . S
H2409 C2415 0.950 . S
H2410 C2416 0.949 . S
C2411 H2406 0.950 . S
C2411 C2413 1.327 . S
C2411 C2417 1.429 . S
C2412 C2404 1.574 . S
C2412 H2407 0.949 . S
C2412 C2418 1.368 . S
C2413 C2397 1.349 . S
C2413 H2405 0.950 . S
C2413 C2411 1.327 . S
C2414 C2402 1.349 . S
C2414 H2408 0.950 . S
C2414 C2415 1.327 . S
C2415 H2409 0.950 . S
C2415 C2414 1.327 . S
C2415 C2419 1.429 . S
C2416 C2399 1.574 . S
C2416 H2410 0.949 . S
C2416 C2420 1.368 . S
C2417 C2398 1.429 . S
C2417 C2411 1.429 . S
C2417 C2418 1.523 . S
C2418 C2399 1.368 . S
C2418 C2412 1.368 . S
C2418 C2417 1.523 . S
C2419 C2403 1.429 . S
C2419 C2415 1.429 . S
C2419 C2420 1.523 . S
C2420 C2404 1.368 . S
C2420 C2416 1.368 . S
C2420 C2419 1.523 . S
H2421 C2396 0.950 . S
H2422 C2398 0.950 . S
H2423 C2399 0.949 . S
H2424 C2401 0.950 . S
H2425 C2403 0.950 . S
C2426 C2427 1.349 . S
C2426 C2428 1.327 . S
C2426 H2451 0.950 . S
C2427 C2426 1.349 . S
C2427 C2443 1.349 . S
C2428 C2426 1.327 . S
C2428 C2447 1.429 . S
C2428 H2452 0.950 . S
C2429 C2446 1.574 . S
C2429 C2448 1.368 . S
C2429 H2453 0.949 . S
H2430 C2434 0.949 . S
C2431 C2432 1.349 . S
C2431 C2433 1.327 . S
C2431 H2454 0.950 . S
C2432 C2431 1.349 . S
C2432 C2444 1.349 . S
C2433 C2431 1.327 . S
C2433 C2449 1.429 . S
C2433 H2455 0.950 . S
C2434 H2430 0.949 . S
C2434 C2442 1.574 . S
C2434 C2450 1.368 . S
H2435 C2443 0.950 . S
H2436 C2441 0.950 . S
H2437 C2442 0.949 . S
H2438 C2444 0.950 . S
H2439 C2445 0.950 . S
H2440 C2446 0.949 . S
C2441 H2436 0.950 . S
C2441 C2443 1.327 . S
C2441 C2447 1.429 . S
C2442 C2434 1.574 . S
C2442 H2437 0.949 . S
C2442 C2448 1.368 . S
C2443 C2427 1.349 . S
C2443 H2435 0.950 . S
C2443 C2441 1.327 . S
C2444 C2432 1.349 . S
C2444 H2438 0.950 . S
C2444 C2445 1.327 . S
C2445 H2439 0.950 . S
C2445 C2444 1.327 . S
C2445 C2449 1.429 . S
C2446 C2429 1.574 . S
C2446 H2440 0.949 . S
C2446 C2450 1.368 . S
C2447 C2428 1.429 . S
C2447 C2441 1.429 . S
C2447 C2448 1.523 . S
C2448 C2429 1.368 . S
C2448 C2442 1.368 . S
C2448 C2447 1.523 . S
C2449 C2433 1.429 . S
C2449 C2445 1.429 . S
C2449 C2450 1.523 . S
C2450 C2434 1.368 . S
C2450 C2446 1.368 . S
C2450 C2449 1.523 . S
H2451 C2426 0.950 . S
H2452 C2428 0.950 . S
H2453 C2429 0.949 . S
H2454 C2431 0.950 . S
H2455 C2433 0.950 . S
C2456 C2457 1.349 . S
C2456 C2458 1.327 . S
C2456 H2481 0.950 . S
C2457 C2456 1.349 . S
C2457 C2473 1.349 . S
C2458 C2456 1.327 . S
C2458 C2477 1.429 . S
C2458 H2482 0.950 . S
C2459 C2476 1.574 . S
C2459 C2478 1.368 . S
C2459 H2483 0.949 . S
H2460 C2464 0.949 . S
C2461 C2462 1.349 . S
C2461 C2463 1.327 . S
C2461 H2484 0.950 . S
C2462 C2461 1.349 . S
C2462 C2474 1.349 . S
C2463 C2461 1.327 . S
C2463 C2479 1.429 . S
C2463 H2485 0.950 . S
C2464 H2460 0.949 . S
C2464 C2472 1.574 . S
C2464 C2480 1.368 . S
H2465 C2473 0.950 . S
H2466 C2471 0.950 . S
H2467 C2472 0.949 . S
H2468 C2474 0.950 . S
H2469 C2475 0.950 . S
H2470 C2476 0.949 . S
C2471 H2466 0.950 . S
C2471 C2473 1.327 . S
C2471 C2477 1.429 . S
C2472 C2464 1.574 . S
C2472 H2467 0.949 . S
C2472 C2478 1.368 . S
C2473 C2457 1.349 . S
C2473 H2465 0.950 . S
C2473 C2471 1.327 . S
C2474 C2462 1.349 . S
C2474 H2468 0.950 . S
C2474 C2475 1.327 . S
C2475 H2469 0.950 . S
C2475 C2474 1.327 . S
C2475 C2479 1.429 . S
C2476 C2459 1.574 . S
C2476 H2470 0.949 . S
C2476 C2480 1.368 . S
C2477 C2458 1.429 . S
C2477 C2471 1.429 . S
C2477 C2478 1.523 . S
C2478 C2459 1.368 . S
C2478 C2472 1.368 . S
C2478 C2477 1.523 . S
C2479 C2463 1.429 . S
C2479 C2475 1.429 . S
C2479 C2480 1.523 . S
C2480 C2464 1.368 . S
C2480 C2476 1.368 . S
C2480 C2479 1.523 . S
H2481 C2456 0.950 . S
H2482 C2458 0.950 . S
H2483 C2459 0.949 . S
H2484 C2461 0.950 . S
H2485 C2463 0.950 . S
C2486 C2487 1.349 . S
C2486 C2488 1.327 . S
C2486 H2511 0.950 . S
C2487 C2486 1.349 . S
C2487 C2503 1.349 . S
C2488 C2486 1.327 . S
C2488 C2507 1.429 . S
C2488 H2512 0.950 . S
C2489 C2506 1.574 . S
C2489 C2508 1.368 . S
C2489 H2513 0.949 . S
H2490 C2494 0.949 . S
C2491 C2492 1.349 . S
C2491 C2493 1.327 . S
C2491 H2514 0.950 . S
C2492 C2491 1.349 . S
C2492 C2504 1.349 . S
C2493 C2491 1.327 . S
C2493 C2509 1.429 . S
C2493 H2515 0.950 . S
C2494 H2490 0.949 . S
C2494 C2502 1.574 . S
C2494 C2510 1.368 . S
H2495 C2503 0.950 . S
H2496 C2501 0.950 . S
H2497 C2502 0.949 . S
H2498 C2504 0.950 . S
H2499 C2505 0.950 . S
H2500 C2506 0.949 . S
C2501 H2496 0.950 . S
C2501 C2503 1.327 . S
C2501 C2507 1.429 . S
C2502 C2494 1.574 . S
C2502 H2497 0.949 . S
C2502 C2508 1.368 . S
C2503 C2487 1.349 . S
C2503 H2495 0.950 . S
C2503 C2501 1.327 . S
C2504 C2492 1.349 . S
C2504 H2498 0.950 . S
C2504 C2505 1.327 . S
C2505 H2499 0.950 . S
C2505 C2504 1.327 . S
C2505 C2509 1.429 . S
C2506 C2489 1.574 . S
C2506 H2500 0.949 . S
C2506 C2510 1.368 . S
C2507 C2488 1.429 . S
C2507 C2501 1.429 . S
C2507 C2508 1.523 . S
C2508 C2489 1.368 . S
C2508 C2502 1.368 . S
C2508 C2507 1.523 . S
C2509 C2493 1.429 . S
C2509 C2505 1.429 . S
C2509 C2510 1.523 . S
C2510 C2494 1.368 . S
C2510 C2506 1.368 . S
C2510 C2509 1.523 . S
H2511 C2486 0.950 . S
H2512 C2488 0.950 . S
H2513 C2489 0.949 . S
H2514 C2491 0.950 . S
H2515 C2493 0.950 . S
C2516 C2517 1.349 . S
C2516 C2518 1.327 . S
C2516 H2541 0.950 . S
C2517 C2516 1.349 . S
C2517 C2533 1.349 . S
C2518 C2516 1.327 . S
C2518 C2537 1.429 . S
C2518 H2542 0.950 . S
C2519 C2536 1.574 . S
C2519 C2538 1.368 . S
C2519 H2543 0.949 . S
H2520 C2524 0.949 . S
C2521 C2522 1.349 . S
C2521 C2523 1.327 . S
C2521 H2544 0.950 . S
C2522 C2521 1.349 . S
C2522 C2534 1.349 . S
C2523 C2521 1.327 . S
C2523 C2539 1.429 . S
C2523 H2545 0.950 . S
C2524 H2520 0.949 . S
C2524 C2532 1.574 . S
C2524 C2540 1.368 . S
H2525 C2533 0.950 . S
H2526 C2531 0.950 . S
H2527 C2532 0.949 . S
H2528 C2534 0.950 . S
H2529 C2535 0.950 . S
H2530 C2536 0.949 . S
C2531 H2526 0.950 . S
C2531 C2533 1.327 . S
C2531 C2537 1.429 . S
C2532 C2524 1.574 . S
C2532 H2527 0.949 . S
C2532 C2538 1.368 . S
C2533 C2517 1.349 . S
C2533 H2525 0.950 . S
C2533 C2531 1.327 . S
C2534 C2522 1.349 . S
C2534 H2528 0.950 . S
C2534 C2535 1.327 . S
C2535 H2529 0.950 . S
C2535 C2534 1.327 . S
C2535 C2539 1.429 . S
C2536 C2519 1.574 . S
C2536 H2530 0.949 . S
C2536 C2540 1.368 . S
C2537 C2518 1.429 . S
C2537 C2531 1.429 . S
C2537 C2538 1.523 . S
C2538 C2519 1.368 . S
C2538 C2532 1.368 . S
C2538 C2537 1.523 . S
C2539 C2523 1.429 . S
C2539 C2535 1.429 . S
C2539 C2540 1.523 . S
C2540 C2524 1.368 . S
C2540 C2536 1.368 . S
C2540 C2539 1.523 . S
H2541 C2516 0.950 . S
H2542 C2518 0.950 . S
H2543 C2519 0.949 . S
H2544 C2521 0.950 . S
H2545 C2523 0.950 . S
C2546 C2547 1.349 . S
C2546 C2548 1.327 . S
C2546 H2571 0.950 . S
C2547 C2546 1.349 . S
C2547 C2563 1.349 . S
C2548 C2546 1.327 . S
C2548 C2567 1.429 . S
C2548 H2572 0.950 . S
C2549 C2566 1.574 . S
C2549 C2568 1.368 . S
C2549 H2573 0.949 . S
H2550 C2554 0.949 . S
C2551 C2552 1.349 . S
C2551 C2553 1.327 . S
C2551 H2574 0.950 . S
C2552 C2551 1.349 . S
C2552 C2564 1.349 . S
C2553 C2551 1.327 . S
C2553 C2569 1.429 . S
C2553 H2575 0.950 . S
C2554 H2550 0.949 . S
C2554 C2562 1.574 . S
C2554 C2570 1.368 . S
H2555 C2563 0.950 . S
H2556 C2561 0.950 . S
H2557 C2562 0.949 . S
H2558 C2564 0.950 . S
H2559 C2565 0.950 . S
H2560 C2566 0.949 . S
C2561 H2556 0.950 . S
C2561 C2563 1.327 . S
C2561 C2567 1.429 . S
C2562 C2554 1.574 . S
C2562 H2557 0.949 . S
C2562 C2568 1.368 . S
C2563 C2547 1.349 . S
C2563 H2555 0.950 . S
C2563 C2561 1.327 . S
C2564 C2552 1.349 . S
C2564 H2558 0.950 . S
C2564 C2565 1.327 . S
C2565 H2559 0.950 . S
C2565 C2564 1.327 . S
C2565 C2569 1.429 . S
C2566 C2549 1.574 . S
C2566 H2560 0.949 . S
C2566 C2570 1.368 . S
C2567 C2548 1.429 . S
C2567 C2561 1.429 . S
C2567 C2568 1.523 . S
C2568 C2549 1.368 . S
C2568 C2562 1.368 . S
C2568 C2567 1.523 . S
C2569 C2553 1.429 . S
C2569 C2565 1.429 . S
C2569 C2570 1.523 . S
C2570 C2554 1.368 . S
C2570 C2566 1.368 . S
C2570 C2569 1.523 . S
H2571 C2546 0.950 . S
H2572 C2548 0.950 . S
H2573 C2549 0.949 . S
H2574 C2551 0.950 . S
H2575 C2553 0.950 . S
C2576 C2577 1.349 . S
C2576 C2578 1.327 . S
C2576 H2601 0.950 . S
C2577 C2576 1.349 . S
C2577 C2593 1.349 . S
C2578 C2576 1.327 . S
C2578 C2597 1.429 . S
C2578 H2602 0.950 . S
C2579 C2596 1.574 . S
C2579 C2598 1.368 . S
C2579 H2603 0.949 . S
H2580 C2584 0.949 . S
C2581 C2582 1.349 . S
C2581 C2583 1.327 . S
C2581 H2604 0.950 . S
C2582 C2581 1.349 . S
C2582 C2594 1.349 . S
C2583 C2581 1.327 . S
C2583 C2599 1.429 . S
C2583 H2605 0.950 . S
C2584 H2580 0.949 . S
C2584 C2592 1.574 . S
C2584 C2600 1.368 . S
H2585 C2593 0.950 . S
H2586 C2591 0.950 . S
H2587 C2592 0.949 . S
H2588 C2594 0.950 . S
H2589 C2595 0.950 . S
H2590 C2596 0.949 . S
C2591 H2586 0.950 . S
C2591 C2593 1.327 . S
C2591 C2597 1.429 . S
C2592 C2584 1.574 . S
C2592 H2587 0.949 . S
C2592 C2598 1.368 . S
C2593 C2577 1.349 . S
C2593 H2585 0.950 . S
C2593 C2591 1.327 . S
C2594 C2582 1.349 . S
C2594 H2588 0.950 . S
C2594 C2595 1.327 . S
C2595 H2589 0.950 . S
C2595 C2594 1.327 . S
C2595 C2599 1.429 . S
C2596 C2579 1.574 . S
C2596 H2590 0.949 . S
C2596 C2600 1.368 . S
C2597 C2578 1.429 . S
C2597 C2591 1.429 . S
C2597 C2598 1.523 . S
C2598 C2579 1.368 . S
C2598 C2592 1.368 . S
C2598 C2597 1.523 . S
C2599 C2583 1.429 . S
C2599 C2595 1.429 . S
C2599 C2600 1.523 . S
C2600 C2584 1.368 . S
C2600 C2596 1.368 . S
C2600 C2599 1.523 . S
H2601 C2576 0.950 . S
H2602 C2578 0.950 . S
H2603 C2579 0.949 . S
H2604 C2581 0.950 . S
H2605 C2583 0.950 . S
C2606 C2607 1.349 . S
C2606 C2608 1.327 . S
C2606 H2631 0.950 . S
C2607 C2606 1.349 . S
C2607 C2623 1.349 . S
C2608 C2606 1.327 . S
C2608 C2627 1.429 . S
C2608 H2632 0.950 . S
C2609 C2626 1.574 . S
C2609 C2628 1.368 . S
C2609 H2633 0.949 . S
H2610 C2614 0.949 . S
C2611 C2612 1.349 . S
C2611 C2613 1.327 . S
C2611 H2634 0.950 . S
C2612 C2611 1.349 . S
C2612 C2624 1.349 . S
C2613 C2611 1.327 . S
C2613 C2629 1.429 . S
C2613 H2635 0.950 . S
C2614 H2610 0.949 . S
C2614 C2622 1.574 . S
C2614 C2630 1.368 . S
H2615 C2623 0.950 . S
H2616 C2621 0.950 . S
H2617 C2622 0.949 . S
H2618 C2624 0.950 . S
H2619 C2625 0.950 . S
H2620 C2626 0.949 . S
C2621 H2616 0.950 . S
C2621 C2623 1.327 . S
C2621 C2627 1.429 . S
C2622 C2614 1.574 . S
C2622 H2617 0.949 . S
C2622 C2628 1.368 . S
C2623 C2607 1.349 . S
C2623 H2615 0.950 . S
C2623 C2621 1.327 . S
C2624 C2612 1.349 . S
C2624 H2618 0.950 . S
C2624 C2625 1.327 . S
C2625 H2619 0.950 . S
C2625 C2624 1.327 . S
C2625 C2629 1.429 . S
C2626 C2609 1.574 . S
C2626 H2620 0.949 . S
C2626 C2630 1.368 . S
C2627 C2608 1.429 . S
C2627 C2621 1.429 . S
C2627 C2628 1.523 . S
C2628 C2609 1.368 . S
C2628 C2622 1.368 . S
C2628 C2627 1.523 . S
C2629 C2613 1.429 . S
C2629 C2625 1.429 . S
C2629 C2630 1.523 . S
C2630 C2614 1.368 . S
C2630 C2626 1.368 . S
C2630 C2629 1.523 . S
H2631 C2606 0.950 . S
H2632 C2608 0.950 . S
H2633 C2609 0.949 . S
H2634 C2611 0.950 . S
H2635 C2613 0.950 . S
C2636 C2637 1.349 . S
C2636 C2638 1.327 . S
C2636 H2661 0.950 . S
C2637 C2636 1.349 . S
C2637 C2653 1.349 . S
C2638 C2636 1.327 . S
C2638 C2657 1.429 . S
C2638 H2662 0.950 . S
C2639 C2656 1.574 . S
C2639 C2658 1.368 . S
C2639 H2663 0.949 . S
H2640 C2644 0.949 . S
C2641 C2642 1.349 . S
C2641 C2643 1.327 . S
C2641 H2664 0.950 . S
C2642 C2641 1.349 . S
C2642 C2654 1.349 . S
C2643 C2641 1.327 . S
C2643 C2659 1.429 . S
C2643 H2665 0.950 . S
C2644 H2640 0.949 . S
C2644 C2652 1.574 . S
C2644 C2660 1.368 . S
H2645 C2653 0.950 . S
H2646 C2651 0.950 . S
H2647 C2652 0.949 . S
H2648 C2654 0.950 . S
H2649 C2655 0.950 . S
H2650 C2656 0.949 . S
C2651 H2646 0.950 . S
C2651 C2653 1.327 . S
C2651 C2657 1.429 . S
C2652 C2644 1.574 . S
C2652 H2647 0.949 . S
C2652 C2658 1.368 . S
C2653 C2637 1.349 . S
C2653 H2645 0.950 . S
C2653 C2651 1.327 . S
C2654 C2642 1.349 . S
C2654 H2648 0.950 . S
C2654 C2655 1.327 . S
C2655 H2649 0.950 . S
C2655 C2654 1.327 . S
C2655 C2659 1.429 . S
C2656 C2639 1.574 . S
C2656 H2650 0.949 . S
C2656 C2660 1.368 . S
C2657 C2638 1.429 . S
C2657 C2651 1.429 . S
C2657 C2658 1.523 . S
C2658 C2639 1.368 . S
C2658 C2652 1.368 . S
C2658 C2657 1.523 . S
C2659 C2643 1.429 . S
C2659 C2655 1.429 . S
C2659 C2660 1.523 . S
C2660 C2644 1.368 . S
C2660 C2656 1.368 . S
C2660 C2659 1.523 . S
H2661 C2636 0.950 . S
H2662 C2638 0.950 . S
H2663 C2639 0.949 . S
H2664 C2641 0.950 . S
H2665 C2643 0.950 . S
C2666 C2667 1.349 . S
C2666 C2668 1.327 . S
C2666 H2691 0.950 . S
C2667 C2666 1.349 . S
C2667 C2683 1.349 . S
C2668 C2666 1.327 . S
C2668 C2687 1.429 . S
C2668 H2692 0.950 . S
C2669 C2686 1.574 . S
C2669 C2688 1.368 . S
C2669 H2693 0.949 . S
H2670 C2674 0.949 . S
C2671 C2672 1.349 . S
C2671 C2673 1.327 . S
C2671 H2694 0.950 . S
C2672 C2671 1.349 . S
C2672 C2684 1.371 . S
C2673 C2671 1.327 . S
C2673 C2689 1.429 1_545 S
C2673 H2695 0.950 . S
C2674 H2670 0.949 . S
C2674 C2682 1.574 . S
C2674 C2690 1.368 . S
H2675 C2683 0.950 . S
H2676 C2681 0.950 . S
H2677 C2682 0.949 . S
H2678 C2684 0.939 . S
H2679 C2685 0.950 . S
H2680 C2686 0.949 . S
C2681 H2676 0.950 . S
C2681 C2683 1.327 . S
C2681 C2687 1.429 . S
C2682 C2674 1.574 . S
C2682 H2677 0.949 . S
C2682 C2688 1.368 . S
C2683 C2667 1.349 . S
C2683 H2675 0.950 . S
C2683 C2681 1.327 . S
C2684 C2672 1.371 . S
C2684 H2678 0.939 . S
C2684 C2685 1.316 1_545 S
C2685 H2679 0.950 . S
C2685 C2684 1.316 1_565 S
C2685 C2689 1.429 . S
C2686 C2669 1.574 . S
C2686 H2680 0.949 . S
C2686 C2690 1.368 . S
C2687 C2668 1.429 . S
C2687 C2681 1.429 . S
C2687 C2688 1.523 . S
C2688 C2669 1.368 . S
C2688 C2682 1.368 . S
C2688 C2687 1.523 . S
C2689 C2673 1.429 1_565 S
C2689 C2685 1.429 . S
C2689 C2690 1.523 . S
C2690 C2674 1.368 . S
C2690 C2686 1.368 . S
C2690 C2689 1.523 . S
H2691 C2666 0.950 . S
H2692 C2668 0.950 . S
H2693 C2669 0.949 . S
H2694 C2671 0.950 . S
H2695 C2673 0.950 . S
C2696 C2697 1.349 . S
C2696 C2698 1.327 . S
C2696 H2721 0.950 . S
C2697 C2696 1.349 . S
C2697 C2713 1.349 . S
C2698 C2696 1.327 . S
C2698 C2717 1.429 . S
C2698 H2722 0.950 . S
C2699 C2716 1.574 . S
C2699 C2718 1.368 . S
C2699 H2723 0.949 . S
H2700 C2704 0.949 . S
C2701 C2702 1.349 . S
C2701 C2703 1.327 . S
C2701 H2724 0.950 . S
C2702 C2701 1.349 . S
C2702 C2714 1.349 . S
C2703 C2701 1.327 . S
C2703 C2719 1.429 . S
C2703 H2725 0.950 . S
C2704 H2700 0.949 . S
C2704 C2712 1.574 . S
C2704 C2720 1.368 . S
H2705 C2713 0.950 . S
H2706 C2711 0.950 . S
H2707 C2712 0.949 . S
H2708 C2714 0.950 . S
H2709 C2715 0.950 . S
H2710 C2716 0.949 . S
C2711 H2706 0.950 . S
C2711 C2713 1.327 . S
C2711 C2717 1.429 . S
C2712 C2704 1.574 . S
C2712 H2707 0.949 . S
C2712 C2718 1.368 . S
C2713 C2697 1.349 . S
C2713 H2705 0.950 . S
C2713 C2711 1.327 . S
C2714 C2702 1.349 . S
C2714 H2708 0.950 . S
C2714 C2715 1.327 . S
C2715 H2709 0.950 . S
C2715 C2714 1.327 . S
C2715 C2719 1.429 . S
C2716 C2699 1.574 . S
C2716 H2710 0.949 . S
C2716 C2720 1.368 . S
C2717 C2698 1.429 . S
C2717 C2711 1.429 . S
C2717 C2718 1.523 . S
C2718 C2699 1.368 . S
C2718 C2712 1.368 . S
C2718 C2717 1.523 . S
C2719 C2703 1.429 . S
C2719 C2715 1.429 . S
C2719 C2720 1.523 . S
C2720 C2704 1.368 . S
C2720 C2716 1.368 . S
C2720 C2719 1.523 . S
H2721 C2696 0.950 . S
H2722 C2698 0.950 . S
H2723 C2699 0.949 . S
H2724 C2701 0.950 . S
H2725 C2703 0.950 . S
C2726 C2727 1.349 . S
C2726 C2728 1.327 . S
C2726 H2751 0.950 . S
C2727 C2726 1.349 . S
C2727 C2743 1.349 . S
C2728 C2726 1.327 . S
C2728 C2747 1.429 . S
C2728 H2752 0.950 . S
C2729 C2746 1.574 . S
C2729 C2748 1.368 . S
C2729 H2753 0.949 . S
H2730 C2734 0.949 . S
C2731 C2732 1.349 . S
C2731 C2733 1.327 . S
C2731 H2754 0.950 . S
C2732 C2731 1.349 . S
C2732 C2744 1.349 . S
C2733 C2731 1.327 . S
C2733 C2749 1.429 . S
C2733 H2755 0.950 . S
C2734 H2730 0.949 . S
C2734 C2742 1.574 . S
C2734 C2750 1.368 . S
H2735 C2743 0.950 . S
H2736 C2741 0.950 . S
H2737 C2742 0.949 . S
H2738 C2744 0.950 . S
H2739 C2745 0.950 . S
H2740 C2746 0.949 . S
C2741 H2736 0.950 . S
C2741 C2743 1.327 . S
C2741 C2747 1.429 . S
C2742 C2734 1.574 . S
C2742 H2737 0.949 . S
C2742 C2748 1.368 . S
C2743 C2727 1.349 . S
C2743 H2735 0.950 . S
C2743 C2741 1.327 . S
C2744 C2732 1.349 . S
C2744 H2738 0.950 . S
C2744 C2745 1.327 . S
C2745 H2739 0.950 . S
C2745 C2744 1.327 . S
C2745 C2749 1.429 . S
C2746 C2729 1.574 . S
C2746 H2740 0.949 . S
C2746 C2750 1.368 . S
C2747 C2728 1.429 . S
C2747 C2741 1.429 . S
C2747 C2748 1.523 . S
C2748 C2729 1.368 . S
C2748 C2742 1.368 . S
C2748 C2747 1.523 . S
C2749 C2733 1.429 . S
C2749 C2745 1.429 . S
C2749 C2750 1.523 . S
C2750 C2734 1.368 . S
C2750 C2746 1.368 . S
C2750 C2749 1.523 . S
H2751 C2726 0.950 . S
H2752 C2728 0.950 . S
H2753 C2729 0.949 . S
H2754 C2731 0.950 . S
H2755 C2733 0.950 . S
C2756 C2757 1.349 . S
C2756 C2758 1.327 . S
C2756 H2781 0.950 . S
C2757 C2756 1.349 . S
C2757 C2773 1.349 . S
C2758 C2756 1.327 . S
C2758 C2777 1.429 . S
C2758 H2782 0.950 . S
C2759 C2776 1.574 . S
C2759 C2778 1.368 . S
C2759 H2783 0.949 . S
H2760 C2764 0.949 . S
C2761 C2762 1.349 . S
C2761 C2763 1.327 . S
C2761 H2784 0.950 . S
C2762 C2761 1.349 . S
C2762 C2774 1.349 . S
C2763 C2761 1.327 . S
C2763 C2779 1.429 . S
C2763 H2785 0.950 . S
C2764 H2760 0.949 . S
C2764 C2772 1.574 . S
C2764 C2780 1.368 . S
H2765 C2773 0.950 . S
H2766 C2771 0.950 . S
H2767 C2772 0.949 . S
H2768 C2774 0.950 . S
H2769 C2775 0.950 . S
H2770 C2776 0.949 . S
C2771 H2766 0.950 . S
C2771 C2773 1.327 . S
C2771 C2777 1.429 . S
C2772 C2764 1.574 . S
C2772 H2767 0.949 . S
C2772 C2778 1.368 . S
C2773 C2757 1.349 . S
C2773 H2765 0.950 . S
C2773 C2771 1.327 . S
C2774 C2762 1.349 . S
C2774 H2768 0.950 . S
C2774 C2775 1.327 . S
C2775 H2769 0.950 . S
C2775 C2774 1.327 . S
C2775 C2779 1.429 . S
C2776 C2759 1.574 . S
C2776 H2770 0.949 . S
C2776 C2780 1.368 . S
C2777 C2758 1.429 . S
C2777 C2771 1.429 . S
C2777 C2778 1.523 . S
C2778 C2759 1.368 . S
C2778 C2772 1.368 . S
C2778 C2777 1.523 . S
C2779 C2763 1.429 . S
C2779 C2775 1.429 . S
C2779 C2780 1.523 . S
C2780 C2764 1.368 . S
C2780 C2776 1.368 . S
C2780 C2779 1.523 . S
H2781 C2756 0.950 . S
H2782 C2758 0.950 . S
H2783 C2759 0.949 . S
H2784 C2761 0.950 . S
H2785 C2763 0.950 . S
C2786 C2787 1.349 . S
C2786 C2788 1.327 . S
C2786 H2811 0.950 . S
C2787 C2786 1.349 . S
C2787 C2803 1.349 . S
C2788 C2786 1.327 . S
C2788 C2807 1.429 . S
C2788 H2812 0.950 . S
C2789 C2806 1.574 . S
C2789 C2808 1.368 . S
C2789 H2813 0.949 . S
H2790 C2794 0.949 . S
C2791 C2792 1.349 . S
C2791 C2793 1.327 . S
C2791 H2814 0.950 . S
C2792 C2791 1.349 . S
C2792 C2804 1.349 . S
C2793 C2791 1.327 . S
C2793 C2809 1.429 . S
C2793 H2815 0.950 . S
C2794 H2790 0.949 . S
C2794 C2802 1.574 . S
C2794 C2810 1.368 . S
H2795 C2803 0.950 . S
H2796 C2801 0.950 . S
H2797 C2802 0.949 . S
H2798 C2804 0.950 . S
H2799 C2805 0.950 . S
H2800 C2806 0.949 . S
C2801 H2796 0.950 . S
C2801 C2803 1.327 . S
C2801 C2807 1.429 . S
C2802 C2794 1.574 . S
C2802 H2797 0.949 . S
C2802 C2808 1.368 . S
C2803 C2787 1.349 . S
C2803 H2795 0.950 . S
C2803 C2801 1.327 . S
C2804 C2792 1.349 . S
C2804 H2798 0.950 . S
C2804 C2805 1.327 . S
C2805 H2799 0.950 . S
C2805 C2804 1.327 . S
C2805 C2809 1.429 . S
C2806 C2789 1.574 . S
C2806 H2800 0.949 . S
C2806 C2810 1.368 . S
C2807 C2788 1.429 . S
C2807 C2801 1.429 . S
C2807 C2808 1.523 . S
C2808 C2789 1.368 . S
C2808 C2802 1.368 . S
C2808 C2807 1.523 . S
C2809 C2793 1.429 . S
C2809 C2805 1.429 . S
C2809 C2810 1.523 . S
C2810 C2794 1.368 . S
C2810 C2806 1.368 . S
C2810 C2809 1.523 . S
H2811 C2786 0.950 . S
H2812 C2788 0.950 . S
H2813 C2789 0.949 . S
H2814 C2791 0.950 . S
H2815 C2793 0.950 . S
C2816 C2817 1.349 . S
C2816 C2818 1.327 . S
C2816 H2841 0.950 . S
C2817 C2816 1.349 . S
C2817 C2833 1.349 . S
C2818 C2816 1.327 . S
C2818 C2837 1.429 . S
C2818 H2842 0.950 . S
C2819 C2836 1.574 . S
C2819 C2838 1.368 . S
C2819 H2843 0.949 . S
H2820 C2824 0.949 . S
C2821 C2822 1.349 . S
C2821 C2823 1.327 . S
C2821 H2844 0.950 . S
C2822 C2821 1.349 . S
C2822 C2834 1.349 . S
C2823 C2821 1.327 . S
C2823 C2839 1.429 . S
C2823 H2845 0.950 . S
C2824 H2820 0.949 . S
C2824 C2832 1.574 . S
C2824 C2840 1.368 . S
H2825 C2833 0.950 . S
H2826 C2831 0.950 . S
H2827 C2832 0.949 . S
H2828 C2834 0.950 . S
H2829 C2835 0.950 . S
H2830 C2836 0.949 . S
C2831 H2826 0.950 . S
C2831 C2833 1.327 . S
C2831 C2837 1.429 . S
C2832 C2824 1.574 . S
C2832 H2827 0.949 . S
C2832 C2838 1.368 . S
C2833 C2817 1.349 . S
C2833 H2825 0.950 . S
C2833 C2831 1.327 . S
C2834 C2822 1.349 . S
C2834 H2828 0.950 . S
C2834 C2835 1.327 . S
C2835 H2829 0.950 . S
C2835 C2834 1.327 . S
C2835 C2839 1.429 . S
C2836 C2819 1.574 . S
C2836 H2830 0.949 . S
C2836 C2840 1.368 . S
C2837 C2818 1.429 . S
C2837 C2831 1.429 . S
C2837 C2838 1.523 . S
C2838 C2819 1.368 . S
C2838 C2832 1.368 . S
C2838 C2837 1.523 . S
C2839 C2823 1.429 . S
C2839 C2835 1.429 . S
C2839 C2840 1.523 . S
C2840 C2824 1.368 . S
C2840 C2836 1.368 . S
C2840 C2839 1.523 . S
H2841 C2816 0.950 . S
H2842 C2818 0.950 . S
H2843 C2819 0.949 . S
H2844 C2821 0.950 . S
H2845 C2823 0.950 . S
C2846 C2847 1.349 . S
C2846 C2848 1.327 . S
C2846 H2871 0.950 . S
C2847 C2846 1.349 . S
C2847 C2863 1.349 . S
C2848 C2846 1.327 . S
C2848 C2867 1.429 . S
C2848 H2872 0.950 . S
C2849 C2866 1.574 . S
C2849 C2868 1.368 . S
C2849 H2873 0.949 . S
H2850 C2854 0.949 . S
C2851 C2852 1.349 . S
C2851 C2853 1.327 . S
C2851 H2874 0.950 . S
C2852 C2851 1.349 . S
C2852 C2864 1.349 . S
C2853 C2851 1.327 . S
C2853 C2869 1.429 . S
C2853 H2875 0.950 . S
C2854 H2850 0.949 . S
C2854 C2862 1.574 . S
C2854 C2870 1.368 . S
H2855 C2863 0.950 . S
H2856 C2861 0.950 . S
H2857 C2862 0.949 . S
H2858 C2864 0.950 . S
H2859 C2865 0.950 . S
H2860 C2866 0.949 . S
C2861 H2856 0.950 . S
C2861 C2863 1.327 . S
C2861 C2867 1.429 . S
C2862 C2854 1.574 . S
C2862 H2857 0.949 . S
C2862 C2868 1.368 . S
C2863 C2847 1.349 . S
C2863 H2855 0.950 . S
C2863 C2861 1.327 . S
C2864 C2852 1.349 . S
C2864 H2858 0.950 . S
C2864 C2865 1.327 . S
C2865 H2859 0.950 . S
C2865 C2864 1.327 . S
C2865 C2869 1.429 . S
C2866 C2849 1.574 . S
C2866 H2860 0.949 . S
C2866 C2870 1.368 . S
C2867 C2848 1.429 . S
C2867 C2861 1.429 . S
C2867 C2868 1.523 . S
C2868 C2849 1.368 . S
C2868 C2862 1.368 . S
C2868 C2867 1.523 . S
C2869 C2853 1.429 . S
C2869 C2865 1.429 . S
C2869 C2870 1.523 . S
C2870 C2854 1.368 . S
C2870 C2866 1.368 . S
C2870 C2869 1.523 . S
H2871 C2846 0.950 . S
H2872 C2848 0.950 . S
H2873 C2849 0.949 . S
H2874 C2851 0.950 . S
H2875 C2853 0.950 . S
C2876 C2877 1.349 . S
C2876 C2878 1.327 . S
C2876 H2901 0.950 . S
C2877 C2876 1.349 . S
C2877 C2893 1.349 . S
C2878 C2876 1.327 . S
C2878 C2897 1.429 . S
C2878 H2902 0.950 . S
C2879 C2896 1.574 . S
C2879 C2898 1.368 . S
C2879 H2903 0.949 . S
H2880 C2884 0.949 . S
C2881 C2882 1.349 . S
C2881 C2883 1.327 . S
C2881 H2904 0.950 . S
C2882 C2881 1.349 . S
C2882 C2894 1.349 . S
C2883 C2881 1.327 . S
C2883 C2899 1.429 . S
C2883 H2905 0.950 . S
C2884 H2880 0.949 . S
C2884 C2892 1.574 . S
C2884 C2900 1.368 . S
H2885 C2893 0.950 . S
H2886 C2891 0.950 . S
H2887 C2892 0.949 . S
H2888 C2894 0.950 . S
H2889 C2895 0.950 . S
H2890 C2896 0.949 . S
C2891 H2886 0.950 . S
C2891 C2893 1.327 . S
C2891 C2897 1.429 . S
C2892 C2884 1.574 . S
C2892 H2887 0.949 . S
C2892 C2898 1.368 . S
C2893 C2877 1.349 . S
C2893 H2885 0.950 . S
C2893 C2891 1.327 . S
C2894 C2882 1.349 . S
C2894 H2888 0.950 . S
C2894 C2895 1.327 . S
C2895 H2889 0.950 . S
C2895 C2894 1.327 . S
C2895 C2899 1.429 . S
C2896 C2879 1.574 . S
C2896 H2890 0.949 . S
C2896 C2900 1.368 . S
C2897 C2878 1.429 . S
C2897 C2891 1.429 . S
C2897 C2898 1.523 . S
C2898 C2879 1.368 . S
C2898 C2892 1.368 . S
C2898 C2897 1.523 . S
C2899 C2883 1.429 . S
C2899 C2895 1.429 . S
C2899 C2900 1.523 . S
C2900 C2884 1.368 . S
C2900 C2896 1.368 . S
C2900 C2899 1.523 . S
H2901 C2876 0.950 . S
H2902 C2878 0.950 . S
H2903 C2879 0.949 . S
H2904 C2881 0.950 . S
H2905 C2883 0.950 . S
C2906 C2907 1.349 . S
C2906 C2908 1.327 . S
C2906 H2931 0.950 . S
C2907 C2906 1.349 . S
C2907 C2923 1.349 . S
C2908 C2906 1.327 . S
C2908 C2927 1.429 . S
C2908 H2932 0.950 . S
C2909 C2926 1.574 . S
C2909 C2928 1.368 . S
C2909 H2933 0.949 . S
H2910 C2914 0.949 . S
C2911 C2912 1.349 . S
C2911 C2913 1.327 . S
C2911 H2934 0.950 . S
C2912 C2911 1.349 . S
C2912 C2924 1.349 . S
C2913 C2911 1.327 . S
C2913 C2929 1.429 . S
C2913 H2935 0.950 . S
C2914 H2910 0.949 . S
C2914 C2922 1.574 . S
C2914 C2930 1.368 . S
H2915 C2923 0.950 . S
H2916 C2921 0.950 . S
H2917 C2922 0.949 . S
H2918 C2924 0.950 . S
H2919 C2925 0.950 . S
H2920 C2926 0.949 . S
C2921 H2916 0.950 . S
C2921 C2923 1.327 . S
C2921 C2927 1.429 . S
C2922 C2914 1.574 . S
C2922 H2917 0.949 . S
C2922 C2928 1.368 . S
C2923 C2907 1.349 . S
C2923 H2915 0.950 . S
C2923 C2921 1.327 . S
C2924 C2912 1.349 . S
C2924 H2918 0.950 . S
C2924 C2925 1.327 . S
C2925 H2919 0.950 . S
C2925 C2924 1.327 . S
C2925 C2929 1.429 . S
C2926 C2909 1.574 . S
C2926 H2920 0.949 . S
C2926 C2930 1.368 . S
C2927 C2908 1.429 . S
C2927 C2921 1.429 . S
C2927 C2928 1.523 . S
C2928 C2909 1.368 . S
C2928 C2922 1.368 . S
C2928 C2927 1.523 . S
C2929 C2913 1.429 . S
C2929 C2925 1.429 . S
C2929 C2930 1.523 . S
C2930 C2914 1.368 . S
C2930 C2926 1.368 . S
C2930 C2929 1.523 . S
H2931 C2906 0.950 . S
H2932 C2908 0.950 . S
H2933 C2909 0.949 . S
H2934 C2911 0.950 . S
H2935 C2913 0.950 . S
C2936 C2937 1.349 . S
C2936 C2938 1.327 . S
C2936 H2961 0.950 . S
C2937 C2936 1.349 . S
C2937 C2953 1.349 . S
C2938 C2936 1.327 . S
C2938 C2957 1.429 . S
C2938 H2962 0.950 . S
C2939 C2956 1.574 . S
C2939 C2958 1.368 . S
C2939 H2963 0.949 . S
H2940 C2944 0.949 . S
C2941 C2942 1.338 1_554 S
C2941 C2943 1.327 1_554 S
C2941 H2964 0.950 . S
C2942 C2941 1.338 1_556 S
C2942 C2954 1.381 . S
C2943 C2941 1.327 1_556 S
C2943 C2959 1.429 . S
C2943 H2965 0.950 1_556 S
C2944 H2940 0.949 . S
C2944 C2952 1.574 . S
C2944 C2960 1.368 . S
H2945 C2953 0.950 . S
H2946 C2951 0.950 . S
H2947 C2952 0.949 . S
H2948 C2954 0.950 . S
H2949 C2955 0.950 . S
H2950 C2956 0.949 . S
C2951 H2946 0.950 . S
C2951 C2953 1.327 . S
C2951 C2957 1.429 . S
C2952 C2944 1.574 . S
C2952 H2947 0.949 . S
C2952 C2958 1.368 . S
C2953 C2937 1.349 . S
C2953 H2945 0.950 . S
C2953 C2951 1.327 . S
C2954 C2942 1.381 . S
C2954 H2948 0.950 . S
C2954 C2955 1.327 . S
C2955 H2949 0.950 . S
C2955 C2954 1.327 . S
C2955 C2959 1.429 . S
C2956 C2939 1.574 . S
C2956 H2950 0.949 . S
C2956 C2960 1.368 . S
C2957 C2938 1.429 . S
C2957 C2951 1.429 . S
C2957 C2958 1.523 . S
C2958 C2939 1.368 . S
C2958 C2952 1.368 . S
C2958 C2957 1.523 . S
C2959 C2943 1.429 . S
C2959 C2955 1.429 . S
C2959 C2960 1.523 . S
C2960 C2944 1.368 . S
C2960 C2956 1.368 . S
C2960 C2959 1.523 . S
H2961 C2936 0.950 . S
H2962 C2938 0.950 . S
H2963 C2939 0.949 . S
H2964 C2941 0.950 . S
H2965 C2943 0.950 1_554 S
C2966 C2967 1.349 . S
C2966 C2968 1.327 . S
C2966 H2991 0.950 . S
C2967 C2966 1.349 . S
C2967 C2983 1.349 . S
C2968 C2966 1.327 . S
C2968 C2987 1.429 . S
C2968 H2992 0.950 . S
C2969 C2986 1.574 . S
C2969 C2988 1.368 . S
C2969 H2993 0.949 . S
H2970 C2974 0.949 . S
C2971 C2972 1.349 . S
C2971 C2973 1.327 . S
C2971 H2994 0.950 . S
C2972 C2971 1.349 . S
C2972 C2984 1.349 . S
C2973 C2971 1.327 . S
C2973 C2989 1.429 . S
C2973 H2995 0.950 . S
C2974 H2970 0.949 . S
C2974 C2982 1.574 . S
C2974 C2990 1.368 . S
H2975 C2983 0.950 . S
H2976 C2981 0.950 . S
H2977 C2982 0.949 . S
H2978 C2984 0.950 . S
H2979 C2985 0.950 . S
H2980 C2986 0.949 . S
C2981 H2976 0.950 . S
C2981 C2983 1.327 . S
C2981 C2987 1.429 . S
C2982 C2974 1.574 . S
C2982 H2977 0.949 . S
C2982 C2988 1.368 . S
C2983 C2967 1.349 . S
C2983 H2975 0.950 . S
C2983 C2981 1.327 . S
C2984 C2972 1.349 . S
C2984 H2978 0.950 . S
C2984 C2985 1.327 . S
C2985 H2979 0.950 . S
C2985 C2984 1.327 . S
C2985 C2989 1.429 . S
C2986 C2969 1.574 . S
C2986 H2980 0.949 . S
C2986 C2990 1.368 . S
C2987 C2968 1.429 . S
C2987 C2981 1.429 . S
C2987 C2988 1.523 . S
C2988 C2969 1.368 . S
C2988 C2982 1.368 . S
C2988 C2987 1.523 . S
C2989 C2973 1.429 . S
C2989 C2985 1.429 . S
C2989 C2990 1.523 . S
C2990 C2974 1.368 . S
C2990 C2986 1.368 . S
C2990 C2989 1.523 . S
H2991 C2966 0.950 . S
H2992 C2968 0.950 . S
H2993 C2969 0.949 . S
H2994 C2971 0.950 . S
H2995 C2973 0.950 . S
C2996 C2997 1.349 . S
C2996 C2998 1.327 . S
C2996 H3021 0.950 1_455 S
C2997 C2996 1.349 . S
C2997 C3013 1.349 . S
C2998 C2996 1.327 . S
C2998 C3017 1.429 . S
C2998 H3022 0.950 1_455 S
C2999 C3016 1.574 . S
C2999 C3018 1.368 . S
C2999 H3023 0.949 . S
H3000 C3004 0.944 . S
C3001 C3002 1.349 . S
C3001 C3003 1.327 . S
C3001 H3024 0.950 . S
C3002 C3001 1.349 . S
C3002 C3014 1.337 1_455 S
C3003 C3001 1.327 . S
C3003 C3019 1.429 . S
C3003 H3025 0.950 . S
C3004 H3000 0.944 . S
C3004 C3012 1.567 1_655 S
C3004 C3020 1.372 1_655 S
H3005 C3013 0.950 . S
H3006 C3011 0.950 . S
H3007 C3012 0.931 1_655 S
H3008 C3014 0.966 . S
H3009 C3015 0.957 . S
H3010 C3016 0.949 . S
C3011 H3006 0.950 . S
C3011 C3013 1.327 . S
C3011 C3017 1.429 . S
C3012 C3004 1.567 1_455 S
C3012 H3007 0.931 1_455 S
C3012 C3018 1.397 . S
C3013 C2997 1.349 . S
C3013 H3005 0.950 . S
C3013 C3011 1.327 . S
C3014 C3002 1.337 1_655 S
C3014 H3008 0.966 . S
C3014 C3015 1.325 . S
C3015 H3009 0.957 . S
C3015 C3014 1.325 . S
C3015 C3019 1.419 1_655 S
C3016 C2999 1.574 . S
C3016 H3010 0.949 . S
C3016 C3020 1.368 . S
C3017 C2998 1.429 . S
C3017 C3011 1.429 . S
C3017 C3018 1.523 . S
C3018 C2999 1.368 . S
C3018 C3012 1.397 . S
C3018 C3017 1.523 . S
C3019 C3003 1.429 . S
C3019 C3015 1.419 1_455 S
C3019 C3020 1.523 . S
C3020 C3004 1.372 1_455 S
C3020 C3016 1.368 . S
C3020 C3019 1.523 . S
H3021 C2996 0.950 1_655 S
H3022 C2998 0.950 1_655 S
H3023 C2999 0.949 . S
H3024 C3001 0.950 . S
H3025 C3003 0.950 . S
C3026 C3027 1.349 . S
C3026 C3028 1.327 . S
C3026 H3051 0.950 . S
C3027 C3026 1.349 . S
C3027 C3043 1.349 . S
C3028 C3026 1.327 . S
C3028 C3047 1.429 . S
C3028 H3052 0.950 . S
C3029 C3046 1.574 . S
C3029 C3048 1.368 . S
C3029 H3053 0.949 . S
H3030 C3034 0.949 . S
C3031 C3032 1.349 . S
C3031 C3033 1.327 . S
C3031 H3054 0.950 . S
C3032 C3031 1.349 . S
C3032 C3044 1.349 . S
C3033 C3031 1.327 . S
C3033 C3049 1.429 . S
C3033 H3055 0.950 . S
C3034 H3030 0.949 . S
C3034 C3042 1.574 . S
C3034 C3050 1.368 . S
H3035 C3043 0.950 . S
H3036 C3041 0.950 . S
H3037 C3042 0.949 . S
H3038 C3044 0.950 . S
H3039 C3045 0.950 . S
H3040 C3046 0.949 . S
C3041 H3036 0.950 . S
C3041 C3043 1.327 . S
C3041 C3047 1.429 . S
C3042 C3034 1.574 . S
C3042 H3037 0.949 . S
C3042 C3048 1.368 . S
C3043 C3027 1.349 . S
C3043 H3035 0.950 . S
C3043 C3041 1.327 . S
C3044 C3032 1.349 . S
C3044 H3038 0.950 . S
C3044 C3045 1.327 . S
C3045 H3039 0.950 . S
C3045 C3044 1.327 . S
C3045 C3049 1.429 . S
C3046 C3029 1.574 . S
C3046 H3040 0.949 . S
C3046 C3050 1.368 . S
C3047 C3028 1.429 . S
C3047 C3041 1.429 . S
C3047 C3048 1.523 . S
C3048 C3029 1.368 . S
C3048 C3042 1.368 . S
C3048 C3047 1.523 . S
C3049 C3033 1.429 . S
C3049 C3045 1.429 . S
C3049 C3050 1.523 . S
C3050 C3034 1.368 . S
C3050 C3046 1.368 . S
C3050 C3049 1.523 . S
H3051 C3026 0.950 . S
H3052 C3028 0.950 . S
H3053 C3029 0.949 . S
H3054 C3031 0.950 . S
H3055 C3033 0.950 . S
C3056 C3057 1.349 . S
C3056 C3058 1.327 . S
C3056 H3081 0.950 . S
C3057 C3056 1.349 . S
C3057 C3073 1.349 . S
C3058 C3056 1.327 . S
C3058 C3077 1.429 . S
C3058 H3082 0.950 . S
C3059 C3076 1.574 . S
C3059 C3078 1.368 . S
C3059 H3083 0.949 . S
H3060 C3064 0.949 . S
C3061 C3062 1.349 . S
C3061 C3063 1.327 . S
C3061 H3084 0.950 . S
C3062 C3061 1.349 . S
C3062 C3074 1.349 . S
C3063 C3061 1.327 . S
C3063 C3079 1.429 . S
C3063 H3085 0.950 . S
C3064 H3060 0.949 . S
C3064 C3072 1.574 . S
C3064 C3080 1.368 . S
H3065 C3073 0.950 . S
H3066 C3071 0.950 . S
H3067 C3072 0.949 . S
H3068 C3074 0.950 . S
H3069 C3075 0.950 . S
H3070 C3076 0.949 . S
C3071 H3066 0.950 . S
C3071 C3073 1.327 . S
C3071 C3077 1.429 . S
C3072 C3064 1.574 . S
C3072 H3067 0.949 . S
C3072 C3078 1.368 . S
C3073 C3057 1.349 . S
C3073 H3065 0.950 . S
C3073 C3071 1.327 . S
C3074 C3062 1.349 . S
C3074 H3068 0.950 . S
C3074 C3075 1.327 . S
C3075 H3069 0.950 . S
C3075 C3074 1.327 . S
C3075 C3079 1.429 . S
C3076 C3059 1.574 . S
C3076 H3070 0.949 . S
C3076 C3080 1.368 . S
C3077 C3058 1.429 . S
C3077 C3071 1.429 . S
C3077 C3078 1.523 . S
C3078 C3059 1.368 . S
C3078 C3072 1.368 . S
C3078 C3077 1.523 . S
C3079 C3063 1.429 . S
C3079 C3075 1.429 . S
C3079 C3080 1.523 . S
C3080 C3064 1.368 . S
C3080 C3076 1.368 . S
C3080 C3079 1.523 . S
H3081 C3056 0.950 . S
H3082 C3058 0.950 . S
H3083 C3059 0.949 . S
H3084 C3061 0.950 . S
H3085 C3063 0.950 . S
C3086 C3087 1.349 . S
C3086 C3088 1.327 . S
C3086 H3111 0.950 . S
C3087 C3086 1.349 . S
C3087 C3103 1.349 . S
C3088 C3086 1.327 . S
C3088 C3107 1.429 . S
C3088 H3112 0.950 . S
C3089 C3106 1.574 . S
C3089 C3108 1.368 . S
C3089 H3113 0.949 . S
H3090 C3094 0.949 . S
C3091 C3092 1.349 . S
C3091 C3093 1.327 . S
C3091 H3114 0.950 . S
C3092 C3091 1.349 . S
C3092 C3104 1.349 . S
C3093 C3091 1.327 . S
C3093 C3109 1.429 . S
C3093 H3115 0.950 . S
C3094 H3090 0.949 . S
C3094 C3102 1.574 . S
C3094 C3110 1.368 . S
H3095 C3103 0.950 . S
H3096 C3101 0.950 . S
H3097 C3102 0.949 . S
H3098 C3104 0.950 . S
H3099 C3105 0.950 . S
H3100 C3106 0.949 . S
C3101 H3096 0.950 . S
C3101 C3103 1.327 . S
C3101 C3107 1.429 . S
C3102 C3094 1.574 . S
C3102 H3097 0.949 . S
C3102 C3108 1.368 . S
C3103 C3087 1.349 . S
C3103 H3095 0.950 . S
C3103 C3101 1.327 . S
C3104 C3092 1.349 . S
C3104 H3098 0.950 . S
C3104 C3105 1.327 . S
C3105 H3099 0.950 . S
C3105 C3104 1.327 . S
C3105 C3109 1.429 . S
C3106 C3089 1.574 . S
C3106 H3100 0.949 . S
C3106 C3110 1.368 . S
C3107 C3088 1.429 . S
C3107 C3101 1.429 . S
C3107 C3108 1.523 . S
C3108 C3089 1.368 . S
C3108 C3102 1.368 . S
C3108 C3107 1.523 . S
C3109 C3093 1.429 . S
C3109 C3105 1.429 . S
C3109 C3110 1.523 . S
C3110 C3094 1.368 . S
C3110 C3106 1.368 . S
C3110 C3109 1.523 . S
H3111 C3086 0.950 . S
H3112 C3088 0.950 . S
H3113 C3089 0.949 . S
H3114 C3091 0.950 . S
H3115 C3093 0.950 . S
C3116 C3117 1.349 . S
C3116 C3118 1.327 . S
C3116 H3141 0.950 . S
C3117 C3116 1.349 . S
C3117 C3133 1.349 . S
C3118 C3116 1.327 . S
C3118 C3137 1.429 . S
C3118 H3142 0.950 . S
C3119 C3136 1.574 . S
C3119 C3138 1.368 . S
C3119 H3143 0.949 . S
H3120 C3124 0.949 . S
C3121 C3122 1.349 . S
C3121 C3123 1.327 . S
C3121 H3144 0.950 . S
C3122 C3121 1.349 . S
C3122 C3134 1.334 1_655 S
C3123 C3121 1.327 . S
C3123 C3139 1.429 . S
C3123 H3145 0.950 . S
C3124 H3120 0.949 . S
C3124 C3132 1.574 . S
C3124 C3140 1.368 . S
H3125 C3133 0.950 . S
H3126 C3131 0.950 . S
H3127 C3132 0.949 . S
H3128 C3134 0.981 . S
H3129 C3135 0.950 . S
H3130 C3136 0.949 . S
C3131 H3126 0.950 . S
C3131 C3133 1.327 . S
C3131 C3137 1.429 . S
C3132 C3124 1.574 . S
C3132 H3127 0.949 . S
C3132 C3138 1.368 . S
C3133 C3117 1.349 . S
C3133 H3125 0.950 . S
C3133 C3131 1.327 . S
C3134 C3122 1.334 1_455 S
C3134 H3128 0.981 . S
C3134 C3135 1.312 1_455 S
C3135 H3129 0.950 . S
C3135 C3134 1.312 1_655 S
C3135 C3139 1.429 . S
C3136 C3119 1.574 . S
C3136 H3130 0.949 . S
C3136 C3140 1.368 . S
C3137 C3118 1.429 . S
C3137 C3131 1.429 . S
C3137 C3138 1.523 . S
C3138 C3119 1.368 . S
C3138 C3132 1.368 . S
C3138 C3137 1.523 . S
C3139 C3123 1.429 . S
C3139 C3135 1.429 . S
C3139 C3140 1.523 . S
C3140 C3124 1.368 . S
C3140 C3136 1.368 . S
C3140 C3139 1.523 . S
H3141 C3116 0.950 . S
H3142 C3118 0.950 . S
H3143 C3119 0.949 . S
H3144 C3121 0.950 . S
H3145 C3123 0.950 . S
C3146 C3147 1.349 . S
C3146 C3148 1.327 . S
C3146 H3171 0.950 . S
C3147 C3146 1.349 . S
C3147 C3163 1.349 . S
C3148 C3146 1.327 . S
C3148 C3167 1.429 . S
C3148 H3172 0.950 . S
C3149 C3166 1.574 . S
C3149 C3168 1.368 . S
C3149 H3173 0.949 . S
H3150 C3154 0.949 . S
C3151 C3152 1.349 . S
C3151 C3153 1.327 . S
C3151 H3174 0.950 . S
C3152 C3151 1.349 . S
C3152 C3164 1.349 . S
C3153 C3151 1.327 . S
C3153 C3169 1.429 . S
C3153 H3175 0.950 . S
C3154 H3150 0.949 . S
C3154 C3162 1.574 . S
C3154 C3170 1.368 . S
H3155 C3163 0.950 . S
H3156 C3161 0.950 . S
H3157 C3162 0.949 . S
H3158 C3164 0.950 . S
H3159 C3165 0.950 . S
H3160 C3166 0.949 . S
C3161 H3156 0.950 . S
C3161 C3163 1.327 . S
C3161 C3167 1.429 . S
C3162 C3154 1.574 . S
C3162 H3157 0.949 . S
C3162 C3168 1.368 . S
C3163 C3147 1.349 . S
C3163 H3155 0.950 . S
C3163 C3161 1.327 . S
C3164 C3152 1.349 . S
C3164 H3158 0.950 . S
C3164 C3165 1.327 . S
C3165 H3159 0.950 . S
C3165 C3164 1.327 . S
C3165 C3169 1.429 . S
C3166 C3149 1.574 . S
C3166 H3160 0.949 . S
C3166 C3170 1.368 . S
C3167 C3148 1.429 . S
C3167 C3161 1.429 . S
C3167 C3168 1.523 . S
C3168 C3149 1.368 . S
C3168 C3162 1.368 . S
C3168 C3167 1.523 . S
C3169 C3153 1.429 . S
C3169 C3165 1.429 . S
C3169 C3170 1.523 . S
C3170 C3154 1.368 . S
C3170 C3166 1.368 . S
C3170 C3169 1.523 . S
H3171 C3146 0.950 . S
H3172 C3148 0.950 . S
H3173 C3149 0.949 . S
H3174 C3151 0.950 . S
H3175 C3153 0.950 . S
C3176 C3177 1.349 . S
C3176 C3178 1.327 . S
C3176 H3201 0.950 . S
C3177 C3176 1.349 . S
C3177 C3193 1.349 . S
C3178 C3176 1.327 . S
C3178 C3197 1.429 . S
C3178 H3202 0.950 . S
C3179 C3196 1.574 . S
C3179 C3198 1.368 . S
C3179 H3203 0.949 . S
H3180 C3184 0.949 . S
C3181 C3182 1.349 . S
C3181 C3183 1.327 . S
C3181 H3204 0.950 . S
C3182 C3181 1.349 . S
C3182 C3194 1.349 . S
C3183 C3181 1.327 . S
C3183 C3199 1.429 . S
C3183 H3205 0.950 . S
C3184 H3180 0.949 . S
C3184 C3192 1.574 . S
C3184 C3200 1.368 . S
H3185 C3193 0.950 . S
H3186 C3191 0.950 . S
H3187 C3192 0.949 . S
H3188 C3194 0.950 . S
H3189 C3195 0.950 . S
H3190 C3196 0.949 . S
C3191 H3186 0.950 . S
C3191 C3193 1.327 . S
C3191 C3197 1.429 . S
C3192 C3184 1.574 . S
C3192 H3187 0.949 . S
C3192 C3198 1.368 . S
C3193 C3177 1.349 . S
C3193 H3185 0.950 . S
C3193 C3191 1.327 . S
C3194 C3182 1.349 . S
C3194 H3188 0.950 . S
C3194 C3195 1.327 . S
C3195 H3189 0.950 . S
C3195 C3194 1.327 . S
C3195 C3199 1.429 . S
C3196 C3179 1.574 . S
C3196 H3190 0.949 . S
C3196 C3200 1.368 . S
C3197 C3178 1.429 . S
C3197 C3191 1.429 . S
C3197 C3198 1.523 . S
C3198 C3179 1.368 . S
C3198 C3192 1.368 . S
C3198 C3197 1.523 . S
C3199 C3183 1.429 . S
C3199 C3195 1.429 . S
C3199 C3200 1.523 . S
C3200 C3184 1.368 . S
C3200 C3196 1.368 . S
C3200 C3199 1.523 . S
H3201 C3176 0.950 . S
H3202 C3178 0.950 . S
H3203 C3179 0.949 . S
H3204 C3181 0.950 . S
H3205 C3183 0.950 . S
C3206 C3207 1.349 . S
C3206 C3208 1.327 . S
C3206 H3231 0.950 . S
C3207 C3206 1.349 . S
C3207 C3223 1.349 . S
C3208 C3206 1.327 . S
C3208 C3227 1.429 . S
C3208 H3232 0.950 . S
C3209 C3226 1.574 . S
C3209 C3228 1.368 . S
C3209 H3233 0.949 . S
H3210 C3214 0.949 . S
C3211 C3212 1.349 . S
C3211 C3213 1.327 . S
C3211 H3234 0.950 . S
C3212 C3211 1.349 . S
C3212 C3224 1.349 . S
C3213 C3211 1.327 . S
C3213 C3229 1.429 . S
C3213 H3235 0.950 . S
C3214 H3210 0.949 . S
C3214 C3222 1.574 . S
C3214 C3230 1.368 . S
H3215 C3223 0.950 . S
H3216 C3221 0.950 . S
H3217 C3222 0.949 . S
H3218 C3224 0.950 . S
H3219 C3225 0.950 . S
H3220 C3226 0.949 . S
C3221 H3216 0.950 . S
C3221 C3223 1.327 . S
C3221 C3227 1.429 . S
C3222 C3214 1.574 . S
C3222 H3217 0.949 . S
C3222 C3228 1.368 . S
C3223 C3207 1.349 . S
C3223 H3215 0.950 . S
C3223 C3221 1.327 . S
C3224 C3212 1.349 . S
C3224 H3218 0.950 . S
C3224 C3225 1.327 . S
C3225 H3219 0.950 . S
C3225 C3224 1.327 . S
C3225 C3229 1.429 . S
C3226 C3209 1.574 . S
C3226 H3220 0.949 . S
C3226 C3230 1.368 . S
C3227 C3208 1.429 . S
C3227 C3221 1.429 . S
C3227 C3228 1.523 . S
C3228 C3209 1.368 . S
C3228 C3222 1.368 . S
C3228 C3227 1.523 . S
C3229 C3213 1.429 . S
C3229 C3225 1.429 . S
C3229 C3230 1.523 . S
C3230 C3214 1.368 . S
C3230 C3226 1.368 . S
C3230 C3229 1.523 . S
H3231 C3206 0.950 . S
H3232 C3208 0.950 . S
H3233 C3209 0.949 . S
H3234 C3211 0.950 . S
H3235 C3213 0.950 . S
C3236 C3237 1.349 . S
C3236 C3238 1.327 . S
C3236 H3261 0.950 . S
C3237 C3236 1.349 . S
C3237 C3253 1.349 . S
C3238 C3236 1.327 . S
C3238 C3257 1.429 . S
C3238 H3262 0.950 . S
C3239 C3256 1.574 . S
C3239 C3258 1.368 . S
C3239 H3263 0.949 . S
H3240 C3244 0.949 . S
C3241 C3242 1.349 . S
C3241 C3243 1.327 . S
C3241 H3264 0.950 . S
C3242 C3241 1.349 . S
C3242 C3254 1.349 . S
C3243 C3241 1.327 . S
C3243 C3259 1.429 . S
C3243 H3265 0.950 . S
C3244 H3240 0.949 . S
C3244 C3252 1.574 . S
C3244 C3260 1.368 . S
H3245 C3253 0.950 . S
H3246 C3251 0.950 . S
H3247 C3252 0.949 . S
H3248 C3254 0.950 . S
H3249 C3255 0.950 . S
H3250 C3256 0.949 . S
C3251 H3246 0.950 . S
C3251 C3253 1.327 . S
C3251 C3257 1.429 . S
C3252 C3244 1.574 . S
C3252 H3247 0.949 . S
C3252 C3258 1.368 . S
C3253 C3237 1.349 . S
C3253 H3245 0.950 . S
C3253 C3251 1.327 . S
C3254 C3242 1.349 . S
C3254 H3248 0.950 . S
C3254 C3255 1.327 . S
C3255 H3249 0.950 . S
C3255 C3254 1.327 . S
C3255 C3259 1.429 . S
C3256 C3239 1.574 . S
C3256 H3250 0.949 . S
C3256 C3260 1.368 . S
C3257 C3238 1.429 . S
C3257 C3251 1.429 . S
C3257 C3258 1.523 . S
C3258 C3239 1.368 . S
C3258 C3252 1.368 . S
C3258 C3257 1.523 . S
C3259 C3243 1.429 . S
C3259 C3255 1.429 . S
C3259 C3260 1.523 . S
C3260 C3244 1.368 . S
C3260 C3256 1.368 . S
C3260 C3259 1.523 . S
H3261 C3236 0.950 . S
H3262 C3238 0.950 . S
H3263 C3239 0.949 . S
H3264 C3241 0.950 . S
H3265 C3243 0.950 . S
C3266 C3267 1.349 . S
C3266 C3268 1.327 . S
C3266 H3291 0.950 . S
C3267 C3266 1.349 . S
C3267 C3283 1.349 . S
C3268 C3266 1.327 . S
C3268 C3287 1.429 . S
C3268 H3292 0.950 . S
C3269 C3286 1.574 . S
C3269 C3288 1.368 . S
C3269 H3293 0.949 . S
H3270 C3274 0.949 . S
C3271 C3272 1.349 . S
C3271 C3273 1.327 . S
C3271 H3294 0.950 . S
C3272 C3271 1.349 . S
C3272 C3284 1.349 . S
C3273 C3271 1.327 . S
C3273 C3289 1.429 . S
C3273 H3295 0.950 . S
C3274 H3270 0.949 . S
C3274 C3282 1.574 . S
C3274 C3290 1.368 . S
H3275 C3283 0.950 . S
H3276 C3281 0.950 . S
H3277 C3282 0.949 . S
H3278 C3284 0.950 . S
H3279 C3285 0.950 . S
H3280 C3286 0.949 . S
C3281 H3276 0.950 . S
C3281 C3283 1.327 . S
C3281 C3287 1.429 . S
C3282 C3274 1.574 . S
C3282 H3277 0.949 . S
C3282 C3288 1.368 . S
C3283 C3267 1.349 . S
C3283 H3275 0.950 . S
C3283 C3281 1.327 . S
C3284 C3272 1.349 . S
C3284 H3278 0.950 . S
C3284 C3285 1.327 . S
C3285 H3279 0.950 . S
C3285 C3284 1.327 . S
C3285 C3289 1.429 . S
C3286 C3269 1.574 . S
C3286 H3280 0.949 . S
C3286 C3290 1.368 . S
C3287 C3268 1.429 . S
C3287 C3281 1.429 . S
C3287 C3288 1.523 . S
C3288 C3269 1.368 . S
C3288 C3282 1.368 . S
C3288 C3287 1.523 . S
C3289 C3273 1.429 . S
C3289 C3285 1.429 . S
C3289 C3290 1.523 . S
C3290 C3274 1.368 . S
C3290 C3286 1.368 . S
C3290 C3289 1.523 . S
H3291 C3266 0.950 . S
H3292 C3268 0.950 . S
H3293 C3269 0.949 . S
H3294 C3271 0.950 . S
H3295 C3273 0.950 . S
C3296 C3297 1.349 . S
C3296 C3298 1.327 . S
C3296 H3321 0.950 . S
C3297 C3296 1.349 . S
C3297 C3313 1.349 . S
C3298 C3296 1.327 . S
C3298 C3317 1.429 . S
C3298 H3322 0.950 . S
C3299 C3316 1.574 . S
C3299 C3318 1.368 . S
C3299 H3323 0.949 . S
H3300 C3304 0.949 . S
C3301 C3302 1.349 . S
C3301 C3303 1.327 . S
C3301 H3324 0.950 . S
C3302 C3301 1.349 . S
C3302 C3314 1.349 . S
C3303 C3301 1.327 . S
C3303 C3319 1.429 . S
C3303 H3325 0.950 . S
C3304 H3300 0.949 . S
C3304 C3312 1.574 . S
C3304 C3320 1.368 . S
H3305 C3313 0.950 . S
H3306 C3311 0.950 . S
H3307 C3312 0.949 . S
H3308 C3314 0.950 . S
H3309 C3315 0.950 . S
H3310 C3316 0.949 . S
C3311 H3306 0.950 . S
C3311 C3313 1.327 . S
C3311 C3317 1.429 . S
C3312 C3304 1.574 . S
C3312 H3307 0.949 . S
C3312 C3318 1.368 . S
C3313 C3297 1.349 . S
C3313 H3305 0.950 . S
C3313 C3311 1.327 . S
C3314 C3302 1.349 . S
C3314 H3308 0.950 . S
C3314 C3315 1.327 . S
C3315 H3309 0.950 . S
C3315 C3314 1.327 . S
C3315 C3319 1.429 . S
C3316 C3299 1.574 . S
C3316 H3310 0.949 . S
C3316 C3320 1.368 . S
C3317 C3298 1.429 . S
C3317 C3311 1.429 . S
C3317 C3318 1.523 . S
C3318 C3299 1.368 . S
C3318 C3312 1.368 . S
C3318 C3317 1.523 . S
C3319 C3303 1.429 . S
C3319 C3315 1.429 . S
C3319 C3320 1.523 . S
C3320 C3304 1.368 . S
C3320 C3316 1.368 . S
C3320 C3319 1.523 . S
H3321 C3296 0.950 . S
H3322 C3298 0.950 . S
H3323 C3299 0.949 . S
H3324 C3301 0.950 . S
H3325 C3303 0.950 . S
C3326 C3327 1.349 . S
C3326 C3328 1.327 . S
C3326 H3351 0.950 . S
C3327 C3326 1.349 . S
C3327 C3343 1.349 . S
C3328 C3326 1.327 . S
C3328 C3347 1.429 . S
C3328 H3352 0.950 . S
C3329 C3346 1.574 . S
C3329 C3348 1.368 . S
C3329 H3353 0.949 . S
H3330 C3334 0.949 . S
C3331 C3332 1.349 1_565 S
C3331 C3333 1.327 . S
C3331 H3354 0.950 . S
C3332 C3331 1.349 1_545 S
C3332 C3344 1.349 . S
C3333 C3331 1.327 . S
C3333 C3349 1.429 . S
C3333 H3355 0.950 . S
C3334 H3330 0.949 . S
C3334 C3342 1.574 . S
C3334 C3350 1.368 . S
H3335 C3343 0.950 . S
H3336 C3341 0.950 . S
H3337 C3342 0.949 . S
H3338 C3344 0.950 . S
H3339 C3345 0.950 . S
H3340 C3346 0.949 . S
C3341 H3336 0.950 . S
C3341 C3343 1.327 . S
C3341 C3347 1.429 . S
C3342 C3334 1.574 . S
C3342 H3337 0.949 . S
C3342 C3348 1.368 . S
C3343 C3327 1.349 . S
C3343 H3335 0.950 . S
C3343 C3341 1.327 . S
C3344 C3332 1.349 . S
C3344 H3338 0.950 . S
C3344 C3345 1.327 1_545 S
C3345 H3339 0.950 . S
C3345 C3344 1.327 1_565 S
C3345 C3349 1.429 . S
C3346 C3329 1.574 . S
C3346 H3340 0.949 . S
C3346 C3350 1.368 . S
C3347 C3328 1.429 . S
C3347 C3341 1.429 . S
C3347 C3348 1.523 . S
C3348 C3329 1.368 . S
C3348 C3342 1.368 . S
C3348 C3347 1.523 . S
C3349 C3333 1.429 . S
C3349 C3345 1.429 . S
C3349 C3350 1.523 . S
C3350 C3334 1.368 . S
C3350 C3346 1.368 . S
C3350 C3349 1.523 . S
H3351 C3326 0.950 . S
H3352 C3328 0.950 . S
H3353 C3329 0.949 . S
H3354 C3331 0.950 . S
H3355 C3333 0.950 . S
C3356 C3357 1.349 . S
C3356 C3358 1.327 . S
C3356 H3381 0.950 . S
C3357 C3356 1.349 . S
C3357 C3373 1.349 . S
C3358 C3356 1.327 . S
C3358 C3377 1.429 . S
C3358 H3382 0.950 . S
C3359 C3376 1.574 . S
C3359 C3378 1.368 . S
C3359 H3383 0.949 . S
H3360 C3364 0.949 . S
C3361 C3362 1.349 . S
C3361 C3363 1.327 . S
C3361 H3384 0.950 . S
C3362 C3361 1.349 . S
C3362 C3374 1.349 . S
C3363 C3361 1.327 . S
C3363 C3379 1.429 . S
C3363 H3385 0.950 . S
C3364 H3360 0.949 . S
C3364 C3372 1.574 . S
C3364 C3380 1.368 . S
H3365 C3373 0.950 . S
H3366 C3371 0.950 . S
H3367 C3372 0.949 . S
H3368 C3374 0.950 . S
H3369 C3375 0.950 . S
H3370 C3376 0.949 . S
C3371 H3366 0.950 . S
C3371 C3373 1.327 . S
C3371 C3377 1.429 . S
C3372 C3364 1.574 . S
C3372 H3367 0.949 . S
C3372 C3378 1.368 . S
C3373 C3357 1.349 . S
C3373 H3365 0.950 . S
C3373 C3371 1.327 . S
C3374 C3362 1.349 . S
C3374 H3368 0.950 . S
C3374 C3375 1.327 . S
C3375 H3369 0.950 . S
C3375 C3374 1.327 . S
C3375 C3379 1.429 . S
C3376 C3359 1.574 . S
C3376 H3370 0.949 . S
C3376 C3380 1.368 . S
C3377 C3358 1.429 . S
C3377 C3371 1.429 . S
C3377 C3378 1.523 . S
C3378 C3359 1.368 . S
C3378 C3372 1.368 . S
C3378 C3377 1.523 . S
C3379 C3363 1.429 . S
C3379 C3375 1.429 . S
C3379 C3380 1.523 . S
C3380 C3364 1.368 . S
C3380 C3376 1.368 . S
C3380 C3379 1.523 . S
H3381 C3356 0.950 . S
H3382 C3358 0.950 . S
H3383 C3359 0.949 . S
H3384 C3361 0.950 . S
H3385 C3363 0.950 . S
C3386 C3387 1.349 . S
C3386 C3388 1.327 . S
C3386 H3411 0.950 . S
C3387 C3386 1.349 . S
C3387 C3403 1.349 1_554 S
C3388 C3386 1.327 . S
C3388 C3407 1.429 . S
C3388 H3412 0.950 . S
C3389 C3406 1.574 . S
C3389 C3408 1.368 . S
C3389 H3413 0.949 1_554 S
H3390 C3394 0.949 . S
C3391 C3392 1.349 . S
C3391 C3393 1.327 . S
C3391 H3414 0.950 . S
C3392 C3391 1.349 . S
C3392 C3404 1.349 . S
C3393 C3391 1.327 . S
C3393 C3409 1.429 . S
C3393 H3415 0.950 . S
C3394 H3390 0.949 . S
C3394 C3402 1.574 . S
C3394 C3410 1.368 . S
H3395 C3403 0.950 . S
H3396 C3401 0.950 . S
H3397 C3402 0.949 . S
H3398 C3404 0.950 . S
H3399 C3405 0.950 . S
H3400 C3406 0.954 . S
C3401 H3396 0.950 . S
C3401 C3403 1.327 . S
C3401 C3407 1.429 1_556 S
C3402 C3394 1.574 . S
C3402 H3397 0.949 . S
C3402 C3408 1.368 . S
C3403 C3387 1.349 1_556 S
C3403 H3395 0.950 . S
C3403 C3401 1.327 . S
C3404 C3392 1.349 . S
C3404 H3398 0.950 . S
C3404 C3405 1.327 . S
C3405 H3399 0.950 . S
C3405 C3404 1.327 . S
C3405 C3409 1.429 . S
C3406 C3389 1.574 . S
C3406 H3400 0.954 . S
C3406 C3410 1.368 . S
C3407 C3388 1.429 . S
C3407 C3401 1.429 1_554 S
C3407 C3408 1.523 . S
C3408 C3389 1.368 . S
C3408 C3402 1.368 . S
C3408 C3407 1.523 . S
C3409 C3393 1.429 . S
C3409 C3405 1.429 . S
C3409 C3410 1.523 . S
C3410 C3394 1.368 . S
C3410 C3406 1.368 . S
C3410 C3409 1.523 . S
H3411 C3386 0.950 . S
H3412 C3388 0.950 . S
H3413 C3389 0.949 1_556 S
H3414 C3391 0.950 . S
H3415 C3393 0.950 . S
C3416 C3417 1.349 . S
C3416 C3418 1.327 . S
C3416 H3441 0.950 . S
C3417 C3416 1.349 . S
C3417 C3433 1.349 . S
C3418 C3416 1.327 . S
C3418 C3437 1.429 . S
C3418 H3442 0.950 . S
C3419 C3436 1.574 . S
C3419 C3438 1.368 . S
C3419 H3443 0.949 . S
H3420 C3424 0.949 . S
C3421 C3422 1.349 . S
C3421 C3423 1.327 . S
C3421 H3444 0.950 . S
C3422 C3421 1.349 . S
C3422 C3434 1.349 . S
C3423 C3421 1.327 . S
C3423 C3439 1.429 . S
C3423 H3445 0.950 . S
C3424 H3420 0.949 . S
C3424 C3432 1.574 . S
C3424 C3440 1.368 . S
H3425 C3433 0.950 . S
H3426 C3431 0.950 . S
H3427 C3432 0.949 . S
H3428 C3434 0.950 . S
H3429 C3435 0.950 . S
H3430 C3436 0.949 . S
C3431 H3426 0.950 . S
C3431 C3433 1.327 . S
C3431 C3437 1.429 . S
C3432 C3424 1.574 . S
C3432 H3427 0.949 . S
C3432 C3438 1.368 . S
C3433 C3417 1.349 . S
C3433 H3425 0.950 . S
C3433 C3431 1.327 . S
C3434 C3422 1.349 . S
C3434 H3428 0.950 . S
C3434 C3435 1.327 . S
C3435 H3429 0.950 . S
C3435 C3434 1.327 . S
C3435 C3439 1.429 . S
C3436 C3419 1.574 . S
C3436 H3430 0.949 . S
C3436 C3440 1.368 . S
C3437 C3418 1.429 . S
C3437 C3431 1.429 . S
C3437 C3438 1.523 . S
C3438 C3419 1.368 . S
C3438 C3432 1.368 . S
C3438 C3437 1.523 . S
C3439 C3423 1.429 . S
C3439 C3435 1.429 . S
C3439 C3440 1.523 . S
C3440 C3424 1.368 . S
C3440 C3436 1.368 . S
C3440 C3439 1.523 . S
H3441 C3416 0.950 . S
H3442 C3418 0.950 . S
H3443 C3419 0.949 . S
H3444 C3421 0.950 . S
H3445 C3423 0.950 . S
C3446 C3447 1.349 . S
C3446 C3448 1.327 . S
C3446 H3471 0.950 . S
C3447 C3446 1.349 . S
C3447 C3463 1.349 . S
C3448 C3446 1.327 . S
C3448 C3467 1.429 . S
C3448 H3472 0.950 . S
C3449 C3466 1.574 . S
C3449 C3468 1.368 . S
C3449 H3473 0.949 1_554 S
H3450 C3454 0.949 . S
C3451 C3452 1.349 . S
C3451 C3453 1.327 . S
C3451 H3474 0.950 1_554 S
C3452 C3451 1.349 . S
C3452 C3464 1.349 . S
C3453 C3451 1.327 . S
C3453 C3469 1.429 . S
C3453 H3475 0.950 1_554 S
C3454 H3450 0.949 . S
C3454 C3462 1.574 . S
C3454 C3470 1.368 . S
H3455 C3463 0.946 . S
H3456 C3461 0.950 1_556 S
H3457 C3462 0.949 . S
H3458 C3464 0.950 . S
H3459 C3465 0.950 . S
H3460 C3466 0.949 1_556 S
C3461 H3456 0.950 1_554 S
C3461 C3463 1.327 . S
C3461 C3467 1.429 . S
C3462 C3454 1.574 . S
C3462 H3457 0.949 . S
C3462 C3468 1.368 . S
C3463 C3447 1.349 . S
C3463 H3455 0.946 . S
C3463 C3461 1.327 . S
C3464 C3452 1.349 . S
C3464 H3458 0.950 . S
C3464 C3465 1.327 . S
C3465 H3459 0.950 . S
C3465 C3464 1.327 . S
C3465 C3469 1.429 . S
C3466 C3449 1.574 . S
C3466 H3460 0.949 1_554 S
C3466 C3470 1.368 . S
C3467 C3448 1.429 . S
C3467 C3461 1.429 . S
C3467 C3468 1.523 . S
C3468 C3449 1.368 . S
C3468 C3462 1.368 . S
C3468 C3467 1.523 . S
C3469 C3453 1.429 . S
C3469 C3465 1.429 . S
C3469 C3470 1.523 . S
C3470 C3454 1.368 . S
C3470 C3466 1.368 . S
C3470 C3469 1.523 . S
H3471 C3446 0.950 . S
H3472 C3448 0.950 . S
H3473 C3449 0.949 1_556 S
H3474 C3451 0.950 1_556 S
H3475 C3453 0.950 1_556 S
C3476 C3477 1.349 . S
C3476 C3478 1.327 . S
C3476 H3501 0.950 . S
C3477 C3476 1.349 . S
C3477 C3493 1.349 . S
C3478 C3476 1.327 . S
C3478 C3497 1.429 . S
C3478 H3502 0.950 . S
C3479 C3496 1.574 . S
C3479 C3498 1.368 . S
C3479 H3503 0.949 . S
H3480 C3484 0.949 . S
C3481 C3482 1.349 . S
C3481 C3483 1.327 . S
C3481 H3504 0.950 . S
C3482 C3481 1.349 . S
C3482 C3494 1.349 . S
C3483 C3481 1.327 . S
C3483 C3499 1.429 . S
C3483 H3505 0.950 . S
C3484 H3480 0.949 . S
C3484 C3492 1.574 . S
C3484 C3500 1.368 . S
H3485 C3493 0.950 . S
H3486 C3491 0.950 . S
H3487 C3492 0.949 . S
H3488 C3494 0.950 . S
H3489 C3495 0.950 . S
H3490 C3496 0.949 . S
C3491 H3486 0.950 . S
C3491 C3493 1.327 . S
C3491 C3497 1.429 . S
C3492 C3484 1.574 . S
C3492 H3487 0.949 . S
C3492 C3498 1.368 . S
C3493 C3477 1.349 . S
C3493 H3485 0.950 . S
C3493 C3491 1.327 . S
C3494 C3482 1.349 . S
C3494 H3488 0.950 . S
C3494 C3495 1.327 . S
C3495 H3489 0.950 . S
C3495 C3494 1.327 . S
C3495 C3499 1.429 . S
C3496 C3479 1.574 . S
C3496 H3490 0.949 . S
C3496 C3500 1.368 . S
C3497 C3478 1.429 . S
C3497 C3491 1.429 . S
C3497 C3498 1.523 . S
C3498 C3479 1.368 . S
C3498 C3492 1.368 . S
C3498 C3497 1.523 . S
C3499 C3483 1.429 . S
C3499 C3495 1.429 . S
C3499 C3500 1.523 . S
C3500 C3484 1.368 . S
C3500 C3496 1.368 . S
C3500 C3499 1.523 . S
H3501 C3476 0.950 . S
H3502 C3478 0.950 . S
H3503 C3479 0.949 . S
H3504 C3481 0.950 . S
H3505 C3483 0.950 . S
C3506 C3507 1.349 . S
C3506 C3508 1.327 . S
C3506 H3531 0.950 . S
C3507 C3506 1.349 . S
C3507 C3523 1.349 . S
C3508 C3506 1.327 . S
C3508 C3527 1.429 . S
C3508 H3532 0.950 . S
C3509 C3526 1.574 . S
C3509 C3528 1.368 . S
C3509 H3533 0.949 . S
H3510 C3514 0.949 . S
C3511 C3512 1.349 . S
C3511 C3513 1.327 . S
C3511 H3534 0.950 . S
C3512 C3511 1.349 . S
C3512 C3524 1.349 . S
C3513 C3511 1.327 . S
C3513 C3529 1.429 . S
C3513 H3535 0.950 . S
C3514 H3510 0.949 . S
C3514 C3522 1.574 . S
C3514 C3530 1.368 . S
H3515 C3523 0.950 . S
H3516 C3521 0.950 . S
H3517 C3522 0.949 . S
H3518 C3524 0.950 . S
H3519 C3525 0.950 . S
H3520 C3526 0.949 . S
C3521 H3516 0.950 . S
C3521 C3523 1.327 . S
C3521 C3527 1.429 . S
C3522 C3514 1.574 . S
C3522 H3517 0.949 . S
C3522 C3528 1.368 . S
C3523 C3507 1.349 . S
C3523 H3515 0.950 . S
C3523 C3521 1.327 . S
C3524 C3512 1.349 . S
C3524 H3518 0.950 . S
C3524 C3525 1.327 . S
C3525 H3519 0.950 . S
C3525 C3524 1.327 . S
C3525 C3529 1.429 . S
C3526 C3509 1.574 . S
C3526 H3520 0.949 . S
C3526 C3530 1.368 . S
C3527 C3508 1.429 . S
C3527 C3521 1.429 . S
C3527 C3528 1.523 . S
C3528 C3509 1.368 . S
C3528 C3522 1.368 . S
C3528 C3527 1.523 . S
C3529 C3513 1.429 . S
C3529 C3525 1.429 . S
C3529 C3530 1.523 . S
C3530 C3514 1.368 . S
C3530 C3526 1.368 . S
C3530 C3529 1.523 . S
H3531 C3506 0.950 . S
H3532 C3508 0.950 . S
H3533 C3509 0.949 . S
H3534 C3511 0.950 . S
H3535 C3513 0.950 . S
C657 C106 1.856 . S
C662 C354 1.821 . S
C687 C65 1.542 . S
C692 C365 1.539 . S
C717 C79 1.263 . S
C722 C394 1.232 . S
C752 C397 1.176 . S
C747 C90 1.157 . S
C777 C21 1.305 . S
C782 C435 1.301 . S
C812 C438 0.849 . S
C807 C35 0.835 . S
C842 C465 1.437 . S
C837 C50 1.440 . S
C867 C6 1.593 . S
C872 C494 1.580 . S
C902 C345 1.724 1_655 S
C897 C232 1.725 . S
C927 C245 0.733 . S
C932 C357 0.731 . S
C962 C385 1.655 . S
C957 C274 1.656 . S
C992 C414 0.974 . S
C987 C175 0.972 . S
C1017 C231 0.701 . S
C1022 C418 0.706 . S
C1052 C444 1.575 . S
C1047 C246 1.592 . S
C1082 C457 0.491 . S
C1077 C273 0.520 . S
C1112 C485 1.703 . S
C1107 C176 1.701 . S
C1142 C337 1.541 . S
C1137 C160 1.513 . S
C1167 C289 1.755 . S
C1172 C504 1.730 . S
C1202 C535 1.524 . S
C1197 C328 1.524 . S
C1232 C554 0.960 . S
C1227 C317 0.973 . S
C1257 C118 1.259 . S
C1262 C477 1.305 . S
C1287 C132 1.405 . S
C1292 C377 1.454 . S
C1317 C331 1.665 . S
C1322 C565 1.658 . S
C1352 C594 1.001 . S
C1347 C303 1.019 . S
C1382 C355 1.384 1_565 S
C1377 C63 1.406 . S
C1412 C584 1.957 . S
C1407 C107 1.931 . S
C1437 C92 1.015 . S
C1442 C395 1.000 . S
C1467 C78 1.770 . S
C1472 C558 1.781 . S
C1502 C434 1.912 . S
C1497 C8 1.941 . S
C1527 C51 0.984 . S
C1532 C517 0.984 . S
C1562 C464 1.783 . S
C1557 C37 1.759 . S
C1592 C615 1.509 . S
C1587 C20 1.527 . S
C1622 C344 1.501 . S
C1617 C147 1.465 . S
C1652 C578 0.896 . S
C1647 C316 0.903 . S
C1677 C119 1.549 . S
C1682 C384 1.581 . S
C1707 C288 1.108 . S
C1712 C575 1.101 . S
C1737 C148 1.018 1_545 S
C1742 C417 1.025 . S
C1772 C525 1.596 . S
C1767 C315 1.580 . S
C1797 C120 0.809 . S
C1802 C458 0.807 . S
C1827 C287 1.551 . S
C1832 C604 1.570 . S
C1857 C188 1.367 . S
C1862 C338 1.379 . S
C1887 C177 2.041 . S
C1892 C505 2.033 . S
C1917 C258 1.605 . S
C1922 C454 1.609 . S
C1947 C247 1.053 . S
C1952 C555 1.043 . S
C1982 C598 1.187 . S
C1977 C272 1.168 . S
C2007 C216 1.237 . S
C2012 C378 1.273 1_565 S
C2042 C404 1.900 . S
C2037 C261 1.893 . S
C2072 C375 1.004 . S
C2067 C205 1.022 . S
C2097 C76 1.442 . S
C2102 C634 1.443 . S
C2132 C585 1.615 . S
C2127 C93 1.618 . S
C2157 C105 0.858 . S
C2162 C654 0.856 . S
C2187 C62 1.190 . S
C2192 C557 1.213 . S
C2217 C49 1.267 . S
C2222 C515 1.262 . S
C2252 C518 1.238 . S
C2247 C9 1.221 . S
C2282 C545 1.368 . S
C2277 C22 1.372 . S
C2312 C614 1.949 . S
C2307 C36 2.011 . S
C2342 C625 1.640 . S
C2337 C260 1.640 . S
C2367 C189 0.598 . S
C2372 C577 0.577 . S
C2402 C645 1.569 . S
C2397 C204 1.569 . S
C2432 C574 0.790 . S
C2427 C217 0.790 . S
C2462 C498 0.889 . S
C2457 C259 0.870 . S
C2487 C190 1.686 . S
C2492 C524 1.674 . S
C2522 C537 0.645 . S
C2517 C203 0.657 . S
C2547 C218 1.777 . S
C2552 C605 1.778 . S
C2582 C617 1.478 . S
C2577 C314 1.445 . S
C2607 C135 1.818 . S
C2612 C424 1.797 . S
C2642 C455 1.440 . S
C2637 C146 1.443 . S
C2672 C474 1.017 . S
C2667 C163 1.027 . S
C2702 C597 1.358 . S
C2697 C300 1.317 . S
C2727 C286 1.337 . S
C2732 C637 1.392 . S
C2762 C405 1.586 . S
C2757 C149 1.585 . S
C2792 C374 0.952 . S
C2787 C121 1.012 . S
C2817 C91 1.388 . S
C2822 C635 1.382 . S
C2852 C364 1.541 . S
C2847 C77 1.482 . S
C2877 C64 0.982 . S
C2882 C655 0.973 . S
C2907 C104 1.379 . S
C2912 C398 1.418 . S
C2937 C34 1.515 . S
C2942 C514 1.505 1_556 S
C2972 C437 0.948 . S
C2967 C23 0.946 . S
C2997 C7 1.330 . S
C3002 C544 1.374 . S
C3027 C48 1.501 . S
C3032 C495 1.489 . S
C3062 C624 1.484 . S
C3057 C329 1.454 . S
C3087 C162 0.898 . S
C3092 C358 0.892 . S
C3122 C644 1.532 1_656 S
C3117 C301 1.550 . S
C3147 C134 1.115 . S
C3152 C415 1.110 . S
C3177 C330 1.021 . S
C3182 C497 1.023 . S
C3212 C445 1.592 . S
C3207 C161 1.580 . S
C3237 C302 0.813 . S
C3242 C538 0.811 . S
C3272 C484 1.555 . S
C3267 C133 1.541 . S
C3302 C618 1.633 . S
C3297 C244 1.614 . S
C3332 C425 2.004 . S
C3327 C219 2.017 . S
C3357 C230 1.331 . S
C3362 C534 1.329 . S
C3392 C475 0.996 . S
C3387 C191 1.012 . S
C3417 C202 1.409 . S
C3422 C478 1.435 . S
C3447 C174 1.484 . S
C3452 C638 1.530 . S
C3482 C564 1.870 . S
C3477 C233 1.856 1_565 S
C3512 C595 0.978 . S
C3507 C275 1.001 . S
