# Generated by pormake.
# Topology ctn, (3,4)-cn, num edge types: 1
# Building blocks:
#     Node 0, Type 0, BuildingBlock: OLANEW_clean_sbu_2, # of connection points: 3
#     Node 1, Type 0, BuildingBlock: OLANEW_clean_sbu_2, # of connection points: 3
#     Node 2, Type 0, BuildingBlock: OLANEW_clean_sbu_2, # of connection points: 3
#     Node 3, Type 0, BuildingBlock: OLANEW_clean_sbu_2, # of connection points: 3
#     Node 4, Type 0, BuildingBlock: OLANEW_clean_sbu_2, # of connection points: 3
#     Node 5, Type 0, BuildingBlock: OLANEW_clean_sbu_2, # of connection points: 3
#     Node 6, Type 0, BuildingBlock: OLANEW_clean_sbu_2, # of connection points: 3
#     Node 7, Type 0, BuildingBlock: OLANEW_clean_sbu_2, # of connection points: 3
#     Node 8, Type 0, BuildingBlock: OLANEW_clean_sbu_2, # of connection points: 3
#     Node 9, Type 0, BuildingBlock: OLANEW_clean_sbu_2, # of connection points: 3
#     Node 10, Type 0, BuildingBlock: OLANEW_clean_sbu_2, # of connection points: 3
#     Node 11, Type 0, BuildingBlock: OLANEW_clean_sbu_2, # of connection points: 3
#     Node 12, Type 0, BuildingBlock: OLANEW_clean_sbu_2, # of connection points: 3
#     Node 13, Type 0, BuildingBlock: OLANEW_clean_sbu_2, # of connection points: 3
#     Node 14, Type 0, BuildingBlock: OLANEW_clean_sbu_2, # of connection points: 3
#     Node 15, Type 0, BuildingBlock: OLANEW_clean_sbu_2, # of connection points: 3
#     Node 16, Type 1, BuildingBlock: KUFVIS_clean_sbu_0, # of connection points: 4
#     Node 17, Type 1, BuildingBlock: KUFVIS_clean_sbu_0, # of connection points: 4
#     Node 18, Type 1, BuildingBlock: KUFVIS_clean_sbu_0, # of connection points: 4
#     Node 19, Type 1, BuildingBlock: KUFVIS_clean_sbu_0, # of connection points: 4
#     Node 20, Type 1, BuildingBlock: KUFVIS_clean_sbu_0, # of connection points: 4
#     Node 21, Type 1, BuildingBlock: KUFVIS_clean_sbu_0, # of connection points: 4
#     Node 22, Type 1, BuildingBlock: KUFVIS_clean_sbu_0, # of connection points: 4
#     Node 23, Type 1, BuildingBlock: KUFVIS_clean_sbu_0, # of connection points: 4
#     Node 24, Type 1, BuildingBlock: KUFVIS_clean_sbu_0, # of connection points: 4
#     Node 25, Type 1, BuildingBlock: KUFVIS_clean_sbu_0, # of connection points: 4
#     Node 26, Type 1, BuildingBlock: KUFVIS_clean_sbu_0, # of connection points: 4
#     Node 27, Type 1, BuildingBlock: KUFVIS_clean_sbu_0, # of connection points: 4
#     Edge 28, Type (0, 1), BuildingBlock: XIVTED_clean_linker_0, # of connection points: 2
#     Edge 29, Type (0, 1), BuildingBlock: XIVTED_clean_linker_0, # of connection points: 2
#     Edge 30, Type (0, 1), BuildingBlock: XIVTED_clean_linker_0, # of connection points: 2
#     Edge 31, Type (0, 1), BuildingBlock: XIVTED_clean_linker_0, # of connection points: 2
#     Edge 32, Type (0, 1), BuildingBlock: XIVTED_clean_linker_0, # of connection points: 2
#     Edge 33, Type (0, 1), BuildingBlock: XIVTED_clean_linker_0, # of connection points: 2
#     Edge 34, Type (0, 1), BuildingBlock: XIVTED_clean_linker_0, # of connection points: 2
#     Edge 35, Type (0, 1), BuildingBlock: XIVTED_clean_linker_0, # of connection points: 2
#     Edge 36, Type (0, 1), BuildingBlock: XIVTED_clean_linker_0, # of connection points: 2
#     Edge 37, Type (0, 1), BuildingBlock: XIVTED_clean_linker_0, # of connection points: 2
#     Edge 38, Type (0, 1), BuildingBlock: XIVTED_clean_linker_0, # of connection points: 2
#     Edge 39, Type (0, 1), BuildingBlock: XIVTED_clean_linker_0, # of connection points: 2
#     Edge 40, Type (0, 1), BuildingBlock: XIVTED_clean_linker_0, # of connection points: 2
#     Edge 41, Type (0, 1), BuildingBlock: XIVTED_clean_linker_0, # of connection points: 2
#     Edge 42, Type (0, 1), BuildingBlock: XIVTED_clean_linker_0, # of connection points: 2
#     Edge 43, Type (0, 1), BuildingBlock: XIVTED_clean_linker_0, # of connection points: 2
#     Edge 44, Type (0, 1), BuildingBlock: XIVTED_clean_linker_0, # of connection points: 2
#     Edge 45, Type (0, 1), BuildingBlock: XIVTED_clean_linker_0, # of connection points: 2
#     Edge 46, Type (0, 1), BuildingBlock: XIVTED_clean_linker_0, # of connection points: 2
#     Edge 47, Type (0, 1), BuildingBlock: XIVTED_clean_linker_0, # of connection points: 2
#     Edge 48, Type (0, 1), BuildingBlock: XIVTED_clean_linker_0, # of connection points: 2
#     Edge 49, Type (0, 1), BuildingBlock: XIVTED_clean_linker_0, # of connection points: 2
#     Edge 50, Type (0, 1), BuildingBlock: XIVTED_clean_linker_0, # of connection points: 2
#     Edge 51, Type (0, 1), BuildingBlock: XIVTED_clean_linker_0, # of connection points: 2
#     Edge 52, Type (0, 1), BuildingBlock: XIVTED_clean_linker_0, # of connection points: 2
#     Edge 53, Type (0, 1), BuildingBlock: XIVTED_clean_linker_0, # of connection points: 2
#     Edge 54, Type (0, 1), BuildingBlock: XIVTED_clean_linker_0, # of connection points: 2
#     Edge 55, Type (0, 1), BuildingBlock: XIVTED_clean_linker_0, # of connection points: 2
#     Edge 56, Type (0, 1), BuildingBlock: XIVTED_clean_linker_0, # of connection points: 2
#     Edge 57, Type (0, 1), BuildingBlock: XIVTED_clean_linker_0, # of connection points: 2
#     Edge 58, Type (0, 1), BuildingBlock: XIVTED_clean_linker_0, # of connection points: 2
#     Edge 59, Type (0, 1), BuildingBlock: XIVTED_clean_linker_0, # of connection points: 2
#     Edge 60, Type (0, 1), BuildingBlock: XIVTED_clean_linker_0, # of connection points: 2
#     Edge 61, Type (0, 1), BuildingBlock: XIVTED_clean_linker_0, # of connection points: 2
#     Edge 62, Type (0, 1), BuildingBlock: XIVTED_clean_linker_0, # of connection points: 2
#     Edge 63, Type (0, 1), BuildingBlock: XIVTED_clean_linker_0, # of connection points: 2
#     Edge 64, Type (0, 1), BuildingBlock: XIVTED_clean_linker_0, # of connection points: 2
#     Edge 65, Type (0, 1), BuildingBlock: XIVTED_clean_linker_0, # of connection points: 2
#     Edge 66, Type (0, 1), BuildingBlock: XIVTED_clean_linker_0, # of connection points: 2
#     Edge 67, Type (0, 1), BuildingBlock: XIVTED_clean_linker_0, # of connection points: 2
#     Edge 68, Type (0, 1), BuildingBlock: XIVTED_clean_linker_0, # of connection points: 2
#     Edge 69, Type (0, 1), BuildingBlock: XIVTED_clean_linker_0, # of connection points: 2
#     Edge 70, Type (0, 1), BuildingBlock: XIVTED_clean_linker_0, # of connection points: 2
#     Edge 71, Type (0, 1), BuildingBlock: XIVTED_clean_linker_0, # of connection points: 2
#     Edge 72, Type (0, 1), BuildingBlock: XIVTED_clean_linker_0, # of connection points: 2
#     Edge 73, Type (0, 1), BuildingBlock: XIVTED_clean_linker_0, # of connection points: 2
#     Edge 74, Type (0, 1), BuildingBlock: XIVTED_clean_linker_0, # of connection points: 2
#     Edge 75, Type (0, 1), BuildingBlock: XIVTED_clean_linker_0, # of connection points: 2
# Relax obj value: 0.062
# Max RMSD: 0.169
# Mean RMSD: 0.103
data_MOF--net-ctn--node1-OLANEW_clean_sbu_2--node2-KUFVIS_clean_sbu_0--edge1-XIVTED_clean_linker_0
_symmetry_space_group_name_H-M    P1
_symmetry_Int_Tables_number       1
_symmetry_cell_setting            triclinic
loop_
_symmetry_equiv_pos_as_xyz
'x, y, z'
_cell_length_a     57.611783
_cell_length_b     58.85113
_cell_length_c     56.075425
_cell_angle_alpha  92.208919
_cell_angle_beta   94.658102
_cell_angle_gamma 97.56679
loop_
_atom_site_label
_atom_site_type_symbol
_atom_site_fract_x
_atom_site_fract_y
_atom_site_fract_z
_atom_type_partial_charge
O0 O 0.06701 0.08803 0.02981 0.0
Cd1 Cd 0.08054 0.06299 0.06056 0.0
O2 O 0.03077 0.08367 0.04039 0.0
Cd3 Cd 0.03533 0.06066 0.06951 0.0
O4 O 0.02168 0.04643 0.10182 0.0
C5 C 0.01104 0.0598 0.11402 0.0
O6 O 0.01007 0.08072 0.10699 0.0
C7 C 0.04602 0.09263 0.02714 0.0
C8 C 0.1075 0.03003 0.04488 0.0
O9 O 0.08553 0.02468 0.04721 0.0
O10 O 0.1166 0.05096 0.04949 0.0
O11 O 0.33783 0.70988 0.22974 0.0
Cd12 Cd 0.30421 0.70555 0.19958 0.0
O13 O 0.3518 0.67886 0.21733 0.0
Cd14 Cd 0.32028 0.66758 0.19353 0.0
O15 O 0.28685 0.64637 0.19679 0.0
C16 C 0.28028 0.64752 0.21784 0.0
O17 O 0.29299 0.66176 0.23395 0.0
C18 C 0.35355 0.69658 0.23141 0.0
C19 C 0.3014 0.74475 0.17346 0.0
O20 O 0.29115 0.7421 0.19281 0.0
O21 O 0.31312 0.72898 0.16663 0.0
O22 O 0.98042 0.5164 0.09866 0.0
Cd23 Cd 0.96586 0.51614 0.05635 0.0
O24 O 0.98968 0.48122 0.0967 0.0
Cd25 Cd 0.97938 0.47118 0.05915 0.0
O26 O 0.98207 0.44259 0.03395 0.0
C27 C 0.97492 0.42269 0.04071 0.0
O28 O 0.96525 0.42087 0.06111 0.0
C29 C 0.98872 0.49981 0.10867 0.0
C30 C 0.9295 0.54283 0.04797 0.0
O31 O 0.92514 0.52114 0.0503 0.0
O32 O 0.95105 0.55201 0.04983 0.0
O33 O 0.70396 0.85518 0.18913 0.0
Cd34 Cd 0.67026 0.82555 0.18014 0.0
O35 O 0.70266 0.85171 0.22796 0.0
Cd36 Cd 0.66914 0.8297 0.22765 0.0
O37 O 0.64051 0.81851 0.24951 0.0
C38 C 0.64656 0.81741 0.27171 0.0
O39 O 0.66894 0.82207 0.27928 0.0
C40 C 0.71271 0.86046 0.21047 0.0
C41 C 0.68178 0.79311 0.14713 0.0
O42 O 0.67149 0.81004 0.14023 0.0
O43 O 0.68628 0.7913 0.16968 0.0
O44 O 0.08123 0.99045 0.49859 0.0
Cd45 Cd 0.04176 0.96874 0.49206 0.0
O46 O 0.07022 0.01598 0.52353 0.0
Cd47 Cd 0.03334 0.00323 0.51385 0.0
O48 O 0.0063 0.99748 0.48394 0.0
C49 C 0.00391 0.01444 0.47104 0.0
O50 O 0.01637 0.0344 0.47743 0.0
C51 C 0.08635 0.00805 0.51291 0.0
C52 C 0.03362 0.93369 0.52372 0.0
O53 O 0.03988 0.92955 0.50273 0.0
O54 O 0.03142 0.95444 0.52986 0.0
O55 O 0.20266 0.68292 0.93187 0.0
Cd56 Cd 0.1932 0.64257 0.91857 0.0
O57 O 0.17386 0.68865 0.90591 0.0
Cd58 Cd 0.15146 0.70871 0.8845 0.0
O59 O 0.12653 0.7183 0.85662 0.0
C60 C 0.13248 0.73284 0.8413 0.0
O61 O 0.1542 0.74326 0.84278 0.0
C62 C 0.19002 0.69663 0.92197 0.0
C63 C 0.22923 0.6256 0.89618 0.0
O64 O 0.22715 0.62306 0.91854 0.0
O65 O 0.21443 0.63638 0.88449 0.0
O66 O 0.01143 0.51601 0.48673 0.0
Cd67 Cd 0.99156 0.52549 0.5221 0.0
O68 O 0.04572 0.53238 0.50352 0.0
Cd69 Cd 0.03232 0.54538 0.5357 0.0
O70 O 0.02776 0.57582 0.55703 0.0
C71 C 0.01338 0.58872 0.54863 0.0
O72 O 0.00062 0.58232 0.52842 0.0
C73 C 0.03342 0.52154 0.48578 0.0
C74 C 0.94606 0.5023 0.52121 0.0
O75 O 0.95019 0.52123 0.51078 0.0
O76 O 0.96348 0.49431 0.53203 0.0
O77 O 0.85421 0.81433 0.88578 0.0
Cd78 Cd 0.87427 0.84773 0.86753 0.0
O79 O 0.82009 0.82529 0.87603 0.0
Cd80 Cd 0.78239 0.8279 0.87376 0.0
O81 O 0.75196 0.84587 0.86577 0.0
C82 C 0.75182 0.86499 0.87707 0.0
O83 O 0.76901 0.8721 0.8936 0.0
C84 C 0.83198 0.81088 0.88586 0.0
C85 C 0.89235 0.83456 0.82535 0.0
O86 O 0.90316 0.83256 0.84589 0.0
O87 O 0.87298 0.84312 0.82458 0.0
O88 O 0.34522 0.30545 0.36522 0.0
Cd89 Cd 0.36443 0.3395 0.3474 0.0
O90 O 0.31458 0.32315 0.36915 0.0
Cd91 Cd 0.2788 0.32764 0.37679 0.0
O92 O 0.24831 0.34589 0.3706 0.0
C93 C 0.24977 0.36609 0.37998 0.0
O94 O 0.26859 0.3742 0.39411 0.0
C95 C 0.32482 0.3055 0.37221 0.0
C96 C 0.38779 0.32694 0.3085 0.0
O97 O 0.39717 0.32693 0.33001 0.0
O98 O 0.36736 0.33324 0.30522 0.0
O99 O 0.47958 0.00524 0.59567 0.0
Cd100 Cd 0.45289 0.99747 0.55919 0.0
O101 O 0.49376 0.97235 0.59232 0.0
Cd102 Cd 0.47662 0.9586 0.55776 0.0
O103 O 0.47605 0.92906 0.53282 0.0
C104 C 0.47073 0.9094 0.54104 0.0
O105 O 0.46448 0.90816 0.56302 0.0
C106 C 0.49284 0.99118 0.60386 0.0
C107 C 0.42568 0.03276 0.55025 0.0
O108 O 0.4202 0.01772 0.56549 0.0
O109 O 0.44412 0.03128 0.53926 0.0
O110 O 0.19449 0.36728 0.65902 0.0
Cd111 Cd 0.16217 0.33803 0.64373 0.0
O112 O 0.1832 0.35965 0.69442 0.0
Cd113 Cd 0.18096 0.36292 0.73316 0.0
O114 O 0.16744 0.35737 0.76803 0.0
C115 C 0.15054 0.36771 0.77377 0.0
O116 O 0.14269 0.38244 0.75914 0.0
C117 C 0.19735 0.37102 0.68159 0.0
C118 C 0.17785 0.30376 0.61615 0.0
O119 O 0.17019 0.32099 0.60643 0.0
O120 O 0.17806 0.30272 0.63896 0.0
O121 O 0.84574 0.21973 0.73815 0.0
Cd122 Cd 0.80857 0.21223 0.71309 0.0
O123 O 0.85887 0.18808 0.72625 0.0
Cd124 Cd 0.82505 0.17443 0.7075 0.0
O125 O 0.79177 0.15284 0.71046 0.0
C126 C 0.78515 0.15246 0.73153 0.0
O127 O 0.79787 0.16553 0.74862 0.0
C128 C 0.86197 0.20698 0.73859 0.0
C129 C 0.80415 0.24666 0.68081 0.0
O130 O 0.79616 0.24791 0.70143 0.0
O131 O 0.81416 0.22915 0.67552 0.0
O132 O 0.54044 0.54984 0.4988 0.0
Cd133 Cd 0.54353 0.51063 0.51075 0.0
O134 O 0.51783 0.55072 0.52809 0.0
Cd135 Cd 0.4951 0.56207 0.55434 0.0
O136 O 0.47703 0.55496 0.58663 0.0
C137 C 0.46741 0.56914 0.59887 0.0
O138 O 0.46762 0.59028 0.59208 0.0
C139 C 0.52698 0.56055 0.51062 0.0
C140 C 0.58617 0.49388 0.50616 0.0
O141 O 0.57053 0.49278 0.48838 0.0
O142 O 0.58198 0.50359 0.52592 0.0
O143 O 0.57421 0.49118 0.99446 0.0
Cd144 Cd 0.53565 0.46787 0.98641 0.0
O145 O 0.55997 0.51738 0.01588 0.0
Cd146 Cd 0.52406 0.50347 0.00292 0.0
O147 O 0.49723 0.49837 0.97274 0.0
C148 C 0.49316 0.51614 0.96179 0.0
O149 O 0.50412 0.53625 0.97 0.0
C150 C 0.57748 0.50951 0.0078 0.0
C151 C 0.52902 0.43171 0.01703 0.0
O152 O 0.53573 0.42853 0.99606 0.0
O153 O 0.52555 0.452 0.02359 0.0
O154 O 0.71423 0.17684 0.41356 0.0
Cd155 Cd 0.70486 0.13788 0.39585 0.0
O156 O 0.68519 0.18467 0.38908 0.0
Cd157 Cd 0.66229 0.20615 0.37035 0.0
O158 O 0.63633 0.21673 0.34417 0.0
C159 C 0.6419 0.23097 0.32844 0.0
O160 O 0.66385 0.24054 0.32858 0.0
C161 C 0.70139 0.1913 0.40557 0.0
C162 C 0.74319 0.1209 0.37788 0.0
O163 O 0.73058 0.13305 0.36511 0.0
O164 O 0.73784 0.11705 0.39924 0.0
O165 O 0.49062 0.0339 0.96896 0.0
Cd166 Cd 0.47334 0.04645 0.0049 0.0
O167 O 0.51898 0.01825 0.98791 0.0
Cd168 Cd 0.51078 0.03374 0.02152 0.0
O169 O 0.50831 0.06556 0.04177 0.0
C170 C 0.52699 0.07963 0.04644 0.0
O171 O 0.54703 0.07375 0.04042 0.0
C172 C 0.50803 0.02269 0.9684 0.0
C173 C 0.42959 0.02125 0.00955 0.0
O174 O 0.43153 0.03924 0.9973 0.0
O175 O 0.44838 0.01519 0.01974 0.0
Mn176 Mn 0.24484 0.87932 0.02746 0.0
Mn177 Mn 0.23995 0.89305 0.96965 0.0
C178 C 0.22415 0.85362 0.99867 0.0
C179 C 0.26467 0.86283 0.05885 0.0
C180 C 0.21261 0.91278 0.00768 0.0
O181 O 0.27112 0.90599 0.02634 0.0
O182 O 0.2677 0.91235 0.98679 0.0
C183 C 0.28304 0.87682 0.95399 0.0
N184 N 0.25922 0.87592 0.95175 0.0
C185 C 0.25542 0.84663 0.91999 0.0
C186 C 0.27993 0.84736 0.92185 0.0
C187 C 0.29379 0.86252 0.93894 0.0
C188 C 0.24572 0.86148 0.9353 0.0
H189 H 0.29376 0.88831 0.96724 0.0
C190 C 0.27787 0.91648 0.00803 0.0
O191 O 0.25049 0.8777 0.06297 0.0
O192 O 0.26799 0.85839 0.03668 0.0
N193 N 0.21391 0.87509 0.95141 0.0
C194 C 0.19048 0.87539 0.95303 0.0
C195 C 0.17415 0.86063 0.93773 0.0
C196 C 0.18207 0.84573 0.92095 0.0
C197 C 0.20626 0.84578 0.91957 0.0
C198 C 0.22171 0.86105 0.9351 0.0
H199 H 0.18431 0.88667 0.96603 0.0
O200 O 0.21997 0.85218 0.02099 0.0
O201 O 0.24 0.87027 0.99403 0.0
O202 O 0.22007 0.90133 0.02489 0.0
O203 O 0.21919 0.91125 0.98652 0.0
C204 C 0.21565 0.83092 0.90376 0.0
C205 C 0.24021 0.83136 0.90396 0.0
H206 H 0.28827 0.8362 0.91043 0.0
H207 H 0.31271 0.86308 0.94058 0.0
H208 H 0.1555 0.86063 0.93897 0.0
H209 H 0.16941 0.83419 0.90937 0.0
H210 H 0.20413 0.81888 0.8916 0.0
H211 H 0.2472 0.81964 0.89195 0.0
Mn212 Mn 0.131 0.50592 0.29222 0.0
Mn213 Mn 0.12054 0.56101 0.29244 0.0
C214 C 0.15442 0.53247 0.27224 0.0
C215 C 0.1489 0.47746 0.31141 0.0
C216 C 0.09092 0.5224 0.26169 0.0
O217 O 0.10941 0.50803 0.31894 0.0
O218 O 0.10763 0.54608 0.32064 0.0
C219 C 0.15086 0.57904 0.33601 0.0
N220 N 0.14459 0.5801 0.31218 0.0
C221 C 0.17385 0.61281 0.30919 0.0
C222 C 0.1804 0.61225 0.33377 0.0
C223 C 0.16891 0.59524 0.34721 0.0
C224 C 0.15565 0.59629 0.29903 0.0
H225 H 0.14224 0.56585 0.34636 0.0
C226 C 0.10329 0.526 0.32868 0.0
O227 O 0.13063 0.47224 0.29607 0.0
O228 O 0.15656 0.49908 0.31556 0.0
N229 N 0.13241 0.57765 0.26633 0.0
C230 C 0.12505 0.57491 0.24255 0.0
C231 C 0.13535 0.59008 0.22647 0.0
C232 C 0.15299 0.60799 0.23499 0.0
C233 C 0.16013 0.61061 0.25956 0.0
C234 C 0.14909 0.59508 0.27477 0.0
H235 H 0.11149 0.5612 0.23586 0.0
O236 O 0.15376 0.5107 0.26713 0.0
O237 O 0.1418 0.53795 0.28919 0.0
O238 O 0.10331 0.50658 0.26712 0.0
O239 O 0.09524 0.54285 0.27103 0.0
C240 C 0.17812 0.62772 0.26948 0.0
C241 C 0.18502 0.62877 0.29426 0.0
H242 H 0.19442 0.62463 0.34245 0.0
H243 H 0.17402 0.59456 0.36615 0.0
H244 H 0.12976 0.58792 0.20753 0.0
H245 H 0.16107 0.61951 0.2225 0.0
H246 H 0.18705 0.63989 0.25814 0.0
H247 H 0.19916 0.64174 0.3016 0.0
Mn248 Mn 0.75785 0.64534 0.01129 0.0
Mn249 Mn 0.70724 0.6526 0.97935 0.0
C250 C 0.72456 0.61945 0.01385 0.0
C251 C 0.79361 0.63056 0.01376 0.0
C252 C 0.72531 0.67979 0.02569 0.0
O253 O 0.76867 0.6688 0.9874 0.0
O254 O 0.73432 0.67082 0.96595 0.0
C255 C 0.71611 0.62893 0.93413 0.0
N256 N 0.70226 0.63111 0.95241 0.0
C257 C 0.67365 0.59998 0.93548 0.0
C258 C 0.68754 0.59748 0.91638 0.0
C259 C 0.70889 0.61198 0.91574 0.0
C260 C 0.68179 0.61714 0.95331 0.0
H261 H 0.73254 0.64002 0.93362 0.0
C262 C 0.75652 0.67666 0.97035 0.0
O263 O 0.7903 0.64778 0.02772 0.0
O264 O 0.77655 0.62267 0.99789 0.0
N265 N 0.67925 0.63628 0.9899 0.0
C266 C 0.66801 0.64086 0.00964 0.0
C267 C 0.64637 0.62787 0.01301 0.0
C268 C 0.63635 0.61056 0.99588 0.0
C269 C 0.64798 0.60651 0.97544 0.0
C270 C 0.66943 0.62011 0.97298 0.0
H271 H 0.67553 0.65426 0.02278 0.0
O272 O 0.7419 0.62099 0.03033 0.0
O273 O 0.72742 0.63271 0.99595 0.0
O274 O 0.74368 0.67006 0.03005 0.0
O275 O 0.71087 0.67481 0.00711 0.0
C276 C 0.63931 0.58932 0.95757 0.0
C277 C 0.65219 0.58599 0.93766 0.0
H278 H 0.68204 0.58443 0.90217 0.0
H279 H 0.71974 0.61009 0.90111 0.0
H280 H 0.63745 0.63116 0.02878 0.0
H281 H 0.61976 0.60043 0.99865 0.0
H282 H 0.62287 0.5784 0.95909 0.0
H283 H 0.64545 0.57257 0.92415 0.0
Mn284 Mn 0.87476 0.00912 0.27655 0.0
Mn285 Mn 0.8941 0.95793 0.26933 0.0
C286 C 0.85156 0.97954 0.25425 0.0
C287 C 0.85557 0.03347 0.29934 0.0
C288 C 0.91218 1.00023 0.24332 0.0
O289 O 0.90158 0.01038 0.30262 0.0
O290 O 0.91033 0.9742 0.29912 0.0
C291 C 0.87558 0.93494 0.31124 0.0
N292 N 0.87672 0.93549 0.2871 0.0
C293 C 0.85037 0.90013 0.28044 0.0
C294 C 0.84906 0.89909 0.30524 0.0
C295 C 0.8617 0.91659 0.3207 0.0
C296 C 0.86467 0.91872 0.27206 0.0
H297 H 0.8851 0.94844 0.32319 0.0
C298 C 0.9126 0.99413 0.30987 0.0
O299 O 0.8703 0.04156 0.28439 0.0
O300 O 0.85225 0.01142 0.30113 0.0
N301 N 0.87914 0.94052 0.24141 0.0
C302 C 0.88091 0.94494 0.2179 0.0
C303 C 0.86856 0.92954 0.20007 0.0
C304 C 0.85455 0.90976 0.20658 0.0
C305 C 0.85306 0.90553 0.23088 0.0
C306 C 0.86595 0.92138 0.24786 0.0
H307 H 0.89153 0.96017 0.21277 0.0
O308 O 0.84796 0.00062 0.2514 0.0
O309 O 0.86855 0.97663 0.27001 0.0
O310 O 0.89813 0.01327 0.25106 0.0
O311 O 0.91269 0.97968 0.24977 0.0
C312 C 0.83888 0.88648 0.23892 0.0
C313 C 0.83754 0.88377 0.26368 0.0
H314 H 0.8382 0.88508 0.31259 0.0
H315 H 0.86065 0.91599 0.33985 0.0
H316 H 0.86973 0.93297 0.18136 0.0
H317 H 0.84485 0.89805 0.19278 0.0
H318 H 0.82864 0.87399 0.2262 0.0
H319 H 0.82628 0.86925 0.26962 0.0
Mn320 Mn 0.26534 0.14418 0.50825 0.0
Mn321 Mn 0.21555 0.14628 0.47264 0.0
C322 C 0.23354 0.11648 0.5108 0.0
C323 C 0.30253 0.13263 0.51328 0.0
C324 C 0.23026 0.17725 0.51748 0.0
O325 O 0.27528 0.16762 0.48399 0.0
O326 O 0.24261 0.16361 0.45832 0.0
C327 C 0.22654 0.11874 0.43079 0.0
N328 N 0.21199 0.12235 0.4481 0.0
C329 C 0.18453 0.08944 0.43343 0.0
C330 C 0.19914 0.08546 0.41532 0.0
C331 C 0.22027 0.10014 0.41405 0.0
C332 C 0.19172 0.10824 0.44961 0.0
H333 H 0.24282 0.12997 0.42982 0.0
C334 C 0.2639 0.1722 0.46469 0.0
O335 O 0.29704 0.14952 0.52634 0.0
O336 O 0.28678 0.12313 0.49679 0.0
N337 N 0.18762 0.13048 0.48384 0.0
C338 C 0.17563 0.13658 0.50252 0.0
C339 C 0.1541 0.12362 0.50635 0.0
C340 C 0.14497 0.10473 0.49077 0.0
C341 C 0.15737 0.09908 0.47137 0.0
C342 C 0.17864 0.11275 0.46833 0.0
H343 H 0.18245 0.15118 0.51447 0.0
O344 O 0.25048 0.11964 0.52773 0.0
O345 O 0.23616 0.12896 0.49225 0.0
O346 O 0.24821 0.16795 0.52473 0.0
O347 O 0.21765 0.17109 0.49786 0.0
C348 C 0.14964 0.08023 0.45511 0.0
C349 C 0.16326 0.07536 0.43622 0.0
H350 H 0.19439 0.07111 0.40239 0.0
H351 H 0.23169 0.09711 0.40019 0.0
H352 H 0.14459 0.12815 0.52131 0.0
H353 H 0.12848 0.09463 0.49393 0.0
H354 H 0.13337 0.06923 0.45714 0.0
H355 H 0.15725 0.06069 0.42398 0.0
Mn356 Mn 0.35136 0.51752 0.77777 0.0
Mn357 Mn 0.36978 0.46675 0.76488 0.0
C358 C 0.32671 0.48958 0.75472 0.0
C359 C 0.33428 0.54066 0.80394 0.0
C360 C 0.38574 0.51069 0.74045 0.0
O361 O 0.3798 0.51725 0.80161 0.0
O362 O 0.38799 0.48133 0.79452 0.0
C363 C 0.35421 0.44124 0.80652 0.0
N364 N 0.35383 0.44313 0.78236 0.0
C365 C 0.32797 0.40751 0.77516 0.0
C366 C 0.32823 0.4051 0.79995 0.0
C367 C 0.34137 0.42207 0.8157 0.0
C368 C 0.34123 0.42691 0.76705 0.0
H369 H 0.36419 0.45429 0.81869 0.0
C370 C 0.39117 0.50059 0.80662 0.0
O371 O 0.34794 0.54953 0.78842 0.0
O372 O 0.33083 0.51846 0.8044 0.0
N373 N 0.35329 0.45068 0.73689 0.0
C374 C 0.35381 0.45621 0.71354 0.0
C375 C 0.34095 0.44136 0.69554 0.0
C376 C 0.32781 0.42093 0.70169 0.0
C377 C 0.32773 0.41548 0.72581 0.0
C378 C 0.34103 0.43086 0.74296 0.0
H379 H 0.36384 0.4719 0.70868 0.0
O380 O 0.32311 0.51086 0.75426 0.0
O381 O 0.34437 0.48527 0.76898 0.0
O382 O 0.37261 0.5233 0.75052 0.0
O383 O 0.38674 0.48979 0.74543 0.0
C384 C 0.31458 0.39563 0.73353 0.0
C385 C 0.31468 0.39166 0.75819 0.0
H386 H 0.31823 0.39041 0.80711 0.0
H387 H 0.34156 0.42039 0.83486 0.0
H388 H 0.3411 0.44569 0.67697 0.0
H389 H 0.31772 0.40963 0.68777 0.0
H390 H 0.30405 0.38349 0.72068 0.0
H391 H 0.30424 0.37651 0.76393 0.0
Mn392 Mn 0.75253 0.37131 0.5209 0.0
Mn393 Mn 0.75287 0.38365 0.46271 0.0
C394 C 0.73404 0.3451 0.49142 0.0
C395 C 0.76939 0.3556 0.55458 0.0
C396 C 0.72165 0.40381 0.49661 0.0
O397 O 0.77928 0.39758 0.52142 0.0
O398 O 0.77889 0.40371 0.48189 0.0
C399 C 0.79803 0.36789 0.45278 0.0
N400 N 0.77433 0.3666 0.44787 0.0
C401 C 0.7742 0.33696 0.41704 0.0
C402 C 0.79863 0.3381 0.42166 0.0
C403 C 0.81058 0.35362 0.43962 0.0
C404 C 0.76266 0.35178 0.43057 0.0
H405 H 0.80728 0.37967 0.46668 0.0
C406 C 0.78751 0.40794 0.5037 0.0
O407 O 0.755 0.37068 0.55662 0.0
O408 O 0.77455 0.3504 0.53316 0.0
N409 N 0.72882 0.36501 0.44239 0.0
C410 C 0.7051 0.36502 0.44121 0.0
C411 C 0.6905 0.34992 0.42466 0.0
C412 C 0.70041 0.335 0.4095 0.0
C413 C 0.72487 0.33538 0.41097 0.0
C414 C 0.73857 0.35097 0.42763 0.0
H415 H 0.69737 0.37631 0.45295 0.0
O416 O 0.72781 0.34427 0.51313 0.0
O417 O 0.75061 0.36143 0.48769 0.0
O418 O 0.72832 0.39353 0.51506 0.0
O419 O 0.72985 0.40145 0.47629 0.0
C420 C 0.73615 0.32055 0.3969 0.0
C421 C 0.7608 0.32135 0.39994 0.0
H422 H 0.80834 0.32697 0.41169 0.0
H423 H 0.82941 0.3545 0.44338 0.0
H424 H 0.67163 0.34968 0.42369 0.0
H425 H 0.68906 0.32319 0.39695 0.0
H426 H 0.72601 0.30826 0.38393 0.0
H427 H 0.76924 0.30965 0.38925 0.0
Mn428 Mn 0.63256 0.00629 0.79363 0.0
Mn429 Mn 0.61852 0.06032 0.79378 0.0
C430 C 0.65695 0.03508 0.7779 0.0
C431 C 0.64996 0.97751 0.81276 0.0
C432 C 0.59584 0.02257 0.75786 0.0
O433 O 0.60773 0.00545 0.81739 0.0
O434 O 0.60065 0.04218 0.81718 0.0
C435 C 0.63932 0.07564 0.84269 0.0
N436 N 0.6378 0.07855 0.81867 0.0
C437 C 0.66632 0.11251 0.82364 0.0
C438 C 0.66807 0.10998 0.84846 0.0
C439 C 0.65455 0.09143 0.85801 0.0
C440 C 0.65081 0.09627 0.80927 0.0
H441 H 0.62902 0.06136 0.85009 0.0
C442 C 0.59728 0.02183 0.82472 0.0
O443 O 0.63335 0.97263 0.79553 0.0
O444 O 0.65615 0.99904 0.81904 0.0
N445 N 0.63444 0.08006 0.77219 0.0
C446 C 0.6313 0.0796 0.74782 0.0
C447 C 0.64387 0.09676 0.73541 0.0
C448 C 0.65933 0.11434 0.74818 0.0
C449 C 0.66195 0.11469 0.77328 0.0
C450 C 0.64883 0.09722 0.78468 0.0
H451 H 0.61941 0.06615 0.7379 0.0
O452 O 0.65794 0.01373 0.77192 0.0
O453 O 0.64204 0.03899 0.7933 0.0
O454 O 0.60743 0.00693 0.76569 0.0
O455 O 0.59838 0.04296 0.76726 0.0
C456 C 0.67739 0.13144 0.78741 0.0
C457 C 0.67963 0.13031 0.81257 0.0
H458 H 0.67986 0.12207 0.86033 0.0
H459 H 0.65589 0.08929 0.87714 0.0
H460 H 0.64172 0.0964 0.71604 0.0
H461 H 0.66918 0.12742 0.73854 0.0
H462 H 0.68787 0.14508 0.77909 0.0
H463 H 0.69178 0.14312 0.82322 0.0
Mn464 Mn 0.01723 0.2632 0.89883 0.0
Mn465 Mn 0.96142 0.24616 0.91114 0.0
C466 C 0.99027 0.24423 0.86957 0.0
C467 C 0.04568 0.29063 0.88576 0.0
C468 C 0.00263 0.22193 0.92835 0.0
O469 O 0.01406 0.28266 0.92892 0.0
O470 O 0.97579 0.27176 0.93404 0.0
C471 C 0.9403 0.28795 0.8991 0.0
N472 N 0.94074 0.26498 0.89566 0.0
C473 C 0.90756 0.26156 0.86614 0.0
C474 C 0.90668 0.28516 0.86947 0.0
C475 C 0.92315 0.29841 0.88599 0.0
C476 C 0.92498 0.25207 0.87979 0.0
H477 H 0.95296 0.29823 0.91172 0.0
C478 C 0.99557 0.28433 0.93966 0.0
O479 O 0.05142 0.27442 0.89921 0.0
O480 O 0.02343 0.29129 0.88058 0.0
N481 N 0.94554 0.2218 0.88981 0.0
C482 C 0.94964 0.19956 0.88768 0.0
C483 C 0.93514 0.18415 0.87133 0.0
C484 C 0.91652 0.19173 0.85744 0.0
C485 C 0.91254 0.21465 0.86005 0.0
C486 C 0.92747 0.22918 0.87675 0.0
H487 H 0.96394 0.19364 0.89828 0.0
O488 O 0.0126 0.24417 0.86794 0.0
O489 O 0.98455 0.25505 0.88835 0.0
O490 O 0.01826 0.23449 0.91815 0.0
O491 O 0.98112 0.22528 0.92739 0.0
C492 C 0.89462 0.22374 0.84642 0.0
C493 C 0.89215 0.24719 0.84944 0.0
H494 H 0.89357 0.29332 0.85929 0.0
H495 H 0.92265 0.31665 0.88858 0.0
H496 H 0.93835 0.1665 0.86939 0.0
H497 H 0.90551 0.17984 0.84469 0.0
H498 H 0.88288 0.21294 0.83328 0.0
H499 H 0.87855 0.25406 0.83858 0.0
Mn500 Mn 0.499 0.74143 0.40218 0.0
Mn501 Mn 0.4438 0.72739 0.4177 0.0
C502 C 0.47035 0.7216 0.37517 0.0
C503 C 0.52794 0.76544 0.38531 0.0
C504 C 0.48439 0.70271 0.4352 0.0
O505 O 0.49777 0.76369 0.43062 0.0
O506 O 0.46025 0.75333 0.43913 0.0
C507 C 0.42428 0.76989 0.405 0.0
N508 N 0.42363 0.74671 0.4022 0.0
C509 C 0.39019 0.74393 0.37306 0.0
C510 C 0.39044 0.76775 0.37573 0.0
C511 C 0.40756 0.78077 0.39177 0.0
C512 C 0.40715 0.73399 0.38691 0.0
H513 H 0.43749 0.78001 0.41718 0.0
C514 C 0.48025 0.766 0.44271 0.0
O515 O 0.53327 0.75061 0.40068 0.0
O516 O 0.50582 0.76719 0.38075 0.0
N517 N 0.4262 0.70293 0.39769 0.0
C518 C 0.42937 0.6804 0.396 0.0
C519 C 0.41419 0.66516 0.38007 0.0
C520 C 0.39593 0.67321 0.36607 0.0
C521 C 0.39298 0.69645 0.36817 0.0
C522 C 0.4085 0.71081 0.38452 0.0
H523 H 0.44348 0.67415 0.40657 0.0
O524 O 0.49235 0.71991 0.37315 0.0
O525 O 0.46593 0.73411 0.39338 0.0
O526 O 0.49979 0.71461 0.42414 0.0
O527 O 0.4629 0.70609 0.43419 0.0
C528 C 0.37556 0.70603 0.35431 0.0
C529 C 0.37416 0.72975 0.35676 0.0
H530 H 0.37771 0.77624 0.3654 0.0
H531 H 0.40794 0.79918 0.39384 0.0
H532 H 0.41664 0.64726 0.37848 0.0
H533 H 0.38442 0.66145 0.35363 0.0
H534 H 0.36337 0.69537 0.34145 0.0
H535 H 0.3609 0.73696 0.34575 0.0
Mn536 Mn 0.00306 0.77213 0.65578 0.0
Mn537 Mn 0.97485 0.72104 0.67027 0.0
C538 C 0.0084 0.7389 0.63499 0.0
C539 C 0.00412 0.80536 0.63439 0.0
C540 C 0.01851 0.74537 0.69887 0.0
O541 O 0.97813 0.78161 0.67643 0.0
O542 O 0.96005 0.74664 0.68382 0.0
C543 C 0.93023 0.72332 0.64093 0.0
N544 N 0.94886 0.71204 0.64699 0.0
C545 C 0.9338 0.68056 0.61894 0.0
C546 C 0.91436 0.69177 0.61248 0.0
C547 C 0.91262 0.71327 0.62347 0.0
C548 C 0.95084 0.69147 0.63635 0.0
H549 H 0.92886 0.73985 0.64935 0.0
C550 C 0.9625 0.76857 0.68616 0.0
O551 O 0.01733 0.80473 0.65419 0.0
O552 O 0.98975 0.78699 0.62754 0.0
N553 N 0.98691 0.69423 0.65891 0.0
C554 C 0.00674 0.68569 0.66724 0.0
C555 C 0.01104 0.66416 0.65829 0.0
C556 C 0.99476 0.65148 0.64115 0.0
C557 C 0.97424 0.66039 0.63325 0.0
C558 C 0.97079 0.68183 0.643 0.0
H559 H 0.01919 0.69524 0.6806 0.0
O560 O 0.02359 0.7572 0.63479 0.0
O561 O 0.9902 0.74062 0.64692 0.0
O562 O 0.02151 0.76269 0.68584 0.0
O563 O 0.00166 0.72891 0.69463 0.0
C564 C 0.95718 0.64895 0.6159 0.0
C565 C 0.93704 0.6591 0.60864 0.0
H566 H 0.90074 0.68407 0.59904 0.0
H567 H 0.89772 0.72207 0.61852 0.0
H568 H 0.02687 0.65735 0.66456 0.0
H569 H 0.99825 0.63498 0.63412 0.0
H570 H 0.95948 0.63246 0.60786 0.0
H571 H 0.92416 0.65025 0.59512 0.0
Mn572 Mn 0.50786 0.2653 0.14438 0.0
Mn573 Mn 0.48108 0.21431 0.16088 0.0
C574 C 0.51374 0.23173 0.12454 0.0
C575 C 0.50775 0.29802 0.12226 0.0
C576 C 0.52466 0.24014 0.18818 0.0
O577 O 0.48292 0.27484 0.16494 0.0
O578 O 0.46606 0.23993 0.17406 0.0
C579 C 0.43568 0.21503 0.13236 0.0
N580 N 0.45467 0.20425 0.13842 0.0
C581 C 0.43919 0.17148 0.11223 0.0
C582 C 0.41938 0.18216 0.10579 0.0
C583 C 0.41768 0.20407 0.11583 0.0
C584 C 0.45662 0.1833 0.12867 0.0
H585 H 0.43432 0.23184 0.1401 0.0
C586 C 0.46791 0.26185 0.17549 0.0
O587 O 0.52132 0.29799 0.14191 0.0
O588 O 0.49385 0.27923 0.1158 0.0
N589 N 0.49339 0.18747 0.15006 0.0
C590 C 0.51378 0.17969 0.15794 0.0
C591 C 0.51825 0.15801 0.14962 0.0
C592 C 0.50155 0.14437 0.13366 0.0
C593 C 0.48047 0.15252 0.12621 0.0
C594 C 0.47694 0.17422 0.13518 0.0
H595 H 0.52654 0.18998 0.17046 0.0
O596 O 0.52849 0.25026 0.12363 0.0
O597 O 0.49558 0.23341 0.13657 0.0
O598 O 0.52696 0.25711 0.17463 0.0
O599 O 0.50824 0.22322 0.18455 0.0
C600 C 0.46296 0.14012 0.10995 0.0
C601 C 0.44241 0.14966 0.10285 0.0
H602 H 0.40544 0.17376 0.09307 0.0
H603 H 0.40249 0.21246 0.11088 0.0
H604 H 0.53453 0.1518 0.15553 0.0
H605 H 0.50514 0.12773 0.12714 0.0
H606 H 0.46526 0.12336 0.10258 0.0
H607 H 0.42921 0.14008 0.09012 0.0
H608 H 0.15767 0.72663 0.92514 0.0
H609 H 0.25427 0.83118 0.97562 0.0
H610 H 0.23192 0.72243 0.93601 0.0
H611 H 0.1809 0.82867 0.98685 0.0
H612 H 0.24553 0.7944 0.95285 0.0
H613 H 0.16525 0.76694 0.93986 0.0
C614 C 0.1756 0.73433 0.93013 0.0
C615 C 0.19425 0.7213 0.92916 0.0
C616 C 0.23126 0.80198 0.96002 0.0
C617 C 0.20295 0.76711 0.94627 0.0
C618 C 0.2362 0.82305 0.97277 0.0
C619 C 0.21814 0.83309 0.98252 0.0
C620 C 0.20812 0.79067 0.95732 0.0
C621 C 0.19518 0.82152 0.97921 0.0
C622 C 0.17987 0.75723 0.93876 0.0
C623 C 0.21706 0.73189 0.93654 0.0
N624 N 0.19077 0.80085 0.96681 0.0
N625 N 0.22078 0.75418 0.94477 0.0
H626 H 0.01564 0.49421 0.44565 0.0
H627 H 0.10295 0.5596 0.36333 0.0
H628 H 0.07607 0.54157 0.47429 0.0
H629 H 0.07815 0.48792 0.34589 0.0
H630 H 0.08652 0.55593 0.40189 0.0
H631 H 0.03269 0.49335 0.40678 0.0
C632 C 0.03256 0.50418 0.44387 0.0
C633 C 0.04439 0.51808 0.46321 0.0
C634 C 0.08468 0.54102 0.38959 0.0
C635 C 0.06345 0.51755 0.419 0.0
C636 C 0.0939 0.54311 0.36751 0.0
C637 C 0.09202 0.524 0.35139 0.0
C638 C 0.07301 0.51983 0.39548 0.0
C639 C 0.0801 0.50304 0.35789 0.0
C640 C 0.04221 0.50364 0.42177 0.0
C641 C 0.06627 0.53063 0.45993 0.0
N642 N 0.07083 0.50152 0.37946 0.0
N643 N 0.07489 0.53036 0.43816 0.0
H644 H 0.85248 0.78663 0.92009 0.0
H645 H 0.73704 0.69743 0.93206 0.0
H646 H 0.78657 0.7885 0.87828 0.0
H647 H 0.8025 0.69728 0.97547 0.0
H648 H 0.75536 0.72946 0.91078 0.0
H649 H 0.83485 0.75289 0.93928 0.0
C650 C 0.83423 0.78003 0.91501 0.0
C651 C 0.82087 0.79074 0.89782 0.0
C652 C 0.76575 0.72236 0.92488 0.0
C653 C 0.80055 0.75187 0.9197 0.0
C654 C 0.75532 0.70398 0.93705 0.0
C655 C 0.76817 0.69463 0.95577 0.0
C656 C 0.78924 0.73155 0.9314 0.0
C657 C 0.79183 0.70389 0.96125 0.0
C658 C 0.82417 0.76073 0.926 0.0
C659 C 0.79735 0.7813 0.89191 0.0
N660 N 0.80154 0.72189 0.94921 0.0
N661 N 0.78794 0.76241 0.90284 0.0
H662 H 0.98254 0.97422 0.44816 0.0
H663 H 0.92664 0.03465 0.33619 0.0
H664 H 0.99218 0.04759 0.44118 0.0
H665 H 0.93188 0.9621 0.33647 0.0
H666 H 0.94831 0.03976 0.37575 0.0
H667 H 0.96081 0.96944 0.4086 0.0
C668 C 0.97994 0.98934 0.4384 0.0
C669 C 0.98923 0.01134 0.44797 0.0
C670 C 0.94481 0.02276 0.36707 0.0
C671 C 0.96449 0.00598 0.40265 0.0
C672 C 0.93246 0.01981 0.34445 0.0
C673 C 0.9274 0.9979 0.33291 0.0
C674 C 0.95196 0.00363 0.37836 0.0
C675 C 0.93542 0.97933 0.34458 0.0
C676 C 0.96766 0.98659 0.41575 0.0
C677 C 0.98538 0.03031 0.43446 0.0
N678 N 0.94716 0.9826 0.3667 0.0
N679 N 0.9733 0.02719 0.41249 0.0
H680 H 0.17329 0.29743 0.56736 0.0
H681 H 0.24511 0.1902 0.56446 0.0
H682 H 0.20125 0.26864 0.63147 0.0
H683 H 0.19981 0.20747 0.50457 0.0
H684 H 0.23291 0.22134 0.58869 0.0
H685 H 0.18668 0.26696 0.54338 0.0
C686 C 0.18229 0.28473 0.5764 0.0
C687 C 0.1861 0.28554 0.60146 0.0
C688 C 0.22567 0.21825 0.57024 0.0
C689 C 0.20157 0.25068 0.5741 0.0
C690 C 0.23268 0.20055 0.55637 0.0
C691 C 0.22345 0.19616 0.53243 0.0
C692 C 0.20954 0.23181 0.56002 0.0
C693 C 0.20732 0.21011 0.52296 0.0
C694 C 0.18987 0.2673 0.5627 0.0
C695 C 0.19785 0.2686 0.6122 0.0
N696 N 0.20096 0.22733 0.53674 0.0
N697 N 0.20524 0.25189 0.59845 0.0
H698 H 0.44317 0.5938 0.62867 0.0
H699 H 0.41512 0.48922 0.71386 0.0
H700 H 0.46613 0.52739 0.6188 0.0
H701 H 0.38802 0.55381 0.72256 0.0
H702 H 0.43584 0.50409 0.68044 0.0
H703 H 0.42452 0.58051 0.66431 0.0
C704 C 0.44433 0.57646 0.63399 0.0
C705 C 0.45618 0.56167 0.62064 0.0
C706 C 0.42544 0.51508 0.68969 0.0
C707 C 0.43495 0.5464 0.66141 0.0
C708 C 0.4136 0.5066 0.70888 0.0
C709 C 0.39967 0.52022 0.72111 0.0
C710 C 0.4234 0.53738 0.68251 0.0
C711 C 0.39849 0.54263 0.7137 0.0
C712 C 0.43368 0.56889 0.65434 0.0
C713 C 0.45713 0.53939 0.62843 0.0
N714 N 0.41012 0.55047 0.69483 0.0
N715 N 0.44666 0.53246 0.64824 0.0
H716 H 0.82164 0.25011 0.63702 0.0
H717 H 0.75735 0.35796 0.60098 0.0
H718 H 0.7809 0.28428 0.68498 0.0
H719 H 0.80044 0.32443 0.55504 0.0
H720 H 0.76803 0.33328 0.6332 0.0
H721 H 0.81601 0.27899 0.60785 0.0
C722 C 0.81156 0.26374 0.64146 0.0
C723 C 0.8016 0.26467 0.66343 0.0
C724 C 0.77531 0.33149 0.61613 0.0
C725 C 0.79502 0.29789 0.63 0.0
C726 C 0.76929 0.34564 0.59777 0.0
C727 C 0.77788 0.34313 0.57523 0.0
C728 C 0.78996 0.31473 0.61187 0.0
C729 C 0.79326 0.32687 0.57206 0.0
C730 C 0.80838 0.28028 0.62479 0.0
C731 C 0.78882 0.28283 0.66822 0.0
N732 N 0.79865 0.3132 0.59008 0.0
N733 N 0.78577 0.29865 0.65158 0.0
H734 H 0.49746 0.03019 0.63357 0.0
H735 H 0.58603 0.98205 0.73077 0.0
H736 H 0.52083 0.9636 0.62716 0.0
H737 H 0.56785 0.05093 0.7352 0.0
H738 H 0.5602 0.97437 0.69391 0.0
H739 H 0.52144 0.03762 0.67189 0.0
C740 C 0.5076 0.01715 0.64019 0.0
C741 C 0.50717 0.99627 0.62706 0.0
C742 C 0.56181 0.99115 0.70298 0.0
C743 C 0.53453 0.00461 0.67088 0.0
C744 C 0.57654 0.99554 0.7241 0.0
C745 C 0.57923 0.0172 0.73616 0.0
C746 C 0.54961 0.00851 0.69377 0.0
C747 C 0.5664 0.03398 0.72656 0.0
C748 C 0.52128 0.02139 0.66206 0.0
C749 C 0.52064 0.97998 0.63656 0.0
N750 N 0.55221 0.02929 0.70592 0.0
N751 N 0.53374 0.9845 0.65784 0.0
H752 H 0.89738 0.18111 0.74937 0.0
H753 H 0.96323 0.27331 0.84917 0.0
H754 H 0.87578 0.24723 0.76501 0.0
H755 H 0.98114 0.20485 0.84065 0.0
H756 H 0.93443 0.26547 0.81451 0.0
H757 H 0.9311 0.19078 0.77911 0.0
C758 C 0.89985 0.19776 0.75883 0.0
C759 C 0.88364 0.21335 0.75475 0.0
C760 C 0.94462 0.2521 0.82009 0.0
C761 C 0.92216 0.22445 0.78877 0.0
C762 C 0.96093 0.25654 0.83993 0.0
C763 C 0.97376 0.23936 0.84813 0.0
C764 C 0.9412 0.2303 0.80828 0.0
C765 C 0.97101 0.21827 0.83509 0.0
C766 C 0.91907 0.20321 0.77585 0.0
C767 C 0.88773 0.23462 0.76761 0.0
N768 N 0.9547 0.21416 0.81592 0.0
N769 N 0.9065 0.23949 0.78408 0.0
H770 H 0.49226 0.90535 0.49947 0.0
H771 H 0.45414 0.77052 0.48073 0.0
H772 H 0.45476 0.86516 0.55052 0.0
H773 H 0.50959 0.80678 0.44393 0.0
H774 H 0.45295 0.80526 0.50558 0.0
H775 H 0.49701 0.86981 0.47731 0.0
C776 C 0.48493 0.88907 0.50596 0.0
C777 C 0.47302 0.88822 0.52685 0.0
C778 C 0.46557 0.80556 0.49227 0.0
C779 C 0.47846 0.84756 0.50162 0.0
C780 C 0.46629 0.78572 0.47808 0.0
C781 C 0.48198 0.78575 0.4602 0.0
C782 C 0.48035 0.82573 0.48829 0.0
C783 C 0.49732 0.80594 0.45759 0.0
C784 C 0.48781 0.8688 0.49341 0.0
C785 C 0.46405 0.86664 0.53452 0.0
N786 N 0.49591 0.82523 0.47128 0.0
N787 N 0.46684 0.84719 0.52184 0.0
H788 H 0.11099 0.38316 0.78852 0.0
H789 H 0.09308 0.28906 0.8869 0.0
H790 H 0.16112 0.33689 0.80714 0.0
H791 H 0.03891 0.32763 0.85938 0.0
H792 H 0.12113 0.31168 0.86367 0.0
H793 H 0.08751 0.36823 0.82022 0.0
C794 C 0.11723 0.37005 0.79945 0.0
C795 C 0.1379 0.36103 0.79491 0.0
C796 C 0.10317 0.31536 0.86295 0.0
C797 C 0.11101 0.34379 0.8312 0.0
C798 C 0.08717 0.30252 0.87627 0.0
C799 C 0.06356 0.30629 0.87483 0.0
C800 C 0.0955 0.33211 0.84815 0.0
C801 C 0.05689 0.32399 0.86082 0.0
C802 C 0.10377 0.3615 0.81753 0.0
C803 C 0.14517 0.34418 0.80981 0.0
N804 N 0.07272 0.3361 0.84786 0.0
N805 N 0.13162 0.33595 0.82713 0.0
H806 H 0.48773 0.58112 0.5177 0.0
H807 H 0.52795 0.68855 0.44022 0.0
H808 H 0.55377 0.59153 0.4859 0.0
H809 H 0.45762 0.67281 0.46194 0.0
H810 H 0.5392 0.65568 0.46124 0.0
H811 H 0.47814 0.6173 0.50206 0.0
C812 C 0.50046 0.59124 0.50793 0.0
C813 C 0.52171 0.58338 0.50335 0.0
C814 C 0.52133 0.65945 0.4615 0.0
C815 C 0.5106 0.62457 0.48488 0.0
C816 C 0.51486 0.67829 0.4495 0.0
C817 C 0.49171 0.68348 0.44913 0.0
C818 C 0.5046 0.64561 0.47333 0.0
C819 C 0.47563 0.66947 0.46162 0.0
C820 C 0.49484 0.61178 0.49873 0.0
C821 C 0.53718 0.59692 0.48985 0.0
N822 N 0.48236 0.65115 0.47313 0.0
N823 N 0.53131 0.6168 0.48108 0.0
H824 H 0.88635 0.84982 0.77985 0.0
H825 H 0.93716 0.74634 0.71927 0.0
H826 H 0.91907 0.80024 0.82087 0.0
H827 H 0.9557 0.81395 0.69324 0.0
H828 H 0.91882 0.76338 0.75186 0.0
H829 H 0.90163 0.8346 0.74349 0.0
C830 C 0.8967 0.83576 0.78117 0.0
C831 C 0.90155 0.82626 0.80333 0.0
C832 C 0.92668 0.77441 0.73882 0.0
C833 C 0.9183 0.80863 0.76213 0.0
C834 C 0.93704 0.76475 0.72008 0.0
C835 C 0.94824 0.77876 0.70352 0.0
C836 C 0.92703 0.79821 0.74089 0.0
C837 C 0.94745 0.80253 0.7057 0.0
C838 C 0.90541 0.82721 0.76053 0.0
C839 C 0.91506 0.80812 0.80416 0.0
N840 N 0.93701 0.81159 0.72415 0.0
N841 N 0.92272 0.79971 0.78381 0.0
H842 H 0.02451 0.88762 0.51257 0.0
H843 H 0.02596 0.849 0.64673 0.0
H844 H 0.0316 0.93718 0.57236 0.0
H845 H 0.98847 0.80708 0.58738 0.0
H846 H 0.03245 0.88092 0.62004 0.0
H847 H 0.01598 0.85687 0.54002 0.0
C848 C 0.02435 0.89202 0.53149 0.0
C849 C 0.02876 0.91498 0.54021 0.0
C850 C 0.02266 0.86477 0.61298 0.0
C851 C 0.01918 0.8799 0.57169 0.0
C852 C 0.01897 0.84657 0.62815 0.0
C853 C 0.00664 0.82539 0.61925 0.0
C854 C 0.01438 0.86154 0.58867 0.0
C855 C 0.99798 0.82315 0.59502 0.0
C856 C 0.01935 0.87449 0.5471 0.0
C857 C 0.02822 0.9197 0.56489 0.0
N858 N 0.00223 0.84091 0.58052 0.0
N859 N 0.02369 0.90228 0.57983 0.0
H860 H 0.13862 0.76287 0.8053 0.0
H861 H 0.01547 0.71407 0.73366 0.0
H862 H 0.08768 0.71109 0.83102 0.0
H863 H 0.05966 0.77387 0.71282 0.0
H864 H 0.04279 0.71215 0.76866 0.0
H865 H 0.11079 0.76686 0.77077 0.0
C866 C 0.12157 0.75244 0.80377 0.0
C867 C 0.11551 0.73657 0.82105 0.0
C868 C 0.04652 0.72575 0.75649 0.0
C869 C 0.08373 0.74094 0.78157 0.0
C870 C 0.03093 0.72683 0.73639 0.0
C871 C 0.03521 0.74418 0.72017 0.0
C872 C 0.06672 0.74202 0.76047 0.0
C873 C 0.05559 0.76021 0.72482 0.0
C874 C 0.10571 0.75473 0.78406 0.0
C875 C 0.09316 0.72352 0.81816 0.0
N876 N 0.07064 0.7587 0.74452 0.0
N877 N 0.07817 0.72592 0.79876 0.0
H878 H 0.98175 0.61867 0.53858 0.0
H879 H 0.04589 0.71541 0.63499 0.0
H880 H 0.04358 0.61094 0.58483 0.0
H881 H 0.97702 0.71764 0.59976 0.0
H882 H 0.04842 0.67985 0.61162 0.0
H883 H 0.982 0.65712 0.55691 0.0
C884 C 0.99537 0.62504 0.55259 0.0
C885 C 0.01263 0.61155 0.56024 0.0
C886 C 0.03278 0.68814 0.6089 0.0
C887 C 0.01327 0.65563 0.58093 0.0
C888 C 0.03137 0.70836 0.6222 0.0
C889 C 0.01078 0.71858 0.61995 0.0
C890 C 0.0136 0.6785 0.59296 0.0
C891 C 0.99276 0.70951 0.60262 0.0
C892 C 0.99555 0.64701 0.56296 0.0
C893 C 0.02985 0.62068 0.57846 0.0
N894 N 0.99445 0.68976 0.58991 0.0
N895 N 0.02976 0.64217 0.58814 0.0
H896 H 0.73737 0.88651 0.17863 0.0
H897 H 0.82912 0.95001 0.28273 0.0
H898 H 0.73756 0.87207 0.25358 0.0
H899 H 0.83022 0.96802 0.20908 0.0
H900 H 0.79652 0.91988 0.27131 0.0
H901 H 0.77247 0.91487 0.18822 0.0
C902 C 0.74481 0.88922 0.19704 0.0
C903 C 0.73439 0.87701 0.21535 0.0
C904 C 0.80388 0.93022 0.25749 0.0
C905 C 0.77437 0.9093 0.22638 0.0
C906 C 0.82261 0.94729 0.26402 0.0
C907 C 0.83271 0.96084 0.24665 0.0
C908 C 0.79486 0.92693 0.2334 0.0
C909 C 0.82309 0.95745 0.22283 0.0
C910 C 0.7648 0.9054 0.20249 0.0
C911 C 0.74481 0.88116 0.23887 0.0
N912 N 0.80468 0.94066 0.21681 0.0
N913 N 0.76413 0.89696 0.24367 0.0
H914 H 0.76298 0.13033 0.33591 0.0
H915 H 0.83303 0.02307 0.33909 0.0
H916 H 0.76767 0.0882 0.397 0.0
H917 H 0.84767 0.07755 0.29091 0.0
H918 H 0.80823 0.04637 0.35995 0.0
H919 H 0.79322 0.11106 0.31839 0.0
C920 C 0.77048 0.11714 0.34571 0.0
C921 C 0.76268 0.11074 0.36788 0.0
C922 C 0.81703 0.05335 0.34497 0.0
C923 C 0.79708 0.08857 0.34786 0.0
C924 C 0.83114 0.04003 0.333 0.0
C925 C 0.84231 0.04838 0.31318 0.0
C926 C 0.81372 0.07504 0.33681 0.0
C927 C 0.83936 0.07051 0.30614 0.0
C928 C 0.78778 0.10622 0.33574 0.0
C929 C 0.77309 0.09364 0.37984 0.0
N930 N 0.82508 0.08301 0.31777 0.0
N931 N 0.78957 0.08298 0.36956 0.0
H932 H 0.38769 0.02626 0.98514 0.0
H933 H 0.31342 0.92185 0.04446 0.0
H934 H 0.41857 0.98516 0.03802 0.0
H935 H 0.29087 0.9505 0.97812 0.0
H936 H 0.3499 0.94887 0.04678 0.0
H937 H 0.34986 0.00246 0.98684 0.0
C938 C 0.3865 0.0123 0.99722 0.0
C939 C 0.40637 0.00759 0.01133 0.0
C940 C 0.33686 0.94927 0.03182 0.0
C941 C 0.36306 0.98031 0.01341 0.0
C942 C 0.31601 0.93396 0.03054 0.0
C943 C 0.29912 0.93381 0.01099 0.0
C944 C 0.34068 0.96469 0.01358 0.0
C945 C 0.30346 0.94983 0.99341 0.0
C946 C 0.3649 0.99869 0.99813 0.0
C947 C 0.40374 0.9893 0.02669 0.0
N948 N 0.32379 0.96458 0.99512 0.0
N949 N 0.38247 0.97628 0.02731 0.0
H950 H 0.24823 0.41011 0.39645 0.0
H951 H 0.1412 0.43062 0.30284 0.0
H952 H 0.21109 0.35677 0.34727 0.0
H953 H 0.18426 0.48415 0.3473 0.0
H954 H 0.16343 0.40227 0.32174 0.0
H955 H 0.22153 0.43629 0.38177 0.0
C956 C 0.23433 0.40382 0.38269 0.0
C957 C 0.23205 0.38124 0.37294 0.0
C958 C 0.16789 0.42021 0.32742 0.0
C959 C 0.20141 0.41129 0.35586 0.0
C960 C 0.1552 0.43638 0.31667 0.0
C961 C 0.161 0.45979 0.32339 0.0
C962 C 0.1864 0.42755 0.34507 0.0
C963 C 0.17927 0.46632 0.34142 0.0
C964 C 0.21909 0.41883 0.37425 0.0
C965 C 0.21358 0.37407 0.35523 0.0
N966 N 0.19134 0.45031 0.35154 0.0
N967 N 0.19906 0.3891 0.34712 0.0
H968 H 0.12285 0.00207 0.48586 0.0
H969 H 0.20511 0.11268 0.54683 0.0
H970 H 0.10473 0.04292 0.54545 0.0
H971 H 0.21842 0.07897 0.48078 0.0
H972 H 0.17149 0.08322 0.55032 0.0
H973 H 0.16093 0.02623 0.48728 0.0
C974 C 0.127 0.01588 0.49949 0.0
C975 C 0.1105 0.02056 0.51548 0.0
C976 C 0.18173 0.08219 0.53505 0.0
C977 C 0.15403 0.04823 0.51717 0.0
C978 C 0.2008 0.09901 0.53305 0.0
C979 C 0.21358 0.09869 0.51289 0.0
C980 C 0.1758 0.0647 0.51699 0.0
C981 C 0.20815 0.08024 0.49599 0.0
C982 C 0.14872 0.02971 0.50021 0.0
C983 C 0.11683 0.03876 0.53267 0.0
N984 N 0.18942 0.06404 0.49825 0.0
N985 N 0.13803 0.05199 0.53297 0.0
H986 H 0.75573 0.12162 0.70116 0.0
H987 H 0.68678 0.06516 0.80735 0.0
H988 H 0.76831 0.14612 0.77526 0.0
H989 H 0.66935 0.04386 0.73301 0.0
H990 H 0.71748 0.09447 0.7958 0.0
H991 H 0.72401 0.09308 0.71211 0.0
C992 C 0.75175 0.12109 0.71969 0.0
C993 C 0.7648 0.13621 0.73734 0.0
C994 C 0.70688 0.08353 0.78194 0.0
C995 C 0.7287 0.10349 0.75 0.0
C996 C 0.68932 0.06695 0.78854 0.0
C997 C 0.67508 0.05288 0.77097 0.0
C998 C 0.71038 0.0858 0.75758 0.0
C999 C 0.67967 0.05493 0.74695 0.0
C1000 C 0.73367 0.10477 0.72594 0.0
C1001 C 0.75882 0.13477 0.76106 0.0
N1002 N 0.69682 0.07129 0.74089 0.0
N1003 N 0.7413 0.11865 0.7667 0.0
H1004 H 0.42125 0.05611 0.50922 0.0
H1005 H 0.32932 0.13406 0.55596 0.0
H1006 H 0.39601 0.05044 0.5794 0.0
H1007 H 0.32539 0.10827 0.48248 0.0
H1008 H 0.36221 0.11233 0.56547 0.0
H1009 H 0.39403 0.08402 0.49999 0.0
C1010 C 0.4102 0.06095 0.52278 0.0
C1011 C 0.41071 0.05084 0.54504 0.0
C1012 C 0.35431 0.11175 0.54722 0.0
C1013 C 0.38003 0.08292 0.53476 0.0
C1014 C 0.33572 0.12424 0.54174 0.0
C1015 C 0.3246 0.12283 0.51843 0.0
C1016 C 0.36211 0.09821 0.52914 0.0
C1017 C 0.33342 0.10969 0.50071 0.0
C1018 C 0.39468 0.07678 0.51747 0.0
C1019 C 0.39599 0.05768 0.56194 0.0
N1020 N 0.35168 0.09786 0.50642 0.0
N1021 N 0.38127 0.07335 0.55648 0.0
H1022 H 0.60261 0.4765 0.46578 0.0
H1023 H 0.7036 0.41909 0.53728 0.0
H1024 H 0.61883 0.48634 0.54229 0.0
H1025 H 0.69706 0.42273 0.46028 0.0
H1026 H 0.67199 0.44284 0.53964 0.0
H1027 H 0.63671 0.45607 0.46348 0.0
C1028 C 0.61343 0.4745 0.48209 0.0
C1029 C 0.60781 0.4831 0.50427 0.0
C1030 C 0.67758 0.43853 0.52225 0.0
C1031 C 0.64677 0.4595 0.5018 0.0
C1032 C 0.69559 0.4249 0.52087 0.0
C1033 C 0.70303 0.41881 0.49854 0.0
C1034 C 0.66673 0.44595 0.50115 0.0
C1035 C 0.69199 0.42696 0.47791 0.0
C1036 C 0.63292 0.46284 0.48075 0.0
C1037 C 0.62251 0.48002 0.5248 0.0
N1038 N 0.67434 0.43997 0.47971 0.0
N1039 N 0.6412 0.46831 0.52309 0.0
H1040 H 0.66904 0.22086 0.41163 0.0
H1041 H 0.76532 0.32157 0.47164 0.0
H1042 H 0.74315 0.21591 0.42249 0.0
H1043 H 0.69102 0.32097 0.4766 0.0
H1044 H 0.75726 0.28535 0.44784 0.0
H1045 H 0.67656 0.26 0.42969 0.0
C1046 C 0.68694 0.22818 0.41735 0.0
C1047 C 0.70557 0.21528 0.41528 0.0
C1048 C 0.74265 0.29317 0.45391 0.0
C1049 C 0.7142 0.25973 0.43636 0.0
C1050 C 0.74724 0.31393 0.46727 0.0
C1051 C 0.72872 0.32443 0.47539 0.0
C1052 C 0.71935 0.28264 0.44896 0.0
C1053 C 0.70568 0.31348 0.47019 0.0
C1054 C 0.69118 0.2504 0.4279 0.0
C1055 C 0.7283 0.22529 0.42377 0.0
N1056 N 0.70159 0.29314 0.45717 0.0
N1057 N 0.73198 0.24692 0.43391 0.0
H1058 H 0.49297 0.03546 0.92402 0.0
H1059 H 0.59628 0.98861 0.85782 0.0
H1060 H 0.5438 0.99765 0.95979 0.0
H1061 H 0.5613 0.04551 0.83472 0.0
H1062 H 0.5713 0.98449 0.89124 0.0
H1063 H 0.5118 0.03139 0.88696 0.0
C1064 C 0.50787 0.02599 0.92404 0.0
C1065 C 0.51702 0.01716 0.94517 0.0
C1066 C 0.569 0.9977 0.87868 0.0
C1067 C 0.53867 0.01253 0.90274 0.0
C1068 C 0.58315 1.00002 0.85958 0.0
C1069 C 0.581 0.01758 0.84361 0.0
C1070 C 0.55239 0.01282 0.88154 0.0
C1071 C 0.56375 0.03192 0.84677 0.0
C1072 C 0.51867 0.02378 0.90287 0.0
C1073 C 0.53631 0.00496 0.94399 0.0
N1074 N 0.55015 0.02925 0.86539 0.0
N1075 N 0.54664 0.00315 0.92316 0.0
H1076 H 0.29981 0.30555 0.41147 0.0
H1077 H 0.26178 0.17284 0.41582 0.0
H1078 H 0.32577 0.26024 0.36073 0.0
H1079 H 0.28954 0.21289 0.4803 0.0
H1080 H 0.27623 0.20525 0.39203 0.0
H1081 H 0.28573 0.2721 0.43391 0.0
C1082 C 0.30211 0.28853 0.40483 0.0
C1083 C 0.31384 0.28553 0.38424 0.0
C1084 C 0.27926 0.20676 0.41138 0.0
C1085 C 0.29775 0.24753 0.40954 0.0
C1086 C 0.27113 0.18836 0.4249 0.0
C1087 C 0.27478 0.1902 0.44998 0.0
C1088 C 0.29025 0.2273 0.42314 0.0
C1089 C 0.28673 0.21072 0.46097 0.0
C1090 C 0.29433 0.26957 0.41773 0.0
C1091 C 0.31679 0.26318 0.37656 0.0
N1092 N 0.29374 0.22866 0.44749 0.0
N1093 N 0.3086 0.24493 0.38912 0.0
H1094 H 0.47803 0.55083 0.9362 0.0
H1095 H 0.41337 0.4673 0.82816 0.0
H1096 H 0.47334 0.47699 0.93574 0.0
H1097 H 0.40649 0.53941 0.83535 0.0
H1098 H 0.43817 0.47107 0.86586 0.0
H1099 H 0.45409 0.54737 0.8979 0.0
C1100 C 0.4719 0.53387 0.92809 0.0
C1101 C 0.47768 0.51416 0.93922 0.0
C1102 C 0.43128 0.48608 0.85915 0.0
C1103 C 0.45043 0.51011 0.89524 0.0
C1104 C 0.41721 0.48399 0.83752 0.0
C1105 C 0.40774 0.50307 0.8285 0.0
C1106 C 0.43609 0.50742 0.87187 0.0
C1107 C 0.41331 0.52421 0.84158 0.0
C1108 C 0.45823 0.53192 0.90621 0.0
C1109 C 0.46924 0.49264 0.92786 0.0
N1110 N 0.42709 0.5258 0.86259 0.0
N1111 N 0.45612 0.4912 0.90645 0.0
H1112 H 0.70894 0.75886 0.15547 0.0
H1113 H 0.69321 0.70988 0.01949 0.0
H1114 H 0.67031 0.78929 0.09869 0.0
H1115 H 0.74468 0.68971 0.07203 0.0
H1116 H 0.68301 0.73756 0.04895 0.0
H1117 H 0.72045 0.73174 0.12588 0.0
C1118 C 0.70283 0.75981 0.1368 0.0
C1119 C 0.68861 0.77636 0.12954 0.0
C1120 C 0.69661 0.72716 0.05403 0.0
C1121 C 0.7017 0.74538 0.09564 0.0
C1122 C 0.70244 0.71128 0.03721 0.0
C1123 C 0.71985 0.69737 0.04325 0.0
C1124 C 0.70806 0.72908 0.07722 0.0
C1125 C 0.73121 0.7001 0.06652 0.0
C1126 C 0.70949 0.74439 0.11992 0.0
C1127 C 0.6813 0.77684 0.1051 0.0
N1128 N 0.72502 0.71555 0.0827 0.0
N1129 N 0.68786 0.76154 0.08906 0.0
H1130 H 0.98638 0.08421 0.14304 0.0
H1131 H 0.94225 0.97707 0.2192 0.0
H1132 H 0.00688 0.01685 0.13218 0.0
H1133 H 0.91907 0.04367 0.22668 0.0
H1134 H 0.96786 0.99179 0.18908 0.0
H1135 H 0.9637 0.07014 0.17557 0.0
C1136 C 0.98623 0.06646 0.14756 0.0
C1137 C 0.99849 0.05166 0.13475 0.0
C1138 C 0.95722 0.00319 0.19737 0.0
C1139 C 0.97238 0.03538 0.17204 0.0
C1140 C 0.94259 0.99481 0.21463 0.0
C1141 C 0.92837 0.00912 0.22553 0.0
C1142 C 0.95772 0.02606 0.19094 0.0
C1143 C 0.9296 0.03195 0.21875 0.0
C1144 C 0.97321 0.05843 0.16615 0.0
C1145 C 0.99766 0.02886 0.14152 0.0
N1146 N 0.94396 0.03967 0.2019 0.0
N1147 N 0.98474 0.02139 0.15964 0.0
H1148 H 0.2766 0.78053 0.18214 0.0
H1149 H 0.29781 0.83406 0.05561 0.0
H1150 H 0.32096 0.75511 0.13168 0.0
H1151 H 0.25384 0.8608 0.10561 0.0
H1152 H 0.30977 0.80776 0.08534 0.0
H1153 H 0.27099 0.81234 0.15637 0.0
C1154 C 0.2853 0.78171 0.16574 0.0
C1155 C 0.29912 0.76499 0.15897 0.0
C1156 C 0.29769 0.81952 0.08996 0.0
C1157 C 0.29274 0.80136 0.12938 0.0
C1158 C 0.29089 0.83461 0.07299 0.0
C1159 C 0.27464 0.84952 0.07807 0.0
C1160 C 0.28804 0.81915 0.11217 0.0
C1161 C 0.26636 0.84954 0.10093 0.0
C1162 C 0.28209 0.7999 0.15104 0.0
C1163 C 0.31003 0.76748 0.13756 0.0
N1164 N 0.27294 0.83438 0.11706 0.0
N1165 N 0.30648 0.7852 0.12348 0.0
H1166 H 0.99499 0.53831 0.13918 0.0
H1167 H 0.07505 0.48141 0.23683 0.0
H1168 H 0.00605 0.46713 0.13563 0.0
H1169 H 0.06279 0.55222 0.24201 0.0
H1170 H 0.04634 0.47493 0.20199 0.0
H1171 H 0.01622 0.54283 0.17906 0.0
C1172 C 0.00163 0.52357 0.14687 0.0
C1173 C 0.99897 0.50238 0.13388 0.0
C1174 C 0.04977 0.49184 0.21088 0.0
C1175 C 0.02339 0.50747 0.17942 0.0
C1176 C 0.06618 0.49556 0.23083 0.0
C1177 C 0.0716 0.51746 0.24229 0.0
C1178 C 0.03875 0.51017 0.20219 0.0
C1179 C 0.05936 0.53507 0.23371 0.0
C1180 C 0.01378 0.52617 0.16963 0.0
C1181 C 0.00788 0.48387 0.14482 0.0
N1182 N 0.04371 0.53109 0.21405 0.0
N1183 N 0.01985 0.4869 0.16682 0.0
H1184 H 0.38631 0.6685 0.24469 0.0
H1185 H 0.44434 0.75199 0.35562 0.0
H1186 H 0.36413 0.73377 0.26306 0.0
H1187 H 0.45976 0.68279 0.34542 0.0
H1188 H 0.41698 0.74636 0.31976 0.0
H1189 H 0.41555 0.67427 0.27933 0.0
C1190 C 0.38773 0.68415 0.25584 0.0
C1191 C 0.37272 0.70069 0.25094 0.0
C1192 C 0.42618 0.7323 0.32532 0.0
C1193 C 0.40603 0.70728 0.29063 0.0
C1194 C 0.44165 0.73545 0.34589 0.0
C1195 C 0.45354 0.71751 0.35383 0.0
C1196 C 0.42287 0.71112 0.31228 0.0
C1197 C 0.4504 0.69681 0.34006 0.0
C1198 C 0.40433 0.68734 0.27568 0.0
C1199 C 0.37528 0.72054 0.26611 0.0
N1200 N 0.43516 0.69408 0.31996 0.0
N1201 N 0.39156 0.72324 0.28526 0.0
H1202 H 0.95632 0.37837 0.04676 0.0
H1203 H 0.02628 0.32431 0.94596 0.0
H1204 H 0.00241 0.41939 0.00329 0.0
H1205 H 0.96519 0.28801 0.97418 0.0
H1206 H 0.02251 0.35791 0.9718 0.0
H1207 H 0.9636 0.34387 0.02452 0.0
C1208 C 0.96796 0.38013 0.03251 0.0
C1209 C 0.97867 0.40182 0.02678 0.0
C1210 C 0.01009 0.3425 0.97245 0.0
C1211 C 0.9873 0.36233 0.00146 0.0
C1212 C 0.01235 0.32324 0.9579 0.0
C1213 C 0.99596 0.30333 0.95782 0.0
C1214 C 0.99146 0.34175 0.9872 0.0
C1215 C 0.97814 0.30303 0.97352 0.0
C1216 C 0.97212 0.36042 0.01985 0.0
C1217 C 0.99364 0.40304 0.00818 0.0
N1218 N 0.97632 0.32196 0.98751 0.0
N1219 N 0.99757 0.38355 0.99621 0.0
H1220 H 0.5985 0.8132 0.26386 0.0
H1221 H 0.57572 0.76834 0.39331 0.0
H1222 H 0.65432 0.80858 0.31895 0.0
H1223 H 0.52117 0.78919 0.34494 0.0
H1224 H 0.60487 0.78307 0.36641 0.0
H1225 H 0.56976 0.80375 0.29302 0.0
C1226 C 0.60471 0.81018 0.28207 0.0
C1227 C 0.62885 0.81158 0.28895 0.0
C1228 C 0.58656 0.78468 0.36182 0.0
C1229 C 0.59609 0.8008 0.32238 0.0
C1230 C 0.56992 0.77632 0.3772 0.0
C1231 C 0.54599 0.77746 0.3713 0.0
C1232 C 0.57917 0.79395 0.34022 0.0
C1233 C 0.53945 0.78797 0.35019 0.0
C1234 C 0.58831 0.80492 0.29874 0.0
C1235 C 0.63589 0.80764 0.31283 0.0
N1236 N 0.55592 0.79556 0.33526 0.0
N1237 N 0.61959 0.8023 0.32863 0.0
H1238 H 0.00213 0.10346 0.01465 0.0
H1239 H 0.04665 0.20869 0.93607 0.0
H1240 H 0.07473 0.12091 0.00055 0.0
H1241 H 0.97439 0.18984 0.95086 0.0
H1242 H 0.0573 0.17594 0.95808 0.0
H1243 H 0.99167 0.13393 0.98943 0.0
C1244 C 0.01589 0.1136 0.00611 0.0
C1245 C 0.03939 0.10965 0.00988 0.0
C1246 C 0.03912 0.17898 0.95645 0.0
C1247 C 0.02749 0.14489 0.98097 0.0
C1248 C 0.033 0.19771 0.94392 0.0
C1249 C 0.00957 0.20219 0.94166 0.0
C1250 C 0.0217 0.16457 0.96682 0.0
C1251 C 0.9927 0.18724 0.95218 0.0
C1252 C 0.00989 0.13107 0.9917 0.0
C1253 C 0.0564 0.12333 0.99819 0.0
N1254 N 0.99911 0.16919 0.9643 0.0
N1255 N 0.05013 0.14045 0.98439 0.0
H1256 H 0.42084 0.298 0.30973 0.0
H1257 H 0.45583 0.30577 0.17749 0.0
H1258 H 0.38201 0.33736 0.26124 0.0
H1259 H 0.44821 0.24176 0.21312 0.0
H1260 H 0.43547 0.32295 0.20928 0.0
H1261 H 0.43922 0.28282 0.27584 0.0
C1262 C 0.41636 0.30361 0.29197 0.0
C1263 C 0.39982 0.31884 0.28821 0.0
C1264 C 0.43815 0.30509 0.20981 0.0
C1265 C 0.42096 0.30179 0.24955 0.0
C1266 C 0.44972 0.29532 0.19179 0.0
C1267 C 0.45369 0.27229 0.19262 0.0
C1268 C 0.43124 0.2919 0.22898 0.0
C1269 C 0.44544 0.25951 0.2116 0.0
C1270 C 0.42673 0.29486 0.27268 0.0
C1271 C 0.39457 0.32549 0.2648 0.0
N1272 N 0.43495 0.26957 0.22918 0.0
N1273 N 0.40526 0.31701 0.24625 0.0
H1274 H 0.52691 0.43392 0.06567 0.0
H1275 H 0.4914 0.29931 0.07533 0.0
H1276 H 0.52234 0.38574 0.00493 0.0
H1277 H 0.52719 0.34234 0.13475 0.0
H1278 H 0.49588 0.33215 0.04981 0.0
H1279 H 0.52066 0.40162 0.09187 0.0
C1280 C 0.52453 0.41656 0.05785 0.0
C1281 C 0.52521 0.41248 0.0331 0.0
C1282 C 0.50267 0.33439 0.06846 0.0
C1283 C 0.51775 0.37562 0.06286 0.0
C1284 C 0.50001 0.31572 0.08306 0.0
C1285 C 0.50901 0.31811 0.10717 0.0
C1286 C 0.51405 0.3557 0.07812 0.0
C1287 C 0.5201 0.33975 0.11622 0.0
C1288 C 0.52104 0.39819 0.0728 0.0
C1289 C 0.52207 0.38965 0.02392 0.0
N1290 N 0.52224 0.35777 0.1017 0.0
N1291 N 0.51833 0.37208 0.03878 0.0
H1292 H 0.64732 0.2598 0.2913 0.0
H1293 H 0.52198 0.21081 0.22476 0.0
H1294 H 0.59622 0.21089 0.32096 0.0
H1295 H 0.56606 0.2689 0.20024 0.0
H1296 H 0.54985 0.21028 0.25958 0.0
H1297 H 0.61847 0.26344 0.25755 0.0
C1298 C 0.63001 0.24996 0.29082 0.0
C1299 C 0.62424 0.23491 0.30892 0.0
C1300 C 0.55344 0.22322 0.24666 0.0
C1301 C 0.59129 0.23887 0.27034 0.0
C1302 C 0.53754 0.22349 0.22665 0.0
C1303 C 0.54166 0.23991 0.20943 0.0
C1304 C 0.5738 0.23936 0.24952 0.0
C1305 C 0.56214 0.25593 0.21304 0.0
C1306 C 0.61357 0.25205 0.27155 0.0
C1307 C 0.60153 0.22263 0.3074 0.0
N1308 N 0.57752 0.25519 0.23265 0.0
N1309 N 0.58598 0.22477 0.28838 0.0
H1310 H 0.56367 0.1115 0.06465 0.0
H1311 H 0.48192 0.20776 0.09137 0.0
H1312 H 0.48805 0.10088 0.05154 0.0
H1313 H 0.5526 0.21019 0.12387 0.0
H1314 H 0.48608 0.17181 0.06945 0.0
H1315 H 0.56165 0.15042 0.08064 0.0
C1316 C 0.54665 0.11735 0.06513 0.0
C1317 C 0.52598 0.10289 0.05686 0.0
C1318 C 0.5007 0.18022 0.08134 0.0
C1319 C 0.52362 0.14746 0.07471 0.0
C1320 C 0.49827 0.20058 0.09389 0.0
C1321 C 0.51656 0.21108 0.11019 0.0
C1322 C 0.52164 0.17053 0.08511 0.0
C1323 C 0.53786 0.20199 0.11199 0.0
C1324 C 0.54553 0.13956 0.0742 0.0
C1325 C 0.50441 0.11138 0.05787 0.0
N1326 N 0.53972 0.18195 0.0999 0.0
N1327 N 0.5038 0.13313 0.06657 0.0
H1328 H 0.21842 0.40828 0.66044 0.0
H1329 H 0.30365 0.45448 0.77695 0.0
H1330 H 0.22076 0.3731 0.72649 0.0
H1331 H 0.30723 0.48519 0.70865 0.0
H1332 H 0.27214 0.42525 0.75922 0.0
H1333 H 0.25027 0.43714 0.67795 0.0
C1334 C 0.22552 0.40671 0.67871 0.0
C1335 C 0.21646 0.38858 0.69226 0.0
C1336 C 0.27989 0.43824 0.74801 0.0
C1337 C 0.25296 0.42149 0.71239 0.0
C1338 C 0.29795 0.45477 0.75808 0.0
C1339 C 0.30849 0.47155 0.7439 0.0
C1340 C 0.27209 0.43883 0.72367 0.0
C1341 C 0.29984 0.47206 0.71991 0.0
C1342 C 0.24369 0.42319 0.68869 0.0
C1343 C 0.22648 0.38726 0.71573 0.0
N1344 N 0.28221 0.45578 0.71045 0.0
N1345 N 0.24416 0.40353 0.72507 0.0
H1346 H 0.24417 0.63493 0.85204 0.0
H1347 H 0.31455 0.52853 0.84492 0.0
H1348 H 0.25591 0.59334 0.91246 0.0
H1349 H 0.32618 0.58509 0.79866 0.0
H1350 H 0.29152 0.55112 0.86904 0.0
H1351 H 0.27267 0.61612 0.83108 0.0
C1352 C 0.25284 0.62194 0.86095 0.0
C1353 C 0.24758 0.61559 0.88398 0.0
C1354 C 0.29931 0.55869 0.85376 0.0
C1355 C 0.27996 0.5939 0.86003 0.0
C1356 C 0.31238 0.54579 0.83995 0.0
C1357 C 0.32218 0.55495 0.81973 0.0
C1358 C 0.29561 0.58074 0.84703 0.0
C1359 C 0.31893 0.57742 0.81414 0.0
C1360 C 0.26916 0.61129 0.84902 0.0
C1361 C 0.25943 0.59875 0.89472 0.0
N1362 N 0.30564 0.58947 0.82755 0.0
N1363 N 0.27486 0.58828 0.88254 0.0
H1364 H 0.93015 0.46628 0.54772 0.0
H1365 H 0.80481 0.44107 0.47441 0.0
H1366 H 0.90707 0.51007 0.49312 0.0
H1367 H 0.81989 0.41249 0.54283 0.0
H1368 H 0.84262 0.46567 0.48013 0.0
H1369 H 0.8904 0.44524 0.5453 0.0
C1370 C 0.91671 0.4715 0.53526 0.0
C1371 C 0.92195 0.48989 0.52052 0.0
C1372 C 0.83755 0.45418 0.494 0.0
C1373 C 0.8765 0.46583 0.51759 0.0
C1374 C 0.81598 0.4401 0.49074 0.0
C1375 C 0.80918 0.42462 0.50814 0.0
C1376 C 0.85265 0.45255 0.51462 0.0
C1377 C 0.82436 0.42419 0.52898 0.0
C1378 C 0.89401 0.45955 0.53398 0.0
C1379 C 0.90382 0.49599 0.5048 0.0
N1380 N 0.84551 0.43776 0.53151 0.0
N1381 N 0.88195 0.48385 0.5036 0.0
H1382 H 0.74766 0.90725 0.89693 0.0
H1383 H 0.6447 0.93144 0.80029 0.0
H1384 H 0.71557 0.85742 0.84142 0.0
H1385 H 0.68294 0.9827 0.85106 0.0
H1386 H 0.66719 0.90269 0.81783 0.0
H1387 H 0.72066 0.93355 0.88319 0.0
C1388 C 0.73481 0.90174 0.88195 0.0
C1389 C 0.73404 0.88013 0.87019 0.0
C1390 C 0.67054 0.9202 0.82521 0.0
C1391 C 0.70305 0.91033 0.85425 0.0
C1392 C 0.65769 0.93661 0.81524 0.0
C1393 C 0.66207 0.95953 0.82413 0.0
C1394 C 0.68783 0.92678 0.84424 0.0
C1395 C 0.67907 0.96526 0.84353 0.0
C1396 C 0.71941 0.91682 0.87407 0.0
C1397 C 0.71689 0.87395 0.85095 0.0
N1398 N 0.69137 0.94903 0.85286 0.0
N1399 N 0.70217 0.88903 0.84348 0.0
H1400 H 0.5921 0.54535 0.04043 0.0
H1401 H 0.70964 0.58489 0.9804 0.0
H1402 H 0.61673 0.50434 0.98471 0.0
H1403 H 0.69589 0.61182 0.04958 0.0
H1404 H 0.67588 0.5549 0.98153 0.0
H1405 H 0.62995 0.56994 0.04407 0.0
C1406 C 0.60556 0.54134 0.02916 0.0
C1407 C 0.6012 0.5228 0.01218 0.0
C1408 C 0.68031 0.56726 0.99654 0.0
C1409 C 0.64449 0.55101 0.01611 0.0
C1410 C 0.69935 0.58446 0.99575 0.0
C1411 C 0.70468 0.60124 0.01446 0.0
C1412 C 0.66656 0.56706 0.01614 0.0
C1413 C 0.69169 0.5995 0.03449 0.0
C1414 C 0.62719 0.55536 0.03129 0.0
C1415 C 0.61933 0.51843 0.99807 0.0
N1416 N 0.67287 0.58298 0.03462 0.0
N1417 N 0.64009 0.53261 0.00014 0.0
H1418 H 0.26396 0.64452 0.26205 0.0
H1419 H 0.16244 0.53978 0.22562 0.0
H1420 H 0.25111 0.61415 0.19006 0.0
H1421 H 0.18821 0.56128 0.29831 0.0
H1422 H 0.19268 0.56833 0.21127 0.0
H1423 H 0.23318 0.61632 0.27468 0.0
C1424 C 0.25458 0.63199 0.24883 0.0
C1425 C 0.26026 0.63161 0.22497 0.0
C1426 C 0.19168 0.5668 0.23035 0.0
C1427 C 0.22499 0.59907 0.23943 0.0
C1428 C 0.17449 0.5506 0.23848 0.0
C1429 C 0.17244 0.54902 0.26308 0.0
C1430 C 0.207 0.58112 0.24707 0.0
C1431 C 0.18875 0.56274 0.27917 0.0
C1432 C 0.23706 0.61579 0.25611 0.0
C1433 C 0.24737 0.615 0.20865 0.0
N1434 N 0.20523 0.57839 0.27089 0.0
N1435 N 0.23034 0.59932 0.2162 0.0
H1436 H 0.93115 0.58963 0.05268 0.0
H1437 H 0.8005 0.58941 0.99361 0.0
H1438 H 0.88398 0.5277 0.03138 0.0
H1439 H 0.83497 0.64508 0.04149 0.0
H1440 H 0.83407 0.56866 0.00151 0.0
H1441 H 0.89882 0.61213 0.0435 0.0
C1442 C 0.91402 0.58078 0.04605 0.0
C1443 C 0.91022 0.55674 0.04283 0.0
C1444 C 0.83434 0.58545 0.01022 0.0
C1445 C 0.87341 0.58236 0.03202 0.0
C1446 C 0.81524 0.5974 0.00561 0.0
C1447 C 0.81489 0.61901 0.01698 0.0
C1448 C 0.85343 0.59525 0.02608 0.0
C1449 C 0.8345 0.62843 0.03242 0.0
C1450 C 0.89561 0.59362 0.0409 0.0
C1451 C 0.88768 0.54617 0.03425 0.0
N1452 N 0.85304 0.6165 0.03651 0.0
N1453 N 0.87019 0.55904 0.029 0.0
H1454 H 0.14912 0.03658 0.02431 0.0
H1455 H 0.18096 0.91116 0.04182 0.0
H1456 H 0.09938 0.98362 0.04974 0.0
H1457 H 0.20644 0.95184 0.98457 0.0
H1458 H 0.15424 0.93926 0.04982 0.0
H1459 H 0.17395 0.00741 0.01426 0.0
C1460 C 0.14342 0.01881 0.02773 0.0
C1461 C 0.12215 0.01248 0.03782 0.0
C1462 C 0.16563 0.94191 0.03546 0.0
C1463 C 0.15062 0.9792 0.0268 0.0
C1464 C 0.18094 0.92598 0.03096 0.0
C1465 C 0.19593 0.92917 0.01249 0.0
C1466 C 0.16577 0.96141 0.02179 0.0
C1467 C 0.1951 0.94864 0.99889 0.0
C1468 C 0.15753 0.00221 0.02193 0.0
C1469 C 0.11558 0.9892 0.04185 0.0
N1470 N 0.18046 0.96416 0.00398 0.0
N1471 N 0.1299 0.97341 0.03659 0.0
loop_
_geom_bond_atom_site_label_1
_geom_bond_atom_site_label_2
_geom_bond_distance
_geom_bond_site_symmetry_2
_ccdc_geom_bond_type
O0 Cd1 2.300 . S
O0 C7 1.275 . S
Cd1 O0 2.300 . S
Cd1 O9 2.381 . S
Cd1 O10 2.378 . S
O2 Cd3 2.385 . S
O2 C7 1.255 . S
Cd3 O2 2.385 . S
Cd3 O4 2.317 . S
O4 Cd3 2.317 . S
O4 C5 1.232 1_455 S
C5 O4 1.232 1_655 S
C5 O6 1.218 . S
O6 C5 1.218 . S
C7 O0 1.275 . S
C7 O2 1.255 . S
C8 O9 1.258 1_565 S
C8 O10 1.256 1_565 S
O9 Cd1 2.381 . S
O9 C8 1.258 1_545 S
O10 Cd1 2.378 . S
O10 C8 1.256 1_545 S
O11 Cd12 2.300 . S
O11 C18 1.275 . S
Cd12 O11 2.300 . S
Cd12 O20 2.381 . S
Cd12 O21 2.378 . S
O13 Cd14 2.385 . S
O13 C18 1.255 . S
Cd14 O13 2.385 . S
Cd14 O15 2.317 . S
O15 Cd14 2.317 . S
O15 C16 1.232 . S
C16 O15 1.232 . S
C16 O17 1.218 . S
O17 C16 1.218 . S
C18 O11 1.275 . S
C18 O13 1.255 . S
C19 O20 1.258 . S
C19 O21 1.256 . S
O20 Cd12 2.381 . S
O20 C19 1.258 . S
O21 Cd12 2.378 . S
O21 C19 1.256 . S
O22 Cd23 2.300 . S
O22 C29 1.275 . S
Cd23 O22 2.300 . S
Cd23 O31 2.381 . S
Cd23 O32 2.378 . S
O24 Cd25 2.385 1_655 S
O24 C29 1.255 . S
Cd25 O24 2.385 1_455 S
Cd25 O26 2.317 1_455 S
O26 Cd25 2.317 1_655 S
O26 C27 1.232 . S
C27 O26 1.232 . S
C27 O28 1.218 1_655 S
O28 C27 1.218 1_455 S
C29 O22 1.275 . S
C29 O24 1.255 . S
C30 O31 1.258 . S
C30 O32 1.256 . S
O31 Cd23 2.381 . S
O31 C30 1.258 . S
O32 Cd23 2.378 . S
O32 C30 1.256 . S
O33 Cd34 2.300 . S
O33 C40 1.275 . S
Cd34 O33 2.300 . S
Cd34 O42 2.381 . S
Cd34 O43 2.378 . S
O35 Cd36 2.385 . S
O35 C40 1.255 . S
Cd36 O35 2.385 . S
Cd36 O37 2.317 . S
O37 Cd36 2.317 . S
O37 C38 1.232 . S
C38 O37 1.232 . S
C38 O39 1.218 . S
O39 C38 1.218 . S
C40 O33 1.275 . S
C40 O35 1.255 . S
C41 O42 1.258 . S
C41 O43 1.256 . S
O42 Cd34 2.381 . S
O42 C41 1.258 . S
O43 Cd34 2.378 . S
O43 C41 1.256 . S
O44 Cd45 2.300 . S
O44 C51 1.275 1_565 S
Cd45 O44 2.300 . S
Cd45 O53 2.381 . S
Cd45 O54 2.378 . S
O46 Cd47 2.385 . S
O46 C51 1.255 . S
Cd47 O46 2.385 . S
Cd47 O48 2.317 1_545 S
O48 Cd47 2.317 1_565 S
O48 C49 1.232 1_565 S
C49 O48 1.232 1_545 S
C49 O50 1.218 . S
O50 C49 1.218 . S
C51 O44 1.275 1_545 S
C51 O46 1.255 . S
C52 O53 1.258 . S
C52 O54 1.256 . S
O53 Cd45 2.381 . S
O53 C52 1.258 . S
O54 Cd45 2.378 . S
O54 C52 1.256 . S
O55 Cd56 2.300 . S
O55 C62 1.275 . S
Cd56 O55 2.300 . S
Cd56 O64 2.381 . S
Cd56 O65 2.378 . S
O57 Cd58 2.385 . S
O57 C62 1.255 . S
Cd58 O57 2.385 . S
Cd58 O59 2.317 . S
O59 Cd58 2.317 . S
O59 C60 1.232 . S
C60 O59 1.232 . S
C60 O61 1.218 . S
O61 C60 1.218 . S
C62 O55 1.275 . S
C62 O57 1.255 . S
C63 O64 1.258 . S
C63 O65 1.256 . S
O64 Cd56 2.381 . S
O64 C63 1.258 . S
O65 Cd56 2.378 . S
O65 C63 1.256 . S
O66 Cd67 2.300 . S
O66 C73 1.275 1_655 S
Cd67 O66 2.300 . S
Cd67 O75 2.381 . S
Cd67 O76 2.378 . S
O68 Cd69 2.385 . S
O68 C73 1.255 . S
Cd69 O68 2.385 . S
Cd69 O70 2.286 1_455 S
O70 Cd69 2.286 1_655 S
O70 C71 1.213 1_655 S
C71 O70 1.213 1_455 S
C71 O72 1.218 . S
O72 C71 1.218 . S
C73 O66 1.275 1_455 S
C73 O68 1.255 . S
C74 O75 1.258 . S
C74 O76 1.256 . S
O75 Cd67 2.381 . S
O75 C74 1.258 . S
O76 Cd67 2.378 . S
O76 C74 1.256 . S
O77 Cd78 2.300 . S
O77 C84 1.275 . S
Cd78 O77 2.300 . S
Cd78 O86 2.381 . S
Cd78 O87 2.378 . S
O79 Cd80 2.385 . S
O79 C84 1.255 . S
Cd80 O79 2.385 . S
Cd80 O81 2.317 . S
O81 Cd80 2.317 . S
O81 C82 1.232 . S
C82 O81 1.232 . S
C82 O83 1.218 . S
O83 C82 1.218 . S
C84 O77 1.275 . S
C84 O79 1.255 . S
C85 O86 1.258 . S
C85 O87 1.256 . S
O86 Cd78 2.381 . S
O86 C85 1.258 . S
O87 Cd78 2.378 . S
O87 C85 1.256 . S
O88 Cd89 2.300 . S
O88 C95 1.275 . S
Cd89 O88 2.300 . S
Cd89 O97 2.381 . S
Cd89 O98 2.378 . S
O90 Cd91 2.385 . S
O90 C95 1.255 . S
Cd91 O90 2.385 . S
Cd91 O92 2.317 . S
O92 Cd91 2.317 . S
O92 C93 1.232 . S
C93 O92 1.232 . S
C93 O94 1.218 . S
O94 C93 1.218 . S
C95 O88 1.275 . S
C95 O90 1.255 . S
C96 O97 1.258 . S
C96 O98 1.256 . S
O97 Cd89 2.381 . S
O97 C96 1.258 . S
O98 Cd89 2.378 . S
O98 C96 1.256 . S
O99 Cd100 2.300 1_565 S
O99 C106 1.275 . S
Cd100 O99 2.300 1_545 S
Cd100 O108 2.381 . S
Cd100 O109 2.378 . S
O101 Cd102 2.385 . S
O101 C106 1.255 . S
Cd102 O101 2.385 . S
Cd102 O103 2.317 . S
O103 Cd102 2.317 . S
O103 C104 1.232 . S
C104 O103 1.232 . S
C104 O105 1.218 . S
O105 C104 1.218 . S
C106 O99 1.275 . S
C106 O101 1.255 . S
C107 O108 1.258 . S
C107 O109 1.256 . S
O108 Cd100 2.381 . S
O108 C107 1.258 . S
O109 Cd100 2.378 . S
O109 C107 1.256 . S
O110 Cd111 2.300 . S
O110 C117 1.275 . S
Cd111 O110 2.300 . S
Cd111 O119 2.381 . S
Cd111 O120 2.378 . S
O112 Cd113 2.385 . S
O112 C117 1.255 . S
Cd113 O112 2.385 . S
Cd113 O114 2.317 . S
O114 Cd113 2.317 . S
O114 C115 1.232 . S
C115 O114 1.232 . S
C115 O116 1.218 . S
O116 C115 1.218 . S
C117 O110 1.275 . S
C117 O112 1.255 . S
C118 O119 1.258 . S
C118 O120 1.256 . S
O119 Cd111 2.381 . S
O119 C118 1.258 . S
O120 Cd111 2.378 . S
O120 C118 1.256 . S
O121 Cd122 2.300 . S
O121 C128 1.275 . S
Cd122 O121 2.300 . S
Cd122 O130 2.381 . S
Cd122 O131 2.378 . S
O123 Cd124 2.385 . S
O123 C128 1.255 . S
Cd124 O123 2.385 . S
Cd124 O125 2.317 . S
O125 Cd124 2.317 . S
O125 C126 1.232 . S
C126 O125 1.232 . S
C126 O127 1.218 . S
O127 C126 1.218 . S
C128 O121 1.275 . S
C128 O123 1.255 . S
C129 O130 1.258 . S
C129 O131 1.256 . S
O130 Cd122 2.381 . S
O130 C129 1.258 . S
O131 Cd122 2.378 . S
O131 C129 1.256 . S
O132 Cd133 2.300 . S
O132 C139 1.275 . S
Cd133 O132 2.300 . S
Cd133 O141 2.381 . S
Cd133 O142 2.378 . S
O134 Cd135 2.385 . S
O134 C139 1.255 . S
Cd135 O134 2.385 . S
Cd135 O136 2.317 . S
O136 Cd135 2.317 . S
O136 C137 1.232 . S
C137 O136 1.232 . S
C137 O138 1.218 . S
O138 C137 1.218 . S
C139 O132 1.275 . S
C139 O134 1.255 . S
C140 O141 1.258 . S
C140 O142 1.256 . S
O141 Cd133 2.381 . S
O141 C140 1.258 . S
O142 Cd133 2.378 . S
O142 C140 1.256 . S
O143 Cd144 2.283 1_556 S
O143 C150 1.293 . S
Cd144 O143 2.283 1_554 S
Cd144 O152 2.381 . S
Cd144 O153 2.378 . S
O145 Cd146 2.385 . S
O145 C150 1.255 . S
Cd146 O145 2.385 . S
Cd146 O147 2.317 . S
O147 Cd146 2.317 . S
O147 C148 1.232 . S
C148 O147 1.232 . S
C148 O149 1.218 . S
O149 C148 1.218 . S
C150 O143 1.293 . S
C150 O145 1.255 . S
C151 O152 1.258 . S
C151 O153 1.256 . S
O152 Cd144 2.381 . S
O152 C151 1.258 . S
O153 Cd144 2.378 . S
O153 C151 1.256 . S
O154 Cd155 2.300 . S
O154 C161 1.275 . S
Cd155 O154 2.300 . S
Cd155 O163 2.381 . S
Cd155 O164 2.378 . S
O156 Cd157 2.385 . S
O156 C161 1.255 . S
Cd157 O156 2.385 . S
Cd157 O158 2.317 . S
O158 Cd157 2.317 . S
O158 C159 1.232 . S
C159 O158 1.232 . S
C159 O160 1.218 . S
O160 C159 1.218 . S
C161 O154 1.275 . S
C161 O156 1.255 . S
C162 O163 1.258 . S
C162 O164 1.256 . S
O163 Cd155 2.381 . S
O163 C162 1.258 . S
O164 Cd155 2.378 . S
O164 C162 1.256 . S
O165 Cd166 2.300 1_556 S
O165 C172 1.275 . S
Cd166 O165 2.300 1_554 S
Cd166 O174 2.381 1_554 S
Cd166 O175 2.378 1_545 S
O167 Cd168 2.385 1_556 S
O167 C172 1.255 . S
Cd168 O167 2.385 1_554 S
Cd168 O169 2.317 . S
O169 Cd168 2.317 . S
O169 C170 1.232 . S
C170 O169 1.232 . S
C170 O171 1.218 . S
O171 C170 1.218 . S
C172 O165 1.275 . S
C172 O167 1.255 . S
C173 O174 1.222 1_564 S
C173 O175 1.290 . S
O174 Cd166 2.381 1_556 S
O174 C173 1.222 1_546 S
O175 Cd166 2.378 1_565 S
O175 C173 1.290 . S
Mn176 O181 2.095 . S
Mn176 O191 2.162 . S
Mn176 O192 2.297 . S
Mn176 O200 2.388 . S
Mn176 O201 2.209 1_554 S
Mn176 O202 2.094 . S
Mn177 O182 2.121 . S
Mn177 N184 2.257 . S
Mn177 N193 2.282 . S
Mn177 O201 2.215 . S
Mn177 O203 2.117 . S
C178 O200 1.227 1_556 S
C178 O201 1.283 . S
C179 O191 1.281 . S
C179 O192 1.236 . S
C180 O202 1.240 . S
C180 O203 1.264 1_554 S
O181 Mn176 2.095 . S
O181 C190 1.250 . S
O182 Mn177 2.121 . S
O182 C190 1.258 1_556 S
C183 N184 1.326 . S
C183 C187 1.460 . S
C183 H189 0.929 . S
N184 Mn177 2.257 . S
N184 C183 1.326 . S
N184 C188 1.362 . S
C185 C186 1.258 . S
C185 C188 1.431 . S
C185 C205 1.449 . S
C186 C185 1.258 . S
C186 C187 1.477 . S
C186 H206 0.931 . S
C187 C183 1.460 . S
C187 C186 1.477 . S
C187 H207 0.930 . S
C188 N184 1.362 . S
C188 C185 1.431 . S
C188 C198 1.476 . S
H189 C183 0.929 . S
C190 O181 1.250 . S
C190 O182 1.258 1_554 S
O191 Mn176 2.162 . S
O191 C179 1.281 . S
O192 Mn176 2.297 . S
O192 C179 1.236 . S
N193 Mn177 2.282 . S
N193 C194 1.328 . S
N193 C198 1.318 . S
C194 N193 1.328 . S
C194 C195 1.457 . S
C194 H199 0.929 . S
C195 C194 1.457 . S
C195 C196 1.291 . S
C195 H208 0.931 . S
C196 C195 1.291 . S
C196 C197 1.373 . S
C196 H209 0.929 . S
C197 C196 1.373 . S
C197 C198 1.396 . S
C197 C204 1.403 . S
C198 C188 1.476 . S
C198 N193 1.318 . S
C198 C197 1.396 . S
H199 C194 0.929 . S
O200 Mn176 2.388 . S
O200 C178 1.227 1_554 S
O201 Mn176 2.209 1_556 S
O201 Mn177 2.215 . S
O201 C178 1.283 . S
O202 Mn176 2.094 . S
O202 C180 1.240 . S
O203 Mn177 2.117 . S
O203 C180 1.264 1_556 S
C204 C197 1.403 . S
C204 C205 1.399 . S
C204 H210 0.929 . S
C205 C185 1.449 . S
C205 C204 1.399 . S
C205 H211 0.930 . S
H206 C186 0.931 . S
H207 C187 0.930 . S
H208 C195 0.931 . S
H209 C196 0.929 . S
H210 C204 0.929 . S
H211 C205 0.930 . S
Mn212 O217 2.095 . S
Mn212 O227 2.162 . S
Mn212 O228 2.297 . S
Mn212 O236 2.385 . S
Mn212 O237 2.209 . S
Mn212 O238 2.094 . S
Mn213 O218 2.121 . S
Mn213 N220 2.257 . S
Mn213 N229 2.282 . S
Mn213 O237 2.215 . S
Mn213 O239 2.117 . S
C214 O236 1.234 . S
C214 O237 1.283 . S
C215 O227 1.281 . S
C215 O228 1.236 . S
C216 O238 1.240 . S
C216 O239 1.264 . S
O217 Mn212 2.095 . S
O217 C226 1.250 . S
O218 Mn213 2.121 . S
O218 C226 1.258 . S
C219 N220 1.326 . S
C219 C223 1.460 . S
C219 H225 0.929 . S
N220 Mn213 2.257 . S
N220 C219 1.326 . S
N220 C224 1.362 . S
C221 C222 1.258 . S
C221 C224 1.431 . S
C221 C241 1.449 . S
C222 C221 1.258 . S
C222 C223 1.477 . S
C222 H242 0.931 . S
C223 C219 1.460 . S
C223 C222 1.477 . S
C223 H243 0.930 . S
C224 N220 1.362 . S
C224 C221 1.431 . S
C224 C234 1.476 . S
H225 C219 0.929 . S
C226 O217 1.250 . S
C226 O218 1.258 . S
O227 Mn212 2.162 . S
O227 C215 1.281 . S
O228 Mn212 2.297 . S
O228 C215 1.236 . S
N229 Mn213 2.282 . S
N229 C230 1.328 . S
N229 C234 1.318 . S
C230 N229 1.328 . S
C230 C231 1.457 . S
C230 H235 0.929 . S
C231 C230 1.457 . S
C231 C232 1.291 . S
C231 H244 0.931 . S
C232 C231 1.291 . S
C232 C233 1.373 . S
C232 H245 0.929 . S
C233 C232 1.373 . S
C233 C234 1.396 . S
C233 C240 1.403 . S
C234 C224 1.476 . S
C234 N229 1.318 . S
C234 C233 1.396 . S
H235 C230 0.929 . S
O236 Mn212 2.385 . S
O236 C214 1.234 . S
O237 Mn212 2.209 . S
O237 Mn213 2.215 . S
O237 C214 1.283 . S
O238 Mn212 2.094 . S
O238 C216 1.240 . S
O239 Mn213 2.117 . S
O239 C216 1.264 . S
C240 C233 1.403 . S
C240 C241 1.399 . S
C240 H246 0.929 . S
C241 C221 1.449 . S
C241 C240 1.399 . S
C241 H247 0.930 . S
H242 C222 0.931 . S
H243 C223 0.930 . S
H244 C231 0.931 . S
H245 C232 0.929 . S
H246 C240 0.929 . S
H247 C241 0.930 . S
Mn248 O253 2.095 1_554 S
Mn248 O263 2.162 . S
Mn248 O264 2.297 1_554 S
Mn248 O272 2.385 . S
Mn248 O273 2.209 1_554 S
Mn248 O274 2.094 . S
Mn249 O254 2.121 . S
Mn249 N256 2.257 . S
Mn249 N265 2.282 . S
Mn249 O273 2.215 . S
Mn249 O275 2.117 1_556 S
C250 O272 1.233 . S
C250 O273 1.284 1_554 S
C251 O263 1.281 . S
C251 O264 1.236 1_554 S
C252 O274 1.240 . S
C252 O275 1.264 . S
O253 Mn248 2.095 1_556 S
O253 C262 1.250 . S
O254 Mn249 2.121 . S
O254 C262 1.258 . S
C255 N256 1.326 . S
C255 C259 1.460 . S
C255 H261 0.929 . S
N256 Mn249 2.257 . S
N256 C255 1.326 . S
N256 C260 1.362 . S
C257 C258 1.258 . S
C257 C260 1.431 . S
C257 C277 1.449 . S
C258 C257 1.258 . S
C258 C259 1.477 . S
C258 H278 0.931 . S
C259 C255 1.460 . S
C259 C258 1.477 . S
C259 H279 0.930 . S
C260 N256 1.362 . S
C260 C257 1.431 . S
C260 C270 1.476 . S
H261 C255 0.929 . S
C262 O253 1.250 . S
C262 O254 1.258 . S
O263 Mn248 2.162 . S
O263 C251 1.281 . S
O264 Mn248 2.297 1_556 S
O264 C251 1.236 1_556 S
N265 Mn249 2.282 . S
N265 C266 1.328 1_556 S
N265 C270 1.318 . S
C266 N265 1.328 1_554 S
C266 C267 1.457 . S
C266 H271 0.929 . S
C267 C266 1.457 . S
C267 C268 1.291 . S
C267 H280 0.931 . S
C268 C267 1.291 . S
C268 C269 1.373 1_554 S
C268 H281 0.929 . S
C269 C268 1.373 1_556 S
C269 C270 1.396 . S
C269 C276 1.403 . S
C270 C260 1.476 . S
C270 N265 1.318 . S
C270 C269 1.396 . S
H271 C266 0.929 . S
O272 Mn248 2.385 . S
O272 C250 1.233 . S
O273 Mn248 2.209 1_556 S
O273 Mn249 2.215 . S
O273 C250 1.284 1_556 S
O274 Mn248 2.094 . S
O274 C252 1.240 . S
O275 Mn249 2.117 1_554 S
O275 C252 1.264 . S
C276 C269 1.403 . S
C276 C277 1.399 . S
C276 H282 0.929 . S
C277 C257 1.449 . S
C277 C276 1.399 . S
C277 H283 0.930 . S
H278 C258 0.931 . S
H279 C259 0.930 . S
H280 C267 0.931 . S
H281 C268 0.929 . S
H282 C276 0.929 . S
H283 C277 0.930 . S
Mn284 O289 2.095 . S
Mn284 O299 2.162 . S
Mn284 O300 2.297 . S
Mn284 O308 2.385 . S
Mn284 O309 2.209 1_545 S
Mn284 O310 2.094 . S
Mn285 O290 2.121 . S
Mn285 N292 2.257 . S
Mn285 N301 2.282 . S
Mn285 O309 2.215 . S
Mn285 O311 2.117 1_565 S
C286 O308 1.234 1_565 S
C286 O309 1.283 . S
C287 O299 1.281 . S
C287 O300 1.236 . S
C288 O310 1.240 . S
C288 O311 1.264 . S
O289 Mn284 2.095 . S
O289 C298 1.250 . S
O290 Mn285 2.121 . S
O290 C298 1.258 1_565 S
C291 N292 1.326 . S
C291 C295 1.460 . S
C291 H297 0.929 . S
N292 Mn285 2.257 . S
N292 C291 1.326 . S
N292 C296 1.362 . S
C293 C294 1.258 . S
C293 C296 1.431 . S
C293 C313 1.449 . S
C294 C293 1.258 . S
C294 C295 1.477 . S
C294 H314 0.931 . S
C295 C291 1.460 . S
C295 C294 1.477 . S
C295 H315 0.930 . S
C296 N292 1.362 . S
C296 C293 1.431 . S
C296 C306 1.476 . S
H297 C291 0.929 . S
C298 O289 1.250 . S
C298 O290 1.258 1_545 S
O299 Mn284 2.162 . S
O299 C287 1.281 . S
O300 Mn284 2.297 . S
O300 C287 1.236 . S
N301 Mn285 2.282 . S
N301 C302 1.328 . S
N301 C306 1.318 . S
C302 N301 1.328 . S
C302 C303 1.457 . S
C302 H307 0.929 . S
C303 C302 1.457 . S
C303 C304 1.291 . S
C303 H316 0.931 . S
C304 C303 1.291 . S
C304 C305 1.373 . S
C304 H317 0.929 . S
C305 C304 1.373 . S
C305 C306 1.396 . S
C305 C312 1.403 . S
C306 C296 1.476 . S
C306 N301 1.318 . S
C306 C305 1.396 . S
H307 C302 0.929 . S
O308 Mn284 2.385 . S
O308 C286 1.234 1_545 S
O309 Mn284 2.209 1_565 S
O309 Mn285 2.215 . S
O309 C286 1.283 . S
O310 Mn284 2.094 . S
O310 C288 1.240 . S
O311 Mn285 2.117 1_545 S
O311 C288 1.264 . S
C312 C305 1.403 . S
C312 C313 1.399 . S
C312 H318 0.929 . S
C313 C293 1.449 . S
C313 C312 1.399 . S
C313 H319 0.930 . S
H314 C294 0.931 . S
H315 C295 0.930 . S
H316 C303 0.931 . S
H317 C304 0.929 . S
H318 C312 0.929 . S
H319 C313 0.930 . S
Mn320 O325 2.095 . S
Mn320 O335 2.162 . S
Mn320 O336 2.297 . S
Mn320 O344 2.385 . S
Mn320 O345 2.209 . S
Mn320 O346 2.094 . S
Mn321 O326 2.121 . S
Mn321 N328 2.257 . S
Mn321 N337 2.282 . S
Mn321 O345 2.215 . S
Mn321 O347 2.117 . S
C322 O344 1.234 . S
C322 O345 1.283 . S
C323 O335 1.281 . S
C323 O336 1.236 . S
C324 O346 1.240 . S
C324 O347 1.264 . S
O325 Mn320 2.095 . S
O325 C334 1.250 . S
O326 Mn321 2.121 . S
O326 C334 1.258 . S
C327 N328 1.326 . S
C327 C331 1.460 . S
C327 H333 0.929 . S
N328 Mn321 2.257 . S
N328 C327 1.326 . S
N328 C332 1.362 . S
C329 C330 1.258 . S
C329 C332 1.431 . S
C329 C349 1.449 . S
C330 C329 1.258 . S
C330 C331 1.477 . S
C330 H350 0.931 . S
C331 C327 1.460 . S
C331 C330 1.477 . S
C331 H351 0.930 . S
C332 N328 1.362 . S
C332 C329 1.431 . S
C332 C342 1.476 . S
H333 C327 0.929 . S
C334 O325 1.250 . S
C334 O326 1.258 . S
O335 Mn320 2.162 . S
O335 C323 1.281 . S
O336 Mn320 2.297 . S
O336 C323 1.236 . S
N337 Mn321 2.282 . S
N337 C338 1.328 . S
N337 C342 1.318 . S
C338 N337 1.328 . S
C338 C339 1.457 . S
C338 H343 0.929 . S
C339 C338 1.457 . S
C339 C340 1.291 . S
C339 H352 0.931 . S
C340 C339 1.291 . S
C340 C341 1.373 . S
C340 H353 0.929 . S
C341 C340 1.373 . S
C341 C342 1.396 . S
C341 C348 1.403 . S
C342 C332 1.476 . S
C342 N337 1.318 . S
C342 C341 1.396 . S
H343 C338 0.929 . S
O344 Mn320 2.385 . S
O344 C322 1.234 . S
O345 Mn320 2.209 . S
O345 Mn321 2.215 . S
O345 C322 1.283 . S
O346 Mn320 2.094 . S
O346 C324 1.240 . S
O347 Mn321 2.117 . S
O347 C324 1.264 . S
C348 C341 1.403 . S
C348 C349 1.399 . S
C348 H354 0.929 . S
C349 C329 1.449 . S
C349 C348 1.399 . S
C349 H355 0.930 . S
H350 C330 0.931 . S
H351 C331 0.930 . S
H352 C339 0.931 . S
H353 C340 0.929 . S
H354 C348 0.929 . S
H355 C349 0.930 . S
Mn356 O361 2.095 . S
Mn356 O371 2.162 . S
Mn356 O372 2.297 . S
Mn356 O380 2.385 . S
Mn356 O381 2.209 . S
Mn356 O382 2.094 . S
Mn357 O362 2.121 . S
Mn357 N364 2.257 . S
Mn357 N373 2.282 . S
Mn357 O381 2.215 . S
Mn357 O383 2.117 . S
C358 O380 1.234 . S
C358 O381 1.283 . S
C359 O371 1.281 . S
C359 O372 1.236 . S
C360 O382 1.240 . S
C360 O383 1.264 . S
O361 Mn356 2.095 . S
O361 C370 1.250 . S
O362 Mn357 2.121 . S
O362 C370 1.258 . S
C363 N364 1.326 . S
C363 C367 1.460 . S
C363 H369 0.929 . S
N364 Mn357 2.257 . S
N364 C363 1.326 . S
N364 C368 1.362 . S
C365 C366 1.258 . S
C365 C368 1.431 . S
C365 C385 1.449 . S
C366 C365 1.258 . S
C366 C367 1.477 . S
C366 H386 0.931 . S
C367 C363 1.460 . S
C367 C366 1.477 . S
C367 H387 0.930 . S
C368 N364 1.362 . S
C368 C365 1.431 . S
C368 C378 1.476 . S
H369 C363 0.929 . S
C370 O361 1.250 . S
C370 O362 1.258 . S
O371 Mn356 2.162 . S
O371 C359 1.281 . S
O372 Mn356 2.297 . S
O372 C359 1.236 . S
N373 Mn357 2.282 . S
N373 C374 1.328 . S
N373 C378 1.318 . S
C374 N373 1.328 . S
C374 C375 1.457 . S
C374 H379 0.929 . S
C375 C374 1.457 . S
C375 C376 1.291 . S
C375 H388 0.931 . S
C376 C375 1.291 . S
C376 C377 1.373 . S
C376 H389 0.929 . S
C377 C376 1.373 . S
C377 C378 1.396 . S
C377 C384 1.403 . S
C378 C368 1.476 . S
C378 N373 1.318 . S
C378 C377 1.396 . S
H379 C374 0.929 . S
O380 Mn356 2.385 . S
O380 C358 1.234 . S
O381 Mn356 2.209 . S
O381 Mn357 2.215 . S
O381 C358 1.283 . S
O382 Mn356 2.094 . S
O382 C360 1.240 . S
O383 Mn357 2.117 . S
O383 C360 1.264 . S
C384 C377 1.403 . S
C384 C385 1.399 . S
C384 H390 0.929 . S
C385 C365 1.449 . S
C385 C384 1.399 . S
C385 H391 0.930 . S
H386 C366 0.931 . S
H387 C367 0.930 . S
H388 C375 0.931 . S
H389 C376 0.929 . S
H390 C384 0.929 . S
H391 C385 0.930 . S
Mn392 O397 2.095 . S
Mn392 O407 2.162 . S
Mn392 O408 2.297 . S
Mn392 O416 2.385 . S
Mn392 O417 2.209 . S
Mn392 O418 2.094 . S
Mn393 O398 2.121 . S
Mn393 N400 2.257 . S
Mn393 N409 2.282 . S
Mn393 O417 2.215 . S
Mn393 O419 2.117 . S
C394 O416 1.234 . S
C394 O417 1.283 . S
C395 O407 1.281 . S
C395 O408 1.236 . S
C396 O418 1.240 . S
C396 O419 1.264 . S
O397 Mn392 2.095 . S
O397 C406 1.250 . S
O398 Mn393 2.121 . S
O398 C406 1.258 . S
C399 N400 1.326 . S
C399 C403 1.460 . S
C399 H405 0.929 . S
N400 Mn393 2.257 . S
N400 C399 1.326 . S
N400 C404 1.362 . S
C401 C402 1.258 . S
C401 C404 1.431 . S
C401 C421 1.449 . S
C402 C401 1.258 . S
C402 C403 1.477 . S
C402 H422 0.931 . S
C403 C399 1.460 . S
C403 C402 1.477 . S
C403 H423 0.930 . S
C404 N400 1.362 . S
C404 C401 1.431 . S
C404 C414 1.476 . S
H405 C399 0.929 . S
C406 O397 1.250 . S
C406 O398 1.258 . S
O407 Mn392 2.162 . S
O407 C395 1.281 . S
O408 Mn392 2.297 . S
O408 C395 1.236 . S
N409 Mn393 2.282 . S
N409 C410 1.328 . S
N409 C414 1.318 . S
C410 N409 1.328 . S
C410 C411 1.457 . S
C410 H415 0.929 . S
C411 C410 1.457 . S
C411 C412 1.291 . S
C411 H424 0.931 . S
C412 C411 1.291 . S
C412 C413 1.373 . S
C412 H425 0.929 . S
C413 C412 1.373 . S
C413 C414 1.396 . S
C413 C420 1.403 . S
C414 C404 1.476 . S
C414 N409 1.318 . S
C414 C413 1.396 . S
H415 C410 0.929 . S
O416 Mn392 2.385 . S
O416 C394 1.234 . S
O417 Mn392 2.209 . S
O417 Mn393 2.215 . S
O417 C394 1.283 . S
O418 Mn392 2.094 . S
O418 C396 1.240 . S
O419 Mn393 2.117 . S
O419 C396 1.264 . S
C420 C413 1.403 . S
C420 C421 1.399 . S
C420 H426 0.929 . S
C421 C401 1.449 . S
C421 C420 1.399 . S
C421 H427 0.930 . S
H422 C402 0.931 . S
H423 C403 0.930 . S
H424 C411 0.931 . S
H425 C412 0.929 . S
H426 C420 0.929 . S
H427 C421 0.930 . S
Mn428 O433 2.095 . S
Mn428 O443 2.162 . S
Mn428 O444 2.297 . S
Mn428 O452 2.385 1_565 S
Mn428 O453 2.209 1_565 S
Mn428 O454 2.094 . S
Mn429 O434 2.121 . S
Mn429 N436 2.257 . S
Mn429 N445 2.282 . S
Mn429 O453 2.215 . S
Mn429 O455 2.117 . S
C430 O452 1.234 . S
C430 O453 1.283 . S
C431 O443 1.281 . S
C431 O444 1.236 . S
C432 O454 1.214 1_545 S
C432 O455 1.296 . S
O433 Mn428 2.095 . S
O433 C442 1.250 1_565 S
O434 Mn429 2.121 . S
O434 C442 1.258 . S
C435 N436 1.326 . S
C435 C439 1.460 . S
C435 H441 0.929 . S
N436 Mn429 2.257 . S
N436 C435 1.326 . S
N436 C440 1.362 . S
C437 C438 1.258 . S
C437 C440 1.431 . S
C437 C457 1.449 . S
C438 C437 1.258 . S
C438 C439 1.477 . S
C438 H458 0.931 . S
C439 C435 1.460 . S
C439 C438 1.477 . S
C439 H459 0.930 . S
C440 N436 1.362 . S
C440 C437 1.431 . S
C440 C450 1.476 . S
H441 C435 0.929 . S
C442 O433 1.250 1_545 S
C442 O434 1.258 . S
O443 Mn428 2.162 . S
O443 C431 1.281 . S
O444 Mn428 2.297 . S
O444 C431 1.236 . S
N445 Mn429 2.282 . S
N445 C446 1.328 . S
N445 C450 1.318 . S
C446 N445 1.328 . S
C446 C447 1.457 . S
C446 H451 0.929 . S
C447 C446 1.457 . S
C447 C448 1.291 . S
C447 H460 0.931 . S
C448 C447 1.291 . S
C448 C449 1.373 . S
C448 H461 0.929 . S
C449 C448 1.373 . S
C449 C450 1.396 . S
C449 C456 1.403 . S
C450 C440 1.476 . S
C450 N445 1.318 . S
C450 C449 1.396 . S
H451 C446 0.929 . S
O452 Mn428 2.385 1_545 S
O452 C430 1.234 . S
O453 Mn428 2.209 1_545 S
O453 Mn429 2.215 . S
O453 C430 1.283 . S
O454 Mn428 2.094 . S
O454 C432 1.214 1_565 S
O455 Mn429 2.117 . S
O455 C432 1.296 . S
C456 C449 1.403 . S
C456 C457 1.399 . S
C456 H462 0.929 . S
C457 C437 1.449 . S
C457 C456 1.399 . S
C457 H463 0.930 . S
H458 C438 0.931 . S
H459 C439 0.930 . S
H460 C447 0.931 . S
H461 C448 0.929 . S
H462 C456 0.929 . S
H463 C457 0.930 . S
Mn464 O469 2.095 . S
Mn464 O479 2.162 . S
Mn464 O480 2.297 . S
Mn464 O488 2.385 1_455 S
Mn464 O489 2.209 1_455 S
Mn464 O490 2.094 . S
Mn465 O470 2.121 . S
Mn465 N472 2.257 . S
Mn465 N481 2.282 . S
Mn465 O489 2.215 . S
Mn465 O491 2.117 . S
C466 O488 1.234 . S
C466 O489 1.283 . S
C467 O479 1.281 . S
C467 O480 1.236 . S
C468 O490 1.240 . S
C468 O491 1.264 1_455 S
O469 Mn464 2.095 . S
O469 C478 1.250 . S
O470 Mn465 2.121 . S
O470 C478 1.258 1_655 S
C471 N472 1.326 . S
C471 C475 1.460 . S
C471 H477 0.929 . S
N472 Mn465 2.257 . S
N472 C471 1.326 . S
N472 C476 1.362 . S
C473 C474 1.258 . S
C473 C476 1.431 . S
C473 C493 1.449 . S
C474 C473 1.258 . S
C474 C475 1.477 . S
C474 H494 0.931 . S
C475 C471 1.460 . S
C475 C474 1.477 . S
C475 H495 0.930 . S
C476 N472 1.362 . S
C476 C473 1.431 . S
C476 C486 1.476 . S
H477 C471 0.929 . S
C478 O469 1.250 . S
C478 O470 1.258 1_455 S
O479 Mn464 2.162 . S
O479 C467 1.281 . S
O480 Mn464 2.297 . S
O480 C467 1.236 . S
N481 Mn465 2.282 . S
N481 C482 1.328 . S
N481 C486 1.318 . S
C482 N481 1.328 . S
C482 C483 1.457 . S
C482 H487 0.929 . S
C483 C482 1.457 . S
C483 C484 1.291 . S
C483 H496 0.931 . S
C484 C483 1.291 . S
C484 C485 1.373 . S
C484 H497 0.929 . S
C485 C484 1.373 . S
C485 C486 1.396 . S
C485 C492 1.403 . S
C486 C476 1.476 . S
C486 N481 1.318 . S
C486 C485 1.396 . S
H487 C482 0.929 . S
O488 Mn464 2.385 1_655 S
O488 C466 1.234 . S
O489 Mn464 2.209 1_655 S
O489 Mn465 2.215 . S
O489 C466 1.283 . S
O490 Mn464 2.094 . S
O490 C468 1.240 . S
O491 Mn465 2.117 . S
O491 C468 1.264 1_655 S
C492 C485 1.403 . S
C492 C493 1.399 . S
C492 H498 0.929 . S
C493 C473 1.449 . S
C493 C492 1.399 . S
C493 H499 0.930 . S
H494 C474 0.931 . S
H495 C475 0.930 . S
H496 C483 0.931 . S
H497 C484 0.929 . S
H498 C492 0.929 . S
H499 C493 0.930 . S
Mn500 O505 2.095 . S
Mn500 O515 2.162 . S
Mn500 O516 2.297 . S
Mn500 O524 2.385 . S
Mn500 O525 2.209 . S
Mn500 O526 2.094 . S
Mn501 O506 2.121 . S
Mn501 N508 2.257 . S
Mn501 N517 2.282 . S
Mn501 O525 2.215 . S
Mn501 O527 2.117 . S
C502 O524 1.234 . S
C502 O525 1.283 . S
C503 O515 1.281 . S
C503 O516 1.236 . S
C504 O526 1.240 . S
C504 O527 1.264 . S
O505 Mn500 2.095 . S
O505 C514 1.250 . S
O506 Mn501 2.121 . S
O506 C514 1.258 . S
C507 N508 1.326 . S
C507 C511 1.460 . S
C507 H513 0.929 . S
N508 Mn501 2.257 . S
N508 C507 1.326 . S
N508 C512 1.362 . S
C509 C510 1.258 . S
C509 C512 1.431 . S
C509 C529 1.449 . S
C510 C509 1.258 . S
C510 C511 1.477 . S
C510 H530 0.931 . S
C511 C507 1.460 . S
C511 C510 1.477 . S
C511 H531 0.930 . S
C512 N508 1.362 . S
C512 C509 1.431 . S
C512 C522 1.476 . S
H513 C507 0.929 . S
C514 O505 1.250 . S
C514 O506 1.258 . S
O515 Mn500 2.162 . S
O515 C503 1.281 . S
O516 Mn500 2.297 . S
O516 C503 1.236 . S
N517 Mn501 2.282 . S
N517 C518 1.328 . S
N517 C522 1.318 . S
C518 N517 1.328 . S
C518 C519 1.457 . S
C518 H523 0.929 . S
C519 C518 1.457 . S
C519 C520 1.291 . S
C519 H532 0.931 . S
C520 C519 1.291 . S
C520 C521 1.373 . S
C520 H533 0.929 . S
C521 C520 1.373 . S
C521 C522 1.396 . S
C521 C528 1.403 . S
C522 C512 1.476 . S
C522 N517 1.318 . S
C522 C521 1.396 . S
H523 C518 0.929 . S
O524 Mn500 2.385 . S
O524 C502 1.234 . S
O525 Mn500 2.209 . S
O525 Mn501 2.215 . S
O525 C502 1.283 . S
O526 Mn500 2.094 . S
O526 C504 1.240 . S
O527 Mn501 2.117 . S
O527 C504 1.264 . S
C528 C521 1.403 . S
C528 C529 1.399 . S
C528 H534 0.929 . S
C529 C509 1.449 . S
C529 C528 1.399 . S
C529 H535 0.930 . S
H530 C510 0.931 . S
H531 C511 0.930 . S
H532 C519 0.931 . S
H533 C520 0.929 . S
H534 C528 0.929 . S
H535 C529 0.930 . S
Mn536 O541 2.095 . S
Mn536 O551 2.162 . S
Mn536 O552 2.297 . S
Mn536 O560 2.385 . S
Mn536 O561 2.209 . S
Mn536 O562 2.094 . S
Mn537 O542 2.121 1_455 S
Mn537 N544 2.257 1_455 S
Mn537 N553 2.282 . S
Mn537 O561 2.215 . S
Mn537 O563 2.117 . S
C538 O560 1.234 . S
C538 O561 1.283 . S
C539 O551 1.281 . S
C539 O552 1.236 . S
C540 O562 1.240 . S
C540 O563 1.264 . S
O541 Mn536 2.095 . S
O541 C550 1.250 1_455 S
O542 Mn537 2.121 1_655 S
O542 C550 1.258 . S
C543 N544 1.326 . S
C543 C547 1.460 . S
C543 H549 0.929 . S
N544 Mn537 2.257 1_655 S
N544 C543 1.326 . S
N544 C548 1.362 . S
C545 C546 1.258 . S
C545 C548 1.431 . S
C545 C565 1.449 . S
C546 C545 1.258 . S
C546 C547 1.477 . S
C546 H566 0.931 . S
C547 C543 1.460 . S
C547 C546 1.477 . S
C547 H567 0.930 . S
C548 N544 1.362 . S
C548 C545 1.431 . S
C548 C558 1.476 1_655 S
H549 C543 0.929 . S
C550 O541 1.250 1_655 S
C550 O542 1.258 . S
O551 Mn536 2.162 . S
O551 C539 1.281 . S
O552 Mn536 2.297 . S
O552 C539 1.236 . S
N553 Mn537 2.282 . S
N553 C554 1.328 . S
N553 C558 1.318 . S
C554 N553 1.328 . S
C554 C555 1.457 . S
C554 H559 0.929 . S
C555 C554 1.457 . S
C555 C556 1.291 . S
C555 H568 0.931 . S
C556 C555 1.291 . S
C556 C557 1.373 . S
C556 H569 0.929 . S
C557 C556 1.373 . S
C557 C558 1.396 . S
C557 C564 1.403 1_455 S
C558 C548 1.476 1_455 S
C558 N553 1.318 . S
C558 C557 1.396 . S
H559 C554 0.929 . S
O560 Mn536 2.385 . S
O560 C538 1.234 . S
O561 Mn536 2.209 . S
O561 Mn537 2.215 . S
O561 C538 1.283 . S
O562 Mn536 2.094 . S
O562 C540 1.240 . S
O563 Mn537 2.117 . S
O563 C540 1.264 . S
C564 C557 1.403 1_655 S
C564 C565 1.399 . S
C564 H570 0.929 . S
C565 C545 1.449 . S
C565 C564 1.399 . S
C565 H571 0.930 . S
H566 C546 0.931 . S
H567 C547 0.930 . S
H568 C555 0.931 . S
H569 C556 0.929 . S
H570 C564 0.929 . S
H571 C565 0.930 . S
Mn572 O577 2.095 . S
Mn572 O587 2.162 . S
Mn572 O588 2.297 . S
Mn572 O596 2.385 . S
Mn572 O597 2.209 . S
Mn572 O598 2.094 . S
Mn573 O578 2.121 . S
Mn573 N580 2.257 . S
Mn573 N589 2.282 . S
Mn573 O597 2.215 . S
Mn573 O599 2.117 . S
C574 O596 1.234 . S
C574 O597 1.283 . S
C575 O587 1.281 . S
C575 O588 1.236 . S
C576 O598 1.240 . S
C576 O599 1.264 . S
O577 Mn572 2.095 . S
O577 C586 1.250 . S
O578 Mn573 2.121 . S
O578 C586 1.258 . S
C579 N580 1.326 . S
C579 C583 1.460 . S
C579 H585 0.929 . S
N580 Mn573 2.257 . S
N580 C579 1.326 . S
N580 C584 1.362 . S
C581 C582 1.258 . S
C581 C584 1.431 . S
C581 C601 1.449 . S
C582 C581 1.258 . S
C582 C583 1.477 . S
C582 H602 0.931 . S
C583 C579 1.460 . S
C583 C582 1.477 . S
C583 H603 0.930 . S
C584 N580 1.362 . S
C584 C581 1.431 . S
C584 C594 1.476 . S
H585 C579 0.929 . S
C586 O577 1.250 . S
C586 O578 1.258 . S
O587 Mn572 2.162 . S
O587 C575 1.281 . S
O588 Mn572 2.297 . S
O588 C575 1.236 . S
N589 Mn573 2.282 . S
N589 C590 1.328 . S
N589 C594 1.318 . S
C590 N589 1.328 . S
C590 C591 1.457 . S
C590 H595 0.929 . S
C591 C590 1.457 . S
C591 C592 1.291 . S
C591 H604 0.931 . S
C592 C591 1.291 . S
C592 C593 1.373 . S
C592 H605 0.929 . S
C593 C592 1.373 . S
C593 C594 1.396 . S
C593 C600 1.403 . S
C594 C584 1.476 . S
C594 N589 1.318 . S
C594 C593 1.396 . S
H595 C590 0.929 . S
O596 Mn572 2.385 . S
O596 C574 1.234 . S
O597 Mn572 2.209 . S
O597 Mn573 2.215 . S
O597 C574 1.283 . S
O598 Mn572 2.094 . S
O598 C576 1.240 . S
O599 Mn573 2.117 . S
O599 C576 1.264 . S
C600 C593 1.403 . S
C600 C601 1.399 . S
C600 H606 0.929 . S
C601 C581 1.449 . S
C601 C600 1.399 . S
C601 H607 0.930 . S
H602 C582 0.931 . S
H603 C583 0.930 . S
H604 C591 0.931 . S
H605 C592 0.929 . S
H606 C600 0.929 . S
H607 C601 0.930 . S
H608 C614 0.930 . S
H609 C618 0.930 . S
H610 C623 0.929 . S
H611 C621 0.929 . S
H612 C616 0.929 . S
H613 C622 0.929 . S
C614 H608 0.930 . S
C614 C615 1.367 . S
C614 C622 1.378 . S
C615 C614 1.367 . S
C615 C623 1.433 . S
C616 H612 0.929 . S
C616 C618 1.378 . S
C616 C620 1.350 . S
C617 C620 1.463 . S
C617 C622 1.350 . S
C617 N625 1.427 . S
C618 H609 0.930 . S
C618 C616 1.378 . S
C618 C619 1.367 . S
C619 C618 1.367 . S
C619 C621 1.433 . S
C620 C616 1.350 . S
C620 C617 1.463 . S
C620 N624 1.427 . S
C621 H611 0.929 . S
C621 C619 1.433 . S
C621 N624 1.384 . S
C622 H613 0.929 . S
C622 C614 1.378 . S
C622 C617 1.350 . S
C623 H610 0.929 . S
C623 C615 1.433 . S
C623 N625 1.384 . S
N624 C620 1.427 . S
N624 C621 1.384 . S
N625 C617 1.427 . S
N625 C623 1.384 . S
H626 C632 0.930 . S
H627 C636 0.930 . S
H628 C641 0.929 . S
H629 C639 0.929 . S
H630 C634 0.929 . S
H631 C640 0.929 . S
C632 H626 0.930 . S
C632 C633 1.367 . S
C632 C640 1.378 . S
C633 C632 1.367 . S
C633 C641 1.433 . S
C634 H630 0.929 . S
C634 C636 1.378 . S
C634 C638 1.350 . S
C635 C638 1.463 . S
C635 C640 1.350 . S
C635 N643 1.427 . S
C636 H627 0.930 . S
C636 C634 1.378 . S
C636 C637 1.367 . S
C637 C636 1.367 . S
C637 C639 1.433 . S
C638 C634 1.350 . S
C638 C635 1.463 . S
C638 N642 1.427 . S
C639 H629 0.929 . S
C639 C637 1.433 . S
C639 N642 1.384 . S
C640 H631 0.929 . S
C640 C632 1.378 . S
C640 C635 1.350 . S
C641 H628 0.929 . S
C641 C633 1.433 . S
C641 N643 1.384 . S
N642 C638 1.427 . S
N642 C639 1.384 . S
N643 C635 1.427 . S
N643 C641 1.384 . S
H644 C650 0.930 . S
H645 C654 0.930 . S
H646 C659 0.929 . S
H647 C657 0.929 . S
H648 C652 0.929 . S
H649 C658 0.929 . S
C650 H644 0.930 . S
C650 C651 1.367 . S
C650 C658 1.378 . S
C651 C650 1.367 . S
C651 C659 1.433 . S
C652 H648 0.929 . S
C652 C654 1.378 . S
C652 C656 1.350 . S
C653 C656 1.463 . S
C653 C658 1.350 . S
C653 N661 1.427 . S
C654 H645 0.930 . S
C654 C652 1.378 . S
C654 C655 1.367 . S
C655 C654 1.367 . S
C655 C657 1.433 . S
C656 C652 1.350 . S
C656 C653 1.463 . S
C656 N660 1.427 . S
C657 H647 0.929 . S
C657 C655 1.433 . S
C657 N660 1.384 . S
C658 H649 0.929 . S
C658 C650 1.378 . S
C658 C653 1.350 . S
C659 H646 0.929 . S
C659 C651 1.433 . S
C659 N661 1.384 . S
N660 C656 1.427 . S
N660 C657 1.384 . S
N661 C653 1.427 . S
N661 C659 1.384 . S
H662 C668 0.930 . S
H663 C672 0.930 . S
H664 C677 0.944 . S
H665 C675 0.929 . S
H666 C670 0.929 . S
H667 C676 0.929 . S
C668 H662 0.930 . S
C668 C669 1.351 1_565 S
C668 C676 1.378 . S
C669 C668 1.351 1_545 S
C669 C677 1.454 1_655 S
C670 H666 0.929 . S
C670 C672 1.378 . S
C670 C674 1.350 . S
C671 C674 1.463 . S
C671 C676 1.350 1_545 S
C671 N679 1.427 . S
C672 H663 0.930 . S
C672 C670 1.378 . S
C672 C673 1.367 . S
C673 C672 1.367 . S
C673 C675 1.433 1_545 S
C674 C670 1.350 . S
C674 C671 1.463 . S
C674 N678 1.427 1_545 S
C675 H665 0.929 . S
C675 C673 1.433 1_565 S
C675 N678 1.384 . S
C676 H667 0.929 . S
C676 C668 1.378 . S
C676 C671 1.350 1_565 S
C677 H664 0.944 . S
C677 C669 1.454 1_455 S
C677 N679 1.370 1_455 S
N678 C674 1.427 1_565 S
N678 C675 1.384 . S
N679 C671 1.427 . S
N679 C677 1.370 1_655 S
H680 C686 0.930 . S
H681 C690 0.930 . S
H682 C695 0.929 . S
H683 C693 0.929 . S
H684 C688 0.929 . S
H685 C694 0.929 . S
C686 H680 0.930 . S
C686 C687 1.367 . S
C686 C694 1.378 . S
C687 C686 1.367 . S
C687 C695 1.433 . S
C688 H684 0.929 . S
C688 C690 1.378 . S
C688 C692 1.350 . S
C689 C692 1.463 . S
C689 C694 1.350 . S
C689 N697 1.427 . S
C690 H681 0.930 . S
C690 C688 1.378 . S
C690 C691 1.367 . S
C691 C690 1.367 . S
C691 C693 1.433 . S
C692 C688 1.350 . S
C692 C689 1.463 . S
C692 N696 1.427 . S
C693 H683 0.929 . S
C693 C691 1.433 . S
C693 N696 1.384 . S
C694 H685 0.929 . S
C694 C686 1.378 . S
C694 C689 1.350 . S
C695 H682 0.929 . S
C695 C687 1.433 . S
C695 N697 1.384 . S
N696 C692 1.427 . S
N696 C693 1.384 . S
N697 C689 1.427 . S
N697 C695 1.384 . S
H698 C704 0.930 . S
H699 C708 0.930 . S
H700 C713 0.929 . S
H701 C711 0.929 . S
H702 C706 0.929 . S
H703 C712 0.929 . S
C704 H698 0.930 . S
C704 C705 1.367 . S
C704 C712 1.378 . S
C705 C704 1.367 . S
C705 C713 1.433 . S
C706 H702 0.929 . S
C706 C708 1.378 . S
C706 C710 1.350 . S
C707 C710 1.463 . S
C707 C712 1.350 . S
C707 N715 1.427 . S
C708 H699 0.930 . S
C708 C706 1.378 . S
C708 C709 1.367 . S
C709 C708 1.367 . S
C709 C711 1.433 . S
C710 C706 1.350 . S
C710 C707 1.463 . S
C710 N714 1.427 . S
C711 H701 0.929 . S
C711 C709 1.433 . S
C711 N714 1.384 . S
C712 H703 0.929 . S
C712 C704 1.378 . S
C712 C707 1.350 . S
C713 H700 0.929 . S
C713 C705 1.433 . S
C713 N715 1.384 . S
N714 C710 1.427 . S
N714 C711 1.384 . S
N715 C707 1.427 . S
N715 C713 1.384 . S
H716 C722 0.930 . S
H717 C726 0.930 . S
H718 C731 0.929 . S
H719 C729 0.929 . S
H720 C724 0.929 . S
H721 C730 0.929 . S
C722 H716 0.930 . S
C722 C723 1.367 . S
C722 C730 1.378 . S
C723 C722 1.367 . S
C723 C731 1.433 . S
C724 H720 0.929 . S
C724 C726 1.378 . S
C724 C728 1.350 . S
C725 C728 1.463 . S
C725 C730 1.350 . S
C725 N733 1.427 . S
C726 H717 0.930 . S
C726 C724 1.378 . S
C726 C727 1.367 . S
C727 C726 1.367 . S
C727 C729 1.433 . S
C728 C724 1.350 . S
C728 C725 1.463 . S
C728 N732 1.427 . S
C729 H719 0.929 . S
C729 C727 1.433 . S
C729 N732 1.384 . S
C730 H721 0.929 . S
C730 C722 1.378 . S
C730 C725 1.350 . S
C731 H718 0.929 . S
C731 C723 1.433 . S
C731 N733 1.384 . S
N732 C728 1.427 . S
N732 C729 1.384 . S
N733 C725 1.427 . S
N733 C731 1.384 . S
H734 C740 0.930 . S
H735 C744 0.930 . S
H736 C749 0.929 . S
H737 C747 0.929 . S
H738 C742 0.929 . S
H739 C748 0.929 . S
C740 H734 0.930 . S
C740 C741 1.367 1_545 S
C740 C748 1.378 . S
C741 C740 1.367 1_565 S
C741 C749 1.433 . S
C742 H738 0.929 . S
C742 C744 1.378 . S
C742 C746 1.350 . S
C743 C746 1.463 . S
C743 C748 1.350 1_565 S
C743 N751 1.427 . S
C744 H735 0.930 . S
C744 C742 1.378 . S
C744 C745 1.367 . S
C745 C744 1.367 . S
C745 C747 1.433 1_565 S
C746 C742 1.350 . S
C746 C743 1.463 . S
C746 N750 1.427 1_565 S
C747 H737 0.929 . S
C747 C745 1.433 1_545 S
C747 N750 1.384 . S
C748 H739 0.929 . S
C748 C740 1.378 . S
C748 C743 1.350 1_545 S
C749 H736 0.929 . S
C749 C741 1.433 . S
C749 N751 1.384 . S
N750 C746 1.427 1_545 S
N750 C747 1.384 . S
N751 C743 1.427 . S
N751 C749 1.384 . S
H752 C758 0.930 . S
H753 C762 0.930 . S
H754 C767 0.929 . S
H755 C765 0.929 . S
H756 C760 0.929 . S
H757 C766 0.929 . S
C758 H752 0.930 . S
C758 C759 1.367 . S
C758 C766 1.378 . S
C759 C758 1.367 . S
C759 C767 1.433 . S
C760 H756 0.929 . S
C760 C762 1.378 . S
C760 C764 1.350 . S
C761 C764 1.463 . S
C761 C766 1.350 . S
C761 N769 1.427 . S
C762 H753 0.930 . S
C762 C760 1.378 . S
C762 C763 1.367 . S
C763 C762 1.367 . S
C763 C765 1.433 . S
C764 C760 1.350 . S
C764 C761 1.463 . S
C764 N768 1.427 . S
C765 H755 0.929 . S
C765 C763 1.433 . S
C765 N768 1.384 . S
C766 H757 0.929 . S
C766 C758 1.378 . S
C766 C761 1.350 . S
C767 H754 0.929 . S
C767 C759 1.433 . S
C767 N769 1.384 . S
N768 C764 1.427 . S
N768 C765 1.384 . S
N769 C761 1.427 . S
N769 C767 1.384 . S
H770 C776 0.930 . S
H771 C780 0.930 . S
H772 C785 0.929 . S
H773 C783 0.929 . S
H774 C778 0.929 . S
H775 C784 0.929 . S
C776 H770 0.930 . S
C776 C777 1.367 . S
C776 C784 1.378 . S
C777 C776 1.367 . S
C777 C785 1.433 . S
C778 H774 0.929 . S
C778 C780 1.378 . S
C778 C782 1.350 . S
C779 C782 1.463 . S
C779 C784 1.350 . S
C779 N787 1.427 . S
C780 H771 0.930 . S
C780 C778 1.378 . S
C780 C781 1.367 . S
C781 C780 1.367 . S
C781 C783 1.433 . S
C782 C778 1.350 . S
C782 C779 1.463 . S
C782 N786 1.427 . S
C783 H773 0.929 . S
C783 C781 1.433 . S
C783 N786 1.384 . S
C784 H775 0.929 . S
C784 C776 1.378 . S
C784 C779 1.350 . S
C785 H772 0.929 . S
C785 C777 1.433 . S
C785 N787 1.384 . S
N786 C782 1.427 . S
N786 C783 1.384 . S
N787 C779 1.427 . S
N787 C785 1.384 . S
H788 C794 0.930 . S
H789 C798 0.930 . S
H790 C803 0.929 . S
H791 C801 0.929 . S
H792 C796 0.929 . S
H793 C802 0.929 . S
C794 H788 0.930 . S
C794 C795 1.367 . S
C794 C802 1.378 . S
C795 C794 1.367 . S
C795 C803 1.433 . S
C796 H792 0.929 . S
C796 C798 1.378 . S
C796 C800 1.350 . S
C797 C800 1.463 . S
C797 C802 1.350 . S
C797 N805 1.427 . S
C798 H789 0.930 . S
C798 C796 1.378 . S
C798 C799 1.367 . S
C799 C798 1.367 . S
C799 C801 1.433 . S
C800 C796 1.350 . S
C800 C797 1.463 . S
C800 N804 1.427 . S
C801 H791 0.929 . S
C801 C799 1.433 . S
C801 N804 1.384 . S
C802 H793 0.929 . S
C802 C794 1.378 . S
C802 C797 1.350 . S
C803 H790 0.929 . S
C803 C795 1.433 . S
C803 N805 1.384 . S
N804 C800 1.427 . S
N804 C801 1.384 . S
N805 C797 1.427 . S
N805 C803 1.384 . S
H806 C812 0.930 . S
H807 C816 0.930 . S
H808 C821 0.929 . S
H809 C819 0.929 . S
H810 C814 0.929 . S
H811 C820 0.929 . S
C812 H806 0.930 . S
C812 C813 1.367 . S
C812 C820 1.378 . S
C813 C812 1.367 . S
C813 C821 1.433 . S
C814 H810 0.929 . S
C814 C816 1.378 . S
C814 C818 1.350 . S
C815 C818 1.463 . S
C815 C820 1.350 . S
C815 N823 1.427 . S
C816 H807 0.930 . S
C816 C814 1.378 . S
C816 C817 1.367 . S
C817 C816 1.367 . S
C817 C819 1.433 . S
C818 C814 1.350 . S
C818 C815 1.463 . S
C818 N822 1.427 . S
C819 H809 0.929 . S
C819 C817 1.433 . S
C819 N822 1.384 . S
C820 H811 0.929 . S
C820 C812 1.378 . S
C820 C815 1.350 . S
C821 H808 0.929 . S
C821 C813 1.433 . S
C821 N823 1.384 . S
N822 C818 1.427 . S
N822 C819 1.384 . S
N823 C815 1.427 . S
N823 C821 1.384 . S
H824 C830 0.930 . S
H825 C834 0.930 . S
H826 C839 0.929 . S
H827 C837 0.929 . S
H828 C832 0.929 . S
H829 C838 0.929 . S
C830 H824 0.930 . S
C830 C831 1.367 . S
C830 C838 1.378 . S
C831 C830 1.367 . S
C831 C839 1.433 . S
C832 H828 0.929 . S
C832 C834 1.378 . S
C832 C836 1.350 . S
C833 C836 1.463 . S
C833 C838 1.350 . S
C833 N841 1.427 . S
C834 H825 0.930 . S
C834 C832 1.378 . S
C834 C835 1.367 . S
C835 C834 1.367 . S
C835 C837 1.433 . S
C836 C832 1.350 . S
C836 C833 1.463 . S
C836 N840 1.427 . S
C837 H827 0.929 . S
C837 C835 1.433 . S
C837 N840 1.384 . S
C838 H829 0.929 . S
C838 C830 1.378 . S
C838 C833 1.350 . S
C839 H826 0.929 . S
C839 C831 1.433 . S
C839 N841 1.384 . S
N840 C836 1.427 . S
N840 C837 1.384 . S
N841 C833 1.427 . S
N841 C839 1.384 . S
H842 C848 0.930 . S
H843 C852 0.930 . S
H844 C857 0.929 . S
H845 C855 0.929 . S
H846 C850 0.929 . S
H847 C856 0.929 . S
C848 H842 0.930 . S
C848 C849 1.367 . S
C848 C856 1.378 . S
C849 C848 1.367 . S
C849 C857 1.433 . S
C850 H846 0.929 . S
C850 C852 1.378 . S
C850 C854 1.350 . S
C851 C854 1.463 . S
C851 C856 1.350 . S
C851 N859 1.427 . S
C852 H843 0.930 . S
C852 C850 1.378 . S
C852 C853 1.367 . S
C853 C852 1.367 . S
C853 C855 1.433 . S
C854 C850 1.350 . S
C854 C851 1.463 . S
C854 N858 1.427 . S
C855 H845 0.929 . S
C855 C853 1.433 . S
C855 N858 1.384 . S
C856 H847 0.929 . S
C856 C848 1.378 . S
C856 C851 1.350 . S
C857 H844 0.929 . S
C857 C849 1.433 . S
C857 N859 1.384 . S
N858 C854 1.427 . S
N858 C855 1.384 . S
N859 C851 1.427 . S
N859 C857 1.384 . S
H860 C866 0.930 . S
H861 C870 0.930 . S
H862 C875 0.929 . S
H863 C873 0.929 . S
H864 C868 0.929 . S
H865 C874 0.929 . S
C866 H860 0.930 . S
C866 C867 1.367 . S
C866 C874 1.378 . S
C867 C866 1.367 . S
C867 C875 1.433 . S
C868 H864 0.929 . S
C868 C870 1.378 . S
C868 C872 1.350 . S
C869 C872 1.463 . S
C869 C874 1.350 . S
C869 N877 1.427 . S
C870 H861 0.930 . S
C870 C868 1.378 . S
C870 C871 1.367 . S
C871 C870 1.367 . S
C871 C873 1.433 . S
C872 C868 1.350 . S
C872 C869 1.463 . S
C872 N876 1.427 . S
C873 H863 0.929 . S
C873 C871 1.433 . S
C873 N876 1.384 . S
C874 H865 0.929 . S
C874 C866 1.378 . S
C874 C869 1.350 . S
C875 H862 0.929 . S
C875 C867 1.433 . S
C875 N877 1.384 . S
N876 C872 1.427 . S
N876 C873 1.384 . S
N877 C869 1.427 . S
N877 C875 1.384 . S
H878 C884 0.930 . S
H879 C888 0.930 . S
H880 C893 0.929 . S
H881 C891 0.929 1_655 S
H882 C886 0.929 . S
H883 C892 0.929 . S
C884 H878 0.930 . S
C884 C885 1.367 1_655 S
C884 C892 1.378 . S
C885 C884 1.367 1_455 S
C885 C893 1.433 . S
C886 H882 0.929 . S
C886 C888 1.378 . S
C886 C890 1.350 . S
C887 C890 1.463 . S
C887 C892 1.350 1_455 S
C887 N895 1.427 . S
C888 H879 0.930 . S
C888 C886 1.378 . S
C888 C889 1.367 . S
C889 C888 1.367 . S
C889 C891 1.433 . S
C890 C886 1.350 . S
C890 C887 1.463 . S
C890 N894 1.427 . S
C891 H881 0.929 1_455 S
C891 C889 1.433 . S
C891 N894 1.384 . S
C892 H883 0.929 . S
C892 C884 1.378 . S
C892 C887 1.350 1_655 S
C893 H880 0.929 . S
C893 C885 1.433 . S
C893 N895 1.384 . S
N894 C890 1.427 . S
N894 C891 1.384 . S
N895 C887 1.427 . S
N895 C893 1.384 . S
H896 C902 0.930 . S
H897 C906 0.930 . S
H898 C911 0.929 . S
H899 C909 0.929 . S
H900 C904 0.929 . S
H901 C910 0.929 . S
C902 H896 0.930 . S
C902 C903 1.367 . S
C902 C910 1.378 . S
C903 C902 1.367 . S
C903 C911 1.433 . S
C904 H900 0.929 . S
C904 C906 1.378 . S
C904 C908 1.350 . S
C905 C908 1.463 . S
C905 C910 1.350 . S
C905 N913 1.427 . S
C906 H897 0.930 . S
C906 C904 1.378 . S
C906 C907 1.367 . S
C907 C906 1.367 . S
C907 C909 1.433 . S
C908 C904 1.350 . S
C908 C905 1.463 . S
C908 N912 1.427 . S
C909 H899 0.929 . S
C909 C907 1.433 . S
C909 N912 1.384 . S
C910 H901 0.929 . S
C910 C902 1.378 . S
C910 C905 1.350 . S
C911 H898 0.929 . S
C911 C903 1.433 . S
C911 N913 1.384 . S
N912 C908 1.427 . S
N912 C909 1.384 . S
N913 C905 1.427 . S
N913 C911 1.384 . S
H914 C920 0.930 . S
H915 C924 0.930 . S
H916 C929 0.929 . S
H917 C927 0.929 . S
H918 C922 0.929 . S
H919 C928 0.929 . S
C920 H914 0.930 . S
C920 C921 1.367 . S
C920 C928 1.378 . S
C921 C920 1.367 . S
C921 C929 1.433 . S
C922 H918 0.929 . S
C922 C924 1.378 . S
C922 C926 1.350 . S
C923 C926 1.463 . S
C923 C928 1.350 . S
C923 N931 1.427 . S
C924 H915 0.930 . S
C924 C922 1.378 . S
C924 C925 1.367 . S
C925 C924 1.367 . S
C925 C927 1.433 . S
C926 C922 1.350 . S
C926 C923 1.463 . S
C926 N930 1.427 . S
C927 H917 0.929 . S
C927 C925 1.433 . S
C927 N930 1.384 . S
C928 H919 0.929 . S
C928 C920 1.378 . S
C928 C923 1.350 . S
C929 H916 0.929 . S
C929 C921 1.433 . S
C929 N931 1.384 . S
N930 C926 1.427 . S
N930 C927 1.384 . S
N931 C923 1.427 . S
N931 C929 1.384 . S
H932 C938 0.930 1_545 S
H933 C942 0.930 . S
H934 C947 0.929 . S
H935 C945 0.929 . S
H936 C940 0.929 . S
H937 C946 0.929 . S
C938 H932 0.930 1_565 S
C938 C939 1.395 . S
C938 C946 1.378 . S
C939 C938 1.395 . S
C939 C947 1.413 1_554 S
C940 H936 0.929 . S
C940 C942 1.378 . S
C940 C944 1.350 1_556 S
C941 C944 1.463 . S
C941 C946 1.350 . S
C941 N949 1.427 1_554 S
C942 H933 0.930 . S
C942 C940 1.378 . S
C942 C943 1.367 1_556 S
C943 C942 1.367 1_554 S
C943 C945 1.433 . S
C944 C940 1.350 1_554 S
C944 C941 1.463 . S
C944 N948 1.427 . S
C945 H935 0.929 . S
C945 C943 1.433 . S
C945 N948 1.384 . S
C946 H937 0.929 . S
C946 C938 1.378 . S
C946 C941 1.350 . S
C947 H934 0.929 . S
C947 C939 1.413 1_556 S
C947 N949 1.384 . S
N948 C944 1.427 . S
N948 C945 1.384 . S
N949 C941 1.427 1_556 S
N949 C947 1.384 . S
H950 C956 0.930 . S
H951 C960 0.930 . S
H952 C965 0.929 . S
H953 C963 0.929 . S
H954 C958 0.929 . S
H955 C964 0.929 . S
C956 H950 0.930 . S
C956 C957 1.367 . S
C956 C964 1.378 . S
C957 C956 1.367 . S
C957 C965 1.433 . S
C958 H954 0.929 . S
C958 C960 1.378 . S
C958 C962 1.350 . S
C959 C962 1.463 . S
C959 C964 1.350 . S
C959 N967 1.427 . S
C960 H951 0.930 . S
C960 C958 1.378 . S
C960 C961 1.367 . S
C961 C960 1.367 . S
C961 C963 1.433 . S
C962 C958 1.350 . S
C962 C959 1.463 . S
C962 N966 1.427 . S
C963 H953 0.929 . S
C963 C961 1.433 . S
C963 N966 1.384 . S
C964 H955 0.929 . S
C964 C956 1.378 . S
C964 C959 1.350 . S
C965 H952 0.929 . S
C965 C957 1.433 . S
C965 N967 1.384 . S
N966 C962 1.427 . S
N966 C963 1.384 . S
N967 C959 1.427 . S
N967 C965 1.384 . S
H968 C974 0.930 . S
H969 C978 0.930 . S
H970 C983 0.929 . S
H971 C981 0.929 . S
H972 C976 0.929 . S
H973 C982 0.929 . S
C974 H968 0.930 . S
C974 C975 1.367 . S
C974 C982 1.378 . S
C975 C974 1.367 . S
C975 C983 1.433 . S
C976 H972 0.929 . S
C976 C978 1.378 . S
C976 C980 1.350 . S
C977 C980 1.463 . S
C977 C982 1.350 . S
C977 N985 1.427 . S
C978 H969 0.930 . S
C978 C976 1.378 . S
C978 C979 1.367 . S
C979 C978 1.367 . S
C979 C981 1.433 . S
C980 C976 1.350 . S
C980 C977 1.463 . S
C980 N984 1.427 . S
C981 H971 0.929 . S
C981 C979 1.433 . S
C981 N984 1.384 . S
C982 H973 0.929 . S
C982 C974 1.378 . S
C982 C977 1.350 . S
C983 H970 0.929 . S
C983 C975 1.433 . S
C983 N985 1.384 . S
N984 C980 1.427 . S
N984 C981 1.384 . S
N985 C977 1.427 . S
N985 C983 1.384 . S
H986 C992 0.930 . S
H987 C996 0.930 . S
H988 C1001 0.929 . S
H989 C999 0.929 . S
H990 C994 0.929 . S
H991 C1000 0.929 . S
C992 H986 0.930 . S
C992 C993 1.367 . S
C992 C1000 1.378 . S
C993 C992 1.367 . S
C993 C1001 1.433 . S
C994 H990 0.929 . S
C994 C996 1.378 . S
C994 C998 1.350 . S
C995 C998 1.463 . S
C995 C1000 1.350 . S
C995 N1003 1.427 . S
C996 H987 0.930 . S
C996 C994 1.378 . S
C996 C997 1.367 . S
C997 C996 1.367 . S
C997 C999 1.433 . S
C998 C994 1.350 . S
C998 C995 1.463 . S
C998 N1002 1.427 . S
C999 H989 0.929 . S
C999 C997 1.433 . S
C999 N1002 1.384 . S
C1000 H991 0.929 . S
C1000 C992 1.378 . S
C1000 C995 1.350 . S
C1001 H988 0.929 . S
C1001 C993 1.433 . S
C1001 N1003 1.384 . S
N1002 C998 1.427 . S
N1002 C999 1.384 . S
N1003 C995 1.427 . S
N1003 C1001 1.384 . S
H1004 C1010 0.930 . S
H1005 C1014 0.930 . S
H1006 C1019 0.929 . S
H1007 C1017 0.929 . S
H1008 C1012 0.929 . S
H1009 C1018 0.929 . S
C1010 H1004 0.930 . S
C1010 C1011 1.367 . S
C1010 C1018 1.378 . S
C1011 C1010 1.367 . S
C1011 C1019 1.433 . S
C1012 H1008 0.929 . S
C1012 C1014 1.378 . S
C1012 C1016 1.350 . S
C1013 C1016 1.463 . S
C1013 C1018 1.350 . S
C1013 N1021 1.427 . S
C1014 H1005 0.930 . S
C1014 C1012 1.378 . S
C1014 C1015 1.367 . S
C1015 C1014 1.367 . S
C1015 C1017 1.433 . S
C1016 C1012 1.350 . S
C1016 C1013 1.463 . S
C1016 N1020 1.427 . S
C1017 H1007 0.929 . S
C1017 C1015 1.433 . S
C1017 N1020 1.384 . S
C1018 H1009 0.929 . S
C1018 C1010 1.378 . S
C1018 C1013 1.350 . S
C1019 H1006 0.929 . S
C1019 C1011 1.433 . S
C1019 N1021 1.384 . S
N1020 C1016 1.427 . S
N1020 C1017 1.384 . S
N1021 C1013 1.427 . S
N1021 C1019 1.384 . S
H1022 C1028 0.930 . S
H1023 C1032 0.930 . S
H1024 C1037 0.929 . S
H1025 C1035 0.929 . S
H1026 C1030 0.929 . S
H1027 C1036 0.929 . S
C1028 H1022 0.930 . S
C1028 C1029 1.367 . S
C1028 C1036 1.378 . S
C1029 C1028 1.367 . S
C1029 C1037 1.433 . S
C1030 H1026 0.929 . S
C1030 C1032 1.378 . S
C1030 C1034 1.350 . S
C1031 C1034 1.463 . S
C1031 C1036 1.350 . S
C1031 N1039 1.427 . S
C1032 H1023 0.930 . S
C1032 C1030 1.378 . S
C1032 C1033 1.367 . S
C1033 C1032 1.367 . S
C1033 C1035 1.433 . S
C1034 C1030 1.350 . S
C1034 C1031 1.463 . S
C1034 N1038 1.427 . S
C1035 H1025 0.929 . S
C1035 C1033 1.433 . S
C1035 N1038 1.384 . S
C1036 H1027 0.929 . S
C1036 C1028 1.378 . S
C1036 C1031 1.350 . S
C1037 H1024 0.929 . S
C1037 C1029 1.433 . S
C1037 N1039 1.384 . S
N1038 C1034 1.427 . S
N1038 C1035 1.384 . S
N1039 C1031 1.427 . S
N1039 C1037 1.384 . S
H1040 C1046 0.930 . S
H1041 C1050 0.930 . S
H1042 C1055 0.929 . S
H1043 C1053 0.929 . S
H1044 C1048 0.929 . S
H1045 C1054 0.929 . S
C1046 H1040 0.930 . S
C1046 C1047 1.367 . S
C1046 C1054 1.378 . S
C1047 C1046 1.367 . S
C1047 C1055 1.433 . S
C1048 H1044 0.929 . S
C1048 C1050 1.378 . S
C1048 C1052 1.350 . S
C1049 C1052 1.463 . S
C1049 C1054 1.350 . S
C1049 N1057 1.427 . S
C1050 H1041 0.930 . S
C1050 C1048 1.378 . S
C1050 C1051 1.367 . S
C1051 C1050 1.367 . S
C1051 C1053 1.433 . S
C1052 C1048 1.350 . S
C1052 C1049 1.463 . S
C1052 N1056 1.427 . S
C1053 H1043 0.929 . S
C1053 C1051 1.433 . S
C1053 N1056 1.384 . S
C1054 H1045 0.929 . S
C1054 C1046 1.378 . S
C1054 C1049 1.350 . S
C1055 H1042 0.929 . S
C1055 C1047 1.433 . S
C1055 N1057 1.384 . S
N1056 C1052 1.427 . S
N1056 C1053 1.384 . S
N1057 C1049 1.427 . S
N1057 C1055 1.384 . S
H1058 C1064 0.930 . S
H1059 C1068 0.930 . S
H1060 C1073 0.929 . S
H1061 C1071 0.929 . S
H1062 C1066 0.929 . S
H1063 C1072 0.929 . S
C1064 H1058 0.930 . S
C1064 C1065 1.367 . S
C1064 C1072 1.378 . S
C1065 C1064 1.367 . S
C1065 C1073 1.433 . S
C1066 H1062 0.929 . S
C1066 C1068 1.378 . S
C1066 C1070 1.350 1_565 S
C1067 C1070 1.463 . S
C1067 C1072 1.350 . S
C1067 N1075 1.427 . S
C1068 H1059 0.930 . S
C1068 C1066 1.378 . S
C1068 C1069 1.367 1_565 S
C1069 C1068 1.367 1_545 S
C1069 C1071 1.433 . S
C1070 C1066 1.350 1_545 S
C1070 C1067 1.463 . S
C1070 N1074 1.427 . S
C1071 H1061 0.929 . S
C1071 C1069 1.433 . S
C1071 N1074 1.384 . S
C1072 H1063 0.929 . S
C1072 C1064 1.378 . S
C1072 C1067 1.350 . S
C1073 H1060 0.929 . S
C1073 C1065 1.433 . S
C1073 N1075 1.384 . S
N1074 C1070 1.427 . S
N1074 C1071 1.384 . S
N1075 C1067 1.427 . S
N1075 C1073 1.384 . S
H1076 C1082 0.930 . S
H1077 C1086 0.930 . S
H1078 C1091 0.929 . S
H1079 C1089 0.929 . S
H1080 C1084 0.929 . S
H1081 C1090 0.929 . S
C1082 H1076 0.930 . S
C1082 C1083 1.367 . S
C1082 C1090 1.378 . S
C1083 C1082 1.367 . S
C1083 C1091 1.433 . S
C1084 H1080 0.929 . S
C1084 C1086 1.378 . S
C1084 C1088 1.350 . S
C1085 C1088 1.463 . S
C1085 C1090 1.350 . S
C1085 N1093 1.427 . S
C1086 H1077 0.930 . S
C1086 C1084 1.378 . S
C1086 C1087 1.367 . S
C1087 C1086 1.367 . S
C1087 C1089 1.433 . S
C1088 C1084 1.350 . S
C1088 C1085 1.463 . S
C1088 N1092 1.427 . S
C1089 H1079 0.929 . S
C1089 C1087 1.433 . S
C1089 N1092 1.384 . S
C1090 H1081 0.929 . S
C1090 C1082 1.378 . S
C1090 C1085 1.350 . S
C1091 H1078 0.929 . S
C1091 C1083 1.433 . S
C1091 N1093 1.384 . S
N1092 C1088 1.427 . S
N1092 C1089 1.384 . S
N1093 C1085 1.427 . S
N1093 C1091 1.384 . S
H1094 C1100 0.930 . S
H1095 C1104 0.930 . S
H1096 C1109 0.929 . S
H1097 C1107 0.929 . S
H1098 C1102 0.929 . S
H1099 C1108 0.929 . S
C1100 H1094 0.930 . S
C1100 C1101 1.367 . S
C1100 C1108 1.378 . S
C1101 C1100 1.367 . S
C1101 C1109 1.433 . S
C1102 H1098 0.929 . S
C1102 C1104 1.378 . S
C1102 C1106 1.350 . S
C1103 C1106 1.463 . S
C1103 C1108 1.350 . S
C1103 N1111 1.427 . S
C1104 H1095 0.930 . S
C1104 C1102 1.378 . S
C1104 C1105 1.367 . S
C1105 C1104 1.367 . S
C1105 C1107 1.433 . S
C1106 C1102 1.350 . S
C1106 C1103 1.463 . S
C1106 N1110 1.427 . S
C1107 H1097 0.929 . S
C1107 C1105 1.433 . S
C1107 N1110 1.384 . S
C1108 H1099 0.929 . S
C1108 C1100 1.378 . S
C1108 C1103 1.350 . S
C1109 H1096 0.929 . S
C1109 C1101 1.433 . S
C1109 N1111 1.384 . S
N1110 C1106 1.427 . S
N1110 C1107 1.384 . S
N1111 C1103 1.427 . S
N1111 C1109 1.384 . S
H1112 C1118 0.930 . S
H1113 C1122 0.930 . S
H1114 C1127 0.929 . S
H1115 C1125 0.929 . S
H1116 C1120 0.929 . S
H1117 C1126 0.929 . S
C1118 H1112 0.930 . S
C1118 C1119 1.367 . S
C1118 C1126 1.378 . S
C1119 C1118 1.367 . S
C1119 C1127 1.433 . S
C1120 H1116 0.929 . S
C1120 C1122 1.378 . S
C1120 C1124 1.350 . S
C1121 C1124 1.463 . S
C1121 C1126 1.350 . S
C1121 N1129 1.427 . S
C1122 H1113 0.930 . S
C1122 C1120 1.378 . S
C1122 C1123 1.367 . S
C1123 C1122 1.367 . S
C1123 C1125 1.433 . S
C1124 C1120 1.350 . S
C1124 C1121 1.463 . S
C1124 N1128 1.427 . S
C1125 H1115 0.929 . S
C1125 C1123 1.433 . S
C1125 N1128 1.384 . S
C1126 H1117 0.929 . S
C1126 C1118 1.378 . S
C1126 C1121 1.350 . S
C1127 H1114 0.929 . S
C1127 C1119 1.433 . S
C1127 N1129 1.384 . S
N1128 C1124 1.427 . S
N1128 C1125 1.384 . S
N1129 C1121 1.427 . S
N1129 C1127 1.384 . S
H1130 C1136 0.930 . S
H1131 C1140 0.930 1_565 S
H1132 C1145 0.929 . S
H1133 C1143 0.929 . S
H1134 C1138 0.929 1_565 S
H1135 C1144 0.929 . S
C1136 H1130 0.930 . S
C1136 C1137 1.367 . S
C1136 C1144 1.378 . S
C1137 C1136 1.367 . S
C1137 C1145 1.433 . S
C1138 H1134 0.929 1_545 S
C1138 C1140 1.378 . S
C1138 C1142 1.350 . S
C1139 C1142 1.463 . S
C1139 C1144 1.350 . S
C1139 N1147 1.427 . S
C1140 H1131 0.930 1_545 S
C1140 C1138 1.378 . S
C1140 C1141 1.367 . S
C1141 C1140 1.367 . S
C1141 C1143 1.433 . S
C1142 C1138 1.350 . S
C1142 C1139 1.463 . S
C1142 N1146 1.427 . S
C1143 H1133 0.929 . S
C1143 C1141 1.433 . S
C1143 N1146 1.384 . S
C1144 H1135 0.929 . S
C1144 C1136 1.378 . S
C1144 C1139 1.350 . S
C1145 H1132 0.929 . S
C1145 C1137 1.433 . S
C1145 N1147 1.384 . S
N1146 C1142 1.427 . S
N1146 C1143 1.384 . S
N1147 C1139 1.427 . S
N1147 C1145 1.384 . S
H1148 C1154 0.930 . S
H1149 C1158 0.930 . S
H1150 C1163 0.929 . S
H1151 C1161 0.929 . S
H1152 C1156 0.929 . S
H1153 C1162 0.929 . S
C1154 H1148 0.930 . S
C1154 C1155 1.367 . S
C1154 C1162 1.378 . S
C1155 C1154 1.367 . S
C1155 C1163 1.433 . S
C1156 H1152 0.929 . S
C1156 C1158 1.378 . S
C1156 C1160 1.350 . S
C1157 C1160 1.463 . S
C1157 C1162 1.350 . S
C1157 N1165 1.427 . S
C1158 H1149 0.930 . S
C1158 C1156 1.378 . S
C1158 C1159 1.367 . S
C1159 C1158 1.367 . S
C1159 C1161 1.433 . S
C1160 C1156 1.350 . S
C1160 C1157 1.463 . S
C1160 N1164 1.427 . S
C1161 H1151 0.929 . S
C1161 C1159 1.433 . S
C1161 N1164 1.384 . S
C1162 H1153 0.929 . S
C1162 C1154 1.378 . S
C1162 C1157 1.350 . S
C1163 H1150 0.929 . S
C1163 C1155 1.433 . S
C1163 N1165 1.384 . S
N1164 C1160 1.427 . S
N1164 C1161 1.384 . S
N1165 C1157 1.427 . S
N1165 C1163 1.384 . S
H1166 C1172 0.930 1_655 S
H1167 C1176 0.930 . S
H1168 C1181 0.929 . S
H1169 C1179 0.929 . S
H1170 C1174 0.929 . S
H1171 C1180 0.929 . S
C1172 H1166 0.930 1_455 S
C1172 C1173 1.367 . S
C1172 C1180 1.378 . S
C1173 C1172 1.367 . S
C1173 C1181 1.433 . S
C1174 H1170 0.929 . S
C1174 C1176 1.378 . S
C1174 C1178 1.350 . S
C1175 C1178 1.463 . S
C1175 C1180 1.350 . S
C1175 N1183 1.427 . S
C1176 H1167 0.930 . S
C1176 C1174 1.378 . S
C1176 C1177 1.367 . S
C1177 C1176 1.367 . S
C1177 C1179 1.433 . S
C1178 C1174 1.350 . S
C1178 C1175 1.463 . S
C1178 N1182 1.427 . S
C1179 H1169 0.929 . S
C1179 C1177 1.433 . S
C1179 N1182 1.384 . S
C1180 H1171 0.929 . S
C1180 C1172 1.378 . S
C1180 C1175 1.350 . S
C1181 H1168 0.929 . S
C1181 C1173 1.433 . S
C1181 N1183 1.384 . S
N1182 C1178 1.427 . S
N1182 C1179 1.384 . S
N1183 C1175 1.427 . S
N1183 C1181 1.384 . S
H1184 C1190 0.930 . S
H1185 C1194 0.930 . S
H1186 C1199 0.929 . S
H1187 C1197 0.929 . S
H1188 C1192 0.929 . S
H1189 C1198 0.929 . S
C1190 H1184 0.930 . S
C1190 C1191 1.367 . S
C1190 C1198 1.378 . S
C1191 C1190 1.367 . S
C1191 C1199 1.433 . S
C1192 H1188 0.929 . S
C1192 C1194 1.378 . S
C1192 C1196 1.350 . S
C1193 C1196 1.463 . S
C1193 C1198 1.350 . S
C1193 N1201 1.427 . S
C1194 H1185 0.930 . S
C1194 C1192 1.378 . S
C1194 C1195 1.367 . S
C1195 C1194 1.367 . S
C1195 C1197 1.433 . S
C1196 C1192 1.350 . S
C1196 C1193 1.463 . S
C1196 N1200 1.427 . S
C1197 H1187 0.929 . S
C1197 C1195 1.433 . S
C1197 N1200 1.384 . S
C1198 H1189 0.929 . S
C1198 C1190 1.378 . S
C1198 C1193 1.350 . S
C1199 H1186 0.929 . S
C1199 C1191 1.433 . S
C1199 N1201 1.384 . S
N1200 C1196 1.427 . S
N1200 C1197 1.384 . S
N1201 C1193 1.427 . S
N1201 C1199 1.384 . S
H1202 C1208 0.930 . S
H1203 C1212 0.930 . S
H1204 C1217 0.929 . S
H1205 C1215 0.929 . S
H1206 C1210 0.929 . S
H1207 C1216 0.929 . S
C1208 H1202 0.930 . S
C1208 C1209 1.367 . S
C1208 C1216 1.378 . S
C1209 C1208 1.367 . S
C1209 C1217 1.433 1_655 S
C1210 H1206 0.929 . S
C1210 C1212 1.378 . S
C1210 C1214 1.350 1_455 S
C1211 C1214 1.463 1_554 S
C1211 C1216 1.350 . S
C1211 N1219 1.427 1_655 S
C1212 H1203 0.930 . S
C1212 C1210 1.378 . S
C1212 C1213 1.367 . S
C1213 C1212 1.367 . S
C1213 C1215 1.433 1_455 S
C1214 C1210 1.350 1_655 S
C1214 C1211 1.463 1_556 S
C1214 N1218 1.427 . S
C1215 H1205 0.929 . S
C1215 C1213 1.433 1_655 S
C1215 N1218 1.384 . S
C1216 H1207 0.929 . S
C1216 C1208 1.378 . S
C1216 C1211 1.350 . S
C1217 H1204 0.929 . S
C1217 C1209 1.433 1_455 S
C1217 N1219 1.384 . S
N1218 C1214 1.427 . S
N1218 C1215 1.384 . S
N1219 C1211 1.427 1_455 S
N1219 C1217 1.384 . S
H1220 C1226 0.930 . S
H1221 C1230 0.930 . S
H1222 C1235 0.929 . S
H1223 C1233 0.929 . S
H1224 C1228 0.929 . S
H1225 C1234 0.929 . S
C1226 H1220 0.930 . S
C1226 C1227 1.367 . S
C1226 C1234 1.378 . S
C1227 C1226 1.367 . S
C1227 C1235 1.433 . S
C1228 H1224 0.929 . S
C1228 C1230 1.378 . S
C1228 C1232 1.350 . S
C1229 C1232 1.463 . S
C1229 C1234 1.350 . S
C1229 N1237 1.427 . S
C1230 H1221 0.930 . S
C1230 C1228 1.378 . S
C1230 C1231 1.367 . S
C1231 C1230 1.367 . S
C1231 C1233 1.433 . S
C1232 C1228 1.350 . S
C1232 C1229 1.463 . S
C1232 N1236 1.427 . S
C1233 H1223 0.929 . S
C1233 C1231 1.433 . S
C1233 N1236 1.384 . S
C1234 H1225 0.929 . S
C1234 C1226 1.378 . S
C1234 C1229 1.350 . S
C1235 H1222 0.929 . S
C1235 C1227 1.433 . S
C1235 N1237 1.384 . S
N1236 C1232 1.427 . S
N1236 C1233 1.384 . S
N1237 C1229 1.427 . S
N1237 C1235 1.384 . S
H1238 C1244 0.930 . S
H1239 C1248 0.930 . S
H1240 C1253 0.929 . S
H1241 C1251 0.929 . S
H1242 C1246 0.929 . S
H1243 C1252 0.929 . S
C1244 H1238 0.930 . S
C1244 C1245 1.367 . S
C1244 C1252 1.378 . S
C1245 C1244 1.367 . S
C1245 C1253 1.433 1_554 S
C1246 H1242 0.929 . S
C1246 C1248 1.378 . S
C1246 C1250 1.350 . S
C1247 C1250 1.463 . S
C1247 C1252 1.350 1_556 S
C1247 N1255 1.427 . S
C1248 H1239 0.930 . S
C1248 C1246 1.378 . S
C1248 C1249 1.367 . S
C1249 C1248 1.367 . S
C1249 C1251 1.433 . S
C1250 C1246 1.350 . S
C1250 C1247 1.463 . S
C1250 N1254 1.427 . S
C1251 H1241 0.929 . S
C1251 C1249 1.433 . S
C1251 N1254 1.384 . S
C1252 H1243 0.929 . S
C1252 C1244 1.378 . S
C1252 C1247 1.350 1_554 S
C1253 H1240 0.929 . S
C1253 C1245 1.433 1_556 S
C1253 N1255 1.384 . S
N1254 C1250 1.427 . S
N1254 C1251 1.384 . S
N1255 C1247 1.427 . S
N1255 C1253 1.384 . S
H1256 C1262 0.930 . S
H1257 C1266 0.930 . S
H1258 C1271 0.929 . S
H1259 C1269 0.929 . S
H1260 C1264 0.929 . S
H1261 C1270 0.929 . S
C1262 H1256 0.930 . S
C1262 C1263 1.367 . S
C1262 C1270 1.378 . S
C1263 C1262 1.367 . S
C1263 C1271 1.433 . S
C1264 H1260 0.929 . S
C1264 C1266 1.378 . S
C1264 C1268 1.350 . S
C1265 C1268 1.463 . S
C1265 C1270 1.350 . S
C1265 N1273 1.427 . S
C1266 H1257 0.930 . S
C1266 C1264 1.378 . S
C1266 C1267 1.367 . S
C1267 C1266 1.367 . S
C1267 C1269 1.433 . S
C1268 C1264 1.350 . S
C1268 C1265 1.463 . S
C1268 N1272 1.427 . S
C1269 H1259 0.929 . S
C1269 C1267 1.433 . S
C1269 N1272 1.384 . S
C1270 H1261 0.929 . S
C1270 C1262 1.378 . S
C1270 C1265 1.350 . S
C1271 H1258 0.929 . S
C1271 C1263 1.433 . S
C1271 N1273 1.384 . S
N1272 C1268 1.427 . S
N1272 C1269 1.384 . S
N1273 C1265 1.427 . S
N1273 C1271 1.384 . S
H1274 C1280 0.930 . S
H1275 C1284 0.930 . S
H1276 C1289 0.929 . S
H1277 C1287 0.929 . S
H1278 C1282 0.929 . S
H1279 C1288 0.929 . S
C1280 H1274 0.930 . S
C1280 C1281 1.367 . S
C1280 C1288 1.378 . S
C1281 C1280 1.367 . S
C1281 C1289 1.433 . S
C1282 H1278 0.929 . S
C1282 C1284 1.378 . S
C1282 C1286 1.350 . S
C1283 C1286 1.463 . S
C1283 C1288 1.350 . S
C1283 N1291 1.427 . S
C1284 H1275 0.930 . S
C1284 C1282 1.378 . S
C1284 C1285 1.367 . S
C1285 C1284 1.367 . S
C1285 C1287 1.433 . S
C1286 C1282 1.350 . S
C1286 C1283 1.463 . S
C1286 N1290 1.427 . S
C1287 H1277 0.929 . S
C1287 C1285 1.433 . S
C1287 N1290 1.384 . S
C1288 H1279 0.929 . S
C1288 C1280 1.378 . S
C1288 C1283 1.350 . S
C1289 H1276 0.929 . S
C1289 C1281 1.433 . S
C1289 N1291 1.384 . S
N1290 C1286 1.427 . S
N1290 C1287 1.384 . S
N1291 C1283 1.427 . S
N1291 C1289 1.384 . S
H1292 C1298 0.930 . S
H1293 C1302 0.930 . S
H1294 C1307 0.929 . S
H1295 C1305 0.929 . S
H1296 C1300 0.929 . S
H1297 C1306 0.929 . S
C1298 H1292 0.930 . S
C1298 C1299 1.367 . S
C1298 C1306 1.378 . S
C1299 C1298 1.367 . S
C1299 C1307 1.433 . S
C1300 H1296 0.929 . S
C1300 C1302 1.378 . S
C1300 C1304 1.350 . S
C1301 C1304 1.463 . S
C1301 C1306 1.350 . S
C1301 N1309 1.427 . S
C1302 H1293 0.930 . S
C1302 C1300 1.378 . S
C1302 C1303 1.367 . S
C1303 C1302 1.367 . S
C1303 C1305 1.433 . S
C1304 C1300 1.350 . S
C1304 C1301 1.463 . S
C1304 N1308 1.427 . S
C1305 H1295 0.929 . S
C1305 C1303 1.433 . S
C1305 N1308 1.384 . S
C1306 H1297 0.929 . S
C1306 C1298 1.378 . S
C1306 C1301 1.350 . S
C1307 H1294 0.929 . S
C1307 C1299 1.433 . S
C1307 N1309 1.384 . S
N1308 C1304 1.427 . S
N1308 C1305 1.384 . S
N1309 C1301 1.427 . S
N1309 C1307 1.384 . S
H1310 C1316 0.930 . S
H1311 C1320 0.930 . S
H1312 C1325 0.929 . S
H1313 C1323 0.929 . S
H1314 C1318 0.929 . S
H1315 C1324 0.929 . S
C1316 H1310 0.930 . S
C1316 C1317 1.367 . S
C1316 C1324 1.378 . S
C1317 C1316 1.367 . S
C1317 C1325 1.433 . S
C1318 H1314 0.929 . S
C1318 C1320 1.378 . S
C1318 C1322 1.350 . S
C1319 C1322 1.463 . S
C1319 C1324 1.350 . S
C1319 N1327 1.427 . S
C1320 H1311 0.930 . S
C1320 C1318 1.378 . S
C1320 C1321 1.367 . S
C1321 C1320 1.367 . S
C1321 C1323 1.433 . S
C1322 C1318 1.350 . S
C1322 C1319 1.463 . S
C1322 N1326 1.427 . S
C1323 H1313 0.929 . S
C1323 C1321 1.433 . S
C1323 N1326 1.384 . S
C1324 H1315 0.929 . S
C1324 C1316 1.378 . S
C1324 C1319 1.350 . S
C1325 H1312 0.929 . S
C1325 C1317 1.433 . S
C1325 N1327 1.384 . S
N1326 C1322 1.427 . S
N1326 C1323 1.384 . S
N1327 C1319 1.427 . S
N1327 C1325 1.384 . S
H1328 C1334 0.930 . S
H1329 C1338 0.930 . S
H1330 C1343 0.929 . S
H1331 C1341 0.929 . S
H1332 C1336 0.929 . S
H1333 C1342 0.929 . S
C1334 H1328 0.930 . S
C1334 C1335 1.367 . S
C1334 C1342 1.378 . S
C1335 C1334 1.367 . S
C1335 C1343 1.433 . S
C1336 H1332 0.929 . S
C1336 C1338 1.378 . S
C1336 C1340 1.350 . S
C1337 C1340 1.463 . S
C1337 C1342 1.350 . S
C1337 N1345 1.427 . S
C1338 H1329 0.930 . S
C1338 C1336 1.378 . S
C1338 C1339 1.367 . S
C1339 C1338 1.367 . S
C1339 C1341 1.433 . S
C1340 C1336 1.350 . S
C1340 C1337 1.463 . S
C1340 N1344 1.427 . S
C1341 H1331 0.929 . S
C1341 C1339 1.433 . S
C1341 N1344 1.384 . S
C1342 H1333 0.929 . S
C1342 C1334 1.378 . S
C1342 C1337 1.350 . S
C1343 H1330 0.929 . S
C1343 C1335 1.433 . S
C1343 N1345 1.384 . S
N1344 C1340 1.427 . S
N1344 C1341 1.384 . S
N1345 C1337 1.427 . S
N1345 C1343 1.384 . S
H1346 C1352 0.930 . S
H1347 C1356 0.930 . S
H1348 C1361 0.929 . S
H1349 C1359 0.929 . S
H1350 C1354 0.929 . S
H1351 C1360 0.929 . S
C1352 H1346 0.930 . S
C1352 C1353 1.367 . S
C1352 C1360 1.378 . S
C1353 C1352 1.367 . S
C1353 C1361 1.433 . S
C1354 H1350 0.929 . S
C1354 C1356 1.378 . S
C1354 C1358 1.350 . S
C1355 C1358 1.463 . S
C1355 C1360 1.350 . S
C1355 N1363 1.427 . S
C1356 H1347 0.930 . S
C1356 C1354 1.378 . S
C1356 C1357 1.367 . S
C1357 C1356 1.367 . S
C1357 C1359 1.433 . S
C1358 C1354 1.350 . S
C1358 C1355 1.463 . S
C1358 N1362 1.427 . S
C1359 H1349 0.929 . S
C1359 C1357 1.433 . S
C1359 N1362 1.384 . S
C1360 H1351 0.929 . S
C1360 C1352 1.378 . S
C1360 C1355 1.350 . S
C1361 H1348 0.929 . S
C1361 C1353 1.433 . S
C1361 N1363 1.384 . S
N1362 C1358 1.427 . S
N1362 C1359 1.384 . S
N1363 C1355 1.427 . S
N1363 C1361 1.384 . S
H1364 C1370 0.930 . S
H1365 C1374 0.930 . S
H1366 C1379 0.929 . S
H1367 C1377 0.929 . S
H1368 C1372 0.929 . S
H1369 C1378 0.929 . S
C1370 H1364 0.930 . S
C1370 C1371 1.367 . S
C1370 C1378 1.378 . S
C1371 C1370 1.367 . S
C1371 C1379 1.433 . S
C1372 H1368 0.929 . S
C1372 C1374 1.378 . S
C1372 C1376 1.350 . S
C1373 C1376 1.463 . S
C1373 C1378 1.350 . S
C1373 N1381 1.427 . S
C1374 H1365 0.930 . S
C1374 C1372 1.378 . S
C1374 C1375 1.367 . S
C1375 C1374 1.367 . S
C1375 C1377 1.433 . S
C1376 C1372 1.350 . S
C1376 C1373 1.463 . S
C1376 N1380 1.427 . S
C1377 H1367 0.929 . S
C1377 C1375 1.433 . S
C1377 N1380 1.384 . S
C1378 H1369 0.929 . S
C1378 C1370 1.378 . S
C1378 C1373 1.350 . S
C1379 H1366 0.929 . S
C1379 C1371 1.433 . S
C1379 N1381 1.384 . S
N1380 C1376 1.427 . S
N1380 C1377 1.384 . S
N1381 C1373 1.427 . S
N1381 C1379 1.384 . S
H1382 C1388 0.930 . S
H1383 C1392 0.930 . S
H1384 C1397 0.929 . S
H1385 C1395 0.929 . S
H1386 C1390 0.929 . S
H1387 C1396 0.929 . S
C1388 H1382 0.930 . S
C1388 C1389 1.367 . S
C1388 C1396 1.378 . S
C1389 C1388 1.367 . S
C1389 C1397 1.433 . S
C1390 H1386 0.929 . S
C1390 C1392 1.378 . S
C1390 C1394 1.350 . S
C1391 C1394 1.463 . S
C1391 C1396 1.350 . S
C1391 N1399 1.427 . S
C1392 H1383 0.930 . S
C1392 C1390 1.378 . S
C1392 C1393 1.367 . S
C1393 C1392 1.367 . S
C1393 C1395 1.433 . S
C1394 C1390 1.350 . S
C1394 C1391 1.463 . S
C1394 N1398 1.427 . S
C1395 H1385 0.929 . S
C1395 C1393 1.433 . S
C1395 N1398 1.384 . S
C1396 H1387 0.929 . S
C1396 C1388 1.378 . S
C1396 C1391 1.350 . S
C1397 H1384 0.929 . S
C1397 C1389 1.433 . S
C1397 N1399 1.384 . S
N1398 C1394 1.427 . S
N1398 C1395 1.384 . S
N1399 C1391 1.427 . S
N1399 C1397 1.384 . S
H1400 C1406 0.930 . S
H1401 C1410 0.930 . S
H1402 C1415 0.929 . S
H1403 C1413 0.929 . S
H1404 C1408 0.929 . S
H1405 C1414 0.929 . S
C1406 H1400 0.930 . S
C1406 C1407 1.367 1_554 S
C1406 C1414 1.378 . S
C1407 C1406 1.367 1_556 S
C1407 C1415 1.433 . S
C1408 H1404 0.929 . S
C1408 C1410 1.378 . S
C1408 C1412 1.350 . S
C1409 C1412 1.463 . S
C1409 C1414 1.350 1_556 S
C1409 N1417 1.427 . S
C1410 H1401 0.930 . S
C1410 C1408 1.378 . S
C1410 C1411 1.367 . S
C1411 C1410 1.367 . S
C1411 C1413 1.433 1_556 S
C1412 C1408 1.350 . S
C1412 C1409 1.463 . S
C1412 N1416 1.427 1_556 S
C1413 H1403 0.929 . S
C1413 C1411 1.433 1_554 S
C1413 N1416 1.384 . S
C1414 H1405 0.929 . S
C1414 C1406 1.378 . S
C1414 C1409 1.350 1_554 S
C1415 H1402 0.929 . S
C1415 C1407 1.433 . S
C1415 N1417 1.384 . S
N1416 C1412 1.427 1_554 S
N1416 C1413 1.384 . S
N1417 C1409 1.427 . S
N1417 C1415 1.384 . S
H1418 C1424 0.930 . S
H1419 C1428 0.930 . S
H1420 C1433 0.929 . S
H1421 C1431 0.929 . S
H1422 C1426 0.929 . S
H1423 C1432 0.929 . S
C1424 H1418 0.930 . S
C1424 C1425 1.367 . S
C1424 C1432 1.378 . S
C1425 C1424 1.367 . S
C1425 C1433 1.433 . S
C1426 H1422 0.929 . S
C1426 C1428 1.378 . S
C1426 C1430 1.350 . S
C1427 C1430 1.463 . S
C1427 C1432 1.350 . S
C1427 N1435 1.427 . S
C1428 H1419 0.930 . S
C1428 C1426 1.378 . S
C1428 C1429 1.367 . S
C1429 C1428 1.367 . S
C1429 C1431 1.433 . S
C1430 C1426 1.350 . S
C1430 C1427 1.463 . S
C1430 N1434 1.427 . S
C1431 H1421 0.929 . S
C1431 C1429 1.433 . S
C1431 N1434 1.384 . S
C1432 H1423 0.929 . S
C1432 C1424 1.378 . S
C1432 C1427 1.350 . S
C1433 H1420 0.929 . S
C1433 C1425 1.433 . S
C1433 N1435 1.384 . S
N1434 C1430 1.427 . S
N1434 C1431 1.384 . S
N1435 C1427 1.427 . S
N1435 C1433 1.384 . S
H1436 C1442 0.930 . S
H1437 C1446 0.930 . S
H1438 C1451 0.929 . S
H1439 C1449 0.929 . S
H1440 C1444 0.929 . S
H1441 C1450 0.929 . S
C1442 H1436 0.930 . S
C1442 C1443 1.367 . S
C1442 C1450 1.378 . S
C1443 C1442 1.367 . S
C1443 C1451 1.433 . S
C1444 H1440 0.929 . S
C1444 C1446 1.378 . S
C1444 C1448 1.350 . S
C1445 C1448 1.463 . S
C1445 C1450 1.350 . S
C1445 N1453 1.427 . S
C1446 H1437 0.930 . S
C1446 C1444 1.378 . S
C1446 C1447 1.367 . S
C1447 C1446 1.367 . S
C1447 C1449 1.433 . S
C1448 C1444 1.350 . S
C1448 C1445 1.463 . S
C1448 N1452 1.427 . S
C1449 H1439 0.929 . S
C1449 C1447 1.433 . S
C1449 N1452 1.384 . S
C1450 H1441 0.929 . S
C1450 C1442 1.378 . S
C1450 C1445 1.350 . S
C1451 H1438 0.929 . S
C1451 C1443 1.433 . S
C1451 N1453 1.384 . S
N1452 C1448 1.427 . S
N1452 C1449 1.384 . S
N1453 C1445 1.427 . S
N1453 C1451 1.384 . S
H1454 C1460 0.930 1_545 S
H1455 C1464 0.930 . S
H1456 C1469 0.929 . S
H1457 C1467 0.929 . S
H1458 C1462 0.929 . S
H1459 C1468 0.929 . S
C1460 H1454 0.930 1_565 S
C1460 C1461 1.367 . S
C1460 C1468 1.378 . S
C1461 C1460 1.367 . S
C1461 C1469 1.433 . S
C1462 H1458 0.929 . S
C1462 C1464 1.378 . S
C1462 C1466 1.350 . S
C1463 C1466 1.463 . S
C1463 C1468 1.350 . S
C1463 N1471 1.427 . S
C1464 H1455 0.930 . S
C1464 C1462 1.378 . S
C1464 C1465 1.367 . S
C1465 C1464 1.367 . S
C1465 C1467 1.433 . S
C1466 C1462 1.350 . S
C1466 C1463 1.463 . S
C1466 N1470 1.427 . S
C1467 H1457 0.929 . S
C1467 C1465 1.433 . S
C1467 N1470 1.384 . S
C1468 H1459 0.929 . S
C1468 C1460 1.378 . S
C1468 C1463 1.350 . S
C1469 H1456 0.929 . S
C1469 C1461 1.433 . S
C1469 N1471 1.384 . S
N1470 C1466 1.427 . S
N1470 C1467 1.384 . S
N1471 C1463 1.427 . S
N1471 C1469 1.384 . S
C619 C178 1.167 . S
C615 C62 1.165 . S
C637 C226 1.602 . S
C633 C73 1.609 . S
C651 C84 1.388 . S
C655 C262 1.407 . S
C673 C298 1.354 . S
C669 C49 1.251 1_655 S
C691 C324 1.369 . S
C687 C118 1.344 . S
C709 C360 1.671 . S
C705 C137 1.431 . S
C723 C129 1.526 . S
C727 C395 1.527 . S
C745 C432 1.947 1_565 S
C741 C106 1.898 . S
C759 C128 1.714 . S
C763 C466 1.739 . S
C781 C514 1.669 . S
C777 C104 1.527 . S
C795 C115 1.476 . S
C799 C467 1.785 . S
C817 C504 1.852 . S
C813 C139 1.789 . S
C831 C85 1.527 . S
C835 C550 1.472 . S
C849 C52 1.281 . S
C853 C539 1.279 . S
C867 C60 1.033 . S
C871 C540 1.043 . S
C885 C71 1.560 . S
C889 C538 1.694 . S
C903 C40 1.566 . S
C907 C286 1.687 . S
C921 C162 1.160 . S
C925 C287 1.159 . S
C943 C190 1.233 . S
C939 C173 1.263 . S
C961 C215 1.706 . S
C957 C93 1.463 . S
C975 C51 1.504 . S
C979 C322 1.527 . S
C997 C430 1.474 . S
C993 C126 1.373 . S
C1015 C323 1.829 . S
C1011 C107 1.828 . S
C1033 C396 1.714 . S
C1029 C140 1.695 . S
C1051 C394 1.155 . S
C1047 C161 1.172 . S
C1065 C172 1.624 . S
C1069 C442 1.610 . S
C1083 C95 1.407 . S
C1087 C334 1.421 . S
C1105 C370 1.343 . S
C1101 C148 1.228 . S
C1119 C41 1.335 . S
C1123 C252 1.365 . S
C1141 C288 1.670 . S
C1137 C5 1.425 . S
C1159 C179 1.528 . S
C1155 C19 1.527 . S
C1177 C216 1.948 . S
C1173 C29 1.899 1_455 S
C1191 C18 1.717 . S
C1195 C502 1.738 . S
C1209 C27 1.543 . S
C1213 C478 1.678 . S
C1227 C38 1.479 . S
C1231 C503 1.787 . S
C1245 C7 1.790 . S
C1249 C468 1.853 . S
C1267 C586 1.488 . S
C1263 C96 1.525 . S
C1285 C575 1.284 . S
C1281 C151 1.277 . S
C1303 C576 1.044 . S
C1299 C159 1.030 . S
C1317 C170 1.553 . S
C1321 C574 1.701 . S
C1335 C117 1.566 . S
C1339 C358 1.687 . S
C1357 C359 1.160 . S
C1353 C63 1.157 . S
C1375 C406 1.228 . S
C1371 C74 1.262 . S
C1393 C431 1.703 . S
C1389 C82 1.456 . S
C1407 C150 1.491 . S
C1411 C250 1.534 1_556 S
C1429 C214 1.466 . S
C1425 C16 1.389 . S
C1443 C30 1.829 . S
C1447 C251 1.833 . S
C1465 C180 1.713 . S
C1461 C8 1.692 . S
