# Generated by pormake.
# Topology rtl, (3,6)-cn, num edge types: 1
# Building blocks:
#     Node 0, Type 0, BuildingBlock: WUSLED_clean_sbu_0, # of connection points: 3
#     Node 1, Type 0, BuildingBlock: WUSLED_clean_sbu_0, # of connection points: 3
#     Node 2, Type 0, BuildingBlock: WUSLED_clean_sbu_0, # of connection points: 3
#     Node 3, Type 0, BuildingBlock: WUSLED_clean_sbu_0, # of connection points: 3
#     Node 4, Type 1, BuildingBlock: CIFDUS_clean_sbu_1, # of connection points: 6
#     Node 5, Type 1, BuildingBlock: CIFDUS_clean_sbu_1, # of connection points: 6
#     Edge 6, Type (0, 1), BuildingBlock: KIFKEQ_clean_linker_1, # of connection points: 2
#     Edge 7, Type (0, 1), BuildingBlock: KIFKEQ_clean_linker_1, # of connection points: 2
#     Edge 8, Type (0, 1), BuildingBlock: KIFKEQ_clean_linker_1, # of connection points: 2
#     Edge 9, Type (0, 1), BuildingBlock: KIFKEQ_clean_linker_1, # of connection points: 2
#     Edge 10, Type (0, 1), BuildingBlock: KIFKEQ_clean_linker_1, # of connection points: 2
#     Edge 11, Type (0, 1), BuildingBlock: KIFKEQ_clean_linker_1, # of connection points: 2
#     Edge 12, Type (0, 1), BuildingBlock: KIFKEQ_clean_linker_1, # of connection points: 2
#     Edge 13, Type (0, 1), BuildingBlock: KIFKEQ_clean_linker_1, # of connection points: 2
#     Edge 14, Type (0, 1), BuildingBlock: KIFKEQ_clean_linker_1, # of connection points: 2
#     Edge 15, Type (0, 1), BuildingBlock: KIFKEQ_clean_linker_1, # of connection points: 2
#     Edge 16, Type (0, 1), BuildingBlock: KIFKEQ_clean_linker_1, # of connection points: 2
#     Edge 17, Type (0, 1), BuildingBlock: KIFKEQ_clean_linker_1, # of connection points: 2
# Relax obj value: 0.026
# Max RMSD: 0.062
# Mean RMSD: 0.045
data_MOF--net-rtl--node1-WUSLED_clean_sbu_0--node2-CIFDUS_clean_sbu_1--edge1-KIFKEQ_clean_linker_1
_symmetry_space_group_name_H-M    P1
_symmetry_Int_Tables_number       1
_symmetry_cell_setting            triclinic
loop_
_symmetry_equiv_pos_as_xyz
'x, y, z'
_cell_length_a     40.361939
_cell_length_b     44.943745
_cell_length_c     31.25134
_cell_angle_alpha  90.158647
_cell_angle_beta   97.915598
_cell_angle_gamma 89.893033
loop_
_atom_site_label
_atom_site_type_symbol
_atom_site_fract_x
_atom_site_fract_y
_atom_site_fract_z
_atom_type_partial_charge
C0 C 0.23085 0.90173 0.22072 0.0
C1 C 0.1984 0.91364 0.21281 0.0
C2 C 0.20399 0.93369 0.28625 0.0
C3 C 0.18509 0.92945 0.24527 0.0
C4 C 0.23692 0.92256 0.29332 0.0
C5 C 0.25014 0.90673 0.26093 0.0
U6 U 0.23571 0.8745 0.10441 0.0
O7 O 0.28016 0.86179 0.07455 0.0
O8 O 0.24107 0.82884 0.08085 0.0
C9 C 0.27088 0.83381 0.06993 0.0
C10 C 0.24457 0.88288 0.18856 0.0
C11 C 0.29678 0.81123 0.08367 0.0
C12 C 0.32453 0.77619 0.13633 0.0
C13 C 0.3011 0.79903 0.12543 0.0
C14 C 0.33998 0.77807 0.06424 0.0
C15 C 0.34413 0.76524 0.10572 0.0
C16 C 0.31663 0.80077 0.05344 0.0
C17 C 0.17814 0.91039 1.00886 0.0
C18 C 0.18237 0.90415 0.93233 0.0
C19 C 0.13605 0.93182 0.9544 0.0
C20 C 0.14855 0.92661 0.99774 0.0
C21 C 0.15288 0.9209 0.92101 0.0
C22 C 0.19486 0.89891 0.97587 0.0
C23 C 0.19142 0.90681 0.055 0.0
O24 O 0.22419 0.86277 0.16898 0.0
O25 O 0.26231 0.89654 0.16234 0.0
O26 O 0.2226 0.91508 0.06658 0.0
O27 O 0.18393 0.88185 0.07324 0.0
H28 H 0.18309 0.9101 0.18194 0.0
H29 H 0.15956 0.9374 0.23872 0.0
H30 H 0.25241 0.92578 0.32413 0.0
H31 H 0.2753 0.89787 0.2676 0.0
H32 H 0.3272 0.76705 0.16865 0.0
H33 H 0.28606 0.80686 0.14934 0.0
H34 H 0.35404 0.76994 0.03949 0.0
H35 H 0.31358 0.80976 0.02099 0.0
H36 H 0.19584 0.89513 0.90757 0.0
H37 H 0.11368 0.94524 0.94718 0.0
H38 H 0.13534 0.93576 0.02271 0.0
H39 H 0.21773 0.88624 0.98378 0.0
C40 C 0.70987 0.6854 0.71048 0.0
C41 C 0.68513 0.66449 0.69578 0.0
C42 C 0.67875 0.65192 0.7702 0.0
C43 C 0.66973 0.64789 0.72536 0.0
C44 C 0.70412 0.67248 0.78464 0.0
C45 C 0.71948 0.68908 0.75502 0.0
U46 U 0.71907 0.71113 0.59565 0.0
O47 O 0.72516 0.75638 0.57143 0.0
O48 O 0.76465 0.72314 0.56804 0.0
C49 C 0.75561 0.75115 0.56278 0.0
C50 C 0.72521 0.7041 0.67994 0.0
C51 C 0.78126 0.77349 0.57848 0.0
C52 C 0.80525 0.81035 0.63116 0.0
C53 C 0.78153 0.78812 0.61836 0.0
C54 C 0.8291 0.803 0.56494 0.0
C55 C 0.82927 0.81815 0.60448 0.0
C56 C 0.80538 0.78096 0.55215 0.0
C57 C 0.66425 0.67363 0.49885 0.0
C58 C 0.66398 0.68591 0.42292 0.0
C59 C 0.62901 0.64604 0.44308 0.0
C60 C 0.64079 0.65119 0.48665 0.0
C61 C 0.64037 0.6633 0.41049 0.0
C62 C 0.6758 0.69104 0.46673 0.0
C63 C 0.67625 0.67804 0.54519 0.0
O64 O 0.74399 0.69012 0.65516 0.0
O65 O 0.70528 0.72392 0.6589 0.0
O66 O 0.66814 0.70338 0.56213 0.0
O67 O 0.70726 0.66992 0.55841 0.0
H68 H 0.67748 0.66127 0.66146 0.0
H69 H 0.65062 0.63197 0.71309 0.0
H70 H 0.71144 0.67642 0.81883 0.0
H71 H 0.73852 0.70517 0.76693 0.0
H72 H 0.80481 0.82139 0.66192 0.0
H73 H 0.76321 0.78259 0.63935 0.0
H74 H 0.84677 0.80872 0.54317 0.0
H75 H 0.80554 0.77005 0.52122 0.0
H76 H 0.67315 0.69978 0.39883 0.0
H77 H 0.61145 0.62804 0.43495 0.0
H78 H 0.6317 0.63741 0.51095 0.0
H79 H 0.69394 0.70851 0.47555 0.0
C80 C 0.82188 0.19638 0.14371 0.0
C81 C 0.84971 0.17784 0.14198 0.0
C82 C 0.85545 0.17031 0.22013 0.0
C83 C 0.8664 0.16498 0.17986 0.0
C84 C 0.8276 0.18903 0.22149 0.0
C85 C 0.81106 0.20189 0.18373 0.0
U86 U 0.79825 0.20393 0.02013 0.0
O87 O 0.74923 0.21415 0.98261 0.0
O88 O 0.79145 0.24449 0.98056 0.0
C89 C 0.75935 0.23974 0.96885 0.0
C90 C 0.80385 0.21043 0.10457 0.0
C91 C 0.73697 0.26541 0.97225 0.0
C92 C 0.71752 0.30698 1.01221 0.0
C93 C 0.73846 0.28221 1.01037 0.0
C94 C 0.69304 0.29818 0.93811 0.0
C95 C 0.69462 0.31538 0.97602 0.0
C96 C 0.71404 0.2735 0.93627 0.0
C97 C 0.83635 0.15116 0.94266 0.0
C98 C 0.83991 0.16063 0.8668 0.0
C99 C 0.85358 0.1118 0.89675 0.0
C100 C 0.8464 0.12168 0.93703 0.0
C101 C 0.85103 0.13131 0.8613 0.0
C102 C 0.83255 0.17044 0.90705 0.0
C103 C 0.83167 0.16167 0.98626 0.0
O104 O 0.82231 0.22498 0.08012 0.0
O105 O 0.7804 0.19429 0.08222 0.0
O106 O 0.80186 0.15757 0.99766 0.0
O107 O 0.84431 0.18794 0.99747 0.0
H108 H 0.85843 0.17322 0.11136 0.0
H109 H 0.88747 0.15042 0.17748 0.0
H110 H 0.81869 0.19395 0.25188 0.0
H111 H 0.78972 0.21624 0.1858 0.0
H112 H 0.71907 0.31941 0.04216 0.0
H113 H 0.75586 0.27623 0.0386 0.0
H114 H 0.67601 0.3041 0.90953 0.0
H115 H 0.71256 0.26083 0.90652 0.0
H116 H 0.83726 0.17613 0.84006 0.0
H117 H 0.86238 0.0892 0.89385 0.0
H118 H 0.84949 0.10645 0.96411 0.0
H119 H 0.82458 0.19324 0.91057 0.0
C120 C 0.30672 0.39259 0.40088 0.0
C121 C 0.31122 0.42345 0.40611 0.0
C122 C 0.33427 0.4263 0.33787 0.0
C123 C 0.32477 0.44013 0.37487 0.0
C124 C 0.32937 0.39542 0.33274 0.0
C125 C 0.31568 0.37883 0.3638 0.0
U126 U 0.29934 0.36686 0.51724 0.0
O127 O 0.25422 0.35408 0.54537 0.0
O128 O 0.29413 0.3214 0.54115 0.0
C129 C 0.26372 0.32616 0.55025 0.0
C130 C 0.29244 0.37418 0.43299 0.0
C131 C 0.23838 0.30355 0.53461 0.0
C132 C 0.21471 0.26671 0.48171 0.0
C133 C 0.23794 0.28936 0.49439 0.0
C134 C 0.19162 0.27285 0.54872 0.0
C135 C 0.19136 0.25806 0.50888 0.0
C136 C 0.21485 0.2953 0.56138 0.0
C137 C 0.35469 0.40358 0.61409 0.0
C138 C 0.35737 0.38879 0.68944 0.0
C139 C 0.38969 0.43088 0.67046 0.0
C140 C 0.37716 0.42668 0.62687 0.0
C141 C 0.3801 0.41197 0.70245 0.0
C142 C 0.3448 0.38461 0.64563 0.0
C143 C 0.34231 0.39981 0.5677 0.0
O144 O 0.31272 0.35441 0.45353 0.0
O145 O 0.27368 0.38784 0.4582 0.0
O146 O 0.31115 0.40783 0.55516 0.0
O147 O 0.35045 0.3748 0.5499 0.0
H148 H 0.30442 0.43469 0.43434 0.0
H149 H 0.32779 0.46388 0.37977 0.0
H150 H 0.33692 0.38381 0.30525 0.0
H151 H 0.3124 0.35507 0.35904 0.0
H152 H 0.21504 0.25597 0.45072 0.0
H153 H 0.25579 0.29549 0.47307 0.0
H154 H 0.17447 0.26649 0.57085 0.0
H155 H 0.21483 0.30589 0.59257 0.0
H156 H 0.34955 0.37368 0.71304 0.0
H157 H 0.40651 0.44934 0.6791 0.0
H158 H 0.38499 0.44163 0.60304 0.0
H159 H 0.32748 0.3666 0.63637 0.0
O160 O 0.98738 0.05742 0.50443 0.0
Mn161 Mn 0.01434 0.03577 0.55841 0.0
O162 O 0.96331 0.02135 0.46074 0.0
Mn163 Mn 0.98524 0.98991 0.49043 0.0
O164 O 0.04118 1.01412 0.6125 0.0
O165 O 0.04141 0.07345 0.57077 0.0
Mn166 Mn 0.0438 0.08158 0.62636 0.0
O167 O 0.97801 0.05009 0.5967 0.0
O168 O 0.06607 0.05013 0.65558 0.0
O169 O 0.05087 0.02132 0.5204 0.0
O170 O 0.0285 0.9828 0.48043 0.0
O171 O 0.06744 0.11123 0.60432 0.0
O172 O 1.00062 0.08832 0.63722 0.0
C173 C 0.96888 0.97466 0.54823 0.0
C174 C 0.96809 0.04873 0.47031 0.0
C175 C 0.06081 0.02276 0.64634 0.0
C176 C 0.05938 0.09711 0.56825 0.0
C177 C 0.97608 0.07145 0.62384 0.0
C178 C 0.05306 0.99965 0.49383 0.0
O179 O 0.98715 0.99815 0.54595 0.0
O180 O 0.96116 0.96045 0.51217 0.0
O181 O 0.5384 0.56274 0.10547 0.0
Mn182 Mn 0.51263 0.53412 0.05796 0.0
O183 O 0.57776 0.53517 0.14474 0.0
Mn184 Mn 0.55705 0.49967 0.12851 0.0
O185 O 0.48692 0.50532 1.01048 0.0
O186 O 0.47922 0.56775 0.04375 0.0
Mn187 Mn 0.46828 0.5679 0.98703 0.0
O188 O 0.54222 0.55006 1.01255 0.0
O189 O 0.44713 0.53256 0.97161 0.0
O190 O 0.4831 0.51821 0.10368 0.0
O191 O 0.51829 0.49233 0.15209 0.0
O192 O 0.44449 0.59857 1.00622 0.0
O193 O 0.50688 0.57465 0.96263 0.0
C194 C 0.5661 0.47808 0.07086 0.0
C195 C 0.56413 0.56016 0.13472 0.0
C196 C 0.46094 0.50767 0.9816 0.0
C197 C 0.45895 0.59026 0.04386 0.0
C198 C 0.53598 0.56509 0.97733 0.0
C199 C 0.48926 0.5025 0.13837 0.0
O200 O 0.54605 0.50061 0.07198 0.0
O201 O 0.58066 0.46919 0.10814 0.0
H202 H 0.20364 0.20451 0.47114 0.0
H203 H 0.12551 0.2544 0.52043 0.0
H204 H 0.16741 0.16083 0.46251 0.0
H205 H 0.09005 0.21072 0.51388 0.0
H206 H 0.12022 0.08793 0.54498 0.0
H207 H 0.15036 0.12678 0.51291 0.0
H208 H 0.05733 0.17353 0.47484 0.0
H209 H 0.02761 0.13488 0.50889 0.0
C210 C 0.17852 0.20637 0.47936 0.0
C211 C 0.16773 0.23287 0.49723 0.0
C212 C 0.15779 0.18121 0.47472 0.0
C213 C 0.12578 0.18193 0.48786 0.0
C214 C 0.11428 0.20913 0.50289 0.0
C215 C 0.13491 0.2342 0.50739 0.0
C216 C 0.106 0.10557 0.52735 0.0
C217 C 0.07163 0.1084 0.52933 0.0
C218 C 0.12334 0.12815 0.5092 0.0
C219 C 0.1065 0.15398 0.49253 0.0
C220 C 0.07129 0.15443 0.48859 0.0
C221 C 0.05404 0.13191 0.50716 0.0
H222 H 0.40618 0.75727 0.081 0.0
H223 H 0.33542 0.71485 0.15286 0.0
H224 H 0.43961 0.71225 0.0855 0.0
H225 H 0.37 0.67011 0.15962 0.0
H226 H 0.49791 0.63224 0.0886 0.0
H227 H 0.47487 0.67568 0.12153 0.0
H228 H 0.37872 0.63201 0.11077 0.0
H229 H 0.40231 0.58871 0.07967 0.0
C230 C 0.39802 0.73848 0.09847 0.0
C231 C 0.3676 0.73959 0.11564 0.0
C232 C 0.41761 0.71266 0.10177 0.0
C233 C 0.40753 0.68715 0.12264 0.0
C234 C 0.37837 0.68904 0.14266 0.0
C235 C 0.35863 0.71489 0.13913 0.0
C236 C 0.47248 0.63131 0.09601 0.0
C237 C 0.45194 0.60707 0.082 0.0
C238 C 0.45897 0.65648 0.11395 0.0
C239 C 0.42454 0.65793 0.11758 0.0
C240 C 0.40526 0.63199 0.10868 0.0
C241 C 0.41886 0.60688 0.09108 0.0
H242 H 0.81828 0.87238 0.64116 0.0
H243 H 0.89553 0.81977 0.59459 0.0
H244 H 0.85609 0.915 0.65042 0.0
H245 H 0.9326 0.86237 0.60177 0.0
H246 H 0.99814 0.93621 0.6085 0.0
H247 H 0.96616 0.8987 0.64154 0.0
H248 H 0.87547 0.94821 0.60063 0.0
H249 H 0.90783 0.98591 0.56953 0.0
C250 C 0.84352 0.86971 0.63366 0.0
C251 C 0.85364 0.84276 0.61638 0.0
C252 C 0.86516 0.89425 0.63866 0.0
C253 C 0.89745 0.89243 0.62651 0.0
C254 C 0.90819 0.8648 0.61203 0.0
C255 C 0.88665 0.84034 0.60715 0.0
C256 C 0.97172 0.94002 0.60935 0.0
C257 C 0.95543 0.96397 0.58667 0.0
C258 C 0.95318 0.91816 0.62736 0.0
C259 C 0.91797 0.91972 0.62234 0.0
C260 C 0.90243 0.94599 0.60516 0.0
C261 C 0.92106 0.96792 0.58758 0.0
H262 H 0.71116 0.36951 1.01332 0.0
H263 H 0.62828 0.32182 0.94248 0.0
H264 H 0.67489 0.412 0.02015 0.0
H265 H 0.59205 0.3649 0.94805 0.0
H266 H 0.53717 0.42704 0.03988 0.0
H267 H 0.56681 0.3885 1.00538 0.0
H268 H 0.64276 0.45233 0.98428 0.0
H269 H 0.61312 0.49064 0.01981 0.0
C270 C 0.68522 0.36814 0.99894 0.0
C271 C 0.67265 0.34204 0.97778 0.0
C272 C 0.66446 0.39277 1.00218 0.0
C273 C 0.63046 0.39208 0.98438 0.0
C274 C 0.61804 0.36624 0.96225 0.0
C275 C 0.63889 0.34158 0.95887 0.0
C276 C 0.55912 0.4332 0.0255 0.0
C277 C 0.57268 0.46185 0.03206 0.0
C278 C 0.57641 0.411 1.00608 0.0
C279 C 0.60775 0.41705 0.99309 0.0
C280 C 0.61911 0.44671 0.99487 0.0
C281 C 0.60177 0.46888 1.01433 0.0
H282 H 0.21147 0.91741 0.37145 0.0
H283 H 0.16169 0.98209 0.28272 0.0
H284 H 0.18289 0.93743 0.42891 0.0
H285 H 0.13217 1.00149 0.34014 0.0
H286 H 0.09297 0.03958 0.45845 0.0
H287 H 0.13577 0.02719 0.41221 0.0
H288 H 0.12434 0.93395 0.43996 0.0
H289 H 0.08201 0.94633 0.48539 0.0
C290 C 0.19488 0.93624 0.36428 0.0
C291 C 0.18876 0.94795 0.32219 0.0
C292 C 0.17827 0.94758 0.39725 0.0
C293 C 0.15505 0.97094 0.38913 0.0
C294 C 0.15008 0.98364 0.34763 0.0
C295 C 0.16667 0.97223 0.31454 0.0
C296 C 0.10054 1.01659 0.45564 0.0
C297 C 0.08432 0.99388 0.4755 0.0
C298 C 0.12469 1.00945 0.42882 0.0
C299 C 0.13334 0.97954 0.42214 0.0
C300 C 0.11863 0.9572 0.44461 0.0
C301 C 0.09431 0.96427 0.47066 0.0
H302 H 0.61171 0.6415 0.76412 0.0
H303 H 0.70451 0.62657 0.848 0.0
H304 H 0.58129 0.61691 0.81558 0.0
H305 H 0.67387 0.60144 0.89984 0.0
H306 H 0.59714 0.59167 1.00066 0.0
H307 H 0.63459 0.6103 0.95109 0.0
H308 H 0.57156 0.56951 0.84391 0.0
H309 H 0.53387 0.55235 0.893 0.0
C310 C 0.62574 0.63248 0.79325 0.0
C311 C 0.66062 0.63585 0.80164 0.0
C312 C 0.60826 0.61827 0.8229 0.0
C313 C 0.62509 0.60678 0.86183 0.0
C314 C 0.66004 0.61016 0.87039 0.0
C315 C 0.67759 0.62455 0.84064 0.0
C316 C 0.59189 0.58626 0.96661 0.0
C317 C 0.56259 0.57086 0.95045 0.0
C318 C 0.61325 0.59691 0.93816 0.0
C319 C 0.6057 0.59202 0.89324 0.0
C320 C 0.57766 0.57455 0.87799 0.0
C321 C 0.55622 0.56443 0.90614 0.0
H322 H 0.92287 0.1621 0.24618 0.0
H323 H 0.8261 0.14561 0.28551 0.0
H324 H 0.94974 0.13626 0.31072 0.0
H325 H 0.85292 0.12063 0.35022 0.0
H326 H 0.90874 0.04112 0.41959 0.0
H327 H 0.88216 0.07308 0.36248 0.0
H328 H 0.96089 0.13784 0.39257 0.0
H329 H 0.98794 0.1053 0.4504 0.0
C330 C 0.90733 0.1531 0.26863 0.0
C331 C 0.87226 0.15583 0.26041 0.0
C332 C 0.92278 0.13864 0.30591 0.0
C333 C 0.9035 0.12632 0.33565 0.0
C334 C 0.86853 0.12964 0.32785 0.0
C335 C 0.85314 0.14419 0.29083 0.0
C336 C 0.9203 0.06232 0.41449 0.0
C337 C 0.95053 0.07063 0.43957 0.0
C338 C 0.9049 0.08076 0.38179 0.0
C339 C 0.91934 0.10806 0.37283 0.0
C340 C 0.94924 0.11684 0.3985 0.0
C341 C 0.96455 0.09839 0.43187 0.0
H342 H 0.44348 0.42865 0.73767 0.0
H343 H 0.34668 0.40709 0.77318 0.0
H344 H 0.46293 0.44343 0.81176 0.0
H345 H 0.36669 0.42044 0.84793 0.0
H346 H 0.3969 0.49652 0.9474 0.0
H347 H 0.37818 0.46627 0.88443 0.0
H348 H 0.47839 0.43162 0.88685 0.0
H349 H 0.4973 0.46284 0.94998 0.0
C350 C 0.42641 0.42672 0.76138 0.0
C351 C 0.39325 0.41717 0.74904 0.0
C352 C 0.43779 0.43475 0.80421 0.0
C353 C 0.4164 0.43337 0.8361 0.0
C354 C 0.38379 0.42224 0.82424 0.0
C355 C 0.37236 0.41429 0.78132 0.0
C356 C 0.41475 0.48171 0.93538 0.0
C357 C 0.44862 0.48224 0.95351 0.0
C358 C 0.40398 0.46423 0.89914 0.0
C359 C 0.42681 0.44675 0.87984 0.0
C360 C 0.46021 0.44524 0.90032 0.0
C361 C 0.471 0.46276 0.93694 0.0
H362 H 0.67618 0.66406 0.34164 0.0
H363 H 0.57703 0.64776 0.3735 0.0
H364 H 0.65778 0.64832 0.2675 0.0
H365 H 0.55914 0.63055 0.30016 0.0
H366 H 0.52815 0.60672 0.16251 0.0
H367 H 0.54632 0.63951 0.22405 0.0
H368 H 0.64557 0.60157 0.23425 0.0
H369 H 0.62767 0.56986 0.1726 0.0
C370 C 0.65033 0.65752 0.33279 0.0
C371 C 0.62829 0.65681 0.36395 0.0
C372 C 0.63983 0.64818 0.29025 0.0
C373 C 0.60701 0.63776 0.27767 0.0
C374 C 0.5845 0.63859 0.30828 0.0
C375 C 0.59497 0.64804 0.35072 0.0
C376 C 0.55414 0.60634 0.17688 0.0
C377 C 0.57643 0.58562 0.1628 0.0
C378 C 0.56448 0.62478 0.21263 0.0
C379 C 0.59734 0.62293 0.2348 0.0
C380 C 0.62019 0.60394 0.21813 0.0
C381 C 0.60987 0.58558 0.1827 0.0
H382 H 0.88872 0.16258 0.81102 0.0
H383 H 0.83914 0.07807 0.81799 0.0
H384 H 0.91085 0.14619 0.74668 0.0
H385 H 0.86079 0.06163 0.75247 0.0
H386 H 0.94795 0.03277 0.67509 0.0
H387 H 0.91158 0.0465 0.72843 0.0
H388 H 0.90036 0.13467 0.67322 0.0
H389 H 0.93821 0.12117 0.62189 0.0
C390 C 0.88187 0.14069 0.79819 0.0
C391 C 0.86209 0.12171 0.81974 0.0
C392 C 0.8945 0.13124 0.76098 0.0
C393 C 0.88752 0.10254 0.74381 0.0
C394 C 0.86705 0.08373 0.76484 0.0
C395 C 0.85459 0.09317 0.80241 0.0
C396 C 0.93662 0.05469 0.6735 0.0
C397 C 0.9457 0.07591 0.6444 0.0
C398 C 0.91586 0.06269 0.70421 0.0
C399 C 0.90359 0.09202 0.70604 0.0
C400 C 0.91013 0.1122 0.67384 0.0
C401 C 0.93133 0.10437 0.64384 0.0
H402 H 0.37964 0.47166 0.35407 0.0
H403 H 0.32724 0.4199 0.24927 0.0
H404 H 0.41201 0.49554 0.30383 0.0
H405 H 0.36099 0.44292 0.19926 0.0
H406 H 0.42027 0.5026 0.1156 0.0
H407 H 0.37806 0.48904 0.1621 0.0
H408 H 0.45672 0.4749 0.26859 0.0
H409 H 0.49804 0.48842 0.22326 0.0
C410 C 0.37454 0.46567 0.32024 0.0
C411 C 0.35106 0.44345 0.30602 0.0
C412 C 0.3934 0.4792 0.29141 0.0
C413 C 0.38951 0.47079 0.2476 0.0
C414 C 0.36462 0.44995 0.23274 0.0
C415 C 0.34561 0.43644 0.26161 0.0
C416 C 0.42834 0.49686 0.14911 0.0
C417 C 0.46258 0.49633 0.16553 0.0
C418 C 0.40423 0.489 0.17561 0.0
C419 C 0.41399 0.48105 0.21917 0.0
C420 C 0.44815 0.48136 0.23552 0.0
C421 C 0.472 0.48882 0.20921 0.0
H422 H 0.18973 0.93562 0.85654 0.0
H423 H 0.08784 0.92351 0.88083 0.0
H424 H 0.16943 0.95336 0.78406 0.0
H425 H 0.06754 0.94251 0.80897 0.0
H426 H 0.03821 0.9677 0.66842 0.0
H427 H 0.06178 0.93693 0.73016 0.0
H428 H 0.14345 0.99911 0.75827 0.0
H429 H 0.12038 0.02913 0.69703 0.0
C430 C 0.163 0.93627 0.84629 0.0
C431 C 0.14048 0.92843 0.87495 0.0
C432 C 0.15132 0.94676 0.80476 0.0
C433 C 0.1168 0.94977 0.79069 0.0
C434 C 0.09427 0.94039 0.81847 0.0
C435 C 0.10595 0.92987 0.86001 0.0
C436 C 0.06165 0.97424 0.6872 0.0
C437 C 0.07733 1.00091 0.67796 0.0
C438 C 0.07499 0.95683 0.72283 0.0
C439 C 0.10448 0.96558 0.74948 0.0
C440 C 0.12099 0.99137 0.73843 0.0
C441 C 0.10758 1.00877 0.70333 0.0
loop_
_geom_bond_atom_site_label_1
_geom_bond_atom_site_label_2
_geom_bond_distance
_geom_bond_site_symmetry_2
_ccdc_geom_bond_type
C0 C1 1.264 . S
C0 C5 1.479 . S
C0 C10 1.465 . S
C1 C0 1.264 . S
C1 C3 1.339 . S
C1 H28 0.931 . S
C2 C3 1.395 . S
C2 C4 1.320 . S
C3 C1 1.339 . S
C3 C2 1.395 . S
C3 H29 0.929 . S
C4 C2 1.320 . S
C4 C5 1.405 . S
C4 H30 0.930 . S
C5 C0 1.479 . S
C5 C4 1.405 . S
C5 H31 0.931 . S
U6 O7 2.454 . S
U6 O8 2.458 . S
U6 C9 2.984 . S
U6 C10 2.847 . S
U6 C23 2.882 . S
U6 O24 2.441 . S
U6 O25 2.420 . S
U6 O26 2.455 . S
U6 O27 2.449 . S
O7 U6 2.454 . S
O7 C9 1.353 . S
O8 U6 2.458 . S
O8 C9 1.286 . S
C9 U6 2.984 . S
C9 O7 1.353 . S
C9 O8 1.286 . S
C9 C11 1.363 . S
C10 C0 1.465 . S
C10 U6 2.847 . S
C10 O24 1.249 . S
C10 O25 1.202 . S
C11 C9 1.363 . S
C11 C13 1.408 . S
C11 C16 1.342 . S
C12 C13 1.310 . S
C12 C15 1.461 . S
C12 H32 0.932 . S
C13 C11 1.408 . S
C13 C12 1.310 . S
C13 H33 0.930 . S
C14 C15 1.474 . S
C14 C16 1.285 . S
C14 H34 0.929 . S
C15 C12 1.461 . S
C15 C14 1.474 . S
C16 C11 1.342 . S
C16 C14 1.285 . S
C16 H35 0.930 . S
C17 C20 1.424 . S
C17 C22 1.245 . S
C17 C23 1.428 1_556 S
C18 C21 1.260 . S
C18 C22 1.477 . S
C18 H36 0.932 . S
C19 C20 1.384 . S
C19 C21 1.479 . S
C19 H37 0.929 . S
C20 C17 1.424 . S
C20 C19 1.384 . S
C20 H38 0.928 1_556 S
C21 C18 1.260 . S
C21 C19 1.479 . S
C22 C17 1.245 . S
C22 C18 1.477 . S
C22 H39 0.932 . S
C23 U6 2.882 . S
C23 C17 1.428 1_554 S
C23 O26 1.301 . S
C23 O27 1.282 . S
O24 U6 2.441 . S
O24 C10 1.249 . S
O25 U6 2.420 . S
O25 C10 1.202 . S
O26 U6 2.455 . S
O26 C23 1.301 . S
O27 U6 2.449 . S
O27 C23 1.282 . S
H28 C1 0.931 . S
H29 C3 0.929 . S
H30 C4 0.930 . S
H31 C5 0.931 . S
H32 C12 0.932 . S
H33 C13 0.930 . S
H34 C14 0.929 . S
H35 C16 0.930 . S
H36 C18 0.932 . S
H37 C19 0.929 . S
H38 C20 0.928 1_554 S
H39 C22 0.932 . S
C40 C41 1.264 . S
C40 C45 1.479 . S
C40 C50 1.465 . S
C41 C40 1.264 . S
C41 C43 1.339 . S
C41 H68 0.931 . S
C42 C43 1.395 . S
C42 C44 1.320 . S
C43 C41 1.339 . S
C43 C42 1.395 . S
C43 H69 0.929 . S
C44 C42 1.320 . S
C44 C45 1.405 . S
C44 H70 0.930 . S
C45 C40 1.479 . S
C45 C44 1.405 . S
C45 H71 0.931 . S
U46 O47 2.454 . S
U46 O48 2.458 . S
U46 C49 2.984 . S
U46 C50 2.847 . S
U46 C63 2.882 . S
U46 O64 2.441 . S
U46 O65 2.420 . S
U46 O66 2.455 . S
U46 O67 2.449 . S
O47 U46 2.454 . S
O47 C49 1.353 . S
O48 U46 2.458 . S
O48 C49 1.286 . S
C49 U46 2.984 . S
C49 O47 1.353 . S
C49 O48 1.286 . S
C49 C51 1.363 . S
C50 C40 1.465 . S
C50 U46 2.847 . S
C50 O64 1.249 . S
C50 O65 1.202 . S
C51 C49 1.363 . S
C51 C53 1.408 . S
C51 C56 1.342 . S
C52 C53 1.310 . S
C52 C55 1.461 . S
C52 H72 0.932 . S
C53 C51 1.408 . S
C53 C52 1.310 . S
C53 H73 0.930 . S
C54 C55 1.474 . S
C54 C56 1.285 . S
C54 H74 0.929 . S
C55 C52 1.461 . S
C55 C54 1.474 . S
C56 C51 1.342 . S
C56 C54 1.285 . S
C56 H75 0.930 . S
C57 C60 1.424 . S
C57 C62 1.245 . S
C57 C63 1.428 . S
C58 C61 1.260 . S
C58 C62 1.477 . S
C58 H76 0.932 . S
C59 C60 1.384 . S
C59 C61 1.479 . S
C59 H77 0.929 . S
C60 C57 1.424 . S
C60 C59 1.384 . S
C60 H78 0.928 . S
C61 C58 1.260 . S
C61 C59 1.479 . S
C62 C57 1.245 . S
C62 C58 1.477 . S
C62 H79 0.932 . S
C63 U46 2.882 . S
C63 C57 1.428 . S
C63 O66 1.301 . S
C63 O67 1.282 . S
O64 U46 2.441 . S
O64 C50 1.249 . S
O65 U46 2.420 . S
O65 C50 1.202 . S
O66 U46 2.455 . S
O66 C63 1.301 . S
O67 U46 2.449 . S
O67 C63 1.282 . S
H68 C41 0.931 . S
H69 C43 0.929 . S
H70 C44 0.930 . S
H71 C45 0.931 . S
H72 C52 0.932 . S
H73 C53 0.930 . S
H74 C54 0.929 . S
H75 C56 0.930 . S
H76 C58 0.932 . S
H77 C59 0.929 . S
H78 C60 0.928 . S
H79 C62 0.932 . S
C80 C81 1.264 . S
C80 C85 1.479 . S
C80 C90 1.465 . S
C81 C80 1.264 . S
C81 C83 1.339 . S
C81 H108 0.931 . S
C82 C83 1.395 . S
C82 C84 1.320 . S
C83 C81 1.339 . S
C83 C82 1.395 . S
C83 H109 0.929 . S
C84 C82 1.320 . S
C84 C85 1.405 . S
C84 H110 0.930 . S
C85 C80 1.479 . S
C85 C84 1.405 . S
C85 H111 0.931 . S
U86 O87 2.454 . S
U86 O88 2.458 1_554 S
U86 C89 2.984 1_554 S
U86 C90 2.847 . S
U86 C103 2.882 1_554 S
U86 O104 2.441 . S
U86 O105 2.420 . S
U86 O106 2.455 1_554 S
U86 O107 2.449 1_554 S
O87 U86 2.454 . S
O87 C89 1.353 1_554 S
O88 U86 2.458 1_556 S
O88 C89 1.286 . S
C89 U86 2.984 1_556 S
C89 O87 1.353 1_556 S
C89 O88 1.286 . S
C89 C91 1.363 . S
C90 C80 1.465 . S
C90 U86 2.847 . S
C90 O104 1.249 . S
C90 O105 1.202 . S
C91 C89 1.363 . S
C91 C93 1.408 1_556 S
C91 C96 1.342 . S
C92 C93 1.310 . S
C92 C95 1.461 1_554 S
C92 H112 0.932 . S
C93 C91 1.408 1_554 S
C93 C92 1.310 . S
C93 H113 0.930 . S
C94 C95 1.474 . S
C94 C96 1.285 . S
C94 H114 0.929 . S
C95 C92 1.461 1_556 S
C95 C94 1.474 . S
C96 C91 1.342 . S
C96 C94 1.285 . S
C96 H115 0.930 . S
C97 C100 1.424 . S
C97 C102 1.245 . S
C97 C103 1.428 . S
C98 C101 1.260 . S
C98 C102 1.477 . S
C98 H116 0.932 . S
C99 C100 1.384 . S
C99 C101 1.479 . S
C99 H117 0.929 . S
C100 C97 1.424 . S
C100 C99 1.384 . S
C100 H118 0.928 . S
C101 C98 1.260 . S
C101 C99 1.479 . S
C102 C97 1.245 . S
C102 C98 1.477 . S
C102 H119 0.932 . S
C103 U86 2.882 1_556 S
C103 C97 1.428 . S
C103 O106 1.301 . S
C103 O107 1.282 . S
O104 U86 2.441 . S
O104 C90 1.249 . S
O105 U86 2.420 . S
O105 C90 1.202 . S
O106 U86 2.455 1_556 S
O106 C103 1.301 . S
O107 U86 2.449 1_556 S
O107 C103 1.282 . S
H108 C81 0.931 . S
H109 C83 0.929 . S
H110 C84 0.930 . S
H111 C85 0.931 . S
H112 C92 0.932 . S
H113 C93 0.930 . S
H114 C94 0.929 . S
H115 C96 0.930 . S
H116 C98 0.932 . S
H117 C99 0.929 . S
H118 C100 0.928 . S
H119 C102 0.932 . S
C120 C121 1.264 . S
C120 C125 1.479 . S
C120 C130 1.465 . S
C121 C120 1.264 . S
C121 C123 1.339 . S
C121 H148 0.931 . S
C122 C123 1.395 . S
C122 C124 1.320 . S
C123 C121 1.339 . S
C123 C122 1.395 . S
C123 H149 0.929 . S
C124 C122 1.320 . S
C124 C125 1.405 . S
C124 H150 0.930 . S
C125 C120 1.479 . S
C125 C124 1.405 . S
C125 H151 0.931 . S
U126 O127 2.454 . S
U126 O128 2.458 . S
U126 C129 2.984 . S
U126 C130 2.847 . S
U126 C143 2.882 . S
U126 O144 2.441 . S
U126 O145 2.420 . S
U126 O146 2.455 . S
U126 O147 2.449 . S
O127 U126 2.454 . S
O127 C129 1.353 . S
O128 U126 2.458 . S
O128 C129 1.286 . S
C129 U126 2.984 . S
C129 O127 1.353 . S
C129 O128 1.286 . S
C129 C131 1.363 . S
C130 C120 1.465 . S
C130 U126 2.847 . S
C130 O144 1.249 . S
C130 O145 1.202 . S
C131 C129 1.363 . S
C131 C133 1.408 . S
C131 C136 1.342 . S
C132 C133 1.310 . S
C132 C135 1.461 . S
C132 H152 0.932 . S
C133 C131 1.408 . S
C133 C132 1.310 . S
C133 H153 0.930 . S
C134 C135 1.474 . S
C134 C136 1.285 . S
C134 H154 0.929 . S
C135 C132 1.461 . S
C135 C134 1.474 . S
C136 C131 1.342 . S
C136 C134 1.285 . S
C136 H155 0.930 . S
C137 C140 1.424 . S
C137 C142 1.245 . S
C137 C143 1.428 . S
C138 C141 1.260 . S
C138 C142 1.477 . S
C138 H156 0.932 . S
C139 C140 1.384 . S
C139 C141 1.479 . S
C139 H157 0.929 . S
C140 C137 1.424 . S
C140 C139 1.384 . S
C140 H158 0.928 . S
C141 C138 1.260 . S
C141 C139 1.479 . S
C142 C137 1.245 . S
C142 C138 1.477 . S
C142 H159 0.932 . S
C143 U126 2.882 . S
C143 C137 1.428 . S
C143 O146 1.301 . S
C143 O147 1.282 . S
O144 U126 2.441 . S
O144 C130 1.249 . S
O145 U126 2.420 . S
O145 C130 1.202 . S
O146 U126 2.455 . S
O146 C143 1.301 . S
O147 U126 2.449 . S
O147 C143 1.282 . S
H148 C121 0.931 . S
H149 C123 0.929 . S
H150 C124 0.930 . S
H151 C125 0.931 . S
H152 C132 0.932 . S
H153 C133 0.930 . S
H154 C134 0.929 . S
H155 C136 0.930 . S
H156 C138 0.932 . S
H157 C139 0.929 . S
H158 C140 0.928 . S
H159 C142 0.932 . S
O160 Mn161 2.163 1_655 S
O160 C174 1.244 . S
Mn161 O160 2.163 1_455 S
Mn161 O164 2.160 1_545 S
Mn161 O165 2.221 . S
Mn161 O167 2.163 1_455 S
Mn161 O169 2.160 1_545 S
Mn161 O179 2.221 1_445 S
O162 Mn163 2.087 1_545 S
O162 C174 1.256 . S
Mn163 O162 2.087 1_565 S
Mn163 O170 2.089 1_655 S
Mn163 O179 2.290 . S
Mn163 O180 2.251 . S
O164 Mn161 2.160 1_565 S
O164 C175 1.239 . S
O165 Mn161 2.221 . S
O165 Mn166 2.290 . S
O165 C176 1.278 . S
Mn166 O165 2.290 . S
Mn166 O168 2.089 . S
Mn166 O171 2.251 . S
Mn166 O172 2.087 1_455 S
O167 Mn161 2.163 1_655 S
O167 C177 1.244 . S
O168 Mn166 2.089 . S
O168 C175 1.256 1_545 S
O169 Mn161 2.160 1_565 S
O169 C178 1.239 . S
O170 Mn163 2.089 1_455 S
O170 C178 1.256 . S
O171 Mn166 2.251 . S
O171 C176 1.241 . S
O172 Mn166 2.087 1_655 S
O172 C177 1.256 . S
C173 O179 1.278 . S
C173 O180 1.241 . S
C174 O160 1.244 . S
C174 O162 1.256 . S
C175 O164 1.239 . S
C175 O168 1.256 1_565 S
C176 O165 1.278 . S
C176 O171 1.241 . S
C177 O167 1.244 . S
C177 O172 1.256 . S
C178 O169 1.239 . S
C178 O170 1.256 . S
O179 Mn161 2.221 1_665 S
O179 Mn163 2.290 . S
O179 C173 1.278 . S
O180 Mn163 2.251 . S
O180 C173 1.241 . S
O181 Mn182 2.163 . S
O181 C195 1.244 . S
Mn182 O181 2.163 . S
Mn182 O185 2.160 1_554 S
Mn182 O186 2.221 . S
Mn182 O188 2.163 1_554 S
Mn182 O190 2.160 . S
Mn182 O200 2.221 . S
O183 Mn184 2.087 . S
O183 C195 1.256 . S
Mn184 O183 2.087 . S
Mn184 O191 2.089 . S
Mn184 O200 2.290 . S
Mn184 O201 2.251 . S
O185 Mn182 2.160 1_556 S
O185 C196 1.239 . S
O186 Mn182 2.221 . S
O186 Mn187 2.290 1_554 S
O186 C197 1.278 . S
Mn187 O186 2.290 1_556 S
Mn187 O189 2.089 . S
Mn187 O192 2.251 1_556 S
Mn187 O193 2.087 . S
O188 Mn182 2.163 1_556 S
O188 C198 1.244 . S
O189 Mn187 2.089 . S
O189 C196 1.256 . S
O190 Mn182 2.160 . S
O190 C199 1.239 . S
O191 Mn184 2.089 . S
O191 C199 1.256 . S
O192 Mn187 2.251 1_554 S
O192 C197 1.241 . S
O193 Mn187 2.087 . S
O193 C198 1.256 . S
C194 O200 1.278 . S
C194 O201 1.241 . S
C195 O181 1.244 . S
C195 O183 1.256 . S
C196 O185 1.239 . S
C196 O189 1.256 . S
C197 O186 1.278 . S
C197 O192 1.241 . S
C198 O188 1.244 . S
C198 O193 1.256 . S
C199 O190 1.239 . S
C199 O191 1.256 . S
O200 Mn182 2.221 . S
O200 Mn184 2.290 . S
O200 C194 1.278 . S
O201 Mn184 2.251 . S
O201 C194 1.241 . S
H202 C210 0.950 . S
H203 C215 0.950 . S
H204 C212 0.950 . S
H205 C214 0.950 . S
H206 C216 0.950 . S
H207 C218 0.950 . S
H208 C220 0.950 . S
H209 C221 0.950 . S
C210 H202 0.950 . S
C210 C211 1.386 . S
C210 C212 1.391 . S
C211 C210 1.386 . S
C211 C215 1.393 . S
C212 H204 0.950 . S
C212 C210 1.391 . S
C212 C213 1.400 . S
C213 C212 1.400 . S
C213 C214 1.398 . S
C213 C219 1.491 . S
C214 H205 0.950 . S
C214 C213 1.398 . S
C214 C215 1.391 . S
C215 H203 0.950 . S
C215 C211 1.393 . S
C215 C214 1.391 . S
C216 H206 0.950 . S
C216 C217 1.386 . S
C216 C218 1.391 . S
C217 C216 1.386 . S
C217 C221 1.393 . S
C218 H207 0.950 . S
C218 C216 1.391 . S
C218 C219 1.400 . S
C219 C213 1.491 . S
C219 C218 1.400 . S
C219 C220 1.398 . S
C220 H208 0.950 . S
C220 C219 1.398 . S
C220 C221 1.391 . S
C221 H209 0.950 . S
C221 C217 1.393 . S
C221 C220 1.391 . S
H222 C230 0.950 . S
H223 C235 0.950 . S
H224 C232 0.950 . S
H225 C234 0.950 . S
H226 C236 0.950 . S
H227 C238 0.950 . S
H228 C240 0.950 . S
H229 C241 0.950 1_556 S
C230 H222 0.950 . S
C230 C231 1.386 . S
C230 C232 1.391 . S
C231 C230 1.386 . S
C231 C235 1.393 . S
C232 H224 0.950 . S
C232 C230 1.391 . S
C232 C233 1.400 . S
C233 C232 1.400 . S
C233 C234 1.398 . S
C233 C239 1.491 . S
C234 H225 0.950 . S
C234 C233 1.398 . S
C234 C235 1.391 . S
C235 H223 0.950 . S
C235 C231 1.393 . S
C235 C234 1.391 . S
C236 H226 0.950 . S
C236 C237 1.386 . S
C236 C238 1.391 . S
C237 C236 1.386 . S
C237 C241 1.393 . S
C238 H227 0.950 . S
C238 C236 1.391 . S
C238 C239 1.400 . S
C239 C233 1.491 . S
C239 C238 1.400 . S
C239 C240 1.398 . S
C240 H228 0.950 . S
C240 C239 1.398 . S
C240 C241 1.391 . S
C241 H229 0.950 1_554 S
C241 C237 1.393 . S
C241 C240 1.391 . S
H242 C250 0.950 . S
H243 C255 0.950 . S
H244 C252 0.950 . S
H245 C254 0.950 . S
H246 C256 0.950 . S
H247 C258 0.950 . S
H248 C260 0.950 . S
H249 C261 0.950 . S
C250 H242 0.950 . S
C250 C251 1.386 . S
C250 C252 1.391 . S
C251 C250 1.386 . S
C251 C255 1.393 . S
C252 H244 0.950 . S
C252 C250 1.391 . S
C252 C253 1.400 . S
C253 C252 1.400 . S
C253 C254 1.398 . S
C253 C259 1.491 . S
C254 H245 0.950 . S
C254 C253 1.398 . S
C254 C255 1.391 . S
C255 H243 0.950 . S
C255 C251 1.393 . S
C255 C254 1.391 . S
C256 H246 0.950 . S
C256 C257 1.386 . S
C256 C258 1.391 . S
C257 C256 1.386 . S
C257 C261 1.393 . S
C258 H247 0.950 . S
C258 C256 1.391 . S
C258 C259 1.400 . S
C259 C253 1.491 . S
C259 C258 1.400 . S
C259 C260 1.398 . S
C260 H248 0.950 . S
C260 C259 1.398 . S
C260 C261 1.391 . S
C261 H249 0.950 . S
C261 C257 1.393 . S
C261 C260 1.391 . S
H262 C270 0.950 . S
H263 C275 0.950 . S
H264 C272 0.950 . S
H265 C274 0.950 . S
H266 C276 0.950 . S
H267 C278 0.950 . S
H268 C280 0.950 . S
H269 C281 0.950 . S
C270 H262 0.950 . S
C270 C271 1.386 1_554 S
C270 C272 1.391 . S
C271 C270 1.386 1_556 S
C271 C275 1.393 . S
C272 H264 0.950 . S
C272 C270 1.391 . S
C272 C273 1.400 . S
C273 C272 1.400 . S
C273 C274 1.398 1_554 S
C273 C279 1.491 . S
C274 H265 0.950 . S
C274 C273 1.398 1_556 S
C274 C275 1.391 . S
C275 H263 0.950 . S
C275 C271 1.393 . S
C275 C274 1.391 . S
C276 H266 0.950 . S
C276 C277 1.386 1_556 S
C276 C278 1.391 . S
C277 C276 1.386 1_554 S
C277 C281 1.393 . S
C278 H267 0.950 . S
C278 C276 1.391 . S
C278 C279 1.400 1_556 S
C279 C273 1.491 . S
C279 C278 1.400 1_554 S
C279 C280 1.398 . S
C280 H268 0.950 . S
C280 C279 1.398 . S
C280 C281 1.391 . S
C281 H269 0.950 . S
C281 C277 1.393 . S
C281 C280 1.391 . S
H282 C290 0.950 . S
H283 C295 0.950 . S
H284 C292 0.950 . S
H285 C294 0.950 1_545 S
H286 C296 0.950 . S
H287 C298 0.950 1_545 S
H288 C300 0.950 . S
H289 C301 0.950 . S
C290 H282 0.950 . S
C290 C291 1.386 . S
C290 C292 1.391 . S
C291 C290 1.386 . S
C291 C295 1.393 . S
C292 H284 0.950 . S
C292 C290 1.391 . S
C292 C293 1.400 . S
C293 C292 1.400 . S
C293 C294 1.398 . S
C293 C299 1.491 . S
C294 H285 0.950 1_565 S
C294 C293 1.398 . S
C294 C295 1.391 . S
C295 H283 0.950 . S
C295 C291 1.393 . S
C295 C294 1.391 . S
C296 H286 0.950 . S
C296 C297 1.386 1_545 S
C296 C298 1.391 1_545 S
C297 C296 1.386 1_565 S
C297 C301 1.393 . S
C298 H287 0.950 1_565 S
C298 C296 1.391 1_565 S
C298 C299 1.400 . S
C299 C293 1.491 . S
C299 C298 1.400 . S
C299 C300 1.398 . S
C300 H288 0.950 . S
C300 C299 1.398 . S
C300 C301 1.391 . S
C301 H289 0.950 . S
C301 C297 1.393 . S
C301 C300 1.391 . S
H302 C310 0.950 . S
H303 C315 0.950 . S
H304 C312 0.950 . S
H305 C314 0.950 . S
H306 C316 0.950 . S
H307 C318 0.950 . S
H308 C320 0.950 . S
H309 C321 0.950 . S
C310 H302 0.950 . S
C310 C311 1.386 . S
C310 C312 1.391 . S
C311 C310 1.386 . S
C311 C315 1.393 . S
C312 H304 0.950 . S
C312 C310 1.391 . S
C312 C313 1.400 . S
C313 C312 1.400 . S
C313 C314 1.398 . S
C313 C319 1.491 . S
C314 H305 0.950 . S
C314 C313 1.398 . S
C314 C315 1.391 . S
C315 H303 0.950 . S
C315 C311 1.393 . S
C315 C314 1.391 . S
C316 H306 0.950 . S
C316 C317 1.386 . S
C316 C318 1.391 . S
C317 C316 1.386 . S
C317 C321 1.393 . S
C318 H307 0.950 . S
C318 C316 1.391 . S
C318 C319 1.400 . S
C319 C313 1.491 . S
C319 C318 1.400 . S
C319 C320 1.398 . S
C320 H308 0.950 . S
C320 C319 1.398 . S
C320 C321 1.391 . S
C321 H309 0.950 . S
C321 C317 1.393 . S
C321 C320 1.391 . S
H322 C330 0.950 . S
H323 C335 0.950 . S
H324 C332 0.950 . S
H325 C334 0.950 . S
H326 C336 0.950 . S
H327 C338 0.950 . S
H328 C340 0.950 . S
H329 C341 0.950 . S
C330 H322 0.950 . S
C330 C331 1.386 . S
C330 C332 1.391 . S
C331 C330 1.386 . S
C331 C335 1.393 . S
C332 H324 0.950 . S
C332 C330 1.391 . S
C332 C333 1.400 . S
C333 C332 1.400 . S
C333 C334 1.398 . S
C333 C339 1.491 . S
C334 H325 0.950 . S
C334 C333 1.398 . S
C334 C335 1.391 . S
C335 H323 0.950 . S
C335 C331 1.393 . S
C335 C334 1.391 . S
C336 H326 0.950 . S
C336 C337 1.386 . S
C336 C338 1.391 . S
C337 C336 1.386 . S
C337 C341 1.393 . S
C338 H327 0.950 . S
C338 C336 1.391 . S
C338 C339 1.400 . S
C339 C333 1.491 . S
C339 C338 1.400 . S
C339 C340 1.398 . S
C340 H328 0.950 . S
C340 C339 1.398 . S
C340 C341 1.391 . S
C341 H329 0.950 . S
C341 C337 1.393 . S
C341 C340 1.391 . S
H342 C350 0.950 . S
H343 C355 0.950 . S
H344 C352 0.950 . S
H345 C354 0.950 . S
H346 C356 0.950 . S
H347 C358 0.950 . S
H348 C360 0.950 . S
H349 C361 0.950 . S
C350 H342 0.950 . S
C350 C351 1.386 . S
C350 C352 1.391 . S
C351 C350 1.386 . S
C351 C355 1.393 . S
C352 H344 0.950 . S
C352 C350 1.391 . S
C352 C353 1.400 . S
C353 C352 1.400 . S
C353 C354 1.398 . S
C353 C359 1.491 . S
C354 H345 0.950 . S
C354 C353 1.398 . S
C354 C355 1.391 . S
C355 H343 0.950 . S
C355 C351 1.393 . S
C355 C354 1.391 . S
C356 H346 0.950 . S
C356 C357 1.386 . S
C356 C358 1.391 . S
C357 C356 1.386 . S
C357 C361 1.393 . S
C358 H347 0.950 . S
C358 C356 1.391 . S
C358 C359 1.400 . S
C359 C353 1.491 . S
C359 C358 1.400 . S
C359 C360 1.398 . S
C360 H348 0.950 . S
C360 C359 1.398 . S
C360 C361 1.391 . S
C361 H349 0.950 . S
C361 C357 1.393 . S
C361 C360 1.391 . S
H362 C370 0.950 . S
H363 C375 0.950 . S
H364 C372 0.950 . S
H365 C374 0.950 . S
H366 C376 0.950 . S
H367 C378 0.950 . S
H368 C380 0.950 . S
H369 C381 0.950 . S
C370 H362 0.950 . S
C370 C371 1.386 . S
C370 C372 1.391 . S
C371 C370 1.386 . S
C371 C375 1.393 . S
C372 H364 0.950 . S
C372 C370 1.391 . S
C372 C373 1.400 . S
C373 C372 1.400 . S
C373 C374 1.398 . S
C373 C379 1.491 . S
C374 H365 0.950 . S
C374 C373 1.398 . S
C374 C375 1.391 . S
C375 H363 0.950 . S
C375 C371 1.393 . S
C375 C374 1.391 . S
C376 H366 0.950 . S
C376 C377 1.386 . S
C376 C378 1.391 . S
C377 C376 1.386 . S
C377 C381 1.393 . S
C378 H367 0.950 . S
C378 C376 1.391 . S
C378 C379 1.400 . S
C379 C373 1.491 . S
C379 C378 1.400 . S
C379 C380 1.398 . S
C380 H368 0.950 . S
C380 C379 1.398 . S
C380 C381 1.391 . S
C381 H369 0.950 . S
C381 C377 1.393 . S
C381 C380 1.391 . S
H382 C390 0.950 . S
H383 C395 0.950 . S
H384 C392 0.950 . S
H385 C394 0.950 . S
H386 C396 0.950 . S
H387 C398 0.950 . S
H388 C400 0.950 . S
H389 C401 0.950 . S
C390 H382 0.950 . S
C390 C391 1.386 . S
C390 C392 1.391 . S
C391 C390 1.386 . S
C391 C395 1.393 . S
C392 H384 0.950 . S
C392 C390 1.391 . S
C392 C393 1.400 . S
C393 C392 1.400 . S
C393 C394 1.398 . S
C393 C399 1.491 . S
C394 H385 0.950 . S
C394 C393 1.398 . S
C394 C395 1.391 . S
C395 H383 0.950 . S
C395 C391 1.393 . S
C395 C394 1.391 . S
C396 H386 0.950 . S
C396 C397 1.386 . S
C396 C398 1.391 . S
C397 C396 1.386 . S
C397 C401 1.393 . S
C398 H387 0.950 . S
C398 C396 1.391 . S
C398 C399 1.400 . S
C399 C393 1.491 . S
C399 C398 1.400 . S
C399 C400 1.398 . S
C400 H388 0.950 . S
C400 C399 1.398 . S
C400 C401 1.391 . S
C401 H389 0.950 . S
C401 C397 1.393 . S
C401 C400 1.391 . S
H402 C410 0.950 . S
H403 C415 0.950 . S
H404 C412 0.950 . S
H405 C414 0.950 . S
H406 C416 0.950 . S
H407 C418 0.950 . S
H408 C420 0.950 . S
H409 C421 0.950 . S
C410 H402 0.950 . S
C410 C411 1.386 . S
C410 C412 1.391 . S
C411 C410 1.386 . S
C411 C415 1.393 . S
C412 H404 0.950 . S
C412 C410 1.391 . S
C412 C413 1.400 . S
C413 C412 1.400 . S
C413 C414 1.398 . S
C413 C419 1.491 . S
C414 H405 0.950 . S
C414 C413 1.398 . S
C414 C415 1.391 . S
C415 H403 0.950 . S
C415 C411 1.393 . S
C415 C414 1.391 . S
C416 H406 0.950 . S
C416 C417 1.386 . S
C416 C418 1.391 . S
C417 C416 1.386 . S
C417 C421 1.393 . S
C418 H407 0.950 . S
C418 C416 1.391 . S
C418 C419 1.400 . S
C419 C413 1.491 . S
C419 C418 1.400 . S
C419 C420 1.398 . S
C420 H408 0.950 . S
C420 C419 1.398 . S
C420 C421 1.391 . S
C421 H409 0.950 . S
C421 C417 1.393 . S
C421 C420 1.391 . S
H422 C430 0.950 . S
H423 C435 0.950 . S
H424 C432 0.950 . S
H425 C434 0.950 . S
H426 C436 0.950 . S
H427 C438 0.950 . S
H428 C440 0.950 . S
H429 C441 0.950 . S
C430 H422 0.950 . S
C430 C431 1.386 . S
C430 C432 1.391 . S
C431 C430 1.386 . S
C431 C435 1.393 . S
C432 H424 0.950 . S
C432 C430 1.391 . S
C432 C433 1.400 . S
C433 C432 1.400 . S
C433 C434 1.398 . S
C433 C439 1.491 . S
C434 H425 0.950 . S
C434 C433 1.398 . S
C434 C435 1.391 . S
C435 H423 0.950 . S
C435 C431 1.393 . S
C435 C434 1.391 . S
C436 H426 0.950 . S
C436 C437 1.386 . S
C436 C438 1.391 . S
C437 C436 1.386 . S
C437 C441 1.393 . S
C438 H427 0.950 . S
C438 C436 1.391 . S
C438 C439 1.400 . S
C439 C433 1.491 . S
C439 C438 1.400 . S
C439 C440 1.398 . S
C440 H428 0.950 . S
C440 C439 1.398 . S
C440 C441 1.391 . S
C441 H429 0.950 . S
C441 C437 1.393 . S
C441 C440 1.391 . S
C217 C176 1.391 . S
C211 C135 1.541 . S
C231 C15 1.558 . S
C237 C197 1.386 . S
C251 C55 1.703 . S
C257 C173 1.487 . S
C271 C95 1.714 . S
C277 C194 1.505 . S
C297 C178 1.661 . S
C291 C2 1.687 . S
C317 C198 1.584 . S
C311 C42 1.591 . S
C331 C82 1.587 . S
C337 C174 1.497 . S
C351 C141 1.669 . S
C357 C196 1.588 . S
C377 C195 1.549 . S
C371 C61 1.560 . S
C397 C177 1.625 . S
C391 C101 1.651 . S
C417 C199 1.697 . S
C411 C122 1.709 . S
C431 C21 1.693 . S
C437 C175 1.587 . S
