# Generated by pormake.
# Topology gar, (4,6)-cn, num edge types: 1
# Building blocks:
#     Node 0, Type 0, BuildingBlock: TATPOV_clean_sbu_0, # of connection points: 4
#     Node 1, Type 0, BuildingBlock: TATPOV_clean_sbu_0, # of connection points: 4
#     Node 2, Type 0, BuildingBlock: TATPOV_clean_sbu_0, # of connection points: 4
#     Node 3, Type 0, BuildingBlock: TATPOV_clean_sbu_0, # of connection points: 4
#     Node 4, Type 0, BuildingBlock: TATPOV_clean_sbu_0, # of connection points: 4
#     Node 5, Type 0, BuildingBlock: TATPOV_clean_sbu_0, # of connection points: 4
#     Node 6, Type 0, BuildingBlock: TATPOV_clean_sbu_0, # of connection points: 4
#     Node 7, Type 0, BuildingBlock: TATPOV_clean_sbu_0, # of connection points: 4
#     Node 8, Type 0, BuildingBlock: TATPOV_clean_sbu_0, # of connection points: 4
#     Node 9, Type 0, BuildingBlock: TATPOV_clean_sbu_0, # of connection points: 4
#     Node 10, Type 0, BuildingBlock: TATPOV_clean_sbu_0, # of connection points: 4
#     Node 11, Type 0, BuildingBlock: TATPOV_clean_sbu_0, # of connection points: 4
#     Node 12, Type 0, BuildingBlock: TATPOV_clean_sbu_0, # of connection points: 4
#     Node 13, Type 0, BuildingBlock: TATPOV_clean_sbu_0, # of connection points: 4
#     Node 14, Type 0, BuildingBlock: TATPOV_clean_sbu_0, # of connection points: 4
#     Node 15, Type 0, BuildingBlock: TATPOV_clean_sbu_0, # of connection points: 4
#     Node 16, Type 0, BuildingBlock: TATPOV_clean_sbu_0, # of connection points: 4
#     Node 17, Type 0, BuildingBlock: TATPOV_clean_sbu_0, # of connection points: 4
#     Node 18, Type 0, BuildingBlock: TATPOV_clean_sbu_0, # of connection points: 4
#     Node 19, Type 0, BuildingBlock: TATPOV_clean_sbu_0, # of connection points: 4
#     Node 20, Type 0, BuildingBlock: TATPOV_clean_sbu_0, # of connection points: 4
#     Node 21, Type 0, BuildingBlock: TATPOV_clean_sbu_0, # of connection points: 4
#     Node 22, Type 0, BuildingBlock: TATPOV_clean_sbu_0, # of connection points: 4
#     Node 23, Type 0, BuildingBlock: TATPOV_clean_sbu_0, # of connection points: 4
#     Node 24, Type 1, BuildingBlock: BETDIP_clean_sbu_0, # of connection points: 6
#     Node 25, Type 1, BuildingBlock: BETDIP_clean_sbu_0, # of connection points: 6
#     Node 26, Type 1, BuildingBlock: BETDIP_clean_sbu_0, # of connection points: 6
#     Node 27, Type 1, BuildingBlock: BETDIP_clean_sbu_0, # of connection points: 6
#     Node 28, Type 1, BuildingBlock: BETDIP_clean_sbu_0, # of connection points: 6
#     Node 29, Type 1, BuildingBlock: BETDIP_clean_sbu_0, # of connection points: 6
#     Node 30, Type 1, BuildingBlock: BETDIP_clean_sbu_0, # of connection points: 6
#     Node 31, Type 1, BuildingBlock: BETDIP_clean_sbu_0, # of connection points: 6
#     Node 32, Type 1, BuildingBlock: BETDIP_clean_sbu_0, # of connection points: 6
#     Node 33, Type 1, BuildingBlock: BETDIP_clean_sbu_0, # of connection points: 6
#     Node 34, Type 1, BuildingBlock: BETDIP_clean_sbu_0, # of connection points: 6
#     Node 35, Type 1, BuildingBlock: BETDIP_clean_sbu_0, # of connection points: 6
#     Node 36, Type 1, BuildingBlock: BETDIP_clean_sbu_0, # of connection points: 6
#     Node 37, Type 1, BuildingBlock: BETDIP_clean_sbu_0, # of connection points: 6
#     Node 38, Type 1, BuildingBlock: BETDIP_clean_sbu_0, # of connection points: 6
#     Node 39, Type 1, BuildingBlock: BETDIP_clean_sbu_0, # of connection points: 6
#     Edge 40, Type (0, 1), BuildingBlock: XIVTED_clean_linker_0, # of connection points: 2
#     Edge 41, Type (0, 1), BuildingBlock: XIVTED_clean_linker_0, # of connection points: 2
#     Edge 42, Type (0, 1), BuildingBlock: XIVTED_clean_linker_0, # of connection points: 2
#     Edge 43, Type (0, 1), BuildingBlock: XIVTED_clean_linker_0, # of connection points: 2
#     Edge 44, Type (0, 1), BuildingBlock: XIVTED_clean_linker_0, # of connection points: 2
#     Edge 45, Type (0, 1), BuildingBlock: XIVTED_clean_linker_0, # of connection points: 2
#     Edge 46, Type (0, 1), BuildingBlock: XIVTED_clean_linker_0, # of connection points: 2
#     Edge 47, Type (0, 1), BuildingBlock: XIVTED_clean_linker_0, # of connection points: 2
#     Edge 48, Type (0, 1), BuildingBlock: XIVTED_clean_linker_0, # of connection points: 2
#     Edge 49, Type (0, 1), BuildingBlock: XIVTED_clean_linker_0, # of connection points: 2
#     Edge 50, Type (0, 1), BuildingBlock: XIVTED_clean_linker_0, # of connection points: 2
#     Edge 51, Type (0, 1), BuildingBlock: XIVTED_clean_linker_0, # of connection points: 2
#     Edge 52, Type (0, 1), BuildingBlock: XIVTED_clean_linker_0, # of connection points: 2
#     Edge 53, Type (0, 1), BuildingBlock: XIVTED_clean_linker_0, # of connection points: 2
#     Edge 54, Type (0, 1), BuildingBlock: XIVTED_clean_linker_0, # of connection points: 2
#     Edge 55, Type (0, 1), BuildingBlock: XIVTED_clean_linker_0, # of connection points: 2
#     Edge 56, Type (0, 1), BuildingBlock: XIVTED_clean_linker_0, # of connection points: 2
#     Edge 57, Type (0, 1), BuildingBlock: XIVTED_clean_linker_0, # of connection points: 2
#     Edge 58, Type (0, 1), BuildingBlock: XIVTED_clean_linker_0, # of connection points: 2
#     Edge 59, Type (0, 1), BuildingBlock: XIVTED_clean_linker_0, # of connection points: 2
#     Edge 60, Type (0, 1), BuildingBlock: XIVTED_clean_linker_0, # of connection points: 2
#     Edge 61, Type (0, 1), BuildingBlock: XIVTED_clean_linker_0, # of connection points: 2
#     Edge 62, Type (0, 1), BuildingBlock: XIVTED_clean_linker_0, # of connection points: 2
#     Edge 63, Type (0, 1), BuildingBlock: XIVTED_clean_linker_0, # of connection points: 2
#     Edge 64, Type (0, 1), BuildingBlock: XIVTED_clean_linker_0, # of connection points: 2
#     Edge 65, Type (0, 1), BuildingBlock: XIVTED_clean_linker_0, # of connection points: 2
#     Edge 66, Type (0, 1), BuildingBlock: XIVTED_clean_linker_0, # of connection points: 2
#     Edge 67, Type (0, 1), BuildingBlock: XIVTED_clean_linker_0, # of connection points: 2
#     Edge 68, Type (0, 1), BuildingBlock: XIVTED_clean_linker_0, # of connection points: 2
#     Edge 69, Type (0, 1), BuildingBlock: XIVTED_clean_linker_0, # of connection points: 2
#     Edge 70, Type (0, 1), BuildingBlock: XIVTED_clean_linker_0, # of connection points: 2
#     Edge 71, Type (0, 1), BuildingBlock: XIVTED_clean_linker_0, # of connection points: 2
#     Edge 72, Type (0, 1), BuildingBlock: XIVTED_clean_linker_0, # of connection points: 2
#     Edge 73, Type (0, 1), BuildingBlock: XIVTED_clean_linker_0, # of connection points: 2
#     Edge 74, Type (0, 1), BuildingBlock: XIVTED_clean_linker_0, # of connection points: 2
#     Edge 75, Type (0, 1), BuildingBlock: XIVTED_clean_linker_0, # of connection points: 2
#     Edge 76, Type (0, 1), BuildingBlock: XIVTED_clean_linker_0, # of connection points: 2
#     Edge 77, Type (0, 1), BuildingBlock: XIVTED_clean_linker_0, # of connection points: 2
#     Edge 78, Type (0, 1), BuildingBlock: XIVTED_clean_linker_0, # of connection points: 2
#     Edge 79, Type (0, 1), BuildingBlock: XIVTED_clean_linker_0, # of connection points: 2
#     Edge 80, Type (0, 1), BuildingBlock: XIVTED_clean_linker_0, # of connection points: 2
#     Edge 81, Type (0, 1), BuildingBlock: XIVTED_clean_linker_0, # of connection points: 2
#     Edge 82, Type (0, 1), BuildingBlock: XIVTED_clean_linker_0, # of connection points: 2
#     Edge 83, Type (0, 1), BuildingBlock: XIVTED_clean_linker_0, # of connection points: 2
#     Edge 84, Type (0, 1), BuildingBlock: XIVTED_clean_linker_0, # of connection points: 2
#     Edge 85, Type (0, 1), BuildingBlock: XIVTED_clean_linker_0, # of connection points: 2
#     Edge 86, Type (0, 1), BuildingBlock: XIVTED_clean_linker_0, # of connection points: 2
#     Edge 87, Type (0, 1), BuildingBlock: XIVTED_clean_linker_0, # of connection points: 2
#     Edge 88, Type (0, 1), BuildingBlock: XIVTED_clean_linker_0, # of connection points: 2
#     Edge 89, Type (0, 1), BuildingBlock: XIVTED_clean_linker_0, # of connection points: 2
#     Edge 90, Type (0, 1), BuildingBlock: XIVTED_clean_linker_0, # of connection points: 2
#     Edge 91, Type (0, 1), BuildingBlock: XIVTED_clean_linker_0, # of connection points: 2
#     Edge 92, Type (0, 1), BuildingBlock: XIVTED_clean_linker_0, # of connection points: 2
#     Edge 93, Type (0, 1), BuildingBlock: XIVTED_clean_linker_0, # of connection points: 2
#     Edge 94, Type (0, 1), BuildingBlock: XIVTED_clean_linker_0, # of connection points: 2
#     Edge 95, Type (0, 1), BuildingBlock: XIVTED_clean_linker_0, # of connection points: 2
#     Edge 96, Type (0, 1), BuildingBlock: XIVTED_clean_linker_0, # of connection points: 2
#     Edge 97, Type (0, 1), BuildingBlock: XIVTED_clean_linker_0, # of connection points: 2
#     Edge 98, Type (0, 1), BuildingBlock: XIVTED_clean_linker_0, # of connection points: 2
#     Edge 99, Type (0, 1), BuildingBlock: XIVTED_clean_linker_0, # of connection points: 2
#     Edge 100, Type (0, 1), BuildingBlock: XIVTED_clean_linker_0, # of connection points: 2
#     Edge 101, Type (0, 1), BuildingBlock: XIVTED_clean_linker_0, # of connection points: 2
#     Edge 102, Type (0, 1), BuildingBlock: XIVTED_clean_linker_0, # of connection points: 2
#     Edge 103, Type (0, 1), BuildingBlock: XIVTED_clean_linker_0, # of connection points: 2
#     Edge 104, Type (0, 1), BuildingBlock: XIVTED_clean_linker_0, # of connection points: 2
#     Edge 105, Type (0, 1), BuildingBlock: XIVTED_clean_linker_0, # of connection points: 2
#     Edge 106, Type (0, 1), BuildingBlock: XIVTED_clean_linker_0, # of connection points: 2
#     Edge 107, Type (0, 1), BuildingBlock: XIVTED_clean_linker_0, # of connection points: 2
#     Edge 108, Type (0, 1), BuildingBlock: XIVTED_clean_linker_0, # of connection points: 2
#     Edge 109, Type (0, 1), BuildingBlock: XIVTED_clean_linker_0, # of connection points: 2
#     Edge 110, Type (0, 1), BuildingBlock: XIVTED_clean_linker_0, # of connection points: 2
#     Edge 111, Type (0, 1), BuildingBlock: XIVTED_clean_linker_0, # of connection points: 2
#     Edge 112, Type (0, 1), BuildingBlock: XIVTED_clean_linker_0, # of connection points: 2
#     Edge 113, Type (0, 1), BuildingBlock: XIVTED_clean_linker_0, # of connection points: 2
#     Edge 114, Type (0, 1), BuildingBlock: XIVTED_clean_linker_0, # of connection points: 2
#     Edge 115, Type (0, 1), BuildingBlock: XIVTED_clean_linker_0, # of connection points: 2
#     Edge 116, Type (0, 1), BuildingBlock: XIVTED_clean_linker_0, # of connection points: 2
#     Edge 117, Type (0, 1), BuildingBlock: XIVTED_clean_linker_0, # of connection points: 2
#     Edge 118, Type (0, 1), BuildingBlock: XIVTED_clean_linker_0, # of connection points: 2
#     Edge 119, Type (0, 1), BuildingBlock: XIVTED_clean_linker_0, # of connection points: 2
#     Edge 120, Type (0, 1), BuildingBlock: XIVTED_clean_linker_0, # of connection points: 2
#     Edge 121, Type (0, 1), BuildingBlock: XIVTED_clean_linker_0, # of connection points: 2
#     Edge 122, Type (0, 1), BuildingBlock: XIVTED_clean_linker_0, # of connection points: 2
#     Edge 123, Type (0, 1), BuildingBlock: XIVTED_clean_linker_0, # of connection points: 2
#     Edge 124, Type (0, 1), BuildingBlock: XIVTED_clean_linker_0, # of connection points: 2
#     Edge 125, Type (0, 1), BuildingBlock: XIVTED_clean_linker_0, # of connection points: 2
#     Edge 126, Type (0, 1), BuildingBlock: XIVTED_clean_linker_0, # of connection points: 2
#     Edge 127, Type (0, 1), BuildingBlock: XIVTED_clean_linker_0, # of connection points: 2
#     Edge 128, Type (0, 1), BuildingBlock: XIVTED_clean_linker_0, # of connection points: 2
#     Edge 129, Type (0, 1), BuildingBlock: XIVTED_clean_linker_0, # of connection points: 2
#     Edge 130, Type (0, 1), BuildingBlock: XIVTED_clean_linker_0, # of connection points: 2
#     Edge 131, Type (0, 1), BuildingBlock: XIVTED_clean_linker_0, # of connection points: 2
#     Edge 132, Type (0, 1), BuildingBlock: XIVTED_clean_linker_0, # of connection points: 2
#     Edge 133, Type (0, 1), BuildingBlock: XIVTED_clean_linker_0, # of connection points: 2
#     Edge 134, Type (0, 1), BuildingBlock: XIVTED_clean_linker_0, # of connection points: 2
#     Edge 135, Type (0, 1), BuildingBlock: XIVTED_clean_linker_0, # of connection points: 2
# Relax obj value: 0.198
# Max RMSD: 0.310
# Mean RMSD: 0.166
data_MOF--net-gar--node1-TATPOV_clean_sbu_0--node2-BETDIP_clean_sbu_0--edge1-XIVTED_clean_linker_0
_symmetry_space_group_name_H-M    P1
_symmetry_Int_Tables_number       1
_symmetry_cell_setting            triclinic
loop_
_symmetry_equiv_pos_as_xyz
'x, y, z'
_cell_length_a     63.490623
_cell_length_b     57.079532
_cell_length_c     55.119629
_cell_angle_alpha  98.001969
_cell_angle_beta   99.245732
_cell_angle_gamma 102.50442
loop_
_atom_site_label
_atom_site_type_symbol
_atom_site_fract_x
_atom_site_fract_y
_atom_site_fract_z
_atom_type_partial_charge
Zn0 Zn 1.00206 0.27364 0.43485 0.0
Zn1 Zn 0.03065 0.30067 0.41111 0.0
O2 O 0.03146 0.32529 0.44163 0.0
O3 O 1.00976 0.30377 0.46234 0.0
O4 O 0.05293 0.3166 0.39266 0.0
O5 O 0.01952 0.24811 0.43438 0.0
O6 O 0.0434 0.27185 0.41796 0.0
C7 C 0.02212 0.3238 0.46034 0.0
C8 C 0.98173 0.2822 0.38764 0.0
O9 O 1.00114 0.29392 0.38736 0.0
O10 O 0.97787 0.27134 0.40557 0.0
C11 C 0.05117 0.30761 0.36978 0.0
O12 O 0.03326 0.29099 0.35834 0.0
C13 C 0.03728 0.2524 0.42633 0.0
Zn14 Zn 0.07034 0.72527 0.75369 0.0
Zn15 Zn 0.06339 0.75649 0.7217 0.0
O16 O 0.0451 0.76218 0.74795 0.0
O17 O 0.04851 0.73636 0.77361 0.0
O18 O 0.05656 0.77863 0.69827 0.0
O19 O 0.10286 0.74325 0.75921 0.0
O20 O 0.09626 0.76805 0.73322 0.0
C21 C 0.04031 0.75333 0.76686 0.0
C22 C 0.05566 0.70196 0.70188 0.0
O23 O 0.05563 0.72358 0.69867 0.0
O24 O 0.06035 0.69754 0.72376 0.0
C25 C 0.03772 0.78301 0.69331 0.0
O26 O 0.02192 0.77293 0.70407 0.0
C27 C 0.10974 0.76035 0.7478 0.0
Zn28 Zn 0.49772 0.78849 0.954 0.0
Zn29 Zn 0.52004 0.79897 0.92022 0.0
O30 O 0.51755 0.83348 0.93426 0.0
O31 O 0.49382 0.82256 0.95816 0.0
O32 O 0.53916 0.80208 0.89418 0.0
O33 O 0.52188 0.78062 0.97654 0.0
O34 O 0.53836 0.78307 0.94453 0.0
C35 C 0.50468 0.83889 0.94853 0.0
C36 C 0.47362 0.76438 0.90751 0.0
O37 O 0.48949 0.77857 0.90123 0.0
O38 O 0.47447 0.76231 0.93017 0.0
C39 C 0.54022 0.78194 0.88183 0.0
O40 O 0.52758 0.76163 0.88519 0.0
C41 C 0.53788 0.77815 0.9663 0.0
Zn42 Zn 0.58767 0.23842 0.26766 0.0
Zn43 Zn 0.57525 0.26569 0.23343 0.0
O44 O 0.55772 0.27039 0.26053 0.0
O45 O 0.56565 0.24807 0.28853 0.0
O46 O 0.56387 0.28555 0.20975 0.0
O47 O 0.61901 0.25916 0.26944 0.0
O48 O 0.60778 0.28098 0.2423 0.0
C49 C 0.55499 0.26279 0.28066 0.0
C50 C 0.57237 0.21134 0.21723 0.0
O51 O 0.57006 0.23195 0.21254 0.0
O52 O 0.57843 0.20877 0.23957 0.0
C53 C 0.54542 0.27782 0.19477 0.0
O54 O 0.53367 0.25562 0.19388 0.0
C55 C 0.62327 0.27556 0.2563 0.0
Zn56 Zn 0.111 0.81239 0.14362 0.0
Zn57 Zn 0.07903 0.80778 0.16929 0.0
O58 O 0.07704 0.83763 0.15119 0.0
O59 O 0.1035 0.84043 0.12959 0.0
O60 O 0.05394 0.80571 0.18868 0.0
O61 O 0.09811 0.77798 0.1251 0.0
O62 O 0.0712 0.77403 0.14605 0.0
C63 C 0.08771 0.84812 0.13624 0.0
C64 C 0.12787 0.81615 0.1953 0.0
O65 O 0.10743 0.81143 0.1963 0.0
O66 O 0.1339 0.81869 0.17485 0.0
C67 C 0.0343 0.80318 0.17707 0.0
O68 O 0.03068 0.80193 0.15271 0.0
C69 C 0.08083 0.76507 0.12973 0.0
Zn70 Zn 0.47494 0.75502 0.46616 0.0
Zn71 Zn 0.50757 0.76027 0.4407 0.0
O72 O 0.51524 0.79363 0.46439 0.0
O73 O 0.48786 0.78963 0.48466 0.0
O74 O 0.53302 0.76177 0.42188 0.0
O75 O 0.4827 0.72679 0.48001 0.0
O76 O 0.50919 0.73032 0.45846 0.0
C77 C 0.50535 0.80253 0.48043 0.0
C78 C 0.45904 0.75206 0.41405 0.0
O79 O 0.47956 0.75706 0.41346 0.0
O80 O 0.45269 0.74893 0.43423 0.0
C81 C 0.54493 0.78156 0.41836 0.0
O82 O 0.54041 0.80233 0.42636 0.0
C83 C 0.49862 0.71945 0.47325 0.0
Zn84 Zn 0.60364 0.30465 0.63487 0.0
Zn85 Zn 0.57568 0.30584 0.66586 0.0
O86 O 0.57434 0.3348 0.64619 0.0
O87 O 0.59871 0.33414 0.622 0.0
O88 O 0.55167 0.30695 0.6867 0.0
O89 O 0.58693 0.2712 0.61658 0.0
O90 O 0.56631 0.27069 0.64515 0.0
C91 C 0.58451 0.34385 0.63009 0.0
C92 C 0.62431 0.31044 0.6869 0.0
O93 O 0.60502 0.31011 0.69107 0.0
O94 O 0.62763 0.30844 0.66474 0.0
C95 C 0.54116 0.28808 0.69347 0.0
O96 O 0.54652 0.26728 0.68795 0.0
C97 C 0.57184 0.25997 0.62615 0.0
Zn98 Zn 0.9858 0.26498 0.97665 0.0
Zn99 Zn 1.01054 0.26322 0.9421 0.0
O100 O 0.02155 0.29814 0.96323 0.0
O101 O 1.00415 0.29794 0.99472 0.0
O102 O 0.03293 0.26149 0.91922 0.0
O103 O 0.99062 0.23449 0.98757 0.0
O104 O 0.01239 0.23352 0.96032 0.0
C105 C 0.01801 0.30897 0.98347 0.0
C106 C 0.96176 0.26068 0.9259 0.0
O107 O 0.98014 0.2601 0.91946 0.0
O108 O 0.96037 0.26274 0.94874 0.0
C109 C 0.0447 0.28032 0.91366 0.0
O110 O 0.04149 0.30184 0.9215 0.0
C111 C 1.00347 0.2243 0.97716 0.0
Zn112 Zn 0.44278 0.02906 0.29282 0.0
Zn113 Zn 0.41976 0.06136 0.29388 0.0
O114 O 0.44004 0.06526 0.3321 0.0
O115 O 0.45998 0.0383 0.32809 0.0
O116 O 0.40452 0.09376 0.29565 0.0
O117 O 0.45768 0.03635 0.26458 0.0
O118 O 0.43699 0.06241 0.26053 0.0
C119 C 0.45452 0.0546 0.34194 0.0
C120 C 0.39709 1.00454 0.28641 0.0
O121 O 0.39477 0.02669 0.28946 0.0
O122 O 0.41599 1.00092 0.2859 0.0
C123 C 0.38413 0.09491 0.29057 0.0
O124 O 0.3692 0.07413 0.28315 0.0
C125 C 0.45124 0.05158 0.25247 0.0
Zn126 Zn 0.23721 0.19032 0.52466 0.0
Zn127 Zn 0.26437 0.16284 0.52448 0.0
O128 O 0.26874 0.18302 0.4954 0.0
O129 O 0.24462 0.20547 0.49612 0.0
O130 O 0.28818 0.14351 0.52412 0.0
O131 O 0.25084 0.20818 0.55892 0.0
O132 O 0.27303 0.18351 0.56058 0.0
C133 C 0.2599 0.19912 0.48685 0.0
C134 C 0.21479 0.14068 0.52045 0.0
O135 O 0.23406 0.13718 0.52052 0.0
O136 O 0.21182 0.16195 0.52129 0.0
C137 C 0.29501 0.13468 0.54304 0.0
O138 O 0.28562 0.13688 0.56254 0.0
C139 C 0.26598 0.20083 0.57111 0.0
Zn140 Zn 0.12136 0.08059 0.82893 0.0
Zn141 Zn 0.14527 0.04764 0.82519 0.0
O142 O 0.13218 0.04366 0.85703 0.0
O143 O 0.11368 0.07196 0.86096 0.0
O144 O 0.16356 0.02266 0.82453 0.0
O145 O 0.10243 0.06352 0.79546 0.0
O146 O 0.12316 0.03746 0.79139 0.0
C147 C 0.12051 0.0547 0.869 0.0
C148 C 0.16659 0.10238 0.82937 0.0
O149 O 0.16814 0.0803 0.82742 0.0
O150 O 0.14822 0.10734 0.83041 0.0
C151 C 0.15712 1.00238 0.83143 0.0
O152 O 0.13793 0.99732 0.83811 0.0
C153 C 0.10696 0.04573 0.78264 0.0
Zn154 Zn 0.31355 0.89053 0.97965 0.0
Zn155 Zn 0.27523 0.90268 0.98236 0.0
O156 O 0.2645 0.87153 0.95581 0.0
O157 O 0.29528 0.85928 0.95768 0.0
O158 O 0.24826 0.91333 0.98834 0.0
O159 O 0.32009 0.89123 0.01692 0.0
O160 O 0.28693 0.89693 0.01696 0.0
C161 C 0.27481 0.8556 0.94945 0.0
C162 C 0.31218 0.93686 0.96586 0.0
O163 O 0.29382 0.9326 0.97287 0.0
O164 O 0.32341 0.92103 0.96542 0.0
C165 C 0.24034 0.92813 0.97667 0.0
O166 O 0.24881 0.93534 0.95793 0.0
C167 C 0.30471 0.89342 0.02843 0.0
Zn168 Zn 0.34893 0.37041 0.07427 0.0
Zn169 Zn 0.32912 0.4054 0.08155 0.0
O170 O 0.3166 0.38668 0.04497 0.0
O171 O 0.32955 0.35384 0.04171 0.0
O172 O 0.30846 0.42845 0.08561 0.0
O173 O 0.34365 0.35726 0.10454 0.0
O174 O 0.32522 0.38533 0.11084 0.0
C175 C 0.31758 0.36659 0.03233 0.0
C176 C 0.37759 0.41856 0.07845 0.0
O177 O 0.361 0.42639 0.08323 0.0
O178 O 0.37618 0.39584 0.07418 0.0
C179 C 0.29993 0.43655 0.06694 0.0
O180 O 0.30621 0.4319 0.04558 0.0
C181 C 0.33194 0.36706 0.11724 0.0
Zn182 Zn 0.77998 0.15654 0.10722 0.0
Zn183 Zn 0.80119 0.1409 0.07228 0.0
O184 O 0.77754 0.15209 0.05123 0.0
O185 O 0.76179 0.16874 0.07965 0.0
O186 O 0.81802 0.12866 0.04772 0.0
O187 O 0.80835 0.17914 0.12626 0.0
O188 O 0.82393 0.17047 0.09433 0.0
C189 C 0.7637 0.16391 0.05705 0.0
C190 C 0.77817 0.10584 0.10305 0.0
O191 O 0.78979 0.11034 0.08669 0.0
O192 O 0.77139 0.12264 0.11451 0.0
C193 C 0.80967 0.1091 0.03188 0.0
O194 O 0.78934 0.09716 0.03114 0.0
C195 C 0.82462 0.18302 0.11553 0.0
Zn196 Zn 0.15176 0.54547 0.32585 0.0
Zn197 Zn 0.17295 0.51228 0.32326 0.0
O198 O 0.15604 0.51214 0.3574 0.0
O199 O 0.1351 0.53788 0.35289 0.0
O200 O 0.1892 0.48042 0.32199 0.0
O201 O 0.13662 0.53847 0.28974 0.0
O202 O 0.15179 0.50733 0.28525 0.0
C203 C 0.14161 0.52289 0.36532 0.0
C204 C 0.19641 0.56934 0.33033 0.0
O205 O 0.19773 0.5469 0.32544 0.0
O206 O 0.17839 0.57364 0.33413 0.0
C207 C 0.20977 0.48007 0.3236 0.0
O208 O 0.22401 0.50121 0.32654 0.0
C209 C 0.13961 0.52056 0.2756 0.0
Zn210 Zn 0.84662 0.87068 0.57879 0.0
Zn211 Zn 0.82003 0.89867 0.57931 0.0
O212 O 0.80932 0.87585 0.54428 0.0
O213 O 0.83053 0.85016 0.54644 0.0
O214 O 0.79705 0.91908 0.57929 0.0
O215 O 0.84142 0.85875 0.60971 0.0
O216 O 0.81694 0.88075 0.61023 0.0
C217 C 0.81507 0.85719 0.53447 0.0
C218 C 0.86919 0.91941 0.57906 0.0
O219 O 0.85037 0.92348 0.5807 0.0
O220 O 0.87185 0.89801 0.57818 0.0
C221 C 0.77683 0.90807 0.57649 0.0
O222 O 0.77167 0.88421 0.57437 0.0
C223 C 0.82658 0.86555 0.6195 0.0
Zn224 Zn 0.96328 0.98737 0.27534 0.0
Zn225 Zn 0.93854 0.01872 0.27727 0.0
O226 O 0.96019 0.03009 0.31165 0.0
O227 O 0.98311 1.00659 0.30719 0.0
O228 O 0.91949 0.04291 0.27525 0.0
O229 O 0.96954 0.99303 0.24191 0.0
O230 O 0.95212 0.0223 0.24574 0.0
C231 C 0.97744 0.0234 0.32018 0.0
C232 C 0.91911 0.96445 0.27719 0.0
O233 O 0.91631 0.98575 0.27586 0.0
O234 O 0.93801 0.96045 0.27782 0.0
C235 C 0.92833 0.06533 0.27611 0.0
O236 O 0.94989 0.07262 0.28017 0.0
C237 C 0.96318 1.01045 0.23367 0.0
Zn238 Zn 0.31416 0.72807 0.63248 0.0
Zn239 Zn 0.33926 0.69765 0.62824 0.0
O240 O 0.32433 0.69744 0.59255 0.0
O241 O 0.29946 0.71841 0.59639 0.0
O242 O 0.35733 0.67386 0.62187 0.0
O243 O 0.34146 0.75561 0.64321 0.0
O244 O 0.3616 0.72902 0.6468 0.0
C245 C 0.30818 0.70514 0.58281 0.0
C246 C 0.30398 0.68942 0.65964 0.0
O247 O 0.31811 0.68183 0.64878 0.0
O248 O 0.3004 0.71007 0.65737 0.0
C249 C 0.34744 0.65263 0.60987 0.0
O250 O 0.32584 0.64677 0.60383 0.0
C251 C 0.35996 0.75102 0.64983 0.0
Zn252 Zn 0.46334 0.47022 0.76622 0.0
Zn253 Zn 0.44298 0.5058 0.77362 0.0
O254 O 0.46571 0.51312 0.80689 0.0
O255 O 0.48336 0.48444 0.79968 0.0
O256 O 0.42638 0.53234 0.77579 0.0
O257 O 0.47144 0.47966 0.73476 0.0
O258 O 0.45607 0.51033 0.74176 0.0
C259 C 0.48079 0.50255 0.81401 0.0
C260 C 0.41811 0.45169 0.76718 0.0
O261 O 0.4184 0.47435 0.77091 0.0
O262 O 0.43542 0.44502 0.76426 0.0
C263 C 0.43413 0.55299 0.77032 0.0
O264 O 0.45385 0.55757 0.76489 0.0
C265 C 0.46641 0.49853 0.72852 0.0
Zn266 Zn 0.64787 0.04346 0.82 0.0
Zn267 Zn 0.67048 1.01164 0.81967 0.0
O268 O 0.65351 1.01125 0.85333 0.0
O269 O 0.6315 0.03562 0.84692 0.0
O270 O 0.68985 0.98262 0.81973 0.0
O271 O 0.63274 0.03536 0.78407 0.0
O272 O 0.64948 1.00535 0.78132 0.0
C273 C 0.63854 0.0216 0.8603 0.0
C274 C 0.69213 0.06923 0.82697 0.0
O275 O 0.69441 0.04711 0.82297 0.0
O276 O 0.67337 0.07266 0.82864 0.0
C277 C 0.68263 0.95912 0.81708 0.0
O278 O 0.66125 0.95061 0.81406 0.0
C279 C 0.6365 0.01738 0.77086 0.0
Zn280 Zn 0.73856 0.68238 0.02525 0.0
Zn281 Zn 0.76968 0.66002 0.02727 0.0
O282 O 0.77244 0.67907 0.99727 0.0
O283 O 0.74466 0.69657 0.9958 0.0
O284 O 0.79462 0.64237 0.02841 0.0
O285 O 0.75139 0.70288 0.05848 0.0
O286 O 0.77742 0.68295 0.06223 0.0
C287 C 0.76131 0.69284 0.98756 0.0
C288 C 0.72098 0.63235 0.02304 0.0
O289 O 0.74112 0.63187 0.02377 0.0
O290 O 0.71536 0.65228 0.02307 0.0
C291 C 0.81474 0.6542 0.0333 0.0
O292 O 0.81934 0.67816 0.03727 0.0
C293 C 0.76837 0.69922 0.07124 0.0
Zn294 Zn 0.94169 0.52792 0.7972 0.0
Zn295 Zn 0.92011 0.5618 0.79817 0.0
O296 O 0.94166 0.56668 0.83614 0.0
O297 O 0.95955 0.53774 0.832 0.0
O298 O 0.90451 0.5943 0.79897 0.0
O299 O 0.95639 0.53347 0.7684 0.0
O300 O 0.93701 0.56083 0.76426 0.0
C301 C 0.95562 0.55525 0.84577 0.0
C302 C 0.89608 0.50535 0.79277 0.0
O303 O 0.89464 0.52782 0.7953 0.0
O304 O 0.91451 0.50062 0.79176 0.0
C305 C 0.88396 0.59519 0.79466 0.0
O306 O 0.86918 0.57422 0.78881 0.0
C307 C 0.95058 0.54889 0.75612 0.0
Zn308 Zn 0.75389 0.30938 0.4831 0.0
Zn309 Zn 0.73373 0.34627 0.48039 0.0
O310 O 0.73083 0.33203 0.44336 0.0
O311 O 0.74592 0.30088 0.44564 0.0
O312 O 0.71751 0.37275 0.48083 0.0
O313 O 0.73345 0.29413 0.50396 0.0
O314 O 0.71865 0.32554 0.50321 0.0
C315 C 0.73661 0.31382 0.43271 0.0
C316 C 0.78273 0.35742 0.50277 0.0
O317 O 0.76523 0.36426 0.49623 0.0
O318 O 0.78238 0.33489 0.49955 0.0
C319 C 0.72646 0.395 0.48112 0.0
O320 O 0.74713 0.40127 0.47894 0.0
C321 C 0.71986 0.30569 0.51072 0.0
Zn322 Zn 0.61548 0.58102 0.31987 0.0
Zn323 Zn 0.64241 0.55064 0.31893 0.0
O324 O 0.62981 0.54495 0.35033 0.0
O325 O 0.61024 0.57238 0.35315 0.0
O326 O 0.66259 0.52812 0.31637 0.0
O327 O 0.59656 0.56118 0.28729 0.0
O328 O 0.6203 0.53836 0.28563 0.0
C329 C 0.61774 0.55576 0.36184 0.0
C330 C 0.66002 0.6056 0.32021 0.0
O331 O 0.66322 0.58446 0.3214 0.0
O332 O 0.64081 0.60894 0.31861 0.0
C333 C 0.67491 0.5237 0.33485 0.0
O334 O 0.67468 0.53406 0.3576 0.0
C335 C 0.6029 0.54396 0.27586 0.0
Tb336 Tb 0.01992 0.01673 0.03554 0.0
Tb337 Tb 0.06354 0.04698 0.06606 0.0
C338 C 0.97985 0.99973 0.01643 0.0
C339 C 0.96155 1.01096 0.00959 0.0
C340 C 0.96204 0.03436 0.02183 0.0
C341 C 0.94469 0.04505 0.01535 0.0
C342 C 0.92643 0.03249 0.99658 0.0
C343 C 0.92605 1.00908 0.98419 0.0
C344 C 0.94357 0.99844 0.99061 0.0
C345 C 0.05396 0.01722 0.01351 0.0
C346 C 0.0337 0.07458 0.03751 0.0
C347 C 0.10399 0.06305 0.08313 0.0
C348 C 0.12247 0.05199 0.07984 0.0
C349 C 0.1392 0.06399 0.0689 0.0
C350 C 0.15386 0.05157 0.05995 0.0
C351 C 0.152 0.0269 0.06178 0.0
C352 C 0.13627 0.0155 0.07443 0.0
C353 C 0.12167 0.02795 0.08343 0.0
C354 C 0.0297 0.04634 0.08845 0.0
C355 C 0.04992 0.98928 0.06343 0.0
O356 O 0.98786 1.00288 0.0404 0.0
O357 O 0.99528 1.00324 1.00328 0.0
O358 O 0.05031 0.03467 0.02741 0.0
O359 O 0.03729 0.99856 0.01022 0.0
O360 O 0.01757 0.05455 0.03406 0.0
O361 O 0.05409 0.07528 0.04789 0.0
O362 O 0.09389 0.06796 0.06255 0.0
O363 O 0.09015 0.05293 0.09615 0.0
O364 O 0.03326 0.02905 0.07425 0.0
O365 O 0.04668 0.06473 0.09231 0.0
O366 O 0.0661 1.00886 0.06482 0.0
O367 O 0.02921 0.98902 0.0549 0.0
H368 H 0.97568 0.04426 0.03669 0.0
H369 H 0.94529 0.06288 0.02562 0.0
H370 H 0.9122 0.99902 0.96963 0.0
H371 H 0.94301 0.98038 0.9809 0.0
H372 H 0.14011 0.08253 0.06596 0.0
H373 H 0.16613 0.06101 0.05078 0.0
H374 H 0.13432 0.9965 0.07608 0.0
H375 H 0.10899 0.01828 0.09191 0.0
Tb376 Tb 0.29083 0.77648 0.27553 0.0
Tb377 Tb 0.29969 0.79487 0.3295 0.0
C378 C 0.27849 0.77148 0.2292 0.0
C379 C 0.28377 0.7875 0.21134 0.0
C380 C 0.26777 0.787 0.1905 0.0
C381 C 0.27229 0.80302 0.17401 0.0
C382 C 0.2929 0.81977 0.17819 0.0
C383 C 0.30891 0.82018 0.19912 0.0
C384 C 0.30435 0.80421 0.21563 0.0
C385 C 0.3276 0.7703 0.29999 0.0
C386 C 0.31496 0.83402 0.29759 0.0
C387 C 0.31169 0.79925 0.37567 0.0
C388 C 0.3064 0.78197 0.39235 0.0
C389 C 0.32306 0.7794 0.41098 0.0
C390 C 0.3186 0.76165 0.42569 0.0
C391 C 0.29739 0.74619 0.42192 0.0
C392 C 0.28072 0.74882 0.40322 0.0
C393 C 0.28521 0.76652 0.38847 0.0
C394 C 0.26286 0.80092 0.30493 0.0
C395 C 0.27586 0.73739 0.3079 0.0
O396 O 0.26736 0.77925 0.24532 0.0
O397 O 0.29466 0.76312 0.23962 0.0
O398 O 0.32015 0.78897 0.30358 0.0
O399 O 0.31489 0.75465 0.28128 0.0
O400 O 0.30448 0.81667 0.27791 0.0
O401 O 0.3172 0.82885 0.32038 0.0
O402 O 0.32348 0.7928 0.35968 0.0
O403 O 0.29535 0.80747 0.3654 0.0
O404 O 0.27035 0.78227 0.30147 0.0
O405 O 0.27558 0.81665 0.32358 0.0
O406 O 0.28659 0.7548 0.32735 0.0
O407 O 0.27326 0.74247 0.28503 0.0
H408 H 0.25176 0.77431 0.18705 0.0
H409 H 0.25975 0.80209 0.15781 0.0
H410 H 0.32484 0.83305 0.2029 0.0
H411 H 0.31686 0.80504 0.23182 0.0
H412 H 0.33954 0.79101 0.41402 0.0
H413 H 0.33166 0.76037 0.44035 0.0
H414 H 0.26428 0.73708 0.39985 0.0
H415 H 0.27217 0.76787 0.37381 0.0
Tb416 Tb 0.56522 0.03663 0.55146 0.0
Tb417 Tb 0.5208 0.02769 0.56132 0.0
C418 C 0.60503 0.03752 0.54994 0.0
C419 C 0.62159 0.02295 0.55424 0.0
C420 C 0.64194 0.03411 0.57019 0.0
C421 C 0.65864 0.02165 0.57336 0.0
C422 C 0.65549 0.99765 0.56055 0.0
C423 C 0.63488 0.98629 0.54491 0.0
C424 C 0.61814 0.99879 0.54176 0.0
C425 C 0.5364 0.04576 0.51461 0.0
C426 C 0.53591 0.98236 0.54174 0.0
C427 C 0.48141 0.02745 0.56446 0.0
C428 C 0.46472 0.04204 0.56046 0.0
C429 C 0.45078 0.03884 0.53703 0.0
C430 C 0.43323 0.05018 0.53414 0.0
C431 C 0.42904 0.0649 0.55465 0.0
C432 C 0.44341 0.06865 0.5779 0.0
C433 C 0.46093 0.05731 0.58078 0.0
C434 C 0.55053 0.01954 0.59816 0.0
C435 C 0.54924 0.08159 0.5705 0.0
O436 O 0.5985 0.04685 0.56957 0.0
O437 O 0.58883 0.02944 0.53063 0.0
O438 O 0.53284 0.02839 0.52682 0.0
O439 O 0.55681 0.0575 0.52235 0.0
O440 O 0.55599 0.99675 0.54776 0.0
O441 O 0.51851 0.9912 0.54269 0.0
O442 O 0.48719 0.01703 0.54476 0.0
O443 O 0.49818 0.03612 0.58309 0.0
O444 O 0.55312 0.03662 0.58564 0.0
O445 O 0.53029 1.00715 0.59081 0.0
O446 O 0.52936 0.06711 0.5629 0.0
O447 O 0.56689 0.07293 0.57102 0.0
H448 H 0.64507 0.05271 0.58001 0.0
H449 H 0.67406 0.03091 0.58591 0.0
H450 H 0.63185 0.96793 0.53454 0.0
H451 H 0.60266 0.98968 0.52925 0.0
H452 H 0.45297 0.02694 0.52101 0.0
H453 H 0.42244 0.04661 0.51601 0.0
H454 H 0.44099 0.08016 0.59405 0.0
H455 H 0.47116 0.06003 0.59916 0.0
Tb456 Tb 0.26761 0.28056 0.79813 0.0
Tb457 Tb 0.31646 0.27983 0.80851 0.0
C458 C 0.22612 0.26949 0.78929 0.0
C459 C 0.20835 0.26897 0.80371 0.0
C460 C 0.18777 0.25268 0.79413 0.0
C461 C 0.17029 0.2527 0.80675 0.0
C462 C 0.173 0.26913 0.82923 0.0
C463 C 0.19385 0.28511 0.83905 0.0
C464 C 0.21136 0.28497 0.82647 0.0
C465 C 0.29559 0.31891 0.79052 0.0
C466 C 0.2945 0.30402 0.85134 0.0
C467 C 0.35795 0.29171 0.81701 0.0
C468 C 0.37579 0.29214 0.80263 0.0
C469 C 0.39551 0.31024 0.81081 0.0
C470 C 0.41298 0.31065 0.79813 0.0
C471 C 0.41117 0.29286 0.77695 0.0
C472 C 0.39119 0.27492 0.76856 0.0
C473 C 0.37366 0.27462 0.78121 0.0
C474 C 0.28864 0.24121 0.81577 0.0
C475 C 0.28914 0.25585 0.75523 0.0
O476 O 0.23797 0.2536 0.79237 0.0
O477 O 0.23816 0.29105 0.78857 0.0
O478 O 0.29649 0.29706 0.78601 0.0
O479 O 0.27747 0.32003 0.79811 0.0
O480 O 0.27469 0.29318 0.83799 0.0
O481 O 0.31274 0.30279 0.84274 0.0
O482 O 0.34572 0.30709 0.81313 0.0
O483 O 0.34632 0.27025 0.8187 0.0
O484 O 0.28754 0.26302 0.82039 0.0
O485 O 0.30702 0.24043 0.80866 0.0
O486 O 0.30915 0.26569 0.76869 0.0
O487 O 0.27111 0.25811 0.76379 0.0
H488 H 0.18509 0.24017 0.77661 0.0
H489 H 0.15447 0.2403 0.79849 0.0
H490 H 0.19664 0.29774 0.8565 0.0
H491 H 0.22717 0.29758 0.83437 0.0
H492 H 0.39751 0.32396 0.82727 0.0
H493 H 0.42813 0.32458 0.80531 0.0
H494 H 0.38906 0.26116 0.75213 0.0
H495 H 0.35851 0.26059 0.77435 0.0
Tb496 Tb 0.04751 0.05671 0.55911 0.0
Tb497 Tb 0.03769 1.00207 0.54207 0.0
C498 C 0.06459 0.10129 0.56372 0.0
C499 C 0.07172 0.11563 0.54503 0.0
C500 C 0.09317 0.1305 0.54943 0.0
C501 C 0.10042 0.143 0.53103 0.0
C502 C 0.08632 0.1406 0.5079 0.0
C503 C 0.06499 0.12531 0.50351 0.0
C504 C 0.05779 0.11298 0.52182 0.0
C505 C 1.00814 0.03275 0.56231 0.0
C506 C 0.03159 0.0333 0.50092 0.0
C507 C 0.02248 0.95668 0.53443 0.0
C508 C 0.01957 0.93748 0.54946 0.0
C509 C 0.0179 0.9427 0.57462 0.0
C510 C 0.01669 0.92438 0.58905 0.0
C511 C 0.01727 0.9007 0.57851 0.0
C512 C 0.01831 0.89546 0.55312 0.0
C513 C 0.01944 0.91374 0.53871 0.0
C514 C 0.07694 0.0266 0.53866 0.0
C515 C 0.05262 0.02553 0.60057 0.0
O516 O 0.07592 0.08536 0.5686 0.0
O517 O 0.04333 0.09231 0.56114 0.0
O518 O 0.01846 0.02818 0.54517 0.0
O519 O 0.0192 0.05263 0.57754 0.0
O520 O 0.04172 0.05284 0.51811 0.0
O521 O 0.02593 1.01137 0.50655 0.0
O522 O 1.01046 0.97246 0.53708 0.0
O523 O 0.04289 0.96705 0.53402 0.0
O524 O 0.06667 0.0306 0.55593 0.0
O525 O 0.06568 1.00719 0.52297 0.0
O526 O 0.04439 1.00562 0.58314 0.0
O527 O 0.05699 0.0477 0.59526 0.0
H528 H 0.10431 0.1324 0.56708 0.0
H529 H 0.11692 0.15468 0.53495 0.0
H530 H 0.05345 0.1235 0.4862 0.0
H531 H 0.04123 0.10146 0.51779 0.0
H532 H 0.018 0.96098 0.58323 0.0
H533 H 0.01613 0.92895 0.60864 0.0
H534 H 0.01855 0.87729 0.5445 0.0
H535 H 0.02067 0.90947 0.51928 0.0
Tb536 Tb 0.29449 0.75397 0.77307 0.0
Tb537 Tb 0.29783 0.80132 0.80861 0.0
C538 C 0.29837 0.72179 0.73934 0.0
C539 C 0.31268 0.70449 0.73892 0.0
C540 C 0.30318 0.67929 0.73408 0.0
C541 C 0.31638 0.66267 0.73573 0.0
C542 C 0.33944 0.67092 0.74249 0.0
C543 C 0.34895 0.69616 0.74675 0.0
C544 C 0.33574 0.71276 0.74497 0.0
C545 C 0.26715 0.75148 0.80416 0.0
C546 C 0.32523 0.76305 0.82525 0.0
C547 C 0.29402 0.83317 0.84282 0.0
C548 C 0.2798 0.85038 0.84292 0.0
C549 C 0.2738 0.85942 0.86511 0.0
C550 C 0.26027 0.87583 0.86504 0.0
C551 C 0.25268 0.88353 0.84277 0.0
C552 C 0.25848 0.87405 0.82055 0.0
C553 C 0.27184 0.85761 0.82061 0.0
C554 C 0.32539 0.80432 0.77793 0.0
C555 C 0.26603 0.79126 0.75649 0.0
O556 O 0.30798 0.74503 0.74173 0.0
O557 O 0.28354 0.71802 0.75331 0.0
O558 O 0.27333 0.76868 0.79312 0.0
O559 O 0.27618 0.73387 0.79763 0.0
O560 O 0.32033 0.75088 0.80208 0.0
O561 O 0.31711 0.782 0.83215 0.0
O562 O 0.28385 0.81011 0.83967 0.0
O563 O 0.30907 0.83688 0.82913 0.0
O564 O 0.31926 0.78668 0.78856 0.0
O565 O 0.31684 0.82205 0.7854 0.0
O566 O 0.27168 0.80394 0.77952 0.0
O567 O 0.27455 0.77265 0.7495 0.0
H568 H 0.28545 0.67243 0.72948 0.0
H569 H 0.3085 0.64336 0.73189 0.0
H570 H 0.36661 0.70321 0.75229 0.0
H571 H 0.34363 0.73207 0.749 0.0
H572 H 0.27969 0.8539 0.88246 0.0
H573 H 0.25611 0.88286 0.88247 0.0
H574 H 0.25256 0.87923 0.80301 0.0
H575 H 0.27605 0.85064 0.8032 0.0
Tb576 Tb 0.53228 0.05524 0.04276 0.0
Tb577 Tb 0.55931 0.0286 0.07135 0.0
C578 C 0.50279 0.06945 0.01676 0.0
C579 C 0.4803 0.07223 0.01562 0.0
C580 C 0.46663 0.06047 0.03011 0.0
C581 C 0.44399 0.05847 0.02454 0.0
C582 C 0.43478 0.06808 1.00431 0.0
C583 C 0.44888 0.08182 0.99145 0.0
C584 C 0.4715 0.08383 0.99707 0.0
C585 C 0.56761 0.08349 0.07386 0.0
C586 C 0.52121 0.04342 0.09607 0.0
C587 C 0.58972 0.01472 0.09593 0.0
C588 C 0.60943 1.00652 0.09168 0.0
C589 C 0.62155 0.01565 0.07448 0.0
C590 C 0.64206 1.01091 0.07354 0.0
C591 C 0.65085 0.99684 0.08975 0.0
C592 C 0.63776 0.98605 0.10548 0.0
C593 C 0.61723 0.99096 0.1065 0.0
C594 C 0.52339 1.00078 0.04127 0.0
C595 C 0.5701 0.03959 0.01751 0.0
O596 O 0.50486 0.04696 0.01374 0.0
O597 O 0.51818 0.08402 0.03438 0.0
O598 O 0.55507 0.06452 0.07732 0.0
O599 O 0.5604 0.08694 0.05157 0.0
O600 O 0.51356 0.04826 0.07368 0.0
O601 O 0.54049 0.03763 0.10009 0.0
O602 O 0.59033 0.03763 0.09469 0.0
O603 O 0.57075 1.00005 0.08487 0.0
O604 O 0.53624 0.0191 0.03696 0.0
O605 O 0.53089 0.99746 0.06351 0.0
O606 O 0.57666 0.03245 0.03896 0.0
O607 O 0.55225 0.04829 0.01455 0.0
H608 H 0.4732 0.05138 0.04449 0.0
H609 H 0.43356 0.04755 0.03465 0.0
H610 H 0.44226 0.08958 0.97595 0.0
H611 H 0.48192 0.09305 0.98578 0.0
H612 H 0.61578 0.02762 0.06278 0.0
H613 H 0.65165 0.01987 0.0614 0.0
H614 H 0.64381 0.97482 0.11791 0.0
H615 H 0.60793 0.98352 0.1197 0.0
Tb616 Tb 0.27836 0.27218 0.29841 0.0
Tb617 Tb 0.32197 0.30724 0.31683 0.0
C618 C 0.23964 0.24965 0.29775 0.0
C619 C 0.22068 0.25858 0.30378 0.0
C620 C 0.22392 0.27921 0.32238 0.0
C621 C 0.20619 0.28837 0.32754 0.0
C622 C 0.18466 0.27679 0.31468 0.0
C623 C 0.18141 0.25599 0.29611 0.0
C624 C 0.19932 0.24706 0.29062 0.0
C625 C 0.29677 0.28969 0.26337 0.0
C626 C 0.28072 0.33078 0.31436 0.0
C627 C 0.36084 0.3304 0.31895 0.0
C628 C 0.38242 0.32448 0.32157 0.0
C629 C 0.39885 0.3378 0.31126 0.0
C630 C 0.41909 0.33176 0.31226 0.0
C631 C 0.4234 0.31226 0.32373 0.0
C632 C 0.40685 0.299 0.33423 0.0
C633 C 0.38651 0.30502 0.33309 0.0
C634 C 0.30349 0.28899 0.3517 0.0
C635 C 0.31945 0.24839 0.30061 0.0
O636 O 0.25595 0.25256 0.31664 0.0
O637 O 0.24643 0.25572 0.27775 0.0
O638 O 0.29691 0.30121 0.28463 0.0
O639 O 0.2849 0.26747 0.26054 0.0
O640 O 0.26895 0.30758 0.3098 0.0
O641 O 0.30245 0.33527 0.31596 0.0
O642 O 0.34704 0.32001 0.29796 0.0
O643 O 0.3514 0.32996 0.3384 0.0
O644 O 0.30354 0.27816 0.33031 0.0
O645 O 0.31556 0.31112 0.35504 0.0
O646 O 0.33161 0.27149 0.30738 0.0
O647 O 0.29757 0.24403 0.29679 0.0
H648 H 0.24019 0.28837 0.33301 0.0
H649 H 0.20948 0.30467 0.34159 0.0
H650 H 0.16504 0.24634 0.28609 0.0
H651 H 0.19648 0.2311 0.27622 0.0
H652 H 0.39588 0.35268 0.30202 0.0
H653 H 0.43117 0.34203 0.30344 0.0
H654 H 0.40959 0.284 0.34334 0.0
H655 H 0.37393 0.29436 0.34101 0.0
Tb656 Tb 0.56185 0.53799 0.05165 0.0
Tb657 Tb 0.54932 0.48303 0.03526 0.0
C658 C 0.58324 0.58166 0.0589 0.0
C659 C 0.58405 0.60454 0.04928 0.0
C660 C 0.60204 0.61428 0.03878 0.0
C661 C 0.60411 0.63695 0.03136 0.0
C662 C 0.58838 0.65035 0.03471 0.0
C663 C 0.57026 0.64045 0.04494 0.0
C664 C 0.5681 0.61775 0.05215 0.0
C665 C 0.52109 0.5175 0.05351 0.0
C666 C 0.54439 0.51465 0.9935 0.0
C667 C 0.53339 0.4378 0.02849 0.0
C668 C 0.52526 0.42056 0.04417 0.0
C669 C 0.5181 0.42849 0.06598 0.0
C670 C 0.51329 0.41256 0.0825 0.0
C671 C 0.5156 0.3885 0.07744 0.0
C672 C 0.52165 0.38034 0.05489 0.0
C673 C 0.52648 0.39629 0.03842 0.0
C674 C 0.59024 0.50547 0.03517 0.0
C675 C 0.56221 0.50667 0.09286 0.0
O676 O 0.58787 0.56393 0.04458 0.0
O677 O 0.56699 0.57393 0.07006 0.0
O678 O 0.53174 0.51093 0.0374 0.0
O679 O 0.53239 0.53802 0.06742 0.0
O680 O 0.55249 0.53463 0.01085 0.0
O681 O 0.54057 0.49244 0.99892 0.0
O682 O 0.52171 0.45348 0.02368 0.0
O683 O 0.55452 0.44796 0.0345 0.0
O684 O 0.57888 0.50998 0.05105 0.0
O685 O 0.57889 0.48688 0.01846 0.0
O686 O 0.5504 0.48772 0.07584 0.0
O687 O 0.57218 0.52709 0.08665 0.0
H688 H 0.6147 0.60453 0.0367 0.0
H689 H 0.61821 0.64423 0.02353 0.0
H690 H 0.55768 0.65025 0.04727 0.0
H691 H 0.55409 0.61077 0.06025 0.0
H692 H 0.51695 0.44718 0.07065 0.0
H693 H 0.50844 0.41926 0.0996 0.0
H694 H 0.52388 0.36204 0.05061 0.0
H695 H 0.53207 0.38996 0.02169 0.0
Tb696 Tb 0.80651 0.27902 0.23664 0.0
Tb697 Tb 0.81727 0.33396 0.25523 0.0
C698 C 0.80309 0.2372 0.21272 0.0
C699 C 0.81515 0.21869 0.21852 0.0
C700 C 0.81607 0.1998 0.1998 0.0
C701 C 0.8282 0.18277 0.20554 0.0
C702 C 0.83983 0.18465 0.23003 0.0
C703 C 0.83877 0.2036 0.24867 0.0
C704 C 0.82649 0.22034 0.24299 0.0
C705 C 0.79401 0.2921 0.27847 0.0
C706 C 0.84843 0.30177 0.27816 0.0
C707 C 0.82331 0.37578 0.28051 0.0
C708 C 0.80876 0.39133 0.28803 0.0
C709 C 0.79528 0.3855 0.30534 0.0
C710 C 0.78087 0.39982 0.31123 0.0
C711 C 0.77966 0.42023 0.29994 0.0
C712 C 0.79354 0.42636 0.28314 0.0
C713 C 0.80798 0.41212 0.27732 0.0
C714 C 0.83276 0.31929 0.21577 0.0
C715 C 0.77198 0.309 0.21924 0.0
O716 O 0.81494 0.2571 0.20765 0.0
O717 O 0.79018 0.24196 0.22809 0.0
O718 O 0.79366 0.30309 0.26019 0.0
O719 O 0.79975 0.27186 0.27272 0.0
O720 O 0.83746 0.28257 0.26114 0.0
O721 O 0.84329 0.32321 0.27957 0.0
O722 O 0.82285 0.35612 0.29041 0.0
O723 O 0.82374 0.37176 0.25661 0.0
O724 O 0.83107 0.30966 0.23448 0.0
O725 O 0.82692 0.3397 0.21907 0.0
O726 O 0.78294 0.32732 0.23744 0.0
O727 O 0.78048 0.29025 0.21288 0.0
H728 H 0.80755 0.19832 0.18076 0.0
H729 H 0.82884 0.16845 0.19076 0.0
H730 H 0.84727 0.20535 0.26776 0.0
H731 H 0.82586 0.23463 0.25777 0.0
H732 H 0.79561 0.36973 0.31413 0.0
H733 H 0.77031 0.39457 0.32416 0.0
H734 H 0.79325 0.44223 0.27447 0.0
H735 H 0.81837 0.41721 0.26418 0.0
Tb736 Tb 0.02618 0.531 0.54371 0.0
Tb737 Tb 0.06547 0.52669 0.57904 0.0
C738 C 0.98821 0.52111 0.51737 0.0
C739 C 0.96677 0.50591 0.5195 0.0
C740 C 0.96046 0.48109 0.50839 0.0
C741 C 0.94087 0.46619 0.51131 0.0
C742 C 0.92699 0.47576 0.52522 0.0
C743 C 0.93295 0.5007 0.53583 0.0
C744 C 0.95269 0.51565 0.53303 0.0
C745 C 0.05495 0.57312 0.56293 0.0
C746 C 0.02344 0.53162 0.60213 0.0
C747 C 0.10137 0.5302 0.60808 0.0
C748 C 0.12448 0.54376 0.61452 0.0
C749 C 0.13083 0.56773 0.61036 0.0
C750 C 0.15194 0.582 0.62103 0.0
C751 C 0.16702 0.57245 0.63584 0.0
C752 C 0.161 0.54799 0.63872 0.0
C753 C 0.1398 0.53379 0.62822 0.0
C754 C 0.03529 0.48528 0.56122 0.0
C755 C 0.06905 0.53007 0.52109 0.0
O756 O 1.00311 0.50922 0.51322 0.0
O757 O 0.99651 0.54124 0.53385 0.0
O758 O 0.0498 0.55502 0.57321 0.0
O759 O 0.04222 0.56843 0.54098 0.0
O760 O 0.01245 0.52696 0.5785 0.0
O761 O 0.0451 0.53428 0.60671 0.0
O762 O 0.08719 0.54293 0.61258 0.0
O763 O 0.09463 0.51474 0.58694 0.0
O764 O 0.04154 0.50229 0.54992 0.0
O765 O 0.04729 0.49079 0.58343 0.0
O766 O 0.07973 0.53313 0.54481 0.0
O767 O 0.04741 0.52759 0.51616 0.0
H768 H 0.97075 0.47305 0.49755 0.0
H769 H 0.93648 0.44717 0.50242 0.0
H770 H 0.92254 0.50856 0.54663 0.0
H771 H 0.957 0.53473 0.54168 0.0
H772 H 0.11921 0.5757 0.59976 0.0
H773 H 0.15636 0.60067 0.61809 0.0
H774 H 0.17232 0.5402 0.65002 0.0
H775 H 0.13507 0.51534 0.63174 0.0
Tb776 Tb 0.76759 0.78741 0.2955 0.0
Tb777 Tb 0.81498 0.78186 0.30759 0.0
C778 C 0.72699 0.78417 0.29282 0.0
C779 C 0.71017 0.78228 0.30869 0.0
C780 C 0.69023 0.76455 0.30024 0.0
C781 C 0.67321 0.76342 0.31366 0.0
C782 C 0.6757 0.7801 0.33589 0.0
C783 C 0.69593 0.79753 0.34467 0.0
C784 C 0.71301 0.79859 0.33124 0.0
C785 C 0.7982 0.82452 0.29063 0.0
C786 C 0.79362 0.79758 0.35219 0.0
C787 C 0.85558 0.78466 0.31063 0.0
C788 C 0.87265 0.78579 0.29516 0.0
C789 C 0.87259 0.79836 0.27497 0.0
C790 C 0.88992 0.80033 0.26182 0.0
C791 C 0.90766 0.78982 0.26864 0.0
C792 C 0.9073 0.77683 0.28855 0.0
C793 C 0.89004 0.77489 0.30163 0.0
C794 C 0.78402 0.7447 0.31204 0.0
C795 C 0.78898 0.77134 0.25094 0.0
O796 O 0.73538 0.76532 0.2887 0.0
O797 O 0.7418 0.8049 0.29639 0.0
O798 O 0.7996 0.81153 0.30725 0.0
O799 O 0.77854 0.81798 0.27698 0.0
O800 O 0.77444 0.79209 0.3364 0.0
O801 O 0.81242 0.79738 0.34479 0.0
O802 O 0.84718 0.80361 0.31395 0.0
O803 O 0.84071 0.76403 0.30717 0.0
O804 O 0.78303 0.75791 0.29564 0.0
O805 O 0.80358 0.75108 0.32594 0.0
O806 O 0.80818 0.77699 0.26671 0.0
O807 O 0.7702 0.77169 0.25835 0.0
H808 H 0.6876 0.75185 0.28285 0.0
H809 H 0.65784 0.74995 0.30614 0.0
H810 H 0.69855 0.81043 0.36189 0.0
H811 H 0.72826 0.81239 0.33832 0.0
H812 H 0.85935 0.80696 0.26962 0.0
H813 H 0.88967 0.81061 0.24673 0.0
H814 H 0.92038 0.76808 0.29407 0.0
H815 H 0.89041 0.76506 0.3171 0.0
Tb816 Tb 0.79162 0.28104 0.78465 0.0
Tb817 Tb 0.79127 0.29707 0.83772 0.0
C818 C 0.77775 0.26242 0.73924 0.0
C819 C 0.76562 0.26822 0.7169 0.0
C820 C 0.75667 0.28863 0.71834 0.0
C821 C 0.74293 0.29233 0.69747 0.0
C822 C 0.73825 0.2758 0.6747 0.0
C823 C 0.74778 0.25566 0.67335 0.0
C824 C 0.76119 0.25183 0.69432 0.0
C825 C 0.8285 0.28195 0.81472 0.0
C826 C 0.81049 0.33701 0.80568 0.0
C827 C 0.79835 0.31136 0.88399 0.0
C828 C 0.79153 0.29787 0.90345 0.0
C829 C 0.79296 0.27356 0.90248 0.0
C830 C 0.78376 0.25965 0.91873 0.0
C831 C 0.77271 0.26961 0.93617 0.0
C832 C 0.77175 0.29415 0.93755 0.0
C833 C 0.78106 0.30814 0.92127 0.0
C834 C 0.75449 0.29462 0.80642 0.0
C835 C 0.77339 0.24064 0.81762 0.0
O836 O 0.76641 0.25863 0.75673 0.0
O837 O 0.79781 0.27571 0.74817 0.0
O838 O 0.80934 0.27563 0.81888 0.0
O839 O 0.82725 0.28544 0.79186 0.0
O840 O 0.80054 0.32064 0.78523 0.0
O841 O 0.81075 0.33074 0.8281 0.0
O842 O 0.81287 0.30399 0.87237 0.0
O843 O 0.78215 0.31535 0.86856 0.0
O844 O 0.77377 0.30255 0.80339 0.0
O845 O 0.75519 0.28831 0.82814 0.0
O846 O 0.77985 0.25793 0.83782 0.0
O847 O 0.77601 0.24598 0.79537 0.0
H848 H 0.76011 0.30146 0.73567 0.0
H849 H 0.73586 0.30798 0.69927 0.0
H850 H 0.74513 0.24293 0.65601 0.0
H851 H 0.76795 0.23592 0.69297 0.0
H852 H 0.80075 0.26504 0.88878 0.0
H853 H 0.78529 0.24101 0.91754 0.0
H854 H 0.76329 0.30233 0.95072 0.0
H855 H 0.77951 0.32676 0.92206 0.0
Tb856 Tb 0.76993 0.76646 0.7974 0.0
Tb857 Tb 0.8132 0.80255 0.81521 0.0
C858 C 0.73152 0.74277 0.79674 0.0
C859 C 0.71101 0.74949 0.80094 0.0
C860 C 0.71123 0.76801 0.82074 0.0
C861 C 0.69157 0.77323 0.8254 0.0
C862 C 0.67124 0.76017 0.81029 0.0
C863 C 0.67119 0.74219 0.78997 0.0
C864 C 0.69087 0.73687 0.78541 0.0
C865 C 0.78747 0.78474 0.76214 0.0
C866 C 0.77117 0.82475 0.8133 0.0
C867 C 0.85149 0.82667 0.81639 0.0
C868 C 0.87314 0.82103 0.81876 0.0
C869 C 0.88889 0.8335 0.80699 0.0
C870 C 0.90885 0.82697 0.80701 0.0
C871 C 0.91348 0.80786 0.81892 0.0
C872 C 0.89774 0.7957 0.83116 0.0
C873 C 0.87769 0.80217 0.83098 0.0
C874 C 0.79584 0.78361 0.85039 0.0
C875 C 0.81206 0.74394 0.79973 0.0
O876 O 0.74756 0.7478 0.81631 0.0
O877 O 0.73846 0.74802 0.77655 0.0
O878 O 0.78759 0.79594 0.7835 0.0
O879 O 0.77609 0.76231 0.75926 0.0
O880 O 0.75981 0.80138 0.80905 0.0
O881 O 0.79287 0.82979 0.81455 0.0
O882 O 0.83756 0.81575 0.79564 0.0
O883 O 0.84237 0.82636 0.8361 0.0
O884 O 0.79565 0.77306 0.82882 0.0
O885 O 0.80755 0.80591 0.85371 0.0
O886 O 0.82376 0.76728 0.80588 0.0
O887 O 0.79013 0.73906 0.79635 0.0
H888 H 0.72654 0.77816 0.83299 0.0
H889 H 0.69232 0.78699 0.84138 0.0
H890 H 0.65592 0.73205 0.77765 0.0
H891 H 0.69033 0.72267 0.76991 0.0
H892 H 0.88552 0.84788 0.79718 0.0
H893 H 0.9203 0.83641 0.79691 0.0
H894 H 0.9008 0.78106 0.84069 0.0
H895 H 0.86561 0.79216 0.84 0.0
Tb896 Tb 0.52233 0.51721 0.53431 0.0
Tb897 Tb 0.56781 0.54604 0.56212 0.0
C898 C 0.48139 0.50329 0.52039 0.0
C899 C 0.46505 0.51592 0.52786 0.0
C900 C 0.47118 0.53362 0.54971 0.0
C901 C 0.45672 0.54722 0.55652 0.0
C902 C 0.43583 0.54359 0.54149 0.0
C903 C 0.42942 0.52546 0.51982 0.0
C904 C 0.44405 0.51172 0.51297 0.0
C905 C 0.5539 0.51774 0.50845 0.0
C906 C 0.53638 0.5753 0.53986 0.0
C907 C 0.60883 0.56051 0.57507 0.0
C908 C 0.62623 0.54765 0.57167 0.0
C909 C 0.64129 0.55581 0.55677 0.0
C910 C 0.65465 0.54111 0.54861 0.0
C911 C 0.65319 0.51802 0.55529 0.0
C912 C 0.63933 0.51072 0.57177 0.0
C913 C 0.62593 0.52537 0.57985 0.0
C914 C 0.53626 0.54557 0.58811 0.0
C915 C 0.55291 0.48812 0.55878 0.0
O916 O 0.49244 0.49562 0.53852 0.0
O917 O 0.49424 0.51457 0.5071 0.0
O918 O 0.55172 0.53477 0.5241 0.0
O919 O 0.53663 0.49975 0.50503 0.0
O920 O 0.52035 0.55562 0.53845 0.0
O921 O 0.55727 0.57526 0.54658 0.0
O922 O 0.59771 0.56381 0.55423 0.0
O923 O 0.59602 0.55327 0.5904 0.0
O924 O 0.53838 0.52859 0.57233 0.0
O925 O 0.5536 0.56354 0.59157 0.0
O926 O 0.56935 0.5075 0.56029 0.0
O927 O 0.53221 0.48844 0.55115 0.0
H928 H 0.48734 0.53722 0.5614 0.0
H929 H 0.46198 0.56071 0.57358 0.0
H930 H 0.41339 0.52238 0.50789 0.0
H931 H 0.43915 0.49822 0.49593 0.0
H932 H 0.64175 0.5729 0.55018 0.0
H933 H 0.6651 0.54721 0.53587 0.0
H934 H 0.6382 0.49324 0.57767 0.0
H935 H 0.61458 0.5186 0.59143 0.0
Tb936 Tb 0.07473 0.54147 0.05409 0.0
Tb937 Tb 0.02767 0.53043 0.06428 0.0
C938 C 0.11576 0.54606 0.05878 0.0
C939 C 0.13279 0.53218 0.06388 0.0
C940 C 0.15223 0.54323 0.08153 0.0
C941 C 0.16985 0.53198 0.08425 0.0
C942 C 0.16851 0.50946 0.06918 0.0
C943 C 0.14868 0.49797 0.05219 0.0
C944 C 0.13102 0.50913 0.04962 0.0
C945 C 0.04582 0.54533 0.01338 0.0
C946 C 0.04526 0.48783 0.04084 0.0
C947 C 0.98794 0.52803 0.0668 0.0
C948 C 0.97093 0.54182 0.06246 0.0
C949 C 0.97396 0.56207 0.05042 0.0
C950 C 0.95714 0.57435 0.04614 0.0
C951 C 0.93698 0.56653 0.05375 0.0
C952 C 0.93425 0.54633 0.066 0.0
C953 C 0.95102 0.53416 0.07027 0.0
C954 C 0.05842 0.52181 0.09954 0.0
C955 C 0.05564 0.58577 0.07074 0.0
O956 O 0.10642 0.55302 0.07714 0.0
O957 O 0.10169 0.53862 0.03752 0.0
O958 O 0.04225 0.53963 0.03402 0.0
O959 O 0.067 0.54935 0.01565 0.0
O960 O 0.0653 0.50184 0.04949 0.0
O961 O 0.02749 0.49633 0.041 0.0
O962 O 0.99431 0.51853 0.04704 0.0
O963 O 1.00442 0.53759 0.08563 0.0
O964 O 0.06048 0.53909 0.08714 0.0
O965 O 0.03812 0.50936 0.09272 0.0
O966 O 0.0363 0.57037 0.069 0.0
O967 O 0.0735 0.57853 0.06711 0.0
H968 H 0.15411 0.56105 0.09265 0.0
H969 H 0.18487 0.54144 0.0974 0.0
H970 H 0.14692 0.48045 0.04057 0.0
H971 H 0.11624 0.50001 0.03592 0.0
H972 H 0.98922 0.56826 0.04419 0.0
H973 H 0.95979 0.58969 0.03649 0.0
H974 H 0.9192 0.54002 0.07257 0.0
H975 H 0.94839 0.51863 0.07968 0.0
H976 H 0.97756 0.19273 0.99924 0.0
H977 H 0.0633 0.11271 0.02764 0.0
H978 H 0.03838 0.20376 0.97204 0.0
H979 H 0.99391 0.08618 0.02575 0.0
H980 H 0.05579 0.14843 0.01142 0.0
H981 H 0.98451 0.15579 0.01296 0.0
C982 C 0.99242 0.18738 0.99615 0.0
C983 C 1.00748 0.20143 0.98455 0.0
C984 C 0.04222 0.13476 0.01451 0.0
C985 C 0.01559 0.15918 1.00047 0.0
C986 C 0.04648 0.11444 0.02395 0.0
C987 C 0.02919 0.09646 0.0282 0.0
C988 C 0.02056 0.13736 0.00964 0.0
C989 C 1.00772 0.09957 0.02278 0.0
C990 C 0.99629 0.16621 1.0039 0.0
C991 C 0.02633 0.19346 0.98086 0.0
N992 N 1.00403 0.11974 0.01397 0.0
N993 N 0.02998 0.17296 0.98904 0.0
H994 H 0.12859 0.78198 0.22536 0.0
H995 H 0.25068 0.84331 0.30152 0.0
H996 H 0.16653 0.85 0.21294 0.0
H997 H 0.22754 0.76543 0.27738 0.0
H998 H 0.21607 0.84842 0.27833 0.0
H999 H 0.16097 0.77831 0.25457 0.0
C1000 C 0.14351 0.79649 0.22943 0.0
C1001 C 0.14495 0.81642 0.21697 0.0
C1002 C 0.21855 0.83023 0.27827 0.0
C1003 C 0.18177 0.81231 0.24999 0.0
C1004 C 0.23823 0.82729 0.29146 0.0
C1005 C 0.24194 0.80393 0.2912 0.0
C1006 C 0.20226 0.80961 0.26524 0.0
C1007 C 0.22531 0.78376 0.27786 0.0
C1008 C 0.16199 0.79423 0.24577 0.0
C1009 C 0.16479 0.83445 0.22234 0.0
N1010 N 0.20609 0.78703 0.26549 0.0
N1011 N 0.18242 0.83201 0.23848 0.0
H1012 H 0.54155 0.83714 0.47575 0.0
H1013 H 0.49917 0.94676 0.54037 0.0
H1014 H 0.48598 0.82748 0.51261 0.0
H1015 H 0.56541 0.95718 0.52689 0.0
H1016 H 0.49364 0.90291 0.52789 0.0
H1017 H 0.55064 0.88106 0.4926 0.0
C1018 C 0.53142 0.84416 0.48757 0.0
C1019 C 0.51287 0.82857 0.4926 0.0
C1020 C 0.50945 0.91473 0.52776 0.0
C1021 C 0.523 0.87869 0.51157 0.0
C1022 C 0.51258 0.93983 0.53476 0.0
C1023 C 0.53276 0.95569 0.53459 0.0
C1024 C 0.52649 0.90531 0.52016 0.0
C1025 C 0.54959 0.94559 0.52731 0.0
C1026 C 0.53661 0.86921 0.49716 0.0
C1027 C 0.50035 0.83872 0.50807 0.0
N1028 N 0.54602 0.921 0.52016 0.0
N1029 N 0.50552 0.86309 0.51675 0.0
H1030 H 0.51389 0.25032 0.70736 0.0
H1031 H 0.44025 0.33196 0.76677 0.0
H1032 H 0.52528 0.32788 0.70885 0.0
H1033 H 0.42576 0.25347 0.75798 0.0
H1034 H 0.47204 0.33125 0.74696 0.0
H1035 H 0.4824 0.2516 0.72728 0.0
C1036 C 0.50984 0.26768 0.71193 0.0
C1037 C 0.52235 0.28904 0.70635 0.0
C1038 C 0.46188 0.31418 0.74931 0.0
C1039 C 0.48603 0.2906 0.72928 0.0
C1040 C 0.44375 0.31456 0.76075 0.0
C1041 C 0.43021 0.29273 0.76412 0.0
C1042 C 0.46669 0.29181 0.74126 0.0
C1043 C 0.43549 0.27075 0.75556 0.0
C1044 C 0.49176 0.26837 0.72328 0.0
C1045 C 0.51617 0.31095 0.71276 0.0
N1046 N 0.45329 0.27088 0.74465 0.0
N1047 N 0.49848 0.31116 0.72387 0.0
H1048 H 0.0641 0.7998 0.66193 0.0
H1049 H 0.99263 0.88899 0.61367 0.0
H1050 H 1.00249 0.8033 0.68415 0.0
H1051 H 0.04476 0.87018 0.57953 0.0
H1052 H 0.99654 0.85922 0.64112 0.0
H1053 H 0.05795 0.82733 0.63304 0.0
C1054 C 0.04925 0.80637 0.66072 0.0
C1055 C 0.03379 0.79931 0.67549 0.0
C1056 C 1.00697 0.86151 0.62747 0.0
C1057 C 0.02667 0.8309 0.64246 0.0
C1058 C 1.00482 0.87853 0.61193 0.0
C1059 C 0.01837 0.88196 0.59432 0.0
C1060 C 0.02297 0.84815 0.62553 0.0
C1061 C 0.03381 0.86787 0.59265 0.0
C1062 C 0.04571 0.82202 0.64414 0.0
C1063 C 0.0148 0.80829 0.67306 0.0
N1064 N 0.03577 0.8517 0.60816 0.0
N1065 N 1.01181 0.82378 0.65691 0.0
H1066 H 0.43901 0.72681 0.90925 0.0
H1067 H 0.35649 0.79701 0.85944 0.0
H1068 H 0.45878 0.78422 0.86814 0.0
H1069 H 0.33792 0.72043 0.82673 0.0
H1070 H 0.39301 0.79253 0.87718 0.0
H1071 H 0.40038 0.72275 0.88972 0.0
C1072 C 0.4353 0.73799 0.89557 0.0
C1073 C 0.45206 0.75601 0.89041 0.0
C1074 C 0.38068 0.77667 0.86653 0.0
C1075 C 0.40839 0.75213 0.86924 0.0
C1076 C 0.35982 0.7791 0.85675 0.0
C1077 C 0.34427 0.75905 0.84162 0.0
C1078 C 0.38574 0.754 0.86157 0.0
C1079 C 0.34958 0.7363 0.83831 0.0
C1080 C 0.41335 0.73576 0.88467 0.0
C1081 C 0.44641 0.77011 0.87266 0.0
N1082 N 0.37003 0.73433 0.84819 0.0
N1083 N 0.42494 0.76837 0.86324 0.0
H1084 H 0.57849 0.1655 0.21959 0.0
H1085 H 0.57441 0.13241 0.07269 0.0
H1086 H 0.5653 0.21269 0.1672 0.0
H1087 H 0.57909 0.08135 0.12296 0.0
H1088 H 0.577 0.16427 0.10838 0.0
H1089 H 0.58235 0.13574 0.18521 0.0
C1090 C 0.57613 0.1695 0.20084 0.0
C1091 C 0.57149 0.19163 0.19631 0.0
C1092 C 0.57781 0.14618 0.11165 0.0
C1093 C 0.57642 0.15788 0.15697 0.0
C1094 C 0.57665 0.12808 0.09131 0.0
C1095 C 0.57626 0.10415 0.09489 0.0
C1096 C 0.57861 0.14026 0.13565 0.0
C1097 C 0.57916 0.09955 0.11941 0.0
C1098 C 0.57855 0.15259 0.18125 0.0
C1099 C 0.56879 0.19586 0.17162 0.0
N1100 N 0.57988 0.11735 0.13884 0.0
N1101 N 0.57138 0.17919 0.15292 0.0
H1102 H 0.05373 0.29087 0.32157 0.0
H1103 H 0.17975 0.2968 0.36103 0.0
H1104 H 0.09366 0.33102 0.39215 0.0
H1105 H 0.14618 0.27771 0.28371 0.0
H1106 H 0.14849 0.31081 0.37201 0.0
H1107 H 0.08724 0.28792 0.30614 0.0
C1108 C 0.06954 0.29951 0.33366 0.0
C1109 C 0.07088 0.31082 0.35836 0.0
C1110 C 0.14804 0.30383 0.35258 0.0
C1111 C 0.1092 0.30713 0.34096 0.0
C1112 C 0.16598 0.29586 0.34623 0.0
C1113 C 0.16573 0.286 0.32133 0.0
C1114 C 0.12941 0.30156 0.33406 0.0
C1115 C 0.14702 0.28474 0.3032 0.0
C1116 C 0.08866 0.29778 0.32483 0.0
C1117 C 0.0918 0.32188 0.37308 0.0
N1118 N 0.1295 0.29219 0.30996 0.0
N1119 N 0.11013 0.31935 0.36432 0.0
H1120 H 0.9677 0.05467 0.21802 0.0
H1121 H 1.00145 1.00392 0.0909 0.0
H1122 H 0.97134 0.98039 0.1955 0.0
H1123 H 0.02395 0.07968 0.12622 0.0
H1124 H 0.98107 0.99589 0.12398 0.0
H1125 H 0.97992 0.0647 0.17967 0.0
C1126 C 0.97082 0.04045 0.20489 0.0
C1127 C 0.96876 0.01673 0.21 0.0
C1128 C 0.99024 0.01434 0.12434 0.0
C1129 C 0.98228 0.02792 0.16627 0.0
C1130 C 1.00177 0.01898 0.10538 0.0
C1131 C 0.01459 0.04245 0.10602 0.0
C1132 C 0.99146 0.03331 0.14406 0.0
C1133 C 0.0144 0.06127 0.12524 0.0
C1134 C 0.97782 0.04619 0.18313 0.0
C1135 C 0.97299 0.99898 0.19243 0.0
N1136 N 1.00316 0.05626 0.14371 0.0
N1137 N 0.97954 1.00493 0.17138 0.0
H1138 H 0.3266 0.68287 0.54732 0.0
H1139 H 0.26142 0.73701 0.44362 0.0
H1140 H 0.27224 0.71541 0.55613 0.0
H1141 H 0.32208 0.71579 0.43878 0.0
H1142 H 0.25763 0.71542 0.47843 0.0
H1143 H 0.31759 0.68156 0.50231 0.0
C1144 C 0.31255 0.68937 0.53975 0.0
C1145 C 0.3006 0.70007 0.55552 0.0
C1146 C 0.27153 0.71504 0.46942 0.0
C1147 C 0.29026 0.69857 0.50423 0.0
C1148 C 0.27365 0.72726 0.44945 0.0
C1149 C 0.29245 0.72877 0.43886 0.0
C1150 C 0.28845 0.70456 0.47894 0.0
C1151 C 0.30773 0.71573 0.44707 0.0
C1152 C 0.30739 0.68855 0.51407 0.0
C1153 C 0.28229 0.70769 0.5447 0.0
N1154 N 0.30564 0.70457 0.46702 0.0
N1155 N 0.27791 0.7072 0.51973 0.0
H1156 H 0.60601 0.9775 0.73915 0.0
H1157 H 0.58996 0.05128 0.62419 0.0
H1158 H 0.64435 0.04966 0.73957 0.0
H1159 H 0.54485 0.98415 0.62753 0.0
H1160 H 0.61229 0.04876 0.66424 0.0
H1161 H 0.58613 0.97696 0.69648 0.0
C1162 C 0.61076 0.99291 0.73007 0.0
C1163 C 0.62737 0.01344 0.74304 0.0
C1164 C 0.59755 0.03448 0.65623 0.0
C1165 C 0.60408 0.0133 0.69403 0.0
C1166 C 0.58475 0.03593 0.6332 0.0
C1167 C 0.56527 0.01799 0.62221 0.0
C1168 C 0.59113 0.01483 0.66865 0.0
C1169 C 0.5596 0.99853 0.63512 0.0
C1170 C 0.59916 0.99277 0.70573 0.0
C1171 C 0.63204 0.03322 0.73033 0.0
N1172 N 0.57231 0.99749 0.65741 0.0
N1173 N 0.6206 0.03266 0.70687 0.0
H1174 H 0.29337 0.32221 0.00704 0.0
H1175 H 0.32721 0.34153 0.88065 0.0
H1176 H 0.3218 0.39506 0.99698 0.0
H1177 H 0.26509 0.29267 0.88121 0.0
H1178 H 0.32903 0.35955 0.92444 0.0
H1179 H 0.28518 0.30875 0.96155 0.0
C1180 C 0.29733 0.33545 0.99514 0.0
C1181 C 0.30797 0.35977 1.00554 0.0
C1182 C 0.31494 0.34504 0.91477 0.0
C1183 C 0.29975 0.34439 0.95397 0.0
C1184 C 0.314 0.33465 0.88997 0.0
C1185 C 0.29603 0.31558 0.87741 0.0
C1186 C 0.29811 0.33576 0.9271 0.0
C1187 C 0.27922 0.3074 0.89022 0.0
C1188 C 0.29279 0.32779 0.9693 0.0
C1189 C 0.31324 0.37623 0.98949 0.0
N1190 N 0.28084 0.31728 0.9145 0.0
N1191 N 0.30952 0.36812 0.96442 0.0
H1192 H 0.96676 0.05308 0.35808 0.0
H1193 H 0.03329 1.00119 0.46072 0.0
H1194 H 0.01521 0.01344 0.3424 0.0
H1195 H 0.01843 0.07065 0.48107 0.0
H1196 H 0.02345 1.00381 0.41669 0.0
H1197 H 0.98294 0.05966 0.40292 0.0
C1198 C 0.98102 0.04622 0.36394 0.0
C1199 C 0.98937 0.03231 0.34643 0.0
C1200 C 0.02252 0.01862 0.43076 0.0
C1201 C 1.00752 0.03935 0.39743 0.0
C1202 C 0.02799 0.01704 0.45586 0.0
C1203 C 0.02663 0.03572 0.47446 0.0
C1204 C 0.01506 0.03871 0.42412 0.0
C1205 C 0.0198 0.05596 0.46719 0.0
C1206 C 0.99019 0.04995 0.3895 0.0
C1207 C 1.00793 0.02391 0.35515 0.0
N1208 N 0.0139 0.05678 0.44248 0.0
N1209 N 0.01607 0.02715 0.37999 0.0
H1210 H 0.39173 0.74565 0.68712 0.0
H1211 H 0.33954 0.83932 0.75105 0.0
H1212 H 0.36724 0.80061 0.65325 0.0
H1213 H 0.35435 0.77568 0.77683 0.0
H1214 H 0.36729 0.83913 0.72483 0.0
H1215 H 0.39948 0.77213 0.72768 0.0
C1216 C 0.38904 0.76384 0.68795 0.0
C1217 C 0.37712 0.77027 0.66728 0.0
C1218 C 0.36488 0.82561 0.73675 0.0
C1219 C 0.38508 0.79997 0.71342 0.0
C1220 C 0.34891 0.82557 0.75146 0.0
C1221 C 0.34406 0.80682 0.76508 0.0
C1222 C 0.37579 0.80661 0.7356 0.0
C1223 C 0.357 0.78985 0.76568 0.0
C1224 C 0.39328 0.77892 0.71126 0.0
C1225 C 0.37508 0.7944 0.66924 0.0
N1226 N 0.37199 0.78986 0.75074 0.0
N1227 N 0.37798 0.80809 0.69223 0.0
H1228 H 0.65627 1.01099 0.90742 0.0
H1229 H 0.55804 0.04837 0.96998 0.0
H1230 H 0.59882 0.02829 0.86826 0.0
H1231 H 0.60814 0.02227 0.01298 0.0
H1232 H 0.57457 0.04172 0.9335 0.0
H1233 H 0.6408 0.0145 0.94612 0.0
C1234 C 0.64032 0.01506 0.90665 0.0
C1235 C 0.62901 0.01925 0.88399 0.0
C1236 C 0.58213 0.0374 0.95082 0.0
C1237 C 0.61124 0.02391 0.92887 0.0
C1238 C 0.57263 0.04133 0.97199 0.0
C1239 C 0.58149 0.03607 0.99519 0.0
C1240 C 0.60106 0.02811 0.95212 0.0
C1241 C 0.60053 0.02678 0.9958 0.0
C1242 C 0.63153 0.0173 0.92895 0.0
C1243 C 0.60848 0.02492 0.88487 0.0
N1244 N 0.60962 0.02319 0.97482 0.0
N1245 N 0.60055 0.02715 0.90652 0.0
H1246 H 0.33027 0.32063 0.12394 0.0
H1247 H 0.3092 0.33862 0.26307 0.0
H1248 H 0.31944 0.38819 0.15931 0.0
H1249 H 0.29718 0.26814 0.21611 0.0
H1250 H 0.31677 0.35816 0.22738 0.0
H1251 H 0.32171 0.30221 0.15946 0.0
C1252 C 0.32608 0.33165 0.13924 0.0
C1253 C 0.32567 0.35608 0.13867 0.0
C1254 C 0.31245 0.33844 0.22492 0.0
C1255 C 0.31594 0.33493 0.17972 0.0
C1256 C 0.30829 0.32727 0.24527 0.0
C1257 C 0.30258 0.30171 0.24247 0.0
C1258 C 0.31122 0.32393 0.20174 0.0
C1259 C 0.30153 0.28788 0.21904 0.0
C1260 C 0.32111 0.32103 0.15951 0.0
C1261 C 0.31991 0.3693 0.15897 0.0
N1262 N 0.30589 0.29916 0.19962 0.0
N1263 N 0.31545 0.35861 0.17884 0.0
H1264 H 0.22186 0.91941 0.01701 0.0
H1265 H 0.16202 0.02891 0.01551 0.0
H1266 H 0.22294 0.96441 0.96016 0.0
H1267 H 0.17118 0.99165 0.07798 0.0
H1268 H 0.18176 1.00354 0.99328 0.0
H1269 H 0.19966 0.94292 0.03718 0.0
C1270 C 0.21724 0.93408 0.00859 0.0
C1271 C 0.22444 0.94008 0.98695 0.0
C1272 C 0.1795 1.00097 0.01188 0.0
C1273 C 0.19916 0.96724 0.01016 0.0
C1274 C 0.16843 0.01561 0.02471 0.0
C1275 C 0.16507 0.01253 0.04876 0.0
C1276 C 0.18719 0.98301 0.0231 0.0
C1277 C 0.17323 0.99454 0.05942 0.0
C1278 C 0.20465 0.94758 0.02023 0.0
C1279 C 0.21784 0.95921 0.97687 0.0
N1280 N 0.1839 0.98045 0.04651 0.0
N1281 N 0.20567 0.97223 0.98866 0.0
H1282 H 0.71438 0.58371 1.00145 0.0
H1283 H 0.61665 0.54072 0.07234 0.0
H1284 H 0.68941 0.63227 0.05018 0.0
H1285 H 0.61388 0.50442 0.99743 0.0
H1286 H 0.65076 0.56924 0.07026 0.0
H1287 H 0.6841 0.54952 1.00501 0.0
C1288 C 0.70271 0.58709 0.01302 0.0
C1289 C 0.70423 0.6108 0.02539 0.0
C1290 C 0.64281 0.55489 0.05435 0.0
C1291 C 0.67031 0.57219 0.02994 0.0
C1292 C 0.62336 0.53862 0.05552 0.0
C1293 C 0.6122 0.5206 0.0348 0.0
C1294 C 0.65145 0.5529 0.03248 0.0
C1295 C 0.62188 0.51835 0.01366 0.0
C1296 C 0.68548 0.56771 0.01495 0.0
C1297 C 0.68871 0.61432 0.04012 0.0
N1298 N 0.64096 0.53451 0.01292 0.0
N1299 N 0.67254 0.59528 0.04207 0.0
H1300 H 0.70262 0.50856 0.36964 0.0
H1301 H 0.75313 0.43761 0.2665 0.0
H1302 H 0.68122 0.50211 0.29004 0.0
H1303 H 0.76967 0.43589 0.34518 0.0
H1304 H 0.72729 0.46216 0.27521 0.0
H1305 H 0.72774 0.48264 0.36153 0.0
C1306 C 0.70316 0.50167 0.35047 0.0
C1307 C 0.68982 0.50758 0.33049 0.0
C1308 C 0.73653 0.45641 0.29061 0.0
C1309 C 0.71854 0.47801 0.32111 0.0
C1310 C 0.75139 0.44252 0.28565 0.0
C1311 C 0.76367 0.43482 0.30516 0.0
C1312 C 0.73393 0.46281 0.3153 0.0
C1313 C 0.76044 0.44133 0.32957 0.0
C1314 C 0.71748 0.48686 0.34587 0.0
C1315 C 0.69119 0.49809 0.30605 0.0
N1316 N 0.74594 0.45505 0.33398 0.0
N1317 N 0.70533 0.48388 0.30207 0.0
H1318 H 0.78963 0.40716 0.5103 0.0
H1319 H 0.92046 0.42958 0.53561 0.0
H1320 H 0.82386 0.34996 0.51677 0.0
H1321 H 0.88616 0.48524 0.52107 0.0
H1322 H 0.88539 0.40157 0.53541 0.0
H1323 H 0.82494 0.43723 0.52101 0.0
C1324 C 0.80455 0.40091 0.51422 0.0
C1325 C 0.80378 0.37593 0.51227 0.0
C1326 C 0.88553 0.41996 0.53247 0.0
C1327 C 0.84428 0.41034 0.52449 0.0
C1328 C 0.90553 0.43592 0.53248 0.0
C1329 C 0.90617 0.45964 0.52798 0.0
C1330 C 0.86598 0.42773 0.52782 0.0
C1331 C 0.88641 0.46711 0.52463 0.0
C1332 C 0.82471 0.41813 0.52032 0.0
C1333 C 0.82366 0.36899 0.5178 0.0
N1334 N 0.86708 0.45111 0.52435 0.0
N1335 N 0.84311 0.38609 0.52343 0.0
H1336 H 0.34153 0.09988 0.28144 0.0
H1337 H 0.36437 0.24781 0.30957 0.0
H1338 H 0.40755 0.14528 0.30407 0.0
H1339 H 0.30008 0.19847 0.28798 0.0
H1340 H 0.38095 0.21232 0.30762 0.0
H1341 H 0.32723 0.13625 0.28375 0.0
C1342 C 0.35326 0.11746 0.28695 0.0
C1343 C 0.3761 0.11877 0.29254 0.0
C1344 C 0.36321 0.20919 0.30326 0.0
C1345 C 0.3591 0.16205 0.29526 0.0
C1346 C 0.3536 0.22965 0.30432 0.0
C1347 C 0.33048 0.22672 0.29888 0.0
C1348 C 0.34983 0.18509 0.29667 0.0
C1349 C 0.31785 0.20224 0.29233 0.0
C1350 C 0.34487 0.13853 0.28826 0.0
C1351 C 0.38989 0.14277 0.29954 0.0
N1352 N 0.32755 0.18284 0.29145 0.0
N1353 N 0.38126 0.16315 0.30066 0.0
H1354 H 0.31313 0.11422 0.58073 0.0
H1355 H 0.41081 0.08413 0.5153 0.0
H1356 H 0.32077 0.12942 0.50767 0.0
H1357 H 0.40174 0.06936 0.58812 0.0
H1358 H 0.37789 0.10029 0.5116 0.0
H1359 H 0.34534 0.09728 0.58314 0.0
C1360 C 0.32151 0.11393 0.5651 0.0
C1361 C 0.31412 0.12333 0.54395 0.0
C1362 C 0.38314 0.09354 0.5284 0.0
C1363 C 0.35139 0.10389 0.54667 0.0
C1364 C 0.40192 0.0842 0.5305 0.0
C1365 C 0.40926 0.07539 0.55213 0.0
C1366 C 0.37147 0.09406 0.54801 0.0
C1367 C 0.39708 0.07628 0.57127 0.0
C1368 C 0.34 0.10425 0.56652 0.0
C1369 C 0.3258 0.12239 0.52434 0.0
N1370 N 0.37888 0.08538 0.56875 0.0
N1371 N 0.34385 0.11291 0.5262 0.0
H1372 H 0.6579 0.64667 0.30099 0.0
H1373 H 0.78318 0.71641 0.34817 0.0
H1374 H 0.70416 0.61141 0.33808 0.0
H1375 H 0.74524 0.72468 0.27903 0.0
H1376 H 0.75323 0.6819 0.35065 0.0
H1377 H 0.68854 0.6803 0.29913 0.0
C1378 C 0.6745 0.64607 0.30888 0.0
C1379 C 0.67852 0.6262 0.31966 0.0
C1380 C 0.75151 0.69141 0.33503 0.0
C1381 C 0.71353 0.66472 0.3178 0.0
C1382 C 0.7685 0.71106 0.33362 0.0
C1383 C 0.76639 0.72375 0.31367 0.0
C1384 C 0.73223 0.68477 0.31657 0.0
C1385 C 0.74717 0.71597 0.29518 0.0
C1386 C 0.69194 0.66519 0.30767 0.0
C1387 C 0.70038 0.62634 0.32948 0.0
N1388 N 0.73071 0.69715 0.29721 0.0
N1389 N 0.71712 0.64543 0.3285 0.0
H1390 H 0.87715 0.46694 0.75456 0.0
H1391 H 0.82739 0.37775 0.8432 0.0
H1392 H 0.8748 0.49302 0.83089 0.0
H1393 H 0.81766 0.35619 0.76331 0.0
H1394 H 0.84464 0.41962 0.83932 0.0
H1395 H 0.85482 0.42683 0.7572 0.0
C1396 C 0.87126 0.46451 0.77165 0.0
C1397 C 0.87732 0.48388 0.79222 0.0
C1398 C 0.83866 0.40579 0.8226 0.0
C1399 C 0.85252 0.43699 0.79596 0.0
C1400 C 0.82882 0.3817 0.82479 0.0
C1401 C 0.82093 0.36301 0.80357 0.0
C1402 C 0.84103 0.41157 0.79899 0.0
C1403 C 0.82337 0.3697 0.78029 0.0
C1404 C 0.85871 0.44139 0.77327 0.0
C1405 C 0.86995 0.47905 0.81424 0.0
N1406 N 0.83324 0.39316 0.77868 0.0
N1407 N 0.85823 0.45619 0.81559 0.0
H1408 H 0.1126 0.87951 0.11301 0.0
H1409 H 0.02173 0.95308 0.07825 0.0
H1410 H 0.0501 0.86509 0.13654 0.0
H1411 H 0.0894 0.97651 0.07102 0.0
H1412 H 0.0306 0.91891 0.09661 0.0
H1413 H 0.10326 0.9134 0.09508 0.0
C1414 C 0.09686 0.88347 0.11445 0.0
C1415 C 0.08208 0.86933 0.1263 0.0
C1416 C 0.0435 0.93154 0.09103 0.0
C1417 C 0.07122 0.90831 0.10553 0.0
C1418 C 0.03844 0.95096 0.08037 0.0
C1419 C 0.0549 0.96777 0.07316 0.0
C1420 C 0.06513 0.92872 0.09428 0.0
C1421 C 0.07627 0.9642 0.07656 0.0
C1422 C 0.09157 0.90292 0.10421 0.0
C1423 C 0.06201 0.87551 0.12764 0.0
N1424 N 0.08075 0.94505 0.08681 0.0
N1425 N 0.0571 0.89448 0.11724 0.0
H1426 H 0.9193 0.24992 0.93191 0.0
H1427 H 0.87027 0.28995 0.80549 0.0
H1428 H 0.95886 0.27106 0.87813 0.0
H1429 H 0.83176 0.26506 0.85881 0.0
H1430 H 0.90279 0.28252 0.83088 0.0
H1431 H 0.88698 0.25398 0.90418 0.0
C1432 C 0.92118 0.25526 0.91412 0.0
C1433 C 0.94191 0.26031 0.90742 0.0
C1434 C 0.88723 0.27867 0.837 0.0
C1435 C 0.90472 0.26528 0.87548 0.0
C1436 C 0.86869 0.28297 0.82258 0.0
C1437 C 0.84834 0.27821 0.83016 0.0
C1438 C 0.88537 0.26957 0.85917 0.0
C1439 C 0.84716 0.26915 0.85238 0.0
C1440 C 0.90265 0.25762 0.89827 0.0
C1441 C 0.94321 0.26695 0.88402 0.0
N1442 N 0.86541 0.26516 0.86609 0.0
N1443 N 0.92488 0.26947 0.86895 0.0
H1444 H 0.56004 0.23548 0.57802 0.0
H1445 H 0.579 0.11259 0.60903 0.0
H1446 H 0.56564 0.22462 0.65443 0.0
H1447 H 0.52428 0.10993 0.55028 0.0
H1448 H 0.58113 0.15603 0.62323 0.0
H1449 H 0.55236 0.19105 0.56421 0.0
C1450 C 0.55922 0.22367 0.59179 0.0
C1451 C 0.56323 0.23354 0.61734 0.0
C1452 C 0.56868 0.14582 0.60725 0.0
C1453 C 0.55557 0.18331 0.60185 0.0
C1454 C 0.5676 0.12124 0.59904 0.0
C1455 C 0.55148 0.10785 0.57849 0.0
C1456 C 0.554 0.15711 0.5943 0.0
C1457 C 0.5369 0.11973 0.56626 0.0
C1458 C 0.55493 0.19847 0.58394 0.0
C1459 C 0.56232 0.2176 0.63455 0.0
N1460 N 0.53869 0.14386 0.57413 0.0
N1461 N 0.55905 0.19322 0.62653 0.0
H1462 H 0.57464 0.82072 0.40995 0.0
H1463 H 0.64597 0.74043 0.34398 0.0
H1464 H 0.55941 0.74208 0.39914 0.0
H1465 H 0.66239 0.81915 0.35803 0.0
H1466 H 0.61423 0.74052 0.36393 0.0
H1467 H 0.60667 0.82034 0.39074 0.0
C1468 C 0.57797 0.80333 0.4035 0.0
C1469 C 0.56421 0.78139 0.40619 0.0
C1470 C 0.62481 0.75778 0.36272 0.0
C1471 C 0.60109 0.78084 0.38411 0.0
C1472 C 0.64292 0.75775 0.35122 0.0
C1473 C 0.65695 0.77983 0.34922 0.0
C1474 C 0.62053 0.78005 0.37227 0.0
C1475 C 0.65226 0.80168 0.35935 0.0
C1476 C 0.59634 0.80314 0.39255 0.0
C1477 C 0.5695 0.75945 0.39747 0.0
N1478 N 0.63446 0.80122 0.37031 0.0
N1479 N 0.58747 0.75974 0.38683 0.0
H1480 H 0.025 0.2031 0.41419 0.0
H1481 H 0.10772 0.18899 0.51699 0.0
H1482 H 0.08161 0.26334 0.4433 0.0
H1483 H 0.07795 0.12802 0.45676 0.0
H1484 H 0.10426 0.2167 0.48761 0.0
H1485 H 0.04726 0.17491 0.42551 0.0
C1486 C 0.04229 0.21027 0.4225 0.0
C1487 C 0.0515 0.23541 0.42828 0.0
C1488 C 0.09924 0.19723 0.4806 0.0
C1489 C 0.07687 0.20356 0.44186 0.0
C1490 C 0.10128 0.18134 0.4974 0.0
C1491 C 0.0922 0.1562 0.48948 0.0
C1492 C 0.08761 0.18782 0.45604 0.0
C1493 C 0.08423 0.14739 0.46381 0.0
C1494 C 0.05506 0.19423 0.42877 0.0
C1495 C 0.07398 0.24397 0.43881 0.0
N1496 N 0.08134 0.16323 0.44811 0.0
N1497 N 0.08581 0.22807 0.44608 0.0
H1498 H 0.64089 0.31721 0.23965 0.0
H1499 H 0.74104 0.26564 0.20575 0.0
H1500 H 0.65672 0.25279 0.26268 0.0
H1501 H 0.748 0.34339 0.22327 0.0
H1502 H 0.70394 0.25898 0.21444 0.0
H1503 H 0.6758 0.32618 0.22483 0.0
C1504 C 0.65188 0.30524 0.24202 0.0
C1505 C 0.64598 0.28431 0.25259 0.0
C1506 C 0.71347 0.27749 0.21584 0.0
C1507 C 0.6851 0.2938 0.23461 0.0
C1508 C 0.73451 0.28135 0.21042 0.0
C1509 C 0.7478 0.30515 0.21413 0.0
C1510 C 0.70553 0.29753 0.22454 0.0
C1511 C 0.73836 0.32474 0.2204 0.0
C1512 C 0.67161 0.31024 0.23335 0.0
C1513 C 0.6607 0.26926 0.25495 0.0
N1514 N 0.71785 0.32052 0.22577 0.0
N1515 N 0.67942 0.2741 0.24568 0.0
H1516 H 0.52885 0.88108 0.93773 0.0
H1517 H 0.52436 0.9962 0.99143 0.0
H1518 H 0.47549 0.8542 0.97415 0.0
H1519 H 0.49783 0.95742 0.04592 0.0
H1520 H 0.51508 0.95776 0.96166 0.0
H1521 H 0.52764 0.92282 0.95392 0.0
C1522 C 0.51662 0.88395 0.94868 0.0
C1523 C 0.50257 0.86415 0.95501 0.0
C1524 C 0.51113 0.9577 0.98004 0.0
C1525 C 0.50075 0.91169 0.97318 0.0
C1526 C 0.51611 0.97966 0.99693 0.0
C1527 C 0.51232 0.97976 0.02135 0.0
C1528 C 0.50224 0.93589 0.98775 0.0
C1529 C 0.50137 0.95797 0.0274 0.0
C1530 C 0.51576 0.90779 0.95773 0.0
C1531 C 0.48695 0.86889 0.96919 0.0
N1532 N 0.49696 0.93681 0.01079 0.0
N1533 N 0.48674 0.89215 0.97815 0.0
H1534 H 0.03208 0.79828 0.76975 0.0
H1535 H 0.9195 0.7612 0.81338 0.0
H1536 H 0.01225 0.72928 0.79345 0.0
H1537 H 0.9547 0.8364 0.82056 0.0
H1538 H 0.95265 0.74852 0.80596 0.0
H1539 H 1.00321 0.81223 0.78753 0.0
C1540 C 0.02175 0.78614 0.77892 0.0
C1541 C 0.02446 0.76256 0.78004 0.0
C1542 C 0.95315 0.7678 0.8095 0.0
C1543 C 0.99115 0.77827 0.8001 0.0
C1544 C 0.93425 0.7751 0.81385 0.0
C1545 C 0.93414 0.79995 0.81728 0.0
C1546 C 0.97195 0.78542 0.80822 0.0
C1547 C 0.95376 0.81703 0.81733 0.0
C1548 C 1.00532 0.79415 0.78915 0.0
C1549 C 1.01069 0.74762 0.79225 0.0
N1550 N 0.97174 0.80943 0.81251 0.0
N1551 N 0.99434 0.75559 0.80148 0.0
H1552 H 0.11598 1.00999 0.8837 0.0
H1553 H 0.08344 0.05904 0.01212 0.0
H1554 H 0.11252 0.08406 0.90776 0.0
H1555 H 0.05898 0.98396 0.97506 0.0
H1556 H 0.10405 0.06716 0.97927 0.0
H1557 H 0.10391 0.99922 0.92194 0.0
C1558 C 0.11293 0.02399 0.89714 0.0
C1559 C 0.11498 0.04788 0.8925 0.0
C1560 C 0.0944 0.04882 0.97847 0.0
C1561 C 0.10171 0.03587 0.9361 0.0
C1562 C 0.08274 0.04413 0.9973 0.0
C1563 C 0.06926 0.02087 0.9961 0.0
C1564 C 0.09264 0.03013 0.95827 0.0
C1565 C 0.06902 1.00222 0.97647 0.0
C1566 C 0.10603 0.01784 0.91883 0.0
C1567 C 0.11086 0.06536 0.91045 0.0
N1568 N 0.08037 1.0073 0.95809 0.0
N1569 N 0.10445 0.05902 0.93142 0.0
H1570 H 0.70876 0.26041 0.52272 0.0
H1571 H 0.73648 0.31959 0.66009 0.0
H1572 H 0.70701 0.33523 0.54582 0.0
H1573 H 0.70891 0.24197 0.63717 0.0
H1574 H 0.72009 0.32557 0.61913 0.0
H1575 H 0.70245 0.25205 0.56352 0.0
C1576 C 0.70636 0.27489 0.53614 0.0
C1577 C 0.70894 0.29866 0.53118 0.0
C1578 C 0.71718 0.30726 0.62323 0.0
C1579 C 0.70243 0.28948 0.57806 0.0
C1580 C 0.72654 0.30381 0.64672 0.0
C1581 C 0.72471 0.28013 0.65191 0.0
C1582 C 0.70634 0.28688 0.60463 0.0
C1583 C 0.71158 0.26047 0.63367 0.0
C1584 C 0.70276 0.27013 0.55945 0.0
C1585 C 0.70543 0.3167 0.54906 0.0
N1586 N 0.70337 0.26422 0.61062 0.0
N1587 N 0.70305 0.31194 0.57206 0.0
H1588 H 0.43474 0.04344 0.38167 0.0
H1589 H 0.54976 0.07393 0.48107 0.0
H1590 H 0.49786 0.0729 0.36467 0.0
H1591 H 0.49208 0.0238 0.49165 0.0
H1592 H 0.52935 0.07846 0.44119 0.0
H1593 H 0.45335 0.04133 0.42408 0.0
C1594 C 0.45243 0.05032 0.38708 0.0
C1595 C 0.46458 0.05918 0.36954 0.0
C1596 C 0.52102 0.06645 0.45211 0.0
C1597 C 0.48627 0.05608 0.41828 0.0
C1598 C 0.53273 0.06381 0.47511 0.0
C1599 C 0.52289 0.04825 0.49007 0.0
C1600 C 0.49883 0.05379 0.44356 0.0
C1601 C 0.50058 0.03587 0.48092 0.0
C1602 C 0.46311 0.0487 0.41125 0.0
C1603 C 0.48763 0.06664 0.37755 0.0
N1604 N 0.48937 0.03895 0.45845 0.0
N1605 N 0.49756 0.06505 0.40106 0.0
H1606 H 0.79877 0.69156 0.10945 0.0
H1607 H 0.75737 0.77221 0.2116 0.0
H1608 H 0.75551 0.7384 0.09201 0.0
H1609 H 0.8192 0.75245 0.22942 0.0
H1610 H 0.75556 0.75728 0.16751 0.0
H1611 H 0.80653 0.71172 0.15357 0.0
C1612 C 0.79118 0.70625 0.11478 0.0
C1613 C 0.77619 0.71301 0.09709 0.0
C1614 C 0.76963 0.75636 0.18102 0.0
C1615 C 0.78472 0.73574 0.14716 0.0
C1616 C 0.7706 0.76478 0.2062 0.0
C1617 C 0.78841 0.76349 0.22415 0.0
C1618 C 0.78639 0.74616 0.17371 0.0
C1619 C 0.80519 0.75381 0.2161 0.0
C1620 C 0.79558 0.71769 0.1399 0.0
C1621 C 0.76687 0.73222 0.10501 0.0
N1622 N 0.80366 0.74521 0.19142 0.0
N1623 N 0.77107 0.74264 0.12943 0.0
H1624 H 0.07048 0.05797 0.75997 0.0
H1625 H 0.06676 0.98934 0.62205 0.0
H1626 H 0.11524 0.01284 0.74574 0.0
H1627 H 0.04821 0.05716 0.63957 0.0
H1628 H 0.07699 0.98947 0.66727 0.0
H1629 H 0.05385 0.04852 0.71573 0.0
C1630 C 0.07667 0.0458 0.74762 0.0
C1631 C 0.0946 0.03656 0.7566 0.0
C1632 C 0.07048 1.00413 0.66106 0.0
C1633 C 0.07552 0.02572 0.70567 0.0
C1634 C 0.06459 1.00403 0.63538 0.0
C1635 C 0.05692 0.02344 0.62719 0.0
C1636 C 0.06807 0.02344 0.67838 0.0
C1637 C 0.05437 0.04204 0.64512 0.0
C1638 C 0.06716 0.04046 0.72231 0.0
C1639 C 0.10161 0.02058 0.7396 0.0
N1640 N 0.0599 0.04156 0.6698 0.0
N1641 N 0.0922 0.01585 0.71483 0.0
H1642 H 0.73663 0.34725 0.40149 0.0
H1643 H 0.77217 0.32793 0.28765 0.0
H1644 H 0.73691 0.27191 0.40276 0.0
H1645 H 0.78893 0.26591 0.31534 0.0
H1646 H 0.75173 0.33349 0.32125 0.0
H1647 H 0.74713 0.34331 0.3607 0.0
C1648 C 0.73811 0.32962 0.39274 0.0
C1649 C 0.73623 0.30996 0.40564 0.0
C1650 C 0.76005 0.31883 0.32019 0.0
C1651 C 0.74831 0.30525 0.35904 0.0
C1652 C 0.77172 0.31568 0.30101 0.0
C1653 C 0.78246 0.29664 0.29903 0.0
C1654 C 0.75918 0.30273 0.33736 0.0
C1655 C 0.78105 0.28094 0.31637 0.0
C1656 C 0.7442 0.32738 0.3694 0.0
C1657 C 0.73852 0.28763 0.3936 0.0
N1658 N 0.76962 0.28435 0.33476 0.0
N1659 N 0.7448 0.28602 0.3712 0.0
H1660 H 0.49246 0.0496 0.24634 0.0
H1661 H 0.48026 0.05476 0.09858 0.0
H1662 H 0.43312 0.06102 0.20494 0.0
H1663 H 0.53478 0.03833 0.14468 0.0
H1664 H 0.46278 0.05924 0.13556 0.0
H1665 H 0.50808 0.04851 0.20888 0.0
C1666 C 0.48266 0.05224 0.22941 0.0
C1667 C 0.46126 0.05557 0.22942 0.0
C1668 C 0.47856 0.05464 0.13755 0.0
C1669 C 0.47949 0.05381 0.18489 0.0
C1670 C 0.48862 0.05203 0.1163 0.0
C1671 C 0.50924 0.04599 0.118 0.0
C1672 C 0.48911 0.0514 0.16103 0.0
C1673 C 0.51898 0.04286 0.14187 0.0
C1674 C 0.49169 0.05145 0.20771 0.0
C1675 C 0.44973 0.05875 0.20635 0.0
N1676 N 0.50899 0.0456 0.162 0.0
N1677 N 0.45887 0.05764 0.18516 0.0
H1678 H 0.75617 0.73756 0.98162 0.0
H1679 H 0.78814 0.73455 0.84887 0.0
H1680 H 0.78241 0.6794 0.94963 0.0
H1681 H 0.79345 0.80218 0.89812 0.0
H1682 H 0.78185 0.71247 0.88309 0.0
H1683 H 0.76579 0.76004 0.94891 0.0
C1684 C 0.76398 0.7295 0.96765 0.0
C1685 C 0.76838 0.70648 0.9682 0.0
C1686 C 0.78448 0.73213 0.8864 0.0
C1687 C 0.77923 0.73214 0.93052 0.0
C1688 C 0.78788 0.74475 0.86688 0.0
C1689 C 0.79124 0.77024 0.87074 0.0
C1690 C 0.78398 0.74506 0.90978 0.0
C1691 C 0.79089 0.78254 0.89443 0.0
C1692 C 0.76957 0.74244 0.94908 0.0
C1693 C 0.77876 0.69708 0.94982 0.0
N1694 N 0.78712 0.76979 0.91304 0.0
N1695 N 0.7836 0.70984 0.93144 0.0
H1696 H 0.80166 0.06223 1.00654 0.0
H1697 H 0.92671 0.07971 0.99209 0.0
H1698 H 0.85 0.13128 0.02409 0.0
H1699 H 0.88269 1.00994 0.9899 0.0
H1700 H 0.89579 0.09877 0.9922 0.0
H1701 H 0.82819 0.04315 0.98895 0.0
C1702 C 0.8177 0.07347 1.00627 0.0
C1703 C 0.82383 0.09827 0.01725 0.0
C1704 C 0.89283 0.07923 0.99129 0.0
C1705 C 0.85416 0.07659 0.99725 0.0
C1706 C 0.91046 0.06836 0.99129 0.0
C1707 C 0.90733 0.0433 0.99154 0.0
C1708 C 0.87192 0.06496 0.99167 0.0
C1709 C 0.88586 0.02934 0.98985 0.0
C1710 C 0.83284 0.06255 0.99629 0.0
C1711 C 0.84475 0.112 0.01624 0.0
N1712 N 0.86901 0.04043 0.9904 0.0
N1713 N 0.85926 0.10091 1.00671 0.0
H1714 H 0.39382 0.46844 0.09594 0.0
H1715 H 0.49289 0.47785 0.02212 0.0
H1716 H 0.40829 0.40631 0.05367 0.0
H1717 H 0.49862 0.52806 0.09028 0.0
H1718 H 0.45754 0.45482 0.02845 0.0
H1719 H 0.42842 0.49421 0.08949 0.0
C1720 C 0.40419 0.46024 0.08535 0.0
C1721 C 0.39819 0.43514 0.07551 0.0
C1722 C 0.46655 0.47088 0.04204 0.0
C1723 C 0.43724 0.46439 0.06766 0.0
C1724 C 0.48681 0.48386 0.03854 0.0
C1725 C 0.49898 0.50441 0.05607 0.0
C1726 C 0.45813 0.47882 0.06295 0.0
C1727 C 0.48981 0.51211 0.07645 0.0
C1728 C 0.42388 0.4749 0.08173 0.0
C1729 C 0.41224 0.42549 0.06186 0.0
N1730 N 0.4699 0.4993 0.07938 0.0
N1731 N 0.43093 0.44009 0.05824 0.0
H1732 H 0.39273 0.54989 0.7804 0.0
H1733 H 0.37975 0.67201 0.72979 0.0
H1734 H 0.44408 0.59661 0.75423 0.0
H1735 H 0.33127 0.62991 0.7637 0.0
H1736 H 0.40311 0.64394 0.73757 0.0
H1737 H 0.36963 0.57847 0.77368 0.0
C1738 C 0.39921 0.56621 0.77337 0.0
C1739 C 0.4204 0.57082 0.76786 0.0
C1740 C 0.38735 0.64083 0.7433 0.0
C1741 C 0.39394 0.60355 0.75992 0.0
C1742 C 0.37402 0.65691 0.73893 0.0
C1743 C 0.35347 0.65339 0.7461 0.0
C1744 C 0.38013 0.62098 0.75491 0.0
C1745 C 0.34681 0.63321 0.75751 0.0
C1746 C 0.38599 0.58252 0.7695 0.0
C1747 C 0.42788 0.59228 0.75877 0.0
N1748 N 0.36009 0.61781 0.76157 0.0
N1749 N 0.41464 0.60777 0.755 0.0
H1750 H 0.30278 0.64148 0.66207 0.0
H1751 H 0.17562 0.61846 0.6627 0.0
H1752 H 0.26953 0.69803 0.68062 0.0
H1753 H 0.20752 0.56226 0.63892 0.0
H1754 H 0.21163 0.64607 0.6803 0.0
H1755 H 0.27058 0.61102 0.66598 0.0
C1756 C 0.28896 0.64757 0.66761 0.0
C1757 C 0.28848 0.67226 0.67005 0.0
C1758 C 0.2108 0.62761 0.67153 0.0
C1759 C 0.25157 0.63751 0.67417 0.0
C1760 C 0.19026 0.61193 0.66129 0.0
C1761 C 0.18868 0.5883 0.64879 0.0
C1762 C 0.22992 0.61972 0.66895 0.0
C1763 C 0.20808 0.58046 0.64817 0.0
C1764 C 0.27053 0.63013 0.66973 0.0
C1765 C 0.27034 0.67912 0.67776 0.0
N1766 N 0.22796 0.5963 0.65771 0.0
N1767 N 0.25238 0.66178 0.67898 0.0
H1768 H 0.66935 0.9092 0.81274 0.0
H1769 H 0.78785 0.87542 0.81918 0.0
H1770 H 0.72922 0.96496 0.8215 0.0
H1771 H 0.7263 0.82248 0.81076 0.0
H1772 H 0.76794 0.90811 0.82044 0.0
H1773 H 0.6905 0.8783 0.81233 0.0
C1774 C 0.68701 0.91524 0.81461 0.0
C1775 C 0.69709 0.94041 0.81716 0.0
C1776 C 0.75873 0.88938 0.81837 0.0
C1777 C 0.72224 0.90364 0.81666 0.0
C1778 C 0.77018 0.87047 0.81769 0.0
C1779 C 0.75907 0.84557 0.81491 0.0
C1780 C 0.73563 0.88389 0.81627 0.0
C1781 C 0.73597 0.84102 0.81298 0.0
C1782 C 0.69921 0.89722 0.81436 0.0
C1783 C 0.72031 0.94613 0.81948 0.0
N1784 N 0.72529 0.85967 0.81368 0.0
N1785 N 0.73189 0.92812 0.81916 0.0
H1786 H 0.73258 0.88943 0.5719 0.0
H1787 H 0.69995 0.01676 0.56452 0.0
H1788 H 0.78041 0.95732 0.57732 0.0
H1789 H 0.65296 0.94908 0.5626 0.0
H1790 H 0.72953 0.99557 0.56917 0.0
H1791 H 0.70338 0.91109 0.56832 0.0
C1792 C 0.73701 0.90893 0.57239 0.0
C1793 C 0.7591 0.92151 0.57492 0.0
C1794 C 0.71276 0.98535 0.56776 0.0
C1795 C 0.72545 0.94659 0.57073 0.0
C1796 C 0.69579 0.99748 0.56525 0.0
C1797 C 0.67376 0.98479 0.56323 0.0
C1798 C 0.70781 0.96023 0.56824 0.0
C1799 C 0.66955 0.95966 0.56378 0.0
C1800 C 0.72024 0.92132 0.57033 0.0
C1801 C 0.76367 0.94683 0.57543 0.0
N1802 N 0.68636 0.94828 0.56624 0.0
N1803 N 0.74701 0.95849 0.57331 0.0
H1804 H 0.41 0.40282 0.75072 0.0
H1805 H 0.29912 0.36809 0.80339 0.0
H1806 H 0.38069 0.45745 0.78436 0.0
H1807 H 0.32876 0.31617 0.76569 0.0
H1808 H 0.32746 0.40147 0.79543 0.0
H1809 H 0.37894 0.37122 0.75456 0.0
C1810 C 0.39693 0.40821 0.75881 0.0
C1811 C 0.39806 0.43285 0.76739 0.0
C1812 C 0.32767 0.38275 0.78885 0.0
C1813 C 0.36226 0.39649 0.77206 0.0
C1814 C 0.31154 0.36376 0.79339 0.0
C1815 C 0.3118 0.33942 0.78541 0.0
C1816 C 0.34404 0.37721 0.77622 0.0
C1817 C 0.32812 0.3347 0.77244 0.0
C1818 C 0.37913 0.39009 0.761 0.0
C1819 C 0.38049 0.43866 0.77751 0.0
N1820 N 0.3436 0.35338 0.76837 0.0
N1821 N 0.36336 0.42057 0.77978 0.0
H1822 H 0.21851 0.57877 0.29184 0.0
H1823 H 0.27118 0.72119 0.35226 0.0
H1824 H 0.21276 0.61129 0.36497 0.0
H1825 H 0.25875 0.69445 0.27302 0.0
H1826 H 0.25523 0.6799 0.35865 0.0
H1827 H 0.23908 0.61905 0.2863 0.0
C1828 C 0.22228 0.5941 0.30713 0.0
C1829 C 0.21425 0.59125 0.3292 0.0
C1830 C 0.25601 0.68297 0.33983 0.0
C1831 C 0.23742 0.63797 0.32269 0.0
C1832 C 0.26516 0.70672 0.33614 0.0
C1833 C 0.26629 0.71178 0.31202 0.0
C1834 C 0.24808 0.66356 0.31931 0.0
C1835 C 0.25818 0.69178 0.29199 0.0
C1836 C 0.23372 0.61728 0.30378 0.0
C1837 C 0.21895 0.6123 0.34785 0.0
N1838 N 0.24956 0.66877 0.29606 0.0
N1839 N 0.23011 0.63449 0.34421 0.0
H1840 H 0.53645 0.70341 0.47189 0.0
H1841 H 0.49603 0.58619 0.53248 0.0
H1842 H 0.47455 0.68716 0.49653 0.0
H1843 H 0.56399 0.61444 0.5286 0.0
H1844 H 0.48698 0.62138 0.51629 0.0
H1845 H 0.54596 0.66878 0.48911 0.0
C1846 C 0.52484 0.69254 0.48081 0.0
C1847 C 0.5047 0.69826 0.4828 0.0
C1848 C 0.5039 0.61993 0.51913 0.0
C1849 C 0.51542 0.65863 0.50243 0.0
C1850 C 0.50907 0.59985 0.52839 0.0
C1851 C 0.53082 0.59738 0.53199 0.0
C1852 C 0.52051 0.6375 0.51307 0.0
C1853 C 0.54703 0.61566 0.5263 0.0
C1854 C 0.53032 0.67287 0.49074 0.0
C1855 C 0.49031 0.68355 0.49465 0.0
N1856 N 0.54152 0.63483 0.51696 0.0
N1857 N 0.49591 0.66441 0.5039 0.0
H1858 H 0.66766 0.32729 0.68695 0.0
H1859 H 0.71114 0.27507 0.80699 0.0
H1860 H 0.62384 0.29633 0.73278 0.0
H1861 H 0.75298 0.3235 0.77134 0.0
H1862 H 0.67871 0.28138 0.78005 0.0
H1863 H 0.69894 0.32498 0.71756 0.0
C1864 C 0.66463 0.32023 0.70366 0.0
C1865 C 0.64308 0.31194 0.70729 0.0
C1866 C 0.69501 0.29061 0.77817 0.0
C1867 C 0.67902 0.30894 0.74247 0.0
C1868 C 0.71346 0.28696 0.79344 0.0
C1869 C 0.73471 0.29832 0.79086 0.0
C1870 C 0.69794 0.30568 0.76025 0.0
C1871 C 0.73689 0.31376 0.77331 0.0
C1872 C 0.68254 0.31892 0.72117 0.0
C1873 C 0.64019 0.30303 0.72934 0.0
N1874 N 0.71877 0.31685 0.75857 0.0
N1875 N 0.65798 0.30148 0.74601 0.0
H1876 H 0.03239 0.33381 0.03141 0.0
H1877 H 0.01508 0.45795 1.00172 0.0
H1878 H 0.02324 0.34407 0.95473 0.0
H1879 H 0.07006 0.45851 0.05923 0.0
H1880 H 1.01187 0.4144 0.98671 0.0
H1881 H 0.04144 0.37833 0.04504 0.0
C1882 C 0.03269 0.34548 0.0175 0.0
C1883 C 0.02727 0.33539 0.99195 0.0
C1884 C 0.02466 0.42419 1.00254 0.0
C1885 C 0.03657 0.38583 0.00732 0.0
C1886 C 0.02638 0.44886 0.0112 0.0
C1887 C 0.04284 0.46169 0.03169 0.0
C1888 C 0.03904 0.41224 0.015 0.0
C1889 C 0.05721 0.44919 0.04329 0.0
C1890 C 0.03778 0.37075 0.02526 0.0
C1891 C 0.02761 0.35122 0.9746 0.0
N1892 N 0.05478 0.425 0.03502 0.0
N1893 N 0.03172 0.37571 0.9826 0.0
H1894 H 0.99069 0.79769 0.15736 0.0
H1895 H 0.95168 0.79742 0.28874 0.0
H1896 H 0.03517 0.80505 0.2275 0.0
H1897 H 0.90716 0.78857 0.2183 0.0
H1898 H 0.9824 0.80075 0.2668 0.0
H1899 H 0.96009 0.79496 0.17945 0.0
C1900 C 0.99407 0.79874 0.17743 0.0
C1901 C 0.01564 0.80159 0.19054 0.0
C1902 C 0.96593 0.79809 0.25612 0.0
C1903 C 0.98044 0.79847 0.21608 0.0
C1904 C 0.94829 0.79603 0.26863 0.0
C1905 C 0.92664 0.79254 0.2554 0.0
C1906 C 0.96204 0.79667 0.23008 0.0
C1907 C 0.9235 0.79146 0.22939 0.0
C1908 C 0.97653 0.79718 0.19005 0.0
C1909 C 0.01888 0.80285 0.21657 0.0
N1910 N 0.94094 0.79344 0.21762 0.0
N1911 N 1.0015 0.80127 0.22844 0.0
H1912 H 0.51183 0.26546 0.15365 0.0
H1913 H 0.53237 0.40201 0.12745 0.0
H1914 H 0.56044 0.32701 0.19986 0.0
H1915 H 0.49674 0.33938 0.07132 0.0
H1916 H 0.53577 0.37526 0.15786 0.0
H1917 H 0.50006 0.29286 0.12662 0.0
C1918 C 0.51991 0.28473 0.15819 0.0
C1919 C 0.53731 0.29396 0.17882 0.0
C1920 C 0.52698 0.36738 0.13896 0.0
C1921 C 0.52381 0.32526 0.14831 0.0
C1922 C 0.52482 0.38268 0.12163 0.0
C1923 C 0.51441 0.37288 0.09673 0.0
C1924 C 0.51873 0.34207 0.13137 0.0
C1925 C 0.50522 0.34761 0.09023 0.0
C1926 C 0.51319 0.30031 0.14279 0.0
C1927 C 0.54716 0.31906 0.18395 0.0
N1928 N 0.50777 0.33301 0.10741 0.0
N1929 N 0.54031 0.33381 0.16876 0.0
H1930 H 0.98053 0.31611 0.35737 0.0
H1931 H 0.85492 0.26028 0.29307 0.0
H1932 H 0.94069 0.25173 0.37522 0.0
H1933 H 0.88607 0.33675 0.30053 0.0
H1934 H 0.88817 0.25453 0.31781 0.0
H1935 H 0.94793 0.3212 0.33019 0.0
C1936 C 0.96501 0.30284 0.35525 0.0
C1937 C 0.9632 0.28352 0.3686 0.0
C1938 C 0.88771 0.27258 0.31413 0.0
C1939 C 0.92612 0.28934 0.33785 0.0
C1940 C 0.86879 0.27589 0.3 0.0
C1941 C 0.86785 0.29903 0.2948 0.0
C1942 C 0.90592 0.2925 0.32287 0.0
C1943 C 0.88617 0.31867 0.30435 0.0
C1944 C 0.94644 0.30592 0.33999 0.0
C1945 C 0.94272 0.26695 0.36536 0.0
N1946 N 0.90464 0.31493 0.31785 0.0
N1947 N 0.92494 0.27025 0.35029 0.0
H1948 H 0.06468 0.65734 0.70186 0.0
H1949 H 0.03961 0.61357 0.55553 0.0
H1950 H 0.04411 0.70387 0.65209 0.0
H1951 H 0.08362 0.58719 0.60698 0.0
H1952 H 0.04021 0.64698 0.58909 0.0
H1953 H 0.06838 0.62947 0.66604 0.0
C1954 C 0.06062 0.66154 0.68337 0.0
C1955 C 0.05412 0.68303 0.68001 0.0
C1956 C 0.05015 0.6342 0.59281 0.0
C1957 C 0.05873 0.65133 0.63888 0.0
C1958 C 0.05007 0.61535 0.57359 0.0
C1959 C 0.06143 0.5975 0.57867 0.0
C1960 C 0.06145 0.63481 0.61708 0.0
C1961 C 0.0745 0.60047 0.60243 0.0
C1962 C 0.06305 0.64578 0.66294 0.0
C1963 C 0.0492 0.68752 0.65554 0.0
N1964 N 0.07379 0.61843 0.62092 0.0
N1965 N 0.05159 0.67177 0.63584 0.0
H1966 H 0.57469 0.81891 0.87762 0.0
H1967 H 0.63241 0.72623 0.80669 0.0
H1968 H 0.54518 0.74203 0.85187 0.0
H1969 H 0.66193 0.80353 0.8287 0.0
H1970 H 0.59905 0.7327 0.81992 0.0
H1971 H 0.60537 0.81472 0.85679 0.0
C1972 C 0.57449 0.80123 0.86731 0.0
C1973 C 0.55741 0.78074 0.8667 0.0
C1974 C 0.61274 0.74831 0.82172 0.0
C1975 C 0.59254 0.77579 0.84302 0.0
C1976 C 0.63183 0.74465 0.81396 0.0
C1977 C 0.65019 0.76432 0.81663 0.0
C1978 C 0.6119 0.77182 0.83246 0.0
C1979 C 0.6484 0.78771 0.82668 0.0
C1980 C 0.59206 0.79884 0.8555 0.0
C1981 C 0.55806 0.7583 0.85307 0.0
N1982 N 0.62969 0.79077 0.83438 0.0
N1983 N 0.57538 0.75641 0.84198 0.0
H1984 H 0.47192 0.47004 0.68759 0.0
H1985 H 0.53331 0.57749 0.62902 0.0
H1986 H 0.47543 0.545 0.71781 0.0
H1987 H 0.50652 0.5038 0.58874 0.0
H1988 H 0.51258 0.56736 0.66185 0.0
H1989 H 0.48521 0.48297 0.65142 0.0
C1990 C 0.47541 0.48927 0.68652 0.0
C1991 C 0.47272 0.5065 0.70578 0.0
C1992 C 0.511 0.55359 0.64558 0.0
C1993 C 0.48824 0.52155 0.6644 0.0
C1994 C 0.52282 0.55934 0.62692 0.0
C1995 C 0.52177 0.54138 0.60631 0.0
C1996 C 0.49837 0.52967 0.6436 0.0
C1997 C 0.50792 0.51818 0.60437 0.0
C1998 C 0.4829 0.49665 0.66578 0.0
C1999 C 0.4773 0.53116 0.70331 0.0
N2000 N 0.497 0.51293 0.6229 0.0
N2001 N 0.48519 0.53805 0.68312 0.0
H2002 H 0.75296 0.14846 1.00659 0.0
H2003 H 0.77226 0.28274 0.98595 0.0
H2004 H 0.75203 0.20727 0.06444 0.0
H2005 H 0.75003 0.22157 0.92467 0.0
H2006 H 0.76041 0.2556 0.01434 0.0
H2007 H 0.74669 0.17397 0.97547 0.0
C2008 C 0.75079 0.16652 0.01264 0.0
C2009 C 0.75334 0.17592 0.0381 0.0
C2010 C 0.75774 0.2482 0.9946 0.0
C2011 C 0.7469 0.20551 1.00278 0.0
C2012 C 0.7645 0.26371 0.97836 0.0
C2013 C 0.76265 0.25431 0.95298 0.0
C2014 C 0.74936 0.22309 0.98543 0.0
C2015 C 0.75248 0.22946 0.94425 0.0
C2016 C 0.74727 0.18114 0.99489 0.0
C2017 C 0.75029 0.19939 0.04497 0.0
N2018 N 0.74659 0.21464 0.96051 0.0
N2019 N 0.74783 0.21366 0.02745 0.0
H2020 H 0.11781 0.47877 0.23888 0.0
H2021 H 0.09438 0.55684 0.12912 0.0
H2022 H 0.13964 0.55695 0.24861 0.0
H2023 H 0.0558 0.48412 0.1261 0.0
H2024 H 0.11542 0.55511 0.17025 0.0
H2025 H 0.09947 0.47812 0.19539 0.0
C2026 C 0.11915 0.49572 0.23187 0.0
C2027 C 0.13048 0.51795 0.24779 0.0
C2028 C 0.10245 0.53942 0.16056 0.0
C2029 C 0.10937 0.51739 0.19761 0.0
C2030 C 0.09044 0.54039 0.13688 0.0
C2031 C 0.07309 0.52065 0.12383 0.0
C2032 C 0.09749 0.51841 0.1715 0.0
C2033 C 0.0689 0.49988 0.13529 0.0
C2034 C 0.10847 0.4954 0.20701 0.0
C2035 C 0.13116 0.53932 0.23735 0.0
N2036 N 0.08089 0.4993 0.1582 0.0
N2037 N 0.12096 0.53849 0.21329 0.0
H2038 H 0.78802 0.87171 0.498 0.0
H2039 H 0.82382 0.79255 0.3908 0.0
H2040 H 0.82178 0.81516 0.51086 0.0
H2041 H 0.76452 0.81764 0.37474 0.0
H2042 H 0.82507 0.80433 0.43537 0.0
H2043 H 0.77966 0.85486 0.45295 0.0
C2044 C 0.7933 0.85554 0.49147 0.0
C2045 C 0.80595 0.84509 0.50819 0.0
C2046 C 0.81169 0.80712 0.42211 0.0
C2047 C 0.79685 0.8262 0.45703 0.0
C2048 C 0.81106 0.80056 0.39668 0.0
C2049 C 0.79409 0.8042 0.37912 0.0
C2050 C 0.79548 0.81788 0.43008 0.0
C2051 C 0.77786 0.81449 0.38777 0.0
C2052 C 0.78858 0.84601 0.46581 0.0
C2053 C 0.81233 0.82414 0.49869 0.0
N2054 N 0.77909 0.82129 0.41273 0.0
N2055 N 0.80804 0.81566 0.47376 0.0
H2056 H 0.51507 0.48471 0.83324 0.0
H2057 H 0.53113 0.55235 0.97434 0.0
H2058 H 0.47702 0.53591 0.8536 0.0
H2059 H 0.5437 0.48187 0.95255 0.0
H2060 H 0.51831 0.55333 0.92992 0.0
H2061 H 0.53344 0.49113 0.87669 0.0
C2062 C 0.51071 0.49755 0.84678 0.0
C2063 C 0.49416 0.5095 0.83973 0.0
C2064 C 0.52405 0.5378 0.93498 0.0
C2065 C 0.51527 0.51686 0.88978 0.0
C2066 C 0.53144 0.53726 0.96022 0.0
C2067 C 0.5383 0.5169 0.96707 0.0
C2068 C 0.52407 0.51809 0.91663 0.0
C2069 C 0.53832 0.4978 0.94811 0.0
C2070 C 0.5212 0.50113 0.87165 0.0
C2071 C 0.48952 0.52616 0.85822 0.0
N2072 N 0.53135 0.49889 0.92381 0.0
N2073 N 0.4999 0.52921 0.88252 0.0
H2074 H 0.83412 0.22078 0.09136 0.0
H2075 H 0.86982 0.30384 0.22472 0.0
H2076 H 0.85099 0.19774 0.16158 0.0
H2077 H 0.82206 0.31417 0.16476 0.0
H2078 H 0.88117 0.27539 0.19523 0.0
H2079 H 0.84794 0.26346 0.11252 0.0
C2080 C 0.84194 0.22472 0.11095 0.0
C2081 C 0.84133 0.20594 0.12493 0.0
C2082 C 0.86885 0.28463 0.1883 0.0
C2083 C 0.85692 0.25425 0.14899 0.0
C2084 C 0.86238 0.30086 0.20506 0.0
C2085 C 0.84471 0.31084 0.19706 0.0
C2086 C 0.85728 0.27807 0.16354 0.0
C2087 C 0.83564 0.3066 0.17153 0.0
C2088 C 0.84959 0.24903 0.123 0.0
C2089 C 0.85115 0.21183 0.15028 0.0
N2090 N 0.84161 0.28987 0.15564 0.0
N2091 N 0.85825 0.23557 0.16164 0.0
H2092 H 0.16016 0.5143 0.41306 0.0
H2093 H 0.05262 0.529 0.47126 0.0
H2094 H 0.1004 0.52524 0.3722 0.0
H2095 H 0.11289 0.52739 0.51895 0.0
H2096 H 0.07023 0.52521 0.43517 0.0
H2097 H 0.14389 0.51587 0.45125 0.0
C2098 C 0.14353 0.5165 0.41179 0.0
C2099 C 0.13177 0.51938 0.38874 0.0
C2100 C 0.0798 0.5257 0.45344 0.0
C2101 C 0.11289 0.52167 0.43316 0.0
C2102 C 0.06963 0.52794 0.47439 0.0
C2103 C 0.081 0.52872 0.49885 0.0
C2104 C 0.10187 0.52396 0.45614 0.0
C2105 C 0.1032 0.52708 0.50082 0.0
C2106 C 0.13427 0.5177 0.43384 0.0
C2107 C 0.11037 0.5228 0.38909 0.0
N2108 N 0.11275 0.52476 0.48 0.0
N2109 N 0.10187 0.5238 0.41047 0.0
H2110 H 0.83069 0.82136 0.62909 0.0
H2111 H 0.79691 0.83368 0.76166 0.0
H2112 H 0.80702 0.88312 0.65737 0.0
H2113 H 0.79084 0.76405 0.71561 0.0
H2114 H 0.80514 0.8539 0.7266 0.0
H2115 H 0.82066 0.80191 0.66354 0.0
C2116 C 0.82341 0.83091 0.64263 0.0
C2117 C 0.81978 0.85401 0.6404 0.0
C2118 C 0.80194 0.83421 0.7242 0.0
C2119 C 0.80837 0.83171 0.68015 0.0
C2120 C 0.79741 0.82266 0.74419 0.0
C2121 C 0.79323 0.79714 0.74147 0.0
C2122 C 0.80273 0.82016 0.70152 0.0
C2123 C 0.79397 0.78374 0.71845 0.0
C2124 C 0.81758 0.81968 0.66223 0.0
C2125 C 0.81007 0.86531 0.65839 0.0
N2126 N 0.79879 0.79543 0.69941 0.0
N2127 N 0.80489 0.85413 0.67774 0.0
H2128 H 0.68324 0.38817 0.48469 0.0
H2129 H 0.69518 0.5272 0.54576 0.0
H2130 H 0.74283 0.44464 0.49327 0.0
H2131 H 0.63648 0.46947 0.53691 0.0
H2132 H 0.71251 0.49808 0.52454 0.0
H2133 H 0.66518 0.41869 0.50107 0.0
C2134 C 0.69248 0.40705 0.48979 0.0
C2135 C 0.71464 0.41383 0.4878 0.0
C2136 C 0.69584 0.49182 0.52728 0.0
C2137 C 0.6941 0.44891 0.5069 0.0
C2138 C 0.68596 0.50842 0.53937 0.0
C2139 C 0.66445 0.50069 0.54336 0.0
C2140 C 0.68408 0.46737 0.51905 0.0
C2141 C 0.65326 0.47614 0.53475 0.0
C2142 C 0.68216 0.42449 0.49923 0.0
C2143 C 0.72573 0.4386 0.49456 0.0
N2144 N 0.66321 0.46039 0.52304 0.0
N2145 N 0.71539 0.45524 0.50404 0.0
H2146 H 0.20242 0.09144 0.49884 0.0
H2147 H 0.10574 0.06185 0.57458 0.0
H2148 H 0.18476 0.14596 0.5487 0.0
H2149 H 0.09838 0.02354 0.4994 0.0
H2150 H 0.14053 0.08795 0.57041 0.0
H2151 H 0.16953 0.06122 0.50359 0.0
C2152 C 0.19177 0.09696 0.51086 0.0
C2153 C 0.19615 0.12124 0.52321 0.0
C2154 C 0.1313 0.07379 0.55483 0.0
C2155 C 0.15924 0.08705 0.52912 0.0
C2156 C 0.11136 0.05909 0.55711 0.0
C2157 C 0.09881 0.04114 0.537 0.0
C2158 C 0.1391 0.07012 0.5325 0.0
C2159 C 0.10744 0.03748 0.51522 0.0
C2160 C 0.17306 0.07984 0.51347 0.0
C2161 C 0.18186 0.12752 0.53858 0.0
N2162 N 0.12708 0.05192 0.51347 0.0
N2163 N 0.16421 0.11057 0.5412 0.0
H2164 H 0.19621 1.00496 0.81556 0.0
H2165 H 0.21767 0.88534 0.86589 0.0
H2166 H 0.15077 0.96049 0.85112 0.0
H2167 H 0.25646 0.92276 0.819 0.0
H2168 H 0.19452 0.91452 0.86365 0.0
H2169 H 0.21987 0.97654 0.81917 0.0
C2170 C 0.19118 0.98921 0.8241 0.0
C2171 C 0.17144 0.98509 0.83299 0.0
C2172 C 0.20811 0.91633 0.85386 0.0
C2173 C 0.19854 0.95253 0.83734 0.0
C2174 C 0.2214 0.89978 0.85527 0.0
C2175 C 0.23894 0.90154 0.8425 0.0
C2176 C 0.21251 0.93488 0.83973 0.0
C2177 C 0.24292 0.92051 0.82883 0.0
C2178 C 0.2047 0.97298 0.82615 0.0
C2179 C 0.16579 0.96436 0.84391 0.0
N2180 N 0.22983 0.93642 0.82783 0.0
N2181 N 0.1793 0.9489 0.84583 0.0
H2182 H 0.34044 0.94967 0.93497 0.0
H2183 H 0.40013 0.06406 0.02899 0.0
H2184 H 0.30745 0.98006 0.98956 0.0
H2185 H 0.41523 0.05128 0.95542 0.0
H2186 H 0.36313 0.03796 0.01251 0.0
H2187 H 0.36462 0.98998 0.93822 0.0
C2188 C 0.33794 0.96502 0.94714 0.0
C2189 C 0.32229 0.96156 0.96235 0.0
C2190 C 0.3743 0.04155 0.99979 0.0
C2191 C 0.35025 1.00749 0.96684 0.0
C2192 C 0.39543 0.05637 0.00923 0.0
C2193 C 0.41091 0.05938 0.99369 0.0
C2194 C 0.36892 0.02927 0.97485 0.0
C2195 C 0.4039 0.04932 0.96815 0.0
C2196 C 0.35169 0.98806 0.94898 0.0
C2197 C 0.31952 0.98202 0.97768 0.0
N2198 N 0.38361 0.03414 0.95967 0.0
N2199 N 0.33387 1.00405 0.98015 0.0
H2200 H 0.90665 0.64589 0.8058 0.0
H2201 H 0.79366 0.6938 0.78871 0.0
H2202 H 0.84101 0.5994 0.78615 0.0
H2203 H 0.8574 0.74432 0.80814 0.0
H2204 H 0.81162 0.65984 0.78777 0.0
H2205 H 0.8905 0.68192 0.80693 0.0
C2206 C 0.88894 0.64301 0.80172 0.0
C2207 C 0.87549 0.61885 0.79586 0.0
C2208 C 0.82186 0.67829 0.79222 0.0
C2209 C 0.85647 0.66093 0.79713 0.0
C2210 C 0.81147 0.69799 0.79273 0.0
C2211 C 0.82367 0.72261 0.79844 0.0
C2212 C 0.84505 0.68247 0.79749 0.0
C2213 C 0.84693 0.726 0.80352 0.0
C2214 C 0.87962 0.66381 0.80236 0.0
C2215 C 0.85248 0.61714 0.79079 0.0
N2216 N 0.85667 0.70647 0.80294 0.0
N2217 N 0.84399 0.6374 0.79155 0.0
H2218 H 0.85923 0.67434 0.04354 0.0
H2219 H 0.89242 0.54619 0.03974 0.0
H2220 H 0.81175 0.60475 0.02733 0.0
H2221 H 0.93984 0.61586 0.05707 0.0
H2222 H 0.8628 0.56721 0.03407 0.0
H2223 H 0.88888 0.65321 0.04737 0.0
C2224 C 0.85499 0.6546 0.04072 0.0
C2225 C 0.83286 0.64135 0.03513 0.0
C2226 C 0.87968 0.57793 0.03907 0.0
C2227 C 0.86695 0.61694 0.03955 0.0
C2228 C 0.89666 0.56593 0.04245 0.0
C2229 C 0.91879 0.57921 0.04909 0.0
C2230 C 0.88471 0.60351 0.04232 0.0
C2231 C 0.92312 0.60477 0.05177 0.0
C2232 C 0.87199 0.64253 0.04293 0.0
C2233 C 0.82851 0.61577 0.03168 0.0
N2234 N 0.90628 0.61604 0.04849 0.0
N2235 N 0.84537 0.60444 0.03399 0.0
H2236 H 0.17027 0.15118 0.84186 0.0
H2237 H 0.28656 0.1926 0.80239 0.0
H2238 H 0.20676 0.09964 0.81774 0.0
H2239 H 0.25342 0.24211 0.83789 0.0
H2240 H 0.25792 0.15808 0.80755 0.0
H2241 H 0.20086 0.18449 0.84018 0.0
C2242 C 0.18478 0.14684 0.83628 0.0
C2243 C 0.18588 0.12252 0.82981 0.0
C2244 C 0.25698 0.1765 0.81427 0.0
C2245 C 0.22114 0.16084 0.82773 0.0
C2246 C 0.27328 0.19616 0.81132 0.0
C2247 C 0.27214 0.22017 0.81945 0.0
C2248 C 0.23947 0.181 0.82538 0.0
C2249 C 0.25472 0.22387 0.83101 0.0
C2250 C 0.20231 0.16594 0.83537 0.0
C2251 C 0.20521 0.11811 0.82289 0.0
N2252 N 0.23903 0.20451 0.83349 0.0
N2253 N 0.22205 0.13711 0.82184 0.0
H2254 H 0.3707 0.99307 0.3207 0.0
H2255 H 0.32316 0.85131 0.25437 0.0
H2256 H 0.38414 0.96358 0.25024 0.0
H2257 H 0.32895 0.87627 0.33317 0.0
H2258 H 0.33976 0.89331 0.25009 0.0
H2259 H 0.34918 0.95206 0.32284 0.0
C2260 C 0.36844 0.97824 0.30521 0.0
C2261 C 0.3789 0.98214 0.28494 0.0
C2262 C 0.33733 0.88964 0.26832 0.0
C2263 C 0.35463 0.93461 0.28757 0.0
C2264 C 0.32779 0.86553 0.27079 0.0
C2265 C 0.32466 0.85983 0.29423 0.0
C2266 C 0.34356 0.90864 0.28933 0.0
C2267 C 0.3311 0.87945 0.31472 0.0
C2268 C 0.35644 0.95465 0.30663 0.0
C2269 C 0.37605 0.96172 0.26598 0.0
N2270 N 0.34008 0.90274 0.31179 0.0
N2271 N 0.3643 0.93909 0.26773 0.0
H2272 H 0.61056 0.37378 0.60658 0.0
H2273 H 0.52372 0.4516 0.57166 0.0
H2274 H 0.54877 0.36384 0.63171 0.0
H2275 H 0.59231 0.47498 0.56789 0.0
H2276 H 0.53145 0.41703 0.58984 0.0
H2277 H 0.6031 0.40877 0.58913 0.0
C2278 C 0.59539 0.37896 0.60846 0.0
C2279 C 0.5802 0.36575 0.62059 0.0
C2280 C 0.54481 0.42971 0.58504 0.0
C2281 C 0.57152 0.40586 0.60037 0.0
C2282 C 0.54041 0.44937 0.57444 0.0
C2283 C 0.55742 0.46626 0.56818 0.0
C2284 C 0.56633 0.42665 0.58919 0.0
C2285 C 0.57872 0.46251 0.57251 0.0
C2286 C 0.5912 0.39902 0.59853 0.0
C2287 C 0.56093 0.3735 0.62258 0.0
N2288 N 0.58256 0.44304 0.58266 0.0
N2289 N 0.55705 0.39295 0.61238 0.0
H2290 H 0.46 0.7857 0.38319 0.0
H2291 H 0.33846 0.72738 0.30447 0.0
H2292 H 0.41948 0.71962 0.39659 0.0
H2293 H 0.36307 0.80518 0.3281 0.0
H2294 H 0.37213 0.72148 0.32907 0.0
H2295 H 0.42854 0.79005 0.35302 0.0
C2296 C 0.4447 0.77176 0.3792 0.0
C2297 C 0.44228 0.7522 0.3922 0.0
C2298 C 0.37018 0.73982 0.3287 0.0
C2299 C 0.40652 0.75705 0.35802 0.0
C2300 C 0.35105 0.74321 0.3147 0.0
C2301 C 0.34802 0.76679 0.31441 0.0
C2302 C 0.38662 0.76019 0.34198 0.0
C2303 C 0.36478 0.7867 0.32801 0.0
C2304 C 0.42675 0.77441 0.36229 0.0
C2305 C 0.42198 0.73489 0.38683 0.0
N2306 N 0.38348 0.78297 0.34117 0.0
N2307 N 0.40489 0.73767 0.3701 0.0
H2308 H 0.04714 0.72929 0.13793 0.0
H2309 H 0.08851 0.623 0.06504 0.0
H2310 H 0.09777 0.74129 0.09407 0.0
H2311 H 0.02683 0.60904 0.0904 0.0
H2312 H 0.09211 0.66661 0.07657 0.0
H2313 H 0.03886 0.68539 0.12123 0.0
C2314 C 0.05631 0.72279 0.12459 0.0
C2315 C 0.07335 0.73902 0.11762 0.0
C2316 C 0.0777 0.65406 0.07951 0.0
C2317 C 0.06414 0.68895 0.09875 0.0
C2318 C 0.07569 0.6291 0.07303 0.0
C2319 C 0.05741 0.6123 0.0769 0.0
C2320 C 0.06147 0.66244 0.09028 0.0
C2321 C 0.04122 0.62136 0.08712 0.0
C2322 C 0.0516 0.69774 0.1151 0.0
C2323 C 0.08465 0.72953 0.10023 0.0
N2324 N 0.04373 0.64585 0.09369 0.0
N2325 N 0.08 0.70517 0.09164 0.0
H2326 H 0.07441 0.31743 0.90199 0.0
H2327 H 0.14079 0.23091 0.83585 0.0
H2328 H 0.05685 0.23901 0.89459 0.0
H2329 H 0.16162 0.30953 0.85134 0.0
H2330 H 0.10916 0.23318 0.85555 0.0
H2331 H 0.10535 0.31452 0.8816 0.0
C2332 C 0.07696 0.29954 0.89598 0.0
C2333 C 0.06292 0.27843 0.90009 0.0
C2334 C 0.12067 0.24993 0.85468 0.0
C2335 C 0.09861 0.27498 0.87664 0.0
C2336 C 0.13871 0.24866 0.84333 0.0
C2337 C 0.15399 0.27007 0.8419 0.0
C2338 C 0.11771 0.27278 0.86458 0.0
C2339 C 0.15051 0.29252 0.85225 0.0
C2340 C 0.09474 0.29791 0.88438 0.0
C2341 C 0.0672 0.25579 0.89185 0.0
N2342 N 0.13276 0.29327 0.86303 0.0
N2343 N 0.08464 0.25467 0.88055 0.0
H2344 H 0.5497 0.77899 0.01608 0.0
H2345 H 0.59746 0.66334 0.99083 0.0
H2346 H 0.56384 0.7523 0.94482 0.0
H2347 H 0.5838 0.69203 0.06167 0.0
H2348 H 0.59403 0.70121 0.97626 0.0
H2349 H 0.57109 0.75357 0.03557 0.0
C2350 C 0.55765 0.76803 1.00462 0.0
C2351 C 0.55459 0.76721 0.97875 0.0
C2352 C 0.59221 0.69941 0.99516 0.0
C2353 C 0.57867 0.73765 1.00075 0.0
C2354 C 0.59422 0.67784 1.00348 0.0
C2355 C 0.59034 0.67443 0.02723 0.0
C2356 C 0.58624 0.71751 0.01074 0.0
C2357 C 0.58628 0.69374 0.04295 0.0
C2358 C 0.56988 0.75352 0.01573 0.0
C2359 C 0.56558 0.75314 0.96481 0.0
N2360 N 0.58401 0.71431 0.03429 0.0
N2361 N 0.57674 0.7384 0.97591 0.0
H2362 H 0.14036 0.73428 0.75612 0.0
H2363 H 0.2461 0.8293 0.75924 0.0
H2364 H 0.13254 0.80335 0.73756 0.0
H2365 H 0.2364 0.75464 0.72296 0.0
H2366 H 0.20611 0.82359 0.7528 0.0
H2367 H 0.17799 0.74416 0.74911 0.0
C2368 C 0.14669 0.75173 0.75101 0.0
C2369 C 0.13339 0.76811 0.74759 0.0
C2370 C 0.21282 0.80879 0.74548 0.0
C2371 C 0.17627 0.77929 0.73918 0.0
C2372 C 0.2356 0.81206 0.74892 0.0
C2373 C 0.24458 0.79219 0.74225 0.0
C2374 C 0.19921 0.78546 0.73574 0.0
C2375 C 0.23024 0.77034 0.72882 0.0
C2376 C 0.168 0.75713 0.74655 0.0
C2377 C 0.14236 0.79029 0.74049 0.0
N2378 N 0.2082 0.76725 0.72683 0.0
N2379 N 0.16343 0.79542 0.73677 0.0
H2380 H 1.00807 0.32791 0.50504 0.0
H2381 H 0.02994 0.44385 0.58157 0.0
H2382 H 0.03837 0.37076 0.45547 0.0
H2383 H 0.02246 0.46904 0.51114 0.0
H2384 H 0.02475 0.40228 0.55893 0.0
H2385 H 1.00669 0.36568 0.53134 0.0
C2386 C 0.01471 0.34524 0.49989 0.0
C2387 C 0.02349 0.3462 0.47811 0.0
C2388 C 0.02361 0.41678 0.54843 0.0
C2389 C 0.02177 0.38923 0.50786 0.0
C2390 C 0.02659 0.44049 0.56132 0.0
C2391 C 0.02687 0.45986 0.54816 0.0
C2392 C 0.02107 0.41268 0.52229 0.0
C2393 C 0.02251 0.45463 0.52199 0.0
C2394 C 0.01393 0.36675 0.51491 0.0
C2395 C 0.03165 0.36912 0.47217 0.0
N2396 N 0.02024 0.43159 0.50992 0.0
N2397 N 0.03039 0.38968 0.48684 0.0
H2398 H 0.52702 0.23659 0.30595 0.0
H2399 H 0.46452 0.34267 0.32974 0.0
H2400 H 0.54531 0.30694 0.28459 0.0
H2401 H 0.4313 0.26632 0.31806 0.0
H2402 H 0.49858 0.33117 0.32455 0.0
H2403 H 0.49613 0.24892 0.32177 0.0
C2404 C 0.52481 0.25477 0.3051 0.0
C2405 C 0.53858 0.27076 0.29385 0.0
C2406 C 0.48385 0.31697 0.32336 0.0
C2407 C 0.50369 0.28492 0.31193 0.0
C2408 C 0.46434 0.32348 0.32616 0.0
C2409 C 0.44479 0.30546 0.32381 0.0
C2410 C 0.48401 0.29223 0.31845 0.0
C2411 C 0.44589 0.28089 0.32003 0.0
C2412 C 0.50716 0.2617 0.31394 0.0
C2413 C 0.53494 0.29402 0.29297 0.0
N2414 N 0.46514 0.27498 0.31726 0.0
N2415 N 0.51785 0.30039 0.30184 0.0
H2416 H 0.61475 0.51169 0.37753 0.0
H2417 H 0.58169 0.56024 0.50559 0.0
H2418 H 0.60827 0.58492 0.39974 0.0
H2419 H 0.5583 0.48482 0.46932 0.0
H2420 H 0.60124 0.56869 0.47198 0.0
H2421 H 0.60282 0.50101 0.41584 0.0
C2422 C 0.61107 0.52554 0.39059 0.0
C2423 C 0.61227 0.54915 0.38543 0.0
C2424 C 0.59205 0.55022 0.47152 0.0
C2425 C 0.59912 0.53724 0.42908 0.0
C2426 C 0.58102 0.54532 0.49079 0.0
C2427 C 0.56822 0.52182 0.4901 0.0
C2428 C 0.59037 0.53148 0.45141 0.0
C2429 C 0.56786 0.50323 0.47037 0.0
C2430 C 0.60422 0.51942 0.4123 0.0
C2431 C 0.60731 0.56644 0.40287 0.0
N2432 N 0.57866 0.50849 0.4516 0.0
N2433 N 0.601 0.56015 0.42391 0.0
H2434 H 0.27607 0.89976 0.05935 0.0
H2435 H 0.33033 0.83081 0.15917 0.0
H2436 H 0.33711 0.87854 0.05697 0.0
H2437 H 0.26654 0.84635 0.15677 0.0
H2438 H 0.33652 0.8551 0.12664 0.0
H2439 H 0.276 0.88747 0.09991 0.0
C2440 C 0.28961 0.89278 0.06749 0.0
C2441 C 0.30641 0.88972 0.05454 0.0
C2442 C 0.32127 0.85341 0.13342 0.0
C2443 C 0.30631 0.87542 0.10088 0.0
C2444 C 0.31777 0.83964 0.15204 0.0
C2445 C 0.29776 0.83631 0.16037 0.0
C2446 C 0.30463 0.86387 0.1231 0.0
C2447 C 0.28199 0.84804 0.15045 0.0
C2448 C 0.28954 0.88574 0.09066 0.0
C2449 C 0.32369 0.88093 0.06617 0.0
N2450 N 0.28569 0.86113 0.13218 0.0
N2451 N 0.32304 0.87375 0.08856 0.0
H2452 H 0.9999 0.56918 0.86306 0.0
H2453 H 0.99944 0.53916 1.00267 0.0
H2454 H 0.93946 0.55107 0.88978 0.0
H2455 H 0.05718 0.55932 0.97121 0.0
H2456 H 0.97673 0.54475 0.96375 0.0
H2457 H 0.02047 0.56805 0.90418 0.0
C2458 C 0.99092 0.56573 0.87784 0.0
C2459 C 0.9678 0.56107 0.87278 0.0
C2460 C 0.99439 0.54801 0.96544 0.0
C2461 C 0.99162 0.55841 0.92069 0.0
C2462 C 1.00741 0.54477 0.98776 0.0
C2463 C 0.03047 0.54865 0.99054 0.0
C2464 C 1.00439 0.55525 0.94559 0.0
C2465 C 0.03959 0.556 0.97027 0.0
C2466 C 1.00273 0.56473 0.90145 0.0
C2467 C 0.95725 0.55566 0.8928 0.0
N2468 N 0.02673 0.55895 0.94906 0.0
N2469 N 0.96913 0.55432 0.91563 0.0
H2470 H 0.25289 0.23693 0.59769 0.0
H2471 H 0.31992 0.23983 0.73192 0.0
H2472 H 0.295 0.18723 0.60644 0.0
H2473 H 0.25326 0.24815 0.71795 0.0
H2474 H 0.31654 0.22638 0.68673 0.0
H2475 H 0.25961 0.24902 0.64274 0.0
C2476 C 0.26379 0.22871 0.60903 0.0
C2477 C 0.27317 0.21074 0.59819 0.0
C2478 C 0.30268 0.23097 0.69376 0.0
C2479 C 0.28087 0.22469 0.65003 0.0
C2480 C 0.30456 0.23864 0.71942 0.0
C2481 C 0.28685 0.2452 0.72868 0.0
C2482 C 0.2832 0.2305 0.6774 0.0
C2483 C 0.26732 0.24327 0.71171 0.0
C2484 C 0.26747 0.23556 0.6348 0.0
C2485 C 0.28734 0.20103 0.61403 0.0
N2486 N 0.26613 0.23641 0.68689 0.0
N2487 N 0.29075 0.20809 0.63931 0.0
H2488 H 0.56755 0.5544 0.24808 0.0
H2489 H 0.57103 0.47155 0.11991 0.0
H2490 H 0.61196 0.50694 0.24465 0.0
H2491 H 0.55525 0.54163 0.12628 0.0
H2492 H 0.57663 0.47555 0.16591 0.0
H2493 H 0.55277 0.5401 0.20357 0.0
C2494 C 0.57398 0.54068 0.2381 0.0
C2495 C 0.59136 0.53224 0.25006 0.0
C2496 C 0.57163 0.48981 0.15707 0.0
C2497 C 0.57443 0.51582 0.19902 0.0
C2498 C 0.5684 0.4875 0.13098 0.0
C2499 C 0.56301 0.50648 0.1196 0.0
C2500 C 0.56882 0.51089 0.17141 0.0
C2501 C 0.55973 0.52679 0.13452 0.0
C2502 C 0.56554 0.53257 0.21266 0.0
C2503 C 0.59879 0.51422 0.2361 0.0
N2504 N 0.5627 0.52848 0.15964 0.0
N2505 N 0.59046 0.50679 0.21118 0.0
H2506 H 0.23895 0.84784 0.91147 0.0
H2507 H 0.27456 0.73449 0.84787 0.0
H2508 H 0.28513 0.81184 0.94736 0.0
H2509 H 0.23567 0.77589 0.80874 0.0
H2510 H 0.26613 0.75219 0.88716 0.0
H2511 H 0.22622 0.8125 0.87732 0.0
C2512 C 0.24596 0.83222 0.91247 0.0
C2513 C 0.26353 0.83293 0.93175 0.0
C2514 C 0.25884 0.75683 0.86988 0.0
C2515 C 0.24913 0.79266 0.8931 0.0
C2516 C 0.26352 0.74656 0.84749 0.0
C2517 C 0.25626 0.7544 0.82543 0.0
C2518 C 0.24709 0.77513 0.86993 0.0
C2519 C 0.24194 0.76994 0.82568 0.0
C2520 C 0.23872 0.81207 0.89302 0.0
C2521 C 0.27197 0.81223 0.93236 0.0
N2522 N 0.23825 0.78033 0.84775 0.0
N2523 N 0.26495 0.7931 0.9131 0.0
H2524 H 0.93129 0.55236 0.70691 0.0
H2525 H 0.04086 0.53896 0.65267 0.0
H2526 H 0.99278 0.54984 0.7513 0.0
H2527 H 0.97928 0.53267 0.60315 0.0
H2528 H 0.02322 0.54556 0.68843 0.0
H2529 H 0.94791 0.54861 0.6691 0.0
C2530 C 0.94839 0.5517 0.70896 0.0
C2531 C 0.96058 0.55185 0.73286 0.0
C2532 C 0.01339 0.54274 0.66982 0.0
C2533 C 0.97981 0.54688 0.68902 0.0
C2534 C 0.02357 0.53887 0.64911 0.0
C2535 C 1.01179 0.53502 0.6243 0.0
C2536 C 0.99094 0.54302 0.66641 0.0
C2537 C 0.98926 0.53536 0.62165 0.0
C2538 C 0.95785 0.5492 0.68718 0.0
C2539 C 0.98256 0.55008 0.73365 0.0
N2540 N 0.9797 0.53927 0.6422 0.0
N2541 N 0.99125 0.54772 0.71248 0.0
H2542 H 0.28093 0.18314 0.44985 0.0
H2543 H 0.29922 0.30874 0.39824 0.0
H2544 H 0.25712 0.24435 0.47932 0.0
H2545 H 0.29434 0.23998 0.35121 0.0
H2546 H 0.28988 0.28671 0.43181 0.0
H2547 H 0.29232 0.20517 0.41682 0.0
C2548 C 0.27822 0.20119 0.44946 0.0
C2549 C 0.2679 0.21183 0.46719 0.0
C2550 C 0.29086 0.27648 0.41411 0.0
C2551 C 0.28108 0.23711 0.42997 0.0
C2552 C 0.29618 0.28904 0.39502 0.0
C2553 C 0.2974 0.27614 0.37196 0.0
C2554 C 0.28717 0.25092 0.41022 0.0
C2555 C 0.29339 0.25059 0.36871 0.0
C2556 C 0.28461 0.21368 0.43061 0.0
C2557 C 0.26478 0.2353 0.46585 0.0
N2558 N 0.28857 0.2388 0.38768 0.0
N2559 N 0.27141 0.24716 0.44768 0.0
H2560 H 0.39195 0.6615 0.61405 0.0
H2561 H 0.39161 0.53011 0.54179 0.0
H2562 H 0.33192 0.60574 0.5839 0.0
H2563 H 0.44705 0.59273 0.55742 0.0
H2564 H 0.36921 0.55632 0.55814 0.0
H2565 H 0.41262 0.63486 0.59575 0.0
C2566 C 0.38311 0.64358 0.6037 0.0
C2567 C 0.36017 0.63585 0.60044 0.0
C2568 C 0.38625 0.56428 0.55784 0.0
C2569 C 0.38376 0.60526 0.57925 0.0
C2570 C 0.39896 0.54939 0.54839 0.0
C2571 C 0.42126 0.55923 0.54862 0.0
C2572 C 0.39602 0.58905 0.56758 0.0
C2573 C 0.43005 0.58429 0.55745 0.0
C2574 C 0.39492 0.62841 0.59311 0.0
C2575 C 0.34961 0.61242 0.58681 0.0
N2576 N 0.41746 0.59827 0.56674 0.0
N2577 N 0.3615 0.5979 0.57668 0.0
H2578 H 0.89702 0.91328 0.54808 0.0
H2579 H 0.98597 0.03775 0.60071 0.0
H2580 H 0.88361 0.96841 0.6012 0.0
H2581 H 0.97995 0.99593 0.52742 0.0
H2582 H 0.9502 0.01237 0.60384 0.0
H2583 H 0.92927 0.94259 0.54291 0.0
C2584 C 0.90087 0.93168 0.55864 0.0
C2585 C 0.88767 0.93841 0.57519 0.0
C2586 C 0.9567 1.00889 0.58705 0.0
C2587 C 0.92494 0.97216 0.56952 0.0
C2588 C 0.9771 0.02326 0.58527 0.0
C2589 C 0.98614 0.01852 0.56399 0.0
C2590 C 0.94546 0.98952 0.56752 0.0
C2591 C 0.97391 0.99973 0.54446 0.0
C2592 C 0.91925 0.94845 0.55557 0.0
C2593 C 0.89334 0.96255 0.58821 0.0
N2594 N 0.95436 0.98575 0.54682 0.0
N2595 N 0.91181 0.97856 0.58538 0.0
H2596 H 0.88392 0.05507 0.25722 0.0
H2597 H 0.88142 0.19476 0.2581 0.0
H2598 H 0.94154 0.11504 0.28181 0.0
H2599 H 0.82861 0.13467 0.21662 0.0
H2600 H 0.90262 0.16576 0.27006 0.0
H2601 H 0.86224 0.08392 0.24567 0.0
C2602 C 0.89199 0.07431 0.26037 0.0
C2603 C 0.91461 0.08263 0.2705 0.0
C2604 C 0.88643 0.15889 0.25829 0.0
C2605 C 0.88988 0.11572 0.25726 0.0
C2606 C 0.87427 0.17543 0.25153 0.0
C2607 C 0.85318 0.16712 0.23638 0.0
C2608 C 0.87739 0.13375 0.25008 0.0
C2609 C 0.84486 0.14187 0.22817 0.0
C2610 C 0.87962 0.09074 0.25363 0.0
C2611 C 0.92418 0.10777 0.27402 0.0
N2612 N 0.85693 0.12606 0.23525 0.0
N2613 N 0.91177 0.12339 0.26746 0.0
H2614 H 0.76542 0.09034 0.1441 0.0
H2615 H 0.67969 0.99915 0.13348 0.0
H2616 H 0.77076 0.06395 0.06871 0.0
H2617 H 0.677 0.99616 0.05431 0.0
H2618 H 0.71929 0.01456 0.14084 0.0
H2619 H 0.74077 0.05167 0.14443 0.0
C2620 C 0.76192 0.07598 0.12787 0.0
C2621 C 0.76957 0.08053 0.10611 0.0
C2622 C 0.71012 1.01051 0.12182 0.0
C2623 C 0.74101 0.0359 0.10605 0.0
C2624 C 0.68739 1.00116 0.11749 0.0
C2625 C 0.67473 0.99754 0.09328 0.0
C2626 C 0.72006 0.01703 0.10192 0.0
C2627 C 0.68594 1.0 0.07344 0.0
C2628 C 0.74787 0.05363 0.12805 0.0
C2629 C 0.76487 0.06127 0.08574 0.0
N2630 N 0.70789 1.01036 0.07826 0.0
N2631 N 0.75028 0.04002 0.08589 0.0
H2632 H 0.25292 0.47709 0.32783 0.0
H2633 H 0.23573 0.32989 0.30998 0.0
H2634 H 0.1883 0.42912 0.31646 0.0
H2635 H 0.29871 0.38121 0.32267 0.0
H2636 H 0.21782 0.36428 0.31226 0.0
H2637 H 0.26888 0.44187 0.32589 0.0
C2638 C 0.24183 0.45918 0.32491 0.0
C2639 C 0.21885 0.45683 0.32234 0.0
C2640 C 0.23556 0.36811 0.31461 0.0
C2641 C 0.23786 0.41488 0.32002 0.0
C2642 C 0.24596 0.34828 0.31337 0.0
C2643 C 0.26912 0.35205 0.31624 0.0
C2644 C 0.24815 0.3925 0.3187 0.0
C2645 C 0.28097 0.3768 0.32037 0.0
C2646 C 0.25119 0.43878 0.3238 0.0
C2647 C 0.20599 0.43247 0.3186 0.0
N2648 N 0.27051 0.39563 0.32143 0.0
N2649 N 0.21556 0.41276 0.31755 0.0
H2650 H 0.27533 0.45044 0.02865 0.0
H2651 H 0.19823 0.50627 0.11041 0.0
H2652 H 0.28235 0.45066 0.10787 0.0
H2653 H 0.18372 0.48847 0.02988 0.0
H2654 H 0.2308 0.4895 0.11079 0.0
H2655 H 0.24385 0.46823 0.02979 0.0
C2656 C 0.27037 0.45436 0.04638 0.0
C2657 C 0.2816 0.44894 0.0682 0.0
C2658 C 0.22043 0.48921 0.09306 0.0
C2659 C 0.24519 0.46944 0.06959 0.0
C2660 C 0.20187 0.49886 0.09281 0.0
C2661 C 0.18807 0.4987 0.07007 0.0
C2662 C 0.22546 0.47962 0.07039 0.0
C2663 C 0.19361 0.4887 0.04789 0.0
C2664 C 0.25225 0.46446 0.04697 0.0
C2665 C 0.27423 0.45448 0.09057 0.0
N2666 N 0.21184 0.47971 0.04862 0.0
N2667 N 0.25651 0.46444 0.0907 0.0
H2668 H 0.92214 0.92456 0.29791 0.0
H2669 H 0.79714 0.85334 0.25512 0.0
H2670 H 0.87452 0.95859 0.26142 0.0
H2671 H 0.83772 0.84479 0.32237 0.0
H2672 H 0.82604 0.88857 0.25205 0.0
H2673 H 0.89221 0.89117 0.3016 0.0
C2674 C 0.90536 0.92497 0.29058 0.0
C2675 C 0.90079 0.94437 0.2793 0.0
C2676 C 0.82856 0.87889 0.26742 0.0
C2677 C 0.86651 0.90605 0.28333 0.0
C2678 C 0.81218 0.8588 0.26915 0.0
C2679 C 0.81532 0.84584 0.28874 0.0
C2680 C 0.84828 0.88573 0.28518 0.0
C2681 C 0.83497 0.85377 0.30654 0.0
C2682 C 0.88831 0.90597 0.29284 0.0
C2683 C 0.87872 0.944 0.27031 0.0
N2684 N 0.85083 0.87306 0.3042 0.0
N2685 N 0.86233 0.92496 0.2723 0.0
H2686 H 0.71888 0.08086 0.79289 0.0
H2687 H 0.76145 0.22304 0.859 0.0
H2688 H 0.7043 0.11031 0.86272 0.0
H2689 H 0.76311 0.19816 0.78197 0.0
H2690 H 0.74517 0.18092 0.86257 0.0
H2691 H 0.74017 0.12203 0.7908 0.0
C2692 C 0.7208 0.09572 0.80824 0.0
C2693 C 0.71008 0.09179 0.82832 0.0
C2694 C 0.74913 0.18458 0.84486 0.0
C2695 C 0.73403 0.13944 0.8257 0.0
C2696 C 0.7585 0.20879 0.84279 0.0
C2697 C 0.76371 0.21456 0.82007 0.0
C2698 C 0.74497 0.1655 0.82419 0.0
C2699 C 0.75937 0.19489 0.79986 0.0
C2700 C 0.73268 0.11939 0.80683 0.0
C2701 C 0.71253 0.11221 0.84711 0.0
N2702 N 0.75035 0.17144 0.80239 0.0
N2703 N 0.7241 0.13488 0.84534 0.0
loop_
_geom_bond_atom_site_label_1
_geom_bond_atom_site_label_2
_geom_bond_distance
_geom_bond_site_symmetry_2
_ccdc_geom_bond_type
Zn0 O3 2.031 . S
Zn0 O5 2.049 . S
Zn0 O10 2.067 . S
Zn1 O2 1.962 . S
Zn1 O4 1.986 . S
Zn1 O6 1.996 . S
Zn1 O9 1.943 1_455 S
O2 Zn1 1.962 . S
O2 C7 1.254 . S
O3 Zn0 2.031 . S
O3 C7 1.269 1_655 S
O4 Zn1 1.986 . S
O4 C11 1.262 . S
O5 Zn0 2.049 . S
O5 C13 1.260 . S
O6 Zn1 1.996 . S
O6 C13 1.257 1_455 S
C7 O2 1.254 . S
C7 O3 1.269 1_455 S
C8 O9 1.249 . S
C8 O10 1.270 . S
O9 Zn1 1.943 1_655 S
O9 C8 1.249 . S
O10 Zn0 2.067 . S
O10 C8 1.270 . S
C11 O4 1.262 . S
C11 O12 1.232 . S
O12 C11 1.232 . S
C13 O5 1.260 . S
C13 O6 1.257 1_655 S
Zn14 O17 2.031 . S
Zn14 O19 2.049 . S
Zn14 O24 2.067 . S
Zn15 O16 1.962 . S
Zn15 O18 1.986 . S
Zn15 O20 1.996 . S
Zn15 O23 1.943 . S
O16 Zn15 1.962 . S
O16 C21 1.254 . S
O17 Zn14 2.031 . S
O17 C21 1.269 . S
O18 Zn15 1.986 . S
O18 C25 1.262 . S
O19 Zn14 2.049 . S
O19 C27 1.260 . S
O20 Zn15 1.996 . S
O20 C27 1.257 . S
C21 O16 1.254 . S
C21 O17 1.269 . S
C22 O23 1.249 . S
C22 O24 1.270 . S
O23 Zn15 1.943 . S
O23 C22 1.249 . S
O24 Zn14 2.067 . S
O24 C22 1.270 . S
C25 O18 1.262 . S
C25 O26 1.232 . S
O26 C25 1.232 . S
C27 O19 1.260 . S
C27 O20 1.257 . S
Zn28 O31 2.031 . S
Zn28 O33 2.049 . S
Zn28 O38 2.067 . S
Zn29 O30 1.962 . S
Zn29 O32 1.986 . S
Zn29 O34 1.996 . S
Zn29 O37 1.943 . S
O30 Zn29 1.962 . S
O30 C35 1.254 . S
O31 Zn28 2.031 . S
O31 C35 1.269 . S
O32 Zn29 1.986 . S
O32 C39 1.262 . S
O33 Zn28 2.049 . S
O33 C41 1.260 . S
O34 Zn29 1.996 . S
O34 C41 1.257 . S
C35 O30 1.254 . S
C35 O31 1.269 . S
C36 O37 1.249 . S
C36 O38 1.270 . S
O37 Zn29 1.943 . S
O37 C36 1.249 . S
O38 Zn28 2.067 . S
O38 C36 1.270 . S
C39 O32 1.262 . S
C39 O40 1.232 . S
O40 C39 1.232 . S
C41 O33 1.260 . S
C41 O34 1.257 . S
Zn42 O45 2.031 . S
Zn42 O47 2.049 . S
Zn42 O52 2.067 . S
Zn43 O44 1.962 . S
Zn43 O46 1.986 . S
Zn43 O48 1.996 . S
Zn43 O51 1.943 . S
O44 Zn43 1.962 . S
O44 C49 1.254 . S
O45 Zn42 2.031 . S
O45 C49 1.269 . S
O46 Zn43 1.986 . S
O46 C53 1.262 . S
O47 Zn42 2.049 . S
O47 C55 1.260 . S
O48 Zn43 1.996 . S
O48 C55 1.257 . S
C49 O44 1.254 . S
C49 O45 1.269 . S
C50 O51 1.249 . S
C50 O52 1.270 . S
O51 Zn43 1.943 . S
O51 C50 1.249 . S
O52 Zn42 2.067 . S
O52 C50 1.270 . S
C53 O46 1.262 . S
C53 O54 1.232 . S
O54 C53 1.232 . S
C55 O47 1.260 . S
C55 O48 1.257 . S
Zn56 O59 2.031 . S
Zn56 O61 2.049 . S
Zn56 O66 2.067 . S
Zn57 O58 1.962 . S
Zn57 O60 1.986 . S
Zn57 O62 1.996 . S
Zn57 O65 1.943 . S
O58 Zn57 1.962 . S
O58 C63 1.254 . S
O59 Zn56 2.031 . S
O59 C63 1.269 . S
O60 Zn57 1.986 . S
O60 C67 1.262 . S
O61 Zn56 2.049 . S
O61 C69 1.260 . S
O62 Zn57 1.996 . S
O62 C69 1.257 . S
C63 O58 1.254 . S
C63 O59 1.269 . S
C64 O65 1.249 . S
C64 O66 1.270 . S
O65 Zn57 1.943 . S
O65 C64 1.249 . S
O66 Zn56 2.067 . S
O66 C64 1.270 . S
C67 O60 1.262 . S
C67 O68 1.232 . S
O68 C67 1.232 . S
C69 O61 1.260 . S
C69 O62 1.257 . S
Zn70 O73 2.031 . S
Zn70 O75 2.049 . S
Zn70 O80 2.067 . S
Zn71 O72 1.962 . S
Zn71 O74 1.986 . S
Zn71 O76 1.996 . S
Zn71 O79 1.943 . S
O72 Zn71 1.962 . S
O72 C77 1.254 . S
O73 Zn70 2.031 . S
O73 C77 1.269 . S
O74 Zn71 1.986 . S
O74 C81 1.262 . S
O75 Zn70 2.049 . S
O75 C83 1.260 . S
O76 Zn71 1.996 . S
O76 C83 1.257 . S
C77 O72 1.254 . S
C77 O73 1.269 . S
C78 O79 1.249 . S
C78 O80 1.270 . S
O79 Zn71 1.943 . S
O79 C78 1.249 . S
O80 Zn70 2.067 . S
O80 C78 1.270 . S
C81 O74 1.262 . S
C81 O82 1.232 . S
O82 C81 1.232 . S
C83 O75 1.260 . S
C83 O76 1.257 . S
Zn84 O87 2.031 . S
Zn84 O89 2.049 . S
Zn84 O94 2.067 . S
Zn85 O86 1.962 . S
Zn85 O88 1.986 . S
Zn85 O90 1.996 . S
Zn85 O93 1.943 . S
O86 Zn85 1.962 . S
O86 C91 1.254 . S
O87 Zn84 2.031 . S
O87 C91 1.269 . S
O88 Zn85 1.986 . S
O88 C95 1.262 . S
O89 Zn84 2.049 . S
O89 C97 1.260 . S
O90 Zn85 1.996 . S
O90 C97 1.257 . S
C91 O86 1.254 . S
C91 O87 1.269 . S
C92 O93 1.249 . S
C92 O94 1.270 . S
O93 Zn85 1.943 . S
O93 C92 1.249 . S
O94 Zn84 2.067 . S
O94 C92 1.270 . S
C95 O88 1.262 . S
C95 O96 1.232 . S
O96 C95 1.232 . S
C97 O89 1.260 . S
C97 O90 1.257 . S
Zn98 O101 2.031 . S
Zn98 O103 2.049 . S
Zn98 O108 2.067 . S
Zn99 O100 1.962 . S
Zn99 O102 1.986 . S
Zn99 O104 1.996 . S
Zn99 O107 1.943 1_455 S
O100 Zn99 1.962 . S
O100 C105 1.254 . S
O101 Zn98 2.031 . S
O101 C105 1.269 1_655 S
O102 Zn99 1.986 . S
O102 C109 1.262 . S
O103 Zn98 2.049 . S
O103 C111 1.260 1_655 S
O104 Zn99 1.996 . S
O104 C111 1.257 . S
C105 O100 1.254 . S
C105 O101 1.269 1_455 S
C106 O107 1.249 . S
C106 O108 1.270 . S
O107 Zn99 1.943 1_655 S
O107 C106 1.249 . S
O108 Zn98 2.067 . S
O108 C106 1.270 . S
C109 O102 1.262 . S
C109 O110 1.232 . S
O110 C109 1.232 . S
C111 O103 1.260 1_455 S
C111 O104 1.257 . S
Zn112 O115 2.031 1_565 S
Zn112 O117 2.049 . S
Zn112 O122 2.067 . S
Zn113 O114 1.962 . S
Zn113 O116 1.986 . S
Zn113 O118 1.996 . S
Zn113 O121 1.943 . S
O114 Zn113 1.962 . S
O114 C119 1.254 . S
O115 Zn112 2.031 1_545 S
O115 C119 1.269 . S
O116 Zn113 1.986 . S
O116 C123 1.262 . S
O117 Zn112 2.049 . S
O117 C125 1.260 1_565 S
O118 Zn113 1.996 . S
O118 C125 1.257 . S
C119 O114 1.254 . S
C119 O115 1.269 . S
C120 O121 1.249 1_565 S
C120 O122 1.270 . S
O121 Zn113 1.943 . S
O121 C120 1.249 1_545 S
O122 Zn112 2.067 . S
O122 C120 1.270 . S
C123 O116 1.262 . S
C123 O124 1.232 . S
O124 C123 1.232 . S
C125 O117 1.260 1_545 S
C125 O118 1.257 . S
Zn126 O129 2.031 . S
Zn126 O131 2.049 . S
Zn126 O136 2.067 . S
Zn127 O128 1.962 . S
Zn127 O130 1.986 . S
Zn127 O132 1.996 . S
Zn127 O135 1.943 . S
O128 Zn127 1.962 . S
O128 C133 1.254 . S
O129 Zn126 2.031 . S
O129 C133 1.269 . S
O130 Zn127 1.986 . S
O130 C137 1.262 . S
O131 Zn126 2.049 . S
O131 C139 1.260 . S
O132 Zn127 1.996 . S
O132 C139 1.257 . S
C133 O128 1.254 . S
C133 O129 1.269 . S
C134 O135 1.249 . S
C134 O136 1.270 . S
O135 Zn127 1.943 . S
O135 C134 1.249 . S
O136 Zn126 2.067 . S
O136 C134 1.270 . S
C137 O130 1.262 . S
C137 O138 1.232 . S
O138 C137 1.232 . S
C139 O131 1.260 . S
C139 O132 1.257 . S
Zn140 O143 2.031 . S
Zn140 O145 2.049 . S
Zn140 O150 2.067 . S
Zn141 O142 1.962 . S
Zn141 O144 1.966 1_545 S
Zn141 O146 1.996 . S
Zn141 O149 1.943 . S
O142 Zn141 1.962 . S
O142 C147 1.254 . S
O143 Zn140 2.031 . S
O143 C147 1.269 . S
O144 Zn141 1.966 1_565 S
O144 C151 1.272 . S
O145 Zn140 2.049 . S
O145 C153 1.260 . S
O146 Zn141 1.996 . S
O146 C153 1.257 . S
C147 O142 1.254 . S
C147 O143 1.269 . S
C148 O149 1.249 . S
C148 O150 1.270 . S
O149 Zn141 1.943 . S
O149 C148 1.249 . S
O150 Zn140 2.067 . S
O150 C148 1.270 . S
C151 O144 1.272 . S
C151 O152 1.232 1_565 S
O152 C151 1.232 1_545 S
C153 O145 1.260 . S
C153 O146 1.257 . S
Zn154 O157 2.031 1_554 S
Zn154 O159 2.049 . S
Zn154 O164 2.067 . S
Zn155 O156 1.962 . S
Zn155 O158 1.986 1_556 S
Zn155 O160 1.996 1_556 S
Zn155 O163 1.943 1_556 S
O156 Zn155 1.962 . S
O156 C161 1.254 . S
O157 Zn154 2.031 1_556 S
O157 C161 1.269 . S
O158 Zn155 1.986 1_554 S
O158 C165 1.262 1_554 S
O159 Zn154 2.049 . S
O159 C167 1.260 . S
O160 Zn155 1.996 1_554 S
O160 C167 1.257 . S
C161 O156 1.254 . S
C161 O157 1.269 . S
C162 O163 1.249 . S
C162 O164 1.270 . S
O163 Zn155 1.943 1_554 S
O163 C162 1.249 . S
O164 Zn154 2.067 . S
O164 C162 1.270 . S
C165 O158 1.262 1_556 S
C165 O166 1.232 . S
O166 C165 1.232 . S
C167 O159 1.260 . S
C167 O160 1.257 . S
Zn168 O171 2.031 . S
Zn168 O173 2.049 . S
Zn168 O178 2.067 . S
Zn169 O170 1.962 . S
Zn169 O172 1.986 . S
Zn169 O174 1.996 . S
Zn169 O177 1.943 . S
O170 Zn169 1.962 . S
O170 C175 1.254 . S
O171 Zn168 2.031 . S
O171 C175 1.269 . S
O172 Zn169 1.986 . S
O172 C179 1.262 . S
O173 Zn168 2.049 . S
O173 C181 1.260 . S
O174 Zn169 1.996 . S
O174 C181 1.257 . S
C175 O170 1.254 . S
C175 O171 1.269 . S
C176 O177 1.249 . S
C176 O178 1.270 . S
O177 Zn169 1.943 . S
O177 C176 1.249 . S
O178 Zn168 2.067 . S
O178 C176 1.270 . S
C179 O172 1.262 . S
C179 O180 1.232 . S
O180 C179 1.232 . S
C181 O173 1.260 . S
C181 O174 1.257 . S
Zn182 O185 2.031 . S
Zn182 O187 2.049 . S
Zn182 O192 2.067 . S
Zn183 O184 1.962 . S
Zn183 O186 1.986 . S
Zn183 O188 1.996 . S
Zn183 O191 1.943 . S
O184 Zn183 1.962 . S
O184 C189 1.254 . S
O185 Zn182 2.031 . S
O185 C189 1.269 . S
O186 Zn183 1.986 . S
O186 C193 1.262 . S
O187 Zn182 2.049 . S
O187 C195 1.260 . S
O188 Zn183 1.996 . S
O188 C195 1.257 . S
C189 O184 1.254 . S
C189 O185 1.269 . S
C190 O191 1.249 . S
C190 O192 1.270 . S
O191 Zn183 1.943 . S
O191 C190 1.249 . S
O192 Zn182 2.067 . S
O192 C190 1.270 . S
C193 O186 1.262 . S
C193 O194 1.232 . S
O194 C193 1.232 . S
C195 O187 1.260 . S
C195 O188 1.257 . S
Zn196 O199 2.031 . S
Zn196 O201 2.049 . S
Zn196 O206 2.067 . S
Zn197 O198 1.962 . S
Zn197 O200 1.986 . S
Zn197 O202 1.996 . S
Zn197 O205 1.943 . S
O198 Zn197 1.962 . S
O198 C203 1.254 . S
O199 Zn196 2.031 . S
O199 C203 1.269 . S
O200 Zn197 1.986 . S
O200 C207 1.262 . S
O201 Zn196 2.049 . S
O201 C209 1.260 . S
O202 Zn197 1.996 . S
O202 C209 1.257 . S
C203 O198 1.254 . S
C203 O199 1.269 . S
C204 O205 1.249 . S
C204 O206 1.270 . S
O205 Zn197 1.943 . S
O205 C204 1.249 . S
O206 Zn196 2.067 . S
O206 C204 1.270 . S
C207 O200 1.262 . S
C207 O208 1.232 . S
O208 C207 1.232 . S
C209 O201 1.260 . S
C209 O202 1.257 . S
Zn210 O213 2.031 . S
Zn210 O215 2.049 . S
Zn210 O220 2.067 . S
Zn211 O212 1.962 . S
Zn211 O214 1.986 . S
Zn211 O216 1.996 . S
Zn211 O219 1.943 . S
O212 Zn211 1.962 . S
O212 C217 1.254 . S
O213 Zn210 2.031 . S
O213 C217 1.269 . S
O214 Zn211 1.986 . S
O214 C221 1.262 . S
O215 Zn210 2.049 . S
O215 C223 1.260 . S
O216 Zn211 1.996 . S
O216 C223 1.257 . S
C217 O212 1.254 . S
C217 O213 1.269 . S
C218 O219 1.249 . S
C218 O220 1.270 . S
O219 Zn211 1.943 . S
O219 C218 1.249 . S
O220 Zn210 2.067 . S
O220 C218 1.270 . S
C221 O214 1.262 . S
C221 O222 1.232 . S
O222 C221 1.232 . S
C223 O215 1.260 . S
C223 O216 1.257 . S
Zn224 O227 2.031 . S
Zn224 O229 2.049 . S
Zn224 O234 2.067 . S
Zn225 O226 1.962 . S
Zn225 O228 1.986 . S
Zn225 O230 1.996 . S
Zn225 O233 1.943 1_545 S
O226 Zn225 1.962 . S
O226 C231 1.254 . S
O227 Zn224 2.031 . S
O227 C231 1.269 1_565 S
O228 Zn225 1.986 . S
O228 C235 1.262 . S
O229 Zn224 2.049 . S
O229 C237 1.260 . S
O230 Zn225 1.996 . S
O230 C237 1.257 1_545 S
C231 O226 1.254 . S
C231 O227 1.269 1_545 S
C232 O233 1.249 . S
C232 O234 1.270 . S
O233 Zn225 1.943 1_565 S
O233 C232 1.249 . S
O234 Zn224 2.067 . S
O234 C232 1.270 . S
C235 O228 1.262 . S
C235 O236 1.232 . S
O236 C235 1.232 . S
C237 O229 1.260 . S
C237 O230 1.257 1_565 S
Zn238 O241 2.031 . S
Zn238 O243 2.049 . S
Zn238 O248 2.067 . S
Zn239 O240 1.962 . S
Zn239 O242 1.986 . S
Zn239 O244 1.996 . S
Zn239 O247 1.943 . S
O240 Zn239 1.962 . S
O240 C245 1.254 . S
O241 Zn238 2.031 . S
O241 C245 1.269 . S
O242 Zn239 1.986 . S
O242 C249 1.262 . S
O243 Zn238 2.049 . S
O243 C251 1.260 . S
O244 Zn239 1.996 . S
O244 C251 1.257 . S
C245 O240 1.254 . S
C245 O241 1.269 . S
C246 O247 1.249 . S
C246 O248 1.270 . S
O247 Zn239 1.943 . S
O247 C246 1.249 . S
O248 Zn238 2.067 . S
O248 C246 1.270 . S
C249 O242 1.262 . S
C249 O250 1.232 . S
O250 C249 1.232 . S
C251 O243 1.260 . S
C251 O244 1.257 . S
Zn252 O255 2.031 . S
Zn252 O257 2.049 . S
Zn252 O262 2.067 . S
Zn253 O254 1.962 . S
Zn253 O256 1.986 . S
Zn253 O258 1.996 . S
Zn253 O261 1.943 . S
O254 Zn253 1.962 . S
O254 C259 1.254 . S
O255 Zn252 2.031 . S
O255 C259 1.269 . S
O256 Zn253 1.986 . S
O256 C263 1.262 . S
O257 Zn252 2.049 . S
O257 C265 1.260 . S
O258 Zn253 1.996 . S
O258 C265 1.257 . S
C259 O254 1.254 . S
C259 O255 1.269 . S
C260 O261 1.249 . S
C260 O262 1.270 . S
O261 Zn253 1.943 . S
O261 C260 1.249 . S
O262 Zn252 2.067 . S
O262 C260 1.270 . S
C263 O256 1.262 . S
C263 O264 1.232 . S
O264 C263 1.232 . S
C265 O257 1.260 . S
C265 O258 1.257 . S
Zn266 O269 2.031 . S
Zn266 O271 2.049 . S
Zn266 O276 2.067 . S
Zn267 O268 1.962 . S
Zn267 O270 1.986 1_545 S
Zn267 O272 1.996 . S
Zn267 O275 1.943 . S
O268 Zn267 1.962 . S
O268 C273 1.254 . S
O269 Zn266 2.031 . S
O269 C273 1.269 . S
O270 Zn267 1.986 1_565 S
O270 C277 1.262 . S
O271 Zn266 2.049 . S
O271 C279 1.260 . S
O272 Zn267 1.996 . S
O272 C279 1.257 . S
C273 O268 1.254 . S
C273 O269 1.269 . S
C274 O275 1.249 . S
C274 O276 1.270 . S
O275 Zn267 1.943 . S
O275 C274 1.249 . S
O276 Zn266 2.067 . S
O276 C274 1.270 . S
C277 O270 1.262 . S
C277 O278 1.232 . S
O278 C277 1.232 . S
C279 O271 1.260 . S
C279 O272 1.257 . S
Zn280 O283 2.031 . S
Zn280 O285 2.049 . S
Zn280 O290 2.067 . S
Zn281 O282 1.962 . S
Zn281 O284 1.986 . S
Zn281 O286 1.996 . S
Zn281 O289 1.943 . S
O282 Zn281 1.962 . S
O282 C287 1.254 . S
O283 Zn280 2.031 . S
O283 C287 1.269 . S
O284 Zn281 1.986 . S
O284 C291 1.262 . S
O285 Zn280 2.049 . S
O285 C293 1.260 . S
O286 Zn281 1.996 . S
O286 C293 1.257 . S
C287 O282 1.254 . S
C287 O283 1.269 . S
C288 O289 1.249 . S
C288 O290 1.270 . S
O289 Zn281 1.943 . S
O289 C288 1.249 . S
O290 Zn280 2.067 . S
O290 C288 1.270 . S
C291 O284 1.262 . S
C291 O292 1.232 . S
O292 C291 1.232 . S
C293 O285 1.260 . S
C293 O286 1.257 . S
Zn294 O297 2.031 . S
Zn294 O299 2.049 . S
Zn294 O304 2.067 . S
Zn295 O296 1.962 . S
Zn295 O298 1.986 . S
Zn295 O300 1.996 . S
Zn295 O303 1.943 . S
O296 Zn295 1.962 . S
O296 C301 1.254 . S
O297 Zn294 2.031 . S
O297 C301 1.269 . S
O298 Zn295 1.986 . S
O298 C305 1.262 . S
O299 Zn294 2.049 . S
O299 C307 1.260 . S
O300 Zn295 1.996 . S
O300 C307 1.257 . S
C301 O296 1.254 . S
C301 O297 1.269 . S
C302 O303 1.249 . S
C302 O304 1.270 . S
O303 Zn295 1.943 . S
O303 C302 1.249 . S
O304 Zn294 2.067 . S
O304 C302 1.270 . S
C305 O298 1.262 . S
C305 O306 1.232 . S
O306 C305 1.232 . S
C307 O299 1.260 . S
C307 O300 1.257 . S
Zn308 O311 2.031 . S
Zn308 O313 2.049 . S
Zn308 O318 2.067 . S
Zn309 O310 1.962 . S
Zn309 O312 1.986 . S
Zn309 O314 1.996 . S
Zn309 O317 1.943 . S
O310 Zn309 1.962 . S
O310 C315 1.254 . S
O311 Zn308 2.031 . S
O311 C315 1.269 . S
O312 Zn309 1.986 . S
O312 C319 1.262 . S
O313 Zn308 2.049 . S
O313 C321 1.260 . S
O314 Zn309 1.996 . S
O314 C321 1.257 . S
C315 O310 1.254 . S
C315 O311 1.269 . S
C316 O317 1.249 . S
C316 O318 1.270 . S
O317 Zn309 1.943 . S
O317 C316 1.249 . S
O318 Zn308 2.067 . S
O318 C316 1.270 . S
C319 O312 1.262 . S
C319 O320 1.232 . S
O320 C319 1.232 . S
C321 O313 1.260 . S
C321 O314 1.257 . S
Zn322 O325 2.031 . S
Zn322 O327 2.049 . S
Zn322 O332 2.067 . S
Zn323 O324 1.962 . S
Zn323 O326 1.986 . S
Zn323 O328 1.996 . S
Zn323 O331 1.943 . S
O324 Zn323 1.962 . S
O324 C329 1.254 . S
O325 Zn322 2.031 . S
O325 C329 1.269 . S
O326 Zn323 1.986 . S
O326 C333 1.262 . S
O327 Zn322 2.049 . S
O327 C335 1.260 . S
O328 Zn323 1.996 . S
O328 C335 1.257 . S
C329 O324 1.254 . S
C329 O325 1.269 . S
C330 O331 1.249 . S
C330 O332 1.270 . S
O331 Zn323 1.943 . S
O331 C330 1.249 . S
O332 Zn322 2.067 . S
O332 C330 1.270 . S
C333 O326 1.262 . S
C333 O334 1.232 . S
O334 C333 1.232 . S
C335 O327 1.260 . S
C335 O328 1.257 . S
Tb336 C338 2.809 1_455 S
Tb336 O356 2.484 1_455 S
Tb336 O357 2.440 1_455 S
Tb336 O358 2.658 . S
Tb336 O359 2.409 1_554 S
Tb336 O360 2.378 . S
Tb336 O364 2.325 . S
Tb336 O367 2.341 1_545 S
Tb337 C347 2.809 . S
Tb337 O358 2.325 . S
Tb337 O361 2.341 . S
Tb337 O362 2.484 . S
Tb337 O363 2.440 . S
Tb337 O364 2.658 . S
Tb337 O365 2.409 . S
Tb337 O366 2.378 1_545 S
C338 Tb336 2.809 1_655 S
C338 C339 1.514 . S
C338 O356 1.248 . S
C338 O357 1.266 . S
C339 C338 1.514 . S
C339 C340 1.359 . S
C339 C344 1.348 . S
C340 C339 1.359 . S
C340 C341 1.380 . S
C340 H368 0.929 . S
C341 C340 1.380 . S
C341 C342 1.347 . S
C341 H369 0.931 . S
C342 C341 1.347 . S
C342 C343 1.369 1_554 S
C343 C342 1.369 1_556 S
C343 C344 1.408 1_556 S
C343 H370 0.930 . S
C344 C339 1.348 . S
C344 C343 1.408 1_554 S
C344 H371 0.930 1_554 S
C345 O358 1.281 . S
C345 O359 1.254 1_554 S
C346 O360 1.236 . S
C346 O361 1.266 . S
C347 Tb337 2.809 . S
C347 C348 1.514 1_545 S
C347 O362 1.248 . S
C347 O363 1.266 . S
C348 C347 1.514 1_565 S
C348 C349 1.359 . S
C348 C353 1.348 . S
C349 C348 1.359 . S
C349 C350 1.380 . S
C349 H372 0.929 . S
C350 C349 1.380 . S
C350 C351 1.347 . S
C350 H373 0.931 . S
C351 C350 1.347 . S
C351 C352 1.369 . S
C352 C351 1.369 . S
C352 C353 1.408 . S
C352 H374 0.930 . S
C353 C348 1.348 . S
C353 C352 1.408 . S
C353 H375 0.930 . S
C354 O364 1.281 . S
C354 O365 1.254 . S
C355 O366 1.236 . S
C355 O367 1.266 . S
O356 Tb336 2.484 1_655 S
O356 C338 1.248 . S
O357 Tb336 2.440 1_655 S
O357 C338 1.266 . S
O358 Tb336 2.658 . S
O358 Tb337 2.325 . S
O358 C345 1.281 . S
O359 Tb336 2.409 1_556 S
O359 C345 1.254 1_556 S
O360 Tb336 2.378 . S
O360 C346 1.236 . S
O361 Tb337 2.341 . S
O361 C346 1.266 . S
O362 Tb337 2.484 . S
O362 C347 1.248 . S
O363 Tb337 2.440 . S
O363 C347 1.266 . S
O364 Tb336 2.325 . S
O364 Tb337 2.658 . S
O364 C354 1.281 . S
O365 Tb337 2.409 . S
O365 C354 1.254 . S
O366 Tb337 2.378 1_565 S
O366 C355 1.236 . S
O367 Tb336 2.341 1_565 S
O367 C355 1.266 . S
H368 C340 0.929 . S
H369 C341 0.931 . S
H370 C343 0.930 . S
H371 C344 0.930 1_556 S
H372 C349 0.929 . S
H373 C350 0.931 . S
H374 C352 0.930 . S
H375 C353 0.930 . S
Tb376 C378 2.809 . S
Tb376 O396 2.484 . S
Tb376 O397 2.440 . S
Tb376 O398 2.658 . S
Tb376 O399 2.409 . S
Tb376 O400 2.378 . S
Tb376 O404 2.325 . S
Tb376 O407 2.341 . S
Tb377 C387 2.809 . S
Tb377 O398 2.325 . S
Tb377 O401 2.341 . S
Tb377 O402 2.484 . S
Tb377 O403 2.440 . S
Tb377 O404 2.658 . S
Tb377 O405 2.409 . S
Tb377 O406 2.378 . S
C378 Tb376 2.809 . S
C378 C379 1.514 . S
C378 O396 1.248 . S
C378 O397 1.266 . S
C379 C378 1.514 . S
C379 C380 1.359 . S
C379 C384 1.348 . S
C380 C379 1.359 . S
C380 C381 1.380 . S
C380 H408 0.929 . S
C381 C380 1.380 . S
C381 C382 1.347 . S
C381 H409 0.931 . S
C382 C381 1.347 . S
C382 C383 1.369 . S
C383 C382 1.369 . S
C383 C384 1.408 . S
C383 H410 0.930 . S
C384 C379 1.348 . S
C384 C383 1.408 . S
C384 H411 0.930 . S
C385 O398 1.281 . S
C385 O399 1.254 . S
C386 O400 1.236 . S
C386 O401 1.266 . S
C387 Tb377 2.809 . S
C387 C388 1.514 . S
C387 O402 1.248 . S
C387 O403 1.266 . S
C388 C387 1.514 . S
C388 C389 1.359 . S
C388 C393 1.348 . S
C389 C388 1.359 . S
C389 C390 1.380 . S
C389 H412 0.929 . S
C390 C389 1.380 . S
C390 C391 1.347 . S
C390 H413 0.931 . S
C391 C390 1.347 . S
C391 C392 1.369 . S
C392 C391 1.369 . S
C392 C393 1.408 . S
C392 H414 0.930 . S
C393 C388 1.348 . S
C393 C392 1.408 . S
C393 H415 0.930 . S
C394 O404 1.281 . S
C394 O405 1.254 . S
C395 O406 1.236 . S
C395 O407 1.266 . S
O396 Tb376 2.484 . S
O396 C378 1.248 . S
O397 Tb376 2.440 . S
O397 C378 1.266 . S
O398 Tb376 2.658 . S
O398 Tb377 2.325 . S
O398 C385 1.281 . S
O399 Tb376 2.409 . S
O399 C385 1.254 . S
O400 Tb376 2.378 . S
O400 C386 1.236 . S
O401 Tb377 2.341 . S
O401 C386 1.266 . S
O402 Tb377 2.484 . S
O402 C387 1.248 . S
O403 Tb377 2.440 . S
O403 C387 1.266 . S
O404 Tb376 2.325 . S
O404 Tb377 2.658 . S
O404 C394 1.281 . S
O405 Tb377 2.409 . S
O405 C394 1.254 . S
O406 Tb377 2.378 . S
O406 C395 1.236 . S
O407 Tb376 2.341 . S
O407 C395 1.266 . S
H408 C380 0.929 . S
H409 C381 0.931 . S
H410 C383 0.930 . S
H411 C384 0.930 . S
H412 C389 0.929 . S
H413 C390 0.931 . S
H414 C392 0.930 . S
H415 C393 0.930 . S
Tb416 C418 2.809 1_545 S
Tb416 O436 2.484 1_545 S
Tb416 O437 2.440 . S
Tb416 O438 2.658 . S
Tb416 O439 2.409 . S
Tb416 O440 2.378 1_545 S
Tb416 O444 2.325 . S
Tb416 O447 2.341 . S
Tb417 C427 2.809 . S
Tb417 O438 2.325 . S
Tb417 O441 2.341 1_545 S
Tb417 O442 2.484 . S
Tb417 O443 2.440 . S
Tb417 O444 2.658 . S
Tb417 O445 2.409 . S
Tb417 O446 2.378 . S
C418 Tb416 2.809 1_565 S
C418 C419 1.514 . S
C418 O436 1.248 . S
C418 O437 1.266 1_565 S
C419 C418 1.514 . S
C419 C420 1.359 . S
C419 C424 1.348 . S
C420 C419 1.359 . S
C420 C421 1.380 . S
C420 H448 0.929 . S
C421 C420 1.380 . S
C421 C422 1.347 . S
C421 H449 0.931 . S
C422 C421 1.347 . S
C422 C423 1.369 . S
C423 C422 1.369 . S
C423 C424 1.408 . S
C423 H450 0.930 . S
C424 C419 1.348 . S
C424 C423 1.408 . S
C424 H451 0.930 . S
C425 O438 1.281 . S
C425 O439 1.254 . S
C426 O440 1.236 . S
C426 O441 1.266 . S
C427 Tb417 2.809 . S
C427 C428 1.514 . S
C427 O442 1.248 . S
C427 O443 1.266 . S
C428 C427 1.514 . S
C428 C429 1.359 . S
C428 C433 1.348 . S
C429 C428 1.359 . S
C429 C430 1.380 . S
C429 H452 0.929 . S
C430 C429 1.380 . S
C430 C431 1.347 . S
C430 H453 0.931 . S
C431 C430 1.347 . S
C431 C432 1.369 . S
C432 C431 1.369 . S
C432 C433 1.408 . S
C432 H454 0.930 . S
C433 C428 1.348 . S
C433 C432 1.408 . S
C433 H455 0.930 . S
C434 O444 1.281 . S
C434 O445 1.254 . S
C435 O446 1.236 . S
C435 O447 1.266 . S
O436 Tb416 2.484 1_565 S
O436 C418 1.248 . S
O437 Tb416 2.440 . S
O437 C418 1.266 1_545 S
O438 Tb416 2.658 . S
O438 Tb417 2.325 . S
O438 C425 1.281 . S
O439 Tb416 2.409 . S
O439 C425 1.254 . S
O440 Tb416 2.378 1_565 S
O440 C426 1.236 . S
O441 Tb417 2.341 1_565 S
O441 C426 1.266 . S
O442 Tb417 2.484 . S
O442 C427 1.248 . S
O443 Tb417 2.440 . S
O443 C427 1.266 . S
O444 Tb416 2.325 . S
O444 Tb417 2.658 . S
O444 C434 1.281 . S
O445 Tb417 2.409 . S
O445 C434 1.254 . S
O446 Tb417 2.378 . S
O446 C435 1.236 . S
O447 Tb416 2.341 . S
O447 C435 1.266 . S
H448 C420 0.929 . S
H449 C421 0.931 . S
H450 C423 0.930 . S
H451 C424 0.930 . S
H452 C429 0.929 . S
H453 C430 0.931 . S
H454 C432 0.930 . S
H455 C433 0.930 . S
Tb456 C458 2.809 . S
Tb456 O476 2.484 . S
Tb456 O477 2.440 . S
Tb456 O478 2.658 . S
Tb456 O479 2.409 . S
Tb456 O480 2.378 . S
Tb456 O484 2.325 . S
Tb456 O487 2.341 . S
Tb457 C467 2.809 . S
Tb457 O478 2.325 . S
Tb457 O481 2.341 . S
Tb457 O482 2.484 . S
Tb457 O483 2.440 . S
Tb457 O484 2.658 . S
Tb457 O485 2.409 . S
Tb457 O486 2.378 . S
C458 Tb456 2.809 . S
C458 C459 1.514 . S
C458 O476 1.248 . S
C458 O477 1.266 . S
C459 C458 1.514 . S
C459 C460 1.359 . S
C459 C464 1.348 . S
C460 C459 1.359 . S
C460 C461 1.380 . S
C460 H488 0.929 . S
C461 C460 1.380 . S
C461 C462 1.347 . S
C461 H489 0.931 . S
C462 C461 1.347 . S
C462 C463 1.369 . S
C463 C462 1.369 . S
C463 C464 1.408 . S
C463 H490 0.930 . S
C464 C459 1.348 . S
C464 C463 1.408 . S
C464 H491 0.930 . S
C465 O478 1.281 . S
C465 O479 1.254 . S
C466 O480 1.236 . S
C466 O481 1.266 . S
C467 Tb457 2.809 . S
C467 C468 1.514 . S
C467 O482 1.248 . S
C467 O483 1.266 . S
C468 C467 1.514 . S
C468 C469 1.359 . S
C468 C473 1.348 . S
C469 C468 1.359 . S
C469 C470 1.380 . S
C469 H492 0.929 . S
C470 C469 1.380 . S
C470 C471 1.347 . S
C470 H493 0.931 . S
C471 C470 1.347 . S
C471 C472 1.369 . S
C472 C471 1.369 . S
C472 C473 1.408 . S
C472 H494 0.930 . S
C473 C468 1.348 . S
C473 C472 1.408 . S
C473 H495 0.930 . S
C474 O484 1.281 . S
C474 O485 1.254 . S
C475 O486 1.236 . S
C475 O487 1.266 . S
O476 Tb456 2.484 . S
O476 C458 1.248 . S
O477 Tb456 2.440 . S
O477 C458 1.266 . S
O478 Tb456 2.658 . S
O478 Tb457 2.325 . S
O478 C465 1.281 . S
O479 Tb456 2.409 . S
O479 C465 1.254 . S
O480 Tb456 2.378 . S
O480 C466 1.236 . S
O481 Tb457 2.341 . S
O481 C466 1.266 . S
O482 Tb457 2.484 . S
O482 C467 1.248 . S
O483 Tb457 2.440 . S
O483 C467 1.266 . S
O484 Tb456 2.325 . S
O484 Tb457 2.658 . S
O484 C474 1.281 . S
O485 Tb457 2.409 . S
O485 C474 1.254 . S
O486 Tb457 2.378 . S
O486 C475 1.236 . S
O487 Tb456 2.341 . S
O487 C475 1.266 . S
H488 C460 0.929 . S
H489 C461 0.931 . S
H490 C463 0.930 . S
H491 C464 0.930 . S
H492 C469 0.929 . S
H493 C470 0.931 . S
H494 C472 0.930 . S
H495 C473 0.930 . S
Tb496 C498 2.809 . S
Tb496 O516 2.484 . S
Tb496 O517 2.440 . S
Tb496 O518 2.658 . S
Tb496 O519 2.409 1_455 S
Tb496 O520 2.378 . S
Tb496 O524 2.325 . S
Tb496 O527 2.341 . S
Tb497 C507 2.809 . S
Tb497 O518 2.325 1_565 S
Tb497 O521 2.341 . S
Tb497 O522 2.484 . S
Tb497 O523 2.440 . S
Tb497 O524 2.658 1_565 S
Tb497 O525 2.409 1_565 S
Tb497 O526 2.378 1_565 S
C498 Tb496 2.809 . S
C498 C499 1.514 . S
C498 O516 1.248 . S
C498 O517 1.266 . S
C499 C498 1.514 . S
C499 C500 1.359 . S
C499 C504 1.348 1_455 S
C500 C499 1.359 . S
C500 C501 1.380 . S
C500 H528 0.929 . S
C501 C500 1.380 . S
C501 C502 1.347 . S
C501 H529 0.931 . S
C502 C501 1.347 . S
C502 C503 1.369 1_455 S
C503 C502 1.369 1_655 S
C503 C504 1.408 . S
C503 H530 0.930 . S
C504 C499 1.348 1_655 S
C504 C503 1.408 . S
C504 H531 0.930 . S
C505 O518 1.281 1_655 S
C505 O519 1.254 . S
C506 O520 1.236 . S
C506 O521 1.266 1_545 S
C507 Tb497 2.809 . S
C507 C508 1.514 . S
C507 O522 1.248 . S
C507 O523 1.266 . S
C508 C507 1.514 . S
C508 C509 1.359 . S
C508 C513 1.348 . S
C509 C508 1.359 . S
C509 C510 1.380 . S
C509 H532 0.929 . S
C510 C509 1.380 . S
C510 C511 1.347 . S
C510 H533 0.931 . S
C511 C510 1.347 . S
C511 C512 1.369 . S
C512 C511 1.369 . S
C512 C513 1.408 . S
C512 H534 0.930 . S
C513 C508 1.348 . S
C513 C512 1.408 . S
C513 H535 0.930 . S
C514 O524 1.281 . S
C514 O525 1.254 . S
C515 O526 1.236 . S
C515 O527 1.266 . S
O516 Tb496 2.484 . S
O516 C498 1.248 . S
O517 Tb496 2.440 . S
O517 C498 1.266 . S
O518 Tb496 2.658 . S
O518 Tb497 2.325 1_545 S
O518 C505 1.281 1_455 S
O519 Tb496 2.409 1_655 S
O519 C505 1.254 . S
O520 Tb496 2.378 . S
O520 C506 1.236 . S
O521 Tb497 2.341 . S
O521 C506 1.266 1_565 S
O522 Tb497 2.484 . S
O522 C507 1.248 . S
O523 Tb497 2.440 . S
O523 C507 1.266 . S
O524 Tb496 2.325 . S
O524 Tb497 2.658 1_545 S
O524 C514 1.281 . S
O525 Tb497 2.409 1_545 S
O525 C514 1.254 . S
O526 Tb497 2.378 1_545 S
O526 C515 1.236 . S
O527 Tb496 2.341 . S
O527 C515 1.266 . S
H528 C500 0.929 . S
H529 C501 0.931 . S
H530 C503 0.930 . S
H531 C504 0.930 . S
H532 C509 0.929 . S
H533 C510 0.931 . S
H534 C512 0.930 . S
H535 C513 0.930 . S
Tb536 C538 2.809 . S
Tb536 O556 2.484 . S
Tb536 O557 2.440 . S
Tb536 O558 2.658 . S
Tb536 O559 2.409 . S
Tb536 O560 2.378 . S
Tb536 O564 2.325 . S
Tb536 O567 2.341 . S
Tb537 C547 2.809 . S
Tb537 O558 2.325 . S
Tb537 O561 2.341 . S
Tb537 O562 2.484 . S
Tb537 O563 2.440 . S
Tb537 O564 2.658 . S
Tb537 O565 2.409 . S
Tb537 O566 2.378 . S
C538 Tb536 2.809 . S
C538 C539 1.514 . S
C538 O556 1.248 . S
C538 O557 1.266 . S
C539 C538 1.514 . S
C539 C540 1.359 . S
C539 C544 1.348 . S
C540 C539 1.359 . S
C540 C541 1.380 . S
C540 H568 0.929 . S
C541 C540 1.380 . S
C541 C542 1.347 . S
C541 H569 0.931 . S
C542 C541 1.347 . S
C542 C543 1.369 . S
C543 C542 1.369 . S
C543 C544 1.408 . S
C543 H570 0.930 . S
C544 C539 1.348 . S
C544 C543 1.408 . S
C544 H571 0.930 . S
C545 O558 1.281 . S
C545 O559 1.254 . S
C546 O560 1.236 . S
C546 O561 1.266 . S
C547 Tb537 2.809 . S
C547 C548 1.514 . S
C547 O562 1.248 . S
C547 O563 1.266 . S
C548 C547 1.514 . S
C548 C549 1.359 . S
C548 C553 1.348 . S
C549 C548 1.359 . S
C549 C550 1.380 . S
C549 H572 0.929 . S
C550 C549 1.380 . S
C550 C551 1.347 . S
C550 H573 0.931 . S
C551 C550 1.347 . S
C551 C552 1.369 . S
C552 C551 1.369 . S
C552 C553 1.408 . S
C552 H574 0.930 . S
C553 C548 1.348 . S
C553 C552 1.408 . S
C553 H575 0.930 . S
C554 O564 1.281 . S
C554 O565 1.254 . S
C555 O566 1.236 . S
C555 O567 1.266 . S
O556 Tb536 2.484 . S
O556 C538 1.248 . S
O557 Tb536 2.440 . S
O557 C538 1.266 . S
O558 Tb536 2.658 . S
O558 Tb537 2.325 . S
O558 C545 1.281 . S
O559 Tb536 2.409 . S
O559 C545 1.254 . S
O560 Tb536 2.378 . S
O560 C546 1.236 . S
O561 Tb537 2.341 . S
O561 C546 1.266 . S
O562 Tb537 2.484 . S
O562 C547 1.248 . S
O563 Tb537 2.440 . S
O563 C547 1.266 . S
O564 Tb536 2.325 . S
O564 Tb537 2.658 . S
O564 C554 1.281 . S
O565 Tb537 2.409 . S
O565 C554 1.254 . S
O566 Tb537 2.378 . S
O566 C555 1.236 . S
O567 Tb536 2.341 . S
O567 C555 1.266 . S
H568 C540 0.929 . S
H569 C541 0.931 . S
H570 C543 0.930 . S
H571 C544 0.930 . S
H572 C549 0.929 . S
H573 C550 0.931 . S
H574 C552 0.930 . S
H575 C553 0.930 . S
Tb576 C578 2.809 . S
Tb576 O596 2.484 1_545 S
Tb576 O597 2.440 . S
Tb576 O598 2.658 . S
Tb576 O599 2.409 . S
Tb576 O600 2.378 . S
Tb576 O604 2.301 1_545 S
Tb576 O607 2.341 1_554 S
Tb577 C587 2.809 . S
Tb577 O598 2.325 . S
Tb577 O601 2.341 . S
Tb577 O602 2.484 . S
Tb577 O603 2.440 . S
Tb577 O604 2.649 1_545 S
Tb577 O605 2.409 1_545 S
Tb577 O606 2.378 . S
C578 Tb576 2.809 . S
C578 C579 1.514 1_545 S
C578 O596 1.248 1_545 S
C578 O597 1.266 . S
C579 C578 1.514 1_565 S
C579 C580 1.359 . S
C579 C584 1.348 1_565 S
C580 C579 1.359 . S
C580 C581 1.380 . S
C580 H608 0.929 . S
C581 C580 1.380 . S
C581 C582 1.347 . S
C581 H609 0.931 . S
C582 C581 1.347 . S
C582 C583 1.369 . S
C583 C582 1.369 . S
C583 C584 1.408 1_565 S
C583 H610 0.930 1_565 S
C584 C579 1.348 1_545 S
C584 C583 1.408 1_545 S
C584 H611 0.930 . S
C585 O598 1.281 . S
C585 O599 1.254 . S
C586 O600 1.236 . S
C586 O601 1.266 . S
C587 Tb577 2.809 . S
C587 C588 1.514 . S
C587 O602 1.248 . S
C587 O603 1.266 . S
C588 C587 1.514 . S
C588 C589 1.359 . S
C588 C593 1.348 . S
C589 C588 1.359 . S
C589 C590 1.380 . S
C589 H612 0.929 . S
C590 C589 1.380 . S
C590 C591 1.347 . S
C590 H613 0.931 . S
C591 C590 1.347 . S
C591 C592 1.369 . S
C592 C591 1.369 . S
C592 C593 1.408 . S
C592 H614 0.930 . S
C593 C588 1.348 . S
C593 C592 1.408 . S
C593 H615 0.930 . S
C594 O604 1.305 . S
C594 O605 1.254 . S
C595 O606 1.236 . S
C595 O607 1.266 1_554 S
O596 Tb576 2.484 1_565 S
O596 C578 1.248 1_565 S
O597 Tb576 2.440 . S
O597 C578 1.266 . S
O598 Tb576 2.658 . S
O598 Tb577 2.325 . S
O598 C585 1.281 . S
O599 Tb576 2.409 . S
O599 C585 1.254 . S
O600 Tb576 2.378 . S
O600 C586 1.236 . S
O601 Tb577 2.341 . S
O601 C586 1.266 . S
O602 Tb577 2.484 . S
O602 C587 1.248 . S
O603 Tb577 2.440 . S
O603 C587 1.266 . S
O604 Tb576 2.301 1_565 S
O604 Tb577 2.649 1_565 S
O604 C594 1.305 . S
O605 Tb577 2.409 1_565 S
O605 C594 1.254 . S
O606 Tb577 2.378 . S
O606 C595 1.236 . S
O607 Tb576 2.341 1_556 S
O607 C595 1.266 1_556 S
H608 C580 0.929 . S
H609 C581 0.931 . S
H610 C583 0.930 1_545 S
H611 C584 0.930 . S
H612 C589 0.929 . S
H613 C590 0.931 . S
H614 C592 0.930 . S
H615 C593 0.930 . S
Tb616 C618 2.809 . S
Tb616 O636 2.484 . S
Tb616 O637 2.440 . S
Tb616 O638 2.658 . S
Tb616 O639 2.409 . S
Tb616 O640 2.378 . S
Tb616 O644 2.325 . S
Tb616 O647 2.341 . S
Tb617 C627 2.809 . S
Tb617 O638 2.325 . S
Tb617 O641 2.341 . S
Tb617 O642 2.484 . S
Tb617 O643 2.440 . S
Tb617 O644 2.658 . S
Tb617 O645 2.409 . S
Tb617 O646 2.378 . S
C618 Tb616 2.809 . S
C618 C619 1.514 . S
C618 O636 1.248 . S
C618 O637 1.266 . S
C619 C618 1.514 . S
C619 C620 1.359 . S
C619 C624 1.348 . S
C620 C619 1.359 . S
C620 C621 1.380 . S
C620 H648 0.929 . S
C621 C620 1.380 . S
C621 C622 1.347 . S
C621 H649 0.931 . S
C622 C621 1.347 . S
C622 C623 1.369 . S
C623 C622 1.369 . S
C623 C624 1.408 . S
C623 H650 0.930 . S
C624 C619 1.348 . S
C624 C623 1.408 . S
C624 H651 0.930 . S
C625 O638 1.281 . S
C625 O639 1.254 . S
C626 O640 1.236 . S
C626 O641 1.266 . S
C627 Tb617 2.809 . S
C627 C628 1.514 . S
C627 O642 1.248 . S
C627 O643 1.266 . S
C628 C627 1.514 . S
C628 C629 1.359 . S
C628 C633 1.348 . S
C629 C628 1.359 . S
C629 C630 1.380 . S
C629 H652 0.929 . S
C630 C629 1.380 . S
C630 C631 1.347 . S
C630 H653 0.931 . S
C631 C630 1.347 . S
C631 C632 1.369 . S
C632 C631 1.369 . S
C632 C633 1.408 . S
C632 H654 0.930 . S
C633 C628 1.348 . S
C633 C632 1.408 . S
C633 H655 0.930 . S
C634 O644 1.281 . S
C634 O645 1.254 . S
C635 O646 1.236 . S
C635 O647 1.266 . S
O636 Tb616 2.484 . S
O636 C618 1.248 . S
O637 Tb616 2.440 . S
O637 C618 1.266 . S
O638 Tb616 2.658 . S
O638 Tb617 2.325 . S
O638 C625 1.281 . S
O639 Tb616 2.409 . S
O639 C625 1.254 . S
O640 Tb616 2.378 . S
O640 C626 1.236 . S
O641 Tb617 2.341 . S
O641 C626 1.266 . S
O642 Tb617 2.484 . S
O642 C627 1.248 . S
O643 Tb617 2.440 . S
O643 C627 1.266 . S
O644 Tb616 2.325 . S
O644 Tb617 2.658 . S
O644 C634 1.281 . S
O645 Tb617 2.409 . S
O645 C634 1.254 . S
O646 Tb617 2.378 . S
O646 C635 1.236 . S
O647 Tb616 2.341 . S
O647 C635 1.266 . S
H648 C620 0.929 . S
H649 C621 0.931 . S
H650 C623 0.930 . S
H651 C624 0.930 . S
H652 C629 0.929 . S
H653 C630 0.931 . S
H654 C632 0.930 . S
H655 C633 0.930 . S
Tb656 C658 2.809 . S
Tb656 O676 2.484 . S
Tb656 O677 2.440 . S
Tb656 O678 2.658 . S
Tb656 O679 2.409 . S
Tb656 O680 2.378 . S
Tb656 O684 2.325 . S
Tb656 O687 2.341 . S
Tb657 C667 2.809 . S
Tb657 O678 2.325 . S
Tb657 O681 2.341 1_554 S
Tb657 O682 2.484 . S
Tb657 O683 2.440 . S
Tb657 O684 2.658 . S
Tb657 O685 2.409 . S
Tb657 O686 2.378 . S
C658 Tb656 2.809 . S
C658 C659 1.514 . S
C658 O676 1.248 . S
C658 O677 1.266 . S
C659 C658 1.514 . S
C659 C660 1.359 1_554 S
C659 C664 1.348 . S
C660 C659 1.359 1_556 S
C660 C661 1.380 . S
C660 H688 0.929 . S
C661 C660 1.380 . S
C661 C662 1.347 . S
C661 H689 0.931 . S
C662 C661 1.347 . S
C662 C663 1.369 . S
C663 C662 1.369 . S
C663 C664 1.408 1_556 S
C663 H690 0.930 . S
C664 C659 1.348 . S
C664 C663 1.408 1_554 S
C664 H691 0.930 . S
C665 O678 1.281 . S
C665 O679 1.254 . S
C666 O680 1.236 1_556 S
C666 O681 1.266 . S
C667 Tb657 2.809 . S
C667 C668 1.514 . S
C667 O682 1.248 . S
C667 O683 1.266 . S
C668 C667 1.514 . S
C668 C669 1.359 . S
C668 C673 1.348 . S
C669 C668 1.359 . S
C669 C670 1.380 . S
C669 H692 0.929 . S
C670 C669 1.380 . S
C670 C671 1.347 . S
C670 H693 0.931 . S
C671 C670 1.347 . S
C671 C672 1.369 . S
C672 C671 1.369 . S
C672 C673 1.408 . S
C672 H694 0.930 . S
C673 C668 1.348 . S
C673 C672 1.408 . S
C673 H695 0.930 . S
C674 O684 1.281 . S
C674 O685 1.254 . S
C675 O686 1.236 . S
C675 O687 1.266 . S
O676 Tb656 2.484 . S
O676 C658 1.248 . S
O677 Tb656 2.440 . S
O677 C658 1.266 . S
O678 Tb656 2.658 . S
O678 Tb657 2.325 . S
O678 C665 1.281 . S
O679 Tb656 2.409 . S
O679 C665 1.254 . S
O680 Tb656 2.378 . S
O680 C666 1.236 1_554 S
O681 Tb657 2.341 1_556 S
O681 C666 1.266 . S
O682 Tb657 2.484 . S
O682 C667 1.248 . S
O683 Tb657 2.440 . S
O683 C667 1.266 . S
O684 Tb656 2.325 . S
O684 Tb657 2.658 . S
O684 C674 1.281 . S
O685 Tb657 2.409 . S
O685 C674 1.254 . S
O686 Tb657 2.378 . S
O686 C675 1.236 . S
O687 Tb656 2.341 . S
O687 C675 1.266 . S
H688 C660 0.929 . S
H689 C661 0.931 . S
H690 C663 0.930 . S
H691 C664 0.930 . S
H692 C669 0.929 . S
H693 C670 0.931 . S
H694 C672 0.930 . S
H695 C673 0.930 . S
Tb696 C698 2.809 . S
Tb696 O716 2.484 . S
Tb696 O717 2.440 . S
Tb696 O718 2.658 . S
Tb696 O719 2.409 . S
Tb696 O720 2.378 . S
Tb696 O724 2.325 . S
Tb696 O727 2.341 . S
Tb697 C707 2.809 . S
Tb697 O718 2.325 . S
Tb697 O721 2.341 . S
Tb697 O722 2.484 . S
Tb697 O723 2.440 . S
Tb697 O724 2.658 . S
Tb697 O725 2.409 . S
Tb697 O726 2.378 . S
C698 Tb696 2.809 . S
C698 C699 1.514 . S
C698 O716 1.248 . S
C698 O717 1.266 . S
C699 C698 1.514 . S
C699 C700 1.359 . S
C699 C704 1.348 . S
C700 C699 1.359 . S
C700 C701 1.380 . S
C700 H728 0.929 . S
C701 C700 1.380 . S
C701 C702 1.347 . S
C701 H729 0.931 . S
C702 C701 1.347 . S
C702 C703 1.369 . S
C703 C702 1.369 . S
C703 C704 1.408 . S
C703 H730 0.930 . S
C704 C699 1.348 . S
C704 C703 1.408 . S
C704 H731 0.930 . S
C705 O718 1.281 . S
C705 O719 1.254 . S
C706 O720 1.236 . S
C706 O721 1.266 . S
C707 Tb697 2.809 . S
C707 C708 1.514 . S
C707 O722 1.248 . S
C707 O723 1.266 . S
C708 C707 1.514 . S
C708 C709 1.359 . S
C708 C713 1.348 . S
C709 C708 1.359 . S
C709 C710 1.380 . S
C709 H732 0.929 . S
C710 C709 1.380 . S
C710 C711 1.347 . S
C710 H733 0.931 . S
C711 C710 1.347 . S
C711 C712 1.369 . S
C712 C711 1.369 . S
C712 C713 1.408 . S
C712 H734 0.930 . S
C713 C708 1.348 . S
C713 C712 1.408 . S
C713 H735 0.930 . S
C714 O724 1.281 . S
C714 O725 1.254 . S
C715 O726 1.236 . S
C715 O727 1.266 . S
O716 Tb696 2.484 . S
O716 C698 1.248 . S
O717 Tb696 2.440 . S
O717 C698 1.266 . S
O718 Tb696 2.658 . S
O718 Tb697 2.325 . S
O718 C705 1.281 . S
O719 Tb696 2.409 . S
O719 C705 1.254 . S
O720 Tb696 2.378 . S
O720 C706 1.236 . S
O721 Tb697 2.341 . S
O721 C706 1.266 . S
O722 Tb697 2.484 . S
O722 C707 1.248 . S
O723 Tb697 2.440 . S
O723 C707 1.266 . S
O724 Tb696 2.325 . S
O724 Tb697 2.658 . S
O724 C714 1.281 . S
O725 Tb697 2.409 . S
O725 C714 1.254 . S
O726 Tb697 2.378 . S
O726 C715 1.236 . S
O727 Tb696 2.341 . S
O727 C715 1.266 . S
H728 C700 0.929 . S
H729 C701 0.931 . S
H730 C703 0.930 . S
H731 C704 0.930 . S
H732 C709 0.929 . S
H733 C710 0.931 . S
H734 C712 0.930 . S
H735 C713 0.930 . S
Tb736 C738 2.809 . S
Tb736 O756 2.484 . S
Tb736 O757 2.440 . S
Tb736 O758 2.658 1_655 S
Tb736 O759 2.409 1_655 S
Tb736 O760 2.378 . S
Tb736 O764 2.325 1_655 S
Tb736 O767 2.341 1_655 S
Tb737 C747 2.809 . S
Tb737 O758 2.325 . S
Tb737 O761 2.341 . S
Tb737 O762 2.484 . S
Tb737 O763 2.440 . S
Tb737 O764 2.658 . S
Tb737 O765 2.409 . S
Tb737 O766 2.378 . S
C738 Tb736 2.809 . S
C738 C739 1.514 . S
C738 O756 1.248 . S
C738 O757 1.266 . S
C739 C738 1.514 . S
C739 C740 1.359 . S
C739 C744 1.348 . S
C740 C739 1.359 . S
C740 C741 1.380 . S
C740 H768 0.929 . S
C741 C740 1.380 . S
C741 C742 1.347 . S
C741 H769 0.931 . S
C742 C741 1.347 . S
C742 C743 1.369 . S
C743 C742 1.369 . S
C743 C744 1.408 . S
C743 H770 0.930 . S
C744 C739 1.348 . S
C744 C743 1.408 . S
C744 H771 0.930 . S
C745 O758 1.281 . S
C745 O759 1.254 . S
C746 O760 1.236 1_455 S
C746 O761 1.266 . S
C747 Tb737 2.809 . S
C747 C748 1.514 . S
C747 O762 1.248 . S
C747 O763 1.266 . S
C748 C747 1.514 . S
C748 C749 1.359 . S
C748 C753 1.348 . S
C749 C748 1.359 . S
C749 C750 1.380 . S
C749 H772 0.929 . S
C750 C749 1.380 . S
C750 C751 1.347 . S
C750 H773 0.931 . S
C751 C750 1.347 . S
C751 C752 1.369 . S
C752 C751 1.369 . S
C752 C753 1.408 . S
C752 H774 0.930 . S
C753 C748 1.348 . S
C753 C752 1.408 . S
C753 H775 0.930 . S
C754 O764 1.281 . S
C754 O765 1.254 . S
C755 O766 1.236 . S
C755 O767 1.266 . S
O756 Tb736 2.484 . S
O756 C738 1.248 . S
O757 Tb736 2.440 . S
O757 C738 1.266 . S
O758 Tb736 2.658 1_455 S
O758 Tb737 2.325 . S
O758 C745 1.281 . S
O759 Tb736 2.409 1_455 S
O759 C745 1.254 . S
O760 Tb736 2.378 . S
O760 C746 1.236 1_655 S
O761 Tb737 2.341 . S
O761 C746 1.266 . S
O762 Tb737 2.484 . S
O762 C747 1.248 . S
O763 Tb737 2.440 . S
O763 C747 1.266 . S
O764 Tb736 2.325 1_455 S
O764 Tb737 2.658 . S
O764 C754 1.281 . S
O765 Tb737 2.409 . S
O765 C754 1.254 . S
O766 Tb737 2.378 . S
O766 C755 1.236 . S
O767 Tb736 2.341 1_455 S
O767 C755 1.266 . S
H768 C740 0.929 . S
H769 C741 0.931 . S
H770 C743 0.930 . S
H771 C744 0.930 . S
H772 C749 0.929 . S
H773 C750 0.931 . S
H774 C752 0.930 . S
H775 C753 0.930 . S
Tb776 C778 2.809 . S
Tb776 O796 2.484 . S
Tb776 O797 2.440 . S
Tb776 O798 2.658 . S
Tb776 O799 2.409 . S
Tb776 O800 2.378 . S
Tb776 O804 2.325 . S
Tb776 O807 2.341 . S
Tb777 C787 2.809 . S
Tb777 O798 2.325 . S
Tb777 O801 2.341 . S
Tb777 O802 2.484 . S
Tb777 O803 2.440 . S
Tb777 O804 2.658 . S
Tb777 O805 2.409 . S
Tb777 O806 2.378 . S
C778 Tb776 2.809 . S
C778 C779 1.514 . S
C778 O796 1.248 . S
C778 O797 1.266 . S
C779 C778 1.514 . S
C779 C780 1.359 . S
C779 C784 1.348 . S
C780 C779 1.359 . S
C780 C781 1.380 . S
C780 H808 0.929 . S
C781 C780 1.380 . S
C781 C782 1.347 . S
C781 H809 0.931 . S
C782 C781 1.347 . S
C782 C783 1.369 . S
C783 C782 1.369 . S
C783 C784 1.408 . S
C783 H810 0.930 . S
C784 C779 1.348 . S
C784 C783 1.408 . S
C784 H811 0.930 . S
C785 O798 1.281 . S
C785 O799 1.254 . S
C786 O800 1.236 . S
C786 O801 1.266 . S
C787 Tb777 2.809 . S
C787 C788 1.514 . S
C787 O802 1.248 . S
C787 O803 1.266 . S
C788 C787 1.514 . S
C788 C789 1.359 . S
C788 C793 1.348 . S
C789 C788 1.359 . S
C789 C790 1.380 . S
C789 H812 0.929 . S
C790 C789 1.380 . S
C790 C791 1.347 . S
C790 H813 0.931 . S
C791 C790 1.347 . S
C791 C792 1.369 . S
C792 C791 1.369 . S
C792 C793 1.408 . S
C792 H814 0.930 . S
C793 C788 1.348 . S
C793 C792 1.408 . S
C793 H815 0.930 . S
C794 O804 1.281 . S
C794 O805 1.254 . S
C795 O806 1.236 . S
C795 O807 1.266 . S
O796 Tb776 2.484 . S
O796 C778 1.248 . S
O797 Tb776 2.440 . S
O797 C778 1.266 . S
O798 Tb776 2.658 . S
O798 Tb777 2.325 . S
O798 C785 1.281 . S
O799 Tb776 2.409 . S
O799 C785 1.254 . S
O800 Tb776 2.378 . S
O800 C786 1.236 . S
O801 Tb777 2.341 . S
O801 C786 1.266 . S
O802 Tb777 2.484 . S
O802 C787 1.248 . S
O803 Tb777 2.440 . S
O803 C787 1.266 . S
O804 Tb776 2.325 . S
O804 Tb777 2.658 . S
O804 C794 1.281 . S
O805 Tb777 2.409 . S
O805 C794 1.254 . S
O806 Tb777 2.378 . S
O806 C795 1.236 . S
O807 Tb776 2.341 . S
O807 C795 1.266 . S
H808 C780 0.929 . S
H809 C781 0.931 . S
H810 C783 0.930 . S
H811 C784 0.930 . S
H812 C789 0.929 . S
H813 C790 0.931 . S
H814 C792 0.930 . S
H815 C793 0.930 . S
Tb816 C818 2.809 . S
Tb816 O836 2.484 . S
Tb816 O837 2.440 . S
Tb816 O838 2.658 . S
Tb816 O839 2.409 . S
Tb816 O840 2.378 . S
Tb816 O844 2.325 . S
Tb816 O847 2.341 . S
Tb817 C827 2.809 . S
Tb817 O838 2.325 . S
Tb817 O841 2.341 . S
Tb817 O842 2.484 . S
Tb817 O843 2.440 . S
Tb817 O844 2.658 . S
Tb817 O845 2.409 . S
Tb817 O846 2.378 . S
C818 Tb816 2.809 . S
C818 C819 1.514 . S
C818 O836 1.248 . S
C818 O837 1.266 . S
C819 C818 1.514 . S
C819 C820 1.359 . S
C819 C824 1.348 . S
C820 C819 1.359 . S
C820 C821 1.380 . S
C820 H848 0.929 . S
C821 C820 1.380 . S
C821 C822 1.347 . S
C821 H849 0.931 . S
C822 C821 1.347 . S
C822 C823 1.369 . S
C823 C822 1.369 . S
C823 C824 1.408 . S
C823 H850 0.930 . S
C824 C819 1.348 . S
C824 C823 1.408 . S
C824 H851 0.930 . S
C825 O838 1.281 . S
C825 O839 1.254 . S
C826 O840 1.236 . S
C826 O841 1.266 . S
C827 Tb817 2.809 . S
C827 C828 1.514 . S
C827 O842 1.248 . S
C827 O843 1.266 . S
C828 C827 1.514 . S
C828 C829 1.359 . S
C828 C833 1.348 . S
C829 C828 1.359 . S
C829 C830 1.380 . S
C829 H852 0.929 . S
C830 C829 1.380 . S
C830 C831 1.347 . S
C830 H853 0.931 . S
C831 C830 1.347 . S
C831 C832 1.369 . S
C832 C831 1.369 . S
C832 C833 1.408 . S
C832 H854 0.930 . S
C833 C828 1.348 . S
C833 C832 1.408 . S
C833 H855 0.930 . S
C834 O844 1.281 . S
C834 O845 1.254 . S
C835 O846 1.236 . S
C835 O847 1.266 . S
O836 Tb816 2.484 . S
O836 C818 1.248 . S
O837 Tb816 2.440 . S
O837 C818 1.266 . S
O838 Tb816 2.658 . S
O838 Tb817 2.325 . S
O838 C825 1.281 . S
O839 Tb816 2.409 . S
O839 C825 1.254 . S
O840 Tb816 2.378 . S
O840 C826 1.236 . S
O841 Tb817 2.341 . S
O841 C826 1.266 . S
O842 Tb817 2.484 . S
O842 C827 1.248 . S
O843 Tb817 2.440 . S
O843 C827 1.266 . S
O844 Tb816 2.325 . S
O844 Tb817 2.658 . S
O844 C834 1.281 . S
O845 Tb817 2.409 . S
O845 C834 1.254 . S
O846 Tb817 2.378 . S
O846 C835 1.236 . S
O847 Tb816 2.341 . S
O847 C835 1.266 . S
H848 C820 0.929 . S
H849 C821 0.931 . S
H850 C823 0.930 . S
H851 C824 0.930 . S
H852 C829 0.929 . S
H853 C830 0.931 . S
H854 C832 0.930 . S
H855 C833 0.930 . S
Tb856 C858 2.809 . S
Tb856 O876 2.484 . S
Tb856 O877 2.440 . S
Tb856 O878 2.658 . S
Tb856 O879 2.409 . S
Tb856 O880 2.378 . S
Tb856 O884 2.325 . S
Tb856 O887 2.341 . S
Tb857 C867 2.809 . S
Tb857 O878 2.325 . S
Tb857 O881 2.341 . S
Tb857 O882 2.484 . S
Tb857 O883 2.440 . S
Tb857 O884 2.658 . S
Tb857 O885 2.409 . S
Tb857 O886 2.378 . S
C858 Tb856 2.809 . S
C858 C859 1.514 . S
C858 O876 1.248 . S
C858 O877 1.266 . S
C859 C858 1.514 . S
C859 C860 1.359 . S
C859 C864 1.348 . S
C860 C859 1.359 . S
C860 C861 1.380 . S
C860 H888 0.929 . S
C861 C860 1.380 . S
C861 C862 1.347 . S
C861 H889 0.931 . S
C862 C861 1.347 . S
C862 C863 1.369 . S
C863 C862 1.369 . S
C863 C864 1.408 . S
C863 H890 0.930 . S
C864 C859 1.348 . S
C864 C863 1.408 . S
C864 H891 0.930 . S
C865 O878 1.281 . S
C865 O879 1.254 . S
C866 O880 1.236 . S
C866 O881 1.266 . S
C867 Tb857 2.809 . S
C867 C868 1.514 . S
C867 O882 1.248 . S
C867 O883 1.266 . S
C868 C867 1.514 . S
C868 C869 1.359 . S
C868 C873 1.348 . S
C869 C868 1.359 . S
C869 C870 1.380 . S
C869 H892 0.929 . S
C870 C869 1.380 . S
C870 C871 1.347 . S
C870 H893 0.931 . S
C871 C870 1.347 . S
C871 C872 1.369 . S
C872 C871 1.369 . S
C872 C873 1.408 . S
C872 H894 0.930 . S
C873 C868 1.348 . S
C873 C872 1.408 . S
C873 H895 0.930 . S
C874 O884 1.281 . S
C874 O885 1.254 . S
C875 O886 1.236 . S
C875 O887 1.266 . S
O876 Tb856 2.484 . S
O876 C858 1.248 . S
O877 Tb856 2.440 . S
O877 C858 1.266 . S
O878 Tb856 2.658 . S
O878 Tb857 2.325 . S
O878 C865 1.281 . S
O879 Tb856 2.409 . S
O879 C865 1.254 . S
O880 Tb856 2.378 . S
O880 C866 1.236 . S
O881 Tb857 2.341 . S
O881 C866 1.266 . S
O882 Tb857 2.484 . S
O882 C867 1.248 . S
O883 Tb857 2.440 . S
O883 C867 1.266 . S
O884 Tb856 2.325 . S
O884 Tb857 2.658 . S
O884 C874 1.281 . S
O885 Tb857 2.409 . S
O885 C874 1.254 . S
O886 Tb857 2.378 . S
O886 C875 1.236 . S
O887 Tb856 2.341 . S
O887 C875 1.266 . S
H888 C860 0.929 . S
H889 C861 0.931 . S
H890 C863 0.930 . S
H891 C864 0.930 . S
H892 C869 0.929 . S
H893 C870 0.931 . S
H894 C872 0.930 . S
H895 C873 0.930 . S
Tb896 C898 2.809 . S
Tb896 O916 2.484 . S
Tb896 O917 2.440 . S
Tb896 O918 2.658 . S
Tb896 O919 2.409 . S
Tb896 O920 2.378 . S
Tb896 O924 2.325 . S
Tb896 O927 2.341 . S
Tb897 C907 2.809 . S
Tb897 O918 2.325 . S
Tb897 O921 2.341 . S
Tb897 O922 2.484 . S
Tb897 O923 2.440 . S
Tb897 O924 2.658 . S
Tb897 O925 2.409 . S
Tb897 O926 2.378 . S
C898 Tb896 2.809 . S
C898 C899 1.514 . S
C898 O916 1.248 . S
C898 O917 1.266 . S
C899 C898 1.514 . S
C899 C900 1.359 . S
C899 C904 1.348 . S
C900 C899 1.359 . S
C900 C901 1.380 . S
C900 H928 0.929 . S
C901 C900 1.380 . S
C901 C902 1.347 . S
C901 H929 0.931 . S
C902 C901 1.347 . S
C902 C903 1.369 . S
C903 C902 1.369 . S
C903 C904 1.408 . S
C903 H930 0.930 . S
C904 C899 1.348 . S
C904 C903 1.408 . S
C904 H931 0.930 . S
C905 O918 1.281 . S
C905 O919 1.254 . S
C906 O920 1.236 . S
C906 O921 1.266 . S
C907 Tb897 2.809 . S
C907 C908 1.514 . S
C907 O922 1.248 . S
C907 O923 1.266 . S
C908 C907 1.514 . S
C908 C909 1.359 . S
C908 C913 1.348 . S
C909 C908 1.359 . S
C909 C910 1.380 . S
C909 H932 0.929 . S
C910 C909 1.380 . S
C910 C911 1.347 . S
C910 H933 0.931 . S
C911 C910 1.347 . S
C911 C912 1.369 . S
C912 C911 1.369 . S
C912 C913 1.408 . S
C912 H934 0.930 . S
C913 C908 1.348 . S
C913 C912 1.408 . S
C913 H935 0.930 . S
C914 O924 1.281 . S
C914 O925 1.254 . S
C915 O926 1.236 . S
C915 O927 1.266 . S
O916 Tb896 2.484 . S
O916 C898 1.248 . S
O917 Tb896 2.440 . S
O917 C898 1.266 . S
O918 Tb896 2.658 . S
O918 Tb897 2.325 . S
O918 C905 1.281 . S
O919 Tb896 2.409 . S
O919 C905 1.254 . S
O920 Tb896 2.378 . S
O920 C906 1.236 . S
O921 Tb897 2.341 . S
O921 C906 1.266 . S
O922 Tb897 2.484 . S
O922 C907 1.248 . S
O923 Tb897 2.440 . S
O923 C907 1.266 . S
O924 Tb896 2.325 . S
O924 Tb897 2.658 . S
O924 C914 1.281 . S
O925 Tb897 2.409 . S
O925 C914 1.254 . S
O926 Tb897 2.378 . S
O926 C915 1.236 . S
O927 Tb896 2.341 . S
O927 C915 1.266 . S
H928 C900 0.929 . S
H929 C901 0.931 . S
H930 C903 0.930 . S
H931 C904 0.930 . S
H932 C909 0.929 . S
H933 C910 0.931 . S
H934 C912 0.930 . S
H935 C913 0.930 . S
Tb936 C938 2.809 . S
Tb936 O956 2.484 . S
Tb936 O957 2.440 . S
Tb936 O958 2.658 . S
Tb936 O959 2.409 1_554 S
Tb936 O960 2.378 . S
Tb936 O964 2.325 . S
Tb936 O967 2.341 . S
Tb937 C947 2.812 1_455 S
Tb937 O958 2.323 . S
Tb937 O961 2.340 . S
Tb937 O962 2.487 1_455 S
Tb937 O963 2.443 1_455 S
Tb937 O964 2.655 . S
Tb937 O965 2.408 . S
Tb937 O966 2.377 . S
C938 Tb936 2.809 . S
C938 C939 1.514 . S
C938 O956 1.248 . S
C938 O957 1.266 . S
C939 C938 1.514 . S
C939 C940 1.359 . S
C939 C944 1.348 . S
C940 C939 1.359 . S
C940 C941 1.380 . S
C940 H968 0.929 . S
C941 C940 1.380 . S
C941 C942 1.347 . S
C941 H969 0.931 . S
C942 C941 1.347 . S
C942 C943 1.342 1_554 S
C943 C942 1.342 1_556 S
C943 C944 1.401 1_556 S
C943 H970 0.965 . S
C944 C939 1.348 . S
C944 C943 1.401 1_554 S
C944 H971 0.930 1_554 S
C945 O958 1.276 . S
C945 O959 1.255 1_554 S
C946 O960 1.236 . S
C946 O961 1.266 . S
C947 Tb937 2.812 1_655 S
C947 C948 1.514 . S
C947 O962 1.248 . S
C947 O963 1.266 . S
C948 C947 1.514 . S
C948 C949 1.359 . S
C948 C953 1.348 . S
C949 C948 1.359 . S
C949 C950 1.380 . S
C949 H972 0.929 . S
C950 C949 1.380 . S
C950 C951 1.347 . S
C950 H973 0.931 . S
C951 C950 1.347 . S
C951 C952 1.369 . S
C952 C951 1.369 . S
C952 C953 1.408 . S
C952 H974 0.930 . S
C953 C948 1.348 . S
C953 C952 1.408 . S
C953 H975 0.930 . S
C954 O964 1.281 . S
C954 O965 1.254 . S
C955 O966 1.236 . S
C955 O967 1.266 . S
O956 Tb936 2.484 . S
O956 C938 1.248 . S
O957 Tb936 2.440 . S
O957 C938 1.266 . S
O958 Tb936 2.658 . S
O958 Tb937 2.323 . S
O958 C945 1.276 . S
O959 Tb936 2.409 1_556 S
O959 C945 1.255 1_556 S
O960 Tb936 2.378 . S
O960 C946 1.236 . S
O961 Tb937 2.340 . S
O961 C946 1.266 . S
O962 Tb937 2.487 1_655 S
O962 C947 1.248 . S
O963 Tb937 2.443 1_655 S
O963 C947 1.266 . S
O964 Tb936 2.325 . S
O964 Tb937 2.655 . S
O964 C954 1.281 . S
O965 Tb937 2.408 . S
O965 C954 1.254 . S
O966 Tb937 2.377 . S
O966 C955 1.236 . S
O967 Tb936 2.341 . S
O967 C955 1.266 . S
H968 C940 0.929 . S
H969 C941 0.931 . S
H970 C943 0.965 . S
H971 C944 0.930 1_556 S
H972 C949 0.929 . S
H973 C950 0.931 . S
H974 C952 0.930 . S
H975 C953 0.930 . S
H976 C982 0.930 . S
H977 C986 0.930 . S
H978 C991 0.929 . S
H979 C989 0.929 . S
H980 C984 0.929 . S
H981 C990 0.929 1_655 S
C982 H976 0.930 . S
C982 C983 1.367 1_655 S
C982 C990 1.378 1_655 S
C983 C982 1.367 1_455 S
C983 C991 1.433 1_556 S
C984 H980 0.929 . S
C984 C986 1.378 . S
C984 C988 1.350 . S
C985 C988 1.463 . S
C985 C990 1.350 1_554 S
C985 N993 1.427 . S
C986 H977 0.930 . S
C986 C984 1.378 . S
C986 C987 1.367 . S
C987 C986 1.367 . S
C987 C989 1.433 . S
C988 C984 1.350 . S
C988 C985 1.463 . S
C988 N992 1.427 . S
C989 H979 0.929 . S
C989 C987 1.433 . S
C989 N992 1.384 . S
C990 H981 0.929 1_455 S
C990 C982 1.378 1_455 S
C990 C985 1.350 1_556 S
C991 H978 0.929 . S
C991 C983 1.433 1_554 S
C991 N993 1.384 . S
N992 C988 1.427 . S
N992 C989 1.384 . S
N993 C985 1.427 . S
N993 C991 1.384 . S
H994 C1000 0.930 . S
H995 C1004 0.930 . S
H996 C1009 0.929 . S
H997 C1007 0.929 . S
H998 C1002 0.929 . S
H999 C1008 0.929 . S
C1000 H994 0.930 . S
C1000 C1001 1.367 . S
C1000 C1008 1.378 . S
C1001 C1000 1.367 . S
C1001 C1009 1.433 . S
C1002 H998 0.929 . S
C1002 C1004 1.378 . S
C1002 C1006 1.350 . S
C1003 C1006 1.463 . S
C1003 C1008 1.350 . S
C1003 N1011 1.427 . S
C1004 H995 0.930 . S
C1004 C1002 1.378 . S
C1004 C1005 1.367 . S
C1005 C1004 1.367 . S
C1005 C1007 1.433 . S
C1006 C1002 1.350 . S
C1006 C1003 1.463 . S
C1006 N1010 1.427 . S
C1007 H997 0.929 . S
C1007 C1005 1.433 . S
C1007 N1010 1.384 . S
C1008 H999 0.929 . S
C1008 C1000 1.378 . S
C1008 C1003 1.350 . S
C1009 H996 0.929 . S
C1009 C1001 1.433 . S
C1009 N1011 1.384 . S
N1010 C1006 1.427 . S
N1010 C1007 1.384 . S
N1011 C1003 1.427 . S
N1011 C1009 1.384 . S
H1012 C1018 0.930 . S
H1013 C1022 0.930 . S
H1014 C1027 0.929 . S
H1015 C1025 0.929 . S
H1016 C1020 0.929 . S
H1017 C1026 0.929 . S
C1018 H1012 0.930 . S
C1018 C1019 1.367 . S
C1018 C1026 1.378 . S
C1019 C1018 1.367 . S
C1019 C1027 1.433 . S
C1020 H1016 0.929 . S
C1020 C1022 1.378 . S
C1020 C1024 1.350 . S
C1021 C1024 1.463 . S
C1021 C1026 1.350 . S
C1021 N1029 1.427 . S
C1022 H1013 0.930 . S
C1022 C1020 1.378 . S
C1022 C1023 1.367 . S
C1023 C1022 1.367 . S
C1023 C1025 1.433 . S
C1024 C1020 1.350 . S
C1024 C1021 1.463 . S
C1024 N1028 1.427 . S
C1025 H1015 0.929 . S
C1025 C1023 1.433 . S
C1025 N1028 1.384 . S
C1026 H1017 0.929 . S
C1026 C1018 1.378 . S
C1026 C1021 1.350 . S
C1027 H1014 0.929 . S
C1027 C1019 1.433 . S
C1027 N1029 1.384 . S
N1028 C1024 1.427 . S
N1028 C1025 1.384 . S
N1029 C1021 1.427 . S
N1029 C1027 1.384 . S
H1030 C1036 0.930 . S
H1031 C1040 0.930 . S
H1032 C1045 0.929 . S
H1033 C1043 0.929 . S
H1034 C1038 0.929 . S
H1035 C1044 0.929 . S
C1036 H1030 0.930 . S
C1036 C1037 1.367 . S
C1036 C1044 1.378 . S
C1037 C1036 1.367 . S
C1037 C1045 1.433 . S
C1038 H1034 0.929 . S
C1038 C1040 1.378 . S
C1038 C1042 1.350 . S
C1039 C1042 1.463 . S
C1039 C1044 1.350 . S
C1039 N1047 1.427 . S
C1040 H1031 0.930 . S
C1040 C1038 1.378 . S
C1040 C1041 1.367 . S
C1041 C1040 1.367 . S
C1041 C1043 1.433 . S
C1042 C1038 1.350 . S
C1042 C1039 1.463 . S
C1042 N1046 1.427 . S
C1043 H1033 0.929 . S
C1043 C1041 1.433 . S
C1043 N1046 1.384 . S
C1044 H1035 0.929 . S
C1044 C1036 1.378 . S
C1044 C1039 1.350 . S
C1045 H1032 0.929 . S
C1045 C1037 1.433 . S
C1045 N1047 1.384 . S
N1046 C1042 1.427 . S
N1046 C1043 1.384 . S
N1047 C1039 1.427 . S
N1047 C1045 1.384 . S
H1048 C1054 0.930 . S
H1049 C1058 0.930 . S
H1050 C1063 0.929 . S
H1051 C1061 0.929 . S
H1052 C1056 0.929 . S
H1053 C1062 0.929 . S
C1054 H1048 0.930 . S
C1054 C1055 1.367 . S
C1054 C1062 1.378 . S
C1055 C1054 1.367 . S
C1055 C1063 1.433 . S
C1056 H1052 0.929 . S
C1056 C1058 1.378 . S
C1056 C1060 1.350 . S
C1057 C1060 1.463 . S
C1057 C1062 1.350 . S
C1057 N1065 1.427 . S
C1058 H1049 0.930 . S
C1058 C1056 1.378 . S
C1058 C1059 1.367 . S
C1059 C1058 1.367 . S
C1059 C1061 1.433 . S
C1060 C1056 1.350 . S
C1060 C1057 1.463 . S
C1060 N1064 1.427 . S
C1061 H1051 0.929 . S
C1061 C1059 1.433 . S
C1061 N1064 1.384 . S
C1062 H1053 0.929 . S
C1062 C1054 1.378 . S
C1062 C1057 1.350 . S
C1063 H1050 0.929 . S
C1063 C1055 1.433 . S
C1063 N1065 1.384 . S
N1064 C1060 1.427 . S
N1064 C1061 1.384 . S
N1065 C1057 1.427 . S
N1065 C1063 1.384 . S
H1066 C1072 0.930 . S
H1067 C1076 0.930 . S
H1068 C1081 0.929 . S
H1069 C1079 0.929 . S
H1070 C1074 0.929 . S
H1071 C1080 0.929 . S
C1072 H1066 0.930 . S
C1072 C1073 1.367 . S
C1072 C1080 1.378 . S
C1073 C1072 1.367 . S
C1073 C1081 1.433 . S
C1074 H1070 0.929 . S
C1074 C1076 1.378 . S
C1074 C1078 1.350 . S
C1075 C1078 1.463 . S
C1075 C1080 1.350 . S
C1075 N1083 1.427 . S
C1076 H1067 0.930 . S
C1076 C1074 1.378 . S
C1076 C1077 1.367 . S
C1077 C1076 1.367 . S
C1077 C1079 1.433 . S
C1078 C1074 1.350 . S
C1078 C1075 1.463 . S
C1078 N1082 1.427 . S
C1079 H1069 0.929 . S
C1079 C1077 1.433 . S
C1079 N1082 1.384 . S
C1080 H1071 0.929 . S
C1080 C1072 1.378 . S
C1080 C1075 1.350 . S
C1081 H1068 0.929 . S
C1081 C1073 1.433 . S
C1081 N1083 1.384 . S
N1082 C1078 1.427 . S
N1082 C1079 1.384 . S
N1083 C1075 1.427 . S
N1083 C1081 1.384 . S
H1084 C1090 0.930 . S
H1085 C1094 0.930 . S
H1086 C1099 0.929 . S
H1087 C1097 0.929 . S
H1088 C1092 0.929 . S
H1089 C1098 0.929 . S
C1090 H1084 0.930 . S
C1090 C1091 1.367 . S
C1090 C1098 1.378 . S
C1091 C1090 1.367 . S
C1091 C1099 1.433 . S
C1092 H1088 0.929 . S
C1092 C1094 1.378 . S
C1092 C1096 1.350 . S
C1093 C1096 1.463 . S
C1093 C1098 1.350 . S
C1093 N1101 1.427 . S
C1094 H1085 0.930 . S
C1094 C1092 1.378 . S
C1094 C1095 1.367 . S
C1095 C1094 1.367 . S
C1095 C1097 1.433 . S
C1096 C1092 1.350 . S
C1096 C1093 1.463 . S
C1096 N1100 1.427 . S
C1097 H1087 0.929 . S
C1097 C1095 1.433 . S
C1097 N1100 1.384 . S
C1098 H1089 0.929 . S
C1098 C1090 1.378 . S
C1098 C1093 1.350 . S
C1099 H1086 0.929 . S
C1099 C1091 1.433 . S
C1099 N1101 1.384 . S
N1100 C1096 1.427 . S
N1100 C1097 1.384 . S
N1101 C1093 1.427 . S
N1101 C1099 1.384 . S
H1102 C1108 0.930 . S
H1103 C1112 0.930 . S
H1104 C1117 0.929 . S
H1105 C1115 0.929 . S
H1106 C1110 0.929 . S
H1107 C1116 0.929 . S
C1108 H1102 0.930 . S
C1108 C1109 1.367 . S
C1108 C1116 1.378 . S
C1109 C1108 1.367 . S
C1109 C1117 1.433 . S
C1110 H1106 0.929 . S
C1110 C1112 1.378 . S
C1110 C1114 1.350 . S
C1111 C1114 1.463 . S
C1111 C1116 1.350 . S
C1111 N1119 1.427 . S
C1112 H1103 0.930 . S
C1112 C1110 1.378 . S
C1112 C1113 1.367 . S
C1113 C1112 1.367 . S
C1113 C1115 1.433 . S
C1114 C1110 1.350 . S
C1114 C1111 1.463 . S
C1114 N1118 1.427 . S
C1115 H1105 0.929 . S
C1115 C1113 1.433 . S
C1115 N1118 1.384 . S
C1116 H1107 0.929 . S
C1116 C1108 1.378 . S
C1116 C1111 1.350 . S
C1117 H1104 0.929 . S
C1117 C1109 1.433 . S
C1117 N1119 1.384 . S
N1118 C1114 1.427 . S
N1118 C1115 1.384 . S
N1119 C1111 1.427 . S
N1119 C1117 1.384 . S
H1120 C1126 0.930 . S
H1121 C1130 0.929 1_665 S
H1122 C1135 0.929 . S
H1123 C1133 0.929 . S
H1124 C1128 0.903 1_565 S
H1125 C1134 0.929 1_455 S
C1126 H1120 0.930 . S
C1126 C1127 1.367 . S
C1126 C1134 1.378 . S
C1127 C1126 1.367 . S
C1127 C1135 1.433 1_545 S
C1128 H1124 0.903 1_545 S
C1128 C1130 1.376 1_655 S
C1128 C1132 1.373 . S
C1129 C1132 1.483 . S
C1129 C1134 1.350 . S
C1129 N1137 1.427 1_545 S
C1130 H1121 0.929 1_445 S
C1130 C1128 1.376 1_455 S
C1130 C1131 1.380 . S
C1131 C1130 1.380 . S
C1131 C1133 1.433 . S
C1132 C1128 1.373 . S
C1132 C1129 1.483 . S
C1132 N1136 1.404 1_655 S
C1133 H1123 0.929 . S
C1133 C1131 1.433 . S
C1133 N1136 1.384 . S
C1134 H1125 0.929 1_655 S
C1134 C1126 1.378 . S
C1134 C1129 1.350 . S
C1135 H1122 0.929 . S
C1135 C1127 1.433 1_565 S
C1135 N1137 1.384 . S
N1136 C1132 1.404 1_455 S
N1136 C1133 1.384 . S
N1137 C1129 1.427 1_565 S
N1137 C1135 1.384 . S
H1138 C1144 0.930 . S
H1139 C1148 0.930 . S
H1140 C1153 0.929 . S
H1141 C1151 0.929 . S
H1142 C1146 0.929 . S
H1143 C1152 0.929 . S
C1144 H1138 0.930 . S
C1144 C1145 1.367 . S
C1144 C1152 1.378 . S
C1145 C1144 1.367 . S
C1145 C1153 1.433 . S
C1146 H1142 0.929 . S
C1146 C1148 1.378 . S
C1146 C1150 1.350 . S
C1147 C1150 1.463 . S
C1147 C1152 1.350 . S
C1147 N1155 1.427 . S
C1148 H1139 0.930 . S
C1148 C1146 1.378 . S
C1148 C1149 1.367 . S
C1149 C1148 1.367 . S
C1149 C1151 1.433 . S
C1150 C1146 1.350 . S
C1150 C1147 1.463 . S
C1150 N1154 1.427 . S
C1151 H1141 0.929 . S
C1151 C1149 1.433 . S
C1151 N1154 1.384 . S
C1152 H1143 0.929 . S
C1152 C1144 1.378 . S
C1152 C1147 1.350 . S
C1153 H1140 0.929 . S
C1153 C1145 1.433 . S
C1153 N1155 1.384 . S
N1154 C1150 1.427 . S
N1154 C1151 1.384 . S
N1155 C1147 1.427 . S
N1155 C1153 1.384 . S
H1156 C1162 0.930 . S
H1157 C1166 0.930 . S
H1158 C1171 0.929 . S
H1159 C1169 0.929 . S
H1160 C1164 0.929 . S
H1161 C1170 0.929 . S
C1162 H1156 0.930 . S
C1162 C1163 1.367 1_565 S
C1162 C1170 1.378 . S
C1163 C1162 1.367 1_545 S
C1163 C1171 1.433 . S
C1164 H1160 0.929 . S
C1164 C1166 1.378 . S
C1164 C1168 1.350 . S
C1165 C1168 1.463 . S
C1165 C1170 1.350 1_545 S
C1165 N1173 1.427 . S
C1166 H1157 0.930 . S
C1166 C1164 1.378 . S
C1166 C1167 1.367 . S
C1167 C1166 1.367 . S
C1167 C1169 1.433 1_545 S
C1168 C1164 1.350 . S
C1168 C1165 1.463 . S
C1168 N1172 1.427 1_545 S
C1169 H1159 0.929 . S
C1169 C1167 1.433 1_565 S
C1169 N1172 1.384 . S
C1170 H1161 0.929 . S
C1170 C1162 1.378 . S
C1170 C1165 1.350 1_565 S
C1171 H1158 0.929 . S
C1171 C1163 1.433 . S
C1171 N1173 1.384 . S
N1172 C1168 1.427 1_565 S
N1172 C1169 1.384 . S
N1173 C1165 1.427 . S
N1173 C1171 1.384 . S
H1174 C1180 0.930 . S
H1175 C1184 0.930 . S
H1176 C1189 0.929 . S
H1177 C1187 0.929 . S
H1178 C1182 0.929 . S
H1179 C1188 0.929 . S
C1180 H1174 0.930 . S
C1180 C1181 1.367 . S
C1180 C1188 1.378 . S
C1181 C1180 1.367 . S
C1181 C1189 1.433 . S
C1182 H1178 0.929 . S
C1182 C1184 1.378 . S
C1182 C1186 1.350 . S
C1183 C1186 1.463 . S
C1183 C1188 1.350 . S
C1183 N1191 1.427 . S
C1184 H1175 0.930 . S
C1184 C1182 1.378 . S
C1184 C1185 1.367 . S
C1185 C1184 1.367 . S
C1185 C1187 1.433 . S
C1186 C1182 1.350 . S
C1186 C1183 1.463 . S
C1186 N1190 1.427 . S
C1187 H1177 0.929 . S
C1187 C1185 1.433 . S
C1187 N1190 1.384 . S
C1188 H1179 0.929 . S
C1188 C1180 1.378 . S
C1188 C1183 1.350 . S
C1189 H1176 0.929 . S
C1189 C1181 1.433 . S
C1189 N1191 1.384 . S
N1190 C1186 1.427 . S
N1190 C1187 1.384 . S
N1191 C1183 1.427 . S
N1191 C1189 1.384 . S
H1192 C1198 0.930 . S
H1193 C1202 0.936 . S
H1194 C1207 0.929 . S
H1195 C1205 0.929 . S
H1196 C1200 0.929 . S
H1197 C1206 0.929 1_455 S
C1198 H1192 0.930 . S
C1198 C1199 1.367 . S
C1198 C1206 1.378 . S
C1199 C1198 1.367 . S
C1199 C1207 1.433 1_545 S
C1200 H1196 0.929 . S
C1200 C1202 1.386 . S
C1200 C1204 1.350 1_565 S
C1201 C1204 1.463 . S
C1201 C1206 1.350 . S
C1201 N1209 1.427 1_545 S
C1202 H1193 0.936 . S
C1202 C1200 1.386 . S
C1202 C1203 1.355 1_665 S
C1203 C1202 1.355 1_445 S
C1203 C1205 1.433 . S
C1204 C1200 1.350 1_545 S
C1204 C1201 1.463 . S
C1204 N1208 1.427 1_655 S
C1205 H1195 0.929 . S
C1205 C1203 1.433 . S
C1205 N1208 1.384 . S
C1206 H1197 0.929 1_655 S
C1206 C1198 1.378 . S
C1206 C1201 1.350 . S
C1207 H1194 0.929 . S
C1207 C1199 1.433 1_565 S
C1207 N1209 1.384 . S
N1208 C1204 1.427 1_455 S
N1208 C1205 1.384 . S
N1209 C1201 1.427 1_565 S
N1209 C1207 1.384 . S
H1210 C1216 0.930 . S
H1211 C1220 0.930 . S
H1212 C1225 0.929 . S
H1213 C1223 0.929 . S
H1214 C1218 0.929 . S
H1215 C1224 0.929 . S
C1216 H1210 0.930 . S
C1216 C1217 1.367 . S
C1216 C1224 1.378 . S
C1217 C1216 1.367 . S
C1217 C1225 1.433 . S
C1218 H1214 0.929 . S
C1218 C1220 1.378 . S
C1218 C1222 1.350 . S
C1219 C1222 1.463 . S
C1219 C1224 1.350 . S
C1219 N1227 1.427 . S
C1220 H1211 0.930 . S
C1220 C1218 1.378 . S
C1220 C1221 1.367 . S
C1221 C1220 1.367 . S
C1221 C1223 1.433 . S
C1222 C1218 1.350 . S
C1222 C1219 1.463 . S
C1222 N1226 1.427 . S
C1223 H1213 0.929 . S
C1223 C1221 1.433 . S
C1223 N1226 1.384 . S
C1224 H1215 0.929 . S
C1224 C1216 1.378 . S
C1224 C1219 1.350 . S
C1225 H1212 0.929 . S
C1225 C1217 1.433 . S
C1225 N1227 1.384 . S
N1226 C1222 1.427 . S
N1226 C1223 1.384 . S
N1227 C1219 1.427 . S
N1227 C1225 1.384 . S
H1228 C1234 0.930 1_565 S
H1229 C1238 0.930 . S
H1230 C1243 0.929 . S
H1231 C1241 0.929 . S
H1232 C1236 0.929 . S
H1233 C1242 0.929 1_565 S
C1234 H1228 0.930 1_545 S
C1234 C1235 1.367 . S
C1234 C1242 1.378 . S
C1235 C1234 1.367 . S
C1235 C1243 1.433 . S
C1236 H1232 0.929 . S
C1236 C1238 1.378 . S
C1236 C1240 1.350 . S
C1237 C1240 1.463 . S
C1237 C1242 1.350 . S
C1237 N1245 1.427 . S
C1238 H1229 0.930 . S
C1238 C1236 1.378 . S
C1238 C1239 1.367 . S
C1239 C1238 1.367 . S
C1239 C1241 1.433 . S
C1240 C1236 1.350 . S
C1240 C1237 1.463 . S
C1240 N1244 1.427 . S
C1241 H1231 0.929 . S
C1241 C1239 1.433 . S
C1241 N1244 1.384 . S
C1242 H1233 0.929 1_545 S
C1242 C1234 1.378 . S
C1242 C1237 1.350 . S
C1243 H1230 0.929 . S
C1243 C1235 1.433 . S
C1243 N1245 1.384 . S
N1244 C1240 1.427 . S
N1244 C1241 1.384 . S
N1245 C1237 1.427 . S
N1245 C1243 1.384 . S
H1246 C1252 0.930 . S
H1247 C1256 0.930 . S
H1248 C1261 0.929 . S
H1249 C1259 0.929 . S
H1250 C1254 0.929 . S
H1251 C1260 0.929 . S
C1252 H1246 0.930 . S
C1252 C1253 1.367 . S
C1252 C1260 1.378 . S
C1253 C1252 1.367 . S
C1253 C1261 1.433 . S
C1254 H1250 0.929 . S
C1254 C1256 1.378 . S
C1254 C1258 1.350 . S
C1255 C1258 1.463 . S
C1255 C1260 1.350 . S
C1255 N1263 1.427 . S
C1256 H1247 0.930 . S
C1256 C1254 1.378 . S
C1256 C1257 1.367 . S
C1257 C1256 1.367 . S
C1257 C1259 1.433 . S
C1258 C1254 1.350 . S
C1258 C1255 1.463 . S
C1258 N1262 1.427 . S
C1259 H1249 0.929 . S
C1259 C1257 1.433 . S
C1259 N1262 1.384 . S
C1260 H1251 0.929 . S
C1260 C1252 1.378 . S
C1260 C1255 1.350 . S
C1261 H1248 0.929 . S
C1261 C1253 1.433 . S
C1261 N1263 1.384 . S
N1262 C1258 1.427 . S
N1262 C1259 1.384 . S
N1263 C1255 1.427 . S
N1263 C1261 1.384 . S
H1264 C1270 0.930 . S
H1265 C1274 0.930 . S
H1266 C1279 0.929 . S
H1267 C1277 0.929 . S
H1268 C1272 0.929 . S
H1269 C1278 0.929 . S
C1270 H1264 0.930 . S
C1270 C1271 1.367 . S
C1270 C1278 1.378 . S
C1271 C1270 1.367 . S
C1271 C1279 1.433 1_554 S
C1272 H1268 0.929 . S
C1272 C1274 1.378 . S
C1272 C1276 1.350 . S
C1273 C1276 1.463 . S
C1273 C1278 1.350 . S
C1273 N1281 1.427 . S
C1274 H1265 0.930 . S
C1274 C1272 1.378 . S
C1274 C1275 1.367 . S
C1275 C1274 1.367 . S
C1275 C1277 1.433 . S
C1276 C1272 1.350 . S
C1276 C1273 1.463 . S
C1276 N1280 1.427 . S
C1277 H1267 0.929 . S
C1277 C1275 1.433 . S
C1277 N1280 1.384 . S
C1278 H1269 0.929 . S
C1278 C1270 1.378 . S
C1278 C1273 1.350 . S
C1279 H1266 0.929 . S
C1279 C1271 1.433 1_556 S
C1279 N1281 1.384 1_556 S
N1280 C1276 1.427 . S
N1280 C1277 1.384 . S
N1281 C1273 1.427 . S
N1281 C1279 1.384 1_554 S
H1282 C1288 0.930 . S
H1283 C1292 0.930 . S
H1284 C1297 0.929 . S
H1285 C1295 0.929 . S
H1286 C1290 0.929 . S
H1287 C1296 0.929 . S
C1288 H1282 0.930 . S
C1288 C1289 1.367 . S
C1288 C1296 1.378 . S
C1289 C1288 1.367 . S
C1289 C1297 1.433 . S
C1290 H1286 0.929 . S
C1290 C1292 1.378 . S
C1290 C1294 1.350 . S
C1291 C1294 1.463 . S
C1291 C1296 1.350 . S
C1291 N1299 1.427 . S
C1292 H1283 0.930 . S
C1292 C1290 1.378 . S
C1292 C1293 1.367 . S
C1293 C1292 1.367 . S
C1293 C1295 1.433 . S
C1294 C1290 1.350 . S
C1294 C1291 1.463 . S
C1294 N1298 1.427 . S
C1295 H1285 0.929 . S
C1295 C1293 1.433 . S
C1295 N1298 1.384 . S
C1296 H1287 0.929 . S
C1296 C1288 1.378 . S
C1296 C1291 1.350 . S
C1297 H1284 0.929 . S
C1297 C1289 1.433 . S
C1297 N1299 1.384 . S
N1298 C1294 1.427 . S
N1298 C1295 1.384 . S
N1299 C1291 1.427 . S
N1299 C1297 1.384 . S
H1300 C1306 0.930 . S
H1301 C1310 0.930 . S
H1302 C1315 0.929 . S
H1303 C1313 0.929 . S
H1304 C1308 0.929 . S
H1305 C1314 0.929 . S
C1306 H1300 0.930 . S
C1306 C1307 1.367 . S
C1306 C1314 1.378 . S
C1307 C1306 1.367 . S
C1307 C1315 1.433 . S
C1308 H1304 0.929 . S
C1308 C1310 1.378 . S
C1308 C1312 1.350 . S
C1309 C1312 1.463 . S
C1309 C1314 1.350 . S
C1309 N1317 1.427 . S
C1310 H1301 0.930 . S
C1310 C1308 1.378 . S
C1310 C1311 1.367 . S
C1311 C1310 1.367 . S
C1311 C1313 1.433 . S
C1312 C1308 1.350 . S
C1312 C1309 1.463 . S
C1312 N1316 1.427 . S
C1313 H1303 0.929 . S
C1313 C1311 1.433 . S
C1313 N1316 1.384 . S
C1314 H1305 0.929 . S
C1314 C1306 1.378 . S
C1314 C1309 1.350 . S
C1315 H1302 0.929 . S
C1315 C1307 1.433 . S
C1315 N1317 1.384 . S
N1316 C1312 1.427 . S
N1316 C1313 1.384 . S
N1317 C1309 1.427 . S
N1317 C1315 1.384 . S
H1318 C1324 0.930 . S
H1319 C1328 0.930 . S
H1320 C1333 0.929 . S
H1321 C1331 0.929 . S
H1322 C1326 0.929 . S
H1323 C1332 0.929 . S
C1324 H1318 0.930 . S
C1324 C1325 1.367 . S
C1324 C1332 1.378 . S
C1325 C1324 1.367 . S
C1325 C1333 1.433 . S
C1326 H1322 0.929 . S
C1326 C1328 1.378 . S
C1326 C1330 1.350 . S
C1327 C1330 1.463 . S
C1327 C1332 1.350 . S
C1327 N1335 1.427 . S
C1328 H1319 0.930 . S
C1328 C1326 1.378 . S
C1328 C1329 1.367 . S
C1329 C1328 1.367 . S
C1329 C1331 1.433 . S
C1330 C1326 1.350 . S
C1330 C1327 1.463 . S
C1330 N1334 1.427 . S
C1331 H1321 0.929 . S
C1331 C1329 1.433 . S
C1331 N1334 1.384 . S
C1332 H1323 0.929 . S
C1332 C1324 1.378 . S
C1332 C1327 1.350 . S
C1333 H1320 0.929 . S
C1333 C1325 1.433 . S
C1333 N1335 1.384 . S
N1334 C1330 1.427 . S
N1334 C1331 1.384 . S
N1335 C1327 1.427 . S
N1335 C1333 1.384 . S
H1336 C1342 0.930 . S
H1337 C1346 0.930 . S
H1338 C1351 0.929 . S
H1339 C1349 0.929 . S
H1340 C1344 0.929 . S
H1341 C1350 0.929 . S
C1342 H1336 0.930 . S
C1342 C1343 1.367 . S
C1342 C1350 1.378 . S
C1343 C1342 1.367 . S
C1343 C1351 1.433 . S
C1344 H1340 0.929 . S
C1344 C1346 1.378 . S
C1344 C1348 1.350 . S
C1345 C1348 1.463 . S
C1345 C1350 1.350 . S
C1345 N1353 1.427 . S
C1346 H1337 0.930 . S
C1346 C1344 1.378 . S
C1346 C1347 1.367 . S
C1347 C1346 1.367 . S
C1347 C1349 1.433 . S
C1348 C1344 1.350 . S
C1348 C1345 1.463 . S
C1348 N1352 1.427 . S
C1349 H1339 0.929 . S
C1349 C1347 1.433 . S
C1349 N1352 1.384 . S
C1350 H1341 0.929 . S
C1350 C1342 1.378 . S
C1350 C1345 1.350 . S
C1351 H1338 0.929 . S
C1351 C1343 1.433 . S
C1351 N1353 1.384 . S
N1352 C1348 1.427 . S
N1352 C1349 1.384 . S
N1353 C1345 1.427 . S
N1353 C1351 1.384 . S
H1354 C1360 0.930 . S
H1355 C1364 0.930 . S
H1356 C1369 0.929 . S
H1357 C1367 0.929 . S
H1358 C1362 0.929 . S
H1359 C1368 0.929 . S
C1360 H1354 0.930 . S
C1360 C1361 1.367 . S
C1360 C1368 1.378 . S
C1361 C1360 1.367 . S
C1361 C1369 1.433 . S
C1362 H1358 0.929 . S
C1362 C1364 1.378 . S
C1362 C1366 1.350 . S
C1363 C1366 1.463 . S
C1363 C1368 1.350 . S
C1363 N1371 1.427 . S
C1364 H1355 0.930 . S
C1364 C1362 1.378 . S
C1364 C1365 1.367 . S
C1365 C1364 1.367 . S
C1365 C1367 1.433 . S
C1366 C1362 1.350 . S
C1366 C1363 1.463 . S
C1366 N1370 1.427 . S
C1367 H1357 0.929 . S
C1367 C1365 1.433 . S
C1367 N1370 1.384 . S
C1368 H1359 0.929 . S
C1368 C1360 1.378 . S
C1368 C1363 1.350 . S
C1369 H1356 0.929 . S
C1369 C1361 1.433 . S
C1369 N1371 1.384 . S
N1370 C1366 1.427 . S
N1370 C1367 1.384 . S
N1371 C1363 1.427 . S
N1371 C1369 1.384 . S
H1372 C1378 0.930 . S
H1373 C1382 0.930 . S
H1374 C1387 0.929 . S
H1375 C1385 0.929 . S
H1376 C1380 0.929 . S
H1377 C1386 0.929 . S
C1378 H1372 0.930 . S
C1378 C1379 1.367 . S
C1378 C1386 1.378 . S
C1379 C1378 1.367 . S
C1379 C1387 1.433 . S
C1380 H1376 0.929 . S
C1380 C1382 1.378 . S
C1380 C1384 1.350 . S
C1381 C1384 1.463 . S
C1381 C1386 1.350 . S
C1381 N1389 1.427 . S
C1382 H1373 0.930 . S
C1382 C1380 1.378 . S
C1382 C1383 1.367 . S
C1383 C1382 1.367 . S
C1383 C1385 1.433 . S
C1384 C1380 1.350 . S
C1384 C1381 1.463 . S
C1384 N1388 1.427 . S
C1385 H1375 0.929 . S
C1385 C1383 1.433 . S
C1385 N1388 1.384 . S
C1386 H1377 0.929 . S
C1386 C1378 1.378 . S
C1386 C1381 1.350 . S
C1387 H1374 0.929 . S
C1387 C1379 1.433 . S
C1387 N1389 1.384 . S
N1388 C1384 1.427 . S
N1388 C1385 1.384 . S
N1389 C1381 1.427 . S
N1389 C1387 1.384 . S
H1390 C1396 0.930 . S
H1391 C1400 0.930 . S
H1392 C1405 0.929 . S
H1393 C1403 0.929 . S
H1394 C1398 0.929 . S
H1395 C1404 0.929 . S
C1396 H1390 0.930 . S
C1396 C1397 1.367 . S
C1396 C1404 1.378 . S
C1397 C1396 1.367 . S
C1397 C1405 1.433 . S
C1398 H1394 0.929 . S
C1398 C1400 1.378 . S
C1398 C1402 1.350 . S
C1399 C1402 1.463 . S
C1399 C1404 1.350 . S
C1399 N1407 1.427 . S
C1400 H1391 0.930 . S
C1400 C1398 1.378 . S
C1400 C1401 1.367 . S
C1401 C1400 1.367 . S
C1401 C1403 1.433 . S
C1402 C1398 1.350 . S
C1402 C1399 1.463 . S
C1402 N1406 1.427 . S
C1403 H1393 0.929 . S
C1403 C1401 1.433 . S
C1403 N1406 1.384 . S
C1404 H1395 0.929 . S
C1404 C1396 1.378 . S
C1404 C1399 1.350 . S
C1405 H1392 0.929 . S
C1405 C1397 1.433 . S
C1405 N1407 1.384 . S
N1406 C1402 1.427 . S
N1406 C1403 1.384 . S
N1407 C1399 1.427 . S
N1407 C1405 1.384 . S
H1408 C1414 0.930 . S
H1409 C1418 0.930 . S
H1410 C1423 0.929 . S
H1411 C1421 0.929 . S
H1412 C1416 0.929 . S
H1413 C1422 0.929 . S
C1414 H1408 0.930 . S
C1414 C1415 1.367 . S
C1414 C1422 1.378 . S
C1415 C1414 1.367 . S
C1415 C1423 1.433 . S
C1416 H1412 0.929 . S
C1416 C1418 1.378 . S
C1416 C1420 1.350 . S
C1417 C1420 1.463 . S
C1417 C1422 1.350 . S
C1417 N1425 1.427 . S
C1418 H1409 0.930 . S
C1418 C1416 1.378 . S
C1418 C1419 1.367 . S
C1419 C1418 1.367 . S
C1419 C1421 1.433 . S
C1420 C1416 1.350 . S
C1420 C1417 1.463 . S
C1420 N1424 1.427 . S
C1421 H1411 0.929 . S
C1421 C1419 1.433 . S
C1421 N1424 1.384 . S
C1422 H1413 0.929 . S
C1422 C1414 1.378 . S
C1422 C1417 1.350 . S
C1423 H1410 0.929 . S
C1423 C1415 1.433 . S
C1423 N1425 1.384 . S
N1424 C1420 1.427 . S
N1424 C1421 1.384 . S
N1425 C1417 1.427 . S
N1425 C1423 1.384 . S
H1426 C1432 0.930 . S
H1427 C1436 0.930 . S
H1428 C1441 0.929 . S
H1429 C1439 0.929 . S
H1430 C1434 0.929 . S
H1431 C1440 0.929 . S
C1432 H1426 0.930 . S
C1432 C1433 1.367 . S
C1432 C1440 1.378 . S
C1433 C1432 1.367 . S
C1433 C1441 1.433 . S
C1434 H1430 0.929 . S
C1434 C1436 1.378 . S
C1434 C1438 1.350 . S
C1435 C1438 1.463 . S
C1435 C1440 1.350 . S
C1435 N1443 1.427 . S
C1436 H1427 0.930 . S
C1436 C1434 1.378 . S
C1436 C1437 1.367 . S
C1437 C1436 1.367 . S
C1437 C1439 1.433 . S
C1438 C1434 1.350 . S
C1438 C1435 1.463 . S
C1438 N1442 1.427 . S
C1439 H1429 0.929 . S
C1439 C1437 1.433 . S
C1439 N1442 1.384 . S
C1440 H1431 0.929 . S
C1440 C1432 1.378 . S
C1440 C1435 1.350 . S
C1441 H1428 0.929 . S
C1441 C1433 1.433 . S
C1441 N1443 1.384 . S
N1442 C1438 1.427 . S
N1442 C1439 1.384 . S
N1443 C1435 1.427 . S
N1443 C1441 1.384 . S
H1444 C1450 0.930 . S
H1445 C1454 0.930 . S
H1446 C1459 0.929 . S
H1447 C1457 0.929 . S
H1448 C1452 0.929 . S
H1449 C1458 0.929 . S
C1450 H1444 0.930 . S
C1450 C1451 1.367 . S
C1450 C1458 1.378 . S
C1451 C1450 1.367 . S
C1451 C1459 1.433 . S
C1452 H1448 0.929 . S
C1452 C1454 1.378 . S
C1452 C1456 1.350 . S
C1453 C1456 1.463 . S
C1453 C1458 1.350 . S
C1453 N1461 1.427 . S
C1454 H1445 0.930 . S
C1454 C1452 1.378 . S
C1454 C1455 1.367 . S
C1455 C1454 1.367 . S
C1455 C1457 1.433 . S
C1456 C1452 1.350 . S
C1456 C1453 1.463 . S
C1456 N1460 1.427 . S
C1457 H1447 0.929 . S
C1457 C1455 1.433 . S
C1457 N1460 1.384 . S
C1458 H1449 0.929 . S
C1458 C1450 1.378 . S
C1458 C1453 1.350 . S
C1459 H1446 0.929 . S
C1459 C1451 1.433 . S
C1459 N1461 1.384 . S
N1460 C1456 1.427 . S
N1460 C1457 1.384 . S
N1461 C1453 1.427 . S
N1461 C1459 1.384 . S
H1462 C1468 0.930 . S
H1463 C1472 0.930 . S
H1464 C1477 0.929 . S
H1465 C1475 0.929 . S
H1466 C1470 0.929 . S
H1467 C1476 0.929 . S
C1468 H1462 0.930 . S
C1468 C1469 1.367 . S
C1468 C1476 1.378 . S
C1469 C1468 1.367 . S
C1469 C1477 1.433 . S
C1470 H1466 0.929 . S
C1470 C1472 1.378 . S
C1470 C1474 1.350 . S
C1471 C1474 1.463 . S
C1471 C1476 1.350 . S
C1471 N1479 1.427 . S
C1472 H1463 0.930 . S
C1472 C1470 1.378 . S
C1472 C1473 1.367 . S
C1473 C1472 1.367 . S
C1473 C1475 1.433 . S
C1474 C1470 1.350 . S
C1474 C1471 1.463 . S
C1474 N1478 1.427 . S
C1475 H1465 0.929 . S
C1475 C1473 1.433 . S
C1475 N1478 1.384 . S
C1476 H1467 0.929 . S
C1476 C1468 1.378 . S
C1476 C1471 1.350 . S
C1477 H1464 0.929 . S
C1477 C1469 1.433 . S
C1477 N1479 1.384 . S
N1478 C1474 1.427 . S
N1478 C1475 1.384 . S
N1479 C1471 1.427 . S
N1479 C1477 1.384 . S
H1480 C1486 0.930 . S
H1481 C1490 0.930 . S
H1482 C1495 0.929 . S
H1483 C1493 0.929 . S
H1484 C1488 0.929 . S
H1485 C1494 0.929 . S
C1486 H1480 0.930 . S
C1486 C1487 1.367 . S
C1486 C1494 1.378 . S
C1487 C1486 1.367 . S
C1487 C1495 1.433 1_655 S
C1488 H1484 0.929 . S
C1488 C1490 1.378 . S
C1488 C1492 1.373 . S
C1489 C1492 1.457 1_655 S
C1489 C1494 1.350 . S
C1489 N1497 1.427 1_655 S
C1490 H1481 0.930 . S
C1490 C1488 1.378 . S
C1490 C1491 1.396 . S
C1491 C1490 1.396 . S
C1491 C1493 1.398 1_455 S
C1492 C1488 1.373 . S
C1492 C1489 1.457 1_455 S
C1492 N1496 1.408 1_455 S
C1493 H1483 0.929 . S
C1493 C1491 1.398 1_655 S
C1493 N1496 1.384 . S
C1494 H1485 0.929 . S
C1494 C1486 1.378 . S
C1494 C1489 1.350 . S
C1495 H1482 0.929 . S
C1495 C1487 1.433 1_455 S
C1495 N1497 1.384 . S
N1496 C1492 1.408 1_655 S
N1496 C1493 1.384 . S
N1497 C1489 1.427 1_455 S
N1497 C1495 1.384 . S
H1498 C1504 0.930 . S
H1499 C1508 0.930 . S
H1500 C1513 0.929 . S
H1501 C1511 0.929 . S
H1502 C1506 0.929 . S
H1503 C1512 0.929 . S
C1504 H1498 0.930 . S
C1504 C1505 1.367 . S
C1504 C1512 1.378 . S
C1505 C1504 1.367 . S
C1505 C1513 1.433 . S
C1506 H1502 0.929 . S
C1506 C1508 1.378 . S
C1506 C1510 1.350 . S
C1507 C1510 1.463 . S
C1507 C1512 1.350 . S
C1507 N1515 1.427 . S
C1508 H1499 0.930 . S
C1508 C1506 1.378 . S
C1508 C1509 1.367 . S
C1509 C1508 1.367 . S
C1509 C1511 1.433 . S
C1510 C1506 1.350 . S
C1510 C1507 1.463 . S
C1510 N1514 1.427 . S
C1511 H1501 0.929 . S
C1511 C1509 1.433 . S
C1511 N1514 1.384 . S
C1512 H1503 0.929 . S
C1512 C1504 1.378 . S
C1512 C1507 1.350 . S
C1513 H1500 0.929 . S
C1513 C1505 1.433 . S
C1513 N1515 1.384 . S
N1514 C1510 1.427 . S
N1514 C1511 1.384 . S
N1515 C1507 1.427 . S
N1515 C1513 1.384 . S
H1516 C1522 0.930 . S
H1517 C1526 0.930 . S
H1518 C1531 0.929 . S
H1519 C1529 0.929 . S
H1520 C1524 0.929 . S
H1521 C1530 0.929 . S
C1522 H1516 0.930 . S
C1522 C1523 1.367 . S
C1522 C1530 1.378 . S
C1523 C1522 1.367 . S
C1523 C1531 1.433 . S
C1524 H1520 0.929 . S
C1524 C1526 1.378 . S
C1524 C1528 1.350 . S
C1525 C1528 1.463 . S
C1525 C1530 1.350 . S
C1525 N1533 1.427 . S
C1526 H1517 0.930 . S
C1526 C1524 1.378 . S
C1526 C1527 1.367 1_556 S
C1527 C1526 1.367 1_554 S
C1527 C1529 1.433 . S
C1528 C1524 1.350 . S
C1528 C1525 1.463 . S
C1528 N1532 1.427 1_556 S
C1529 H1519 0.929 . S
C1529 C1527 1.433 . S
C1529 N1532 1.384 . S
C1530 H1521 0.929 . S
C1530 C1522 1.378 . S
C1530 C1525 1.350 . S
C1531 H1518 0.929 . S
C1531 C1523 1.433 . S
C1531 N1533 1.384 . S
N1532 C1528 1.427 1_554 S
N1532 C1529 1.384 . S
N1533 C1525 1.427 . S
N1533 C1531 1.384 . S
H1534 C1540 0.930 . S
H1535 C1544 0.930 . S
H1536 C1549 0.929 . S
H1537 C1547 0.929 . S
H1538 C1542 0.929 . S
H1539 C1548 0.929 . S
C1540 H1534 0.930 . S
C1540 C1541 1.367 1_655 S
C1540 C1548 1.378 . S
C1541 C1540 1.367 1_455 S
C1541 C1549 1.433 . S
C1542 H1538 0.929 . S
C1542 C1544 1.378 . S
C1542 C1546 1.350 . S
C1543 C1546 1.463 . S
C1543 C1548 1.350 . S
C1543 N1551 1.427 . S
C1544 H1535 0.930 . S
C1544 C1542 1.378 . S
C1544 C1545 1.367 . S
C1545 C1544 1.367 . S
C1545 C1547 1.433 . S
C1546 C1542 1.350 . S
C1546 C1543 1.463 . S
C1546 N1550 1.427 . S
C1547 H1537 0.929 . S
C1547 C1545 1.433 . S
C1547 N1550 1.384 . S
C1548 H1539 0.929 . S
C1548 C1540 1.378 . S
C1548 C1543 1.350 . S
C1549 H1536 0.929 . S
C1549 C1541 1.433 . S
C1549 N1551 1.384 1_455 S
N1550 C1546 1.427 . S
N1550 C1547 1.384 . S
N1551 C1543 1.427 . S
N1551 C1549 1.384 1_655 S
H1552 C1558 0.930 . S
H1553 C1562 0.930 . S
H1554 C1567 0.929 . S
H1555 C1565 0.929 . S
H1556 C1560 0.929 . S
H1557 C1566 0.929 . S
C1558 H1552 0.930 . S
C1558 C1559 1.367 . S
C1558 C1566 1.378 . S
C1559 C1558 1.367 . S
C1559 C1567 1.433 . S
C1560 H1556 0.929 . S
C1560 C1562 1.378 . S
C1560 C1564 1.350 . S
C1561 C1564 1.463 . S
C1561 C1566 1.350 . S
C1561 N1569 1.427 . S
C1562 H1553 0.930 . S
C1562 C1560 1.378 . S
C1562 C1563 1.367 . S
C1563 C1562 1.367 . S
C1563 C1565 1.433 . S
C1564 C1560 1.350 . S
C1564 C1561 1.463 . S
C1564 N1568 1.427 . S
C1565 H1555 0.929 . S
C1565 C1563 1.433 . S
C1565 N1568 1.384 . S
C1566 H1557 0.929 . S
C1566 C1558 1.378 . S
C1566 C1561 1.350 . S
C1567 H1554 0.929 . S
C1567 C1559 1.433 . S
C1567 N1569 1.384 . S
N1568 C1564 1.427 . S
N1568 C1565 1.384 . S
N1569 C1561 1.427 . S
N1569 C1567 1.384 . S
H1570 C1576 0.930 . S
H1571 C1580 0.930 . S
H1572 C1585 0.929 . S
H1573 C1583 0.929 . S
H1574 C1578 0.929 . S
H1575 C1584 0.929 . S
C1576 H1570 0.930 . S
C1576 C1577 1.367 . S
C1576 C1584 1.378 . S
C1577 C1576 1.367 . S
C1577 C1585 1.433 . S
C1578 H1574 0.929 . S
C1578 C1580 1.378 . S
C1578 C1582 1.350 . S
C1579 C1582 1.463 . S
C1579 C1584 1.350 . S
C1579 N1587 1.427 . S
C1580 H1571 0.930 . S
C1580 C1578 1.378 . S
C1580 C1581 1.367 . S
C1581 C1580 1.367 . S
C1581 C1583 1.433 . S
C1582 C1578 1.350 . S
C1582 C1579 1.463 . S
C1582 N1586 1.427 . S
C1583 H1573 0.929 . S
C1583 C1581 1.433 . S
C1583 N1586 1.384 . S
C1584 H1575 0.929 . S
C1584 C1576 1.378 . S
C1584 C1579 1.350 . S
C1585 H1572 0.929 . S
C1585 C1577 1.433 . S
C1585 N1587 1.384 . S
N1586 C1582 1.427 . S
N1586 C1583 1.384 . S
N1587 C1579 1.427 . S
N1587 C1585 1.384 . S
H1588 C1594 0.930 1_565 S
H1589 C1598 0.930 . S
H1590 C1603 0.929 . S
H1591 C1601 0.929 . S
H1592 C1596 0.929 . S
H1593 C1602 0.929 1_565 S
C1594 H1588 0.930 1_545 S
C1594 C1595 1.367 . S
C1594 C1602 1.378 . S
C1595 C1594 1.367 . S
C1595 C1603 1.433 . S
C1596 H1592 0.929 . S
C1596 C1598 1.378 . S
C1596 C1600 1.350 . S
C1597 C1600 1.463 . S
C1597 C1602 1.350 . S
C1597 N1605 1.427 . S
C1598 H1589 0.930 . S
C1598 C1596 1.378 . S
C1598 C1599 1.367 . S
C1599 C1598 1.367 . S
C1599 C1601 1.433 1_545 S
C1600 C1596 1.350 . S
C1600 C1597 1.463 . S
C1600 N1604 1.427 1_545 S
C1601 H1591 0.929 . S
C1601 C1599 1.433 1_565 S
C1601 N1604 1.384 . S
C1602 H1593 0.929 1_545 S
C1602 C1594 1.378 . S
C1602 C1597 1.350 . S
C1603 H1590 0.929 . S
C1603 C1595 1.433 . S
C1603 N1605 1.384 . S
N1604 C1600 1.427 1_565 S
N1604 C1601 1.384 . S
N1605 C1597 1.427 . S
N1605 C1603 1.384 . S
H1606 C1612 0.930 . S
H1607 C1616 0.930 . S
H1608 C1621 0.929 . S
H1609 C1619 0.929 . S
H1610 C1614 0.929 . S
H1611 C1620 0.929 . S
C1612 H1606 0.930 . S
C1612 C1613 1.367 . S
C1612 C1620 1.378 . S
C1613 C1612 1.367 . S
C1613 C1621 1.433 . S
C1614 H1610 0.929 . S
C1614 C1616 1.378 . S
C1614 C1618 1.350 . S
C1615 C1618 1.463 . S
C1615 C1620 1.350 . S
C1615 N1623 1.427 . S
C1616 H1607 0.930 . S
C1616 C1614 1.378 . S
C1616 C1617 1.367 . S
C1617 C1616 1.367 . S
C1617 C1619 1.433 . S
C1618 C1614 1.350 . S
C1618 C1615 1.463 . S
C1618 N1622 1.427 . S
C1619 H1609 0.929 . S
C1619 C1617 1.433 . S
C1619 N1622 1.384 . S
C1620 H1611 0.929 . S
C1620 C1612 1.378 . S
C1620 C1615 1.350 . S
C1621 H1608 0.929 . S
C1621 C1613 1.433 . S
C1621 N1623 1.384 . S
N1622 C1618 1.427 . S
N1622 C1619 1.384 . S
N1623 C1615 1.427 . S
N1623 C1621 1.384 . S
H1624 C1630 0.930 . S
H1625 C1634 0.930 1_565 S
H1626 C1639 0.929 1_565 S
H1627 C1637 0.929 . S
H1628 C1632 0.929 1_565 S
H1629 C1638 0.929 . S
C1630 H1624 0.930 . S
C1630 C1631 1.367 . S
C1630 C1638 1.378 . S
C1631 C1630 1.367 . S
C1631 C1639 1.433 . S
C1632 H1628 0.929 1_545 S
C1632 C1634 1.378 . S
C1632 C1636 1.350 . S
C1633 C1636 1.463 . S
C1633 C1638 1.350 . S
C1633 N1641 1.427 . S
C1634 H1625 0.930 1_545 S
C1634 C1632 1.378 . S
C1634 C1635 1.367 . S
C1635 C1634 1.367 . S
C1635 C1637 1.433 . S
C1636 C1632 1.350 . S
C1636 C1633 1.463 . S
C1636 N1640 1.427 . S
C1637 H1627 0.929 . S
C1637 C1635 1.433 . S
C1637 N1640 1.384 . S
C1638 H1629 0.929 . S
C1638 C1630 1.378 . S
C1638 C1633 1.350 . S
C1639 H1626 0.929 1_545 S
C1639 C1631 1.433 . S
C1639 N1641 1.384 . S
N1640 C1636 1.427 . S
N1640 C1637 1.384 . S
N1641 C1633 1.427 . S
N1641 C1639 1.384 . S
H1642 C1648 0.930 . S
H1643 C1652 0.930 . S
H1644 C1657 0.929 . S
H1645 C1655 0.929 . S
H1646 C1650 0.929 . S
H1647 C1656 0.929 . S
C1648 H1642 0.930 . S
C1648 C1649 1.367 . S
C1648 C1656 1.378 . S
C1649 C1648 1.367 . S
C1649 C1657 1.433 . S
C1650 H1646 0.929 . S
C1650 C1652 1.378 . S
C1650 C1654 1.350 . S
C1651 C1654 1.463 . S
C1651 C1656 1.350 . S
C1651 N1659 1.427 . S
C1652 H1643 0.930 . S
C1652 C1650 1.378 . S
C1652 C1653 1.367 . S
C1653 C1652 1.367 . S
C1653 C1655 1.433 . S
C1654 C1650 1.350 . S
C1654 C1651 1.463 . S
C1654 N1658 1.427 . S
C1655 H1645 0.929 . S
C1655 C1653 1.433 . S
C1655 N1658 1.384 . S
C1656 H1647 0.929 . S
C1656 C1648 1.378 . S
C1656 C1651 1.350 . S
C1657 H1644 0.929 . S
C1657 C1649 1.433 . S
C1657 N1659 1.384 . S
N1658 C1654 1.427 . S
N1658 C1655 1.384 . S
N1659 C1651 1.427 . S
N1659 C1657 1.384 . S
H1660 C1666 0.930 . S
H1661 C1670 0.930 . S
H1662 C1675 0.929 . S
H1663 C1673 0.929 . S
H1664 C1668 0.929 . S
H1665 C1674 0.929 . S
C1666 H1660 0.930 . S
C1666 C1667 1.367 . S
C1666 C1674 1.378 . S
C1667 C1666 1.367 . S
C1667 C1675 1.433 . S
C1668 H1664 0.929 . S
C1668 C1670 1.378 . S
C1668 C1672 1.350 . S
C1669 C1672 1.463 . S
C1669 C1674 1.350 . S
C1669 N1677 1.427 . S
C1670 H1661 0.930 . S
C1670 C1668 1.378 . S
C1670 C1671 1.367 . S
C1671 C1670 1.367 . S
C1671 C1673 1.433 . S
C1672 C1668 1.350 . S
C1672 C1669 1.463 . S
C1672 N1676 1.427 . S
C1673 H1663 0.929 . S
C1673 C1671 1.433 . S
C1673 N1676 1.384 . S
C1674 H1665 0.929 . S
C1674 C1666 1.378 . S
C1674 C1669 1.350 . S
C1675 H1662 0.929 . S
C1675 C1667 1.433 . S
C1675 N1677 1.384 . S
N1676 C1672 1.427 . S
N1676 C1673 1.384 . S
N1677 C1669 1.427 . S
N1677 C1675 1.384 . S
H1678 C1684 0.930 . S
H1679 C1688 0.930 . S
H1680 C1693 0.929 . S
H1681 C1691 0.929 . S
H1682 C1686 0.929 . S
H1683 C1692 0.929 . S
C1684 H1678 0.930 . S
C1684 C1685 1.367 . S
C1684 C1692 1.378 . S
C1685 C1684 1.367 . S
C1685 C1693 1.433 . S
C1686 H1682 0.929 . S
C1686 C1688 1.378 . S
C1686 C1690 1.350 . S
C1687 C1690 1.463 . S
C1687 C1692 1.350 . S
C1687 N1695 1.427 . S
C1688 H1679 0.930 . S
C1688 C1686 1.378 . S
C1688 C1689 1.367 . S
C1689 C1688 1.367 . S
C1689 C1691 1.433 . S
C1690 C1686 1.350 . S
C1690 C1687 1.463 . S
C1690 N1694 1.427 . S
C1691 H1681 0.929 . S
C1691 C1689 1.433 . S
C1691 N1694 1.384 . S
C1692 H1683 0.929 . S
C1692 C1684 1.378 . S
C1692 C1687 1.350 . S
C1693 H1680 0.929 . S
C1693 C1685 1.433 . S
C1693 N1695 1.384 . S
N1694 C1690 1.427 . S
N1694 C1691 1.384 . S
N1695 C1687 1.427 . S
N1695 C1693 1.384 . S
H1696 C1702 0.930 . S
H1697 C1706 0.930 . S
H1698 C1711 0.929 . S
H1699 C1709 0.929 . S
H1700 C1704 0.929 . S
H1701 C1710 0.929 . S
C1702 H1696 0.930 . S
C1702 C1703 1.367 . S
C1702 C1710 1.378 . S
C1703 C1702 1.367 . S
C1703 C1711 1.433 . S
C1704 H1700 0.929 . S
C1704 C1706 1.378 . S
C1704 C1708 1.350 . S
C1705 C1708 1.463 . S
C1705 C1710 1.350 . S
C1705 N1713 1.427 . S
C1706 H1697 0.930 . S
C1706 C1704 1.378 . S
C1706 C1707 1.367 . S
C1707 C1706 1.367 . S
C1707 C1709 1.433 . S
C1708 C1704 1.350 . S
C1708 C1705 1.463 . S
C1708 N1712 1.427 . S
C1709 H1699 0.929 . S
C1709 C1707 1.433 . S
C1709 N1712 1.384 . S
C1710 H1701 0.929 . S
C1710 C1702 1.378 . S
C1710 C1705 1.350 . S
C1711 H1698 0.929 . S
C1711 C1703 1.433 . S
C1711 N1713 1.384 . S
N1712 C1708 1.427 . S
N1712 C1709 1.384 . S
N1713 C1705 1.427 . S
N1713 C1711 1.384 . S
H1714 C1720 0.930 . S
H1715 C1724 0.930 . S
H1716 C1729 0.929 . S
H1717 C1727 0.929 . S
H1718 C1722 0.929 . S
H1719 C1728 0.929 . S
C1720 H1714 0.930 . S
C1720 C1721 1.367 . S
C1720 C1728 1.378 . S
C1721 C1720 1.367 . S
C1721 C1729 1.433 . S
C1722 H1718 0.929 . S
C1722 C1724 1.378 . S
C1722 C1726 1.350 . S
C1723 C1726 1.463 . S
C1723 C1728 1.350 . S
C1723 N1731 1.427 . S
C1724 H1715 0.930 . S
C1724 C1722 1.378 . S
C1724 C1725 1.367 . S
C1725 C1724 1.367 . S
C1725 C1727 1.433 . S
C1726 C1722 1.350 . S
C1726 C1723 1.463 . S
C1726 N1730 1.427 . S
C1727 H1717 0.929 . S
C1727 C1725 1.433 . S
C1727 N1730 1.384 . S
C1728 H1719 0.929 . S
C1728 C1720 1.378 . S
C1728 C1723 1.350 . S
C1729 H1716 0.929 . S
C1729 C1721 1.433 . S
C1729 N1731 1.384 . S
N1730 C1726 1.427 . S
N1730 C1727 1.384 . S
N1731 C1723 1.427 . S
N1731 C1729 1.384 . S
H1732 C1738 0.930 . S
H1733 C1742 0.930 . S
H1734 C1747 0.929 . S
H1735 C1745 0.929 . S
H1736 C1740 0.929 . S
H1737 C1746 0.929 . S
C1738 H1732 0.930 . S
C1738 C1739 1.367 . S
C1738 C1746 1.378 . S
C1739 C1738 1.367 . S
C1739 C1747 1.433 . S
C1740 H1736 0.929 . S
C1740 C1742 1.378 . S
C1740 C1744 1.350 . S
C1741 C1744 1.463 . S
C1741 C1746 1.350 . S
C1741 N1749 1.427 . S
C1742 H1733 0.930 . S
C1742 C1740 1.378 . S
C1742 C1743 1.367 . S
C1743 C1742 1.367 . S
C1743 C1745 1.433 . S
C1744 C1740 1.350 . S
C1744 C1741 1.463 . S
C1744 N1748 1.427 . S
C1745 H1735 0.929 . S
C1745 C1743 1.433 . S
C1745 N1748 1.384 . S
C1746 H1737 0.929 . S
C1746 C1738 1.378 . S
C1746 C1741 1.350 . S
C1747 H1734 0.929 . S
C1747 C1739 1.433 . S
C1747 N1749 1.384 . S
N1748 C1744 1.427 . S
N1748 C1745 1.384 . S
N1749 C1741 1.427 . S
N1749 C1747 1.384 . S
H1750 C1756 0.930 . S
H1751 C1760 0.930 . S
H1752 C1765 0.929 . S
H1753 C1763 0.929 . S
H1754 C1758 0.929 . S
H1755 C1764 0.929 . S
C1756 H1750 0.930 . S
C1756 C1757 1.367 . S
C1756 C1764 1.378 . S
C1757 C1756 1.367 . S
C1757 C1765 1.433 . S
C1758 H1754 0.929 . S
C1758 C1760 1.378 . S
C1758 C1762 1.350 . S
C1759 C1762 1.463 . S
C1759 C1764 1.350 . S
C1759 N1767 1.427 . S
C1760 H1751 0.930 . S
C1760 C1758 1.378 . S
C1760 C1761 1.367 . S
C1761 C1760 1.367 . S
C1761 C1763 1.433 . S
C1762 C1758 1.350 . S
C1762 C1759 1.463 . S
C1762 N1766 1.427 . S
C1763 H1753 0.929 . S
C1763 C1761 1.433 . S
C1763 N1766 1.384 . S
C1764 H1755 0.929 . S
C1764 C1756 1.378 . S
C1764 C1759 1.350 . S
C1765 H1752 0.929 . S
C1765 C1757 1.433 . S
C1765 N1767 1.384 . S
N1766 C1762 1.427 . S
N1766 C1763 1.384 . S
N1767 C1759 1.427 . S
N1767 C1765 1.384 . S
H1768 C1774 0.930 . S
H1769 C1778 0.930 . S
H1770 C1783 0.929 . S
H1771 C1781 0.929 . S
H1772 C1776 0.929 . S
H1773 C1782 0.929 . S
C1774 H1768 0.930 . S
C1774 C1775 1.367 . S
C1774 C1782 1.378 . S
C1775 C1774 1.367 . S
C1775 C1783 1.433 . S
C1776 H1772 0.929 . S
C1776 C1778 1.378 . S
C1776 C1780 1.350 . S
C1777 C1780 1.463 . S
C1777 C1782 1.350 . S
C1777 N1785 1.427 . S
C1778 H1769 0.930 . S
C1778 C1776 1.378 . S
C1778 C1779 1.367 . S
C1779 C1778 1.367 . S
C1779 C1781 1.433 . S
C1780 C1776 1.350 . S
C1780 C1777 1.463 . S
C1780 N1784 1.427 . S
C1781 H1771 0.929 . S
C1781 C1779 1.433 . S
C1781 N1784 1.384 . S
C1782 H1773 0.929 . S
C1782 C1774 1.378 . S
C1782 C1777 1.350 . S
C1783 H1770 0.929 . S
C1783 C1775 1.433 . S
C1783 N1785 1.384 . S
N1784 C1780 1.427 . S
N1784 C1781 1.384 . S
N1785 C1777 1.427 . S
N1785 C1783 1.384 . S
H1786 C1792 0.930 . S
H1787 C1796 0.930 . S
H1788 C1801 0.929 . S
H1789 C1799 0.929 . S
H1790 C1794 0.929 . S
H1791 C1800 0.929 . S
C1792 H1786 0.930 . S
C1792 C1793 1.367 . S
C1792 C1800 1.378 . S
C1793 C1792 1.367 . S
C1793 C1801 1.433 . S
C1794 H1790 0.929 . S
C1794 C1796 1.378 . S
C1794 C1798 1.350 . S
C1795 C1798 1.463 . S
C1795 C1800 1.350 . S
C1795 N1803 1.427 . S
C1796 H1787 0.930 . S
C1796 C1794 1.378 . S
C1796 C1797 1.367 . S
C1797 C1796 1.367 . S
C1797 C1799 1.433 . S
C1798 C1794 1.350 . S
C1798 C1795 1.463 . S
C1798 N1802 1.427 . S
C1799 H1789 0.929 . S
C1799 C1797 1.433 . S
C1799 N1802 1.384 . S
C1800 H1791 0.929 . S
C1800 C1792 1.378 . S
C1800 C1795 1.350 . S
C1801 H1788 0.929 . S
C1801 C1793 1.433 . S
C1801 N1803 1.384 . S
N1802 C1798 1.427 . S
N1802 C1799 1.384 . S
N1803 C1795 1.427 . S
N1803 C1801 1.384 . S
H1804 C1810 0.930 . S
H1805 C1814 0.930 . S
H1806 C1819 0.929 . S
H1807 C1817 0.929 . S
H1808 C1812 0.929 . S
H1809 C1818 0.929 . S
C1810 H1804 0.930 . S
C1810 C1811 1.367 . S
C1810 C1818 1.378 . S
C1811 C1810 1.367 . S
C1811 C1819 1.433 . S
C1812 H1808 0.929 . S
C1812 C1814 1.378 . S
C1812 C1816 1.350 . S
C1813 C1816 1.463 . S
C1813 C1818 1.350 . S
C1813 N1821 1.427 . S
C1814 H1805 0.930 . S
C1814 C1812 1.378 . S
C1814 C1815 1.367 . S
C1815 C1814 1.367 . S
C1815 C1817 1.433 . S
C1816 C1812 1.350 . S
C1816 C1813 1.463 . S
C1816 N1820 1.427 . S
C1817 H1807 0.929 . S
C1817 C1815 1.433 . S
C1817 N1820 1.384 . S
C1818 H1809 0.929 . S
C1818 C1810 1.378 . S
C1818 C1813 1.350 . S
C1819 H1806 0.929 . S
C1819 C1811 1.433 . S
C1819 N1821 1.384 . S
N1820 C1816 1.427 . S
N1820 C1817 1.384 . S
N1821 C1813 1.427 . S
N1821 C1819 1.384 . S
H1822 C1828 0.930 . S
H1823 C1832 0.930 . S
H1824 C1837 0.929 . S
H1825 C1835 0.929 . S
H1826 C1830 0.929 . S
H1827 C1836 0.929 . S
C1828 H1822 0.930 . S
C1828 C1829 1.367 . S
C1828 C1836 1.378 . S
C1829 C1828 1.367 . S
C1829 C1837 1.433 . S
C1830 H1826 0.929 . S
C1830 C1832 1.378 . S
C1830 C1834 1.350 . S
C1831 C1834 1.463 . S
C1831 C1836 1.350 . S
C1831 N1839 1.427 . S
C1832 H1823 0.930 . S
C1832 C1830 1.378 . S
C1832 C1833 1.367 . S
C1833 C1832 1.367 . S
C1833 C1835 1.433 . S
C1834 C1830 1.350 . S
C1834 C1831 1.463 . S
C1834 N1838 1.427 . S
C1835 H1825 0.929 . S
C1835 C1833 1.433 . S
C1835 N1838 1.384 . S
C1836 H1827 0.929 . S
C1836 C1828 1.378 . S
C1836 C1831 1.350 . S
C1837 H1824 0.929 . S
C1837 C1829 1.433 . S
C1837 N1839 1.384 . S
N1838 C1834 1.427 . S
N1838 C1835 1.384 . S
N1839 C1831 1.427 . S
N1839 C1837 1.384 . S
H1840 C1846 0.930 . S
H1841 C1850 0.930 . S
H1842 C1855 0.929 . S
H1843 C1853 0.929 . S
H1844 C1848 0.929 . S
H1845 C1854 0.929 . S
C1846 H1840 0.930 . S
C1846 C1847 1.367 . S
C1846 C1854 1.378 . S
C1847 C1846 1.367 . S
C1847 C1855 1.433 . S
C1848 H1844 0.929 . S
C1848 C1850 1.378 . S
C1848 C1852 1.350 . S
C1849 C1852 1.463 . S
C1849 C1854 1.350 . S
C1849 N1857 1.427 . S
C1850 H1841 0.930 . S
C1850 C1848 1.378 . S
C1850 C1851 1.367 . S
C1851 C1850 1.367 . S
C1851 C1853 1.433 . S
C1852 C1848 1.350 . S
C1852 C1849 1.463 . S
C1852 N1856 1.427 . S
C1853 H1843 0.929 . S
C1853 C1851 1.433 . S
C1853 N1856 1.384 . S
C1854 H1845 0.929 . S
C1854 C1846 1.378 . S
C1854 C1849 1.350 . S
C1855 H1842 0.929 . S
C1855 C1847 1.433 . S
C1855 N1857 1.384 . S
N1856 C1852 1.427 . S
N1856 C1853 1.384 . S
N1857 C1849 1.427 . S
N1857 C1855 1.384 . S
H1858 C1864 0.930 . S
H1859 C1868 0.930 . S
H1860 C1873 0.929 . S
H1861 C1871 0.929 . S
H1862 C1866 0.929 . S
H1863 C1872 0.929 . S
C1864 H1858 0.930 . S
C1864 C1865 1.367 . S
C1864 C1872 1.378 . S
C1865 C1864 1.367 . S
C1865 C1873 1.433 . S
C1866 H1862 0.929 . S
C1866 C1868 1.378 . S
C1866 C1870 1.350 . S
C1867 C1870 1.463 . S
C1867 C1872 1.350 . S
C1867 N1875 1.427 . S
C1868 H1859 0.930 . S
C1868 C1866 1.378 . S
C1868 C1869 1.367 . S
C1869 C1868 1.367 . S
C1869 C1871 1.433 . S
C1870 C1866 1.350 . S
C1870 C1867 1.463 . S
C1870 N1874 1.427 . S
C1871 H1861 0.929 . S
C1871 C1869 1.433 . S
C1871 N1874 1.384 . S
C1872 H1863 0.929 . S
C1872 C1864 1.378 . S
C1872 C1867 1.350 . S
C1873 H1860 0.929 . S
C1873 C1865 1.433 . S
C1873 N1875 1.384 . S
N1874 C1870 1.427 . S
N1874 C1871 1.384 . S
N1875 C1867 1.427 . S
N1875 C1873 1.384 . S
H1876 C1882 0.930 . S
H1877 C1886 0.930 1_556 S
H1878 C1891 0.929 1_655 S
H1879 C1889 0.929 . S
H1880 C1884 0.922 1_655 S
H1881 C1890 0.929 . S
C1882 H1876 0.930 . S
C1882 C1883 1.367 1_554 S
C1882 C1890 1.378 . S
C1883 C1882 1.367 1_556 S
C1883 C1891 1.433 . S
C1884 H1880 0.922 1_455 S
C1884 C1886 1.378 1_556 S
C1884 C1888 1.350 1_556 S
C1885 C1888 1.468 . S
C1885 C1890 1.372 . S
C1885 N1893 1.399 1_554 S
C1886 H1877 0.930 1_554 S
C1886 C1884 1.378 1_554 S
C1886 C1887 1.367 . S
C1887 C1886 1.367 . S
C1887 C1889 1.433 . S
C1888 C1884 1.350 1_554 S
C1888 C1885 1.468 . S
C1888 N1892 1.427 . S
C1889 H1879 0.929 . S
C1889 C1887 1.433 . S
C1889 N1892 1.384 . S
C1890 H1881 0.929 . S
C1890 C1882 1.378 . S
C1890 C1885 1.372 . S
C1891 H1878 0.929 1_455 S
C1891 C1883 1.433 . S
C1891 N1893 1.384 . S
N1892 C1888 1.427 . S
N1892 C1889 1.384 . S
N1893 C1885 1.399 1_556 S
N1893 C1891 1.384 . S
H1894 C1900 0.930 . S
H1895 C1904 0.930 . S
H1896 C1909 0.929 1_455 S
H1897 C1907 0.929 . S
H1898 C1902 0.929 . S
H1899 C1908 0.929 . S
C1900 H1894 0.930 . S
C1900 C1901 1.353 1_655 S
C1900 C1908 1.378 . S
C1901 C1900 1.353 1_455 S
C1901 C1909 1.434 1_455 S
C1902 H1898 0.929 . S
C1902 C1904 1.378 . S
C1902 C1906 1.350 . S
C1903 C1906 1.463 . S
C1903 C1908 1.350 . S
C1903 N1911 1.427 . S
C1904 H1895 0.930 . S
C1904 C1902 1.378 . S
C1904 C1905 1.367 . S
C1905 C1904 1.367 . S
C1905 C1907 1.433 . S
C1906 C1902 1.350 . S
C1906 C1903 1.463 . S
C1906 N1910 1.427 . S
C1907 H1897 0.929 . S
C1907 C1905 1.433 . S
C1907 N1910 1.384 . S
C1908 H1899 0.929 . S
C1908 C1900 1.378 . S
C1908 C1903 1.350 . S
C1909 H1896 0.929 1_655 S
C1909 C1901 1.434 1_655 S
C1909 N1911 1.384 . S
N1910 C1906 1.427 . S
N1910 C1907 1.384 . S
N1911 C1903 1.427 . S
N1911 C1909 1.384 . S
H1912 C1918 0.930 . S
H1913 C1922 0.930 . S
H1914 C1927 0.929 . S
H1915 C1925 0.929 . S
H1916 C1920 0.929 . S
H1917 C1926 0.929 . S
C1918 H1912 0.930 . S
C1918 C1919 1.367 . S
C1918 C1926 1.378 . S
C1919 C1918 1.367 . S
C1919 C1927 1.433 . S
C1920 H1916 0.929 . S
C1920 C1922 1.378 . S
C1920 C1924 1.350 . S
C1921 C1924 1.463 . S
C1921 C1926 1.350 . S
C1921 N1929 1.427 . S
C1922 H1913 0.930 . S
C1922 C1920 1.378 . S
C1922 C1923 1.367 . S
C1923 C1922 1.367 . S
C1923 C1925 1.433 . S
C1924 C1920 1.350 . S
C1924 C1921 1.463 . S
C1924 N1928 1.427 . S
C1925 H1915 0.929 . S
C1925 C1923 1.433 . S
C1925 N1928 1.384 . S
C1926 H1917 0.929 . S
C1926 C1918 1.378 . S
C1926 C1921 1.350 . S
C1927 H1914 0.929 . S
C1927 C1919 1.433 . S
C1927 N1929 1.384 . S
N1928 C1924 1.427 . S
N1928 C1925 1.384 . S
N1929 C1921 1.427 . S
N1929 C1927 1.384 . S
H1930 C1936 0.930 . S
H1931 C1940 0.930 . S
H1932 C1945 0.929 . S
H1933 C1943 0.929 . S
H1934 C1938 0.929 . S
H1935 C1944 0.929 . S
C1936 H1930 0.930 . S
C1936 C1937 1.367 . S
C1936 C1944 1.378 . S
C1937 C1936 1.367 . S
C1937 C1945 1.433 . S
C1938 H1934 0.929 . S
C1938 C1940 1.378 . S
C1938 C1942 1.350 . S
C1939 C1942 1.463 . S
C1939 C1944 1.350 . S
C1939 N1947 1.427 . S
C1940 H1931 0.930 . S
C1940 C1938 1.378 . S
C1940 C1941 1.367 . S
C1941 C1940 1.367 . S
C1941 C1943 1.433 . S
C1942 C1938 1.350 . S
C1942 C1939 1.463 . S
C1942 N1946 1.427 . S
C1943 H1933 0.929 . S
C1943 C1941 1.433 . S
C1943 N1946 1.384 . S
C1944 H1935 0.929 . S
C1944 C1936 1.378 . S
C1944 C1939 1.350 . S
C1945 H1932 0.929 . S
C1945 C1937 1.433 . S
C1945 N1947 1.384 . S
N1946 C1942 1.427 . S
N1946 C1943 1.384 . S
N1947 C1939 1.427 . S
N1947 C1945 1.384 . S
H1948 C1954 0.930 . S
H1949 C1958 0.930 . S
H1950 C1963 0.929 . S
H1951 C1961 0.929 . S
H1952 C1956 0.929 . S
H1953 C1962 0.929 . S
C1954 H1948 0.930 . S
C1954 C1955 1.367 . S
C1954 C1962 1.378 . S
C1955 C1954 1.367 . S
C1955 C1963 1.433 . S
C1956 H1952 0.929 . S
C1956 C1958 1.378 . S
C1956 C1960 1.350 . S
C1957 C1960 1.463 . S
C1957 C1962 1.350 . S
C1957 N1965 1.427 . S
C1958 H1949 0.930 . S
C1958 C1956 1.378 . S
C1958 C1959 1.367 . S
C1959 C1958 1.367 . S
C1959 C1961 1.433 . S
C1960 C1956 1.350 . S
C1960 C1957 1.463 . S
C1960 N1964 1.427 . S
C1961 H1951 0.929 . S
C1961 C1959 1.433 . S
C1961 N1964 1.384 . S
C1962 H1953 0.929 . S
C1962 C1954 1.378 . S
C1962 C1957 1.350 . S
C1963 H1950 0.929 . S
C1963 C1955 1.433 . S
C1963 N1965 1.384 . S
N1964 C1960 1.427 . S
N1964 C1961 1.384 . S
N1965 C1957 1.427 . S
N1965 C1963 1.384 . S
H1966 C1972 0.930 . S
H1967 C1976 0.930 . S
H1968 C1981 0.929 . S
H1969 C1979 0.929 . S
H1970 C1974 0.929 . S
H1971 C1980 0.929 . S
C1972 H1966 0.930 . S
C1972 C1973 1.367 . S
C1972 C1980 1.378 . S
C1973 C1972 1.367 . S
C1973 C1981 1.433 . S
C1974 H1970 0.929 . S
C1974 C1976 1.378 . S
C1974 C1978 1.350 . S
C1975 C1978 1.463 . S
C1975 C1980 1.350 . S
C1975 N1983 1.427 . S
C1976 H1967 0.930 . S
C1976 C1974 1.378 . S
C1976 C1977 1.367 . S
C1977 C1976 1.367 . S
C1977 C1979 1.433 . S
C1978 C1974 1.350 . S
C1978 C1975 1.463 . S
C1978 N1982 1.427 . S
C1979 H1969 0.929 . S
C1979 C1977 1.433 . S
C1979 N1982 1.384 . S
C1980 H1971 0.929 . S
C1980 C1972 1.378 . S
C1980 C1975 1.350 . S
C1981 H1968 0.929 . S
C1981 C1973 1.433 . S
C1981 N1983 1.384 . S
N1982 C1978 1.427 . S
N1982 C1979 1.384 . S
N1983 C1975 1.427 . S
N1983 C1981 1.384 . S
H1984 C1990 0.930 . S
H1985 C1994 0.930 . S
H1986 C1999 0.929 . S
H1987 C1997 0.929 . S
H1988 C1992 0.929 . S
H1989 C1998 0.929 . S
C1990 H1984 0.930 . S
C1990 C1991 1.367 . S
C1990 C1998 1.378 . S
C1991 C1990 1.367 . S
C1991 C1999 1.433 . S
C1992 H1988 0.929 . S
C1992 C1994 1.378 . S
C1992 C1996 1.350 . S
C1993 C1996 1.463 . S
C1993 C1998 1.350 . S
C1993 N2001 1.427 . S
C1994 H1985 0.930 . S
C1994 C1992 1.378 . S
C1994 C1995 1.367 . S
C1995 C1994 1.367 . S
C1995 C1997 1.433 . S
C1996 C1992 1.350 . S
C1996 C1993 1.463 . S
C1996 N2000 1.427 . S
C1997 H1987 0.929 . S
C1997 C1995 1.433 . S
C1997 N2000 1.384 . S
C1998 H1989 0.929 . S
C1998 C1990 1.378 . S
C1998 C1993 1.350 . S
C1999 H1986 0.929 . S
C1999 C1991 1.433 . S
C1999 N2001 1.384 . S
N2000 C1996 1.427 . S
N2000 C1997 1.384 . S
N2001 C1993 1.427 . S
N2001 C1999 1.384 . S
H2002 C2008 0.930 . S
H2003 C2012 0.930 . S
H2004 C2017 0.929 . S
H2005 C2015 0.929 . S
H2006 C2010 0.929 . S
H2007 C2016 0.929 . S
C2008 H2002 0.930 . S
C2008 C2009 1.367 . S
C2008 C2016 1.378 . S
C2009 C2008 1.367 . S
C2009 C2017 1.433 . S
C2010 H2006 0.929 . S
C2010 C2012 1.378 . S
C2010 C2014 1.350 . S
C2011 C2014 1.463 1_554 S
C2011 C2016 1.350 . S
C2011 N2019 1.427 . S
C2012 H2003 0.930 . S
C2012 C2010 1.378 . S
C2012 C2013 1.367 . S
C2013 C2012 1.367 . S
C2013 C2015 1.433 . S
C2014 C2010 1.350 . S
C2014 C2011 1.463 1_556 S
C2014 N2018 1.427 . S
C2015 H2005 0.929 . S
C2015 C2013 1.433 . S
C2015 N2018 1.384 . S
C2016 H2007 0.929 . S
C2016 C2008 1.378 . S
C2016 C2011 1.350 . S
C2017 H2004 0.929 . S
C2017 C2009 1.433 . S
C2017 N2019 1.384 . S
N2018 C2014 1.427 . S
N2018 C2015 1.384 . S
N2019 C2011 1.427 . S
N2019 C2017 1.384 . S
H2020 C2026 0.930 . S
H2021 C2030 0.930 . S
H2022 C2035 0.929 . S
H2023 C2033 0.929 . S
H2024 C2028 0.929 . S
H2025 C2034 0.929 . S
C2026 H2020 0.930 . S
C2026 C2027 1.367 . S
C2026 C2034 1.378 . S
C2027 C2026 1.367 . S
C2027 C2035 1.433 . S
C2028 H2024 0.929 . S
C2028 C2030 1.378 . S
C2028 C2032 1.350 . S
C2029 C2032 1.463 . S
C2029 C2034 1.350 . S
C2029 N2037 1.427 . S
C2030 H2021 0.930 . S
C2030 C2028 1.378 . S
C2030 C2031 1.367 . S
C2031 C2030 1.367 . S
C2031 C2033 1.433 . S
C2032 C2028 1.350 . S
C2032 C2029 1.463 . S
C2032 N2036 1.427 . S
C2033 H2023 0.929 . S
C2033 C2031 1.433 . S
C2033 N2036 1.384 . S
C2034 H2025 0.929 . S
C2034 C2026 1.378 . S
C2034 C2029 1.350 . S
C2035 H2022 0.929 . S
C2035 C2027 1.433 . S
C2035 N2037 1.384 . S
N2036 C2032 1.427 . S
N2036 C2033 1.384 . S
N2037 C2029 1.427 . S
N2037 C2035 1.384 . S
H2038 C2044 0.930 . S
H2039 C2048 0.930 . S
H2040 C2053 0.929 . S
H2041 C2051 0.929 . S
H2042 C2046 0.929 . S
H2043 C2052 0.929 . S
C2044 H2038 0.930 . S
C2044 C2045 1.367 . S
C2044 C2052 1.378 . S
C2045 C2044 1.367 . S
C2045 C2053 1.433 . S
C2046 H2042 0.929 . S
C2046 C2048 1.378 . S
C2046 C2050 1.350 . S
C2047 C2050 1.463 . S
C2047 C2052 1.350 . S
C2047 N2055 1.427 . S
C2048 H2039 0.930 . S
C2048 C2046 1.378 . S
C2048 C2049 1.367 . S
C2049 C2048 1.367 . S
C2049 C2051 1.433 . S
C2050 C2046 1.350 . S
C2050 C2047 1.463 . S
C2050 N2054 1.427 . S
C2051 H2041 0.929 . S
C2051 C2049 1.433 . S
C2051 N2054 1.384 . S
C2052 H2043 0.929 . S
C2052 C2044 1.378 . S
C2052 C2047 1.350 . S
C2053 H2040 0.929 . S
C2053 C2045 1.433 . S
C2053 N2055 1.384 . S
N2054 C2050 1.427 . S
N2054 C2051 1.384 . S
N2055 C2047 1.427 . S
N2055 C2053 1.384 . S
H2056 C2062 0.930 . S
H2057 C2066 0.930 . S
H2058 C2071 0.929 . S
H2059 C2069 0.929 . S
H2060 C2064 0.929 . S
H2061 C2070 0.929 . S
C2062 H2056 0.930 . S
C2062 C2063 1.367 . S
C2062 C2070 1.378 . S
C2063 C2062 1.367 . S
C2063 C2071 1.433 . S
C2064 H2060 0.929 . S
C2064 C2066 1.378 . S
C2064 C2068 1.350 . S
C2065 C2068 1.463 . S
C2065 C2070 1.350 . S
C2065 N2073 1.427 . S
C2066 H2057 0.930 . S
C2066 C2064 1.378 . S
C2066 C2067 1.367 . S
C2067 C2066 1.367 . S
C2067 C2069 1.433 . S
C2068 C2064 1.350 . S
C2068 C2065 1.463 . S
C2068 N2072 1.427 . S
C2069 H2059 0.929 . S
C2069 C2067 1.433 . S
C2069 N2072 1.384 . S
C2070 H2061 0.929 . S
C2070 C2062 1.378 . S
C2070 C2065 1.350 . S
C2071 H2058 0.929 . S
C2071 C2063 1.433 . S
C2071 N2073 1.384 . S
N2072 C2068 1.427 . S
N2072 C2069 1.384 . S
N2073 C2065 1.427 . S
N2073 C2071 1.384 . S
H2074 C2080 0.930 . S
H2075 C2084 0.930 . S
H2076 C2089 0.929 . S
H2077 C2087 0.929 . S
H2078 C2082 0.929 . S
H2079 C2088 0.929 . S
C2080 H2074 0.930 . S
C2080 C2081 1.367 . S
C2080 C2088 1.378 . S
C2081 C2080 1.367 . S
C2081 C2089 1.433 . S
C2082 H2078 0.929 . S
C2082 C2084 1.378 . S
C2082 C2086 1.350 . S
C2083 C2086 1.463 . S
C2083 C2088 1.350 . S
C2083 N2091 1.427 . S
C2084 H2075 0.930 . S
C2084 C2082 1.378 . S
C2084 C2085 1.367 . S
C2085 C2084 1.367 . S
C2085 C2087 1.433 . S
C2086 C2082 1.350 . S
C2086 C2083 1.463 . S
C2086 N2090 1.427 . S
C2087 H2077 0.929 . S
C2087 C2085 1.433 . S
C2087 N2090 1.384 . S
C2088 H2079 0.929 . S
C2088 C2080 1.378 . S
C2088 C2083 1.350 . S
C2089 H2076 0.929 . S
C2089 C2081 1.433 . S
C2089 N2091 1.384 . S
N2090 C2086 1.427 . S
N2090 C2087 1.384 . S
N2091 C2083 1.427 . S
N2091 C2089 1.384 . S
H2092 C2098 0.930 . S
H2093 C2102 0.930 . S
H2094 C2107 0.929 . S
H2095 C2105 0.929 . S
H2096 C2100 0.929 . S
H2097 C2106 0.929 . S
C2098 H2092 0.930 . S
C2098 C2099 1.367 . S
C2098 C2106 1.378 . S
C2099 C2098 1.367 . S
C2099 C2107 1.433 . S
C2100 H2096 0.929 . S
C2100 C2102 1.378 . S
C2100 C2104 1.350 . S
C2101 C2104 1.463 . S
C2101 C2106 1.350 . S
C2101 N2109 1.427 . S
C2102 H2093 0.930 . S
C2102 C2100 1.378 . S
C2102 C2103 1.367 . S
C2103 C2102 1.367 . S
C2103 C2105 1.433 . S
C2104 C2100 1.350 . S
C2104 C2101 1.463 . S
C2104 N2108 1.427 . S
C2105 H2095 0.929 . S
C2105 C2103 1.433 . S
C2105 N2108 1.384 . S
C2106 H2097 0.929 . S
C2106 C2098 1.378 . S
C2106 C2101 1.350 . S
C2107 H2094 0.929 . S
C2107 C2099 1.433 . S
C2107 N2109 1.384 . S
N2108 C2104 1.427 . S
N2108 C2105 1.384 . S
N2109 C2101 1.427 . S
N2109 C2107 1.384 . S
H2110 C2116 0.930 . S
H2111 C2120 0.930 . S
H2112 C2125 0.929 . S
H2113 C2123 0.929 . S
H2114 C2118 0.929 . S
H2115 C2124 0.929 . S
C2116 H2110 0.930 . S
C2116 C2117 1.367 . S
C2116 C2124 1.378 . S
C2117 C2116 1.367 . S
C2117 C2125 1.433 . S
C2118 H2114 0.929 . S
C2118 C2120 1.378 . S
C2118 C2122 1.350 . S
C2119 C2122 1.463 . S
C2119 C2124 1.350 . S
C2119 N2127 1.427 . S
C2120 H2111 0.930 . S
C2120 C2118 1.378 . S
C2120 C2121 1.367 . S
C2121 C2120 1.367 . S
C2121 C2123 1.433 . S
C2122 C2118 1.350 . S
C2122 C2119 1.463 . S
C2122 N2126 1.427 . S
C2123 H2113 0.929 . S
C2123 C2121 1.433 . S
C2123 N2126 1.384 . S
C2124 H2115 0.929 . S
C2124 C2116 1.378 . S
C2124 C2119 1.350 . S
C2125 H2112 0.929 . S
C2125 C2117 1.433 . S
C2125 N2127 1.384 . S
N2126 C2122 1.427 . S
N2126 C2123 1.384 . S
N2127 C2119 1.427 . S
N2127 C2125 1.384 . S
H2128 C2134 0.930 . S
H2129 C2138 0.930 . S
H2130 C2143 0.929 . S
H2131 C2141 0.929 . S
H2132 C2136 0.929 . S
H2133 C2142 0.929 . S
C2134 H2128 0.930 . S
C2134 C2135 1.367 . S
C2134 C2142 1.378 . S
C2135 C2134 1.367 . S
C2135 C2143 1.433 . S
C2136 H2132 0.929 . S
C2136 C2138 1.378 . S
C2136 C2140 1.350 . S
C2137 C2140 1.463 . S
C2137 C2142 1.350 . S
C2137 N2145 1.427 . S
C2138 H2129 0.930 . S
C2138 C2136 1.378 . S
C2138 C2139 1.367 . S
C2139 C2138 1.367 . S
C2139 C2141 1.433 . S
C2140 C2136 1.350 . S
C2140 C2137 1.463 . S
C2140 N2144 1.427 . S
C2141 H2131 0.929 . S
C2141 C2139 1.433 . S
C2141 N2144 1.384 . S
C2142 H2133 0.929 . S
C2142 C2134 1.378 . S
C2142 C2137 1.350 . S
C2143 H2130 0.929 . S
C2143 C2135 1.433 . S
C2143 N2145 1.384 . S
N2144 C2140 1.427 . S
N2144 C2141 1.384 . S
N2145 C2137 1.427 . S
N2145 C2143 1.384 . S
H2146 C2152 0.930 . S
H2147 C2156 0.930 . S
H2148 C2161 0.929 . S
H2149 C2159 0.929 . S
H2150 C2154 0.929 . S
H2151 C2160 0.929 . S
C2152 H2146 0.930 . S
C2152 C2153 1.367 . S
C2152 C2160 1.378 . S
C2153 C2152 1.367 . S
C2153 C2161 1.433 . S
C2154 H2150 0.929 . S
C2154 C2156 1.378 . S
C2154 C2158 1.350 . S
C2155 C2158 1.463 . S
C2155 C2160 1.350 . S
C2155 N2163 1.427 . S
C2156 H2147 0.930 . S
C2156 C2154 1.378 . S
C2156 C2157 1.367 . S
C2157 C2156 1.367 . S
C2157 C2159 1.433 . S
C2158 C2154 1.350 . S
C2158 C2155 1.463 . S
C2158 N2162 1.427 . S
C2159 H2149 0.929 . S
C2159 C2157 1.433 . S
C2159 N2162 1.384 . S
C2160 H2151 0.929 . S
C2160 C2152 1.378 . S
C2160 C2155 1.350 . S
C2161 H2148 0.929 . S
C2161 C2153 1.433 . S
C2161 N2163 1.384 . S
N2162 C2158 1.427 . S
N2162 C2159 1.384 . S
N2163 C2155 1.427 . S
N2163 C2161 1.384 . S
H2164 C2170 0.930 . S
H2165 C2174 0.930 . S
H2166 C2179 0.929 . S
H2167 C2177 0.929 . S
H2168 C2172 0.929 . S
H2169 C2178 0.929 . S
C2170 H2164 0.930 . S
C2170 C2171 1.367 . S
C2170 C2178 1.378 . S
C2171 C2170 1.367 . S
C2171 C2179 1.433 . S
C2172 H2168 0.929 . S
C2172 C2174 1.378 . S
C2172 C2176 1.350 . S
C2173 C2176 1.463 . S
C2173 C2178 1.350 . S
C2173 N2181 1.427 . S
C2174 H2165 0.930 . S
C2174 C2172 1.378 . S
C2174 C2175 1.367 . S
C2175 C2174 1.367 . S
C2175 C2177 1.433 . S
C2176 C2172 1.350 . S
C2176 C2173 1.463 . S
C2176 N2180 1.427 . S
C2177 H2167 0.929 . S
C2177 C2175 1.433 . S
C2177 N2180 1.384 . S
C2178 H2169 0.929 . S
C2178 C2170 1.378 . S
C2178 C2173 1.350 . S
C2179 H2166 0.929 . S
C2179 C2171 1.433 . S
C2179 N2181 1.384 . S
N2180 C2176 1.427 . S
N2180 C2177 1.384 . S
N2181 C2173 1.427 . S
N2181 C2179 1.384 . S
H2182 C2188 0.930 . S
H2183 C2192 0.930 . S
H2184 C2197 0.929 . S
H2185 C2195 0.929 . S
H2186 C2190 0.929 . S
H2187 C2196 0.929 . S
C2188 H2182 0.930 . S
C2188 C2189 1.367 1_556 S
C2188 C2196 1.378 . S
C2189 C2188 1.367 1_554 S
C2189 C2197 1.433 . S
C2190 H2186 0.929 . S
C2190 C2192 1.378 . S
C2190 C2194 1.350 . S
C2191 C2194 1.463 . S
C2191 C2196 1.350 1_554 S
C2191 N2199 1.427 . S
C2192 H2183 0.930 . S
C2192 C2190 1.378 . S
C2192 C2193 1.367 . S
C2193 C2192 1.367 . S
C2193 C2195 1.433 1_554 S
C2194 C2190 1.350 . S
C2194 C2191 1.463 . S
C2194 N2198 1.427 1_554 S
C2195 H2185 0.929 . S
C2195 C2193 1.433 1_556 S
C2195 N2198 1.384 . S
C2196 H2187 0.929 . S
C2196 C2188 1.378 . S
C2196 C2191 1.350 1_556 S
C2197 H2184 0.929 . S
C2197 C2189 1.433 . S
C2197 N2199 1.384 . S
N2198 C2194 1.427 1_556 S
N2198 C2195 1.384 . S
N2199 C2191 1.427 . S
N2199 C2197 1.384 . S
H2200 C2206 0.930 . S
H2201 C2210 0.930 . S
H2202 C2215 0.929 . S
H2203 C2213 0.929 . S
H2204 C2208 0.929 . S
H2205 C2214 0.929 . S
C2206 H2200 0.930 . S
C2206 C2207 1.367 . S
C2206 C2214 1.378 . S
C2207 C2206 1.367 . S
C2207 C2215 1.433 . S
C2208 H2204 0.929 . S
C2208 C2210 1.378 . S
C2208 C2212 1.350 . S
C2209 C2212 1.463 . S
C2209 C2214 1.350 . S
C2209 N2217 1.427 . S
C2210 H2201 0.930 . S
C2210 C2208 1.378 . S
C2210 C2211 1.367 . S
C2211 C2210 1.367 . S
C2211 C2213 1.433 . S
C2212 C2208 1.350 . S
C2212 C2209 1.463 . S
C2212 N2216 1.427 . S
C2213 H2203 0.929 . S
C2213 C2211 1.433 . S
C2213 N2216 1.384 . S
C2214 H2205 0.929 . S
C2214 C2206 1.378 . S
C2214 C2209 1.350 . S
C2215 H2202 0.929 . S
C2215 C2207 1.433 . S
C2215 N2217 1.384 . S
N2216 C2212 1.427 . S
N2216 C2213 1.384 . S
N2217 C2209 1.427 . S
N2217 C2215 1.384 . S
H2218 C2224 0.930 . S
H2219 C2228 0.930 . S
H2220 C2233 0.929 . S
H2221 C2231 0.929 . S
H2222 C2226 0.929 . S
H2223 C2232 0.929 . S
C2224 H2218 0.930 . S
C2224 C2225 1.367 . S
C2224 C2232 1.378 . S
C2225 C2224 1.367 . S
C2225 C2233 1.433 . S
C2226 H2222 0.929 . S
C2226 C2228 1.378 . S
C2226 C2230 1.350 . S
C2227 C2230 1.463 . S
C2227 C2232 1.350 . S
C2227 N2235 1.427 . S
C2228 H2219 0.930 . S
C2228 C2226 1.378 . S
C2228 C2229 1.367 . S
C2229 C2228 1.367 . S
C2229 C2231 1.433 . S
C2230 C2226 1.350 . S
C2230 C2227 1.463 . S
C2230 N2234 1.427 . S
C2231 H2221 0.929 . S
C2231 C2229 1.433 . S
C2231 N2234 1.384 . S
C2232 H2223 0.929 . S
C2232 C2224 1.378 . S
C2232 C2227 1.350 . S
C2233 H2220 0.929 . S
C2233 C2225 1.433 . S
C2233 N2235 1.384 . S
N2234 C2230 1.427 . S
N2234 C2231 1.384 . S
N2235 C2227 1.427 . S
N2235 C2233 1.384 . S
H2236 C2242 0.930 . S
H2237 C2246 0.930 . S
H2238 C2251 0.929 . S
H2239 C2249 0.929 . S
H2240 C2244 0.929 . S
H2241 C2250 0.929 . S
C2242 H2236 0.930 . S
C2242 C2243 1.367 . S
C2242 C2250 1.378 . S
C2243 C2242 1.367 . S
C2243 C2251 1.433 . S
C2244 H2240 0.929 . S
C2244 C2246 1.378 . S
C2244 C2248 1.350 . S
C2245 C2248 1.463 . S
C2245 C2250 1.350 . S
C2245 N2253 1.427 . S
C2246 H2237 0.930 . S
C2246 C2244 1.378 . S
C2246 C2247 1.367 . S
C2247 C2246 1.367 . S
C2247 C2249 1.433 . S
C2248 C2244 1.350 . S
C2248 C2245 1.463 . S
C2248 N2252 1.427 . S
C2249 H2239 0.929 . S
C2249 C2247 1.433 . S
C2249 N2252 1.384 . S
C2250 H2241 0.929 . S
C2250 C2242 1.378 . S
C2250 C2245 1.350 . S
C2251 H2238 0.929 . S
C2251 C2243 1.433 . S
C2251 N2253 1.384 . S
N2252 C2248 1.427 . S
N2252 C2249 1.384 . S
N2253 C2245 1.427 . S
N2253 C2251 1.384 . S
H2254 C2260 0.930 . S
H2255 C2264 0.930 . S
H2256 C2269 0.929 . S
H2257 C2267 0.929 . S
H2258 C2262 0.929 . S
H2259 C2268 0.929 . S
C2260 H2254 0.930 . S
C2260 C2261 1.367 . S
C2260 C2268 1.378 . S
C2261 C2260 1.367 . S
C2261 C2269 1.433 . S
C2262 H2258 0.929 . S
C2262 C2264 1.378 . S
C2262 C2266 1.350 . S
C2263 C2266 1.463 . S
C2263 C2268 1.350 . S
C2263 N2271 1.427 . S
C2264 H2255 0.930 . S
C2264 C2262 1.378 . S
C2264 C2265 1.367 . S
C2265 C2264 1.367 . S
C2265 C2267 1.433 . S
C2266 C2262 1.350 . S
C2266 C2263 1.463 . S
C2266 N2270 1.427 . S
C2267 H2257 0.929 . S
C2267 C2265 1.433 . S
C2267 N2270 1.384 . S
C2268 H2259 0.929 . S
C2268 C2260 1.378 . S
C2268 C2263 1.350 . S
C2269 H2256 0.929 . S
C2269 C2261 1.433 . S
C2269 N2271 1.384 . S
N2270 C2266 1.427 . S
N2270 C2267 1.384 . S
N2271 C2263 1.427 . S
N2271 C2269 1.384 . S
H2272 C2278 0.930 . S
H2273 C2282 0.930 . S
H2274 C2287 0.929 . S
H2275 C2285 0.929 . S
H2276 C2280 0.929 . S
H2277 C2286 0.929 . S
C2278 H2272 0.930 . S
C2278 C2279 1.367 . S
C2278 C2286 1.378 . S
C2279 C2278 1.367 . S
C2279 C2287 1.433 . S
C2280 H2276 0.929 . S
C2280 C2282 1.378 . S
C2280 C2284 1.350 . S
C2281 C2284 1.463 . S
C2281 C2286 1.350 . S
C2281 N2289 1.427 . S
C2282 H2273 0.930 . S
C2282 C2280 1.378 . S
C2282 C2283 1.367 . S
C2283 C2282 1.367 . S
C2283 C2285 1.433 . S
C2284 C2280 1.350 . S
C2284 C2281 1.463 . S
C2284 N2288 1.427 . S
C2285 H2275 0.929 . S
C2285 C2283 1.433 . S
C2285 N2288 1.384 . S
C2286 H2277 0.929 . S
C2286 C2278 1.378 . S
C2286 C2281 1.350 . S
C2287 H2274 0.929 . S
C2287 C2279 1.433 . S
C2287 N2289 1.384 . S
N2288 C2284 1.427 . S
N2288 C2285 1.384 . S
N2289 C2281 1.427 . S
N2289 C2287 1.384 . S
H2290 C2296 0.930 . S
H2291 C2300 0.930 . S
H2292 C2305 0.929 . S
H2293 C2303 0.929 . S
H2294 C2298 0.929 . S
H2295 C2304 0.929 . S
C2296 H2290 0.930 . S
C2296 C2297 1.367 . S
C2296 C2304 1.378 . S
C2297 C2296 1.367 . S
C2297 C2305 1.433 . S
C2298 H2294 0.929 . S
C2298 C2300 1.378 . S
C2298 C2302 1.350 . S
C2299 C2302 1.463 . S
C2299 C2304 1.350 . S
C2299 N2307 1.427 . S
C2300 H2291 0.930 . S
C2300 C2298 1.378 . S
C2300 C2301 1.367 . S
C2301 C2300 1.367 . S
C2301 C2303 1.433 . S
C2302 C2298 1.350 . S
C2302 C2299 1.463 . S
C2302 N2306 1.427 . S
C2303 H2293 0.929 . S
C2303 C2301 1.433 . S
C2303 N2306 1.384 . S
C2304 H2295 0.929 . S
C2304 C2296 1.378 . S
C2304 C2299 1.350 . S
C2305 H2292 0.929 . S
C2305 C2297 1.433 . S
C2305 N2307 1.384 . S
N2306 C2302 1.427 . S
N2306 C2303 1.384 . S
N2307 C2299 1.427 . S
N2307 C2305 1.384 . S
H2308 C2314 0.930 . S
H2309 C2318 0.930 . S
H2310 C2323 0.929 . S
H2311 C2321 0.929 . S
H2312 C2316 0.929 . S
H2313 C2322 0.929 . S
C2314 H2308 0.930 . S
C2314 C2315 1.367 . S
C2314 C2322 1.378 . S
C2315 C2314 1.367 . S
C2315 C2323 1.433 . S
C2316 H2312 0.929 . S
C2316 C2318 1.378 . S
C2316 C2320 1.350 . S
C2317 C2320 1.463 . S
C2317 C2322 1.350 . S
C2317 N2325 1.427 . S
C2318 H2309 0.930 . S
C2318 C2316 1.378 . S
C2318 C2319 1.367 . S
C2319 C2318 1.367 . S
C2319 C2321 1.433 . S
C2320 C2316 1.350 . S
C2320 C2317 1.463 . S
C2320 N2324 1.427 . S
C2321 H2311 0.929 . S
C2321 C2319 1.433 . S
C2321 N2324 1.384 . S
C2322 H2313 0.929 . S
C2322 C2314 1.378 . S
C2322 C2317 1.350 . S
C2323 H2310 0.929 . S
C2323 C2315 1.433 . S
C2323 N2325 1.384 . S
N2324 C2320 1.427 . S
N2324 C2321 1.384 . S
N2325 C2317 1.427 . S
N2325 C2323 1.384 . S
H2326 C2332 0.930 . S
H2327 C2336 0.930 . S
H2328 C2341 0.929 . S
H2329 C2339 0.929 . S
H2330 C2334 0.929 . S
H2331 C2340 0.929 . S
C2332 H2326 0.930 . S
C2332 C2333 1.367 . S
C2332 C2340 1.378 . S
C2333 C2332 1.367 . S
C2333 C2341 1.433 . S
C2334 H2330 0.929 . S
C2334 C2336 1.378 . S
C2334 C2338 1.350 . S
C2335 C2338 1.463 . S
C2335 C2340 1.350 . S
C2335 N2343 1.427 . S
C2336 H2327 0.930 . S
C2336 C2334 1.378 . S
C2336 C2337 1.367 . S
C2337 C2336 1.367 . S
C2337 C2339 1.433 . S
C2338 C2334 1.350 . S
C2338 C2335 1.463 . S
C2338 N2342 1.427 . S
C2339 H2329 0.929 . S
C2339 C2337 1.433 . S
C2339 N2342 1.384 . S
C2340 H2331 0.929 . S
C2340 C2332 1.378 . S
C2340 C2335 1.350 . S
C2341 H2328 0.929 . S
C2341 C2333 1.433 . S
C2341 N2343 1.384 . S
N2342 C2338 1.427 . S
N2342 C2339 1.384 . S
N2343 C2335 1.427 . S
N2343 C2341 1.384 . S
H2344 C2350 0.930 . S
H2345 C2354 0.930 . S
H2346 C2359 0.929 . S
H2347 C2357 0.929 . S
H2348 C2352 0.929 . S
H2349 C2358 0.929 . S
C2350 H2344 0.930 . S
C2350 C2351 1.367 . S
C2350 C2358 1.378 . S
C2351 C2350 1.367 . S
C2351 C2359 1.433 . S
C2352 H2348 0.929 . S
C2352 C2354 1.378 . S
C2352 C2356 1.350 . S
C2353 C2356 1.463 . S
C2353 C2358 1.350 . S
C2353 N2361 1.427 . S
C2354 H2345 0.930 . S
C2354 C2352 1.378 . S
C2354 C2355 1.367 . S
C2355 C2354 1.367 . S
C2355 C2357 1.433 . S
C2356 C2352 1.350 . S
C2356 C2353 1.463 . S
C2356 N2360 1.427 . S
C2357 H2347 0.929 . S
C2357 C2355 1.433 . S
C2357 N2360 1.384 . S
C2358 H2349 0.929 . S
C2358 C2350 1.378 . S
C2358 C2353 1.350 . S
C2359 H2346 0.929 . S
C2359 C2351 1.433 . S
C2359 N2361 1.384 . S
N2360 C2356 1.427 . S
N2360 C2357 1.384 . S
N2361 C2353 1.427 . S
N2361 C2359 1.384 . S
H2362 C2368 0.930 . S
H2363 C2372 0.930 . S
H2364 C2377 0.929 . S
H2365 C2375 0.929 . S
H2366 C2370 0.929 . S
H2367 C2376 0.929 . S
C2368 H2362 0.930 . S
C2368 C2369 1.367 . S
C2368 C2376 1.378 . S
C2369 C2368 1.367 . S
C2369 C2377 1.433 . S
C2370 H2366 0.929 . S
C2370 C2372 1.378 . S
C2370 C2374 1.350 . S
C2371 C2374 1.463 . S
C2371 C2376 1.350 . S
C2371 N2379 1.427 . S
C2372 H2363 0.930 . S
C2372 C2370 1.378 . S
C2372 C2373 1.367 . S
C2373 C2372 1.367 . S
C2373 C2375 1.433 . S
C2374 C2370 1.350 . S
C2374 C2371 1.463 . S
C2374 N2378 1.427 . S
C2375 H2365 0.929 . S
C2375 C2373 1.433 . S
C2375 N2378 1.384 . S
C2376 H2367 0.929 . S
C2376 C2368 1.378 . S
C2376 C2371 1.350 . S
C2377 H2364 0.929 . S
C2377 C2369 1.433 . S
C2377 N2379 1.384 . S
N2378 C2374 1.427 . S
N2378 C2375 1.384 . S
N2379 C2371 1.427 . S
N2379 C2377 1.384 . S
H2380 C2386 0.930 1_655 S
H2381 C2390 0.930 . S
H2382 C2395 0.929 . S
H2383 C2393 0.929 . S
H2384 C2388 0.929 . S
H2385 C2394 0.929 . S
C2386 H2380 0.930 1_455 S
C2386 C2387 1.367 . S
C2386 C2394 1.378 . S
C2387 C2386 1.367 . S
C2387 C2395 1.433 . S
C2388 H2384 0.929 . S
C2388 C2390 1.378 . S
C2388 C2392 1.350 . S
C2389 C2392 1.463 . S
C2389 C2394 1.350 . S
C2389 N2397 1.427 . S
C2390 H2381 0.930 . S
C2390 C2388 1.378 . S
C2390 C2391 1.367 . S
C2391 C2390 1.367 . S
C2391 C2393 1.433 . S
C2392 C2388 1.350 . S
C2392 C2389 1.463 . S
C2392 N2396 1.427 . S
C2393 H2383 0.929 . S
C2393 C2391 1.433 . S
C2393 N2396 1.384 . S
C2394 H2385 0.929 . S
C2394 C2386 1.378 . S
C2394 C2389 1.350 . S
C2395 H2382 0.929 . S
C2395 C2387 1.433 . S
C2395 N2397 1.384 . S
N2396 C2392 1.427 . S
N2396 C2393 1.384 . S
N2397 C2389 1.427 . S
N2397 C2395 1.384 . S
H2398 C2404 0.930 . S
H2399 C2408 0.930 . S
H2400 C2413 0.929 . S
H2401 C2411 0.929 . S
H2402 C2406 0.929 . S
H2403 C2412 0.929 . S
C2404 H2398 0.930 . S
C2404 C2405 1.367 . S
C2404 C2412 1.378 . S
C2405 C2404 1.367 . S
C2405 C2413 1.433 . S
C2406 H2402 0.929 . S
C2406 C2408 1.378 . S
C2406 C2410 1.350 . S
C2407 C2410 1.463 . S
C2407 C2412 1.350 . S
C2407 N2415 1.427 . S
C2408 H2399 0.930 . S
C2408 C2406 1.378 . S
C2408 C2409 1.367 . S
C2409 C2408 1.367 . S
C2409 C2411 1.433 . S
C2410 C2406 1.350 . S
C2410 C2407 1.463 . S
C2410 N2414 1.427 . S
C2411 H2401 0.929 . S
C2411 C2409 1.433 . S
C2411 N2414 1.384 . S
C2412 H2403 0.929 . S
C2412 C2404 1.378 . S
C2412 C2407 1.350 . S
C2413 H2400 0.929 . S
C2413 C2405 1.433 . S
C2413 N2415 1.384 . S
N2414 C2410 1.427 . S
N2414 C2411 1.384 . S
N2415 C2407 1.427 . S
N2415 C2413 1.384 . S
H2416 C2422 0.930 . S
H2417 C2426 0.930 . S
H2418 C2431 0.929 . S
H2419 C2429 0.929 . S
H2420 C2424 0.929 . S
H2421 C2430 0.929 . S
C2422 H2416 0.930 . S
C2422 C2423 1.367 . S
C2422 C2430 1.378 . S
C2423 C2422 1.367 . S
C2423 C2431 1.433 . S
C2424 H2420 0.929 . S
C2424 C2426 1.378 . S
C2424 C2428 1.350 . S
C2425 C2428 1.463 . S
C2425 C2430 1.350 . S
C2425 N2433 1.427 . S
C2426 H2417 0.930 . S
C2426 C2424 1.378 . S
C2426 C2427 1.367 . S
C2427 C2426 1.367 . S
C2427 C2429 1.433 . S
C2428 C2424 1.350 . S
C2428 C2425 1.463 . S
C2428 N2432 1.427 . S
C2429 H2419 0.929 . S
C2429 C2427 1.433 . S
C2429 N2432 1.384 . S
C2430 H2421 0.929 . S
C2430 C2422 1.378 . S
C2430 C2425 1.350 . S
C2431 H2418 0.929 . S
C2431 C2423 1.433 . S
C2431 N2433 1.384 . S
N2432 C2428 1.427 . S
N2432 C2429 1.384 . S
N2433 C2425 1.427 . S
N2433 C2431 1.384 . S
H2434 C2440 0.930 . S
H2435 C2444 0.930 . S
H2436 C2449 0.929 . S
H2437 C2447 0.929 . S
H2438 C2442 0.929 . S
H2439 C2448 0.929 . S
C2440 H2434 0.930 . S
C2440 C2441 1.367 . S
C2440 C2448 1.378 . S
C2441 C2440 1.367 . S
C2441 C2449 1.433 . S
C2442 H2438 0.929 . S
C2442 C2444 1.378 . S
C2442 C2446 1.350 . S
C2443 C2446 1.463 . S
C2443 C2448 1.350 . S
C2443 N2451 1.427 . S
C2444 H2435 0.930 . S
C2444 C2442 1.378 . S
C2444 C2445 1.367 . S
C2445 C2444 1.367 . S
C2445 C2447 1.433 . S
C2446 C2442 1.350 . S
C2446 C2443 1.463 . S
C2446 N2450 1.427 . S
C2447 H2437 0.929 . S
C2447 C2445 1.433 . S
C2447 N2450 1.384 . S
C2448 H2439 0.929 . S
C2448 C2440 1.378 . S
C2448 C2443 1.350 . S
C2449 H2436 0.929 . S
C2449 C2441 1.433 . S
C2449 N2451 1.384 . S
N2450 C2446 1.427 . S
N2450 C2447 1.384 . S
N2451 C2443 1.427 . S
N2451 C2449 1.384 . S
H2452 C2458 0.930 . S
H2453 C2462 0.930 . S
H2454 C2467 0.929 . S
H2455 C2465 0.898 1_455 S
H2456 C2460 0.929 . S
H2457 C2466 0.929 . S
C2458 H2452 0.930 . S
C2458 C2459 1.367 . S
C2458 C2466 1.378 . S
C2459 C2458 1.367 . S
C2459 C2467 1.433 . S
C2460 H2456 0.929 . S
C2460 C2462 1.378 . S
C2460 C2464 1.350 . S
C2461 C2464 1.463 . S
C2461 C2466 1.350 . S
C2461 N2469 1.427 . S
C2462 H2453 0.930 . S
C2462 C2460 1.378 . S
C2462 C2463 1.367 . S
C2463 C2462 1.367 . S
C2463 C2465 1.451 . S
C2464 C2460 1.350 . S
C2464 C2461 1.463 . S
C2464 N2468 1.427 . S
C2465 H2455 0.898 1_655 S
C2465 C2463 1.451 . S
C2465 N2468 1.401 . S
C2466 H2457 0.929 . S
C2466 C2458 1.378 . S
C2466 C2461 1.350 . S
C2467 H2454 0.929 . S
C2467 C2459 1.433 . S
C2467 N2469 1.384 . S
N2468 C2464 1.427 . S
N2468 C2465 1.401 . S
N2469 C2461 1.427 . S
N2469 C2467 1.384 . S
H2470 C2476 0.930 . S
H2471 C2480 0.930 . S
H2472 C2485 0.929 . S
H2473 C2483 0.929 . S
H2474 C2478 0.929 . S
H2475 C2484 0.929 . S
C2476 H2470 0.930 . S
C2476 C2477 1.367 . S
C2476 C2484 1.378 . S
C2477 C2476 1.367 . S
C2477 C2485 1.433 . S
C2478 H2474 0.929 . S
C2478 C2480 1.378 . S
C2478 C2482 1.350 . S
C2479 C2482 1.463 . S
C2479 C2484 1.350 . S
C2479 N2487 1.427 . S
C2480 H2471 0.930 . S
C2480 C2478 1.378 . S
C2480 C2481 1.367 . S
C2481 C2480 1.367 . S
C2481 C2483 1.433 . S
C2482 C2478 1.350 . S
C2482 C2479 1.463 . S
C2482 N2486 1.427 . S
C2483 H2473 0.929 . S
C2483 C2481 1.433 . S
C2483 N2486 1.384 . S
C2484 H2475 0.929 . S
C2484 C2476 1.378 . S
C2484 C2479 1.350 . S
C2485 H2472 0.929 . S
C2485 C2477 1.433 . S
C2485 N2487 1.384 . S
N2486 C2482 1.427 . S
N2486 C2483 1.384 . S
N2487 C2479 1.427 . S
N2487 C2485 1.384 . S
H2488 C2494 0.930 . S
H2489 C2498 0.930 . S
H2490 C2503 0.929 . S
H2491 C2501 0.929 . S
H2492 C2496 0.929 . S
H2493 C2502 0.929 . S
C2494 H2488 0.930 . S
C2494 C2495 1.367 . S
C2494 C2502 1.378 . S
C2495 C2494 1.367 . S
C2495 C2503 1.433 . S
C2496 H2492 0.929 . S
C2496 C2498 1.378 . S
C2496 C2500 1.350 . S
C2497 C2500 1.463 . S
C2497 C2502 1.350 . S
C2497 N2505 1.427 . S
C2498 H2489 0.930 . S
C2498 C2496 1.378 . S
C2498 C2499 1.367 . S
C2499 C2498 1.367 . S
C2499 C2501 1.433 . S
C2500 C2496 1.350 . S
C2500 C2497 1.463 . S
C2500 N2504 1.427 . S
C2501 H2491 0.929 . S
C2501 C2499 1.433 . S
C2501 N2504 1.384 . S
C2502 H2493 0.929 . S
C2502 C2494 1.378 . S
C2502 C2497 1.350 . S
C2503 H2490 0.929 . S
C2503 C2495 1.433 . S
C2503 N2505 1.384 . S
N2504 C2500 1.427 . S
N2504 C2501 1.384 . S
N2505 C2497 1.427 . S
N2505 C2503 1.384 . S
H2506 C2512 0.930 . S
H2507 C2516 0.930 . S
H2508 C2521 0.929 . S
H2509 C2519 0.929 . S
H2510 C2514 0.929 . S
H2511 C2520 0.929 . S
C2512 H2506 0.930 . S
C2512 C2513 1.367 . S
C2512 C2520 1.378 . S
C2513 C2512 1.367 . S
C2513 C2521 1.433 . S
C2514 H2510 0.929 . S
C2514 C2516 1.378 . S
C2514 C2518 1.350 . S
C2515 C2518 1.463 . S
C2515 C2520 1.350 . S
C2515 N2523 1.427 . S
C2516 H2507 0.930 . S
C2516 C2514 1.378 . S
C2516 C2517 1.367 . S
C2517 C2516 1.367 . S
C2517 C2519 1.433 . S
C2518 C2514 1.350 . S
C2518 C2515 1.463 . S
C2518 N2522 1.427 . S
C2519 H2509 0.929 . S
C2519 C2517 1.433 . S
C2519 N2522 1.384 . S
C2520 H2511 0.929 . S
C2520 C2512 1.378 . S
C2520 C2515 1.350 . S
C2521 H2508 0.929 . S
C2521 C2513 1.433 . S
C2521 N2523 1.384 . S
N2522 C2518 1.427 . S
N2522 C2519 1.384 . S
N2523 C2515 1.427 . S
N2523 C2521 1.384 . S
H2524 C2530 0.930 . S
H2525 C2534 0.974 . S
H2526 C2539 0.929 . S
H2527 C2537 0.929 . S
H2528 C2532 0.929 . S
H2529 C2538 0.929 . S
C2530 H2524 0.930 . S
C2530 C2531 1.367 . S
C2530 C2538 1.378 . S
C2531 C2530 1.367 . S
C2531 C2539 1.433 . S
C2532 H2528 0.929 . S
C2532 C2534 1.346 1_655 S
C2532 C2536 1.350 . S
C2533 C2536 1.463 . S
C2533 C2538 1.350 . S
C2533 N2541 1.427 . S
C2534 H2525 0.974 . S
C2534 C2532 1.346 1_455 S
C2534 C2535 1.355 1_455 S
C2535 C2534 1.355 1_655 S
C2535 C2537 1.433 . S
C2536 C2532 1.350 . S
C2536 C2533 1.463 . S
C2536 N2540 1.427 . S
C2537 H2527 0.929 . S
C2537 C2535 1.433 . S
C2537 N2540 1.384 . S
C2538 H2529 0.929 . S
C2538 C2530 1.378 . S
C2538 C2533 1.350 . S
C2539 H2526 0.929 . S
C2539 C2531 1.433 . S
C2539 N2541 1.384 . S
N2540 C2536 1.427 . S
N2540 C2537 1.384 . S
N2541 C2533 1.427 . S
N2541 C2539 1.384 . S
H2542 C2548 0.930 . S
H2543 C2552 0.930 . S
H2544 C2557 0.929 . S
H2545 C2555 0.929 . S
H2546 C2550 0.929 . S
H2547 C2556 0.929 . S
C2548 H2542 0.930 . S
C2548 C2549 1.367 . S
C2548 C2556 1.378 . S
C2549 C2548 1.367 . S
C2549 C2557 1.433 . S
C2550 H2546 0.929 . S
C2550 C2552 1.378 . S
C2550 C2554 1.350 . S
C2551 C2554 1.463 . S
C2551 C2556 1.350 . S
C2551 N2559 1.427 . S
C2552 H2543 0.930 . S
C2552 C2550 1.378 . S
C2552 C2553 1.367 . S
C2553 C2552 1.367 . S
C2553 C2555 1.433 . S
C2554 C2550 1.350 . S
C2554 C2551 1.463 . S
C2554 N2558 1.427 . S
C2555 H2545 0.929 . S
C2555 C2553 1.433 . S
C2555 N2558 1.384 . S
C2556 H2547 0.929 . S
C2556 C2548 1.378 . S
C2556 C2551 1.350 . S
C2557 H2544 0.929 . S
C2557 C2549 1.433 . S
C2557 N2559 1.384 . S
N2558 C2554 1.427 . S
N2558 C2555 1.384 . S
N2559 C2551 1.427 . S
N2559 C2557 1.384 . S
H2560 C2566 0.930 . S
H2561 C2570 0.930 . S
H2562 C2575 0.929 . S
H2563 C2573 0.929 . S
H2564 C2568 0.929 . S
H2565 C2574 0.929 . S
C2566 H2560 0.930 . S
C2566 C2567 1.367 . S
C2566 C2574 1.378 . S
C2567 C2566 1.367 . S
C2567 C2575 1.433 . S
C2568 H2564 0.929 . S
C2568 C2570 1.378 . S
C2568 C2572 1.350 . S
C2569 C2572 1.463 . S
C2569 C2574 1.350 . S
C2569 N2577 1.427 . S
C2570 H2561 0.930 . S
C2570 C2568 1.378 . S
C2570 C2571 1.367 . S
C2571 C2570 1.367 . S
C2571 C2573 1.433 . S
C2572 C2568 1.350 . S
C2572 C2569 1.463 . S
C2572 N2576 1.427 . S
C2573 H2563 0.929 . S
C2573 C2571 1.433 . S
C2573 N2576 1.384 . S
C2574 H2565 0.929 . S
C2574 C2566 1.378 . S
C2574 C2569 1.350 . S
C2575 H2562 0.929 . S
C2575 C2567 1.433 . S
C2575 N2577 1.384 . S
N2576 C2572 1.427 . S
N2576 C2573 1.384 . S
N2577 C2569 1.427 . S
N2577 C2575 1.384 . S
H2578 C2584 0.930 . S
H2579 C2588 0.930 1_545 S
H2580 C2593 0.929 . S
H2581 C2591 0.929 . S
H2582 C2586 0.929 . S
H2583 C2592 0.929 . S
C2584 H2578 0.930 . S
C2584 C2585 1.367 . S
C2584 C2592 1.378 . S
C2585 C2584 1.367 . S
C2585 C2593 1.433 . S
C2586 H2582 0.929 . S
C2586 C2588 1.378 . S
C2586 C2590 1.350 . S
C2587 C2590 1.463 . S
C2587 C2592 1.350 . S
C2587 N2595 1.427 . S
C2588 H2579 0.930 1_565 S
C2588 C2586 1.378 . S
C2588 C2589 1.367 . S
C2589 C2588 1.367 . S
C2589 C2591 1.433 . S
C2590 C2586 1.350 . S
C2590 C2587 1.463 . S
C2590 N2594 1.427 . S
C2591 H2581 0.929 . S
C2591 C2589 1.433 . S
C2591 N2594 1.384 . S
C2592 H2583 0.929 . S
C2592 C2584 1.378 . S
C2592 C2587 1.350 . S
C2593 H2580 0.929 . S
C2593 C2585 1.433 . S
C2593 N2595 1.384 . S
N2594 C2590 1.427 . S
N2594 C2591 1.384 . S
N2595 C2587 1.427 . S
N2595 C2593 1.384 . S
H2596 C2602 0.930 . S
H2597 C2606 0.930 . S
H2598 C2611 0.929 . S
H2599 C2609 0.929 . S
H2600 C2604 0.929 . S
H2601 C2610 0.929 . S
C2602 H2596 0.930 . S
C2602 C2603 1.367 . S
C2602 C2610 1.378 . S
C2603 C2602 1.367 . S
C2603 C2611 1.433 . S
C2604 H2600 0.929 . S
C2604 C2606 1.378 . S
C2604 C2608 1.350 . S
C2605 C2608 1.463 . S
C2605 C2610 1.350 . S
C2605 N2613 1.427 . S
C2606 H2597 0.930 . S
C2606 C2604 1.378 . S
C2606 C2607 1.367 . S
C2607 C2606 1.367 . S
C2607 C2609 1.433 . S
C2608 C2604 1.350 . S
C2608 C2605 1.463 . S
C2608 N2612 1.427 . S
C2609 H2599 0.929 . S
C2609 C2607 1.433 . S
C2609 N2612 1.384 . S
C2610 H2601 0.929 . S
C2610 C2602 1.378 . S
C2610 C2605 1.350 . S
C2611 H2598 0.929 . S
C2611 C2603 1.433 . S
C2611 N2613 1.384 . S
N2612 C2608 1.427 . S
N2612 C2609 1.384 . S
N2613 C2605 1.427 . S
N2613 C2611 1.384 . S
H2614 C2620 0.930 . S
H2615 C2624 0.930 . S
H2616 C2629 0.929 . S
H2617 C2627 0.929 . S
H2618 C2622 0.929 . S
H2619 C2628 0.929 . S
C2620 H2614 0.930 . S
C2620 C2621 1.367 . S
C2620 C2628 1.378 . S
C2621 C2620 1.367 . S
C2621 C2629 1.433 . S
C2622 H2618 0.929 . S
C2622 C2624 1.378 . S
C2622 C2626 1.350 . S
C2623 C2626 1.463 . S
C2623 C2628 1.350 . S
C2623 N2631 1.427 . S
C2624 H2615 0.930 . S
C2624 C2622 1.378 . S
C2624 C2625 1.367 . S
C2625 C2624 1.367 . S
C2625 C2627 1.433 . S
C2626 C2622 1.350 . S
C2626 C2623 1.463 . S
C2626 N2630 1.427 . S
C2627 H2617 0.929 . S
C2627 C2625 1.433 . S
C2627 N2630 1.384 . S
C2628 H2619 0.929 . S
C2628 C2620 1.378 . S
C2628 C2623 1.350 . S
C2629 H2616 0.929 . S
C2629 C2621 1.433 . S
C2629 N2631 1.384 . S
N2630 C2626 1.427 . S
N2630 C2627 1.384 . S
N2631 C2623 1.427 . S
N2631 C2629 1.384 . S
H2632 C2638 0.930 . S
H2633 C2642 0.930 . S
H2634 C2647 0.929 . S
H2635 C2645 0.929 . S
H2636 C2640 0.929 . S
H2637 C2646 0.929 . S
C2638 H2632 0.930 . S
C2638 C2639 1.367 . S
C2638 C2646 1.378 . S
C2639 C2638 1.367 . S
C2639 C2647 1.433 . S
C2640 H2636 0.929 . S
C2640 C2642 1.378 . S
C2640 C2644 1.350 . S
C2641 C2644 1.463 . S
C2641 C2646 1.350 . S
C2641 N2649 1.427 . S
C2642 H2633 0.930 . S
C2642 C2640 1.378 . S
C2642 C2643 1.367 . S
C2643 C2642 1.367 . S
C2643 C2645 1.433 . S
C2644 C2640 1.350 . S
C2644 C2641 1.463 . S
C2644 N2648 1.427 . S
C2645 H2635 0.929 . S
C2645 C2643 1.433 . S
C2645 N2648 1.384 . S
C2646 H2637 0.929 . S
C2646 C2638 1.378 . S
C2646 C2641 1.350 . S
C2647 H2634 0.929 . S
C2647 C2639 1.433 . S
C2647 N2649 1.384 . S
N2648 C2644 1.427 . S
N2648 C2645 1.384 . S
N2649 C2641 1.427 . S
N2649 C2647 1.384 . S
H2650 C2656 0.930 . S
H2651 C2660 0.930 . S
H2652 C2665 0.929 . S
H2653 C2663 0.929 . S
H2654 C2658 0.929 . S
H2655 C2664 0.929 . S
C2656 H2650 0.930 . S
C2656 C2657 1.367 . S
C2656 C2664 1.378 . S
C2657 C2656 1.367 . S
C2657 C2665 1.433 . S
C2658 H2654 0.929 . S
C2658 C2660 1.378 . S
C2658 C2662 1.350 . S
C2659 C2662 1.463 . S
C2659 C2664 1.350 . S
C2659 N2667 1.427 . S
C2660 H2651 0.930 . S
C2660 C2658 1.378 . S
C2660 C2661 1.367 . S
C2661 C2660 1.367 . S
C2661 C2663 1.433 . S
C2662 C2658 1.350 . S
C2662 C2659 1.463 . S
C2662 N2666 1.427 . S
C2663 H2653 0.929 . S
C2663 C2661 1.433 . S
C2663 N2666 1.384 . S
C2664 H2655 0.929 . S
C2664 C2656 1.378 . S
C2664 C2659 1.350 . S
C2665 H2652 0.929 . S
C2665 C2657 1.433 . S
C2665 N2667 1.384 . S
N2666 C2662 1.427 . S
N2666 C2663 1.384 . S
N2667 C2659 1.427 . S
N2667 C2665 1.384 . S
H2668 C2674 0.930 . S
H2669 C2678 0.930 . S
H2670 C2683 0.929 . S
H2671 C2681 0.929 . S
H2672 C2676 0.929 . S
H2673 C2682 0.929 . S
C2674 H2668 0.930 . S
C2674 C2675 1.367 . S
C2674 C2682 1.378 . S
C2675 C2674 1.367 . S
C2675 C2683 1.433 . S
C2676 H2672 0.929 . S
C2676 C2678 1.378 . S
C2676 C2680 1.350 . S
C2677 C2680 1.463 . S
C2677 C2682 1.350 . S
C2677 N2685 1.427 . S
C2678 H2669 0.930 . S
C2678 C2676 1.378 . S
C2678 C2679 1.367 . S
C2679 C2678 1.367 . S
C2679 C2681 1.433 . S
C2680 C2676 1.350 . S
C2680 C2677 1.463 . S
C2680 N2684 1.427 . S
C2681 H2671 0.929 . S
C2681 C2679 1.433 . S
C2681 N2684 1.384 . S
C2682 H2673 0.929 . S
C2682 C2674 1.378 . S
C2682 C2677 1.350 . S
C2683 H2670 0.929 . S
C2683 C2675 1.433 . S
C2683 N2685 1.384 . S
N2684 C2680 1.427 . S
N2684 C2681 1.384 . S
N2685 C2677 1.427 . S
N2685 C2683 1.384 . S
H2686 C2692 0.930 . S
H2687 C2696 0.930 . S
H2688 C2701 0.929 . S
H2689 C2699 0.929 . S
H2690 C2694 0.929 . S
H2691 C2700 0.929 . S
C2692 H2686 0.930 . S
C2692 C2693 1.367 . S
C2692 C2700 1.378 . S
C2693 C2692 1.367 . S
C2693 C2701 1.433 . S
C2694 H2690 0.929 . S
C2694 C2696 1.378 . S
C2694 C2698 1.350 . S
C2695 C2698 1.463 . S
C2695 C2700 1.350 . S
C2695 N2703 1.427 . S
C2696 H2687 0.930 . S
C2696 C2694 1.378 . S
C2696 C2697 1.367 . S
C2697 C2696 1.367 . S
C2697 C2699 1.433 . S
C2698 C2694 1.350 . S
C2698 C2695 1.463 . S
C2698 N2702 1.427 . S
C2699 H2689 0.929 . S
C2699 C2697 1.433 . S
C2699 N2702 1.384 . S
C2700 H2691 0.929 . S
C2700 C2692 1.378 . S
C2700 C2695 1.350 . S
C2701 H2688 0.929 . S
C2701 C2693 1.433 . S
C2701 N2703 1.384 . S
N2702 C2698 1.427 . S
N2702 C2699 1.384 . S
N2703 C2695 1.427 . S
N2703 C2701 1.384 . S
C983 C111 2.241 . S
C987 C346 2.214 . S
C1001 C64 1.970 . S
C1005 C394 2.043 . S
C1019 C77 1.246 . S
C1023 C426 1.231 . S
C1041 C471 1.384 . S
C1037 C95 1.424 . S
C1055 C25 0.739 . S
C1059 C511 0.731 . S
C1077 C546 0.906 . S
C1073 C36 0.868 . S
C1095 C585 1.219 . S
C1091 C50 1.209 . S
C1109 C11 1.131 . S
C1113 C622 1.115 . S
C1131 C354 1.984 . S
C1127 C237 1.925 1_545 S
C1145 C245 0.420 . S
C1149 C391 0.481 . S
C1167 C434 2.298 . S
C1163 C279 2.166 . S
C1185 C466 1.016 . S
C1181 C175 1.029 1_556 S
C1199 C231 1.175 . S
C1203 C506 1.157 . S
C1221 C554 0.383 . S
C1217 C251 0.651 . S
C1239 C595 1.981 1_556 S
C1235 C273 2.051 . S
C1257 C625 1.966 . S
C1253 C181 1.917 . S
C1275 C351 1.301 . S
C1271 C165 1.369 1_554 S
C1289 C288 2.076 . S
C1293 C674 2.129 . S
C1311 C711 1.120 . S
C1307 C333 1.131 . S
C1329 C742 0.700 . S
C1325 C316 0.707 . S
C1343 C123 2.651 . S
C1347 C635 2.611 . S
C1361 C137 1.307 . S
C1365 C431 1.284 . S
C1379 C330 1.645 . S
C1383 C794 1.703 . S
C1401 C826 1.805 . S
C1397 C302 1.801 . S
C1419 C355 2.297 . S
C1415 C63 2.362 . S
C1437 C825 2.102 . S
C1433 C106 2.096 . S
C1451 C97 1.279 . S
C1455 C435 1.321 . S
C1469 C81 1.460 . S
C1473 C782 1.452 . S
C1491 C502 0.876 . S
C1487 C13 0.846 . S
C1505 C55 0.997 . S
C1509 C715 1.019 . S
C1527 C594 1.110 . S
C1523 C35 1.111 . S
C1545 C871 1.284 . S
C1541 C21 1.284 . S
C1563 C345 2.104 1_556 S
C1559 C147 2.117 . S
C1581 C822 0.497 . S
C1577 C321 0.606 . S
C1595 C119 2.377 . S
C1599 C425 2.357 . S
C1613 C293 1.133 . S
C1617 C795 1.172 . S
C1631 C153 1.278 . S
C1635 C515 1.338 . S
C1653 C705 0.456 . S
C1649 C315 0.451 . S
C1667 C125 1.916 . S
C1671 C586 1.991 . S
C1685 C287 2.065 1_556 S
C1689 C874 2.048 . S
C1703 C193 1.322 . S
C1707 C342 1.319 . S
C1721 C176 2.174 . S
C1725 C665 2.171 . S
C1739 C263 1.123 . S
C1743 C542 1.127 . S
C1757 C246 0.661 . S
C1761 C751 0.647 . S
C1779 C866 2.734 . S
C1775 C277 2.781 . S
C1793 C221 1.326 . S
C1797 C422 1.328 . S
C1815 C465 1.744 . S
C1811 C260 1.754 . S
C1833 C395 1.907 . S
C1829 C204 1.784 . S
C1847 C83 2.244 . S
C1851 C906 2.214 . S
C1869 C834 2.045 . S
C1865 C92 1.976 . S
C1883 C105 1.246 . S
C1887 C946 1.231 . S
C1901 C67 1.435 . S
C1905 C791 1.391 . S
C1919 C53 0.741 . S
C1923 C671 0.739 . S
C1941 C706 0.910 . S
C1937 C8 0.870 . S
C1959 C745 1.221 . S
C1955 C22 1.211 . S
C1977 C862 1.126 . S
C1973 C39 1.126 . S
C1995 C914 1.985 . S
C1991 C265 1.923 . S
C2009 C189 0.425 . S
C2013 C831 0.488 . S
C2031 C954 2.299 . S
C2027 C209 2.164 . S
C2049 C786 1.019 . S
C2045 C217 1.030 . S
C2067 C666 1.158 . S
C2063 C259 1.173 . S
C2081 C195 0.614 . S
C2085 C714 0.408 . S
C2103 C755 1.981 . S
C2099 C203 2.051 . S
C2117 C223 1.924 . S
C2121 C865 1.970 . S
C2139 C911 1.302 . S
C2135 C319 1.372 . S
C2153 C134 2.076 . S
C2157 C514 2.129 . S
C2175 C551 1.111 . S
C2171 C151 1.130 . S
C2193 C582 0.712 . S
C2189 C162 0.712 . S
C2211 C875 2.612 . S
C2207 C305 2.649 . S
C2225 C291 1.304 . S
C2229 C951 1.290 . S
C2247 C474 1.706 . S
C2243 C148 1.653 . S
C2265 C386 1.811 . S
C2261 C120 1.796 . S
C2279 C91 2.362 . S
C2283 C915 2.291 . S
C2301 C385 2.098 . S
C2297 C78 2.099 . S
C2315 C69 1.287 . S
C2319 C955 1.322 . S
C2333 C109 1.457 . S
C2337 C462 1.448 . S
C2351 C41 0.844 . S
C2355 C662 0.868 . S
C2373 C555 1.020 . S
C2369 C27 0.981 . S
C2387 C7 1.120 . S
C2391 C754 1.108 . S
C2405 C49 1.287 . S
C2409 C631 1.279 . S
C2427 C905 2.106 . S
C2423 C329 2.115 . S
C2441 C167 0.633 . S
C2445 C382 0.494 . S
C2463 C945 2.364 1_656 S
C2459 C301 2.378 . S
C2477 C139 1.111 . S
C2481 C475 1.174 . S
C2495 C335 1.276 . S
C2499 C675 1.332 . S
C2517 C545 0.452 . S
C2513 C161 0.467 . S
C2531 C307 1.926 . S
C2535 C746 1.990 1_655 S
C2553 C634 2.042 . S
C2549 C133 2.066 . S
C2571 C902 1.328 . S
C2567 C249 1.328 . S
C2589 C505 2.167 1_565 S
C2585 C218 2.170 . S
C2603 C235 1.124 . S
C2607 C702 1.128 . S
C2625 C591 0.668 . S
C2621 C190 0.658 . S
C2639 C207 2.781 . S
C2643 C626 2.734 . S
C2657 C179 1.332 . S
C2661 C942 1.332 . S
C2679 C785 1.742 . S
C2675 C232 1.754 . S
C2697 C835 1.906 . S
C2693 C274 1.786 . S
