# Generated by pormake.
# Topology iac, (4,6)-cn, num edge types: 1
# Building blocks:
#     Node 0, Type 0, BuildingBlock: NAHDIM_clean_sbu_0, # of connection points: 4
#     Node 1, Type 0, BuildingBlock: NAHDIM_clean_sbu_0, # of connection points: 4
#     Node 2, Type 0, BuildingBlock: NAHDIM_clean_sbu_0, # of connection points: 4
#     Node 3, Type 0, BuildingBlock: NAHDIM_clean_sbu_0, # of connection points: 4
#     Node 4, Type 0, BuildingBlock: NAHDIM_clean_sbu_0, # of connection points: 4
#     Node 5, Type 0, BuildingBlock: NAHDIM_clean_sbu_0, # of connection points: 4
#     Node 6, Type 0, BuildingBlock: NAHDIM_clean_sbu_0, # of connection points: 4
#     Node 7, Type 0, BuildingBlock: NAHDIM_clean_sbu_0, # of connection points: 4
#     Node 8, Type 0, BuildingBlock: NAHDIM_clean_sbu_0, # of connection points: 4
#     Node 9, Type 0, BuildingBlock: NAHDIM_clean_sbu_0, # of connection points: 4
#     Node 10, Type 0, BuildingBlock: NAHDIM_clean_sbu_0, # of connection points: 4
#     Node 11, Type 0, BuildingBlock: NAHDIM_clean_sbu_0, # of connection points: 4
#     Node 12, Type 0, BuildingBlock: NAHDIM_clean_sbu_0, # of connection points: 4
#     Node 13, Type 0, BuildingBlock: NAHDIM_clean_sbu_0, # of connection points: 4
#     Node 14, Type 0, BuildingBlock: NAHDIM_clean_sbu_0, # of connection points: 4
#     Node 15, Type 0, BuildingBlock: NAHDIM_clean_sbu_0, # of connection points: 4
#     Node 16, Type 0, BuildingBlock: NAHDIM_clean_sbu_0, # of connection points: 4
#     Node 17, Type 0, BuildingBlock: NAHDIM_clean_sbu_0, # of connection points: 4
#     Node 18, Type 0, BuildingBlock: NAHDIM_clean_sbu_0, # of connection points: 4
#     Node 19, Type 0, BuildingBlock: NAHDIM_clean_sbu_0, # of connection points: 4
#     Node 20, Type 0, BuildingBlock: NAHDIM_clean_sbu_0, # of connection points: 4
#     Node 21, Type 0, BuildingBlock: NAHDIM_clean_sbu_0, # of connection points: 4
#     Node 22, Type 0, BuildingBlock: NAHDIM_clean_sbu_0, # of connection points: 4
#     Node 23, Type 0, BuildingBlock: NAHDIM_clean_sbu_0, # of connection points: 4
#     Node 24, Type 1, BuildingBlock: CIFDUS_clean_sbu_1, # of connection points: 6
#     Node 25, Type 1, BuildingBlock: CIFDUS_clean_sbu_1, # of connection points: 6
#     Node 26, Type 1, BuildingBlock: CIFDUS_clean_sbu_1, # of connection points: 6
#     Node 27, Type 1, BuildingBlock: CIFDUS_clean_sbu_1, # of connection points: 6
#     Node 28, Type 1, BuildingBlock: CIFDUS_clean_sbu_1, # of connection points: 6
#     Node 29, Type 1, BuildingBlock: CIFDUS_clean_sbu_1, # of connection points: 6
#     Node 30, Type 1, BuildingBlock: CIFDUS_clean_sbu_1, # of connection points: 6
#     Node 31, Type 1, BuildingBlock: CIFDUS_clean_sbu_1, # of connection points: 6
#     Node 32, Type 1, BuildingBlock: CIFDUS_clean_sbu_1, # of connection points: 6
#     Node 33, Type 1, BuildingBlock: CIFDUS_clean_sbu_1, # of connection points: 6
#     Node 34, Type 1, BuildingBlock: CIFDUS_clean_sbu_1, # of connection points: 6
#     Node 35, Type 1, BuildingBlock: CIFDUS_clean_sbu_1, # of connection points: 6
#     Node 36, Type 1, BuildingBlock: CIFDUS_clean_sbu_1, # of connection points: 6
#     Node 37, Type 1, BuildingBlock: CIFDUS_clean_sbu_1, # of connection points: 6
#     Node 38, Type 1, BuildingBlock: CIFDUS_clean_sbu_1, # of connection points: 6
#     Node 39, Type 1, BuildingBlock: CIFDUS_clean_sbu_1, # of connection points: 6
#     Edge 40, Type (0, 1), BuildingBlock: XUDNAN_clean_linker_2, # of connection points: 2
#     Edge 41, Type (0, 1), BuildingBlock: XUDNAN_clean_linker_2, # of connection points: 2
#     Edge 42, Type (0, 1), BuildingBlock: XUDNAN_clean_linker_2, # of connection points: 2
#     Edge 43, Type (0, 1), BuildingBlock: XUDNAN_clean_linker_2, # of connection points: 2
#     Edge 44, Type (0, 1), BuildingBlock: XUDNAN_clean_linker_2, # of connection points: 2
#     Edge 45, Type (0, 1), BuildingBlock: XUDNAN_clean_linker_2, # of connection points: 2
#     Edge 46, Type (0, 1), BuildingBlock: XUDNAN_clean_linker_2, # of connection points: 2
#     Edge 47, Type (0, 1), BuildingBlock: XUDNAN_clean_linker_2, # of connection points: 2
#     Edge 48, Type (0, 1), BuildingBlock: XUDNAN_clean_linker_2, # of connection points: 2
#     Edge 49, Type (0, 1), BuildingBlock: XUDNAN_clean_linker_2, # of connection points: 2
#     Edge 50, Type (0, 1), BuildingBlock: XUDNAN_clean_linker_2, # of connection points: 2
#     Edge 51, Type (0, 1), BuildingBlock: XUDNAN_clean_linker_2, # of connection points: 2
#     Edge 52, Type (0, 1), BuildingBlock: XUDNAN_clean_linker_2, # of connection points: 2
#     Edge 53, Type (0, 1), BuildingBlock: XUDNAN_clean_linker_2, # of connection points: 2
#     Edge 54, Type (0, 1), BuildingBlock: XUDNAN_clean_linker_2, # of connection points: 2
#     Edge 55, Type (0, 1), BuildingBlock: XUDNAN_clean_linker_2, # of connection points: 2
#     Edge 56, Type (0, 1), BuildingBlock: XUDNAN_clean_linker_2, # of connection points: 2
#     Edge 57, Type (0, 1), BuildingBlock: XUDNAN_clean_linker_2, # of connection points: 2
#     Edge 58, Type (0, 1), BuildingBlock: XUDNAN_clean_linker_2, # of connection points: 2
#     Edge 59, Type (0, 1), BuildingBlock: XUDNAN_clean_linker_2, # of connection points: 2
#     Edge 60, Type (0, 1), BuildingBlock: XUDNAN_clean_linker_2, # of connection points: 2
#     Edge 61, Type (0, 1), BuildingBlock: XUDNAN_clean_linker_2, # of connection points: 2
#     Edge 62, Type (0, 1), BuildingBlock: XUDNAN_clean_linker_2, # of connection points: 2
#     Edge 63, Type (0, 1), BuildingBlock: XUDNAN_clean_linker_2, # of connection points: 2
#     Edge 64, Type (0, 1), BuildingBlock: XUDNAN_clean_linker_2, # of connection points: 2
#     Edge 65, Type (0, 1), BuildingBlock: XUDNAN_clean_linker_2, # of connection points: 2
#     Edge 66, Type (0, 1), BuildingBlock: XUDNAN_clean_linker_2, # of connection points: 2
#     Edge 67, Type (0, 1), BuildingBlock: XUDNAN_clean_linker_2, # of connection points: 2
#     Edge 68, Type (0, 1), BuildingBlock: XUDNAN_clean_linker_2, # of connection points: 2
#     Edge 69, Type (0, 1), BuildingBlock: XUDNAN_clean_linker_2, # of connection points: 2
#     Edge 70, Type (0, 1), BuildingBlock: XUDNAN_clean_linker_2, # of connection points: 2
#     Edge 71, Type (0, 1), BuildingBlock: XUDNAN_clean_linker_2, # of connection points: 2
#     Edge 72, Type (0, 1), BuildingBlock: XUDNAN_clean_linker_2, # of connection points: 2
#     Edge 73, Type (0, 1), BuildingBlock: XUDNAN_clean_linker_2, # of connection points: 2
#     Edge 74, Type (0, 1), BuildingBlock: XUDNAN_clean_linker_2, # of connection points: 2
#     Edge 75, Type (0, 1), BuildingBlock: XUDNAN_clean_linker_2, # of connection points: 2
#     Edge 76, Type (0, 1), BuildingBlock: XUDNAN_clean_linker_2, # of connection points: 2
#     Edge 77, Type (0, 1), BuildingBlock: XUDNAN_clean_linker_2, # of connection points: 2
#     Edge 78, Type (0, 1), BuildingBlock: XUDNAN_clean_linker_2, # of connection points: 2
#     Edge 79, Type (0, 1), BuildingBlock: XUDNAN_clean_linker_2, # of connection points: 2
#     Edge 80, Type (0, 1), BuildingBlock: XUDNAN_clean_linker_2, # of connection points: 2
#     Edge 81, Type (0, 1), BuildingBlock: XUDNAN_clean_linker_2, # of connection points: 2
#     Edge 82, Type (0, 1), BuildingBlock: XUDNAN_clean_linker_2, # of connection points: 2
#     Edge 83, Type (0, 1), BuildingBlock: XUDNAN_clean_linker_2, # of connection points: 2
#     Edge 84, Type (0, 1), BuildingBlock: XUDNAN_clean_linker_2, # of connection points: 2
#     Edge 85, Type (0, 1), BuildingBlock: XUDNAN_clean_linker_2, # of connection points: 2
#     Edge 86, Type (0, 1), BuildingBlock: XUDNAN_clean_linker_2, # of connection points: 2
#     Edge 87, Type (0, 1), BuildingBlock: XUDNAN_clean_linker_2, # of connection points: 2
#     Edge 88, Type (0, 1), BuildingBlock: XUDNAN_clean_linker_2, # of connection points: 2
#     Edge 89, Type (0, 1), BuildingBlock: XUDNAN_clean_linker_2, # of connection points: 2
#     Edge 90, Type (0, 1), BuildingBlock: XUDNAN_clean_linker_2, # of connection points: 2
#     Edge 91, Type (0, 1), BuildingBlock: XUDNAN_clean_linker_2, # of connection points: 2
#     Edge 92, Type (0, 1), BuildingBlock: XUDNAN_clean_linker_2, # of connection points: 2
#     Edge 93, Type (0, 1), BuildingBlock: XUDNAN_clean_linker_2, # of connection points: 2
#     Edge 94, Type (0, 1), BuildingBlock: XUDNAN_clean_linker_2, # of connection points: 2
#     Edge 95, Type (0, 1), BuildingBlock: XUDNAN_clean_linker_2, # of connection points: 2
#     Edge 96, Type (0, 1), BuildingBlock: XUDNAN_clean_linker_2, # of connection points: 2
#     Edge 97, Type (0, 1), BuildingBlock: XUDNAN_clean_linker_2, # of connection points: 2
#     Edge 98, Type (0, 1), BuildingBlock: XUDNAN_clean_linker_2, # of connection points: 2
#     Edge 99, Type (0, 1), BuildingBlock: XUDNAN_clean_linker_2, # of connection points: 2
#     Edge 100, Type (0, 1), BuildingBlock: XUDNAN_clean_linker_2, # of connection points: 2
#     Edge 101, Type (0, 1), BuildingBlock: XUDNAN_clean_linker_2, # of connection points: 2
#     Edge 102, Type (0, 1), BuildingBlock: XUDNAN_clean_linker_2, # of connection points: 2
#     Edge 103, Type (0, 1), BuildingBlock: XUDNAN_clean_linker_2, # of connection points: 2
#     Edge 104, Type (0, 1), BuildingBlock: XUDNAN_clean_linker_2, # of connection points: 2
#     Edge 105, Type (0, 1), BuildingBlock: XUDNAN_clean_linker_2, # of connection points: 2
#     Edge 106, Type (0, 1), BuildingBlock: XUDNAN_clean_linker_2, # of connection points: 2
#     Edge 107, Type (0, 1), BuildingBlock: XUDNAN_clean_linker_2, # of connection points: 2
#     Edge 108, Type (0, 1), BuildingBlock: XUDNAN_clean_linker_2, # of connection points: 2
#     Edge 109, Type (0, 1), BuildingBlock: XUDNAN_clean_linker_2, # of connection points: 2
#     Edge 110, Type (0, 1), BuildingBlock: XUDNAN_clean_linker_2, # of connection points: 2
#     Edge 111, Type (0, 1), BuildingBlock: XUDNAN_clean_linker_2, # of connection points: 2
#     Edge 112, Type (0, 1), BuildingBlock: XUDNAN_clean_linker_2, # of connection points: 2
#     Edge 113, Type (0, 1), BuildingBlock: XUDNAN_clean_linker_2, # of connection points: 2
#     Edge 114, Type (0, 1), BuildingBlock: XUDNAN_clean_linker_2, # of connection points: 2
#     Edge 115, Type (0, 1), BuildingBlock: XUDNAN_clean_linker_2, # of connection points: 2
#     Edge 116, Type (0, 1), BuildingBlock: XUDNAN_clean_linker_2, # of connection points: 2
#     Edge 117, Type (0, 1), BuildingBlock: XUDNAN_clean_linker_2, # of connection points: 2
#     Edge 118, Type (0, 1), BuildingBlock: XUDNAN_clean_linker_2, # of connection points: 2
#     Edge 119, Type (0, 1), BuildingBlock: XUDNAN_clean_linker_2, # of connection points: 2
#     Edge 120, Type (0, 1), BuildingBlock: XUDNAN_clean_linker_2, # of connection points: 2
#     Edge 121, Type (0, 1), BuildingBlock: XUDNAN_clean_linker_2, # of connection points: 2
#     Edge 122, Type (0, 1), BuildingBlock: XUDNAN_clean_linker_2, # of connection points: 2
#     Edge 123, Type (0, 1), BuildingBlock: XUDNAN_clean_linker_2, # of connection points: 2
#     Edge 124, Type (0, 1), BuildingBlock: XUDNAN_clean_linker_2, # of connection points: 2
#     Edge 125, Type (0, 1), BuildingBlock: XUDNAN_clean_linker_2, # of connection points: 2
#     Edge 126, Type (0, 1), BuildingBlock: XUDNAN_clean_linker_2, # of connection points: 2
#     Edge 127, Type (0, 1), BuildingBlock: XUDNAN_clean_linker_2, # of connection points: 2
#     Edge 128, Type (0, 1), BuildingBlock: XUDNAN_clean_linker_2, # of connection points: 2
#     Edge 129, Type (0, 1), BuildingBlock: XUDNAN_clean_linker_2, # of connection points: 2
#     Edge 130, Type (0, 1), BuildingBlock: XUDNAN_clean_linker_2, # of connection points: 2
#     Edge 131, Type (0, 1), BuildingBlock: XUDNAN_clean_linker_2, # of connection points: 2
#     Edge 132, Type (0, 1), BuildingBlock: XUDNAN_clean_linker_2, # of connection points: 2
#     Edge 133, Type (0, 1), BuildingBlock: XUDNAN_clean_linker_2, # of connection points: 2
#     Edge 134, Type (0, 1), BuildingBlock: XUDNAN_clean_linker_2, # of connection points: 2
#     Edge 135, Type (0, 1), BuildingBlock: XUDNAN_clean_linker_2, # of connection points: 2
# Relax obj value: 0.111
# Max RMSD: 0.169
# Mean RMSD: 0.132
data_MOF--net-iac--node1-NAHDIM_clean_sbu_0--node2-CIFDUS_clean_sbu_1--edge1-XUDNAN_clean_linker_2
_symmetry_space_group_name_H-M    P1
_symmetry_Int_Tables_number       1
_symmetry_cell_setting            triclinic
loop_
_symmetry_equiv_pos_as_xyz
'x, y, z'
_cell_length_a     55.807441
_cell_length_b     54.088499
_cell_length_c     53.195591
_cell_angle_alpha  89.703629
_cell_angle_beta   90.217838
_cell_angle_gamma 90.645588
loop_
_atom_site_label
_atom_site_type_symbol
_atom_site_fract_x
_atom_site_fract_y
_atom_site_fract_z
_atom_type_partial_charge
C0 C 0.94183 0.24844 0.13781 0.0
O1 O 0.94211 0.2324 0.11937 0.0
O2 O -0.00355 0.22341 0.10749 0.0
Zn3 Zn -0.00731 0.25757 0.12426 0.0
O4 O -0.0079 0.28761 0.10043 0.0
C5 C 0.03873 0.24771 0.1493 0.0
O6 O 0.03981 0.22993 0.13264 0.0
O7 O 0.96109 0.25998 0.14355 0.0
C8 C -0.0036 0.28934 0.077 0.0
O9 O 0.00364 0.26982 0.06472 0.0
C10 C 0.988 0.21512 0.08686 0.0
O11 O 0.97405 0.22924 0.07315 0.0
O12 O 0.02059 0.26187 0.14922 0.0
C13 C 0.04671 0.7407 0.34697 0.0
O14 O 0.04936 0.73407 0.37059 0.0
O15 O 0.00044 0.71981 0.38795 0.0
Zn16 Zn 0.00043 0.75034 0.36585 0.0
O17 O 0.00619 0.77961 0.38775 0.0
C18 C 0.95194 0.7383 0.34749 0.0
O19 O 0.95763 0.71499 0.3507 0.0
O20 O 0.0265 0.74852 0.33948 0.0
C21 C -0.00162 0.80082 0.38167 0.0
O22 O 0.98794 0.80388 0.35971 0.0
C23 C 0.98737 0.71819 0.40747 0.0
O24 O 0.97327 0.73661 0.41312 0.0
O25 O 0.96755 0.75512 0.3514 0.0
C26 C 0.4357 0.75317 0.62743 0.0
O27 O 0.43779 0.75271 0.60284 0.0
O28 O 0.49159 0.7198 0.60359 0.0
Zn29 Zn 0.48773 0.75182 0.62406 0.0
O30 O 0.48943 0.78376 0.60269 0.0
C31 C 0.53202 0.73953 0.65342 0.0
O32 O 0.53374 0.72058 0.63822 0.0
O33 O 0.45465 0.75219 0.64086 0.0
C34 C 0.50628 0.79937 0.6067 0.0
O35 O 0.52364 0.79329 0.62218 0.0
C36 C 0.5017 0.7185 0.5822 0.0
O37 O 0.50978 0.73893 0.57161 0.0
O38 O 0.51409 0.75384 0.65127 0.0
C39 C 0.54177 0.24784 0.834 0.0
O40 O 0.53809 0.27161 0.83683 0.0
O41 O 0.49707 0.21746 0.89245 0.0
Zn42 Zn 0.49812 0.24149 0.86355 0.0
O43 O 0.50133 0.277 0.87433 0.0
C44 C 0.44947 0.25087 0.8491 0.0
O45 O 0.45283 0.26993 0.86386 0.0
O46 O 0.52668 0.23231 0.84281 0.0
C47 C 0.4927 0.28436 0.89496 0.0
O48 O 0.482 0.26837 0.90995 0.0
C49 C 0.50744 0.21779 0.91376 0.0
O50 O 0.52119 0.23664 0.92006 0.0
O51 O 0.46676 0.23632 0.84496 0.0
C52 C 0.12948 0.94524 0.25247 0.0
O53 O 0.10613 0.94751 0.25061 0.0
O54 O 0.09918 0.99391 0.22411 0.0
Zn55 Zn 0.12219 -0.00385 0.25348 0.0
O56 O 0.10468 0.99511 0.28669 0.0
C57 C 0.14902 0.04129 0.23351 0.0
O58 O 0.15183 0.02995 0.21197 0.0
O59 O 0.1424 0.96486 0.25352 0.0
C60 C 0.11576 0.00333 0.30594 0.0
O61 O 0.13728 0.01301 0.30312 0.0
C62 C 0.08259 0.00935 0.22002 0.0
O63 O 0.0796 0.02762 0.23584 0.0
O64 O 0.13905 0.02992 0.2518 0.0
C65 C 0.19533 0.90288 0.50007 0.0
O66 O 0.19212 0.88045 0.49128 0.0
O67 O 0.24006 0.86004 0.52514 0.0
Zn68 Zn 0.24227 0.88674 0.49882 0.0
O69 O 0.23948 0.8738 0.46414 0.0
C70 C 0.29135 0.89189 0.51218 0.0
O71 O 0.28743 0.87048 0.52318 0.0
O72 O 0.21629 0.91062 0.50518 0.0
C73 C 0.25413 0.85721 0.45796 0.0
O74 O 0.26923 0.84854 0.47473 0.0
C75 C 0.2344 0.83733 0.52297 0.0
O76 O 0.2278 0.82854 0.50102 0.0
O77 O 0.27441 0.90305 0.50109 0.0
C78 C 0.34648 0.0428 0.73524 0.0
O79 O 0.36856 0.04894 0.72914 0.0
O80 O 0.39254 0.00416 0.71333 0.0
Zn81 Zn 0.36911 -0.00257 0.74125 0.0
O82 O 0.3852 0.0023 0.77413 0.0
C83 C 0.36909 0.94437 0.74329 0.0
O84 O 0.39103 0.94727 0.75181 0.0
O85 O 0.34157 0.02054 0.74073 0.0
C86 C 0.38015 0.99047 0.79412 0.0
O87 O 0.36385 0.97277 0.79379 0.0
C88 C 0.4137 -0.00411 0.71528 0.0
O89 O 0.42023 0.98429 0.73587 0.0
O90 O 0.35667 0.96318 0.73788 0.0
C91 C 0.3021 0.11096 -0.00197 0.0
O92 O 0.29915 0.13489 -0.00017 0.0
O93 O 0.2516 0.13639 0.02884 0.0
Zn94 Zn 0.25271 0.11733 -0.00472 0.0
O95 O 0.2568 0.13986 0.96498 0.0
C96 C 0.20509 0.095 0.00543 0.0
O97 O 0.20905 0.10247 0.02855 0.0
O98 O 0.28359 0.09708 -0.00432 0.0
C99 C 0.24376 0.15833 0.96001 0.0
O100 O 0.22635 0.16419 0.97536 0.0
C101 C 0.25911 0.15866 0.03024 0.0
O102 O 0.26582 0.17008 0.00957 0.0
O103 O 0.22147 0.09801 0.98904 0.0
C104 C 0.70295 0.41858 0.00834 0.0
O105 O 0.702 0.40302 0.02735 0.0
O106 O 0.74162 0.37229 0.0282 0.0
Zn107 Zn 0.74399 0.38967 -0.00503 0.0
O108 O 0.73781 0.36772 0.96588 0.0
C109 C 0.79483 0.39215 0.00212 0.0
O110 O 0.79114 0.37083 0.01336 0.0
O111 O 0.71975 0.41682 0.99244 0.0
C112 C 0.75308 0.35238 0.95821 0.0
O113 O 0.77306 0.34932 0.97085 0.0
C114 C 0.74449 0.34956 0.03338 0.0
O115 O 0.74787 0.33362 0.01524 0.0
O116 O 0.77728 0.40397 0.99291 0.0
C117 C 0.84828 0.54403 0.23614 0.0
O118 O 0.86859 0.54751 0.22416 0.0
O119 O 0.89315 0.50258 0.21951 0.0
Zn120 Zn 0.87011 0.4984 0.24796 0.0
O121 O 0.88644 0.50081 0.28108 0.0
C122 C 0.8525 0.44995 0.23002 0.0
O123 O 0.85791 0.4564 0.20687 0.0
O124 O 0.84451 0.52374 0.24751 0.0
C125 C 0.89257 0.48085 0.29187 0.0
O126 O 0.89141 0.45993 0.27954 0.0
C127 C 0.91004 0.48751 0.21573 0.0
O128 O 0.91269 0.46855 0.23095 0.0
O129 O 0.85517 0.46516 0.24782 0.0
C130 C 0.80046 0.60443 0.48448 0.0
O131 O 0.79642 0.6282 0.48232 0.0
O132 O 0.75259 0.62606 0.524 0.0
Zn133 Zn 0.75155 0.60971 0.48931 0.0
O134 O 0.75249 0.63383 0.45987 0.0
C135 C 0.70219 0.60316 0.49608 0.0
O136 O 0.70682 0.62534 0.50493 0.0
O137 O 0.78253 0.58978 0.48695 0.0
C138 C 0.74594 0.65624 0.45961 0.0
O139 O 0.73634 0.66582 0.47979 0.0
C140 C 0.76219 0.6464 0.5309 0.0
O141 O 0.77339 0.66038 0.51435 0.0
O142 O 0.71951 0.59068 0.48732 0.0
C143 C 0.64213 0.44861 0.74714 0.0
O144 O 0.61999 0.44558 0.73917 0.0
O145 O 0.60099 0.49291 0.72374 0.0
Zn146 Zn 0.62405 0.49728 0.75275 0.0
O147 O 0.6064 0.49505 0.78595 0.0
C148 C 0.64983 0.54282 0.73292 0.0
O149 O 0.65816 0.52972 0.71424 0.0
O150 O 0.6492 0.47019 0.75339 0.0
C151 C 0.61569 0.50734 0.8039 0.0
O152 O 0.63508 0.52064 0.7995 0.0
C153 C 0.58705 0.51077 0.71887 0.0
O154 O 0.58762 0.53027 0.7335 0.0
O155 O 0.63718 0.53241 0.74986 0.0
C156 C 0.04592 0.74253 0.8408 0.0
O157 O 0.03754 0.71993 0.83791 0.0
O158 O -0.00241 0.72245 0.88515 0.0
Zn159 Zn -0.00141 0.7549 0.86483 0.0
O160 O -0.0063 0.78605 0.88627 0.0
C161 C 0.95072 0.74824 0.8459 0.0
O162 O 0.94826 0.74217 0.8697 0.0
O163 O 0.03244 0.759 0.85014 0.0
C164 C 0.97918 0.78953 0.90432 0.0
O165 O 0.9655 0.7711 0.91201 0.0
C166 C 0.01515 0.71527 0.89863 0.0
O167 O 0.03403 0.72983 0.90087 0.0
O168 O 0.9716 0.75419 0.83807 0.0
C169 C 0.95303 0.23753 0.65045 0.0
O170 O 0.94919 0.22451 0.63002 0.0
O171 O -0.00583 0.21381 0.60651 0.0
Zn172 Zn -0.00222 0.24604 0.62591 0.0
O173 O 0.99117 0.27537 0.60349 0.0
C174 C 0.04753 0.23507 0.62953 0.0
O175 O 0.04236 0.22291 0.60891 0.0
O176 O 0.97338 0.24782 0.65364 0.0
C177 C 0.00596 0.28851 0.59096 0.0
O178 O 0.02893 0.28353 0.59199 0.0
C179 C -0.00525 0.21475 0.58265 0.0
O180 O -0.00465 0.23645 0.57151 0.0
O181 O 0.03136 0.24746 0.64035 0.0
C182 C 0.54274 0.23246 0.34875 0.0
O183 O 0.53113 0.21138 0.35165 0.0
O184 O 0.49681 0.22099 0.39243 0.0
Zn185 Zn 0.49939 0.2529 0.3717 0.0
O186 O 0.49761 0.28427 0.39312 0.0
C187 C 0.45623 0.23799 0.3429 0.0
O188 O 0.45849 0.2172 0.35553 0.0
O189 O 0.53241 0.25249 0.35481 0.0
C190 C 0.4787 0.29119 0.40434 0.0
O191 O 0.45959 0.27678 0.40381 0.0
C192 C 0.5135 0.21473 0.40751 0.0
O193 O 0.53146 0.2302 0.41132 0.0
O194 O 0.47182 0.2551 0.34606 0.0
C195 C 0.45275 0.73485 0.15933 0.0
O196 O 0.44978 0.71558 0.1447 0.0
O197 O 0.49308 0.71425 0.10962 0.0
Zn198 Zn 0.49742 0.74481 0.1304 0.0
O199 O 0.49679 0.77636 0.11008 0.0
C200 C 0.54774 0.74482 0.13183 0.0
O201 O 0.54394 0.74916 0.10784 0.0
O202 O 0.47147 0.74832 0.15693 0.0
C203 C 0.5009 0.78211 0.08726 0.0
O204 O 0.50663 0.76493 0.07106 0.0
C205 C 0.47617 0.71093 0.09398 0.0
O206 O 0.46043 0.72851 0.09043 0.0
O207 O 0.5299 0.74232 0.14644 0.0
C208 C 0.84347 0.04646 0.72774 0.0
O209 O 0.86546 0.05078 0.72001 0.0
O210 O 0.88596 0.0013 0.71288 0.0
Zn211 Zn 0.86443 0.00029 0.74359 0.0
O212 O 0.88455 0.0089 0.77417 0.0
C213 C 0.8545 0.94749 0.73679 0.0
O214 O 0.87013 0.94962 0.71849 0.0
O215 O 0.83865 0.02599 0.73864 0.0
C216 C 0.89256 0.99221 0.78883 0.0
O217 O 0.8868 0.96898 0.78468 0.0
C218 C 0.90854 -0.00062 0.71542 0.0
O219 O 0.91747 0.995 0.73785 0.0
O220 O 0.84905 0.96652 0.74937 0.0
C221 C 0.78944 0.092 0.50248 0.0
O222 O 0.79149 0.11614 0.50276 0.0
O223 O 0.74661 0.12815 0.53117 0.0
Zn224 Zn 0.74219 0.10649 0.50128 0.0
O225 O 0.74221 0.1247 0.46841 0.0
C226 C 0.69352 0.10534 0.50783 0.0
O227 O 0.69837 0.12909 0.50899 0.0
O228 O 0.76882 0.08199 0.50114 0.0
C229 C 0.73461 0.14616 0.46297 0.0
O230 O 0.72617 0.16047 0.48063 0.0
C231 C 0.75775 0.14869 0.53196 0.0
O232 O 0.76715 0.15814 0.5114 0.0
O233 O 0.71043 0.09014 0.50497 0.0
C234 C 0.64508 0.95697 0.23996 0.0
O235 O 0.63073 0.95949 0.22057 0.0
O236 O 0.60309 -0.0026 0.22228 0.0
Zn237 Zn 0.62263 0.00204 0.2534 0.0
O238 O 0.60008 0.00387 0.28212 0.0
C239 C 0.65035 0.03894 0.22839 0.0
O240 O 0.64812 0.02321 0.20977 0.0
O241 O 0.64479 0.97289 0.25746 0.0
C242 C 0.58903 0.02353 0.28757 0.0
O243 O 0.59349 0.04393 0.27484 0.0
C244 C 0.59252 0.01399 0.20967 0.0
O245 O 0.5927 0.03691 0.2177 0.0
O246 O 0.64144 0.03349 0.24968 0.0
C247 C 0.69322 0.90603 0.01747 0.0
O248 O 0.70156 0.90612 0.04059 0.0
O249 O 0.73738 0.86075 0.03532 0.0
Zn250 Zn 0.73773 0.87998 0.00271 0.0
O251 O 0.73781 0.85743 0.97238 0.0
C252 C 0.78325 0.90405 0.0183 0.0
O253 O 0.777 0.89727 0.04112 0.0
O254 O 0.70622 0.89809 -0.00031 0.0
C255 C 0.75733 0.84879 0.96414 0.0
O256 O 0.77713 0.85264 0.97705 0.0
C257 C 0.72333 0.84239 0.03867 0.0
O258 O 0.70936 0.83516 0.02012 0.0
O259 O 0.76867 0.90048 0.00014 0.0
C260 C 0.29033 0.58301 0.00474 0.0
O261 O 0.29212 0.59597 0.02549 0.0
O262 O 0.25638 0.63596 0.02462 0.0
Zn263 Zn 0.24921 0.61481 -0.00555 0.0
O264 O 0.24968 0.63732 0.96451 0.0
C265 C 0.20552 0.58662 0.00978 0.0
O266 O 0.2185 0.57474 0.02648 0.0
O267 O 0.27331 0.58747 0.98945 0.0
C268 C 0.24 0.65848 0.96555 0.0
O269 O 0.23086 0.66605 0.98685 0.0
C270 C 0.243 0.63716 0.04386 0.0
O271 O 0.22376 0.62314 0.04548 0.0
O272 O 0.21536 0.60249 -0.00459 0.0
C273 C 0.1435 0.45383 0.74683 0.0
O274 O 0.12289 0.45176 0.73504 0.0
O275 O 0.10848 0.49528 0.72107 0.0
Zn276 Zn 0.12546 0.50118 0.75334 0.0
O277 O 0.10196 0.5017 0.78111 0.0
C278 C 0.14981 0.53905 0.72755 0.0
O279 O 0.14841 0.52228 0.70982 0.0
O280 O 0.14901 0.47384 0.75792 0.0
C281 C 0.09125 0.52132 0.78732 0.0
O282 O 0.09641 0.54223 0.77577 0.0
C283 C 0.09104 0.508 0.71337 0.0
O284 O 0.08194 0.52489 0.72805 0.0
O285 O 0.14193 0.53389 0.74935 0.0
C286 C 0.19181 0.40938 0.50922 0.0
O287 O 0.19206 0.3996 0.53187 0.0
O288 O 0.23442 0.36812 0.53482 0.0
Zn289 Zn 0.23881 0.38534 0.5012 0.0
O290 O 0.24045 0.36283 0.47032 0.0
C291 C 0.29013 0.40014 0.49631 0.0
O292 O 0.29138 0.38211 0.47996 0.0
O293 O 0.20987 0.40681 0.49489 0.0
C294 C 0.25182 0.34265 0.46978 0.0
O295 O 0.26283 0.33519 0.49029 0.0
C296 C 0.22554 0.34736 0.54145 0.0
O297 O 0.21717 0.33211 0.52431 0.0
O298 O 0.26991 0.40539 0.50591 0.0
C299 C 0.34833 0.547 0.21625 0.0
O300 O 0.35478 0.53783 0.19453 0.0
O301 O 0.38647 0.49419 0.20967 0.0
Zn302 Zn 0.36722 0.50119 0.23997 0.0
O303 O 0.39064 0.50182 0.26882 0.0
C304 C 0.3502 0.45103 0.24721 0.0
O305 O 0.373 0.44652 0.24349 0.0
O306 O 0.35142 0.5345 0.23639 0.0
C307 C 0.38443 0.49438 0.29053 0.0
O308 O 0.36215 0.48721 0.29427 0.0
C309 C 0.40118 0.50936 0.19965 0.0
O310 O 0.40387 0.53178 0.20867 0.0
O311 O 0.34304 0.4733 0.24603 0.0
O312 O 0.02642 0.01972 -0.006 0.0
Mn313 Mn -0.00554 -0.00092 -0.00028 0.0
O314 O 0.05675 0.99254 -0.00568 0.0
Mn315 Mn 0.03896 0.96623 0.00674 0.0
O316 O 0.96297 0.97757 0.005 0.0
O317 O 0.97811 0.0319 0.00785 0.0
Mn318 Mn 0.94903 0.02887 -0.00544 0.0
O319 O 0.98598 0.00271 0.96157 0.0
O320 O 0.9325 0.00343 0.0101 0.0
O321 O 0.00307 -0.0045 0.03796 0.0
O322 O 0.03289 0.96798 0.04094 0.0
O323 O 0.94932 0.05943 0.00837 0.0
O324 O 0.95284 0.02608 0.96013 0.0
C325 C 0.01552 0.94515 0.9829 0.0
C326 C 0.04876 0.01435 0.99164 0.0
C327 C 0.94093 0.98178 0.01027 0.0
C328 C 0.97117 0.05397 0.01432 0.0
C329 C 0.96938 0.014 0.94947 0.0
C330 C 0.01798 0.98264 0.05099 0.0
O331 O 0.01082 0.96691 0.99158 0.0
O332 O 0.03633 0.93691 0.9894 0.0
O333 O 0.28497 0.75725 0.23994 0.0
Mn334 Mn 0.24801 0.75263 0.24533 0.0
O335 O 0.2917 0.79484 0.22368 0.0
Mn336 Mn 0.26114 0.79602 0.21022 0.0
O337 O 0.21076 0.74675 0.25083 0.0
O338 O 0.25638 0.7173 0.2576 0.0
Mn339 Mn 0.24194 0.71832 0.28751 0.0
O340 O 0.25165 0.76905 0.28044 0.0
O341 O 0.20948 0.72049 0.28358 0.0
O342 O 0.2454 0.73962 0.20831 0.0
O343 O 0.25521 0.77339 0.185 0.0
O344 O 0.25368 0.68805 0.28732 0.0
O345 O 0.25596 0.74013 0.30944 0.0
C346 C 0.23168 0.80905 0.23153 0.0
C347 C 0.29924 0.7748 0.23321 0.0
C348 C 0.19912 0.73326 0.26681 0.0
C349 C 0.26166 0.69489 0.26544 0.0
C350 C 0.25641 0.76258 0.30296 0.0
C351 C 0.24939 0.75052 0.18702 0.0
O352 O 0.2408 0.78728 0.23379 0.0
O353 O 0.24197 0.82303 0.21486 0.0
O354 O 0.45706 0.9844 0.49269 0.0
Mn355 Mn 0.49039 0.00179 0.49395 0.0
O356 O 0.42893 0.01356 0.49572 0.0
Mn357 Mn 0.44976 0.03778 0.50721 0.0
O358 O 0.52369 0.0186 0.49563 0.0
O359 O 0.50492 0.96772 0.4982 0.0
Mn360 Mn 0.52921 0.96542 0.47719 0.0
O361 O 0.49329 0.00061 0.45494 0.0
O362 O 0.55116 0.98956 0.48715 0.0
O363 O 0.4871 0.00398 0.53293 0.0
O364 O 0.45969 0.03342 0.54021 0.0
O365 O 0.52786 0.93559 0.49367 0.0
O366 O 0.51734 0.9693 0.44496 0.0
C367 C 0.47244 0.05837 0.48247 0.0
C368 C 0.43517 0.9912 0.49292 0.0
C369 C 0.54537 0.01147 0.49324 0.0
C370 C 0.51034 0.94557 0.50566 0.0
C371 C 0.50375 0.98707 0.4387 0.0
C372 C 0.47477 0.01744 0.54788 0.0
O373 O 0.47607 0.0357 0.48937 0.0
O374 O 0.45305 0.06789 0.49126 0.0
O375 O 0.27371 0.25246 0.77086 0.0
Mn376 Mn 0.24258 0.24761 0.74956 0.0
O377 O 0.30452 0.25581 0.74385 0.0
Mn378 Mn 0.28766 0.24472 0.71606 0.0
O379 O 0.21154 0.24132 0.72824 0.0
O380 O 0.22574 0.23891 0.78174 0.0
Mn381 Mn 0.19628 0.25021 0.78163 0.0
O382 O 0.2331 0.28402 0.75386 0.0
O383 O 0.1815 0.2337 0.75545 0.0
O384 O 0.25188 0.21062 0.74474 0.0
O385 O 0.28153 0.21118 0.71608 0.0
O386 O 0.20114 0.23631 0.81297 0.0
O387 O 0.19945 0.28435 0.77727 0.0
C388 C 0.26372 0.26801 0.69601 0.0
C389 C 0.29607 0.25551 0.76605 0.0
C390 C 0.19013 0.23396 0.73333 0.0
C391 C 0.22261 0.23254 0.80489 0.0
C392 C 0.21591 0.29527 0.76464 0.0
C393 C 0.26681 0.19962 0.73034 0.0
O394 O 0.25923 0.25788 0.71757 0.0
O395 O 0.28463 0.26314 0.68703 0.0
O396 O 0.98704 0.96291 0.48349 0.0
Mn397 Mn -0.00656 -0.00157 0.49835 0.0
O398 O 0.97018 0.94235 0.51396 0.0
Mn399 Mn -0.00694 0.9579 0.53309 0.0
O400 O 0.00023 0.035 0.5093 0.0
O401 O -0.00184 0.00799 0.46222 0.0
Mn402 Mn 0.97894 0.03242 0.45415 0.0
O403 O 0.95739 0.00612 0.49687 0.0
O404 O 0.98975 0.05764 0.47504 0.0
O405 O 0.02937 0.98968 0.50219 0.0
O406 O 0.0249 0.95436 0.52441 0.0
O407 O -0.0042 0.02518 0.42538 0.0
O408 O 0.94753 0.02229 0.45966 0.0
C409 C 0.98456 0.98339 0.55951 0.0
C410 C 0.97524 0.944 0.49106 0.0
C411 C -0.00203 0.05575 0.49748 0.0
C412 C 0.00654 0.00935 0.4397 0.0
C413 C 0.94181 0.01387 0.48118 0.0
C414 C 0.03794 0.97051 0.51324 0.0
O415 O 0.9879 0.99001 0.53597 0.0
O416 O 0.98672 0.9603 0.56569 0.0
O417 O 0.2618 0.78274 0.75144 0.0
Mn418 Mn 0.2447 0.75 0.74461 0.0
O419 O 0.23816 0.81223 0.73512 0.0
Mn420 Mn 0.21138 0.7924 0.72855 0.0
O421 O 0.22785 0.71634 0.73705 0.0
O422 O 0.27731 0.73517 0.74057 0.0
Mn423 Mn 0.27931 0.70674 0.75627 0.0
O424 O 0.24414 0.74181 0.78308 0.0
O425 O 0.25684 0.68744 0.73959 0.0
O426 O 0.24499 0.75759 0.70579 0.0
O427 O 0.21136 0.77826 0.6972 0.0
O428 O 0.30925 0.71299 0.74256 0.0
O429 O 0.27226 0.71284 0.78956 0.0
C430 C 0.19355 0.77493 0.75965 0.0
C431 C 0.25776 0.80513 0.74518 0.0
C432 C 0.23561 0.69425 0.73415 0.0
C433 C 0.29932 0.73268 0.73367 0.0
C434 C 0.25584 0.72704 0.79745 0.0
C435 C 0.22964 0.76636 0.69014 0.0
O436 O 0.21312 0.76716 0.74957 0.0
O437 O 0.18467 0.79416 0.74864 0.0
O438 O 0.47863 0.99495 0.96144 0.0
Mn439 Mn 0.49461 -0.00161 -0.00343 0.0
O440 O 0.50718 0.00584 0.93335 0.0
Mn441 Mn 0.53173 0.01265 0.95591 0.0
O442 O 0.51012 0.00183 0.03155 0.0
O443 O 0.46208 0.00472 0.01142 0.0
Mn444 Mn 0.45641 0.98332 0.03556 0.0
O445 O 0.49269 0.95995 0.0036 0.0
O446 O 0.48144 0.98836 0.0585 0.0
O447 O 0.49728 0.03673 0.99089 0.0
O448 O 0.5307 0.04423 0.96861 0.0
O449 O 0.42997 0.0033 0.03444 0.0
O450 O 0.45613 0.95364 0.01873 0.0
C451 C 0.54789 0.98356 0.97698 0.0
C452 C 0.48578 -0.00067 0.93894 0.0
C453 C 0.50262 -0.00373 0.05363 0.0
C454 C 0.44143 0.01406 0.01629 0.0
C455 C 0.47618 0.94531 0.01183 0.0
C456 C 0.5129 0.05158 0.9813 0.0
O457 O 0.52712 0.99268 0.98167 0.0
O458 O 0.55881 0.99362 0.95804 0.0
O459 O 0.28241 0.24674 0.25664 0.0
Mn460 Mn 0.24488 0.24821 0.2502 0.0
O461 O 0.28933 0.21068 0.27628 0.0
Mn462 Mn 0.25826 0.20664 0.28733 0.0
O463 O 0.2075 0.24976 0.24404 0.0
O464 O 0.24917 0.28387 0.23818 0.0
Mn465 Mn 0.23381 0.28581 0.209 0.0
O466 O 0.25015 0.23354 0.21374 0.0
O467 O 0.20172 0.27922 0.21464 0.0
O468 O 0.24163 0.26182 0.28742 0.0
O469 O 0.24981 0.2288 0.31207 0.0
O470 O 0.24565 0.31685 0.2141 0.0
O471 O 0.24877 0.26532 0.18664 0.0
C472 C 0.23115 0.19075 0.26401 0.0
C473 C 0.29686 0.23065 0.2661 0.0
C474 C 0.19381 0.26281 0.22977 0.0
C475 C 0.25396 0.30726 0.23467 0.0
C476 C 0.25283 0.24276 0.19157 0.0
C477 C 0.24523 0.25175 0.30921 0.0
O478 O 0.23961 0.21303 0.2617 0.0
O479 O 0.24095 0.17799 0.28185 0.0
O480 O 0.49363 0.46709 0.97149 0.0
Mn481 Mn 0.49459 0.49926 0.9933 0.0
O482 O 0.50967 0.43837 -0.00415 0.0
Mn483 Mn 0.51357 0.45997 0.02176 0.0
O484 O 0.49335 0.53277 0.01287 0.0
O485 O 0.49848 0.51749 0.96079 0.0
Mn486 Mn 0.47651 0.5397 0.95613 0.0
O487 O 0.45685 0.50036 0.99064 0.0
O488 O 0.47983 0.56022 0.98379 0.0
O489 O 0.5329 0.4998 -0.00524 0.0
O490 O 0.5426 0.4744 0.02558 0.0
O491 O 0.49645 0.54176 0.92841 0.0
O492 O 0.44821 0.52183 0.9555 0.0
C493 C 0.48859 0.46577 0.04785 0.0
C494 C 0.50007 0.44484 0.97541 0.0
C495 C 0.48627 0.55448 0.00616 0.0
C496 C 0.50773 0.52413 0.93969 0.0
C497 C 0.44191 0.50819 0.97393 0.0
C498 C 0.54859 0.49052 0.00973 0.0
O499 O 0.48916 0.48032 0.02767 0.0
O500 O 0.50343 0.44757 0.04992 0.0
O501 O 0.7582 0.28259 0.26302 0.0
Mn502 Mn 0.7435 0.25036 0.24944 0.0
O503 O 0.73577 0.31016 0.2428 0.0
Mn504 Mn 0.70886 0.29037 0.2373 0.0
O505 O 0.72998 0.21733 0.23603 0.0
O506 O 0.77756 0.23849 0.24301 0.0
Mn507 Mn 0.78045 0.21143 0.26129 0.0
O508 O 0.74156 0.23567 0.286 0.0
O509 O 0.7571 0.18946 0.24949 0.0
O510 O 0.74448 0.26484 0.21247 0.0
O511 O 0.70776 0.27871 0.2051 0.0
O512 O 0.80911 0.21469 0.24534 0.0
O513 O 0.77766 0.22105 0.29417 0.0
C514 C 0.69401 0.27275 0.26957 0.0
C515 C 0.75449 0.30441 0.255 0.0
C516 C 0.73737 0.19513 0.23878 0.0
C517 C 0.79936 0.23418 0.23568 0.0
C518 C 0.7569 0.22673 0.30142 0.0
C519 C 0.72835 0.27282 0.19716 0.0
O520 O 0.70899 0.262 0.25448 0.0
O521 O 0.68625 0.29377 0.26133 0.0
O522 O 0.96823 0.49459 0.47219 0.0
Mn523 Mn -0.00735 0.50104 0.50058 0.0
O524 O 0.98682 0.50962 0.43856 0.0
Mn525 Mn 0.01581 0.51285 0.45493 0.0
O526 O 0.01598 0.50684 0.53042 0.0
O527 O 0.9643 0.50974 0.52158 0.0
Mn528 Mn 0.96483 0.49555 0.55113 0.0
O529 O 0.98918 0.46359 0.51069 0.0
O530 O -0.00709 0.50762 0.56527 0.0
O531 O -0.00548 0.53959 0.49218 0.0
O532 O 0.02363 0.54395 0.46482 0.0
O533 O 0.93718 0.51423 0.55004 0.0
O534 O 0.96404 0.46215 0.54387 0.0
C535 C 0.03936 0.48551 0.46246 0.0
C536 C 0.96837 0.50072 0.44913 0.0
C537 C 0.013 0.51011 0.55407 0.0
C538 C 0.94439 0.51983 0.52765 0.0
C539 C 0.97635 0.45167 0.52689 0.0
C540 C 0.009 0.5535 0.47966 0.0
O541 O 0.02213 0.49022 0.47878 0.0
O542 O 0.03978 0.49733 0.44115 0.0
O543 O 0.77664 0.75727 0.27241 0.0
Mn544 Mn 0.74623 0.7511 0.24995 0.0
O545 O 0.80805 0.76342 0.24677 0.0
Mn546 Mn 0.79318 0.74941 0.21928 0.0
O547 O 0.71536 0.74457 0.22815 0.0
O548 O 0.72858 0.74253 0.28167 0.0
Mn549 Mn 0.69966 0.7552 0.2815 0.0
O550 O 0.73661 0.78763 0.25325 0.0
O551 O 0.68413 0.74048 0.25465 0.0
O552 O 0.75616 0.71431 0.24594 0.0
O553 O 0.78899 0.71552 0.22122 0.0
O554 O 0.70329 0.73985 0.31234 0.0
O555 O 0.70424 0.78927 0.27834 0.0
C556 C 0.76886 0.76906 0.196 0.0
C557 C 0.79874 0.76283 0.26853 0.0
C558 C 0.69308 0.73974 0.23267 0.0
C559 C 0.72463 0.73518 0.30438 0.0
C560 C 0.72032 0.7996 0.26473 0.0
C561 C 0.77297 0.7037 0.23367 0.0
O562 O 0.76387 0.76063 0.2182 0.0
O563 O 0.79069 0.76558 0.18888 0.0
O564 O 0.78467 0.253 0.73799 0.0
Mn565 Mn 0.74906 0.24551 0.74678 0.0
O566 O 0.78419 0.2768 0.70314 0.0
Mn567 Mn 0.75101 0.27804 0.6998 0.0
O568 O 0.71375 0.23714 0.75676 0.0
O569 O 0.75953 0.21396 0.76346 0.0
Mn570 Mn 0.75126 0.21415 0.79519 0.0
O571 O 0.7525 0.26598 0.77957 0.0
O572 O 0.71803 0.21609 0.7935 0.0
O573 O 0.7467 0.22511 0.71353 0.0
O574 O 0.73687 0.25191 0.68336 0.0
O575 O 0.76509 0.18391 0.78987 0.0
O576 O 0.76676 0.24089 0.80938 0.0
C577 C 0.73013 0.29934 0.72421 0.0
C578 C 0.79528 0.26508 0.7204 0.0
C579 C 0.70514 0.22566 0.7761 0.0
C580 C 0.76606 0.19133 0.76672 0.0
C581 C 0.76162 0.26236 0.80139 0.0
C582 C 0.74128 0.23008 0.69065 0.0
O583 O 0.7387 0.27782 0.73027 0.0
O584 O 0.73517 0.30718 0.70178 0.0
O585 O 0.7771 0.74578 0.75531 0.0
Mn586 Mn 0.74011 0.74944 0.74687 0.0
O587 O 0.77872 0.71853 0.7876 0.0
Mn588 Mn 0.74617 0.71586 0.79381 0.0
O589 O 0.70287 0.75261 0.7397 0.0
O590 O 0.74763 0.78173 0.72902 0.0
Mn591 Mn 0.72969 0.78304 0.70159 0.0
O592 O 0.74429 0.72959 0.71314 0.0
O593 O 0.69793 0.78283 0.71114 0.0
O594 O 0.73738 0.76952 0.78056 0.0
O595 O 0.73441 0.74199 0.8122 0.0
O596 O 0.74742 0.81165 0.70125 0.0
O597 O 0.73908 0.75703 0.68167 0.0
C598 C 0.72262 0.6961 0.76908 0.0
C599 C 0.78886 0.7334 0.77209 0.0
C600 C 0.68944 0.76692 0.72646 0.0
C601 C 0.75649 0.80287 0.72184 0.0
C602 C 0.74409 0.73541 0.68958 0.0
C603 C 0.73492 0.76416 0.80404 0.0
O604 O 0.73224 0.71741 0.7643 0.0
O605 O 0.72888 0.68673 0.79051 0.0
O606 O 0.52549 0.52172 0.49206 0.0
Mn607 Mn 0.4938 0.50186 0.50037 0.0
O608 O 0.55582 0.49477 0.49265 0.0
Mn609 Mn 0.53812 0.46951 0.50744 0.0
O610 O 0.46202 0.48173 0.50935 0.0
O611 O 0.47864 0.53514 0.50714 0.0
Mn612 Mn 0.44852 0.53337 0.49723 0.0
O613 O 0.48287 0.50336 0.46288 0.0
O614 O 0.43385 0.50986 0.51713 0.0
O615 O 0.50418 0.50071 0.53808 0.0
O616 O 0.53351 0.47283 0.54178 0.0
O617 O 0.45276 0.56506 0.50872 0.0
O618 O 0.44892 0.5257 0.46322 0.0
C619 C 0.51491 0.44681 0.48537 0.0
C620 C 0.54777 0.51646 0.48926 0.0
C621 C 0.44111 0.4877 0.51738 0.0
C622 C 0.47443 0.55793 0.51314 0.0
C623 C 0.46446 0.51266 0.45193 0.0
C624 C 0.51917 0.48834 0.55136 0.0
O625 O 0.50946 0.46885 0.49304 0.0
O626 O 0.53594 0.43934 0.49217 0.0
O627 O 0.9602 0.48702 0.99364 0.0
Mn628 Mn -0.0075 0.50659 -0.00289 0.0
O629 O 0.93086 0.51508 -0.00615 0.0
Mn630 Mn 0.94958 0.54048 0.00637 0.0
O631 O 0.0246 0.5264 0.00162 0.0
O632 O 0.00805 0.47329 0.00344 0.0
Mn633 Mn 0.03703 0.47476 0.99037 0.0
O634 O -0.00087 0.50383 0.95917 0.0
O635 O 0.05372 0.49889 0.00764 0.0
O636 O 0.98612 0.5093 0.03534 0.0
O637 O 0.95704 0.53729 0.04028 0.0
O638 O 0.03403 0.44338 0.00315 0.0
O639 O 0.03239 0.48074 0.95617 0.0
C640 C 0.97191 0.5618 0.98204 0.0
C641 C 0.93801 0.49288 0.99254 0.0
C642 C 0.04611 0.52091 0.0079 0.0
C643 C 0.0127 0.45043 0.00905 0.0
C644 C 0.01562 0.49355 0.94635 0.0
C645 C 0.97218 0.52202 0.04923 0.0
O646 O 0.9769 0.5397 0.99006 0.0
O647 O 0.95164 0.57025 0.98978 0.0
H648 H 0.97965 0.19465 0.04059 0.0
H649 H 0.00831 0.17739 0.1144 0.0
H650 H 0.01445 0.13407 0.10121 0.0
H651 H 0.94666 0.14124 0.03253 0.0
H652 H 0.95239 0.1385 -0.00066 0.0
H653 H 0.95349 0.16835 0.01391 0.0
H654 H -0.00327 0.17496 -0.00279 0.0
H655 H -0.0042 0.14482 0.9829 0.0
H656 H 0.01945 0.15264 0.00471 0.0
H657 H 0.01204 0.09072 0.08114 0.0
H658 H -0.00047 0.05331 0.0572 0.0
H659 H 0.97462 0.10007 -0.00343 0.0
C660 C 0.98758 0.1819 0.0539 0.0
C661 C -0.00659 0.18949 0.07857 0.0
C662 C 0.00372 0.1721 0.09536 0.0
C663 C 0.00739 0.14743 0.08798 0.0
C664 C 0.0011 0.14046 0.06357 0.0
C665 C 0.99161 0.15739 0.04675 0.0
C666 C 0.98459 0.14515 0.02227 0.0
C667 C 0.9577 0.1485 0.01672 0.0
C668 C 7e-05 0.15499 0.00049 0.0
C669 C 0.99041 0.11849 0.02829 0.0
C670 C 0.00034 0.116 0.052 0.0
C671 C 0.0048 0.09258 0.06233 0.0
C672 C -0.00213 0.07136 0.04857 0.0
C673 C 0.9865 0.07385 0.02492 0.0
C674 C 0.98382 0.09767 0.01438 0.0
H675 H 0.0736 0.77363 0.31896 0.0
H676 H 0.06383 0.6958 0.33612 0.0
H677 H 0.0979 0.68574 0.3087 0.0
H678 H 0.09675 0.76557 0.25246 0.0
H679 H 0.11847 0.79025 0.25583 0.0
H680 H 0.09037 0.79149 0.27242 0.0
H681 H 0.11313 0.79636 0.3147 0.0
H682 H 0.14111 0.79554 0.29812 0.0
H683 H 0.1354 0.77393 0.32339 0.0
H684 H 0.13386 0.68394 0.28276 0.0
H685 H 0.17468 0.69056 0.26691 0.0
H686 H 0.16493 0.76989 0.26926 0.0
C687 C 0.07831 0.75447 0.31619 0.0
C688 C 0.06583 0.73531 0.32894 0.0
C689 C 0.07295 0.71055 0.32599 0.0
C690 C 0.09214 0.70469 0.31034 0.0
C691 C 0.10419 0.72389 0.29797 0.0
C692 C 0.0979 0.74834 0.30098 0.0
C693 C 0.11613 0.76547 0.2884 0.0
C694 C 0.10474 0.779 0.26595 0.0
C695 C 0.1271 0.78389 0.30729 0.0
C696 C 0.1344 0.74688 0.27943 0.0
C697 C 0.12639 0.72299 0.28411 0.0
C698 C 0.14021 0.70251 0.2787 0.0
C699 C 0.16334 0.70647 0.26953 0.0
C700 C 0.17279 0.73072 0.26648 0.0
C701 C 0.15785 0.75122 0.27057 0.0
H702 H 0.47875 0.81819 0.56743 0.0
H703 H 0.53208 0.83894 0.62333 0.0
H704 H 0.53113 0.88188 0.60826 0.0
H705 H 0.50279 0.85342 0.51851 0.0
H706 H 0.4745 0.86248 0.50501 0.0
H707 H 0.47645 0.83425 0.52281 0.0
H708 H 0.44239 0.84949 0.55168 0.0
H709 H 0.44089 0.87814 0.53424 0.0
H710 H 0.44578 0.8786 0.56773 0.0
H711 H 0.52719 0.92168 0.58589 0.0
H712 H 0.52671 0.95322 0.55231 0.0
H713 H 0.47784 0.90764 0.50892 0.0
C714 C 0.48992 0.83189 0.57671 0.0
C715 C 0.50532 0.82512 0.59677 0.0
C716 C 0.52005 0.84353 0.60803 0.0
C717 C 0.51945 0.86814 0.59979 0.0
C718 C 0.50404 0.87429 0.58016 0.0
C719 C 0.4898 0.85668 0.56843 0.0
C720 C 0.47713 0.86781 0.54577 0.0
C721 C 0.4831 0.85365 0.5216 0.0
C722 C 0.44993 0.86854 0.55011 0.0
C723 C 0.48782 0.89381 0.54565 0.0
C724 C 0.50238 0.89743 0.56642 0.0
C725 C 0.51548 0.91927 0.56981 0.0
C726 C 0.51486 0.93728 0.55079 0.0
C727 C 0.5015 0.93328 0.52856 0.0
C728 C 0.48723 0.91163 0.52631 0.0
H729 H 0.41365 0.28399 0.84291 0.0
H730 H 0.43103 0.2068 0.832 0.0
H731 H 0.38983 0.19883 0.8164 0.0
H732 H 0.35016 0.27454 0.86077 0.0
H733 H 0.34073 0.30171 0.84384 0.0
H734 H 0.37033 0.30061 0.85748 0.0
H735 H 0.38916 0.31039 0.81396 0.0
H736 H 0.35968 0.31189 0.80038 0.0
H737 H 0.38148 0.29117 0.78746 0.0
H738 H 0.34764 0.19965 0.80087 0.0
H739 H 0.31048 0.21037 0.77827 0.0
H740 H 0.32187 0.28772 0.79581 0.0
C741 C 0.40869 0.26533 0.83753 0.0
C742 C 0.42537 0.24594 0.83883 0.0
C743 C 0.41845 0.22189 0.83114 0.0
C744 C 0.39504 0.21715 0.82258 0.0
C745 C 0.37895 0.2367 0.82178 0.0
C746 C 0.38561 0.26039 0.82861 0.0
C747 C 0.3659 0.2787 0.82322 0.0
C748 C 0.35621 0.28953 0.84779 0.0
C749 C 0.37457 0.29923 0.80517 0.0
C750 C 0.34751 0.26185 0.81101 0.0
C751 C 0.355 0.23751 0.81143 0.0
C752 C 0.34151 0.21856 0.80062 0.0
C753 C 0.32041 0.22479 0.788 0.0
C754 C 0.3134 0.24976 0.7858 0.0
C755 C 0.3267 0.26848 0.7979 0.0
H756 H 0.98167 0.84842 0.37618 0.0
H757 H 0.01491 0.79828 0.42976 0.0
H758 H 0.01168 0.82969 0.46265 0.0
H759 H 0.01036 0.9049 0.4002 0.0
H760 H 0.98425 0.92364 0.3952 0.0
H761 H 0.98962 0.8975 0.37521 0.0
H762 H 0.94766 0.87963 0.38617 0.0
H763 H 0.9422 0.9056 0.40635 0.0
H764 H 0.9398 0.87455 0.41864 0.0
H765 H 0.00231 0.86373 0.49024 0.0
H766 H -0.008 0.9022 0.51137 0.0
H767 H 0.96693 0.93315 0.44058 0.0
C768 C 0.98854 0.8442 0.39476 0.0
C769 C -0.00152 0.82083 0.40041 0.0
C770 C 0.00721 0.81599 0.42494 0.0
C771 C 0.0054 0.83368 0.44381 0.0
C772 C -0.00497 0.85622 0.4378 0.0
C773 C 0.98709 0.86184 0.41388 0.0
C774 C 0.97671 0.88772 0.41285 0.0
C775 C 0.99109 0.90443 0.3948 0.0
C776 C 0.95001 0.88681 0.40557 0.0
C777 C 0.98007 0.89558 0.44002 0.0
C778 C 0.99034 0.87679 0.45395 0.0
C779 C -0.00558 0.87869 0.47959 0.0
C780 C 0.98823 0.90056 0.49145 0.0
C781 C 0.97837 0.92052 0.47766 0.0
C782 C 0.9743 0.91809 0.45153 0.0
H783 H 0.42452 0.76209 0.67707 0.0
H784 H 0.39202 0.74873 0.60412 0.0
H785 H 0.35185 0.75114 0.62311 0.0
H786 H 0.38645 0.72581 0.71238 0.0
H787 H 0.3852 0.74624 0.73902 0.0
H788 H 0.41086 0.74701 0.71879 0.0
H789 H 0.40463 0.79401 0.71174 0.0
H790 H 0.37846 0.79313 0.73154 0.0
H791 H 0.37632 0.80481 0.69984 0.0
H792 H 0.31516 0.75055 0.65077 0.0
H793 H 0.2866 0.7413 0.68505 0.0
H794 H 0.34252 0.75499 0.73989 0.0
C795 C 0.40895 0.76001 0.66503 0.0
C796 C 0.41153 0.75527 0.63905 0.0
C797 C 0.39062 0.75253 0.62402 0.0
C798 C 0.36765 0.75406 0.63462 0.0
C799 C 0.36572 0.75876 0.66028 0.0
C800 C 0.38585 0.76169 0.67529 0.0
C801 C 0.37894 0.76443 0.70267 0.0
C802 C 0.39106 0.74468 0.71916 0.0
C803 C 0.38495 0.79065 0.712 0.0
C804 C 0.35201 0.76046 0.70099 0.0
C805 C 0.34457 0.7583 0.67626 0.0
C806 C 0.32072 0.75274 0.67015 0.0
C807 C 0.30445 0.74785 0.68976 0.0
C808 C 0.31224 0.74807 0.71507 0.0
C809 C 0.33601 0.75548 0.72069 0.0
H810 H 0.49721 0.17096 0.89918 0.0
H811 H 0.51392 0.21488 0.96505 0.0
H812 H 0.51206 0.17695 0.9915 0.0
H813 H 0.4575 0.12497 0.9284 0.0
H814 H 0.46964 0.10018 0.91004 0.0
H815 H 0.46903 0.13111 0.89734 0.0
H816 H 0.51485 0.1296 0.88958 0.0
H817 H 0.51554 0.09871 0.90216 0.0
H818 H 0.53464 0.12241 0.9154 0.0
H819 H 0.51089 0.13301 0.01006 0.0
H820 H 0.51422 0.08767 0.01774 0.0
H821 H 0.50021 0.07419 0.9389 0.0
C822 C 0.49995 0.17275 0.91927 0.0
C823 C 0.50541 0.19583 0.93018 0.0
C824 C 0.50962 0.1973 0.95639 0.0
C825 C 0.50844 0.17591 0.97154 0.0
C826 C 0.50324 0.15331 0.96005 0.0
C827 C 0.49927 0.15169 0.93443 0.0
C828 C 0.49675 0.12522 0.92594 0.0
C829 C 0.47173 0.12008 0.91478 0.0
C830 C 0.51663 0.11861 0.90718 0.0
C831 C 0.50004 0.11206 0.95074 0.0
C832 C 0.50342 0.1284 0.97038 0.0
C833 C 0.50803 0.12009 -0.00515 0.0
C834 C 0.50981 0.09444 -0.00089 0.0
C835 C 0.50726 0.07782 0.97887 0.0
C836 C 0.50189 0.08672 0.95465 0.0
H837 H 0.07958 0.22016 0.1542 0.0
H838 H 0.04333 0.28339 0.18573 0.0
H839 H 0.07727 0.28996 0.21502 0.0
H840 H 0.10767 0.19846 0.21345 0.0
H841 H 0.13488 0.18966 0.19789 0.0
H842 H 0.10668 0.18823 0.18127 0.0
H843 H 0.12395 0.21654 0.14613 0.0
H844 H 0.1522 0.21771 0.16245 0.0
H845 H 0.13713 0.24599 0.15441 0.0
H846 H 0.11688 0.29235 0.23765 0.0
H847 H 0.15967 0.29167 0.24998 0.0
H848 H 0.16993 0.22641 0.20477 0.0
C849 C 0.07856 0.23519 0.16751 0.0
C850 C 0.05865 0.25121 0.16769 0.0
C851 C 0.05827 0.27079 0.18526 0.0
C852 C 0.07744 0.2746 0.20207 0.0
C853 C 0.09682 0.25853 0.2013 0.0
C854 C 0.09751 0.23919 0.18446 0.0
C855 C 0.12117 0.2257 0.18614 0.0
C856 C 0.11736 0.19892 0.19523 0.0
C857 C 0.13439 0.22656 0.16079 0.0
C858 C 0.13407 0.24102 0.20591 0.0
C859 C 0.11955 0.25963 0.21473 0.0
C860 C 0.12819 0.27749 0.23139 0.0
C861 C 0.15244 0.27687 0.23849 0.0
C862 C 0.16773 0.25843 0.22911 0.0
C863 C 0.15827 0.23997 0.21312 0.0
H864 H 0.08733 0.97654 0.18131 0.0
H865 H 0.04395 0.03761 0.20664 0.0
H866 H 0.01982 0.0349 0.16764 0.0
H867 H 0.09004 0.99502 0.11782 0.0
H868 H 0.08887 0.96401 0.1056 0.0
H869 H 0.10122 0.96961 0.13635 0.0
H870 H 0.07118 0.93782 0.15541 0.0
H871 H 0.0586 0.93227 0.12468 0.0
H872 H 0.03951 0.94161 0.1501 0.0
H873 H 0.00165 0.02663 0.12449 0.0
H874 H -0.00719 0.01518 0.08043 0.0
H875 H 0.04868 0.96002 0.08391 0.0
C876 C 0.07256 0.98916 0.17887 0.0
C877 C 0.06745 0.0072 0.19715 0.0
C878 C 0.04816 0.02356 0.19298 0.0
C879 C 0.0343 0.02211 0.17091 0.0
C880 C 0.03991 0.00416 0.15321 0.0
C881 C 0.05864 0.98803 0.15697 0.0
C882 C 0.062 0.97142 0.1345 0.0
C883 C 0.08701 0.97526 0.12289 0.0
C884 C 0.05755 0.94416 0.1416 0.0
C885 C 0.04249 0.98096 0.11731 0.0
C886 C 0.02973 -0.00034 0.12846 0.0
C887 C 0.01147 0.01191 0.11564 0.0
C888 C 0.00658 0.00529 0.09059 0.0
C889 C 0.02011 0.98681 0.07851 0.0
C890 C 0.03786 0.97416 0.09245 0.0
H891 H 0.26274 0.8103 0.44337 0.0
H892 H 0.24576 0.88333 0.41496 0.0
H893 H 0.24766 0.86771 0.37131 0.0
H894 H 0.30315 0.79166 0.39547 0.0
H895 H 0.29184 0.76033 0.39423 0.0
H896 H 0.29009 0.77753 0.42305 0.0
H897 H 0.24415 0.76988 0.42476 0.0
H898 H 0.24581 0.7523 0.3962 0.0
H899 H 0.22591 0.77823 0.39807 0.0
H900 H 0.25149 0.84387 0.33103 0.0
H901 H 0.25256 0.81281 0.29724 0.0
H902 H 0.26564 0.75534 0.35285 0.0
C903 C 0.25963 0.82298 0.4279 0.0
C904 C 0.25442 0.84796 0.43222 0.0
C905 C 0.24982 0.86406 0.41176 0.0
C906 C 0.251 0.85542 0.38702 0.0
C907 C 0.25641 0.83062 0.38333 0.0
C908 C 0.26021 0.81456 0.40323 0.0
C909 C 0.26394 0.78845 0.39438 0.0
C910 C 0.28874 0.77894 0.40224 0.0
C911 C 0.24376 0.77121 0.40391 0.0
C912 C 0.26225 0.79239 0.36632 0.0
C913 C 0.25796 0.81682 0.36028 0.0
C914 C 0.2549 0.82469 0.33551 0.0
C915 C 0.25562 0.80692 0.31647 0.0
C916 C 0.25918 0.78165 0.32243 0.0
C917 C 0.26303 0.77451 0.34765 0.0
H918 H 0.42021 0.03391 0.6822 0.0
H919 H 0.44267 0.95925 0.69926 0.0
H920 H 0.46648 0.95863 0.66012 0.0
H921 H 0.41202 0.02802 0.61904 0.0
H922 H 0.42413 0.05787 0.61027 0.0
H923 H 0.41157 0.05331 0.64099 0.0
H924 H 0.45146 0.06845 0.66118 0.0
H925 H 0.46423 0.0729 0.63038 0.0
H926 H 0.47908 0.05353 0.65312 0.0
H927 H 0.48251 0.96407 0.61631 0.0
H928 H 0.4898 0.97547 0.57198 0.0
H929 H 0.4596 0.04769 0.58521 0.0
C930 C 0.4306 0.01769 0.67787 0.0
C931 C 0.4298 -0.00333 0.69355 0.0
C932 C 0.44341 0.97563 0.68748 0.0
C933 C 0.45697 0.97514 0.66536 0.0
C934 C 0.45725 -0.00388 0.65005 0.0
C935 C 0.44474 0.01717 0.65627 0.0
C936 C 0.44697 0.03677 0.63606 0.0
C937 C 0.4222 0.04441 0.626 0.0
C938 C 0.46129 0.05924 0.64577 0.0
C939 C 0.4611 0.0228 0.61666 0.0
C940 C 0.46732 -0.00043 0.62523 0.0
C941 C 0.47837 0.98248 0.60965 0.0
C942 C 0.48258 0.98913 0.5845 0.0
C943 C 0.47555 0.01252 0.57521 0.0
C944 C 0.46544 0.02977 0.59182 0.0
H945 H 0.25252 0.14338 0.91202 0.0
H946 H 0.24597 0.20843 0.95846 0.0
H947 H 0.25297 0.2351 0.92129 0.0
H948 H 0.29587 0.17132 0.8633 0.0
H949 H 0.2806 0.15568 0.83795 0.0
H950 H 0.28222 0.1414 0.86864 0.0
H951 H 0.23587 0.13719 0.86985 0.0
H952 H 0.23437 0.15076 0.83908 0.0
H953 H 0.2179 0.16426 0.86459 0.0
H954 H 0.25514 0.25455 0.87952 0.0
H955 H 0.24175 0.26526 0.83677 0.0
H956 H 0.24258 0.1881 0.81612 0.0
C957 C 0.25336 0.16325 0.91432 0.0
C958 C 0.24917 0.174 0.93801 0.0
C959 C 0.24938 0.19998 0.94042 0.0
C960 C 0.25368 0.21521 0.91948 0.0
C961 C 0.25749 0.20415 0.8962 0.0
C962 C 0.25693 0.17873 0.89339 0.0
C963 C 0.25664 0.17169 0.8658 0.0
C964 C 0.28024 0.15928 0.8585 0.0
C965 C 0.23489 0.15503 0.85947 0.0
C966 C 0.25483 0.19704 0.85363 0.0
C967 C 0.25701 0.21551 0.87147 0.0
C968 C 0.25389 0.24033 0.86533 0.0
C969 C 0.24652 0.24629 0.84089 0.0
C970 C 0.24166 0.2275 0.82317 0.0
C971 C 0.24711 0.20277 0.82913 0.0
H972 H 0.0752 0.97776 0.31989 0.0
H973 H 0.13194 0.02496 0.34932 0.0
H974 H 0.11377 0.02245 0.3915 0.0
H975 H 0.02876 0.00366 0.351 0.0
H976 H 0.01258 0.97518 0.35695 0.0
H977 H 0.03258 0.97739 0.33072 0.0
H978 H 0.05527 0.93903 0.34766 0.0
H979 H 0.03548 0.9373 0.37435 0.0
H980 H 0.06743 0.93942 0.3791 0.0
H981 H 0.08713 0.01881 0.42916 0.0
H982 H 0.05116 0.02068 0.45601 0.0
H983 H 0.01155 0.97668 0.40208 0.0
C984 C 0.08403 0.98722 0.3353 0.0
C985 C 0.10508 0.00138 0.33133 0.0
C986 C 0.11594 0.01374 0.35194 0.0
C987 C 0.10587 0.01225 0.37605 0.0
C988 C 0.08513 -0.002 0.37938 0.0
C989 C 0.07428 0.98581 0.35949 0.0
C990 C 0.05068 0.97413 0.36729 0.0
C991 C 0.02994 0.98317 0.35052 0.0
C992 C 0.05232 0.94579 0.36708 0.0
C993 C 0.04884 0.9836 0.39395 0.0
C994 C 0.06945 -0.00375 0.40105 0.0
C995 C 0.07113 0.00849 0.42404 0.0
C996 C 0.05071 0.00923 0.43935 0.0
C997 C 0.02892 -0.00169 0.43124 0.0
C998 C 0.02833 0.98436 0.40896 0.0
H999 H 0.24055 0.85147 0.57154 0.0
H1000 H 0.23228 0.78644 0.52475 0.0
H1001 H 0.2355 0.75978 0.56264 0.0
H1002 H 0.28247 0.82594 0.61735 0.0
H1003 H 0.26856 0.8417 0.64317 0.0
H1004 H 0.26806 0.85521 0.61214 0.0
H1005 H 0.22168 0.85761 0.61384 0.0
H1006 H 0.22212 0.84438 0.6449 0.0
H1007 H 0.20444 0.82997 0.6205 0.0
H1008 H 0.23674 0.74052 0.60684 0.0
H1009 H 0.23276 0.7314 0.65264 0.0
H1010 H 0.24025 0.80949 0.66865 0.0
C1011 C 0.23972 0.83161 0.56912 0.0
C1012 C 0.23625 0.821 0.54521 0.0
C1013 C 0.2349 0.79494 0.54296 0.0
C1014 C 0.2369 0.77967 0.56432 0.0
C1015 C 0.24029 0.79081 0.58769 0.0
C1016 C 0.24158 0.81624 0.5901 0.0
C1017 C 0.24317 0.824 0.61725 0.0
C1018 C 0.26699 0.8375 0.62279 0.0
C1019 C 0.22156 0.83991 0.62454 0.0
C1020 C 0.2422 0.79899 0.62988 0.0
C1021 C 0.24084 0.77993 0.6127 0.0
C1022 C 0.23811 0.75529 0.62043 0.0
C1023 C 0.23596 0.75023 0.64635 0.0
C1024 C 0.2364 0.76981 0.6638 0.0
C1025 C 0.24018 0.79425 0.65548 0.0
H1026 H 0.39021 0.96044 0.83444 0.0
H1027 H 0.39878 0.03531 0.80579 0.0
H1028 H 0.42303 0.0463 0.84285 0.0
H1029 H 0.38939 0.97658 0.90286 0.0
H1030 H 0.40668 0.94987 0.91148 0.0
H1031 H 0.38682 0.94861 0.8847 0.0
H1032 H 0.42218 0.93532 0.85658 0.0
H1033 H 0.44216 0.93672 0.88317 0.0
H1034 H 0.44882 0.95445 0.85522 0.0
H1035 H 0.44984 0.04817 0.87879 0.0
H1036 H 0.47837 0.04103 0.91336 0.0
H1037 H 0.4532 0.96515 0.92037 0.0
C1038 C 0.3967 0.97928 0.83642 0.0
C1039 C 0.39262 -0.00289 0.81746 0.0
C1040 C 0.40181 0.02142 0.82017 0.0
C1041 C 0.41544 0.02788 0.8412 0.0
C1042 C 0.4197 0.00979 0.85928 0.0
C1043 C 0.41062 0.986 0.85728 0.0
C1044 C 0.42 0.96961 0.87827 0.0
C1045 C 0.39949 0.96064 0.89534 0.0
C1046 C 0.43413 0.94774 0.86767 0.0
C1047 C 0.43634 0.98778 0.8918 0.0
C1048 C 0.43557 0.01088 0.88055 0.0
C1049 C 0.45035 0.03033 0.88808 0.0
C1050 C 0.46656 0.02606 0.90753 0.0
C1051 C 0.46777 0.00261 0.91928 0.0
C1052 C 0.45224 0.98329 0.91173 0.0
H1053 H 0.23792 0.14892 0.07677 0.0
H1054 H 0.29016 0.19626 0.03919 0.0
H1055 H 0.29806 0.21796 0.07872 0.0
H1056 H 0.21243 0.19516 0.11414 0.0
H1057 H 0.20845 0.17637 0.14195 0.0
H1058 H 0.20878 0.16211 0.11147 0.0
H1059 H 0.24236 0.1336 0.12691 0.0
H1060 H 0.24392 0.1485 0.15716 0.0
H1061 H 0.27028 0.14673 0.13797 0.0
H1062 H 0.29867 0.23685 0.11999 0.0
H1063 H 0.28886 0.25521 0.16078 0.0
H1064 H 0.23563 0.19756 0.17384 0.0
C1065 C 0.25122 0.16365 0.07706 0.0
C1066 C 0.26345 0.17085 0.0548 0.0
C1067 C 0.28047 0.19043 0.05585 0.0
C1068 C 0.28529 0.20277 0.07832 0.0
C1069 C 0.27293 0.19547 0.0998 0.0
C1070 C 0.25609 0.17655 0.09952 0.0
C1071 C 0.24414 0.17406 0.12515 0.0
C1072 C 0.21683 0.17713 0.12304 0.0
C1073 C 0.25053 0.14923 0.13751 0.0
C1074 C 0.25589 0.19553 0.13918 0.0
C1075 C 0.273 0.20696 0.12426 0.0
C1076 C 0.28554 0.22794 0.13202 0.0
C1077 C 0.27987 0.23822 0.15524 0.0
C1078 C 0.26173 0.22768 0.17053 0.0
C1079 C 0.25 0.2056 0.16277 0.0
H1080 H 0.16955 0.07728 0.03644 0.0
H1081 H 0.18598 0.09096 0.95791 0.0
H1082 H 0.14515 0.07687 0.94608 0.0
H1083 H 0.13644 0.02151 0.02607 0.0
H1084 H 0.11536 0.02715 0.05092 0.0
H1085 H 0.14524 0.03985 0.05283 0.0
H1086 H 0.12748 0.08361 0.05816 0.0
H1087 H 0.09754 0.07102 0.05572 0.0
H1088 H 0.10713 0.09542 0.03472 0.0
H1089 H 0.10259 0.05952 0.94276 0.0
H1090 H 0.06432 0.03621 0.94812 0.0
H1091 H 0.07616 0.03376 0.02851 0.0
C1092 C 0.16454 0.07745 0.01675 0.0
C1093 C 0.18099 0.08534 -0.00188 0.0
C1094 C 0.17376 0.08493 0.97254 0.0
C1095 C 0.15051 0.07716 0.96565 0.0
C1096 C 0.13466 0.06972 0.98453 0.0
C1097 C 0.14152 0.06952 0.00954 0.0
C1098 C 0.1218 0.059 0.02607 0.0
C1099 C 0.13021 0.03549 0.03977 0.0
C1100 C 0.11297 0.07843 0.04477 0.0
C1101 C 0.10282 0.05311 0.00649 0.0
C1102 C 0.11038 0.05971 0.98263 0.0
C1103 C 0.09637 0.05462 0.96139 0.0
C1104 C 0.07456 0.04163 0.96457 0.0
C1105 C 0.06706 0.03397 0.98876 0.0
C1106 C 0.08114 0.04026 0.00993 0.0
H1107 H 0.67077 0.43412 0.04304 0.0
H1108 H 0.69126 0.44339 0.96497 0.0
H1109 H 0.65652 0.47063 0.95801 0.0
H1110 H 0.60964 0.42962 0.03212 0.0
H1111 H 0.60128 0.44557 0.06036 0.0
H1112 H 0.62912 0.42931 0.05922 0.0
H1113 H 0.65179 0.46954 0.07179 0.0
H1114 H 0.62393 0.48604 0.07253 0.0
H1115 H 0.64819 0.49715 0.05307 0.0
H1116 H 0.61525 0.48953 0.95801 0.0
H1117 H 0.57278 0.49904 0.96579 0.0
H1118 H 0.58277 0.4839 0.04491 0.0
C1119 C 0.66827 0.44232 0.02461 0.0
C1120 C 0.68373 0.43677 0.00459 0.0
C1121 C 0.67972 0.44762 0.98066 0.0
C1122 C 0.66007 0.46313 0.97654 0.0
C1123 C 0.64496 0.46803 -0.00332 0.0
C1124 C 0.64907 0.45814 0.02032 0.0
C1125 C 0.62931 0.46451 0.03837 0.0
C1126 C 0.61659 0.44086 0.04806 0.0
C1127 C 0.63889 0.48026 0.06023 0.0
C1128 C 0.6132 0.47929 0.02116 0.0
C1129 C 0.62231 0.48094 -0.00292 0.0
C1130 C 0.60841 0.48952 0.97702 0.0
C1131 C 0.58436 0.49552 0.98158 0.0
C1132 C 0.5747 0.49346 0.00599 0.0
C1133 C 0.58986 0.48657 0.02614 0.0
H1134 H 0.827 0.41797 0.20029 0.0
H1135 H 0.85865 0.42595 0.27445 0.0
H1136 H 0.84146 0.38588 0.28725 0.0
H1137 H 0.77296 0.39696 0.22105 0.0
H1138 H 0.7672 0.3752 0.19613 0.0
H1139 H 0.78631 0.40159 0.19054 0.0
H1140 H 0.82056 0.37278 0.17639 0.0
H1141 H 0.80129 0.34631 0.18172 0.0
H1142 H 0.83017 0.34815 0.19692 0.0
H1143 H 0.81719 0.34755 0.29387 0.0
H1144 H 0.78541 0.31498 0.29394 0.0
H1145 H 0.76786 0.33387 0.21681 0.0
C1146 C 0.83092 0.41081 0.21889 0.0
C1147 C 0.84432 0.42482 0.23627 0.0
C1148 C 0.84853 0.41538 0.26077 0.0
C1149 C 0.83898 0.39255 0.26821 0.0
C1150 C 0.8252 0.37945 0.25094 0.0
C1151 C 0.82114 0.3882 0.22676 0.0
C1152 C 0.80296 0.37229 0.21311 0.0
C1153 C 0.78107 0.38742 0.20474 0.0
C1154 C 0.81444 0.3591 0.19071 0.0
C1155 C 0.79664 0.3542 0.23381 0.0
C1156 C 0.81014 0.35806 0.25523 0.0
C1157 C 0.80663 0.34413 0.27713 0.0
C1158 C 0.78857 0.32587 0.2771 0.0
C1159 C 0.77407 0.32251 0.25558 0.0
C1160 C 0.77847 0.33651 0.23366 0.0
H1161 H 0.81969 0.55828 0.47425 0.0
H1162 H 0.83809 0.63207 0.50025 0.0
H1163 H 0.87991 0.61976 0.50594 0.0
H1164 H 0.85445 0.52519 0.51544 0.0
H1165 H 0.86461 0.50228 0.49352 0.0
H1166 H 0.83675 0.51775 0.488 0.0
H1167 H 0.852 0.53145 0.44399 0.0
H1168 H 0.88018 0.51635 0.44973 0.0
H1169 H 0.87973 0.54866 0.44144 0.0
H1170 H 0.91722 0.59866 0.51583 0.0
H1171 H 0.94754 0.56903 0.53029 0.0
H1172 H 0.90828 0.5093 0.49486 0.0
C1173 C 0.83267 0.57185 0.48074 0.0
C1174 C 0.8256 0.59616 0.4867 0.0
C1175 C 0.84306 0.61342 0.49527 0.0
C1176 C 0.86696 0.60667 0.49846 0.0
C1177 C 0.87345 0.58269 0.49243 0.0
C1178 C 0.85696 0.56553 0.48351 0.0
C1179 C 0.86865 0.54052 0.48019 0.0
C1180 C 0.85533 0.52025 0.4952 0.0
C1181 C 0.87022 0.53385 0.45218 0.0
C1182 C 0.89345 0.54586 0.49091 0.0
C1183 C 0.896 0.57056 0.49705 0.0
C1184 C 0.91596 0.57952 0.51009 0.0
C1185 C 0.93335 0.56268 0.51789 0.0
C1186 C 0.93098 0.53735 0.51218 0.0
C1187 C 0.91108 0.52888 0.49806 0.0
H1188 H 0.183 0.06885 0.20768 0.0
H1189 H 0.12842 0.07418 0.26516 0.0
H1190 H 0.13784 0.11849 0.27015 0.0
H1191 H 0.22582 0.10378 0.23766 0.0
H1192 H 0.23749 0.11899 0.20995 0.0
H1193 H 0.22295 0.08935 0.20729 0.0
H1194 H 0.19437 0.10816 0.1742 0.0
H1195 H 0.20758 0.13852 0.1779 0.0
H1196 H 0.17593 0.13402 0.18246 0.0
H1197 H 0.15542 0.1607 0.27237 0.0
H1198 H 0.18544 0.19382 0.27888 0.0
H1199 H 0.23088 0.16125 0.22267 0.0
C1200 C 0.17274 0.07953 0.22093 0.0
C1201 C 0.15484 0.06806 0.2359 0.0
C1202 C 0.14219 0.08251 0.25346 0.0
C1203 C 0.14719 0.10782 0.25619 0.0
C1204 C 0.16499 0.1186 0.24129 0.0
C1205 C 0.17786 0.10485 0.22425 0.0
C1206 C 0.19835 0.12011 0.2133 0.0
C1207 C 0.22258 0.1073 0.21733 0.0
C1208 C 0.19379 0.12549 0.1853 0.0
C1209 C 0.19638 0.14365 0.22863 0.0
C1210 C 0.17608 0.14294 0.24347 0.0
C1211 C 0.17113 0.16167 0.26053 0.0
C1212 C 0.18816 0.18064 0.2639 0.0
C1213 C 0.21014 0.18039 0.25083 0.0
C1214 C 0.21378 0.16236 0.23213 0.0
H1215 H 0.32189 0.90314 0.47395 0.0
H1216 H 0.31298 0.90706 0.55472 0.0
H1217 H 0.35179 0.92929 0.55843 0.0
H1218 H 0.38901 0.89458 0.47742 0.0
H1219 H 0.39396 0.91215 0.44901 0.0
H1220 H 0.36672 0.89429 0.45281 0.0
H1221 H 0.3417 0.93353 0.44432 0.0
H1222 H 0.36878 0.95145 0.4405 0.0
H1223 H 0.34679 0.96067 0.46326 0.0
H1224 H 0.38811 0.95425 0.55321 0.0
H1225 H 0.42134 0.98135 0.53944 0.0
H1226 H 0.4085 0.96056 0.46191 0.0
C1227 C 0.32846 0.90845 0.49236 0.0
C1228 C 0.31485 0.90364 0.51414 0.0
C1229 C 0.32354 0.91061 0.53801 0.0
C1230 C 0.34548 0.92308 0.54025 0.0
C1231 C 0.35859 0.9277 0.51846 0.0
C1232 C 0.35066 0.92038 0.49498 0.0
C1233 C 0.36799 0.92855 0.47459 0.0
C1234 C 0.38014 0.90606 0.46276 0.0
C1235 C 0.35556 0.94451 0.4545 0.0
C1236 C 0.38574 0.94345 0.49009 0.0
C1237 C 0.38023 0.94201 0.51543 0.0
C1238 C 0.39294 0.95516 0.53354 0.0
C1239 C 0.41165 0.9705 0.52557 0.0
C1240 C 0.41725 0.97266 0.49977 0.0
C1241 C 0.40453 0.95876 0.48175 0.0
H1242 H 0.8455 0.58413 0.20553 0.0
H1243 H 0.81166 0.54907 0.26997 0.0
H1244 H 0.78428 0.58457 0.27373 0.0
H1245 H 0.84573 0.64383 0.22864 0.0
H1246 H 0.83992 0.65828 0.19866 0.0
H1247 H 0.85478 0.62901 0.19997 0.0
H1248 H 0.82225 0.61019 0.17048 0.0
H1249 H 0.80716 0.63945 0.1693 0.0
H1250 H 0.79111 0.61197 0.17911 0.0
H1251 H 0.76413 0.62671 0.27321 0.0
H1252 H 0.75331 0.67081 0.26802 0.0
H1253 H 0.79918 0.67564 0.2024 0.0
C1254 C 0.83209 0.58371 0.2202 0.0
C1255 C 0.83062 0.56395 0.23741 0.0
C1256 C 0.8129 0.56405 0.25644 0.0
C1257 C 0.79729 0.58408 0.25871 0.0
C1258 C 0.79942 0.60351 0.24152 0.0
C1259 C 0.81627 0.60326 0.2225 0.0
C1260 C 0.81611 0.62682 0.20731 0.0
C1261 C 0.84057 0.64026 0.20875 0.0
C1262 C 0.8087 0.62179 0.17993 0.0
C1263 C 0.79702 0.64072 0.22113 0.0
C1264 C 0.78742 0.62711 0.24077 0.0
C1265 C 0.77114 0.63735 0.25755 0.0
C1266 C 0.76503 0.66235 0.25443 0.0
C1267 C 0.77538 0.67661 0.2348 0.0
C1268 C 0.79087 0.66526 0.21757 0.0
H1269 H 0.63658 0.40379 0.7246 0.0
H1270 H 0.68302 0.44394 0.77604 0.0
H1271 H 0.70748 0.40631 0.78197 0.0
H1272 H 0.6377 0.34385 0.75499 0.0
H1273 H 0.63897 0.32728 0.72573 0.0
H1274 H 0.62428 0.35674 0.72702 0.0
H1275 H 0.65165 0.37392 0.69141 0.0
H1276 H 0.66578 0.34429 0.68957 0.0
H1277 H 0.68371 0.37172 0.69475 0.0
H1278 H 0.7285 0.36441 0.77958 0.0
H1279 H 0.74619 0.32518 0.76492 0.0
H1280 H 0.68488 0.31282 0.71659 0.0
C1281 C 0.65174 0.40465 0.73735 0.0
C1282 C 0.65776 0.42674 0.75004 0.0
C1283 C 0.67807 0.4272 0.7661 0.0
C1284 C 0.69192 0.40585 0.76977 0.0
C1285 C 0.68523 0.38422 0.75719 0.0
C1286 C 0.66576 0.38368 0.74104 0.0
C1287 C 0.66347 0.35908 0.72784 0.0
C1288 C 0.63969 0.34598 0.7343 0.0
C1289 C 0.66633 0.36245 0.69921 0.0
C1290 C 0.68455 0.34564 0.73917 0.0
C1291 C 0.69693 0.36029 0.75617 0.0
C1292 C 0.71858 0.3526 0.7668 0.0
C1293 C 0.72832 0.33007 0.75877 0.0
C1294 C 0.71627 0.31549 0.74061 0.0
C1295 C 0.69377 0.32302 0.7315 0.0
H1296 H 0.0051 0.83184 0.8933 0.0
H1297 H 0.94951 0.80348 0.94278 0.0
H1298 H 0.94732 0.84426 0.96333 0.0
H1299 H 0.03629 0.86569 0.9378 0.0
H1300 H 0.04396 0.89104 0.91709 0.0
H1301 H 0.03845 0.86081 0.90438 0.0
H1302 H 0.00602 0.87921 0.87487 0.0
H1303 H 0.0111 0.9095 0.88802 0.0
H1304 H 0.98143 0.89601 0.88813 0.0
H1305 H 0.95386 0.88747 0.9812 0.0
H1306 H 0.97238 0.92594 -0.0022 0.0
H1307 H 0.02382 0.92565 0.93722 0.0
C1308 C -0.00781 0.83427 0.9082 0.0
C1309 C 0.97741 0.81435 0.91628 0.0
C1310 C 0.96099 0.81838 0.9361 0.0
C1311 C 0.95947 0.8416 0.94779 0.0
C1312 C 0.97433 0.86082 0.93939 0.0
C1313 C 0.99045 0.85731 0.92007 0.0
C1314 C 0.00599 0.88014 0.91603 0.0
C1315 C 0.03274 0.87405 0.91903 0.0
C1316 C 0.00083 0.89191 0.89023 0.0
C1317 C -0.00282 0.89648 0.93708 0.0
C1318 C 0.97831 0.88544 0.94982 0.0
C1319 C 0.96834 0.89643 0.97105 0.0
C1320 C 0.97874 0.9185 0.98021 0.0
C1321 C -0.00094 0.92908 0.96836 0.0
C1322 C 0.00778 0.91834 0.94609 0.0
H1323 H 0.9094 0.21429 0.65189 0.0
H1324 H 0.9512 0.27246 0.68771 0.0
H1325 H 0.9159 0.28382 0.71295 0.0
H1326 H 0.85613 0.24588 0.64527 0.0
H1327 H 0.83697 0.21974 0.65241 0.0
H1328 H 0.86613 0.21489 0.63922 0.0
H1329 H 0.87601 0.18603 0.67639 0.0
H1330 H 0.8476 0.19187 0.69107 0.0
H1331 H 0.87491 0.19757 0.70813 0.0
H1332 H 0.87441 0.29188 0.73049 0.0
H1333 H 0.83088 0.29448 0.73985 0.0
H1334 H 0.81736 0.23017 0.6936 0.0
C1335 C 0.91129 0.22917 0.66532 0.0
C1336 C 0.93303 0.2425 0.6678 0.0
C1337 C 0.93474 0.26188 0.68559 0.0
C1338 C 0.91478 0.2685 0.69999 0.0
C1339 C 0.8934 0.25533 0.6966 0.0
C1340 C 0.89168 0.23588 0.6799 0.0
C1341 C 0.86659 0.22515 0.67909 0.0
C1342 C 0.85583 0.22652 0.65242 0.0
C1343 C 0.86632 0.19854 0.68926 0.0
C1344 C 0.8541 0.24238 0.69691 0.0
C1345 C 0.86986 0.25952 0.70714 0.0
C1346 C 0.86201 0.27827 0.72296 0.0
C1347 C 0.83738 0.27965 0.72819 0.0
C1348 C 0.82118 0.26235 0.71761 0.0
C1349 C 0.82965 0.24336 0.70212 0.0
H1350 H 0.48447 0.17465 0.39653 0.0
H1351 H 0.54351 0.19785 0.44452 0.0
H1352 H 0.54443 0.1562 0.46371 0.0
H1353 H 0.45353 0.13982 0.44077 0.0
H1354 H 0.44414 0.11581 0.41938 0.0
H1355 H 0.45033 0.14641 0.40767 0.0
H1356 H 0.48091 0.12816 0.37635 0.0
H1357 H 0.47512 0.09749 0.38852 0.0
H1358 H 0.50527 0.10974 0.3881 0.0
H1359 H 0.53576 0.11363 0.48121 0.0
H1360 H 0.51591 0.07566 0.49745 0.0
H1361 H 0.46376 0.07941 0.43733 0.0
C1362 C 0.49774 0.17092 0.41091 0.0
C1363 C 0.51388 0.18961 0.41903 0.0
C1364 C 0.53096 0.18389 0.43793 0.0
C1365 C 0.53175 0.16019 0.44882 0.0
C1366 C 0.51561 0.14217 0.44038 0.0
C1367 C 0.49894 0.14727 0.42181 0.0
C1368 C 0.48242 0.12527 0.41741 0.0
C1369 C 0.45606 0.13225 0.42158 0.0
C1370 C 0.48616 0.11454 0.39102 0.0
C1371 C 0.49136 0.10761 0.43749 0.0
C1372 C 0.51098 0.11739 0.45009 0.0
C1373 C 0.52084 0.1055 0.47103 0.0
C1374 C 0.50968 0.08374 0.47996 0.0
C1375 C 0.48904 0.07408 0.46792 0.0
C1376 C 0.48024 0.08582 0.44607 0.0
H1377 H 0.56266 0.72378 0.17609 0.0
H1378 H 0.58855 0.76193 0.10937 0.0
H1379 H 0.62988 0.76018 0.1259 0.0
H1380 H 0.60006 0.7532 0.21964 0.0
H1381 H 0.60506 0.72613 0.23877 0.0
H1382 H 0.57791 0.72869 0.22069 0.0
H1383 H 0.5869 0.68691 0.19919 0.0
H1384 H 0.61427 0.68436 0.21709 0.0
H1385 H 0.61504 0.68294 0.18325 0.0
H1386 H 0.66699 0.75943 0.15203 0.0
H1387 H 0.69733 0.75868 0.18572 0.0
H1388 H 0.6489 0.71714 0.23344 0.0
C1389 C 0.57707 0.73155 0.16488 0.0
C1390 C 0.57246 0.74302 0.14149 0.0
C1391 C 0.59174 0.75296 0.1273 0.0
C1392 C 0.61526 0.752 0.13649 0.0
C1393 C 0.61922 0.74061 0.15965 0.0
C1394 C 0.60071 0.73037 0.17357 0.0
C1395 C 0.60969 0.72012 0.19836 0.0
C1396 C 0.59746 0.7328 0.22067 0.0
C1397 C 0.60628 0.6919 0.19953 0.0
C1398 C 0.63597 0.72718 0.19667 0.0
C1399 C 0.64111 0.73879 0.17408 0.0
C1400 C 0.66348 0.74942 0.16932 0.0
C1401 C 0.68089 0.74848 0.1883 0.0
C1402 C 0.67612 0.73666 0.2115 0.0
C1403 C 0.6534 0.72558 0.21554 0.0
H1404 H 0.98638 0.16579 0.59598 0.0
H1405 H 0.01261 0.21297 0.53547 0.0
H1406 H 0.02128 0.17636 0.51024 0.0
H1407 H 0.02868 0.11449 0.58622 0.0
H1408 H 0.00653 0.09076 0.59246 0.0
H1409 H 0.00438 0.12046 0.60749 0.0
H1410 H 0.96139 0.12557 0.58984 0.0
H1411 H 0.96335 0.09581 0.57507 0.0
H1412 H 0.95625 0.12273 0.55649 0.0
H1413 H 0.02557 0.13624 0.49061 0.0
H1414 H 0.02058 0.09389 0.47489 0.0
H1415 H 0.99046 0.07085 0.54649 0.0
C1416 C -0.00589 0.1683 0.57749 0.0
C1417 C -0.00111 0.19226 0.56772 0.0
C1418 C 0.00871 0.19487 0.54334 0.0
C1419 C 0.01395 0.17416 0.52893 0.0
C1420 C 0.00917 0.15087 0.53903 0.0
C1421 C -0.00081 0.14767 0.56256 0.0
C1422 C -0.00598 0.12044 0.56774 0.0
C1423 C 0.00932 0.11098 0.58979 0.0
C1424 C 0.96715 0.11588 0.57256 0.0
C1425 C 0.00191 0.10911 0.54306 0.0
C1426 C 0.01114 0.12712 0.52716 0.0
C1427 C 0.01856 0.1219 0.50288 0.0
C1428 C 0.01564 0.0978 0.49413 0.0
C1429 C 0.00522 0.07917 0.50951 0.0
C1430 C -0.00109 0.08468 0.53458 0.0
H1431 H 0.57322 0.27241 0.34308 0.0
H1432 H 0.5695 0.19281 0.33392 0.0
H1433 H 0.61122 0.19304 0.31848 0.0
H1434 H 0.60565 0.2847 0.28795 0.0
H1435 H 0.62295 0.30975 0.30129 0.0
H1436 H 0.59369 0.30252 0.31345 0.0
H1437 H 0.61198 0.2977 0.35809 0.0
H1438 H 0.6414 0.30455 0.34589 0.0
H1439 H 0.63607 0.27628 0.36319 0.0
H1440 H 0.65251 0.20297 0.29932 0.0
H1441 H 0.68727 0.22217 0.27724 0.0
H1442 H 0.66459 0.29424 0.30261 0.0
C1443 C 0.58121 0.25497 0.33809 0.0
C1444 C 0.56796 0.23262 0.33969 0.0
C1445 C 0.57919 0.21023 0.33282 0.0
C1446 C 0.60298 0.21014 0.32415 0.0
C1447 C 0.61553 0.23253 0.32271 0.0
C1448 C 0.60495 0.25451 0.3296 0.0
C1449 C 0.62152 0.27631 0.32482 0.0
C1450 C 0.61029 0.29437 0.30575 0.0
C1451 C 0.62813 0.28947 0.34947 0.0
C1452 C 0.64292 0.26328 0.31381 0.0
C1453 C 0.63932 0.23801 0.31269 0.0
C1454 C 0.6557 0.2227 0.30055 0.0
C1455 C 0.67554 0.23369 0.28823 0.0
C1456 C 0.67872 0.25968 0.28827 0.0
C1457 C 0.66284 0.27427 0.30243 0.0
H1458 H 0.50821 0.80333 0.04005 0.0
H1459 H 0.49024 0.82069 0.11744 0.0
H1460 H 0.4866 0.86432 0.10612 0.0
H1461 H 0.54219 0.86265 0.02803 0.0
H1462 H 0.53149 0.86525 -0.00386 0.0
H1463 H 0.5355 0.83516 0.01022 0.0
H1464 H 0.49127 0.82384 8e-05 0.0
H1465 H 0.48719 0.85384 0.98599 0.0
H1466 H 0.46774 0.84361 0.01106 0.0
H1467 H 0.48189 0.90442 0.08756 0.0
H1468 H 0.47413 0.94067 0.06145 0.0
H1469 H 0.49466 0.90035 -0.00535 0.0
C1470 C 0.50379 0.8164 0.0546 0.0
C1471 C 0.49955 0.80846 0.07968 0.0
C1472 C 0.49364 0.82614 0.09815 0.0
C1473 C 0.49165 0.85108 0.09195 0.0
C1474 C 0.49578 0.85827 0.06723 0.0
C1475 C 0.50175 0.84168 0.04873 0.0
C1476 C 0.5038 0.85473 0.02334 0.0
C1477 C 0.52979 0.85442 0.01387 0.0
C1478 C 0.48646 0.84333 0.00398 0.0
C1479 C 0.49656 0.88081 0.03041 0.0
C1480 C 0.49271 0.88225 0.05604 0.0
C1481 C 0.48505 0.90366 0.06752 0.0
C1482 C 0.48064 0.92416 0.05245 0.0
C1483 C 0.4837 0.92327 0.02605 0.0
C1484 C 0.49231 0.90148 0.0148 0.0
H1485 H 0.90469 0.73678 0.85895 0.0
H1486 H 0.94754 0.76027 0.79513 0.0
H1487 H 0.91087 0.76035 0.76843 0.0
H1488 H 0.86613 0.69565 0.82655 0.0
H1489 H 0.84016 0.70338 0.84483 0.0
H1490 H 0.8696 0.70627 0.85845 0.0
H1491 H 0.86151 0.75225 0.86877 0.0
H1492 H 0.83202 0.74948 0.85514 0.0
H1493 H 0.8525 0.77301 0.84394 0.0
H1494 H 0.86744 0.75773 0.74878 0.0
H1495 H 0.82417 0.7507 0.73894 0.0
H1496 H 0.81242 0.72806 0.81628 0.0
C1497 C 0.90654 0.742 0.83937 0.0
C1498 C 0.92914 0.74847 0.8292 0.0
C1499 C 0.93048 0.75519 0.80341 0.0
C1500 C 0.9097 0.75535 0.78811 0.0
C1501 C 0.88767 0.74878 0.79886 0.0
C1502 C 0.88615 0.74224 0.82398 0.0
C1503 C 0.86078 0.73548 0.83132 0.0
C1504 C 0.85908 0.7086 0.84083 0.0
C1505 C 0.85114 0.75364 0.85095 0.0
C1506 C 0.84818 0.73861 0.80634 0.0
C1507 C 0.86365 0.74666 0.78775 0.0
C1508 C 0.85532 0.75123 0.76327 0.0
C1509 C 0.83073 0.74719 0.75779 0.0
C1510 C 0.81491 0.73823 0.77661 0.0
C1511 C 0.824 0.73424 0.80115 0.0
H1512 H 0.90711 0.96264 0.8279 0.0
H1513 H 0.91547 0.03652 0.79665 0.0
H1514 H 0.94263 0.04762 0.83161 0.0
H1515 H 0.90323 0.98081 0.8902 0.0
H1516 H 0.91925 0.95487 0.90305 0.0
H1517 H 0.90337 0.95174 0.87377 0.0
H1518 H 0.94246 0.93744 0.85236 0.0
H1519 H 0.95854 0.94089 0.88161 0.0
H1520 H 0.9689 0.95684 0.8538 0.0
H1521 H 0.96449 0.05242 0.87201 0.0
H1522 H 0.97733 0.05129 0.91654 0.0
H1523 H 0.95577 0.97433 0.92168 0.0
C1524 C 0.915 0.98102 0.82817 0.0
C1525 C 0.90924 -0.0013 0.8095 0.0
C1526 C 0.91959 0.02268 0.81076 0.0
C1527 C 0.93522 0.02909 0.83042 0.0
C1528 C 0.94041 0.01129 0.84862 0.0
C1529 C 0.93057 0.98775 0.84774 0.0
C1530 C 0.93704 0.97292 0.87102 0.0
C1531 C 0.91438 0.96462 0.88535 0.0
C1532 C 0.95267 0.95071 0.86428 0.0
C1533 C 0.95128 0.99214 0.88557 0.0
C1534 C 0.9534 0.01399 0.87206 0.0
C1535 C 0.96353 0.03526 0.88253 0.0
C1536 C 0.97087 0.03446 0.90773 0.0
C1537 C 0.96818 0.01253 0.92201 0.0
C1538 C 0.95891 0.99095 0.91066 0.0
H1539 H 0.7337 0.13928 0.57565 0.0
H1540 H 0.78988 0.1854 0.54311 0.0
H1541 H 0.79627 0.20532 0.58419 0.0
H1542 H 0.70733 0.18433 0.61037 0.0
H1543 H 0.70018 0.16537 0.63735 0.0
H1544 H 0.70301 0.15142 0.60695 0.0
H1545 H 0.73507 0.12166 0.62481 0.0
H1546 H 0.7324 0.13573 0.65533 0.0
H1547 H 0.76124 0.13419 0.64034 0.0
H1548 H 0.79484 0.2221 0.62644 0.0
H1549 H 0.78104 0.2406 0.66571 0.0
H1550 H 0.72382 0.18597 0.6711 0.0
C1551 C 0.74766 0.15326 0.57732 0.0
C1552 C 0.7615 0.1607 0.55635 0.0
C1553 C 0.77918 0.17941 0.55901 0.0
C1554 C 0.78314 0.19057 0.58231 0.0
C1555 C 0.76928 0.18274 0.60264 0.0
C1556 C 0.75169 0.16475 0.60039 0.0
C1557 C 0.73725 0.16211 0.62438 0.0
C1558 C 0.71036 0.16607 0.61945 0.0
C1559 C 0.74176 0.13692 0.63695 0.0
C1560 C 0.74826 0.18283 0.63972 0.0
C1561 C 0.76751 0.19352 0.62717 0.0
C1562 C 0.78003 0.21374 0.63659 0.0
C1563 C 0.77205 0.22408 0.65887 0.0
C1564 C 0.75145 0.21457 0.67115 0.0
C1565 C 0.73979 0.19321 0.66207 0.0
H1566 H 0.57176 0.98285 0.31199 0.0
H1567 H 0.56501 0.06264 0.30815 0.0
H1568 H 0.53512 0.06084 0.3424 0.0
H1569 H 0.50858 0.96846 0.3276 0.0
H1570 H 0.51707 0.94367 0.34847 0.0
H1571 H 0.53529 0.95108 0.32149 0.0
H1572 H 0.57255 0.95686 0.35026 0.0
H1573 H 0.5546 0.94906 0.37714 0.0
H1574 H 0.57108 0.97791 0.37636 0.0
H1575 H 0.50967 0.05052 0.38023 0.0
H1576 H 0.49457 0.03345 0.42027 0.0
H1577 H 0.51751 0.96036 0.39812 0.0
C1578 C 0.56376 -4e-05 0.31803 0.0
C1579 C 0.57063 0.02288 0.30739 0.0
C1580 C 0.55988 0.04484 0.31599 0.0
C1581 C 0.54278 0.04398 0.33529 0.0
C1582 C 0.53645 0.02098 0.34543 0.0
C1583 C 0.54669 -0.0006 0.33705 0.0
C1584 C 0.53884 0.97731 0.35253 0.0
C1585 C 0.52406 0.95906 0.33656 0.0
C1586 C 0.56055 0.96457 0.3648 0.0
C1587 C 0.52339 0.98992 0.37175 0.0
C1588 C 0.52174 0.01503 0.36707 0.0
C1589 C 0.51042 0.03082 0.38379 0.0
C1590 C 0.50171 0.0209 0.40645 0.0
C1591 C 0.50479 -0.00449 0.41227 0.0
C1592 C 0.51462 0.97975 0.39406 0.0
H1593 H 0.74202 0.85808 0.08369 0.0
H1594 H 0.70396 0.79675 0.04882 0.0
H1595 H 0.70551 0.77358 0.08889 0.0
H1596 H 0.78198 0.82387 0.11836 0.0
H1597 H 0.782 0.84337 0.14574 0.0
H1598 H 0.77501 0.85623 0.11542 0.0
H1599 H 0.7346 0.87205 0.13277 0.0
H1600 H 0.74153 0.85897 0.16315 0.0
H1601 H 0.714 0.85053 0.14741 0.0
H1602 H 0.71721 0.75461 0.12993 0.0
H1603 H 0.73736 0.74184 0.16932 0.0
H1604 H 0.76517 0.81608 0.17899 0.0
C1605 C 0.73366 0.83994 0.08461 0.0
C1606 C 0.72291 0.82918 0.06312 0.0
C1607 C 0.71222 0.80539 0.06505 0.0
C1608 C 0.71292 0.79213 0.08777 0.0
C1609 C 0.72392 0.80312 0.10854 0.0
C1610 C 0.73386 0.82662 0.10725 0.0
C1611 C 0.74613 0.8335 0.13175 0.0
C1612 C 0.77286 0.83958 0.12755 0.0
C1613 C 0.73329 0.85504 0.14452 0.0
C1614 C 0.7427 0.80971 0.14651 0.0
C1615 C 0.72953 0.79253 0.1329 0.0
C1616 C 0.7267 0.76818 0.14119 0.0
C1617 C 0.73801 0.76111 0.16365 0.0
C1618 C 0.75139 0.77842 0.17784 0.0
C1619 C 0.75362 0.80302 0.16925 0.0
H1620 H 0.89664 0.01019 0.66626 0.0
H1621 H 0.95728 -0.00367 0.71552 0.0
H1622 H 0.98471 0.00175 0.67979 0.0
H1623 H 0.91579 0.97642 0.61623 0.0
H1624 H 0.90529 -0.00286 0.59201 0.0
H1625 H 0.89101 -0.00332 0.62218 0.0
H1626 H 0.89905 0.04388 0.62611 0.0
H1627 H 0.91393 0.04416 0.59604 0.0
H1628 H 0.92927 0.0557 0.62352 0.0
H1629 H 0.00515 0.00396 0.63898 0.0
H1630 H 0.01627 0.99501 0.5953 0.0
H1631 H 0.94303 0.00624 0.57143 0.0
C1632 C 0.91573 0.00875 0.66958 0.0
C1633 C 0.9248 0.00305 0.69376 0.0
C1634 C 0.94987 0.00091 0.69726 0.0
C1635 C 0.96565 0.00422 0.6771 0.0
C1636 C 0.95618 0.00995 0.65355 0.0
C1637 C 0.93179 0.01201 0.64959 0.0
C1638 C 0.92616 0.01527 0.62185 0.0
C1639 C 0.90855 0.99516 0.61253 0.0
C1640 C 0.91652 0.0413 0.61658 0.0
C1641 C 0.95095 0.01248 0.6107 0.0
C1642 C 0.96812 0.01073 0.62946 0.0
C1643 C -0.00798 0.00594 0.62411 0.0
C1644 C -0.00174 0.0012 0.59918 0.0
C1645 C 0.98061 0.00072 0.58004 0.0
C1646 C 0.95695 0.00765 0.58561 0.0
H1647 H 0.72837 0.19323 0.44416 0.0
H1648 H 0.74115 0.11728 0.42204 0.0
H1649 H 0.74241 0.13014 0.37779 0.0
H1650 H 0.69203 0.21031 0.38719 0.0
H1651 H 0.70491 0.24097 0.38564 0.0
H1652 H 0.70141 0.22566 0.41563 0.0
H1653 H 0.74672 0.23192 0.42472 0.0
H1654 H 0.75034 0.24722 0.39485 0.0
H1655 H 0.76833 0.22072 0.4025 0.0
H1656 H 0.74516 0.15028 0.33726 0.0
H1657 H 0.7536 0.17787 0.30157 0.0
H1658 H 0.74097 0.24191 0.34828 0.0
C1659 C 0.731 0.17931 0.42992 0.0
C1660 C 0.73454 0.15424 0.43651 0.0
C1661 C 0.73837 0.13657 0.41745 0.0
C1662 C 0.7389 0.14364 0.39222 0.0
C1663 C 0.73552 0.16843 0.38634 0.0
C1664 C 0.73178 0.1861 0.40449 0.0
C1665 C 0.73097 0.21182 0.3929 0.0
C1666 C 0.70583 0.22284 0.3955 0.0
C1667 C 0.75025 0.22892 0.40442 0.0
C1668 C 0.73632 0.20583 0.36568 0.0
C1669 C 0.73799 0.18053 0.3624 0.0
C1670 C 0.74368 0.17008 0.33946 0.0
C1671 C 0.74847 0.18588 0.31937 0.0
C1672 C 0.74792 0.21183 0.32241 0.0
C1673 C 0.74122 0.22208 0.34562 0.0
H1674 H 0.56776 0.04407 0.17716 0.0
H1675 H 0.59335 0.96901 0.18674 0.0
H1676 H 0.57623 0.95776 0.1457 0.0
H1677 H 0.51224 0.02799 0.14999 0.0
H1678 H 0.51167 0.05357 0.12813 0.0
H1679 H 0.52782 0.05645 0.15733 0.0
H1680 H 0.56643 0.06819 0.13283 0.0
H1681 H 0.55039 0.06522 0.10351 0.0
H1682 H 0.57726 0.04774 0.10886 0.0
H1683 H 0.55475 0.95371 0.10522 0.0
H1684 H 0.52787 0.95684 0.06825 0.0
H1685 H 0.51568 0.03405 0.08467 0.0
C1686 C 0.5699 0.02534 0.17054 0.0
C1687 C 0.58192 0.00747 0.18514 0.0
C1688 C 0.58423 0.98307 0.1759 0.0
C1689 C 0.57469 0.97649 0.15253 0.0
C1690 C 0.56294 0.99451 0.13862 0.0
C1691 C 0.56041 0.0184 0.14723 0.0
C1692 C 0.54571 0.03376 0.12915 0.0
C1693 C 0.52302 0.0435 0.14192 0.0
C1694 C 0.56086 0.05498 0.11792 0.0
C1695 C 0.5397 0.01451 0.10951 0.0
C1696 C 0.55023 0.99211 0.11515 0.0
C1697 C 0.54657 0.97117 0.10044 0.0
C1698 C 0.53136 0.97308 0.07961 0.0
C1699 C 0.52009 -0.00433 0.07395 0.0
C1700 C 0.52447 0.01672 0.08874 0.0
H1701 H 0.72064 0.84227 0.92962 0.0
H1702 H 0.79626 0.82817 0.94196 0.0
H1703 H 0.79895 0.81012 0.89968 0.0
H1704 H 0.70656 0.78708 0.89753 0.0
H1705 H 0.68625 0.80106 0.87531 0.0
H1706 H 0.69068 0.81473 0.90576 0.0
H1707 H 0.70232 0.85628 0.8844 0.0
H1708 H 0.69829 0.84258 0.85382 0.0
H1709 H 0.72643 0.85717 0.86196 0.0
H1710 H 0.79385 0.79352 0.85668 0.0
H1711 H 0.77988 0.77284 0.81808 0.0
H1712 H 0.70697 0.79465 0.83371 0.0
C1713 C 0.73777 0.8354 0.92342 0.0
C1714 C 0.7583 0.83677 0.93915 0.0
C1715 C 0.78033 0.82749 0.93029 0.0
C1716 C 0.78208 0.81735 0.9062 0.0
C1717 C 0.76167 0.81667 0.89105 0.0
C1718 C 0.73985 0.82514 0.89934 0.0
C1719 C 0.72044 0.82089 0.87964 0.0
C1720 C 0.69977 0.80498 0.8902 0.0
C1721 C 0.71133 0.8457 0.86935 0.0
C1722 C 0.73448 0.80729 0.8597 0.0
C1723 C 0.75845 0.80608 0.86632 0.0
C1724 C 0.77518 0.79448 0.85122 0.0
C1725 C 0.76711 0.78297 0.82925 0.0
C1726 C 0.74247 0.78257 0.82282 0.0
C1727 C 0.72595 0.79523 0.83798 0.0
H1728 H 0.81487 0.92669 0.05087 0.0
H1729 H 0.80829 0.89988 0.97442 0.0
H1730 H 0.85074 0.91093 0.96673 0.0
H1731 H 0.84993 0.97951 0.03578 0.0
H1732 H 0.86792 0.97827 0.06398 0.0
H1733 H 0.83797 0.96566 0.06405 0.0
H1734 H 0.85463 0.92366 0.07955 0.0
H1735 H 0.88474 0.9361 0.07896 0.0
H1736 H 0.87744 0.90853 0.06153 0.0
H1737 H 0.89405 0.92519 0.96724 0.0
H1738 H 0.93152 0.94947 0.97282 0.0
H1739 H 0.90882 0.97043 0.0474 0.0
C1740 C 0.82241 0.92304 0.03256 0.0
C1741 C 0.80827 0.9123 0.01329 0.0
C1742 C 0.81872 0.90815 0.98946 0.0
C1743 C 0.84292 0.9141 0.985 0.0
C1744 C 0.85645 0.92441 0.00448 0.0
C1745 C 0.84642 0.92934 0.02762 0.0
C1746 C 0.86415 0.9428 0.04453 0.0
C1747 C 0.85441 0.96806 0.05254 0.0
C1748 C 0.87061 0.92682 0.06751 0.0
C1749 C 0.88537 0.94556 0.02696 0.0
C1750 C 0.88092 0.93393 0.0043 0.0
C1751 C 0.89774 0.93425 0.98495 0.0
C1752 C 0.91911 0.94783 0.98838 0.0
C1753 C 0.92317 0.96137 0.01071 0.0
C1754 C 0.90634 0.95973 0.03042 0.0
H1755 H 0.32977 0.56987 0.03268 0.0
H1756 H 0.29346 0.55534 0.96187 0.0
H1757 H 0.32611 0.52759 0.94959 0.0
H1758 H 0.38767 0.57365 0.00927 0.0
H1759 H 0.40149 0.55868 0.03591 0.0
H1760 H 0.37382 0.57481 0.03981 0.0
H1761 H 0.35546 0.53481 0.05889 0.0
H1762 H 0.38261 0.5179 0.05343 0.0
H1763 H 0.35464 0.50684 0.04059 0.0
H1764 H 0.36486 0.50643 0.94242 0.0
H1765 H 0.40753 0.49503 0.9403 0.0
H1766 H 0.41839 0.52143 0.01623 0.0
C1767 C 0.32842 0.56046 0.0148 0.0
C1768 C 0.30893 0.56471 -0.00169 0.0
C1769 C 0.30807 0.55229 0.97493 0.0
C1770 C 0.32651 0.53638 0.96781 0.0
C1771 C 0.34558 0.53281 0.98439 0.0
C1772 C 0.34665 0.54445 0.00744 0.0
C1773 C 0.37001 0.53898 0.02092 0.0
C1774 C 0.38407 0.56295 0.02679 0.0
C1775 C 0.36539 0.52374 0.04489 0.0
C1776 C 0.3825 0.52362 0.00123 0.0
C1777 C 0.36786 0.51986 0.98051 0.0
C1778 C 0.37625 0.50861 0.95879 0.0
C1779 C 0.40044 0.50201 0.95779 0.0
C1780 C 0.41593 0.50657 0.9784 0.0
C1781 C 0.40661 0.51664 0.00071 0.0
H1782 H 0.15228 0.57913 0.75874 0.0
H1783 H 0.17078 0.55434 0.68381 0.0
H1784 H 0.19027 0.59458 0.67522 0.0
H1785 H 0.14176 0.64506 0.7411 0.0
H1786 H 0.15467 0.65618 0.77006 0.0
H1787 H 0.13934 0.62668 0.76938 0.0
H1788 H 0.17715 0.60558 0.78761 0.0
H1789 H 0.1925 0.63495 0.78842 0.0
H1790 H 0.20542 0.60947 0.77171 0.0
H1791 H 0.21283 0.63425 0.677 0.0
H1792 H 0.23569 0.67199 0.68879 0.0
H1793 H 0.2009 0.6721 0.76138 0.0
C1794 C 0.16012 0.5823 0.7404 0.0
C1795 C 0.1602 0.56359 0.722 0.0
C1796 C 0.17062 0.5684 0.69823 0.0
C1797 C 0.1816 0.59124 0.6931 0.0
C1798 C 0.18164 0.60912 0.71181 0.0
C1799 C 0.17096 0.60506 0.73489 0.0
C1800 C 0.17501 0.62671 0.75235 0.0
C1801 C 0.15127 0.6394 0.75858 0.0
C1802 C 0.18832 0.61869 0.77643 0.0
C1803 C 0.19055 0.64304 0.73585 0.0
C1804 C 0.19395 0.63268 0.71243 0.0
C1805 C 0.20971 0.643 0.69492 0.0
C1806 C 0.22253 0.66435 0.70168 0.0
C1807 C 0.21916 0.67507 0.72552 0.0
C1808 C 0.20281 0.6646 0.74265 0.0
H1809 H 0.15106 0.42424 0.53464 0.0
H1810 H 0.1818 0.4181 0.45999 0.0
H1811 H 0.14396 0.4319 0.44137 0.0
H1812 H 0.08932 0.40556 0.51758 0.0
H1813 H 0.07561 0.42793 0.53781 0.0
H1814 H 0.10441 0.41531 0.54593 0.0
H1815 H 0.12224 0.45965 0.54852 0.0
H1816 H 0.09358 0.47228 0.54032 0.0
H1817 H 0.11954 0.48016 0.52183 0.0
H1818 H 0.1035 0.4436 0.43027 0.0
H1819 H 0.06466 0.46339 0.42638 0.0
H1820 H 0.05934 0.4679 0.50777 0.0
C1821 C 0.14974 0.42578 0.51439 0.0
C1822 C 0.1694 0.4198 0.49877 0.0
C1823 C 0.16709 0.42243 0.47238 0.0
C1824 C 0.14554 0.43002 0.46157 0.0
C1825 C 0.12644 0.43519 0.47734 0.0
C1826 C 0.12832 0.43383 0.50316 0.0
C1827 C 0.10536 0.44274 0.51548 0.0
C1828 C 0.09295 0.42162 0.53007 0.0
C1829 C 0.1105 0.46504 0.53254 0.0
C1830 C 0.09068 0.44995 0.49244 0.0
C1831 C 0.10311 0.44437 0.47079 0.0
C1832 C 0.09369 0.44841 0.44702 0.0
C1833 C 0.07149 0.4597 0.44511 0.0
C1834 C 0.05906 0.46775 0.46677 0.0
C1835 C 0.06837 0.46199 0.4909 0.0
H1836 H 0.85022 0.90808 0.70538 0.0
H1837 H 0.83209 0.93253 0.78033 0.0
H1838 H 0.81101 0.8927 0.78824 0.0
H1839 H 0.7946 0.8824 0.69283 0.0
H1840 H 0.80579 0.85751 0.67396 0.0
H1841 H 0.82263 0.88587 0.67638 0.0
H1842 H 0.85956 0.86122 0.69184 0.0
H1843 H 0.84256 0.83276 0.68982 0.0
H1844 H 0.85687 0.84131 0.719 0.0
H1845 H 0.78768 0.85174 0.78582 0.0
H1846 H 0.76131 0.81727 0.77131 0.0
H1847 H 0.79499 0.82067 0.69824 0.0
C1848 C 0.84235 0.90483 0.7237 0.0
C1849 C 0.84297 0.92327 0.7423 0.0
C1850 C 0.83185 0.91858 0.76579 0.0
C1851 C 0.82002 0.89593 0.77053 0.0
C1852 C 0.81946 0.87818 0.75158 0.0
C1853 C 0.83026 0.88255 0.72856 0.0
C1854 C 0.82448 0.86226 0.71006 0.0
C1855 C 0.81107 0.87262 0.68697 0.0
C1856 C 0.84723 0.84857 0.70223 0.0
C1857 C 0.80838 0.84595 0.72599 0.0
C1858 C 0.80593 0.85504 0.75008 0.0
C1859 C 0.78986 0.84421 0.76717 0.0
C1860 C 0.77511 0.82448 0.75893 0.0
C1861 C 0.77653 0.81621 0.73384 0.0
C1862 C 0.79406 0.82636 0.71771 0.0
H1863 H 0.67394 0.06408 0.52937 0.0
H1864 H 0.65768 0.12753 0.48241 0.0
H1865 H 0.61645 0.11158 0.47612 0.0
H1866 H 0.64324 0.01926 0.4966 0.0
H1867 H 0.63134 0.00279 0.52342 0.0
H1868 H 0.65877 0.02032 0.52638 0.0
H1869 H 0.64068 0.04524 0.56307 0.0
H1870 H 0.61316 0.02764 0.56034 0.0
H1871 H 0.61265 0.06091 0.55853 0.0
H1872 H 0.57963 0.0865 0.47047 0.0
H1873 H 0.54756 0.05472 0.46833 0.0
H1874 H 0.58627 0.00888 0.52125 0.0
C1875 C 0.66148 0.0747 0.51812 0.0
C1876 C 0.66866 0.0969 0.50632 0.0
C1877 C 0.65218 0.11056 0.49175 0.0
C1878 C 0.62884 0.10167 0.48808 0.0
C1879 C 0.62229 0.07952 0.49972 0.0
C1880 C 0.63791 0.06643 0.51485 0.0
C1881 C 0.6264 0.04289 0.52472 0.0
C1882 C 0.6408 0.01997 0.51731 0.0
C1883 C 0.62302 0.04426 0.55336 0.0
C1884 C 0.60258 0.04389 0.51119 0.0
C1885 C 0.60043 0.06543 0.49726 0.0
C1886 C 0.5807 0.06995 0.48192 0.0
C1887 C 0.56255 0.05202 0.48097 0.0
C1888 C 0.56429 0.0301 0.49534 0.0
C1889 C 0.58454 0.02584 0.5105 0.0
H1890 H 0.16591 0.42967 0.78513 0.0
H1891 H 0.15799 0.4324 0.70414 0.0
H1892 H 0.18285 0.3952 0.7002 0.0
H1893 H 0.22787 0.40127 0.78723 0.0
H1894 H 0.21986 0.38192 0.81365 0.0
H1895 H 0.20661 0.412 0.81003 0.0
H1896 H 0.16425 0.39195 0.81196 0.0
H1897 H 0.1773 0.36191 0.81547 0.0
H1898 H 0.15646 0.36767 0.79019 0.0
H1899 H 0.20253 0.3555 0.70488 0.0
H1900 H 0.21368 0.31347 0.71808 0.0
H1901 H 0.2076 0.3342 0.79621 0.0
C1902 C 0.1703 0.42283 0.76663 0.0
C1903 C 0.16068 0.43386 0.74486 0.0
C1904 C 0.16564 0.42413 0.7209 0.0
C1905 C 0.17982 0.40319 0.71851 0.0
C1906 C 0.18862 0.39219 0.74033 0.0
C1907 C 0.18399 0.40151 0.76398 0.0
C1908 C 0.19226 0.38392 0.78441 0.0
C1909 C 0.21288 0.39547 0.79973 0.0
C1910 C 0.17132 0.37589 0.80149 0.0
C1911 C 0.20099 0.36273 0.76853 0.0
C1912 C 0.19947 0.36834 0.74316 0.0
C1913 C 0.20459 0.35114 0.72465 0.0
C1914 C 0.21117 0.32746 0.73225 0.0
C1915 C 0.21244 0.3212 0.758 0.0
C1916 C 0.20739 0.33898 0.77642 0.0
H1917 H 0.32562 0.56671 0.25616 0.0
H1918 H 0.34668 0.58335 0.17949 0.0
H1919 H 0.32816 0.62477 0.18294 0.0
H1920 H 0.26893 0.59443 0.25267 0.0
H1921 H 0.26996 0.60503 0.28472 0.0
H1922 H 0.286 0.57778 0.27594 0.0
H1923 H 0.32552 0.59711 0.29323 0.0
H1924 H 0.30956 0.6244 0.30217 0.0
H1925 H 0.33529 0.62702 0.2819 0.0
H1926 H 0.30542 0.66528 0.19604 0.0
H1927 H 0.28111 0.69783 0.21682 0.0
H1928 H 0.27645 0.65126 0.28341 0.0
C1929 C 0.32655 0.57903 0.24007 0.0
C1930 C 0.33757 0.57181 0.21761 0.0
C1931 C 0.33817 0.5885 0.19692 0.0
C1932 C 0.32779 0.61208 0.19874 0.0
C1933 C 0.31686 0.61853 0.2213 0.0
C1934 C 0.31626 0.60226 0.24149 0.0
C1935 C 0.30284 0.61255 0.26341 0.0
C1936 C 0.28062 0.5965 0.26953 0.0
C1937 C 0.31929 0.61545 0.28653 0.0
C1938 C 0.29593 0.63724 0.25262 0.0
C1939 C 0.30404 0.64078 0.22839 0.0
C1940 C 0.29904 0.66258 0.21505 0.0
C1941 C 0.28526 0.68097 0.22692 0.0
C1942 C 0.27673 0.67713 0.2517 0.0
C1943 C 0.28246 0.65501 0.26443 0.0
H1944 H 0.49065 0.67172 0.60018 0.0
H1945 H 0.51914 0.71021 0.53487 0.0
H1946 H 0.5232 0.67038 0.51296 0.0
H1947 H 0.52819 0.61499 0.59319 0.0
H1948 H 0.50421 0.59484 0.6035 0.0
H1949 H 0.50659 0.62591 0.61552 0.0
H1950 H 0.4632 0.635 0.60071 0.0
H1951 H 0.46059 0.60388 0.58935 0.0
H1952 H 0.45506 0.62949 0.56836 0.0
H1953 H 0.52038 0.62676 0.49643 0.0
H1954 H 0.50577 0.58487 0.48525 0.0
H1955 H 0.47913 0.57454 0.5608 0.0
C1956 C 0.49808 0.67176 0.58141 0.0
C1957 C 0.50468 0.69422 0.56937 0.0
C1958 C 0.5141 0.69335 0.54466 0.0
C1959 C 0.51665 0.67073 0.53208 0.0
C1960 C 0.51001 0.64893 0.54448 0.0
C1961 C 0.50085 0.64928 0.5686 0.0
C1962 C 0.49306 0.62354 0.5769 0.0
C1963 C 0.50895 0.61428 0.59857 0.0
C1964 C 0.4664 0.62295 0.58423 0.0
C1965 C 0.49765 0.60898 0.5531 0.0
C1966 C 0.50829 0.62375 0.53491 0.0
C1967 C 0.51253 0.61491 0.51072 0.0
C1968 C 0.50447 0.59094 0.50457 0.0
C1969 C 0.49211 0.57619 0.52242 0.0
C1970 C 0.48949 0.58504 0.54719 0.0
H1971 H 0.57501 0.27468 0.8068 0.0
H1972 H 0.55986 0.2013 0.83671 0.0
H1973 H 0.59854 0.18687 0.82064 0.0
H1974 H 0.60616 0.25335 0.74951 0.0
H1975 H 0.62771 0.27842 0.75028 0.0
H1976 H 0.59792 0.28282 0.76236 0.0
H1977 H 0.61576 0.29663 0.8052 0.0
H1978 H 0.64547 0.29248 0.79306 0.0
H1979 H 0.63641 0.27665 0.82144 0.0
H1980 H 0.63959 0.18115 0.80514 0.0
H1981 H 0.68161 0.18458 0.79145 0.0
H1982 H 0.67059 0.26105 0.76983 0.0
C1983 C 0.5797 0.25549 0.80961 0.0
C1984 C 0.5643 0.23905 0.82281 0.0
C1985 C 0.57118 0.21414 0.82636 0.0
C1986 C 0.59312 0.20576 0.8173 0.0
C1987 C 0.60785 0.22239 0.8044 0.0
C1988 C 0.60148 0.2467 0.80041 0.0
C1989 C 0.62121 0.26093 0.78686 0.0
C1990 C 0.61274 0.26937 0.7607 0.0
C1991 C 0.63025 0.28296 0.80259 0.0
C1992 C 0.64003 0.24103 0.78484 0.0
C1993 C 0.63172 0.21889 0.79482 0.0
C1994 C 0.64618 0.19821 0.79684 0.0
C1995 C 0.66998 0.20034 0.78902 0.0
C1996 C 0.67909 0.22295 0.77928 0.0
C1997 C 0.66379 0.24339 0.77655 0.0
H1998 H -0.00352 0.33655 0.09613 0.0
H1999 H 0.98693 0.29553 0.02693 0.0
H2000 H 0.97982 0.33457 0.00395 0.0
H2001 H 0.95332 0.38764 0.08102 0.0
H2002 H 0.9725 0.41078 0.09511 0.0
H2003 H 0.97224 0.37958 0.10727 0.0
H2004 H 0.01821 0.37682 0.10094 0.0
H2005 H 0.01853 0.40809 0.08947 0.0
H2006 H 0.03068 0.38378 0.07045 0.0
H2007 H 0.97672 0.37788 0.98779 0.0
H2008 H 0.98752 0.42117 0.97797 0.0
H2009 H 0.00239 0.43462 0.05657 0.0
C2010 C -0.00761 0.33578 0.07624 0.0
C2011 C -0.00804 0.31293 0.06338 0.0
C2012 C 0.98724 0.31276 0.03721 0.0
C2013 C 0.98288 0.33485 0.02405 0.0
C2014 C 0.98338 0.35708 0.03725 0.0
C2015 C 0.98845 0.35776 0.0627 0.0
C2016 C 0.99139 0.38424 0.07168 0.0
C2017 C 0.97116 0.39095 0.08985 0.0
C2018 C 0.01618 0.38847 0.08382 0.0
C2019 C 0.98882 0.39826 0.04701 0.0
C2020 C 0.98293 0.3823 0.02765 0.0
C2021 C 0.98096 0.39057 0.00287 0.0
C2022 C 0.98678 0.41534 -0.00252 0.0
C2023 C -0.00488 0.43138 0.01661 0.0
C2024 C -0.0049 0.42301 0.04181 0.0
H2025 H 0.91681 0.70969 0.32555 0.0
H2026 H 0.93117 0.78299 0.35521 0.0
H2027 H 0.88999 0.79538 0.34442 0.0
H2028 H 0.88473 0.73012 0.273 0.0
H2029 H 0.86377 0.70453 0.27275 0.0
H2030 H 0.89319 0.70058 0.28591 0.0
H2031 H 0.87411 0.68556 0.32775 0.0
H2032 H 0.84457 0.68987 0.31473 0.0
H2033 H 0.85297 0.70497 0.34363 0.0
H2034 H 0.84896 0.80136 0.32635 0.0
H2035 H 0.8125 0.80086 0.2994 0.0
H2036 H 0.82469 0.72394 0.28215 0.0
C2037 C 0.91112 0.72819 0.33017 0.0
C2038 C 0.92712 0.74534 0.34129 0.0
C2039 C 0.91921 0.76956 0.34659 0.0
C2040 C 0.89578 0.77672 0.34077 0.0
C2041 C 0.88046 0.75946 0.32964 0.0
C2042 C 0.88785 0.73573 0.32424 0.0
C2043 C 0.8688 0.7216 0.30977 0.0
C2044 C 0.87818 0.71377 0.28383 0.0
C2045 C 0.85957 0.69917 0.32489 0.0
C2046 C 0.84981 0.74126 0.30743 0.0
C2047 C 0.85667 0.76289 0.31931 0.0
C2048 C 0.84308 0.78438 0.31747 0.0
C2049 C 0.82239 0.78397 0.30233 0.0
C2050 C 0.8157 0.7622 0.2895 0.0
C2051 C 0.82915 0.74051 0.29264 0.0
H2052 H 0.486 0.30465 0.9408 0.0
H2053 H 0.49947 0.32378 0.86281 0.0
H2054 H 0.49872 0.36828 0.87367 0.0
H2055 H 0.44664 0.35516 0.95569 0.0
H2056 H 0.45918 0.35894 0.98673 0.0
H2057 H 0.45893 0.32896 0.97216 0.0
H2058 H 0.50499 0.32598 0.97829 0.0
H2059 H 0.50532 0.35579 0.99308 0.0
H2060 H 0.52409 0.35036 0.96623 0.0
H2061 H 0.49815 0.41127 0.89438 0.0
H2062 H 0.50105 0.44722 0.92336 0.0
H2063 H 0.48834 0.398 0.9866 0.0
C2064 C 0.48853 0.31817 0.92593 0.0
C2065 C 0.49268 0.31087 0.90102 0.0
C2066 C 0.49634 0.32909 0.88212 0.0
C2067 C 0.49576 0.35436 0.88805 0.0
C2068 C 0.49161 0.36096 0.91294 0.0
C2069 C 0.48824 0.34326 0.93154 0.0
C2070 C 0.48594 0.35469 0.95712 0.0
C2071 C 0.46119 0.34911 0.96858 0.0
C2072 C 0.50629 0.34621 0.9747 0.0
C2073 C 0.48865 0.3816 0.95017 0.0
C2074 C 0.49167 0.38513 0.92464 0.0
C2075 C 0.49563 0.40869 0.91438 0.0
C2076 C 0.49716 0.42898 0.93086 0.0
C2077 C 0.49508 0.42521 0.95709 0.0
C2078 C 0.49015 0.40136 0.96659 0.0
H2079 H 0.90101 0.21992 0.13878 0.0
H2080 H 0.93113 0.28861 0.1671 0.0
H2081 H 0.89305 0.297 0.18906 0.0
H2082 H 0.83854 0.24012 0.13107 0.0
H2083 H 0.82661 0.21094 0.14209 0.0
H2084 H 0.85496 0.21207 0.12597 0.0
H2085 H 0.87557 0.19028 0.16374 0.0
H2086 H 0.84722 0.1886 0.17956 0.0
H2087 H 0.87259 0.20314 0.19476 0.0
H2088 H 0.85251 0.29573 0.21142 0.0
H2089 H 0.81698 0.28183 0.23592 0.0
H2090 H 0.81386 0.21446 0.19257 0.0
C2091 C 0.89949 0.23695 0.14923 0.0
C2092 C 0.91903 0.25368 0.15104 0.0
C2093 C 0.91642 0.27548 0.16542 0.0
C2094 C 0.89475 0.28053 0.17777 0.0
C2095 C 0.87579 0.2636 0.17561 0.0
C2096 C 0.87813 0.24212 0.16184 0.0
C2097 C 0.85635 0.22547 0.16473 0.0
C2098 C 0.84335 0.22196 0.13945 0.0
C2099 C 0.86335 0.20042 0.1764 0.0
C2100 C 0.84153 0.24062 0.18266 0.0
C2101 C 0.85273 0.26282 0.18844 0.0
C2102 C 0.84338 0.27862 0.20664 0.0
C2103 C 0.82299 0.2708 0.22026 0.0
C2104 C 0.81238 0.24741 0.21559 0.0
C2105 C 0.82115 0.23284 0.19579 0.0
H2106 H 0.0161 0.678 0.40198 0.0
H2107 H 0.96052 0.70772 0.4496 0.0
H2108 H 0.96199 0.67004 0.47617 0.0
H2109 H -0.00489 0.61596 0.40317 0.0
H2110 H 0.02475 0.60308 0.40313 0.0
H2111 H 0.01963 0.63282 0.38893 0.0
H2112 H 0.05271 0.65205 0.41744 0.0
H2113 H 0.05769 0.62236 0.43191 0.0
H2114 H 0.05056 0.64862 0.45109 0.0
H2115 H 0.96853 0.62719 0.49637 0.0
H2116 H 0.97904 0.58379 0.50678 0.0
H2117 H 0.03066 0.58444 0.44613 0.0
C2118 C 0.00431 0.67675 0.41807 0.0
C2119 C 0.98823 0.69585 0.4237 0.0
C2120 C 0.97305 0.69333 0.44492 0.0
C2121 C 0.97378 0.67202 0.46017 0.0
C2122 C 0.98991 0.65351 0.45405 0.0
C2123 C 0.00488 0.65577 0.43347 0.0
C2124 C 0.02001 0.63309 0.43018 0.0
C2125 C 0.01454 0.6205 0.40487 0.0
C2126 C 0.04683 0.63942 0.43282 0.0
C2127 C 0.01121 0.61761 0.45204 0.0
C2128 C -0.00616 0.62949 0.46568 0.0
C2129 C 0.98226 0.61782 0.48585 0.0
C2130 C 0.98822 0.59318 0.49164 0.0
C2131 C 0.00544 0.58056 0.47728 0.0
C2132 C 0.0175 0.59341 0.45777 0.0
H2133 H 0.57186 0.71174 0.66461 0.0
H2134 H 0.53786 0.78138 0.68185 0.0
H2135 H 0.57267 0.79326 0.70804 0.0
H2136 H 0.60145 0.70325 0.72728 0.0
H2137 H 0.62791 0.69028 0.7135 0.0
H2138 H 0.59913 0.68583 0.69856 0.0
H2139 H 0.61583 0.70463 0.65719 0.0
H2140 H 0.6446 0.70893 0.67196 0.0
H2141 H 0.6297 0.7349 0.65771 0.0
H2142 H 0.61323 0.80011 0.72739 0.0
H2143 H 0.65634 0.80119 0.73836 0.0
H2144 H 0.66381 0.7265 0.71089 0.0
C2145 C 0.57149 0.72927 0.67432 0.0
C2146 C 0.55195 0.74555 0.6712 0.0
C2147 C 0.55242 0.76846 0.68403 0.0
C2148 C 0.57214 0.77537 0.69902 0.0
C2149 C 0.59122 0.75906 0.7014 0.0
C2150 C 0.59098 0.73637 0.68958 0.0
C2151 C 0.61448 0.723 0.69383 0.0
C2152 C 0.6105 0.69917 0.70921 0.0
C2153 C 0.62688 0.71756 0.66868 0.0
C2154 C 0.62835 0.74215 0.70897 0.0
C2155 C 0.61447 0.76271 0.71337 0.0
C2156 C 0.62404 0.78385 0.72469 0.0
C2157 C 0.6485 0.78429 0.731 0.0
C2158 C 0.66312 0.76364 0.7263 0.0
C2159 C 0.65275 0.74209 0.71571 0.0
H2160 H 0.58024 0.47287 0.68527 0.0
H2161 H 0.55958 0.54842 0.70068 0.0
H2162 H 0.53605 0.54927 0.66136 0.0
H2163 H 0.58899 0.48008 0.62092 0.0
H2164 H 0.57698 0.45021 0.61233 0.0
H2165 H 0.59 0.45466 0.64296 0.0
H2166 H 0.55061 0.43897 0.66356 0.0
H2167 H 0.53739 0.4346 0.63291 0.0
H2168 H 0.52272 0.45369 0.65572 0.0
H2169 H 0.51722 0.54303 0.61881 0.0
H2170 H 0.50633 0.53075 0.57555 0.0
H2171 H 0.53945 0.45945 0.58788 0.0
C2172 C 0.57046 0.48945 0.68059 0.0
C2173 C 0.57165 0.51052 0.69616 0.0
C2174 C 0.55879 0.53196 0.68919 0.0
C2175 C 0.54531 0.53262 0.6669 0.0
C2176 C 0.54466 0.51161 0.65188 0.0
C2177 C 0.55684 0.4904 0.65845 0.0
C2178 C 0.5544 0.47087 0.63829 0.0
C2179 C 0.57906 0.46355 0.62802 0.0
C2180 C 0.54045 0.44819 0.64822 0.0
C2181 C 0.53988 0.48481 0.61887 0.0
C2182 C 0.53398 0.50809 0.62727 0.0
C2183 C 0.52145 0.52471 0.61216 0.0
C2184 C 0.51525 0.51753 0.58764 0.0
C2185 C 0.52195 0.49409 0.57838 0.0
C2186 C 0.53398 0.47743 0.59446 0.0
H2187 H 0.78062 0.31666 0.93738 0.0
H2188 H 0.71871 0.3627 0.92303 0.0
H2189 H 0.71669 0.34729 0.87952 0.0
H2190 H 0.80827 0.32415 0.87782 0.0
H2191 H 0.81804 0.29256 0.87581 0.0
H2192 H 0.81459 0.30684 0.90608 0.0
H2193 H 0.78533 0.27186 0.92017 0.0
H2194 H 0.78928 0.25709 0.89025 0.0
H2195 H 0.75961 0.26456 0.90087 0.0
H2196 H 0.72193 0.32772 0.83767 0.0
H2197 H 0.73014 0.30024 0.80206 0.0
H2198 H 0.78891 0.26749 0.84363 0.0
C2199 C 0.76656 0.3234 0.92514 0.0
C2200 C 0.75 0.34102 0.93342 0.0
C2201 C 0.73165 0.34922 0.91699 0.0
C2202 C 0.73046 0.34075 0.89222 0.0
C2203 C 0.74764 0.32405 0.88439 0.0
C2204 C 0.76502 0.31508 0.90047 0.0
C2205 C 0.78077 0.2965 0.88768 0.0
C2206 C 0.80697 0.30557 0.8868 0.0
C2207 C 0.7786 0.27099 0.9005 0.0
C2208 C 0.76953 0.29644 0.86182 0.0
C2209 C 0.75064 0.31268 0.86023 0.0
C2210 C 0.73685 0.31512 0.83855 0.0
C2211 C 0.74191 0.29974 0.81825 0.0
C2212 C 0.76051 0.28222 0.81994 0.0
C2213 C 0.77486 0.28104 0.84175 0.0
H2214 H 0.90925 0.5252 0.18145 0.0
H2215 H 0.94563 0.45684 0.19969 0.0
H2216 H 0.96969 0.46113 0.16097 0.0
H2217 H 0.90337 0.51441 0.11753 0.0
H2218 H 0.908 0.54616 0.10812 0.0
H2219 H 0.89592 0.53913 0.13863 0.0
H2220 H 0.93011 0.56475 0.15946 0.0
H2221 H 0.94239 0.57177 0.12892 0.0
H2222 H 0.96086 0.55753 0.15266 0.0
H2223 H 0.98682 0.47086 0.11829 0.0
H2224 H -0.00553 0.48434 0.07466 0.0
H2225 H 0.94695 0.54649 0.08511 0.0
C2226 C 0.92257 0.51132 0.17758 0.0
C2227 C 0.92566 0.49074 0.19362 0.0
C2228 C 0.94307 0.47285 0.18772 0.0
C2229 C 0.95687 0.47517 0.16582 0.0
C2230 C 0.95316 0.49559 0.15025 0.0
C2231 C 0.93645 0.51337 0.15592 0.0
C2232 C 0.9345 0.5325 0.13525 0.0
C2233 C 0.90894 0.53306 0.12424 0.0
C2234 C 0.94245 0.55816 0.14464 0.0
C2235 C 0.9522 0.52231 0.11667 0.0
C2236 C 0.96304 0.50121 0.12575 0.0
C2237 C 0.97877 0.48761 0.11114 0.0
C2238 C 0.98305 0.49548 0.08638 0.0
C2239 C 0.97141 0.51659 0.07647 0.0
C2240 C 0.95634 0.53045 0.09215 0.0
H2241 H 0.74767 0.64137 0.41052 0.0
H2242 H 0.75348 0.70609 0.45797 0.0
H2243 H 0.76007 0.73229 0.42043 0.0
H2244 H 0.79022 0.66362 0.35928 0.0
H2245 H 0.77152 0.65055 0.33495 0.0
H2246 H 0.77301 0.63586 0.36544 0.0
H2247 H 0.7268 0.63836 0.36969 0.0
H2248 H 0.7253 0.65237 0.3391 0.0
H2249 H 0.71244 0.66784 0.36572 0.0
H2250 H 0.76163 0.75197 0.37844 0.0
H2251 H 0.74842 0.76479 0.33615 0.0
H2252 H 0.73822 0.68822 0.31535 0.0
C2253 C 0.75095 0.66099 0.41296 0.0
C2254 C 0.75039 0.67173 0.43711 0.0
C2255 C 0.75396 0.69752 0.43963 0.0
C2256 C 0.75806 0.71247 0.41843 0.0
C2257 C 0.75843 0.70138 0.39481 0.0
C2258 C 0.75457 0.67626 0.39191 0.0
C2259 C 0.75173 0.66962 0.36437 0.0
C2260 C 0.77288 0.65398 0.35549 0.0
C2261 C 0.72763 0.65629 0.35945 0.0
C2262 C 0.75264 0.69514 0.35244 0.0
C2263 C 0.75795 0.71302 0.37021 0.0
C2264 C 0.75793 0.73813 0.36427 0.0
C2265 C 0.75067 0.74527 0.3401 0.0
C2266 C 0.74294 0.72741 0.32246 0.0
C2267 C 0.74501 0.70207 0.32826 0.0
H2268 H 0.57573 0.48162 0.82084 0.0
H2269 H 0.63184 0.53272 0.84466 0.0
H2270 H 0.61403 0.53448 0.88667 0.0
H2271 H 0.52916 0.50993 0.84907 0.0
H2272 H 0.51322 0.48245 0.85912 0.0
H2273 H 0.53289 0.48119 0.83255 0.0
H2274 H 0.55602 0.44558 0.85415 0.0
H2275 H 0.53655 0.44719 0.88108 0.0
H2276 H 0.56854 0.45008 0.88509 0.0
H2277 H 0.58715 0.53755 0.92233 0.0
H2278 H 0.55156 0.54256 0.94909 0.0
H2279 H 0.51286 0.48863 0.90452 0.0
C2280 C 0.58455 0.49268 0.83512 0.0
C2281 C 0.60528 0.50691 0.82945 0.0
C2282 C 0.61607 0.52151 0.8485 0.0
C2283 C 0.6062 0.52248 0.87257 0.0
C2284 C 0.58567 0.50851 0.87753 0.0
C2285 C 0.57495 0.49374 0.85945 0.0
C2286 C 0.55144 0.48292 0.86897 0.0
C2287 C 0.53045 0.48955 0.85139 0.0
C2288 C 0.55325 0.45477 0.87253 0.0
C2289 C 0.54967 0.49579 0.89418 0.0
C2290 C 0.57007 0.50976 0.89907 0.0
C2291 C 0.57146 0.52601 0.91929 0.0
C2292 C 0.55124 0.5287 0.93444 0.0
C2293 C 0.53015 0.51497 0.92951 0.0
C2294 C 0.52944 0.49802 0.90949 0.0
H2295 H 0.75063 0.30258 0.0528 0.0
H2296 H 0.74217 0.37947 0.07414 0.0
H2297 H 0.74397 0.36762 0.11858 0.0
H2298 H 0.71369 0.27703 0.09729 0.0
H2299 H 0.73144 0.25027 0.10461 0.0
H2300 H 0.73387 0.26474 0.07421 0.0
H2301 H 0.77969 0.27015 0.08062 0.0
H2302 H 0.77738 0.25562 0.11114 0.0
H2303 H 0.79084 0.28592 0.10813 0.0
H2304 H 0.74072 0.34834 0.15921 0.0
H2305 H 0.73119 0.32178 0.19526 0.0
H2306 H 0.7426 0.2564 0.15022 0.0
C2307 C 0.74955 0.31691 0.06687 0.0
C2308 C 0.74619 0.34194 0.05997 0.0
C2309 C 0.74467 0.36017 0.07889 0.0
C2310 C 0.74592 0.35368 0.10424 0.0
C2311 C 0.74892 0.32891 0.11043 0.0
C2312 C 0.75082 0.31072 0.09245 0.0
C2313 C 0.75165 0.28524 0.10459 0.0
C2314 C 0.73145 0.26834 0.09458 0.0
C2315 C 0.77636 0.27354 0.10089 0.0
C2316 C 0.74784 0.29197 0.13192 0.0
C2317 C 0.74717 0.31739 0.13473 0.0
C2318 C 0.74181 0.32846 0.15745 0.0
C2319 C 0.73643 0.31322 0.17781 0.0
C2320 C 0.73661 0.28719 0.17546 0.0
C2321 C 0.74285 0.27629 0.15243 0.0
H2322 H 0.90809 0.51953 0.32014 0.0
H2323 H 0.88873 0.44172 0.32415 0.0
H2324 H 0.89711 0.44164 0.36973 0.0
H2325 H 0.95751 0.515 0.35693 0.0
H2326 H 0.95461 0.54465 0.37188 0.0
H2327 H 0.94189 0.53974 0.34129 0.0
H2328 H 0.9004 0.55315 0.35825 0.0
H2329 H 0.91313 0.55756 0.38914 0.0
H2330 H 0.88759 0.53729 0.38499 0.0
H2331 H 0.91248 0.44834 0.41289 0.0
H2332 H 0.94006 0.45939 0.44771 0.0
H2333 H 0.95046 0.53219 0.41508 0.0
C2334 C 0.9051 0.50265 0.33078 0.0
C2335 C 0.8977 0.48071 0.31886 0.0
C2336 C 0.89451 0.45874 0.33308 0.0
C2337 C 0.89882 0.45862 0.35899 0.0
C2338 C 0.90624 0.48059 0.37027 0.0
C2339 C 0.90962 0.50215 0.35653 0.0
C2340 C 0.92162 0.52206 0.37199 0.0
C2341 C 0.9453 0.53084 0.35981 0.0
C2342 C 0.90466 0.5438 0.37634 0.0
C2343 C 0.92587 0.50784 0.39603 0.0
C2344 C 0.91596 0.48429 0.39513 0.0
C2345 C 0.9199 0.46687 0.4141 0.0
C2346 C 0.93549 0.47325 0.43377 0.0
C2347 C 0.94716 0.49653 0.43366 0.0
C2348 C 0.94141 0.51436 0.4154 0.0
H2349 H 0.77048 0.69275 0.54973 0.0
H2350 H 0.74934 0.61838 0.57196 0.0
H2351 H 0.74577 0.63213 0.61606 0.0
H2352 H 0.80443 0.70845 0.60646 0.0
H2353 H 0.79412 0.7399 0.60657 0.0
H2354 H 0.79704 0.72367 0.57727 0.0
H2355 H 0.75256 0.73254 0.56665 0.0
H2356 H 0.74955 0.74886 0.59583 0.0
H2357 H 0.72957 0.72342 0.58866 0.0
H2358 H 0.74448 0.65453 0.65796 0.0
H2359 H 0.73965 0.68457 0.69277 0.0
H2360 H 0.76022 0.74409 0.64206 0.0
C2361 C 0.76541 0.67925 0.56391 0.0
C2362 C 0.76042 0.65444 0.55742 0.0
C2363 C 0.75335 0.63749 0.5765 0.0
C2364 C 0.75141 0.64509 0.60163 0.0
C2365 C 0.75646 0.66973 0.60737 0.0
C2366 C 0.7631 0.68658 0.58896 0.0
C2367 C 0.76586 0.71234 0.59962 0.0
C2368 C 0.79191 0.72163 0.59734 0.0
C2369 C 0.74834 0.73034 0.58694 0.0
C2370 C 0.75925 0.70747 0.62677 0.0
C2371 C 0.75439 0.68275 0.63108 0.0
C2372 C 0.74786 0.674 0.65484 0.0
C2373 C 0.7454 0.69112 0.6745 0.0
C2374 C 0.74935 0.71667 0.67014 0.0
C2375 C 0.75683 0.7247 0.64602 0.0
H2376 H 0.68128 0.56518 0.46824 0.0
H2377 H 0.66609 0.62006 0.52511 0.0
H2378 H 0.62373 0.60705 0.5253 0.0
H2379 H 0.62365 0.5721 0.43467 0.0
H2380 H 0.62099 0.53966 0.42748 0.0
H2381 H 0.65021 0.55395 0.43048 0.0
H2382 H 0.66201 0.52182 0.46455 0.0
H2383 H 0.63308 0.50721 0.4612 0.0
H2384 H 0.6431 0.51756 0.49168 0.0
H2385 H 0.58297 0.58819 0.51992 0.0
H2386 H 0.54812 0.56028 0.51391 0.0
H2387 H 0.58914 0.51667 0.46157 0.0
C2388 C 0.66902 0.5744 0.48073 0.0
C2389 C 0.67705 0.59378 0.49653 0.0
C2390 C 0.66039 0.60538 0.51259 0.0
C2391 C 0.6362 0.5982 0.51279 0.0
C2392 C 0.62872 0.57948 0.49664 0.0
C2393 C 0.6446 0.56754 0.48105 0.0
C2394 C 0.63186 0.54734 0.46628 0.0
C2395 C 0.63167 0.55364 0.43805 0.0
C2396 C 0.64318 0.52198 0.47125 0.0
C2397 C 0.60678 0.54887 0.47715 0.0
C2398 C 0.60517 0.56815 0.49395 0.0
C2399 C 0.58395 0.57314 0.50665 0.0
C2400 C 0.56412 0.55737 0.50289 0.0
C2401 C 0.56583 0.53656 0.48702 0.0
C2402 C 0.58727 0.53267 0.47353 0.0
H2403 H 0.1671 0.9312 0.47005 0.0
H2404 H 0.17703 0.90558 0.54663 0.0
H2405 H 0.14012 0.92697 0.55936 0.0
H2406 H 0.13968 0.99285 0.48768 0.0
H2407 H 0.11942 0.99188 0.46122 0.0
H2408 H 0.14865 0.97817 0.45892 0.0
H2409 H 0.12887 0.93644 0.4461 0.0
H2410 H 0.09978 0.95015 0.44832 0.0
H2411 H 0.10642 0.92264 0.46622 0.0
H2412 H 0.10105 0.94594 0.56273 0.0
H2413 H 0.05965 0.95956 0.55656 0.0
H2414 H 0.07376 0.97368 0.47761 0.0
C2415 C 0.16165 0.93077 0.48957 0.0
C2416 C 0.1747 0.91726 0.50759 0.0
C2417 C 0.1672 0.91632 0.53285 0.0
C2418 C 0.14643 0.92847 0.5402 0.0
C2419 C 0.13378 0.94169 0.52203 0.0
C2420 C 0.14104 0.94305 0.49724 0.0
C2421 C 0.12285 0.95658 0.48115 0.0
C2422 C 0.13328 0.98134 0.47168 0.0
C2423 C 0.11395 0.94047 0.45917 0.0
C2424 C 0.10338 0.96076 0.50037 0.0
C2425 C 0.11057 0.95274 0.52397 0.0
C2426 C 0.09535 0.95274 0.54452 0.0
C2427 C 0.07189 0.96041 0.54079 0.0
C2428 C 0.06378 0.96769 0.51665 0.0
C2429 C 0.07983 0.96868 0.4963 0.0
H2430 H 0.32583 0.93222 0.72282 0.0
H2431 H 0.38666 0.90126 0.76274 0.0
H2432 H 0.36512 0.86125 0.76615 0.0
H2433 H 0.28154 0.90529 0.75888 0.0
H2434 H 0.26095 0.89923 0.7334 0.0
H2435 H 0.28211 0.92445 0.73104 0.0
H2436 H 0.29866 0.90658 0.68946 0.0
H2437 H 0.2772 0.88151 0.69148 0.0
H2438 H 0.30868 0.87502 0.68872 0.0
H2439 H 0.33568 0.82635 0.76878 0.0
H2440 H 0.30108 0.79769 0.7681 0.0
H2441 H 0.25967 0.8523 0.72692 0.0
C2442 C 0.33483 0.91692 0.7319 0.0
C2443 C 0.35782 0.91977 0.74263 0.0
C2444 C 0.36902 0.89937 0.75435 0.0
C2445 C 0.35696 0.87664 0.7564 0.0
C2446 C 0.33394 0.87474 0.74637 0.0
C2447 C 0.32312 0.89421 0.73403 0.0
C2448 C 0.29782 0.88781 0.72605 0.0
C2449 C 0.27954 0.90523 0.73807 0.0
C2450 C 0.29547 0.88772 0.69722 0.0
C2451 C 0.29581 0.86203 0.73674 0.0
C2452 C 0.31688 0.8547 0.74811 0.0
C2453 C 0.31912 0.83177 0.75976 0.0
C2454 C 0.29932 0.81575 0.75943 0.0
C2455 C 0.27762 0.8229 0.74764 0.0
C2456 C 0.2759 0.84639 0.73631 0.0
H2457 H 0.31984 0.06832 0.97674 0.0
H2458 H 0.34016 0.13191 0.02172 0.0
H2459 H 0.38189 0.11767 0.02299 0.0
H2460 H 0.35467 0.02467 0.00705 0.0
H2461 H 0.36323 0.00835 0.97906 0.0
H2462 H 0.33576 0.0253 0.97948 0.0
H2463 H 0.35002 0.04973 0.94003 0.0
H2464 H 0.37796 0.03325 0.94017 0.0
H2465 H 0.37807 0.06655 0.94106 0.0
H2466 H 0.42026 0.09479 0.02328 0.0
H2467 H 0.45043 0.06191 0.02737 0.0
H2468 H 0.40641 0.01366 0.98147 0.0
C2469 C 0.33316 0.07925 0.9867 0.0
C2470 C 0.32678 0.10124 -0.00092 0.0
C2471 C 0.34468 0.11511 0.0119 0.0
C2472 C 0.36851 0.10729 0.01257 0.0
C2473 C 0.37438 0.08579 -0.00015 0.0
C2474 C 0.35724 0.0719 0.98719 0.0
C2475 C 0.36807 0.04859 0.97664 0.0
C2476 C 0.35465 0.02537 0.98615 0.0
C2477 C 0.36855 0.04959 0.94776 0.0
C2478 C 0.39329 0.0505 0.98729 0.0
C2479 C 0.39687 0.07263 -0.00028 0.0
C2480 C 0.41794 0.07768 0.01305 0.0
C2481 C 0.43516 0.05905 0.01502 0.0
C2482 C 0.43097 0.03569 0.00402 0.0
C2483 C 0.41037 0.0318 0.98906 0.0
H2484 H 0.68679 0.56999 0.71213 0.0
H2485 H 0.62236 0.57673 0.75676 0.0
H2486 H 0.62995 0.62149 0.76099 0.0
H2487 H 0.7225 0.60664 0.74808 0.0
H2488 H 0.73905 0.62092 0.7227 0.0
H2489 H 0.72553 0.591 0.71842 0.0
H2490 H 0.70321 0.60787 0.67933 0.0
H2491 H 0.71567 0.63836 0.68431 0.0
H2492 H 0.68373 0.63406 0.68242 0.0
H2493 H 0.64682 0.66388 0.76529 0.0
H2494 H 0.67501 0.6977 0.776 0.0
H2495 H 0.72992 0.6634 0.7315 0.0
C2496 C 0.67399 0.58106 0.72221 0.0
C2497 C 0.65391 0.56992 0.73394 0.0
C2498 C 0.63786 0.58487 0.74755 0.0
C2499 C 0.64186 0.6104 0.74981 0.0
C2500 C 0.66201 0.62083 0.73836 0.0
C2501 C 0.67797 0.60658 0.72504 0.0
C2502 C 0.70001 0.62159 0.71782 0.0
C2503 C 0.72312 0.60931 0.72736 0.0
C2504 C 0.70068 0.62568 0.68925 0.0
C2505 C 0.69506 0.64568 0.73126 0.0
C2506 C 0.67239 0.64534 0.7417 0.0
C2507 C 0.66439 0.66459 0.75674 0.0
C2508 C 0.68043 0.68387 0.76256 0.0
C2509 C 0.70429 0.68351 0.75379 0.0
C2510 C 0.7114 0.66471 0.73723 0.0
H2511 H 0.83419 0.39319 0.97152 0.0
H2512 H 0.80575 0.42009 0.04184 0.0
H2513 H 0.84319 0.4436 0.04945 0.0
H2514 H 0.899 0.39041 -0.00578 0.0
H2515 H 0.91045 0.40022 0.96412 0.0
H2516 H 0.8832 0.38204 0.96585 0.0
H2517 H 0.86078 0.41571 0.94051 0.0
H2518 H 0.88789 0.4339 0.9387 0.0
H2519 H 0.86116 0.44715 0.95167 0.0
H2520 H 0.88018 0.46683 0.04784 0.0
H2521 H 0.91484 0.49241 0.03573 0.0
H2522 H 0.92082 0.45225 0.96568 0.0
C2523 C 0.83626 0.40374 0.98866 0.0
C2524 C 0.81751 0.40502 0.00628 0.0
C2525 C 0.82022 0.41903 0.02837 0.0
C2526 C 0.84141 0.43218 0.0329 0.0
C2527 C 0.85966 0.4308 0.01521 0.0
C2528 C 0.85747 0.417 0.99351 0.0
C2529 C 0.87915 0.42078 0.97665 0.0
C2530 C 0.89381 0.39694 0.97512 0.0
C2531 C 0.87179 0.42995 0.95034 0.0
C2532 C 0.89271 0.44049 0.99131 0.0
C2533 C 0.88145 0.44507 0.01394 0.0
C2534 C 0.88938 0.46324 0.03039 0.0
C2535 C 0.90895 0.47772 0.02328 0.0
C2536 C 0.92014 0.47426 -0.00022 0.0
C2537 C 0.91252 0.45497 0.9838 0.0
H2538 H 0.34345 0.08281 0.70516 0.0
H2539 H 0.30814 0.04548 0.76726 0.0
H2540 H 0.27937 0.08005 0.7704 0.0
H2541 H 0.34033 0.14222 0.72842 0.0
H2542 H 0.33527 0.15651 0.69822 0.0
H2543 H 0.35118 0.12789 0.7002 0.0
H2544 H 0.32064 0.10781 0.66921 0.0
H2545 H 0.30451 0.13643 0.66733 0.0
H2546 H 0.2891 0.10832 0.67638 0.0
H2547 H 0.25853 0.12243 0.76999 0.0
H2548 H 0.24691 0.16632 0.76446 0.0
H2549 H 0.29377 0.17179 0.69964 0.0
C2550 C 0.32942 0.08174 0.71916 0.0
C2551 C 0.3279 0.06173 0.73597 0.0
C2552 C 0.30936 0.06077 0.75409 0.0
C2553 C 0.29301 0.08026 0.756 0.0
C2554 C 0.29521 0.10005 0.7392 0.0
C2555 C 0.31277 0.10057 0.72088 0.0
C2556 C 0.31231 0.12408 0.70571 0.0
C2557 C 0.33617 0.13851 0.70831 0.0
C2558 C 0.30627 0.11883 0.67802 0.0
C2559 C 0.29215 0.13712 0.71864 0.0
C2560 C 0.28244 0.12326 0.73804 0.0
C2561 C 0.26556 0.13318 0.7544 0.0
C2562 C 0.259 0.15807 0.7511 0.0
C2563 C 0.26933 0.17249 0.73155 0.0
C2564 C 0.28532 0.16136 0.71468 0.0
H2565 H 0.17429 0.93154 0.26924 0.0
H2566 H 0.10814 0.90199 0.23793 0.0
H2567 H 0.12501 0.86007 0.23873 0.0
H2568 H 0.21341 0.89696 0.23544 0.0
H2569 H 0.23462 0.89205 0.26059 0.0
H2570 H 0.21572 0.91865 0.261 0.0
H2571 H 0.20065 0.90545 0.30528 0.0
H2572 H 0.21911 0.87829 0.30447 0.0
H2573 H 0.18733 0.87524 0.30968 0.0
H2574 H 0.15091 0.82242 0.23718 0.0
H2575 H 0.18486 0.79451 0.22911 0.0
H2576 H 0.2335 0.8476 0.26284 0.0
C2577 C 0.16328 0.91618 0.26288 0.0
C2578 C 0.13991 0.9201 0.25353 0.0
C2579 C 0.12606 0.89949 0.24533 0.0
C2580 C 0.13541 0.87552 0.2459 0.0
C2581 C 0.15851 0.87223 0.25525 0.0
C2582 C 0.17223 0.89202 0.2637 0.0
C2583 C 0.19726 0.88387 0.27071 0.0
C2584 C 0.21636 0.89875 0.25604 0.0
C2585 C 0.20132 0.88584 0.29923 0.0
C2586 C 0.19614 0.85702 0.26269 0.0
C2587 C 0.17336 0.85031 0.25478 0.0
C2588 C 0.16866 0.82723 0.24397 0.0
C2589 C 0.18797 0.81131 0.2397 0.0
C2590 C 0.21156 0.81875 0.24601 0.0
C2591 C 0.21544 0.84124 0.25875 0.0
H2592 H 0.51021 0.33031 0.39918 0.0
H2593 H 0.4448 0.30805 0.43724 0.0
H2594 H 0.44311 0.34903 0.4576 0.0
H2595 H 0.5365 0.363 0.44867 0.0
H2596 H 0.54925 0.38697 0.42902 0.0
H2597 H 0.54371 0.35672 0.41632 0.0
H2598 H 0.51802 0.37632 0.38086 0.0
H2599 H 0.52309 0.40664 0.39388 0.0
H2600 H 0.49294 0.39537 0.38896 0.0
H2601 H 0.45116 0.39159 0.47718 0.0
H2602 H 0.46921 0.42987 0.49502 0.0
H2603 H 0.5282 0.42423 0.44294 0.0
C2604 C 0.49544 0.33406 0.41169 0.0
C2605 C 0.47769 0.31585 0.41665 0.0
C2606 C 0.45862 0.32166 0.43309 0.0
C2607 C 0.45744 0.34497 0.44466 0.0
C2608 C 0.47523 0.36254 0.43932 0.0
C2609 C 0.49382 0.35731 0.42312 0.0
C2610 C 0.51134 0.3788 0.42132 0.0
C2611 C 0.53668 0.3709 0.42933 0.0
C2612 C 0.51134 0.38994 0.39467 0.0
C2613 C 0.50046 0.39647 0.43999 0.0
C2614 C 0.47934 0.3871 0.44986 0.0
C2615 C 0.46725 0.39944 0.46901 0.0
C2616 C 0.47748 0.42132 0.47891 0.0
C2617 C 0.49972 0.43032 0.46985 0.0
C2618 C 0.51079 0.41813 0.44963 0.0
H2619 H 0.40911 0.71192 0.16707 0.0
H2620 H 0.45229 0.77507 0.19047 0.0
H2621 H 0.4188 0.78964 0.21641 0.0
H2622 H 0.35527 0.74386 0.16051 0.0
H2623 H 0.33638 0.71901 0.17189 0.0
H2624 H 0.36453 0.71221 0.15726 0.0
H2625 H 0.37738 0.68756 0.1969 0.0
H2626 H 0.34924 0.69449 0.21166 0.0
H2627 H 0.37704 0.70236 0.22719 0.0
H2628 H 0.37913 0.80036 0.2351 0.0
H2629 H 0.3364 0.80544 0.24621 0.0
H2630 H 0.3197 0.73424 0.21317 0.0
C2631 C 0.41174 0.72853 0.17806 0.0
C2632 C 0.43344 0.74226 0.17679 0.0
C2633 C 0.43593 0.76413 0.19119 0.0
C2634 C 0.417 0.77255 0.20604 0.0
C2635 C 0.39574 0.7588 0.20655 0.0
C2636 C 0.39305 0.73714 0.19311 0.0
C2637 C 0.36782 0.7267 0.19559 0.0
C2638 C 0.35527 0.72539 0.16979 0.0
C2639 C 0.36789 0.70127 0.20862 0.0
C2640 C 0.35667 0.74611 0.21218 0.0
C2641 C 0.37306 0.7645 0.21827 0.0
C2642 C 0.36629 0.78576 0.23107 0.0
C2643 C 0.34206 0.78849 0.23737 0.0
C2644 C 0.32506 0.76988 0.23125 0.0
C2645 C 0.33258 0.74823 0.219 0.0
H2646 H 0.98163 0.67772 0.89349 0.0
H2647 H 0.04815 0.69645 0.93172 0.0
H2648 H 0.04783 0.6555 0.95249 0.0
H2649 H 0.95416 0.64703 0.94373 0.0
H2650 H 0.93981 0.62359 0.92476 0.0
H2651 H 0.94685 0.65332 0.91129 0.0
H2652 H 0.97092 0.6318 0.87614 0.0
H2653 H 0.96427 0.60198 0.88989 0.0
H2654 H -0.00506 0.6113 0.88455 0.0
H2655 H 0.0379 0.61387 0.97268 0.0
H2656 H 0.01758 0.5774 0.99189 0.0
H2657 H 0.95897 0.585 0.93924 0.0
C2658 C -0.00374 0.67315 0.90604 0.0
C2659 C 0.01491 0.69042 0.91092 0.0
C2660 C 0.03365 0.68361 0.92758 0.0
C2661 C 0.03372 0.66028 0.93939 0.0
C2662 C 0.01508 0.64368 0.93416 0.0
C2663 C -0.00329 0.64985 0.91783 0.0
C2664 C 0.97797 0.6294 0.9166 0.0
C2665 C 0.95325 0.63891 0.92459 0.0
C2666 C 0.97698 0.61795 0.89022 0.0
C2667 C 0.98805 0.61128 0.93564 0.0
C2668 C 0.00973 0.61954 0.94524 0.0
C2669 C 0.02128 0.60689 0.96475 0.0
C2670 C 0.00991 0.58589 0.97529 0.0
C2671 C 0.98738 0.57774 0.96623 0.0
C2672 C 0.9767 0.59029 0.94579 0.0
H2673 H 0.0815 0.26858 0.64539 0.0
H2674 H 0.06418 0.19033 0.6426 0.0
H2675 H 0.10166 0.18086 0.66545 0.0
H2676 H 0.14672 0.26027 0.63592 0.0
H2677 H 0.15478 0.28548 0.65647 0.0
H2678 H 0.12705 0.28627 0.639 0.0
H2679 H 0.10344 0.29205 0.68039 0.0
H2680 H 0.13112 0.29162 0.69779 0.0
H2681 H 0.10733 0.27019 0.70575 0.0
H2682 H 0.13807 0.18033 0.69251 0.0
H2683 H 0.1725 0.18884 0.72083 0.0
H2684 H 0.16885 0.26676 0.70238 0.0
C2685 C 0.08583 0.24951 0.6495 0.0
C2686 C 0.07019 0.2301 0.64245 0.0
C2687 C 0.0762 0.20532 0.64787 0.0
C2688 C 0.09738 0.1998 0.66075 0.0
C2689 C 0.11261 0.21927 0.6674 0.0
C2690 C 0.10731 0.24361 0.66172 0.0
C2691 C 0.12672 0.26099 0.67128 0.0
C2692 C 0.13958 0.27402 0.64935 0.0
C2693 C 0.11654 0.2798 0.68992 0.0
C2694 C 0.14308 0.24272 0.68424 0.0
C2695 C 0.13466 0.21872 0.68164 0.0
C2696 C 0.14531 0.1989 0.69407 0.0
C2697 C 0.16483 0.20382 0.70998 0.0
C2698 C 0.17355 0.22824 0.71287 0.0
C2699 C 0.16292 0.24783 0.69951 0.0
H2700 H 0.50999 0.67499 0.08777 0.0
H2701 H 0.4354 0.69198 0.07286 0.0
H2702 H 0.42946 0.65056 0.05457 0.0
H2703 H 0.52011 0.64368 0.0307 0.0
H2704 H 0.53975 0.62085 0.04412 0.0
H2705 H 0.53753 0.65081 0.0584 0.0
H2706 H 0.52645 0.62988 0.10077 0.0
H2707 H 0.52828 0.59982 0.08645 0.0
H2708 H 0.50122 0.60882 0.10217 0.0
H2709 H 0.43132 0.60846 0.03763 0.0
H2710 H 0.44243 0.57065 0.01523 0.0
H2711 H 0.51649 0.5808 0.03818 0.0
C2712 C 0.49236 0.66987 0.08084 0.0
C2713 C 0.47304 0.68658 0.08196 0.0
C2714 C 0.45039 0.67946 0.07225 0.0
C2715 C 0.44679 0.65588 0.06208 0.0
C2716 C 0.46607 0.63973 0.06161 0.0
C2717 C 0.48853 0.64649 0.07025 0.0
C2718 C 0.50665 0.62634 0.06532 0.0
C2719 C 0.52722 0.636 0.04863 0.0
C2720 C 0.51621 0.61558 0.09016 0.0
C2721 C 0.49099 0.60759 0.05164 0.0
C2722 C 0.46748 0.61548 0.0506 0.0
C2723 C 0.4496 0.60203 0.0384 0.0
C2724 C 0.45606 0.58055 0.02586 0.0
C2725 C 0.4802 0.57287 0.02525 0.0
C2726 C 0.49785 0.58608 0.0389 0.0
H2727 H 0.07772 0.71582 0.81228 0.0
H2728 H 0.07205 0.78281 0.85631 0.0
H2729 H 0.11446 0.79274 0.8476 0.0
H2730 H 0.14165 0.70269 0.82885 0.0
H2731 H 0.14889 0.69231 0.79773 0.0
H2732 H 0.11904 0.68757 0.80992 0.0
H2733 H 0.10051 0.71084 0.77196 0.0
H2734 H 0.13001 0.71442 0.75901 0.0
H2735 H 0.11175 0.74125 0.7639 0.0
H2736 H 0.15646 0.79714 0.83183 0.0
H2737 H 0.19074 0.80048 0.80285 0.0
H2738 H 0.16937 0.73179 0.76764 0.0
C2739 C 0.08551 0.73238 0.82041 0.0
C2740 C 0.0715 0.74842 0.83518 0.0
C2741 C 0.08232 0.77017 0.84501 0.0
C2742 C 0.10653 0.77583 0.84041 0.0
C2743 C 0.11987 0.75957 0.82594 0.0
C2744 C 0.10966 0.73846 0.81576 0.0
C2745 C 0.12717 0.72568 0.79845 0.0
C2746 C 0.1346 0.70056 0.80939 0.0
C2747 C 0.11674 0.72292 0.77176 0.0
C2748 C 0.14811 0.74376 0.7991 0.0
C2749 C 0.14397 0.76257 0.81603 0.0
C2750 C 0.15998 0.78235 0.81877 0.0
C2751 C 0.17961 0.78393 0.80244 0.0
C2752 C 0.18278 0.76616 0.78329 0.0
C2753 C 0.16773 0.7451 0.78265 0.0
H2754 H 0.03218 0.32402 0.56536 0.0
H2755 H 0.95933 0.30056 0.58242 0.0
H2756 H 0.94389 0.33699 0.56017 0.0
H2757 H 0.02487 0.38535 0.57667 0.0
H2758 H 0.04324 0.39713 0.55143 0.0
H2759 H 0.04886 0.36698 0.56432 0.0
H2760 H 0.04437 0.34765 0.5201 0.0
H2761 H 0.03892 0.37789 0.50698 0.0
H2762 H 0.01758 0.35311 0.50198 0.0
H2763 H 0.93633 0.37806 0.54256 0.0
H2764 H 0.93724 0.42239 0.5318 0.0
H2765 H 0.01453 0.42026 0.5248 0.0
C2766 C 0.01298 0.32625 0.56384 0.0
C2767 C -0.00301 0.30938 0.57561 0.0
C2768 C 0.97197 0.31316 0.57357 0.0
C2769 C 0.96298 0.33373 0.56077 0.0
C2770 C 0.97918 0.35026 0.54981 0.0
C2771 C 0.00365 0.34676 0.55103 0.0
C2772 C 0.01712 0.36876 0.53993 0.0
C2773 C 0.03453 0.38023 0.55925 0.0
C2774 C 0.03028 0.36141 0.51581 0.0
C2775 C -0.00355 0.38583 0.53397 0.0
C2776 C 0.97471 0.37441 0.53919 0.0
C2777 C 0.95314 0.38702 0.53776 0.0
C2778 C 0.95383 0.41218 0.53167 0.0
C2779 C 0.9759 0.42448 0.52708 0.0
C2780 C -0.00259 0.411 0.52742 0.0
H2781 H 0.42282 0.20342 0.32831 0.0
H2782 H 0.4408 0.28133 0.32089 0.0
H2783 H 0.40362 0.28777 0.29621 0.0
H2784 H 0.39615 0.19573 0.2658 0.0
H2785 H 0.37334 0.17468 0.27717 0.0
H2786 H 0.40212 0.17616 0.29259 0.0
H2787 H 0.38136 0.1851 0.33508 0.0
H2788 H 0.35259 0.18346 0.31982 0.0
H2789 H 0.36107 0.21071 0.33722 0.0
H2790 H 0.36194 0.28578 0.27498 0.0
H2791 H 0.3206 0.2757 0.26068 0.0
H2792 H 0.33191 0.19887 0.28084 0.0
C2793 C 0.41918 0.22181 0.32124 0.0
C2794 C 0.43487 0.24183 0.3265 0.0
C2795 C 0.42921 0.26562 0.31697 0.0
C2796 C 0.40809 0.26946 0.30291 0.0
C2797 C 0.39291 0.24928 0.29825 0.0
C2798 C 0.39837 0.2259 0.30707 0.0
C2799 C 0.37878 0.20741 0.30063 0.0
C2800 C 0.38817 0.18731 0.28299 0.0
C2801 C 0.3678 0.19602 0.32461 0.0
C2802 C 0.36118 0.22402 0.2872 0.0
C2803 C 0.36954 0.24812 0.28584 0.0
C2804 C 0.3554 0.2669 0.27565 0.0
C2805 C 0.33197 0.26097 0.26736 0.0
C2806 C 0.3229 0.23644 0.26933 0.0
C2807 C 0.33818 0.21778 0.27873 0.0
H2808 H 0.37522 0.48568 0.34009 0.0
H2809 H 0.43304 0.50301 0.28839 0.0
H2810 H 0.46155 0.50481 0.3241 0.0
H2811 H 0.39218 0.52687 0.38614 0.0
H2812 H 0.38363 0.50737 0.41227 0.0
H2813 H 0.3688 0.50388 0.38244 0.0
H2814 H 0.37997 0.45744 0.38173 0.0
H2815 H 0.39473 0.46089 0.41171 0.0
H2816 H 0.41089 0.44872 0.38533 0.0
H2817 H 0.4832 0.50765 0.36643 0.0
H2818 H 0.49479 0.51419 0.41116 0.0
H2819 H 0.42203 0.4968 0.43384 0.0
C2820 C 0.39394 0.48943 0.33617 0.0
C2821 C 0.40191 0.49418 0.31148 0.0
C2822 C 0.42653 0.49933 0.30721 0.0
C2823 C 0.44288 0.50023 0.32734 0.0
C2824 C 0.43432 0.49587 0.35157 0.0
C2825 C 0.41038 0.49056 0.35598 0.0
C2826 C 0.40512 0.48878 0.38374 0.0
C2827 C 0.38634 0.50787 0.3916 0.0
C2828 C 0.39722 0.46238 0.39105 0.0
C2829 C 0.42958 0.49495 0.39436 0.0
C2830 C 0.44643 0.49834 0.37565 0.0
C2831 C 0.47016 0.50489 0.38122 0.0
C2832 C 0.47661 0.50856 0.40656 0.0
C2833 C 0.45918 0.50624 0.42565 0.0
C2834 C 0.4356 0.4989 0.41944 0.0
H2835 H 0.2338 0.63472 0.09427 0.0
H2836 H 0.26134 0.68306 0.03548 0.0
H2837 H 0.26539 0.71699 0.06608 0.0
H2838 H 0.20016 0.67861 0.12766 0.0
H2839 H 0.20809 0.66748 0.15856 0.0
H2840 H 0.20772 0.64658 0.13232 0.0
H2841 H 0.25185 0.63493 0.14152 0.0
H2842 H 0.25232 0.65568 0.16794 0.0
H2843 H 0.27436 0.65902 0.14347 0.0
H2844 H 0.26359 0.74586 0.1012 0.0
H2845 H 0.26104 0.76826 0.14067 0.0
H2846 H 0.23733 0.70101 0.17897 0.0
C2847 C 0.24089 0.65242 0.08802 0.0
C2848 C 0.2473 0.65644 0.06265 0.0
C2849 C 0.25658 0.67967 0.05494 0.0
C2850 C 0.25881 0.69903 0.07211 0.0
C2851 C 0.25212 0.69458 0.09693 0.0
C2852 C 0.24383 0.6718 0.10509 0.0
C2853 C 0.23855 0.67202 0.13307 0.0
C2854 C 0.21205 0.66581 0.13819 0.0
C2855 C 0.25526 0.65436 0.14734 0.0
C2856 C 0.24439 0.69878 0.13911 0.0
C2857 C 0.25209 0.71129 0.11785 0.0
C2858 C 0.25789 0.73625 0.11808 0.0
C2859 C 0.25623 0.74881 0.14077 0.0
C2860 C 0.24901 0.73644 0.1632 0.0
C2861 C 0.24291 0.71102 0.16226 0.0
H2862 H 0.08044 0.48197 0.81728 0.0
H2863 H 0.06225 0.55868 0.80345 0.0
H2864 H 0.03426 0.55719 0.83936 0.0
H2865 H 0.02052 0.4608 0.84038 0.0
H2866 H 0.03402 0.44093 0.86363 0.0
H2867 H 0.04901 0.44672 0.83418 0.0
H2868 H 0.08691 0.46184 0.85821 0.0
H2869 H 0.07214 0.45602 0.88759 0.0
H2870 H 0.08428 0.48636 0.88084 0.0
H2871 H 0.01222 0.54877 0.87948 0.0
H2872 H 0.00111 0.53554 0.9224 0.0
H2873 H 0.03494 0.46483 0.9101 0.0
C2874 C 0.07018 0.49833 0.82139 0.0
C2875 C 0.07339 0.5204 0.80756 0.0
C2876 C 0.05997 0.54153 0.81381 0.0
C2877 C 0.04389 0.54079 0.83401 0.0
C2878 C 0.04143 0.51876 0.84753 0.0
C2879 C 0.05428 0.49793 0.84147 0.0
C2880 C 0.05087 0.47755 0.86065 0.0
C2881 C 0.03782 0.45518 0.84901 0.0
C2882 C 0.07497 0.47004 0.87252 0.0
C2883 C 0.03509 0.49059 0.87922 0.0
C2884 C 0.0292 0.51407 0.87098 0.0
C2885 C 0.01631 0.53027 0.88591 0.0
C2886 C 0.01001 0.52257 0.91021 0.0
C2887 C 0.01713 0.49913 0.91936 0.0
C2888 C 0.02911 0.48274 0.90339 0.0
H2889 H 0.21764 0.30142 0.5626 0.0
H2890 H 0.23408 0.37772 0.58151 0.0
H2891 H 0.23722 0.36615 0.62624 0.0
H2892 H 0.18399 0.28618 0.62086 0.0
H2893 H 0.19619 0.25554 0.6236 0.0
H2894 H 0.19176 0.26936 0.59301 0.0
H2895 H 0.23622 0.26399 0.58139 0.0
H2896 H 0.24095 0.24878 0.61105 0.0
H2897 H 0.25916 0.27524 0.60252 0.0
H2898 H 0.24489 0.34567 0.66747 0.0
H2899 H 0.2589 0.31735 0.70091 0.0
H2900 H 0.23637 0.25456 0.65645 0.0
C2901 C 0.22129 0.31579 0.57623 0.0
C2902 C 0.22545 0.34049 0.5685 0.0
C2903 C 0.23075 0.35865 0.58691 0.0
C2904 C 0.2324 0.3523 0.61244 0.0
C2905 C 0.22856 0.32773 0.61942 0.0
C2906 C 0.22315 0.30973 0.60184 0.0
C2907 C 0.22252 0.28428 0.61386 0.0
C2908 C 0.1971 0.27315 0.61277 0.0
C2909 C 0.2408 0.26708 0.60148 0.0
C2910 C 0.22961 0.29061 0.64064 0.0
C2911 C 0.23248 0.31587 0.6436 0.0
C2912 C 0.24193 0.32595 0.66567 0.0
C2913 C 0.24964 0.30979 0.68469 0.0
C2914 C 0.2475 0.28394 0.68169 0.0
C2915 C 0.2368 0.27431 0.65972 0.0
H2916 H 0.41402 0.53401 0.15608 0.0
H2917 H 0.42187 0.46507 0.19736 0.0
H2918 H 0.4436 0.44733 0.16184 0.0
H2919 H 0.40361 0.50561 0.09601 0.0
H2920 H 0.42006 0.52839 0.07795 0.0
H2921 H 0.40603 0.53699 0.10704 0.0
H2922 H 0.44687 0.55324 0.12393 0.0
H2923 H 0.46074 0.54492 0.0947 0.0
H2924 H 0.4724 0.53309 0.12399 0.0
H2925 H 0.45904 0.43515 0.12222 0.0
H2926 H 0.47697 0.43033 0.08112 0.0
H2927 H 0.46324 0.50762 0.06347 0.0
C2928 C 0.42076 0.51536 0.1576 0.0
C2929 C 0.41625 0.50068 0.1792 0.0
C2930 C 0.42496 0.47633 0.18075 0.0
C2931 C 0.43726 0.46614 0.16072 0.0
C2932 C 0.44053 0.48054 0.13927 0.0
C2933 C 0.43305 0.50471 0.13748 0.0
C2934 C 0.43882 0.51548 0.11165 0.0
C2935 C 0.41575 0.52201 0.09732 0.0
C2936 C 0.45573 0.53801 0.1137 0.0
C2937 C 0.4511 0.49359 0.09961 0.0
C2938 C 0.4511 0.47363 0.11596 0.0
C2939 C 0.45974 0.45073 0.10939 0.0
C2940 C 0.46987 0.44828 0.08583 0.0
C2941 C 0.47219 0.46883 0.06924 0.0
C2942 C 0.46193 0.49169 0.07582 0.0
H2943 H 0.2428 0.64289 0.91727 0.0
H2944 H 0.2328 0.70859 0.96222 0.0
H2945 H 0.23155 0.73409 0.92334 0.0
H2946 H 0.2815 0.66771 0.87366 0.0
H2947 H 0.26921 0.65114 0.84718 0.0
H2948 H 0.2666 0.63828 0.87826 0.0
H2949 H 0.22042 0.63522 0.87292 0.0
H2950 H 0.22289 0.64811 0.84172 0.0
H2951 H 0.20381 0.66246 0.86452 0.0
H2952 H 0.23479 0.75259 0.87858 0.0
H2953 H 0.24334 0.76157 0.83343 0.0
H2954 H 0.25075 0.68309 0.81998 0.0
C2955 C 0.24017 0.66262 0.91897 0.0
C2956 C 0.23813 0.67384 0.94267 0.0
C2957 C 0.23443 0.69967 0.94414 0.0
C2958 C 0.23361 0.71426 0.92219 0.0
C2959 C 0.23603 0.70259 0.89902 0.0
C2960 C 0.23898 0.67726 0.8974 0.0
C2961 C 0.24228 0.66906 0.87063 0.0
C2962 C 0.26633 0.65579 0.86725 0.0
C2963 C 0.22109 0.65275 0.86195 0.0
C2964 C 0.24214 0.69381 0.8575 0.0
C2965 C 0.23796 0.71302 0.87387 0.0
C2966 C 0.23791 0.73763 0.8656 0.0
C2967 C 0.24277 0.7426 0.84005 0.0
C2968 C 0.2481 0.72301 0.82356 0.0
C2969 C 0.24712 0.69844 0.83237 0.0
H2970 H 0.05907 0.53702 0.68844 0.0
H2971 H 0.10755 0.47565 0.67826 0.0
H2972 H 0.09843 0.47551 0.63288 0.0
H2973 H 0.01458 0.51571 0.6477 0.0
H2974 H 0.00687 0.54607 0.63634 0.0
H2975 H 0.01952 0.54246 0.6672 0.0
H2976 H 0.05311 0.57397 0.6552 0.0
H2977 H 0.04091 0.57693 0.62391 0.0
H2978 H 0.07171 0.56814 0.6283 0.0
H2979 H 0.08188 0.47989 0.58962 0.0
H2980 H 0.05395 0.48389 0.55366 0.0
H2981 H 0.01705 0.54253 0.59206 0.0
C2982 C 0.06788 0.52364 0.67667 0.0
C2983 C 0.08413 0.50654 0.68677 0.0
C2984 C 0.09511 0.48909 0.67082 0.0
C2985 C 0.09029 0.48903 0.645 0.0
C2986 C 0.07462 0.50663 0.63551 0.0
C2987 C 0.06334 0.52337 0.65092 0.0
C2988 C 0.04548 0.53872 0.63658 0.0
C2989 C 0.02013 0.53552 0.6476 0.0
C2990 C 0.05328 0.56606 0.63596 0.0
C2991 C 0.04756 0.52712 0.61093 0.0
C2992 C 0.06502 0.50918 0.61045 0.0
C2993 C 0.06854 0.49426 0.58951 0.0
C2994 C 0.05284 0.4968 0.56909 0.0
C2995 C 0.03387 0.51378 0.57021 0.0
C2996 C 0.03189 0.52986 0.59076 0.0
H2997 H 0.22486 0.3457 0.42551 0.0
H2998 H 0.28511 0.30799 0.45992 0.0
H2999 H 0.29104 0.28461 0.42112 0.0
H3000 H 0.20117 0.29309 0.39312 0.0
H3001 H 0.19241 0.30948 0.36502 0.0
H3002 H 0.19365 0.32538 0.39467 0.0
H3003 H 0.22252 0.35804 0.37547 0.0
H3004 H 0.22146 0.34215 0.34575 0.0
H3005 H 0.24987 0.34817 0.36087 0.0
H3006 H 0.29084 0.26489 0.38052 0.0
H3007 H 0.28216 0.24536 0.34023 0.0
H3008 H 0.22051 0.29277 0.32963 0.0
C3009 C 0.23939 0.33263 0.42472 0.0
C3010 C 0.25461 0.32877 0.44589 0.0
C3011 C 0.2732 0.31131 0.44417 0.0
C3012 C 0.27684 0.29802 0.42208 0.0
C3013 C 0.26166 0.30217 0.40169 0.0
C3014 C 0.24315 0.31881 0.40265 0.0
C3015 C 0.22876 0.3182 0.37812 0.0
C3016 C 0.20243 0.31111 0.38304 0.0
C3017 C 0.23077 0.34313 0.36423 0.0
C3018 C 0.24167 0.29796 0.36376 0.0
C3019 C 0.26092 0.28965 0.37779 0.0
C3020 C 0.27576 0.27108 0.36941 0.0
C3021 C 0.27052 0.26001 0.34644 0.0
C3022 C 0.25034 0.26707 0.33187 0.0
C3023 C 0.23599 0.28688 0.34032 0.0
H3024 H 0.33442 0.40122 0.47366 0.0
H3025 H 0.29646 0.42698 0.53941 0.0
H3026 H 0.33386 0.44613 0.55535 0.0
H3027 H 0.39251 0.38922 0.50472 0.0
H3028 H 0.40925 0.40041 0.478 0.0
H3029 H 0.38013 0.38644 0.47349 0.0
H3030 H 0.36651 0.42601 0.44969 0.0
H3031 H 0.39568 0.43967 0.45455 0.0
H3032 H 0.36935 0.45559 0.46497 0.0
H3033 H 0.37432 0.46473 0.56292 0.0
H3034 H 0.41337 0.4862 0.55885 0.0
H3035 H 0.42567 0.4491 0.4882 0.0
C3036 C 0.33403 0.41072 0.49152 0.0
C3037 C 0.31247 0.4125 0.50532 0.0
C3038 C 0.31268 0.42541 0.52843 0.0
C3039 C 0.33392 0.43613 0.53778 0.0
C3040 C 0.35487 0.43389 0.5238 0.0
C3041 C 0.35505 0.4218 0.50099 0.0
C3042 C 0.37947 0.424 0.48863 0.0
C3043 C 0.39102 0.39849 0.48608 0.0
C3044 C 0.37762 0.43711 0.46295 0.0
C3045 C 0.39284 0.43982 0.50771 0.0
C3046 C 0.3784 0.44483 0.52812 0.0
C3047 C 0.38592 0.46061 0.54727 0.0
C3048 C 0.40822 0.47258 0.54492 0.0
C3049 C 0.42279 0.46876 0.52361 0.0
C3050 C 0.41536 0.4515 0.5052 0.0
H3051 H 0.80613 0.05529 0.47251 0.0
H3052 H 0.8213 0.09708 0.54011 0.0
H3053 H 0.85972 0.07542 0.54516 0.0
H3054 H 0.83811 -0.00313 0.4914 0.0
H3055 H 0.84959 0.99249 0.46014 0.0
H3056 H 0.821 0.00706 0.46455 0.0
H3057 H 0.83575 0.04507 0.43879 0.0
H3058 H 0.86426 0.03064 0.43432 0.0
H3059 H 0.86291 0.06094 0.44818 0.0
H3060 H 0.89672 0.05197 0.54175 0.0
H3061 H 0.9338 0.03329 0.52663 0.0
H3062 H 0.89755 0.01022 0.45816 0.0
C3063 C 0.8173 0.05912 0.48876 0.0
C3064 C 0.81079 0.07717 0.50637 0.0
C3065 C 0.82604 0.08284 0.52682 0.0
C3066 C 0.84773 0.07057 0.52989 0.0
C3067 C 0.8539 0.05299 0.51211 0.0
C3068 C 0.83939 0.04748 0.49171 0.0
C3069 C 0.85199 0.03067 0.47342 0.0
C3070 C 0.83942 0.00526 0.47231 0.0
C3071 C 0.85384 0.04256 0.44714 0.0
C3072 C 0.87626 0.02876 0.48607 0.0
C3073 C 0.87646 0.04086 0.50891 0.0
C3074 C 0.89677 0.0422 0.52404 0.0
C3075 C 0.91769 0.03141 0.51532 0.0
C3076 C 0.91832 0.02015 0.49135 0.0
C3077 C 0.89731 0.0185 0.47665 0.0
H3078 H 0.66315 0.07277 0.26406 0.0
H3079 H 0.66385 0.05988 0.18357 0.0
H3080 H 0.68319 0.1007 0.17697 0.0
H3081 H 0.65214 0.13932 0.26101 0.0
H3082 H 0.67156 0.14584 0.28735 0.0
H3083 H 0.6559 0.11657 0.28555 0.0
H3084 H 0.69628 0.09353 0.28963 0.0
H3085 H 0.71196 0.1227 0.29155 0.0
H3086 H 0.72011 0.10064 0.26787 0.0
H3087 H 0.7037 0.14239 0.17935 0.0
H3088 H 0.72671 0.18022 0.19118 0.0
H3089 H 0.71364 0.16443 0.26985 0.0
C3090 C 0.66717 0.0786 0.24502 0.0
C3091 C 0.66198 0.06322 0.22432 0.0
C3092 C 0.66774 0.07139 0.19971 0.0
C3093 C 0.67856 0.09459 0.19575 0.0
C3094 C 0.68347 0.10929 0.2166 0.0
C3095 C 0.67807 0.10155 0.24076 0.0
C3096 C 0.68654 0.12008 0.26011 0.0
C3097 C 0.66526 0.1311 0.27434 0.0
C3098 C 0.70481 0.10854 0.27835 0.0
C3099 C 0.69817 0.13909 0.2431 0.0
C3100 C 0.69579 0.13288 0.21803 0.0
C3101 C 0.70556 0.14754 0.19889 0.0
C3102 C 0.71847 0.1689 0.20568 0.0
C3103 C 0.72162 0.17486 0.23128 0.0
C3104 C 0.71119 0.16004 0.25014 0.0
H3105 H 0.66378 0.93882 0.0417 0.0
H3106 H 0.66496 0.8848 0.98177 0.0
H3107 H 0.6223 0.89236 0.97302 0.0
H3108 H 0.59898 0.92843 0.06096 0.0
H3109 H 0.59439 0.96097 0.06581 0.0
H3110 H 0.62348 0.9478 0.07148 0.0
H3111 H 0.64285 0.97934 0.04049 0.0
H3112 H 0.61397 0.9928 0.03541 0.0
H3113 H 0.63099 0.98193 0.00901 0.0
H3114 H 0.58151 0.90816 0.96751 0.0
H3115 H 0.54891 0.93741 0.95914 0.0
H3116 H 0.57372 0.98342 0.02039 0.0
C3117 C 0.65483 0.92827 0.02711 0.0
C3118 C 0.6676 0.91109 0.01254 0.0
C3119 C 0.65554 0.89807 0.99315 0.0
C3120 C 0.63119 0.90196 0.9883 0.0
C3121 C 0.61905 0.91904 0.0029 0.0
C3122 C 0.63052 0.93235 0.02164 0.0
C3123 C 0.61437 0.95243 0.03167 0.0
C3124 C 0.6074 0.94708 0.05911 0.0
C3125 C 0.62625 0.97813 0.02895 0.0
C3126 C 0.5928 0.94942 0.01441 0.0
C3127 C 0.59542 0.92918 -0.00111 0.0
C3128 C 0.57899 0.92373 0.97987 0.0
C3129 C 0.56034 0.94029 0.97541 0.0
C3130 C 0.55853 0.96218 0.9896 0.0
C3131 C 0.57422 0.96623 0.01007 0.0
H3132 H 0.35827 0.40116 0.24412 0.0
H3133 H 0.30378 0.45427 0.2636 0.0
H3134 H 0.2755 0.41999 0.27278 0.0
H3135 H 0.3217 0.36172 0.21096 0.0
H3136 H 0.33585 0.33358 0.22121 0.0
H3137 H 0.35267 0.36205 0.22076 0.0
H3138 H 0.36297 0.35559 0.2679 0.0
H3139 H 0.34538 0.32742 0.26856 0.0
H3140 H 0.33911 0.35183 0.29039 0.0
H3141 H 0.25196 0.38065 0.27553 0.0
H3142 H 0.23314 0.34085 0.264 0.0
H3143 H 0.30197 0.31313 0.24106 0.0
C3144 C 0.34054 0.40559 0.25083 0.0
C3145 C 0.33333 0.43045 0.25336 0.0
C3146 C 0.30979 0.43541 0.26164 0.0
C3147 C 0.29367 0.41603 0.26717 0.0
C3148 C 0.30134 0.39172 0.26446 0.0
C3149 C 0.32417 0.38645 0.25623 0.0
C3150 C 0.32698 0.35894 0.25178 0.0
C3151 C 0.33473 0.35379 0.22456 0.0
C3152 C 0.34467 0.3478 0.27079 0.0
C3153 C 0.30167 0.34979 0.25693 0.0
C3154 C 0.28748 0.36884 0.2654 0.0
C3155 C 0.26301 0.3655 0.26947 0.0
C3156 C 0.25249 0.34269 0.26319 0.0
C3157 C 0.26629 0.32368 0.25252 0.0
C3158 C 0.29132 0.3269 0.25041 0.0
H3159 H 0.17656 0.56124 0.04294 0.0
H3160 H 0.17508 0.60538 0.97454 0.0
H3161 H 0.13133 0.60018 0.97221 0.0
H3162 H 0.13664 0.51708 0.02496 0.0
H3163 H 0.12174 0.51337 0.05479 0.0
H3164 H 0.15214 0.5245 0.05381 0.0
H3165 H 0.13984 0.56341 0.07873 0.0
H3166 H 0.10922 0.55241 0.07951 0.0
H3167 H 0.11612 0.58263 0.06689 0.0
H3168 H 0.08962 0.58537 0.97323 0.0
H3169 H 0.05355 0.55889 0.97575 0.0
H3170 H 0.08083 0.52474 0.04364 0.0
C3171 C 0.16695 0.57011 0.02771 0.0
C3172 C 0.17923 0.58367 0.00894 0.0
C3173 C 0.16607 0.59494 0.98921 0.0
C3174 C 0.14116 0.59232 0.98784 0.0
C3175 C 0.12958 0.5787 0.00653 0.0
C3176 C 0.14199 0.5678 0.02614 0.0
C3177 C 0.12554 0.5519 0.04217 0.0
C3178 C 0.13455 0.52513 0.044 0.0
C3179 C 0.1225 0.56327 0.06838 0.0
C3180 C 0.10255 0.55369 0.02709 0.0
C3181 C 0.10501 0.57013 0.00723 0.0
C3182 C 0.08711 0.57311 0.98917 0.0
C3183 C 0.06652 0.55825 0.9909 0.0
C3184 C 0.06413 0.54062 0.01044 0.0
C3185 C 0.08205 0.53874 0.02906 0.0
H3186 H 0.66198 0.93112 0.28086 0.0
H3187 H 0.66534 0.93597 0.19951 0.0
H3188 H 0.69153 0.89971 0.1986 0.0
H3189 H 0.7242 0.9057 0.29098 0.0
H3190 H 0.71416 0.88517 0.31566 0.0
H3191 H 0.69974 0.91452 0.31094 0.0
H3192 H 0.65861 0.8922 0.30656 0.0
H3193 H 0.67286 0.86294 0.31144 0.0
H3194 H 0.655 0.86799 0.28361 0.0
H3195 H 0.71419 0.86184 0.20546 0.0
H3196 H 0.72691 0.82047 0.21909 0.0
H3197 H 0.70611 0.83711 0.29562 0.0
C3198 C 0.66889 0.9249 0.263 0.0
C3199 C 0.66209 0.93648 0.24027 0.0
C3200 C 0.6706 0.92742 0.21712 0.0
C3201 C 0.68565 0.90701 0.21642 0.0
C3202 C 0.69189 0.89576 0.23905 0.0
C3203 C 0.68359 0.90411 0.26193 0.0
C3204 C 0.69022 0.88645 0.283 0.0
C3205 C 0.70814 0.89869 0.30122 0.0
C3206 C 0.66784 0.87682 0.29694 0.0
C3207 C 0.70211 0.86623 0.26807 0.0
C3208 C 0.70384 0.8726 0.24294 0.0
C3209 C 0.71329 0.85672 0.22513 0.0
C3210 C 0.72055 0.83332 0.23307 0.0
C3211 C 0.71757 0.82583 0.2584 0.0
C3212 C 0.70872 0.84262 0.27622 0.0
H3213 H 0.84992 0.09473 0.71318 0.0
H3214 H 0.79535 0.04207 0.73718 0.0
H3215 H 0.76549 0.07531 0.73716 0.0
H3216 H 0.83721 0.14034 0.75054 0.0
H3217 H 0.84116 0.16606 0.72925 0.0
H3218 H 0.85647 0.13772 0.72354 0.0
H3219 H 0.83847 0.13698 0.67959 0.0
H3220 H 0.81908 0.16319 0.68384 0.0
H3221 H 0.80653 0.13387 0.67524 0.0
H3222 H 0.74367 0.11433 0.7419 0.0
H3223 H 0.73399 0.15541 0.75831 0.0
H3224 H 0.80278 0.18374 0.73367 0.0
C3225 C 0.83151 0.09005 0.71766 0.0
C3226 C 0.82496 0.06576 0.72507 0.0
C3227 C 0.8008 0.06049 0.73133 0.0
C3228 C 0.78362 0.07923 0.73108 0.0
C3229 C 0.79078 0.10314 0.72428 0.0
C3230 C 0.81418 0.10861 0.71767 0.0
C3231 C 0.81799 0.13628 0.71471 0.0
C3232 C 0.83946 0.14563 0.73045 0.0
C3233 C 0.82078 0.14297 0.68672 0.0
C3234 C 0.7943 0.14564 0.72445 0.0
C3235 C 0.77825 0.1262 0.72795 0.0
C3236 C 0.75588 0.12971 0.73873 0.0
C3237 C 0.75047 0.15318 0.74787 0.0
C3238 C 0.76759 0.17265 0.74689 0.0
C3239 C 0.78921 0.16928 0.73385 0.0
loop_
_geom_bond_atom_site_label_1
_geom_bond_atom_site_label_2
_geom_bond_distance
_geom_bond_site_symmetry_2
_ccdc_geom_bond_type
C0 O1 1.160 . S
C0 O7 1.185 . S
O1 C0 1.160 . S
O2 Zn3 1.900 . S
O2 C10 1.284 1_655 S
Zn3 O2 1.900 . S
Zn3 O4 2.038 . S
Zn3 O7 2.104 . S
Zn3 O12 1.958 1_655 S
O4 Zn3 2.038 . S
O4 C8 1.278 1_655 S
C5 O6 1.203 . S
C5 O12 1.267 . S
O6 C5 1.203 . S
O7 C0 1.185 . S
O7 Zn3 2.104 . S
C8 O4 1.278 1_455 S
C8 O9 1.211 . S
O9 C8 1.211 . S
C10 O2 1.284 1_455 S
C10 O11 1.273 . S
O11 C10 1.273 . S
O12 Zn3 1.958 1_455 S
O12 C5 1.267 . S
C13 O14 1.160 . S
C13 O20 1.185 . S
O14 C13 1.160 . S
O15 Zn16 1.899 . S
O15 C23 1.284 . S
Zn16 O15 1.899 . S
Zn16 O17 2.032 . S
Zn16 O20 2.086 . S
Zn16 O25 1.977 1_455 S
O17 Zn16 2.032 . S
O17 C21 1.286 . S
C18 O19 1.203 . S
C18 O25 1.267 . S
O19 C18 1.203 . S
O20 C13 1.185 . S
O20 Zn16 2.086 . S
C21 O17 1.286 . S
C21 O22 1.199 1_455 S
O22 C21 1.199 1_655 S
C23 O15 1.284 . S
C23 O24 1.273 1_455 S
O24 C23 1.273 1_655 S
O25 Zn16 1.977 1_655 S
O25 C18 1.267 . S
C26 O27 1.160 . S
C26 O33 1.185 . S
O27 C26 1.160 . S
O28 Zn29 1.899 . S
O28 C36 1.284 . S
Zn29 O28 1.899 . S
Zn29 O30 2.032 . S
Zn29 O33 2.086 . S
Zn29 O38 1.977 . S
O30 Zn29 2.032 . S
O30 C34 1.278 . S
C31 O32 1.203 . S
C31 O38 1.267 . S
O32 C31 1.203 . S
O33 C26 1.185 . S
O33 Zn29 2.086 . S
C34 O30 1.278 . S
C34 O35 1.211 . S
O35 C34 1.211 . S
C36 O28 1.284 . S
C36 O37 1.273 . S
O37 C36 1.273 . S
O38 Zn29 1.977 . S
O38 C31 1.267 . S
C39 O40 1.160 . S
C39 O46 1.185 . S
O40 C39 1.160 . S
O41 Zn42 1.899 . S
O41 C49 1.284 . S
Zn42 O41 1.899 . S
Zn42 O43 2.032 . S
Zn42 O46 2.086 . S
Zn42 O51 1.977 . S
O43 Zn42 2.032 . S
O43 C47 1.278 . S
C44 O45 1.203 . S
C44 O51 1.267 . S
O45 C44 1.203 . S
O46 C39 1.185 . S
O46 Zn42 2.086 . S
C47 O43 1.278 . S
C47 O48 1.211 . S
O48 C47 1.211 . S
C49 O41 1.284 . S
C49 O50 1.273 . S
O50 C49 1.273 . S
O51 Zn42 1.977 . S
O51 C44 1.267 . S
C52 O53 1.160 . S
C52 O59 1.185 . S
O53 C52 1.160 . S
O54 Zn55 1.899 . S
O54 C62 1.284 1_565 S
Zn55 O54 1.899 . S
Zn55 O56 2.032 . S
Zn55 O59 2.087 . S
Zn55 O64 1.977 1_565 S
O56 Zn55 2.032 . S
O56 C60 1.278 1_565 S
C57 O58 1.203 . S
C57 O64 1.267 . S
O58 C57 1.203 . S
O59 C52 1.185 . S
O59 Zn55 2.087 . S
C60 O56 1.278 1_545 S
C60 O61 1.211 . S
O61 C60 1.211 . S
C62 O54 1.284 1_545 S
C62 O63 1.273 . S
O63 C62 1.273 . S
O64 Zn55 1.977 1_545 S
O64 C57 1.267 . S
C65 O66 1.160 . S
C65 O72 1.185 . S
O66 C65 1.160 . S
O67 Zn68 1.899 . S
O67 C75 1.284 . S
Zn68 O67 1.899 . S
Zn68 O69 2.032 . S
Zn68 O72 2.086 . S
Zn68 O77 1.977 . S
O69 Zn68 2.032 . S
O69 C73 1.278 . S
C70 O71 1.203 . S
C70 O77 1.267 . S
O71 C70 1.203 . S
O72 C65 1.185 . S
O72 Zn68 2.086 . S
C73 O69 1.278 . S
C73 O74 1.211 . S
O74 C73 1.211 . S
C75 O67 1.284 . S
C75 O76 1.273 . S
O76 C75 1.273 . S
O77 Zn68 1.977 . S
O77 C70 1.267 . S
C78 O79 1.160 . S
C78 O85 1.185 . S
O79 C78 1.160 . S
O80 Zn81 1.899 . S
O80 C88 1.284 . S
Zn81 O80 1.899 . S
Zn81 O82 2.032 . S
Zn81 O85 2.086 . S
Zn81 O90 1.977 1_545 S
O82 Zn81 2.032 . S
O82 C86 1.278 . S
C83 O84 1.203 . S
C83 O90 1.267 . S
O84 C83 1.203 . S
O85 C78 1.185 . S
O85 Zn81 2.086 . S
C86 O82 1.278 . S
C86 O87 1.211 1_545 S
O87 C86 1.211 1_565 S
C88 O80 1.284 . S
C88 O89 1.273 1_545 S
O89 C88 1.273 1_565 S
O90 Zn81 1.977 1_565 S
O90 C83 1.267 . S
C91 O92 1.160 . S
C91 O98 1.185 . S
O92 C91 1.160 . S
O93 Zn94 1.899 . S
O93 C101 1.284 . S
Zn94 O93 1.899 . S
Zn94 O95 2.032 1_554 S
Zn94 O98 2.086 . S
Zn94 O103 1.977 . S
O95 Zn94 2.032 1_556 S
O95 C99 1.278 . S
C96 O97 1.203 . S
C96 O103 1.267 . S
O97 C96 1.203 . S
O98 C91 1.185 . S
O98 Zn94 2.086 . S
C99 O95 1.278 . S
C99 O100 1.211 . S
O100 C99 1.211 . S
C101 O93 1.284 . S
C101 O102 1.273 . S
O102 C101 1.273 . S
O103 Zn94 1.977 . S
O103 C96 1.267 . S
C104 O105 1.160 . S
C104 O111 1.189 . S
O105 C104 1.160 . S
O106 Zn107 1.899 . S
O106 C114 1.284 . S
Zn107 O106 1.899 . S
Zn107 O108 2.032 1_554 S
Zn107 O111 2.088 . S
Zn107 O116 1.981 . S
O108 Zn107 2.032 1_556 S
O108 C112 1.278 . S
C109 O110 1.203 . S
C109 O116 1.273 . S
O110 C109 1.203 . S
O111 C104 1.189 . S
O111 Zn107 2.088 . S
C112 O108 1.278 . S
C112 O113 1.211 . S
O113 C112 1.211 . S
C114 O106 1.284 . S
C114 O115 1.273 . S
O115 C114 1.273 . S
O116 Zn107 1.981 . S
O116 C109 1.273 . S
C117 O118 1.160 . S
C117 O124 1.185 . S
O118 C117 1.160 . S
O119 Zn120 1.899 . S
O119 C127 1.284 . S
Zn120 O119 1.899 . S
Zn120 O121 2.032 . S
Zn120 O124 2.086 . S
Zn120 O129 1.977 . S
O121 Zn120 2.032 . S
O121 C125 1.278 . S
C122 O123 1.203 . S
C122 O129 1.267 . S
O123 C122 1.203 . S
O124 C117 1.185 . S
O124 Zn120 2.086 . S
C125 O121 1.278 . S
C125 O126 1.211 . S
O126 C125 1.211 . S
C127 O119 1.284 . S
C127 O128 1.273 . S
O128 C127 1.273 . S
O129 Zn120 1.977 . S
O129 C122 1.267 . S
C130 O131 1.160 . S
C130 O137 1.185 . S
O131 C130 1.160 . S
O132 Zn133 1.899 . S
O132 C140 1.284 . S
Zn133 O132 1.899 . S
Zn133 O134 2.032 . S
Zn133 O137 2.086 . S
Zn133 O142 1.977 . S
O134 Zn133 2.032 . S
O134 C138 1.278 . S
C135 O136 1.203 . S
C135 O142 1.267 . S
O136 C135 1.203 . S
O137 C130 1.185 . S
O137 Zn133 2.086 . S
C138 O134 1.278 . S
C138 O139 1.211 . S
O139 C138 1.211 . S
C140 O132 1.284 . S
C140 O141 1.273 . S
O141 C140 1.273 . S
O142 Zn133 1.977 . S
O142 C135 1.267 . S
C143 O144 1.160 . S
C143 O150 1.185 . S
O144 C143 1.160 . S
O145 Zn146 1.899 . S
O145 C153 1.284 . S
Zn146 O145 1.899 . S
Zn146 O147 2.032 . S
Zn146 O150 2.086 . S
Zn146 O155 1.977 . S
O147 Zn146 2.032 . S
O147 C151 1.278 . S
C148 O149 1.203 . S
C148 O155 1.267 . S
O149 C148 1.203 . S
O150 C143 1.185 . S
O150 Zn146 2.086 . S
C151 O147 1.278 . S
C151 O152 1.211 . S
O152 C151 1.211 . S
C153 O145 1.284 . S
C153 O154 1.273 . S
O154 C153 1.273 . S
O155 Zn146 1.977 . S
O155 C148 1.267 . S
C156 O157 1.160 . S
C156 O163 1.185 . S
O157 C156 1.160 . S
O158 Zn159 1.899 . S
O158 C166 1.284 . S
Zn159 O158 1.899 . S
Zn159 O160 2.032 . S
Zn159 O163 2.086 . S
Zn159 O168 1.977 1_455 S
O160 Zn159 2.032 . S
O160 C164 1.298 . S
C161 O162 1.203 . S
C161 O168 1.267 . S
O162 C161 1.203 . S
O163 C156 1.185 . S
O163 Zn159 2.086 . S
C164 O160 1.298 . S
C164 O165 1.183 1_455 S
O165 C164 1.183 1_655 S
C166 O158 1.284 . S
C166 O167 1.273 1_455 S
O167 C166 1.273 1_655 S
O168 Zn159 1.977 1_655 S
O168 C161 1.267 . S
C169 O170 1.160 . S
C169 O176 1.185 . S
O170 C169 1.160 . S
O171 Zn172 1.899 . S
O171 C179 1.286 . S
Zn172 O171 1.899 . S
Zn172 O173 2.032 1_455 S
Zn172 O176 2.086 1_455 S
Zn172 O181 1.977 . S
O173 Zn172 2.032 1_655 S
O173 C177 1.278 1_655 S
C174 O175 1.203 . S
C174 O181 1.267 . S
O175 C174 1.203 . S
O176 C169 1.185 . S
O176 Zn172 2.086 1_655 S
C177 O173 1.278 1_455 S
C177 O178 1.211 . S
O178 C177 1.211 . S
C179 O171 1.286 . S
C179 O180 1.273 . S
O180 C179 1.273 . S
O181 Zn172 1.977 . S
O181 C174 1.267 . S
C182 O183 1.160 . S
C182 O189 1.185 . S
O183 C182 1.160 . S
O184 Zn185 1.899 . S
O184 C192 1.284 . S
Zn185 O184 1.899 . S
Zn185 O186 2.032 . S
Zn185 O189 2.086 . S
Zn185 O194 1.977 . S
O186 Zn185 2.032 . S
O186 C190 1.278 . S
C187 O188 1.203 . S
C187 O194 1.267 . S
O188 C187 1.203 . S
O189 C182 1.185 . S
O189 Zn185 2.086 . S
C190 O186 1.278 . S
C190 O191 1.211 . S
O191 C190 1.211 . S
C192 O184 1.284 . S
C192 O193 1.273 . S
O193 C192 1.273 . S
O194 Zn185 1.977 . S
O194 C187 1.267 . S
C195 O196 1.160 . S
C195 O202 1.185 . S
O196 C195 1.160 . S
O197 Zn198 1.899 . S
O197 C205 1.284 . S
Zn198 O197 1.899 . S
Zn198 O199 2.032 . S
Zn198 O202 2.086 . S
Zn198 O207 1.977 . S
O199 Zn198 2.032 . S
O199 C203 1.278 . S
C200 O201 1.203 . S
C200 O207 1.267 . S
O201 C200 1.203 . S
O202 C195 1.185 . S
O202 Zn198 2.086 . S
C203 O199 1.278 . S
C203 O204 1.211 . S
O204 C203 1.211 . S
C205 O197 1.284 . S
C205 O206 1.273 . S
O206 C205 1.273 . S
O207 Zn198 1.977 . S
O207 C200 1.267 . S
C208 O209 1.160 . S
C208 O215 1.185 . S
O209 C208 1.160 . S
O210 Zn211 1.899 . S
O210 C218 1.278 1_545 S
Zn211 O210 1.899 . S
Zn211 O212 2.032 . S
Zn211 O215 2.086 . S
Zn211 O220 1.977 1_545 S
O212 Zn211 2.032 . S
O212 C216 1.278 1_545 S
C213 O214 1.203 . S
C213 O220 1.267 . S
O214 C213 1.203 . S
O215 C208 1.185 . S
O215 Zn211 2.086 . S
C216 O212 1.278 1_565 S
C216 O217 1.211 . S
O217 C216 1.211 . S
C218 O210 1.278 1_565 S
C218 O219 1.283 . S
O219 C218 1.283 . S
O220 Zn211 1.977 1_565 S
O220 C213 1.267 . S
C221 O222 1.160 . S
C221 O228 1.185 . S
O222 C221 1.160 . S
O223 Zn224 1.899 . S
O223 C231 1.284 . S
Zn224 O223 1.899 . S
Zn224 O225 2.032 . S
Zn224 O228 2.086 . S
Zn224 O233 1.977 . S
O225 Zn224 2.032 . S
O225 C229 1.278 . S
C226 O227 1.203 . S
C226 O233 1.267 . S
O227 C226 1.203 . S
O228 C221 1.185 . S
O228 Zn224 2.086 . S
C229 O225 1.278 . S
C229 O230 1.211 . S
O230 C229 1.211 . S
C231 O223 1.284 . S
C231 O232 1.273 . S
O232 C231 1.273 . S
O233 Zn224 1.977 . S
O233 C226 1.267 . S
C234 O235 1.160 . S
C234 O241 1.185 . S
O235 C234 1.160 . S
O236 Zn237 1.900 . S
O236 C244 1.290 . S
Zn237 O236 1.900 . S
Zn237 O238 2.032 1_545 S
Zn237 O241 2.086 1_545 S
Zn237 O246 1.977 . S
O238 Zn237 2.032 1_565 S
O238 C242 1.278 1_565 S
C239 O240 1.203 . S
C239 O246 1.267 . S
O240 C239 1.203 . S
O241 C234 1.185 . S
O241 Zn237 2.086 1_565 S
C242 O238 1.278 1_545 S
C242 O243 1.211 . S
O243 C242 1.211 . S
C244 O236 1.290 . S
C244 O245 1.273 . S
O245 C244 1.273 . S
O246 Zn237 1.977 . S
O246 C239 1.267 . S
C247 O248 1.160 . S
C247 O254 1.185 . S
O248 C247 1.160 . S
O249 Zn250 1.899 . S
O249 C257 1.284 . S
Zn250 O249 1.899 . S
Zn250 O251 2.032 1_554 S
Zn250 O254 2.086 . S
Zn250 O259 1.977 . S
O251 Zn250 2.032 1_556 S
O251 C255 1.278 . S
C252 O253 1.203 . S
C252 O259 1.267 . S
O253 C252 1.203 . S
O254 C247 1.185 . S
O254 Zn250 2.086 . S
C255 O251 1.278 . S
C255 O256 1.211 . S
O256 C255 1.211 . S
C257 O249 1.284 . S
C257 O258 1.273 . S
O258 C257 1.273 . S
O259 Zn250 1.977 . S
O259 C252 1.267 . S
C260 O261 1.160 . S
C260 O267 1.185 1_554 S
O261 C260 1.160 . S
O262 Zn263 1.899 . S
O262 C270 1.284 . S
Zn263 O262 1.899 . S
Zn263 O264 2.032 1_554 S
Zn263 O267 2.086 1_554 S
Zn263 O272 1.977 1_554 S
O264 Zn263 2.032 1_556 S
O264 C268 1.278 . S
C265 O266 1.203 . S
C265 O272 1.267 1_554 S
O266 C265 1.203 . S
O267 C260 1.185 1_556 S
O267 Zn263 2.086 1_556 S
C268 O264 1.278 . S
C268 O269 1.211 . S
O269 C268 1.211 . S
C270 O262 1.284 . S
C270 O271 1.273 . S
O271 C270 1.273 . S
O272 Zn263 1.977 1_556 S
O272 C265 1.267 1_556 S
C273 O274 1.160 . S
C273 O280 1.185 . S
O274 C273 1.160 . S
O275 Zn276 1.899 . S
O275 C283 1.284 . S
Zn276 O275 1.899 . S
Zn276 O277 2.032 . S
Zn276 O280 2.086 . S
Zn276 O285 1.977 . S
O277 Zn276 2.032 . S
O277 C281 1.278 . S
C278 O279 1.203 . S
C278 O285 1.267 . S
O279 C278 1.203 . S
O280 C273 1.185 . S
O280 Zn276 2.086 . S
C281 O277 1.278 . S
C281 O282 1.211 . S
O282 C281 1.211 . S
C283 O275 1.284 . S
C283 O284 1.273 . S
O284 C283 1.273 . S
O285 Zn276 1.977 . S
O285 C278 1.267 . S
C286 O287 1.160 . S
C286 O293 1.185 . S
O287 C286 1.160 . S
O288 Zn289 1.899 . S
O288 C296 1.284 . S
Zn289 O288 1.899 . S
Zn289 O290 2.032 . S
Zn289 O293 2.086 . S
Zn289 O298 1.977 . S
O290 Zn289 2.032 . S
O290 C294 1.278 . S
C291 O292 1.203 . S
C291 O298 1.267 . S
O292 C291 1.203 . S
O293 C286 1.185 . S
O293 Zn289 2.086 . S
C294 O290 1.278 . S
C294 O295 1.211 . S
O295 C294 1.211 . S
C296 O288 1.284 . S
C296 O297 1.273 . S
O297 C296 1.273 . S
O298 Zn289 1.977 . S
O298 C291 1.267 . S
C299 O300 1.160 . S
C299 O306 1.185 . S
O300 C299 1.160 . S
O301 Zn302 1.899 . S
O301 C309 1.284 . S
Zn302 O301 1.899 . S
Zn302 O303 2.032 . S
Zn302 O306 2.086 . S
Zn302 O311 1.977 . S
O303 Zn302 2.032 . S
O303 C307 1.278 . S
C304 O305 1.203 . S
C304 O311 1.267 . S
O305 C304 1.203 . S
O306 C299 1.185 . S
O306 Zn302 2.086 . S
C307 O303 1.278 . S
C307 O308 1.211 . S
O308 C307 1.211 . S
C309 O301 1.284 . S
C309 O310 1.273 . S
O310 C309 1.273 . S
O311 Zn302 1.977 . S
O311 C304 1.267 . S
O312 Mn313 2.170 . S
O312 C326 1.240 1_554 S
Mn313 O312 2.170 . S
Mn313 O316 2.160 1_445 S
Mn313 O317 2.221 1_455 S
Mn313 O319 2.163 1_454 S
Mn313 O321 2.160 1_545 S
Mn313 O331 2.220 1_544 S
O314 Mn315 2.103 1_556 S
O314 C326 1.239 1_565 S
Mn315 O314 2.103 1_554 S
Mn315 O322 2.089 . S
Mn315 O331 2.289 1_554 S
Mn315 O332 2.251 1_554 S
O316 Mn313 2.160 1_665 S
O316 C327 1.239 . S
O317 Mn313 2.221 1_655 S
O317 Mn318 2.290 1_554 S
O317 C328 1.278 . S
Mn318 O317 2.290 1_556 S
Mn318 O320 2.089 1_556 S
Mn318 O323 2.251 1_556 S
Mn318 O324 2.087 . S
O319 Mn313 2.163 1_656 S
O319 C329 1.244 . S
O320 Mn318 2.089 1_554 S
O320 C327 1.256 1_545 S
O321 Mn313 2.160 1_565 S
O321 C330 1.239 . S
O322 Mn315 2.089 . S
O322 C330 1.256 . S
O323 Mn318 2.251 1_554 S
O323 C328 1.241 . S
O324 Mn318 2.087 . S
O324 C329 1.256 . S
C325 O331 1.281 . S
C325 O332 1.241 . S
C326 O312 1.240 1_556 S
C326 O314 1.239 1_545 S
C327 O316 1.239 . S
C327 O320 1.256 1_565 S
C328 O317 1.278 . S
C328 O323 1.241 . S
C329 O319 1.244 . S
C329 O324 1.256 . S
C330 O321 1.239 . S
C330 O322 1.256 . S
O331 Mn313 2.220 1_566 S
O331 Mn315 2.289 1_556 S
O331 C325 1.281 . S
O332 Mn315 2.251 1_556 S
O332 C325 1.241 . S
O333 Mn334 2.163 . S
O333 C347 1.244 . S
Mn334 O333 2.163 . S
Mn334 O337 2.160 . S
Mn334 O338 2.221 . S
Mn334 O340 2.163 . S
Mn334 O342 2.160 . S
Mn334 O352 2.221 . S
O335 Mn336 2.087 . S
O335 C347 1.256 . S
Mn336 O335 2.087 . S
Mn336 O343 2.089 . S
Mn336 O352 2.290 . S
Mn336 O353 2.251 . S
O337 Mn334 2.160 . S
O337 C348 1.239 . S
O338 Mn334 2.221 . S
O338 Mn339 2.290 . S
O338 C349 1.278 . S
Mn339 O338 2.290 . S
Mn339 O341 2.089 . S
Mn339 O344 2.251 . S
Mn339 O345 2.087 . S
O340 Mn334 2.163 . S
O340 C350 1.244 . S
O341 Mn339 2.089 . S
O341 C348 1.256 . S
O342 Mn334 2.160 . S
O342 C351 1.239 . S
O343 Mn336 2.089 . S
O343 C351 1.256 . S
O344 Mn339 2.251 . S
O344 C349 1.241 . S
O345 Mn339 2.087 . S
O345 C350 1.256 . S
C346 O352 1.278 . S
C346 O353 1.241 . S
C347 O333 1.244 . S
C347 O335 1.256 . S
C348 O337 1.239 . S
C348 O341 1.256 . S
C349 O338 1.278 . S
C349 O344 1.241 . S
C350 O340 1.244 . S
C350 O345 1.256 . S
C351 O342 1.239 . S
C351 O343 1.256 . S
O352 Mn334 2.221 . S
O352 Mn336 2.290 . S
O352 C346 1.278 . S
O353 Mn336 2.251 . S
O353 C346 1.241 . S
O354 Mn355 2.163 1_565 S
O354 C368 1.244 . S
Mn355 O354 2.163 1_545 S
Mn355 O358 2.160 . S
Mn355 O359 2.221 1_545 S
Mn355 O361 2.163 . S
Mn355 O363 2.160 . S
Mn355 O373 2.221 . S
O356 Mn357 2.087 . S
O356 C368 1.256 1_545 S
Mn357 O356 2.087 . S
Mn357 O364 2.089 . S
Mn357 O373 2.290 . S
Mn357 O374 2.251 . S
O358 Mn355 2.160 . S
O358 C369 1.239 . S
O359 Mn355 2.221 1_565 S
O359 Mn360 2.290 . S
O359 C370 1.278 . S
Mn360 O359 2.290 . S
Mn360 O362 2.089 1_565 S
Mn360 O365 2.251 . S
Mn360 O366 2.087 . S
O361 Mn355 2.163 . S
O361 C371 1.244 1_545 S
O362 Mn360 2.089 1_545 S
O362 C369 1.256 . S
O363 Mn355 2.160 . S
O363 C372 1.239 . S
O364 Mn357 2.089 . S
O364 C372 1.256 . S
O365 Mn360 2.251 . S
O365 C370 1.241 . S
O366 Mn360 2.087 . S
O366 C371 1.256 . S
C367 O373 1.278 . S
C367 O374 1.241 . S
C368 O354 1.244 . S
C368 O356 1.256 1_565 S
C369 O358 1.239 . S
C369 O362 1.256 . S
C370 O359 1.278 . S
C370 O365 1.241 . S
C371 O361 1.244 1_565 S
C371 O366 1.256 . S
C372 O363 1.239 . S
C372 O364 1.256 . S
O373 Mn355 2.221 . S
O373 Mn357 2.290 . S
O373 C367 1.278 . S
O374 Mn357 2.251 . S
O374 C367 1.241 . S
O375 Mn376 2.163 . S
O375 C389 1.244 . S
Mn376 O375 2.163 . S
Mn376 O379 2.160 . S
Mn376 O380 2.221 . S
Mn376 O382 2.163 . S
Mn376 O384 2.160 . S
Mn376 O394 2.221 . S
O377 Mn378 2.087 . S
O377 C389 1.256 . S
Mn378 O377 2.087 . S
Mn378 O385 2.089 . S
Mn378 O394 2.290 . S
Mn378 O395 2.251 . S
O379 Mn376 2.160 . S
O379 C390 1.239 . S
O380 Mn376 2.221 . S
O380 Mn381 2.290 . S
O380 C391 1.278 . S
Mn381 O380 2.290 . S
Mn381 O383 2.089 . S
Mn381 O386 2.251 . S
Mn381 O387 2.087 . S
O382 Mn376 2.163 . S
O382 C392 1.244 . S
O383 Mn381 2.089 . S
O383 C390 1.256 . S
O384 Mn376 2.160 . S
O384 C393 1.239 . S
O385 Mn378 2.089 . S
O385 C393 1.256 . S
O386 Mn381 2.251 . S
O386 C391 1.241 . S
O387 Mn381 2.087 . S
O387 C392 1.256 . S
C388 O394 1.278 . S
C388 O395 1.241 . S
C389 O375 1.244 . S
C389 O377 1.256 . S
C390 O379 1.239 . S
C390 O383 1.256 . S
C391 O380 1.278 . S
C391 O386 1.241 . S
C392 O382 1.244 . S
C392 O387 1.256 . S
C393 O384 1.239 . S
C393 O385 1.256 . S
O394 Mn376 2.221 . S
O394 Mn378 2.290 . S
O394 C388 1.278 . S
O395 Mn378 2.251 . S
O395 C388 1.241 . S
O396 Mn397 2.163 1_565 S
O396 C410 1.241 1_455 S
Mn397 O396 2.163 1_545 S
Mn397 O400 2.160 . S
Mn397 O401 2.221 . S
Mn397 O403 2.163 1_455 S
Mn397 O405 2.160 1_545 S
Mn397 O415 2.222 1_545 S
O398 Mn399 2.087 1_655 S
O398 C410 1.258 . S
Mn399 O398 2.087 1_455 S
Mn399 O406 2.089 . S
Mn399 O415 2.291 . S
Mn399 O416 2.251 1_455 S
O400 Mn397 2.160 . S
O400 C411 1.239 . S
O401 Mn397 2.221 . S
O401 Mn402 2.290 1_455 S
O401 C412 1.278 . S
Mn402 O401 2.290 1_655 S
Mn402 O404 2.089 1_655 S
Mn402 O407 2.251 1_655 S
Mn402 O408 2.087 . S
O403 Mn397 2.163 1_655 S
O403 C413 1.244 . S
O404 Mn402 2.089 1_455 S
O404 C411 1.256 . S
O405 Mn397 2.160 1_565 S
O405 C414 1.239 . S
O406 Mn399 2.089 . S
O406 C414 1.256 . S
O407 Mn402 2.251 1_455 S
O407 C412 1.241 . S
O408 Mn402 2.087 . S
O408 C413 1.256 . S
C409 O415 1.275 1_655 S
C409 O416 1.241 . S
C410 O396 1.241 1_655 S
C410 O398 1.258 . S
C411 O400 1.239 . S
C411 O404 1.256 . S
C412 O401 1.278 . S
C412 O407 1.241 . S
C413 O403 1.244 . S
C413 O408 1.256 . S
C414 O405 1.239 . S
C414 O406 1.256 . S
O415 Mn397 2.222 1_565 S
O415 Mn399 2.291 . S
O415 C409 1.275 1_455 S
O416 Mn399 2.251 1_655 S
O416 C409 1.241 . S
O417 Mn418 2.163 . S
O417 C431 1.244 . S
Mn418 O417 2.163 . S
Mn418 O421 2.160 . S
Mn418 O422 2.221 . S
Mn418 O424 2.163 . S
Mn418 O426 2.160 . S
Mn418 O436 2.221 . S
O419 Mn420 2.087 . S
O419 C431 1.256 . S
Mn420 O419 2.087 . S
Mn420 O427 2.089 . S
Mn420 O436 2.290 . S
Mn420 O437 2.251 . S
O421 Mn418 2.160 . S
O421 C432 1.239 . S
O422 Mn418 2.221 . S
O422 Mn423 2.290 . S
O422 C433 1.278 . S
Mn423 O422 2.290 . S
Mn423 O425 2.089 . S
Mn423 O428 2.251 . S
Mn423 O429 2.087 . S
O424 Mn418 2.163 . S
O424 C434 1.244 . S
O425 Mn423 2.089 . S
O425 C432 1.256 . S
O426 Mn418 2.160 . S
O426 C435 1.239 . S
O427 Mn420 2.089 . S
O427 C435 1.256 . S
O428 Mn423 2.251 . S
O428 C433 1.241 . S
O429 Mn423 2.087 . S
O429 C434 1.256 . S
C430 O436 1.278 . S
C430 O437 1.241 . S
C431 O417 1.244 . S
C431 O419 1.256 . S
C432 O421 1.239 . S
C432 O425 1.256 . S
C433 O422 1.278 . S
C433 O428 1.241 . S
C434 O424 1.244 . S
C434 O429 1.256 . S
C435 O426 1.239 . S
C435 O427 1.256 . S
O436 Mn418 2.221 . S
O436 Mn420 2.290 . S
O436 C430 1.278 . S
O437 Mn420 2.251 . S
O437 C430 1.241 . S
O438 Mn439 2.168 1_556 S
O438 C452 1.241 1_545 S
Mn439 O438 2.168 1_554 S
Mn439 O442 2.160 . S
Mn439 O443 2.221 . S
Mn439 O445 2.163 1_545 S
Mn439 O447 2.160 1_554 S
Mn439 O457 2.222 1_544 S
O440 Mn441 2.087 1_565 S
O440 C452 1.256 . S
Mn441 O440 2.087 1_545 S
Mn441 O448 2.089 . S
Mn441 O457 2.292 1_545 S
Mn441 O458 2.251 1_545 S
O442 Mn439 2.160 . S
O442 C453 1.239 . S
O443 Mn439 2.221 . S
O443 Mn444 2.290 1_545 S
O443 C454 1.278 . S
Mn444 O443 2.290 1_565 S
Mn444 O446 2.089 1_565 S
Mn444 O449 2.251 1_565 S
Mn444 O450 2.087 . S
O445 Mn439 2.163 1_565 S
O445 C455 1.244 . S
O446 Mn444 2.089 1_545 S
O446 C453 1.256 . S
O447 Mn439 2.160 1_556 S
O447 C456 1.239 . S
O448 Mn441 2.089 . S
O448 C456 1.256 . S
O449 Mn444 2.251 1_545 S
O449 C454 1.241 . S
O450 Mn444 2.087 . S
O450 C455 1.256 . S
C451 O457 1.274 . S
C451 O458 1.241 . S
C452 O438 1.241 1_565 S
C452 O440 1.256 . S
C453 O442 1.239 . S
C453 O446 1.256 . S
C454 O443 1.278 . S
C454 O449 1.241 . S
C455 O445 1.244 . S
C455 O450 1.256 . S
C456 O447 1.239 . S
C456 O448 1.256 . S
O457 Mn439 2.222 1_566 S
O457 Mn441 2.292 1_565 S
O457 C451 1.274 . S
O458 Mn441 2.251 1_565 S
O458 C451 1.241 . S
O459 Mn460 2.163 . S
O459 C473 1.244 . S
Mn460 O459 2.163 . S
Mn460 O463 2.160 . S
Mn460 O464 2.221 . S
Mn460 O466 2.163 . S
Mn460 O468 2.160 . S
Mn460 O478 2.221 . S
O461 Mn462 2.087 . S
O461 C473 1.256 . S
Mn462 O461 2.087 . S
Mn462 O469 2.089 . S
Mn462 O478 2.290 . S
Mn462 O479 2.251 . S
O463 Mn460 2.160 . S
O463 C474 1.239 . S
O464 Mn460 2.221 . S
O464 Mn465 2.290 . S
O464 C475 1.278 . S
Mn465 O464 2.290 . S
Mn465 O467 2.089 . S
Mn465 O470 2.251 . S
Mn465 O471 2.087 . S
O466 Mn460 2.163 . S
O466 C476 1.244 . S
O467 Mn465 2.089 . S
O467 C474 1.256 . S
O468 Mn460 2.160 . S
O468 C477 1.239 . S
O469 Mn462 2.089 . S
O469 C477 1.256 . S
O470 Mn465 2.251 . S
O470 C475 1.241 . S
O471 Mn465 2.087 . S
O471 C476 1.256 . S
C472 O478 1.278 . S
C472 O479 1.241 . S
C473 O459 1.244 . S
C473 O461 1.256 . S
C474 O463 1.239 . S
C474 O467 1.256 . S
C475 O464 1.278 . S
C475 O470 1.241 . S
C476 O466 1.244 . S
C476 O471 1.256 . S
C477 O468 1.239 . S
C477 O469 1.256 . S
O478 Mn460 2.221 . S
O478 Mn462 2.290 . S
O478 C472 1.278 . S
O479 Mn462 2.251 . S
O479 C472 1.241 . S
O480 Mn481 2.163 1_556 S
O480 C494 1.244 . S
Mn481 O480 2.163 1_554 S
Mn481 O484 2.160 . S
Mn481 O485 2.221 1_554 S
Mn481 O487 2.164 . S
Mn481 O489 2.160 . S
Mn481 O499 2.221 . S
O482 Mn483 2.087 . S
O482 C494 1.256 1_554 S
Mn483 O482 2.087 . S
Mn483 O490 2.089 . S
Mn483 O499 2.290 . S
Mn483 O500 2.251 . S
O484 Mn481 2.160 . S
O484 C495 1.239 . S
O485 Mn481 2.221 1_556 S
O485 Mn486 2.290 . S
O485 C496 1.278 . S
Mn486 O485 2.290 . S
Mn486 O488 2.118 . S
Mn486 O491 2.251 . S
Mn486 O492 2.087 . S
O487 Mn481 2.164 . S
O487 C497 1.233 1_554 S
O488 Mn486 2.118 . S
O488 C495 1.231 1_556 S
O489 Mn481 2.160 . S
O489 C498 1.239 . S
O490 Mn483 2.089 . S
O490 C498 1.256 . S
O491 Mn486 2.251 . S
O491 C496 1.241 . S
O492 Mn486 2.087 . S
O492 C497 1.256 . S
C493 O499 1.278 . S
C493 O500 1.241 . S
C494 O480 1.244 . S
C494 O482 1.256 1_556 S
C495 O484 1.239 . S
C495 O488 1.231 1_554 S
C496 O485 1.278 . S
C496 O491 1.241 . S
C497 O487 1.233 1_556 S
C497 O492 1.256 . S
C498 O489 1.239 . S
C498 O490 1.256 . S
O499 Mn481 2.221 . S
O499 Mn483 2.290 . S
O499 C493 1.278 . S
O500 Mn483 2.251 . S
O500 C493 1.241 . S
O501 Mn502 2.163 . S
O501 C515 1.244 . S
Mn502 O501 2.163 . S
Mn502 O505 2.160 . S
Mn502 O506 2.221 . S
Mn502 O508 2.163 . S
Mn502 O510 2.160 . S
Mn502 O520 2.221 . S
O503 Mn504 2.087 . S
O503 C515 1.256 . S
Mn504 O503 2.087 . S
Mn504 O511 2.089 . S
Mn504 O520 2.290 . S
Mn504 O521 2.251 . S
O505 Mn502 2.160 . S
O505 C516 1.239 . S
O506 Mn502 2.221 . S
O506 Mn507 2.290 . S
O506 C517 1.278 . S
Mn507 O506 2.290 . S
Mn507 O509 2.089 . S
Mn507 O512 2.251 . S
Mn507 O513 2.087 . S
O508 Mn502 2.163 . S
O508 C518 1.244 . S
O509 Mn507 2.089 . S
O509 C516 1.256 . S
O510 Mn502 2.160 . S
O510 C519 1.239 . S
O511 Mn504 2.089 . S
O511 C519 1.256 . S
O512 Mn507 2.251 . S
O512 C517 1.241 . S
O513 Mn507 2.087 . S
O513 C518 1.256 . S
C514 O520 1.278 . S
C514 O521 1.241 . S
C515 O501 1.244 . S
C515 O503 1.256 . S
C516 O505 1.239 . S
C516 O509 1.256 . S
C517 O506 1.278 . S
C517 O512 1.241 . S
C518 O508 1.244 . S
C518 O513 1.256 . S
C519 O510 1.239 . S
C519 O511 1.256 . S
O520 Mn502 2.221 . S
O520 Mn504 2.290 . S
O520 C514 1.278 . S
O521 Mn504 2.251 . S
O521 C514 1.241 . S
O522 Mn523 2.163 1_655 S
O522 C536 1.244 . S
Mn523 O522 2.163 1_455 S
Mn523 O526 2.160 . S
Mn523 O527 2.221 1_455 S
Mn523 O529 2.163 . S
Mn523 O531 2.160 . S
Mn523 O541 2.221 . S
O524 Mn525 2.087 . S
O524 C536 1.256 1_455 S
Mn525 O524 2.087 . S
Mn525 O532 2.089 . S
Mn525 O541 2.290 . S
Mn525 O542 2.251 . S
O526 Mn523 2.160 . S
O526 C537 1.239 . S
O527 Mn523 2.221 1_655 S
O527 Mn528 2.290 . S
O527 C538 1.278 . S
Mn528 O527 2.290 . S
Mn528 O530 2.091 . S
Mn528 O533 2.251 . S
Mn528 O534 2.087 . S
O529 Mn523 2.163 . S
O529 C539 1.244 1_455 S
O530 Mn528 2.091 . S
O530 C537 1.254 1_655 S
O531 Mn523 2.160 . S
O531 C540 1.239 . S
O532 Mn525 2.089 . S
O532 C540 1.256 . S
O533 Mn528 2.251 . S
O533 C538 1.241 . S
O534 Mn528 2.087 . S
O534 C539 1.256 . S
C535 O541 1.278 . S
C535 O542 1.241 . S
C536 O522 1.244 . S
C536 O524 1.256 1_655 S
C537 O526 1.239 . S
C537 O530 1.254 1_455 S
C538 O527 1.278 . S
C538 O533 1.241 . S
C539 O529 1.244 1_655 S
C539 O534 1.256 . S
C540 O531 1.239 . S
C540 O532 1.256 . S
O541 Mn523 2.221 . S
O541 Mn525 2.290 . S
O541 C535 1.278 . S
O542 Mn525 2.251 . S
O542 C535 1.241 . S
O543 Mn544 2.163 . S
O543 C557 1.244 . S
Mn544 O543 2.163 . S
Mn544 O547 2.160 . S
Mn544 O548 2.221 . S
Mn544 O550 2.163 . S
Mn544 O552 2.160 . S
Mn544 O562 2.221 . S
O545 Mn546 2.087 . S
O545 C557 1.256 . S
Mn546 O545 2.087 . S
Mn546 O553 2.089 . S
Mn546 O562 2.290 . S
Mn546 O563 2.251 . S
O547 Mn544 2.160 . S
O547 C558 1.239 . S
O548 Mn544 2.221 . S
O548 Mn549 2.290 . S
O548 C559 1.278 . S
Mn549 O548 2.290 . S
Mn549 O551 2.089 . S
Mn549 O554 2.251 . S
Mn549 O555 2.087 . S
O550 Mn544 2.163 . S
O550 C560 1.244 . S
O551 Mn549 2.089 . S
O551 C558 1.256 . S
O552 Mn544 2.160 . S
O552 C561 1.239 . S
O553 Mn546 2.089 . S
O553 C561 1.256 . S
O554 Mn549 2.251 . S
O554 C559 1.241 . S
O555 Mn549 2.087 . S
O555 C560 1.256 . S
C556 O562 1.278 . S
C556 O563 1.241 . S
C557 O543 1.244 . S
C557 O545 1.256 . S
C558 O547 1.239 . S
C558 O551 1.256 . S
C559 O548 1.278 . S
C559 O554 1.241 . S
C560 O550 1.244 . S
C560 O555 1.256 . S
C561 O552 1.239 . S
C561 O553 1.256 . S
O562 Mn544 2.221 . S
O562 Mn546 2.290 . S
O562 C556 1.278 . S
O563 Mn546 2.251 . S
O563 C556 1.241 . S
O564 Mn565 2.163 . S
O564 C578 1.244 . S
Mn565 O564 2.163 . S
Mn565 O568 2.160 . S
Mn565 O569 2.221 . S
Mn565 O571 2.163 . S
Mn565 O573 2.160 . S
Mn565 O583 2.221 . S
O566 Mn567 2.087 . S
O566 C578 1.256 . S
Mn567 O566 2.087 . S
Mn567 O574 2.089 . S
Mn567 O583 2.290 . S
Mn567 O584 2.251 . S
O568 Mn565 2.160 . S
O568 C579 1.239 . S
O569 Mn565 2.221 . S
O569 Mn570 2.290 . S
O569 C580 1.278 . S
Mn570 O569 2.290 . S
Mn570 O572 2.089 . S
Mn570 O575 2.251 . S
Mn570 O576 2.087 . S
O571 Mn565 2.163 . S
O571 C581 1.244 . S
O572 Mn570 2.089 . S
O572 C579 1.256 . S
O573 Mn565 2.160 . S
O573 C582 1.239 . S
O574 Mn567 2.089 . S
O574 C582 1.256 . S
O575 Mn570 2.251 . S
O575 C580 1.241 . S
O576 Mn570 2.087 . S
O576 C581 1.256 . S
C577 O583 1.278 . S
C577 O584 1.241 . S
C578 O564 1.244 . S
C578 O566 1.256 . S
C579 O568 1.239 . S
C579 O572 1.256 . S
C580 O569 1.278 . S
C580 O575 1.241 . S
C581 O571 1.244 . S
C581 O576 1.256 . S
C582 O573 1.239 . S
C582 O574 1.256 . S
O583 Mn565 2.221 . S
O583 Mn567 2.290 . S
O583 C577 1.278 . S
O584 Mn567 2.251 . S
O584 C577 1.241 . S
O585 Mn586 2.163 . S
O585 C599 1.244 . S
Mn586 O585 2.163 . S
Mn586 O589 2.160 . S
Mn586 O590 2.221 . S
Mn586 O592 2.163 . S
Mn586 O594 2.160 . S
Mn586 O604 2.221 . S
O587 Mn588 2.087 . S
O587 C599 1.256 . S
Mn588 O587 2.087 . S
Mn588 O595 2.089 . S
Mn588 O604 2.290 . S
Mn588 O605 2.251 . S
O589 Mn586 2.160 . S
O589 C600 1.239 . S
O590 Mn586 2.221 . S
O590 Mn591 2.290 . S
O590 C601 1.278 . S
Mn591 O590 2.290 . S
Mn591 O593 2.089 . S
Mn591 O596 2.251 . S
Mn591 O597 2.087 . S
O592 Mn586 2.163 . S
O592 C602 1.244 . S
O593 Mn591 2.089 . S
O593 C600 1.256 . S
O594 Mn586 2.160 . S
O594 C603 1.239 . S
O595 Mn588 2.089 . S
O595 C603 1.256 . S
O596 Mn591 2.251 . S
O596 C601 1.241 . S
O597 Mn591 2.087 . S
O597 C602 1.256 . S
C598 O604 1.278 . S
C598 O605 1.241 . S
C599 O585 1.244 . S
C599 O587 1.256 . S
C600 O589 1.239 . S
C600 O593 1.256 . S
C601 O590 1.278 . S
C601 O596 1.241 . S
C602 O592 1.244 . S
C602 O597 1.256 . S
C603 O594 1.239 . S
C603 O595 1.256 . S
O604 Mn586 2.221 . S
O604 Mn588 2.290 . S
O604 C598 1.278 . S
O605 Mn588 2.251 . S
O605 C598 1.241 . S
O606 Mn607 2.163 . S
O606 C620 1.244 . S
Mn607 O606 2.163 . S
Mn607 O610 2.160 . S
Mn607 O611 2.221 . S
Mn607 O613 2.163 . S
Mn607 O615 2.160 . S
Mn607 O625 2.221 . S
O608 Mn609 2.087 . S
O608 C620 1.256 . S
Mn609 O608 2.087 . S
Mn609 O616 2.089 . S
Mn609 O625 2.290 . S
Mn609 O626 2.251 . S
O610 Mn607 2.160 . S
O610 C621 1.239 . S
O611 Mn607 2.221 . S
O611 Mn612 2.290 . S
O611 C622 1.278 . S
Mn612 O611 2.290 . S
Mn612 O614 2.089 . S
Mn612 O617 2.251 . S
Mn612 O618 2.087 . S
O613 Mn607 2.163 . S
O613 C623 1.244 . S
O614 Mn612 2.089 . S
O614 C621 1.256 . S
O615 Mn607 2.160 . S
O615 C624 1.239 . S
O616 Mn609 2.089 . S
O616 C624 1.256 . S
O617 Mn612 2.251 . S
O617 C622 1.241 . S
O618 Mn612 2.087 . S
O618 C623 1.256 . S
C619 O625 1.278 . S
C619 O626 1.241 . S
C620 O606 1.244 . S
C620 O608 1.256 . S
C621 O610 1.239 . S
C621 O614 1.256 . S
C622 O611 1.278 . S
C622 O617 1.241 . S
C623 O613 1.244 . S
C623 O618 1.256 . S
C624 O615 1.239 . S
C624 O616 1.256 . S
O625 Mn607 2.221 . S
O625 Mn609 2.290 . S
O625 C619 1.278 . S
O626 Mn609 2.251 . S
O626 C619 1.241 . S
O627 Mn628 2.160 1_656 S
O627 C641 1.246 . S
Mn628 O627 2.160 1_454 S
Mn628 O631 2.160 . S
Mn628 O632 2.221 . S
Mn628 O634 2.163 1_554 S
Mn628 O636 2.160 1_455 S
Mn628 O646 2.221 1_454 S
O629 Mn630 2.087 1_556 S
O629 C641 1.256 . S
Mn630 O629 2.087 1_554 S
Mn630 O637 2.089 . S
Mn630 O646 2.290 1_554 S
Mn630 O647 2.251 1_554 S
O631 Mn628 2.160 . S
O631 C642 1.239 . S
O632 Mn628 2.221 . S
O632 Mn633 2.290 1_554 S
O632 C643 1.278 . S
Mn633 O632 2.290 1_556 S
Mn633 O635 2.089 1_556 S
Mn633 O638 2.251 1_556 S
Mn633 O639 2.087 . S
O634 Mn628 2.163 1_556 S
O634 C644 1.244 . S
O635 Mn633 2.089 1_554 S
O635 C642 1.256 . S
O636 Mn628 2.160 1_655 S
O636 C645 1.239 . S
O637 Mn630 2.089 . S
O637 C645 1.256 . S
O638 Mn633 2.251 1_554 S
O638 C643 1.241 . S
O639 Mn633 2.087 . S
O639 C644 1.256 . S
C640 O646 1.278 . S
C640 O647 1.241 . S
C641 O627 1.246 . S
C641 O629 1.256 . S
C642 O631 1.239 . S
C642 O635 1.256 . S
C643 O632 1.278 . S
C643 O638 1.241 . S
C644 O634 1.244 . S
C644 O639 1.256 . S
C645 O636 1.239 . S
C645 O637 1.256 . S
O646 Mn628 2.221 1_656 S
O646 Mn630 2.290 1_556 S
O646 C640 1.278 . S
O647 Mn630 2.251 1_556 S
O647 C640 1.241 . S
H648 C660 0.930 . S
H649 C662 0.930 . S
H650 C663 0.930 . S
H651 C667 0.959 . S
H652 C667 0.959 . S
H653 C667 0.961 . S
H654 C668 0.960 . S
H655 C668 0.959 1_656 S
H656 C668 0.959 . S
H657 C671 0.929 . S
H658 C672 0.931 . S
H659 C674 0.930 . S
C660 H648 0.930 . S
C660 C661 1.399 1_655 S
C660 C665 1.399 . S
C661 C660 1.399 1_455 S
C661 C662 1.376 . S
C662 H649 0.930 . S
C662 C661 1.376 . S
C662 C663 1.388 . S
C663 H650 0.930 . S
C663 C662 1.388 . S
C663 C664 1.390 . S
C664 C663 1.390 . S
C664 C665 1.394 1_455 S
C664 C670 1.465 . S
C665 C660 1.399 . S
C665 C664 1.394 1_655 S
C665 C666 1.516 . S
C666 C665 1.516 . S
C666 C667 1.502 . S
C666 C668 1.561 1_655 S
C666 C669 1.526 . S
C667 H651 0.959 . S
C667 H652 0.959 . S
C667 H653 0.961 . S
C667 C666 1.502 . S
C668 H654 0.960 . S
C668 H655 0.959 1_454 S
C668 H656 0.959 . S
C668 C666 1.561 1_455 S
C669 C666 1.526 . S
C669 C670 1.396 1_655 S
C669 C674 1.390 . S
C670 C664 1.465 . S
C670 C669 1.396 1_455 S
C670 C671 1.399 . S
C671 H657 0.929 . S
C671 C670 1.399 . S
C671 C672 1.385 . S
C672 H658 0.931 . S
C672 C671 1.385 . S
C672 C673 1.377 1_455 S
C673 C672 1.377 1_655 S
C673 C674 1.395 . S
C674 H659 0.930 . S
C674 C669 1.390 . S
C674 C673 1.395 . S
H675 C687 0.930 . S
H676 C689 0.930 . S
H677 C690 0.930 . S
H678 C694 0.959 . S
H679 C694 0.959 . S
H680 C694 0.961 . S
H681 C695 0.960 . S
H682 C695 0.961 . S
H683 C695 0.959 . S
H684 C698 0.929 . S
H685 C699 0.931 . S
H686 C701 0.930 . S
C687 H675 0.930 . S
C687 C688 1.399 . S
C687 C692 1.399 . S
C688 C687 1.399 . S
C688 C689 1.376 . S
C689 H676 0.930 . S
C689 C688 1.376 . S
C689 C690 1.388 . S
C690 H677 0.930 . S
C690 C689 1.388 . S
C690 C691 1.390 . S
C691 C690 1.390 . S
C691 C692 1.394 . S
C691 C697 1.465 . S
C692 C687 1.399 . S
C692 C691 1.394 . S
C692 C693 1.516 . S
C693 C692 1.516 . S
C693 C694 1.502 . S
C693 C695 1.561 . S
C693 C696 1.526 . S
C694 H678 0.959 . S
C694 H679 0.959 . S
C694 H680 0.961 . S
C694 C693 1.502 . S
C695 H681 0.960 . S
C695 H682 0.961 . S
C695 H683 0.959 . S
C695 C693 1.561 . S
C696 C693 1.526 . S
C696 C697 1.396 . S
C696 C701 1.390 . S
C697 C691 1.465 . S
C697 C696 1.396 . S
C697 C698 1.399 . S
C698 H684 0.929 . S
C698 C697 1.399 . S
C698 C699 1.385 . S
C699 H685 0.931 . S
C699 C698 1.385 . S
C699 C700 1.389 . S
C700 C699 1.389 . S
C700 C701 1.387 . S
C701 H686 0.930 . S
C701 C696 1.390 . S
C701 C700 1.387 . S
H702 C714 0.930 . S
H703 C716 0.930 . S
H704 C717 0.930 . S
H705 C721 0.959 . S
H706 C721 0.959 . S
H707 C721 0.961 . S
H708 C722 0.960 . S
H709 C722 0.961 . S
H710 C722 0.959 . S
H711 C725 0.929 . S
H712 C726 0.931 . S
H713 C728 0.930 . S
C714 H702 0.930 . S
C714 C715 1.399 . S
C714 C719 1.399 . S
C715 C714 1.399 . S
C715 C716 1.376 . S
C716 H703 0.930 . S
C716 C715 1.376 . S
C716 C717 1.388 . S
C717 H704 0.930 . S
C717 C716 1.388 . S
C717 C718 1.390 . S
C718 C717 1.390 . S
C718 C719 1.394 . S
C718 C724 1.465 . S
C719 C714 1.399 . S
C719 C718 1.394 . S
C719 C720 1.516 . S
C720 C719 1.516 . S
C720 C721 1.502 . S
C720 C722 1.561 . S
C720 C723 1.526 . S
C721 H705 0.959 . S
C721 H706 0.959 . S
C721 H707 0.961 . S
C721 C720 1.502 . S
C722 H708 0.960 . S
C722 H709 0.961 . S
C722 H710 0.959 . S
C722 C720 1.561 . S
C723 C720 1.526 . S
C723 C724 1.396 . S
C723 C728 1.390 . S
C724 C718 1.465 . S
C724 C723 1.396 . S
C724 C725 1.399 . S
C725 H711 0.929 . S
C725 C724 1.399 . S
C725 C726 1.385 . S
C726 H712 0.931 . S
C726 C725 1.385 . S
C726 C727 1.389 . S
C727 C726 1.389 . S
C727 C728 1.387 . S
C728 H713 0.930 . S
C728 C723 1.390 . S
C728 C727 1.387 . S
H729 C741 0.930 . S
H730 C743 0.930 . S
H731 C744 0.930 . S
H732 C748 0.959 . S
H733 C748 0.959 . S
H734 C748 0.961 . S
H735 C749 0.960 . S
H736 C749 0.961 . S
H737 C749 0.959 . S
H738 C752 0.929 . S
H739 C753 0.931 . S
H740 C755 0.930 . S
C741 H729 0.930 . S
C741 C742 1.399 . S
C741 C746 1.399 . S
C742 C741 1.399 . S
C742 C743 1.376 . S
C743 H730 0.930 . S
C743 C742 1.376 . S
C743 C744 1.388 . S
C744 H731 0.930 . S
C744 C743 1.388 . S
C744 C745 1.390 . S
C745 C744 1.390 . S
C745 C746 1.394 . S
C745 C751 1.465 . S
C746 C741 1.399 . S
C746 C745 1.394 . S
C746 C747 1.516 . S
C747 C746 1.516 . S
C747 C748 1.502 . S
C747 C749 1.561 . S
C747 C750 1.526 . S
C748 H732 0.959 . S
C748 H733 0.959 . S
C748 H734 0.961 . S
C748 C747 1.502 . S
C749 H735 0.960 . S
C749 H736 0.961 . S
C749 H737 0.959 . S
C749 C747 1.561 . S
C750 C747 1.526 . S
C750 C751 1.396 . S
C750 C755 1.390 . S
C751 C745 1.465 . S
C751 C750 1.396 . S
C751 C752 1.399 . S
C752 H738 0.929 . S
C752 C751 1.399 . S
C752 C753 1.385 . S
C753 H739 0.931 . S
C753 C752 1.385 . S
C753 C754 1.389 . S
C754 C753 1.389 . S
C754 C755 1.387 . S
C755 H740 0.930 . S
C755 C750 1.390 . S
C755 C754 1.387 . S
H756 C768 0.930 . S
H757 C770 0.930 . S
H758 C771 0.930 . S
H759 C775 0.959 1_455 S
H760 C775 0.959 . S
H761 C775 0.961 . S
H762 C776 0.960 . S
H763 C776 0.961 . S
H764 C776 0.959 . S
H765 C779 0.929 . S
H766 C780 0.931 . S
H767 C782 0.930 . S
C768 H756 0.930 . S
C768 C769 1.399 1_655 S
C768 C773 1.399 . S
C769 C768 1.399 1_455 S
C769 C770 1.376 . S
C770 H757 0.930 . S
C770 C769 1.376 . S
C770 C771 1.388 . S
C771 H758 0.930 . S
C771 C770 1.388 . S
C771 C772 1.390 . S
C772 C771 1.390 . S
C772 C773 1.394 1_455 S
C772 C778 1.465 . S
C773 C768 1.399 . S
C773 C772 1.394 1_655 S
C773 C774 1.516 . S
C774 C773 1.516 . S
C774 C775 1.502 . S
C774 C776 1.561 . S
C774 C777 1.526 . S
C775 H759 0.959 1_655 S
C775 H760 0.959 . S
C775 H761 0.961 . S
C775 C774 1.502 . S
C776 H762 0.960 . S
C776 H763 0.961 . S
C776 H764 0.959 . S
C776 C774 1.561 . S
C777 C774 1.526 . S
C777 C778 1.396 1_655 S
C777 C782 1.390 . S
C778 C772 1.465 . S
C778 C777 1.396 1_455 S
C778 C779 1.399 . S
C779 H765 0.929 . S
C779 C778 1.399 . S
C779 C780 1.385 . S
C780 H766 0.931 . S
C780 C779 1.385 . S
C780 C781 1.387 1_455 S
C781 C780 1.387 1_655 S
C781 C782 1.388 . S
C782 H767 0.930 . S
C782 C777 1.390 . S
C782 C781 1.388 . S
H783 C795 0.930 . S
H784 C797 0.930 . S
H785 C798 0.930 . S
H786 C802 0.959 . S
H787 C802 0.959 . S
H788 C802 0.961 . S
H789 C803 0.960 . S
H790 C803 0.961 . S
H791 C803 0.959 . S
H792 C806 0.929 . S
H793 C807 0.931 . S
H794 C809 0.930 . S
C795 H783 0.930 . S
C795 C796 1.399 . S
C795 C800 1.399 . S
C796 C795 1.399 . S
C796 C797 1.376 . S
C797 H784 0.930 . S
C797 C796 1.376 . S
C797 C798 1.388 . S
C798 H785 0.930 . S
C798 C797 1.388 . S
C798 C799 1.390 . S
C799 C798 1.390 . S
C799 C800 1.394 . S
C799 C805 1.465 . S
C800 C795 1.399 . S
C800 C799 1.394 . S
C800 C801 1.516 . S
C801 C800 1.516 . S
C801 C802 1.502 . S
C801 C803 1.561 . S
C801 C804 1.526 . S
C802 H786 0.959 . S
C802 H787 0.959 . S
C802 H788 0.961 . S
C802 C801 1.502 . S
C803 H789 0.960 . S
C803 H790 0.961 . S
C803 H791 0.959 . S
C803 C801 1.561 . S
C804 C801 1.526 . S
C804 C805 1.396 . S
C804 C809 1.390 . S
C805 C799 1.465 . S
C805 C804 1.396 . S
C805 C806 1.399 . S
C806 H792 0.929 . S
C806 C805 1.399 . S
C806 C807 1.385 . S
C807 H793 0.931 . S
C807 C806 1.385 . S
C807 C808 1.389 . S
C808 C807 1.389 . S
C808 C809 1.387 . S
C809 H794 0.930 . S
C809 C804 1.390 . S
C809 C808 1.387 . S
H810 C822 0.930 . S
H811 C824 0.930 . S
H812 C825 0.930 . S
H813 C829 0.959 . S
H814 C829 0.959 . S
H815 C829 0.961 . S
H816 C830 0.960 . S
H817 C830 0.961 . S
H818 C830 0.959 . S
H819 C833 0.955 . S
H820 C834 0.931 1_554 S
H821 C836 0.930 . S
C822 H810 0.930 . S
C822 C823 1.399 . S
C822 C827 1.399 . S
C823 C822 1.399 . S
C823 C824 1.376 . S
C824 H811 0.930 . S
C824 C823 1.376 . S
C824 C825 1.388 . S
C825 H812 0.930 . S
C825 C824 1.388 . S
C825 C826 1.390 . S
C826 C825 1.390 . S
C826 C827 1.394 . S
C826 C832 1.465 . S
C827 C822 1.399 . S
C827 C826 1.394 . S
C827 C828 1.516 . S
C828 C827 1.516 . S
C828 C829 1.502 . S
C828 C830 1.561 . S
C828 C831 1.526 . S
C829 H813 0.959 . S
C829 H814 0.959 . S
C829 H815 0.961 . S
C829 C828 1.502 . S
C830 H816 0.960 . S
C830 H817 0.961 . S
C830 H818 0.959 . S
C830 C828 1.561 . S
C831 C828 1.526 . S
C831 C832 1.396 . S
C831 C836 1.390 . S
C832 C826 1.465 . S
C832 C831 1.396 . S
C832 C833 1.399 . S
C833 H819 0.955 . S
C833 C832 1.399 . S
C833 C834 1.385 . S
C834 H820 0.931 1_556 S
C834 C833 1.385 . S
C834 C835 1.389 . S
C835 C834 1.389 . S
C835 C836 1.387 . S
C836 H821 0.930 . S
C836 C831 1.390 . S
C836 C835 1.387 . S
H837 C849 0.930 . S
H838 C851 0.930 . S
H839 C852 0.930 . S
H840 C856 0.959 . S
H841 C856 0.959 . S
H842 C856 0.961 . S
H843 C857 0.960 . S
H844 C857 0.961 . S
H845 C857 0.959 . S
H846 C860 0.929 . S
H847 C861 0.931 . S
H848 C863 0.930 . S
C849 H837 0.930 . S
C849 C850 1.399 . S
C849 C854 1.399 . S
C850 C849 1.399 . S
C850 C851 1.376 . S
C851 H838 0.930 . S
C851 C850 1.376 . S
C851 C852 1.388 . S
C852 H839 0.930 . S
C852 C851 1.388 . S
C852 C853 1.390 . S
C853 C852 1.390 . S
C853 C854 1.394 . S
C853 C859 1.465 . S
C854 C849 1.399 . S
C854 C853 1.394 . S
C854 C855 1.516 . S
C855 C854 1.516 . S
C855 C856 1.502 . S
C855 C857 1.561 . S
C855 C858 1.526 . S
C856 H840 0.959 . S
C856 H841 0.959 . S
C856 H842 0.961 . S
C856 C855 1.502 . S
C857 H843 0.960 . S
C857 H844 0.961 . S
C857 H845 0.959 . S
C857 C855 1.561 . S
C858 C855 1.526 . S
C858 C859 1.396 . S
C858 C863 1.390 . S
C859 C853 1.465 . S
C859 C858 1.396 . S
C859 C860 1.399 . S
C860 H846 0.929 . S
C860 C859 1.399 . S
C860 C861 1.385 . S
C861 H847 0.931 . S
C861 C860 1.385 . S
C861 C862 1.389 . S
C862 C861 1.389 . S
C862 C863 1.387 . S
C863 H848 0.930 . S
C863 C858 1.390 . S
C863 C862 1.387 . S
H864 C876 0.930 . S
H865 C878 0.930 . S
H866 C879 0.930 . S
H867 C883 0.959 . S
H868 C883 0.959 . S
H869 C883 0.961 . S
H870 C884 0.960 . S
H871 C884 0.961 . S
H872 C884 0.959 . S
H873 C887 0.929 . S
H874 C888 0.931 . S
H875 C890 0.930 . S
C876 H864 0.930 . S
C876 C877 1.399 1_565 S
C876 C881 1.399 . S
C877 C876 1.399 1_545 S
C877 C878 1.376 . S
C878 H865 0.930 . S
C878 C877 1.376 . S
C878 C879 1.388 . S
C879 H866 0.930 . S
C879 C878 1.388 . S
C879 C880 1.390 . S
C880 C879 1.390 . S
C880 C881 1.394 1_545 S
C880 C886 1.465 . S
C881 C876 1.399 . S
C881 C880 1.394 1_565 S
C881 C882 1.516 . S
C882 C881 1.516 . S
C882 C883 1.502 . S
C882 C884 1.561 . S
C882 C885 1.526 . S
C883 H867 0.959 . S
C883 H868 0.959 . S
C883 H869 0.961 . S
C883 C882 1.502 . S
C884 H870 0.960 . S
C884 H871 0.961 . S
C884 H872 0.959 . S
C884 C882 1.561 . S
C885 C882 1.526 . S
C885 C886 1.396 1_565 S
C885 C890 1.390 . S
C886 C880 1.465 . S
C886 C885 1.396 1_545 S
C886 C887 1.399 . S
C887 H873 0.929 . S
C887 C886 1.399 . S
C887 C888 1.385 . S
C888 H874 0.931 . S
C888 C887 1.385 . S
C888 C889 1.389 1_545 S
C889 C888 1.389 1_565 S
C889 C890 1.387 . S
C890 H875 0.930 . S
C890 C885 1.390 . S
C890 C889 1.387 . S
H891 C903 0.930 . S
H892 C905 0.930 . S
H893 C906 0.930 . S
H894 C910 0.959 . S
H895 C910 0.959 . S
H896 C910 0.961 . S
H897 C911 0.960 . S
H898 C911 0.961 . S
H899 C911 0.959 . S
H900 C914 0.929 . S
H901 C915 0.931 . S
H902 C917 0.930 . S
C903 H891 0.930 . S
C903 C904 1.399 . S
C903 C908 1.399 . S
C904 C903 1.399 . S
C904 C905 1.376 . S
C905 H892 0.930 . S
C905 C904 1.376 . S
C905 C906 1.388 . S
C906 H893 0.930 . S
C906 C905 1.388 . S
C906 C907 1.390 . S
C907 C906 1.390 . S
C907 C908 1.394 . S
C907 C913 1.465 . S
C908 C903 1.399 . S
C908 C907 1.394 . S
C908 C909 1.516 . S
C909 C908 1.516 . S
C909 C910 1.502 . S
C909 C911 1.561 . S
C909 C912 1.526 . S
C910 H894 0.959 . S
C910 H895 0.959 . S
C910 H896 0.961 . S
C910 C909 1.502 . S
C911 H897 0.960 . S
C911 H898 0.961 . S
C911 H899 0.959 . S
C911 C909 1.561 . S
C912 C909 1.526 . S
C912 C913 1.396 . S
C912 C917 1.390 . S
C913 C907 1.465 . S
C913 C912 1.396 . S
C913 C914 1.399 . S
C914 H900 0.929 . S
C914 C913 1.399 . S
C914 C915 1.385 . S
C915 H901 0.931 . S
C915 C914 1.385 . S
C915 C916 1.389 . S
C916 C915 1.389 . S
C916 C917 1.387 . S
C917 H902 0.930 . S
C917 C912 1.390 . S
C917 C916 1.387 . S
H918 C930 0.930 . S
H919 C932 0.930 . S
H920 C933 0.930 . S
H921 C937 0.959 . S
H922 C937 0.959 . S
H923 C937 0.961 . S
H924 C938 0.960 . S
H925 C938 0.961 . S
H926 C938 0.959 . S
H927 C941 0.929 . S
H928 C942 0.931 . S
H929 C944 0.930 . S
C930 H918 0.930 . S
C930 C931 1.399 . S
C930 C935 1.399 . S
C931 C930 1.399 . S
C931 C932 1.376 1_545 S
C932 H919 0.930 . S
C932 C931 1.376 1_565 S
C932 C933 1.388 . S
C933 H920 0.930 . S
C933 C932 1.388 . S
C933 C934 1.390 . S
C934 C933 1.390 . S
C934 C935 1.394 1_565 S
C934 C940 1.465 . S
C935 C930 1.399 . S
C935 C934 1.394 1_545 S
C935 C936 1.516 . S
C936 C935 1.516 . S
C936 C937 1.502 . S
C936 C938 1.561 . S
C936 C939 1.526 . S
C937 H921 0.959 . S
C937 H922 0.959 . S
C937 H923 0.961 . S
C937 C936 1.502 . S
C938 H924 0.960 . S
C938 H925 0.961 . S
C938 H926 0.959 . S
C938 C936 1.561 . S
C939 C936 1.526 . S
C939 C940 1.396 1_545 S
C939 C944 1.390 . S
C940 C934 1.465 . S
C940 C939 1.396 1_565 S
C940 C941 1.399 . S
C941 H927 0.929 . S
C941 C940 1.399 . S
C941 C942 1.385 . S
C942 H928 0.931 . S
C942 C941 1.385 . S
C942 C943 1.389 1_565 S
C943 C942 1.389 1_545 S
C943 C944 1.387 . S
C944 H929 0.930 . S
C944 C939 1.390 . S
C944 C943 1.387 . S
H945 C957 0.930 . S
H946 C959 0.930 . S
H947 C960 0.930 . S
H948 C964 0.959 . S
H949 C964 0.959 . S
H950 C964 0.961 . S
H951 C965 0.960 . S
H952 C965 0.961 . S
H953 C965 0.959 . S
H954 C968 0.929 . S
H955 C969 0.931 . S
H956 C971 0.930 . S
C957 H945 0.930 . S
C957 C958 1.399 . S
C957 C962 1.399 . S
C958 C957 1.399 . S
C958 C959 1.376 . S
C959 H946 0.930 . S
C959 C958 1.376 . S
C959 C960 1.388 . S
C960 H947 0.930 . S
C960 C959 1.388 . S
C960 C961 1.390 . S
C961 C960 1.390 . S
C961 C962 1.394 . S
C961 C967 1.465 . S
C962 C957 1.399 . S
C962 C961 1.394 . S
C962 C963 1.516 . S
C963 C962 1.516 . S
C963 C964 1.502 . S
C963 C965 1.561 . S
C963 C966 1.526 . S
C964 H948 0.959 . S
C964 H949 0.959 . S
C964 H950 0.961 . S
C964 C963 1.502 . S
C965 H951 0.960 . S
C965 H952 0.961 . S
C965 H953 0.959 . S
C965 C963 1.561 . S
C966 C963 1.526 . S
C966 C967 1.396 . S
C966 C971 1.390 . S
C967 C961 1.465 . S
C967 C966 1.396 . S
C967 C968 1.399 . S
C968 H954 0.929 . S
C968 C967 1.399 . S
C968 C969 1.385 . S
C969 H955 0.931 . S
C969 C968 1.385 . S
C969 C970 1.389 . S
C970 C969 1.389 . S
C970 C971 1.387 . S
C971 H956 0.930 . S
C971 C966 1.390 . S
C971 C970 1.387 . S
H972 C984 0.930 . S
H973 C986 0.930 . S
H974 C987 0.930 . S
H975 C991 0.959 . S
H976 C991 0.959 . S
H977 C991 0.961 . S
H978 C992 0.960 . S
H979 C992 0.961 . S
H980 C992 0.959 . S
H981 C995 0.929 . S
H982 C996 0.931 . S
H983 C998 0.930 . S
C984 H972 0.930 . S
C984 C985 1.399 1_565 S
C984 C989 1.399 . S
C985 C984 1.399 1_545 S
C985 C986 1.376 . S
C986 H973 0.930 . S
C986 C985 1.376 . S
C986 C987 1.388 . S
C987 H974 0.930 . S
C987 C986 1.388 . S
C987 C988 1.390 . S
C988 C987 1.390 . S
C988 C989 1.394 1_545 S
C988 C994 1.465 . S
C989 C984 1.399 . S
C989 C988 1.394 1_565 S
C989 C990 1.516 . S
C990 C989 1.516 . S
C990 C991 1.502 . S
C990 C992 1.561 . S
C990 C993 1.526 . S
C991 H975 0.959 . S
C991 H976 0.959 . S
C991 H977 0.961 . S
C991 C990 1.502 . S
C992 H978 0.960 . S
C992 H979 0.961 . S
C992 H980 0.959 . S
C992 C990 1.561 . S
C993 C990 1.526 . S
C993 C994 1.396 1_565 S
C993 C998 1.390 . S
C994 C988 1.465 . S
C994 C993 1.396 1_545 S
C994 C995 1.399 . S
C995 H981 0.929 . S
C995 C994 1.399 . S
C995 C996 1.385 . S
C996 H982 0.931 . S
C996 C995 1.385 . S
C996 C997 1.389 . S
C997 C996 1.389 . S
C997 C998 1.387 1_545 S
C998 H983 0.930 . S
C998 C993 1.390 . S
C998 C997 1.387 1_565 S
H999 C1011 0.930 . S
H1000 C1013 0.930 . S
H1001 C1014 0.930 . S
H1002 C1018 0.959 . S
H1003 C1018 0.959 . S
H1004 C1018 0.961 . S
H1005 C1019 0.960 . S
H1006 C1019 0.961 . S
H1007 C1019 0.959 . S
H1008 C1022 0.929 . S
H1009 C1023 0.931 . S
H1010 C1025 0.930 . S
C1011 H999 0.930 . S
C1011 C1012 1.399 . S
C1011 C1016 1.399 . S
C1012 C1011 1.399 . S
C1012 C1013 1.376 . S
C1013 H1000 0.930 . S
C1013 C1012 1.376 . S
C1013 C1014 1.388 . S
C1014 H1001 0.930 . S
C1014 C1013 1.388 . S
C1014 C1015 1.390 . S
C1015 C1014 1.390 . S
C1015 C1016 1.394 . S
C1015 C1021 1.465 . S
C1016 C1011 1.399 . S
C1016 C1015 1.394 . S
C1016 C1017 1.516 . S
C1017 C1016 1.516 . S
C1017 C1018 1.502 . S
C1017 C1019 1.561 . S
C1017 C1020 1.526 . S
C1018 H1002 0.959 . S
C1018 H1003 0.959 . S
C1018 H1004 0.961 . S
C1018 C1017 1.502 . S
C1019 H1005 0.960 . S
C1019 H1006 0.961 . S
C1019 H1007 0.959 . S
C1019 C1017 1.561 . S
C1020 C1017 1.526 . S
C1020 C1021 1.396 . S
C1020 C1025 1.390 . S
C1021 C1015 1.465 . S
C1021 C1020 1.396 . S
C1021 C1022 1.399 . S
C1022 H1008 0.929 . S
C1022 C1021 1.399 . S
C1022 C1023 1.385 . S
C1023 H1009 0.931 . S
C1023 C1022 1.385 . S
C1023 C1024 1.389 . S
C1024 C1023 1.389 . S
C1024 C1025 1.387 . S
C1025 H1010 0.930 . S
C1025 C1020 1.390 . S
C1025 C1024 1.387 . S
H1026 C1038 0.930 . S
H1027 C1040 0.930 . S
H1028 C1041 0.930 . S
H1029 C1045 0.959 . S
H1030 C1045 0.959 . S
H1031 C1045 0.961 . S
H1032 C1046 0.960 . S
H1033 C1046 0.961 . S
H1034 C1046 0.959 . S
H1035 C1049 0.929 . S
H1036 C1050 0.931 . S
H1037 C1052 0.930 . S
C1038 H1026 0.930 . S
C1038 C1039 1.399 1_565 S
C1038 C1043 1.399 . S
C1039 C1038 1.399 1_545 S
C1039 C1040 1.376 . S
C1040 H1027 0.930 . S
C1040 C1039 1.376 . S
C1040 C1041 1.388 . S
C1041 H1028 0.930 . S
C1041 C1040 1.388 . S
C1041 C1042 1.390 . S
C1042 C1041 1.390 . S
C1042 C1043 1.394 1_545 S
C1042 C1048 1.465 . S
C1043 C1038 1.399 . S
C1043 C1042 1.394 1_565 S
C1043 C1044 1.516 . S
C1044 C1043 1.516 . S
C1044 C1045 1.502 . S
C1044 C1046 1.561 . S
C1044 C1047 1.526 . S
C1045 H1029 0.959 . S
C1045 H1030 0.959 . S
C1045 H1031 0.961 . S
C1045 C1044 1.502 . S
C1046 H1032 0.960 . S
C1046 H1033 0.961 . S
C1046 H1034 0.959 . S
C1046 C1044 1.561 . S
C1047 C1044 1.526 . S
C1047 C1048 1.396 1_565 S
C1047 C1052 1.390 . S
C1048 C1042 1.465 . S
C1048 C1047 1.396 1_545 S
C1048 C1049 1.399 . S
C1049 H1035 0.929 . S
C1049 C1048 1.399 . S
C1049 C1050 1.385 . S
C1050 H1036 0.931 . S
C1050 C1049 1.385 . S
C1050 C1051 1.375 1_545 S
C1051 C1050 1.375 1_565 S
C1051 C1052 1.398 . S
C1052 H1037 0.930 . S
C1052 C1047 1.390 . S
C1052 C1051 1.398 . S
H1053 C1065 0.930 . S
H1054 C1067 0.930 . S
H1055 C1068 0.930 . S
H1056 C1072 0.959 . S
H1057 C1072 0.959 . S
H1058 C1072 0.961 . S
H1059 C1073 0.960 . S
H1060 C1073 0.961 . S
H1061 C1073 0.959 . S
H1062 C1076 0.929 . S
H1063 C1077 0.931 . S
H1064 C1079 0.930 . S
C1065 H1053 0.930 . S
C1065 C1066 1.399 . S
C1065 C1070 1.399 . S
C1066 C1065 1.399 . S
C1066 C1067 1.376 . S
C1067 H1054 0.930 . S
C1067 C1066 1.376 . S
C1067 C1068 1.388 . S
C1068 H1055 0.930 . S
C1068 C1067 1.388 . S
C1068 C1069 1.390 . S
C1069 C1068 1.390 . S
C1069 C1070 1.394 . S
C1069 C1075 1.465 . S
C1070 C1065 1.399 . S
C1070 C1069 1.394 . S
C1070 C1071 1.516 . S
C1071 C1070 1.516 . S
C1071 C1072 1.502 . S
C1071 C1073 1.561 . S
C1071 C1074 1.526 . S
C1072 H1056 0.959 . S
C1072 H1057 0.959 . S
C1072 H1058 0.961 . S
C1072 C1071 1.502 . S
C1073 H1059 0.960 . S
C1073 H1060 0.961 . S
C1073 H1061 0.959 . S
C1073 C1071 1.561 . S
C1074 C1071 1.526 . S
C1074 C1075 1.396 . S
C1074 C1079 1.390 . S
C1075 C1069 1.465 . S
C1075 C1074 1.396 . S
C1075 C1076 1.399 . S
C1076 H1062 0.929 . S
C1076 C1075 1.399 . S
C1076 C1077 1.385 . S
C1077 H1063 0.931 . S
C1077 C1076 1.385 . S
C1077 C1078 1.389 . S
C1078 C1077 1.389 . S
C1078 C1079 1.387 . S
C1079 H1064 0.930 . S
C1079 C1074 1.390 . S
C1079 C1078 1.387 . S
H1080 C1092 0.930 . S
H1081 C1094 0.930 . S
H1082 C1095 0.930 . S
H1083 C1099 0.959 . S
H1084 C1099 0.959 . S
H1085 C1099 0.961 . S
H1086 C1100 0.960 . S
H1087 C1100 0.961 . S
H1088 C1100 0.959 . S
H1089 C1103 0.929 . S
H1090 C1104 0.931 . S
H1091 C1106 0.930 . S
C1092 H1080 0.930 . S
C1092 C1093 1.399 . S
C1092 C1097 1.399 . S
C1093 C1092 1.399 . S
C1093 C1094 1.376 1_554 S
C1094 H1081 0.930 . S
C1094 C1093 1.376 1_556 S
C1094 C1095 1.388 . S
C1095 H1082 0.930 . S
C1095 C1094 1.388 . S
C1095 C1096 1.390 . S
C1096 C1095 1.390 . S
C1096 C1097 1.394 1_556 S
C1096 C1102 1.465 . S
C1097 C1092 1.399 . S
C1097 C1096 1.394 1_554 S
C1097 C1098 1.516 . S
C1098 C1097 1.516 . S
C1098 C1099 1.502 . S
C1098 C1100 1.561 . S
C1098 C1101 1.526 . S
C1099 H1083 0.959 . S
C1099 H1084 0.959 . S
C1099 H1085 0.961 . S
C1099 C1098 1.502 . S
C1100 H1086 0.960 . S
C1100 H1087 0.961 . S
C1100 H1088 0.959 . S
C1100 C1098 1.561 . S
C1101 C1098 1.526 . S
C1101 C1102 1.396 1_554 S
C1101 C1106 1.390 . S
C1102 C1096 1.465 . S
C1102 C1101 1.396 1_556 S
C1102 C1103 1.399 . S
C1103 H1089 0.929 . S
C1103 C1102 1.399 . S
C1103 C1104 1.385 . S
C1104 H1090 0.931 . S
C1104 C1103 1.385 . S
C1104 C1105 1.389 . S
C1105 C1104 1.389 . S
C1105 C1106 1.387 1_556 S
C1106 H1091 0.930 . S
C1106 C1101 1.390 . S
C1106 C1105 1.387 1_554 S
H1107 C1119 0.930 . S
H1108 C1121 0.930 . S
H1109 C1122 0.930 . S
H1110 C1126 0.959 . S
H1111 C1126 0.959 . S
H1112 C1126 0.961 . S
H1113 C1127 0.960 . S
H1114 C1127 0.961 . S
H1115 C1127 0.959 . S
H1116 C1130 0.929 . S
H1117 C1131 0.931 . S
H1118 C1133 0.930 . S
C1119 H1107 0.930 . S
C1119 C1120 1.380 1_554 S
C1119 C1124 1.399 . S
C1120 C1119 1.380 1_556 S
C1120 C1121 1.398 . S
C1121 H1108 0.930 . S
C1121 C1120 1.398 . S
C1121 C1122 1.388 . S
C1122 H1109 0.930 . S
C1122 C1121 1.388 . S
C1122 C1123 1.390 . S
C1123 C1122 1.390 . S
C1123 C1124 1.394 1_556 S
C1123 C1129 1.465 . S
C1124 C1119 1.399 . S
C1124 C1123 1.394 1_554 S
C1124 C1125 1.516 . S
C1125 C1124 1.516 . S
C1125 C1126 1.502 . S
C1125 C1127 1.561 . S
C1125 C1128 1.526 . S
C1126 H1110 0.959 . S
C1126 H1111 0.959 . S
C1126 H1112 0.961 . S
C1126 C1125 1.502 . S
C1127 H1113 0.960 . S
C1127 H1114 0.961 . S
C1127 H1115 0.959 . S
C1127 C1125 1.561 . S
C1128 C1125 1.526 . S
C1128 C1129 1.396 1_554 S
C1128 C1133 1.390 . S
C1129 C1123 1.465 . S
C1129 C1128 1.396 1_556 S
C1129 C1130 1.399 . S
C1130 H1116 0.929 . S
C1130 C1129 1.399 . S
C1130 C1131 1.385 . S
C1131 H1117 0.931 . S
C1131 C1130 1.385 . S
C1131 C1132 1.389 1_556 S
C1132 C1131 1.389 1_554 S
C1132 C1133 1.387 . S
C1133 H1118 0.930 . S
C1133 C1128 1.390 . S
C1133 C1132 1.387 . S
H1134 C1146 0.930 . S
H1135 C1148 0.930 . S
H1136 C1149 0.930 . S
H1137 C1153 0.959 . S
H1138 C1153 0.959 . S
H1139 C1153 0.961 . S
H1140 C1154 0.960 . S
H1141 C1154 0.961 . S
H1142 C1154 0.959 . S
H1143 C1157 0.929 . S
H1144 C1158 0.931 . S
H1145 C1160 0.930 . S
C1146 H1134 0.930 . S
C1146 C1147 1.399 . S
C1146 C1151 1.399 . S
C1147 C1146 1.399 . S
C1147 C1148 1.376 . S
C1148 H1135 0.930 . S
C1148 C1147 1.376 . S
C1148 C1149 1.388 . S
C1149 H1136 0.930 . S
C1149 C1148 1.388 . S
C1149 C1150 1.390 . S
C1150 C1149 1.390 . S
C1150 C1151 1.394 . S
C1150 C1156 1.465 . S
C1151 C1146 1.399 . S
C1151 C1150 1.394 . S
C1151 C1152 1.516 . S
C1152 C1151 1.516 . S
C1152 C1153 1.502 . S
C1152 C1154 1.561 . S
C1152 C1155 1.526 . S
C1153 H1137 0.959 . S
C1153 H1138 0.959 . S
C1153 H1139 0.961 . S
C1153 C1152 1.502 . S
C1154 H1140 0.960 . S
C1154 H1141 0.961 . S
C1154 H1142 0.959 . S
C1154 C1152 1.561 . S
C1155 C1152 1.526 . S
C1155 C1156 1.396 . S
C1155 C1160 1.390 . S
C1156 C1150 1.465 . S
C1156 C1155 1.396 . S
C1156 C1157 1.399 . S
C1157 H1143 0.929 . S
C1157 C1156 1.399 . S
C1157 C1158 1.385 . S
C1158 H1144 0.931 . S
C1158 C1157 1.385 . S
C1158 C1159 1.389 . S
C1159 C1158 1.389 . S
C1159 C1160 1.387 . S
C1160 H1145 0.930 . S
C1160 C1155 1.390 . S
C1160 C1159 1.387 . S
H1161 C1173 0.930 . S
H1162 C1175 0.930 . S
H1163 C1176 0.930 . S
H1164 C1180 0.959 . S
H1165 C1180 0.959 . S
H1166 C1180 0.961 . S
H1167 C1181 0.960 . S
H1168 C1181 0.961 . S
H1169 C1181 0.959 . S
H1170 C1184 0.929 . S
H1171 C1185 0.931 . S
H1172 C1187 0.930 . S
C1173 H1161 0.930 . S
C1173 C1174 1.399 . S
C1173 C1178 1.399 . S
C1174 C1173 1.399 . S
C1174 C1175 1.376 . S
C1175 H1162 0.930 . S
C1175 C1174 1.376 . S
C1175 C1176 1.388 . S
C1176 H1163 0.930 . S
C1176 C1175 1.388 . S
C1176 C1177 1.390 . S
C1177 C1176 1.390 . S
C1177 C1178 1.394 . S
C1177 C1183 1.465 . S
C1178 C1173 1.399 . S
C1178 C1177 1.394 . S
C1178 C1179 1.516 . S
C1179 C1178 1.516 . S
C1179 C1180 1.502 . S
C1179 C1181 1.561 . S
C1179 C1182 1.526 . S
C1180 H1164 0.959 . S
C1180 H1165 0.959 . S
C1180 H1166 0.961 . S
C1180 C1179 1.502 . S
C1181 H1167 0.960 . S
C1181 H1168 0.961 . S
C1181 H1169 0.959 . S
C1181 C1179 1.561 . S
C1182 C1179 1.526 . S
C1182 C1183 1.396 . S
C1182 C1187 1.390 . S
C1183 C1177 1.465 . S
C1183 C1182 1.396 . S
C1183 C1184 1.399 . S
C1184 H1170 0.929 . S
C1184 C1183 1.399 . S
C1184 C1185 1.385 . S
C1185 H1171 0.931 . S
C1185 C1184 1.385 . S
C1185 C1186 1.389 . S
C1186 C1185 1.389 . S
C1186 C1187 1.387 . S
C1187 H1172 0.930 . S
C1187 C1182 1.390 . S
C1187 C1186 1.387 . S
H1188 C1200 0.930 . S
H1189 C1202 0.930 . S
H1190 C1203 0.930 . S
H1191 C1207 0.959 . S
H1192 C1207 0.959 . S
H1193 C1207 0.961 . S
H1194 C1208 0.960 . S
H1195 C1208 0.961 . S
H1196 C1208 0.959 . S
H1197 C1211 0.929 . S
H1198 C1212 0.931 . S
H1199 C1214 0.930 . S
C1200 H1188 0.930 . S
C1200 C1201 1.399 . S
C1200 C1205 1.399 . S
C1201 C1200 1.399 . S
C1201 C1202 1.376 . S
C1202 H1189 0.930 . S
C1202 C1201 1.376 . S
C1202 C1203 1.388 . S
C1203 H1190 0.930 . S
C1203 C1202 1.388 . S
C1203 C1204 1.390 . S
C1204 C1203 1.390 . S
C1204 C1205 1.394 . S
C1204 C1210 1.465 . S
C1205 C1200 1.399 . S
C1205 C1204 1.394 . S
C1205 C1206 1.516 . S
C1206 C1205 1.516 . S
C1206 C1207 1.502 . S
C1206 C1208 1.561 . S
C1206 C1209 1.526 . S
C1207 H1191 0.959 . S
C1207 H1192 0.959 . S
C1207 H1193 0.961 . S
C1207 C1206 1.502 . S
C1208 H1194 0.960 . S
C1208 H1195 0.961 . S
C1208 H1196 0.959 . S
C1208 C1206 1.561 . S
C1209 C1206 1.526 . S
C1209 C1210 1.396 . S
C1209 C1214 1.390 . S
C1210 C1204 1.465 . S
C1210 C1209 1.396 . S
C1210 C1211 1.399 . S
C1211 H1197 0.929 . S
C1211 C1210 1.399 . S
C1211 C1212 1.385 . S
C1212 H1198 0.931 . S
C1212 C1211 1.385 . S
C1212 C1213 1.389 . S
C1213 C1212 1.389 . S
C1213 C1214 1.387 . S
C1214 H1199 0.930 . S
C1214 C1209 1.390 . S
C1214 C1213 1.387 . S
H1215 C1227 0.930 . S
H1216 C1229 0.930 . S
H1217 C1230 0.930 . S
H1218 C1234 0.959 . S
H1219 C1234 0.959 . S
H1220 C1234 0.961 . S
H1221 C1235 0.960 . S
H1222 C1235 0.961 . S
H1223 C1235 0.959 . S
H1224 C1238 0.929 . S
H1225 C1239 0.931 . S
H1226 C1241 0.930 . S
C1227 H1215 0.930 . S
C1227 C1228 1.399 . S
C1227 C1232 1.399 . S
C1228 C1227 1.399 . S
C1228 C1229 1.376 . S
C1229 H1216 0.930 . S
C1229 C1228 1.376 . S
C1229 C1230 1.388 . S
C1230 H1217 0.930 . S
C1230 C1229 1.388 . S
C1230 C1231 1.390 . S
C1231 C1230 1.390 . S
C1231 C1232 1.394 . S
C1231 C1237 1.465 . S
C1232 C1227 1.399 . S
C1232 C1231 1.394 . S
C1232 C1233 1.516 . S
C1233 C1232 1.516 . S
C1233 C1234 1.502 . S
C1233 C1235 1.561 . S
C1233 C1236 1.526 . S
C1234 H1218 0.959 . S
C1234 H1219 0.959 . S
C1234 H1220 0.961 . S
C1234 C1233 1.502 . S
C1235 H1221 0.960 . S
C1235 H1222 0.961 . S
C1235 H1223 0.959 . S
C1235 C1233 1.561 . S
C1236 C1233 1.526 . S
C1236 C1237 1.396 . S
C1236 C1241 1.390 . S
C1237 C1231 1.465 . S
C1237 C1236 1.396 . S
C1237 C1238 1.399 . S
C1238 H1224 0.929 . S
C1238 C1237 1.399 . S
C1238 C1239 1.385 . S
C1239 H1225 0.931 . S
C1239 C1238 1.385 . S
C1239 C1240 1.389 . S
C1240 C1239 1.389 . S
C1240 C1241 1.387 . S
C1241 H1226 0.930 . S
C1241 C1236 1.390 . S
C1241 C1240 1.387 . S
H1242 C1254 0.930 . S
H1243 C1256 0.930 . S
H1244 C1257 0.930 . S
H1245 C1261 0.959 . S
H1246 C1261 0.959 . S
H1247 C1261 0.961 . S
H1248 C1262 0.960 . S
H1249 C1262 0.961 . S
H1250 C1262 0.959 . S
H1251 C1265 0.929 . S
H1252 C1266 0.931 . S
H1253 C1268 0.930 . S
C1254 H1242 0.930 . S
C1254 C1255 1.399 . S
C1254 C1259 1.399 . S
C1255 C1254 1.399 . S
C1255 C1256 1.376 . S
C1256 H1243 0.930 . S
C1256 C1255 1.376 . S
C1256 C1257 1.388 . S
C1257 H1244 0.930 . S
C1257 C1256 1.388 . S
C1257 C1258 1.390 . S
C1258 C1257 1.390 . S
C1258 C1259 1.394 . S
C1258 C1264 1.465 . S
C1259 C1254 1.399 . S
C1259 C1258 1.394 . S
C1259 C1260 1.516 . S
C1260 C1259 1.516 . S
C1260 C1261 1.502 . S
C1260 C1262 1.561 . S
C1260 C1263 1.526 . S
C1261 H1245 0.959 . S
C1261 H1246 0.959 . S
C1261 H1247 0.961 . S
C1261 C1260 1.502 . S
C1262 H1248 0.960 . S
C1262 H1249 0.961 . S
C1262 H1250 0.959 . S
C1262 C1260 1.561 . S
C1263 C1260 1.526 . S
C1263 C1264 1.396 . S
C1263 C1268 1.390 . S
C1264 C1258 1.465 . S
C1264 C1263 1.396 . S
C1264 C1265 1.399 . S
C1265 H1251 0.929 . S
C1265 C1264 1.399 . S
C1265 C1266 1.385 . S
C1266 H1252 0.931 . S
C1266 C1265 1.385 . S
C1266 C1267 1.389 . S
C1267 C1266 1.389 . S
C1267 C1268 1.387 . S
C1268 H1253 0.930 . S
C1268 C1263 1.390 . S
C1268 C1267 1.387 . S
H1269 C1281 0.930 . S
H1270 C1283 0.930 . S
H1271 C1284 0.930 . S
H1272 C1288 0.959 . S
H1273 C1288 0.959 . S
H1274 C1288 0.961 . S
H1275 C1289 0.960 . S
H1276 C1289 0.961 . S
H1277 C1289 0.959 . S
H1278 C1292 0.929 . S
H1279 C1293 0.931 . S
H1280 C1295 0.930 . S
C1281 H1269 0.930 . S
C1281 C1282 1.399 . S
C1281 C1286 1.399 . S
C1282 C1281 1.399 . S
C1282 C1283 1.376 . S
C1283 H1270 0.930 . S
C1283 C1282 1.376 . S
C1283 C1284 1.388 . S
C1284 H1271 0.930 . S
C1284 C1283 1.388 . S
C1284 C1285 1.390 . S
C1285 C1284 1.390 . S
C1285 C1286 1.394 . S
C1285 C1291 1.465 . S
C1286 C1281 1.399 . S
C1286 C1285 1.394 . S
C1286 C1287 1.516 . S
C1287 C1286 1.516 . S
C1287 C1288 1.502 . S
C1287 C1289 1.561 . S
C1287 C1290 1.526 . S
C1288 H1272 0.959 . S
C1288 H1273 0.959 . S
C1288 H1274 0.961 . S
C1288 C1287 1.502 . S
C1289 H1275 0.960 . S
C1289 H1276 0.961 . S
C1289 H1277 0.959 . S
C1289 C1287 1.561 . S
C1290 C1287 1.526 . S
C1290 C1291 1.396 . S
C1290 C1295 1.390 . S
C1291 C1285 1.465 . S
C1291 C1290 1.396 . S
C1291 C1292 1.399 . S
C1292 H1278 0.929 . S
C1292 C1291 1.399 . S
C1292 C1293 1.385 . S
C1293 H1279 0.931 . S
C1293 C1292 1.385 . S
C1293 C1294 1.389 . S
C1294 C1293 1.389 . S
C1294 C1295 1.387 . S
C1295 H1280 0.930 . S
C1295 C1290 1.390 . S
C1295 C1294 1.387 . S
H1296 C1308 0.930 . S
H1297 C1310 0.930 . S
H1298 C1311 0.930 . S
H1299 C1315 0.959 . S
H1300 C1315 0.959 . S
H1301 C1315 0.961 . S
H1302 C1316 0.960 . S
H1303 C1316 0.961 . S
H1304 C1316 0.959 1_655 S
H1305 C1319 0.929 . S
H1306 C1320 0.931 1_654 S
H1307 C1322 0.930 . S
C1308 H1296 0.930 . S
C1308 C1309 1.399 . S
C1308 C1313 1.399 . S
C1309 C1308 1.399 . S
C1309 C1310 1.376 1_455 S
C1310 H1297 0.930 . S
C1310 C1309 1.376 1_655 S
C1310 C1311 1.388 . S
C1311 H1298 0.930 . S
C1311 C1310 1.388 . S
C1311 C1312 1.390 1_655 S
C1312 C1311 1.390 1_455 S
C1312 C1313 1.394 . S
C1312 C1318 1.465 . S
C1313 C1308 1.399 . S
C1313 C1312 1.394 . S
C1313 C1314 1.516 . S
C1314 C1313 1.516 . S
C1314 C1315 1.502 . S
C1314 C1316 1.561 . S
C1314 C1317 1.526 . S
C1315 H1299 0.959 . S
C1315 H1300 0.959 . S
C1315 H1301 0.961 . S
C1315 C1314 1.502 . S
C1316 H1302 0.960 . S
C1316 H1303 0.961 . S
C1316 H1304 0.959 1_455 S
C1316 C1314 1.561 . S
C1317 C1314 1.526 . S
C1317 C1318 1.396 . S
C1317 C1322 1.390 . S
C1318 C1312 1.465 . S
C1318 C1317 1.396 . S
C1318 C1319 1.399 1_455 S
C1319 H1305 0.929 . S
C1319 C1318 1.399 1_655 S
C1319 C1320 1.385 1_655 S
C1320 H1306 0.931 1_456 S
C1320 C1319 1.385 1_455 S
C1320 C1321 1.389 . S
C1321 C1320 1.389 . S
C1321 C1322 1.387 . S
C1322 H1307 0.930 . S
C1322 C1317 1.390 . S
C1322 C1321 1.387 . S
H1323 C1335 0.930 . S
H1324 C1337 0.930 . S
H1325 C1338 0.930 . S
H1326 C1342 0.959 . S
H1327 C1342 0.959 . S
H1328 C1342 0.961 . S
H1329 C1343 0.960 . S
H1330 C1343 0.961 . S
H1331 C1343 0.959 . S
H1332 C1346 0.929 . S
H1333 C1347 0.931 . S
H1334 C1349 0.930 . S
C1335 H1323 0.930 . S
C1335 C1336 1.399 . S
C1335 C1340 1.399 . S
C1336 C1335 1.399 . S
C1336 C1337 1.376 . S
C1337 H1324 0.930 . S
C1337 C1336 1.376 . S
C1337 C1338 1.388 . S
C1338 H1325 0.930 . S
C1338 C1337 1.388 . S
C1338 C1339 1.390 . S
C1339 C1338 1.390 . S
C1339 C1340 1.394 . S
C1339 C1345 1.465 . S
C1340 C1335 1.399 . S
C1340 C1339 1.394 . S
C1340 C1341 1.516 . S
C1341 C1340 1.516 . S
C1341 C1342 1.502 . S
C1341 C1343 1.561 . S
C1341 C1344 1.526 . S
C1342 H1326 0.959 . S
C1342 H1327 0.959 . S
C1342 H1328 0.961 . S
C1342 C1341 1.502 . S
C1343 H1329 0.960 . S
C1343 H1330 0.961 . S
C1343 H1331 0.959 . S
C1343 C1341 1.561 . S
C1344 C1341 1.526 . S
C1344 C1345 1.396 . S
C1344 C1349 1.390 . S
C1345 C1339 1.465 . S
C1345 C1344 1.396 . S
C1345 C1346 1.399 . S
C1346 H1332 0.929 . S
C1346 C1345 1.399 . S
C1346 C1347 1.385 . S
C1347 H1333 0.931 . S
C1347 C1346 1.385 . S
C1347 C1348 1.389 . S
C1348 C1347 1.389 . S
C1348 C1349 1.387 . S
C1349 H1334 0.930 . S
C1349 C1344 1.390 . S
C1349 C1348 1.387 . S
H1350 C1362 0.930 . S
H1351 C1364 0.930 . S
H1352 C1365 0.930 . S
H1353 C1369 0.959 . S
H1354 C1369 0.959 . S
H1355 C1369 0.961 . S
H1356 C1370 0.960 . S
H1357 C1370 0.961 . S
H1358 C1370 0.959 . S
H1359 C1373 0.929 . S
H1360 C1374 0.931 . S
H1361 C1376 0.930 . S
C1362 H1350 0.930 . S
C1362 C1363 1.399 . S
C1362 C1367 1.399 . S
C1363 C1362 1.399 . S
C1363 C1364 1.376 . S
C1364 H1351 0.930 . S
C1364 C1363 1.376 . S
C1364 C1365 1.388 . S
C1365 H1352 0.930 . S
C1365 C1364 1.388 . S
C1365 C1366 1.390 . S
C1366 C1365 1.390 . S
C1366 C1367 1.394 . S
C1366 C1372 1.465 . S
C1367 C1362 1.399 . S
C1367 C1366 1.394 . S
C1367 C1368 1.516 . S
C1368 C1367 1.516 . S
C1368 C1369 1.502 . S
C1368 C1370 1.561 . S
C1368 C1371 1.526 . S
C1369 H1353 0.959 . S
C1369 H1354 0.959 . S
C1369 H1355 0.961 . S
C1369 C1368 1.502 . S
C1370 H1356 0.960 . S
C1370 H1357 0.961 . S
C1370 H1358 0.959 . S
C1370 C1368 1.561 . S
C1371 C1368 1.526 . S
C1371 C1372 1.396 . S
C1371 C1376 1.390 . S
C1372 C1366 1.465 . S
C1372 C1371 1.396 . S
C1372 C1373 1.399 . S
C1373 H1359 0.929 . S
C1373 C1372 1.399 . S
C1373 C1374 1.385 . S
C1374 H1360 0.931 . S
C1374 C1373 1.385 . S
C1374 C1375 1.389 . S
C1375 C1374 1.389 . S
C1375 C1376 1.387 . S
C1376 H1361 0.930 . S
C1376 C1371 1.390 . S
C1376 C1375 1.387 . S
H1377 C1389 0.930 . S
H1378 C1391 0.930 . S
H1379 C1392 0.930 . S
H1380 C1396 0.959 . S
H1381 C1396 0.959 . S
H1382 C1396 0.961 . S
H1383 C1397 0.960 . S
H1384 C1397 0.961 . S
H1385 C1397 0.959 . S
H1386 C1400 0.929 . S
H1387 C1401 0.931 . S
H1388 C1403 0.930 . S
C1389 H1377 0.930 . S
C1389 C1390 1.399 . S
C1389 C1394 1.399 . S
C1390 C1389 1.399 . S
C1390 C1391 1.376 . S
C1391 H1378 0.930 . S
C1391 C1390 1.376 . S
C1391 C1392 1.388 . S
C1392 H1379 0.930 . S
C1392 C1391 1.388 . S
C1392 C1393 1.390 . S
C1393 C1392 1.390 . S
C1393 C1394 1.394 . S
C1393 C1399 1.465 . S
C1394 C1389 1.399 . S
C1394 C1393 1.394 . S
C1394 C1395 1.516 . S
C1395 C1394 1.516 . S
C1395 C1396 1.502 . S
C1395 C1397 1.561 . S
C1395 C1398 1.526 . S
C1396 H1380 0.959 . S
C1396 H1381 0.959 . S
C1396 H1382 0.961 . S
C1396 C1395 1.502 . S
C1397 H1383 0.960 . S
C1397 H1384 0.961 . S
C1397 H1385 0.959 . S
C1397 C1395 1.561 . S
C1398 C1395 1.526 . S
C1398 C1399 1.396 . S
C1398 C1403 1.390 . S
C1399 C1393 1.465 . S
C1399 C1398 1.396 . S
C1399 C1400 1.399 . S
C1400 H1386 0.929 . S
C1400 C1399 1.399 . S
C1400 C1401 1.385 . S
C1401 H1387 0.931 . S
C1401 C1400 1.385 . S
C1401 C1402 1.389 . S
C1402 C1401 1.389 . S
C1402 C1403 1.387 . S
C1403 H1388 0.930 . S
C1403 C1398 1.390 . S
C1403 C1402 1.387 . S
H1404 C1416 0.930 . S
H1405 C1418 0.930 . S
H1406 C1419 0.930 . S
H1407 C1423 0.959 . S
H1408 C1423 0.959 . S
H1409 C1423 0.961 . S
H1410 C1424 0.960 . S
H1411 C1424 0.961 . S
H1412 C1424 0.959 . S
H1413 C1427 0.929 . S
H1414 C1428 0.931 . S
H1415 C1430 0.930 . S
C1416 H1404 0.930 . S
C1416 C1417 1.399 . S
C1416 C1421 1.399 . S
C1417 C1416 1.399 . S
C1417 C1418 1.376 . S
C1418 H1405 0.930 . S
C1418 C1417 1.376 . S
C1418 C1419 1.388 . S
C1419 H1406 0.930 . S
C1419 C1418 1.388 . S
C1419 C1420 1.390 . S
C1420 C1419 1.390 . S
C1420 C1421 1.394 . S
C1420 C1426 1.465 . S
C1421 C1416 1.399 . S
C1421 C1420 1.394 . S
C1421 C1422 1.516 . S
C1422 C1421 1.516 . S
C1422 C1423 1.502 . S
C1422 C1424 1.561 1_455 S
C1422 C1425 1.526 . S
C1423 H1407 0.959 . S
C1423 H1408 0.959 . S
C1423 H1409 0.961 . S
C1423 C1422 1.502 . S
C1424 H1410 0.960 . S
C1424 H1411 0.961 . S
C1424 H1412 0.959 . S
C1424 C1422 1.561 1_655 S
C1425 C1422 1.526 . S
C1425 C1426 1.396 . S
C1425 C1430 1.390 . S
C1426 C1420 1.465 . S
C1426 C1425 1.396 . S
C1426 C1427 1.399 . S
C1427 H1413 0.929 . S
C1427 C1426 1.399 . S
C1427 C1428 1.385 . S
C1428 H1414 0.931 . S
C1428 C1427 1.385 . S
C1428 C1429 1.389 . S
C1429 C1428 1.389 . S
C1429 C1430 1.387 . S
C1430 H1415 0.930 . S
C1430 C1425 1.390 . S
C1430 C1429 1.387 . S
H1431 C1443 0.930 . S
H1432 C1445 0.930 . S
H1433 C1446 0.930 . S
H1434 C1450 0.959 . S
H1435 C1450 0.959 . S
H1436 C1450 0.961 . S
H1437 C1451 0.960 . S
H1438 C1451 0.961 . S
H1439 C1451 0.959 . S
H1440 C1454 0.929 . S
H1441 C1455 0.931 . S
H1442 C1457 0.930 . S
C1443 H1431 0.930 . S
C1443 C1444 1.399 . S
C1443 C1448 1.399 . S
C1444 C1443 1.399 . S
C1444 C1445 1.376 . S
C1445 H1432 0.930 . S
C1445 C1444 1.376 . S
C1445 C1446 1.388 . S
C1446 H1433 0.930 . S
C1446 C1445 1.388 . S
C1446 C1447 1.390 . S
C1447 C1446 1.390 . S
C1447 C1448 1.394 . S
C1447 C1453 1.465 . S
C1448 C1443 1.399 . S
C1448 C1447 1.394 . S
C1448 C1449 1.516 . S
C1449 C1448 1.516 . S
C1449 C1450 1.502 . S
C1449 C1451 1.561 . S
C1449 C1452 1.526 . S
C1450 H1434 0.959 . S
C1450 H1435 0.959 . S
C1450 H1436 0.961 . S
C1450 C1449 1.502 . S
C1451 H1437 0.960 . S
C1451 H1438 0.961 . S
C1451 H1439 0.959 . S
C1451 C1449 1.561 . S
C1452 C1449 1.526 . S
C1452 C1453 1.396 . S
C1452 C1457 1.390 . S
C1453 C1447 1.465 . S
C1453 C1452 1.396 . S
C1453 C1454 1.399 . S
C1454 H1440 0.929 . S
C1454 C1453 1.399 . S
C1454 C1455 1.385 . S
C1455 H1441 0.931 . S
C1455 C1454 1.385 . S
C1455 C1456 1.389 . S
C1456 C1455 1.389 . S
C1456 C1457 1.387 . S
C1457 H1442 0.930 . S
C1457 C1452 1.390 . S
C1457 C1456 1.387 . S
H1458 C1470 0.930 . S
H1459 C1472 0.930 . S
H1460 C1473 0.930 . S
H1461 C1477 0.959 . S
H1462 C1477 0.959 . S
H1463 C1477 0.961 . S
H1464 C1478 0.960 . S
H1465 C1478 0.936 1_556 S
H1466 C1478 0.959 . S
H1467 C1481 0.929 . S
H1468 C1482 0.931 . S
H1469 C1484 0.930 . S
C1470 H1458 0.930 . S
C1470 C1471 1.399 . S
C1470 C1475 1.399 . S
C1471 C1470 1.399 . S
C1471 C1472 1.376 . S
C1472 H1459 0.930 . S
C1472 C1471 1.376 . S
C1472 C1473 1.388 . S
C1473 H1460 0.930 . S
C1473 C1472 1.388 . S
C1473 C1474 1.390 . S
C1474 C1473 1.390 . S
C1474 C1475 1.394 . S
C1474 C1480 1.465 . S
C1475 C1470 1.399 . S
C1475 C1474 1.394 . S
C1475 C1476 1.516 . S
C1476 C1475 1.516 . S
C1476 C1477 1.502 . S
C1476 C1478 1.561 . S
C1476 C1479 1.526 . S
C1477 H1461 0.959 . S
C1477 H1462 0.959 . S
C1477 H1463 0.961 . S
C1477 C1476 1.502 . S
C1478 H1464 0.960 . S
C1478 H1465 0.936 1_554 S
C1478 H1466 0.959 . S
C1478 C1476 1.561 . S
C1479 C1476 1.526 . S
C1479 C1480 1.396 . S
C1479 C1484 1.390 . S
C1480 C1474 1.465 . S
C1480 C1479 1.396 . S
C1480 C1481 1.399 . S
C1481 H1467 0.929 . S
C1481 C1480 1.399 . S
C1481 C1482 1.385 . S
C1482 H1468 0.931 . S
C1482 C1481 1.385 . S
C1482 C1483 1.389 . S
C1483 C1482 1.389 . S
C1483 C1484 1.387 . S
C1484 H1469 0.930 . S
C1484 C1479 1.390 . S
C1484 C1483 1.387 . S
H1485 C1497 0.930 . S
H1486 C1499 0.930 . S
H1487 C1500 0.930 . S
H1488 C1504 0.959 . S
H1489 C1504 0.959 . S
H1490 C1504 0.961 . S
H1491 C1505 0.960 . S
H1492 C1505 0.961 . S
H1493 C1505 0.959 . S
H1494 C1508 0.929 . S
H1495 C1509 0.931 . S
H1496 C1511 0.930 . S
C1497 H1485 0.930 . S
C1497 C1498 1.399 . S
C1497 C1502 1.399 . S
C1498 C1497 1.399 . S
C1498 C1499 1.376 . S
C1499 H1486 0.930 . S
C1499 C1498 1.376 . S
C1499 C1500 1.388 . S
C1500 H1487 0.930 . S
C1500 C1499 1.388 . S
C1500 C1501 1.390 . S
C1501 C1500 1.390 . S
C1501 C1502 1.394 . S
C1501 C1507 1.465 . S
C1502 C1497 1.399 . S
C1502 C1501 1.394 . S
C1502 C1503 1.516 . S
C1503 C1502 1.516 . S
C1503 C1504 1.502 . S
C1503 C1505 1.561 . S
C1503 C1506 1.526 . S
C1504 H1488 0.959 . S
C1504 H1489 0.959 . S
C1504 H1490 0.961 . S
C1504 C1503 1.502 . S
C1505 H1491 0.960 . S
C1505 H1492 0.961 . S
C1505 H1493 0.959 . S
C1505 C1503 1.561 . S
C1506 C1503 1.526 . S
C1506 C1507 1.396 . S
C1506 C1511 1.390 . S
C1507 C1501 1.465 . S
C1507 C1506 1.396 . S
C1507 C1508 1.399 . S
C1508 H1494 0.929 . S
C1508 C1507 1.399 . S
C1508 C1509 1.385 . S
C1509 H1495 0.931 . S
C1509 C1508 1.385 . S
C1509 C1510 1.389 . S
C1510 C1509 1.389 . S
C1510 C1511 1.387 . S
C1511 H1496 0.930 . S
C1511 C1506 1.390 . S
C1511 C1510 1.387 . S
H1512 C1524 0.930 . S
H1513 C1526 0.930 . S
H1514 C1527 0.930 . S
H1515 C1531 0.959 . S
H1516 C1531 0.959 . S
H1517 C1531 0.961 . S
H1518 C1532 0.960 . S
H1519 C1532 0.961 . S
H1520 C1532 0.959 . S
H1521 C1535 0.929 . S
H1522 C1536 0.931 . S
H1523 C1538 0.930 . S
C1524 H1512 0.930 . S
C1524 C1525 1.399 1_565 S
C1524 C1529 1.399 . S
C1525 C1524 1.399 1_545 S
C1525 C1526 1.376 . S
C1526 H1513 0.930 . S
C1526 C1525 1.376 . S
C1526 C1527 1.388 . S
C1527 H1514 0.930 . S
C1527 C1526 1.388 . S
C1527 C1528 1.390 . S
C1528 C1527 1.390 . S
C1528 C1529 1.394 1_545 S
C1528 C1534 1.465 . S
C1529 C1524 1.399 . S
C1529 C1528 1.394 1_565 S
C1529 C1530 1.516 . S
C1530 C1529 1.516 . S
C1530 C1531 1.502 . S
C1530 C1532 1.561 . S
C1530 C1533 1.526 . S
C1531 H1515 0.959 . S
C1531 H1516 0.959 . S
C1531 H1517 0.961 . S
C1531 C1530 1.502 . S
C1532 H1518 0.960 . S
C1532 H1519 0.961 . S
C1532 H1520 0.959 . S
C1532 C1530 1.561 . S
C1533 C1530 1.526 . S
C1533 C1534 1.396 1_565 S
C1533 C1538 1.390 . S
C1534 C1528 1.465 . S
C1534 C1533 1.396 1_545 S
C1534 C1535 1.399 . S
C1535 H1521 0.929 . S
C1535 C1534 1.399 . S
C1535 C1536 1.385 . S
C1536 H1522 0.931 . S
C1536 C1535 1.385 . S
C1536 C1537 1.389 . S
C1537 C1536 1.389 . S
C1537 C1538 1.387 1_545 S
C1538 H1523 0.930 . S
C1538 C1533 1.390 . S
C1538 C1537 1.387 1_565 S
H1539 C1551 0.930 . S
H1540 C1553 0.930 . S
H1541 C1554 0.930 . S
H1542 C1558 0.959 . S
H1543 C1558 0.959 . S
H1544 C1558 0.961 . S
H1545 C1559 0.960 . S
H1546 C1559 0.961 . S
H1547 C1559 0.959 . S
H1548 C1562 0.929 . S
H1549 C1563 0.931 . S
H1550 C1565 0.930 . S
C1551 H1539 0.930 . S
C1551 C1552 1.399 . S
C1551 C1556 1.399 . S
C1552 C1551 1.399 . S
C1552 C1553 1.376 . S
C1553 H1540 0.930 . S
C1553 C1552 1.376 . S
C1553 C1554 1.388 . S
C1554 H1541 0.930 . S
C1554 C1553 1.388 . S
C1554 C1555 1.390 . S
C1555 C1554 1.390 . S
C1555 C1556 1.394 . S
C1555 C1561 1.465 . S
C1556 C1551 1.399 . S
C1556 C1555 1.394 . S
C1556 C1557 1.516 . S
C1557 C1556 1.516 . S
C1557 C1558 1.502 . S
C1557 C1559 1.561 . S
C1557 C1560 1.526 . S
C1558 H1542 0.959 . S
C1558 H1543 0.959 . S
C1558 H1544 0.961 . S
C1558 C1557 1.502 . S
C1559 H1545 0.960 . S
C1559 H1546 0.961 . S
C1559 H1547 0.959 . S
C1559 C1557 1.561 . S
C1560 C1557 1.526 . S
C1560 C1561 1.396 . S
C1560 C1565 1.390 . S
C1561 C1555 1.465 . S
C1561 C1560 1.396 . S
C1561 C1562 1.399 . S
C1562 H1548 0.929 . S
C1562 C1561 1.399 . S
C1562 C1563 1.385 . S
C1563 H1549 0.931 . S
C1563 C1562 1.385 . S
C1563 C1564 1.389 . S
C1564 C1563 1.389 . S
C1564 C1565 1.387 . S
C1565 H1550 0.930 . S
C1565 C1560 1.390 . S
C1565 C1564 1.387 . S
H1566 C1578 0.930 . S
H1567 C1580 0.930 . S
H1568 C1581 0.930 . S
H1569 C1585 0.959 . S
H1570 C1585 0.959 . S
H1571 C1585 0.961 . S
H1572 C1586 0.960 . S
H1573 C1586 0.961 . S
H1574 C1586 0.959 . S
H1575 C1589 0.929 . S
H1576 C1590 0.931 . S
H1577 C1592 0.930 . S
C1578 H1566 0.930 . S
C1578 C1579 1.399 1_565 S
C1578 C1583 1.399 . S
C1579 C1578 1.399 1_545 S
C1579 C1580 1.376 . S
C1580 H1567 0.930 . S
C1580 C1579 1.376 . S
C1580 C1581 1.388 . S
C1581 H1568 0.930 . S
C1581 C1580 1.388 . S
C1581 C1582 1.390 . S
C1582 C1581 1.390 . S
C1582 C1583 1.394 1_545 S
C1582 C1588 1.465 . S
C1583 C1578 1.399 . S
C1583 C1582 1.394 1_565 S
C1583 C1584 1.516 . S
C1584 C1583 1.516 . S
C1584 C1585 1.502 . S
C1584 C1586 1.561 . S
C1584 C1587 1.526 . S
C1585 H1569 0.959 . S
C1585 H1570 0.959 . S
C1585 H1571 0.961 . S
C1585 C1584 1.502 . S
C1586 H1572 0.960 . S
C1586 H1573 0.961 . S
C1586 H1574 0.959 . S
C1586 C1584 1.561 . S
C1587 C1584 1.526 . S
C1587 C1588 1.396 1_565 S
C1587 C1592 1.390 . S
C1588 C1582 1.465 . S
C1588 C1587 1.396 1_545 S
C1588 C1589 1.399 . S
C1589 H1575 0.929 . S
C1589 C1588 1.399 . S
C1589 C1590 1.385 . S
C1590 H1576 0.931 . S
C1590 C1589 1.385 . S
C1590 C1591 1.352 1_545 S
C1591 C1590 1.352 1_565 S
C1591 C1592 1.416 . S
C1592 H1577 0.930 . S
C1592 C1587 1.390 . S
C1592 C1591 1.416 . S
H1593 C1605 0.930 . S
H1594 C1607 0.930 . S
H1595 C1608 0.930 . S
H1596 C1612 0.959 . S
H1597 C1612 0.959 . S
H1598 C1612 0.961 . S
H1599 C1613 0.960 . S
H1600 C1613 0.961 . S
H1601 C1613 0.959 . S
H1602 C1616 0.929 . S
H1603 C1617 0.931 . S
H1604 C1619 0.930 . S
C1605 H1593 0.930 . S
C1605 C1606 1.399 . S
C1605 C1610 1.399 . S
C1606 C1605 1.399 . S
C1606 C1607 1.376 . S
C1607 H1594 0.930 . S
C1607 C1606 1.376 . S
C1607 C1608 1.388 . S
C1608 H1595 0.930 . S
C1608 C1607 1.388 . S
C1608 C1609 1.390 . S
C1609 C1608 1.390 . S
C1609 C1610 1.394 . S
C1609 C1615 1.465 . S
C1610 C1605 1.399 . S
C1610 C1609 1.394 . S
C1610 C1611 1.516 . S
C1611 C1610 1.516 . S
C1611 C1612 1.502 . S
C1611 C1613 1.561 . S
C1611 C1614 1.526 . S
C1612 H1596 0.959 . S
C1612 H1597 0.959 . S
C1612 H1598 0.961 . S
C1612 C1611 1.502 . S
C1613 H1599 0.960 . S
C1613 H1600 0.961 . S
C1613 H1601 0.959 . S
C1613 C1611 1.561 . S
C1614 C1611 1.526 . S
C1614 C1615 1.396 . S
C1614 C1619 1.390 . S
C1615 C1609 1.465 . S
C1615 C1614 1.396 . S
C1615 C1616 1.399 . S
C1616 H1602 0.929 . S
C1616 C1615 1.399 . S
C1616 C1617 1.385 . S
C1617 H1603 0.931 . S
C1617 C1616 1.385 . S
C1617 C1618 1.389 . S
C1618 C1617 1.389 . S
C1618 C1619 1.387 . S
C1619 H1604 0.930 . S
C1619 C1614 1.390 . S
C1619 C1618 1.387 . S
H1620 C1632 0.930 . S
H1621 C1634 0.930 . S
H1622 C1635 0.930 . S
H1623 C1639 0.959 . S
H1624 C1639 0.959 . S
H1625 C1639 0.961 . S
H1626 C1640 0.960 . S
H1627 C1640 0.961 . S
H1628 C1640 0.959 . S
H1629 C1643 0.929 . S
H1630 C1644 0.931 . S
H1631 C1646 0.930 . S
C1632 H1620 0.930 . S
C1632 C1633 1.399 1_545 S
C1632 C1637 1.399 . S
C1633 C1632 1.399 1_565 S
C1633 C1634 1.376 . S
C1634 H1621 0.930 . S
C1634 C1633 1.376 . S
C1634 C1635 1.388 . S
C1635 H1622 0.930 . S
C1635 C1634 1.388 . S
C1635 C1636 1.390 . S
C1636 C1635 1.390 . S
C1636 C1637 1.394 1_565 S
C1636 C1642 1.465 . S
C1637 C1632 1.399 . S
C1637 C1636 1.394 1_545 S
C1637 C1638 1.516 . S
C1638 C1637 1.516 . S
C1638 C1639 1.502 . S
C1638 C1640 1.561 . S
C1638 C1641 1.526 . S
C1639 H1623 0.959 . S
C1639 H1624 0.959 . S
C1639 H1625 0.961 . S
C1639 C1638 1.502 . S
C1640 H1626 0.960 . S
C1640 H1627 0.961 . S
C1640 H1628 0.959 . S
C1640 C1638 1.561 . S
C1641 C1638 1.526 . S
C1641 C1642 1.396 1_545 S
C1641 C1646 1.390 . S
C1642 C1636 1.465 . S
C1642 C1641 1.396 1_565 S
C1642 C1643 1.399 . S
C1643 H1629 0.929 . S
C1643 C1642 1.399 . S
C1643 C1644 1.385 . S
C1644 H1630 0.931 . S
C1644 C1643 1.385 . S
C1644 C1645 1.389 . S
C1645 C1644 1.389 . S
C1645 C1646 1.387 1_565 S
C1646 H1631 0.930 . S
C1646 C1641 1.390 . S
C1646 C1645 1.387 1_545 S
H1647 C1659 0.930 . S
H1648 C1661 0.930 . S
H1649 C1662 0.930 . S
H1650 C1666 0.959 . S
H1651 C1666 0.959 . S
H1652 C1666 0.961 . S
H1653 C1667 0.960 . S
H1654 C1667 0.961 . S
H1655 C1667 0.959 . S
H1656 C1670 0.929 . S
H1657 C1671 0.931 . S
H1658 C1673 0.930 . S
C1659 H1647 0.930 . S
C1659 C1660 1.399 . S
C1659 C1664 1.399 . S
C1660 C1659 1.399 . S
C1660 C1661 1.376 . S
C1661 H1648 0.930 . S
C1661 C1660 1.376 . S
C1661 C1662 1.388 . S
C1662 H1649 0.930 . S
C1662 C1661 1.388 . S
C1662 C1663 1.390 . S
C1663 C1662 1.390 . S
C1663 C1664 1.394 . S
C1663 C1669 1.465 . S
C1664 C1659 1.399 . S
C1664 C1663 1.394 . S
C1664 C1665 1.516 . S
C1665 C1664 1.516 . S
C1665 C1666 1.502 . S
C1665 C1667 1.561 . S
C1665 C1668 1.526 . S
C1666 H1650 0.959 . S
C1666 H1651 0.959 . S
C1666 H1652 0.961 . S
C1666 C1665 1.502 . S
C1667 H1653 0.960 . S
C1667 H1654 0.961 . S
C1667 H1655 0.959 . S
C1667 C1665 1.561 . S
C1668 C1665 1.526 . S
C1668 C1669 1.396 . S
C1668 C1673 1.390 . S
C1669 C1663 1.465 . S
C1669 C1668 1.396 . S
C1669 C1670 1.399 . S
C1670 H1656 0.929 . S
C1670 C1669 1.399 . S
C1670 C1671 1.385 . S
C1671 H1657 0.931 . S
C1671 C1670 1.385 . S
C1671 C1672 1.389 . S
C1672 C1671 1.389 . S
C1672 C1673 1.387 . S
C1673 H1658 0.930 . S
C1673 C1668 1.390 . S
C1673 C1672 1.387 . S
H1674 C1686 0.930 . S
H1675 C1688 0.930 . S
H1676 C1689 0.930 . S
H1677 C1693 0.959 . S
H1678 C1693 0.959 . S
H1679 C1693 0.961 . S
H1680 C1694 0.960 . S
H1681 C1694 0.961 . S
H1682 C1694 0.959 . S
H1683 C1697 0.929 . S
H1684 C1698 0.931 . S
H1685 C1700 0.930 . S
C1686 H1674 0.930 . S
C1686 C1687 1.399 . S
C1686 C1691 1.399 . S
C1687 C1686 1.399 . S
C1687 C1688 1.376 1_545 S
C1688 H1675 0.930 . S
C1688 C1687 1.376 1_565 S
C1688 C1689 1.388 . S
C1689 H1676 0.930 . S
C1689 C1688 1.388 . S
C1689 C1690 1.390 . S
C1690 C1689 1.390 . S
C1690 C1691 1.394 1_565 S
C1690 C1696 1.467 . S
C1691 C1686 1.399 . S
C1691 C1690 1.394 1_545 S
C1691 C1692 1.516 . S
C1692 C1691 1.516 . S
C1692 C1693 1.502 . S
C1692 C1694 1.561 . S
C1692 C1695 1.526 . S
C1693 H1677 0.959 . S
C1693 H1678 0.959 . S
C1693 H1679 0.961 . S
C1693 C1692 1.502 . S
C1694 H1680 0.960 . S
C1694 H1681 0.961 . S
C1694 H1682 0.959 . S
C1694 C1692 1.561 . S
C1695 C1692 1.526 . S
C1695 C1696 1.368 1_545 S
C1695 C1700 1.390 . S
C1696 C1690 1.467 . S
C1696 C1695 1.368 1_565 S
C1696 C1697 1.419 . S
C1697 H1683 0.929 . S
C1697 C1696 1.419 . S
C1697 C1698 1.385 . S
C1698 H1684 0.931 . S
C1698 C1697 1.385 . S
C1698 C1699 1.389 1_565 S
C1699 C1698 1.389 1_545 S
C1699 C1700 1.387 . S
C1700 H1685 0.930 . S
C1700 C1695 1.390 . S
C1700 C1699 1.387 . S
H1701 C1713 0.930 . S
H1702 C1715 0.930 . S
H1703 C1716 0.930 . S
H1704 C1720 0.959 . S
H1705 C1720 0.959 . S
H1706 C1720 0.961 . S
H1707 C1721 0.960 . S
H1708 C1721 0.961 . S
H1709 C1721 0.959 . S
H1710 C1724 0.929 . S
H1711 C1725 0.931 . S
H1712 C1727 0.930 . S
C1713 H1701 0.930 . S
C1713 C1714 1.399 . S
C1713 C1718 1.399 . S
C1714 C1713 1.399 . S
C1714 C1715 1.376 . S
C1715 H1702 0.930 . S
C1715 C1714 1.376 . S
C1715 C1716 1.388 . S
C1716 H1703 0.930 . S
C1716 C1715 1.388 . S
C1716 C1717 1.390 . S
C1717 C1716 1.390 . S
C1717 C1718 1.394 . S
C1717 C1723 1.465 . S
C1718 C1713 1.399 . S
C1718 C1717 1.394 . S
C1718 C1719 1.516 . S
C1719 C1718 1.516 . S
C1719 C1720 1.502 . S
C1719 C1721 1.561 . S
C1719 C1722 1.526 . S
C1720 H1704 0.959 . S
C1720 H1705 0.959 . S
C1720 H1706 0.961 . S
C1720 C1719 1.502 . S
C1721 H1707 0.960 . S
C1721 H1708 0.961 . S
C1721 H1709 0.959 . S
C1721 C1719 1.561 . S
C1722 C1719 1.526 . S
C1722 C1723 1.396 . S
C1722 C1727 1.390 . S
C1723 C1717 1.465 . S
C1723 C1722 1.396 . S
C1723 C1724 1.399 . S
C1724 H1710 0.929 . S
C1724 C1723 1.399 . S
C1724 C1725 1.385 . S
C1725 H1711 0.931 . S
C1725 C1724 1.385 . S
C1725 C1726 1.389 . S
C1726 C1725 1.389 . S
C1726 C1727 1.387 . S
C1727 H1712 0.930 . S
C1727 C1722 1.390 . S
C1727 C1726 1.387 . S
H1728 C1740 0.930 . S
H1729 C1742 0.930 . S
H1730 C1743 0.930 . S
H1731 C1747 0.959 . S
H1732 C1747 0.959 . S
H1733 C1747 0.961 . S
H1734 C1748 0.960 . S
H1735 C1748 0.961 . S
H1736 C1748 0.959 . S
H1737 C1751 0.929 . S
H1738 C1752 0.931 . S
H1739 C1754 0.930 . S
C1740 H1728 0.930 . S
C1740 C1741 1.399 . S
C1740 C1745 1.399 . S
C1741 C1740 1.399 . S
C1741 C1742 1.376 1_554 S
C1742 H1729 0.930 . S
C1742 C1741 1.376 1_556 S
C1742 C1743 1.388 . S
C1743 H1730 0.930 . S
C1743 C1742 1.388 . S
C1743 C1744 1.396 . S
C1744 C1743 1.396 . S
C1744 C1745 1.387 1_556 S
C1744 C1750 1.464 1_556 S
C1745 C1740 1.399 . S
C1745 C1744 1.387 1_554 S
C1745 C1746 1.516 . S
C1746 C1745 1.516 . S
C1746 C1747 1.502 . S
C1746 C1748 1.561 . S
C1746 C1749 1.526 . S
C1747 H1731 0.959 . S
C1747 H1732 0.959 . S
C1747 H1733 0.961 . S
C1747 C1746 1.502 . S
C1748 H1734 0.960 . S
C1748 H1735 0.961 . S
C1748 H1736 0.959 . S
C1748 C1746 1.561 . S
C1749 C1746 1.526 . S
C1749 C1750 1.438 . S
C1749 C1754 1.390 . S
C1750 C1744 1.464 1_554 S
C1750 C1749 1.438 . S
C1750 C1751 1.367 1_554 S
C1751 H1737 0.929 . S
C1751 C1750 1.367 1_556 S
C1751 C1752 1.385 . S
C1752 H1738 0.931 . S
C1752 C1751 1.385 . S
C1752 C1753 1.389 1_556 S
C1753 C1752 1.389 1_554 S
C1753 C1754 1.387 . S
C1754 H1739 0.930 . S
C1754 C1749 1.390 . S
C1754 C1753 1.387 . S
H1755 C1767 0.930 . S
H1756 C1769 0.930 . S
H1757 C1770 0.930 . S
H1758 C1774 0.959 . S
H1759 C1774 0.959 . S
H1760 C1774 0.961 . S
H1761 C1775 0.960 . S
H1762 C1775 0.961 . S
H1763 C1775 0.959 . S
H1764 C1778 0.929 . S
H1765 C1779 0.931 . S
H1766 C1781 0.930 . S
C1767 H1755 0.930 . S
C1767 C1768 1.399 1_554 S
C1767 C1772 1.399 . S
C1768 C1767 1.399 1_556 S
C1768 C1769 1.376 . S
C1769 H1756 0.930 . S
C1769 C1768 1.376 . S
C1769 C1770 1.388 . S
C1770 H1757 0.930 . S
C1770 C1769 1.388 . S
C1770 C1771 1.390 . S
C1771 C1770 1.390 . S
C1771 C1772 1.394 1_556 S
C1771 C1777 1.465 . S
C1772 C1767 1.399 . S
C1772 C1771 1.394 1_554 S
C1772 C1773 1.516 . S
C1773 C1772 1.516 . S
C1773 C1774 1.502 . S
C1773 C1775 1.561 . S
C1773 C1776 1.526 . S
C1774 H1758 0.959 . S
C1774 H1759 0.959 . S
C1774 H1760 0.961 . S
C1774 C1773 1.502 . S
C1775 H1761 0.960 . S
C1775 H1762 0.961 . S
C1775 H1763 0.959 . S
C1775 C1773 1.561 . S
C1776 C1773 1.526 . S
C1776 C1777 1.396 1_554 S
C1776 C1781 1.390 . S
C1777 C1771 1.465 . S
C1777 C1776 1.396 1_556 S
C1777 C1778 1.399 . S
C1778 H1764 0.929 . S
C1778 C1777 1.399 . S
C1778 C1779 1.385 . S
C1779 H1765 0.931 . S
C1779 C1778 1.385 . S
C1779 C1780 1.389 . S
C1780 C1779 1.389 . S
C1780 C1781 1.387 1_556 S
C1781 H1766 0.930 . S
C1781 C1776 1.390 . S
C1781 C1780 1.387 1_554 S
H1782 C1794 0.930 . S
H1783 C1796 0.930 . S
H1784 C1797 0.930 . S
H1785 C1801 0.959 . S
H1786 C1801 0.959 . S
H1787 C1801 0.961 . S
H1788 C1802 0.960 . S
H1789 C1802 0.961 . S
H1790 C1802 0.959 . S
H1791 C1805 0.929 . S
H1792 C1806 0.931 . S
H1793 C1808 0.930 . S
C1794 H1782 0.930 . S
C1794 C1795 1.399 . S
C1794 C1799 1.399 . S
C1795 C1794 1.399 . S
C1795 C1796 1.376 . S
C1796 H1783 0.930 . S
C1796 C1795 1.376 . S
C1796 C1797 1.388 . S
C1797 H1784 0.930 . S
C1797 C1796 1.388 . S
C1797 C1798 1.390 . S
C1798 C1797 1.390 . S
C1798 C1799 1.394 . S
C1798 C1804 1.465 . S
C1799 C1794 1.399 . S
C1799 C1798 1.394 . S
C1799 C1800 1.516 . S
C1800 C1799 1.516 . S
C1800 C1801 1.502 . S
C1800 C1802 1.561 . S
C1800 C1803 1.526 . S
C1801 H1785 0.959 . S
C1801 H1786 0.959 . S
C1801 H1787 0.961 . S
C1801 C1800 1.502 . S
C1802 H1788 0.960 . S
C1802 H1789 0.961 . S
C1802 H1790 0.959 . S
C1802 C1800 1.561 . S
C1803 C1800 1.526 . S
C1803 C1804 1.396 . S
C1803 C1808 1.390 . S
C1804 C1798 1.465 . S
C1804 C1803 1.396 . S
C1804 C1805 1.399 . S
C1805 H1791 0.929 . S
C1805 C1804 1.399 . S
C1805 C1806 1.385 . S
C1806 H1792 0.931 . S
C1806 C1805 1.385 . S
C1806 C1807 1.389 . S
C1807 C1806 1.389 . S
C1807 C1808 1.387 . S
C1808 H1793 0.930 . S
C1808 C1803 1.390 . S
C1808 C1807 1.387 . S
H1809 C1821 0.930 . S
H1810 C1823 0.930 . S
H1811 C1824 0.930 . S
H1812 C1828 0.959 . S
H1813 C1828 0.959 . S
H1814 C1828 0.961 . S
H1815 C1829 0.960 . S
H1816 C1829 0.961 . S
H1817 C1829 0.959 . S
H1818 C1832 0.929 . S
H1819 C1833 0.931 . S
H1820 C1835 0.930 . S
C1821 H1809 0.930 . S
C1821 C1822 1.399 . S
C1821 C1826 1.399 . S
C1822 C1821 1.399 . S
C1822 C1823 1.376 . S
C1823 H1810 0.930 . S
C1823 C1822 1.376 . S
C1823 C1824 1.388 . S
C1824 H1811 0.930 . S
C1824 C1823 1.388 . S
C1824 C1825 1.390 . S
C1825 C1824 1.390 . S
C1825 C1826 1.394 . S
C1825 C1831 1.465 . S
C1826 C1821 1.399 . S
C1826 C1825 1.394 . S
C1826 C1827 1.516 . S
C1827 C1826 1.516 . S
C1827 C1828 1.502 . S
C1827 C1829 1.561 . S
C1827 C1830 1.526 . S
C1828 H1812 0.959 . S
C1828 H1813 0.959 . S
C1828 H1814 0.961 . S
C1828 C1827 1.502 . S
C1829 H1815 0.960 . S
C1829 H1816 0.961 . S
C1829 H1817 0.959 . S
C1829 C1827 1.561 . S
C1830 C1827 1.526 . S
C1830 C1831 1.396 . S
C1830 C1835 1.390 . S
C1831 C1825 1.465 . S
C1831 C1830 1.396 . S
C1831 C1832 1.399 . S
C1832 H1818 0.929 . S
C1832 C1831 1.399 . S
C1832 C1833 1.385 . S
C1833 H1819 0.931 . S
C1833 C1832 1.385 . S
C1833 C1834 1.389 . S
C1834 C1833 1.389 . S
C1834 C1835 1.387 . S
C1835 H1820 0.930 . S
C1835 C1830 1.390 . S
C1835 C1834 1.387 . S
H1836 C1848 0.930 . S
H1837 C1850 0.930 . S
H1838 C1851 0.930 . S
H1839 C1855 0.959 . S
H1840 C1855 0.959 . S
H1841 C1855 0.961 . S
H1842 C1856 0.960 . S
H1843 C1856 0.961 . S
H1844 C1856 0.959 . S
H1845 C1859 0.929 . S
H1846 C1860 0.931 . S
H1847 C1862 0.930 . S
C1848 H1836 0.930 . S
C1848 C1849 1.399 . S
C1848 C1853 1.399 . S
C1849 C1848 1.399 . S
C1849 C1850 1.376 . S
C1850 H1837 0.930 . S
C1850 C1849 1.376 . S
C1850 C1851 1.388 . S
C1851 H1838 0.930 . S
C1851 C1850 1.388 . S
C1851 C1852 1.390 . S
C1852 C1851 1.390 . S
C1852 C1853 1.394 . S
C1852 C1858 1.465 . S
C1853 C1848 1.399 . S
C1853 C1852 1.394 . S
C1853 C1854 1.516 . S
C1854 C1853 1.516 . S
C1854 C1855 1.502 . S
C1854 C1856 1.561 . S
C1854 C1857 1.526 . S
C1855 H1839 0.959 . S
C1855 H1840 0.959 . S
C1855 H1841 0.961 . S
C1855 C1854 1.502 . S
C1856 H1842 0.960 . S
C1856 H1843 0.961 . S
C1856 H1844 0.959 . S
C1856 C1854 1.561 . S
C1857 C1854 1.526 . S
C1857 C1858 1.396 . S
C1857 C1862 1.390 . S
C1858 C1852 1.465 . S
C1858 C1857 1.396 . S
C1858 C1859 1.399 . S
C1859 H1845 0.929 . S
C1859 C1858 1.399 . S
C1859 C1860 1.385 . S
C1860 H1846 0.931 . S
C1860 C1859 1.385 . S
C1860 C1861 1.389 . S
C1861 C1860 1.389 . S
C1861 C1862 1.387 . S
C1862 H1847 0.930 . S
C1862 C1857 1.390 . S
C1862 C1861 1.387 . S
H1863 C1875 0.930 . S
H1864 C1877 0.930 . S
H1865 C1878 0.930 . S
H1866 C1882 0.959 . S
H1867 C1882 0.959 . S
H1868 C1882 0.961 . S
H1869 C1883 0.960 . S
H1870 C1883 0.961 . S
H1871 C1883 0.959 . S
H1872 C1886 0.929 . S
H1873 C1887 0.931 . S
H1874 C1889 0.930 . S
C1875 H1863 0.930 . S
C1875 C1876 1.399 . S
C1875 C1880 1.399 . S
C1876 C1875 1.399 . S
C1876 C1877 1.376 . S
C1877 H1864 0.930 . S
C1877 C1876 1.376 . S
C1877 C1878 1.388 . S
C1878 H1865 0.930 . S
C1878 C1877 1.388 . S
C1878 C1879 1.390 . S
C1879 C1878 1.390 . S
C1879 C1880 1.394 . S
C1879 C1885 1.465 . S
C1880 C1875 1.399 . S
C1880 C1879 1.394 . S
C1880 C1881 1.516 . S
C1881 C1880 1.516 . S
C1881 C1882 1.502 . S
C1881 C1883 1.561 . S
C1881 C1884 1.526 . S
C1882 H1866 0.959 . S
C1882 H1867 0.959 . S
C1882 H1868 0.961 . S
C1882 C1881 1.502 . S
C1883 H1869 0.960 . S
C1883 H1870 0.961 . S
C1883 H1871 0.959 . S
C1883 C1881 1.561 . S
C1884 C1881 1.526 . S
C1884 C1885 1.396 . S
C1884 C1889 1.390 . S
C1885 C1879 1.465 . S
C1885 C1884 1.396 . S
C1885 C1886 1.399 . S
C1886 H1872 0.929 . S
C1886 C1885 1.399 . S
C1886 C1887 1.385 . S
C1887 H1873 0.931 . S
C1887 C1886 1.385 . S
C1887 C1888 1.389 . S
C1888 C1887 1.389 . S
C1888 C1889 1.387 . S
C1889 H1874 0.930 . S
C1889 C1884 1.390 . S
C1889 C1888 1.387 . S
H1890 C1902 0.930 . S
H1891 C1904 0.930 . S
H1892 C1905 0.930 . S
H1893 C1909 0.959 . S
H1894 C1909 0.959 . S
H1895 C1909 0.961 . S
H1896 C1910 0.960 . S
H1897 C1910 0.961 . S
H1898 C1910 0.959 . S
H1899 C1913 0.929 . S
H1900 C1914 0.931 . S
H1901 C1916 0.930 . S
C1902 H1890 0.930 . S
C1902 C1903 1.399 . S
C1902 C1907 1.399 . S
C1903 C1902 1.399 . S
C1903 C1904 1.376 . S
C1904 H1891 0.930 . S
C1904 C1903 1.376 . S
C1904 C1905 1.388 . S
C1905 H1892 0.930 . S
C1905 C1904 1.388 . S
C1905 C1906 1.390 . S
C1906 C1905 1.390 . S
C1906 C1907 1.394 . S
C1906 C1912 1.465 . S
C1907 C1902 1.399 . S
C1907 C1906 1.394 . S
C1907 C1908 1.516 . S
C1908 C1907 1.516 . S
C1908 C1909 1.502 . S
C1908 C1910 1.561 . S
C1908 C1911 1.526 . S
C1909 H1893 0.959 . S
C1909 H1894 0.959 . S
C1909 H1895 0.961 . S
C1909 C1908 1.502 . S
C1910 H1896 0.960 . S
C1910 H1897 0.961 . S
C1910 H1898 0.959 . S
C1910 C1908 1.561 . S
C1911 C1908 1.526 . S
C1911 C1912 1.396 . S
C1911 C1916 1.390 . S
C1912 C1906 1.465 . S
C1912 C1911 1.396 . S
C1912 C1913 1.399 . S
C1913 H1899 0.929 . S
C1913 C1912 1.399 . S
C1913 C1914 1.385 . S
C1914 H1900 0.931 . S
C1914 C1913 1.385 . S
C1914 C1915 1.389 . S
C1915 C1914 1.389 . S
C1915 C1916 1.387 . S
C1916 H1901 0.930 . S
C1916 C1911 1.390 . S
C1916 C1915 1.387 . S
H1917 C1929 0.930 . S
H1918 C1931 0.930 . S
H1919 C1932 0.930 . S
H1920 C1936 0.959 . S
H1921 C1936 0.959 . S
H1922 C1936 0.961 . S
H1923 C1937 0.960 . S
H1924 C1937 0.961 . S
H1925 C1937 0.959 . S
H1926 C1940 0.929 . S
H1927 C1941 0.931 . S
H1928 C1943 0.930 . S
C1929 H1917 0.930 . S
C1929 C1930 1.399 . S
C1929 C1934 1.399 . S
C1930 C1929 1.399 . S
C1930 C1931 1.376 . S
C1931 H1918 0.930 . S
C1931 C1930 1.376 . S
C1931 C1932 1.388 . S
C1932 H1919 0.930 . S
C1932 C1931 1.388 . S
C1932 C1933 1.390 . S
C1933 C1932 1.390 . S
C1933 C1934 1.394 . S
C1933 C1939 1.465 . S
C1934 C1929 1.399 . S
C1934 C1933 1.394 . S
C1934 C1935 1.516 . S
C1935 C1934 1.516 . S
C1935 C1936 1.502 . S
C1935 C1937 1.561 . S
C1935 C1938 1.526 . S
C1936 H1920 0.959 . S
C1936 H1921 0.959 . S
C1936 H1922 0.961 . S
C1936 C1935 1.502 . S
C1937 H1923 0.960 . S
C1937 H1924 0.961 . S
C1937 H1925 0.959 . S
C1937 C1935 1.561 . S
C1938 C1935 1.526 . S
C1938 C1939 1.396 . S
C1938 C1943 1.390 . S
C1939 C1933 1.465 . S
C1939 C1938 1.396 . S
C1939 C1940 1.399 . S
C1940 H1926 0.929 . S
C1940 C1939 1.399 . S
C1940 C1941 1.385 . S
C1941 H1927 0.931 . S
C1941 C1940 1.385 . S
C1941 C1942 1.389 . S
C1942 C1941 1.389 . S
C1942 C1943 1.387 . S
C1943 H1928 0.930 . S
C1943 C1938 1.390 . S
C1943 C1942 1.387 . S
H1944 C1956 0.930 . S
H1945 C1958 0.930 . S
H1946 C1959 0.930 . S
H1947 C1963 0.959 . S
H1948 C1963 0.959 . S
H1949 C1963 0.961 . S
H1950 C1964 0.960 . S
H1951 C1964 0.961 . S
H1952 C1964 0.959 . S
H1953 C1967 0.929 . S
H1954 C1968 0.931 . S
H1955 C1970 0.930 . S
C1956 H1944 0.930 . S
C1956 C1957 1.399 . S
C1956 C1961 1.399 . S
C1957 C1956 1.399 . S
C1957 C1958 1.376 . S
C1958 H1945 0.930 . S
C1958 C1957 1.376 . S
C1958 C1959 1.388 . S
C1959 H1946 0.930 . S
C1959 C1958 1.388 . S
C1959 C1960 1.390 . S
C1960 C1959 1.390 . S
C1960 C1961 1.394 . S
C1960 C1966 1.465 . S
C1961 C1956 1.399 . S
C1961 C1960 1.394 . S
C1961 C1962 1.516 . S
C1962 C1961 1.516 . S
C1962 C1963 1.502 . S
C1962 C1964 1.561 . S
C1962 C1965 1.526 . S
C1963 H1947 0.959 . S
C1963 H1948 0.959 . S
C1963 H1949 0.961 . S
C1963 C1962 1.502 . S
C1964 H1950 0.960 . S
C1964 H1951 0.961 . S
C1964 H1952 0.959 . S
C1964 C1962 1.561 . S
C1965 C1962 1.526 . S
C1965 C1966 1.396 . S
C1965 C1970 1.390 . S
C1966 C1960 1.465 . S
C1966 C1965 1.396 . S
C1966 C1967 1.399 . S
C1967 H1953 0.929 . S
C1967 C1966 1.399 . S
C1967 C1968 1.385 . S
C1968 H1954 0.931 . S
C1968 C1967 1.385 . S
C1968 C1969 1.389 . S
C1969 C1968 1.389 . S
C1969 C1970 1.387 . S
C1970 H1955 0.930 . S
C1970 C1965 1.390 . S
C1970 C1969 1.387 . S
H1971 C1983 0.930 . S
H1972 C1985 0.930 . S
H1973 C1986 0.930 . S
H1974 C1990 0.959 . S
H1975 C1990 0.959 . S
H1976 C1990 0.961 . S
H1977 C1991 0.960 . S
H1978 C1991 0.961 . S
H1979 C1991 0.959 . S
H1980 C1994 0.929 . S
H1981 C1995 0.931 . S
H1982 C1997 0.930 . S
C1983 H1971 0.930 . S
C1983 C1984 1.399 . S
C1983 C1988 1.399 . S
C1984 C1983 1.399 . S
C1984 C1985 1.376 . S
C1985 H1972 0.930 . S
C1985 C1984 1.376 . S
C1985 C1986 1.388 . S
C1986 H1973 0.930 . S
C1986 C1985 1.388 . S
C1986 C1987 1.390 . S
C1987 C1986 1.390 . S
C1987 C1988 1.394 . S
C1987 C1993 1.465 . S
C1988 C1983 1.399 . S
C1988 C1987 1.394 . S
C1988 C1989 1.516 . S
C1989 C1988 1.516 . S
C1989 C1990 1.502 . S
C1989 C1991 1.561 . S
C1989 C1992 1.526 . S
C1990 H1974 0.959 . S
C1990 H1975 0.959 . S
C1990 H1976 0.961 . S
C1990 C1989 1.502 . S
C1991 H1977 0.960 . S
C1991 H1978 0.961 . S
C1991 H1979 0.959 . S
C1991 C1989 1.561 . S
C1992 C1989 1.526 . S
C1992 C1993 1.396 . S
C1992 C1997 1.390 . S
C1993 C1987 1.465 . S
C1993 C1992 1.396 . S
C1993 C1994 1.399 . S
C1994 H1980 0.929 . S
C1994 C1993 1.399 . S
C1994 C1995 1.385 . S
C1995 H1981 0.931 . S
C1995 C1994 1.385 . S
C1995 C1996 1.389 . S
C1996 C1995 1.389 . S
C1996 C1997 1.387 . S
C1997 H1982 0.930 . S
C1997 C1992 1.390 . S
C1997 C1996 1.387 . S
H1998 C2010 0.930 . S
H1999 C2012 0.930 . S
H2000 C2013 0.930 . S
H2001 C2017 0.959 . S
H2002 C2017 0.959 . S
H2003 C2017 0.961 . S
H2004 C2018 0.960 . S
H2005 C2018 0.961 . S
H2006 C2018 0.959 . S
H2007 C2021 0.929 . S
H2008 C2022 0.931 1_556 S
H2009 C2024 0.930 1_655 S
C2010 H1998 0.930 . S
C2010 C2011 1.399 1_655 S
C2010 C2015 1.393 1_655 S
C2011 C2010 1.399 1_455 S
C2011 C2012 1.376 . S
C2012 H1999 0.930 . S
C2012 C2011 1.376 . S
C2012 C2013 1.388 . S
C2013 H2000 0.930 . S
C2013 C2012 1.388 . S
C2013 C2014 1.390 . S
C2014 C2013 1.390 . S
C2014 C2015 1.413 . S
C2014 C2020 1.465 . S
C2015 C2010 1.393 1_455 S
C2015 C2014 1.413 . S
C2015 C2016 1.508 1_455 S
C2016 C2015 1.508 1_655 S
C2016 C2017 1.502 . S
C2016 C2018 1.561 1_655 S
C2016 C2019 1.526 1_655 S
C2017 H2001 0.959 . S
C2017 H2002 0.959 . S
C2017 H2003 0.961 . S
C2017 C2016 1.502 . S
C2018 H2004 0.960 . S
C2018 H2005 0.961 . S
C2018 H2006 0.959 . S
C2018 C2016 1.561 1_455 S
C2019 C2016 1.526 1_455 S
C2019 C2020 1.396 . S
C2019 C2024 1.390 . S
C2020 C2014 1.465 . S
C2020 C2019 1.396 . S
C2020 C2021 1.399 . S
C2021 H2007 0.929 . S
C2021 C2020 1.399 . S
C2021 C2022 1.385 . S
C2022 H2008 0.931 1_554 S
C2022 C2021 1.385 . S
C2022 C2023 1.389 . S
C2023 C2022 1.389 . S
C2023 C2024 1.387 . S
C2024 H2009 0.930 1_455 S
C2024 C2019 1.390 . S
C2024 C2023 1.387 . S
H2025 C2037 0.930 . S
H2026 C2039 0.930 . S
H2027 C2040 0.930 . S
H2028 C2044 0.959 . S
H2029 C2044 0.959 . S
H2030 C2044 0.961 . S
H2031 C2045 0.960 . S
H2032 C2045 0.961 . S
H2033 C2045 0.959 . S
H2034 C2048 0.929 . S
H2035 C2049 0.931 . S
H2036 C2051 0.930 . S
C2037 H2025 0.930 . S
C2037 C2038 1.399 . S
C2037 C2042 1.399 . S
C2038 C2037 1.399 . S
C2038 C2039 1.376 . S
C2039 H2026 0.930 . S
C2039 C2038 1.376 . S
C2039 C2040 1.388 . S
C2040 H2027 0.930 . S
C2040 C2039 1.388 . S
C2040 C2041 1.390 . S
C2041 C2040 1.390 . S
C2041 C2042 1.394 . S
C2041 C2047 1.465 . S
C2042 C2037 1.399 . S
C2042 C2041 1.394 . S
C2042 C2043 1.516 . S
C2043 C2042 1.516 . S
C2043 C2044 1.502 . S
C2043 C2045 1.561 . S
C2043 C2046 1.526 . S
C2044 H2028 0.959 . S
C2044 H2029 0.959 . S
C2044 H2030 0.961 . S
C2044 C2043 1.502 . S
C2045 H2031 0.960 . S
C2045 H2032 0.961 . S
C2045 H2033 0.959 . S
C2045 C2043 1.561 . S
C2046 C2043 1.526 . S
C2046 C2047 1.396 . S
C2046 C2051 1.390 . S
C2047 C2041 1.465 . S
C2047 C2046 1.396 . S
C2047 C2048 1.399 . S
C2048 H2034 0.929 . S
C2048 C2047 1.399 . S
C2048 C2049 1.385 . S
C2049 H2035 0.931 . S
C2049 C2048 1.385 . S
C2049 C2050 1.389 . S
C2050 C2049 1.389 . S
C2050 C2051 1.387 . S
C2051 H2036 0.930 . S
C2051 C2046 1.390 . S
C2051 C2050 1.387 . S
H2052 C2064 0.930 . S
H2053 C2066 0.930 . S
H2054 C2067 0.930 . S
H2055 C2071 0.959 . S
H2056 C2071 0.933 1_554 S
H2057 C2071 0.961 . S
H2058 C2072 0.960 . S
H2059 C2072 0.961 1_554 S
H2060 C2072 0.959 . S
H2061 C2075 0.929 . S
H2062 C2076 0.931 . S
H2063 C2078 0.930 . S
C2064 H2052 0.930 . S
C2064 C2065 1.399 . S
C2064 C2069 1.399 . S
C2065 C2064 1.399 . S
C2065 C2066 1.376 . S
C2066 H2053 0.930 . S
C2066 C2065 1.376 . S
C2066 C2067 1.388 . S
C2067 H2054 0.930 . S
C2067 C2066 1.388 . S
C2067 C2068 1.390 . S
C2068 C2067 1.390 . S
C2068 C2069 1.394 . S
C2068 C2074 1.465 . S
C2069 C2064 1.399 . S
C2069 C2068 1.394 . S
C2069 C2070 1.516 . S
C2070 C2069 1.516 . S
C2070 C2071 1.502 . S
C2070 C2072 1.561 . S
C2070 C2073 1.526 . S
C2071 H2055 0.959 . S
C2071 H2056 0.933 1_556 S
C2071 H2057 0.961 . S
C2071 C2070 1.502 . S
C2072 H2058 0.960 . S
C2072 H2059 0.961 1_556 S
C2072 H2060 0.959 . S
C2072 C2070 1.561 . S
C2073 C2070 1.526 . S
C2073 C2074 1.396 . S
C2073 C2078 1.390 . S
C2074 C2068 1.465 . S
C2074 C2073 1.396 . S
C2074 C2075 1.399 . S
C2075 H2061 0.929 . S
C2075 C2074 1.399 . S
C2075 C2076 1.385 . S
C2076 H2062 0.931 . S
C2076 C2075 1.385 . S
C2076 C2077 1.389 . S
C2077 C2076 1.389 . S
C2077 C2078 1.387 . S
C2078 H2063 0.930 . S
C2078 C2073 1.390 . S
C2078 C2077 1.387 . S
H2079 C2091 0.930 . S
H2080 C2093 0.930 . S
H2081 C2094 0.930 . S
H2082 C2098 0.959 . S
H2083 C2098 0.959 . S
H2084 C2098 0.961 . S
H2085 C2099 0.960 . S
H2086 C2099 0.961 . S
H2087 C2099 0.959 . S
H2088 C2102 0.929 . S
H2089 C2103 0.931 . S
H2090 C2105 0.930 . S
C2091 H2079 0.930 . S
C2091 C2092 1.399 . S
C2091 C2096 1.399 . S
C2092 C2091 1.399 . S
C2092 C2093 1.376 . S
C2093 H2080 0.930 . S
C2093 C2092 1.376 . S
C2093 C2094 1.388 . S
C2094 H2081 0.930 . S
C2094 C2093 1.388 . S
C2094 C2095 1.390 . S
C2095 C2094 1.390 . S
C2095 C2096 1.394 . S
C2095 C2101 1.465 . S
C2096 C2091 1.399 . S
C2096 C2095 1.394 . S
C2096 C2097 1.516 . S
C2097 C2096 1.516 . S
C2097 C2098 1.502 . S
C2097 C2099 1.561 . S
C2097 C2100 1.526 . S
C2098 H2082 0.959 . S
C2098 H2083 0.959 . S
C2098 H2084 0.961 . S
C2098 C2097 1.502 . S
C2099 H2085 0.960 . S
C2099 H2086 0.961 . S
C2099 H2087 0.959 . S
C2099 C2097 1.561 . S
C2100 C2097 1.526 . S
C2100 C2101 1.396 . S
C2100 C2105 1.390 . S
C2101 C2095 1.465 . S
C2101 C2100 1.396 . S
C2101 C2102 1.399 . S
C2102 H2088 0.929 . S
C2102 C2101 1.399 . S
C2102 C2103 1.385 . S
C2103 H2089 0.931 . S
C2103 C2102 1.385 . S
C2103 C2104 1.389 . S
C2104 C2103 1.389 . S
C2104 C2105 1.387 . S
C2105 H2090 0.930 . S
C2105 C2100 1.390 . S
C2105 C2104 1.387 . S
H2106 C2118 0.930 . S
H2107 C2120 0.930 . S
H2108 C2121 0.930 . S
H2109 C2125 0.959 . S
H2110 C2125 0.959 . S
H2111 C2125 0.961 . S
H2112 C2126 0.960 . S
H2113 C2126 0.961 . S
H2114 C2126 0.959 . S
H2115 C2129 0.929 . S
H2116 C2130 0.931 . S
H2117 C2132 0.930 . S
C2118 H2106 0.930 . S
C2118 C2119 1.399 . S
C2118 C2123 1.399 . S
C2119 C2118 1.399 . S
C2119 C2120 1.376 1_455 S
C2120 H2107 0.930 . S
C2120 C2119 1.376 1_655 S
C2120 C2121 1.388 . S
C2121 H2108 0.930 . S
C2121 C2120 1.388 . S
C2121 C2122 1.387 . S
C2122 C2121 1.387 . S
C2122 C2123 1.396 1_655 S
C2122 C2128 1.465 1_655 S
C2123 C2118 1.399 . S
C2123 C2122 1.396 1_455 S
C2123 C2124 1.516 . S
C2124 C2123 1.516 . S
C2124 C2125 1.502 . S
C2124 C2126 1.561 . S
C2124 C2127 1.526 . S
C2125 H2109 0.959 . S
C2125 H2110 0.959 . S
C2125 H2111 0.961 . S
C2125 C2124 1.502 . S
C2126 H2112 0.960 . S
C2126 H2113 0.961 . S
C2126 H2114 0.959 . S
C2126 C2124 1.561 . S
C2127 C2124 1.526 . S
C2127 C2128 1.396 . S
C2127 C2132 1.390 . S
C2128 C2122 1.465 1_455 S
C2128 C2127 1.396 . S
C2128 C2129 1.399 1_455 S
C2129 H2115 0.929 . S
C2129 C2128 1.399 1_655 S
C2129 C2130 1.385 . S
C2130 H2116 0.931 . S
C2130 C2129 1.385 . S
C2130 C2131 1.389 1_655 S
C2131 C2130 1.389 1_455 S
C2131 C2132 1.387 . S
C2132 H2117 0.930 . S
C2132 C2127 1.390 . S
C2132 C2131 1.387 . S
H2133 C2145 0.930 . S
H2134 C2147 0.930 . S
H2135 C2148 0.930 . S
H2136 C2152 0.959 . S
H2137 C2152 0.959 . S
H2138 C2152 0.961 . S
H2139 C2153 0.960 . S
H2140 C2153 0.961 . S
H2141 C2153 0.959 . S
H2142 C2156 0.929 . S
H2143 C2157 0.931 . S
H2144 C2159 0.930 . S
C2145 H2133 0.930 . S
C2145 C2146 1.399 . S
C2145 C2150 1.399 . S
C2146 C2145 1.399 . S
C2146 C2147 1.376 . S
C2147 H2134 0.930 . S
C2147 C2146 1.376 . S
C2147 C2148 1.388 . S
C2148 H2135 0.930 . S
C2148 C2147 1.388 . S
C2148 C2149 1.390 . S
C2149 C2148 1.390 . S
C2149 C2150 1.394 . S
C2149 C2155 1.465 . S
C2150 C2145 1.399 . S
C2150 C2149 1.394 . S
C2150 C2151 1.516 . S
C2151 C2150 1.516 . S
C2151 C2152 1.502 . S
C2151 C2153 1.561 . S
C2151 C2154 1.526 . S
C2152 H2136 0.959 . S
C2152 H2137 0.959 . S
C2152 H2138 0.961 . S
C2152 C2151 1.502 . S
C2153 H2139 0.960 . S
C2153 H2140 0.961 . S
C2153 H2141 0.959 . S
C2153 C2151 1.561 . S
C2154 C2151 1.526 . S
C2154 C2155 1.396 . S
C2154 C2159 1.390 . S
C2155 C2149 1.465 . S
C2155 C2154 1.396 . S
C2155 C2156 1.399 . S
C2156 H2142 0.929 . S
C2156 C2155 1.399 . S
C2156 C2157 1.385 . S
C2157 H2143 0.931 . S
C2157 C2156 1.385 . S
C2157 C2158 1.389 . S
C2158 C2157 1.389 . S
C2158 C2159 1.387 . S
C2159 H2144 0.930 . S
C2159 C2154 1.390 . S
C2159 C2158 1.387 . S
H2160 C2172 0.930 . S
H2161 C2174 0.930 . S
H2162 C2175 0.930 . S
H2163 C2179 0.959 . S
H2164 C2179 0.959 . S
H2165 C2179 0.961 . S
H2166 C2180 0.960 . S
H2167 C2180 0.961 . S
H2168 C2180 0.959 . S
H2169 C2183 0.929 . S
H2170 C2184 0.931 . S
H2171 C2186 0.930 . S
C2172 H2160 0.930 . S
C2172 C2173 1.399 . S
C2172 C2177 1.399 . S
C2173 C2172 1.399 . S
C2173 C2174 1.376 . S
C2174 H2161 0.930 . S
C2174 C2173 1.376 . S
C2174 C2175 1.388 . S
C2175 H2162 0.930 . S
C2175 C2174 1.388 . S
C2175 C2176 1.390 . S
C2176 C2175 1.390 . S
C2176 C2177 1.394 . S
C2176 C2182 1.465 . S
C2177 C2172 1.399 . S
C2177 C2176 1.394 . S
C2177 C2178 1.516 . S
C2178 C2177 1.516 . S
C2178 C2179 1.502 . S
C2178 C2180 1.561 . S
C2178 C2181 1.526 . S
C2179 H2163 0.959 . S
C2179 H2164 0.959 . S
C2179 H2165 0.961 . S
C2179 C2178 1.502 . S
C2180 H2166 0.960 . S
C2180 H2167 0.961 . S
C2180 H2168 0.959 . S
C2180 C2178 1.561 . S
C2181 C2178 1.526 . S
C2181 C2182 1.396 . S
C2181 C2186 1.390 . S
C2182 C2176 1.465 . S
C2182 C2181 1.396 . S
C2182 C2183 1.399 . S
C2183 H2169 0.929 . S
C2183 C2182 1.399 . S
C2183 C2184 1.385 . S
C2184 H2170 0.931 . S
C2184 C2183 1.385 . S
C2184 C2185 1.389 . S
C2185 C2184 1.389 . S
C2185 C2186 1.387 . S
C2186 H2171 0.930 . S
C2186 C2181 1.390 . S
C2186 C2185 1.387 . S
H2187 C2199 0.930 . S
H2188 C2201 0.930 . S
H2189 C2202 0.930 . S
H2190 C2206 0.959 . S
H2191 C2206 0.959 . S
H2192 C2206 0.961 . S
H2193 C2207 0.960 . S
H2194 C2207 0.961 . S
H2195 C2207 0.959 . S
H2196 C2210 0.929 . S
H2197 C2211 0.931 . S
H2198 C2213 0.930 . S
C2199 H2187 0.930 . S
C2199 C2200 1.399 . S
C2199 C2204 1.399 . S
C2200 C2199 1.399 . S
C2200 C2201 1.376 . S
C2201 H2188 0.930 . S
C2201 C2200 1.376 . S
C2201 C2202 1.388 . S
C2202 H2189 0.930 . S
C2202 C2201 1.388 . S
C2202 C2203 1.390 . S
C2203 C2202 1.390 . S
C2203 C2204 1.394 . S
C2203 C2209 1.465 . S
C2204 C2199 1.399 . S
C2204 C2203 1.394 . S
C2204 C2205 1.516 . S
C2205 C2204 1.516 . S
C2205 C2206 1.502 . S
C2205 C2207 1.561 . S
C2205 C2208 1.526 . S
C2206 H2190 0.959 . S
C2206 H2191 0.959 . S
C2206 H2192 0.961 . S
C2206 C2205 1.502 . S
C2207 H2193 0.960 . S
C2207 H2194 0.961 . S
C2207 H2195 0.959 . S
C2207 C2205 1.561 . S
C2208 C2205 1.526 . S
C2208 C2209 1.396 . S
C2208 C2213 1.390 . S
C2209 C2203 1.465 . S
C2209 C2208 1.396 . S
C2209 C2210 1.399 . S
C2210 H2196 0.929 . S
C2210 C2209 1.399 . S
C2210 C2211 1.385 . S
C2211 H2197 0.931 . S
C2211 C2210 1.385 . S
C2211 C2212 1.389 . S
C2212 C2211 1.389 . S
C2212 C2213 1.387 . S
C2213 H2198 0.930 . S
C2213 C2208 1.390 . S
C2213 C2212 1.387 . S
H2214 C2226 0.930 . S
H2215 C2228 0.930 . S
H2216 C2229 0.930 . S
H2217 C2233 0.959 . S
H2218 C2233 0.959 . S
H2219 C2233 0.961 . S
H2220 C2234 0.960 . S
H2221 C2234 0.961 . S
H2222 C2234 0.959 . S
H2223 C2237 0.929 . S
H2224 C2238 0.931 . S
H2225 C2240 0.930 . S
C2226 H2214 0.930 . S
C2226 C2227 1.399 . S
C2226 C2231 1.399 . S
C2227 C2226 1.399 . S
C2227 C2228 1.376 . S
C2228 H2215 0.930 . S
C2228 C2227 1.376 . S
C2228 C2229 1.388 . S
C2229 H2216 0.930 . S
C2229 C2228 1.388 . S
C2229 C2230 1.390 . S
C2230 C2229 1.390 . S
C2230 C2231 1.394 . S
C2230 C2236 1.465 . S
C2231 C2226 1.399 . S
C2231 C2230 1.394 . S
C2231 C2232 1.516 . S
C2232 C2231 1.516 . S
C2232 C2233 1.502 . S
C2232 C2234 1.561 . S
C2232 C2235 1.526 . S
C2233 H2217 0.959 . S
C2233 H2218 0.959 . S
C2233 H2219 0.961 . S
C2233 C2232 1.502 . S
C2234 H2220 0.960 . S
C2234 H2221 0.961 . S
C2234 H2222 0.959 . S
C2234 C2232 1.561 . S
C2235 C2232 1.526 . S
C2235 C2236 1.396 . S
C2235 C2240 1.390 . S
C2236 C2230 1.465 . S
C2236 C2235 1.396 . S
C2236 C2237 1.399 . S
C2237 H2223 0.929 . S
C2237 C2236 1.399 . S
C2237 C2238 1.385 . S
C2238 H2224 0.931 . S
C2238 C2237 1.385 . S
C2238 C2239 1.389 . S
C2239 C2238 1.389 . S
C2239 C2240 1.387 . S
C2240 H2225 0.930 . S
C2240 C2235 1.390 . S
C2240 C2239 1.387 . S
H2241 C2253 0.930 . S
H2242 C2255 0.930 . S
H2243 C2256 0.930 . S
H2244 C2260 0.959 . S
H2245 C2260 0.959 . S
H2246 C2260 0.961 . S
H2247 C2261 0.960 . S
H2248 C2261 0.961 . S
H2249 C2261 0.959 . S
H2250 C2264 0.929 . S
H2251 C2265 0.931 . S
H2252 C2267 0.930 . S
C2253 H2241 0.930 . S
C2253 C2254 1.399 . S
C2253 C2258 1.399 . S
C2254 C2253 1.399 . S
C2254 C2255 1.376 . S
C2255 H2242 0.930 . S
C2255 C2254 1.376 . S
C2255 C2256 1.388 . S
C2256 H2243 0.930 . S
C2256 C2255 1.388 . S
C2256 C2257 1.390 . S
C2257 C2256 1.390 . S
C2257 C2258 1.394 . S
C2257 C2263 1.465 . S
C2258 C2253 1.399 . S
C2258 C2257 1.394 . S
C2258 C2259 1.516 . S
C2259 C2258 1.516 . S
C2259 C2260 1.502 . S
C2259 C2261 1.561 . S
C2259 C2262 1.526 . S
C2260 H2244 0.959 . S
C2260 H2245 0.959 . S
C2260 H2246 0.961 . S
C2260 C2259 1.502 . S
C2261 H2247 0.960 . S
C2261 H2248 0.961 . S
C2261 H2249 0.959 . S
C2261 C2259 1.561 . S
C2262 C2259 1.526 . S
C2262 C2263 1.396 . S
C2262 C2267 1.390 . S
C2263 C2257 1.465 . S
C2263 C2262 1.396 . S
C2263 C2264 1.399 . S
C2264 H2250 0.929 . S
C2264 C2263 1.399 . S
C2264 C2265 1.385 . S
C2265 H2251 0.931 . S
C2265 C2264 1.385 . S
C2265 C2266 1.389 . S
C2266 C2265 1.389 . S
C2266 C2267 1.387 . S
C2267 H2252 0.930 . S
C2267 C2262 1.390 . S
C2267 C2266 1.387 . S
H2268 C2280 0.930 . S
H2269 C2282 0.930 . S
H2270 C2283 0.930 . S
H2271 C2287 0.959 . S
H2272 C2287 0.959 . S
H2273 C2287 0.961 . S
H2274 C2288 0.960 . S
H2275 C2288 0.961 . S
H2276 C2288 0.959 . S
H2277 C2291 0.929 . S
H2278 C2292 0.931 . S
H2279 C2294 0.930 . S
C2280 H2268 0.930 . S
C2280 C2281 1.399 . S
C2280 C2285 1.399 . S
C2281 C2280 1.399 . S
C2281 C2282 1.376 . S
C2282 H2269 0.930 . S
C2282 C2281 1.376 . S
C2282 C2283 1.388 . S
C2283 H2270 0.930 . S
C2283 C2282 1.388 . S
C2283 C2284 1.390 . S
C2284 C2283 1.390 . S
C2284 C2285 1.394 . S
C2284 C2290 1.465 . S
C2285 C2280 1.399 . S
C2285 C2284 1.394 . S
C2285 C2286 1.516 . S
C2286 C2285 1.516 . S
C2286 C2287 1.502 . S
C2286 C2288 1.561 . S
C2286 C2289 1.526 . S
C2287 H2271 0.959 . S
C2287 H2272 0.959 . S
C2287 H2273 0.961 . S
C2287 C2286 1.502 . S
C2288 H2274 0.960 . S
C2288 H2275 0.961 . S
C2288 H2276 0.959 . S
C2288 C2286 1.561 . S
C2289 C2286 1.526 . S
C2289 C2290 1.396 . S
C2289 C2294 1.390 . S
C2290 C2284 1.465 . S
C2290 C2289 1.396 . S
C2290 C2291 1.399 . S
C2291 H2277 0.929 . S
C2291 C2290 1.399 . S
C2291 C2292 1.385 . S
C2292 H2278 0.931 . S
C2292 C2291 1.385 . S
C2292 C2293 1.389 . S
C2293 C2292 1.389 . S
C2293 C2294 1.387 . S
C2294 H2279 0.930 . S
C2294 C2289 1.390 . S
C2294 C2293 1.387 . S
H2295 C2307 0.930 . S
H2296 C2309 0.930 . S
H2297 C2310 0.930 . S
H2298 C2314 0.959 . S
H2299 C2314 0.959 . S
H2300 C2314 0.961 . S
H2301 C2315 0.960 . S
H2302 C2315 0.961 . S
H2303 C2315 0.959 . S
H2304 C2318 0.929 . S
H2305 C2319 0.931 . S
H2306 C2321 0.930 . S
C2307 H2295 0.930 . S
C2307 C2308 1.399 . S
C2307 C2312 1.399 . S
C2308 C2307 1.399 . S
C2308 C2309 1.376 . S
C2309 H2296 0.930 . S
C2309 C2308 1.376 . S
C2309 C2310 1.388 . S
C2310 H2297 0.930 . S
C2310 C2309 1.388 . S
C2310 C2311 1.390 . S
C2311 C2310 1.390 . S
C2311 C2312 1.394 . S
C2311 C2317 1.465 . S
C2312 C2307 1.399 . S
C2312 C2311 1.394 . S
C2312 C2313 1.516 . S
C2313 C2312 1.516 . S
C2313 C2314 1.502 . S
C2313 C2315 1.561 . S
C2313 C2316 1.526 . S
C2314 H2298 0.959 . S
C2314 H2299 0.959 . S
C2314 H2300 0.961 . S
C2314 C2313 1.502 . S
C2315 H2301 0.960 . S
C2315 H2302 0.961 . S
C2315 H2303 0.959 . S
C2315 C2313 1.561 . S
C2316 C2313 1.526 . S
C2316 C2317 1.396 . S
C2316 C2321 1.390 . S
C2317 C2311 1.465 . S
C2317 C2316 1.396 . S
C2317 C2318 1.399 . S
C2318 H2304 0.929 . S
C2318 C2317 1.399 . S
C2318 C2319 1.385 . S
C2319 H2305 0.931 . S
C2319 C2318 1.385 . S
C2319 C2320 1.389 . S
C2320 C2319 1.389 . S
C2320 C2321 1.387 . S
C2321 H2306 0.930 . S
C2321 C2316 1.390 . S
C2321 C2320 1.387 . S
H2322 C2334 0.930 . S
H2323 C2336 0.930 . S
H2324 C2337 0.930 . S
H2325 C2341 0.959 . S
H2326 C2341 0.959 . S
H2327 C2341 0.961 . S
H2328 C2342 0.960 . S
H2329 C2342 0.961 . S
H2330 C2342 0.959 . S
H2331 C2345 0.929 . S
H2332 C2346 0.931 . S
H2333 C2348 0.930 . S
C2334 H2322 0.930 . S
C2334 C2335 1.399 . S
C2334 C2339 1.399 . S
C2335 C2334 1.399 . S
C2335 C2336 1.376 . S
C2336 H2323 0.930 . S
C2336 C2335 1.376 . S
C2336 C2337 1.388 . S
C2337 H2324 0.930 . S
C2337 C2336 1.388 . S
C2337 C2338 1.390 . S
C2338 C2337 1.390 . S
C2338 C2339 1.394 . S
C2338 C2344 1.465 . S
C2339 C2334 1.399 . S
C2339 C2338 1.394 . S
C2339 C2340 1.516 . S
C2340 C2339 1.516 . S
C2340 C2341 1.502 . S
C2340 C2342 1.561 . S
C2340 C2343 1.526 . S
C2341 H2325 0.959 . S
C2341 H2326 0.959 . S
C2341 H2327 0.961 . S
C2341 C2340 1.502 . S
C2342 H2328 0.960 . S
C2342 H2329 0.961 . S
C2342 H2330 0.959 . S
C2342 C2340 1.561 . S
C2343 C2340 1.526 . S
C2343 C2344 1.396 . S
C2343 C2348 1.390 . S
C2344 C2338 1.465 . S
C2344 C2343 1.396 . S
C2344 C2345 1.399 . S
C2345 H2331 0.929 . S
C2345 C2344 1.399 . S
C2345 C2346 1.385 . S
C2346 H2332 0.931 . S
C2346 C2345 1.385 . S
C2346 C2347 1.389 . S
C2347 C2346 1.389 . S
C2347 C2348 1.387 . S
C2348 H2333 0.930 . S
C2348 C2343 1.390 . S
C2348 C2347 1.387 . S
H2349 C2361 0.930 . S
H2350 C2363 0.930 . S
H2351 C2364 0.930 . S
H2352 C2368 0.959 . S
H2353 C2368 0.959 . S
H2354 C2368 0.961 . S
H2355 C2369 0.960 . S
H2356 C2369 0.961 . S
H2357 C2369 0.959 . S
H2358 C2372 0.929 . S
H2359 C2373 0.931 . S
H2360 C2375 0.930 . S
C2361 H2349 0.930 . S
C2361 C2362 1.399 . S
C2361 C2366 1.399 . S
C2362 C2361 1.399 . S
C2362 C2363 1.376 . S
C2363 H2350 0.930 . S
C2363 C2362 1.376 . S
C2363 C2364 1.388 . S
C2364 H2351 0.930 . S
C2364 C2363 1.388 . S
C2364 C2365 1.390 . S
C2365 C2364 1.390 . S
C2365 C2366 1.394 . S
C2365 C2371 1.465 . S
C2366 C2361 1.399 . S
C2366 C2365 1.394 . S
C2366 C2367 1.516 . S
C2367 C2366 1.516 . S
C2367 C2368 1.502 . S
C2367 C2369 1.561 . S
C2367 C2370 1.526 . S
C2368 H2352 0.959 . S
C2368 H2353 0.959 . S
C2368 H2354 0.961 . S
C2368 C2367 1.502 . S
C2369 H2355 0.960 . S
C2369 H2356 0.961 . S
C2369 H2357 0.959 . S
C2369 C2367 1.561 . S
C2370 C2367 1.526 . S
C2370 C2371 1.396 . S
C2370 C2375 1.390 . S
C2371 C2365 1.465 . S
C2371 C2370 1.396 . S
C2371 C2372 1.399 . S
C2372 H2358 0.929 . S
C2372 C2371 1.399 . S
C2372 C2373 1.385 . S
C2373 H2359 0.931 . S
C2373 C2372 1.385 . S
C2373 C2374 1.389 . S
C2374 C2373 1.389 . S
C2374 C2375 1.387 . S
C2375 H2360 0.930 . S
C2375 C2370 1.390 . S
C2375 C2374 1.387 . S
H2376 C2388 0.930 . S
H2377 C2390 0.930 . S
H2378 C2391 0.930 . S
H2379 C2395 0.959 . S
H2380 C2395 0.959 . S
H2381 C2395 0.961 . S
H2382 C2396 0.960 . S
H2383 C2396 0.961 . S
H2384 C2396 0.959 . S
H2385 C2399 0.929 . S
H2386 C2400 0.931 . S
H2387 C2402 0.930 . S
C2388 H2376 0.930 . S
C2388 C2389 1.399 . S
C2388 C2393 1.399 . S
C2389 C2388 1.399 . S
C2389 C2390 1.376 . S
C2390 H2377 0.930 . S
C2390 C2389 1.376 . S
C2390 C2391 1.388 . S
C2391 H2378 0.930 . S
C2391 C2390 1.388 . S
C2391 C2392 1.390 . S
C2392 C2391 1.390 . S
C2392 C2393 1.394 . S
C2392 C2398 1.465 . S
C2393 C2388 1.399 . S
C2393 C2392 1.394 . S
C2393 C2394 1.516 . S
C2394 C2393 1.516 . S
C2394 C2395 1.502 . S
C2394 C2396 1.561 . S
C2394 C2397 1.526 . S
C2395 H2379 0.959 . S
C2395 H2380 0.959 . S
C2395 H2381 0.961 . S
C2395 C2394 1.502 . S
C2396 H2382 0.960 . S
C2396 H2383 0.961 . S
C2396 H2384 0.959 . S
C2396 C2394 1.561 . S
C2397 C2394 1.526 . S
C2397 C2398 1.396 . S
C2397 C2402 1.390 . S
C2398 C2392 1.465 . S
C2398 C2397 1.396 . S
C2398 C2399 1.399 . S
C2399 H2385 0.929 . S
C2399 C2398 1.399 . S
C2399 C2400 1.385 . S
C2400 H2386 0.931 . S
C2400 C2399 1.385 . S
C2400 C2401 1.389 . S
C2401 C2400 1.389 . S
C2401 C2402 1.387 . S
C2402 H2387 0.930 . S
C2402 C2397 1.390 . S
C2402 C2401 1.387 . S
H2403 C2415 0.930 . S
H2404 C2417 0.930 . S
H2405 C2418 0.930 . S
H2406 C2422 0.959 . S
H2407 C2422 0.959 . S
H2408 C2422 0.961 . S
H2409 C2423 0.960 . S
H2410 C2423 0.961 . S
H2411 C2423 0.959 . S
H2412 C2426 0.929 . S
H2413 C2427 0.931 . S
H2414 C2429 0.930 . S
C2415 H2403 0.930 . S
C2415 C2416 1.399 . S
C2415 C2420 1.399 . S
C2416 C2415 1.399 . S
C2416 C2417 1.376 . S
C2417 H2404 0.930 . S
C2417 C2416 1.376 . S
C2417 C2418 1.388 . S
C2418 H2405 0.930 . S
C2418 C2417 1.388 . S
C2418 C2419 1.390 . S
C2419 C2418 1.390 . S
C2419 C2420 1.394 . S
C2419 C2425 1.465 . S
C2420 C2415 1.399 . S
C2420 C2419 1.394 . S
C2420 C2421 1.516 . S
C2421 C2420 1.516 . S
C2421 C2422 1.502 . S
C2421 C2423 1.561 . S
C2421 C2424 1.526 . S
C2422 H2406 0.959 . S
C2422 H2407 0.959 . S
C2422 H2408 0.961 . S
C2422 C2421 1.502 . S
C2423 H2409 0.960 . S
C2423 H2410 0.961 . S
C2423 H2411 0.959 . S
C2423 C2421 1.561 . S
C2424 C2421 1.526 . S
C2424 C2425 1.396 . S
C2424 C2429 1.390 . S
C2425 C2419 1.465 . S
C2425 C2424 1.396 . S
C2425 C2426 1.399 . S
C2426 H2412 0.929 . S
C2426 C2425 1.399 . S
C2426 C2427 1.385 . S
C2427 H2413 0.931 . S
C2427 C2426 1.385 . S
C2427 C2428 1.389 . S
C2428 C2427 1.389 . S
C2428 C2429 1.387 . S
C2429 H2414 0.930 . S
C2429 C2424 1.390 . S
C2429 C2428 1.387 . S
H2430 C2442 0.930 . S
H2431 C2444 0.930 . S
H2432 C2445 0.930 . S
H2433 C2449 0.959 . S
H2434 C2449 0.959 . S
H2435 C2449 0.961 . S
H2436 C2450 0.960 . S
H2437 C2450 0.961 . S
H2438 C2450 0.959 . S
H2439 C2453 0.929 . S
H2440 C2454 0.931 . S
H2441 C2456 0.930 . S
C2442 H2430 0.930 . S
C2442 C2443 1.399 . S
C2442 C2447 1.399 . S
C2443 C2442 1.399 . S
C2443 C2444 1.376 . S
C2444 H2431 0.930 . S
C2444 C2443 1.376 . S
C2444 C2445 1.388 . S
C2445 H2432 0.930 . S
C2445 C2444 1.388 . S
C2445 C2446 1.390 . S
C2446 C2445 1.390 . S
C2446 C2447 1.394 . S
C2446 C2452 1.465 . S
C2447 C2442 1.399 . S
C2447 C2446 1.394 . S
C2447 C2448 1.516 . S
C2448 C2447 1.516 . S
C2448 C2449 1.502 . S
C2448 C2450 1.561 . S
C2448 C2451 1.526 . S
C2449 H2433 0.959 . S
C2449 H2434 0.959 . S
C2449 H2435 0.961 . S
C2449 C2448 1.502 . S
C2450 H2436 0.960 . S
C2450 H2437 0.961 . S
C2450 H2438 0.959 . S
C2450 C2448 1.561 . S
C2451 C2448 1.526 . S
C2451 C2452 1.396 . S
C2451 C2456 1.390 . S
C2452 C2446 1.465 . S
C2452 C2451 1.396 . S
C2452 C2453 1.399 . S
C2453 H2439 0.929 . S
C2453 C2452 1.399 . S
C2453 C2454 1.385 . S
C2454 H2440 0.931 . S
C2454 C2453 1.385 . S
C2454 C2455 1.389 . S
C2455 C2454 1.389 . S
C2455 C2456 1.387 . S
C2456 H2441 0.930 . S
C2456 C2451 1.390 . S
C2456 C2455 1.387 . S
H2457 C2469 0.930 . S
H2458 C2471 0.930 . S
H2459 C2472 0.930 . S
H2460 C2476 0.959 . S
H2461 C2476 0.959 . S
H2462 C2476 0.961 . S
H2463 C2477 0.960 . S
H2464 C2477 0.961 . S
H2465 C2477 0.959 . S
H2466 C2480 0.929 . S
H2467 C2481 0.931 . S
H2468 C2483 0.930 . S
C2469 H2457 0.930 . S
C2469 C2470 1.399 1_556 S
C2469 C2474 1.399 . S
C2470 C2469 1.399 1_554 S
C2470 C2471 1.376 . S
C2471 H2458 0.930 . S
C2471 C2470 1.376 . S
C2471 C2472 1.388 . S
C2472 H2459 0.930 . S
C2472 C2471 1.388 . S
C2472 C2473 1.390 . S
C2473 C2472 1.390 . S
C2473 C2474 1.394 1_554 S
C2473 C2479 1.465 . S
C2474 C2469 1.399 . S
C2474 C2473 1.394 1_556 S
C2474 C2475 1.516 . S
C2475 C2474 1.516 . S
C2475 C2476 1.502 . S
C2475 C2477 1.561 . S
C2475 C2478 1.526 . S
C2476 H2460 0.959 . S
C2476 H2461 0.959 . S
C2476 H2462 0.961 . S
C2476 C2475 1.502 . S
C2477 H2463 0.960 . S
C2477 H2464 0.961 . S
C2477 H2465 0.959 . S
C2477 C2475 1.561 . S
C2478 C2475 1.526 . S
C2478 C2479 1.396 1_556 S
C2478 C2483 1.390 . S
C2479 C2473 1.465 . S
C2479 C2478 1.396 1_554 S
C2479 C2480 1.399 . S
C2480 H2466 0.929 . S
C2480 C2479 1.399 . S
C2480 C2481 1.385 . S
C2481 H2467 0.931 . S
C2481 C2480 1.385 . S
C2481 C2482 1.389 . S
C2482 C2481 1.389 . S
C2482 C2483 1.387 1_554 S
C2483 H2468 0.930 . S
C2483 C2478 1.390 . S
C2483 C2482 1.387 1_556 S
H2484 C2496 0.930 . S
H2485 C2498 0.930 . S
H2486 C2499 0.930 . S
H2487 C2503 0.959 . S
H2488 C2503 0.959 . S
H2489 C2503 0.961 . S
H2490 C2504 0.960 . S
H2491 C2504 0.961 . S
H2492 C2504 0.959 . S
H2493 C2507 0.929 . S
H2494 C2508 0.931 . S
H2495 C2510 0.930 . S
C2496 H2484 0.930 . S
C2496 C2497 1.399 . S
C2496 C2501 1.399 . S
C2497 C2496 1.399 . S
C2497 C2498 1.376 . S
C2498 H2485 0.930 . S
C2498 C2497 1.376 . S
C2498 C2499 1.388 . S
C2499 H2486 0.930 . S
C2499 C2498 1.388 . S
C2499 C2500 1.390 . S
C2500 C2499 1.390 . S
C2500 C2501 1.394 . S
C2500 C2506 1.465 . S
C2501 C2496 1.399 . S
C2501 C2500 1.394 . S
C2501 C2502 1.516 . S
C2502 C2501 1.516 . S
C2502 C2503 1.502 . S
C2502 C2504 1.561 . S
C2502 C2505 1.526 . S
C2503 H2487 0.959 . S
C2503 H2488 0.959 . S
C2503 H2489 0.961 . S
C2503 C2502 1.502 . S
C2504 H2490 0.960 . S
C2504 H2491 0.961 . S
C2504 H2492 0.959 . S
C2504 C2502 1.561 . S
C2505 C2502 1.526 . S
C2505 C2506 1.396 . S
C2505 C2510 1.390 . S
C2506 C2500 1.465 . S
C2506 C2505 1.396 . S
C2506 C2507 1.399 . S
C2507 H2493 0.929 . S
C2507 C2506 1.399 . S
C2507 C2508 1.385 . S
C2508 H2494 0.931 . S
C2508 C2507 1.385 . S
C2508 C2509 1.389 . S
C2509 C2508 1.389 . S
C2509 C2510 1.387 . S
C2510 H2495 0.930 . S
C2510 C2505 1.390 . S
C2510 C2509 1.387 . S
H2511 C2523 0.930 . S
H2512 C2525 0.930 . S
H2513 C2526 0.930 . S
H2514 C2530 0.959 1_554 S
H2515 C2530 0.959 . S
H2516 C2530 0.961 . S
H2517 C2531 0.960 . S
H2518 C2531 0.961 . S
H2519 C2531 0.959 . S
H2520 C2534 0.929 . S
H2521 C2535 0.931 . S
H2522 C2537 0.930 . S
C2523 H2511 0.930 . S
C2523 C2524 1.399 1_556 S
C2523 C2528 1.399 . S
C2524 C2523 1.399 1_554 S
C2524 C2525 1.376 . S
C2525 H2512 0.930 . S
C2525 C2524 1.376 . S
C2525 C2526 1.388 . S
C2526 H2513 0.930 . S
C2526 C2525 1.388 . S
C2526 C2527 1.390 . S
C2527 C2526 1.390 . S
C2527 C2528 1.394 1_554 S
C2527 C2533 1.465 . S
C2528 C2523 1.399 . S
C2528 C2527 1.394 1_556 S
C2528 C2529 1.516 . S
C2529 C2528 1.516 . S
C2529 C2530 1.502 . S
C2529 C2531 1.561 . S
C2529 C2532 1.526 . S
C2530 H2514 0.959 1_556 S
C2530 H2515 0.959 . S
C2530 H2516 0.961 . S
C2530 C2529 1.502 . S
C2531 H2517 0.960 . S
C2531 H2518 0.961 . S
C2531 H2519 0.959 . S
C2531 C2529 1.561 . S
C2532 C2529 1.526 . S
C2532 C2533 1.396 1_556 S
C2532 C2537 1.390 . S
C2533 C2527 1.465 . S
C2533 C2532 1.396 1_554 S
C2533 C2534 1.399 . S
C2534 H2520 0.929 . S
C2534 C2533 1.399 . S
C2534 C2535 1.385 . S
C2535 H2521 0.931 . S
C2535 C2534 1.385 . S
C2535 C2536 1.389 1_554 S
C2536 C2535 1.389 1_556 S
C2536 C2537 1.387 . S
C2537 H2522 0.930 . S
C2537 C2532 1.390 . S
C2537 C2536 1.387 . S
H2538 C2550 0.930 . S
H2539 C2552 0.930 . S
H2540 C2553 0.930 . S
H2541 C2557 0.959 . S
H2542 C2557 0.959 . S
H2543 C2557 0.961 . S
H2544 C2558 0.960 . S
H2545 C2558 0.961 . S
H2546 C2558 0.959 . S
H2547 C2561 0.929 . S
H2548 C2562 0.931 . S
H2549 C2564 0.930 . S
C2550 H2538 0.930 . S
C2550 C2551 1.399 . S
C2550 C2555 1.399 . S
C2551 C2550 1.399 . S
C2551 C2552 1.376 . S
C2552 H2539 0.930 . S
C2552 C2551 1.376 . S
C2552 C2553 1.388 . S
C2553 H2540 0.930 . S
C2553 C2552 1.388 . S
C2553 C2554 1.390 . S
C2554 C2553 1.390 . S
C2554 C2555 1.394 . S
C2554 C2560 1.465 . S
C2555 C2550 1.399 . S
C2555 C2554 1.394 . S
C2555 C2556 1.516 . S
C2556 C2555 1.516 . S
C2556 C2557 1.502 . S
C2556 C2558 1.561 . S
C2556 C2559 1.526 . S
C2557 H2541 0.959 . S
C2557 H2542 0.959 . S
C2557 H2543 0.961 . S
C2557 C2556 1.502 . S
C2558 H2544 0.960 . S
C2558 H2545 0.961 . S
C2558 H2546 0.959 . S
C2558 C2556 1.561 . S
C2559 C2556 1.526 . S
C2559 C2560 1.396 . S
C2559 C2564 1.390 . S
C2560 C2554 1.465 . S
C2560 C2559 1.396 . S
C2560 C2561 1.399 . S
C2561 H2547 0.929 . S
C2561 C2560 1.399 . S
C2561 C2562 1.385 . S
C2562 H2548 0.931 . S
C2562 C2561 1.385 . S
C2562 C2563 1.389 . S
C2563 C2562 1.389 . S
C2563 C2564 1.387 . S
C2564 H2549 0.930 . S
C2564 C2559 1.390 . S
C2564 C2563 1.387 . S
H2565 C2577 0.930 . S
H2566 C2579 0.930 . S
H2567 C2580 0.930 . S
H2568 C2584 0.959 . S
H2569 C2584 0.959 . S
H2570 C2584 0.961 . S
H2571 C2585 0.960 . S
H2572 C2585 0.961 . S
H2573 C2585 0.959 . S
H2574 C2588 0.929 . S
H2575 C2589 0.931 . S
H2576 C2591 0.930 . S
C2577 H2565 0.930 . S
C2577 C2578 1.399 . S
C2577 C2582 1.399 . S
C2578 C2577 1.399 . S
C2578 C2579 1.376 . S
C2579 H2566 0.930 . S
C2579 C2578 1.376 . S
C2579 C2580 1.388 . S
C2580 H2567 0.930 . S
C2580 C2579 1.388 . S
C2580 C2581 1.390 . S
C2581 C2580 1.390 . S
C2581 C2582 1.394 . S
C2581 C2587 1.465 . S
C2582 C2577 1.399 . S
C2582 C2581 1.394 . S
C2582 C2583 1.516 . S
C2583 C2582 1.516 . S
C2583 C2584 1.502 . S
C2583 C2585 1.561 . S
C2583 C2586 1.526 . S
C2584 H2568 0.959 . S
C2584 H2569 0.959 . S
C2584 H2570 0.961 . S
C2584 C2583 1.502 . S
C2585 H2571 0.960 . S
C2585 H2572 0.961 . S
C2585 H2573 0.959 . S
C2585 C2583 1.561 . S
C2586 C2583 1.526 . S
C2586 C2587 1.396 . S
C2586 C2591 1.390 . S
C2587 C2581 1.465 . S
C2587 C2586 1.396 . S
C2587 C2588 1.399 . S
C2588 H2574 0.929 . S
C2588 C2587 1.399 . S
C2588 C2589 1.385 . S
C2589 H2575 0.931 . S
C2589 C2588 1.385 . S
C2589 C2590 1.389 . S
C2590 C2589 1.389 . S
C2590 C2591 1.387 . S
C2591 H2576 0.930 . S
C2591 C2586 1.390 . S
C2591 C2590 1.387 . S
H2592 C2604 0.930 . S
H2593 C2606 0.930 . S
H2594 C2607 0.930 . S
H2595 C2611 0.959 . S
H2596 C2611 0.959 . S
H2597 C2611 0.961 . S
H2598 C2612 0.960 . S
H2599 C2612 0.961 . S
H2600 C2612 0.959 . S
H2601 C2615 0.929 . S
H2602 C2616 0.931 . S
H2603 C2618 0.930 . S
C2604 H2592 0.930 . S
C2604 C2605 1.399 . S
C2604 C2609 1.399 . S
C2605 C2604 1.399 . S
C2605 C2606 1.376 . S
C2606 H2593 0.930 . S
C2606 C2605 1.376 . S
C2606 C2607 1.388 . S
C2607 H2594 0.930 . S
C2607 C2606 1.388 . S
C2607 C2608 1.390 . S
C2608 C2607 1.390 . S
C2608 C2609 1.394 . S
C2608 C2614 1.465 . S
C2609 C2604 1.399 . S
C2609 C2608 1.394 . S
C2609 C2610 1.516 . S
C2610 C2609 1.516 . S
C2610 C2611 1.502 . S
C2610 C2612 1.561 . S
C2610 C2613 1.526 . S
C2611 H2595 0.959 . S
C2611 H2596 0.959 . S
C2611 H2597 0.961 . S
C2611 C2610 1.502 . S
C2612 H2598 0.960 . S
C2612 H2599 0.961 . S
C2612 H2600 0.959 . S
C2612 C2610 1.561 . S
C2613 C2610 1.526 . S
C2613 C2614 1.396 . S
C2613 C2618 1.390 . S
C2614 C2608 1.465 . S
C2614 C2613 1.396 . S
C2614 C2615 1.399 . S
C2615 H2601 0.929 . S
C2615 C2614 1.399 . S
C2615 C2616 1.385 . S
C2616 H2602 0.931 . S
C2616 C2615 1.385 . S
C2616 C2617 1.389 . S
C2617 C2616 1.389 . S
C2617 C2618 1.387 . S
C2618 H2603 0.930 . S
C2618 C2613 1.390 . S
C2618 C2617 1.387 . S
H2619 C2631 0.930 . S
H2620 C2633 0.930 . S
H2621 C2634 0.930 . S
H2622 C2638 0.959 . S
H2623 C2638 0.959 . S
H2624 C2638 0.961 . S
H2625 C2639 0.960 . S
H2626 C2639 0.961 . S
H2627 C2639 0.959 . S
H2628 C2642 0.929 . S
H2629 C2643 0.931 . S
H2630 C2645 0.930 . S
C2631 H2619 0.930 . S
C2631 C2632 1.399 . S
C2631 C2636 1.399 . S
C2632 C2631 1.399 . S
C2632 C2633 1.376 . S
C2633 H2620 0.930 . S
C2633 C2632 1.376 . S
C2633 C2634 1.388 . S
C2634 H2621 0.930 . S
C2634 C2633 1.388 . S
C2634 C2635 1.390 . S
C2635 C2634 1.390 . S
C2635 C2636 1.394 . S
C2635 C2641 1.465 . S
C2636 C2631 1.399 . S
C2636 C2635 1.394 . S
C2636 C2637 1.516 . S
C2637 C2636 1.516 . S
C2637 C2638 1.502 . S
C2637 C2639 1.561 . S
C2637 C2640 1.526 . S
C2638 H2622 0.959 . S
C2638 H2623 0.959 . S
C2638 H2624 0.961 . S
C2638 C2637 1.502 . S
C2639 H2625 0.960 . S
C2639 H2626 0.961 . S
C2639 H2627 0.959 . S
C2639 C2637 1.561 . S
C2640 C2637 1.526 . S
C2640 C2641 1.396 . S
C2640 C2645 1.390 . S
C2641 C2635 1.465 . S
C2641 C2640 1.396 . S
C2641 C2642 1.399 . S
C2642 H2628 0.929 . S
C2642 C2641 1.399 . S
C2642 C2643 1.385 . S
C2643 H2629 0.931 . S
C2643 C2642 1.385 . S
C2643 C2644 1.389 . S
C2644 C2643 1.389 . S
C2644 C2645 1.387 . S
C2645 H2630 0.930 . S
C2645 C2640 1.390 . S
C2645 C2644 1.387 . S
H2646 C2658 0.930 . S
H2647 C2660 0.930 . S
H2648 C2661 0.930 . S
H2649 C2665 0.959 . S
H2650 C2665 0.959 . S
H2651 C2665 0.961 . S
H2652 C2666 0.960 . S
H2653 C2666 0.961 . S
H2654 C2666 0.959 . S
H2655 C2669 0.929 . S
H2656 C2670 0.931 . S
H2657 C2672 0.930 . S
C2658 H2646 0.930 . S
C2658 C2659 1.399 1_655 S
C2658 C2663 1.399 . S
C2659 C2658 1.399 1_455 S
C2659 C2660 1.376 . S
C2660 H2647 0.930 . S
C2660 C2659 1.376 . S
C2660 C2661 1.388 . S
C2661 H2648 0.930 . S
C2661 C2660 1.388 . S
C2661 C2662 1.390 . S
C2662 C2661 1.390 . S
C2662 C2663 1.394 1_455 S
C2662 C2668 1.465 . S
C2663 C2658 1.399 . S
C2663 C2662 1.394 1_655 S
C2663 C2664 1.516 . S
C2664 C2663 1.516 . S
C2664 C2665 1.502 . S
C2664 C2666 1.561 . S
C2664 C2667 1.526 . S
C2665 H2649 0.959 . S
C2665 H2650 0.959 . S
C2665 H2651 0.961 . S
C2665 C2664 1.502 . S
C2666 H2652 0.960 . S
C2666 H2653 0.961 . S
C2666 H2654 0.959 . S
C2666 C2664 1.561 . S
C2667 C2664 1.526 . S
C2667 C2668 1.396 1_655 S
C2667 C2672 1.390 . S
C2668 C2662 1.465 . S
C2668 C2667 1.396 1_455 S
C2668 C2669 1.399 . S
C2669 H2655 0.929 . S
C2669 C2668 1.399 . S
C2669 C2670 1.385 . S
C2670 H2656 0.931 . S
C2670 C2669 1.385 . S
C2670 C2671 1.389 1_455 S
C2671 C2670 1.389 1_655 S
C2671 C2672 1.387 . S
C2672 H2657 0.930 . S
C2672 C2667 1.390 . S
C2672 C2671 1.387 . S
H2673 C2685 0.930 . S
H2674 C2687 0.930 . S
H2675 C2688 0.930 . S
H2676 C2692 0.959 . S
H2677 C2692 0.959 . S
H2678 C2692 0.961 . S
H2679 C2693 0.960 . S
H2680 C2693 0.961 . S
H2681 C2693 0.959 . S
H2682 C2696 0.929 . S
H2683 C2697 0.931 . S
H2684 C2699 0.930 . S
C2685 H2673 0.930 . S
C2685 C2686 1.399 . S
C2685 C2690 1.399 . S
C2686 C2685 1.399 . S
C2686 C2687 1.376 . S
C2687 H2674 0.930 . S
C2687 C2686 1.376 . S
C2687 C2688 1.388 . S
C2688 H2675 0.930 . S
C2688 C2687 1.388 . S
C2688 C2689 1.390 . S
C2689 C2688 1.390 . S
C2689 C2690 1.394 . S
C2689 C2695 1.465 . S
C2690 C2685 1.399 . S
C2690 C2689 1.394 . S
C2690 C2691 1.516 . S
C2691 C2690 1.516 . S
C2691 C2692 1.502 . S
C2691 C2693 1.561 . S
C2691 C2694 1.526 . S
C2692 H2676 0.959 . S
C2692 H2677 0.959 . S
C2692 H2678 0.961 . S
C2692 C2691 1.502 . S
C2693 H2679 0.960 . S
C2693 H2680 0.961 . S
C2693 H2681 0.959 . S
C2693 C2691 1.561 . S
C2694 C2691 1.526 . S
C2694 C2695 1.396 . S
C2694 C2699 1.390 . S
C2695 C2689 1.465 . S
C2695 C2694 1.396 . S
C2695 C2696 1.399 . S
C2696 H2682 0.929 . S
C2696 C2695 1.399 . S
C2696 C2697 1.385 . S
C2697 H2683 0.931 . S
C2697 C2696 1.385 . S
C2697 C2698 1.389 . S
C2698 C2697 1.389 . S
C2698 C2699 1.387 . S
C2699 H2684 0.930 . S
C2699 C2694 1.390 . S
C2699 C2698 1.387 . S
H2700 C2712 0.930 . S
H2701 C2714 0.930 . S
H2702 C2715 0.930 . S
H2703 C2719 0.959 . S
H2704 C2719 0.959 . S
H2705 C2719 0.961 . S
H2706 C2720 0.960 . S
H2707 C2720 0.961 . S
H2708 C2720 0.959 . S
H2709 C2723 0.929 . S
H2710 C2724 0.931 . S
H2711 C2726 0.930 . S
C2712 H2700 0.930 . S
C2712 C2713 1.399 . S
C2712 C2717 1.399 . S
C2713 C2712 1.399 . S
C2713 C2714 1.376 . S
C2714 H2701 0.930 . S
C2714 C2713 1.376 . S
C2714 C2715 1.388 . S
C2715 H2702 0.930 . S
C2715 C2714 1.388 . S
C2715 C2716 1.390 . S
C2716 C2715 1.390 . S
C2716 C2717 1.394 . S
C2716 C2722 1.465 . S
C2717 C2712 1.399 . S
C2717 C2716 1.394 . S
C2717 C2718 1.516 . S
C2718 C2717 1.516 . S
C2718 C2719 1.502 . S
C2718 C2720 1.561 . S
C2718 C2721 1.526 . S
C2719 H2703 0.959 . S
C2719 H2704 0.959 . S
C2719 H2705 0.961 . S
C2719 C2718 1.502 . S
C2720 H2706 0.960 . S
C2720 H2707 0.961 . S
C2720 H2708 0.959 . S
C2720 C2718 1.561 . S
C2721 C2718 1.526 . S
C2721 C2722 1.396 . S
C2721 C2726 1.390 . S
C2722 C2716 1.465 . S
C2722 C2721 1.396 . S
C2722 C2723 1.399 . S
C2723 H2709 0.929 . S
C2723 C2722 1.399 . S
C2723 C2724 1.385 . S
C2724 H2710 0.931 . S
C2724 C2723 1.385 . S
C2724 C2725 1.389 . S
C2725 C2724 1.389 . S
C2725 C2726 1.387 . S
C2726 H2711 0.930 . S
C2726 C2721 1.390 . S
C2726 C2725 1.387 . S
H2727 C2739 0.930 . S
H2728 C2741 0.930 . S
H2729 C2742 0.930 . S
H2730 C2746 0.959 . S
H2731 C2746 0.959 . S
H2732 C2746 0.961 . S
H2733 C2747 0.960 . S
H2734 C2747 0.961 . S
H2735 C2747 0.959 . S
H2736 C2750 0.929 . S
H2737 C2751 0.931 . S
H2738 C2753 0.930 . S
C2739 H2727 0.930 . S
C2739 C2740 1.399 . S
C2739 C2744 1.399 . S
C2740 C2739 1.399 . S
C2740 C2741 1.376 . S
C2741 H2728 0.930 . S
C2741 C2740 1.376 . S
C2741 C2742 1.388 . S
C2742 H2729 0.930 . S
C2742 C2741 1.388 . S
C2742 C2743 1.390 . S
C2743 C2742 1.390 . S
C2743 C2744 1.394 . S
C2743 C2749 1.465 . S
C2744 C2739 1.399 . S
C2744 C2743 1.394 . S
C2744 C2745 1.516 . S
C2745 C2744 1.516 . S
C2745 C2746 1.502 . S
C2745 C2747 1.561 . S
C2745 C2748 1.526 . S
C2746 H2730 0.959 . S
C2746 H2731 0.959 . S
C2746 H2732 0.961 . S
C2746 C2745 1.502 . S
C2747 H2733 0.960 . S
C2747 H2734 0.961 . S
C2747 H2735 0.959 . S
C2747 C2745 1.561 . S
C2748 C2745 1.526 . S
C2748 C2749 1.396 . S
C2748 C2753 1.390 . S
C2749 C2743 1.465 . S
C2749 C2748 1.396 . S
C2749 C2750 1.399 . S
C2750 H2736 0.929 . S
C2750 C2749 1.399 . S
C2750 C2751 1.385 . S
C2751 H2737 0.931 . S
C2751 C2750 1.385 . S
C2751 C2752 1.389 . S
C2752 C2751 1.389 . S
C2752 C2753 1.387 . S
C2753 H2738 0.930 . S
C2753 C2748 1.390 . S
C2753 C2752 1.387 . S
H2754 C2766 0.930 . S
H2755 C2768 0.930 . S
H2756 C2769 0.930 . S
H2757 C2773 0.959 . S
H2758 C2773 0.959 . S
H2759 C2773 0.961 . S
H2760 C2774 0.960 . S
H2761 C2774 0.961 . S
H2762 C2774 0.959 1_655 S
H2763 C2777 0.929 . S
H2764 C2778 0.931 . S
H2765 C2780 0.930 . S
C2766 H2754 0.930 . S
C2766 C2767 1.389 1_455 S
C2766 C2771 1.399 . S
C2767 C2766 1.389 1_655 S
C2767 C2768 1.391 . S
C2768 H2755 0.930 . S
C2768 C2767 1.391 . S
C2768 C2769 1.388 . S
C2769 H2756 0.930 . S
C2769 C2768 1.388 . S
C2769 C2770 1.390 . S
C2770 C2769 1.390 . S
C2770 C2771 1.394 1_655 S
C2770 C2776 1.465 . S
C2771 C2766 1.399 . S
C2771 C2770 1.394 1_455 S
C2771 C2772 1.516 . S
C2772 C2771 1.516 . S
C2772 C2773 1.502 . S
C2772 C2774 1.561 . S
C2772 C2775 1.526 . S
C2773 H2757 0.959 . S
C2773 H2758 0.959 . S
C2773 H2759 0.961 . S
C2773 C2772 1.502 . S
C2774 H2760 0.960 . S
C2774 H2761 0.961 . S
C2774 H2762 0.959 1_455 S
C2774 C2772 1.561 . S
C2775 C2772 1.526 . S
C2775 C2776 1.396 1_455 S
C2775 C2780 1.390 . S
C2776 C2770 1.465 . S
C2776 C2775 1.396 1_655 S
C2776 C2777 1.399 . S
C2777 H2763 0.929 . S
C2777 C2776 1.399 . S
C2777 C2778 1.385 . S
C2778 H2764 0.931 . S
C2778 C2777 1.385 . S
C2778 C2779 1.389 . S
C2779 C2778 1.389 . S
C2779 C2780 1.387 1_655 S
C2780 H2765 0.930 . S
C2780 C2775 1.390 . S
C2780 C2779 1.387 1_455 S
H2781 C2793 0.930 . S
H2782 C2795 0.930 . S
H2783 C2796 0.930 . S
H2784 C2800 0.959 . S
H2785 C2800 0.959 . S
H2786 C2800 0.961 . S
H2787 C2801 0.960 . S
H2788 C2801 0.961 . S
H2789 C2801 0.959 . S
H2790 C2804 0.929 . S
H2791 C2805 0.931 . S
H2792 C2807 0.930 . S
C2793 H2781 0.930 . S
C2793 C2794 1.399 . S
C2793 C2798 1.399 . S
C2794 C2793 1.399 . S
C2794 C2795 1.376 . S
C2795 H2782 0.930 . S
C2795 C2794 1.376 . S
C2795 C2796 1.388 . S
C2796 H2783 0.930 . S
C2796 C2795 1.388 . S
C2796 C2797 1.390 . S
C2797 C2796 1.390 . S
C2797 C2798 1.394 . S
C2797 C2803 1.465 . S
C2798 C2793 1.399 . S
C2798 C2797 1.394 . S
C2798 C2799 1.516 . S
C2799 C2798 1.516 . S
C2799 C2800 1.502 . S
C2799 C2801 1.561 . S
C2799 C2802 1.526 . S
C2800 H2784 0.959 . S
C2800 H2785 0.959 . S
C2800 H2786 0.961 . S
C2800 C2799 1.502 . S
C2801 H2787 0.960 . S
C2801 H2788 0.961 . S
C2801 H2789 0.959 . S
C2801 C2799 1.561 . S
C2802 C2799 1.526 . S
C2802 C2803 1.396 . S
C2802 C2807 1.390 . S
C2803 C2797 1.465 . S
C2803 C2802 1.396 . S
C2803 C2804 1.399 . S
C2804 H2790 0.929 . S
C2804 C2803 1.399 . S
C2804 C2805 1.385 . S
C2805 H2791 0.931 . S
C2805 C2804 1.385 . S
C2805 C2806 1.389 . S
C2806 C2805 1.389 . S
C2806 C2807 1.387 . S
C2807 H2792 0.930 . S
C2807 C2802 1.390 . S
C2807 C2806 1.387 . S
H2808 C2820 0.930 . S
H2809 C2822 0.930 . S
H2810 C2823 0.930 . S
H2811 C2827 0.959 . S
H2812 C2827 0.959 . S
H2813 C2827 0.961 . S
H2814 C2828 0.960 . S
H2815 C2828 0.961 . S
H2816 C2828 0.959 . S
H2817 C2831 0.929 . S
H2818 C2832 0.931 . S
H2819 C2834 0.930 . S
C2820 H2808 0.930 . S
C2820 C2821 1.399 . S
C2820 C2825 1.399 . S
C2821 C2820 1.399 . S
C2821 C2822 1.376 . S
C2822 H2809 0.930 . S
C2822 C2821 1.376 . S
C2822 C2823 1.388 . S
C2823 H2810 0.930 . S
C2823 C2822 1.388 . S
C2823 C2824 1.390 . S
C2824 C2823 1.390 . S
C2824 C2825 1.394 . S
C2824 C2830 1.465 . S
C2825 C2820 1.399 . S
C2825 C2824 1.394 . S
C2825 C2826 1.516 . S
C2826 C2825 1.516 . S
C2826 C2827 1.502 . S
C2826 C2828 1.561 . S
C2826 C2829 1.526 . S
C2827 H2811 0.959 . S
C2827 H2812 0.959 . S
C2827 H2813 0.961 . S
C2827 C2826 1.502 . S
C2828 H2814 0.960 . S
C2828 H2815 0.961 . S
C2828 H2816 0.959 . S
C2828 C2826 1.561 . S
C2829 C2826 1.526 . S
C2829 C2830 1.396 . S
C2829 C2834 1.390 . S
C2830 C2824 1.465 . S
C2830 C2829 1.396 . S
C2830 C2831 1.399 . S
C2831 H2817 0.929 . S
C2831 C2830 1.399 . S
C2831 C2832 1.385 . S
C2832 H2818 0.931 . S
C2832 C2831 1.385 . S
C2832 C2833 1.389 . S
C2833 C2832 1.389 . S
C2833 C2834 1.387 . S
C2834 H2819 0.930 . S
C2834 C2829 1.390 . S
C2834 C2833 1.387 . S
H2835 C2847 0.930 . S
H2836 C2849 0.930 . S
H2837 C2850 0.930 . S
H2838 C2854 0.959 . S
H2839 C2854 0.959 . S
H2840 C2854 0.961 . S
H2841 C2855 0.960 . S
H2842 C2855 0.961 . S
H2843 C2855 0.959 . S
H2844 C2858 0.929 . S
H2845 C2859 0.931 . S
H2846 C2861 0.930 . S
C2847 H2835 0.930 . S
C2847 C2848 1.399 . S
C2847 C2852 1.399 . S
C2848 C2847 1.399 . S
C2848 C2849 1.376 . S
C2849 H2836 0.930 . S
C2849 C2848 1.376 . S
C2849 C2850 1.388 . S
C2850 H2837 0.930 . S
C2850 C2849 1.388 . S
C2850 C2851 1.390 . S
C2851 C2850 1.390 . S
C2851 C2852 1.394 . S
C2851 C2857 1.465 . S
C2852 C2847 1.399 . S
C2852 C2851 1.394 . S
C2852 C2853 1.516 . S
C2853 C2852 1.516 . S
C2853 C2854 1.502 . S
C2853 C2855 1.561 . S
C2853 C2856 1.526 . S
C2854 H2838 0.959 . S
C2854 H2839 0.959 . S
C2854 H2840 0.961 . S
C2854 C2853 1.502 . S
C2855 H2841 0.960 . S
C2855 H2842 0.961 . S
C2855 H2843 0.959 . S
C2855 C2853 1.561 . S
C2856 C2853 1.526 . S
C2856 C2857 1.396 . S
C2856 C2861 1.390 . S
C2857 C2851 1.465 . S
C2857 C2856 1.396 . S
C2857 C2858 1.399 . S
C2858 H2844 0.929 . S
C2858 C2857 1.399 . S
C2858 C2859 1.385 . S
C2859 H2845 0.931 . S
C2859 C2858 1.385 . S
C2859 C2860 1.389 . S
C2860 C2859 1.389 . S
C2860 C2861 1.387 . S
C2861 H2846 0.930 . S
C2861 C2856 1.390 . S
C2861 C2860 1.387 . S
H2862 C2874 0.930 . S
H2863 C2876 0.930 . S
H2864 C2877 0.930 . S
H2865 C2881 0.959 . S
H2866 C2881 0.959 . S
H2867 C2881 0.961 . S
H2868 C2882 0.960 . S
H2869 C2882 0.961 . S
H2870 C2882 0.959 . S
H2871 C2885 0.929 . S
H2872 C2886 0.931 . S
H2873 C2888 0.930 . S
C2874 H2862 0.930 . S
C2874 C2875 1.399 . S
C2874 C2879 1.399 . S
C2875 C2874 1.399 . S
C2875 C2876 1.376 . S
C2876 H2863 0.930 . S
C2876 C2875 1.376 . S
C2876 C2877 1.388 . S
C2877 H2864 0.930 . S
C2877 C2876 1.388 . S
C2877 C2878 1.390 . S
C2878 C2877 1.390 . S
C2878 C2879 1.394 . S
C2878 C2884 1.465 . S
C2879 C2874 1.399 . S
C2879 C2878 1.394 . S
C2879 C2880 1.516 . S
C2880 C2879 1.516 . S
C2880 C2881 1.502 . S
C2880 C2882 1.561 . S
C2880 C2883 1.526 . S
C2881 H2865 0.959 . S
C2881 H2866 0.959 . S
C2881 H2867 0.961 . S
C2881 C2880 1.502 . S
C2882 H2868 0.960 . S
C2882 H2869 0.961 . S
C2882 H2870 0.959 . S
C2882 C2880 1.561 . S
C2883 C2880 1.526 . S
C2883 C2884 1.396 . S
C2883 C2888 1.390 . S
C2884 C2878 1.465 . S
C2884 C2883 1.396 . S
C2884 C2885 1.399 . S
C2885 H2871 0.929 . S
C2885 C2884 1.399 . S
C2885 C2886 1.385 . S
C2886 H2872 0.931 . S
C2886 C2885 1.385 . S
C2886 C2887 1.389 . S
C2887 C2886 1.389 . S
C2887 C2888 1.387 . S
C2888 H2873 0.930 . S
C2888 C2883 1.390 . S
C2888 C2887 1.387 . S
H2889 C2901 0.930 . S
H2890 C2903 0.930 . S
H2891 C2904 0.930 . S
H2892 C2908 0.959 . S
H2893 C2908 0.959 . S
H2894 C2908 0.961 . S
H2895 C2909 0.960 . S
H2896 C2909 0.961 . S
H2897 C2909 0.959 . S
H2898 C2912 0.929 . S
H2899 C2913 0.931 . S
H2900 C2915 0.930 . S
C2901 H2889 0.930 . S
C2901 C2902 1.399 . S
C2901 C2906 1.399 . S
C2902 C2901 1.399 . S
C2902 C2903 1.376 . S
C2903 H2890 0.930 . S
C2903 C2902 1.376 . S
C2903 C2904 1.388 . S
C2904 H2891 0.930 . S
C2904 C2903 1.388 . S
C2904 C2905 1.390 . S
C2905 C2904 1.390 . S
C2905 C2906 1.394 . S
C2905 C2911 1.465 . S
C2906 C2901 1.399 . S
C2906 C2905 1.394 . S
C2906 C2907 1.516 . S
C2907 C2906 1.516 . S
C2907 C2908 1.502 . S
C2907 C2909 1.561 . S
C2907 C2910 1.526 . S
C2908 H2892 0.959 . S
C2908 H2893 0.959 . S
C2908 H2894 0.961 . S
C2908 C2907 1.502 . S
C2909 H2895 0.960 . S
C2909 H2896 0.961 . S
C2909 H2897 0.959 . S
C2909 C2907 1.561 . S
C2910 C2907 1.526 . S
C2910 C2911 1.396 . S
C2910 C2915 1.390 . S
C2911 C2905 1.465 . S
C2911 C2910 1.396 . S
C2911 C2912 1.399 . S
C2912 H2898 0.929 . S
C2912 C2911 1.399 . S
C2912 C2913 1.385 . S
C2913 H2899 0.931 . S
C2913 C2912 1.385 . S
C2913 C2914 1.389 . S
C2914 C2913 1.389 . S
C2914 C2915 1.387 . S
C2915 H2900 0.930 . S
C2915 C2910 1.390 . S
C2915 C2914 1.387 . S
H2916 C2928 0.930 . S
H2917 C2930 0.930 . S
H2918 C2931 0.930 . S
H2919 C2935 0.959 . S
H2920 C2935 0.959 . S
H2921 C2935 0.961 . S
H2922 C2936 0.960 . S
H2923 C2936 0.961 . S
H2924 C2936 0.959 . S
H2925 C2939 0.929 . S
H2926 C2940 0.931 . S
H2927 C2942 0.930 . S
C2928 H2916 0.930 . S
C2928 C2929 1.399 . S
C2928 C2933 1.399 . S
C2929 C2928 1.399 . S
C2929 C2930 1.376 . S
C2930 H2917 0.930 . S
C2930 C2929 1.376 . S
C2930 C2931 1.388 . S
C2931 H2918 0.930 . S
C2931 C2930 1.388 . S
C2931 C2932 1.390 . S
C2932 C2931 1.390 . S
C2932 C2933 1.394 . S
C2932 C2938 1.465 . S
C2933 C2928 1.399 . S
C2933 C2932 1.394 . S
C2933 C2934 1.516 . S
C2934 C2933 1.516 . S
C2934 C2935 1.502 . S
C2934 C2936 1.561 . S
C2934 C2937 1.526 . S
C2935 H2919 0.959 . S
C2935 H2920 0.959 . S
C2935 H2921 0.961 . S
C2935 C2934 1.502 . S
C2936 H2922 0.960 . S
C2936 H2923 0.961 . S
C2936 H2924 0.959 . S
C2936 C2934 1.561 . S
C2937 C2934 1.526 . S
C2937 C2938 1.396 . S
C2937 C2942 1.390 . S
C2938 C2932 1.465 . S
C2938 C2937 1.396 . S
C2938 C2939 1.399 . S
C2939 H2925 0.929 . S
C2939 C2938 1.399 . S
C2939 C2940 1.385 . S
C2940 H2926 0.931 . S
C2940 C2939 1.385 . S
C2940 C2941 1.389 . S
C2941 C2940 1.389 . S
C2941 C2942 1.387 . S
C2942 H2927 0.930 . S
C2942 C2937 1.390 . S
C2942 C2941 1.387 . S
H2943 C2955 0.930 . S
H2944 C2957 0.930 . S
H2945 C2958 0.930 . S
H2946 C2962 0.959 . S
H2947 C2962 0.959 . S
H2948 C2962 0.961 . S
H2949 C2963 0.960 . S
H2950 C2963 0.961 . S
H2951 C2963 0.959 . S
H2952 C2966 0.929 . S
H2953 C2967 0.931 . S
H2954 C2969 0.930 . S
C2955 H2943 0.930 . S
C2955 C2956 1.399 . S
C2955 C2960 1.399 . S
C2956 C2955 1.399 . S
C2956 C2957 1.376 . S
C2957 H2944 0.930 . S
C2957 C2956 1.376 . S
C2957 C2958 1.388 . S
C2958 H2945 0.930 . S
C2958 C2957 1.388 . S
C2958 C2959 1.390 . S
C2959 C2958 1.390 . S
C2959 C2960 1.394 . S
C2959 C2965 1.465 . S
C2960 C2955 1.399 . S
C2960 C2959 1.394 . S
C2960 C2961 1.516 . S
C2961 C2960 1.516 . S
C2961 C2962 1.502 . S
C2961 C2963 1.561 . S
C2961 C2964 1.526 . S
C2962 H2946 0.959 . S
C2962 H2947 0.959 . S
C2962 H2948 0.961 . S
C2962 C2961 1.502 . S
C2963 H2949 0.960 . S
C2963 H2950 0.961 . S
C2963 H2951 0.959 . S
C2963 C2961 1.561 . S
C2964 C2961 1.526 . S
C2964 C2965 1.396 . S
C2964 C2969 1.390 . S
C2965 C2959 1.465 . S
C2965 C2964 1.396 . S
C2965 C2966 1.399 . S
C2966 H2952 0.929 . S
C2966 C2965 1.399 . S
C2966 C2967 1.385 . S
C2967 H2953 0.931 . S
C2967 C2966 1.385 . S
C2967 C2968 1.389 . S
C2968 C2967 1.389 . S
C2968 C2969 1.387 . S
C2969 H2954 0.930 . S
C2969 C2964 1.390 . S
C2969 C2968 1.387 . S
H2970 C2982 0.930 . S
H2971 C2984 0.930 . S
H2972 C2985 0.930 . S
H2973 C2989 0.959 . S
H2974 C2989 0.959 . S
H2975 C2989 0.961 . S
H2976 C2990 0.960 . S
H2977 C2990 0.961 . S
H2978 C2990 0.959 . S
H2979 C2993 0.929 . S
H2980 C2994 0.931 . S
H2981 C2996 0.930 . S
C2982 H2970 0.930 . S
C2982 C2983 1.399 . S
C2982 C2987 1.399 . S
C2983 C2982 1.399 . S
C2983 C2984 1.376 . S
C2984 H2971 0.930 . S
C2984 C2983 1.376 . S
C2984 C2985 1.388 . S
C2985 H2972 0.930 . S
C2985 C2984 1.388 . S
C2985 C2986 1.390 . S
C2986 C2985 1.390 . S
C2986 C2987 1.394 . S
C2986 C2992 1.465 . S
C2987 C2982 1.399 . S
C2987 C2986 1.394 . S
C2987 C2988 1.516 . S
C2988 C2987 1.516 . S
C2988 C2989 1.502 . S
C2988 C2990 1.561 . S
C2988 C2991 1.526 . S
C2989 H2973 0.959 . S
C2989 H2974 0.959 . S
C2989 H2975 0.961 . S
C2989 C2988 1.502 . S
C2990 H2976 0.960 . S
C2990 H2977 0.961 . S
C2990 H2978 0.959 . S
C2990 C2988 1.561 . S
C2991 C2988 1.526 . S
C2991 C2992 1.396 . S
C2991 C2996 1.390 . S
C2992 C2986 1.465 . S
C2992 C2991 1.396 . S
C2992 C2993 1.399 . S
C2993 H2979 0.929 . S
C2993 C2992 1.399 . S
C2993 C2994 1.385 . S
C2994 H2980 0.931 . S
C2994 C2993 1.385 . S
C2994 C2995 1.389 . S
C2995 C2994 1.389 . S
C2995 C2996 1.387 . S
C2996 H2981 0.930 . S
C2996 C2991 1.390 . S
C2996 C2995 1.387 . S
H2997 C3009 0.930 . S
H2998 C3011 0.930 . S
H2999 C3012 0.930 . S
H3000 C3016 0.959 . S
H3001 C3016 0.959 . S
H3002 C3016 0.961 . S
H3003 C3017 0.960 . S
H3004 C3017 0.961 . S
H3005 C3017 0.959 . S
H3006 C3020 0.929 . S
H3007 C3021 0.931 . S
H3008 C3023 0.930 . S
C3009 H2997 0.930 . S
C3009 C3010 1.399 . S
C3009 C3014 1.399 . S
C3010 C3009 1.399 . S
C3010 C3011 1.376 . S
C3011 H2998 0.930 . S
C3011 C3010 1.376 . S
C3011 C3012 1.388 . S
C3012 H2999 0.930 . S
C3012 C3011 1.388 . S
C3012 C3013 1.390 . S
C3013 C3012 1.390 . S
C3013 C3014 1.394 . S
C3013 C3019 1.465 . S
C3014 C3009 1.399 . S
C3014 C3013 1.394 . S
C3014 C3015 1.516 . S
C3015 C3014 1.516 . S
C3015 C3016 1.502 . S
C3015 C3017 1.561 . S
C3015 C3018 1.526 . S
C3016 H3000 0.959 . S
C3016 H3001 0.959 . S
C3016 H3002 0.961 . S
C3016 C3015 1.502 . S
C3017 H3003 0.960 . S
C3017 H3004 0.961 . S
C3017 H3005 0.959 . S
C3017 C3015 1.561 . S
C3018 C3015 1.526 . S
C3018 C3019 1.396 . S
C3018 C3023 1.390 . S
C3019 C3013 1.465 . S
C3019 C3018 1.396 . S
C3019 C3020 1.399 . S
C3020 H3006 0.929 . S
C3020 C3019 1.399 . S
C3020 C3021 1.385 . S
C3021 H3007 0.931 . S
C3021 C3020 1.385 . S
C3021 C3022 1.389 . S
C3022 C3021 1.389 . S
C3022 C3023 1.387 . S
C3023 H3008 0.930 . S
C3023 C3018 1.390 . S
C3023 C3022 1.387 . S
H3024 C3036 0.930 . S
H3025 C3038 0.930 . S
H3026 C3039 0.930 . S
H3027 C3043 0.959 . S
H3028 C3043 0.959 . S
H3029 C3043 0.961 . S
H3030 C3044 0.960 . S
H3031 C3044 0.961 . S
H3032 C3044 0.959 . S
H3033 C3047 0.929 . S
H3034 C3048 0.931 . S
H3035 C3050 0.930 . S
C3036 H3024 0.930 . S
C3036 C3037 1.399 . S
C3036 C3041 1.399 . S
C3037 C3036 1.399 . S
C3037 C3038 1.376 . S
C3038 H3025 0.930 . S
C3038 C3037 1.376 . S
C3038 C3039 1.388 . S
C3039 H3026 0.930 . S
C3039 C3038 1.388 . S
C3039 C3040 1.390 . S
C3040 C3039 1.390 . S
C3040 C3041 1.394 . S
C3040 C3046 1.465 . S
C3041 C3036 1.399 . S
C3041 C3040 1.394 . S
C3041 C3042 1.516 . S
C3042 C3041 1.516 . S
C3042 C3043 1.502 . S
C3042 C3044 1.561 . S
C3042 C3045 1.526 . S
C3043 H3027 0.959 . S
C3043 H3028 0.959 . S
C3043 H3029 0.961 . S
C3043 C3042 1.502 . S
C3044 H3030 0.960 . S
C3044 H3031 0.961 . S
C3044 H3032 0.959 . S
C3044 C3042 1.561 . S
C3045 C3042 1.526 . S
C3045 C3046 1.396 . S
C3045 C3050 1.390 . S
C3046 C3040 1.465 . S
C3046 C3045 1.396 . S
C3046 C3047 1.399 . S
C3047 H3033 0.929 . S
C3047 C3046 1.399 . S
C3047 C3048 1.385 . S
C3048 H3034 0.931 . S
C3048 C3047 1.385 . S
C3048 C3049 1.389 . S
C3049 C3048 1.389 . S
C3049 C3050 1.387 . S
C3050 H3035 0.930 . S
C3050 C3045 1.390 . S
C3050 C3049 1.387 . S
H3051 C3063 0.930 . S
H3052 C3065 0.930 . S
H3053 C3066 0.930 . S
H3054 C3070 0.959 . S
H3055 C3070 0.959 1_565 S
H3056 C3070 0.961 . S
H3057 C3071 0.960 . S
H3058 C3071 0.961 . S
H3059 C3071 0.959 . S
H3060 C3074 0.929 . S
H3061 C3075 0.931 . S
H3062 C3077 0.930 . S
C3063 H3051 0.930 . S
C3063 C3064 1.399 . S
C3063 C3068 1.399 . S
C3064 C3063 1.399 . S
C3064 C3065 1.376 . S
C3065 H3052 0.930 . S
C3065 C3064 1.376 . S
C3065 C3066 1.388 . S
C3066 H3053 0.930 . S
C3066 C3065 1.388 . S
C3066 C3067 1.390 . S
C3067 C3066 1.390 . S
C3067 C3068 1.394 . S
C3067 C3073 1.465 . S
C3068 C3063 1.399 . S
C3068 C3067 1.394 . S
C3068 C3069 1.516 . S
C3069 C3068 1.516 . S
C3069 C3070 1.502 . S
C3069 C3071 1.561 . S
C3069 C3072 1.526 . S
C3070 H3054 0.959 . S
C3070 H3055 0.959 1_545 S
C3070 H3056 0.961 . S
C3070 C3069 1.502 . S
C3071 H3057 0.960 . S
C3071 H3058 0.961 . S
C3071 H3059 0.959 . S
C3071 C3069 1.561 . S
C3072 C3069 1.526 . S
C3072 C3073 1.396 . S
C3072 C3077 1.390 . S
C3073 C3067 1.465 . S
C3073 C3072 1.396 . S
C3073 C3074 1.399 . S
C3074 H3060 0.929 . S
C3074 C3073 1.399 . S
C3074 C3075 1.385 . S
C3075 H3061 0.931 . S
C3075 C3074 1.385 . S
C3075 C3076 1.389 . S
C3076 C3075 1.389 . S
C3076 C3077 1.387 . S
C3077 H3062 0.930 . S
C3077 C3072 1.390 . S
C3077 C3076 1.387 . S
H3078 C3090 0.930 . S
H3079 C3092 0.930 . S
H3080 C3093 0.930 . S
H3081 C3097 0.959 . S
H3082 C3097 0.959 . S
H3083 C3097 0.961 . S
H3084 C3098 0.960 . S
H3085 C3098 0.961 . S
H3086 C3098 0.959 . S
H3087 C3101 0.929 . S
H3088 C3102 0.931 . S
H3089 C3104 0.930 . S
C3090 H3078 0.930 . S
C3090 C3091 1.399 . S
C3090 C3095 1.399 . S
C3091 C3090 1.399 . S
C3091 C3092 1.376 . S
C3092 H3079 0.930 . S
C3092 C3091 1.376 . S
C3092 C3093 1.388 . S
C3093 H3080 0.930 . S
C3093 C3092 1.388 . S
C3093 C3094 1.390 . S
C3094 C3093 1.390 . S
C3094 C3095 1.394 . S
C3094 C3100 1.465 . S
C3095 C3090 1.399 . S
C3095 C3094 1.394 . S
C3095 C3096 1.516 . S
C3096 C3095 1.516 . S
C3096 C3097 1.502 . S
C3096 C3098 1.561 . S
C3096 C3099 1.526 . S
C3097 H3081 0.959 . S
C3097 H3082 0.959 . S
C3097 H3083 0.961 . S
C3097 C3096 1.502 . S
C3098 H3084 0.960 . S
C3098 H3085 0.961 . S
C3098 H3086 0.959 . S
C3098 C3096 1.561 . S
C3099 C3096 1.526 . S
C3099 C3100 1.396 . S
C3099 C3104 1.390 . S
C3100 C3094 1.465 . S
C3100 C3099 1.396 . S
C3100 C3101 1.399 . S
C3101 H3087 0.929 . S
C3101 C3100 1.399 . S
C3101 C3102 1.385 . S
C3102 H3088 0.931 . S
C3102 C3101 1.385 . S
C3102 C3103 1.389 . S
C3103 C3102 1.389 . S
C3103 C3104 1.387 . S
C3104 H3089 0.930 . S
C3104 C3099 1.390 . S
C3104 C3103 1.387 . S
H3105 C3117 0.930 . S
H3106 C3119 0.930 . S
H3107 C3120 0.930 . S
H3108 C3124 0.959 . S
H3109 C3124 0.959 . S
H3110 C3124 0.961 . S
H3111 C3125 0.960 . S
H3112 C3125 0.961 . S
H3113 C3125 0.959 . S
H3114 C3128 0.929 . S
H3115 C3129 0.931 . S
H3116 C3131 0.930 . S
C3117 H3105 0.930 . S
C3117 C3118 1.399 . S
C3117 C3122 1.399 . S
C3118 C3117 1.399 . S
C3118 C3119 1.376 1_554 S
C3119 H3106 0.930 . S
C3119 C3118 1.376 1_556 S
C3119 C3120 1.388 . S
C3120 H3107 0.930 . S
C3120 C3119 1.388 . S
C3120 C3121 1.390 . S
C3121 C3120 1.390 . S
C3121 C3122 1.394 1_556 S
C3121 C3127 1.465 . S
C3122 C3117 1.399 . S
C3122 C3121 1.394 1_554 S
C3122 C3123 1.516 . S
C3123 C3122 1.516 . S
C3123 C3124 1.502 . S
C3123 C3125 1.561 . S
C3123 C3126 1.526 . S
C3124 H3108 0.959 . S
C3124 H3109 0.959 . S
C3124 H3110 0.961 . S
C3124 C3123 1.502 . S
C3125 H3111 0.960 . S
C3125 H3112 0.961 . S
C3125 H3113 0.959 . S
C3125 C3123 1.561 . S
C3126 C3123 1.526 . S
C3126 C3127 1.396 1_554 S
C3126 C3131 1.390 . S
C3127 C3121 1.465 . S
C3127 C3126 1.396 1_556 S
C3127 C3128 1.399 . S
C3128 H3114 0.929 . S
C3128 C3127 1.399 . S
C3128 C3129 1.385 . S
C3129 H3115 0.931 . S
C3129 C3128 1.385 . S
C3129 C3130 1.389 . S
C3130 C3129 1.389 . S
C3130 C3131 1.387 1_556 S
C3131 H3116 0.930 . S
C3131 C3126 1.390 . S
C3131 C3130 1.387 1_554 S
H3132 C3144 0.930 . S
H3133 C3146 0.930 . S
H3134 C3147 0.930 . S
H3135 C3151 0.959 . S
H3136 C3151 0.959 . S
H3137 C3151 0.961 . S
H3138 C3152 0.960 . S
H3139 C3152 0.961 . S
H3140 C3152 0.959 . S
H3141 C3155 0.929 . S
H3142 C3156 0.931 . S
H3143 C3158 0.930 . S
C3144 H3132 0.930 . S
C3144 C3145 1.399 . S
C3144 C3149 1.399 . S
C3145 C3144 1.399 . S
C3145 C3146 1.376 . S
C3146 H3133 0.930 . S
C3146 C3145 1.376 . S
C3146 C3147 1.388 . S
C3147 H3134 0.930 . S
C3147 C3146 1.388 . S
C3147 C3148 1.390 . S
C3148 C3147 1.390 . S
C3148 C3149 1.394 . S
C3148 C3154 1.465 . S
C3149 C3144 1.399 . S
C3149 C3148 1.394 . S
C3149 C3150 1.516 . S
C3150 C3149 1.516 . S
C3150 C3151 1.502 . S
C3150 C3152 1.561 . S
C3150 C3153 1.526 . S
C3151 H3135 0.959 . S
C3151 H3136 0.959 . S
C3151 H3137 0.961 . S
C3151 C3150 1.502 . S
C3152 H3138 0.960 . S
C3152 H3139 0.961 . S
C3152 H3140 0.959 . S
C3152 C3150 1.561 . S
C3153 C3150 1.526 . S
C3153 C3154 1.396 . S
C3153 C3158 1.390 . S
C3154 C3148 1.465 . S
C3154 C3153 1.396 . S
C3154 C3155 1.399 . S
C3155 H3141 0.929 . S
C3155 C3154 1.399 . S
C3155 C3156 1.385 . S
C3156 H3142 0.931 . S
C3156 C3155 1.385 . S
C3156 C3157 1.389 . S
C3157 C3156 1.389 . S
C3157 C3158 1.387 . S
C3158 H3143 0.930 . S
C3158 C3153 1.390 . S
C3158 C3157 1.387 . S
H3159 C3171 0.930 . S
H3160 C3173 0.930 . S
H3161 C3174 0.930 . S
H3162 C3178 0.959 . S
H3163 C3178 0.959 . S
H3164 C3178 0.961 . S
H3165 C3179 0.960 . S
H3166 C3179 0.961 . S
H3167 C3179 0.959 . S
H3168 C3182 0.929 . S
H3169 C3183 0.931 . S
H3170 C3185 0.930 . S
C3171 H3159 0.930 . S
C3171 C3172 1.399 . S
C3171 C3176 1.399 . S
C3172 C3171 1.399 . S
C3172 C3173 1.376 1_554 S
C3173 H3160 0.930 . S
C3173 C3172 1.376 1_556 S
C3173 C3174 1.388 . S
C3174 H3161 0.930 . S
C3174 C3173 1.388 . S
C3174 C3175 1.390 . S
C3175 C3174 1.390 . S
C3175 C3176 1.394 1_556 S
C3175 C3181 1.465 . S
C3176 C3171 1.399 . S
C3176 C3175 1.394 1_554 S
C3176 C3177 1.516 . S
C3177 C3176 1.516 . S
C3177 C3178 1.502 . S
C3177 C3179 1.561 . S
C3177 C3180 1.526 . S
C3178 H3162 0.959 . S
C3178 H3163 0.959 . S
C3178 H3164 0.961 . S
C3178 C3177 1.502 . S
C3179 H3165 0.960 . S
C3179 H3166 0.961 . S
C3179 H3167 0.959 . S
C3179 C3177 1.561 . S
C3180 C3177 1.526 . S
C3180 C3181 1.396 1_554 S
C3180 C3185 1.390 . S
C3181 C3175 1.465 . S
C3181 C3180 1.396 1_556 S
C3181 C3182 1.399 . S
C3182 H3168 0.929 . S
C3182 C3181 1.399 . S
C3182 C3183 1.385 . S
C3183 H3169 0.931 . S
C3183 C3182 1.385 . S
C3183 C3184 1.389 1_556 S
C3184 C3183 1.389 1_554 S
C3184 C3185 1.387 . S
C3185 H3170 0.930 . S
C3185 C3180 1.390 . S
C3185 C3184 1.387 . S
H3186 C3198 0.930 . S
H3187 C3200 0.930 . S
H3188 C3201 0.930 . S
H3189 C3205 0.959 . S
H3190 C3205 0.959 . S
H3191 C3205 0.961 . S
H3192 C3206 0.960 . S
H3193 C3206 0.961 . S
H3194 C3206 0.959 . S
H3195 C3209 0.929 . S
H3196 C3210 0.931 . S
H3197 C3212 0.930 . S
C3198 H3186 0.930 . S
C3198 C3199 1.399 . S
C3198 C3203 1.399 . S
C3199 C3198 1.399 . S
C3199 C3200 1.376 . S
C3200 H3187 0.930 . S
C3200 C3199 1.376 . S
C3200 C3201 1.388 . S
C3201 H3188 0.930 . S
C3201 C3200 1.388 . S
C3201 C3202 1.390 . S
C3202 C3201 1.390 . S
C3202 C3203 1.394 . S
C3202 C3208 1.465 . S
C3203 C3198 1.399 . S
C3203 C3202 1.394 . S
C3203 C3204 1.516 . S
C3204 C3203 1.516 . S
C3204 C3205 1.502 . S
C3204 C3206 1.561 . S
C3204 C3207 1.526 . S
C3205 H3189 0.959 . S
C3205 H3190 0.959 . S
C3205 H3191 0.961 . S
C3205 C3204 1.502 . S
C3206 H3192 0.960 . S
C3206 H3193 0.961 . S
C3206 H3194 0.959 . S
C3206 C3204 1.561 . S
C3207 C3204 1.526 . S
C3207 C3208 1.396 . S
C3207 C3212 1.390 . S
C3208 C3202 1.465 . S
C3208 C3207 1.396 . S
C3208 C3209 1.399 . S
C3209 H3195 0.929 . S
C3209 C3208 1.399 . S
C3209 C3210 1.385 . S
C3210 H3196 0.931 . S
C3210 C3209 1.385 . S
C3210 C3211 1.389 . S
C3211 C3210 1.389 . S
C3211 C3212 1.387 . S
C3212 H3197 0.930 . S
C3212 C3207 1.390 . S
C3212 C3211 1.387 . S
H3213 C3225 0.930 . S
H3214 C3227 0.930 . S
H3215 C3228 0.930 . S
H3216 C3232 0.959 . S
H3217 C3232 0.959 . S
H3218 C3232 0.961 . S
H3219 C3233 0.960 . S
H3220 C3233 0.961 . S
H3221 C3233 0.959 . S
H3222 C3236 0.929 . S
H3223 C3237 0.931 . S
H3224 C3239 0.930 . S
C3225 H3213 0.930 . S
C3225 C3226 1.399 . S
C3225 C3230 1.399 . S
C3226 C3225 1.399 . S
C3226 C3227 1.376 . S
C3227 H3214 0.930 . S
C3227 C3226 1.376 . S
C3227 C3228 1.388 . S
C3228 H3215 0.930 . S
C3228 C3227 1.388 . S
C3228 C3229 1.390 . S
C3229 C3228 1.390 . S
C3229 C3230 1.394 . S
C3229 C3235 1.465 . S
C3230 C3225 1.399 . S
C3230 C3229 1.394 . S
C3230 C3231 1.516 . S
C3231 C3230 1.516 . S
C3231 C3232 1.502 . S
C3231 C3233 1.561 . S
C3231 C3234 1.526 . S
C3232 H3216 0.959 . S
C3232 H3217 0.959 . S
C3232 H3218 0.961 . S
C3232 C3231 1.502 . S
C3233 H3219 0.960 . S
C3233 H3220 0.961 . S
C3233 H3221 0.959 . S
C3233 C3231 1.561 . S
C3234 C3231 1.526 . S
C3234 C3235 1.396 . S
C3234 C3239 1.390 . S
C3235 C3229 1.465 . S
C3235 C3234 1.396 . S
C3235 C3236 1.399 . S
C3236 H3222 0.929 . S
C3236 C3235 1.399 . S
C3236 C3237 1.385 . S
C3237 H3223 0.931 . S
C3237 C3236 1.385 . S
C3237 C3238 1.389 . S
C3238 C3237 1.389 . S
C3238 C3239 1.387 . S
C3239 H3224 0.930 . S
C3239 C3234 1.390 . S
C3239 C3238 1.387 . S
C673 C328 1.271 . S
C661 C10 1.320 . S
C688 C13 1.029 . S
C700 C348 1.041 . S
C715 C34 1.217 . S
C727 C370 1.132 . S
C754 C389 1.211 . S
C742 C44 1.282 . S
C769 C21 1.294 . S
C781 C410 1.235 . S
C808 C433 1.152 . S
C796 C26 1.193 . S
C835 C456 1.178 . S
C823 C49 1.152 . S
C850 C5 1.229 . S
C862 C474 1.214 . S
C877 C62 1.204 . S
C889 C330 1.208 . S
C904 C73 1.228 . S
C916 C350 1.268 . S
C943 C372 1.104 . S
C931 C88 1.133 . S
C970 C391 1.121 . S
C958 C99 1.230 . S
C985 C60 1.229 . S
C997 C412 1.161 . S
C1024 C435 1.104 . S
C1012 C75 1.065 . S
C1051 C452 1.191 . S
C1039 C86 1.257 . S
C1078 C476 1.161 . S
C1066 C101 1.207 . S
C1105 C326 1.238 . S
C1093 C96 1.196 . S
C1132 C498 1.079 . S
C1120 C104 1.099 1_556 S
C1147 C122 1.151 . S
C1159 C515 1.191 . S
C1186 C538 1.134 . S
C1174 C130 1.194 . S
C1201 C57 1.160 . S
C1213 C472 1.063 . S
C1240 C368 1.216 . S
C1228 C70 1.283 . S
C1255 C117 1.048 . S
C1267 C561 1.047 . S
C1294 C577 1.120 . S
C1282 C143 1.160 . S
C1309 C164 1.330 . S
C1321 C325 1.249 . S
C1348 C578 1.220 . S
C1336 C169 1.253 . S
C1363 C192 1.441 . S
C1375 C367 1.327 . S
C1390 C200 1.176 . S
C1402 C558 1.216 . S
C1429 C411 1.189 . S
C1417 C179 1.266 . S
C1456 C514 1.269 . S
C1444 C182 1.246 . S
C1483 C455 1.323 . S
C1471 C203 1.354 . S
C1510 C599 1.390 . S
C1498 C161 1.379 . S
C1537 C329 1.322 . S
C1525 C216 1.351 1_545 S
C1552 C231 1.206 . S
C1564 C582 1.125 . S
C1591 C371 1.268 . S
C1579 C242 1.220 . S
C1606 C257 1.307 . S
C1618 C556 1.206 . S
C1633 C218 1.357 . S
C1645 C409 1.188 . S
C1660 C229 1.285 . S
C1672 C518 1.238 . S
C1699 C453 1.135 . S
C1687 C244 1.198 . S
C1714 C255 1.211 . S
C1726 C603 1.172 . S
C1741 C252 1.243 . S
C1753 C327 1.217 . S
C1768 C260 1.294 1_556 S
C1780 C497 1.257 . S
C1795 C278 1.158 . S
C1807 C432 1.131 . S
C1822 C286 1.308 . S
C1834 C535 1.136 . S
C1861 C601 1.214 . S
C1849 C213 1.210 . S
C1888 C369 1.184 . S
C1876 C226 1.192 . S
C1915 C392 1.192 . S
C1903 C273 1.144 . S
C1942 C349 1.267 . S
C1930 C299 1.242 . S
C1957 C36 1.303 . S
C1969 C622 1.145 . S
C1996 C579 1.043 . S
C1984 C39 1.024 . S
C2023 C643 1.129 . S
C2011 C8 1.245 . S
C2038 C18 1.226 . S
C2050 C557 1.281 . S
C2065 C47 1.274 . S
C2077 C494 1.309 . S
C2104 C517 1.207 . S
C2092 C0 1.263 . S
C2131 C540 1.179 . S
C2119 C23 1.159 . S
C2158 C600 1.197 . S
C2146 C31 1.215 . S
C2185 C624 1.186 . S
C2173 C153 1.213 . S
C2200 C112 1.250 . S
C2212 C581 1.254 . S
C2227 C127 1.126 . S
C2239 C645 1.123 . S
C2266 C559 1.126 . S
C2254 C138 1.235 . S
C2293 C496 1.165 . S
C2281 C151 1.231 . S
C2308 C114 1.094 . S
C2320 C519 1.015 . S
C2347 C536 1.254 . S
C2335 C125 1.177 . S
C2362 C140 1.232 . S
C2374 C602 1.217 . S
C2401 C620 1.192 . S
C2389 C135 1.224 . S
C2428 C414 1.032 . S
C2416 C65 1.005 . S
C2455 C431 1.202 . S
C2443 C83 1.138 . S
C2470 C91 1.192 . S
C2482 C454 1.126 . S
C2509 C598 1.064 . S
C2497 C148 1.159 . S
C2524 C109 1.290 . S
C2536 C641 1.211 . S
C2563 C393 1.047 . S
C2551 C78 1.047 . S
C2590 C346 1.031 . S
C2578 C52 1.069 . S
C2605 C190 1.315 . S
C2617 C619 1.269 . S
C2644 C347 1.221 . S
C2632 C195 1.252 . S
C2671 C640 1.350 . S
C2659 C166 1.443 . S
C2686 C174 1.221 . S
C2698 C390 1.201 . S
C2713 C205 1.274 . S
C2725 C495 1.187 . S
C2740 C156 1.320 . S
C2752 C430 1.140 . S
C2767 C177 1.360 1_655 S
C2779 C539 1.327 . S
C2794 C187 1.340 . S
C2806 C473 1.375 . S
C2833 C623 1.346 . S
C2821 C307 1.332 . S
C2848 C270 1.204 . S
C2860 C351 1.127 . S
C2887 C644 1.263 . S
C2875 C281 1.219 . S
C2902 C296 1.307 . S
C2914 C388 1.191 . S
C2929 C309 1.354 . S
C2941 C493 1.187 . S
C2968 C434 1.302 . S
C2956 C268 1.279 . S
C2983 C283 1.200 . S
C2995 C537 1.146 . S
C3022 C477 1.171 . S
C3010 C294 1.217 . S
C3049 C621 1.225 . S
C3037 C291 1.271 . S
C3076 C413 1.247 . S
C3064 C221 1.231 . S
C3091 C239 1.151 . S
C3103 C516 1.141 . S
C3130 C451 1.146 . S
C3118 C247 1.302 . S
C3157 C475 1.091 . S
C3145 C304 1.243 . S
C3172 C265 1.194 . S
C3184 C642 1.181 . S
C3211 C560 1.186 . S
C3199 C234 1.144 . S
C3238 C580 1.141 . S
C3226 C208 1.308 . S
