# Generated by pormake.
# Topology gar, (4,6)-cn, num edge types: 1
# Building blocks:
#     Node 0, Type 0, BuildingBlock: GALJAG_clean_sbu_0, # of connection points: 4
#     Node 1, Type 0, BuildingBlock: GALJAG_clean_sbu_0, # of connection points: 4
#     Node 2, Type 0, BuildingBlock: GALJAG_clean_sbu_0, # of connection points: 4
#     Node 3, Type 0, BuildingBlock: GALJAG_clean_sbu_0, # of connection points: 4
#     Node 4, Type 0, BuildingBlock: GALJAG_clean_sbu_0, # of connection points: 4
#     Node 5, Type 0, BuildingBlock: GALJAG_clean_sbu_0, # of connection points: 4
#     Node 6, Type 0, BuildingBlock: GALJAG_clean_sbu_0, # of connection points: 4
#     Node 7, Type 0, BuildingBlock: GALJAG_clean_sbu_0, # of connection points: 4
#     Node 8, Type 0, BuildingBlock: GALJAG_clean_sbu_0, # of connection points: 4
#     Node 9, Type 0, BuildingBlock: GALJAG_clean_sbu_0, # of connection points: 4
#     Node 10, Type 0, BuildingBlock: GALJAG_clean_sbu_0, # of connection points: 4
#     Node 11, Type 0, BuildingBlock: GALJAG_clean_sbu_0, # of connection points: 4
#     Node 12, Type 0, BuildingBlock: GALJAG_clean_sbu_0, # of connection points: 4
#     Node 13, Type 0, BuildingBlock: GALJAG_clean_sbu_0, # of connection points: 4
#     Node 14, Type 0, BuildingBlock: GALJAG_clean_sbu_0, # of connection points: 4
#     Node 15, Type 0, BuildingBlock: GALJAG_clean_sbu_0, # of connection points: 4
#     Node 16, Type 0, BuildingBlock: GALJAG_clean_sbu_0, # of connection points: 4
#     Node 17, Type 0, BuildingBlock: GALJAG_clean_sbu_0, # of connection points: 4
#     Node 18, Type 0, BuildingBlock: GALJAG_clean_sbu_0, # of connection points: 4
#     Node 19, Type 0, BuildingBlock: GALJAG_clean_sbu_0, # of connection points: 4
#     Node 20, Type 0, BuildingBlock: GALJAG_clean_sbu_0, # of connection points: 4
#     Node 21, Type 0, BuildingBlock: GALJAG_clean_sbu_0, # of connection points: 4
#     Node 22, Type 0, BuildingBlock: GALJAG_clean_sbu_0, # of connection points: 4
#     Node 23, Type 0, BuildingBlock: GALJAG_clean_sbu_0, # of connection points: 4
#     Node 24, Type 1, BuildingBlock: MIFKUJ_clean_sbu_0, # of connection points: 6
#     Node 25, Type 1, BuildingBlock: MIFKUJ_clean_sbu_0, # of connection points: 6
#     Node 26, Type 1, BuildingBlock: MIFKUJ_clean_sbu_0, # of connection points: 6
#     Node 27, Type 1, BuildingBlock: MIFKUJ_clean_sbu_0, # of connection points: 6
#     Node 28, Type 1, BuildingBlock: MIFKUJ_clean_sbu_0, # of connection points: 6
#     Node 29, Type 1, BuildingBlock: MIFKUJ_clean_sbu_0, # of connection points: 6
#     Node 30, Type 1, BuildingBlock: MIFKUJ_clean_sbu_0, # of connection points: 6
#     Node 31, Type 1, BuildingBlock: MIFKUJ_clean_sbu_0, # of connection points: 6
#     Node 32, Type 1, BuildingBlock: MIFKUJ_clean_sbu_0, # of connection points: 6
#     Node 33, Type 1, BuildingBlock: MIFKUJ_clean_sbu_0, # of connection points: 6
#     Node 34, Type 1, BuildingBlock: MIFKUJ_clean_sbu_0, # of connection points: 6
#     Node 35, Type 1, BuildingBlock: MIFKUJ_clean_sbu_0, # of connection points: 6
#     Node 36, Type 1, BuildingBlock: MIFKUJ_clean_sbu_0, # of connection points: 6
#     Node 37, Type 1, BuildingBlock: MIFKUJ_clean_sbu_0, # of connection points: 6
#     Node 38, Type 1, BuildingBlock: MIFKUJ_clean_sbu_0, # of connection points: 6
#     Node 39, Type 1, BuildingBlock: MIFKUJ_clean_sbu_0, # of connection points: 6
#     Edge 40, Type (0, 1), BuildingBlock: CIFDUS_clean_linker_0, # of connection points: 2
#     Edge 41, Type (0, 1), BuildingBlock: CIFDUS_clean_linker_0, # of connection points: 2
#     Edge 42, Type (0, 1), BuildingBlock: CIFDUS_clean_linker_0, # of connection points: 2
#     Edge 43, Type (0, 1), BuildingBlock: CIFDUS_clean_linker_0, # of connection points: 2
#     Edge 44, Type (0, 1), BuildingBlock: CIFDUS_clean_linker_0, # of connection points: 2
#     Edge 45, Type (0, 1), BuildingBlock: CIFDUS_clean_linker_0, # of connection points: 2
#     Edge 46, Type (0, 1), BuildingBlock: CIFDUS_clean_linker_0, # of connection points: 2
#     Edge 47, Type (0, 1), BuildingBlock: CIFDUS_clean_linker_0, # of connection points: 2
#     Edge 48, Type (0, 1), BuildingBlock: CIFDUS_clean_linker_0, # of connection points: 2
#     Edge 49, Type (0, 1), BuildingBlock: CIFDUS_clean_linker_0, # of connection points: 2
#     Edge 50, Type (0, 1), BuildingBlock: CIFDUS_clean_linker_0, # of connection points: 2
#     Edge 51, Type (0, 1), BuildingBlock: CIFDUS_clean_linker_0, # of connection points: 2
#     Edge 52, Type (0, 1), BuildingBlock: CIFDUS_clean_linker_0, # of connection points: 2
#     Edge 53, Type (0, 1), BuildingBlock: CIFDUS_clean_linker_0, # of connection points: 2
#     Edge 54, Type (0, 1), BuildingBlock: CIFDUS_clean_linker_0, # of connection points: 2
#     Edge 55, Type (0, 1), BuildingBlock: CIFDUS_clean_linker_0, # of connection points: 2
#     Edge 56, Type (0, 1), BuildingBlock: CIFDUS_clean_linker_0, # of connection points: 2
#     Edge 57, Type (0, 1), BuildingBlock: CIFDUS_clean_linker_0, # of connection points: 2
#     Edge 58, Type (0, 1), BuildingBlock: CIFDUS_clean_linker_0, # of connection points: 2
#     Edge 59, Type (0, 1), BuildingBlock: CIFDUS_clean_linker_0, # of connection points: 2
#     Edge 60, Type (0, 1), BuildingBlock: CIFDUS_clean_linker_0, # of connection points: 2
#     Edge 61, Type (0, 1), BuildingBlock: CIFDUS_clean_linker_0, # of connection points: 2
#     Edge 62, Type (0, 1), BuildingBlock: CIFDUS_clean_linker_0, # of connection points: 2
#     Edge 63, Type (0, 1), BuildingBlock: CIFDUS_clean_linker_0, # of connection points: 2
#     Edge 64, Type (0, 1), BuildingBlock: CIFDUS_clean_linker_0, # of connection points: 2
#     Edge 65, Type (0, 1), BuildingBlock: CIFDUS_clean_linker_0, # of connection points: 2
#     Edge 66, Type (0, 1), BuildingBlock: CIFDUS_clean_linker_0, # of connection points: 2
#     Edge 67, Type (0, 1), BuildingBlock: CIFDUS_clean_linker_0, # of connection points: 2
#     Edge 68, Type (0, 1), BuildingBlock: CIFDUS_clean_linker_0, # of connection points: 2
#     Edge 69, Type (0, 1), BuildingBlock: CIFDUS_clean_linker_0, # of connection points: 2
#     Edge 70, Type (0, 1), BuildingBlock: CIFDUS_clean_linker_0, # of connection points: 2
#     Edge 71, Type (0, 1), BuildingBlock: CIFDUS_clean_linker_0, # of connection points: 2
#     Edge 72, Type (0, 1), BuildingBlock: CIFDUS_clean_linker_0, # of connection points: 2
#     Edge 73, Type (0, 1), BuildingBlock: CIFDUS_clean_linker_0, # of connection points: 2
#     Edge 74, Type (0, 1), BuildingBlock: CIFDUS_clean_linker_0, # of connection points: 2
#     Edge 75, Type (0, 1), BuildingBlock: CIFDUS_clean_linker_0, # of connection points: 2
#     Edge 76, Type (0, 1), BuildingBlock: CIFDUS_clean_linker_0, # of connection points: 2
#     Edge 77, Type (0, 1), BuildingBlock: CIFDUS_clean_linker_0, # of connection points: 2
#     Edge 78, Type (0, 1), BuildingBlock: CIFDUS_clean_linker_0, # of connection points: 2
#     Edge 79, Type (0, 1), BuildingBlock: CIFDUS_clean_linker_0, # of connection points: 2
#     Edge 80, Type (0, 1), BuildingBlock: CIFDUS_clean_linker_0, # of connection points: 2
#     Edge 81, Type (0, 1), BuildingBlock: CIFDUS_clean_linker_0, # of connection points: 2
#     Edge 82, Type (0, 1), BuildingBlock: CIFDUS_clean_linker_0, # of connection points: 2
#     Edge 83, Type (0, 1), BuildingBlock: CIFDUS_clean_linker_0, # of connection points: 2
#     Edge 84, Type (0, 1), BuildingBlock: CIFDUS_clean_linker_0, # of connection points: 2
#     Edge 85, Type (0, 1), BuildingBlock: CIFDUS_clean_linker_0, # of connection points: 2
#     Edge 86, Type (0, 1), BuildingBlock: CIFDUS_clean_linker_0, # of connection points: 2
#     Edge 87, Type (0, 1), BuildingBlock: CIFDUS_clean_linker_0, # of connection points: 2
#     Edge 88, Type (0, 1), BuildingBlock: CIFDUS_clean_linker_0, # of connection points: 2
#     Edge 89, Type (0, 1), BuildingBlock: CIFDUS_clean_linker_0, # of connection points: 2
#     Edge 90, Type (0, 1), BuildingBlock: CIFDUS_clean_linker_0, # of connection points: 2
#     Edge 91, Type (0, 1), BuildingBlock: CIFDUS_clean_linker_0, # of connection points: 2
#     Edge 92, Type (0, 1), BuildingBlock: CIFDUS_clean_linker_0, # of connection points: 2
#     Edge 93, Type (0, 1), BuildingBlock: CIFDUS_clean_linker_0, # of connection points: 2
#     Edge 94, Type (0, 1), BuildingBlock: CIFDUS_clean_linker_0, # of connection points: 2
#     Edge 95, Type (0, 1), BuildingBlock: CIFDUS_clean_linker_0, # of connection points: 2
#     Edge 96, Type (0, 1), BuildingBlock: CIFDUS_clean_linker_0, # of connection points: 2
#     Edge 97, Type (0, 1), BuildingBlock: CIFDUS_clean_linker_0, # of connection points: 2
#     Edge 98, Type (0, 1), BuildingBlock: CIFDUS_clean_linker_0, # of connection points: 2
#     Edge 99, Type (0, 1), BuildingBlock: CIFDUS_clean_linker_0, # of connection points: 2
#     Edge 100, Type (0, 1), BuildingBlock: CIFDUS_clean_linker_0, # of connection points: 2
#     Edge 101, Type (0, 1), BuildingBlock: CIFDUS_clean_linker_0, # of connection points: 2
#     Edge 102, Type (0, 1), BuildingBlock: CIFDUS_clean_linker_0, # of connection points: 2
#     Edge 103, Type (0, 1), BuildingBlock: CIFDUS_clean_linker_0, # of connection points: 2
#     Edge 104, Type (0, 1), BuildingBlock: CIFDUS_clean_linker_0, # of connection points: 2
#     Edge 105, Type (0, 1), BuildingBlock: CIFDUS_clean_linker_0, # of connection points: 2
#     Edge 106, Type (0, 1), BuildingBlock: CIFDUS_clean_linker_0, # of connection points: 2
#     Edge 107, Type (0, 1), BuildingBlock: CIFDUS_clean_linker_0, # of connection points: 2
#     Edge 108, Type (0, 1), BuildingBlock: CIFDUS_clean_linker_0, # of connection points: 2
#     Edge 109, Type (0, 1), BuildingBlock: CIFDUS_clean_linker_0, # of connection points: 2
#     Edge 110, Type (0, 1), BuildingBlock: CIFDUS_clean_linker_0, # of connection points: 2
#     Edge 111, Type (0, 1), BuildingBlock: CIFDUS_clean_linker_0, # of connection points: 2
#     Edge 112, Type (0, 1), BuildingBlock: CIFDUS_clean_linker_0, # of connection points: 2
#     Edge 113, Type (0, 1), BuildingBlock: CIFDUS_clean_linker_0, # of connection points: 2
#     Edge 114, Type (0, 1), BuildingBlock: CIFDUS_clean_linker_0, # of connection points: 2
#     Edge 115, Type (0, 1), BuildingBlock: CIFDUS_clean_linker_0, # of connection points: 2
#     Edge 116, Type (0, 1), BuildingBlock: CIFDUS_clean_linker_0, # of connection points: 2
#     Edge 117, Type (0, 1), BuildingBlock: CIFDUS_clean_linker_0, # of connection points: 2
#     Edge 118, Type (0, 1), BuildingBlock: CIFDUS_clean_linker_0, # of connection points: 2
#     Edge 119, Type (0, 1), BuildingBlock: CIFDUS_clean_linker_0, # of connection points: 2
#     Edge 120, Type (0, 1), BuildingBlock: CIFDUS_clean_linker_0, # of connection points: 2
#     Edge 121, Type (0, 1), BuildingBlock: CIFDUS_clean_linker_0, # of connection points: 2
#     Edge 122, Type (0, 1), BuildingBlock: CIFDUS_clean_linker_0, # of connection points: 2
#     Edge 123, Type (0, 1), BuildingBlock: CIFDUS_clean_linker_0, # of connection points: 2
#     Edge 124, Type (0, 1), BuildingBlock: CIFDUS_clean_linker_0, # of connection points: 2
#     Edge 125, Type (0, 1), BuildingBlock: CIFDUS_clean_linker_0, # of connection points: 2
#     Edge 126, Type (0, 1), BuildingBlock: CIFDUS_clean_linker_0, # of connection points: 2
#     Edge 127, Type (0, 1), BuildingBlock: CIFDUS_clean_linker_0, # of connection points: 2
#     Edge 128, Type (0, 1), BuildingBlock: CIFDUS_clean_linker_0, # of connection points: 2
#     Edge 129, Type (0, 1), BuildingBlock: CIFDUS_clean_linker_0, # of connection points: 2
#     Edge 130, Type (0, 1), BuildingBlock: CIFDUS_clean_linker_0, # of connection points: 2
#     Edge 131, Type (0, 1), BuildingBlock: CIFDUS_clean_linker_0, # of connection points: 2
#     Edge 132, Type (0, 1), BuildingBlock: CIFDUS_clean_linker_0, # of connection points: 2
#     Edge 133, Type (0, 1), BuildingBlock: CIFDUS_clean_linker_0, # of connection points: 2
#     Edge 134, Type (0, 1), BuildingBlock: CIFDUS_clean_linker_0, # of connection points: 2
#     Edge 135, Type (0, 1), BuildingBlock: CIFDUS_clean_linker_0, # of connection points: 2
# Relax obj value: 0.121
# Max RMSD: 0.287
# Mean RMSD: 0.154
data_MOF--net-gar--node1-GALJAG_clean_sbu_0--node2-MIFKUJ_clean_sbu_0--edge1-CIFDUS_clean_linker_0
_symmetry_space_group_name_H-M    P1
_symmetry_Int_Tables_number       1
_symmetry_cell_setting            triclinic
loop_
_symmetry_equiv_pos_as_xyz
'x, y, z'
_cell_length_a     50.029624
_cell_length_b     50.044815
_cell_length_c     47.843001
_cell_angle_alpha  94.605136
_cell_angle_beta   94.608366
_cell_angle_gamma 98.995186
loop_
_atom_site_label
_atom_site_type_symbol
_atom_site_fract_x
_atom_site_fract_y
_atom_site_fract_z
_atom_type_partial_charge
In0 In 0.03348 0.28057 0.40482 0.0
O1 O 0.04933 0.2695 0.36223 0.0
O2 O 0.07791 0.2815 0.398 0.0
C3 C 0.98104 0.27768 0.38579 0.0
C4 C 0.03427 0.23667 0.434 0.0
C5 C 0.04018 0.33274 0.42739 0.0
O6 O 0.9996 0.27829 0.36927 0.0
O7 O 0.98901 0.27798 0.41155 0.0
O8 O 0.0389 0.31306 0.44241 0.0
O9 O 0.03929 0.32611 0.40132 0.0
C10 C 0.07393 0.27343 0.37215 0.0
O11 O 0.05018 0.25879 0.44094 0.0
O12 O 0.01782 0.23677 0.41265 0.0
In13 In 0.00898 0.7514 0.65491 0.0
O14 O 0.01699 0.77869 0.61905 0.0
O15 O 0.00042 0.79463 0.65491 0.0
C16 C 0.0023 0.70577 0.61944 0.0
C17 C 0.05909 0.75434 0.68159 0.0
C18 C 0.96561 0.74586 0.68528 0.0
O19 O 0.9894 0.72499 0.61482 0.0
O20 O 0.01767 0.70932 0.64213 0.0
O21 O 0.98728 0.76193 0.69384 0.0
O22 O 0.96639 0.73207 0.66219 0.0
C23 C 0.00861 0.79863 0.63118 0.0
O24 O 0.03796 0.74716 0.69368 0.0
O25 O 0.05475 0.7604 0.65678 0.0
In26 In 0.52903 0.77975 0.90668 0.0
O27 O 0.55511 0.77764 0.86948 0.0
O28 O 0.57351 0.7753 0.91062 0.0
C29 C 0.48623 0.78379 0.8703 0.0
C30 C 0.51824 0.7338 0.93302 0.0
C31 C 0.53136 0.82795 0.93747 0.0
O32 O 0.50526 0.77176 0.86279 0.0
O33 O 0.48896 0.79324 0.89572 0.0
O34 O 0.51619 0.80645 0.94193 0.0
O35 O 0.54667 0.82518 0.91803 0.0
C36 C 0.57606 0.77446 0.88456 0.0
O37 O 0.53534 0.75411 0.94321 0.0
O38 O 0.50618 0.73665 0.90958 0.0
In39 In 0.50782 0.25519 0.14844 0.0
O40 O 0.50724 0.22589 0.10912 0.0
O41 O 0.49687 0.20906 0.14696 0.0
C42 C 0.52023 0.29991 0.12075 0.0
C43 C 0.45864 0.25965 0.16717 0.0
C44 C 0.5552 0.25549 0.17996 0.0
O45 O 0.50647 0.27804 0.10908 0.0
O46 O 0.52781 0.29934 0.14644 0.0
O47 O 0.53605 0.26611 0.18957 0.0
O48 O 0.55014 0.24473 0.15496 0.0
C49 C 0.50024 0.20475 0.1212 0.0
O50 O 0.47826 0.25525 0.18351 0.0
O51 O 0.46414 0.262 0.1422 0.0
In52 In 0.03676 0.77875 0.14869 0.0
O53 O 0.0332 0.7457 0.11193 0.0
O54 O 0.04393 0.73588 0.15337 0.0
C55 C 0.03512 0.82407 0.12248 0.0
C56 C 0.98764 0.7715 0.1686 0.0
C57 C 0.08671 0.79077 0.17625 0.0
O58 O 0.03773 0.80184 0.10932 0.0
O59 O 0.03363 0.82329 0.14862 0.0
O60 O 0.06554 0.78791 0.18921 0.0
O61 O 0.08241 0.78856 0.14974 0.0
C62 C 0.03958 0.72802 0.1275 0.0
O63 O 0.00936 0.77653 0.18484 0.0
O64 O 0.99087 0.76983 0.1427 0.0
In65 In 0.50493 0.75366 0.39189 0.0
O66 O 0.53183 0.7551 0.35456 0.0
O67 O 0.55035 0.76623 0.39635 0.0
C68 C 0.45873 0.74046 0.35722 0.0
C69 C 0.51522 0.71443 0.42457 0.0
C70 C 0.49533 0.79869 0.42146 0.0
O71 O 0.4768 0.76024 0.3536 0.0
O72 O 0.46521 0.72624 0.3765 0.0
O73 O 0.47814 0.77727 0.41749 0.0
O74 O 0.51726 0.79758 0.41056 0.0
C75 C 0.55362 0.76234 0.37059 0.0
O76 O 0.50578 0.73488 0.43407 0.0
O77 O 0.51792 0.71304 0.39855 0.0
In78 In 0.53766 0.28567 0.65575 0.0
O79 O 0.53169 0.25037 0.62113 0.0
O80 O 0.53007 0.24141 0.66377 0.0
C81 C 0.53453 0.32756 0.62411 0.0
C82 C 0.49219 0.28326 0.68203 0.0
C83 C 0.58923 0.29305 0.68007 0.0
O84 O 0.53992 0.30516 0.61403 0.0
O85 O 0.53124 0.3289 0.65001 0.0
O86 O 0.56965 0.29763 0.69376 0.0
O87 O 0.5828 0.28578 0.65428 0.0
C88 C 0.52818 0.23246 0.63823 0.0
O89 O 0.51555 0.28939 0.69531 0.0
O90 O 0.49196 0.27941 0.65557 0.0
In91 In 0.00621 0.25175 0.89243 0.0
O92 O 0.00639 0.23749 0.93593 0.0
O93 O 0.01023 0.20806 0.90255 0.0
C94 C 0.99742 0.29632 0.9228 0.0
C95 C 0.05667 0.25762 0.87479 0.0
C96 C 0.96326 0.24941 0.8534 0.0
O97 O 0.98635 0.2728 0.92718 0.0
O98 O 0.01293 0.29731 0.90322 0.0
O99 O 0.98372 0.26784 0.85625 0.0
O100 O 0.96488 0.23058 0.86924 0.0
C101 C 0.00962 0.21356 0.92878 0.0
O102 O 0.03624 0.24457 0.85961 0.0
O103 O 0.05155 0.2674 0.89847 0.0
In104 In 0.40321 0.02351 0.28676 0.0
O105 O 0.43725 0.03009 0.25735 0.0
O106 O 0.3973 0.01272 0.23985 0.0
C107 C 0.43151 0.03369 0.33743 0.0
C108 C 0.37542 0.06494 0.28273 0.0
C109 C 0.38336 0.97184 0.29392 0.0
O110 O 0.4431 0.03123 0.31502 0.0
O111 O 0.406 0.03202 0.33396 0.0
O112 O 0.36852 0.99006 0.2941 0.0
O113 O 0.40779 0.97978 0.28993 0.0
C114 C 0.42169 0.02036 0.23558 0.0
O115 O 0.36453 0.04067 0.27535 0.0
O116 O 0.40016 0.06825 0.29201 0.0
In117 In 0.26428 0.14221 0.50161 0.0
O118 O 0.29392 0.16564 0.53755 0.0
O119 O 0.25189 0.16375 0.54155 0.0
C120 C 0.26728 0.17189 0.45639 0.0
C121 C 0.30174 0.10829 0.50242 0.0
C122 C 0.21217 0.11613 0.49876 0.0
O123 O 0.27492 0.18222 0.48123 0.0
O124 O 0.25834 0.14674 0.45442 0.0
O125 O 0.23194 0.10334 0.49701 0.0
O126 O 0.21878 0.14162 0.50128 0.0
C127 C 0.27579 0.1718 0.55254 0.0
O128 O 0.2834 0.10734 0.51915 0.0
O129 O 0.30055 0.12563 0.4848 0.0
In130 In 0.14663 0.0217 0.79581 0.0
O131 O 0.11004 0.00824 0.7631 0.0
O132 O 0.14599 0.03044 0.74992 0.0
C133 C 0.11357 0.01591 0.83825 0.0
C134 C 0.1745 0.979 0.79461 0.0
C135 C 0.17398 0.07361 0.80264 0.0
O136 O 0.10478 0.01881 0.81341 0.0
O137 O 0.13876 0.01549 0.8415 0.0
O138 O 0.18564 0.05343 0.79753 0.0
O139 O 0.14892 0.06754 0.80496 0.0
C140 C 0.12182 0.01872 0.74322 0.0
O141 O 0.17718 0.99684 0.81523 0.0
O142 O 0.1576 0.98238 0.77481 0.0
In143 In 0.26117 0.88458 0.01065 0.0
O144 O 0.26114 0.85159 0.04051 0.0
O145 O 0.2714 0.89295 0.05761 0.0
C146 C 0.24768 0.85423 0.96136 0.0
C147 C 0.21846 0.90964 0.01915 0.0
C148 C 0.31306 0.9036 0.00329 0.0
O149 O 0.24787 0.84385 0.98456 0.0
O150 O 0.25312 0.87987 0.96329 0.0
O151 O 0.29504 0.91875 0.00272 0.0
O152 O 0.30472 0.87931 0.0075 0.0
C153 C 0.26782 0.86824 0.06213 0.0
O154 O 0.24189 0.92289 0.01764 0.0
O155 O 0.21664 0.88419 0.01505 0.0
In156 In 0.27449 0.39224 0.04706 0.0
O157 O 0.26723 0.35259 0.06815 0.0
O158 O 0.27788 0.3898 0.0944 0.0
C159 C 0.26959 0.3741 0.99204 0.0
C160 C 0.22875 0.41447 0.04964 0.0
C161 C 0.32747 0.41478 0.05016 0.0
O162 O 0.27048 0.35814 0.01116 0.0
O163 O 0.27017 0.39863 0.00081 0.0
O164 O 0.30929 0.4287 0.05612 0.0
O165 O 0.31894 0.38976 0.04418 0.0
C166 C 0.27148 0.36423 0.09291 0.0
O167 O 0.25163 0.4289 0.04816 0.0
O168 O 0.22918 0.38936 0.04984 0.0
In169 In 0.77876 0.13672 0.03793 0.0
O170 O 0.80176 0.10404 0.05204 0.0
O171 O 0.81311 0.12205 0.01511 0.0
C172 C 0.72941 0.10759 0.04095 0.0
C173 C 0.79407 0.17149 0.08451 0.0
C174 C 0.77306 0.16545 0.99363 0.0
O175 O 0.74664 0.09901 0.02619 0.0
O176 O 0.73735 0.13047 0.05456 0.0
O177 O 0.795 0.1682 0.00941 0.0
O178 O 0.75438 0.14737 -0.00047 0.0
C179 C 0.81734 0.10525 0.03261 0.0
O180 O 0.78278 0.17845 0.06241 0.0
O181 O 0.79753 0.14706 0.08311 0.0
In182 In 0.14409 0.50272 0.26319 0.0
O183 O 0.18453 0.48737 0.25893 0.0
O184 O 0.15388 0.46287 0.27799 0.0
C185 C 0.17451 0.5521 0.27689 0.0
C186 C 0.11439 0.49481 0.21241 0.0
C187 C 0.10706 0.49944 0.30098 0.0
O188 O 0.16971 0.53487 0.29442 0.0
O189 O 0.16488 0.54406 0.25187 0.0
O190 O 0.11436 0.47862 0.28915 0.0
O191 O 0.11841 0.52176 0.29366 0.0
C192 C 0.17761 0.46578 0.27034 0.0
O193 O 0.10711 0.50695 0.23378 0.0
O194 O 0.13701 0.48697 0.21634 0.0
In195 In 0.77743 0.8906 0.543 0.0
O196 O 0.78745 0.8529 0.56327 0.0
O197 O 0.76897 0.88066 0.58788 0.0
C198 C 0.77334 0.86104 0.49218 0.0
C199 C 0.73475 0.91808 0.54429 0.0
C200 C 0.82414 0.92663 0.54519 0.0
O201 O 0.75491 0.85828 0.50866 0.0
O202 O 0.79363 0.8786 0.50125 0.0
O203 O 0.80317 0.92806 0.52923 0.0
O204 O 0.82144 0.9073 0.56079 0.0
C205 C 0.77763 0.85826 0.58612 0.0
O206 O 0.759 0.92974 0.54989 0.0
O207 O 0.73202 0.89276 0.53832 0.0
In208 In 0.88878 0.01109 0.2459 0.0
O209 O 0.92568 0.00438 0.22179 0.0
O210 O 0.89919 0.02917 0.20455 0.0
C211 C 0.90804 0.00831 0.29986 0.0
C212 C 0.87147 0.05943 0.2549 0.0
C213 C 0.85726 0.96101 0.23585 0.0
O214 O 0.9237 0.01247 0.28065 0.0
O215 O 0.88311 0.0061 0.29183 0.0
O216 O 0.84759 0.98249 0.2322 0.0
O217 O 0.88253 0.96496 0.24246 0.0
C218 C 0.9207 0.01929 0.20267 0.0
O219 O 0.85555 0.03838 0.24378 0.0
O220 O 0.89554 0.05581 0.2613 0.0
In221 In 0.27786 0.63212 0.53208 0.0
O222 O 0.29765 0.59828 0.51041 0.0
O223 O 0.32182 0.62854 0.53939 0.0
C224 C 0.22938 0.60458 0.54053 0.0
C225 C 0.28845 0.66143 0.58204 0.0
C226 C 0.26934 0.66023 0.48766 0.0
O227 O 0.24846 0.59236 0.5335 0.0
O228 O 0.23538 0.63009 0.54405 0.0
O229 O 0.28906 0.66755 0.50616 0.0
O230 O 0.2546 0.63814 0.49092 0.0
C231 C 0.32085 0.60754 0.52281 0.0
O232 O 0.28478 0.67213 0.55933 0.0
O233 O 0.28694 0.63587 0.57945 0.0
In234 In 0.39058 0.51172 0.75294 0.0
O235 O 0.36985 0.54282 0.73059 0.0
O236 O 0.37039 0.54531 0.77502 0.0
C237 C 0.35478 0.46431 0.75098 0.0
C238 C 0.42081 0.51552 0.70799 0.0
C239 C 0.4242 0.5086 0.79984 0.0
O240 O 0.34886 0.48678 0.76031 0.0
O241 O 0.37791 0.46613 0.74201 0.0
O242 O 0.41348 0.48832 0.78322 0.0
O243 O 0.41844 0.53093 0.79268 0.0
C244 C 0.36366 0.55522 0.75254 0.0
O245 O 0.43015 0.5261 0.73237 0.0
O246 O 0.39657 0.50346 0.7065 0.0
In247 In 0.64601 0.0052 0.75302 0.0
O248 O 0.68741 0.993 0.76333 0.0
O249 O 0.65332 0.96152 0.75807 0.0
C250 C 0.66914 0.05804 0.75725 0.0
C251 C 0.62106 0.99522 0.70006 0.0
C252 C 0.61495 0.00745 0.79622 0.0
O253 O 0.68004 0.0395 0.74568 0.0
O254 O 0.64642 0.05001 0.76595 0.0
O255 O 0.60503 0.00521 0.77088 0.0
O256 O 0.64031 0.00778 0.79961 0.0
C257 C 0.6787 0.96805 0.76341 0.0
O258 O 0.61041 0.98567 0.72087 0.0
O259 O 0.64446 0.00891 0.70589 0.0
In260 In 0.75971 0.64107 0.99813 0.0
O261 O 0.7838 0.60567 0.00316 0.0
O262 O 0.80562 0.64559 0.00305 0.0
C263 C 0.71215 0.60621 0.99275 0.0
C264 C 0.76198 0.66738 0.05042 0.0
C265 C 0.75669 0.66878 0.95139 0.0
O266 O 0.73337 0.59912 0.9838 0.0
O267 O 0.71497 0.63064 0.00284 0.0
O268 O 0.74553 0.67464 0.97324 0.0
O269 O 0.76902 0.64879 0.95281 0.0
C270 C 0.8067 0.62076 0.00468 0.0
O271 O 0.77554 0.67729 0.03149 0.0
O272 O 0.7478 0.64447 0.04313 0.0
In273 In 0.89863 0.5259 0.79052 0.0
O274 O 0.85854 0.54081 0.79497 0.0
O275 O 0.88815 0.5655 0.77461 0.0
C276 C 0.88085 0.4722 0.79084 0.0
C277 C 0.92617 0.52392 0.74465 0.0
C278 C 0.92158 0.54145 0.84351 0.0
O279 O 0.86541 0.48846 0.78327 0.0
O280 O 0.90519 0.48295 0.79775 0.0
O281 O 0.93485 0.54508 0.82239 0.0
O282 O 0.89694 0.5313 0.83759 0.0
C283 C 0.86458 0.56201 0.78277 0.0
O284 O 0.93812 0.5288 0.76923 0.0
O285 O 0.90053 0.52051 0.74332 0.0
In286 In 0.76344 0.38559 0.51379 0.0
O287 O 0.75899 0.34507 0.53368 0.0
O288 O 0.77422 0.38147 0.55979 0.0
C289 C 0.75993 0.3633 0.46067 0.0
C290 C 0.71817 0.40723 0.51995 0.0
C291 C 0.81105 0.41809 0.51221 0.0
O292 O 0.75812 0.34892 0.4812 0.0
O293 O 0.7628 0.38862 0.46707 0.0
O294 O 0.7893 0.42739 0.51474 0.0
O295 O 0.80881 0.39255 0.51113 0.0
C296 C 0.76761 0.35604 0.55805 0.0
O297 O 0.74009 0.4157 0.535 0.0
O298 O 0.71885 0.38742 0.50219 0.0
In299 In 0.64469 0.52432 0.29881 0.0
O300 O 0.68205 0.50421 0.30951 0.0
O301 O 0.64936 0.48078 0.28317 0.0
C302 C 0.67433 0.57497 0.30638 0.0
C303 C 0.6207 0.52666 0.24612 0.0
C304 C 0.61413 0.5197 0.34355 0.0
O305 O 0.68317 0.55474 0.2953 0.0
O306 O 0.65076 0.56954 0.31432 0.0
O307 O 0.60406 0.52188 0.31896 0.0
O308 O 0.63939 0.51952 0.34547 0.0
C309 C 0.67293 0.48196 0.29517 0.0
O310 O 0.61063 0.50998 0.26244 0.0
O311 O 0.64223 0.54183 0.2565 0.0
Zn312 Zn 0.05795 0.01813 0.04906 0.0
Zn313 Zn 0.00663 0.03323 0.01468 0.0
C314 C 0.04611 0.97501 0.08007 0.0
O315 O 0.05875 0.99513 0.09803 0.0
C316 C 0.02336 0.09198 0.0231 0.0
O317 O 0.00388 0.09214 0.03991 0.0
O318 O 0.09754 0.01645 0.06151 0.0
O319 O 0.06087 0.02495 0.00779 0.0
O320 O 0.02083 0.01113 0.98397 0.0
C321 C 0.10269 0.99616 0.04617 0.0
O322 O 0.0839 0.98344 0.02682 0.0
O323 O 0.041 0.97939 0.05449 0.0
C324 C 0.95472 0.04667 0.02199 0.0
O325 O 0.96446 0.04616 0.04818 0.0
O326 O 0.96911 0.04118 0.0022 0.0
O327 O 0.00281 0.01647 0.05162 0.0
O328 O 0.03845 0.04102 0.07586 0.0
O329 O 0.03095 0.06958 0.0159 0.0
C330 C 0.04659 0.01629 0.98468 0.0
C331 C 0.01393 0.02902 0.07476 0.0
Zn332 Zn 0.26055 0.76363 0.30811 0.0
Zn333 Zn 0.27279 0.77216 0.25257 0.0
C334 C 0.2288 0.71082 0.30104 0.0
O335 O 0.21642 0.72195 0.32101 0.0
C336 C 0.30649 0.8213 0.27058 0.0
O337 O 0.32206 0.80855 0.25523 0.0
O338 O 0.2567 0.76298 0.34929 0.0
O339 O 0.30165 0.7721 0.30656 0.0
O340 O 0.30074 0.74976 0.26499 0.0
C341 C 0.27145 0.74692 0.3592 0.0
O342 O 0.2847 0.73314 0.3422 0.0
O343 O 0.24862 0.72492 0.29122 0.0
C344 C 0.2669 0.79897 0.20512 0.0
O345 O 0.25547 0.81329 0.22355 0.0
O346 O 0.27664 0.77838 0.21246 0.0
O347 O 0.23316 0.75904 0.25304 0.0
O348 O 0.2333 0.78567 0.29163 0.0
O349 O 0.28274 0.80945 0.27365 0.0
C350 C 0.31327 0.75868 0.28883 0.0
C351 C 0.22128 0.77461 0.26817 0.0
Zn352 Zn 0.48604 0.03134 0.53451 0.0
Zn353 Zn 0.54814 0.9914 0.52141 0.0
C354 C 0.49635 0.07967 0.5696 0.0
O355 O 0.4786 0.06488 0.58324 0.0
C356 C 0.50721 0.94122 0.50744 0.0
O357 O 0.49101 0.95564 0.49468 0.0
O358 O 0.44607 0.03416 0.52478 0.0
O359 O 0.50508 0.02011 0.50024 0.0
O360 O 0.53824 0.00204 0.48258 0.0
C361 C 0.44324 0.05337 0.50939 0.0
O362 O 0.46512 0.06733 0.50095 0.0
O363 O 0.50374 0.06924 0.54707 0.0
C364 C 0.59176 0.96995 0.54647 0.0
O365 O 0.57086 0.95843 0.55857 0.0
O366 O 0.5883 0.98832 0.53014 0.0
O367 O 0.53238 0.01594 0.54818 0.0
O368 O 0.49468 0.0103 0.56798 0.0
O369 O 0.52935 0.95309 0.52077 0.0
C370 C 0.51705 0.01307 0.47897 0.0
C371 C 0.51928 0.00681 0.5679 0.0
Zn372 Zn 0.30057 0.25537 0.76472 0.0
Zn373 Zn 0.24756 0.27305 0.78482 0.0
C374 C 0.28301 0.22434 0.71462 0.0
O375 O 0.29864 0.21005 0.72842 0.0
C376 C 0.26337 0.30698 0.83454 0.0
O377 O 0.25358 0.32333 0.81768 0.0
O378 O 0.33857 0.25268 0.75437 0.0
O379 O 0.30456 0.2945 0.77967 0.0
O380 O 0.26531 0.30207 0.76105 0.0
C381 C 0.34361 0.2649 0.73258 0.0
O382 O 0.3252 0.27764 0.72092 0.0
O383 O 0.27774 0.24614 0.72699 0.0
C384 C 0.19859 0.26537 0.80901 0.0
O385 O 0.21456 0.25366 0.82553 0.0
O386 O 0.20798 0.27626 0.78791 0.0
O387 O 0.24579 0.2325 0.77514 0.0
O388 O 0.28724 0.22673 0.78969 0.0
O389 O 0.26486 0.28298 0.82467 0.0
C390 C 0.29053 0.31025 0.76797 0.0
C391 C 0.26192 0.21772 0.78543 0.0
Zn392 Zn 0.03667 0.98406 0.53415 0.0
Zn393 Zn 0.0112 0.03732 0.50545 0.0
C394 C 0.0774 0.00581 0.57855 0.0
O395 O 0.09278 0.99738 0.55981 0.0
C396 C 0.97948 0.0172 0.45567 0.0
O397 O 0.96159 0.0237 0.47257 0.0
O398 O 0.04213 0.94537 0.53849 0.0
O399 O 0.99586 0.98027 0.53173 0.0
O400 O 0.9818 0.01973 0.52811 0.0
C401 C 0.03091 0.93787 0.56017 0.0
O402 O 0.02004 0.95563 0.57535 0.0
O403 O 0.05203 0.00394 0.57185 0.0
C404 C 0.0229 0.08996 0.4883 0.0
O405 O 0.04391 0.07948 0.4805 0.0
O406 O 0.0049 0.07559 0.50049 0.0
O407 O 0.05112 0.04106 0.51966 0.0
O408 O 0.0589 0.00061 0.5045 0.0
O409 O 0.00422 0.01966 0.46551 0.0
C410 C 0.97736 0.99491 0.53296 0.0
C411 C 0.06682 0.02611 0.50912 0.0
Zn412 Zn 0.26469 0.8001 0.75321 0.0
Zn413 Zn 0.28784 0.74569 0.77948 0.0
C414 C 0.21809 0.77749 0.72124 0.0
O415 O 0.23409 0.7895 0.70389 0.0
C416 C 0.33371 0.77256 0.81336 0.0
O417 O 0.31709 0.76519 0.83227 0.0
O418 O 0.25734 0.83855 0.74833 0.0
O419 O 0.2821 0.8013 0.79216 0.0
O420 O 0.26399 0.76255 0.80629 0.0
C421 C 0.24227 0.84654 0.76651 0.0
O422 O 0.23375 0.83004 0.7851 0.0
O423 O 0.22706 0.77788 0.74693 0.0
C424 C 0.30968 0.69743 0.77171 0.0
O425 O 0.32182 0.71312 0.75421 0.0
O426 O 0.29286 0.70683 0.78698 0.0
O427 O 0.27622 0.74368 0.73794 0.0
O428 O 0.2866 0.78505 0.72416 0.0
O429 O 0.32571 0.76686 0.7874 0.0
C430 C 0.26931 0.78837 0.81 0.0
C431 C 0.28416 0.75934 0.71946 0.0
Zn432 Zn 0.52385 0.03171 0.98685 0.0
Zn433 Zn 0.51381 0.01477 0.04218 0.0
C434 C 0.57081 0.06782 0.00922 0.0
O435 O 0.55717 0.0845 0.99649 0.0
C436 C 0.4654 0.9783 0.02372 0.0
O437 O 0.47968 0.9619 0.03608 0.0
O438 O 0.53294 0.03728 0.94708 0.0
O439 O 0.51301 0.99087 0.98624 0.0
O440 O 0.53897 0.99105 0.02545 0.0
C441 C 0.5531 0.02542 0.94237 0.0
O442 O 0.56293 0.01159 0.96181 0.0
O443 O 0.56037 0.04298 0.0089 0.0
C444 C 0.48946 0.01767 0.09123 0.0
O445 O 0.47422 0.02896 0.07354 0.0
O446 O 0.51005 0.00856 0.0828 0.0
O447 O 0.52191 0.05507 0.04362 0.0
O448 O 0.50028 0.05822 0.00241 0.0
O449 O 0.47613 0.00285 0.02258 0.0
C450 C 0.52872 0.97928 0.00163 0.0
C451 C 0.50796 0.06795 0.02776 0.0
Zn452 Zn 0.2656 0.22574 0.24762 0.0
Zn453 Zn 0.24509 0.27598 0.27875 0.0
C454 C 0.31342 0.24447 0.22638 0.0
O455 O 0.29687 0.23176 0.20505 0.0
C456 C 0.18678 0.26285 0.26614 0.0
O457 O 0.1903 0.28155 0.24842 0.0
O458 O 0.27263 0.18744 0.23775 0.0
O459 O 0.24846 0.22167 0.28429 0.0
O460 O 0.2679 0.25986 0.308 0.0
C461 C 0.28886 0.18264 0.25795 0.0
O462 O 0.29638 0.20156 0.27898 0.0
O463 O 0.30436 0.24681 0.25047 0.0
C464 C 0.24791 0.33484 0.28505 0.0
O465 O 0.26741 0.33509 0.2682 0.0
O466 O 0.23797 0.31257 0.29407 0.0
O467 O 0.25681 0.2814 0.23985 0.0
O468 O 0.24489 0.24099 0.21629 0.0
O469 O 0.20744 0.25456 0.27747 0.0
C470 C 0.25901 0.2346 0.30747 0.0
C471 C 0.25038 0.26673 0.21658 0.0
Zn472 Zn 0.52746 0.48611 0.03241 0.0
Zn473 Zn 0.51044 0.5452 0.015 0.0
C474 C 0.55755 0.50397 0.08627 0.0
O475 O 0.57814 0.50259 0.07115 0.0
C476 C 0.49997 0.51515 0.95449 0.0
O477 O 0.50321 0.49116 0.96218 0.0
O478 O 0.53246 0.44677 0.03322 0.0
O479 O 0.48747 0.4852 0.0189 0.0
O480 O 0.4807 0.52587 0.03519 0.0
C481 C 0.51281 0.43151 0.04217 0.0
O482 O 0.49141 0.44175 0.04907 0.0
O483 O 0.53347 0.49908 0.07418 0.0
C484 C 0.52804 0.6001 0.00846 0.0
O485 O 0.54979 0.5896 0.00334 0.0
O486 O 0.50735 0.58499 0.01573 0.0
O487 O 0.54854 0.54471 0.0314 0.0
O488 O 0.55748 0.50644 0.01151 0.0
O489 O 0.50296 0.53547 0.97285 0.0
C490 C 0.47218 0.50059 0.02959 0.0
C491 C 0.56507 0.53138 0.02009 0.0
Zn492 Zn 0.75995 0.30111 0.25689 0.0
Zn493 Zn 0.78435 0.24444 0.27462 0.0
C494 C 0.71284 0.27274 0.22409 0.0
O495 O 0.72781 0.28068 0.20403 0.0
C496 C 0.83103 0.26293 0.3109 0.0
O497 O 0.81449 0.25014 0.32726 0.0
O498 O 0.75152 0.33944 0.25539 0.0
O499 O 0.77621 0.29933 0.29599 0.0
O500 O 0.76058 0.25714 0.30354 0.0
C501 C 0.73386 0.3448 0.27182 0.0
O502 O 0.72379 0.32626 0.28773 0.0
O503 O 0.7227 0.27788 0.24962 0.0
C504 C 0.8103 0.19789 0.26807 0.0
O505 O 0.82848 0.21692 0.26008 0.0
O506 O 0.78816 0.20426 0.27596 0.0
O507 O 0.77304 0.24801 0.2343 0.0
O508 O 0.78354 0.29123 0.22683 0.0
O509 O 0.82221 0.26509 0.28566 0.0
C510 C 0.76558 0.28235 0.3119 0.0
C511 C 0.7835 0.26623 0.21958 0.0
Zn512 Zn 0.02233 0.52835 0.49349 0.0
Zn513 Zn 0.0118 0.51121 0.54993 0.0
C514 C 0.07136 0.56331 0.50608 0.0
O515 O 0.05623 0.57923 0.49413 0.0
C516 C 0.96525 0.47826 0.52768 0.0
O517 O 0.97851 0.46271 0.54254 0.0
O518 O 0.02303 0.53415 0.45232 0.0
O519 O 0.01358 0.48735 0.49429 0.0
O520 O 0.03395 0.48348 0.53598 0.0
C521 C 0.03735 0.51832 0.44076 0.0
O522 O 0.04898 0.50205 0.45619 0.0
O523 O 0.06129 0.53878 0.50826 0.0
C524 C 0.98241 0.52193 0.59364 0.0
O525 O 0.97477 0.53652 0.57374 0.0
O526 O 0.00089 0.50761 0.58937 0.0
O527 O 0.02913 0.54969 0.55098 0.0
O528 O 0.00277 0.55618 0.5142 0.0
O529 O 0.97564 0.50293 0.52659 0.0
C530 C 0.0266 0.47391 0.51059 0.0
C531 C 0.01629 0.5653 0.53761 0.0
Zn532 Zn 0.80174 0.75623 0.26343 0.0
Zn533 Zn 0.74494 0.77567 0.28115 0.0
C534 C 0.79439 0.72775 0.21007 0.0
O535 O 0.80919 0.71343 0.22483 0.0
C536 C 0.76696 0.81123 0.33022 0.0
O537 O 0.76239 0.82958 0.3131 0.0
O538 O 0.84155 0.75398 0.26229 0.0
O539 O 0.80209 0.79477 0.27873 0.0
O540 O 0.76482 0.80277 0.2562 0.0
C541 C 0.85179 0.76913 0.24448 0.0
O542 O 0.83655 0.78439 0.2316 0.0
O543 O 0.78662 0.74837 0.22228 0.0
C544 C 0.6955 0.76856 0.30359 0.0
O545 O 0.71088 0.75507 0.31876 0.0
O546 O 0.70556 0.78072 0.28349 0.0
O547 O 0.74211 0.73452 0.2734 0.0
O548 O 0.78383 0.72634 0.2841 0.0
O549 O 0.76182 0.7862 0.32127 0.0
C550 C 0.78994 0.81027 0.26438 0.0
C551 C 0.75829 0.71849 0.28072 0.0
Zn552 Zn 0.76388 0.26132 0.80992 0.0
Zn553 Zn 0.77415 0.26929 0.75207 0.0
C554 C 0.72628 0.21393 0.80566 0.0
O555 O 0.71528 0.23088 0.8218 0.0
C556 C 0.8095 0.31839 0.7701 0.0
O557 O 0.82517 0.30549 0.75503 0.0
O558 O 0.76377 0.26144 0.85198 0.0
O559 O 0.80411 0.26929 0.80341 0.0
O560 O 0.80027 0.24419 0.7631 0.0
C561 C 0.78267 0.2501 0.8627 0.0
O562 O 0.79959 0.24067 0.8464 0.0
O563 O 0.74897 0.22234 0.79653 0.0
C564 C 0.76507 0.29918 0.70812 0.0
O565 O 0.75284 0.30972 0.72856 0.0
O566 O 0.77633 0.27849 0.71203 0.0
O567 O 0.7349 0.2566 0.75492 0.0
O568 O 0.73597 0.28321 0.79379 0.0
O569 O 0.78592 0.30637 0.77375 0.0
C570 C 0.81384 0.25348 0.78631 0.0
C571 C 0.72355 0.27243 0.77035 0.0
Zn572 Zn 0.76727 0.72968 0.74833 0.0
Zn573 Zn 0.75358 0.78386 0.78107 0.0
C574 C 0.81235 0.73708 0.72142 0.0
O575 O 0.7918 0.72734 0.70264 0.0
C576 C 0.70862 0.76761 0.80683 0.0
O577 O 0.72756 0.77955 0.82645 0.0
O578 O 0.76798 0.68983 0.73608 0.0
O579 O 0.7558 0.72802 0.78845 0.0
O580 O 0.77787 0.7672 0.80834 0.0
C581 C 0.78359 0.68138 0.75458 0.0
O582 O 0.79417 0.69786 0.77676 0.0
O583 O 0.80735 0.74399 0.74644 0.0
C584 C 0.75594 0.84277 0.78474 0.0
O585 O 0.77395 0.84284 0.76622 0.0
O586 O 0.74833 0.82116 0.79614 0.0
O587 O 0.76394 0.78884 0.74208 0.0
O588 O 0.74712 0.74897 0.71905 0.0
O589 O 0.71482 0.76467 0.7816 0.0
C590 C 0.76938 0.7421 0.80966 0.0
C591 C 0.75419 0.7746 0.71938 0.0
Zn592 Zn 0.55939 0.51936 0.55424 0.0
Zn593 Zn 0.51006 0.53984 0.5239 0.0
C594 C 0.53645 0.47331 0.57637 0.0
O595 O 0.54964 0.4891 0.59798 0.0
C596 C 0.53884 0.59176 0.50924 0.0
O597 O 0.54557 0.57697 0.4879 0.0
O598 O 0.59627 0.51012 0.5657 0.0
O599 O 0.56572 0.53319 0.51631 0.0
O600 O 0.52614 0.51941 0.49226 0.0
C601 C 0.60005 0.49242 0.54638 0.0
O602 O 0.58095 0.48482 0.52553 0.0
O603 O 0.5361 0.4819 0.55204 0.0
C604 C 0.46522 0.5603 0.53289 0.0
O605 O 0.48277 0.5676 0.55513 0.0
O606 O 0.47139 0.54465 0.51291 0.0
O607 O 0.50617 0.52354 0.56129 0.0
O608 O 0.54485 0.54274 0.58441 0.0
O609 O 0.5275 0.58001 0.52885 0.0
C610 C 0.55194 0.52378 0.49317 0.0
C611 C 0.51952 0.53417 0.5843 0.0
Zn612 Zn 0.98439 0.5255 0.03464 0.0
Zn613 Zn 0.0452 0.49784 0.01386 0.0
C614 C 0.01731 0.57515 0.06229 0.0
O615 O 0.02084 0.56029 0.08325 0.0
C616 C 0.01282 0.44315 0.00107 0.0
O617 O 0.00799 0.44405 0.02769 0.0
O618 O 0.94413 0.52918 0.03263 0.0
O619 O 0.99254 0.50805 0.99778 0.0
O620 O 0.03378 0.5265 0.99059 0.0
C621 C 0.93856 0.54922 0.01972 0.0
O622 O 0.95806 0.56389 0.00818 0.0
O623 O 0.00416 0.56413 0.03941 0.0
C624 C 0.09186 0.47633 0.0281 0.0
O625 O 0.07215 0.45931 0.03667 0.0
O626 O 0.0858 0.49676 0.0162 0.0
O627 O 0.03449 0.49773 0.05338 0.0
O628 O 0.99625 0.50755 0.06878 0.0
O629 O 0.0275 0.46309 0.99209 0.0
C630 C 0.00828 0.52337 0.98404 0.0
C631 C 0.0191 0.49968 0.07307 0.0
H632 H 0.0291 0.16556 0.92256 0.0
H633 H 0.99872 0.21894 0.98329 0.0
H634 H 0.00369 0.1877 0.01915 0.0
H635 H 0.01321 0.14357 0.03235 0.0
H636 H 0.04485 0.09053 0.97227 0.0
H637 H 0.04342 0.12342 0.93751 0.0
C638 C 0.02353 0.17025 0.94363 0.0
C639 C 0.01302 0.19422 0.95007 0.0
C640 C 0.02684 0.15235 0.96441 0.0
C641 C 0.0065 0.2004 0.97765 0.0
C642 C 0.00942 0.18261 0.99825 0.0
C643 C 0.02029 0.13944 0.01185 0.0
C644 C 0.02878 0.11448 0.00492 0.0
C645 C 0.01916 0.15832 0.99177 0.0
C646 C 0.03818 0.10958 0.9783 0.0
C647 C 0.03712 0.12828 0.95821 0.0
H648 H 0.10221 0.7946 0.23284 0.0
H649 H 0.13334 0.79112 0.15121 0.0
H650 H 0.17791 0.78682 0.17291 0.0
H651 H 0.20672 0.77965 0.21404 0.0
H652 H 0.17796 0.78547 0.29648 0.0
H653 H 0.13358 0.79311 0.2755 0.0
C654 C 0.11889 0.79332 0.21992 0.0
C655 C 0.11437 0.79279 0.19042 0.0
C656 C 0.14467 0.79088 0.23258 0.0
C657 C 0.1362 0.79138 0.17393 0.0
C658 C 0.16169 0.78879 0.18628 0.0
C659 C 0.19085 0.78289 0.22749 0.0
C660 C 0.19535 0.78168 0.25665 0.0
C661 C 0.16591 0.78778 0.21542 0.0
C662 C 0.1748 0.78624 0.27391 0.0
C663 C 0.14949 0.79054 0.26192 0.0
H664 H 0.52875 0.82651 0.46389 0.0
H665 H 0.45125 0.82419 0.41683 0.0
H666 H 0.44594 0.86743 0.44221 0.0
H667 H 0.4662 0.90806 0.47421 0.0
H668 H 0.5426 0.90785 0.52326 0.0
H669 H 0.54507 0.86302 0.50133 0.0
C670 C 0.51063 0.83546 0.45949 0.0
C671 C 0.49068 0.82289 0.43834 0.0
C672 C 0.50748 0.8597 0.47457 0.0
C673 C 0.46692 0.83397 0.43299 0.0
C674 C 0.46392 0.85857 0.44746 0.0
C675 C 0.48304 0.89794 0.48056 0.0
C676 C 0.50449 0.91166 0.49976 0.0
C677 C 0.48443 0.87196 0.46784 0.0
C678 C 0.52596 0.89803 0.50817 0.0
C679 C 0.52755 0.87239 0.49553 0.0
H680 H 0.44084 0.2736 0.65728 0.0
H681 H 0.4871 0.28381 0.73856 0.0
H682 H 0.44497 0.27636 0.76166 0.0
H683 H 0.39466 0.26866 0.75862 0.0
H684 H 0.34926 0.26097 0.67705 0.0
H685 H 0.39133 0.26519 0.65412 0.0
C686 C 0.44172 0.27422 0.68006 0.0
C687 C 0.46697 0.27944 0.69622 0.0
C688 C 0.41755 0.27016 0.6931 0.0
C689 C 0.46783 0.28008 0.7257 0.0
C690 C 0.44378 0.2757 0.7389 0.0
C691 C 0.39413 0.26756 0.73584 0.0
C692 C 0.3691 0.26453 0.71946 0.0
C693 C 0.41849 0.27089 0.72281 0.0
C694 C 0.36843 0.26344 0.69 0.0
C695 C 0.39243 0.26591 0.67689 0.0
H696 H 0.03446 0.8164 0.58633 0.0
H697 H 0.98346 0.83979 0.64961 0.0
H698 H 0.98541 0.88442 0.63237 0.0
H699 H 0.00262 0.91713 0.60096 0.0
H700 H 0.05445 0.89564 0.53778 0.0
H701 H 0.05113 0.84974 0.55336 0.0
C702 C 0.02366 0.83127 0.59615 0.0
C703 C 0.00892 0.8249 0.61927 0.0
C704 C 0.02515 0.85716 0.58633 0.0
C705 C 0.99506 0.84428 0.63191 0.0
C706 C 0.99616 0.8698 0.62208 0.0
C707 C 0.01329 0.90251 0.59051 0.0
C708 C 0.02897 0.90986 0.5684 0.0
C709 C 0.01138 0.87652 0.59959 0.0
C710 C 0.04234 0.89049 0.55495 0.0
C711 C 0.04044 0.86429 0.56385 0.0
H712 H 0.44518 0.80969 0.88347 0.0
H713 H 0.47164 0.76051 0.81617 0.0
H714 H 0.42701 0.75683 0.78958 0.0
H715 H 0.37858 0.76189 0.78919 0.0
H716 H 0.35211 0.80757 0.85911 0.0
H717 H 0.3988 0.81876 0.88087 0.0
C718 C 0.44134 0.79845 0.86281 0.0
C719 C 0.4614 0.78494 0.85198 0.0
C720 C 0.41558 0.79573 0.84823 0.0
C721 C 0.45633 0.77082 0.82503 0.0
C722 C 0.43083 0.76866 0.8099 0.0
C723 C 0.38328 0.77489 0.8088 0.0
C724 C 0.36216 0.78383 0.82274 0.0
C725 C 0.41 0.7802 0.82178 0.0
C726 C 0.36819 0.80039 0.84823 0.0
C727 C 0.39479 0.80668 0.86068 0.0
H728 H 0.49971 0.19009 0.0649 0.0
H729 H 0.49584 0.15729 0.14552 0.0
H730 H 0.49614 0.11185 0.12308 0.0
H731 H 0.50064 0.08211 0.08146 0.0
H732 H 0.50317 0.11341 0.00019 0.0
H733 H 0.49999 0.15889 0.02193 0.0
C734 C 0.49871 0.17293 0.07747 0.0
C735 C 0.49801 0.17708 0.10688 0.0
C736 C 0.4987 0.14671 0.06436 0.0
C737 C 0.49646 0.15466 0.12289 0.0
C738 C 0.49669 0.12868 0.11009 0.0
C739 C 0.50016 0.09881 0.0684 0.0
C740 C 0.50229 0.09453 0.03932 0.0
C741 C 0.49825 0.12458 0.08098 0.0
C742 C 0.50142 0.11625 0.02262 0.0
C743 C 0.49979 0.14222 0.03509 0.0
H744 H 0.07385 0.26738 0.31476 0.0
H745 H 0.12476 0.26825 0.3922 0.0
H746 H 0.16301 0.26115 0.36571 0.0
H747 H 0.1829 0.25774 0.32117 0.0
H748 H 0.13445 0.26164 0.24337 0.0
H749 H 0.09412 0.26315 0.26922 0.0
C750 C 0.09329 0.26583 0.32573 0.0
C751 C 0.0965 0.26842 0.35539 0.0
C752 C 0.11554 0.26239 0.31031 0.0
C753 C 0.12181 0.26651 0.3694 0.0
C754 C 0.14369 0.26235 0.35428 0.0
C755 C 0.16339 0.25831 0.30973 0.0
C756 C 0.16151 0.25922 0.28037 0.0
C757 C 0.14087 0.26058 0.3248 0.0
C758 C 0.13627 0.2607 0.26597 0.0
C759 C 0.11332 0.26175 0.28077 0.0
H760 H 0.94396 0.98429 0.17017 0.0
H761 H 0.93888 0.06913 0.18618 0.0
H762 H 0.97055 0.08049 0.15066 0.0
H763 H 0.99844 0.06577 0.11324 0.0
H764 H 0.99508 0.98008 0.09159 0.0
H765 H 0.96893 0.9695 0.13111 0.0
C766 C 0.94991 0.00524 0.16587 0.0
C767 C 0.93931 0.02586 0.18076 0.0
C768 C 0.96711 0.01144 0.14458 0.0
C769 C 0.94677 0.05292 0.1748 0.0
C770 C 0.96495 0.05941 0.15459 0.0
C771 C 0.99245 0.04488 0.11771 0.0
C772 C 0.00021 0.02376 0.10058 0.0
C773 C 0.9752 0.03881 0.13917 0.0
C774 C 0.99093 0.99671 0.1055 0.0
C775 C 0.97542 0.99061 0.12781 0.0
H776 H 0.30053 0.70567 0.47449 0.0
H777 H 0.22502 0.65143 0.44922 0.0
H778 H 0.21641 0.67747 0.40934 0.0
H779 H 0.23294 0.7125 0.37895 0.0
H780 H 0.31008 0.76412 0.40204 0.0
H781 H 0.31534 0.74279 0.44606 0.0
C782 C 0.28211 0.6997 0.46036 0.0
C783 C 0.26363 0.67653 0.46442 0.0
C784 C 0.27752 0.71449 0.43736 0.0
C785 C 0.23973 0.66903 0.44617 0.0
C786 C 0.23473 0.68395 0.4235 0.0
C787 C 0.25034 0.71961 0.39423 0.0
C788 C 0.27083 0.74005 0.38805 0.0
C789 C 0.25375 0.70635 0.41858 0.0
C790 C 0.29386 0.74875 0.40711 0.0
C791 C 0.29699 0.73635 0.43195 0.0
H792 H 0.5675 0.97532 0.68444 0.0
H793 H 0.64153 0.01208 0.65257 0.0
H794 H 0.61639 0.01675 0.60799 0.0
H795 H 0.57331 0.01544 0.58053 0.0
H796 H 0.49853 0.97897 0.61089 0.0
H797 H 0.52407 0.96942 0.65399 0.0
C798 C 0.57815 0.9839 0.66752 0.0
C799 C 0.60629 0.99362 0.67187 0.0
C800 C 0.56344 0.98697 0.64199 0.0
C801 C 0.61986 0.00465 0.64982 0.0
C802 C 0.6055 0.00744 0.62436 0.0
C803 C 0.56253 0.00476 0.59619 0.0
C804 C 0.53409 0.99763 0.59237 0.0
C805 C 0.57725 -0.00058 0.62059 0.0
C806 C 0.52046 0.98448 0.61327 0.0
C807 C 0.53506 0.97906 0.63787 0.0
H808 H 0.27102 0.32323 0.96735 0.0
H809 H 0.26823 0.40585 0.94885 0.0
H810 H 0.26841 0.39265 0.8988 0.0
H811 H 0.26753 0.35766 0.86014 0.0
H812 H 0.26982 0.27474 0.87754 0.0
H813 H 0.2721 0.28811 0.92816 0.0
C814 C 0.27038 0.33827 0.95231 0.0
C815 C 0.26929 0.3654 0.96177 0.0
C816 C 0.27056 0.33056 0.92341 0.0
C817 C 0.26879 0.38477 0.94211 0.0
C818 C 0.269 0.37728 0.91347 0.0
C819 C 0.26874 0.34251 0.87499 0.0
C820 C 0.26836 0.31526 0.8651 0.0
C821 C 0.26965 0.35024 0.90388 0.0
C822 C 0.27018 0.29591 0.88463 0.0
C823 C 0.27128 0.30351 0.91356 0.0
H824 H 0.96048 0.01257 0.32323 0.0
H825 H 0.87705 -0.0006 0.34315 0.0
H826 H 0.89196 0.99823 0.39265 0.0
H827 H 0.92834 0.00398 0.43069 0.0
H828 H 0.01206 0.01784 0.41205 0.0
H829 H 0.9974 0.01516 0.36164 0.0
C830 C 0.94562 0.00932 0.33843 0.0
C831 C 0.91771 0.00641 0.32955 0.0
C832 C 0.95435 0.00872 0.36707 0.0
C833 C 0.89866 0.00197 0.34943 0.0
C834 C 0.90714 0.00123 0.37777 0.0
C835 C 0.94344 0.00615 0.41561 0.0
C836 C 0.97122 0.01136 0.42512 0.0
C837 C 0.93489 0.00503 0.38687 0.0
C838 C 0.99051 0.01379 0.40527 0.0
C839 C 0.98214 0.01246 0.37646 0.0
H840 H 0.28829 0.71556 0.59289 0.0
H841 H 0.29694 0.64271 0.63309 0.0
H842 H 0.29797 0.66747 0.67921 0.0
H843 H 0.29239 0.70814 0.70747 0.0
H844 H 0.28437 0.78179 0.66875 0.0
H845 H 0.2869 0.75819 0.62229 0.0
C846 C 0.29071 0.70523 0.61179 0.0
C847 C 0.29219 0.6773 0.60968 0.0
C848 C 0.2911 0.71957 0.63828 0.0
C849 C 0.29551 0.66414 0.63423 0.0
C850 C 0.29606 0.67825 0.66058 0.0
C851 C 0.29164 0.71928 0.68902 0.0
C852 C 0.28813 0.74664 0.69154 0.0
C853 C 0.29325 0.70573 0.66275 0.0
C854 C 0.28711 0.7607 0.66732 0.0
C855 C 0.28848 0.7472 0.64081 0.0
H856 H 0.63404 0.0234 0.85006 0.0
H857 H 0.55949 0.00117 0.7957 0.0
H858 H 0.53306 0.00792 0.83595 0.0
H859 H 0.53148 0.01759 0.88755 0.0
H860 H 0.60676 0.03857 0.9409 0.0
H861 H 0.63264 0.03556 0.90004 0.0
C862 C 0.612 0.01999 0.847 0.0
C863 C 0.5987 0.01144 0.82013 0.0
C864 C 0.5971 0.02403 0.87004 0.0
C865 C 0.57015 0.00753 0.81634 0.0
C866 C 0.55506 0.01148 0.8393 0.0
C867 C 0.55351 0.02207 0.88994 0.0
C868 C 0.56735 0.02835 0.91695 0.0
C869 C 0.56833 0.01949 0.86635 0.0
C870 C 0.59585 0.0337 0.92015 0.0
C871 C 0.61063 0.03183 0.89688 0.0
H872 H 0.26229 0.30922 0.09607 0.0
H873 H 0.27233 0.38612 0.14678 0.0
H874 H 0.26534 0.36257 0.18888 0.0
H875 H 0.25691 0.32066 0.2114 0.0
H876 H 0.24797 0.24317 0.16208 0.0
H877 H 0.25374 0.26647 0.11925 0.0
C878 C 0.263 0.32077 0.11637 0.0
C879 C 0.26795 0.34941 0.11828 0.0
C880 C 0.25907 0.30704 0.14067 0.0
C881 C 0.26877 0.3641 0.14471 0.0
C882 C 0.26468 0.35066 0.16881 0.0
C883 C 0.25619 0.30872 0.19134 0.0
C884 C 0.25206 0.28016 0.19005 0.0
C885 C 0.25988 0.32219 0.16703 0.0
C886 C 0.25099 0.26517 0.16372 0.0
C887 C 0.25443 0.2785 0.13924 0.0
H888 H 0.21761 0.9632 0.03551 0.0
H889 H 0.16675 0.88439 0.01993 0.0
H890 H 0.12732 0.90428 0.03167 0.0
H891 H 0.10661 0.94393 0.0426 0.0
H892 H 0.15535 0.02359 0.05647 0.0
H893 H 0.19663 0.00345 0.05024 0.0
C894 C 0.19787 0.95048 0.0347 0.0
C895 C 0.19501 0.92243 0.02643 0.0
C896 C 0.17508 0.96211 0.04151 0.0
C897 C 0.16945 0.90605 0.0259 0.0
C898 C 0.14689 0.91736 0.03274 0.0
C899 C 0.12636 0.95687 0.04468 0.0
C900 C 0.12813 0.9851 0.04969 0.0
C901 C 0.14943 0.94533 0.04011 0.0
C902 C 0.15368 0.00173 0.05277 0.0
C903 C 0.17713 0.99024 0.04882 0.0
H904 H 0.67553 0.61182 0.02944 0.0
H905 H 0.69177 0.558 0.96026 0.0
H906 H 0.64804 0.52846 0.9634 0.0
H907 H 0.60383 0.51956 0.98495 0.0
H908 H 0.59036 0.57433 0.05503 0.0
H909 H 0.63447 0.60154 0.05263 0.0
C910 C 0.66952 0.59364 0.01495 0.0
C911 C 0.68654 0.58732 0.99434 0.0
C912 C 0.64484 0.57683 0.01717 0.0
C913 C 0.67882 0.56337 0.97618 0.0
C914 C 0.65385 0.54652 0.97801 0.0
C915 C 0.61079 0.53724 -0.00014 0.0
C916 C 0.59356 0.54507 0.01987 0.0
C917 C 0.6365 0.5532 0.99832 0.0
C918 C 0.60291 0.56802 0.03911 0.0
C919 C 0.62819 0.58368 0.0378 0.0
H920 H 0.65721 0.4327 0.26528 0.0
H921 H 0.7244 0.48053 0.31832 0.0
H922 H 0.75041 0.44311 0.31388 0.0
H923 H 0.75325 0.39568 0.29652 0.0
H924 H 0.68539 0.34779 0.24483 0.0
H925 H 0.66056 0.38626 0.24681 0.0
C926 C 0.67756 0.43497 0.27583 0.0
C927 C 0.68875 0.45932 0.29225 0.0
C928 C 0.69236 0.41334 0.27324 0.0
C929 C 0.71522 0.46194 0.30568 0.0
C930 C 0.73015 0.44056 0.3031 0.0
C931 C 0.73325 0.39402 0.28529 0.0
C932 C 0.72122 0.3693 0.27011 0.0
C933 C 0.71887 0.41608 0.28709 0.0
C934 C 0.69508 0.3669 0.25621 0.0
C935 C 0.68085 0.38879 0.25752 0.0
H936 H 0.8555 0.40293 0.4923 0.0
H937 H 0.825 0.47226 0.52922 0.0
H938 H 0.87055 0.49942 0.53252 0.0
H939 H 0.92002 0.501 0.53099 0.0
H940 H 0.95 0.4303 0.49675 0.0
H941 H 0.90354 0.40623 0.48536 0.0
C942 C 0.85881 0.42407 0.50079 0.0
C943 C 0.8373 0.43551 0.51106 0.0
C944 C 0.88489 0.43928 0.50288 0.0
C945 C 0.84151 0.46304 0.52146 0.0
C946 C 0.86748 0.47852 0.52336 0.0
C947 C 0.91616 0.48065 0.52024 0.0
C948 C 0.938 0.46719 0.51472 0.0
C949 C 0.88948 0.46657 0.51495 0.0
C950 C 0.9332 0.44077 0.50119 0.0
C951 C 0.90675 0.42701 0.49488 0.0
H952 H 0.33539 0.07213 0.24334 0.0
H953 H 0.38176 0.10853 0.3207 0.0
H954 H 0.35746 0.14712 0.32045 0.0
H955 H 0.32474 0.17097 0.2979 0.0
H956 H 0.27998 0.1378 0.21857 0.0
H957 H 0.30207 0.09728 0.21979 0.0
C958 C 0.33997 0.08856 0.26009 0.0
C959 C 0.36024 0.08771 0.28202 0.0
C960 C 0.32643 0.11113 0.25936 0.0
C961 C 0.36636 0.10902 0.30355 0.0
C962 C 0.35246 0.13098 0.30345 0.0
C963 C 0.31963 0.15494 0.28078 0.0
C964 C 0.30073 0.15741 0.25815 0.0
C965 C 0.33272 0.13233 0.28136 0.0
C966 C 0.29445 0.13635 0.23625 0.0
C967 C 0.30709 0.11325 0.23695 0.0
H968 H 0.3445 0.11013 0.47093 0.0
H969 H 0.30996 0.07095 0.53983 0.0
H970 H 0.3497 0.04833 0.54678 0.0
H971 H 0.39613 0.04245 0.53538 0.0
H972 H 0.43051 0.08366 0.46746 0.0
H973 H 0.38906 0.10237 0.45794 0.0
C974 C 0.34548 0.09639 0.48727 0.0
C975 C 0.32431 0.09232 0.50486 0.0
C976 C 0.36854 0.08384 0.49142 0.0
C977 C 0.32599 0.07447 0.52597 0.0
C978 C 0.34876 0.06158 0.53001 0.0
C979 C 0.39433 0.05518 0.51825 0.0
C980 C 0.41649 0.06165 0.50222 0.0
C981 C 0.37044 0.06648 0.51317 0.0
C982 C 0.41389 0.07839 0.48023 0.0
C983 C 0.39016 0.08919 0.47475 0.0
H984 H 0.72022 0.59228 0.28157 0.0
H985 H 0.66126 0.62093 0.33254 0.0
H986 H 0.68241 0.66793 0.32953 0.0
H987 H 0.71591 0.70101 0.30992 0.0
H988 H 0.77577 0.67265 0.26027 0.0
H989 H 0.75582 0.62539 0.2648 0.0
C990 C 0.71219 0.6088 0.29228 0.0
C991 C 0.68906 0.60313 0.30709 0.0
C992 C 0.72437 0.63581 0.2903 0.0
C993 C 0.67891 0.62476 0.32084 0.0
C994 C 0.69095 0.65164 0.31906 0.0
C995 C 0.72458 0.68442 0.30022 0.0
C996 C 0.7471 0.69013 0.28466 0.0
C997 C 0.71333 0.65742 0.3034 0.0
C998 C 0.75848 0.6686 0.27245 0.0
C999 C 0.74705 0.64165 0.275 0.0
H1000 H 0.82874 0.4458 0.78513 0.0
H1001 H 0.912 0.43294 0.79777 0.0
H1002 H 0.89694 0.38393 0.79508 0.0
H1003 H 0.86042 0.34465 0.78513 0.0
H1004 H 0.77707 0.3572 0.7738 0.0
H1005 H 0.79177 0.40647 0.7803 0.0
C1006 C 0.84353 0.43224 0.78741 0.0
C1007 C 0.87142 0.44285 0.79111 0.0
C1008 C 0.83473 0.4041 0.78607 0.0
C1009 C 0.89041 0.42517 0.79458 0.0
C1010 C 0.88184 0.39717 0.79306 0.0
C1011 C 0.84552 0.35824 0.7845 0.0
C1012 C 0.81782 0.34752 0.77881 0.0
C1013 C 0.85411 0.38641 0.78823 0.0
C1014 C 0.79854 0.36513 0.77832 0.0
C1015 C 0.80694 0.39325 0.7818 0.0
H1016 H 0.02745 0.87228 0.14694 0.0
H1017 H 0.04147 0.83256 0.06732 0.0
H1018 H 0.04333 0.87565 0.04595 0.0
H1019 H 0.0442 0.92547 0.05112 0.0
H1020 H 0.03259 0.96452 0.13195 0.0
H1021 H 0.02607 0.92078 0.15152 0.0
C1022 C 0.03075 0.87297 0.12485 0.0
C1023 C 0.03455 0.84939 0.10879 0.0
C1024 C 0.03212 0.89771 0.11292 0.0
C1025 C 0.03862 0.85055 0.08015 0.0
C1026 C 0.03968 0.87515 0.06794 0.0
C1027 C 0.03975 0.9242 0.07283 0.0
C1028 C 0.03881 0.94804 0.09009 0.0
C1029 C 0.03687 0.89898 0.08426 0.0
C1030 C 0.03347 0.94636 0.11833 0.0
C1031 C 0.02981 0.9214 0.12955 0.0
H1032 H 0.91772 0.21123 0.83722 0.0
H1033 H 0.95234 0.29497 0.83129 0.0
H1034 H 0.90955 0.30328 0.80866 0.0
H1035 H 0.86115 0.28802 0.79412 0.0
H1036 H 0.82636 0.20408 0.7966 0.0
H1037 H 0.87018 0.19446 0.81686 0.0
C1038 C 0.91595 0.23113 0.83055 0.0
C1039 C 0.93816 0.25245 0.83615 0.0
C1040 C 0.8912 0.23578 0.81705 0.0
C1041 C 0.93562 0.27814 0.82725 0.0
C1042 C 0.91109 0.28301 0.81439 0.0
C1043 C 0.86342 0.26752 0.79851 0.0
C1044 C 0.84088 0.24671 0.79379 0.0
C1045 C 0.88863 0.26216 0.80967 0.0
C1046 C 0.84374 0.22026 0.79977 0.0
C1047 C 0.86869 0.21484 0.81152 0.0
H1048 H 0.54158 0.20515 0.59149 0.0
H1049 H 0.49831 0.19483 0.66531 0.0
H1050 H 0.48486 0.1464 0.65076 0.0
H1051 H 0.48496 0.10726 0.61692 0.0
H1052 H 0.52963 0.11675 0.54382 0.0
H1053 H 0.54342 0.16515 0.55847 0.0
C1054 C 0.52924 0.19219 0.6043 0.0
C1055 C 0.52086 0.20332 0.62932 0.0
C1056 C 0.52202 0.16428 0.59608 0.0
C1057 C 0.5051 0.1865 0.64602 0.0
C1058 C 0.49737 0.15888 0.63771 0.0
C1059 C 0.49779 0.11987 0.60423 0.0
C1060 C 0.50607 0.1085 0.57925 0.0
C1061 C 0.5057 0.14757 0.61278 0.0
C1062 C 0.52287 0.12507 0.56312 0.0
C1063 C 0.53072 0.15275 0.57143 0.0
H1064 H 0.57087 0.77153 0.31832 0.0
H1065 H 0.59832 0.75506 0.40213 0.0
H1066 H 0.64413 0.75545 0.38862 0.0
H1067 H 0.67653 0.76029 0.35358 0.0
H1068 H 0.6516 0.77925 0.27012 0.0
H1069 H 0.60485 0.77841 0.28291 0.0
C1070 C 0.58697 0.76811 0.33352 0.0
C1071 C 0.5812 0.76336 0.36121 0.0
C1072 C 0.61372 0.76891 0.32574 0.0
C1073 C 0.60224 0.75904 0.38077 0.0
C1074 C 0.62847 0.75916 0.37307 0.0
C1075 C 0.6609 0.76425 0.3381 0.0
C1076 C 0.66746 0.76965 0.3109 0.0
C1077 C 0.63444 0.76409 0.3457 0.0
C1078 C 0.64704 0.7751 0.29125 0.0
C1079 C 0.62032 0.77451 0.29854 0.0
H1080 H 0.99328 0.19551 0.43886 0.0
H1081 H 0.07896 0.22274 0.46142 0.0
H1082 H 0.08289 0.17979 0.48124 0.0
H1083 H 0.0624 0.1334 0.48936 0.0
H1084 H 0.97615 0.10732 0.47019 0.0
H1085 H 0.9718 0.15102 0.45201 0.0
C1086 C 0.01272 0.19205 0.44837 0.0
C1087 C 0.03586 0.21201 0.44849 0.0
C1088 C 0.01467 0.16758 0.46024 0.0
C1089 C 0.06089 0.2076 0.46115 0.0
C1090 C 0.06316 0.18304 0.47236 0.0
C1091 C 0.04263 0.13749 0.48149 0.0
C1092 C 0.01964 0.1173 0.48086 0.0
C1093 C 0.04027 0.16275 0.47162 0.0
C1094 C 0.99406 0.12274 0.47095 0.0
C1095 C 0.99162 0.14761 0.46043 0.0
H1096 H 0.59663 0.23125 0.16368 0.0
H1097 H 0.57475 0.28397 0.23087 0.0
H1098 H 0.62158 0.29109 0.25296 0.0
H1099 H 0.66983 0.28605 0.25015 0.0
H1100 H 0.69135 0.23597 0.18063 0.0
H1101 H 0.6435 0.2236 0.1627 0.0
C1102 C 0.60199 0.24405 0.18335 0.0
C1103 C 0.58232 0.25726 0.19549 0.0
C1104 C 0.62893 0.24845 0.1955 0.0
C1105 C 0.58955 0.27362 0.22107 0.0
C1106 C 0.61633 0.27775 0.23365 0.0
C1107 C 0.66384 0.2719 0.23149 0.0
C1108 C 0.68389 0.26174 0.21671 0.0
C1109 C 0.63635 0.26577 0.22068 0.0
C1110 C 0.67614 0.24392 0.19226 0.0
C1111 C 0.64885 0.23697 0.18197 0.0
H1112 H 0.5699 0.87221 0.95631 0.0
H1113 H 0.48356 0.84319 0.94711 0.0
H1114 H 0.47497 0.88759 0.96567 0.0
H1115 H 0.49182 0.93503 0.98349 0.0
H1116 H 0.57801 0.96337 0.99807 0.0
H1117 H 0.58704 0.91906 0.97861 0.0
C1118 C 0.5493 0.87571 0.95857 0.0
C1119 C 0.52738 0.85463 0.95033 0.0
C1120 C 0.54453 0.90114 0.97019 0.0
C1121 C 0.50074 0.85916 0.95353 0.0
C1122 C 0.49579 0.88454 0.96402 0.0
C1123 C 0.51255 0.93134 0.98256 0.0
C1124 C 0.53425 0.95221 0.99198 0.0
C1125 C 0.51749 0.90569 0.97228 0.0
C1126 C 0.56105 0.94736 0.99098 0.0
C1127 C 0.56618 0.92213 0.97977 0.0
H1128 H 0.91823 0.71281 0.6697 0.0
H1129 H 0.95582 0.77825 0.73132 0.0
H1130 H 0.91168 0.78075 0.74949 0.0
H1131 H 0.8614 0.76605 0.74532 0.0
H1132 H 0.82532 0.70206 0.68115 0.0
H1133 H 0.86974 0.69731 0.66668 0.0
C1134 C 0.91689 0.72746 0.68733 0.0
C1135 C 0.94018 0.74535 0.69907 0.0
C1136 C 0.89156 0.72922 0.69706 0.0
C1137 C 0.93811 0.76417 0.72194 0.0
C1138 C 0.91286 0.76571 0.73222 0.0
C1139 C 0.86341 0.75107 0.72828 0.0
C1140 C 0.84005 0.73473 0.71411 0.0
C1141 C 0.88928 0.74866 0.71955 0.0
C1142 C 0.84289 0.71528 0.69211 0.0
C1143 C 0.86833 0.71239 0.68385 0.0
H1144 H 0.12872 0.00867 0.89227 0.0
H1145 H 0.05937 0.01988 0.8376 0.0
H1146 H 0.03165 0.01947 0.87763 0.0
H1147 H 0.02774 0.01762 0.92905 0.0
H1148 H 0.09868 0.00838 0.98275 0.0
H1149 H 0.12479 0.00596 0.94238 0.0
C1150 C 0.1075 0.01086 0.88902 0.0
C1151 C 0.09618 0.01429 0.86199 0.0
C1152 C 0.09183 0.01087 0.91208 0.0
C1153 C 0.06861 0.01714 0.85821 0.0
C1154 C 0.05274 0.01694 0.88112 0.0
C1155 C 0.0488 0.01476 0.93178 0.0
C1156 C 0.06107 0.01302 0.959 0.0
C1157 C 0.06418 0.01402 0.90828 0.0
C1158 C 0.08855 0.0097 0.96218 0.0
C1159 C 0.10364 0.00838 0.93904 0.0
H1160 H 0.77015 0.37682 0.6117 0.0
H1161 H 0.76679 0.30134 0.56029 0.0
H1162 H 0.76743 0.27676 0.60267 0.0
H1163 H 0.76755 0.27696 0.65458 0.0
H1164 H 0.76765 0.35281 0.70442 0.0
H1165 H 0.76976 0.37709 0.6624 0.0
C1166 C 0.76974 0.355 0.60976 0.0
C1167 C 0.76857 0.34087 0.58308 0.0
C1168 C 0.76946 0.34111 0.63393 0.0
C1169 C 0.76768 0.31258 0.58075 0.0
C1170 C 0.76806 0.29858 0.60492 0.0
C1171 C 0.76824 0.29881 0.65609 0.0
C1172 C 0.76745 0.31313 0.68239 0.0
C1173 C 0.76878 0.31264 0.63165 0.0
C1174 C 0.76804 0.34137 0.68428 0.0
C1175 C 0.76931 0.35529 0.66031 0.0
H1176 H 0.48313 0.02487 0.35098 0.0
H1177 H 0.41173 0.04502 0.38734 0.0
H1178 H 0.43237 0.04084 0.43431 0.0
H1179 H 0.46883 0.0281 0.46443 0.0
H1180 H 0.54071 0.00811 0.42931 0.0
H1181 H 0.52148 0.01501 0.38222 0.0
C1182 C 0.47235 0.02884 0.36926 0.0
C1183 C 0.44593 0.03516 0.36573 0.0
C1184 C 0.48422 0.02606 0.39628 0.0
C1185 C 0.43207 0.04006 0.38953 0.0
C1186 C 0.44381 0.03761 0.41638 0.0
C1187 C 0.48067 0.02597 0.44668 0.0
C1188 C 0.50632 0.01805 0.45049 0.0
C1189 C 0.46961 0.03014 0.41992 0.0
C1190 C 0.52092 0.01431 0.42697 0.0
C1191 C 0.50997 0.01832 0.40007 0.0
H1192 H 0.80535 0.69787 0.08178 0.0
H1193 H 0.72034 0.6663 0.08339 0.0
H1194 H 0.72184 0.68531 0.13236 0.0
H1195 H 0.74836 0.70781 0.1761 0.0
H1196 H 0.83442 0.73423 0.1758 0.0
H1197 H 0.83171 0.72068 0.12524 0.0
C1198 C 0.78714 0.69555 0.09282 0.0
C1199 C 0.76277 0.68088 0.07912 0.0
C1200 C 0.78844 0.70558 0.12131 0.0
C1201 C 0.73935 0.67751 0.09366 0.0
C1202 C 0.7402 0.68836 0.12163 0.0
C1203 C 0.7663 0.71103 0.16468 0.0
C1204 C 0.79144 0.72248 0.17924 0.0
C1205 C 0.76474 0.70201 0.13586 0.0
C1206 C 0.81481 0.72591 0.16468 0.0
C1207 C 0.81328 0.71799 0.13587 0.0
H1208 H 0.14614 0.0312 0.69636 0.0
H1209 H 0.0682 0.00194 0.72491 0.0
H1210 H 0.04697 0.99781 0.67651 0.0
H1211 H 0.05109 0.00043 0.62579 0.0
H1212 H 0.12972 0.02685 0.59727 0.0
H1213 H 0.15015 0.03448 0.64599 0.0
C1214 C 0.12447 0.02408 0.69202 0.0
C1215 C 0.10875 0.01687 0.71415 0.0
C1216 C 0.11255 0.02132 0.66415 0.0
C1217 C 0.08074 0.00752 0.70819 0.0
C1218 C 0.06859 0.0052 0.68054 0.0
C1219 C 0.07261 0.00829 0.63031 0.0
C1220 C 0.08889 0.01327 0.60804 0.0
C1221 C 0.08435 0.01182 0.65832 0.0
C1222 C 0.11681 0.02293 0.61411 0.0
C1223 C 0.1285 0.02722 0.64193 0.0
H1224 H 0.74966 0.30989 0.44016 0.0
H1225 H 0.77149 0.39115 0.41581 0.0
H1226 H 0.7746 0.37295 0.36773 0.0
H1227 H 0.7721 0.33456 0.33308 0.0
H1228 H 0.75037 0.25275 0.35584 0.0
H1229 H 0.74594 0.27066 0.40421 0.0
C1230 C 0.75495 0.32354 0.42424 0.0
C1231 C 0.7603 0.35179 0.43146 0.0
C1232 C 0.7567 0.31292 0.39649 0.0
C1233 C 0.76712 0.36933 0.41072 0.0
C1234 C 0.76899 0.35896 0.38324 0.0
C1235 C 0.76638 0.3205 0.34853 0.0
C1236 C 0.76174 0.29235 0.34093 0.0
C1237 C 0.76397 0.33086 0.37599 0.0
C1238 C 0.75411 0.27453 0.36121 0.0
C1239 C 0.75163 0.28476 0.38883 0.0
H1240 H 0.47376 0.02517 0.22086 0.0
H1241 H 0.38971 0.00968 0.18647 0.0
H1242 H 0.40354 0.00612 0.13891 0.0
H1243 H 0.43914 0.00912 0.107 0.0
H1244 H 0.52335 0.0227 0.13994 0.0
H1245 H 0.50992 0.02506 0.18828 0.0
C1246 C 0.45856 0.02105 0.2029 0.0
C1247 C 0.43079 0.018 0.20711 0.0
C1248 C 0.46665 0.01861 0.17546 0.0
C1249 C 0.41123 0.01226 0.18376 0.0
C1250 C 0.41908 0.01019 0.15655 0.0
C1251 C 0.45453 0.01241 0.12481 0.0
C1252 C 0.48209 0.0159 0.12018 0.0
C1253 C 0.44667 0.01356 0.15218 0.0
C1254 C 0.50195 0.0198 0.14322 0.0
C1255 C 0.49428 0.02134 0.17075 0.0
H1256 H 0.79402 0.67608 0.9132 0.0
H1257 H 0.71673 0.69627 0.93356 0.0
H1258 H 0.71386 0.72097 0.89157 0.0
H1259 H 0.73275 0.7355 0.84824 0.0
H1260 H 0.81196 0.71955 0.83018 0.0
H1261 H 0.81471 0.69419 0.87185 0.0
C1262 C 0.77658 0.68591 0.90838 0.0
C1263 C 0.75546 0.68414 0.92625 0.0
C1264 C 0.77549 0.7008 0.88467 0.0
C1265 C 0.73318 0.69731 0.92007 0.0
C1266 C 0.73153 0.71141 0.89608 0.0
C1267 C 0.75087 0.72712 0.85386 0.0
C1268 C 0.77228 0.72969 0.83647 0.0
C1269 C 0.75253 0.71325 0.8782 0.0
C1270 C 0.79535 0.71798 0.84347 0.0
C1271 C 0.79687 0.70345 0.86722 0.0
H1272 H 0.85289 0.10254 0.99243 0.0
H1273 H 0.833 0.07372 0.07215 0.0
H1274 H 0.87299 0.05166 0.07467 0.0
H1275 H 0.91474 0.04284 0.056 0.0
H1276 H 0.93583 0.0709 0.97649 0.0
H1277 H 0.89392 0.09067 0.97182 0.0
C1278 C 0.85721 0.09116 0.01015 0.0
C1279 C 0.84011 0.08986 0.03213 0.0
C1280 C 0.88035 0.07842 0.01149 0.0
C1281 C 0.84584 0.07502 0.05496 0.0
C1282 C 0.86873 0.06243 0.05647 0.0
C1283 C 0.91005 0.05305 0.03748 0.0
C1284 C 0.92825 0.05554 0.01667 0.0
C1285 C 0.88626 0.06435 0.0351 0.0
C1286 C 0.92191 0.0686 0.99268 0.0
C1287 C 0.8981 0.08004 0.99013 0.0
H1288 H 0.3524 0.46749 0.06348 0.0
H1289 H 0.36639 0.38888 0.02941 0.0
H1290 H 0.41189 0.40854 0.01949 0.0
H1291 H 0.447 0.4481 0.01855 0.0
H1292 H 0.43463 0.52666 0.05441 0.0
H1293 H 0.38915 0.50705 0.06511 0.0
C1294 C 0.36553 0.45467 0.05414 0.0
C1295 C 0.35595 0.42678 0.04715 0.0
C1296 C 0.39187 0.46611 0.04848 0.0
C1297 C 0.37323 0.4104 0.03509 0.0
C1298 C 0.39925 0.42163 0.02925 0.0
C1299 C 0.43455 0.46097 0.02896 0.0
C1300 C 0.44436 0.48884 0.03566 0.0
C1301 C 0.40866 0.44949 0.03555 0.0
C1302 C 0.42763 0.50516 0.04885 0.0
C1303 C 0.40162 0.49394 0.05509 0.0
H1304 H 0.34552 0.58474 0.79613 0.0
H1305 H 0.35389 0.58237 0.7069 0.0
H1306 H 0.33702 0.62535 0.70497 0.0
H1307 H 0.3223 0.66493 0.72878 0.0
H1308 H 0.31157 0.66742 0.81734 0.0
H1309 H 0.32683 0.62319 0.81943 0.0
C1310 C 0.34345 0.59355 0.77626 0.0
C1311 C 0.35123 0.58036 0.75173 0.0
C1312 C 0.33343 0.61839 0.7752 0.0
C1313 C 0.34821 0.59202 0.72612 0.0
C1314 C 0.33859 0.61669 0.72498 0.0
C1315 C 0.32308 0.65568 0.74851 0.0
C1316 C 0.31597 0.66948 0.77291 0.0
C1317 C 0.33152 0.63023 0.74941 0.0
C1318 C 0.31681 0.65713 0.79825 0.0
C1319 C 0.32568 0.63192 0.79945 0.0
H1320 H 0.18617 0.62909 0.54753 0.0
H1321 H 0.20915 0.55004 0.53176 0.0
H1322 H 0.16111 0.52953 0.52237 0.0
H1323 H 0.11317 0.53531 0.5133 0.0
H1324 H 0.09184 0.61554 0.52458 0.0
H1325 H 0.13889 0.63454 0.54099 0.0
C1326 C 0.18072 0.60729 0.54248 0.0
C1327 C 0.20106 0.59108 0.54011 0.0
C1328 C 0.15343 0.59601 0.53588 0.0
C1329 C 0.19374 0.56289 0.53364 0.0
C1330 C 0.16634 0.55123 0.52809 0.0
C1331 C 0.11888 0.55689 0.51965 0.0
C1332 C 0.09933 0.57413 0.51753 0.0
C1333 C 0.14611 0.56777 0.52826 0.0
C1334 C 0.10675 0.60202 0.52569 0.0
C1335 C 0.13356 0.61285 0.53517 0.0
H1336 H 0.66486 0.91603 0.77601 0.0
H1337 H 0.73375 0.97604 0.76379 0.0
H1338 H 0.76424 0.94305 0.77101 0.0
H1339 H 0.771 0.89626 0.77812 0.0
H1340 H 0.70233 0.8371 0.79292 0.0
H1341 H 0.67219 0.87057 0.78753 0.0
C1342 C 0.68655 0.92185 0.775 0.0
C1343 C 0.697 0.94825 0.76898 0.0
C1344 C 0.70403 0.90294 0.77967 0.0
C1345 C 0.72519 0.95572 0.76818 0.0
C1346 C 0.74265 0.93689 0.77231 0.0
C1347 C 0.74952 0.89091 0.78061 0.0
C1348 C 0.73896 0.86435 0.78595 0.0
C1349 C 0.73227 0.91034 0.77773 0.0
C1350 C 0.71106 0.85757 0.78916 0.0
C1351 C 0.69373 0.87662 0.78583 0.0
H1352 H 0.68388 0.89769 0.55456 0.0
H1353 H 0.73322 0.97119 0.53525 0.0
H1354 H 0.69338 0.99434 0.53395 0.0
H1355 H 0.64373 0.993 0.53732 0.0
H1356 H 0.59634 0.91954 0.56009 0.0
H1357 H 0.63605 0.89727 0.5612 0.0
C1358 C 0.6859 0.91879 0.5501 0.0
C1359 C 0.71127 0.93266 0.54474 0.0
C1360 C 0.66319 0.93203 0.55006 0.0
C1361 C 0.71379 0.96012 0.53943 0.0
C1362 C 0.69102 0.97332 0.53863 0.0
C1363 C 0.64224 0.97219 0.54262 0.0
C1364 C 0.61703 0.95799 0.54848 0.0
C1365 C 0.6655 0.95941 0.54375 0.0
C1366 C 0.61544 0.93108 0.5556 0.0
C1367 C 0.63815 0.91818 0.55614 0.0
H1368 H 0.37066 0.41531 0.74673 0.0
H1369 H 0.30046 0.45326 0.75961 0.0
H1370 H 0.27337 0.40864 0.7641 0.0
H1371 H 0.27038 0.35848 0.76604 0.0
H1372 H 0.34286 0.32291 0.75728 0.0
H1373 H 0.3681 0.36669 0.74932 0.0
C1374 C 0.34935 0.41387 0.75027 0.0
C1375 C 0.33755 0.43756 0.7526 0.0
C1376 C 0.33426 0.38841 0.75359 0.0
C1377 C 0.31002 0.43531 0.75765 0.0
C1378 C 0.29455 0.40979 0.76023 0.0
C1379 C 0.2916 0.36038 0.76208 0.0
C1380 C 0.30456 0.33729 0.76191 0.0
C1381 C 0.30651 0.38613 0.75844 0.0
C1382 C 0.33225 0.34018 0.75732 0.0
C1383 C 0.3468 0.36529 0.75282 0.0
H1384 H 0.19506 0.59092 0.24398 0.0
H1385 H 0.18182 0.57681 0.33 0.0
H1386 H 0.19727 0.62482 0.34492 0.0
H1387 H 0.21231 0.67113 0.33333 0.0
H1388 H 0.22875 0.68563 0.24832 0.0
H1389 H 0.21428 0.63714 0.23308 0.0
C1390 C 0.19586 0.59838 0.266 0.0
C1391 C 0.18715 0.58044 0.28582 0.0
C1392 C 0.20507 0.62605 0.27454 0.0
C1393 C 0.18847 0.59023 0.31435 0.0
C1394 C 0.19715 0.6177 0.3229 0.0
C1395 C 0.21267 0.66361 0.31146 0.0
C1396 C 0.22108 0.68173 0.29182 0.0
C1397 C 0.20505 0.63582 0.30312 0.0
C1398 C 0.22215 0.67187 0.2637 0.0
C1399 C 0.21389 0.64424 0.25502 0.0
H1400 H 0.49179 0.69169 0.46844 0.0
H1401 H 0.56218 0.69525 0.42162 0.0
H1402 H 0.57925 0.66149 0.44923 0.0
H1403 H 0.57086 0.6264 0.48141 0.0
H1404 H 0.49875 0.61936 0.52567 0.0
H1405 H 0.48578 0.65911 0.50487 0.0
C1406 C 0.51095 0.68513 0.4646 0.0
C1407 C 0.52551 0.69531 0.44277 0.0
C1408 C 0.52025 0.66506 0.48004 0.0
C1409 C 0.55038 0.68701 0.43791 0.0
C1410 C 0.56021 0.6679 0.45378 0.0
C1411 C 0.55275 0.63412 0.48715 0.0
C1412 C 0.53579 0.62 0.5049 0.0
C1413 C 0.54488 0.65613 0.47419 0.0
C1414 C 0.51235 0.63011 0.51228 0.0
C1415 C 0.5047 0.6526 0.50004 0.0
H1416 H 0.60722 0.30099 0.73616 0.0
H1417 H 0.6333 0.28457 0.65349 0.0
H1418 H 0.67724 0.27755 0.67451 0.0
H1419 H 0.70663 0.27225 0.71573 0.0
H1420 H 0.68301 0.29018 0.79902 0.0
H1421 H 0.63943 0.30018 0.77838 0.0
C1422 C 0.6227 0.29627 0.72282 0.0
C1423 C 0.6169 0.29299 0.69331 0.0
C1424 C 0.64808 0.29211 0.73509 0.0
C1425 C 0.63715 0.28699 0.67624 0.0
C1426 C 0.66227 0.28287 0.68822 0.0
C1427 C 0.69209 0.27856 0.72948 0.0
C1428 C 0.69786 0.28022 0.75886 0.0
C1429 C 0.66765 0.2847 0.71754 0.0
C1430 C 0.67894 0.2887 0.77632 0.0
C1431 C 0.65408 0.29439 0.76452 0.0
H1432 H 0.00148 0.34691 0.90698 0.0
H1433 H 0.98515 0.30014 0.9773 0.0
H1434 H 0.98534 0.34196 0.00779 0.0
H1435 H 0.99535 0.39204 0.01522 0.0
H1436 H 0.01146 0.43811 0.94413 0.0
H1437 H 0.00554 0.39631 0.913 0.0
C1438 C 0.99768 0.34593 0.92892 0.0
C1439 C 0.99379 0.32078 0.94014 0.0
C1440 C 0.9978 0.36988 0.94614 0.0
C1441 C 0.98833 0.31948 0.96837 0.0
C1442 C 0.98853 0.34333 0.98578 0.0
C1443 C 0.99707 0.3929 0.99285 0.0
C1444 C 0.00441 0.41806 0.98209 0.0
C1445 C 0.99399 0.36871 0.97504 0.0
C1446 C 0.00635 0.41893 0.95301 0.0
C1447 C 0.00299 0.39506 0.93517 0.0
H1448 H 0.97327 0.76253 0.22135 0.0
H1449 H 0.94101 0.7763 0.13825 0.0
H1450 H 0.89631 0.77685 0.15475 0.0
H1451 H 0.867 0.77558 0.19286 0.0
H1452 H 0.89684 0.75812 0.27533 0.0
H1453 H 0.94211 0.75701 0.25913 0.0
C1454 C 0.95638 0.76553 0.20692 0.0
C1455 C 0.96044 0.76968 0.17873 0.0
C1456 C 0.93049 0.76538 0.21646 0.0
C1457 C 0.93838 0.77314 0.16007 0.0
C1458 C 0.91284 0.77356 0.16948 0.0
C1459 C 0.88338 0.77143 0.2073 0.0
C1460 C 0.87884 0.76726 0.23527 0.0
C1461 C 0.9088 0.77007 0.19765 0.0
C1462 C 0.90004 0.7615 0.25368 0.0
C1463 C 0.92583 0.76089 0.24443 0.0
H1464 H 0.49159 0.31191 0.07446 0.0
H1465 H 0.56058 0.34348 0.1343 0.0
H1466 H 0.56721 0.38601 0.11183 0.0
H1467 H 0.55046 0.41582 0.07806 0.0
H1468 H 0.47816 0.38586 0.02237 0.0
H1469 H 0.47585 0.34096 0.03984 0.0
C1470 C 0.50829 0.32799 0.0823 0.0
C1471 C 0.52556 0.32468 0.10595 0.0
C1472 C 0.51134 0.35264 0.06993 0.0
C1473 C 0.54694 0.34571 0.11618 0.0
C1474 C 0.55075 0.36998 0.10333 0.0
C1475 C 0.53473 0.39914 0.06928 0.0
C1476 C 0.51484 0.40369 0.04861 0.0
C1477 C 0.53274 0.37388 0.08055 0.0
C1478 C 0.49391 0.38244 0.03796 0.0
C1479 C 0.49248 0.35692 0.04811 0.0
H1480 H 0.95889 0.28165 0.33257 0.0
H1481 H 0.9383 0.27176 0.41747 0.0
H1482 H 0.89025 0.26871 0.40203 0.0
H1483 H 0.85397 0.2664 0.36431 0.0
H1484 H 0.87364 0.27599 0.27913 0.0
H1485 H 0.92218 0.28213 0.29487 0.0
C1486 C 0.94385 0.27888 0.34764 0.0
C1487 C 0.95211 0.27664 0.37605 0.0
C1488 C 0.91614 0.27722 0.33863 0.0
C1489 C 0.93247 0.27336 0.39545 0.0
C1490 C 0.90497 0.27165 0.38666 0.0
C1491 C 0.86886 0.27008 0.34919 0.0
C1492 C 0.86023 0.27053 0.32059 0.0
C1493 C 0.89657 0.27323 0.35829 0.0
C1494 C 0.87977 0.2756 0.30131 0.0
C1495 C 0.90752 0.27892 0.31026 0.0
H1496 H 0.04149 0.67569 0.61305 0.0
H1497 H 0.95999 0.68187 0.58088 0.0
H1498 H 0.95758 0.63972 0.54993 0.0
H1499 H 0.97805 0.59915 0.53483 0.0
H1500 H 0.06006 0.59494 0.56766 0.0
H1501 H 0.06314 0.63856 0.59496 0.0
C1502 C 0.02321 0.66783 0.5992 0.0
C1503 C 0.0008 0.68144 0.5995 0.0
C1504 C 0.02218 0.64403 0.58143 0.0
C1505 C 0.97744 0.6715 0.58106 0.0
C1506 C 0.97608 0.64745 0.56341 0.0
C1507 C 0.9967 0.60815 0.54753 0.0
C1508 C 0.01868 0.59377 0.54951 0.0
C1509 C 0.99824 0.63328 0.56371 0.0
C1510 C 0.04274 0.60551 0.5661 0.0
C1511 C 0.04454 0.63041 0.5818 0.0
H1512 H 0.58742 0.7722 0.82943 0.0
H1513 H 0.62136 0.76406 0.91363 0.0
H1514 H 0.66404 0.75672 0.89577 0.0
H1515 H 0.69306 0.75713 0.85755 0.0
H1516 H 0.66111 0.76668 0.7732 0.0
H1517 H 0.61604 0.76824 0.78963 0.0
C1518 C 0.60417 0.76875 0.84379 0.0
C1519 C 0.60141 0.76922 0.87291 0.0
C1520 C 0.6289 0.76466 0.83336 0.0
C1521 C 0.62309 0.76428 0.89123 0.0
C1522 C 0.64749 0.75995 0.88103 0.0
C1523 C 0.67613 0.75904 0.8426 0.0
C1524 C 0.68039 0.76203 0.81431 0.0
C1525 C 0.65078 0.7607 0.85232 0.0
C1526 C 0.65825 0.76423 0.79511 0.0
C1527 C 0.6326 0.76545 0.80458 0.0
H1528 H 0.47298 0.5416 0.70417 0.0
H1529 H 0.40401 0.49189 0.65528 0.0
H1530 H 0.42858 0.49316 0.61345 0.0
H1531 H 0.46895 0.50843 0.59036 0.0
H1532 H 0.53878 0.55797 0.63775 0.0
H1533 H 0.51461 0.55671 0.68045 0.0
C1534 C 0.46339 0.53106 0.68434 0.0
C1535 C 0.43659 0.51673 0.68294 0.0
C1536 C 0.47774 0.53185 0.66006 0.0
C1537 C 0.4245 0.50316 0.65706 0.0
C1538 C 0.43856 0.50384 0.63305 0.0
C1539 C 0.47903 0.51903 0.60997 0.0
C1540 C 0.50569 0.53337 0.61073 0.0
C1541 C 0.46509 0.51816 0.63427 0.0
C1542 C 0.51831 0.54676 0.6365 0.0
C1543 C 0.50445 0.54606 0.66092 0.0
H1544 H 0.81136 0.2019 0.97474 0.0
H1545 H 0.7262 0.16755 0.96113 0.0
H1546 H 0.72045 0.19514 0.92182 0.0
H1547 H 0.74084 0.22563 0.88848 0.0
H1548 H 0.82673 0.25654 0.90012 0.0
H1549 H 0.83098 0.23433 0.94355 0.0
C1550 C 0.79151 0.20059 0.96327 0.0
C1551 C 0.76933 0.18256 0.9705 0.0
C1552 C 0.78848 0.21614 0.94056 0.0
C1553 C 0.74367 0.1811 0.95563 0.0
C1554 C 0.74034 0.19694 0.93328 0.0
C1555 C 0.76022 0.22816 0.90116 0.0
C1556 C 0.7834 0.24288 0.89167 0.0
C1557 C 0.76272 0.21417 0.92524 0.0
C1558 C 0.80864 0.2455 0.9075 0.0
C1559 C 0.81111 0.2326 0.93207 0.0
H1560 H 0.06505 0.5094 0.20029 0.0
H1561 H 0.12647 0.47021 0.1632 0.0
H1562 H 0.10021 0.46515 0.11725 0.0
H1563 H 0.06193 0.47503 0.08732 0.0
H1564 H 0.00104 0.51562 0.12351 0.0
H1565 H 0.02467 0.51632 0.17045 0.0
C1566 C 0.0726 0.49962 0.18217 0.0
C1567 C 0.09781 0.49048 0.18502 0.0
C1568 C 0.05746 0.49691 0.1558 0.0
C1569 C 0.10724 0.47762 0.16146 0.0
C1570 C 0.09222 0.47467 0.13523 0.0
C1571 C 0.05357 0.48375 0.10545 0.0
C1572 C 0.0299 0.49551 0.10182 0.0
C1573 C 0.06759 0.48469 0.13211 0.0
C1574 C 0.0192 0.50638 0.12567 0.0
C1575 C 0.03284 0.50701 0.15249 0.0
H1576 H 0.80471 0.87214 0.44981 0.0
H1577 H 0.73636 0.81636 0.47143 0.0
H1578 H 0.73065 0.79341 0.42365 0.0
H1579 H 0.74284 0.79175 0.3746 0.0
H1580 H 0.80809 0.85072 0.35227 0.0
H1581 H 0.81772 0.86965 0.40152 0.0
C1582 C 0.78874 0.85479 0.44414 0.0
C1583 C 0.77092 0.84599 0.46402 0.0
C1584 C 0.78511 0.84227 0.4165 0.0
C1585 C 0.75023 0.82358 0.45639 0.0
C1586 C 0.74698 0.81045 0.42911 0.0
C1587 C 0.75948 0.80839 0.38077 0.0
C1588 C 0.77496 0.81981 0.36018 0.0
C1589 C 0.764 0.81993 0.40885 0.0
C1590 C 0.79607 0.8417 0.368 0.0
C1591 C 0.80147 0.85254 0.39605 0.0
H1592 H 0.44699 0.54857 0.84078 0.0
H1593 H 0.43846 0.46224 0.81835 0.0
H1594 H 0.46266 0.45664 0.86333 0.0
H1595 H 0.48394 0.47588 0.91041 0.0
H1596 H 0.49202 0.56231 0.93271 0.0
H1597 H 0.47059 0.56814 0.88662 0.0
C1598 C 0.45064 0.52858 0.84564 0.0
C1599 C 0.44078 0.50588 0.82627 0.0
C1600 C 0.46445 0.52544 0.87169 0.0
C1601 C 0.44573 0.48009 0.83291 0.0
C1602 C 0.45956 0.47684 0.85868 0.0
C1603 C 0.4813 0.49602 0.90509 0.0
C1604 C 0.48949 0.51853 0.92521 0.0
C1605 C 0.46869 0.49931 0.87844 0.0
C1606 C 0.48585 0.54451 0.91781 0.0
C1607 C 0.47352 0.54792 0.89139 0.0
H1608 H 0.78464 0.22339 0.09363 0.0
H1609 H 0.81754 0.15998 0.13421 0.0
H1610 H 0.82115 0.18659 0.17967 0.0
H1611 H 0.80876 0.22429 0.2083 0.0
H1612 H 0.77469 0.28749 0.16909 0.0
H1613 H 0.77819 0.26482 0.12236 0.0
C1614 C 0.79303 0.21566 0.11238 0.0
C1615 C 0.80032 0.18958 0.11076 0.0
C1616 C 0.79469 0.23092 0.13855 0.0
C1617 C 0.81146 0.17986 0.13505 0.0
C1618 C 0.81352 0.19503 0.16103 0.0
C1619 C 0.80267 0.23338 0.18948 0.0
C1620 C 0.79117 0.25715 0.19188 0.0
C1621 C 0.80426 0.22004 0.16309 0.0
C1622 C 0.7836 0.26911 0.16756 0.0
C1623 C 0.78538 0.25603 0.14094 0.0
H1624 H 0.08864 0.54142 0.32864 0.0
H1625 H 0.08346 0.45418 0.32313 0.0
H1626 H 0.05761 0.45222 0.36427 0.0
H1627 H 0.04185 0.47578 0.40501 0.0
H1628 H 0.04712 0.56286 0.41134 0.0
H1629 H 0.0673 0.56449 0.36628 0.0
C1630 C 0.08151 0.52195 0.33623 0.0
C1631 C 0.08833 0.49801 0.32324 0.0
C1632 C 0.06684 0.52101 0.36001 0.0
C1633 C 0.07872 0.4729 0.33301 0.0
C1634 C 0.06397 0.47177 0.35652 0.0
C1635 C 0.04691 0.49503 0.39615 0.0
C1636 C 0.04333 0.51919 0.41131 0.0
C1637 C 0.05871 0.49575 0.37065 0.0
C1638 C 0.04962 0.54404 0.39977 0.0
C1639 C 0.06137 0.54496 0.37422 0.0
H1640 H 0.74972 0.86157 0.63238 0.0
H1641 H 0.79873 0.81123 0.58891 0.0
H1642 H 0.79314 0.77879 0.62449 0.0
H1643 H 0.77592 0.76573 0.66949 0.0
H1644 H 0.72839 0.81728 0.71334 0.0
H1645 H 0.73113 0.84775 0.67589 0.0
C1646 C 0.75924 0.84354 0.63072 0.0
C1647 C 0.77484 0.839 0.60817 0.0
C1648 C 0.75581 0.8249 0.65117 0.0
C1649 C 0.78676 0.81534 0.60617 0.0
C1650 C 0.78348 0.79669 0.62646 0.0
C1651 C 0.76561 0.78324 0.67037 0.0
C1652 C 0.75157 0.78906 0.69384 0.0
C1653 C 0.76811 0.80128 0.64915 0.0
C1654 C 0.73896 0.81225 0.69522 0.0
C1655 C 0.74075 0.82981 0.67396 0.0
H1656 H 0.708 0.4425 0.5624 0.0
H1657 H 0.67521 0.40236 0.48079 0.0
H1658 H 0.63648 0.42637 0.48173 0.0
H1659 H 0.61227 0.45821 0.50526 0.0
H1660 H 0.64289 0.4979 0.58765 0.0
H1661 H 0.68257 0.47456 0.58685 0.0
C1662 C 0.69226 0.43899 0.54494 0.0
C1663 C 0.69426 0.42068 0.5216 0.0
C1664 C 0.66991 0.45272 0.54572 0.0
C1665 C 0.67387 0.41617 0.49908 0.0
C1666 C 0.65184 0.42997 0.49953 0.0
C1667 C 0.62752 0.46184 0.5232 0.0
C1668 C 0.62465 0.47969 0.54655 0.0
C1669 C 0.64972 0.44821 0.52271 0.0
C1670 C 0.64473 0.48426 0.56941 0.0
C1671 C 0.66731 0.47087 0.56897 0.0
H1672 H 0.19156 0.06164 0.49238 0.0
H1673 H 0.16863 0.14087 0.50716 0.0
H1674 H 0.12204 0.12002 0.51161 0.0
H1675 H 0.08823 0.07967 0.51322 0.0
H1676 H 0.10943 0.0 0.49635 0.0
H1677 H 0.1563 0.02062 0.49124 0.0
C1678 C 0.1763 0.07428 0.49641 0.0
C1679 C 0.18366 0.10279 0.49957 0.0
C1680 C 0.14929 0.06211 0.49882 0.0
C1681 C 0.16361 0.11891 0.50469 0.0
C1682 C 0.13693 0.107 0.50732 0.0
C1683 C 0.10291 0.06671 0.50806 0.0
C1684 C 0.09515 0.03829 0.50504 0.0
C1685 C 0.1296 0.07867 0.50469 0.0
C1686 C 0.11473 0.02194 0.49869 0.0
C1687 C 0.14158 0.03373 0.49578 0.0
H1688 H 0.18601 0.94905 0.74837 0.0
H1689 H 0.19734 0.95729 0.83916 0.0
H1690 H 0.22055 0.91772 0.83836 0.0
H1691 H 0.23556 0.87943 0.81191 0.0
H1692 H 0.22718 0.87262 0.72116 0.0
H1693 H 0.20516 0.91317 0.72175 0.0
C1694 C 0.19365 0.94219 0.76795 0.0
C1695 C 0.18967 0.95583 0.79382 0.0
C1696 C 0.20755 0.91978 0.76729 0.0
C1697 C 0.20005 0.94704 0.81901 0.0
C1698 C 0.2133 0.92442 0.81856 0.0
C1699 C 0.2292 0.88707 0.79227 0.0
C1700 C 0.23284 0.87309 0.76651 0.0
C1701 C 0.2169 0.91048 0.79285 0.0
C1702 C 0.22477 0.88322 0.74121 0.0
C1703 C 0.21199 0.90624 0.74158 0.0
H1704 H 0.33798 0.95597 0.00275 0.0
H1705 H 0.35319 0.87326 -0.00064 0.0
H1706 H 0.40197 0.88922 0.00243 0.0
H1707 H 0.44027 0.92654 0.01117 0.0
H1708 H 0.42574 0.00943 0.01536 0.0
H1709 H 0.37677 0.99357 0.00656 0.0
C1710 C 0.352 0.94149 0.00229 0.0
C1711 C 0.34208 0.91354 0.00129 0.0
C1712 C 0.38012 0.95082 0.00443 0.0
C1713 C 0.36038 0.89493 0.0005 0.0
C1714 C 0.38828 0.904 0.00228 0.0
C1715 C 0.42638 0.94112 0.00986 0.0
C1716 C 0.43646 0.96903 0.0143 0.0
C1717 C 0.39837 0.93189 0.00509 0.0
C1718 C 0.41838 0.98777 0.01207 0.0
C1719 C 0.39039 0.97873 0.00719 0.0
H1720 H 0.85587 0.5912 0.73812 0.0
H1721 H 0.83086 0.57607 0.82038 0.0
H1722 H 0.80041 0.60956 0.81711 0.0
H1723 H 0.7837 0.6455 0.79262 0.0
H1724 H 0.80654 0.66022 0.70969 0.0
H1725 H 0.83438 0.62389 0.71083 0.0
C1726 C 0.8436 0.59526 0.75517 0.0
C1727 C 0.84575 0.58161 0.77963 0.0
C1728 C 0.8255 0.61404 0.75279 0.0
C1729 C 0.82952 0.58649 0.80145 0.0
C1730 C 0.81209 0.60555 0.79957 0.0
C1731 C 0.79408 0.64006 0.77444 0.0
C1732 C 0.79295 0.65507 0.751 0.0
C1733 C 0.81016 0.61961 0.77552 0.0
C1734 C 0.80672 0.64838 0.72767 0.0
C1735 C 0.82296 0.62797 0.72856 0.0
H1736 H 0.81635 0.56997 0.0163 0.0
H1737 H 0.85621 0.64906 -0.00105 0.0
H1738 H 0.89994 0.63361 0.00201 0.0
H1739 H 0.92696 0.59816 0.00907 0.0
H1740 H 0.88919 0.51912 0.02832 0.0
H1741 H 0.84455 0.53402 0.02517 0.0
C1742 C 0.83465 0.58374 0.01321 0.0
C1743 C 0.83296 0.61061 0.00727 0.0
C1744 C 0.86006 0.57477 0.01532 0.0
C1745 C 0.85686 0.62831 0.00353 0.0
C1746 C 0.88193 0.6195 0.00524 0.0
C1747 C 0.90899 0.58406 0.01251 0.0
C1748 C 0.91136 0.5575 0.01868 0.0
C1749 C 0.88374 0.59283 0.01101 0.0
C1750 C 0.88789 0.53969 0.02352 0.0
C1751 C 0.8624 0.5482 0.02166 0.0
H1752 H 0.22759 0.09224 0.79733 0.0
H1753 H 0.1511 0.11915 0.8095 0.0
H1754 H 0.17192 0.16604 0.80622 0.0
H1755 H 0.21088 0.19909 0.79714 0.0
H1756 H 0.28799 0.17336 0.78609 0.0
H1757 H 0.26797 0.12636 0.79176 0.0
C1758 C 0.21558 0.10842 0.79953 0.0
C1759 C 0.18776 0.10215 0.80342 0.0
C1760 C 0.22773 0.13551 0.79762 0.0
C1761 C 0.1725 0.12336 0.80637 0.0
C1762 C 0.18437 0.1502 0.80443 0.0
C1763 C 0.22337 0.18322 0.79609 0.0
C1764 C 0.2508 0.18963 0.79093 0.0
C1765 C 0.2118 0.15644 0.79958 0.0
C1766 C 0.26681 0.16893 0.79005 0.0
C1767 C 0.25534 0.14206 0.7932 0.0
H1768 H 0.33071 0.94802 0.29498 0.0
H1769 H 0.41289 0.93113 0.29792 0.0
H1770 H 0.39601 0.88255 0.29447 0.0
H1771 H 0.35812 0.84507 0.28462 0.0
H1772 H 0.27573 0.86098 0.28081 0.0
H1773 H 0.29242 0.9098 0.29101 0.0
C1774 C 0.34487 0.93367 0.29529 0.0
C1775 C 0.37293 0.94302 0.29611 0.0
C1776 C 0.33501 0.90567 0.29292 0.0
C1777 C 0.39115 0.92434 0.29682 0.0
C1778 C 0.38154 0.89657 0.29485 0.0
C1779 C 0.34385 0.85924 0.2864 0.0
C1780 C 0.31588 0.84973 0.28156 0.0
C1781 C 0.35355 0.88704 0.29191 0.0
C1782 C 0.29744 0.86802 0.28442 0.0
C1783 C 0.30696 0.89588 0.29006 0.0
H1784 H 0.50594 0.36796 0.63425 0.0
H1785 H 0.55904 0.3389 0.57642 0.0
H1786 H 0.56043 0.38056 0.55246 0.0
H1787 H 0.55126 0.42781 0.55241 0.0
H1788 H 0.49967 0.45683 0.61189 0.0
H1789 H 0.49205 0.41231 0.63019 0.0
C1790 C 0.51754 0.37065 0.61618 0.0
C1791 C 0.53274 0.35077 0.60736 0.0
C1792 C 0.51823 0.39453 0.60268 0.0
C1793 C 0.54731 0.35412 0.58364 0.0
C1794 C 0.54812 0.37791 0.56999 0.0
C1795 C 0.53755 0.4239 0.56862 0.0
C1796 C 0.52575 0.44519 0.58072 0.0
C1797 C 0.53424 0.39858 0.57982 0.0
C1798 C 0.50864 0.44045 0.60222 0.0
C1799 C 0.50455 0.41516 0.61285 0.0
H1800 H 0.43976 0.75906 0.3083 0.0
H1801 H 0.41385 0.71675 0.37908 0.0
H1802 H 0.36661 0.71885 0.36426 0.0
H1803 H 0.33292 0.73519 0.33309 0.0
H1804 H 0.35699 0.77327 0.25949 0.0
H1805 H 0.4047 0.77042 0.27336 0.0
C1806 C 0.42369 0.74987 0.3201 0.0
C1807 C 0.43032 0.73781 0.34476 0.0
C1808 C 0.39631 0.75068 0.31114 0.0
C1809 C 0.40931 0.72594 0.35988 0.0
C1810 C 0.38226 0.72732 0.35157 0.0
C1811 C 0.34853 0.74269 0.32 0.0
C1812 C 0.34159 0.7548 0.29561 0.0
C1813 C 0.37559 0.74005 0.32756 0.0
C1814 C 0.36198 0.76403 0.27852 0.0
C1815 C 0.38922 0.76239 0.28644 0.0
H1816 H 0.0186 0.70131 0.07678 0.0
H1817 H 0.06492 0.69217 0.1545 0.0
H1818 H 0.06499 0.64451 0.1394 0.0
H1819 H 0.04829 0.6046 0.10641 0.0
H1820 H 0.00031 0.61269 0.02936 0.0
H1821 H 0.00477 0.66159 0.04172 0.0
C1822 C 0.02895 0.6889 0.09019 0.0
C1823 C 0.04143 0.70004 0.11681 0.0
C1824 C 0.02852 0.66133 0.08159 0.0
C1825 C 0.05483 0.68387 0.13406 0.0
C1826 C 0.05494 0.65665 0.12544 0.0
C1827 C 0.03912 0.61711 0.09212 0.0
C1828 C 0.02383 0.60502 0.06719 0.0
C1829 C 0.04128 0.64503 0.09959 0.0
C1830 C 0.01225 0.62151 0.04874 0.0
C1831 C 0.01463 0.64946 0.05586 0.0
H1832 H 0.07266 0.25404 0.82148 0.0
H1833 H 0.10333 0.26884 0.9092 0.0
H1834 H 0.14988 0.27332 0.89637 0.0
H1835 H 0.18188 0.27159 0.86057 0.0
H1836 H 0.15251 0.25993 0.7726 0.0
H1837 H 0.10541 0.2559 0.78503 0.0
C1838 C 0.08959 0.25823 0.8377 0.0
C1839 C 0.08461 0.2608 0.86625 0.0
C1840 C 0.11646 0.26142 0.83012 0.0
C1841 C 0.10667 0.26668 0.88709 0.0
C1842 C 0.13329 0.26924 0.87979 0.0
C1843 C 0.16513 0.26834 0.84413 0.0
C1844 C 0.17046 0.26586 0.81577 0.0
C1845 C 0.1384 0.26646 0.85144 0.0
C1846 C 0.14876 0.26202 0.79459 0.0
C1847 C 0.1219 0.25955 0.80171 0.0
H1848 H 0.55001 0.71974 0.97589 0.0
H1849 H 0.47717 0.69053 0.9205 0.0
H1850 H 0.47176 0.64731 0.94177 0.0
H1851 H 0.48965 0.61675 0.97406 0.0
H1852 H 0.56498 0.64482 0.02565 0.0
H1853 H 0.56739 0.68977 0.00836 0.0
C1854 C 0.53278 0.70403 0.9687 0.0
C1855 C 0.51396 0.7083 0.94677 0.0
C1856 C 0.53023 0.6791 0.98049 0.0
C1857 C 0.49192 0.68767 0.93739 0.0
C1858 C 0.48881 0.66299 0.94955 0.0
C1859 C 0.50615 0.63302 0.98197 0.0
C1860 C 0.52682 0.62793 0.0015 0.0
C1861 C 0.50802 0.65837 0.97091 0.0
C1862 C 0.54868 0.64864 0.01094 0.0
C1863 C 0.55014 0.67419 0.00092 0.0
H1864 H 0.1032 0.75029 0.65444 0.0
H1865 H 0.07714 0.7596 0.73785 0.0
H1866 H 0.12453 0.76472 0.75833 0.0
H1867 H 0.17382 0.77067 0.7517 0.0
H1868 H 0.19838 0.76107 0.66748 0.0
H1869 H 0.15106 0.75143 0.64814 0.0
C1870 C 0.10788 0.7533 0.67713 0.0
C1871 C 0.08693 0.75505 0.69464 0.0
C1872 C 0.13488 0.75609 0.68857 0.0
C1873 C 0.09309 0.75838 0.72399 0.0
C1874 C 0.12013 0.76133 0.73566 0.0
C1875 C 0.16872 0.76589 0.72921 0.0
C1876 C 0.18952 0.76688 0.711 0.0
C1877 C 0.14128 0.76076 0.71807 0.0
C1878 C 0.18271 0.76075 0.68189 0.0
C1879 C 0.15566 0.7553 0.67077 0.0
H1880 H 0.04831 0.35381 0.48242 0.0
H1881 H 0.0301 0.37475 0.39798 0.0
H1882 H 0.02407 0.42001 0.41643 0.0
H1883 H 0.02176 0.45271 0.45628 0.0
H1884 H 0.04248 0.43379 0.54094 0.0
H1885 H 0.04944 0.38847 0.52267 0.0
C1886 C 0.04328 0.36841 0.46811 0.0
C1887 C 0.03956 0.36091 0.43889 0.0
C1888 C 0.04002 0.39459 0.47887 0.0
C1889 C 0.03317 0.38003 0.42054 0.0
C1890 C 0.02955 0.40588 0.43107 0.0
C1891 C 0.02806 0.43886 0.47083 0.0
C1892 C 0.03156 0.44667 0.49997 0.0
C1893 C 0.03258 0.41323 0.46017 0.0
C1894 C 0.03964 0.42831 0.51841 0.0
C1895 C 0.04363 0.4024 0.50797 0.0
H1896 H 0.44058 0.2586 0.2201 0.0
H1897 H 0.41405 0.26257 0.13257 0.0
H1898 H 0.36743 0.26085 0.1439 0.0
H1899 H 0.33365 0.25524 0.17756 0.0
H1900 H 0.35827 0.251 0.26529 0.0
H1901 H 0.40613 0.25651 0.25518 0.0
C1902 C 0.42458 0.25931 0.20362 0.0
C1903 C 0.43084 0.2605 0.17548 0.0
C1904 C 0.39747 0.25839 0.2103 0.0
C1905 C 0.4099 0.26158 0.15438 0.0
C1906 C 0.38314 0.26059 0.1608 0.0
C1907 C 0.34949 0.25584 0.19459 0.0
C1908 C 0.34244 0.25254 0.22207 0.0
C1909 C 0.37666 0.2586 0.18855 0.0
C1910 C 0.36321 0.25365 0.24395 0.0
C1911 C 0.39054 0.25654 0.2381 0.0
H1912 H 0.6331 0.52194 0.39856 0.0
H1913 H 0.55881 0.51503 0.34427 0.0
H1914 H 0.53257 0.51456 0.38539 0.0
H1915 H 0.53093 0.51741 0.43734 0.0
H1916 H 0.60613 0.52552 0.49073 0.0
H1917 H 0.63153 0.52419 0.44962 0.0
C1918 C 0.61114 0.52019 0.39567 0.0
C1919 C 0.59798 0.51851 0.36834 0.0
C1920 C 0.59624 0.52023 0.41939 0.0
C1921 C 0.5695 0.51639 0.36507 0.0
C1922 C 0.55447 0.51613 0.38861 0.0
C1923 C 0.55283 0.5187 0.43994 0.0
C1924 C 0.56647 0.52159 0.46726 0.0
C1925 C 0.56762 0.51821 0.41597 0.0
C1926 C 0.59496 0.52338 0.47011 0.0
C1927 C 0.60962 0.52262 0.44654 0.0
H1928 H 0.26918 0.81733 0.07691 0.0
H1929 H 0.27118 0.90017 0.11123 0.0
H1930 H 0.27148 0.88584 0.15876 0.0
H1931 H 0.26932 0.84969 0.1902 0.0
H1932 H 0.26913 0.76702 0.15672 0.0
H1933 H 0.27003 0.78136 0.10897 0.0
C1934 C 0.2698 0.8322 0.09484 0.0
C1935 C 0.26992 0.85966 0.0907 0.0
C1936 C 0.27018 0.82387 0.12209 0.0
C1937 C 0.27104 0.87887 0.114 0.0
C1938 C 0.27113 0.87071 0.14113 0.0
C1939 C 0.26948 0.83484 0.17241 0.0
C1940 C 0.26887 0.80739 0.17667 0.0
C1941 C 0.27037 0.84325 0.14534 0.0
C1942 C 0.26959 0.78831 0.15372 0.0
C1943 C 0.27004 0.79647 0.12651 0.0
H1944 H 0.97562 0.5539 0.86203 0.0
H1945 H 0.89577 0.5347 0.89066 0.0
H1946 H 0.91591 0.52925 0.93741 0.0
H1947 H 0.95551 0.52381 0.96791 0.0
H1948 H 0.0359 0.54449 0.94125 0.0
H1949 H 0.01619 0.55516 0.89575 0.0
C1950 C 0.9627 0.54914 0.8787 0.0
C1951 C 0.93425 0.54429 0.87277 0.0
C1952 C 0.97444 0.54576 0.90564 0.0
C1953 C 0.91772 0.53826 0.89458 0.0
C1954 C 0.9292 0.53499 0.92131 0.0
C1955 C 0.96884 0.53133 0.9525 0.0
C1956 C 0.99711 0.53327 0.95797 0.0
C1957 C 0.95745 0.53773 0.92673 0.0
C1958 C 0.01403 0.54277 0.93756 0.0
C1959 C 0.00277 0.54883 0.91153 0.0
H1960 H 0.24105 0.19212 0.58655 0.0
H1961 H 0.32451 0.18031 0.58403 0.0
H1962 H 0.334 0.19633 0.63389 0.0
H1963 H 0.31795 0.2105 0.67881 0.0
H1964 H 0.23552 0.22489 0.68192 0.0
H1965 H 0.22611 0.21104 0.6311 0.0
C1966 C 0.26136 0.19334 0.59689 0.0
C1967 C 0.28198 0.18476 0.5817 0.0
C1968 C 0.26674 0.20272 0.62563 0.0
C1969 C 0.30828 0.18671 0.59525 0.0
C1970 C 0.3137 0.19574 0.62379 0.0
C1971 C 0.29793 0.21065 0.66829 0.0
C1972 C 0.27724 0.21814 0.68393 0.0
C1973 C 0.29297 0.20322 0.63927 0.0
C1974 C 0.25161 0.21897 0.67015 0.0
C1975 C 0.24629 0.21103 0.6412 0.0
H1976 H 0.57498 0.49597 0.21724 0.0
H1977 H 0.64155 0.56008 0.20867 0.0
H1978 H 0.62683 0.55994 0.15895 0.0
H1979 H 0.59735 0.5393 0.11687 0.0
H1980 H 0.5295 0.47671 0.12474 0.0
H1981 H 0.54228 0.47852 0.17555 0.0
C1982 C 0.58607 0.51004 0.20451 0.0
C1983 C 0.60958 0.52772 0.21662 0.0
C1984 C 0.57736 0.51003 0.17572 0.0
C1985 C 0.62357 0.54604 0.19989 0.0
C1986 C 0.61519 0.546 0.17138 0.0
C1987 C 0.58517 0.52638 0.12986 0.0
C1988 C 0.56261 0.50791 0.11725 0.0
C1989 C 0.59248 0.52774 0.15895 0.0
C1990 C 0.54682 0.4913 0.13415 0.0
C1991 C 0.55425 0.4922 0.16313 0.0
H1992 H 0.26015 0.87228 0.91205 0.0
H1993 H 0.23128 0.7992 0.94996 0.0
H1994 H 0.23395 0.77184 0.90566 0.0
H1995 H 0.24766 0.76883 0.85691 0.0
H1996 H 0.28013 0.84294 0.82212 0.0
H1997 H 0.27291 0.86957 0.86439 0.0
C1998 C 0.25402 0.8504 0.91055 0.0
C1999 C 0.24547 0.83776 0.9341 0.0
C2000 C 0.25656 0.8349 0.88559 0.0
C2001 C 0.23789 0.80936 0.93196 0.0
C2002 C 0.23956 0.79373 0.90672 0.0
C2003 C 0.25301 0.79079 0.8586 0.0
C2004 C 0.26423 0.80374 0.8362 0.0
C2005 C 0.24942 0.80626 0.88352 0.0
C2006 C 0.2713 0.83227 0.83886 0.0
C2007 C 0.2672 0.84767 0.86308 0.0
H2008 H 0.90738 0.53097 0.69199 0.0
H2009 H 0.97767 0.51304 0.74054 0.0
H2010 H 0.00116 0.50916 0.69767 0.0
H2011 H 0.00166 0.51159 0.64615 0.0
H2012 H 0.93177 0.53244 0.59911 0.0
H2013 H 0.90817 0.53442 0.64154 0.0
C2014 C 0.92783 0.52617 0.69316 0.0
C2015 C 0.9408 0.52222 0.71922 0.0
C2016 C 0.94126 0.5245 0.66868 0.0
C2017 C 0.96738 0.5163 0.7206 0.0
C2018 C 0.98075 0.51399 0.69613 0.0
C2019 C 0.98122 0.51636 0.64528 0.0
C2020 C 0.96845 0.52179 0.61959 0.0
C2021 C 0.96789 0.5181 0.67001 0.0
C2022 C 0.94207 0.52828 0.61869 0.0
C2023 C 0.92852 0.52941 0.64292 0.0
H2024 H 0.25068 0.15348 0.40207 0.0
H2025 H 0.28627 0.22621 0.45493 0.0
H2026 H 0.28724 0.25236 0.41373 0.0
H2027 H 0.27739 0.25451 0.36229 0.0
H2028 H 0.24176 0.18086 0.31049 0.0
H2029 H 0.24142 0.15539 0.35151 0.0
C2030 C 0.2587 0.17505 0.40462 0.0
C2031 C 0.26835 0.18785 0.43154 0.0
C2032 C 0.25914 0.18991 0.38093 0.0
C2033 C 0.27867 0.21584 0.43442 0.0
C2034 C 0.27922 0.23081 0.41086 0.0
C2035 C 0.26959 0.23291 0.36002 0.0
C2036 C 0.25953 0.21979 0.33321 0.0
C2037 C 0.26943 0.21808 0.38394 0.0
C2038 C 0.24955 0.19169 0.33075 0.0
C2039 C 0.24934 0.17697 0.35425 0.0
H2040 H 0.3702 0.62556 0.5488 0.0
H2041 H 0.32625 0.56187 0.48865 0.0
H2042 H 0.3678 0.54173 0.4849 0.0
H2043 H 0.41671 0.54187 0.50064 0.0
H2044 H 0.45811 0.60631 0.56188 0.0
H2045 H 0.41738 0.62652 0.56317 0.0
C2046 C 0.36959 0.60729 0.53475 0.0
C2047 C 0.34527 0.59513 0.51913 0.0
C2048 C 0.39314 0.59594 0.53295 0.0
C2049 C 0.34485 0.57152 0.50098 0.0
C2050 C 0.36855 0.56005 0.49885 0.0
C2051 C 0.4167 0.56042 0.51401 0.0
C2052 C 0.44029 0.57243 0.53129 0.0
C2053 C 0.39284 0.57201 0.51497 0.0
C2054 C 0.44014 0.59643 0.54862 0.0
C2055 C 0.41687 0.60812 0.54938 0.0
H2056 H 0.87396 0.92143 0.56906 0.0
H2057 H 0.83315 0.97216 0.51717 0.0
H2058 H 0.87681 -0.00058 0.51056 0.0
H2059 H 0.92711 0.00697 0.51695 0.0
H2060 H 0.96733 0.95393 0.56642 0.0
H2061 H 0.92367 0.92982 0.57672 0.0
C2062 C 0.87459 0.93867 0.55661 0.0
C2063 C 0.85034 0.94473 0.54366 0.0
C2064 C 0.8998 0.95386 0.55234 0.0
C2065 C 0.85154 0.96703 0.52739 0.0
C2066 C 0.87653 0.98262 0.52354 0.0
C2067 C 0.92626 0.99036 0.53025 0.0
C2068 C 0.95051 0.98227 0.54083 0.0
C2069 C 0.90087 0.97597 0.53553 0.0
C2070 C 0.94904 0.96051 0.55783 0.0
C2071 C 0.92403 0.94666 0.56377 0.0
H2072 H 0.82 0.07274 0.25229 0.0
H2073 H 0.90504 0.10744 0.26788 0.0
H2074 H 0.89341 0.15279 0.27418 0.0
H2075 H 0.85962 0.18296 0.27387 0.0
H2076 H 0.7743 0.14969 0.26044 0.0
H2077 H 0.78541 0.10352 0.25495 0.0
C2078 C 0.83591 0.09026 0.2571 0.0
C2079 C 0.86338 0.08665 0.25937 0.0
C2080 C 0.82905 0.11655 0.26113 0.0
C2081 C 0.88376 0.10955 0.26593 0.0
C2082 C 0.87716 0.13557 0.26953 0.0
C2083 C 0.8434 0.1656 0.26987 0.0
C2084 C 0.81619 0.16972 0.26739 0.0
C2085 C 0.84994 0.13933 0.26699 0.0
C2086 C 0.79542 0.14702 0.26257 0.0
C2087 C 0.80179 0.12065 0.25927 0.0
H2088 H 0.68636 0.13054 0.05391 0.0
H2089 H 0.70895 0.05468 0.02285 0.0
H2090 H 0.66091 0.03437 0.01346 0.0
H2091 H 0.61278 0.03993 0.00957 0.0
H2092 H 0.59102 0.11756 0.03564 0.0
H2093 H 0.63853 0.13557 0.05174 0.0
C2094 C 0.68075 0.1094 0.0456 0.0
C2095 C 0.70099 0.09405 0.0391 0.0
C2096 C 0.65329 0.09836 0.03916 0.0
C2097 C 0.69358 0.06682 0.02798 0.0
C2098 C 0.66618 0.05528 0.02254 0.0
C2099 C 0.61849 0.06062 0.01926 0.0
C2100 C 0.5987 0.07749 0.02158 0.0
C2101 C 0.6459 0.07109 0.02737 0.0
C2102 C 0.60613 0.10437 0.03365 0.0
C2103 C 0.6332 0.11462 0.04282 0.0
H2104 H 0.16643 0.41841 0.2941 0.0
H2105 H 0.22895 0.46693 0.25437 0.0
H2106 H 0.25739 0.43154 0.25763 0.0
H2107 H 0.26317 0.38559 0.26901 0.0
H2108 H 0.20023 0.33716 0.30848 0.0
H2109 H 0.17346 0.37383 0.30828 0.0
C2110 C 0.18635 0.42132 0.28631 0.0
C2111 C 0.19547 0.44513 0.27378 0.0
C2112 C 0.20253 0.40089 0.28819 0.0
C2113 C 0.22139 0.44868 0.26394 0.0
C2114 C 0.23766 0.42846 0.26581 0.0
C2115 C 0.24378 0.3832 0.27794 0.0
C2116 C 0.23378 0.35861 0.28869 0.0
C2117 C 0.22827 0.40431 0.27752 0.0
C2118 C 0.20857 0.35589 0.30019 0.0
C2119 C 0.19311 0.37681 0.29994 0.0
H2120 H 0.21472 0.45909 0.02624 0.0
H2121 H 0.18518 0.39407 0.07548 0.0
H2122 H 0.14098 0.40886 0.07481 0.0
H2123 H 0.10989 0.43806 0.05786 0.0
H2124 H 0.13744 0.50191 0.00636 0.0
H2125 H 0.1832 0.48986 0.01025 0.0
C2126 C 0.19864 0.44845 0.03705 0.0
C2127 C 0.20311 0.4255 0.05085 0.0
C2128 C 0.17287 0.45666 0.03592 0.0
C2129 C 0.18211 0.41167 0.06457 0.0
C2130 C 0.15684 0.4201 0.06419 0.0
C2131 C 0.12586 0.44947 0.0475 0.0
C2132 C 0.12015 0.47073 0.03165 0.0
C2133 C 0.15184 0.44219 0.04949 0.0
C2134 C 0.14125 0.48542 0.01866 0.0
C2135 C 0.16741 0.47849 0.02084 0.0
H2136 H 0.87311 0.91782 0.2583 0.0
H2137 H 0.80353 0.94314 0.21552 0.0
H2138 H 0.77617 0.89856 0.21984 0.0
H2139 H 0.77203 0.8523 0.23725 0.0
H2140 H 0.84268 0.82983 0.28167 0.0
H2141 H 0.86922 0.87327 0.27549 0.0
C2142 C 0.85202 0.9136 0.24961 0.0
C2143 C 0.8405 0.93374 0.23635 0.0
C2144 C 0.83641 0.88835 0.25276 0.0
C2145 C 0.81297 0.92795 0.2257 0.0
C2146 C 0.79731 0.90247 0.22826 0.0
C2147 C 0.79322 0.85694 0.2455 0.0
C2148 C 0.80515 0.8375 0.25987 0.0
C2149 C 0.80876 0.88249 0.242 0.0
C2150 C 0.83271 0.84408 0.27049 0.0
C2151 C 0.84809 0.86905 0.26695 0.0
H2152 H 0.654 0.098 0.79055 0.0
H2153 H 0.71445 0.082 0.73481 0.0
H2154 H 0.73747 0.12916 0.74451 0.0
H2155 H 0.74078 0.17467 0.76974 0.0
H2156 H 0.6804 0.18966 0.82614 0.0
H2157 H 0.65711 0.14307 0.81536 0.0
C2158 C 0.67211 0.10487 0.78035 0.0
C2159 C 0.68249 0.08665 0.76193 0.0
C2160 C 0.68535 0.13177 0.7863 0.0
C2161 C 0.7061 0.09573 0.74908 0.0
C2162 C 0.71926 0.12264 0.75465 0.0
C2163 C 0.72252 0.16772 0.77963 0.0
C2164 C 0.71235 0.18564 0.79868 0.0
C2165 C 0.70916 0.1408 0.77338 0.0
C2166 C 0.68864 0.17635 0.81132 0.0
C2167 C 0.67527 0.14969 0.8052 0.0
loop_
_geom_bond_atom_site_label_1
_geom_bond_atom_site_label_2
_geom_bond_distance
_geom_bond_site_symmetry_2
_ccdc_geom_bond_type
In0 O1 2.294 . S
In0 O2 2.326 . S
In0 O6 2.266 1_455 S
In0 O7 2.326 1_455 S
In0 O8 2.266 . S
In0 O9 2.326 . S
In0 O11 2.294 . S
In0 O12 2.326 . S
O1 In0 2.294 . S
O1 C10 1.240 . S
O2 In0 2.326 . S
O2 C10 1.252 . S
C3 O6 1.252 . S
C3 O7 1.260 . S
C4 O11 1.240 . S
C4 O12 1.252 . S
C5 O8 1.252 . S
C5 O9 1.260 . S
O6 In0 2.266 1_655 S
O6 C3 1.252 . S
O7 In0 2.326 1_655 S
O7 C3 1.260 . S
O8 In0 2.266 . S
O8 C5 1.252 . S
O9 In0 2.326 . S
O9 C5 1.260 . S
C10 O1 1.240 . S
C10 O2 1.252 . S
O11 In0 2.294 . S
O11 C4 1.240 . S
O12 In0 2.326 . S
O12 C4 1.252 . S
In13 O14 2.294 . S
In13 O15 2.326 . S
In13 O19 2.266 . S
In13 O20 2.326 . S
In13 O21 2.266 1_455 S
In13 O22 2.326 1_455 S
In13 O24 2.294 . S
In13 O25 2.326 . S
O14 In13 2.294 . S
O14 C23 1.240 . S
O15 In13 2.326 . S
O15 C23 1.252 . S
C16 O19 1.252 . S
C16 O20 1.260 . S
C17 O24 1.240 . S
C17 O25 1.252 . S
C18 O21 1.252 . S
C18 O22 1.260 . S
O19 In13 2.266 . S
O19 C16 1.252 . S
O20 In13 2.326 . S
O20 C16 1.260 . S
O21 In13 2.266 1_655 S
O21 C18 1.252 . S
O22 In13 2.326 1_655 S
O22 C18 1.260 . S
C23 O14 1.240 . S
C23 O15 1.252 . S
O24 In13 2.294 . S
O24 C17 1.240 . S
O25 In13 2.326 . S
O25 C17 1.252 . S
In26 O27 2.294 . S
In26 O28 2.326 . S
In26 O32 2.266 . S
In26 O33 2.326 . S
In26 O34 2.266 . S
In26 O35 2.326 . S
In26 O37 2.294 . S
In26 O38 2.326 . S
O27 In26 2.294 . S
O27 C36 1.240 . S
O28 In26 2.326 . S
O28 C36 1.252 . S
C29 O32 1.252 . S
C29 O33 1.260 . S
C30 O37 1.240 . S
C30 O38 1.252 . S
C31 O34 1.252 . S
C31 O35 1.260 . S
O32 In26 2.266 . S
O32 C29 1.252 . S
O33 In26 2.326 . S
O33 C29 1.260 . S
O34 In26 2.266 . S
O34 C31 1.252 . S
O35 In26 2.326 . S
O35 C31 1.260 . S
C36 O27 1.240 . S
C36 O28 1.252 . S
O37 In26 2.294 . S
O37 C30 1.240 . S
O38 In26 2.326 . S
O38 C30 1.252 . S
In39 O40 2.294 . S
In39 O41 2.326 . S
In39 O45 2.266 . S
In39 O46 2.326 . S
In39 O47 2.266 . S
In39 O48 2.326 . S
In39 O50 2.294 . S
In39 O51 2.326 . S
O40 In39 2.294 . S
O40 C49 1.240 . S
O41 In39 2.326 . S
O41 C49 1.252 . S
C42 O45 1.252 . S
C42 O46 1.260 . S
C43 O50 1.240 . S
C43 O51 1.252 . S
C44 O47 1.252 . S
C44 O48 1.260 . S
O45 In39 2.266 . S
O45 C42 1.252 . S
O46 In39 2.326 . S
O46 C42 1.260 . S
O47 In39 2.266 . S
O47 C44 1.252 . S
O48 In39 2.326 . S
O48 C44 1.260 . S
C49 O40 1.240 . S
C49 O41 1.252 . S
O50 In39 2.294 . S
O50 C43 1.240 . S
O51 In39 2.326 . S
O51 C43 1.252 . S
In52 O53 2.294 . S
In52 O54 2.326 . S
In52 O58 2.266 . S
In52 O59 2.326 . S
In52 O60 2.266 . S
In52 O61 2.326 . S
In52 O63 2.294 . S
In52 O64 2.326 1_455 S
O53 In52 2.294 . S
O53 C62 1.240 . S
O54 In52 2.326 . S
O54 C62 1.252 . S
C55 O58 1.252 . S
C55 O59 1.260 . S
C56 O63 1.240 1_655 S
C56 O64 1.252 . S
C57 O60 1.252 . S
C57 O61 1.260 . S
O58 In52 2.266 . S
O58 C55 1.252 . S
O59 In52 2.326 . S
O59 C55 1.260 . S
O60 In52 2.266 . S
O60 C57 1.252 . S
O61 In52 2.326 . S
O61 C57 1.260 . S
C62 O53 1.240 . S
C62 O54 1.252 . S
O63 In52 2.294 . S
O63 C56 1.240 1_455 S
O64 In52 2.326 1_655 S
O64 C56 1.252 . S
In65 O66 2.294 . S
In65 O67 2.326 . S
In65 O71 2.266 . S
In65 O72 2.326 . S
In65 O73 2.266 . S
In65 O74 2.326 . S
In65 O76 2.294 . S
In65 O77 2.326 . S
O66 In65 2.294 . S
O66 C75 1.240 . S
O67 In65 2.326 . S
O67 C75 1.252 . S
C68 O71 1.252 . S
C68 O72 1.260 . S
C69 O76 1.240 . S
C69 O77 1.252 . S
C70 O73 1.252 . S
C70 O74 1.260 . S
O71 In65 2.266 . S
O71 C68 1.252 . S
O72 In65 2.326 . S
O72 C68 1.260 . S
O73 In65 2.266 . S
O73 C70 1.252 . S
O74 In65 2.326 . S
O74 C70 1.260 . S
C75 O66 1.240 . S
C75 O67 1.252 . S
O76 In65 2.294 . S
O76 C69 1.240 . S
O77 In65 2.326 . S
O77 C69 1.252 . S
In78 O79 2.294 . S
In78 O80 2.326 . S
In78 O84 2.266 . S
In78 O85 2.326 . S
In78 O86 2.266 . S
In78 O87 2.326 . S
In78 O89 2.294 . S
In78 O90 2.326 . S
O79 In78 2.294 . S
O79 C88 1.240 . S
O80 In78 2.326 . S
O80 C88 1.252 . S
C81 O84 1.252 . S
C81 O85 1.260 . S
C82 O89 1.240 . S
C82 O90 1.252 . S
C83 O86 1.252 . S
C83 O87 1.260 . S
O84 In78 2.266 . S
O84 C81 1.252 . S
O85 In78 2.326 . S
O85 C81 1.260 . S
O86 In78 2.266 . S
O86 C83 1.252 . S
O87 In78 2.326 . S
O87 C83 1.260 . S
C88 O79 1.240 . S
C88 O80 1.252 . S
O89 In78 2.294 . S
O89 C82 1.240 . S
O90 In78 2.326 . S
O90 C82 1.252 . S
In91 O92 2.294 . S
In91 O93 2.326 . S
In91 O97 2.266 . S
In91 O98 2.326 . S
In91 O99 2.266 1_455 S
In91 O100 2.326 1_455 S
In91 O102 2.294 . S
In91 O103 2.326 . S
O92 In91 2.294 . S
O92 C101 1.240 . S
O93 In91 2.326 . S
O93 C101 1.252 . S
C94 O97 1.252 . S
C94 O98 1.260 . S
C95 O102 1.240 . S
C95 O103 1.252 . S
C96 O99 1.252 . S
C96 O100 1.260 . S
O97 In91 2.266 . S
O97 C94 1.252 . S
O98 In91 2.326 . S
O98 C94 1.260 . S
O99 In91 2.266 1_655 S
O99 C96 1.252 . S
O100 In91 2.326 1_655 S
O100 C96 1.260 . S
C101 O92 1.240 . S
C101 O93 1.252 . S
O102 In91 2.294 . S
O102 C95 1.240 . S
O103 In91 2.326 . S
O103 C95 1.252 . S
In104 O105 2.294 . S
In104 O106 2.326 . S
In104 O110 2.266 . S
In104 O111 2.326 . S
In104 O112 2.266 1_545 S
In104 O113 2.326 1_545 S
In104 O115 2.294 . S
In104 O116 2.326 . S
O105 In104 2.294 . S
O105 C114 1.240 . S
O106 In104 2.326 . S
O106 C114 1.252 . S
C107 O110 1.252 . S
C107 O111 1.260 . S
C108 O115 1.240 . S
C108 O116 1.252 . S
C109 O112 1.252 . S
C109 O113 1.260 . S
O110 In104 2.266 . S
O110 C107 1.252 . S
O111 In104 2.326 . S
O111 C107 1.260 . S
O112 In104 2.266 1_565 S
O112 C109 1.252 . S
O113 In104 2.326 1_565 S
O113 C109 1.260 . S
C114 O105 1.240 . S
C114 O106 1.252 . S
O115 In104 2.294 . S
O115 C108 1.240 . S
O116 In104 2.326 . S
O116 C108 1.252 . S
In117 O118 2.294 . S
In117 O119 2.326 . S
In117 O123 2.266 . S
In117 O124 2.326 . S
In117 O125 2.266 . S
In117 O126 2.326 . S
In117 O128 2.294 . S
In117 O129 2.326 . S
O118 In117 2.294 . S
O118 C127 1.240 . S
O119 In117 2.326 . S
O119 C127 1.252 . S
C120 O123 1.252 . S
C120 O124 1.260 . S
C121 O128 1.240 . S
C121 O129 1.252 . S
C122 O125 1.252 . S
C122 O126 1.260 . S
O123 In117 2.266 . S
O123 C120 1.252 . S
O124 In117 2.326 . S
O124 C120 1.260 . S
O125 In117 2.266 . S
O125 C122 1.252 . S
O126 In117 2.326 . S
O126 C122 1.260 . S
C127 O118 1.240 . S
C127 O119 1.252 . S
O128 In117 2.294 . S
O128 C121 1.240 . S
O129 In117 2.326 . S
O129 C121 1.252 . S
In130 O131 2.294 . S
In130 O132 2.326 . S
In130 O136 2.266 . S
In130 O137 2.326 . S
In130 O138 2.266 . S
In130 O139 2.326 . S
In130 O141 2.294 1_545 S
In130 O142 2.326 1_545 S
O131 In130 2.294 . S
O131 C140 1.240 . S
O132 In130 2.326 . S
O132 C140 1.252 . S
C133 O136 1.252 . S
C133 O137 1.260 . S
C134 O141 1.240 . S
C134 O142 1.252 . S
C135 O138 1.252 . S
C135 O139 1.260 . S
O136 In130 2.266 . S
O136 C133 1.252 . S
O137 In130 2.326 . S
O137 C133 1.260 . S
O138 In130 2.266 . S
O138 C135 1.252 . S
O139 In130 2.326 . S
O139 C135 1.260 . S
C140 O131 1.240 . S
C140 O132 1.252 . S
O141 In130 2.294 1_565 S
O141 C134 1.240 . S
O142 In130 2.326 1_565 S
O142 C134 1.252 . S
In143 O144 2.294 . S
In143 O145 2.326 . S
In143 O149 2.266 1_554 S
In143 O150 2.326 1_554 S
In143 O151 2.266 . S
In143 O152 2.326 . S
In143 O154 2.294 . S
In143 O155 2.326 . S
O144 In143 2.294 . S
O144 C153 1.240 . S
O145 In143 2.326 . S
O145 C153 1.252 . S
C146 O149 1.252 . S
C146 O150 1.260 . S
C147 O154 1.240 . S
C147 O155 1.252 . S
C148 O151 1.252 . S
C148 O152 1.260 . S
O149 In143 2.266 1_556 S
O149 C146 1.252 . S
O150 In143 2.326 1_556 S
O150 C146 1.260 . S
O151 In143 2.266 . S
O151 C148 1.252 . S
O152 In143 2.326 . S
O152 C148 1.260 . S
C153 O144 1.240 . S
C153 O145 1.252 . S
O154 In143 2.294 . S
O154 C147 1.240 . S
O155 In143 2.326 . S
O155 C147 1.252 . S
In156 O157 2.294 . S
In156 O158 2.326 . S
In156 O162 2.266 . S
In156 O163 2.326 . S
In156 O164 2.266 . S
In156 O165 2.326 . S
In156 O167 2.294 . S
In156 O168 2.326 . S
O157 In156 2.294 . S
O157 C166 1.240 . S
O158 In156 2.326 . S
O158 C166 1.252 . S
C159 O162 1.252 1_556 S
C159 O163 1.260 1_556 S
C160 O167 1.240 . S
C160 O168 1.252 . S
C161 O164 1.252 . S
C161 O165 1.260 . S
O162 In156 2.266 . S
O162 C159 1.252 1_554 S
O163 In156 2.326 . S
O163 C159 1.260 1_554 S
O164 In156 2.266 . S
O164 C161 1.252 . S
O165 In156 2.326 . S
O165 C161 1.260 . S
C166 O157 1.240 . S
C166 O158 1.252 . S
O167 In156 2.294 . S
O167 C160 1.240 . S
O168 In156 2.326 . S
O168 C160 1.252 . S
In169 O170 2.294 . S
In169 O171 2.326 . S
In169 O175 2.266 . S
In169 O176 2.326 . S
In169 O177 2.266 . S
In169 O178 2.326 1_554 S
In169 O180 2.294 . S
In169 O181 2.326 . S
O170 In169 2.294 . S
O170 C179 1.240 . S
O171 In169 2.326 . S
O171 C179 1.252 . S
C172 O175 1.252 . S
C172 O176 1.260 . S
C173 O180 1.240 . S
C173 O181 1.252 . S
C174 O177 1.252 1_556 S
C174 O178 1.260 . S
O175 In169 2.266 . S
O175 C172 1.252 . S
O176 In169 2.326 . S
O176 C172 1.260 . S
O177 In169 2.266 . S
O177 C174 1.252 1_554 S
O178 In169 2.326 1_556 S
O178 C174 1.260 . S
C179 O170 1.240 . S
C179 O171 1.252 . S
O180 In169 2.294 . S
O180 C173 1.240 . S
O181 In169 2.326 . S
O181 C173 1.252 . S
In182 O183 2.294 . S
In182 O184 2.326 . S
In182 O188 2.266 . S
In182 O189 2.326 . S
In182 O190 2.266 . S
In182 O191 2.326 . S
In182 O193 2.294 . S
In182 O194 2.326 . S
O183 In182 2.294 . S
O183 C192 1.240 . S
O184 In182 2.326 . S
O184 C192 1.252 . S
C185 O188 1.252 . S
C185 O189 1.260 . S
C186 O193 1.240 . S
C186 O194 1.252 . S
C187 O190 1.252 . S
C187 O191 1.260 . S
O188 In182 2.266 . S
O188 C185 1.252 . S
O189 In182 2.326 . S
O189 C185 1.260 . S
O190 In182 2.266 . S
O190 C187 1.252 . S
O191 In182 2.326 . S
O191 C187 1.260 . S
C192 O183 1.240 . S
C192 O184 1.252 . S
O193 In182 2.294 . S
O193 C186 1.240 . S
O194 In182 2.326 . S
O194 C186 1.252 . S
In195 O196 2.294 . S
In195 O197 2.326 . S
In195 O201 2.266 . S
In195 O202 2.326 . S
In195 O203 2.266 . S
In195 O204 2.326 . S
In195 O206 2.294 . S
In195 O207 2.326 . S
O196 In195 2.294 . S
O196 C205 1.240 . S
O197 In195 2.326 . S
O197 C205 1.252 . S
C198 O201 1.252 . S
C198 O202 1.260 . S
C199 O206 1.240 . S
C199 O207 1.252 . S
C200 O203 1.252 . S
C200 O204 1.260 . S
O201 In195 2.266 . S
O201 C198 1.252 . S
O202 In195 2.326 . S
O202 C198 1.260 . S
O203 In195 2.266 . S
O203 C200 1.252 . S
O204 In195 2.326 . S
O204 C200 1.260 . S
C205 O196 1.240 . S
C205 O197 1.252 . S
O206 In195 2.294 . S
O206 C199 1.240 . S
O207 In195 2.326 . S
O207 C199 1.252 . S
In208 O209 2.294 . S
In208 O210 2.326 . S
In208 O214 2.266 . S
In208 O215 2.326 . S
In208 O216 2.266 1_545 S
In208 O217 2.326 1_545 S
In208 O219 2.294 . S
In208 O220 2.326 . S
O209 In208 2.294 . S
O209 C218 1.240 . S
O210 In208 2.326 . S
O210 C218 1.252 . S
C211 O214 1.252 . S
C211 O215 1.260 . S
C212 O219 1.240 . S
C212 O220 1.252 . S
C213 O216 1.252 . S
C213 O217 1.260 . S
O214 In208 2.266 . S
O214 C211 1.252 . S
O215 In208 2.326 . S
O215 C211 1.260 . S
O216 In208 2.266 1_565 S
O216 C213 1.252 . S
O217 In208 2.326 1_565 S
O217 C213 1.260 . S
C218 O209 1.240 . S
C218 O210 1.252 . S
O219 In208 2.294 . S
O219 C212 1.240 . S
O220 In208 2.326 . S
O220 C212 1.252 . S
In221 O222 2.294 . S
In221 O223 2.326 . S
In221 O227 2.266 . S
In221 O228 2.326 . S
In221 O229 2.266 . S
In221 O230 2.326 . S
In221 O232 2.294 . S
In221 O233 2.326 . S
O222 In221 2.294 . S
O222 C231 1.240 . S
O223 In221 2.326 . S
O223 C231 1.252 . S
C224 O227 1.252 . S
C224 O228 1.260 . S
C225 O232 1.240 . S
C225 O233 1.252 . S
C226 O229 1.252 . S
C226 O230 1.260 . S
O227 In221 2.266 . S
O227 C224 1.252 . S
O228 In221 2.326 . S
O228 C224 1.260 . S
O229 In221 2.266 . S
O229 C226 1.252 . S
O230 In221 2.326 . S
O230 C226 1.260 . S
C231 O222 1.240 . S
C231 O223 1.252 . S
O232 In221 2.294 . S
O232 C225 1.240 . S
O233 In221 2.326 . S
O233 C225 1.252 . S
In234 O235 2.294 . S
In234 O236 2.326 . S
In234 O240 2.266 . S
In234 O241 2.326 . S
In234 O242 2.266 . S
In234 O243 2.326 . S
In234 O245 2.294 . S
In234 O246 2.326 . S
O235 In234 2.294 . S
O235 C244 1.240 . S
O236 In234 2.326 . S
O236 C244 1.252 . S
C237 O240 1.252 . S
C237 O241 1.260 . S
C238 O245 1.240 . S
C238 O246 1.252 . S
C239 O242 1.252 . S
C239 O243 1.260 . S
O240 In234 2.266 . S
O240 C237 1.252 . S
O241 In234 2.326 . S
O241 C237 1.260 . S
O242 In234 2.266 . S
O242 C239 1.252 . S
O243 In234 2.326 . S
O243 C239 1.260 . S
C244 O235 1.240 . S
C244 O236 1.252 . S
O245 In234 2.294 . S
O245 C238 1.240 . S
O246 In234 2.326 . S
O246 C238 1.252 . S
In247 O248 2.294 1_545 S
In247 O249 2.326 1_545 S
In247 O253 2.266 . S
In247 O254 2.326 . S
In247 O255 2.266 . S
In247 O256 2.326 . S
In247 O258 2.294 1_545 S
In247 O259 2.326 1_545 S
O248 In247 2.294 1_565 S
O248 C257 1.240 . S
O249 In247 2.326 1_565 S
O249 C257 1.252 . S
C250 O253 1.252 . S
C250 O254 1.260 . S
C251 O258 1.240 . S
C251 O259 1.252 . S
C252 O255 1.252 . S
C252 O256 1.260 . S
O253 In247 2.266 . S
O253 C250 1.252 . S
O254 In247 2.326 . S
O254 C250 1.260 . S
O255 In247 2.266 . S
O255 C252 1.252 . S
O256 In247 2.326 . S
O256 C252 1.260 . S
C257 O248 1.240 . S
C257 O249 1.252 . S
O258 In247 2.294 1_565 S
O258 C251 1.240 . S
O259 In247 2.326 1_565 S
O259 C251 1.252 . S
In260 O261 2.294 . S
In260 O262 2.326 . S
In260 O266 2.266 1_554 S
In260 O267 2.325 1_554 S
In260 O268 2.264 1_554 S
In260 O269 2.322 1_554 S
In260 O271 2.296 . S
In260 O272 2.330 . S
O261 In260 2.294 . S
O261 C270 1.240 . S
O262 In260 2.326 . S
O262 C270 1.252 . S
C263 O266 1.252 . S
C263 O267 1.260 . S
C264 O271 1.240 . S
C264 O272 1.252 . S
C265 O268 1.252 . S
C265 O269 1.260 . S
O266 In260 2.266 1_556 S
O266 C263 1.252 . S
O267 In260 2.325 1_556 S
O267 C263 1.260 . S
O268 In260 2.264 1_556 S
O268 C265 1.252 . S
O269 In260 2.322 1_556 S
O269 C265 1.260 . S
C270 O261 1.240 . S
C270 O262 1.252 . S
O271 In260 2.296 . S
O271 C264 1.240 . S
O272 In260 2.330 . S
O272 C264 1.252 . S
In273 O274 2.294 . S
In273 O275 2.326 . S
In273 O279 2.266 . S
In273 O280 2.326 . S
In273 O281 2.266 . S
In273 O282 2.326 . S
In273 O284 2.294 . S
In273 O285 2.326 . S
O274 In273 2.294 . S
O274 C283 1.240 . S
O275 In273 2.326 . S
O275 C283 1.252 . S
C276 O279 1.252 . S
C276 O280 1.260 . S
C277 O284 1.240 . S
C277 O285 1.252 . S
C278 O281 1.252 . S
C278 O282 1.260 . S
O279 In273 2.266 . S
O279 C276 1.252 . S
O280 In273 2.326 . S
O280 C276 1.260 . S
O281 In273 2.266 . S
O281 C278 1.252 . S
O282 In273 2.326 . S
O282 C278 1.260 . S
C283 O274 1.240 . S
C283 O275 1.252 . S
O284 In273 2.294 . S
O284 C277 1.240 . S
O285 In273 2.326 . S
O285 C277 1.252 . S
In286 O287 2.294 . S
In286 O288 2.326 . S
In286 O292 2.266 . S
In286 O293 2.326 . S
In286 O294 2.266 . S
In286 O295 2.326 . S
In286 O297 2.294 . S
In286 O298 2.326 . S
O287 In286 2.294 . S
O287 C296 1.240 . S
O288 In286 2.326 . S
O288 C296 1.252 . S
C289 O292 1.252 . S
C289 O293 1.260 . S
C290 O297 1.240 . S
C290 O298 1.252 . S
C291 O294 1.252 . S
C291 O295 1.260 . S
O292 In286 2.266 . S
O292 C289 1.252 . S
O293 In286 2.326 . S
O293 C289 1.260 . S
O294 In286 2.266 . S
O294 C291 1.252 . S
O295 In286 2.326 . S
O295 C291 1.260 . S
C296 O287 1.240 . S
C296 O288 1.252 . S
O297 In286 2.294 . S
O297 C290 1.240 . S
O298 In286 2.326 . S
O298 C290 1.252 . S
In299 O300 2.294 . S
In299 O301 2.326 . S
In299 O305 2.266 . S
In299 O306 2.326 . S
In299 O307 2.266 . S
In299 O308 2.326 . S
In299 O310 2.294 . S
In299 O311 2.326 . S
O300 In299 2.294 . S
O300 C309 1.240 . S
O301 In299 2.326 . S
O301 C309 1.252 . S
C302 O305 1.252 . S
C302 O306 1.260 . S
C303 O310 1.240 . S
C303 O311 1.252 . S
C304 O307 1.252 . S
C304 O308 1.260 . S
O305 In299 2.266 . S
O305 C302 1.252 . S
O306 In299 2.326 . S
O306 C302 1.260 . S
O307 In299 2.266 . S
O307 C304 1.252 . S
O308 In299 2.326 . S
O308 C304 1.260 . S
C309 O300 1.240 . S
C309 O301 1.252 . S
O310 In299 2.294 . S
O310 C303 1.240 . S
O311 In299 2.326 . S
O311 C303 1.252 . S
Zn312 O318 1.969 . S
Zn312 O319 1.965 . S
Zn312 O323 2.024 1_545 S
Zn312 O328 1.969 . S
Zn313 O320 1.969 1_554 S
Zn313 O326 1.969 1_455 S
Zn313 O327 1.965 . S
Zn313 O329 2.024 . S
C314 O315 1.229 . S
C314 O323 1.058 . S
O315 C314 1.229 . S
C316 O317 1.229 . S
C316 O329 1.058 . S
O317 C316 1.229 . S
O318 Zn312 1.969 . S
O318 C321 1.267 . S
O319 Zn312 1.965 . S
O319 C330 1.260 . S
O320 Zn313 1.969 1_556 S
O320 C330 1.258 1_556 S
C321 O318 1.267 . S
C321 O322 1.228 1_545 S
O322 C321 1.228 1_565 S
O323 Zn312 2.024 1_565 S
O323 C314 1.058 . S
C324 O325 1.228 . S
C324 O326 1.267 . S
O325 C324 1.228 . S
O326 Zn313 1.969 1_655 S
O326 C324 1.267 . S
O327 Zn313 1.965 . S
O327 C331 1.260 . S
O328 Zn312 1.969 . S
O328 C331 1.258 . S
O329 Zn313 2.024 . S
O329 C316 1.058 . S
C330 O319 1.260 . S
C330 O320 1.258 1_554 S
C331 O327 1.260 . S
C331 O328 1.258 . S
Zn332 O338 1.969 . S
Zn332 O339 1.965 . S
Zn332 O343 2.024 . S
Zn332 O348 1.969 . S
Zn333 O340 1.969 . S
Zn333 O346 1.969 . S
Zn333 O347 1.965 . S
Zn333 O349 2.024 . S
C334 O335 1.229 . S
C334 O343 1.058 . S
O335 C334 1.229 . S
C336 O337 1.229 . S
C336 O349 1.058 . S
O337 C336 1.229 . S
O338 Zn332 1.969 . S
O338 C341 1.267 . S
O339 Zn332 1.965 . S
O339 C350 1.260 . S
O340 Zn333 1.969 . S
O340 C350 1.258 . S
C341 O338 1.267 . S
C341 O342 1.228 . S
O342 C341 1.228 . S
O343 Zn332 2.024 . S
O343 C334 1.058 . S
C344 O345 1.228 . S
C344 O346 1.267 . S
O345 C344 1.228 . S
O346 Zn333 1.969 . S
O346 C344 1.267 . S
O347 Zn333 1.965 . S
O347 C351 1.260 . S
O348 Zn332 1.969 . S
O348 C351 1.258 . S
O349 Zn333 2.024 . S
O349 C336 1.058 . S
C350 O339 1.260 . S
C350 O340 1.258 . S
C351 O347 1.260 . S
C351 O348 1.258 . S
Zn352 O358 1.969 . S
Zn352 O359 1.965 . S
Zn352 O363 2.024 . S
Zn352 O368 1.969 . S
Zn353 O360 1.969 . S
Zn353 O366 1.969 . S
Zn353 O367 1.956 1_565 S
Zn353 O369 2.024 . S
C354 O355 1.229 . S
C354 O363 1.058 . S
O355 C354 1.229 . S
C356 O357 1.229 . S
C356 O369 1.058 . S
O357 C356 1.229 . S
O358 Zn352 1.969 . S
O358 C361 1.267 . S
O359 Zn352 1.965 . S
O359 C370 1.260 . S
O360 Zn353 1.969 . S
O360 C370 1.258 1_565 S
C361 O358 1.267 . S
C361 O362 1.228 . S
O362 C361 1.228 . S
O363 Zn352 2.024 . S
O363 C354 1.058 . S
C364 O365 1.228 . S
C364 O366 1.267 . S
O365 C364 1.228 . S
O366 Zn353 1.969 . S
O366 C364 1.267 . S
O367 Zn353 1.956 1_545 S
O367 C371 1.263 . S
O368 Zn352 1.969 . S
O368 C371 1.258 . S
O369 Zn353 2.024 . S
O369 C356 1.058 . S
C370 O359 1.260 . S
C370 O360 1.258 1_545 S
C371 O367 1.263 . S
C371 O368 1.258 . S
Zn372 O378 1.969 . S
Zn372 O379 1.965 . S
Zn372 O383 2.024 . S
Zn372 O388 1.969 . S
Zn373 O380 1.969 . S
Zn373 O386 1.969 . S
Zn373 O387 1.965 . S
Zn373 O389 2.024 . S
C374 O375 1.229 . S
C374 O383 1.058 . S
O375 C374 1.229 . S
C376 O377 1.229 . S
C376 O389 1.058 . S
O377 C376 1.229 . S
O378 Zn372 1.969 . S
O378 C381 1.267 . S
O379 Zn372 1.965 . S
O379 C390 1.260 . S
O380 Zn373 1.969 . S
O380 C390 1.258 . S
C381 O378 1.267 . S
C381 O382 1.228 . S
O382 C381 1.228 . S
O383 Zn372 2.024 . S
O383 C374 1.058 . S
C384 O385 1.228 . S
C384 O386 1.267 . S
O385 C384 1.228 . S
O386 Zn373 1.969 . S
O386 C384 1.267 . S
O387 Zn373 1.965 . S
O387 C391 1.260 . S
O388 Zn372 1.969 . S
O388 C391 1.258 . S
O389 Zn373 2.024 . S
O389 C376 1.058 . S
C390 O379 1.260 . S
C390 O380 1.258 . S
C391 O387 1.260 . S
C391 O388 1.258 . S
Zn392 O398 1.969 . S
Zn392 O399 1.965 . S
Zn392 O403 2.024 1_565 S
Zn392 O408 1.969 1_565 S
Zn393 O400 1.969 1_455 S
Zn393 O406 1.969 . S
Zn393 O407 1.965 . S
Zn393 O409 2.024 . S
C394 O395 1.229 1_545 S
C394 O403 1.058 . S
O395 C394 1.229 1_565 S
C396 O397 1.219 1_455 S
C396 O409 1.068 . S
O397 C396 1.219 1_655 S
O398 Zn392 1.969 . S
O398 C401 1.267 . S
O399 Zn392 1.965 . S
O399 C410 1.260 1_455 S
O400 Zn393 1.969 1_655 S
O400 C410 1.258 1_545 S
C401 O398 1.267 . S
C401 O402 1.228 . S
O402 C401 1.228 . S
O403 Zn392 2.024 1_545 S
O403 C394 1.058 . S
C404 O405 1.228 . S
C404 O406 1.267 . S
O405 C404 1.228 . S
O406 Zn393 1.969 . S
O406 C404 1.267 . S
O407 Zn393 1.965 . S
O407 C411 1.260 . S
O408 Zn392 1.969 1_545 S
O408 C411 1.258 . S
O409 Zn393 2.024 . S
O409 C396 1.068 . S
C410 O399 1.260 1_655 S
C410 O400 1.258 1_565 S
C411 O407 1.260 . S
C411 O408 1.258 . S
Zn412 O418 1.969 . S
Zn412 O419 1.965 . S
Zn412 O423 2.024 . S
Zn412 O428 1.969 . S
Zn413 O420 1.969 . S
Zn413 O426 1.969 . S
Zn413 O427 1.965 . S
Zn413 O429 2.024 . S
C414 O415 1.229 . S
C414 O423 1.058 . S
O415 C414 1.229 . S
C416 O417 1.229 . S
C416 O429 1.058 . S
O417 C416 1.229 . S
O418 Zn412 1.969 . S
O418 C421 1.267 . S
O419 Zn412 1.965 . S
O419 C430 1.260 . S
O420 Zn413 1.969 . S
O420 C430 1.258 . S
C421 O418 1.267 . S
C421 O422 1.228 . S
O422 C421 1.228 . S
O423 Zn412 2.024 . S
O423 C414 1.058 . S
C424 O425 1.228 . S
C424 O426 1.267 . S
O425 C424 1.228 . S
O426 Zn413 1.969 . S
O426 C424 1.267 . S
O427 Zn413 1.965 . S
O427 C431 1.260 . S
O428 Zn412 1.969 . S
O428 C431 1.258 . S
O429 Zn413 2.024 . S
O429 C416 1.058 . S
C430 O419 1.260 . S
C430 O420 1.258 . S
C431 O427 1.260 . S
C431 O428 1.258 . S
Zn432 O438 1.969 . S
Zn432 O439 1.965 . S
Zn432 O443 2.024 1_556 S
Zn432 O448 1.969 1_556 S
Zn433 O440 1.969 1_545 S
Zn433 O446 1.982 . S
Zn433 O447 1.965 . S
Zn433 O449 2.024 . S
C434 O435 1.229 1_554 S
C434 O443 1.058 . S
O435 C434 1.229 1_556 S
C436 O437 1.229 . S
C436 O449 1.058 1_565 S
O437 C436 1.229 . S
O438 Zn432 1.969 . S
O438 C441 1.267 . S
O439 Zn432 1.965 . S
O439 C450 1.260 1_545 S
O440 Zn433 1.969 1_565 S
O440 C450 1.258 1_554 S
C441 O438 1.267 . S
C441 O442 1.228 . S
O442 C441 1.228 . S
O443 Zn432 2.024 1_554 S
O443 C434 1.058 . S
C444 O445 1.228 . S
C444 O446 1.286 . S
O445 C444 1.228 . S
O446 Zn433 1.982 . S
O446 C444 1.286 . S
O447 Zn433 1.965 . S
O447 C451 1.260 . S
O448 Zn432 1.969 1_554 S
O448 C451 1.258 . S
O449 Zn433 2.024 . S
O449 C436 1.058 1_545 S
C450 O439 1.260 1_565 S
C450 O440 1.258 1_556 S
C451 O447 1.260 . S
C451 O448 1.258 . S
Zn452 O458 1.969 . S
Zn452 O459 1.965 . S
Zn452 O463 2.024 . S
Zn452 O468 1.969 . S
Zn453 O460 1.969 . S
Zn453 O466 1.969 . S
Zn453 O467 1.965 . S
Zn453 O469 2.024 . S
C454 O455 1.229 . S
C454 O463 1.058 . S
O455 C454 1.229 . S
C456 O457 1.229 . S
C456 O469 1.058 . S
O457 C456 1.229 . S
O458 Zn452 1.969 . S
O458 C461 1.267 . S
O459 Zn452 1.965 . S
O459 C470 1.260 . S
O460 Zn453 1.969 . S
O460 C470 1.258 . S
C461 O458 1.267 . S
C461 O462 1.228 . S
O462 C461 1.228 . S
O463 Zn452 2.024 . S
O463 C454 1.058 . S
C464 O465 1.228 . S
C464 O466 1.267 . S
O465 C464 1.228 . S
O466 Zn453 1.969 . S
O466 C464 1.267 . S
O467 Zn453 1.965 . S
O467 C471 1.260 . S
O468 Zn452 1.969 . S
O468 C471 1.258 . S
O469 Zn453 2.024 . S
O469 C456 1.058 . S
C470 O459 1.260 . S
C470 O460 1.258 . S
C471 O467 1.260 . S
C471 O468 1.258 . S
Zn472 O478 1.969 . S
Zn472 O479 1.965 . S
Zn472 O483 2.024 . S
Zn472 O488 1.969 . S
Zn473 O480 1.969 1_556 S
Zn473 O486 1.969 . S
Zn473 O487 1.965 1_556 S
Zn473 O489 2.024 . S
C474 O475 1.229 . S
C474 O483 1.058 . S
O475 C474 1.229 . S
C476 O477 1.229 . S
C476 O489 1.058 . S
O477 C476 1.229 . S
O478 Zn472 1.969 . S
O478 C481 1.267 . S
O479 Zn472 1.965 . S
O479 C490 1.260 . S
O480 Zn473 1.969 1_554 S
O480 C490 1.258 . S
C481 O478 1.267 . S
C481 O482 1.228 . S
O482 C481 1.228 . S
O483 Zn472 2.024 . S
O483 C474 1.058 . S
C484 O485 1.228 . S
C484 O486 1.267 . S
O485 C484 1.228 . S
O486 Zn473 1.969 . S
O486 C484 1.267 . S
O487 Zn473 1.965 1_554 S
O487 C491 1.260 . S
O488 Zn472 1.969 . S
O488 C491 1.258 . S
O489 Zn473 2.024 . S
O489 C476 1.058 . S
C490 O479 1.260 . S
C490 O480 1.258 . S
C491 O487 1.260 . S
C491 O488 1.258 . S
Zn492 O498 1.969 . S
Zn492 O499 1.965 . S
Zn492 O503 2.024 . S
Zn492 O508 1.969 . S
Zn493 O500 1.969 . S
Zn493 O506 1.969 . S
Zn493 O507 1.965 . S
Zn493 O509 2.024 . S
C494 O495 1.229 . S
C494 O503 1.058 . S
O495 C494 1.229 . S
C496 O497 1.229 . S
C496 O509 1.058 . S
O497 C496 1.229 . S
O498 Zn492 1.969 . S
O498 C501 1.267 . S
O499 Zn492 1.965 . S
O499 C510 1.260 . S
O500 Zn493 1.969 . S
O500 C510 1.258 . S
C501 O498 1.267 . S
C501 O502 1.228 . S
O502 C501 1.228 . S
O503 Zn492 2.024 . S
O503 C494 1.058 . S
C504 O505 1.228 . S
C504 O506 1.267 . S
O505 C504 1.228 . S
O506 Zn493 1.969 . S
O506 C504 1.267 . S
O507 Zn493 1.965 . S
O507 C511 1.260 . S
O508 Zn492 1.969 . S
O508 C511 1.258 . S
O509 Zn493 2.024 . S
O509 C496 1.058 . S
C510 O499 1.260 . S
C510 O500 1.258 . S
C511 O507 1.260 . S
C511 O508 1.258 . S
Zn512 O518 1.969 . S
Zn512 O519 1.965 . S
Zn512 O523 2.024 . S
Zn512 O528 1.969 . S
Zn513 O520 1.969 . S
Zn513 O526 1.969 . S
Zn513 O527 1.965 1_655 S
Zn513 O529 2.024 . S
C514 O515 1.229 . S
C514 O523 1.058 . S
O515 C514 1.229 . S
C516 O517 1.229 . S
C516 O529 1.058 . S
O517 C516 1.229 . S
O518 Zn512 1.969 . S
O518 C521 1.267 . S
O519 Zn512 1.965 . S
O519 C530 1.260 . S
O520 Zn513 1.969 . S
O520 C530 1.258 1_655 S
C521 O518 1.267 . S
C521 O522 1.228 . S
O522 C521 1.228 . S
O523 Zn512 2.024 . S
O523 C514 1.058 . S
C524 O525 1.228 . S
C524 O526 1.267 . S
O525 C524 1.228 . S
O526 Zn513 1.969 . S
O526 C524 1.267 . S
O527 Zn513 1.965 1_455 S
O527 C531 1.260 . S
O528 Zn512 1.969 . S
O528 C531 1.258 . S
O529 Zn513 2.024 . S
O529 C516 1.058 . S
C530 O519 1.260 . S
C530 O520 1.258 1_455 S
C531 O527 1.260 . S
C531 O528 1.258 . S
Zn532 O538 1.969 . S
Zn532 O539 1.965 . S
Zn532 O543 2.024 . S
Zn532 O548 1.969 . S
Zn533 O540 1.969 . S
Zn533 O546 1.969 . S
Zn533 O547 1.965 . S
Zn533 O549 2.024 . S
C534 O535 1.229 . S
C534 O543 1.058 . S
O535 C534 1.229 . S
C536 O537 1.229 . S
C536 O549 1.058 . S
O537 C536 1.229 . S
O538 Zn532 1.969 . S
O538 C541 1.267 . S
O539 Zn532 1.965 . S
O539 C550 1.260 . S
O540 Zn533 1.969 . S
O540 C550 1.258 . S
C541 O538 1.267 . S
C541 O542 1.228 . S
O542 C541 1.228 . S
O543 Zn532 2.024 . S
O543 C534 1.058 . S
C544 O545 1.228 . S
C544 O546 1.267 . S
O545 C544 1.228 . S
O546 Zn533 1.969 . S
O546 C544 1.267 . S
O547 Zn533 1.965 . S
O547 C551 1.260 . S
O548 Zn532 1.969 . S
O548 C551 1.258 . S
O549 Zn533 2.024 . S
O549 C536 1.058 . S
C550 O539 1.260 . S
C550 O540 1.258 . S
C551 O547 1.260 . S
C551 O548 1.258 . S
Zn552 O558 1.969 . S
Zn552 O559 1.965 . S
Zn552 O563 2.024 . S
Zn552 O568 1.969 . S
Zn553 O560 1.969 . S
Zn553 O566 1.969 . S
Zn553 O567 1.965 . S
Zn553 O569 2.024 . S
C554 O555 1.229 . S
C554 O563 1.058 . S
O555 C554 1.229 . S
C556 O557 1.229 . S
C556 O569 1.058 . S
O557 C556 1.229 . S
O558 Zn552 1.969 . S
O558 C561 1.267 . S
O559 Zn552 1.965 . S
O559 C570 1.260 . S
O560 Zn553 1.969 . S
O560 C570 1.258 . S
C561 O558 1.267 . S
C561 O562 1.228 . S
O562 C561 1.228 . S
O563 Zn552 2.024 . S
O563 C554 1.058 . S
C564 O565 1.228 . S
C564 O566 1.267 . S
O565 C564 1.228 . S
O566 Zn553 1.969 . S
O566 C564 1.267 . S
O567 Zn553 1.965 . S
O567 C571 1.260 . S
O568 Zn552 1.969 . S
O568 C571 1.258 . S
O569 Zn553 2.024 . S
O569 C556 1.058 . S
C570 O559 1.260 . S
C570 O560 1.258 . S
C571 O567 1.260 . S
C571 O568 1.258 . S
Zn572 O578 1.969 . S
Zn572 O579 1.965 . S
Zn572 O583 2.024 . S
Zn572 O588 1.969 . S
Zn573 O580 1.969 . S
Zn573 O586 1.969 . S
Zn573 O587 1.965 . S
Zn573 O589 2.024 . S
C574 O575 1.229 . S
C574 O583 1.058 . S
O575 C574 1.229 . S
C576 O577 1.229 . S
C576 O589 1.058 . S
O577 C576 1.229 . S
O578 Zn572 1.969 . S
O578 C581 1.267 . S
O579 Zn572 1.965 . S
O579 C590 1.260 . S
O580 Zn573 1.969 . S
O580 C590 1.258 . S
C581 O578 1.267 . S
C581 O582 1.228 . S
O582 C581 1.228 . S
O583 Zn572 2.024 . S
O583 C574 1.058 . S
C584 O585 1.228 . S
C584 O586 1.267 . S
O585 C584 1.228 . S
O586 Zn573 1.969 . S
O586 C584 1.267 . S
O587 Zn573 1.965 . S
O587 C591 1.260 . S
O588 Zn572 1.969 . S
O588 C591 1.258 . S
O589 Zn573 2.024 . S
O589 C576 1.058 . S
C590 O579 1.260 . S
C590 O580 1.258 . S
C591 O587 1.260 . S
C591 O588 1.258 . S
Zn592 O598 1.969 . S
Zn592 O599 1.965 . S
Zn592 O603 2.024 . S
Zn592 O608 1.969 . S
Zn593 O600 1.969 . S
Zn593 O606 1.969 . S
Zn593 O607 1.965 . S
Zn593 O609 2.024 . S
C594 O595 1.229 . S
C594 O603 1.058 . S
O595 C594 1.229 . S
C596 O597 1.229 . S
C596 O609 1.058 . S
O597 C596 1.229 . S
O598 Zn592 1.969 . S
O598 C601 1.267 . S
O599 Zn592 1.965 . S
O599 C610 1.260 . S
O600 Zn593 1.969 . S
O600 C610 1.258 . S
C601 O598 1.267 . S
C601 O602 1.228 . S
O602 C601 1.228 . S
O603 Zn592 2.024 . S
O603 C594 1.058 . S
C604 O605 1.228 . S
C604 O606 1.267 . S
O605 C604 1.228 . S
O606 Zn593 1.969 . S
O606 C604 1.267 . S
O607 Zn593 1.965 . S
O607 C611 1.260 . S
O608 Zn592 1.969 . S
O608 C611 1.258 . S
O609 Zn593 2.024 . S
O609 C596 1.058 . S
C610 O599 1.260 . S
C610 O600 1.258 . S
C611 O607 1.260 . S
C611 O608 1.258 . S
Zn612 O618 1.969 . S
Zn612 O619 1.965 . S
Zn612 O623 2.024 1_655 S
Zn612 O628 1.969 1_655 S
Zn613 O620 1.969 1_554 S
Zn613 O626 1.969 . S
Zn613 O627 1.965 . S
Zn613 O629 2.024 . S
C614 O615 1.229 1_455 S
C614 O623 1.058 . S
O615 C614 1.229 1_655 S
C616 O617 1.229 1_554 S
C616 O629 1.058 . S
O617 C616 1.229 1_556 S
O618 Zn612 1.969 . S
O618 C621 1.267 . S
O619 Zn612 1.965 . S
O619 C630 1.260 1_554 S
O620 Zn613 1.969 1_556 S
O620 C630 1.258 1_455 S
C621 O618 1.267 . S
C621 O622 1.228 . S
O622 C621 1.228 . S
O623 Zn612 2.024 1_455 S
O623 C614 1.058 . S
C624 O625 1.228 . S
C624 O626 1.267 . S
O625 C624 1.228 . S
O626 Zn613 1.969 . S
O626 C624 1.267 . S
O627 Zn613 1.965 . S
O627 C631 1.260 . S
O628 Zn612 1.969 1_455 S
O628 C631 1.258 . S
O629 Zn613 2.024 . S
O629 C616 1.058 . S
C630 O619 1.260 1_556 S
C630 O620 1.258 1_655 S
C631 O627 1.260 . S
C631 O628 1.258 . S
H632 C638 0.930 . S
H633 C641 0.930 . S
H634 C642 0.930 1_554 S
H635 C643 0.930 . S
H636 C646 0.930 . S
H637 C647 0.930 . S
C638 H632 0.930 . S
C638 C639 1.355 . S
C638 C640 1.415 . S
C639 C638 1.355 . S
C639 C641 1.419 . S
C640 C638 1.415 . S
C640 C645 1.425 . S
C640 C647 1.409 . S
C641 H633 0.930 . S
C641 C639 1.419 . S
C641 C642 1.362 . S
C642 H634 0.930 1_556 S
C642 C641 1.362 . S
C642 C645 1.409 . S
C643 H635 0.930 . S
C643 C644 1.355 . S
C643 C645 1.415 1_554 S
C644 C643 1.355 . S
C644 C646 1.419 1_554 S
C645 C640 1.425 . S
C645 C642 1.409 . S
C645 C643 1.415 1_556 S
C646 H636 0.930 . S
C646 C644 1.419 1_556 S
C646 C647 1.362 . S
C647 H637 0.930 . S
C647 C640 1.409 . S
C647 C646 1.362 . S
H648 C654 0.930 . S
H649 C657 0.930 . S
H650 C658 0.930 . S
H651 C659 0.930 . S
H652 C662 0.930 . S
H653 C663 0.930 . S
C654 H648 0.930 . S
C654 C655 1.355 . S
C654 C656 1.415 . S
C655 C654 1.355 . S
C655 C657 1.419 . S
C656 C654 1.415 . S
C656 C661 1.425 . S
C656 C663 1.409 . S
C657 H649 0.930 . S
C657 C655 1.419 . S
C657 C658 1.362 . S
C658 H650 0.930 . S
C658 C657 1.362 . S
C658 C661 1.409 . S
C659 H651 0.930 . S
C659 C660 1.355 . S
C659 C661 1.415 . S
C660 C659 1.355 . S
C660 C662 1.419 . S
C661 C656 1.425 . S
C661 C658 1.409 . S
C661 C659 1.415 . S
C662 H652 0.930 . S
C662 C660 1.419 . S
C662 C663 1.362 . S
C663 H653 0.930 . S
C663 C656 1.409 . S
C663 C662 1.362 . S
H664 C670 0.930 . S
H665 C673 0.930 . S
H666 C674 0.930 . S
H667 C675 0.930 . S
H668 C678 0.930 . S
H669 C679 0.930 . S
C670 H664 0.930 . S
C670 C671 1.355 . S
C670 C672 1.415 . S
C671 C670 1.355 . S
C671 C673 1.419 . S
C672 C670 1.415 . S
C672 C677 1.425 . S
C672 C679 1.409 . S
C673 H665 0.930 . S
C673 C671 1.419 . S
C673 C674 1.362 . S
C674 H666 0.930 . S
C674 C673 1.362 . S
C674 C677 1.409 . S
C675 H667 0.930 . S
C675 C676 1.355 . S
C675 C677 1.415 . S
C676 C675 1.355 . S
C676 C678 1.419 . S
C677 C672 1.425 . S
C677 C674 1.409 . S
C677 C675 1.415 . S
C678 H668 0.930 . S
C678 C676 1.419 . S
C678 C679 1.362 . S
C679 H669 0.930 . S
C679 C672 1.409 . S
C679 C678 1.362 . S
H680 C686 0.930 . S
H681 C689 0.930 . S
H682 C690 0.930 . S
H683 C691 0.930 . S
H684 C694 0.930 . S
H685 C695 0.930 . S
C686 H680 0.930 . S
C686 C687 1.355 . S
C686 C688 1.415 . S
C687 C686 1.355 . S
C687 C689 1.419 . S
C688 C686 1.415 . S
C688 C693 1.425 . S
C688 C695 1.409 . S
C689 H681 0.930 . S
C689 C687 1.419 . S
C689 C690 1.362 . S
C690 H682 0.930 . S
C690 C689 1.362 . S
C690 C693 1.409 . S
C691 H683 0.930 . S
C691 C692 1.355 . S
C691 C693 1.415 . S
C692 C691 1.355 . S
C692 C694 1.419 . S
C693 C688 1.425 . S
C693 C690 1.409 . S
C693 C691 1.415 . S
C694 H684 0.930 . S
C694 C692 1.419 . S
C694 C695 1.362 . S
C695 H685 0.930 . S
C695 C688 1.409 . S
C695 C694 1.362 . S
H696 C702 0.930 . S
H697 C705 0.930 1_655 S
H698 C706 0.930 1_655 S
H699 C707 0.930 . S
H700 C710 0.930 . S
H701 C711 0.930 . S
C702 H696 0.930 . S
C702 C703 1.355 . S
C702 C704 1.415 . S
C703 C702 1.355 . S
C703 C705 1.419 . S
C704 C702 1.415 . S
C704 C709 1.425 . S
C704 C711 1.409 . S
C705 H697 0.930 1_455 S
C705 C703 1.419 . S
C705 C706 1.362 . S
C706 H698 0.930 1_455 S
C706 C705 1.362 . S
C706 C709 1.409 . S
C707 H699 0.930 . S
C707 C708 1.355 . S
C707 C709 1.415 . S
C708 C707 1.355 . S
C708 C710 1.419 . S
C709 C704 1.425 . S
C709 C706 1.409 . S
C709 C707 1.415 . S
C710 H700 0.930 . S
C710 C708 1.419 . S
C710 C711 1.362 . S
C711 H701 0.930 . S
C711 C704 1.409 . S
C711 C710 1.362 . S
H712 C718 0.930 . S
H713 C721 0.930 . S
H714 C722 0.930 . S
H715 C723 0.930 . S
H716 C726 0.930 . S
H717 C727 0.930 . S
C718 H712 0.930 . S
C718 C719 1.355 . S
C718 C720 1.415 . S
C719 C718 1.355 . S
C719 C721 1.419 . S
C720 C718 1.415 . S
C720 C725 1.425 . S
C720 C727 1.409 . S
C721 H713 0.930 . S
C721 C719 1.419 . S
C721 C722 1.362 . S
C722 H714 0.930 . S
C722 C721 1.362 . S
C722 C725 1.409 . S
C723 H715 0.930 . S
C723 C724 1.355 . S
C723 C725 1.415 . S
C724 C723 1.355 . S
C724 C726 1.419 . S
C725 C720 1.425 . S
C725 C722 1.409 . S
C725 C723 1.415 . S
C726 H716 0.930 . S
C726 C724 1.419 . S
C726 C727 1.362 . S
C727 H717 0.930 . S
C727 C720 1.409 . S
C727 C726 1.362 . S
H728 C734 0.930 . S
H729 C737 0.930 . S
H730 C738 0.930 . S
H731 C739 0.930 . S
H732 C742 0.930 . S
H733 C743 0.930 . S
C734 H728 0.930 . S
C734 C735 1.355 . S
C734 C736 1.415 . S
C735 C734 1.355 . S
C735 C737 1.419 . S
C736 C734 1.415 . S
C736 C741 1.425 . S
C736 C743 1.409 . S
C737 H729 0.930 . S
C737 C735 1.419 . S
C737 C738 1.362 . S
C738 H730 0.930 . S
C738 C737 1.362 . S
C738 C741 1.409 . S
C739 H731 0.930 . S
C739 C740 1.355 . S
C739 C741 1.415 . S
C740 C739 1.355 . S
C740 C742 1.419 . S
C741 C736 1.425 . S
C741 C738 1.409 . S
C741 C739 1.415 . S
C742 H732 0.930 . S
C742 C740 1.419 . S
C742 C743 1.362 . S
C743 H733 0.930 . S
C743 C736 1.409 . S
C743 C742 1.362 . S
H744 C750 0.930 . S
H745 C753 0.930 . S
H746 C754 0.930 . S
H747 C755 0.930 . S
H748 C758 0.930 . S
H749 C759 0.930 . S
C750 H744 0.930 . S
C750 C751 1.355 . S
C750 C752 1.415 . S
C751 C750 1.355 . S
C751 C753 1.419 . S
C752 C750 1.415 . S
C752 C757 1.425 . S
C752 C759 1.409 . S
C753 H745 0.930 . S
C753 C751 1.419 . S
C753 C754 1.362 . S
C754 H746 0.930 . S
C754 C753 1.362 . S
C754 C757 1.409 . S
C755 H747 0.930 . S
C755 C756 1.355 . S
C755 C757 1.415 . S
C756 C755 1.355 . S
C756 C758 1.419 . S
C757 C752 1.425 . S
C757 C754 1.409 . S
C757 C755 1.415 . S
C758 H748 0.930 . S
C758 C756 1.419 . S
C758 C759 1.362 . S
C759 H749 0.930 . S
C759 C752 1.409 . S
C759 C758 1.362 . S
H760 C766 0.930 1_565 S
H761 C769 0.930 . S
H762 C770 0.930 . S
H763 C771 0.929 . S
H764 C774 0.930 1_565 S
H765 C775 0.905 1_565 S
C766 H760 0.930 1_545 S
C766 C767 1.355 . S
C766 C768 1.415 . S
C767 C766 1.355 . S
C767 C769 1.419 . S
C768 C766 1.415 . S
C768 C773 1.425 . S
C768 C775 1.426 . S
C769 H761 0.930 . S
C769 C767 1.419 . S
C769 C770 1.362 . S
C770 H762 0.930 . S
C770 C769 1.362 . S
C770 C773 1.409 . S
C771 H763 0.929 . S
C771 C772 1.355 1_655 S
C771 C773 1.415 . S
C772 C771 1.355 1_455 S
C772 C774 1.419 . S
C773 C768 1.425 . S
C773 C770 1.409 . S
C773 C771 1.415 . S
C774 H764 0.930 1_545 S
C774 C772 1.419 . S
C774 C775 1.370 1_455 S
C775 H765 0.905 1_545 S
C775 C768 1.426 . S
C775 C774 1.370 1_655 S
H776 C782 0.930 . S
H777 C785 0.930 . S
H778 C786 0.930 . S
H779 C787 0.930 . S
H780 C790 0.930 . S
H781 C791 0.930 . S
C782 H776 0.930 . S
C782 C783 1.355 . S
C782 C784 1.415 . S
C783 C782 1.355 . S
C783 C785 1.419 . S
C784 C782 1.415 . S
C784 C789 1.425 . S
C784 C791 1.409 . S
C785 H777 0.930 . S
C785 C783 1.419 . S
C785 C786 1.362 . S
C786 H778 0.930 . S
C786 C785 1.362 . S
C786 C789 1.409 . S
C787 H779 0.930 . S
C787 C788 1.355 . S
C787 C789 1.415 . S
C788 C787 1.355 . S
C788 C790 1.419 . S
C789 C784 1.425 . S
C789 C786 1.409 . S
C789 C787 1.415 . S
C790 H780 0.930 . S
C790 C788 1.419 . S
C790 C791 1.362 . S
C791 H781 0.930 . S
C791 C784 1.409 . S
C791 C790 1.362 . S
H792 C798 0.930 . S
H793 C801 0.930 . S
H794 C802 0.930 . S
H795 C803 0.930 . S
H796 C806 0.930 . S
H797 C807 0.930 . S
C798 H792 0.930 . S
C798 C799 1.355 . S
C798 C800 1.415 . S
C799 C798 1.355 . S
C799 C801 1.419 1_565 S
C800 C798 1.415 . S
C800 C805 1.425 1_565 S
C800 C807 1.409 . S
C801 H793 0.930 . S
C801 C799 1.419 1_545 S
C801 C802 1.362 . S
C802 H794 0.930 . S
C802 C801 1.362 . S
C802 C805 1.409 . S
C803 H795 0.930 . S
C803 C804 1.355 1_545 S
C803 C805 1.415 . S
C804 C803 1.355 1_565 S
C804 C806 1.419 . S
C805 C800 1.425 1_545 S
C805 C802 1.409 . S
C805 C803 1.415 . S
C806 H796 0.930 . S
C806 C804 1.419 . S
C806 C807 1.362 . S
C807 H797 0.930 . S
C807 C800 1.409 . S
C807 C806 1.362 . S
H808 C814 0.930 . S
H809 C817 0.930 . S
H810 C818 0.930 . S
H811 C819 0.930 . S
H812 C822 0.930 . S
H813 C823 0.930 . S
C814 H808 0.930 . S
C814 C815 1.355 . S
C814 C816 1.415 . S
C815 C814 1.355 . S
C815 C817 1.419 . S
C816 C814 1.415 . S
C816 C821 1.425 . S
C816 C823 1.409 . S
C817 H809 0.930 . S
C817 C815 1.419 . S
C817 C818 1.362 . S
C818 H810 0.930 . S
C818 C817 1.362 . S
C818 C821 1.409 . S
C819 H811 0.930 . S
C819 C820 1.355 . S
C819 C821 1.415 . S
C820 C819 1.355 . S
C820 C822 1.419 . S
C821 C816 1.425 . S
C821 C818 1.409 . S
C821 C819 1.415 . S
C822 H812 0.930 . S
C822 C820 1.419 . S
C822 C823 1.362 . S
C823 H813 0.930 . S
C823 C816 1.409 . S
C823 C822 1.362 . S
H824 C830 0.930 . S
H825 C833 0.930 . S
H826 C834 0.930 1_565 S
H827 C835 0.937 . S
H828 C838 0.930 . S
H829 C839 0.916 1_455 S
C830 H824 0.930 . S
C830 C831 1.355 . S
C830 C832 1.415 . S
C831 C830 1.355 . S
C831 C833 1.419 . S
C832 C830 1.415 . S
C832 C837 1.425 . S
C832 C839 1.433 . S
C833 H825 0.930 . S
C833 C831 1.419 . S
C833 C834 1.362 . S
C834 H826 0.930 1_545 S
C834 C833 1.362 . S
C834 C837 1.409 . S
C835 H827 0.937 . S
C835 C836 1.355 . S
C835 C837 1.415 . S
C836 C835 1.355 . S
C836 C838 1.419 1_655 S
C837 C832 1.425 . S
C837 C834 1.409 . S
C837 C835 1.415 . S
C838 H828 0.930 . S
C838 C836 1.419 1_455 S
C838 C839 1.353 1_455 S
C839 H829 0.916 1_655 S
C839 C832 1.433 . S
C839 C838 1.353 1_655 S
H840 C846 0.930 . S
H841 C849 0.930 . S
H842 C850 0.930 . S
H843 C851 0.930 . S
H844 C854 0.930 . S
H845 C855 0.930 . S
C846 H840 0.930 . S
C846 C847 1.355 . S
C846 C848 1.415 . S
C847 C846 1.355 . S
C847 C849 1.419 . S
C848 C846 1.415 . S
C848 C853 1.425 . S
C848 C855 1.409 . S
C849 H841 0.930 . S
C849 C847 1.419 . S
C849 C850 1.362 . S
C850 H842 0.930 . S
C850 C849 1.362 . S
C850 C853 1.409 . S
C851 H843 0.930 . S
C851 C852 1.355 . S
C851 C853 1.415 . S
C852 C851 1.355 . S
C852 C854 1.419 . S
C853 C848 1.425 . S
C853 C850 1.409 . S
C853 C851 1.415 . S
C854 H844 0.930 . S
C854 C852 1.419 . S
C854 C855 1.362 . S
C855 H845 0.930 . S
C855 C848 1.409 . S
C855 C854 1.362 . S
H856 C862 0.930 . S
H857 C865 0.930 . S
H858 C866 0.930 . S
H859 C867 0.930 . S
H860 C870 0.930 . S
H861 C871 0.930 . S
C862 H856 0.930 . S
C862 C863 1.355 . S
C862 C864 1.415 . S
C863 C862 1.355 . S
C863 C865 1.419 . S
C864 C862 1.415 . S
C864 C869 1.425 . S
C864 C871 1.409 . S
C865 H857 0.930 . S
C865 C863 1.419 . S
C865 C866 1.362 . S
C866 H858 0.930 . S
C866 C865 1.362 . S
C866 C869 1.409 . S
C867 H859 0.930 . S
C867 C868 1.355 . S
C867 C869 1.415 . S
C868 C867 1.355 . S
C868 C870 1.419 . S
C869 C864 1.425 . S
C869 C866 1.409 . S
C869 C867 1.415 . S
C870 H860 0.930 . S
C870 C868 1.419 . S
C870 C871 1.362 . S
C871 H861 0.930 . S
C871 C864 1.409 . S
C871 C870 1.362 . S
H872 C878 0.930 . S
H873 C881 0.930 . S
H874 C882 0.930 . S
H875 C883 0.930 . S
H876 C886 0.930 . S
H877 C887 0.930 . S
C878 H872 0.930 . S
C878 C879 1.355 . S
C878 C880 1.415 . S
C879 C878 1.355 . S
C879 C881 1.419 . S
C880 C878 1.415 . S
C880 C885 1.425 . S
C880 C887 1.409 . S
C881 H873 0.930 . S
C881 C879 1.419 . S
C881 C882 1.362 . S
C882 H874 0.930 . S
C882 C881 1.362 . S
C882 C885 1.409 . S
C883 H875 0.930 . S
C883 C884 1.355 . S
C883 C885 1.415 . S
C884 C883 1.355 . S
C884 C886 1.419 . S
C885 C880 1.425 . S
C885 C882 1.409 . S
C885 C883 1.415 . S
C886 H876 0.930 . S
C886 C884 1.419 . S
C886 C887 1.362 . S
C887 H877 0.930 . S
C887 C880 1.409 . S
C887 C886 1.362 . S
H888 C894 0.930 . S
H889 C897 0.930 . S
H890 C898 0.930 . S
H891 C899 0.930 . S
H892 C902 0.930 . S
H893 C903 0.930 . S
C894 H888 0.930 . S
C894 C895 1.355 . S
C894 C896 1.415 . S
C895 C894 1.355 . S
C895 C897 1.419 . S
C896 C894 1.415 . S
C896 C901 1.425 . S
C896 C903 1.409 . S
C897 H889 0.930 . S
C897 C895 1.419 . S
C897 C898 1.362 . S
C898 H890 0.930 . S
C898 C897 1.362 . S
C898 C901 1.409 . S
C899 H891 0.930 . S
C899 C900 1.355 . S
C899 C901 1.415 . S
C900 C899 1.355 . S
C900 C902 1.419 1_565 S
C901 C896 1.425 . S
C901 C898 1.409 . S
C901 C899 1.415 . S
C902 H892 0.930 . S
C902 C900 1.419 1_545 S
C902 C903 1.362 1_545 S
C903 H893 0.930 . S
C903 C896 1.409 . S
C903 C902 1.362 1_565 S
H904 C910 0.930 . S
H905 C913 0.930 . S
H906 C914 0.930 . S
H907 C915 0.930 . S
H908 C918 0.930 . S
H909 C919 0.930 . S
C910 H904 0.930 . S
C910 C911 1.355 1_554 S
C910 C912 1.415 . S
C911 C910 1.355 1_556 S
C911 C913 1.419 . S
C912 C910 1.415 . S
C912 C917 1.425 1_554 S
C912 C919 1.409 . S
C913 H905 0.930 . S
C913 C911 1.419 . S
C913 C914 1.362 . S
C914 H906 0.930 . S
C914 C913 1.362 . S
C914 C917 1.409 . S
C915 H907 0.930 . S
C915 C916 1.355 1_556 S
C915 C917 1.415 . S
C916 C915 1.355 1_554 S
C916 C918 1.419 . S
C917 C912 1.425 1_556 S
C917 C914 1.409 . S
C917 C915 1.415 . S
C918 H908 0.930 . S
C918 C916 1.419 . S
C918 C919 1.362 . S
C919 H909 0.930 . S
C919 C912 1.409 . S
C919 C918 1.362 . S
H920 C926 0.930 . S
H921 C929 0.930 . S
H922 C930 0.930 . S
H923 C931 0.930 . S
H924 C934 0.930 . S
H925 C935 0.930 . S
C926 H920 0.930 . S
C926 C927 1.355 . S
C926 C928 1.415 . S
C927 C926 1.355 . S
C927 C929 1.419 . S
C928 C926 1.415 . S
C928 C933 1.425 . S
C928 C935 1.409 . S
C929 H921 0.930 . S
C929 C927 1.419 . S
C929 C930 1.362 . S
C930 H922 0.930 . S
C930 C929 1.362 . S
C930 C933 1.409 . S
C931 H923 0.930 . S
C931 C932 1.355 . S
C931 C933 1.415 . S
C932 C931 1.355 . S
C932 C934 1.419 . S
C933 C928 1.425 . S
C933 C930 1.409 . S
C933 C931 1.415 . S
C934 H924 0.930 . S
C934 C932 1.419 . S
C934 C935 1.362 . S
C935 H925 0.930 . S
C935 C928 1.409 . S
C935 C934 1.362 . S
H936 C942 0.930 . S
H937 C945 0.930 . S
H938 C946 0.930 . S
H939 C947 0.930 . S
H940 C950 0.930 . S
H941 C951 0.930 . S
C942 H936 0.930 . S
C942 C943 1.355 . S
C942 C944 1.415 . S
C943 C942 1.355 . S
C943 C945 1.419 . S
C944 C942 1.415 . S
C944 C949 1.425 . S
C944 C951 1.409 . S
C945 H937 0.930 . S
C945 C943 1.419 . S
C945 C946 1.362 . S
C946 H938 0.930 . S
C946 C945 1.362 . S
C946 C949 1.409 . S
C947 H939 0.930 . S
C947 C948 1.355 . S
C947 C949 1.415 . S
C948 C947 1.355 . S
C948 C950 1.419 . S
C949 C944 1.425 . S
C949 C946 1.409 . S
C949 C947 1.415 . S
C950 H940 0.930 . S
C950 C948 1.419 . S
C950 C951 1.362 . S
C951 H941 0.930 . S
C951 C944 1.409 . S
C951 C950 1.362 . S
H952 C958 0.930 . S
H953 C961 0.930 . S
H954 C962 0.930 . S
H955 C963 0.930 . S
H956 C966 0.930 . S
H957 C967 0.930 . S
C958 H952 0.930 . S
C958 C959 1.355 . S
C958 C960 1.415 . S
C959 C958 1.355 . S
C959 C961 1.419 . S
C960 C958 1.415 . S
C960 C965 1.425 . S
C960 C967 1.409 . S
C961 H953 0.930 . S
C961 C959 1.419 . S
C961 C962 1.362 . S
C962 H954 0.930 . S
C962 C961 1.362 . S
C962 C965 1.409 . S
C963 H955 0.930 . S
C963 C964 1.355 . S
C963 C965 1.415 . S
C964 C963 1.355 . S
C964 C966 1.419 . S
C965 C960 1.425 . S
C965 C962 1.409 . S
C965 C963 1.415 . S
C966 H956 0.930 . S
C966 C964 1.419 . S
C966 C967 1.362 . S
C967 H957 0.930 . S
C967 C960 1.409 . S
C967 C966 1.362 . S
H968 C974 0.930 . S
H969 C977 0.930 . S
H970 C978 0.930 . S
H971 C979 0.930 . S
H972 C982 0.930 . S
H973 C983 0.930 . S
C974 H968 0.930 . S
C974 C975 1.355 . S
C974 C976 1.415 . S
C975 C974 1.355 . S
C975 C977 1.419 . S
C976 C974 1.415 . S
C976 C981 1.425 . S
C976 C983 1.409 . S
C977 H969 0.930 . S
C977 C975 1.419 . S
C977 C978 1.362 . S
C978 H970 0.930 . S
C978 C977 1.362 . S
C978 C981 1.409 . S
C979 H971 0.930 . S
C979 C980 1.355 . S
C979 C981 1.415 . S
C980 C979 1.355 . S
C980 C982 1.419 . S
C981 C976 1.425 . S
C981 C978 1.409 . S
C981 C979 1.415 . S
C982 H972 0.930 . S
C982 C980 1.419 . S
C982 C983 1.362 . S
C983 H973 0.930 . S
C983 C976 1.409 . S
C983 C982 1.362 . S
H984 C990 0.930 . S
H985 C993 0.930 . S
H986 C994 0.930 . S
H987 C995 0.930 . S
H988 C998 0.930 . S
H989 C999 0.930 . S
C990 H984 0.930 . S
C990 C991 1.355 . S
C990 C992 1.415 . S
C991 C990 1.355 . S
C991 C993 1.419 . S
C992 C990 1.415 . S
C992 C997 1.425 . S
C992 C999 1.409 . S
C993 H985 0.930 . S
C993 C991 1.419 . S
C993 C994 1.362 . S
C994 H986 0.930 . S
C994 C993 1.362 . S
C994 C997 1.409 . S
C995 H987 0.930 . S
C995 C996 1.355 . S
C995 C997 1.415 . S
C996 C995 1.355 . S
C996 C998 1.419 . S
C997 C992 1.425 . S
C997 C994 1.409 . S
C997 C995 1.415 . S
C998 H988 0.930 . S
C998 C996 1.419 . S
C998 C999 1.362 . S
C999 H989 0.930 . S
C999 C992 1.409 . S
C999 C998 1.362 . S
H1000 C1006 0.930 . S
H1001 C1009 0.930 . S
H1002 C1010 0.930 . S
H1003 C1011 0.930 . S
H1004 C1014 0.930 . S
H1005 C1015 0.930 . S
C1006 H1000 0.930 . S
C1006 C1007 1.355 . S
C1006 C1008 1.415 . S
C1007 C1006 1.355 . S
C1007 C1009 1.419 . S
C1008 C1006 1.415 . S
C1008 C1013 1.425 . S
C1008 C1015 1.409 . S
C1009 H1001 0.930 . S
C1009 C1007 1.419 . S
C1009 C1010 1.362 . S
C1010 H1002 0.930 . S
C1010 C1009 1.362 . S
C1010 C1013 1.409 . S
C1011 H1003 0.930 . S
C1011 C1012 1.355 . S
C1011 C1013 1.415 . S
C1012 C1011 1.355 . S
C1012 C1014 1.419 . S
C1013 C1008 1.425 . S
C1013 C1010 1.409 . S
C1013 C1011 1.415 . S
C1014 H1004 0.930 . S
C1014 C1012 1.419 . S
C1014 C1015 1.362 . S
C1015 H1005 0.930 . S
C1015 C1008 1.409 . S
C1015 C1014 1.362 . S
H1016 C1022 0.930 . S
H1017 C1025 0.930 . S
H1018 C1026 0.930 . S
H1019 C1027 0.930 . S
H1020 C1030 0.930 . S
H1021 C1031 0.930 . S
C1022 H1016 0.930 . S
C1022 C1023 1.355 . S
C1022 C1024 1.415 . S
C1023 C1022 1.355 . S
C1023 C1025 1.419 . S
C1024 C1022 1.415 . S
C1024 C1029 1.425 . S
C1024 C1031 1.409 . S
C1025 H1017 0.930 . S
C1025 C1023 1.419 . S
C1025 C1026 1.362 . S
C1026 H1018 0.930 . S
C1026 C1025 1.362 . S
C1026 C1029 1.409 . S
C1027 H1019 0.930 . S
C1027 C1028 1.355 . S
C1027 C1029 1.415 . S
C1028 C1027 1.355 . S
C1028 C1030 1.419 . S
C1029 C1024 1.425 . S
C1029 C1026 1.409 . S
C1029 C1027 1.415 . S
C1030 H1020 0.930 . S
C1030 C1028 1.419 . S
C1030 C1031 1.362 . S
C1031 H1021 0.930 . S
C1031 C1024 1.409 . S
C1031 C1030 1.362 . S
H1032 C1038 0.930 . S
H1033 C1041 0.930 . S
H1034 C1042 0.930 . S
H1035 C1043 0.930 . S
H1036 C1046 0.930 . S
H1037 C1047 0.930 . S
C1038 H1032 0.930 . S
C1038 C1039 1.355 . S
C1038 C1040 1.415 . S
C1039 C1038 1.355 . S
C1039 C1041 1.419 . S
C1040 C1038 1.415 . S
C1040 C1045 1.425 . S
C1040 C1047 1.409 . S
C1041 H1033 0.930 . S
C1041 C1039 1.419 . S
C1041 C1042 1.362 . S
C1042 H1034 0.930 . S
C1042 C1041 1.362 . S
C1042 C1045 1.409 . S
C1043 H1035 0.930 . S
C1043 C1044 1.355 . S
C1043 C1045 1.415 . S
C1044 C1043 1.355 . S
C1044 C1046 1.419 . S
C1045 C1040 1.425 . S
C1045 C1042 1.409 . S
C1045 C1043 1.415 . S
C1046 H1036 0.930 . S
C1046 C1044 1.419 . S
C1046 C1047 1.362 . S
C1047 H1037 0.930 . S
C1047 C1040 1.409 . S
C1047 C1046 1.362 . S
H1048 C1054 0.930 . S
H1049 C1057 0.930 . S
H1050 C1058 0.930 . S
H1051 C1059 0.930 . S
H1052 C1062 0.930 . S
H1053 C1063 0.930 . S
C1054 H1048 0.930 . S
C1054 C1055 1.355 . S
C1054 C1056 1.415 . S
C1055 C1054 1.355 . S
C1055 C1057 1.419 . S
C1056 C1054 1.415 . S
C1056 C1061 1.425 . S
C1056 C1063 1.409 . S
C1057 H1049 0.930 . S
C1057 C1055 1.419 . S
C1057 C1058 1.362 . S
C1058 H1050 0.930 . S
C1058 C1057 1.362 . S
C1058 C1061 1.409 . S
C1059 H1051 0.930 . S
C1059 C1060 1.355 . S
C1059 C1061 1.415 . S
C1060 C1059 1.355 . S
C1060 C1062 1.419 . S
C1061 C1056 1.425 . S
C1061 C1058 1.409 . S
C1061 C1059 1.415 . S
C1062 H1052 0.930 . S
C1062 C1060 1.419 . S
C1062 C1063 1.362 . S
C1063 H1053 0.930 . S
C1063 C1056 1.409 . S
C1063 C1062 1.362 . S
H1064 C1070 0.930 . S
H1065 C1073 0.930 . S
H1066 C1074 0.930 . S
H1067 C1075 0.930 . S
H1068 C1078 0.930 . S
H1069 C1079 0.930 . S
C1070 H1064 0.930 . S
C1070 C1071 1.355 . S
C1070 C1072 1.415 . S
C1071 C1070 1.355 . S
C1071 C1073 1.419 . S
C1072 C1070 1.415 . S
C1072 C1077 1.425 . S
C1072 C1079 1.409 . S
C1073 H1065 0.930 . S
C1073 C1071 1.419 . S
C1073 C1074 1.362 . S
C1074 H1066 0.930 . S
C1074 C1073 1.362 . S
C1074 C1077 1.409 . S
C1075 H1067 0.930 . S
C1075 C1076 1.355 . S
C1075 C1077 1.415 . S
C1076 C1075 1.355 . S
C1076 C1078 1.419 . S
C1077 C1072 1.425 . S
C1077 C1074 1.409 . S
C1077 C1075 1.415 . S
C1078 H1068 0.930 . S
C1078 C1076 1.419 . S
C1078 C1079 1.362 . S
C1079 H1069 0.930 . S
C1079 C1072 1.409 . S
C1079 C1078 1.362 . S
H1080 C1086 0.930 1_655 S
H1081 C1089 0.930 . S
H1082 C1090 0.930 . S
H1083 C1091 0.930 . S
H1084 C1094 0.930 . S
H1085 C1095 0.930 . S
C1086 H1080 0.930 1_455 S
C1086 C1087 1.355 . S
C1086 C1088 1.415 . S
C1087 C1086 1.355 . S
C1087 C1089 1.419 . S
C1088 C1086 1.415 . S
C1088 C1093 1.425 . S
C1088 C1095 1.409 1_455 S
C1089 H1081 0.930 . S
C1089 C1087 1.419 . S
C1089 C1090 1.362 . S
C1090 H1082 0.930 . S
C1090 C1089 1.362 . S
C1090 C1093 1.409 . S
C1091 H1083 0.930 . S
C1091 C1092 1.355 . S
C1091 C1093 1.415 . S
C1092 C1091 1.355 . S
C1092 C1094 1.419 1_455 S
C1093 C1088 1.425 . S
C1093 C1090 1.409 . S
C1093 C1091 1.415 . S
C1094 H1084 0.930 . S
C1094 C1092 1.419 1_655 S
C1094 C1095 1.362 . S
C1095 H1085 0.930 . S
C1095 C1088 1.409 1_655 S
C1095 C1094 1.362 . S
H1096 C1102 0.930 . S
H1097 C1105 0.930 . S
H1098 C1106 0.930 . S
H1099 C1107 0.930 . S
H1100 C1110 0.930 . S
H1101 C1111 0.930 . S
C1102 H1096 0.930 . S
C1102 C1103 1.355 . S
C1102 C1104 1.415 . S
C1103 C1102 1.355 . S
C1103 C1105 1.419 . S
C1104 C1102 1.415 . S
C1104 C1109 1.425 . S
C1104 C1111 1.409 . S
C1105 H1097 0.930 . S
C1105 C1103 1.419 . S
C1105 C1106 1.362 . S
C1106 H1098 0.930 . S
C1106 C1105 1.362 . S
C1106 C1109 1.409 . S
C1107 H1099 0.930 . S
C1107 C1108 1.355 . S
C1107 C1109 1.415 . S
C1108 C1107 1.355 . S
C1108 C1110 1.419 . S
C1109 C1104 1.425 . S
C1109 C1106 1.409 . S
C1109 C1107 1.415 . S
C1110 H1100 0.930 . S
C1110 C1108 1.419 . S
C1110 C1111 1.362 . S
C1111 H1101 0.930 . S
C1111 C1104 1.409 . S
C1111 C1110 1.362 . S
H1112 C1118 0.930 . S
H1113 C1121 0.930 . S
H1114 C1122 0.930 . S
H1115 C1123 0.930 . S
H1116 C1126 0.930 . S
H1117 C1127 0.930 . S
C1118 H1112 0.930 . S
C1118 C1119 1.355 . S
C1118 C1120 1.415 . S
C1119 C1118 1.355 . S
C1119 C1121 1.419 . S
C1120 C1118 1.415 . S
C1120 C1125 1.425 . S
C1120 C1127 1.409 . S
C1121 H1113 0.930 . S
C1121 C1119 1.419 . S
C1121 C1122 1.362 . S
C1122 H1114 0.930 . S
C1122 C1121 1.362 . S
C1122 C1125 1.409 . S
C1123 H1115 0.930 . S
C1123 C1124 1.355 . S
C1123 C1125 1.415 . S
C1124 C1123 1.355 . S
C1124 C1126 1.419 . S
C1125 C1120 1.425 . S
C1125 C1122 1.409 . S
C1125 C1123 1.415 . S
C1126 H1116 0.930 . S
C1126 C1124 1.419 . S
C1126 C1127 1.362 . S
C1127 H1117 0.930 . S
C1127 C1120 1.409 . S
C1127 C1126 1.362 . S
H1128 C1134 0.930 . S
H1129 C1137 0.930 . S
H1130 C1138 0.930 . S
H1131 C1139 0.930 . S
H1132 C1142 0.930 . S
H1133 C1143 0.930 . S
C1134 H1128 0.930 . S
C1134 C1135 1.355 . S
C1134 C1136 1.415 . S
C1135 C1134 1.355 . S
C1135 C1137 1.419 . S
C1136 C1134 1.415 . S
C1136 C1141 1.425 . S
C1136 C1143 1.409 . S
C1137 H1129 0.930 . S
C1137 C1135 1.419 . S
C1137 C1138 1.362 . S
C1138 H1130 0.930 . S
C1138 C1137 1.362 . S
C1138 C1141 1.409 . S
C1139 H1131 0.930 . S
C1139 C1140 1.355 . S
C1139 C1141 1.415 . S
C1140 C1139 1.355 . S
C1140 C1142 1.419 . S
C1141 C1136 1.425 . S
C1141 C1138 1.409 . S
C1141 C1139 1.415 . S
C1142 H1132 0.930 . S
C1142 C1140 1.419 . S
C1142 C1143 1.362 . S
C1143 H1133 0.930 . S
C1143 C1136 1.409 . S
C1143 C1142 1.362 . S
H1144 C1150 0.930 . S
H1145 C1153 0.930 . S
H1146 C1154 0.930 . S
H1147 C1155 0.930 . S
H1148 C1158 0.930 . S
H1149 C1159 0.935 . S
C1150 H1144 0.930 . S
C1150 C1151 1.355 . S
C1150 C1152 1.415 . S
C1151 C1150 1.355 . S
C1151 C1153 1.419 . S
C1152 C1150 1.415 . S
C1152 C1157 1.425 . S
C1152 C1159 1.409 . S
C1153 H1145 0.930 . S
C1153 C1151 1.419 . S
C1153 C1154 1.362 . S
C1154 H1146 0.930 . S
C1154 C1153 1.362 . S
C1154 C1157 1.409 . S
C1155 H1147 0.930 . S
C1155 C1156 1.355 . S
C1155 C1157 1.415 . S
C1156 C1155 1.355 . S
C1156 C1158 1.419 . S
C1157 C1152 1.425 . S
C1157 C1154 1.409 . S
C1157 C1155 1.415 . S
C1158 H1148 0.930 . S
C1158 C1156 1.419 . S
C1158 C1159 1.362 . S
C1159 H1149 0.935 . S
C1159 C1152 1.409 . S
C1159 C1158 1.362 . S
H1160 C1166 0.930 . S
H1161 C1169 0.930 . S
H1162 C1170 0.930 . S
H1163 C1171 0.930 . S
H1164 C1174 0.930 . S
H1165 C1175 0.930 . S
C1166 H1160 0.930 . S
C1166 C1167 1.355 . S
C1166 C1168 1.415 . S
C1167 C1166 1.355 . S
C1167 C1169 1.419 . S
C1168 C1166 1.415 . S
C1168 C1173 1.425 . S
C1168 C1175 1.409 . S
C1169 H1161 0.930 . S
C1169 C1167 1.419 . S
C1169 C1170 1.362 . S
C1170 H1162 0.930 . S
C1170 C1169 1.362 . S
C1170 C1173 1.409 . S
C1171 H1163 0.930 . S
C1171 C1172 1.355 . S
C1171 C1173 1.415 . S
C1172 C1171 1.355 . S
C1172 C1174 1.419 . S
C1173 C1168 1.425 . S
C1173 C1170 1.409 . S
C1173 C1171 1.415 . S
C1174 H1164 0.930 . S
C1174 C1172 1.419 . S
C1174 C1175 1.362 . S
C1175 H1165 0.930 . S
C1175 C1168 1.409 . S
C1175 C1174 1.362 . S
H1176 C1182 0.930 . S
H1177 C1185 0.930 . S
H1178 C1186 0.930 . S
H1179 C1187 0.930 . S
H1180 C1190 0.930 . S
H1181 C1191 0.930 . S
C1182 H1176 0.930 . S
C1182 C1183 1.355 . S
C1182 C1184 1.415 . S
C1183 C1182 1.355 . S
C1183 C1185 1.419 . S
C1184 C1182 1.415 . S
C1184 C1189 1.425 . S
C1184 C1191 1.409 . S
C1185 H1177 0.930 . S
C1185 C1183 1.419 . S
C1185 C1186 1.362 . S
C1186 H1178 0.930 . S
C1186 C1185 1.362 . S
C1186 C1189 1.409 . S
C1187 H1179 0.930 . S
C1187 C1188 1.355 . S
C1187 C1189 1.415 . S
C1188 C1187 1.355 . S
C1188 C1190 1.419 . S
C1189 C1184 1.425 . S
C1189 C1186 1.409 . S
C1189 C1187 1.415 . S
C1190 H1180 0.930 . S
C1190 C1188 1.419 . S
C1190 C1191 1.362 . S
C1191 H1181 0.930 . S
C1191 C1184 1.409 . S
C1191 C1190 1.362 . S
H1192 C1198 0.930 . S
H1193 C1201 0.930 . S
H1194 C1202 0.930 . S
H1195 C1203 0.930 . S
H1196 C1206 0.930 . S
H1197 C1207 0.930 . S
C1198 H1192 0.930 . S
C1198 C1199 1.355 . S
C1198 C1200 1.415 . S
C1199 C1198 1.355 . S
C1199 C1201 1.419 . S
C1200 C1198 1.415 . S
C1200 C1205 1.425 . S
C1200 C1207 1.409 . S
C1201 H1193 0.930 . S
C1201 C1199 1.419 . S
C1201 C1202 1.362 . S
C1202 H1194 0.930 . S
C1202 C1201 1.362 . S
C1202 C1205 1.409 . S
C1203 H1195 0.930 . S
C1203 C1204 1.355 . S
C1203 C1205 1.415 . S
C1204 C1203 1.355 . S
C1204 C1206 1.419 . S
C1205 C1200 1.425 . S
C1205 C1202 1.409 . S
C1205 C1203 1.415 . S
C1206 H1196 0.930 . S
C1206 C1204 1.419 . S
C1206 C1207 1.362 . S
C1207 H1197 0.930 . S
C1207 C1200 1.409 . S
C1207 C1206 1.362 . S
H1208 C1214 0.930 . S
H1209 C1217 0.930 . S
H1210 C1218 0.930 . S
H1211 C1219 0.930 . S
H1212 C1222 0.930 . S
H1213 C1223 0.930 . S
C1214 H1208 0.930 . S
C1214 C1215 1.355 . S
C1214 C1216 1.415 . S
C1215 C1214 1.355 . S
C1215 C1217 1.419 . S
C1216 C1214 1.415 . S
C1216 C1221 1.425 . S
C1216 C1223 1.409 . S
C1217 H1209 0.930 . S
C1217 C1215 1.419 . S
C1217 C1218 1.362 . S
C1218 H1210 0.930 . S
C1218 C1217 1.362 . S
C1218 C1221 1.409 . S
C1219 H1211 0.930 . S
C1219 C1220 1.355 . S
C1219 C1221 1.415 . S
C1220 C1219 1.355 . S
C1220 C1222 1.419 . S
C1221 C1216 1.425 . S
C1221 C1218 1.409 . S
C1221 C1219 1.415 . S
C1222 H1212 0.930 . S
C1222 C1220 1.419 . S
C1222 C1223 1.362 . S
C1223 H1213 0.930 . S
C1223 C1216 1.409 . S
C1223 C1222 1.362 . S
H1224 C1230 0.930 . S
H1225 C1233 0.930 . S
H1226 C1234 0.930 . S
H1227 C1235 0.930 . S
H1228 C1238 0.930 . S
H1229 C1239 0.930 . S
C1230 H1224 0.930 . S
C1230 C1231 1.355 . S
C1230 C1232 1.415 . S
C1231 C1230 1.355 . S
C1231 C1233 1.419 . S
C1232 C1230 1.415 . S
C1232 C1237 1.425 . S
C1232 C1239 1.409 . S
C1233 H1225 0.930 . S
C1233 C1231 1.419 . S
C1233 C1234 1.362 . S
C1234 H1226 0.930 . S
C1234 C1233 1.362 . S
C1234 C1237 1.409 . S
C1235 H1227 0.930 . S
C1235 C1236 1.355 . S
C1235 C1237 1.415 . S
C1236 C1235 1.355 . S
C1236 C1238 1.419 . S
C1237 C1232 1.425 . S
C1237 C1234 1.409 . S
C1237 C1235 1.415 . S
C1238 H1228 0.930 . S
C1238 C1236 1.419 . S
C1238 C1239 1.362 . S
C1239 H1229 0.930 . S
C1239 C1232 1.409 . S
C1239 C1238 1.362 . S
H1240 C1246 0.930 . S
H1241 C1249 0.930 . S
H1242 C1250 0.930 1_565 S
H1243 C1251 0.930 1_565 S
H1244 C1254 0.930 . S
H1245 C1255 0.930 . S
C1246 H1240 0.930 . S
C1246 C1247 1.355 . S
C1246 C1248 1.415 . S
C1247 C1246 1.355 . S
C1247 C1249 1.419 . S
C1248 C1246 1.415 . S
C1248 C1253 1.425 . S
C1248 C1255 1.409 . S
C1249 H1241 0.930 . S
C1249 C1247 1.419 . S
C1249 C1250 1.362 . S
C1250 H1242 0.930 1_545 S
C1250 C1249 1.362 . S
C1250 C1253 1.409 . S
C1251 H1243 0.930 1_545 S
C1251 C1252 1.355 . S
C1251 C1253 1.415 . S
C1252 C1251 1.355 . S
C1252 C1254 1.419 . S
C1253 C1248 1.425 . S
C1253 C1250 1.409 . S
C1253 C1251 1.415 . S
C1254 H1244 0.930 . S
C1254 C1252 1.419 . S
C1254 C1255 1.362 . S
C1255 H1245 0.930 . S
C1255 C1248 1.409 . S
C1255 C1254 1.362 . S
H1256 C1262 0.930 . S
H1257 C1265 0.930 . S
H1258 C1266 0.930 . S
H1259 C1267 0.930 . S
H1260 C1270 0.930 . S
H1261 C1271 0.930 . S
C1262 H1256 0.930 . S
C1262 C1263 1.355 . S
C1262 C1264 1.415 . S
C1263 C1262 1.355 . S
C1263 C1265 1.419 . S
C1264 C1262 1.415 . S
C1264 C1269 1.425 . S
C1264 C1271 1.409 . S
C1265 H1257 0.930 . S
C1265 C1263 1.419 . S
C1265 C1266 1.362 . S
C1266 H1258 0.930 . S
C1266 C1265 1.362 . S
C1266 C1269 1.409 . S
C1267 H1259 0.930 . S
C1267 C1268 1.355 . S
C1267 C1269 1.415 . S
C1268 C1267 1.355 . S
C1268 C1270 1.419 . S
C1269 C1264 1.425 . S
C1269 C1266 1.409 . S
C1269 C1267 1.415 . S
C1270 H1260 0.930 . S
C1270 C1268 1.419 . S
C1270 C1271 1.362 . S
C1271 H1261 0.930 . S
C1271 C1264 1.409 . S
C1271 C1270 1.362 . S
H1272 C1278 0.930 . S
H1273 C1281 0.930 . S
H1274 C1282 0.930 . S
H1275 C1283 0.930 . S
H1276 C1286 0.930 . S
H1277 C1287 0.930 . S
C1278 H1272 0.930 . S
C1278 C1279 1.355 . S
C1278 C1280 1.415 . S
C1279 C1278 1.355 . S
C1279 C1281 1.419 . S
C1280 C1278 1.415 . S
C1280 C1285 1.425 . S
C1280 C1287 1.409 1_554 S
C1281 H1273 0.930 . S
C1281 C1279 1.419 . S
C1281 C1282 1.362 . S
C1282 H1274 0.930 . S
C1282 C1281 1.362 . S
C1282 C1285 1.409 . S
C1283 H1275 0.930 . S
C1283 C1284 1.355 . S
C1283 C1285 1.415 . S
C1284 C1283 1.355 . S
C1284 C1286 1.419 1_554 S
C1285 C1280 1.425 . S
C1285 C1282 1.409 . S
C1285 C1283 1.415 . S
C1286 H1276 0.930 . S
C1286 C1284 1.419 1_556 S
C1286 C1287 1.362 . S
C1287 H1277 0.930 . S
C1287 C1280 1.409 1_556 S
C1287 C1286 1.362 . S
H1288 C1294 0.930 . S
H1289 C1297 0.930 . S
H1290 C1298 0.930 1_556 S
H1291 C1299 0.930 1_556 S
H1292 C1302 0.930 . S
H1293 C1303 0.930 . S
C1294 H1288 0.930 . S
C1294 C1295 1.355 . S
C1294 C1296 1.415 . S
C1295 C1294 1.355 . S
C1295 C1297 1.419 . S
C1296 C1294 1.415 . S
C1296 C1301 1.425 . S
C1296 C1303 1.409 . S
C1297 H1289 0.930 . S
C1297 C1295 1.419 . S
C1297 C1298 1.362 . S
C1298 H1290 0.930 1_554 S
C1298 C1297 1.362 . S
C1298 C1301 1.409 . S
C1299 H1291 0.930 1_554 S
C1299 C1300 1.355 . S
C1299 C1301 1.415 . S
C1300 C1299 1.355 . S
C1300 C1302 1.419 . S
C1301 C1296 1.425 . S
C1301 C1298 1.409 . S
C1301 C1299 1.415 . S
C1302 H1292 0.930 . S
C1302 C1300 1.419 . S
C1302 C1303 1.362 . S
C1303 H1293 0.930 . S
C1303 C1296 1.409 . S
C1303 C1302 1.362 . S
H1304 C1310 0.930 . S
H1305 C1313 0.930 . S
H1306 C1314 0.930 . S
H1307 C1315 0.930 . S
H1308 C1318 0.930 . S
H1309 C1319 0.930 . S
C1310 H1304 0.930 . S
C1310 C1311 1.355 . S
C1310 C1312 1.415 . S
C1311 C1310 1.355 . S
C1311 C1313 1.419 . S
C1312 C1310 1.415 . S
C1312 C1317 1.425 . S
C1312 C1319 1.409 . S
C1313 H1305 0.930 . S
C1313 C1311 1.419 . S
C1313 C1314 1.362 . S
C1314 H1306 0.930 . S
C1314 C1313 1.362 . S
C1314 C1317 1.409 . S
C1315 H1307 0.930 . S
C1315 C1316 1.355 . S
C1315 C1317 1.415 . S
C1316 C1315 1.355 . S
C1316 C1318 1.419 . S
C1317 C1312 1.425 . S
C1317 C1314 1.409 . S
C1317 C1315 1.415 . S
C1318 H1308 0.930 . S
C1318 C1316 1.419 . S
C1318 C1319 1.362 . S
C1319 H1309 0.930 . S
C1319 C1312 1.409 . S
C1319 C1318 1.362 . S
H1320 C1326 0.930 . S
H1321 C1329 0.930 . S
H1322 C1330 0.930 . S
H1323 C1331 0.930 . S
H1324 C1334 0.930 . S
H1325 C1335 0.930 . S
C1326 H1320 0.930 . S
C1326 C1327 1.355 . S
C1326 C1328 1.415 . S
C1327 C1326 1.355 . S
C1327 C1329 1.419 . S
C1328 C1326 1.415 . S
C1328 C1333 1.425 . S
C1328 C1335 1.409 . S
C1329 H1321 0.930 . S
C1329 C1327 1.419 . S
C1329 C1330 1.362 . S
C1330 H1322 0.930 . S
C1330 C1329 1.362 . S
C1330 C1333 1.409 . S
C1331 H1323 0.930 . S
C1331 C1332 1.355 . S
C1331 C1333 1.415 . S
C1332 C1331 1.355 . S
C1332 C1334 1.419 . S
C1333 C1328 1.425 . S
C1333 C1330 1.409 . S
C1333 C1331 1.415 . S
C1334 H1324 0.930 . S
C1334 C1332 1.419 . S
C1334 C1335 1.362 . S
C1335 H1325 0.930 . S
C1335 C1328 1.409 . S
C1335 C1334 1.362 . S
H1336 C1342 0.930 . S
H1337 C1345 0.930 . S
H1338 C1346 0.930 . S
H1339 C1347 0.930 . S
H1340 C1350 0.930 . S
H1341 C1351 0.930 . S
C1342 H1336 0.930 . S
C1342 C1343 1.355 . S
C1342 C1344 1.415 . S
C1343 C1342 1.355 . S
C1343 C1345 1.419 . S
C1344 C1342 1.415 . S
C1344 C1349 1.425 . S
C1344 C1351 1.409 . S
C1345 H1337 0.930 . S
C1345 C1343 1.419 . S
C1345 C1346 1.362 . S
C1346 H1338 0.930 . S
C1346 C1345 1.362 . S
C1346 C1349 1.409 . S
C1347 H1339 0.930 . S
C1347 C1348 1.355 . S
C1347 C1349 1.415 . S
C1348 C1347 1.355 . S
C1348 C1350 1.419 . S
C1349 C1344 1.425 . S
C1349 C1346 1.409 . S
C1349 C1347 1.415 . S
C1350 H1340 0.930 . S
C1350 C1348 1.419 . S
C1350 C1351 1.362 . S
C1351 H1341 0.930 . S
C1351 C1344 1.409 . S
C1351 C1350 1.362 . S
H1352 C1358 0.930 . S
H1353 C1361 0.930 . S
H1354 C1362 0.930 . S
H1355 C1363 0.930 . S
H1356 C1366 0.930 . S
H1357 C1367 0.930 . S
C1358 H1352 0.930 . S
C1358 C1359 1.355 . S
C1358 C1360 1.415 . S
C1359 C1358 1.355 . S
C1359 C1361 1.419 . S
C1360 C1358 1.415 . S
C1360 C1365 1.425 . S
C1360 C1367 1.409 . S
C1361 H1353 0.930 . S
C1361 C1359 1.419 . S
C1361 C1362 1.362 . S
C1362 H1354 0.930 . S
C1362 C1361 1.362 . S
C1362 C1365 1.409 . S
C1363 H1355 0.930 . S
C1363 C1364 1.355 . S
C1363 C1365 1.415 . S
C1364 C1363 1.355 . S
C1364 C1366 1.419 . S
C1365 C1360 1.425 . S
C1365 C1362 1.409 . S
C1365 C1363 1.415 . S
C1366 H1356 0.930 . S
C1366 C1364 1.419 . S
C1366 C1367 1.362 . S
C1367 H1357 0.930 . S
C1367 C1360 1.409 . S
C1367 C1366 1.362 . S
H1368 C1374 0.930 . S
H1369 C1377 0.930 . S
H1370 C1378 0.930 . S
H1371 C1379 0.930 . S
H1372 C1382 0.930 . S
H1373 C1383 0.930 . S
C1374 H1368 0.930 . S
C1374 C1375 1.355 . S
C1374 C1376 1.415 . S
C1375 C1374 1.355 . S
C1375 C1377 1.419 . S
C1376 C1374 1.415 . S
C1376 C1381 1.425 . S
C1376 C1383 1.409 . S
C1377 H1369 0.930 . S
C1377 C1375 1.419 . S
C1377 C1378 1.362 . S
C1378 H1370 0.930 . S
C1378 C1377 1.362 . S
C1378 C1381 1.409 . S
C1379 H1371 0.930 . S
C1379 C1380 1.355 . S
C1379 C1381 1.415 . S
C1380 C1379 1.355 . S
C1380 C1382 1.419 . S
C1381 C1376 1.425 . S
C1381 C1378 1.409 . S
C1381 C1379 1.415 . S
C1382 H1372 0.930 . S
C1382 C1380 1.419 . S
C1382 C1383 1.362 . S
C1383 H1373 0.930 . S
C1383 C1376 1.409 . S
C1383 C1382 1.362 . S
H1384 C1390 0.930 . S
H1385 C1393 0.930 . S
H1386 C1394 0.930 . S
H1387 C1395 0.930 . S
H1388 C1398 0.930 . S
H1389 C1399 0.930 . S
C1390 H1384 0.930 . S
C1390 C1391 1.355 . S
C1390 C1392 1.415 . S
C1391 C1390 1.355 . S
C1391 C1393 1.419 . S
C1392 C1390 1.415 . S
C1392 C1397 1.425 . S
C1392 C1399 1.409 . S
C1393 H1385 0.930 . S
C1393 C1391 1.419 . S
C1393 C1394 1.362 . S
C1394 H1386 0.930 . S
C1394 C1393 1.362 . S
C1394 C1397 1.409 . S
C1395 H1387 0.930 . S
C1395 C1396 1.355 . S
C1395 C1397 1.415 . S
C1396 C1395 1.355 . S
C1396 C1398 1.419 . S
C1397 C1392 1.425 . S
C1397 C1394 1.409 . S
C1397 C1395 1.415 . S
C1398 H1388 0.930 . S
C1398 C1396 1.419 . S
C1398 C1399 1.362 . S
C1399 H1389 0.930 . S
C1399 C1392 1.409 . S
C1399 C1398 1.362 . S
H1400 C1406 0.930 . S
H1401 C1409 0.930 . S
H1402 C1410 0.930 . S
H1403 C1411 0.930 . S
H1404 C1414 0.930 . S
H1405 C1415 0.930 . S
C1406 H1400 0.930 . S
C1406 C1407 1.355 . S
C1406 C1408 1.415 . S
C1407 C1406 1.355 . S
C1407 C1409 1.419 . S
C1408 C1406 1.415 . S
C1408 C1413 1.425 . S
C1408 C1415 1.409 . S
C1409 H1401 0.930 . S
C1409 C1407 1.419 . S
C1409 C1410 1.362 . S
C1410 H1402 0.930 . S
C1410 C1409 1.362 . S
C1410 C1413 1.409 . S
C1411 H1403 0.930 . S
C1411 C1412 1.355 . S
C1411 C1413 1.415 . S
C1412 C1411 1.355 . S
C1412 C1414 1.419 . S
C1413 C1408 1.425 . S
C1413 C1410 1.409 . S
C1413 C1411 1.415 . S
C1414 H1404 0.930 . S
C1414 C1412 1.419 . S
C1414 C1415 1.362 . S
C1415 H1405 0.930 . S
C1415 C1408 1.409 . S
C1415 C1414 1.362 . S
H1416 C1422 0.930 . S
H1417 C1425 0.930 . S
H1418 C1426 0.930 . S
H1419 C1427 0.930 . S
H1420 C1430 0.930 . S
H1421 C1431 0.930 . S
C1422 H1416 0.930 . S
C1422 C1423 1.355 . S
C1422 C1424 1.415 . S
C1423 C1422 1.355 . S
C1423 C1425 1.419 . S
C1424 C1422 1.415 . S
C1424 C1429 1.425 . S
C1424 C1431 1.409 . S
C1425 H1417 0.930 . S
C1425 C1423 1.419 . S
C1425 C1426 1.362 . S
C1426 H1418 0.930 . S
C1426 C1425 1.362 . S
C1426 C1429 1.409 . S
C1427 H1419 0.930 . S
C1427 C1428 1.355 . S
C1427 C1429 1.415 . S
C1428 C1427 1.355 . S
C1428 C1430 1.419 . S
C1429 C1424 1.425 . S
C1429 C1426 1.409 . S
C1429 C1427 1.415 . S
C1430 H1420 0.930 . S
C1430 C1428 1.419 . S
C1430 C1431 1.362 . S
C1431 H1421 0.930 . S
C1431 C1424 1.409 . S
C1431 C1430 1.362 . S
H1432 C1438 0.930 . S
H1433 C1441 0.930 . S
H1434 C1442 0.932 . S
H1435 C1443 0.930 . S
H1436 C1446 0.930 . S
H1437 C1447 0.930 . S
C1438 H1432 0.930 . S
C1438 C1439 1.355 . S
C1438 C1440 1.415 . S
C1439 C1438 1.355 . S
C1439 C1441 1.419 1_455 S
C1440 C1438 1.415 . S
C1440 C1445 1.416 1_455 S
C1440 C1447 1.409 . S
C1441 H1433 0.930 . S
C1441 C1439 1.419 1_655 S
C1441 C1442 1.362 . S
C1442 H1434 0.932 . S
C1442 C1441 1.362 . S
C1442 C1445 1.408 . S
C1443 H1435 0.930 . S
C1443 C1444 1.358 1_655 S
C1443 C1445 1.425 1_554 S
C1444 C1443 1.358 1_455 S
C1444 C1446 1.411 1_554 S
C1445 C1440 1.416 1_655 S
C1445 C1442 1.408 . S
C1445 C1443 1.425 1_556 S
C1446 H1436 0.930 . S
C1446 C1444 1.411 1_556 S
C1446 C1447 1.362 . S
C1447 H1437 0.930 . S
C1447 C1440 1.409 . S
C1447 C1446 1.362 . S
H1448 C1454 0.930 . S
H1449 C1457 0.930 . S
H1450 C1458 0.930 . S
H1451 C1459 0.930 . S
H1452 C1462 0.930 . S
H1453 C1463 0.930 . S
C1454 H1448 0.930 . S
C1454 C1455 1.355 . S
C1454 C1456 1.415 . S
C1455 C1454 1.355 . S
C1455 C1457 1.419 . S
C1456 C1454 1.415 . S
C1456 C1461 1.425 . S
C1456 C1463 1.409 . S
C1457 H1449 0.930 . S
C1457 C1455 1.419 . S
C1457 C1458 1.362 . S
C1458 H1450 0.930 . S
C1458 C1457 1.362 . S
C1458 C1461 1.409 . S
C1459 H1451 0.930 . S
C1459 C1460 1.355 . S
C1459 C1461 1.415 . S
C1460 C1459 1.355 . S
C1460 C1462 1.419 . S
C1461 C1456 1.425 . S
C1461 C1458 1.409 . S
C1461 C1459 1.415 . S
C1462 H1452 0.930 . S
C1462 C1460 1.419 . S
C1462 C1463 1.362 . S
C1463 H1453 0.930 . S
C1463 C1456 1.409 . S
C1463 C1462 1.362 . S
H1464 C1470 0.930 . S
H1465 C1473 0.930 . S
H1466 C1474 0.930 . S
H1467 C1475 0.930 . S
H1468 C1478 0.930 . S
H1469 C1479 0.930 . S
C1470 H1464 0.930 . S
C1470 C1471 1.355 . S
C1470 C1472 1.415 . S
C1471 C1470 1.355 . S
C1471 C1473 1.419 . S
C1472 C1470 1.415 . S
C1472 C1477 1.425 . S
C1472 C1479 1.409 . S
C1473 H1465 0.930 . S
C1473 C1471 1.419 . S
C1473 C1474 1.362 . S
C1474 H1466 0.930 . S
C1474 C1473 1.362 . S
C1474 C1477 1.409 . S
C1475 H1467 0.930 . S
C1475 C1476 1.355 . S
C1475 C1477 1.415 . S
C1476 C1475 1.355 . S
C1476 C1478 1.419 . S
C1477 C1472 1.425 . S
C1477 C1474 1.409 . S
C1477 C1475 1.415 . S
C1478 H1468 0.930 . S
C1478 C1476 1.419 . S
C1478 C1479 1.362 . S
C1479 H1469 0.930 . S
C1479 C1472 1.409 . S
C1479 C1478 1.362 . S
H1480 C1486 0.930 . S
H1481 C1489 0.930 . S
H1482 C1490 0.930 . S
H1483 C1491 0.930 . S
H1484 C1494 0.930 . S
H1485 C1495 0.930 . S
C1486 H1480 0.930 . S
C1486 C1487 1.355 . S
C1486 C1488 1.415 . S
C1487 C1486 1.355 . S
C1487 C1489 1.419 . S
C1488 C1486 1.415 . S
C1488 C1493 1.425 . S
C1488 C1495 1.409 . S
C1489 H1481 0.930 . S
C1489 C1487 1.419 . S
C1489 C1490 1.362 . S
C1490 H1482 0.930 . S
C1490 C1489 1.362 . S
C1490 C1493 1.409 . S
C1491 H1483 0.930 . S
C1491 C1492 1.355 . S
C1491 C1493 1.415 . S
C1492 C1491 1.355 . S
C1492 C1494 1.419 . S
C1493 C1488 1.425 . S
C1493 C1490 1.409 . S
C1493 C1491 1.415 . S
C1494 H1484 0.930 . S
C1494 C1492 1.419 . S
C1494 C1495 1.362 . S
C1495 H1485 0.930 . S
C1495 C1488 1.409 . S
C1495 C1494 1.362 . S
H1496 C1502 0.930 . S
H1497 C1505 0.930 . S
H1498 C1506 0.930 . S
H1499 C1507 0.930 . S
H1500 C1510 0.930 . S
H1501 C1511 0.930 . S
C1502 H1496 0.930 . S
C1502 C1503 1.355 1_455 S
C1502 C1504 1.415 . S
C1503 C1502 1.355 1_655 S
C1503 C1505 1.419 . S
C1504 C1502 1.415 . S
C1504 C1509 1.425 1_455 S
C1504 C1511 1.409 . S
C1505 H1497 0.930 . S
C1505 C1503 1.419 . S
C1505 C1506 1.362 . S
C1506 H1498 0.930 . S
C1506 C1505 1.362 . S
C1506 C1509 1.409 . S
C1507 H1499 0.930 . S
C1507 C1508 1.355 1_655 S
C1507 C1509 1.415 . S
C1508 C1507 1.355 1_455 S
C1508 C1510 1.419 . S
C1509 C1504 1.425 1_655 S
C1509 C1506 1.409 . S
C1509 C1507 1.415 . S
C1510 H1500 0.930 . S
C1510 C1508 1.419 . S
C1510 C1511 1.362 . S
C1511 H1501 0.930 . S
C1511 C1504 1.409 . S
C1511 C1510 1.362 . S
H1512 C1518 0.930 . S
H1513 C1521 0.930 . S
H1514 C1522 0.930 . S
H1515 C1523 0.930 . S
H1516 C1526 0.930 . S
H1517 C1527 0.930 . S
C1518 H1512 0.930 . S
C1518 C1519 1.355 . S
C1518 C1520 1.415 . S
C1519 C1518 1.355 . S
C1519 C1521 1.419 . S
C1520 C1518 1.415 . S
C1520 C1525 1.425 . S
C1520 C1527 1.409 . S
C1521 H1513 0.930 . S
C1521 C1519 1.419 . S
C1521 C1522 1.362 . S
C1522 H1514 0.930 . S
C1522 C1521 1.362 . S
C1522 C1525 1.409 . S
C1523 H1515 0.930 . S
C1523 C1524 1.355 . S
C1523 C1525 1.415 . S
C1524 C1523 1.355 . S
C1524 C1526 1.419 . S
C1525 C1520 1.425 . S
C1525 C1522 1.409 . S
C1525 C1523 1.415 . S
C1526 H1516 0.930 . S
C1526 C1524 1.419 . S
C1526 C1527 1.362 . S
C1527 H1517 0.930 . S
C1527 C1520 1.409 . S
C1527 C1526 1.362 . S
H1528 C1534 0.930 . S
H1529 C1537 0.930 . S
H1530 C1538 0.930 . S
H1531 C1539 0.930 . S
H1532 C1542 0.930 . S
H1533 C1543 0.930 . S
C1534 H1528 0.930 . S
C1534 C1535 1.355 . S
C1534 C1536 1.415 . S
C1535 C1534 1.355 . S
C1535 C1537 1.419 . S
C1536 C1534 1.415 . S
C1536 C1541 1.425 . S
C1536 C1543 1.409 . S
C1537 H1529 0.930 . S
C1537 C1535 1.419 . S
C1537 C1538 1.362 . S
C1538 H1530 0.930 . S
C1538 C1537 1.362 . S
C1538 C1541 1.409 . S
C1539 H1531 0.930 . S
C1539 C1540 1.355 . S
C1539 C1541 1.415 . S
C1540 C1539 1.355 . S
C1540 C1542 1.419 . S
C1541 C1536 1.425 . S
C1541 C1538 1.409 . S
C1541 C1539 1.415 . S
C1542 H1532 0.930 . S
C1542 C1540 1.419 . S
C1542 C1543 1.362 . S
C1543 H1533 0.930 . S
C1543 C1536 1.409 . S
C1543 C1542 1.362 . S
H1544 C1550 0.930 . S
H1545 C1553 0.930 . S
H1546 C1554 0.930 . S
H1547 C1555 0.930 . S
H1548 C1558 0.930 . S
H1549 C1559 0.930 . S
C1550 H1544 0.930 . S
C1550 C1551 1.355 . S
C1550 C1552 1.415 . S
C1551 C1550 1.355 . S
C1551 C1553 1.419 . S
C1552 C1550 1.415 . S
C1552 C1557 1.425 . S
C1552 C1559 1.409 . S
C1553 H1545 0.930 . S
C1553 C1551 1.419 . S
C1553 C1554 1.362 . S
C1554 H1546 0.930 . S
C1554 C1553 1.362 . S
C1554 C1557 1.409 . S
C1555 H1547 0.930 . S
C1555 C1556 1.355 . S
C1555 C1557 1.415 . S
C1556 C1555 1.355 . S
C1556 C1558 1.419 . S
C1557 C1552 1.425 . S
C1557 C1554 1.409 . S
C1557 C1555 1.415 . S
C1558 H1548 0.930 . S
C1558 C1556 1.419 . S
C1558 C1559 1.362 . S
C1559 H1549 0.930 . S
C1559 C1552 1.409 . S
C1559 C1558 1.362 . S
H1560 C1566 0.930 . S
H1561 C1569 0.930 . S
H1562 C1570 0.930 . S
H1563 C1571 0.930 . S
H1564 C1574 0.930 . S
H1565 C1575 0.930 . S
C1566 H1560 0.930 . S
C1566 C1567 1.355 . S
C1566 C1568 1.415 . S
C1567 C1566 1.355 . S
C1567 C1569 1.419 . S
C1568 C1566 1.415 . S
C1568 C1573 1.425 . S
C1568 C1575 1.409 . S
C1569 H1561 0.930 . S
C1569 C1567 1.419 . S
C1569 C1570 1.362 . S
C1570 H1562 0.930 . S
C1570 C1569 1.362 . S
C1570 C1573 1.409 . S
C1571 H1563 0.930 . S
C1571 C1572 1.355 . S
C1571 C1573 1.415 . S
C1572 C1571 1.355 . S
C1572 C1574 1.419 . S
C1573 C1568 1.425 . S
C1573 C1570 1.409 . S
C1573 C1571 1.415 . S
C1574 H1564 0.930 . S
C1574 C1572 1.419 . S
C1574 C1575 1.362 . S
C1575 H1565 0.930 . S
C1575 C1568 1.409 . S
C1575 C1574 1.362 . S
H1576 C1582 0.930 . S
H1577 C1585 0.930 . S
H1578 C1586 0.930 . S
H1579 C1587 0.930 . S
H1580 C1590 0.930 . S
H1581 C1591 0.930 . S
C1582 H1576 0.930 . S
C1582 C1583 1.355 . S
C1582 C1584 1.415 . S
C1583 C1582 1.355 . S
C1583 C1585 1.419 . S
C1584 C1582 1.415 . S
C1584 C1589 1.425 . S
C1584 C1591 1.409 . S
C1585 H1577 0.930 . S
C1585 C1583 1.419 . S
C1585 C1586 1.362 . S
C1586 H1578 0.930 . S
C1586 C1585 1.362 . S
C1586 C1589 1.409 . S
C1587 H1579 0.930 . S
C1587 C1588 1.355 . S
C1587 C1589 1.415 . S
C1588 C1587 1.355 . S
C1588 C1590 1.419 . S
C1589 C1584 1.425 . S
C1589 C1586 1.409 . S
C1589 C1587 1.415 . S
C1590 H1580 0.930 . S
C1590 C1588 1.419 . S
C1590 C1591 1.362 . S
C1591 H1581 0.930 . S
C1591 C1584 1.409 . S
C1591 C1590 1.362 . S
H1592 C1598 0.930 . S
H1593 C1601 0.930 . S
H1594 C1602 0.930 . S
H1595 C1603 0.930 . S
H1596 C1606 0.930 . S
H1597 C1607 0.930 . S
C1598 H1592 0.930 . S
C1598 C1599 1.355 . S
C1598 C1600 1.415 . S
C1599 C1598 1.355 . S
C1599 C1601 1.419 . S
C1600 C1598 1.415 . S
C1600 C1605 1.425 . S
C1600 C1607 1.409 . S
C1601 H1593 0.930 . S
C1601 C1599 1.419 . S
C1601 C1602 1.362 . S
C1602 H1594 0.930 . S
C1602 C1601 1.362 . S
C1602 C1605 1.409 . S
C1603 H1595 0.930 . S
C1603 C1604 1.355 . S
C1603 C1605 1.415 . S
C1604 C1603 1.355 . S
C1604 C1606 1.419 . S
C1605 C1600 1.425 . S
C1605 C1602 1.409 . S
C1605 C1603 1.415 . S
C1606 H1596 0.930 . S
C1606 C1604 1.419 . S
C1606 C1607 1.362 . S
C1607 H1597 0.930 . S
C1607 C1600 1.409 . S
C1607 C1606 1.362 . S
H1608 C1614 0.930 . S
H1609 C1617 0.930 . S
H1610 C1618 0.930 . S
H1611 C1619 0.930 . S
H1612 C1622 0.930 . S
H1613 C1623 0.930 . S
C1614 H1608 0.930 . S
C1614 C1615 1.355 . S
C1614 C1616 1.415 . S
C1615 C1614 1.355 . S
C1615 C1617 1.419 . S
C1616 C1614 1.415 . S
C1616 C1621 1.425 . S
C1616 C1623 1.409 . S
C1617 H1609 0.930 . S
C1617 C1615 1.419 . S
C1617 C1618 1.362 . S
C1618 H1610 0.930 . S
C1618 C1617 1.362 . S
C1618 C1621 1.409 . S
C1619 H1611 0.930 . S
C1619 C1620 1.355 . S
C1619 C1621 1.415 . S
C1620 C1619 1.355 . S
C1620 C1622 1.419 . S
C1621 C1616 1.425 . S
C1621 C1618 1.409 . S
C1621 C1619 1.415 . S
C1622 H1612 0.930 . S
C1622 C1620 1.419 . S
C1622 C1623 1.362 . S
C1623 H1613 0.930 . S
C1623 C1616 1.409 . S
C1623 C1622 1.362 . S
H1624 C1630 0.930 . S
H1625 C1633 0.930 . S
H1626 C1634 0.930 . S
H1627 C1635 0.930 . S
H1628 C1638 0.930 . S
H1629 C1639 0.930 . S
C1630 H1624 0.930 . S
C1630 C1631 1.355 . S
C1630 C1632 1.415 . S
C1631 C1630 1.355 . S
C1631 C1633 1.419 . S
C1632 C1630 1.415 . S
C1632 C1637 1.425 . S
C1632 C1639 1.409 . S
C1633 H1625 0.930 . S
C1633 C1631 1.419 . S
C1633 C1634 1.362 . S
C1634 H1626 0.930 . S
C1634 C1633 1.362 . S
C1634 C1637 1.409 . S
C1635 H1627 0.930 . S
C1635 C1636 1.355 . S
C1635 C1637 1.415 . S
C1636 C1635 1.355 . S
C1636 C1638 1.419 . S
C1637 C1632 1.425 . S
C1637 C1634 1.409 . S
C1637 C1635 1.415 . S
C1638 H1628 0.930 . S
C1638 C1636 1.419 . S
C1638 C1639 1.362 . S
C1639 H1629 0.930 . S
C1639 C1632 1.409 . S
C1639 C1638 1.362 . S
H1640 C1646 0.930 . S
H1641 C1649 0.930 . S
H1642 C1650 0.930 . S
H1643 C1651 0.930 . S
H1644 C1654 0.930 . S
H1645 C1655 0.930 . S
C1646 H1640 0.930 . S
C1646 C1647 1.355 . S
C1646 C1648 1.415 . S
C1647 C1646 1.355 . S
C1647 C1649 1.419 . S
C1648 C1646 1.415 . S
C1648 C1653 1.425 . S
C1648 C1655 1.409 . S
C1649 H1641 0.930 . S
C1649 C1647 1.419 . S
C1649 C1650 1.362 . S
C1650 H1642 0.930 . S
C1650 C1649 1.362 . S
C1650 C1653 1.409 . S
C1651 H1643 0.930 . S
C1651 C1652 1.355 . S
C1651 C1653 1.415 . S
C1652 C1651 1.355 . S
C1652 C1654 1.419 . S
C1653 C1648 1.425 . S
C1653 C1650 1.409 . S
C1653 C1651 1.415 . S
C1654 H1644 0.930 . S
C1654 C1652 1.419 . S
C1654 C1655 1.362 . S
C1655 H1645 0.930 . S
C1655 C1648 1.409 . S
C1655 C1654 1.362 . S
H1656 C1662 0.930 . S
H1657 C1665 0.930 . S
H1658 C1666 0.930 . S
H1659 C1667 0.930 . S
H1660 C1670 0.930 . S
H1661 C1671 0.930 . S
C1662 H1656 0.930 . S
C1662 C1663 1.355 . S
C1662 C1664 1.415 . S
C1663 C1662 1.355 . S
C1663 C1665 1.419 . S
C1664 C1662 1.415 . S
C1664 C1669 1.425 . S
C1664 C1671 1.409 . S
C1665 H1657 0.930 . S
C1665 C1663 1.419 . S
C1665 C1666 1.362 . S
C1666 H1658 0.930 . S
C1666 C1665 1.362 . S
C1666 C1669 1.409 . S
C1667 H1659 0.930 . S
C1667 C1668 1.355 . S
C1667 C1669 1.415 . S
C1668 C1667 1.355 . S
C1668 C1670 1.419 . S
C1669 C1664 1.425 . S
C1669 C1666 1.409 . S
C1669 C1667 1.415 . S
C1670 H1660 0.930 . S
C1670 C1668 1.419 . S
C1670 C1671 1.362 . S
C1671 H1661 0.930 . S
C1671 C1664 1.409 . S
C1671 C1670 1.362 . S
H1672 C1678 0.930 . S
H1673 C1681 0.930 . S
H1674 C1682 0.930 . S
H1675 C1683 0.930 . S
H1676 C1686 0.930 . S
H1677 C1687 0.930 . S
C1678 H1672 0.930 . S
C1678 C1679 1.355 . S
C1678 C1680 1.415 . S
C1679 C1678 1.355 . S
C1679 C1681 1.419 . S
C1680 C1678 1.415 . S
C1680 C1685 1.425 . S
C1680 C1687 1.409 . S
C1681 H1673 0.930 . S
C1681 C1679 1.419 . S
C1681 C1682 1.362 . S
C1682 H1674 0.930 . S
C1682 C1681 1.362 . S
C1682 C1685 1.409 . S
C1683 H1675 0.930 . S
C1683 C1684 1.355 . S
C1683 C1685 1.415 . S
C1684 C1683 1.355 . S
C1684 C1686 1.419 . S
C1685 C1680 1.425 . S
C1685 C1682 1.409 . S
C1685 C1683 1.415 . S
C1686 H1676 0.930 . S
C1686 C1684 1.419 . S
C1686 C1687 1.362 . S
C1687 H1677 0.930 . S
C1687 C1680 1.409 . S
C1687 C1686 1.362 . S
H1688 C1694 0.930 . S
H1689 C1697 0.930 . S
H1690 C1698 0.930 . S
H1691 C1699 0.930 . S
H1692 C1702 0.930 . S
H1693 C1703 0.930 . S
C1694 H1688 0.930 . S
C1694 C1695 1.355 . S
C1694 C1696 1.415 . S
C1695 C1694 1.355 . S
C1695 C1697 1.419 . S
C1696 C1694 1.415 . S
C1696 C1701 1.425 . S
C1696 C1703 1.409 . S
C1697 H1689 0.930 . S
C1697 C1695 1.419 . S
C1697 C1698 1.362 . S
C1698 H1690 0.930 . S
C1698 C1697 1.362 . S
C1698 C1701 1.409 . S
C1699 H1691 0.930 . S
C1699 C1700 1.355 . S
C1699 C1701 1.415 . S
C1700 C1699 1.355 . S
C1700 C1702 1.419 . S
C1701 C1696 1.425 . S
C1701 C1698 1.409 . S
C1701 C1699 1.415 . S
C1702 H1692 0.930 . S
C1702 C1700 1.419 . S
C1702 C1703 1.362 . S
C1703 H1693 0.930 . S
C1703 C1696 1.409 . S
C1703 C1702 1.362 . S
H1704 C1710 0.930 . S
H1705 C1713 0.930 . S
H1706 C1714 0.930 1_556 S
H1707 C1715 0.941 . S
H1708 C1718 0.930 . S
H1709 C1719 0.930 . S
C1710 H1704 0.930 . S
C1710 C1711 1.355 . S
C1710 C1712 1.415 . S
C1711 C1710 1.355 . S
C1711 C1713 1.419 . S
C1712 C1710 1.415 . S
C1712 C1717 1.425 . S
C1712 C1719 1.409 . S
C1713 H1705 0.930 . S
C1713 C1711 1.419 . S
C1713 C1714 1.362 . S
C1714 H1706 0.930 1_554 S
C1714 C1713 1.362 . S
C1714 C1717 1.409 . S
C1715 H1707 0.941 . S
C1715 C1716 1.355 . S
C1715 C1717 1.415 . S
C1716 C1715 1.355 . S
C1716 C1718 1.419 1_565 S
C1717 C1712 1.425 . S
C1717 C1714 1.409 . S
C1717 C1715 1.415 . S
C1718 H1708 0.930 . S
C1718 C1716 1.419 1_545 S
C1718 C1719 1.362 1_545 S
C1719 H1709 0.930 . S
C1719 C1712 1.409 . S
C1719 C1718 1.362 1_565 S
H1720 C1726 0.930 . S
H1721 C1729 0.930 . S
H1722 C1730 0.930 . S
H1723 C1731 0.930 . S
H1724 C1734 0.930 . S
H1725 C1735 0.930 . S
C1726 H1720 0.930 . S
C1726 C1727 1.355 . S
C1726 C1728 1.415 . S
C1727 C1726 1.355 . S
C1727 C1729 1.419 . S
C1728 C1726 1.415 . S
C1728 C1733 1.425 . S
C1728 C1735 1.409 . S
C1729 H1721 0.930 . S
C1729 C1727 1.419 . S
C1729 C1730 1.362 . S
C1730 H1722 0.930 . S
C1730 C1729 1.362 . S
C1730 C1733 1.409 . S
C1731 H1723 0.930 . S
C1731 C1732 1.355 . S
C1731 C1733 1.415 . S
C1732 C1731 1.355 . S
C1732 C1734 1.419 . S
C1733 C1728 1.425 . S
C1733 C1730 1.409 . S
C1733 C1731 1.415 . S
C1734 H1724 0.930 . S
C1734 C1732 1.419 . S
C1734 C1735 1.362 . S
C1735 H1725 0.930 . S
C1735 C1728 1.409 . S
C1735 C1734 1.362 . S
H1736 C1742 0.930 . S
H1737 C1745 0.930 . S
H1738 C1746 0.930 . S
H1739 C1747 0.930 . S
H1740 C1750 0.930 . S
H1741 C1751 0.930 . S
C1742 H1736 0.930 . S
C1742 C1743 1.355 . S
C1742 C1744 1.415 . S
C1743 C1742 1.355 . S
C1743 C1745 1.419 . S
C1744 C1742 1.415 . S
C1744 C1749 1.425 . S
C1744 C1751 1.409 . S
C1745 H1737 0.930 . S
C1745 C1743 1.419 . S
C1745 C1746 1.362 . S
C1746 H1738 0.930 . S
C1746 C1745 1.362 . S
C1746 C1749 1.409 . S
C1747 H1739 0.930 . S
C1747 C1748 1.355 . S
C1747 C1749 1.415 . S
C1748 C1747 1.355 . S
C1748 C1750 1.419 . S
C1749 C1744 1.425 . S
C1749 C1746 1.409 . S
C1749 C1747 1.415 . S
C1750 H1740 0.930 . S
C1750 C1748 1.419 . S
C1750 C1751 1.362 . S
C1751 H1741 0.930 . S
C1751 C1744 1.409 . S
C1751 C1750 1.362 . S
H1752 C1758 0.930 . S
H1753 C1761 0.930 . S
H1754 C1762 0.930 . S
H1755 C1763 0.930 . S
H1756 C1766 0.930 . S
H1757 C1767 0.930 . S
C1758 H1752 0.930 . S
C1758 C1759 1.355 . S
C1758 C1760 1.415 . S
C1759 C1758 1.355 . S
C1759 C1761 1.419 . S
C1760 C1758 1.415 . S
C1760 C1765 1.425 . S
C1760 C1767 1.409 . S
C1761 H1753 0.930 . S
C1761 C1759 1.419 . S
C1761 C1762 1.362 . S
C1762 H1754 0.930 . S
C1762 C1761 1.362 . S
C1762 C1765 1.409 . S
C1763 H1755 0.930 . S
C1763 C1764 1.355 . S
C1763 C1765 1.415 . S
C1764 C1763 1.355 . S
C1764 C1766 1.419 . S
C1765 C1760 1.425 . S
C1765 C1762 1.409 . S
C1765 C1763 1.415 . S
C1766 H1756 0.930 . S
C1766 C1764 1.419 . S
C1766 C1767 1.362 . S
C1767 H1757 0.930 . S
C1767 C1760 1.409 . S
C1767 C1766 1.362 . S
H1768 C1774 0.930 . S
H1769 C1777 0.930 . S
H1770 C1778 0.930 . S
H1771 C1779 0.930 . S
H1772 C1782 0.930 . S
H1773 C1783 0.930 . S
C1774 H1768 0.930 . S
C1774 C1775 1.355 . S
C1774 C1776 1.415 . S
C1775 C1774 1.355 . S
C1775 C1777 1.419 . S
C1776 C1774 1.415 . S
C1776 C1781 1.425 . S
C1776 C1783 1.409 . S
C1777 H1769 0.930 . S
C1777 C1775 1.419 . S
C1777 C1778 1.362 . S
C1778 H1770 0.930 . S
C1778 C1777 1.362 . S
C1778 C1781 1.409 . S
C1779 H1771 0.930 . S
C1779 C1780 1.355 . S
C1779 C1781 1.415 . S
C1780 C1779 1.355 . S
C1780 C1782 1.419 . S
C1781 C1776 1.425 . S
C1781 C1778 1.409 . S
C1781 C1779 1.415 . S
C1782 H1772 0.930 . S
C1782 C1780 1.419 . S
C1782 C1783 1.362 . S
C1783 H1773 0.930 . S
C1783 C1776 1.409 . S
C1783 C1782 1.362 . S
H1784 C1790 0.930 . S
H1785 C1793 0.930 . S
H1786 C1794 0.930 . S
H1787 C1795 0.930 . S
H1788 C1798 0.930 . S
H1789 C1799 0.930 . S
C1790 H1784 0.930 . S
C1790 C1791 1.355 . S
C1790 C1792 1.415 . S
C1791 C1790 1.355 . S
C1791 C1793 1.419 . S
C1792 C1790 1.415 . S
C1792 C1797 1.425 . S
C1792 C1799 1.409 . S
C1793 H1785 0.930 . S
C1793 C1791 1.419 . S
C1793 C1794 1.362 . S
C1794 H1786 0.930 . S
C1794 C1793 1.362 . S
C1794 C1797 1.409 . S
C1795 H1787 0.930 . S
C1795 C1796 1.355 . S
C1795 C1797 1.415 . S
C1796 C1795 1.355 . S
C1796 C1798 1.419 . S
C1797 C1792 1.425 . S
C1797 C1794 1.409 . S
C1797 C1795 1.415 . S
C1798 H1788 0.930 . S
C1798 C1796 1.419 . S
C1798 C1799 1.362 . S
C1799 H1789 0.930 . S
C1799 C1792 1.409 . S
C1799 C1798 1.362 . S
H1800 C1806 0.930 . S
H1801 C1809 0.930 . S
H1802 C1810 0.930 . S
H1803 C1811 0.930 . S
H1804 C1814 0.930 . S
H1805 C1815 0.930 . S
C1806 H1800 0.930 . S
C1806 C1807 1.355 . S
C1806 C1808 1.415 . S
C1807 C1806 1.355 . S
C1807 C1809 1.419 . S
C1808 C1806 1.415 . S
C1808 C1813 1.425 . S
C1808 C1815 1.409 . S
C1809 H1801 0.930 . S
C1809 C1807 1.419 . S
C1809 C1810 1.362 . S
C1810 H1802 0.930 . S
C1810 C1809 1.362 . S
C1810 C1813 1.409 . S
C1811 H1803 0.930 . S
C1811 C1812 1.355 . S
C1811 C1813 1.415 . S
C1812 C1811 1.355 . S
C1812 C1814 1.419 . S
C1813 C1808 1.425 . S
C1813 C1810 1.409 . S
C1813 C1811 1.415 . S
C1814 H1804 0.930 . S
C1814 C1812 1.419 . S
C1814 C1815 1.362 . S
C1815 H1805 0.930 . S
C1815 C1808 1.409 . S
C1815 C1814 1.362 . S
H1816 C1822 0.930 1_655 S
H1817 C1825 0.930 . S
H1818 C1826 0.930 . S
H1819 C1827 0.930 . S
H1820 C1830 0.930 . S
H1821 C1831 0.930 . S
C1822 H1816 0.930 1_455 S
C1822 C1823 1.355 . S
C1822 C1824 1.415 . S
C1823 C1822 1.355 . S
C1823 C1825 1.419 . S
C1824 C1822 1.415 . S
C1824 C1829 1.425 . S
C1824 C1831 1.409 1_455 S
C1825 H1817 0.930 . S
C1825 C1823 1.419 . S
C1825 C1826 1.362 . S
C1826 H1818 0.930 . S
C1826 C1825 1.362 . S
C1826 C1829 1.409 . S
C1827 H1819 0.930 . S
C1827 C1828 1.355 . S
C1827 C1829 1.415 . S
C1828 C1827 1.355 . S
C1828 C1830 1.419 1_455 S
C1829 C1824 1.425 . S
C1829 C1826 1.409 . S
C1829 C1827 1.415 . S
C1830 H1820 0.930 . S
C1830 C1828 1.419 1_655 S
C1830 C1831 1.362 . S
C1831 H1821 0.930 . S
C1831 C1824 1.409 1_655 S
C1831 C1830 1.362 . S
H1832 C1838 0.930 . S
H1833 C1841 0.930 . S
H1834 C1842 0.930 . S
H1835 C1843 0.930 . S
H1836 C1846 0.930 . S
H1837 C1847 0.930 . S
C1838 H1832 0.930 . S
C1838 C1839 1.355 . S
C1838 C1840 1.415 . S
C1839 C1838 1.355 . S
C1839 C1841 1.419 . S
C1840 C1838 1.415 . S
C1840 C1845 1.425 . S
C1840 C1847 1.409 . S
C1841 H1833 0.930 . S
C1841 C1839 1.419 . S
C1841 C1842 1.362 . S
C1842 H1834 0.930 . S
C1842 C1841 1.362 . S
C1842 C1845 1.409 . S
C1843 H1835 0.930 . S
C1843 C1844 1.355 . S
C1843 C1845 1.415 . S
C1844 C1843 1.355 . S
C1844 C1846 1.419 . S
C1845 C1840 1.425 . S
C1845 C1842 1.409 . S
C1845 C1843 1.415 . S
C1846 H1836 0.930 . S
C1846 C1844 1.419 . S
C1846 C1847 1.362 . S
C1847 H1837 0.930 . S
C1847 C1840 1.409 . S
C1847 C1846 1.362 . S
H1848 C1854 0.930 . S
H1849 C1857 0.930 . S
H1850 C1858 0.930 . S
H1851 C1859 0.930 . S
H1852 C1862 0.930 1_554 S
H1853 C1863 0.930 . S
C1854 H1848 0.930 . S
C1854 C1855 1.355 . S
C1854 C1856 1.415 . S
C1855 C1854 1.355 . S
C1855 C1857 1.419 . S
C1856 C1854 1.415 . S
C1856 C1861 1.425 . S
C1856 C1863 1.409 . S
C1857 H1849 0.930 . S
C1857 C1855 1.419 . S
C1857 C1858 1.362 . S
C1858 H1850 0.930 . S
C1858 C1857 1.362 . S
C1858 C1861 1.409 . S
C1859 H1851 0.930 . S
C1859 C1860 1.355 . S
C1859 C1861 1.415 . S
C1860 C1859 1.355 . S
C1860 C1862 1.419 . S
C1861 C1856 1.425 . S
C1861 C1858 1.409 . S
C1861 C1859 1.415 . S
C1862 H1852 0.930 1_556 S
C1862 C1860 1.419 . S
C1862 C1863 1.362 . S
C1863 H1853 0.930 . S
C1863 C1856 1.409 . S
C1863 C1862 1.362 . S
H1864 C1870 0.930 . S
H1865 C1873 0.930 . S
H1866 C1874 0.930 . S
H1867 C1875 0.930 . S
H1868 C1878 0.930 . S
H1869 C1879 0.930 . S
C1870 H1864 0.930 . S
C1870 C1871 1.355 . S
C1870 C1872 1.415 . S
C1871 C1870 1.355 . S
C1871 C1873 1.419 . S
C1872 C1870 1.415 . S
C1872 C1877 1.425 . S
C1872 C1879 1.409 . S
C1873 H1865 0.930 . S
C1873 C1871 1.419 . S
C1873 C1874 1.362 . S
C1874 H1866 0.930 . S
C1874 C1873 1.362 . S
C1874 C1877 1.409 . S
C1875 H1867 0.930 . S
C1875 C1876 1.355 . S
C1875 C1877 1.415 . S
C1876 C1875 1.355 . S
C1876 C1878 1.419 . S
C1877 C1872 1.425 . S
C1877 C1874 1.409 . S
C1877 C1875 1.415 . S
C1878 H1868 0.930 . S
C1878 C1876 1.419 . S
C1878 C1879 1.362 . S
C1879 H1869 0.930 . S
C1879 C1872 1.409 . S
C1879 C1878 1.362 . S
H1880 C1886 0.930 . S
H1881 C1889 0.923 1_655 S
H1882 C1890 0.930 1_655 S
H1883 C1891 0.909 1_655 S
H1884 C1894 0.930 . S
H1885 C1895 0.930 . S
C1886 H1880 0.930 . S
C1886 C1887 1.355 . S
C1886 C1888 1.415 . S
C1887 C1886 1.355 . S
C1887 C1889 1.419 . S
C1888 C1886 1.415 . S
C1888 C1893 1.425 . S
C1888 C1895 1.409 . S
C1889 H1881 0.923 1_455 S
C1889 C1887 1.419 . S
C1889 C1890 1.362 . S
C1890 H1882 0.930 1_455 S
C1890 C1889 1.362 . S
C1890 C1893 1.409 . S
C1891 H1883 0.909 1_455 S
C1891 C1892 1.355 . S
C1891 C1893 1.415 . S
C1892 C1891 1.355 . S
C1892 C1894 1.419 . S
C1893 C1888 1.425 . S
C1893 C1890 1.409 . S
C1893 C1891 1.415 . S
C1894 H1884 0.930 . S
C1894 C1892 1.419 . S
C1894 C1895 1.362 . S
C1895 H1885 0.930 . S
C1895 C1888 1.409 . S
C1895 C1894 1.362 . S
H1896 C1902 0.930 . S
H1897 C1905 0.930 . S
H1898 C1906 0.930 . S
H1899 C1907 0.930 . S
H1900 C1910 0.930 . S
H1901 C1911 0.930 . S
C1902 H1896 0.930 . S
C1902 C1903 1.355 . S
C1902 C1904 1.415 . S
C1903 C1902 1.355 . S
C1903 C1905 1.419 . S
C1904 C1902 1.415 . S
C1904 C1909 1.425 . S
C1904 C1911 1.409 . S
C1905 H1897 0.930 . S
C1905 C1903 1.419 . S
C1905 C1906 1.362 . S
C1906 H1898 0.930 . S
C1906 C1905 1.362 . S
C1906 C1909 1.409 . S
C1907 H1899 0.930 . S
C1907 C1908 1.355 . S
C1907 C1909 1.415 . S
C1908 C1907 1.355 . S
C1908 C1910 1.419 . S
C1909 C1904 1.425 . S
C1909 C1906 1.409 . S
C1909 C1907 1.415 . S
C1910 H1900 0.930 . S
C1910 C1908 1.419 . S
C1910 C1911 1.362 . S
C1911 H1901 0.930 . S
C1911 C1904 1.409 . S
C1911 C1910 1.362 . S
H1912 C1918 0.930 . S
H1913 C1921 0.930 . S
H1914 C1922 0.930 . S
H1915 C1923 0.930 . S
H1916 C1926 0.930 . S
H1917 C1927 0.930 . S
C1918 H1912 0.930 . S
C1918 C1919 1.355 . S
C1918 C1920 1.415 . S
C1919 C1918 1.355 . S
C1919 C1921 1.419 . S
C1920 C1918 1.415 . S
C1920 C1925 1.425 . S
C1920 C1927 1.409 . S
C1921 H1913 0.930 . S
C1921 C1919 1.419 . S
C1921 C1922 1.362 . S
C1922 H1914 0.930 . S
C1922 C1921 1.362 . S
C1922 C1925 1.409 . S
C1923 H1915 0.930 . S
C1923 C1924 1.355 . S
C1923 C1925 1.415 . S
C1924 C1923 1.355 . S
C1924 C1926 1.419 . S
C1925 C1920 1.425 . S
C1925 C1922 1.409 . S
C1925 C1923 1.415 . S
C1926 H1916 0.930 . S
C1926 C1924 1.419 . S
C1926 C1927 1.362 . S
C1927 H1917 0.930 . S
C1927 C1920 1.409 . S
C1927 C1926 1.362 . S
H1928 C1934 0.930 . S
H1929 C1937 0.930 . S
H1930 C1938 0.930 . S
H1931 C1939 0.930 . S
H1932 C1942 0.930 . S
H1933 C1943 0.930 . S
C1934 H1928 0.930 . S
C1934 C1935 1.355 . S
C1934 C1936 1.415 . S
C1935 C1934 1.355 . S
C1935 C1937 1.419 . S
C1936 C1934 1.415 . S
C1936 C1941 1.425 . S
C1936 C1943 1.409 . S
C1937 H1929 0.930 . S
C1937 C1935 1.419 . S
C1937 C1938 1.362 . S
C1938 H1930 0.930 . S
C1938 C1937 1.362 . S
C1938 C1941 1.409 . S
C1939 H1931 0.930 . S
C1939 C1940 1.355 . S
C1939 C1941 1.415 . S
C1940 C1939 1.355 . S
C1940 C1942 1.419 . S
C1941 C1936 1.425 . S
C1941 C1938 1.409 . S
C1941 C1939 1.415 . S
C1942 H1932 0.930 . S
C1942 C1940 1.419 . S
C1942 C1943 1.362 . S
C1943 H1933 0.930 . S
C1943 C1936 1.409 . S
C1943 C1942 1.362 . S
H1944 C1950 0.930 . S
H1945 C1953 0.930 . S
H1946 C1954 0.930 . S
H1947 C1955 0.930 . S
H1948 C1958 0.930 . S
H1949 C1959 0.922 1_455 S
C1950 H1944 0.930 . S
C1950 C1951 1.355 . S
C1950 C1952 1.415 . S
C1951 C1950 1.355 . S
C1951 C1953 1.419 . S
C1952 C1950 1.415 . S
C1952 C1957 1.425 . S
C1952 C1959 1.420 . S
C1953 H1945 0.930 . S
C1953 C1951 1.419 . S
C1953 C1954 1.362 . S
C1954 H1946 0.930 . S
C1954 C1953 1.362 . S
C1954 C1957 1.409 . S
C1955 H1947 0.930 . S
C1955 C1956 1.355 . S
C1955 C1957 1.415 . S
C1956 C1955 1.355 . S
C1956 C1958 1.419 1_655 S
C1957 C1952 1.425 . S
C1957 C1954 1.409 . S
C1957 C1955 1.415 . S
C1958 H1948 0.930 . S
C1958 C1956 1.419 1_455 S
C1958 C1959 1.359 1_455 S
C1959 H1949 0.922 1_655 S
C1959 C1952 1.420 . S
C1959 C1958 1.359 1_655 S
H1960 C1966 0.930 . S
H1961 C1969 0.930 . S
H1962 C1970 0.930 . S
H1963 C1971 0.930 . S
H1964 C1974 0.930 . S
H1965 C1975 0.930 . S
C1966 H1960 0.930 . S
C1966 C1967 1.355 . S
C1966 C1968 1.415 . S
C1967 C1966 1.355 . S
C1967 C1969 1.419 . S
C1968 C1966 1.415 . S
C1968 C1973 1.425 . S
C1968 C1975 1.409 . S
C1969 H1961 0.930 . S
C1969 C1967 1.419 . S
C1969 C1970 1.362 . S
C1970 H1962 0.930 . S
C1970 C1969 1.362 . S
C1970 C1973 1.409 . S
C1971 H1963 0.930 . S
C1971 C1972 1.355 . S
C1971 C1973 1.415 . S
C1972 C1971 1.355 . S
C1972 C1974 1.419 . S
C1973 C1968 1.425 . S
C1973 C1970 1.409 . S
C1973 C1971 1.415 . S
C1974 H1964 0.930 . S
C1974 C1972 1.419 . S
C1974 C1975 1.362 . S
C1975 H1965 0.930 . S
C1975 C1968 1.409 . S
C1975 C1974 1.362 . S
H1976 C1982 0.930 . S
H1977 C1985 0.930 . S
H1978 C1986 0.930 . S
H1979 C1987 0.930 . S
H1980 C1990 0.930 . S
H1981 C1991 0.930 . S
C1982 H1976 0.930 . S
C1982 C1983 1.355 . S
C1982 C1984 1.415 . S
C1983 C1982 1.355 . S
C1983 C1985 1.419 . S
C1984 C1982 1.415 . S
C1984 C1989 1.425 . S
C1984 C1991 1.409 . S
C1985 H1977 0.930 . S
C1985 C1983 1.419 . S
C1985 C1986 1.362 . S
C1986 H1978 0.930 . S
C1986 C1985 1.362 . S
C1986 C1989 1.409 . S
C1987 H1979 0.930 . S
C1987 C1988 1.355 . S
C1987 C1989 1.415 . S
C1988 C1987 1.355 . S
C1988 C1990 1.419 . S
C1989 C1984 1.425 . S
C1989 C1986 1.409 . S
C1989 C1987 1.415 . S
C1990 H1980 0.930 . S
C1990 C1988 1.419 . S
C1990 C1991 1.362 . S
C1991 H1981 0.930 . S
C1991 C1984 1.409 . S
C1991 C1990 1.362 . S
H1992 C1998 0.930 . S
H1993 C2001 0.930 . S
H1994 C2002 0.930 . S
H1995 C2003 0.930 . S
H1996 C2006 0.930 . S
H1997 C2007 0.930 . S
C1998 H1992 0.930 . S
C1998 C1999 1.355 . S
C1998 C2000 1.415 . S
C1999 C1998 1.355 . S
C1999 C2001 1.419 . S
C2000 C1998 1.415 . S
C2000 C2005 1.425 . S
C2000 C2007 1.409 . S
C2001 H1993 0.930 . S
C2001 C1999 1.419 . S
C2001 C2002 1.362 . S
C2002 H1994 0.930 . S
C2002 C2001 1.362 . S
C2002 C2005 1.409 . S
C2003 H1995 0.930 . S
C2003 C2004 1.355 . S
C2003 C2005 1.415 . S
C2004 C2003 1.355 . S
C2004 C2006 1.419 . S
C2005 C2000 1.425 . S
C2005 C2002 1.409 . S
C2005 C2003 1.415 . S
C2006 H1996 0.930 . S
C2006 C2004 1.419 . S
C2006 C2007 1.362 . S
C2007 H1997 0.930 . S
C2007 C2000 1.409 . S
C2007 C2006 1.362 . S
H2008 C2014 0.930 . S
H2009 C2017 0.930 . S
H2010 C2018 0.930 . S
H2011 C2019 0.930 . S
H2012 C2022 0.930 . S
H2013 C2023 0.930 . S
C2014 H2008 0.930 . S
C2014 C2015 1.355 . S
C2014 C2016 1.415 . S
C2015 C2014 1.355 . S
C2015 C2017 1.419 . S
C2016 C2014 1.415 . S
C2016 C2021 1.425 . S
C2016 C2023 1.409 . S
C2017 H2009 0.930 . S
C2017 C2015 1.419 . S
C2017 C2018 1.362 . S
C2018 H2010 0.930 . S
C2018 C2017 1.362 . S
C2018 C2021 1.409 . S
C2019 H2011 0.930 . S
C2019 C2020 1.355 . S
C2019 C2021 1.415 . S
C2020 C2019 1.355 . S
C2020 C2022 1.419 . S
C2021 C2016 1.425 . S
C2021 C2018 1.409 . S
C2021 C2019 1.415 . S
C2022 H2012 0.930 . S
C2022 C2020 1.419 . S
C2022 C2023 1.362 . S
C2023 H2013 0.930 . S
C2023 C2016 1.409 . S
C2023 C2022 1.362 . S
H2024 C2030 0.930 . S
H2025 C2033 0.930 . S
H2026 C2034 0.930 . S
H2027 C2035 0.930 . S
H2028 C2038 0.930 . S
H2029 C2039 0.930 . S
C2030 H2024 0.930 . S
C2030 C2031 1.355 . S
C2030 C2032 1.415 . S
C2031 C2030 1.355 . S
C2031 C2033 1.419 . S
C2032 C2030 1.415 . S
C2032 C2037 1.425 . S
C2032 C2039 1.409 . S
C2033 H2025 0.930 . S
C2033 C2031 1.419 . S
C2033 C2034 1.362 . S
C2034 H2026 0.930 . S
C2034 C2033 1.362 . S
C2034 C2037 1.409 . S
C2035 H2027 0.930 . S
C2035 C2036 1.355 . S
C2035 C2037 1.415 . S
C2036 C2035 1.355 . S
C2036 C2038 1.419 . S
C2037 C2032 1.425 . S
C2037 C2034 1.409 . S
C2037 C2035 1.415 . S
C2038 H2028 0.930 . S
C2038 C2036 1.419 . S
C2038 C2039 1.362 . S
C2039 H2029 0.930 . S
C2039 C2032 1.409 . S
C2039 C2038 1.362 . S
H2040 C2046 0.930 . S
H2041 C2049 0.930 . S
H2042 C2050 0.930 . S
H2043 C2051 0.930 . S
H2044 C2054 0.930 . S
H2045 C2055 0.930 . S
C2046 H2040 0.930 . S
C2046 C2047 1.355 . S
C2046 C2048 1.415 . S
C2047 C2046 1.355 . S
C2047 C2049 1.419 . S
C2048 C2046 1.415 . S
C2048 C2053 1.425 . S
C2048 C2055 1.409 . S
C2049 H2041 0.930 . S
C2049 C2047 1.419 . S
C2049 C2050 1.362 . S
C2050 H2042 0.930 . S
C2050 C2049 1.362 . S
C2050 C2053 1.409 . S
C2051 H2043 0.930 . S
C2051 C2052 1.355 . S
C2051 C2053 1.415 . S
C2052 C2051 1.355 . S
C2052 C2054 1.419 . S
C2053 C2048 1.425 . S
C2053 C2050 1.409 . S
C2053 C2051 1.415 . S
C2054 H2044 0.930 . S
C2054 C2052 1.419 . S
C2054 C2055 1.362 . S
C2055 H2045 0.930 . S
C2055 C2048 1.409 . S
C2055 C2054 1.362 . S
H2056 C2062 0.930 . S
H2057 C2065 0.930 . S
H2058 C2066 0.930 . S
H2059 C2067 0.930 . S
H2060 C2070 0.930 . S
H2061 C2071 0.930 . S
C2062 H2056 0.930 . S
C2062 C2063 1.355 . S
C2062 C2064 1.415 . S
C2063 C2062 1.355 . S
C2063 C2065 1.419 . S
C2064 C2062 1.415 . S
C2064 C2069 1.425 . S
C2064 C2071 1.409 . S
C2065 H2057 0.930 . S
C2065 C2063 1.419 . S
C2065 C2066 1.362 . S
C2066 H2058 0.930 . S
C2066 C2065 1.362 . S
C2066 C2069 1.409 . S
C2067 H2059 0.930 . S
C2067 C2068 1.355 . S
C2067 C2069 1.415 . S
C2068 C2067 1.355 . S
C2068 C2070 1.419 . S
C2069 C2064 1.425 . S
C2069 C2066 1.409 . S
C2069 C2067 1.415 . S
C2070 H2060 0.930 . S
C2070 C2068 1.419 . S
C2070 C2071 1.362 . S
C2071 H2061 0.930 . S
C2071 C2064 1.409 . S
C2071 C2070 1.362 . S
H2072 C2078 0.930 . S
H2073 C2081 0.930 . S
H2074 C2082 0.930 . S
H2075 C2083 0.930 . S
H2076 C2086 0.930 . S
H2077 C2087 0.930 . S
C2078 H2072 0.930 . S
C2078 C2079 1.355 . S
C2078 C2080 1.415 . S
C2079 C2078 1.355 . S
C2079 C2081 1.419 . S
C2080 C2078 1.415 . S
C2080 C2085 1.425 . S
C2080 C2087 1.409 . S
C2081 H2073 0.930 . S
C2081 C2079 1.419 . S
C2081 C2082 1.362 . S
C2082 H2074 0.930 . S
C2082 C2081 1.362 . S
C2082 C2085 1.409 . S
C2083 H2075 0.930 . S
C2083 C2084 1.355 . S
C2083 C2085 1.415 . S
C2084 C2083 1.355 . S
C2084 C2086 1.419 . S
C2085 C2080 1.425 . S
C2085 C2082 1.409 . S
C2085 C2083 1.415 . S
C2086 H2076 0.930 . S
C2086 C2084 1.419 . S
C2086 C2087 1.362 . S
C2087 H2077 0.930 . S
C2087 C2080 1.409 . S
C2087 C2086 1.362 . S
H2088 C2094 0.930 . S
H2089 C2097 0.930 . S
H2090 C2098 0.930 . S
H2091 C2099 0.930 . S
H2092 C2102 0.930 . S
H2093 C2103 0.930 . S
C2094 H2088 0.930 . S
C2094 C2095 1.355 . S
C2094 C2096 1.415 . S
C2095 C2094 1.355 . S
C2095 C2097 1.419 . S
C2096 C2094 1.415 . S
C2096 C2101 1.425 . S
C2096 C2103 1.409 . S
C2097 H2089 0.930 . S
C2097 C2095 1.419 . S
C2097 C2098 1.362 . S
C2098 H2090 0.930 . S
C2098 C2097 1.362 . S
C2098 C2101 1.409 . S
C2099 H2091 0.930 . S
C2099 C2100 1.355 . S
C2099 C2101 1.415 . S
C2100 C2099 1.355 . S
C2100 C2102 1.419 . S
C2101 C2096 1.425 . S
C2101 C2098 1.409 . S
C2101 C2099 1.415 . S
C2102 H2092 0.930 . S
C2102 C2100 1.419 . S
C2102 C2103 1.362 . S
C2103 H2093 0.930 . S
C2103 C2096 1.409 . S
C2103 C2102 1.362 . S
H2104 C2110 0.930 . S
H2105 C2113 0.930 . S
H2106 C2114 0.930 . S
H2107 C2115 0.930 . S
H2108 C2118 0.930 . S
H2109 C2119 0.930 . S
C2110 H2104 0.930 . S
C2110 C2111 1.355 . S
C2110 C2112 1.415 . S
C2111 C2110 1.355 . S
C2111 C2113 1.419 . S
C2112 C2110 1.415 . S
C2112 C2117 1.425 . S
C2112 C2119 1.409 . S
C2113 H2105 0.930 . S
C2113 C2111 1.419 . S
C2113 C2114 1.362 . S
C2114 H2106 0.930 . S
C2114 C2113 1.362 . S
C2114 C2117 1.409 . S
C2115 H2107 0.930 . S
C2115 C2116 1.355 . S
C2115 C2117 1.415 . S
C2116 C2115 1.355 . S
C2116 C2118 1.419 . S
C2117 C2112 1.425 . S
C2117 C2114 1.409 . S
C2117 C2115 1.415 . S
C2118 H2108 0.930 . S
C2118 C2116 1.419 . S
C2118 C2119 1.362 . S
C2119 H2109 0.930 . S
C2119 C2112 1.409 . S
C2119 C2118 1.362 . S
H2120 C2126 0.930 . S
H2121 C2129 0.930 . S
H2122 C2130 0.930 . S
H2123 C2131 0.930 . S
H2124 C2134 0.915 1_556 S
H2125 C2135 0.930 1_556 S
C2126 H2120 0.930 . S
C2126 C2127 1.355 . S
C2126 C2128 1.415 . S
C2127 C2126 1.355 . S
C2127 C2129 1.419 . S
C2128 C2126 1.415 . S
C2128 C2133 1.425 . S
C2128 C2135 1.409 . S
C2129 H2121 0.930 . S
C2129 C2127 1.419 . S
C2129 C2130 1.362 . S
C2130 H2122 0.930 . S
C2130 C2129 1.362 . S
C2130 C2133 1.409 . S
C2131 H2123 0.930 . S
C2131 C2132 1.355 . S
C2131 C2133 1.415 . S
C2132 C2131 1.355 . S
C2132 C2134 1.434 . S
C2133 C2128 1.425 . S
C2133 C2130 1.409 . S
C2133 C2131 1.415 . S
C2134 H2124 0.915 1_554 S
C2134 C2132 1.434 . S
C2134 C2135 1.363 . S
C2135 H2125 0.930 1_554 S
C2135 C2128 1.409 . S
C2135 C2134 1.363 . S
H2136 C2142 0.930 . S
H2137 C2145 0.930 . S
H2138 C2146 0.930 . S
H2139 C2147 0.930 . S
H2140 C2150 0.930 . S
H2141 C2151 0.930 . S
C2142 H2136 0.930 . S
C2142 C2143 1.355 . S
C2142 C2144 1.415 . S
C2143 C2142 1.355 . S
C2143 C2145 1.419 . S
C2144 C2142 1.415 . S
C2144 C2149 1.425 . S
C2144 C2151 1.409 . S
C2145 H2137 0.930 . S
C2145 C2143 1.419 . S
C2145 C2146 1.362 . S
C2146 H2138 0.930 . S
C2146 C2145 1.362 . S
C2146 C2149 1.409 . S
C2147 H2139 0.930 . S
C2147 C2148 1.355 . S
C2147 C2149 1.415 . S
C2148 C2147 1.355 . S
C2148 C2150 1.419 . S
C2149 C2144 1.425 . S
C2149 C2146 1.409 . S
C2149 C2147 1.415 . S
C2150 H2140 0.930 . S
C2150 C2148 1.419 . S
C2150 C2151 1.362 . S
C2151 H2141 0.930 . S
C2151 C2144 1.409 . S
C2151 C2150 1.362 . S
H2152 C2158 0.930 . S
H2153 C2161 0.930 . S
H2154 C2162 0.930 . S
H2155 C2163 0.930 . S
H2156 C2166 0.930 . S
H2157 C2167 0.930 . S
C2158 H2152 0.930 . S
C2158 C2159 1.355 . S
C2158 C2160 1.415 . S
C2159 C2158 1.355 . S
C2159 C2161 1.419 . S
C2160 C2158 1.415 . S
C2160 C2165 1.425 . S
C2160 C2167 1.409 . S
C2161 H2153 0.930 . S
C2161 C2159 1.419 . S
C2161 C2162 1.362 . S
C2162 H2154 0.930 . S
C2162 C2161 1.362 . S
C2162 C2165 1.409 . S
C2163 H2155 0.930 . S
C2163 C2164 1.355 . S
C2163 C2165 1.415 . S
C2164 C2163 1.355 . S
C2164 C2166 1.419 . S
C2165 C2160 1.425 . S
C2165 C2162 1.409 . S
C2165 C2163 1.415 . S
C2166 H2156 0.930 . S
C2166 C2164 1.419 . S
C2166 C2167 1.362 . S
C2167 H2157 0.930 . S
C2167 C2160 1.409 . S
C2167 C2166 1.362 . S
C639 C101 1.487 . S
C644 C316 1.215 . S
C655 C57 1.513 . S
C660 C351 1.460 . S
C671 C70 1.086 . S
C676 C356 0.902 . S
C692 C381 1.287 . S
C687 C82 1.421 . S
C703 C23 1.448 . S
C708 C401 1.382 . S
C724 C416 0.989 . S
C719 C29 1.082 . S
C740 C451 1.438 . S
C735 C49 1.505 . S
C751 C10 1.543 . S
C756 C456 1.320 . S
C772 C331 1.511 . S
C767 C218 1.639 . S
C783 C226 1.039 . S
C788 C341 0.921 . S
C804 C371 1.445 1_565 S
C799 C251 1.457 . S
C820 C376 1.098 . S
C815 C159 1.218 . S
C831 C211 1.218 . S
C836 C396 1.098 1_655 S
C852 C431 1.395 . S
C847 C225 1.469 . S
C868 C441 0.926 . S
C863 C252 1.044 . S
C884 C471 1.531 . S
C879 C166 1.655 . S
C900 C321 1.408 1_565 S
C895 C147 1.581 . S
C911 C263 1.710 . S
C916 C491 1.655 . S
C932 C501 1.407 . S
C927 C309 1.564 . S
C948 C516 0.999 . S
C943 C291 1.067 . S
C959 C108 1.575 . S
C964 C461 1.401 . S
C975 C121 1.548 . S
C980 C361 1.372 . S
C991 C302 1.722 . S
C996 C551 1.661 . S
C1012 C556 0.943 . S
C1007 C276 1.094 . S
C1028 C314 1.334 . S
C1023 C55 1.530 . S
C1044 C570 1.671 . S
C1039 C96 1.683 . S
C1055 C88 1.292 . S
C1060 C354 1.242 . S
C1071 C75 1.623 . S
C1076 C544 1.577 . S
C1092 C404 1.531 . S
C1087 C4 1.621 . S
C1103 C44 1.295 . S
C1108 C494 1.202 . S
C1124 C450 1.674 . S
C1119 C31 1.682 . S
C1140 C574 1.310 . S
C1135 C18 1.521 . S
C1156 C330 1.702 1_556 S
C1151 C133 1.767 . S
C1172 C564 1.133 . S
C1167 C296 1.232 . S
C1183 C107 1.617 . S
C1188 C370 1.590 . S
C1199 C264 1.404 . S
C1204 C534 1.261 . S
C1215 C140 1.405 . S
C1220 C394 1.255 . S
C1236 C510 1.607 . S
C1231 C289 1.610 . S
C1247 C114 1.249 . S
C1252 C444 1.222 . S
C1263 C265 1.774 . S
C1268 C590 1.729 . S
C1279 C179 1.562 . S
C1284 C324 1.428 . S
C1295 C161 1.908 . S
C1300 C490 1.904 . S
C1311 C244 1.720 . S
C1316 C424 1.613 . S
C1327 C224 1.253 . S
C1332 C514 1.126 . S
C1348 C584 1.380 . S
C1343 C257 1.540 . S
C1359 C199 1.696 . S
C1364 C364 1.572 . S
C1380 C390 1.875 . S
C1375 C237 1.912 . S
C1396 C334 1.217 . S
C1391 C185 1.269 . S
C1407 C69 1.486 . S
C1412 C596 1.189 . S
C1428 C571 1.446 . S
C1423 C83 1.514 . S
C1439 C94 1.076 . S
C1444 C616 0.958 . S
C1455 C56 1.443 . S
C1460 C541 1.361 . S
C1471 C42 1.439 . S
C1476 C481 1.305 . S
C1492 C496 1.052 . S
C1487 C3 1.129 . S
C1508 C531 1.416 . S
C1503 C16 1.501 1_655 S
C1524 C576 1.278 . S
C1519 C36 1.531 . S
C1540 C611 1.600 . S
C1535 C238 1.668 . S
C1551 C174 1.031 . S
C1556 C561 0.898 . S
C1572 C631 1.384 . S
C1567 C186 1.465 . S
C1588 C536 1.121 . S
C1583 C198 1.200 . S
C1604 C476 1.010 . S
C1599 C239 1.188 . S
C1615 C173 1.468 . S
C1620 C511 1.389 . S
C1636 C521 1.014 . S
C1631 C187 1.078 . S
C1647 C205 1.641 . S
C1652 C591 1.576 . S
C1668 C601 1.397 . S
C1663 C290 1.573 . S
C1679 C122 1.725 . S
C1684 C411 1.683 . S
C1700 C421 1.460 . S
C1695 C134 1.588 . S
C1716 C436 0.993 . S
C1711 C148 1.109 . S
C1732 C581 1.384 . S
C1727 C283 1.566 . S
C1743 C270 1.586 . S
C1748 C621 1.469 . S
C1764 C391 1.676 . S
C1759 C135 1.726 . S
C1780 C336 1.011 . S
C1775 C109 1.112 . S
C1791 C81 1.542 . S
C1796 C594 1.375 . S
C1812 C350 1.654 . S
C1807 C68 1.694 . S
C1823 C62 1.280 . S
C1828 C614 1.150 . S
C1839 C95 1.619 . S
C1844 C384 1.572 . S
C1855 C30 1.616 . S
C1860 C484 1.556 . S
C1876 C414 1.131 . S
C1871 C17 1.275 . S
C1887 C5 1.685 . S
C1892 C530 1.680 . S
C1903 C43 1.550 . S
C1908 C454 1.422 . S
C1924 C610 1.675 . S
C1919 C304 1.763 . S
C1935 C153 1.252 . S
C1940 C344 1.232 . S
C1956 C630 1.604 . S
C1951 C278 1.612 . S
C1967 C127 1.423 . S
C1972 C374 1.344 . S
C1983 C303 1.403 . S
C1988 C474 1.280 . S
C2004 C430 1.553 . S
C1999 C146 1.616 . S
C2015 C277 1.230 . S
C2020 C524 1.137 . S
C2036 C470 1.671 . S
C2031 C120 1.762 . S
C2052 C604 1.389 . S
C2047 C231 1.542 . S
C2068 C410 1.890 . S
C2063 C200 1.908 . S
C2079 C212 1.718 . S
C2084 C504 1.644 . S
C2100 C434 1.126 . S
C2095 C172 1.253 . S
C2111 C192 1.539 . S
C2116 C464 1.378 . S
C2127 C160 1.726 . S
C2132 C624 1.637 . S
C2148 C550 1.863 . S
C2143 C213 1.921 . S
C2164 C554 1.119 . S
C2159 C250 1.253 . S
