# Generated by pormake.
# Topology ocu, (6,8)-cn, num edge types: 1
# Building blocks:
#     Node 0, Type 0, BuildingBlock: HISSIN_clean_sbu_0, # of connection points: 6
#     Node 1, Type 0, BuildingBlock: HISSIN_clean_sbu_0, # of connection points: 6
#     Node 2, Type 0, BuildingBlock: HISSIN_clean_sbu_0, # of connection points: 6
#     Node 3, Type 0, BuildingBlock: HISSIN_clean_sbu_0, # of connection points: 6
#     Node 4, Type 0, BuildingBlock: HISSIN_clean_sbu_0, # of connection points: 6
#     Node 5, Type 0, BuildingBlock: HISSIN_clean_sbu_0, # of connection points: 6
#     Node 6, Type 0, BuildingBlock: HISSIN_clean_sbu_0, # of connection points: 6
#     Node 7, Type 0, BuildingBlock: HISSIN_clean_sbu_0, # of connection points: 6
#     Node 8, Type 1, BuildingBlock: TAGTUT_clean_sbu_1, # of connection points: 8
#     Node 9, Type 1, BuildingBlock: TAGTUT_clean_sbu_1, # of connection points: 8
#     Node 10, Type 1, BuildingBlock: TAGTUT_clean_sbu_1, # of connection points: 8
#     Node 11, Type 1, BuildingBlock: TAGTUT_clean_sbu_1, # of connection points: 8
#     Node 12, Type 1, BuildingBlock: TAGTUT_clean_sbu_1, # of connection points: 8
#     Node 13, Type 1, BuildingBlock: TAGTUT_clean_sbu_1, # of connection points: 8
#     Edge 14, Type (0, 1), BuildingBlock: XIVTED_clean_linker_0, # of connection points: 2
#     Edge 15, Type (0, 1), BuildingBlock: XIVTED_clean_linker_0, # of connection points: 2
#     Edge 16, Type (0, 1), BuildingBlock: XIVTED_clean_linker_0, # of connection points: 2
#     Edge 17, Type (0, 1), BuildingBlock: XIVTED_clean_linker_0, # of connection points: 2
#     Edge 18, Type (0, 1), BuildingBlock: XIVTED_clean_linker_0, # of connection points: 2
#     Edge 19, Type (0, 1), BuildingBlock: XIVTED_clean_linker_0, # of connection points: 2
#     Edge 20, Type (0, 1), BuildingBlock: XIVTED_clean_linker_0, # of connection points: 2
#     Edge 21, Type (0, 1), BuildingBlock: XIVTED_clean_linker_0, # of connection points: 2
#     Edge 22, Type (0, 1), BuildingBlock: XIVTED_clean_linker_0, # of connection points: 2
#     Edge 23, Type (0, 1), BuildingBlock: XIVTED_clean_linker_0, # of connection points: 2
#     Edge 24, Type (0, 1), BuildingBlock: XIVTED_clean_linker_0, # of connection points: 2
#     Edge 25, Type (0, 1), BuildingBlock: XIVTED_clean_linker_0, # of connection points: 2
#     Edge 26, Type (0, 1), BuildingBlock: XIVTED_clean_linker_0, # of connection points: 2
#     Edge 27, Type (0, 1), BuildingBlock: XIVTED_clean_linker_0, # of connection points: 2
#     Edge 28, Type (0, 1), BuildingBlock: XIVTED_clean_linker_0, # of connection points: 2
#     Edge 29, Type (0, 1), BuildingBlock: XIVTED_clean_linker_0, # of connection points: 2
#     Edge 30, Type (0, 1), BuildingBlock: XIVTED_clean_linker_0, # of connection points: 2
#     Edge 31, Type (0, 1), BuildingBlock: XIVTED_clean_linker_0, # of connection points: 2
#     Edge 32, Type (0, 1), BuildingBlock: XIVTED_clean_linker_0, # of connection points: 2
#     Edge 33, Type (0, 1), BuildingBlock: XIVTED_clean_linker_0, # of connection points: 2
#     Edge 34, Type (0, 1), BuildingBlock: XIVTED_clean_linker_0, # of connection points: 2
#     Edge 35, Type (0, 1), BuildingBlock: XIVTED_clean_linker_0, # of connection points: 2
#     Edge 36, Type (0, 1), BuildingBlock: XIVTED_clean_linker_0, # of connection points: 2
#     Edge 37, Type (0, 1), BuildingBlock: XIVTED_clean_linker_0, # of connection points: 2
#     Edge 38, Type (0, 1), BuildingBlock: XIVTED_clean_linker_0, # of connection points: 2
#     Edge 39, Type (0, 1), BuildingBlock: XIVTED_clean_linker_0, # of connection points: 2
#     Edge 40, Type (0, 1), BuildingBlock: XIVTED_clean_linker_0, # of connection points: 2
#     Edge 41, Type (0, 1), BuildingBlock: XIVTED_clean_linker_0, # of connection points: 2
#     Edge 42, Type (0, 1), BuildingBlock: XIVTED_clean_linker_0, # of connection points: 2
#     Edge 43, Type (0, 1), BuildingBlock: XIVTED_clean_linker_0, # of connection points: 2
#     Edge 44, Type (0, 1), BuildingBlock: XIVTED_clean_linker_0, # of connection points: 2
#     Edge 45, Type (0, 1), BuildingBlock: XIVTED_clean_linker_0, # of connection points: 2
#     Edge 46, Type (0, 1), BuildingBlock: XIVTED_clean_linker_0, # of connection points: 2
#     Edge 47, Type (0, 1), BuildingBlock: XIVTED_clean_linker_0, # of connection points: 2
#     Edge 48, Type (0, 1), BuildingBlock: XIVTED_clean_linker_0, # of connection points: 2
#     Edge 49, Type (0, 1), BuildingBlock: XIVTED_clean_linker_0, # of connection points: 2
#     Edge 50, Type (0, 1), BuildingBlock: XIVTED_clean_linker_0, # of connection points: 2
#     Edge 51, Type (0, 1), BuildingBlock: XIVTED_clean_linker_0, # of connection points: 2
#     Edge 52, Type (0, 1), BuildingBlock: XIVTED_clean_linker_0, # of connection points: 2
#     Edge 53, Type (0, 1), BuildingBlock: XIVTED_clean_linker_0, # of connection points: 2
#     Edge 54, Type (0, 1), BuildingBlock: XIVTED_clean_linker_0, # of connection points: 2
#     Edge 55, Type (0, 1), BuildingBlock: XIVTED_clean_linker_0, # of connection points: 2
#     Edge 56, Type (0, 1), BuildingBlock: XIVTED_clean_linker_0, # of connection points: 2
#     Edge 57, Type (0, 1), BuildingBlock: XIVTED_clean_linker_0, # of connection points: 2
#     Edge 58, Type (0, 1), BuildingBlock: XIVTED_clean_linker_0, # of connection points: 2
#     Edge 59, Type (0, 1), BuildingBlock: XIVTED_clean_linker_0, # of connection points: 2
#     Edge 60, Type (0, 1), BuildingBlock: XIVTED_clean_linker_0, # of connection points: 2
#     Edge 61, Type (0, 1), BuildingBlock: XIVTED_clean_linker_0, # of connection points: 2
# Relax obj value: 0.102
# Max RMSD: 0.211
# Mean RMSD: 0.124
data_MOF--net-ocu--node1-HISSIN_clean_sbu_0--node2-TAGTUT_clean_sbu_1--edge1-XIVTED_clean_linker_0
_symmetry_space_group_name_H-M    P1
_symmetry_Int_Tables_number       1
_symmetry_cell_setting            triclinic
loop_
_symmetry_equiv_pos_as_xyz
'x, y, z'
_cell_length_a     41.809483
_cell_length_b     40.997048
_cell_length_c     42.375841
_cell_angle_alpha  101.79044
_cell_angle_beta   81.360788
_cell_angle_gamma 113.75362
loop_
_atom_site_label
_atom_site_type_symbol
_atom_site_fract_x
_atom_site_fract_y
_atom_site_fract_z
_atom_type_partial_charge
Eu0 Eu 0.29624 0.25044 0.27728 0.0
Eu1 Eu 0.24088 0.2352 0.22096 0.0
C2 C 0.22016 0.18658 0.27756 0.0
C3 C 0.3548 0.23708 0.33001 0.0
C4 C 0.33857 0.19926 0.32561 0.0
C5 C 0.40371 0.23367 0.35194 0.0
C6 C 0.35444 0.17887 0.33492 0.0
C7 C 0.38774 0.25406 0.34266 0.0
C8 C 0.38693 0.19583 0.34879 0.0
C9 C 0.33757 0.259 0.32167 0.0
O10 O 0.23008 0.27786 0.25805 0.0
O11 O 0.26287 0.28288 0.29943 0.0
C12 C 0.23947 0.29034 0.28779 0.0
O13 O 0.32789 0.28854 0.24192 0.0
O14 O 0.18799 0.21339 0.20444 0.0
O15 O 0.23275 0.23778 0.172 0.0
O16 O 0.28395 0.28893 0.21544 0.0
C17 C 0.31704 0.30111 0.22131 0.0
O18 O 0.31107 0.21251 0.23789 0.0
O19 O 0.27147 0.19939 0.19996 0.0
O20 O 0.20937 0.20232 0.25985 0.0
O21 O 0.34879 0.2714 0.29444 0.0
O22 O 0.30349 0.24677 0.32617 0.0
O23 O 0.25367 0.19516 0.27974 0.0
C24 C 0.18051 0.24625 0.16808 0.0
C25 C 0.19873 0.282 0.16236 0.0
C26 C 0.12652 0.24895 0.15622 0.0
C27 C 0.18109 0.30079 0.15308 0.0
C28 C 0.14425 0.23006 0.16513 0.0
C29 C 0.14473 0.28445 0.14961 0.0
C30 C 0.1987 0.22541 0.17698 0.0
C31 C 0.29844 0.19621 0.2098 0.0
H32 H 0.3134 0.18547 0.31534 0.0
H33 H 0.42856 0.2477 0.3627 0.0
H34 H 0.34108 0.14977 0.33146 0.0
H35 H 0.40084 0.2832 0.34597 0.0
H36 H 0.22671 0.29536 0.16462 0.0
H37 H 0.09848 0.2356 0.15452 0.0
H38 H 0.19625 0.3278 0.14779 0.0
H39 H 0.12959 0.20264 0.16966 0.0
Eu40 Eu 0.79632 0.2289 0.25672 0.0
Eu41 Eu 0.73686 0.25555 0.24123 0.0
C42 C 0.78658 0.29936 0.29701 0.0
C43 C 0.84492 0.18318 0.28777 0.0
C44 C 0.85034 0.18979 0.32079 0.0
C45 C 0.84477 0.12328 0.28355 0.0
C46 C 0.85374 0.16364 0.33488 0.0
C47 C 0.84105 0.14928 0.2695 0.0
C48 C 0.8523 0.13079 0.316 0.0
C49 C 0.84466 0.21213 0.27246 0.0
O50 O 0.78175 0.28232 0.20727 0.0
O51 O 0.82467 0.26758 0.22168 0.0
C52 C 0.81398 0.28414 0.20479 0.0
O53 O 0.75951 0.17849 0.22758 0.0
O54 O 0.70215 0.28482 0.25481 0.0
O55 O 0.69915 0.25012 0.20837 0.0
O56 O 0.73461 0.20745 0.20435 0.0
C57 C 0.73835 0.17819 0.20755 0.0
O58 O 0.74868 0.19375 0.28219 0.0
O59 O 0.70946 0.21948 0.27941 0.0
O60 O 0.77455 0.30339 0.27192 0.0
O61 O 0.83388 0.20313 0.24334 0.0
O62 O 0.83293 0.23517 0.29094 0.0
O63 O 0.78803 0.26858 0.29888 0.0
C64 C 0.69107 0.30414 0.20986 0.0
C65 C 0.68725 0.29739 0.17648 0.0
C66 C 0.69363 0.36485 0.21219 0.0
C67 C 0.6861 0.32392 0.16125 0.0
C68 C 0.69505 0.33839 0.22742 0.0
C69 C 0.68832 0.35754 0.17916 0.0
C70 C 0.68994 0.27524 0.22629 0.0
C71 C 0.71815 0.19626 0.28988 0.0
H72 H 0.8533 0.21566 0.33546 0.0
H73 H 0.84346 0.09795 0.26871 0.0
H74 H 0.8599 0.17008 0.35992 0.0
H75 H 0.83651 0.14328 0.24407 0.0
H76 H 0.68409 0.27125 0.16226 0.0
H77 H 0.69548 0.3906 0.22645 0.0
H78 H 0.68142 0.31732 0.13582 0.0
H79 H 0.69822 0.34445 0.25313 0.0
Eu80 Eu 0.77367 0.76924 0.22124 0.0
Eu81 Eu 0.76949 0.72221 0.27818 0.0
C82 C 0.71498 0.69094 0.22411 0.0
C83 C 0.74777 0.81843 0.16981 0.0
C84 C 0.71129 0.79961 0.17382 0.0
C85 C 0.73814 0.86688 0.15328 0.0
C86 C 0.68845 0.81404 0.16694 0.0
C87 C 0.76094 0.85236 0.16001 0.0
C88 C 0.70164 0.84762 0.15612 0.0
C89 C 0.77236 0.80334 0.17613 0.0
O90 O 0.7951 0.69655 0.23614 0.0
O91 O 0.80605 0.73525 0.19941 0.0
C92 C 0.80818 0.70695 0.20802 0.0
O93 O 0.81256 0.80602 0.25719 0.0
O94 O 0.75229 0.67609 0.30386 0.0
O95 O 0.79004 0.72802 0.32407 0.0
O96 O 0.82459 0.76046 0.26755 0.0
C97 C 0.83266 0.79496 0.26926 0.0
O98 O 0.73807 0.78649 0.25968 0.0
O99 O 0.73931 0.75779 0.30074 0.0
O100 O 0.73089 0.68203 0.24326 0.0
O101 O 0.79001 0.81939 0.20161 0.0
O102 O 0.76092 0.76826 0.17298 0.0
O103 O 0.72065 0.72473 0.22411 0.0
C104 C 0.79819 0.67631 0.33034 0.0
C105 C 0.83311 0.68802 0.31711 0.0
C106 C 0.80765 0.632 0.35375 0.0
C107 C 0.85531 0.67221 0.32266 0.0
C108 C 0.78553 0.64799 0.34836 0.0
C109 C 0.8429 0.64424 0.34129 0.0
C110 C 0.77494 0.69358 0.32558 0.0
C111 C 0.72991 0.7801 0.28956 0.0
H112 H 0.7004 0.77362 0.18197 0.0
H113 H 0.7492 0.89261 0.1447 0.0
H114 H 0.66048 0.79878 0.16986 0.0
H115 H 0.78896 0.86743 0.15708 0.0
H116 H 0.84334 0.70962 0.30274 0.0
H117 H 0.79743 0.61084 0.36857 0.0
H118 H 0.88222 0.68195 0.31249 0.0
H119 H 0.75865 0.63858 0.35865 0.0
Eu120 Eu 0.28751 0.71237 0.23953 0.0
Eu121 Eu 0.2522 0.77785 0.25943 0.0
C122 C 0.22901 0.71696 0.20449 0.0
C123 C 0.34119 0.67886 0.18424 0.0
C124 C 0.34056 0.66791 0.15085 0.0
C125 C 0.40107 0.72188 0.17724 0.0
C126 C 0.37064 0.68244 0.13096 0.0
C127 C 0.37087 0.70762 0.19704 0.0
C128 C 0.40217 0.70725 0.14443 0.0
C129 C 0.30914 0.6657 0.20508 0.0
O130 O 0.21664 0.73382 0.28829 0.0
O131 O 0.2367 0.6875 0.26862 0.0
C132 C 0.21454 0.70043 0.2866 0.0
O133 O 0.31688 0.73513 0.28514 0.0
O134 O 0.22559 0.81445 0.26275 0.0
O135 O 0.26288 0.82404 0.29803 0.0
O136 O 0.2884 0.76845 0.28393 0.0
C137 C 0.30996 0.76296 0.29859 0.0
O138 O 0.32898 0.76406 0.22392 0.0
O139 O 0.29639 0.79819 0.22173 0.0
O140 O 0.21441 0.73522 0.22618 0.0
O141 O 0.31298 0.67454 0.23609 0.0
O142 O 0.28305 0.6711 0.19691 0.0
O143 O 0.26287 0.72669 0.20371 0.0
C144 C 0.20616 0.81956 0.3173 0.0
C145 C 0.20691 0.80181 0.34224 0.0
C146 C 0.14451 0.80501 0.33088 0.0
C147 C 0.17681 0.78684 0.36203 0.0
C148 C 0.17464 0.82054 0.31164 0.0
C149 C 0.14551 0.78982 0.35773 0.0
C150 C 0.23502 0.82825 0.2923 0.0
C151 C 0.32526 0.79152 0.2152 0.0
H152 H 0.31715 0.64757 0.14028 0.0
H153 H 0.42465 0.74129 0.18815 0.0
H154 H 0.36996 0.67099 0.10556 0.0
H155 H 0.37127 0.71851 0.22259 0.0
H156 H 0.23058 0.79901 0.34634 0.0
H157 H 0.12113 0.80749 0.32568 0.0
H158 H 0.17855 0.77495 0.382 0.0
H159 H 0.17308 0.83258 0.29168 0.0
Eu160 Eu 0.29568 0.7205 0.7497 0.0
Eu161 Eu 0.24467 0.76713 0.75289 0.0
C162 C 0.30842 0.79636 0.79675 0.0
C163 C 0.33891 0.66611 0.7758 0.0
C164 C 0.34666 0.68204 0.80789 0.0
C165 C 0.33871 0.61016 0.78682 0.0
C166 C 0.35151 0.66252 0.82888 0.0
C167 C 0.33412 0.62979 0.76575 0.0
C168 C 0.34858 0.62664 0.81829 0.0
C169 C 0.3362 0.68694 0.75245 0.0
O170 O 0.28845 0.79118 0.71673 0.0
O171 O 0.32326 0.75853 0.71395 0.0
C172 C 0.31634 0.784 0.70564 0.0
O173 O 0.25169 0.68454 0.71823 0.0
O174 O 0.22999 0.81377 0.76735 0.0
O175 O 0.19599 0.76528 0.73869 0.0
O176 O 0.24041 0.73025 0.70588 0.0
C177 C 0.23618 0.69632 0.70117 0.0
O178 O 0.25359 0.69768 0.78694 0.0
O179 O 0.21707 0.72793 0.78842 0.0
O180 O 0.28924 0.8057 0.78164 0.0
O181 O 0.30821 0.67239 0.7364 0.0
O182 O 0.34495 0.72156 0.76178 0.0
O183 O 0.30561 0.76287 0.79363 0.0
C184 C 0.2021 0.82152 0.72632 0.0
C185 C 0.18897 0.80525 0.69586 0.0
C186 C 0.21076 0.88005 0.71403 0.0
C187 C 0.18596 0.82607 0.6751 0.0
C188 C 0.21363 0.85918 0.73489 0.0
C189 C 0.19599 0.86361 0.68429 0.0
C190 C 0.20346 0.79954 0.74935 0.0
C191 C 0.22491 0.70336 0.79755 0.0
H192 H 0.35003 0.7099 0.81656 0.0
H193 H 0.33556 0.58238 0.77811 0.0
H194 H 0.35937 0.67623 0.85284 0.0
H195 H 0.32761 0.61679 0.7413 0.0
H196 H 0.18007 0.77631 0.68834 0.0
H197 H 0.21921 0.90894 0.7216 0.0
H198 H 0.17404 0.81239 0.65257 0.0
H199 H 0.2242 0.87247 0.75806 0.0
Eu200 Eu 0.26249 0.25901 0.71777 0.0
Eu201 Eu 0.26397 0.21594 0.7758 0.0
C202 C 0.20336 0.182 0.72701 0.0
C203 C 0.23587 0.30863 0.6661 0.0
C204 C 0.19907 0.29298 0.66616 0.0
C205 C 0.23508 0.36371 0.65388 0.0
C206 C 0.18058 0.31231 0.65943 0.0
C207 C 0.25354 0.34437 0.66048 0.0
C208 C 0.19847 0.34762 0.65244 0.0
C209 C 0.2563 0.28795 0.67082 0.0
O210 O 0.29105 0.19159 0.73409 0.0
O211 O 0.29825 0.22845 0.6968 0.0
C212 C 0.30327 0.20197 0.70588 0.0
O213 O 0.29703 0.30134 0.75456 0.0
O214 O 0.24891 0.17125 0.80312 0.0
O215 O 0.28919 0.22302 0.81943 0.0
O216 O 0.31553 0.26111 0.76685 0.0
C217 C 0.31816 0.29438 0.76944 0.0
O218 O 0.23158 0.28003 0.75846 0.0
O219 O 0.2311 0.24907 0.79865 0.0
O220 O 0.22383 0.17437 0.74237 0.0
O221 O 0.28108 0.30412 0.69072 0.0
O222 O 0.23889 0.25404 0.67367 0.0
O223 O 0.20944 0.21533 0.72481 0.0
C224 C 0.29637 0.17109 0.8277 0.0
C225 C 0.33205 0.1834 0.81661 0.0
C226 C 0.30401 0.12569 0.85136 0.0
C227 C 0.35364 0.16738 0.82342 0.0
C228 C 0.28251 0.14184 0.8447 0.0
C229 C 0.33997 0.13861 0.84127 0.0
C230 C 0.27361 0.18916 0.82286 0.0
C231 C 0.22277 0.27264 0.78805 0.0
H232 H 0.18456 0.2655 0.67056 0.0
H233 H 0.24961 0.39101 0.64901 0.0
H234 H 0.15247 0.29892 0.65815 0.0
H235 H 0.28183 0.35713 0.66049 0.0
H236 H 0.34341 0.20576 0.80313 0.0
H237 H 0.29264 0.10395 0.86552 0.0
H238 H 0.3811 0.17773 0.81494 0.0
H239 H 0.25513 0.13194 0.85349 0.0
Eu240 Eu 0.7866 0.20846 0.74381 0.0
Eu241 Eu 0.75079 0.27348 0.75447 0.0
C242 C 0.72216 0.21187 0.70768 0.0
C243 C 0.83783 0.17015 0.69293 0.0
C244 C 0.83639 0.17736 0.66214 0.0
C245 C 0.90094 0.19751 0.68657 0.0
C246 C 0.86726 0.19179 0.64297 0.0
C247 C 0.87052 0.1824 0.70557 0.0
C248 C 0.89904 0.19528 0.65335 0.0
C249 C 0.80626 0.1591 0.71485 0.0
O250 O 0.71879 0.23214 0.78788 0.0
O251 O 0.73763 0.18422 0.7744 0.0
C252 C 0.7165 0.19957 0.79042 0.0
O253 O 0.80332 0.23967 0.79224 0.0
O254 O 0.72465 0.30852 0.74985 0.0
O255 O 0.75929 0.32358 0.78836 0.0
O256 O 0.8029 0.28783 0.77427 0.0
C257 C 0.80694 0.27355 0.79772 0.0
O258 O 0.82518 0.25381 0.71661 0.0
O259 O 0.78901 0.28265 0.71082 0.0
O260 O 0.71314 0.23917 0.7151 0.0
O261 O 0.81155 0.17176 0.74556 0.0
O262 O 0.77908 0.16214 0.70574 0.0
O263 O 0.74646 0.21676 0.72523 0.0
C264 C 0.70113 0.31664 0.80231 0.0
C265 C 0.6985 0.29524 0.82543 0.0
C266 C 0.63918 0.3031 0.81199 0.0
C267 C 0.66656 0.27815 0.84183 0.0
C268 C 0.67111 0.31981 0.79532 0.0
C269 C 0.63671 0.28378 0.8371 0.0
C270 C 0.73167 0.32531 0.7792 0.0
C271 C 0.81808 0.2765 0.70314 0.0
H272 H 0.81163 0.17108 0.6525 0.0
H273 H 0.92548 0.20369 0.69655 0.0
H274 H 0.8654 0.19281 0.61797 0.0
H275 H 0.87278 0.18009 0.73008 0.0
H276 H 0.72097 0.29073 0.83036 0.0
H277 H 0.61701 0.30734 0.80611 0.0
H278 H 0.66584 0.2625 0.85982 0.0
H279 H 0.67216 0.33434 0.77624 0.0
Eu280 Eu 0.799 0.75418 0.77594 0.0
Eu281 Eu 0.73672 0.72897 0.72392 0.0
C282 C 0.72229 0.68844 0.78385 0.0
C283 C 0.86098 0.74245 0.82616 0.0
C284 C 0.8442 0.70466 0.82117 0.0
C285 C 0.90777 0.73737 0.8503 0.0
C286 C 0.85881 0.68343 0.83112 0.0
C287 C 0.89311 0.75857 0.84032 0.0
C288 C 0.89057 0.69949 0.84632 0.0
C289 C 0.84521 0.76516 0.81672 0.0
O290 O 0.72207 0.763 0.76848 0.0
O291 O 0.77467 0.7963 0.79128 0.0
C292 C 0.74157 0.79016 0.78877 0.0
O293 O 0.82546 0.79063 0.73882 0.0
O294 O 0.6816 0.71305 0.71547 0.0
O295 O 0.72087 0.72168 0.67529 0.0
O296 O 0.77787 0.78192 0.71196 0.0
C297 C 0.81142 0.79809 0.71697 0.0
O298 O 0.80594 0.70783 0.74003 0.0
O299 O 0.77165 0.69955 0.69887 0.0
O300 O 0.71817 0.68304 0.75281 0.0
O301 O 0.85352 0.77231 0.78735 0.0
O302 O 0.8119 0.75702 0.82482 0.0
O303 O 0.74807 0.71654 0.79717 0.0
C304 C 0.67305 0.73843 0.67355 0.0
C305 C 0.6939 0.77325 0.66663 0.0
C306 C 0.62204 0.74491 0.65881 0.0
C307 C 0.67902 0.79352 0.65551 0.0
C308 C 0.63701 0.72456 0.66967 0.0
C309 C 0.64284 0.77963 0.65131 0.0
C310 C 0.68833 0.71645 0.68503 0.0
C311 C 0.79629 0.69402 0.7104 0.0
H312 H 0.81961 0.69157 0.80982 0.0
H313 H 0.93201 0.75086 0.86212 0.0
H314 H 0.8451 0.65439 0.82696 0.0
H315 H 0.90662 0.78767 0.84417 0.0
H316 H 0.72178 0.78474 0.66959 0.0
H317 H 0.59405 0.73342 0.65656 0.0
H318 H 0.69612 0.81981 0.6496 0.0
H319 H 0.62037 0.6979 0.67511 0.0
C320 C 0.92457 0.0399 0.52918 0.0
C321 C 0.9684 0.02992 0.43337 0.0
C322 C 0.9644 0.91297 0.4637 0.0
Mg323 Mg 0.9975 0.06184 0.49758 0.0
O324 O 0.98206 0.01587 0.51076 0.0
Mg325 Mg 0.94053 0.97516 0.49003 0.0
Mg326 Mg 1.01649 -0.00673 0.49873 0.0
O327 O 0.0518 0.97215 0.48845 0.0
Mg328 Mg 0.03268 0.91958 0.48765 0.0
Mg329 Mg 0.09729 0.01554 0.50674 0.0
C330 C 0.06094 0.07089 0.53835 0.0
C331 C 0.07718 0.04354 0.44906 0.0
O332 O 0.90811 0.00719 0.51659 0.0
O333 O 0.94563 0.06229 0.51118 0.0
O334 O 0.9489 0.0036 0.44785 0.0
O335 O 0.99597 0.05443 0.44551 0.0
O336 O 0.0441 0.08648 0.52794 0.0
O337 O 0.05437 0.03716 0.52985 0.0
C338 C 0.95686 0.94569 0.54862 0.0
O339 O 0.98987 0.96099 0.54144 0.0
O340 O 0.93421 0.94767 0.53275 0.0
O341 O 0.08031 0.96573 0.46765 0.0
O342 O 0.05927 0.91155 0.44156 0.0
O343 O 0.09214 0.97973 0.54483 0.0
C344 C 0.08028 0.94417 0.44114 0.0
O345 O 0.05718 0.92096 0.52995 0.0
O346 O 0.9786 0.89643 0.47583 0.0
C347 C 0.07871 0.94642 0.54885 0.0
O348 O 0.97711 0.94734 0.46656 0.0
O349 O 0.04431 0.02578 0.45557 0.0
O350 O 0.10052 0.04505 0.46624 0.0
C351 C 0.44037 0.06704 0.06479 0.0
C352 C 0.46982 0.05469 0.96335 0.0
C353 C 0.45861 0.9226 0.97134 0.0
Mg354 Mg 0.5113 0.07361 0.02378 0.0
O355 O 0.4947 0.02451 0.02738 0.0
Mg356 Mg 0.4462 -0.00672 0.01391 0.0
Mg357 Mg 0.52099 -0.00526 0.00143 0.0
O358 O 0.54722 0.96514 0.97481 0.0
Mg359 Mg 0.53157 0.91603 0.97757 0.0
Mg360 Mg 0.59601 -0.00387 0.98738 0.0
C361 C 0.5822 0.0654 0.03691 0.0
C362 C 0.57159 0.03842 0.94457 0.0
O363 O 0.42626 0.03395 0.05098 0.0
O364 O 0.47288 0.08651 0.059 0.0
O365 O 0.44991 0.0257 0.97427 0.0
O366 O 0.49771 0.07664 0.97688 0.0
O367 O 0.56455 0.08518 0.03738 0.0
O368 O 0.57054 0.03177 0.02467 0.0
C369 C 0.46953 0.95184 0.05853 0.0
O370 O 0.49982 0.96005 0.0428 0.0
O371 O 0.44592 0.96161 0.05229 0.0
O372 O 0.61537 0.9555 0.94804 0.0
O373 O 0.56915 0.90243 0.94162 0.0
O374 O 0.59314 0.96295 0.02616 0.0
C375 C 0.60133 0.92212 0.93466 0.0
O376 O 0.54481 0.91257 0.02346 0.0
O377 O 0.47683 0.90327 0.96982 0.0
C378 C 0.57276 0.93398 0.03688 0.0
O379 O 0.47162 0.95708 0.97895 0.0
O380 O 0.54146 0.02958 0.96046 0.0
O381 O 0.59553 0.02877 0.95009 0.0
C382 C 0.94295 0.57018 0.06342 0.0
C383 C 0.97775 0.56577 0.96428 0.0
C384 C 0.95087 0.42295 0.9651 0.0
Mg385 Mg 1.01368 0.57227 0.02491 0.0
O386 O 0.99197 0.52217 0.0242 0.0
Mg387 Mg 0.94395 0.49666 0.0084 0.0
Mg388 Mg 1.01577 0.49014 0.99853 0.0
O389 O 0.03996 0.4581 0.97315 0.0
Mg390 Mg 0.02003 0.40807 0.97115 0.0
Mg391 Mg 0.08753 0.48334 0.99028 0.0
C392 C 0.07796 0.55417 0.0395 0.0
C393 C 0.07427 0.53277 0.94577 0.0
O394 O 0.92702 0.53815 0.04804 0.0
O395 O 0.97617 0.58735 0.05909 0.0
O396 O 0.95486 0.53608 0.97222 0.0
O397 O 1.00565 0.58334 0.97925 0.0
O398 O 0.06375 0.57711 0.04058 0.0
O399 O 0.06384 0.52102 0.02641 0.0
C400 C 0.95774 0.44584 0.05008 0.0
O401 O 0.98891 0.45347 0.03669 0.0
O402 O 0.93666 0.45875 0.04353 0.0
O403 O 0.10564 0.44206 0.95144 0.0
O404 O 0.05706 0.39491 0.93454 0.0
O405 O 0.07684 0.44519 0.02741 0.0
C406 C 0.09049 0.41176 0.9331 0.0
O407 O 0.02878 0.39603 0.01558 0.0
O408 O 0.96711 0.40173 0.96356 0.0
C409 C 0.05445 0.41434 0.03313 0.0
O410 O 0.96608 0.45762 0.97195 0.0
O411 O 0.04343 0.52709 0.95972 0.0
O412 O 0.09441 0.51933 0.95341 0.0
C413 C 0.40576 0.50484 0.05057 0.0
C414 C 0.45534 0.54142 0.96315 0.0
C415 C 0.47681 0.41462 0.94591 0.0
Mg416 Mg 0.48019 0.54714 0.03243 0.0
O417 O 0.47901 0.50243 0.01333 0.0
Mg418 Mg 0.43963 0.4654 0.98862 0.0
Mg419 Mg 0.5165 0.48695 0.99709 0.0
O420 O 0.55456 0.4716 0.9799 0.0
Mg421 Mg 0.54572 0.42284 0.97599 0.0
Mg422 Mg 0.59379 0.51061 0.00475 0.0
C423 C 0.55473 0.5577 0.05222 0.0
C424 C 0.57289 0.54702 0.95435 0.0
O425 O 0.40134 0.48691 0.02196 0.0
O426 O 0.43578 0.51805 0.06182 0.0
O427 O 0.44723 0.50721 0.95734 0.0
O428 O 0.46682 0.56101 0.9901 0.0
O429 O 0.53158 0.5714 0.05421 0.0
O430 O 0.55131 0.52745 0.03472 0.0
C431 C 0.4578 0.42685 0.03904 0.0
O432 O 0.4908 0.44538 0.03399 0.0
O433 O 0.43524 0.42915 0.02327 0.0
O434 O 0.63044 0.49025 0.96832 0.0
O435 O 0.59369 0.43443 0.94737 0.0
O436 O 0.58975 0.47268 0.03929 0.0
C437 C 0.62307 0.46164 0.94712 0.0
O438 O 0.55418 0.4155 0.02289 0.0
O439 O 0.49691 0.39889 0.94944 0.0
C440 C 0.57433 0.43974 0.04334 0.0
O441 O 0.48186 0.44677 0.95971 0.0
O442 O 0.54048 0.52754 0.96017 0.0
O443 O 0.59677 0.54651 0.9695 0.0
C444 C 0.93573 0.56456 0.55948 0.0
C445 C 0.96809 0.55326 0.45745 0.0
C446 C 0.95412 0.42201 0.45736 0.0
Mg447 Mg 1.00649 0.57025 0.51905 0.0
O448 O 0.98952 0.5209 0.5216 0.0
Mg449 Mg 0.94134 0.491 0.50676 0.0
Mg450 Mg 1.01553 0.49057 0.49604 0.0
O451 O 0.04129 0.46042 0.47005 0.0
Mg452 Mg 0.0235 0.41017 0.46885 0.0
Mg453 Mg 0.08959 0.49043 0.48429 0.0
C454 C 0.07774 0.5613 0.52883 0.0
C455 C 0.06941 0.53445 0.44003 0.0
O456 O 0.9215 0.532 0.5444 0.0
O457 O 0.96854 0.58367 0.55473 0.0
O458 O 0.94729 0.52402 0.46742 0.0
O459 O 0.99499 0.57494 0.47237 0.0
O460 O 0.06024 0.58112 0.52922 0.0
O461 O 0.06466 0.52685 0.52041 0.0
C462 C 0.96139 0.44744 0.55223 0.0
O463 O 0.99192 0.45449 0.537 0.0
O464 O 0.93927 0.45872 0.54512 0.0
O465 O 0.10953 0.45034 0.44664 0.0
O466 O 0.06289 0.39894 0.43348 0.0
O467 O 0.08345 0.45533 0.52193 0.0
C468 C 0.09577 0.4184 0.43047 0.0
O469 O 0.03639 0.40352 0.51489 0.0
O470 O 0.97069 0.40073 0.45425 0.0
C471 C 0.06308 0.4251 0.53038 0.0
O472 O 0.96685 0.45489 0.47131 0.0
O473 O 0.03897 0.52665 0.45543 0.0
O474 O 0.09212 0.52353 0.44633 0.0
C475 C 0.44565 0.07158 0.56375 0.0
C476 C 0.48027 0.06656 0.46439 0.0
C477 C 0.45484 0.92479 0.46427 0.0
Mg478 Mg 0.5163 0.07414 0.52499 0.0
O479 O 0.49503 0.02406 0.5253 0.0
Mg480 Mg 0.44723 -0.00185 0.50872 0.0
Mg481 Mg 0.51901 -0.00804 0.50032 0.0
O482 O 0.54329 0.96 0.47559 0.0
Mg483 Mg 0.52315 0.90996 0.47291 0.0
Mg484 Mg 0.59074 0.98518 0.49274 0.0
C485 C 0.58317 0.05834 0.537 0.0
C486 C 0.5775 0.03396 0.44764 0.0
O487 O 0.43021 0.03954 0.54815 0.0
O488 O 0.47883 0.08933 0.5596 0.0
O489 O 0.45786 0.03684 0.4725 0.0
O490 O 0.50793 0.08482 0.47945 0.0
O491 O 0.56838 0.08055 0.5369 0.0
O492 O 0.56781 0.02405 0.5281 0.0
C493 C 0.45973 0.94704 0.55079 0.0
O494 O 0.49142 0.95499 0.53859 0.0
O495 O 0.43938 0.96039 0.54355 0.0
O496 O 0.60871 0.94396 0.45411 0.0
O497 O 0.56028 0.89716 0.43648 0.0
O498 O 0.5796 0.94638 0.52991 0.0
C499 C 0.59367 0.91395 0.43542 0.0
O500 O 0.53156 0.89739 0.51722 0.0
O501 O 0.47086 0.9035 0.4633 0.0
C502 C 0.55713 0.91524 0.53501 0.0
O503 O 0.4697 0.95932 0.47256 0.0
O504 O 0.54662 0.02829 0.4614 0.0
O505 O 0.59774 0.02088 0.45568 0.0
H506 H 0.15326 0.18117 0.29961 0.0
H507 H 0.12367 0.02804 0.40433 0.0
H508 H 0.22777 0.13359 0.30216 0.0
H509 H 0.06199 0.09351 0.42488 0.0
H510 H 0.15424 0.05849 0.35851 0.0
H511 H 0.11303 0.14245 0.33777 0.0
C512 C 0.16094 0.16218 0.30776 0.0
C513 C 0.19403 0.16066 0.2977 0.0
C514 C 0.13381 0.06609 0.37271 0.0
C515 C 0.14804 0.11626 0.34118 0.0
C516 C 0.11618 0.04854 0.3988 0.0
C517 C 0.09029 0.05828 0.41843 0.0
C518 C 0.12591 0.09408 0.36615 0.0
C519 C 0.08156 0.08497 0.41015 0.0
C520 C 0.13803 0.14027 0.32967 0.0
C521 C 0.20268 0.13583 0.30932 0.0
N522 N 0.09967 0.10232 0.38476 0.0
N523 N 0.17988 0.11469 0.33035 0.0
H524 H 0.90337 0.10725 0.28848 0.0
H525 H 0.90028 0.01854 0.43911 0.0
H526 H 0.83056 0.10352 0.3727 0.0
H527 H 0.99503 0.06189 0.37804 0.0
H528 H 0.8692 0.03697 0.40729 0.0
H529 H 0.93119 0.07765 0.31356 0.0
C530 C 0.89275 0.09934 0.31193 0.0
C531 C 0.86467 0.10757 0.32864 0.0
C532 C 0.89663 0.04209 0.40049 0.0
C533 C 0.89645 0.07443 0.35732 0.0
C534 C 0.91449 0.03129 0.41842 0.0
C535 C 0.95037 0.03838 0.41091 0.0
C536 C 0.91449 0.05993 0.37452 0.0
C537 C 0.9674 0.05586 0.38444 0.0
C538 C 0.90887 0.08293 0.32629 0.0
C539 C 0.8522 0.09755 0.35916 0.0
N540 N 0.94916 0.06606 0.36696 0.0
N541 N 0.86829 0.08149 0.37262 0.0
H542 H 0.89009 0.78736 0.28353 0.0
H543 H 0.91413 0.93126 0.44549 0.0
H544 H 0.83253 0.85701 0.30819 0.0
H545 H 0.95711 0.8489 0.42523 0.0
H546 H 0.88539 0.9068 0.39504 0.0
H547 H 0.92077 0.81596 0.33264 0.0
C548 C 0.88459 0.80935 0.29895 0.0
C549 C 0.85845 0.81952 0.29217 0.0
C550 C 0.90084 0.89389 0.4018 0.0
C551 C 0.89238 0.85141 0.34894 0.0
C552 C 0.91706 0.90768 0.43079 0.0
C553 C 0.93853 0.89248 0.43946 0.0
C554 C 0.90648 0.86493 0.3812 0.0
C555 C 0.94083 0.86152 0.41958 0.0
C556 C 0.90171 0.82532 0.32721 0.0
C557 C 0.85246 0.84833 0.31269 0.0
N558 N 0.92548 0.84912 0.39113 0.0
N559 N 0.8689 0.86293 0.34057 0.0
H560 H 0.15404 0.8077 0.42443 0.0
H561 H 0.07798 0.93611 0.37406 0.0
H562 H 0.07112 0.7712 0.36259 0.0
H563 H 0.15241 0.97183 0.44449 0.0
H564 H 0.08568 0.87861 0.35949 0.0
H565 H 0.15348 0.86809 0.43455 0.0
C566 C 0.13484 0.8122 0.41324 0.0
C567 C 0.11912 0.7888 0.38575 0.0
C568 C 0.10071 0.89903 0.3781 0.0
C569 C 0.11467 0.85436 0.39979 0.0
C570 C 0.09734 0.93232 0.38568 0.0
C571 C 0.10846 0.95315 0.41555 0.0
C572 C 0.12 0.89155 0.3982 0.0
C573 C 0.13828 0.95179 0.42517 0.0
C574 C 0.1354 0.84706 0.41838 0.0
C575 C 0.0888 0.79213 0.37913 0.0
N576 N 0.14101 0.9192 0.4191 0.0
N577 N 0.08941 0.82612 0.38304 0.0
H578 H 0.17041 0.91689 0.70574 0.0
H579 H 0.08716 0.88342 0.54332 0.0
H580 H 0.20026 0.85736 0.61812 0.0
H581 H 0.10844 0.98633 0.6054 0.0
H582 H 0.12205 0.86944 0.57553 0.0
H583 H 0.14439 0.94155 0.67344 0.0
C584 C 0.17234 0.90968 0.67968 0.0
C585 C 0.18699 0.88441 0.66467 0.0
C586 C 0.11896 0.89503 0.58221 0.0
C587 C 0.15632 0.91169 0.62796 0.0
C588 C 0.09853 0.90279 0.56419 0.0
C589 C 0.0946 0.93595 0.57188 0.0
C590 C 0.13503 0.9202 0.6086 0.0
C591 C 0.11068 0.96034 0.59882 0.0
C592 C 0.15725 0.92362 0.66135 0.0
C593 C 0.18836 0.87589 0.63082 0.0
N594 N 0.13007 0.95185 0.6165 0.0
N595 N 0.17258 0.88897 0.61365 0.0
H596 H 0.21089 0.12758 0.68122 0.0
H597 H 0.04922 0.11515 0.59206 0.0
H598 H 0.13661 0.17527 0.72444 0.0
H599 H 0.12292 0.06711 0.5475 0.0
H600 H 0.07909 0.13417 0.64204 0.0
H601 H 0.17507 0.09825 0.63471 0.0
C602 C 0.18623 0.13056 0.68155 0.0
C603 C 0.1766 0.15385 0.7066 0.0
C604 C 0.08898 0.11972 0.62126 0.0
C605 C 0.13632 0.12174 0.65313 0.0
C606 C 0.07227 0.10944 0.59251 0.0
C607 C 0.08377 0.0898 0.56542 0.0
C608 C 0.11768 0.11063 0.62294 0.0
C609 C 0.11316 0.08218 0.56776 0.0
C610 C 0.16613 0.11441 0.65473 0.0
C611 C 0.14488 0.15751 0.70553 0.0
N612 N 0.12913 0.09264 0.59594 0.0
N613 N 0.12614 0.14207 0.67907 0.0
H614 H 0.96886 0.2055 0.65218 0.0
H615 H 0.88321 0.01183 0.58152 0.0
H616 H 0.87236 0.13485 0.60863 0.0
H617 H 0.98877 0.079 0.55329 0.0
H618 H 0.89281 0.04393 0.63682 0.0
H619 H 0.98441 0.15278 0.64793 0.0
C620 C 0.95139 0.17928 0.64109 0.0
C621 C 0.91822 0.17441 0.63281 0.0
C622 C 0.91473 0.04996 0.6187 0.0
C623 C 0.93477 0.11478 0.62994 0.0
C624 C 0.90883 0.03221 0.58699 0.0
C625 C 0.93424 0.0456 0.56231 0.0
C626 C 0.94382 0.083 0.6233 0.0
C627 C 0.96765 0.06999 0.57108 0.0
C628 C 0.95952 0.14926 0.64021 0.0
C629 C 0.89744 0.14023 0.6171 0.0
N630 N 0.97199 0.08767 0.60168 0.0
N631 N 0.9056 0.11169 0.6171 0.0
H632 H 0.79805 0.8005 0.65707 0.0
H633 H 0.97669 0.95889 0.61119 0.0
H634 H 0.87843 0.85048 0.72467 0.0
H635 H 0.90528 0.88011 0.54352 0.0
H636 H 0.94356 0.92314 0.65455 0.0
H637 H 0.83771 0.83477 0.61709 0.0
C638 C 0.82395 0.81915 0.66373 0.0
C639 C 0.83477 0.82263 0.69439 0.0
C640 C 0.93564 0.91355 0.63006 0.0
C641 C 0.88105 0.86216 0.64807 0.0
C642 C 0.9546 0.93375 0.60539 0.0
C643 C 0.9432 0.92257 0.57398 0.0
C644 C 0.90534 0.88234 0.62289 0.0
C645 C 0.91449 0.88998 0.56757 0.0
C646 C 0.84689 0.8385 0.64065 0.0
C647 C 0.86902 0.847 0.70128 0.0
N648 N 0.89648 0.87132 0.59176 0.0
N649 N 0.89102 0.86607 0.67829 0.0
H650 H 0.27657 0.14545 0.15474 0.0
H651 H 0.46227 0.12709 0.11101 0.0
H652 H 0.36383 0.19907 0.21471 0.0
H653 H 0.36851 0.04685 0.06935 0.0
H654 H 0.4269 0.15732 0.14557 0.0
H655 H 0.31003 0.11251 0.11949 0.0
C656 C 0.3026 0.15026 0.16059 0.0
C657 C 0.31715 0.17491 0.18801 0.0
C658 C 0.41395 0.13301 0.12899 0.0
C659 C 0.3557 0.13776 0.14755 0.0
C660 C 0.43419 0.1157 0.10917 0.0
C661 C 0.41842 0.0842 0.08723 0.0
C662 C 0.37754 0.11923 0.12673 0.0
C663 C 0.3818 0.07085 0.08607 0.0
C664 C 0.32164 0.1314 0.1405 0.0
C665 C 0.35117 0.18012 0.19418 0.0
N666 N 0.36263 0.08856 0.10535 0.0
N667 N 0.36919 0.16195 0.17412 0.0
H668 H 0.88255 0.32874 0.21221 0.0
H669 H 0.907 0.38088 0.03605 0.0
H670 H 0.80253 0.28724 0.14459 0.0
H671 H 0.97611 0.44799 0.11014 0.0
H672 H 0.87604 0.33719 0.07258 0.0
H673 H 0.92343 0.36536 0.17277 0.0
C674 C 0.87381 0.32717 0.18894 0.0
C675 C 0.83925 0.30534 0.18148 0.0
C676 C 0.89813 0.36128 0.0809 0.0
C677 C 0.88553 0.34604 0.13653 0.0
C678 C 0.9158 0.38601 0.06003 0.0
C679 C 0.9436 0.41785 0.07051 0.0
C680 C 0.90798 0.36887 0.11265 0.0
C681 C 0.95451 0.42355 0.10154 0.0
C682 C 0.89701 0.34798 0.16659 0.0
C683 C 0.82889 0.30411 0.15127 0.0
N684 N 0.93623 0.39939 0.12192 0.0
N685 N 0.852 0.32411 0.12985 0.0
H686 H 0.70497 0.9174 0.16602 0.0
H687 H 0.54913 0.86662 0.05319 0.0
H688 H 0.64414 0.80917 0.12149 0.0
H689 H 0.62438 0.97538 0.0779 0.0
H690 H 0.57639 0.84614 0.08785 0.0
H691 H 0.66891 0.93976 0.14282 0.0
C692 C 0.68392 0.89832 0.15156 0.0
C693 C 0.67774 0.86135 0.14552 0.0
C694 C 0.58667 0.87457 0.08604 0.0
C695 C 0.63631 0.88671 0.1192 0.0
C696 C 0.57092 0.88635 0.06643 0.0
C697 C 0.58467 0.92272 0.0624 0.0
C698 C 0.61625 0.89933 0.10192 0.0
C699 C 0.61313 0.94701 0.08008 0.0
C700 C 0.66331 0.91109 0.13844 0.0
C701 C 0.64971 0.83781 0.12708 0.0
N702 N 0.62819 0.93482 0.09889 0.0
N703 N 0.63025 0.85092 0.1144 0.0
H704 H 0.25348 0.69342 0.14525 0.0
H705 H 0.06854 0.53931 0.09994 0.0
H706 H 0.1602 0.67094 0.21052 0.0
H707 H 0.14791 0.59421 0.03029 0.0
H708 H 0.10876 0.5722 0.14277 0.0
H709 H 0.22097 0.64288 0.10559 0.0
C710 C 0.22608 0.67778 0.15119 0.0
C711 C 0.20907 0.68689 0.18067 0.0
C712 C 0.11771 0.57622 0.11798 0.0
C713 C 0.17213 0.62864 0.1358 0.0
C714 C 0.09501 0.55728 0.09356 0.0
C715 C 0.10521 0.56433 0.06176 0.0
C716 C 0.15074 0.60212 0.11027 0.0
C717 C 0.13932 0.58813 0.05458 0.0
C718 C 0.20769 0.64884 0.12866 0.0
C719 C 0.17383 0.66536 0.18753 0.0
N720 N 0.16088 0.60649 0.07877 0.0
N721 N 0.15636 0.63719 0.1651 0.0
H722 H 0.30555 0.8606 0.8305 0.0
H723 H 0.4203 0.85061 0.95711 0.0
H724 H 0.36464 0.79265 0.81672 0.0
H725 H 0.41966 0.9546 0.95237 0.0
H726 H 0.38087 0.82365 0.91403 0.0
H727 H 0.33648 0.89457 0.87957 0.0
C728 C 0.32528 0.85321 0.83754 0.0
C729 C 0.33143 0.82275 0.82076 0.0
C730 C 0.38897 0.85234 0.9228 0.0
C731 C 0.36538 0.86016 0.87615 0.0
C732 C 0.4111 0.86767 0.94765 0.0
C733 C 0.42467 0.90516 0.95704 0.0
C734 C 0.38027 0.87465 0.90756 0.0
C735 C 0.41075 0.92571 0.94486 0.0
C736 C 0.34258 0.87232 0.86546 0.0
C737 C 0.35792 0.81487 0.82997 0.0
N738 N 0.38986 0.91031 0.91984 0.0
N739 N 0.37343 0.833 0.85744 0.0
H740 H 0.21887 0.28724 0.8548 0.0
H741 H 0.08053 0.37968 0.87017 0.0
H742 H 0.1831 0.30505 0.7719 0.0
H743 H 0.14859 0.40282 0.94571 0.0
H744 H 0.11354 0.34664 0.835 0.0
H745 H 0.18863 0.32335 0.89011 0.0
C746 C 0.20442 0.29839 0.84403 0.0
C747 C 0.20332 0.29277 0.81028 0.0
C748 C 0.12142 0.35911 0.8592 0.0
C749 C 0.16869 0.33407 0.85055 0.0
C750 C 0.1026 0.37797 0.87925 0.0
C751 C 0.11208 0.39432 0.91077 0.0
C752 C 0.14931 0.3555 0.87103 0.0
C753 C 0.14075 0.39104 0.9214 0.0
C754 C 0.18744 0.31926 0.86418 0.0
C755 C 0.18465 0.30849 0.79772 0.0
N756 N 0.15809 0.37164 0.90175 0.0
N757 N 0.16792 0.32809 0.81779 0.0
H758 H 0.69894 0.22166 0.85339 0.0
H759 H 0.56527 0.02235 0.87952 0.0
H760 H 0.67204 0.12968 0.7774 0.0
H761 H 0.60207 0.11091 0.95728 0.0
H762 H 0.59522 0.06404 0.84045 0.0
H763 H 0.65598 0.18405 0.89083 0.0
C764 C 0.68338 0.19372 0.84454 0.0
C765 C 0.68866 0.17863 0.81243 0.0
C766 C 0.59622 0.07453 0.86606 0.0
C767 C 0.6398 0.13549 0.85476 0.0
C768 C 0.57884 0.05082 0.88824 0.0
C769 C 0.58114 0.06355 0.92142 0.0
C770 C 0.61637 0.11095 0.87733 0.0
C771 C 0.59954 0.10038 0.93177 0.0
C772 C 0.65908 0.1722 0.86585 0.0
C773 C 0.66861 0.14214 0.80211 0.0
N774 N 0.61681 0.12278 0.90979 0.0
N775 N 0.64506 0.12178 0.82321 0.0
H776 H 0.85364 0.63905 0.87474 0.0
H777 H 0.01865 0.6274 0.93766 0.0
H778 H 0.95967 0.70879 0.84876 0.0
H779 H 0.91501 0.54317 0.93808 0.0
H780 H 0.99884 0.65839 0.90553 0.0
H781 H 0.87649 0.60456 0.89874 0.0
C782 C 0.88176 0.64691 0.8736 0.0
C783 C 0.90463 0.67707 0.85953 0.0
C784 C 0.98064 0.6329 0.91239 0.0
C785 C 0.93121 0.63772 0.88794 0.0
C786 C 0.99195 0.61513 0.93067 0.0
C787 C 0.96854 0.58253 0.94072 0.0
C788 C 0.94553 0.61828 0.90454 0.0
C789 C 0.93417 0.56811 0.93096 0.0
C790 C 0.89484 0.62723 0.88757 0.0
C791 C 0.94092 0.68617 0.8597 0.0
N792 N 0.9237 0.58622 0.91384 0.0
N793 N 0.95306 0.66676 0.87384 0.0
H794 H 0.08966 0.25564 0.11052 0.0
H795 H 0.10332 0.44544 0.07837 0.0
H796 H 0.15751 0.35736 0.16111 0.0
H797 H 0.02278 0.34376 0.04267 0.0
H798 H 0.12139 0.4143 0.11134 0.0
H799 H 0.06268 0.28767 0.08822 0.0
C800 C 0.09866 0.28464 0.11742 0.0
C801 C 0.12629 0.30367 0.13769 0.0
C802 C 0.09945 0.39889 0.09664 0.0
C803 C 0.09578 0.34081 0.11124 0.0
C804 C 0.08903 0.41668 0.07783 0.0
C805 C 0.06156 0.39722 0.0575 0.0
C806 C 0.08257 0.36127 0.09488 0.0
C807 C 0.04408 0.35996 0.0579 0.0
C808 C 0.08328 0.30299 0.1044 0.0
C809 C 0.13697 0.34144 0.14502 0.0
N810 N 0.05517 0.34318 0.07591 0.0
N811 N 0.12197 0.35875 0.13157 0.0
H812 H 0.23077 0.64638 0.81589 0.0
H813 H 0.06392 0.59356 0.93932 0.0
H814 H 0.16128 0.70335 0.82799 0.0
H815 H 0.11573 0.5222 0.8929 0.0
H816 H 0.09693 0.63512 0.90048 0.0
H817 H 0.18874 0.60316 0.84767 0.0
C818 C 0.20667 0.65003 0.82533 0.0
C819 C 0.19968 0.67876 0.81911 0.0
C820 C 0.10048 0.61002 0.89856 0.0
C821 C 0.15077 0.62847 0.85588 0.0
C822 C 0.0816 0.5863 0.92057 0.0
C823 C 0.08782 0.55492 0.9197 0.0
C824 C 0.12557 0.60202 0.87591 0.0
C825 C 0.11087 0.54661 0.89495 0.0
C826 C 0.18241 0.62494 0.84335 0.0
C827 C 0.16778 0.68166 0.83221 0.0
N828 N 0.12916 0.57018 0.87435 0.0
N829 N 0.14444 0.65684 0.85022 0.0
H830 H 0.32705 0.06778 0.84388 0.0
H831 H 0.49581 0.11958 0.94065 0.0
H832 H 0.40607 0.17546 0.86226 0.0
H833 H 0.41398 0.01302 0.92701 0.0
H834 H 0.46787 0.13829 0.90484 0.0
H835 H 0.36267 0.04528 0.86739 0.0
C836 C 0.35199 0.08668 0.85265 0.0
C837 C 0.36331 0.12369 0.85143 0.0
C838 C 0.45627 0.11068 0.90937 0.0
C839 C 0.40438 0.09805 0.87833 0.0
C840 C 0.47237 0.09991 0.9297 0.0
C841 C 0.45716 0.06476 0.93721 0.0
C842 C 0.42466 0.08618 0.8964 0.0
C843 C 0.42659 0.04052 0.92225 0.0
C844 C 0.37239 0.07378 0.86598 0.0
C845 C 0.39625 0.14672 0.86255 0.0
N846 N 0.41121 0.05177 0.9029 0.0
N847 N 0.41538 0.1336 0.87581 0.0
H848 H 0.82804 0.34675 0.81202 0.0
H849 H 0.90346 0.35603 0.97333 0.0
H850 H 0.81034 0.25327 0.85458 0.0
H851 H 0.91613 0.44985 0.93389 0.0
H852 H 0.85534 0.31963 0.93934 0.0
H853 H 0.84796 0.38523 0.86288 0.0
C854 C 0.82826 0.33426 0.83212 0.0
C855 C 0.81854 0.29679 0.82874 0.0
C856 C 0.8679 0.34834 0.93865 0.0
C857 C 0.84108 0.34087 0.88736 0.0
C858 C 0.89531 0.36922 0.9582 0.0
C859 C 0.91463 0.40568 0.95537 0.0
C860 C 0.86025 0.36399 0.91577 0.0
C861 C 0.90244 0.42161 0.93616 0.0
C862 C 0.83936 0.35629 0.86131 0.0
C863 C 0.81866 0.28213 0.85584 0.0
N864 N 0.87661 0.40039 0.91627 0.0
N865 N 0.83024 0.30426 0.8839 0.0
H866 H 0.68568 0.76447 0.83118 0.0
H867 H 0.66468 0.95374 0.8997 0.0
H868 H 0.75566 0.86344 0.79799 0.0
H869 H 0.58805 0.84992 0.91805 0.0
H870 H 0.70013 0.92306 0.86448 0.0
H871 H 0.65244 0.7971 0.86622 0.0
C872 C 0.69413 0.79322 0.83144 0.0
C873 C 0.72365 0.81129 0.81184 0.0
C874 C 0.67553 0.90705 0.87622 0.0
C875 C 0.68503 0.84906 0.85155 0.0
C876 C 0.65525 0.92458 0.89638 0.0
C877 C 0.62316 0.90455 0.91202 0.0
C878 C 0.66402 0.86918 0.87201 0.0
C879 C 0.6124 0.86671 0.90653 0.0
C880 C 0.67504 0.81188 0.85137 0.0
C881 C 0.73334 0.84857 0.81305 0.0
N882 N 0.63275 0.85046 0.88732 0.0
N883 N 0.71401 0.86619 0.83241 0.0
H884 H 0.80044 0.63737 0.20785 0.0
H885 H 0.9621 0.64297 0.08115 0.0
H886 H 0.85742 0.72778 0.15721 0.0
H887 H 0.87703 0.54204 0.095 0.0
H888 H 0.92825 0.67542 0.11498 0.0
H889 H 0.83184 0.60304 0.17236 0.0
C890 C 0.81958 0.65008 0.18928 0.0
C891 C 0.82641 0.68572 0.18566 0.0
C892 C 0.91697 0.64618 0.11062 0.0
C893 C 0.86271 0.64645 0.14515 0.0
C894 C 0.93637 0.62752 0.09148 0.0
C895 C 0.92247 0.58956 0.08515 0.0
C896 C 0.88354 0.62695 0.12425 0.0
C897 C 0.88878 0.57124 0.09911 0.0
C898 C 0.83733 0.63032 0.16895 0.0
C899 C 0.85127 0.70048 0.16093 0.0
N900 N 0.87058 0.59009 0.11824 0.0
N901 N 0.86878 0.68094 0.14188 0.0
H902 H 0.33887 0.77145 0.15163 0.0
H903 H 0.47854 0.96803 0.12338 0.0
H904 H 0.37299 0.86078 0.22925 0.0
H905 H 0.43425 0.88002 0.04713 0.0
H906 H 0.44793 0.92734 0.16337 0.0
H907 H 0.38026 0.80914 0.1137 0.0
C908 C 0.35565 0.79893 0.16066 0.0
C909 C 0.35292 0.81312 0.19342 0.0
C910 C 0.44544 0.91678 0.13787 0.0
C911 C 0.4003 0.85656 0.15037 0.0
C912 C 0.46318 0.93986 0.11513 0.0
C913 C 0.45912 0.92698 0.0821 0.0
C914 C 0.4233 0.88085 0.12729 0.0
C915 C 0.43832 0.89065 0.07245 0.0
C916 C 0.37917 0.82051 0.13906 0.0
C917 C 0.37467 0.84898 0.20406 0.0
N918 N 0.42098 0.86895 0.09492 0.0
N919 N 0.39752 0.86957 0.18256 0.0
H920 H 0.75247 0.12651 0.16092 0.0
H921 H 0.60438 0.12969 0.07764 0.0
H922 H 0.66874 0.15531 0.21373 0.0
H923 H 0.62454 0.03205 0.0478 0.0
H924 H 0.63923 0.14501 0.12337 0.0
H925 H 0.71293 0.09039 0.11766 0.0
C926 C 0.72539 0.12386 0.16406 0.0
C927 C 0.71392 0.14454 0.19028 0.0
C928 C 0.63606 0.12021 0.10673 0.0
C929 C 0.66996 0.10551 0.14096 0.0
C930 C 0.61661 0.11168 0.08024 0.0
C931 C 0.61089 0.07912 0.05894 0.0
C932 C 0.6507 0.09657 0.11185 0.0
C933 C 0.62785 0.05716 0.0638 0.0
C934 C 0.70303 0.10365 0.13932 0.0
C935 C 0.67868 0.1403 0.19341 0.0
N936 N 0.64706 0.06623 0.08988 0.0
N937 N 0.6583 0.12236 0.16849 0.0
H938 H 0.67313 0.61767 0.77114 0.0
H939 H 0.60794 0.61911 0.95956 0.0
H940 H 0.70943 0.70823 0.84773 0.0
H941 H 0.56747 0.52336 0.88924 0.0
H942 H 0.64 0.65305 0.9161 0.0
H943 H 0.63038 0.58274 0.81111 0.0
C944 C 0.67208 0.63021 0.79618 0.0
C945 C 0.69535 0.6658 0.80611 0.0
C946 C 0.62374 0.62475 0.90983 0.0
C947 C 0.64641 0.62648 0.8516 0.0
C948 C 0.60511 0.60552 0.93475 0.0
C949 C 0.58456 0.56871 0.9279 0.0
C950 C 0.62276 0.6069 0.87763 0.0
C951 C 0.58249 0.55203 0.89535 0.0
C952 C 0.6477 0.61033 0.81893 0.0
C953 C 0.69267 0.68075 0.83883 0.0
N954 N 0.60176 0.57114 0.87134 0.0
N955 N 0.66888 0.66113 0.86013 0.0
H956 H 0.38604 0.58357 0.79874 0.0
H957 H 0.43737 0.59999 0.97556 0.0
H958 H 0.33784 0.62851 0.88427 0.0
H959 H 0.44762 0.51698 0.8985 0.0
H960 H 0.40824 0.61737 0.93989 0.0
H961 H 0.41303 0.56228 0.83301 0.0
C962 C 0.38047 0.58834 0.82468 0.0
C963 C 0.35993 0.60833 0.83863 0.0
C964 C 0.4171 0.59552 0.93075 0.0
C965 C 0.39184 0.58506 0.87791 0.0
C966 C 0.43425 0.58599 0.95091 0.0
C967 C 0.44494 0.55704 0.93996 0.0
C968 C 0.41109 0.57633 0.8993 0.0
C969 C 0.4397 0.53945 0.90789 0.0
C970 C 0.39623 0.57646 0.84421 0.0
C971 C 0.35416 0.61403 0.87246 0.0
N972 N 0.42311 0.54937 0.88863 0.0
N973 N 0.37043 0.60287 0.89097 0.0
H974 H 0.29791 0.29379 0.83266 0.0
H975 H 0.48185 0.44063 0.89144 0.0
H976 H 0.38046 0.35313 0.76764 0.0
H977 H 0.41423 0.35535 0.94423 0.0
H978 H 0.43973 0.41823 0.84995 0.0
H979 H 0.33418 0.32712 0.87807 0.0
C980 C 0.32356 0.31436 0.82814 0.0
C981 C 0.3367 0.3204 0.79652 0.0
C982 C 0.43405 0.40437 0.87056 0.0
C983 C 0.37829 0.35831 0.84805 0.0
C984 C 0.4581 0.41695 0.89408 0.0
C985 C 0.45174 0.39914 0.9207 0.0
C986 C 0.40305 0.37406 0.87395 0.0
C987 C 0.42037 0.36918 0.92357 0.0
C988 C 0.34423 0.33323 0.85397 0.0
C989 C 0.36967 0.34764 0.79175 0.0
N990 N 0.39709 0.35753 0.9004 0.0
N991 N 0.38961 0.36542 0.8173 0.0
H992 H 0.63297 0.27717 0.9039 0.0
H993 H 0.62058 0.45896 0.88197 0.0
H994 H 0.56559 0.2801 0.84042 0.0
H995 H 0.68505 0.45299 0.94801 0.0
H996 H 0.60411 0.39456 0.8614 0.0
H997 H 0.64595 0.34049 0.92655 0.0
C998 C 0.62062 0.29147 0.89447 0.0
C999 C 0.60781 0.27943 0.86356 0.0
C1000 C 0.62223 0.40729 0.8802 0.0
C1001 C 0.61661 0.34751 0.89167 0.0
C1002 C 0.63297 0.44436 0.89101 0.0
C1003 C 0.6486 0.45822 0.92059 0.0
C1004 C 0.63266 0.38707 0.89657 0.0
C1005 C 0.66832 0.44083 0.92813 0.0
C1006 C 0.62863 0.32779 0.90712 0.0
C1007 C 0.58326 0.29328 0.85952 0.0
N1008 N 0.65774 0.40476 0.91807 0.0
N1009 N 0.59131 0.32906 0.87042 0.0
H1010 H 0.64291 0.39068 0.20353 0.0
H1011 H 0.61116 0.39807 0.02851 0.0
H1012 H 0.71337 0.37946 0.12041 0.0
H1013 H 0.57385 0.45931 0.10961 0.0
H1014 H 0.64615 0.38834 0.06392 0.0
H1015 H 0.61695 0.41688 0.17258 0.0
C1016 C 0.6537 0.39485 0.17911 0.0
C1017 C 0.6798 0.38225 0.16418 0.0
C1018 C 0.63014 0.40368 0.07417 0.0
C1019 C 0.64975 0.41117 0.12868 0.0
C1020 C 0.60962 0.40853 0.0541 0.0
C1021 C 0.58891 0.42846 0.0665 0.0
C1022 C 0.62942 0.41821 0.10712 0.0
C1023 C 0.58891 0.44294 0.09951 0.0
C1024 C 0.6387 0.40956 0.16145 0.0
C1025 C 0.6927 0.38807 0.1325 0.0
N1026 N 0.60857 0.43706 0.11898 0.0
N1027 N 0.67707 0.4015 0.11558 0.0
H1028 H 0.66171 0.62321 0.22417 0.0
H1029 H 0.60065 0.62849 0.06167 0.0
H1030 H 0.72882 0.69865 0.16173 0.0
H1031 H 0.57535 0.52523 0.0901 0.0
H1032 H 0.64646 0.65592 0.10016 0.0
H1033 H 0.62786 0.58594 0.17746 0.0
C1034 C 0.66952 0.63159 0.20061 0.0
C1035 C 0.69703 0.66462 0.19683 0.0
C1036 C 0.6311 0.62716 0.09767 0.0
C1037 C 0.65904 0.62283 0.14404 0.0
C1038 C 0.60492 0.61168 0.07593 0.0
C1039 C 0.58419 0.57478 0.07309 0.0
C1040 C 0.63547 0.60577 0.11746 0.0
C1041 C 0.59088 0.5539 0.0918 0.0
C1042 C 0.65041 0.61043 0.17406 0.0
C1043 C 0.70672 0.67413 0.16581 0.0
N1044 N 0.61546 0.5698 0.11377 0.0
N1045 N 0.6874 0.65374 0.14072 0.0
H1046 H 0.45017 0.69176 0.16964 0.0
H1047 H 0.38673 0.54231 0.01652 0.0
H1048 H 0.43393 0.71601 0.08128 0.0
H1049 H 0.38229 0.52154 0.11293 0.0
H1050 H 0.40949 0.60682 0.03658 0.0
H1051 H 0.44315 0.63119 0.14305 0.0
C1052 C 0.44689 0.68503 0.14391 0.0
C1053 C 0.43553 0.7054 0.12861 0.0
C1054 C 0.4031 0.58813 0.05347 0.0
C1055 C 0.43045 0.63859 0.09767 0.0
C1056 C 0.3886 0.55121 0.04234 0.0
C1057 C 0.3855 0.52705 0.06285 0.0
C1058 C 0.41187 0.6001 0.08564 0.0
C1059 C 0.38629 0.53977 0.09614 0.0
C1060 C 0.4418 0.64991 0.12908 0.0
C1061 C 0.43769 0.69825 0.09477 0.0
N1062 N 0.40133 0.57578 0.10646 0.0
N1063 N 0.4318 0.66377 0.08035 0.0
H1064 H 0.30389 0.34107 0.18475 0.0
H1065 H 0.49043 0.42613 0.09189 0.0
H1066 H 0.38885 0.3195 0.21027 0.0
H1067 H 0.39109 0.37977 0.04893 0.0
H1068 H 0.45999 0.39933 0.14093 0.0
H1069 H 0.34263 0.37259 0.14243 0.0
C1070 C 0.33088 0.34341 0.18185 0.0
C1071 C 0.34284 0.32695 0.20082 0.0
C1072 C 0.44525 0.395 0.12047 0.0
C1073 C 0.38751 0.36299 0.15178 0.0
C1074 C 0.46256 0.40996 0.09244 0.0
C1075 C 0.44333 0.40566 0.06622 0.0
C1076 C 0.4086 0.37651 0.12225 0.0
C1077 C 0.40719 0.38451 0.06846 0.0
C1078 C 0.35297 0.36129 0.15749 0.0
C1079 C 0.37843 0.33156 0.19604 0.0
N1080 N 0.39113 0.37141 0.09597 0.0
N1081 N 0.39954 0.34883 0.17164 0.0
H1082 H 0.86166 0.69679 0.71625 0.0
H1083 H 0.8641 0.54576 0.56287 0.0
H1084 H 0.77591 0.64424 0.6546 0.0
H1085 H 0.95698 0.6225 0.60827 0.0
H1086 H 0.82938 0.57639 0.59909 0.0
H1087 H 0.89475 0.66504 0.67998 0.0
C1088 C 0.84954 0.67826 0.69526 0.0
C1089 C 0.81565 0.67307 0.68879 0.0
C1090 C 0.85734 0.58644 0.60114 0.0
C1091 C 0.85379 0.6362 0.64681 0.0
C1092 C 0.87719 0.56881 0.58059 0.0
C1093 C 0.91364 0.58143 0.58242 0.0
C1094 C 0.87386 0.61661 0.62419 0.0
C1095 C 0.92905 0.61173 0.60578 0.0
C1096 C 0.86864 0.66026 0.67438 0.0
C1097 C 0.80182 0.64906 0.66074 0.0
N1098 N 0.90916 0.62805 0.62572 0.0
N1099 N 0.82079 0.63137 0.64097 0.0
H1100 H 0.38799 0.81285 0.70238 0.0
H1101 H 0.39912 0.89074 0.54173 0.0
H1102 H 0.29933 0.80354 0.65548 0.0
H1103 H 0.48419 0.93833 0.60425 0.0
H1104 H 0.36684 0.84739 0.57799 0.0
H1105 H 0.42748 0.85027 0.66268 0.0
C1106 C 0.37699 0.81843 0.6835 0.0
C1107 C 0.34057 0.80522 0.68186 0.0
C1108 C 0.39259 0.86718 0.58386 0.0
C1109 C 0.38498 0.84686 0.6367 0.0
C1110 C 0.41101 0.89179 0.56316 0.0
C1111 C 0.44385 0.91833 0.57057 0.0
C1112 C 0.4069 0.86934 0.61244 0.0
C1113 C 0.45866 0.91825 0.5981 0.0
C1114 C 0.39939 0.83977 0.66111 0.0
C1115 C 0.3273 0.81336 0.65747 0.0
N1116 N 0.43973 0.89428 0.61854 0.0
N1117 N 0.34953 0.83347 0.63572 0.0
H1118 H 0.22037 0.38573 0.6022 0.0
H1119 H 0.052 0.42799 0.59676 0.0
H1120 H 0.13345 0.35024 0.67329 0.0
H1121 H 0.10979 0.39463 0.51241 0.0
H1122 H 0.08628 0.41381 0.63111 0.0
H1123 H 0.18621 0.40714 0.57597 0.0
C1124 C 0.19438 0.38312 0.61278 0.0
C1125 C 0.17965 0.36572 0.63982 0.0
C1126 C 0.09097 0.40924 0.60505 0.0
C1127 C 0.14019 0.3898 0.60943 0.0
C1128 C 0.07128 0.41692 0.58558 0.0
C1129 C 0.07756 0.41136 0.55184 0.0
C1130 C 0.11761 0.39721 0.59045 0.0
C1131 C 0.10368 0.39836 0.53834 0.0
C1132 C 0.17478 0.39503 0.59755 0.0
C1133 C 0.14557 0.36287 0.65212 0.0
N1134 N 0.1229 0.392 0.55765 0.0
N1135 N 0.12682 0.37459 0.6367 0.0
H1136 H 0.67328 0.1438 0.70804 0.0
H1137 H 0.6371 0.12291 0.53266 0.0
H1138 H 0.74712 0.21484 0.64531 0.0
H1139 H 0.60404 0.02814 0.5778 0.0
H1140 H 0.68198 0.15485 0.57107 0.0
H1141 H 0.65055 0.09854 0.66034 0.0
C1142 C 0.68492 0.14948 0.68412 0.0
C1143 C 0.71115 0.18311 0.68007 0.0
C1144 C 0.66568 0.12672 0.57203 0.0
C1145 C 0.68587 0.13203 0.62594 0.0
C1146 C 0.64009 0.10849 0.55006 0.0
C1147 C 0.61659 0.07307 0.55241 0.0
C1148 C 0.66694 0.10981 0.59722 0.0
C1149 C 0.62158 0.05555 0.57535 0.0
C1150 C 0.67229 0.12366 0.65703 0.0
C1151 C 0.72609 0.18937 0.64899 0.0
N1152 N 0.64553 0.07449 0.59763 0.0
N1153 N 0.71279 0.16429 0.62295 0.0
H1154 H 0.8371 0.3664 0.29209 0.0
H1155 H 0.88427 0.38344 0.47225 0.0
H1156 H 0.77053 0.29928 0.36111 0.0
H1157 H 0.95689 0.43763 0.39826 0.0
H1158 H 0.83649 0.36424 0.43643 0.0
H1159 H 0.87438 0.40581 0.33552 0.0
C1160 C 0.82958 0.36087 0.31665 0.0
C1161 C 0.80111 0.32947 0.32317 0.0
C1162 C 0.86284 0.38063 0.42813 0.0
C1163 C 0.84377 0.37346 0.37253 0.0
C1164 C 0.88997 0.39132 0.4485 0.0
C1165 C 0.92434 0.41141 0.43773 0.0
C1166 C 0.87039 0.38993 0.39684 0.0
C1167 C 0.93061 0.42164 0.40706 0.0
C1168 C 0.85104 0.38303 0.34135 0.0
C1169 C 0.79258 0.32313 0.35522 0.0
N1170 N 0.90399 0.41043 0.3875 0.0
N1171 N 0.81412 0.34456 0.37863 0.0
H1172 H 0.72525 0.79381 0.35617 0.0
H1173 H 0.58287 0.88084 0.37287 0.0
H1174 H 0.68951 0.81186 0.27335 0.0
H1175 H 0.65301 0.90707 0.44737 0.0
H1176 H 0.6167 0.84893 0.33732 0.0
H1177 H 0.69365 0.82828 0.39164 0.0
C1178 C 0.71057 0.80474 0.34543 0.0
C1179 C 0.70991 0.79968 0.31166 0.0
C1180 C 0.62481 0.86182 0.36138 0.0
C1181 C 0.67362 0.83903 0.35216 0.0
C1182 C 0.60553 0.88001 0.38164 0.0
C1183 C 0.6154 0.89689 0.41296 0.0
C1184 C 0.65356 0.85951 0.37283 0.0
C1185 C 0.64485 0.89483 0.42322 0.0
C1186 C 0.69278 0.82464 0.3657 0.0
C1187 C 0.69078 0.81495 0.29918 0.0
N1188 N 0.66266 0.8761 0.40337 0.0
N1189 N 0.67323 0.83362 0.31938 0.0
H1190 H 0.18898 0.62689 0.27611 0.0
H1191 H 0.07755 0.60495 0.44661 0.0
H1192 H 0.17614 0.71678 0.34191 0.0
H1193 H 0.08769 0.51657 0.37679 0.0
H1194 H 0.10819 0.64592 0.40697 0.0
H1195 H 0.14718 0.58587 0.3108 0.0
C1196 C 0.17719 0.63808 0.29783 0.0
C1197 C 0.18635 0.67551 0.30621 0.0
C1198 C 0.10302 0.61744 0.40006 0.0
C1199 C 0.1382 0.62831 0.34642 0.0
C1200 C 0.08528 0.59407 0.42256 0.0
C1201 C 0.07997 0.55745 0.41471 0.0
C1202 C 0.11538 0.60391 0.36957 0.0
C1203 C 0.09119 0.54468 0.3836 0.0
C1204 C 0.15316 0.61452 0.31765 0.0
C1205 C 0.1698 0.68821 0.33449 0.0
N1206 N 0.10848 0.56787 0.36224 0.0
N1207 N 0.14681 0.6647 0.35379 0.0
H1208 H 0.35192 0.13815 0.38068 0.0
H1209 H 0.52043 0.12715 0.43607 0.0
H1210 H 0.45639 0.20486 0.34742 0.0
H1211 H 0.4167 0.04329 0.44004 0.0
H1212 H 0.49916 0.15734 0.40435 0.0
H1213 H 0.37641 0.10476 0.40413 0.0
C1214 C 0.38002 0.1455 0.37783 0.0
C1215 C 0.40202 0.17435 0.3618 0.0
C1216 C 0.48129 0.13209 0.4119 0.0
C1217 C 0.43052 0.13637 0.38944 0.0
C1218 C 0.49342 0.1148 0.42991 0.0
C1219 C 0.47038 0.0826 0.44086 0.0
C1220 C 0.44579 0.11738 0.40534 0.0
C1221 C 0.43559 0.06796 0.4322 0.0
C1222 C 0.39406 0.12647 0.39145 0.0
C1223 C 0.43839 0.18308 0.35982 0.0
N1224 N 0.42436 0.08565 0.4154 0.0
N1225 N 0.45154 0.16429 0.37362 0.0
H1226 H 0.66093 0.85353 0.66159 0.0
H1227 H 0.52267 0.84488 0.54481 0.0
H1228 H 0.58864 0.75447 0.61137 0.0
H1229 H 0.60847 0.94318 0.57813 0.0
H1230 H 0.54081 0.81253 0.57629 0.0
H1231 H 0.63712 0.88748 0.6375 0.0
C1232 C 0.64013 0.83879 0.64551 0.0
C1233 C 0.62714 0.80085 0.63842 0.0
C1234 C 0.55546 0.84126 0.57701 0.0
C1235 C 0.59914 0.83987 0.61122 0.0
C1236 C 0.54496 0.8599 0.55918 0.0
C1237 C 0.56412 0.89693 0.55859 0.0
C1238 C 0.58529 0.85967 0.59463 0.0
C1239 C 0.5929 0.91467 0.5777 0.0
C1240 C 0.62637 0.8583 0.63193 0.0
C1241 C 0.59942 0.78353 0.618 0.0
N1242 N 0.60272 0.89586 0.59475 0.0
N1243 N 0.58651 0.80312 0.60512 0.0
H1244 H 0.72801 0.14384 0.31214 0.0
H1245 H 0.56282 0.09066 0.43667 0.0
H1246 H 0.65143 0.1909 0.31586 0.0
H1247 H 0.62149 0.02399 0.39688 0.0
H1248 H 0.59262 0.12906 0.39469 0.0
H1249 H 0.68877 0.10255 0.34675 0.0
C1250 C 0.70279 0.14553 0.32012 0.0
C1251 C 0.69311 0.17108 0.31096 0.0
C1252 C 0.59839 0.10565 0.395 0.0
C1253 C 0.64739 0.12296 0.35105 0.0
C1254 C 0.58146 0.0838 0.41885 0.0
C1255 C 0.59048 0.05477 0.42067 0.0
C1256 C 0.62428 0.09806 0.37321 0.0
C1257 C 0.61454 0.04676 0.39696 0.0
C1258 C 0.68017 0.12158 0.33988 0.0
C1259 C 0.65992 0.17162 0.32236 0.0
N1260 N 0.63078 0.06845 0.3745 0.0
N1261 N 0.63816 0.14794 0.34213 0.0
H1262 H 0.90998 0.68124 0.35923 0.0
H1263 H 0.91782 0.51102 0.41573 0.0
H1264 H 0.83061 0.57354 0.34265 0.0
H1265 H 0.99318 0.62004 0.43882 0.0
H1266 H 0.89187 0.53159 0.37998 0.0
H1267 H 0.94654 0.65742 0.3794 0.0
C1268 C 0.9005 0.65246 0.35928 0.0
C1269 C 0.867 0.62939 0.34961 0.0
C1270 C 0.91439 0.55094 0.39249 0.0
C1271 C 0.90854 0.60203 0.37313 0.0
C1272 C 0.92933 0.53922 0.41287 0.0
C1273 C 0.95744 0.56399 0.43072 0.0
C1274 C 0.9275 0.58774 0.38999 0.0
C1275 C 0.97144 0.60005 0.42572 0.0
C1276 C 0.92131 0.63891 0.37099 0.0
C1277 C 0.85596 0.59239 0.35049 0.0
N1278 N 0.95597 0.61095 0.40618 0.0
N1279 N 0.87654 0.5799 0.36236 0.0
H1280 H 0.31915 0.74581 0.35466 0.0
H1281 H 0.42552 0.94975 0.4254 0.0
H1282 H 0.32986 0.83512 0.30946 0.0
H1283 H 0.40513 0.85981 0.47389 0.0
H1284 H 0.37924 0.91057 0.38943 0.0
H1285 H 0.34069 0.78825 0.40395 0.0
C1286 C 0.3265 0.77444 0.35515 0.0
C1287 C 0.32405 0.78739 0.328 0.0
C1288 C 0.38422 0.89967 0.40855 0.0
C1289 C 0.34834 0.83597 0.3838 0.0
C1290 C 0.41035 0.92219 0.42932 0.0
C1291 C 0.41963 0.90767 0.45204 0.0
C1292 C 0.36779 0.86258 0.41062 0.0
C1293 C 0.39923 0.87179 0.45612 0.0
C1294 C 0.33824 0.79864 0.3833 0.0
C1295 C 0.33223 0.82442 0.32996 0.0
N1296 N 0.37489 0.85026 0.43511 0.0
N1297 N 0.34463 0.84758 0.35721 0.0
H1298 H 0.2399 0.311 0.3541 0.0
H1299 H 0.10028 0.40302 0.36451 0.0
H1300 H 0.19632 0.31878 0.27112 0.0
H1301 H 0.14288 0.39638 0.4483 0.0
H1302 H 0.13694 0.37372 0.3299 0.0
H1303 H 0.20614 0.34332 0.38905 0.0
C1304 C 0.22359 0.31979 0.34313 0.0
C1305 C 0.22124 0.31221 0.30945 0.0
C1306 C 0.1384 0.37868 0.35584 0.0
C1307 C 0.1822 0.34914 0.34951 0.0
C1308 C 0.11752 0.39546 0.37553 0.0
C1309 C 0.1189 0.40234 0.40916 0.0
C1310 C 0.16043 0.36811 0.36992 0.0
C1311 C 0.14146 0.39186 0.42236 0.0
C1312 C 0.20415 0.33813 0.36317 0.0
C1313 C 0.19917 0.32396 0.29685 0.0
N1314 N 0.16119 0.3751 0.40276 0.0
N1315 N 0.18062 0.34171 0.3168 0.0
H1316 H 0.35286 0.22609 0.6561 0.0
H1317 H 0.38022 0.04087 0.59471 0.0
H1318 H 0.30037 0.13398 0.70541 0.0
H1319 H 0.46222 0.14418 0.58257 0.0
H1320 H 0.34513 0.07234 0.62901 0.0
H1321 H 0.38758 0.19414 0.62185 0.0
C1322 C 0.34847 0.19913 0.65962 0.0
C1323 C 0.32378 0.18285 0.68384 0.0
C1324 C 0.37086 0.08804 0.61886 0.0
C1325 C 0.36309 0.14599 0.64447 0.0
C1326 C 0.39088 0.07011 0.59925 0.0
C1327 C 0.42432 0.08983 0.58576 0.0
C1328 C 0.38396 0.12599 0.6244 0.0
C1329 C 0.43672 0.12777 0.59258 0.0
C1330 C 0.36841 0.181 0.64019 0.0
C1331 C 0.31931 0.14779 0.68727 0.0
N1332 N 0.41647 0.14455 0.6111 0.0
N1333 N 0.33856 0.13049 0.66774 0.0
H1334 H 0.88656 0.28197 0.68127 0.0
H1335 H 0.91964 0.45594 0.60549 0.0
H1336 H 0.80825 0.32216 0.671 0.0
H1337 H 0.97634 0.38909 0.55944 0.0
H1338 H 0.88979 0.41383 0.64328 0.0
H1339 H 0.9285 0.3251 0.64648 0.0
C1340 C 0.87809 0.29952 0.67175 0.0
C1341 C 0.84385 0.2987 0.67976 0.0
C1342 C 0.90901 0.40842 0.62514 0.0
C1343 C 0.89154 0.34808 0.64089 0.0
C1344 C 0.92618 0.43254 0.6036 0.0
C1345 C 0.94994 0.42562 0.5788 0.0
C1346 C 0.91527 0.37672 0.62203 0.0
C1347 C 0.95792 0.39521 0.57806 0.0
C1348 C 0.902 0.32406 0.65201 0.0
C1349 C 0.83432 0.32189 0.66635 0.0
N1350 N 0.94011 0.37136 0.5991 0.0
N1351 N 0.85799 0.34564 0.6481 0.0
H1352 H 0.22433 0.62448 0.67626 0.0
H1353 H 0.12039 0.63226 0.53637 0.0
H1354 H 0.198 0.71338 0.66618 0.0
H1355 H 0.11019 0.52983 0.5578 0.0
H1356 H 0.16281 0.66295 0.57667 0.0
H1357 H 0.1913 0.58872 0.62869 0.0
C1358 C 0.2118 0.63647 0.66411 0.0
C1359 C 0.21486 0.67235 0.67459 0.0
C1360 C 0.15166 0.63371 0.57237 0.0
C1361 C 0.17804 0.63227 0.6206 0.0
C1362 C 0.12771 0.61618 0.54908 0.0
C1363 C 0.11103 0.57852 0.54444 0.0
C1364 C 0.15891 0.61352 0.59136 0.0
C1365 C 0.12212 0.55901 0.56108 0.0
C1366 C 0.19314 0.61616 0.63705 0.0
C1367 C 0.19742 0.6863 0.65855 0.0
N1368 N 0.14495 0.5768 0.58449 0.0
N1369 N 0.18012 0.66638 0.63235 0.0
loop_
_geom_bond_atom_site_label_1
_geom_bond_atom_site_label_2
_geom_bond_distance
_geom_bond_site_symmetry_2
_ccdc_geom_bond_type
Eu0 C9 2.828 . S
Eu0 O11 2.392 . S
Eu0 O13 2.418 . S
Eu0 O18 2.373 . S
Eu0 O21 2.488 . S
Eu0 O22 2.471 . S
Eu0 O23 2.349 . S
Eu1 O10 2.373 . S
Eu1 O14 2.488 . S
Eu1 O15 2.471 . S
Eu1 O16 2.349 . S
Eu1 O19 2.392 . S
Eu1 O20 2.418 . S
Eu1 C30 2.828 . S
C2 O20 1.244 . S
C2 O23 1.265 . S
C3 C4 1.379 . S
C3 C7 1.373 . S
C3 C9 1.505 . S
C4 C3 1.379 . S
C4 C6 1.369 . S
C4 H32 0.930 . S
C5 C7 1.383 . S
C5 C8 1.382 . S
C5 H33 0.930 . S
C6 C4 1.369 . S
C6 C8 1.392 . S
C6 H34 0.930 . S
C7 C3 1.373 . S
C7 C5 1.383 . S
C7 H35 0.931 . S
C8 C5 1.382 . S
C8 C6 1.392 . S
C9 Eu0 2.828 . S
C9 C3 1.505 . S
C9 O21 1.249 . S
C9 O22 1.244 . S
O10 Eu1 2.373 . S
O10 C12 1.258 . S
O11 Eu0 2.392 . S
O11 C12 1.242 . S
C12 O10 1.258 . S
C12 O11 1.242 . S
O13 Eu0 2.418 . S
O13 C17 1.244 . S
O14 Eu1 2.488 . S
O14 C30 1.249 . S
O15 Eu1 2.471 . S
O15 C30 1.244 . S
O16 Eu1 2.349 . S
O16 C17 1.265 . S
C17 O13 1.244 . S
C17 O16 1.265 . S
O18 Eu0 2.373 . S
O18 C31 1.258 . S
O19 Eu1 2.392 . S
O19 C31 1.242 . S
O20 Eu1 2.418 . S
O20 C2 1.244 . S
O21 Eu0 2.488 . S
O21 C9 1.249 . S
O22 Eu0 2.471 . S
O22 C9 1.244 . S
O23 Eu0 2.349 . S
O23 C2 1.265 . S
C24 C25 1.379 . S
C24 C28 1.373 . S
C24 C30 1.505 . S
C25 C24 1.379 . S
C25 C27 1.369 . S
C25 H36 0.930 . S
C26 C28 1.383 . S
C26 C29 1.382 . S
C26 H37 0.930 . S
C27 C25 1.369 . S
C27 C29 1.392 . S
C27 H38 0.930 . S
C28 C24 1.373 . S
C28 C26 1.383 . S
C28 H39 0.931 . S
C29 C26 1.382 . S
C29 C27 1.392 . S
C30 Eu1 2.828 . S
C30 O14 1.249 . S
C30 O15 1.244 . S
C30 C24 1.505 . S
C31 O18 1.258 . S
C31 O19 1.242 . S
H32 C4 0.930 . S
H33 C5 0.930 . S
H34 C6 0.930 . S
H35 C7 0.931 . S
H36 C25 0.930 . S
H37 C26 0.930 . S
H38 C27 0.930 . S
H39 C28 0.931 . S
Eu40 C49 2.828 . S
Eu40 O51 2.392 . S
Eu40 O53 2.418 . S
Eu40 O58 2.373 . S
Eu40 O61 2.488 . S
Eu40 O62 2.471 . S
Eu40 O63 2.349 . S
Eu41 O50 2.373 . S
Eu41 O54 2.488 . S
Eu41 O55 2.471 . S
Eu41 O56 2.349 . S
Eu41 O59 2.392 . S
Eu41 O60 2.418 . S
Eu41 C70 2.828 . S
C42 O60 1.244 . S
C42 O63 1.265 . S
C43 C44 1.379 . S
C43 C47 1.373 . S
C43 C49 1.505 . S
C44 C43 1.379 . S
C44 C46 1.369 . S
C44 H72 0.930 . S
C45 C47 1.383 . S
C45 C48 1.382 . S
C45 H73 0.930 . S
C46 C44 1.369 . S
C46 C48 1.392 . S
C46 H74 0.930 . S
C47 C43 1.373 . S
C47 C45 1.383 . S
C47 H75 0.931 . S
C48 C45 1.382 . S
C48 C46 1.392 . S
C49 Eu40 2.828 . S
C49 C43 1.505 . S
C49 O61 1.249 . S
C49 O62 1.244 . S
O50 Eu41 2.373 . S
O50 C52 1.258 . S
O51 Eu40 2.392 . S
O51 C52 1.242 . S
C52 O50 1.258 . S
C52 O51 1.242 . S
O53 Eu40 2.418 . S
O53 C57 1.244 . S
O54 Eu41 2.488 . S
O54 C70 1.249 . S
O55 Eu41 2.471 . S
O55 C70 1.244 . S
O56 Eu41 2.349 . S
O56 C57 1.265 . S
C57 O53 1.244 . S
C57 O56 1.265 . S
O58 Eu40 2.373 . S
O58 C71 1.258 . S
O59 Eu41 2.392 . S
O59 C71 1.242 . S
O60 Eu41 2.418 . S
O60 C42 1.244 . S
O61 Eu40 2.488 . S
O61 C49 1.249 . S
O62 Eu40 2.471 . S
O62 C49 1.244 . S
O63 Eu40 2.349 . S
O63 C42 1.265 . S
C64 C65 1.379 . S
C64 C68 1.373 . S
C64 C70 1.505 . S
C65 C64 1.379 . S
C65 C67 1.369 . S
C65 H76 0.930 . S
C66 C68 1.383 . S
C66 C69 1.382 . S
C66 H77 0.930 . S
C67 C65 1.369 . S
C67 C69 1.392 . S
C67 H78 0.930 . S
C68 C64 1.373 . S
C68 C66 1.383 . S
C68 H79 0.931 . S
C69 C66 1.382 . S
C69 C67 1.392 . S
C70 Eu41 2.828 . S
C70 O54 1.249 . S
C70 O55 1.244 . S
C70 C64 1.505 . S
C71 O58 1.258 . S
C71 O59 1.242 . S
H72 C44 0.930 . S
H73 C45 0.930 . S
H74 C46 0.930 . S
H75 C47 0.931 . S
H76 C65 0.930 . S
H77 C66 0.930 . S
H78 C67 0.930 . S
H79 C68 0.931 . S
Eu80 C89 2.828 . S
Eu80 O91 2.392 . S
Eu80 O93 2.418 . S
Eu80 O98 2.373 . S
Eu80 O101 2.488 . S
Eu80 O102 2.471 . S
Eu80 O103 2.349 . S
Eu81 O90 2.373 . S
Eu81 O94 2.488 . S
Eu81 O95 2.471 . S
Eu81 O96 2.349 . S
Eu81 O99 2.392 . S
Eu81 O100 2.418 . S
Eu81 C110 2.828 . S
C82 O100 1.244 . S
C82 O103 1.265 . S
C83 C84 1.379 . S
C83 C87 1.373 . S
C83 C89 1.505 . S
C84 C83 1.379 . S
C84 C86 1.369 . S
C84 H112 0.930 . S
C85 C87 1.383 . S
C85 C88 1.382 . S
C85 H113 0.930 . S
C86 C84 1.369 . S
C86 C88 1.392 . S
C86 H114 0.930 . S
C87 C83 1.373 . S
C87 C85 1.383 . S
C87 H115 0.931 . S
C88 C85 1.382 . S
C88 C86 1.392 . S
C89 Eu80 2.828 . S
C89 C83 1.505 . S
C89 O101 1.249 . S
C89 O102 1.244 . S
O90 Eu81 2.373 . S
O90 C92 1.258 . S
O91 Eu80 2.392 . S
O91 C92 1.242 . S
C92 O90 1.258 . S
C92 O91 1.242 . S
O93 Eu80 2.418 . S
O93 C97 1.244 . S
O94 Eu81 2.488 . S
O94 C110 1.249 . S
O95 Eu81 2.471 . S
O95 C110 1.244 . S
O96 Eu81 2.349 . S
O96 C97 1.265 . S
C97 O93 1.244 . S
C97 O96 1.265 . S
O98 Eu80 2.373 . S
O98 C111 1.258 . S
O99 Eu81 2.392 . S
O99 C111 1.242 . S
O100 Eu81 2.418 . S
O100 C82 1.244 . S
O101 Eu80 2.488 . S
O101 C89 1.249 . S
O102 Eu80 2.471 . S
O102 C89 1.244 . S
O103 Eu80 2.349 . S
O103 C82 1.265 . S
C104 C105 1.379 . S
C104 C108 1.373 . S
C104 C110 1.505 . S
C105 C104 1.379 . S
C105 C107 1.369 . S
C105 H116 0.930 . S
C106 C108 1.383 . S
C106 C109 1.382 . S
C106 H117 0.930 . S
C107 C105 1.369 . S
C107 C109 1.392 . S
C107 H118 0.930 . S
C108 C104 1.373 . S
C108 C106 1.383 . S
C108 H119 0.931 . S
C109 C106 1.382 . S
C109 C107 1.392 . S
C110 Eu81 2.828 . S
C110 O94 1.249 . S
C110 O95 1.244 . S
C110 C104 1.505 . S
C111 O98 1.258 . S
C111 O99 1.242 . S
H112 C84 0.930 . S
H113 C85 0.930 . S
H114 C86 0.930 . S
H115 C87 0.931 . S
H116 C105 0.930 . S
H117 C106 0.930 . S
H118 C107 0.930 . S
H119 C108 0.931 . S
Eu120 C129 2.828 . S
Eu120 O131 2.392 . S
Eu120 O133 2.418 . S
Eu120 O138 2.373 . S
Eu120 O141 2.488 . S
Eu120 O142 2.471 . S
Eu120 O143 2.349 . S
Eu121 O130 2.373 . S
Eu121 O134 2.488 . S
Eu121 O135 2.471 . S
Eu121 O136 2.349 . S
Eu121 O139 2.392 . S
Eu121 O140 2.418 . S
Eu121 C150 2.828 . S
C122 O140 1.244 . S
C122 O143 1.265 . S
C123 C124 1.379 . S
C123 C127 1.373 . S
C123 C129 1.505 . S
C124 C123 1.379 . S
C124 C126 1.369 . S
C124 H152 0.930 . S
C125 C127 1.383 . S
C125 C128 1.382 . S
C125 H153 0.930 . S
C126 C124 1.369 . S
C126 C128 1.392 . S
C126 H154 0.930 . S
C127 C123 1.373 . S
C127 C125 1.383 . S
C127 H155 0.931 . S
C128 C125 1.382 . S
C128 C126 1.392 . S
C129 Eu120 2.828 . S
C129 C123 1.505 . S
C129 O141 1.249 . S
C129 O142 1.244 . S
O130 Eu121 2.373 . S
O130 C132 1.258 . S
O131 Eu120 2.392 . S
O131 C132 1.242 . S
C132 O130 1.258 . S
C132 O131 1.242 . S
O133 Eu120 2.418 . S
O133 C137 1.244 . S
O134 Eu121 2.488 . S
O134 C150 1.249 . S
O135 Eu121 2.471 . S
O135 C150 1.244 . S
O136 Eu121 2.349 . S
O136 C137 1.265 . S
C137 O133 1.244 . S
C137 O136 1.265 . S
O138 Eu120 2.373 . S
O138 C151 1.258 . S
O139 Eu121 2.392 . S
O139 C151 1.242 . S
O140 Eu121 2.418 . S
O140 C122 1.244 . S
O141 Eu120 2.488 . S
O141 C129 1.249 . S
O142 Eu120 2.471 . S
O142 C129 1.244 . S
O143 Eu120 2.349 . S
O143 C122 1.265 . S
C144 C145 1.379 . S
C144 C148 1.373 . S
C144 C150 1.505 . S
C145 C144 1.379 . S
C145 C147 1.369 . S
C145 H156 0.930 . S
C146 C148 1.383 . S
C146 C149 1.382 . S
C146 H157 0.930 . S
C147 C145 1.369 . S
C147 C149 1.392 . S
C147 H158 0.930 . S
C148 C144 1.373 . S
C148 C146 1.383 . S
C148 H159 0.931 . S
C149 C146 1.382 . S
C149 C147 1.392 . S
C150 Eu121 2.828 . S
C150 O134 1.249 . S
C150 O135 1.244 . S
C150 C144 1.505 . S
C151 O138 1.258 . S
C151 O139 1.242 . S
H152 C124 0.930 . S
H153 C125 0.930 . S
H154 C126 0.930 . S
H155 C127 0.931 . S
H156 C145 0.930 . S
H157 C146 0.930 . S
H158 C147 0.930 . S
H159 C148 0.931 . S
Eu160 C169 2.828 . S
Eu160 O171 2.392 . S
Eu160 O173 2.418 . S
Eu160 O178 2.373 . S
Eu160 O181 2.488 . S
Eu160 O182 2.471 . S
Eu160 O183 2.349 . S
Eu161 O170 2.373 . S
Eu161 O174 2.488 . S
Eu161 O175 2.471 . S
Eu161 O176 2.349 . S
Eu161 O179 2.392 . S
Eu161 O180 2.418 . S
Eu161 C190 2.828 . S
C162 O180 1.244 . S
C162 O183 1.265 . S
C163 C164 1.379 . S
C163 C167 1.373 . S
C163 C169 1.505 . S
C164 C163 1.379 . S
C164 C166 1.369 . S
C164 H192 0.930 . S
C165 C167 1.383 . S
C165 C168 1.382 . S
C165 H193 0.930 . S
C166 C164 1.369 . S
C166 C168 1.392 . S
C166 H194 0.930 . S
C167 C163 1.373 . S
C167 C165 1.383 . S
C167 H195 0.931 . S
C168 C165 1.382 . S
C168 C166 1.392 . S
C169 Eu160 2.828 . S
C169 C163 1.505 . S
C169 O181 1.249 . S
C169 O182 1.244 . S
O170 Eu161 2.373 . S
O170 C172 1.258 . S
O171 Eu160 2.392 . S
O171 C172 1.242 . S
C172 O170 1.258 . S
C172 O171 1.242 . S
O173 Eu160 2.418 . S
O173 C177 1.244 . S
O174 Eu161 2.488 . S
O174 C190 1.249 . S
O175 Eu161 2.471 . S
O175 C190 1.244 . S
O176 Eu161 2.349 . S
O176 C177 1.265 . S
C177 O173 1.244 . S
C177 O176 1.265 . S
O178 Eu160 2.373 . S
O178 C191 1.258 . S
O179 Eu161 2.392 . S
O179 C191 1.242 . S
O180 Eu161 2.418 . S
O180 C162 1.244 . S
O181 Eu160 2.488 . S
O181 C169 1.249 . S
O182 Eu160 2.471 . S
O182 C169 1.244 . S
O183 Eu160 2.349 . S
O183 C162 1.265 . S
C184 C185 1.379 . S
C184 C188 1.373 . S
C184 C190 1.505 . S
C185 C184 1.379 . S
C185 C187 1.369 . S
C185 H196 0.930 . S
C186 C188 1.383 . S
C186 C189 1.382 . S
C186 H197 0.930 . S
C187 C185 1.369 . S
C187 C189 1.392 . S
C187 H198 0.930 . S
C188 C184 1.373 . S
C188 C186 1.383 . S
C188 H199 0.931 . S
C189 C186 1.382 . S
C189 C187 1.392 . S
C190 Eu161 2.828 . S
C190 O174 1.249 . S
C190 O175 1.244 . S
C190 C184 1.505 . S
C191 O178 1.258 . S
C191 O179 1.242 . S
H192 C164 0.930 . S
H193 C165 0.930 . S
H194 C166 0.930 . S
H195 C167 0.931 . S
H196 C185 0.930 . S
H197 C186 0.930 . S
H198 C187 0.930 . S
H199 C188 0.931 . S
Eu200 C209 2.828 . S
Eu200 O211 2.392 . S
Eu200 O213 2.418 . S
Eu200 O218 2.373 . S
Eu200 O221 2.488 . S
Eu200 O222 2.471 . S
Eu200 O223 2.349 . S
Eu201 O210 2.373 . S
Eu201 O214 2.488 . S
Eu201 O215 2.471 . S
Eu201 O216 2.349 . S
Eu201 O219 2.392 . S
Eu201 O220 2.418 . S
Eu201 C230 2.828 . S
C202 O220 1.244 . S
C202 O223 1.265 . S
C203 C204 1.379 . S
C203 C207 1.373 . S
C203 C209 1.505 . S
C204 C203 1.379 . S
C204 C206 1.369 . S
C204 H232 0.930 . S
C205 C207 1.383 . S
C205 C208 1.382 . S
C205 H233 0.930 . S
C206 C204 1.369 . S
C206 C208 1.392 . S
C206 H234 0.930 . S
C207 C203 1.373 . S
C207 C205 1.383 . S
C207 H235 0.931 . S
C208 C205 1.382 . S
C208 C206 1.392 . S
C209 Eu200 2.828 . S
C209 C203 1.505 . S
C209 O221 1.249 . S
C209 O222 1.244 . S
O210 Eu201 2.373 . S
O210 C212 1.258 . S
O211 Eu200 2.392 . S
O211 C212 1.242 . S
C212 O210 1.258 . S
C212 O211 1.242 . S
O213 Eu200 2.418 . S
O213 C217 1.244 . S
O214 Eu201 2.488 . S
O214 C230 1.249 . S
O215 Eu201 2.471 . S
O215 C230 1.244 . S
O216 Eu201 2.349 . S
O216 C217 1.265 . S
C217 O213 1.244 . S
C217 O216 1.265 . S
O218 Eu200 2.373 . S
O218 C231 1.258 . S
O219 Eu201 2.392 . S
O219 C231 1.242 . S
O220 Eu201 2.418 . S
O220 C202 1.244 . S
O221 Eu200 2.488 . S
O221 C209 1.249 . S
O222 Eu200 2.471 . S
O222 C209 1.244 . S
O223 Eu200 2.349 . S
O223 C202 1.265 . S
C224 C225 1.379 . S
C224 C228 1.373 . S
C224 C230 1.505 . S
C225 C224 1.379 . S
C225 C227 1.369 . S
C225 H236 0.930 . S
C226 C228 1.383 . S
C226 C229 1.382 . S
C226 H237 0.930 . S
C227 C225 1.369 . S
C227 C229 1.392 . S
C227 H238 0.930 . S
C228 C224 1.373 . S
C228 C226 1.383 . S
C228 H239 0.931 . S
C229 C226 1.382 . S
C229 C227 1.392 . S
C230 Eu201 2.828 . S
C230 O214 1.249 . S
C230 O215 1.244 . S
C230 C224 1.505 . S
C231 O218 1.258 . S
C231 O219 1.242 . S
H232 C204 0.930 . S
H233 C205 0.930 . S
H234 C206 0.930 . S
H235 C207 0.931 . S
H236 C225 0.930 . S
H237 C226 0.930 . S
H238 C227 0.930 . S
H239 C228 0.931 . S
Eu240 C249 2.828 . S
Eu240 O251 2.392 . S
Eu240 O253 2.418 . S
Eu240 O258 2.373 . S
Eu240 O261 2.488 . S
Eu240 O262 2.471 . S
Eu240 O263 2.349 . S
Eu241 O250 2.373 . S
Eu241 O254 2.488 . S
Eu241 O255 2.471 . S
Eu241 O256 2.349 . S
Eu241 O259 2.392 . S
Eu241 O260 2.418 . S
Eu241 C270 2.828 . S
C242 O260 1.244 . S
C242 O263 1.265 . S
C243 C244 1.379 . S
C243 C247 1.373 . S
C243 C249 1.505 . S
C244 C243 1.379 . S
C244 C246 1.369 . S
C244 H272 0.930 . S
C245 C247 1.383 . S
C245 C248 1.382 . S
C245 H273 0.930 . S
C246 C244 1.369 . S
C246 C248 1.392 . S
C246 H274 0.930 . S
C247 C243 1.373 . S
C247 C245 1.383 . S
C247 H275 0.931 . S
C248 C245 1.382 . S
C248 C246 1.392 . S
C249 Eu240 2.828 . S
C249 C243 1.505 . S
C249 O261 1.249 . S
C249 O262 1.244 . S
O250 Eu241 2.373 . S
O250 C252 1.258 . S
O251 Eu240 2.392 . S
O251 C252 1.242 . S
C252 O250 1.258 . S
C252 O251 1.242 . S
O253 Eu240 2.418 . S
O253 C257 1.244 . S
O254 Eu241 2.488 . S
O254 C270 1.249 . S
O255 Eu241 2.471 . S
O255 C270 1.244 . S
O256 Eu241 2.349 . S
O256 C257 1.265 . S
C257 O253 1.244 . S
C257 O256 1.265 . S
O258 Eu240 2.373 . S
O258 C271 1.258 . S
O259 Eu241 2.392 . S
O259 C271 1.242 . S
O260 Eu241 2.418 . S
O260 C242 1.244 . S
O261 Eu240 2.488 . S
O261 C249 1.249 . S
O262 Eu240 2.471 . S
O262 C249 1.244 . S
O263 Eu240 2.349 . S
O263 C242 1.265 . S
C264 C265 1.379 . S
C264 C268 1.373 . S
C264 C270 1.505 . S
C265 C264 1.379 . S
C265 C267 1.369 . S
C265 H276 0.930 . S
C266 C268 1.383 . S
C266 C269 1.382 . S
C266 H277 0.930 . S
C267 C265 1.369 . S
C267 C269 1.392 . S
C267 H278 0.930 . S
C268 C264 1.373 . S
C268 C266 1.383 . S
C268 H279 0.931 . S
C269 C266 1.382 . S
C269 C267 1.392 . S
C270 Eu241 2.828 . S
C270 O254 1.249 . S
C270 O255 1.244 . S
C270 C264 1.505 . S
C271 O258 1.258 . S
C271 O259 1.242 . S
H272 C244 0.930 . S
H273 C245 0.930 . S
H274 C246 0.930 . S
H275 C247 0.931 . S
H276 C265 0.930 . S
H277 C266 0.930 . S
H278 C267 0.930 . S
H279 C268 0.931 . S
Eu280 C289 2.828 . S
Eu280 O291 2.392 . S
Eu280 O293 2.418 . S
Eu280 O298 2.373 . S
Eu280 O301 2.488 . S
Eu280 O302 2.471 . S
Eu280 O303 2.349 . S
Eu281 O290 2.373 . S
Eu281 O294 2.488 . S
Eu281 O295 2.471 . S
Eu281 O296 2.349 . S
Eu281 O299 2.392 . S
Eu281 O300 2.418 . S
Eu281 C310 2.828 . S
C282 O300 1.244 . S
C282 O303 1.265 . S
C283 C284 1.379 . S
C283 C287 1.373 . S
C283 C289 1.505 . S
C284 C283 1.379 . S
C284 C286 1.369 . S
C284 H312 0.930 . S
C285 C287 1.383 . S
C285 C288 1.382 . S
C285 H313 0.930 . S
C286 C284 1.369 . S
C286 C288 1.392 . S
C286 H314 0.930 . S
C287 C283 1.373 . S
C287 C285 1.383 . S
C287 H315 0.931 . S
C288 C285 1.382 . S
C288 C286 1.392 . S
C289 Eu280 2.828 . S
C289 C283 1.505 . S
C289 O301 1.249 . S
C289 O302 1.244 . S
O290 Eu281 2.373 . S
O290 C292 1.258 . S
O291 Eu280 2.392 . S
O291 C292 1.242 . S
C292 O290 1.258 . S
C292 O291 1.242 . S
O293 Eu280 2.418 . S
O293 C297 1.244 . S
O294 Eu281 2.488 . S
O294 C310 1.249 . S
O295 Eu281 2.471 . S
O295 C310 1.244 . S
O296 Eu281 2.349 . S
O296 C297 1.265 . S
C297 O293 1.244 . S
C297 O296 1.265 . S
O298 Eu280 2.373 . S
O298 C311 1.258 . S
O299 Eu281 2.392 . S
O299 C311 1.242 . S
O300 Eu281 2.418 . S
O300 C282 1.244 . S
O301 Eu280 2.488 . S
O301 C289 1.249 . S
O302 Eu280 2.471 . S
O302 C289 1.244 . S
O303 Eu280 2.349 . S
O303 C282 1.265 . S
C304 C305 1.379 . S
C304 C308 1.373 . S
C304 C310 1.505 . S
C305 C304 1.379 . S
C305 C307 1.369 . S
C305 H316 0.930 . S
C306 C308 1.383 . S
C306 C309 1.382 . S
C306 H317 0.930 . S
C307 C305 1.369 . S
C307 C309 1.392 . S
C307 H318 0.930 . S
C308 C304 1.373 . S
C308 C306 1.383 . S
C308 H319 0.931 . S
C309 C306 1.382 . S
C309 C307 1.392 . S
C310 Eu281 2.828 . S
C310 O294 1.249 . S
C310 O295 1.244 . S
C310 C304 1.505 . S
C311 O298 1.258 . S
C311 O299 1.242 . S
H312 C284 0.930 . S
H313 C285 0.930 . S
H314 C286 0.930 . S
H315 C287 0.931 . S
H316 C305 0.930 . S
H317 C306 0.930 . S
H318 C307 0.930 . S
H319 C308 0.931 . S
C320 O332 1.241 . S
C320 O333 1.280 . S
C321 O334 1.277 . S
C321 O335 1.245 . S
C322 O346 1.247 . S
C322 O348 1.289 . S
Mg323 O324 1.926 . S
Mg323 O333 1.984 . S
Mg323 O335 1.988 . S
Mg323 O336 2.061 1_655 S
O324 Mg323 1.926 . S
O324 Mg325 1.986 1_545 S
O324 Mg326 1.900 1_655 S
Mg325 O324 1.986 1_565 S
Mg325 O332 2.042 1_565 S
Mg325 O334 2.041 1_565 S
Mg325 O340 2.038 . S
Mg325 O348 2.238 . S
Mg326 O324 1.900 1_455 S
Mg326 O327 1.934 1_545 S
Mg326 O337 2.125 . S
Mg326 O339 2.073 1_445 S
Mg326 O348 2.088 1_445 S
Mg326 O349 2.085 . S
O327 Mg326 1.934 1_565 S
O327 Mg328 1.926 . S
O327 Mg329 1.986 1_565 S
Mg328 O327 1.926 . S
Mg328 O342 1.984 . S
Mg328 O345 1.988 . S
Mg328 O346 2.061 1_455 S
Mg329 O327 1.986 1_545 S
Mg329 O337 2.238 . S
Mg329 O341 2.042 1_545 S
Mg329 O343 2.041 1_545 S
Mg329 O350 2.038 . S
C330 O336 1.247 . S
C330 O337 1.289 . S
C331 O349 1.245 . S
C331 O350 1.274 . S
O332 C320 1.241 . S
O332 Mg325 2.042 1_545 S
O333 C320 1.280 . S
O333 Mg323 1.984 . S
O334 C321 1.277 . S
O334 Mg325 2.041 1_545 S
O335 C321 1.245 . S
O335 Mg323 1.988 . S
O336 Mg323 2.061 1_455 S
O336 C330 1.247 . S
O337 Mg326 2.125 . S
O337 Mg329 2.238 . S
O337 C330 1.289 . S
C338 O339 1.245 . S
C338 O340 1.274 . S
O339 Mg326 2.073 1_665 S
O339 C338 1.245 . S
O340 Mg325 2.038 . S
O340 C338 1.274 . S
O341 Mg329 2.042 1_565 S
O341 C344 1.241 . S
O342 Mg328 1.984 . S
O342 C344 1.280 . S
O343 Mg329 2.041 1_565 S
O343 C347 1.277 . S
C344 O341 1.241 . S
C344 O342 1.280 . S
O345 Mg328 1.988 . S
O345 C347 1.245 . S
O346 C322 1.247 . S
O346 Mg328 2.061 1_655 S
C347 O343 1.277 . S
C347 O345 1.245 . S
O348 C322 1.289 . S
O348 Mg325 2.238 . S
O348 Mg326 2.088 1_665 S
O349 Mg326 2.085 . S
O349 C331 1.245 . S
O350 Mg329 2.038 . S
O350 C331 1.274 . S
C351 O363 1.241 . S
C351 O364 1.280 . S
C352 O365 1.277 . S
C352 O366 1.245 . S
C353 O377 1.247 . S
C353 O379 1.289 . S
Mg354 O355 1.926 . S
Mg354 O364 1.984 . S
Mg354 O366 1.988 1_554 S
Mg354 O367 2.061 . S
O355 Mg354 1.926 . S
O355 Mg356 1.986 1_545 S
O355 Mg357 1.922 . S
Mg356 O355 1.986 1_565 S
Mg356 O363 2.042 1_565 S
Mg356 O365 2.041 1_564 S
Mg356 O371 2.038 . S
Mg356 O379 2.238 1_554 S
Mg357 O355 1.922 . S
Mg357 O358 1.911 1_544 S
Mg357 O368 2.111 . S
Mg357 O370 2.084 1_545 S
Mg357 O379 2.101 1_544 S
Mg357 O380 2.074 1_554 S
O358 Mg357 1.911 1_566 S
O358 Mg359 1.926 . S
O358 Mg360 1.986 1_565 S
Mg359 O358 1.926 . S
Mg359 O373 1.984 . S
Mg359 O376 1.988 1_556 S
Mg359 O377 2.061 . S
Mg360 O358 1.986 1_545 S
Mg360 O368 2.238 1_556 S
Mg360 O372 2.042 1_545 S
Mg360 O374 2.041 1_546 S
Mg360 O381 2.038 . S
C361 O367 1.247 . S
C361 O368 1.289 . S
C362 O380 1.245 . S
C362 O381 1.274 . S
O363 C351 1.241 . S
O363 Mg356 2.042 1_545 S
O364 C351 1.280 . S
O364 Mg354 1.984 . S
O365 C352 1.277 . S
O365 Mg356 2.041 1_546 S
O366 C352 1.245 . S
O366 Mg354 1.988 1_556 S
O367 Mg354 2.061 . S
O367 C361 1.247 . S
O368 Mg357 2.111 . S
O368 Mg360 2.238 1_554 S
O368 C361 1.289 . S
C369 O370 1.245 . S
C369 O371 1.274 . S
O370 Mg357 2.084 1_565 S
O370 C369 1.245 . S
O371 Mg356 2.038 . S
O371 C369 1.274 . S
O372 Mg360 2.042 1_565 S
O372 C375 1.241 . S
O373 Mg359 1.984 . S
O373 C375 1.280 . S
O374 Mg360 2.041 1_564 S
O374 C378 1.277 . S
C375 O372 1.241 . S
C375 O373 1.280 . S
O376 Mg359 1.988 1_554 S
O376 C378 1.245 . S
O377 C353 1.247 . S
O377 Mg359 2.061 . S
C378 O374 1.277 . S
C378 O376 1.245 . S
O379 C353 1.289 . S
O379 Mg356 2.238 1_556 S
O379 Mg357 2.101 1_566 S
O380 Mg357 2.074 1_556 S
O380 C362 1.245 . S
O381 Mg360 2.038 . S
O381 C362 1.274 . S
C382 O394 1.241 . S
C382 O395 1.280 . S
C383 O396 1.277 . S
C383 O397 1.245 . S
C384 O408 1.247 . S
C384 O410 1.289 . S
Mg385 O386 1.926 . S
Mg385 O395 1.984 . S
Mg385 O397 1.988 1_554 S
Mg385 O398 2.061 1_655 S
O386 Mg385 1.926 . S
O386 Mg387 1.986 . S
O386 Mg388 1.898 1_655 S
Mg387 O386 1.986 . S
Mg387 O394 2.042 . S
Mg387 O396 2.041 1_554 S
Mg387 O402 2.038 . S
Mg387 O410 2.238 1_554 S
Mg388 O386 1.898 1_455 S
Mg388 O389 1.936 1_554 S
Mg388 O399 2.129 . S
Mg388 O401 2.083 1_455 S
Mg388 O410 2.084 1_454 S
Mg388 O411 2.075 1_554 S
O389 Mg388 1.936 1_556 S
O389 Mg390 1.926 . S
O389 Mg391 1.986 . S
Mg390 O389 1.926 . S
Mg390 O404 1.984 . S
Mg390 O407 1.988 1_556 S
Mg390 O408 2.061 1_455 S
Mg391 O389 1.986 . S
Mg391 O399 2.238 1_556 S
Mg391 O403 2.042 . S
Mg391 O405 2.041 1_556 S
Mg391 O412 2.038 . S
C392 O398 1.247 . S
C392 O399 1.289 . S
C393 O411 1.245 . S
C393 O412 1.274 . S
O394 C382 1.241 . S
O394 Mg387 2.042 . S
O395 C382 1.280 . S
O395 Mg385 1.984 . S
O396 C383 1.277 . S
O396 Mg387 2.041 1_556 S
O397 C383 1.245 . S
O397 Mg385 1.988 1_556 S
O398 Mg385 2.061 1_455 S
O398 C392 1.247 . S
O399 Mg388 2.129 . S
O399 Mg391 2.238 1_554 S
O399 C392 1.289 . S
C400 O401 1.245 . S
C400 O402 1.274 . S
O401 Mg388 2.083 1_655 S
O401 C400 1.245 . S
O402 Mg387 2.038 . S
O402 C400 1.274 . S
O403 Mg391 2.042 . S
O403 C406 1.241 . S
O404 Mg390 1.984 . S
O404 C406 1.280 . S
O405 Mg391 2.041 1_554 S
O405 C409 1.277 . S
C406 O403 1.241 . S
C406 O404 1.280 . S
O407 Mg390 1.988 1_554 S
O407 C409 1.245 . S
O408 C384 1.247 . S
O408 Mg390 2.061 1_655 S
C409 O405 1.277 . S
C409 O407 1.245 . S
O410 C384 1.289 . S
O410 Mg387 2.238 1_556 S
O410 Mg388 2.084 1_656 S
O411 Mg388 2.075 1_556 S
O411 C393 1.245 . S
O412 Mg391 2.038 . S
O412 C393 1.274 . S
C413 O425 1.241 . S
C413 O426 1.280 . S
C414 O427 1.277 . S
C414 O428 1.245 . S
C415 O439 1.247 . S
C415 O441 1.289 . S
Mg416 O417 1.926 . S
Mg416 O426 1.984 . S
Mg416 O428 1.988 1_554 S
Mg416 O429 2.061 . S
O417 Mg416 1.926 . S
O417 Mg418 1.986 . S
O417 Mg419 1.919 . S
Mg418 O417 1.986 . S
Mg418 O425 2.042 . S
Mg418 O427 2.041 1_554 S
Mg418 O433 2.038 . S
Mg418 O441 2.238 1_554 S
Mg419 O417 1.919 . S
Mg419 O420 1.915 1_554 S
Mg419 O430 2.111 . S
Mg419 O432 2.086 . S
Mg419 O441 2.102 1_554 S
Mg419 O442 2.071 1_554 S
O420 Mg419 1.915 1_556 S
O420 Mg421 1.926 . S
O420 Mg422 1.986 . S
Mg421 O420 1.926 . S
Mg421 O435 1.984 . S
Mg421 O438 1.988 1_556 S
Mg421 O439 2.061 . S
Mg422 O420 1.986 . S
Mg422 O430 2.238 1_556 S
Mg422 O434 2.042 . S
Mg422 O436 2.041 1_556 S
Mg422 O443 2.038 . S
C423 O429 1.247 . S
C423 O430 1.289 . S
C424 O442 1.245 . S
C424 O443 1.274 . S
O425 C413 1.241 . S
O425 Mg418 2.042 . S
O426 C413 1.280 . S
O426 Mg416 1.984 . S
O427 C414 1.277 . S
O427 Mg418 2.041 1_556 S
O428 C414 1.245 . S
O428 Mg416 1.988 1_556 S
O429 Mg416 2.061 . S
O429 C423 1.247 . S
O430 Mg419 2.111 . S
O430 Mg422 2.238 1_554 S
O430 C423 1.289 . S
C431 O432 1.245 . S
C431 O433 1.274 . S
O432 Mg419 2.086 . S
O432 C431 1.245 . S
O433 Mg418 2.038 . S
O433 C431 1.274 . S
O434 Mg422 2.042 . S
O434 C437 1.241 . S
O435 Mg421 1.984 . S
O435 C437 1.280 . S
O436 Mg422 2.041 1_554 S
O436 C440 1.277 . S
C437 O434 1.241 . S
C437 O435 1.280 . S
O438 Mg421 1.988 1_554 S
O438 C440 1.245 . S
O439 C415 1.247 . S
O439 Mg421 2.061 . S
C440 O436 1.277 . S
C440 O438 1.245 . S
O441 C415 1.289 . S
O441 Mg418 2.238 1_556 S
O441 Mg419 2.102 1_556 S
O442 Mg419 2.071 1_556 S
O442 C424 1.245 . S
O443 Mg422 2.038 . S
O443 C424 1.274 . S
C444 O456 1.241 . S
C444 O457 1.280 . S
C445 O458 1.277 . S
C445 O459 1.245 . S
C446 O470 1.247 . S
C446 O472 1.289 . S
Mg447 O448 1.926 . S
Mg447 O457 1.984 . S
Mg447 O459 1.988 . S
Mg447 O460 2.061 1_655 S
O448 Mg447 1.926 . S
O448 Mg449 1.986 . S
O448 Mg450 1.896 1_655 S
Mg449 O448 1.986 . S
Mg449 O456 2.042 . S
Mg449 O458 2.041 . S
Mg449 O464 2.038 . S
Mg449 O472 2.238 . S
Mg450 O448 1.896 1_455 S
Mg450 O451 1.938 . S
Mg450 O461 2.125 . S
Mg450 O463 2.075 1_455 S
Mg450 O472 2.088 1_455 S
Mg450 O473 2.082 . S
O451 Mg450 1.938 . S
O451 Mg452 1.926 . S
O451 Mg453 1.986 . S
Mg452 O451 1.926 . S
Mg452 O466 1.984 . S
Mg452 O469 1.988 . S
Mg452 O470 2.061 1_455 S
Mg453 O451 1.986 . S
Mg453 O461 2.238 . S
Mg453 O465 2.042 . S
Mg453 O467 2.041 . S
Mg453 O474 2.038 . S
C454 O460 1.247 . S
C454 O461 1.289 . S
C455 O473 1.245 . S
C455 O474 1.274 . S
O456 C444 1.241 . S
O456 Mg449 2.042 . S
O457 C444 1.280 . S
O457 Mg447 1.984 . S
O458 C445 1.277 . S
O458 Mg449 2.041 . S
O459 C445 1.245 . S
O459 Mg447 1.988 . S
O460 Mg447 2.061 1_455 S
O460 C454 1.247 . S
O461 Mg450 2.125 . S
O461 Mg453 2.238 . S
O461 C454 1.289 . S
C462 O463 1.245 . S
C462 O464 1.274 . S
O463 Mg450 2.075 1_655 S
O463 C462 1.245 . S
O464 Mg449 2.038 . S
O464 C462 1.274 . S
O465 Mg453 2.042 . S
O465 C468 1.241 . S
O466 Mg452 1.984 . S
O466 C468 1.280 . S
O467 Mg453 2.041 . S
O467 C471 1.277 . S
C468 O465 1.241 . S
C468 O466 1.280 . S
O469 Mg452 1.988 . S
O469 C471 1.245 . S
O470 C446 1.247 . S
O470 Mg452 2.061 1_655 S
C471 O467 1.277 . S
C471 O469 1.245 . S
O472 C446 1.289 . S
O472 Mg449 2.238 . S
O472 Mg450 2.088 1_655 S
O473 Mg450 2.082 . S
O473 C455 1.245 . S
O474 Mg453 2.038 . S
O474 C455 1.274 . S
C475 O487 1.241 . S
C475 O488 1.280 . S
C476 O489 1.277 . S
C476 O490 1.245 . S
C477 O501 1.247 . S
C477 O503 1.289 . S
Mg478 O479 1.926 . S
Mg478 O488 1.984 . S
Mg478 O490 1.988 . S
Mg478 O491 2.061 . S
O479 Mg478 1.926 . S
O479 Mg480 1.986 1_545 S
O479 Mg481 1.921 . S
Mg480 O479 1.986 1_565 S
Mg480 O487 2.042 1_565 S
Mg480 O489 2.041 1_565 S
Mg480 O495 2.038 . S
Mg480 O503 2.238 . S
Mg481 O479 1.921 . S
Mg481 O482 1.913 1_545 S
Mg481 O492 2.107 . S
Mg481 O494 2.076 1_545 S
Mg481 O503 2.106 1_545 S
Mg481 O504 2.081 . S
O482 Mg481 1.913 1_565 S
O482 Mg483 1.926 . S
O482 Mg484 1.986 1_565 S
Mg483 O482 1.926 . S
Mg483 O497 1.984 . S
Mg483 O500 1.988 . S
Mg483 O501 2.061 . S
Mg484 O482 1.986 1_545 S
Mg484 O492 2.238 . S
Mg484 O496 2.042 1_545 S
Mg484 O498 2.041 1_545 S
Mg484 O505 2.038 . S
C485 O491 1.247 . S
C485 O492 1.289 . S
C486 O504 1.245 . S
C486 O505 1.274 . S
O487 C475 1.241 . S
O487 Mg480 2.042 1_545 S
O488 C475 1.280 . S
O488 Mg478 1.984 . S
O489 C476 1.277 . S
O489 Mg480 2.041 1_545 S
O490 C476 1.245 . S
O490 Mg478 1.988 . S
O491 Mg478 2.061 . S
O491 C485 1.247 . S
O492 Mg481 2.107 . S
O492 Mg484 2.238 . S
O492 C485 1.289 . S
C493 O494 1.245 . S
C493 O495 1.274 . S
O494 Mg481 2.076 1_565 S
O494 C493 1.245 . S
O495 Mg480 2.038 . S
O495 C493 1.274 . S
O496 Mg484 2.042 1_565 S
O496 C499 1.241 . S
O497 Mg483 1.984 . S
O497 C499 1.280 . S
O498 Mg484 2.041 1_565 S
O498 C502 1.277 . S
C499 O496 1.241 . S
C499 O497 1.280 . S
O500 Mg483 1.988 . S
O500 C502 1.245 . S
O501 C477 1.247 . S
O501 Mg483 2.061 . S
C502 O498 1.277 . S
C502 O500 1.245 . S
O503 C477 1.289 . S
O503 Mg480 2.238 . S
O503 Mg481 2.106 1_565 S
O504 Mg481 2.081 . S
O504 C486 1.245 . S
O505 Mg484 2.038 . S
O505 C486 1.274 . S
H506 C512 0.930 . S
H507 C516 0.930 . S
H508 C521 0.929 . S
H509 C519 0.929 . S
H510 C514 0.929 . S
H511 C520 0.929 . S
C512 H506 0.930 . S
C512 C513 1.367 . S
C512 C520 1.378 . S
C513 C512 1.367 . S
C513 C521 1.433 . S
C514 H510 0.929 . S
C514 C516 1.378 . S
C514 C518 1.350 . S
C515 C518 1.463 . S
C515 C520 1.350 . S
C515 N523 1.427 . S
C516 H507 0.930 . S
C516 C514 1.378 . S
C516 C517 1.367 . S
C517 C516 1.367 . S
C517 C519 1.433 . S
C518 C514 1.350 . S
C518 C515 1.463 . S
C518 N522 1.427 . S
C519 H509 0.929 . S
C519 C517 1.433 . S
C519 N522 1.384 . S
C520 H511 0.929 . S
C520 C512 1.378 . S
C520 C515 1.350 . S
C521 H508 0.929 . S
C521 C513 1.433 . S
C521 N523 1.384 . S
N522 C518 1.427 . S
N522 C519 1.384 . S
N523 C515 1.427 . S
N523 C521 1.384 . S
H524 C530 0.930 . S
H525 C534 0.930 . S
H526 C539 0.929 . S
H527 C537 0.929 . S
H528 C532 0.929 . S
H529 C538 0.929 . S
C530 H524 0.930 . S
C530 C531 1.367 . S
C530 C538 1.378 . S
C531 C530 1.367 . S
C531 C539 1.433 . S
C532 H528 0.929 . S
C532 C534 1.378 . S
C532 C536 1.350 . S
C533 C536 1.463 . S
C533 C538 1.350 . S
C533 N541 1.427 . S
C534 H525 0.930 . S
C534 C532 1.378 . S
C534 C535 1.367 . S
C535 C534 1.367 . S
C535 C537 1.433 . S
C536 C532 1.350 . S
C536 C533 1.463 . S
C536 N540 1.427 . S
C537 H527 0.929 . S
C537 C535 1.433 . S
C537 N540 1.384 . S
C538 H529 0.929 . S
C538 C530 1.378 . S
C538 C533 1.350 . S
C539 H526 0.929 . S
C539 C531 1.433 . S
C539 N541 1.384 . S
N540 C536 1.427 . S
N540 C537 1.384 . S
N541 C533 1.427 . S
N541 C539 1.384 . S
H542 C548 0.930 . S
H543 C552 0.930 . S
H544 C557 0.929 . S
H545 C555 0.929 . S
H546 C550 0.929 . S
H547 C556 0.929 . S
C548 H542 0.930 . S
C548 C549 1.367 . S
C548 C556 1.378 . S
C549 C548 1.367 . S
C549 C557 1.433 . S
C550 H546 0.929 . S
C550 C552 1.378 . S
C550 C554 1.350 . S
C551 C554 1.463 . S
C551 C556 1.350 . S
C551 N559 1.427 . S
C552 H543 0.930 . S
C552 C550 1.378 . S
C552 C553 1.367 . S
C553 C552 1.367 . S
C553 C555 1.433 . S
C554 C550 1.350 . S
C554 C551 1.463 . S
C554 N558 1.427 . S
C555 H545 0.929 . S
C555 C553 1.433 . S
C555 N558 1.384 . S
C556 H547 0.929 . S
C556 C548 1.378 . S
C556 C551 1.350 . S
C557 H544 0.929 . S
C557 C549 1.433 . S
C557 N559 1.384 . S
N558 C554 1.427 . S
N558 C555 1.384 . S
N559 C551 1.427 . S
N559 C557 1.384 . S
H560 C566 0.930 . S
H561 C570 0.930 . S
H562 C575 0.929 . S
H563 C573 0.929 . S
H564 C568 0.929 . S
H565 C574 0.929 . S
C566 H560 0.930 . S
C566 C567 1.367 . S
C566 C574 1.378 . S
C567 C566 1.367 . S
C567 C575 1.433 . S
C568 H564 0.929 . S
C568 C570 1.378 . S
C568 C572 1.350 . S
C569 C572 1.463 . S
C569 C574 1.350 . S
C569 N577 1.427 . S
C570 H561 0.930 . S
C570 C568 1.378 . S
C570 C571 1.367 . S
C571 C570 1.367 . S
C571 C573 1.433 . S
C572 C568 1.350 . S
C572 C569 1.463 . S
C572 N576 1.427 . S
C573 H563 0.929 . S
C573 C571 1.433 . S
C573 N576 1.384 . S
C574 H565 0.929 . S
C574 C566 1.378 . S
C574 C569 1.350 . S
C575 H562 0.929 . S
C575 C567 1.433 . S
C575 N577 1.384 . S
N576 C572 1.427 . S
N576 C573 1.384 . S
N577 C569 1.427 . S
N577 C575 1.384 . S
H578 C584 0.930 . S
H579 C588 0.930 . S
H580 C593 0.929 . S
H581 C591 0.929 . S
H582 C586 0.929 . S
H583 C592 0.929 . S
C584 H578 0.930 . S
C584 C585 1.367 . S
C584 C592 1.378 . S
C585 C584 1.367 . S
C585 C593 1.433 . S
C586 H582 0.929 . S
C586 C588 1.378 . S
C586 C590 1.350 . S
C587 C590 1.463 . S
C587 C592 1.350 . S
C587 N595 1.427 . S
C588 H579 0.930 . S
C588 C586 1.378 . S
C588 C589 1.367 . S
C589 C588 1.367 . S
C589 C591 1.433 . S
C590 C586 1.350 . S
C590 C587 1.463 . S
C590 N594 1.427 . S
C591 H581 0.929 . S
C591 C589 1.433 . S
C591 N594 1.384 . S
C592 H583 0.929 . S
C592 C584 1.378 . S
C592 C587 1.350 . S
C593 H580 0.929 . S
C593 C585 1.433 . S
C593 N595 1.384 . S
N594 C590 1.427 . S
N594 C591 1.384 . S
N595 C587 1.427 . S
N595 C593 1.384 . S
H596 C602 0.930 . S
H597 C606 0.930 . S
H598 C611 0.929 . S
H599 C609 0.929 . S
H600 C604 0.929 . S
H601 C610 0.929 . S
C602 H596 0.930 . S
C602 C603 1.367 . S
C602 C610 1.378 . S
C603 C602 1.367 . S
C603 C611 1.433 . S
C604 H600 0.929 . S
C604 C606 1.378 . S
C604 C608 1.350 . S
C605 C608 1.463 . S
C605 C610 1.350 . S
C605 N613 1.427 . S
C606 H597 0.930 . S
C606 C604 1.378 . S
C606 C607 1.367 . S
C607 C606 1.367 . S
C607 C609 1.433 . S
C608 C604 1.350 . S
C608 C605 1.463 . S
C608 N612 1.427 . S
C609 H599 0.929 . S
C609 C607 1.433 . S
C609 N612 1.384 . S
C610 H601 0.929 . S
C610 C602 1.378 . S
C610 C605 1.350 . S
C611 H598 0.929 . S
C611 C603 1.433 . S
C611 N613 1.384 . S
N612 C608 1.427 . S
N612 C609 1.384 . S
N613 C605 1.427 . S
N613 C611 1.384 . S
H614 C620 0.930 . S
H615 C624 0.930 . S
H616 C629 0.929 . S
H617 C627 0.929 . S
H618 C622 0.929 . S
H619 C628 0.929 . S
C620 H614 0.930 . S
C620 C621 1.367 . S
C620 C628 1.378 . S
C621 C620 1.367 . S
C621 C629 1.433 . S
C622 H618 0.929 . S
C622 C624 1.378 . S
C622 C626 1.350 . S
C623 C626 1.463 . S
C623 C628 1.350 . S
C623 N631 1.427 . S
C624 H615 0.930 . S
C624 C622 1.378 . S
C624 C625 1.367 . S
C625 C624 1.367 . S
C625 C627 1.433 . S
C626 C622 1.350 . S
C626 C623 1.463 . S
C626 N630 1.427 . S
C627 H617 0.929 . S
C627 C625 1.433 . S
C627 N630 1.384 . S
C628 H619 0.929 . S
C628 C620 1.378 . S
C628 C623 1.350 . S
C629 H616 0.929 . S
C629 C621 1.433 . S
C629 N631 1.384 . S
N630 C626 1.427 . S
N630 C627 1.384 . S
N631 C623 1.427 . S
N631 C629 1.384 . S
H632 C638 0.930 . S
H633 C642 0.930 . S
H634 C647 0.929 . S
H635 C645 0.929 . S
H636 C640 0.929 . S
H637 C646 0.929 . S
C638 H632 0.930 . S
C638 C639 1.367 . S
C638 C646 1.378 . S
C639 C638 1.367 . S
C639 C647 1.433 . S
C640 H636 0.929 . S
C640 C642 1.378 . S
C640 C644 1.350 . S
C641 C644 1.463 . S
C641 C646 1.350 . S
C641 N649 1.427 . S
C642 H633 0.930 . S
C642 C640 1.378 . S
C642 C643 1.367 . S
C643 C642 1.367 . S
C643 C645 1.433 . S
C644 C640 1.350 . S
C644 C641 1.463 . S
C644 N648 1.427 . S
C645 H635 0.929 . S
C645 C643 1.433 . S
C645 N648 1.384 . S
C646 H637 0.929 . S
C646 C638 1.378 . S
C646 C641 1.350 . S
C647 H634 0.929 . S
C647 C639 1.433 . S
C647 N649 1.384 . S
N648 C644 1.427 . S
N648 C645 1.384 . S
N649 C641 1.427 . S
N649 C647 1.384 . S
H650 C656 0.930 . S
H651 C660 0.930 . S
H652 C665 0.929 . S
H653 C663 0.929 . S
H654 C658 0.929 . S
H655 C664 0.929 . S
C656 H650 0.930 . S
C656 C657 1.367 . S
C656 C664 1.378 . S
C657 C656 1.367 . S
C657 C665 1.433 . S
C658 H654 0.929 . S
C658 C660 1.378 . S
C658 C662 1.350 . S
C659 C662 1.463 . S
C659 C664 1.350 . S
C659 N667 1.427 . S
C660 H651 0.930 . S
C660 C658 1.378 . S
C660 C661 1.367 . S
C661 C660 1.367 . S
C661 C663 1.433 . S
C662 C658 1.350 . S
C662 C659 1.463 . S
C662 N666 1.427 . S
C663 H653 0.929 . S
C663 C661 1.433 . S
C663 N666 1.384 . S
C664 H655 0.929 . S
C664 C656 1.378 . S
C664 C659 1.350 . S
C665 H652 0.929 . S
C665 C657 1.433 . S
C665 N667 1.384 . S
N666 C662 1.427 . S
N666 C663 1.384 . S
N667 C659 1.427 . S
N667 C665 1.384 . S
H668 C674 0.930 . S
H669 C678 0.930 . S
H670 C683 0.929 . S
H671 C681 0.929 . S
H672 C676 0.929 . S
H673 C682 0.929 . S
C674 H668 0.930 . S
C674 C675 1.367 . S
C674 C682 1.378 . S
C675 C674 1.367 . S
C675 C683 1.433 . S
C676 H672 0.929 . S
C676 C678 1.378 . S
C676 C680 1.350 . S
C677 C680 1.463 . S
C677 C682 1.350 . S
C677 N685 1.427 . S
C678 H669 0.930 . S
C678 C676 1.378 . S
C678 C679 1.367 . S
C679 C678 1.367 . S
C679 C681 1.433 . S
C680 C676 1.350 . S
C680 C677 1.463 . S
C680 N684 1.427 . S
C681 H671 0.929 . S
C681 C679 1.433 . S
C681 N684 1.384 . S
C682 H673 0.929 . S
C682 C674 1.378 . S
C682 C677 1.350 . S
C683 H670 0.929 . S
C683 C675 1.433 . S
C683 N685 1.384 . S
N684 C680 1.427 . S
N684 C681 1.384 . S
N685 C677 1.427 . S
N685 C683 1.384 . S
H686 C692 0.930 . S
H687 C696 0.930 . S
H688 C701 0.929 . S
H689 C699 0.929 . S
H690 C694 0.929 . S
H691 C700 0.929 . S
C692 H686 0.930 . S
C692 C693 1.367 . S
C692 C700 1.378 . S
C693 C692 1.367 . S
C693 C701 1.433 . S
C694 H690 0.929 . S
C694 C696 1.378 . S
C694 C698 1.350 . S
C695 C698 1.463 . S
C695 C700 1.350 . S
C695 N703 1.427 . S
C696 H687 0.930 . S
C696 C694 1.378 . S
C696 C697 1.367 . S
C697 C696 1.367 . S
C697 C699 1.433 . S
C698 C694 1.350 . S
C698 C695 1.463 . S
C698 N702 1.427 . S
C699 H689 0.929 . S
C699 C697 1.433 . S
C699 N702 1.384 . S
C700 H691 0.929 . S
C700 C692 1.378 . S
C700 C695 1.350 . S
C701 H688 0.929 . S
C701 C693 1.433 . S
C701 N703 1.384 . S
N702 C698 1.427 . S
N702 C699 1.384 . S
N703 C695 1.427 . S
N703 C701 1.384 . S
H704 C710 0.930 . S
H705 C714 0.930 . S
H706 C719 0.929 . S
H707 C717 0.929 . S
H708 C712 0.929 . S
H709 C718 0.929 . S
C710 H704 0.930 . S
C710 C711 1.367 . S
C710 C718 1.378 . S
C711 C710 1.367 . S
C711 C719 1.433 . S
C712 H708 0.929 . S
C712 C714 1.378 . S
C712 C716 1.350 . S
C713 C716 1.463 . S
C713 C718 1.350 . S
C713 N721 1.427 . S
C714 H705 0.930 . S
C714 C712 1.378 . S
C714 C715 1.367 . S
C715 C714 1.367 . S
C715 C717 1.433 . S
C716 C712 1.350 . S
C716 C713 1.463 . S
C716 N720 1.427 . S
C717 H707 0.929 . S
C717 C715 1.433 . S
C717 N720 1.384 . S
C718 H709 0.929 . S
C718 C710 1.378 . S
C718 C713 1.350 . S
C719 H706 0.929 . S
C719 C711 1.433 . S
C719 N721 1.384 . S
N720 C716 1.427 . S
N720 C717 1.384 . S
N721 C713 1.427 . S
N721 C719 1.384 . S
H722 C728 0.930 . S
H723 C732 0.930 . S
H724 C737 0.929 . S
H725 C735 0.929 . S
H726 C730 0.929 . S
H727 C736 0.929 . S
C728 H722 0.930 . S
C728 C729 1.367 . S
C728 C736 1.378 . S
C729 C728 1.367 . S
C729 C737 1.433 . S
C730 H726 0.929 . S
C730 C732 1.378 . S
C730 C734 1.350 . S
C731 C734 1.463 . S
C731 C736 1.350 . S
C731 N739 1.427 . S
C732 H723 0.930 . S
C732 C730 1.378 . S
C732 C733 1.367 . S
C733 C732 1.367 . S
C733 C735 1.433 . S
C734 C730 1.350 . S
C734 C731 1.463 . S
C734 N738 1.427 . S
C735 H725 0.929 . S
C735 C733 1.433 . S
C735 N738 1.384 . S
C736 H727 0.929 . S
C736 C728 1.378 . S
C736 C731 1.350 . S
C737 H724 0.929 . S
C737 C729 1.433 . S
C737 N739 1.384 . S
N738 C734 1.427 . S
N738 C735 1.384 . S
N739 C731 1.427 . S
N739 C737 1.384 . S
H740 C746 0.930 . S
H741 C750 0.930 . S
H742 C755 0.929 . S
H743 C753 0.929 . S
H744 C748 0.929 . S
H745 C754 0.929 . S
C746 H740 0.930 . S
C746 C747 1.367 . S
C746 C754 1.378 . S
C747 C746 1.367 . S
C747 C755 1.433 . S
C748 H744 0.929 . S
C748 C750 1.378 . S
C748 C752 1.350 . S
C749 C752 1.463 . S
C749 C754 1.350 . S
C749 N757 1.427 . S
C750 H741 0.930 . S
C750 C748 1.378 . S
C750 C751 1.367 . S
C751 C750 1.367 . S
C751 C753 1.433 . S
C752 C748 1.350 . S
C752 C749 1.463 . S
C752 N756 1.427 . S
C753 H743 0.929 . S
C753 C751 1.433 . S
C753 N756 1.384 . S
C754 H745 0.929 . S
C754 C746 1.378 . S
C754 C749 1.350 . S
C755 H742 0.929 . S
C755 C747 1.433 . S
C755 N757 1.384 . S
N756 C752 1.427 . S
N756 C753 1.384 . S
N757 C749 1.427 . S
N757 C755 1.384 . S
H758 C764 0.930 . S
H759 C768 0.930 . S
H760 C773 0.929 . S
H761 C771 0.929 . S
H762 C766 0.929 . S
H763 C772 0.929 . S
C764 H758 0.930 . S
C764 C765 1.367 . S
C764 C772 1.378 . S
C765 C764 1.367 . S
C765 C773 1.433 . S
C766 H762 0.929 . S
C766 C768 1.378 . S
C766 C770 1.350 . S
C767 C770 1.463 . S
C767 C772 1.350 . S
C767 N775 1.427 . S
C768 H759 0.930 . S
C768 C766 1.378 . S
C768 C769 1.367 . S
C769 C768 1.367 . S
C769 C771 1.433 . S
C770 C766 1.350 . S
C770 C767 1.463 . S
C770 N774 1.427 . S
C771 H761 0.929 . S
C771 C769 1.433 . S
C771 N774 1.384 . S
C772 H763 0.929 . S
C772 C764 1.378 . S
C772 C767 1.350 . S
C773 H760 0.929 . S
C773 C765 1.433 . S
C773 N775 1.384 . S
N774 C770 1.427 . S
N774 C771 1.384 . S
N775 C767 1.427 . S
N775 C773 1.384 . S
H776 C782 0.930 . S
H777 C786 0.930 . S
H778 C791 0.929 . S
H779 C789 0.929 . S
H780 C784 0.929 . S
H781 C790 0.929 . S
C782 H776 0.930 . S
C782 C783 1.367 . S
C782 C790 1.378 . S
C783 C782 1.367 . S
C783 C791 1.433 . S
C784 H780 0.929 . S
C784 C786 1.378 . S
C784 C788 1.350 . S
C785 C788 1.463 . S
C785 C790 1.350 . S
C785 N793 1.427 . S
C786 H777 0.930 . S
C786 C784 1.378 . S
C786 C787 1.367 . S
C787 C786 1.367 . S
C787 C789 1.433 . S
C788 C784 1.350 . S
C788 C785 1.463 . S
C788 N792 1.427 . S
C789 H779 0.929 . S
C789 C787 1.433 . S
C789 N792 1.384 . S
C790 H781 0.929 . S
C790 C782 1.378 . S
C790 C785 1.350 . S
C791 H778 0.929 . S
C791 C783 1.433 . S
C791 N793 1.384 . S
N792 C788 1.427 . S
N792 C789 1.384 . S
N793 C785 1.427 . S
N793 C791 1.384 . S
H794 C800 0.930 . S
H795 C804 0.930 . S
H796 C809 0.929 . S
H797 C807 0.929 . S
H798 C802 0.929 . S
H799 C808 0.929 . S
C800 H794 0.930 . S
C800 C801 1.367 . S
C800 C808 1.378 . S
C801 C800 1.367 . S
C801 C809 1.433 . S
C802 H798 0.929 . S
C802 C804 1.378 . S
C802 C806 1.350 . S
C803 C806 1.463 . S
C803 C808 1.350 . S
C803 N811 1.427 . S
C804 H795 0.930 . S
C804 C802 1.378 . S
C804 C805 1.367 . S
C805 C804 1.367 . S
C805 C807 1.433 . S
C806 C802 1.350 . S
C806 C803 1.463 . S
C806 N810 1.427 . S
C807 H797 0.929 . S
C807 C805 1.433 . S
C807 N810 1.384 . S
C808 H799 0.929 . S
C808 C800 1.378 . S
C808 C803 1.350 . S
C809 H796 0.929 . S
C809 C801 1.433 . S
C809 N811 1.384 . S
N810 C806 1.427 . S
N810 C807 1.384 . S
N811 C803 1.427 . S
N811 C809 1.384 . S
H812 C818 0.930 . S
H813 C822 0.930 . S
H814 C827 0.929 . S
H815 C825 0.929 . S
H816 C820 0.929 . S
H817 C826 0.929 . S
C818 H812 0.930 . S
C818 C819 1.367 . S
C818 C826 1.378 . S
C819 C818 1.367 . S
C819 C827 1.433 . S
C820 H816 0.929 . S
C820 C822 1.378 . S
C820 C824 1.350 . S
C821 C824 1.463 . S
C821 C826 1.350 . S
C821 N829 1.427 . S
C822 H813 0.930 . S
C822 C820 1.378 . S
C822 C823 1.367 . S
C823 C822 1.367 . S
C823 C825 1.433 . S
C824 C820 1.350 . S
C824 C821 1.463 . S
C824 N828 1.427 . S
C825 H815 0.929 . S
C825 C823 1.433 . S
C825 N828 1.384 . S
C826 H817 0.929 . S
C826 C818 1.378 . S
C826 C821 1.350 . S
C827 H814 0.929 . S
C827 C819 1.433 . S
C827 N829 1.384 . S
N828 C824 1.427 . S
N828 C825 1.384 . S
N829 C821 1.427 . S
N829 C827 1.384 . S
H830 C836 0.930 . S
H831 C840 0.930 . S
H832 C845 0.929 . S
H833 C843 0.929 . S
H834 C838 0.929 . S
H835 C844 0.929 . S
C836 H830 0.930 . S
C836 C837 1.367 . S
C836 C844 1.378 . S
C837 C836 1.367 . S
C837 C845 1.433 . S
C838 H834 0.929 . S
C838 C840 1.378 . S
C838 C842 1.350 . S
C839 C842 1.463 . S
C839 C844 1.350 . S
C839 N847 1.427 . S
C840 H831 0.930 . S
C840 C838 1.378 . S
C840 C841 1.367 . S
C841 C840 1.367 . S
C841 C843 1.433 . S
C842 C838 1.350 . S
C842 C839 1.463 . S
C842 N846 1.427 . S
C843 H833 0.929 . S
C843 C841 1.433 . S
C843 N846 1.384 . S
C844 H835 0.929 . S
C844 C836 1.378 . S
C844 C839 1.350 . S
C845 H832 0.929 . S
C845 C837 1.433 . S
C845 N847 1.384 . S
N846 C842 1.427 . S
N846 C843 1.384 . S
N847 C839 1.427 . S
N847 C845 1.384 . S
H848 C854 0.930 . S
H849 C858 0.930 . S
H850 C863 0.929 . S
H851 C861 0.929 . S
H852 C856 0.929 . S
H853 C862 0.929 . S
C854 H848 0.930 . S
C854 C855 1.367 . S
C854 C862 1.378 . S
C855 C854 1.367 . S
C855 C863 1.433 . S
C856 H852 0.929 . S
C856 C858 1.378 . S
C856 C860 1.350 . S
C857 C860 1.463 . S
C857 C862 1.350 . S
C857 N865 1.427 . S
C858 H849 0.930 . S
C858 C856 1.378 . S
C858 C859 1.367 . S
C859 C858 1.367 . S
C859 C861 1.433 . S
C860 C856 1.350 . S
C860 C857 1.463 . S
C860 N864 1.427 . S
C861 H851 0.929 . S
C861 C859 1.433 . S
C861 N864 1.384 . S
C862 H853 0.929 . S
C862 C854 1.378 . S
C862 C857 1.350 . S
C863 H850 0.929 . S
C863 C855 1.433 . S
C863 N865 1.384 . S
N864 C860 1.427 . S
N864 C861 1.384 . S
N865 C857 1.427 . S
N865 C863 1.384 . S
H866 C872 0.930 . S
H867 C876 0.930 . S
H868 C881 0.929 . S
H869 C879 0.929 . S
H870 C874 0.929 . S
H871 C880 0.929 . S
C872 H866 0.930 . S
C872 C873 1.367 . S
C872 C880 1.378 . S
C873 C872 1.367 . S
C873 C881 1.433 . S
C874 H870 0.929 . S
C874 C876 1.378 . S
C874 C878 1.350 . S
C875 C878 1.463 . S
C875 C880 1.350 . S
C875 N883 1.427 . S
C876 H867 0.930 . S
C876 C874 1.378 . S
C876 C877 1.367 . S
C877 C876 1.367 . S
C877 C879 1.433 . S
C878 C874 1.350 . S
C878 C875 1.463 . S
C878 N882 1.427 . S
C879 H869 0.929 . S
C879 C877 1.433 . S
C879 N882 1.384 . S
C880 H871 0.929 . S
C880 C872 1.378 . S
C880 C875 1.350 . S
C881 H868 0.929 . S
C881 C873 1.433 . S
C881 N883 1.384 . S
N882 C878 1.427 . S
N882 C879 1.384 . S
N883 C875 1.427 . S
N883 C881 1.384 . S
H884 C890 0.930 . S
H885 C894 0.930 . S
H886 C899 0.929 . S
H887 C897 0.929 . S
H888 C892 0.929 . S
H889 C898 0.929 . S
C890 H884 0.930 . S
C890 C891 1.367 . S
C890 C898 1.378 . S
C891 C890 1.367 . S
C891 C899 1.433 . S
C892 H888 0.929 . S
C892 C894 1.378 . S
C892 C896 1.350 . S
C893 C896 1.463 . S
C893 C898 1.350 . S
C893 N901 1.427 . S
C894 H885 0.930 . S
C894 C892 1.378 . S
C894 C895 1.367 . S
C895 C894 1.367 . S
C895 C897 1.433 . S
C896 C892 1.350 . S
C896 C893 1.463 . S
C896 N900 1.427 . S
C897 H887 0.929 . S
C897 C895 1.433 . S
C897 N900 1.384 . S
C898 H889 0.929 . S
C898 C890 1.378 . S
C898 C893 1.350 . S
C899 H886 0.929 . S
C899 C891 1.433 . S
C899 N901 1.384 . S
N900 C896 1.427 . S
N900 C897 1.384 . S
N901 C893 1.427 . S
N901 C899 1.384 . S
H902 C908 0.930 . S
H903 C912 0.930 . S
H904 C917 0.929 . S
H905 C915 0.929 . S
H906 C910 0.929 . S
H907 C916 0.929 . S
C908 H902 0.930 . S
C908 C909 1.367 . S
C908 C916 1.378 . S
C909 C908 1.367 . S
C909 C917 1.433 . S
C910 H906 0.929 . S
C910 C912 1.378 . S
C910 C914 1.350 . S
C911 C914 1.463 . S
C911 C916 1.350 . S
C911 N919 1.427 . S
C912 H903 0.930 . S
C912 C910 1.378 . S
C912 C913 1.367 . S
C913 C912 1.367 . S
C913 C915 1.433 . S
C914 C910 1.350 . S
C914 C911 1.463 . S
C914 N918 1.427 . S
C915 H905 0.929 . S
C915 C913 1.433 . S
C915 N918 1.384 . S
C916 H907 0.929 . S
C916 C908 1.378 . S
C916 C911 1.350 . S
C917 H904 0.929 . S
C917 C909 1.433 . S
C917 N919 1.384 . S
N918 C914 1.427 . S
N918 C915 1.384 . S
N919 C911 1.427 . S
N919 C917 1.384 . S
H920 C926 0.930 . S
H921 C930 0.930 . S
H922 C935 0.929 . S
H923 C933 0.929 . S
H924 C928 0.929 . S
H925 C934 0.929 . S
C926 H920 0.930 . S
C926 C927 1.367 . S
C926 C934 1.378 . S
C927 C926 1.367 . S
C927 C935 1.433 . S
C928 H924 0.929 . S
C928 C930 1.378 . S
C928 C932 1.350 . S
C929 C932 1.463 . S
C929 C934 1.350 . S
C929 N937 1.427 . S
C930 H921 0.930 . S
C930 C928 1.378 . S
C930 C931 1.367 . S
C931 C930 1.367 . S
C931 C933 1.433 . S
C932 C928 1.350 . S
C932 C929 1.463 . S
C932 N936 1.427 . S
C933 H923 0.929 . S
C933 C931 1.433 . S
C933 N936 1.384 . S
C934 H925 0.929 . S
C934 C926 1.378 . S
C934 C929 1.350 . S
C935 H922 0.929 . S
C935 C927 1.433 . S
C935 N937 1.384 . S
N936 C932 1.427 . S
N936 C933 1.384 . S
N937 C929 1.427 . S
N937 C935 1.384 . S
H938 C944 0.930 . S
H939 C948 0.930 . S
H940 C953 0.929 . S
H941 C951 0.929 . S
H942 C946 0.929 . S
H943 C952 0.929 . S
C944 H938 0.930 . S
C944 C945 1.367 . S
C944 C952 1.378 . S
C945 C944 1.367 . S
C945 C953 1.433 . S
C946 H942 0.929 . S
C946 C948 1.378 . S
C946 C950 1.350 . S
C947 C950 1.463 . S
C947 C952 1.350 . S
C947 N955 1.427 . S
C948 H939 0.930 . S
C948 C946 1.378 . S
C948 C949 1.367 . S
C949 C948 1.367 . S
C949 C951 1.433 . S
C950 C946 1.350 . S
C950 C947 1.463 . S
C950 N954 1.427 . S
C951 H941 0.929 . S
C951 C949 1.433 . S
C951 N954 1.384 . S
C952 H943 0.929 . S
C952 C944 1.378 . S
C952 C947 1.350 . S
C953 H940 0.929 . S
C953 C945 1.433 . S
C953 N955 1.384 . S
N954 C950 1.427 . S
N954 C951 1.384 . S
N955 C947 1.427 . S
N955 C953 1.384 . S
H956 C962 0.930 . S
H957 C966 0.930 . S
H958 C971 0.929 . S
H959 C969 0.929 . S
H960 C964 0.929 . S
H961 C970 0.929 . S
C962 H956 0.930 . S
C962 C963 1.367 . S
C962 C970 1.378 . S
C963 C962 1.367 . S
C963 C971 1.433 . S
C964 H960 0.929 . S
C964 C966 1.378 . S
C964 C968 1.350 . S
C965 C968 1.463 . S
C965 C970 1.350 . S
C965 N973 1.427 . S
C966 H957 0.930 . S
C966 C964 1.378 . S
C966 C967 1.367 . S
C967 C966 1.367 . S
C967 C969 1.433 . S
C968 C964 1.350 . S
C968 C965 1.463 . S
C968 N972 1.427 . S
C969 H959 0.929 . S
C969 C967 1.433 . S
C969 N972 1.384 . S
C970 H961 0.929 . S
C970 C962 1.378 . S
C970 C965 1.350 . S
C971 H958 0.929 . S
C971 C963 1.433 . S
C971 N973 1.384 . S
N972 C968 1.427 . S
N972 C969 1.384 . S
N973 C965 1.427 . S
N973 C971 1.384 . S
H974 C980 0.930 . S
H975 C984 0.930 . S
H976 C989 0.929 . S
H977 C987 0.929 . S
H978 C982 0.929 . S
H979 C988 0.929 . S
C980 H974 0.930 . S
C980 C981 1.367 . S
C980 C988 1.378 . S
C981 C980 1.367 . S
C981 C989 1.433 . S
C982 H978 0.929 . S
C982 C984 1.378 . S
C982 C986 1.350 . S
C983 C986 1.463 . S
C983 C988 1.350 . S
C983 N991 1.427 . S
C984 H975 0.930 . S
C984 C982 1.378 . S
C984 C985 1.367 . S
C985 C984 1.367 . S
C985 C987 1.433 . S
C986 C982 1.350 . S
C986 C983 1.463 . S
C986 N990 1.427 . S
C987 H977 0.929 . S
C987 C985 1.433 . S
C987 N990 1.384 . S
C988 H979 0.929 . S
C988 C980 1.378 . S
C988 C983 1.350 . S
C989 H976 0.929 . S
C989 C981 1.433 . S
C989 N991 1.384 . S
N990 C986 1.427 . S
N990 C987 1.384 . S
N991 C983 1.427 . S
N991 C989 1.384 . S
H992 C998 0.930 . S
H993 C1002 0.930 . S
H994 C1007 0.929 . S
H995 C1005 0.929 . S
H996 C1000 0.929 . S
H997 C1006 0.929 . S
C998 H992 0.930 . S
C998 C999 1.367 . S
C998 C1006 1.378 . S
C999 C998 1.367 . S
C999 C1007 1.433 . S
C1000 H996 0.929 . S
C1000 C1002 1.378 . S
C1000 C1004 1.350 . S
C1001 C1004 1.463 . S
C1001 C1006 1.350 . S
C1001 N1009 1.427 . S
C1002 H993 0.930 . S
C1002 C1000 1.378 . S
C1002 C1003 1.367 . S
C1003 C1002 1.367 . S
C1003 C1005 1.433 . S
C1004 C1000 1.350 . S
C1004 C1001 1.463 . S
C1004 N1008 1.427 . S
C1005 H995 0.929 . S
C1005 C1003 1.433 . S
C1005 N1008 1.384 . S
C1006 H997 0.929 . S
C1006 C998 1.378 . S
C1006 C1001 1.350 . S
C1007 H994 0.929 . S
C1007 C999 1.433 . S
C1007 N1009 1.384 . S
N1008 C1004 1.427 . S
N1008 C1005 1.384 . S
N1009 C1001 1.427 . S
N1009 C1007 1.384 . S
H1010 C1016 0.930 . S
H1011 C1020 0.930 . S
H1012 C1025 0.929 . S
H1013 C1023 0.929 . S
H1014 C1018 0.929 . S
H1015 C1024 0.929 . S
C1016 H1010 0.930 . S
C1016 C1017 1.367 . S
C1016 C1024 1.378 . S
C1017 C1016 1.367 . S
C1017 C1025 1.433 . S
C1018 H1014 0.929 . S
C1018 C1020 1.378 . S
C1018 C1022 1.350 . S
C1019 C1022 1.463 . S
C1019 C1024 1.350 . S
C1019 N1027 1.427 . S
C1020 H1011 0.930 . S
C1020 C1018 1.378 . S
C1020 C1021 1.367 . S
C1021 C1020 1.367 . S
C1021 C1023 1.433 . S
C1022 C1018 1.350 . S
C1022 C1019 1.463 . S
C1022 N1026 1.427 . S
C1023 H1013 0.929 . S
C1023 C1021 1.433 . S
C1023 N1026 1.384 . S
C1024 H1015 0.929 . S
C1024 C1016 1.378 . S
C1024 C1019 1.350 . S
C1025 H1012 0.929 . S
C1025 C1017 1.433 . S
C1025 N1027 1.384 . S
N1026 C1022 1.427 . S
N1026 C1023 1.384 . S
N1027 C1019 1.427 . S
N1027 C1025 1.384 . S
H1028 C1034 0.930 . S
H1029 C1038 0.930 . S
H1030 C1043 0.929 . S
H1031 C1041 0.929 . S
H1032 C1036 0.929 . S
H1033 C1042 0.929 . S
C1034 H1028 0.930 . S
C1034 C1035 1.367 . S
C1034 C1042 1.378 . S
C1035 C1034 1.367 . S
C1035 C1043 1.433 . S
C1036 H1032 0.929 . S
C1036 C1038 1.378 . S
C1036 C1040 1.350 . S
C1037 C1040 1.463 . S
C1037 C1042 1.350 . S
C1037 N1045 1.427 . S
C1038 H1029 0.930 . S
C1038 C1036 1.378 . S
C1038 C1039 1.367 . S
C1039 C1038 1.367 . S
C1039 C1041 1.433 . S
C1040 C1036 1.350 . S
C1040 C1037 1.463 . S
C1040 N1044 1.427 . S
C1041 H1031 0.929 . S
C1041 C1039 1.433 . S
C1041 N1044 1.384 . S
C1042 H1033 0.929 . S
C1042 C1034 1.378 . S
C1042 C1037 1.350 . S
C1043 H1030 0.929 . S
C1043 C1035 1.433 . S
C1043 N1045 1.384 . S
N1044 C1040 1.427 . S
N1044 C1041 1.384 . S
N1045 C1037 1.427 . S
N1045 C1043 1.384 . S
H1046 C1052 0.930 . S
H1047 C1056 0.930 . S
H1048 C1061 0.929 . S
H1049 C1059 0.929 . S
H1050 C1054 0.929 . S
H1051 C1060 0.929 . S
C1052 H1046 0.930 . S
C1052 C1053 1.367 . S
C1052 C1060 1.378 . S
C1053 C1052 1.367 . S
C1053 C1061 1.433 . S
C1054 H1050 0.929 . S
C1054 C1056 1.378 . S
C1054 C1058 1.350 . S
C1055 C1058 1.463 . S
C1055 C1060 1.350 . S
C1055 N1063 1.427 . S
C1056 H1047 0.930 . S
C1056 C1054 1.378 . S
C1056 C1057 1.367 . S
C1057 C1056 1.367 . S
C1057 C1059 1.433 . S
C1058 C1054 1.350 . S
C1058 C1055 1.463 . S
C1058 N1062 1.427 . S
C1059 H1049 0.929 . S
C1059 C1057 1.433 . S
C1059 N1062 1.384 . S
C1060 H1051 0.929 . S
C1060 C1052 1.378 . S
C1060 C1055 1.350 . S
C1061 H1048 0.929 . S
C1061 C1053 1.433 . S
C1061 N1063 1.384 . S
N1062 C1058 1.427 . S
N1062 C1059 1.384 . S
N1063 C1055 1.427 . S
N1063 C1061 1.384 . S
H1064 C1070 0.930 . S
H1065 C1074 0.930 . S
H1066 C1079 0.929 . S
H1067 C1077 0.929 . S
H1068 C1072 0.929 . S
H1069 C1078 0.929 . S
C1070 H1064 0.930 . S
C1070 C1071 1.367 . S
C1070 C1078 1.378 . S
C1071 C1070 1.367 . S
C1071 C1079 1.433 . S
C1072 H1068 0.929 . S
C1072 C1074 1.378 . S
C1072 C1076 1.350 . S
C1073 C1076 1.463 . S
C1073 C1078 1.350 . S
C1073 N1081 1.427 . S
C1074 H1065 0.930 . S
C1074 C1072 1.378 . S
C1074 C1075 1.367 . S
C1075 C1074 1.367 . S
C1075 C1077 1.433 . S
C1076 C1072 1.350 . S
C1076 C1073 1.463 . S
C1076 N1080 1.427 . S
C1077 H1067 0.929 . S
C1077 C1075 1.433 . S
C1077 N1080 1.384 . S
C1078 H1069 0.929 . S
C1078 C1070 1.378 . S
C1078 C1073 1.350 . S
C1079 H1066 0.929 . S
C1079 C1071 1.433 . S
C1079 N1081 1.384 . S
N1080 C1076 1.427 . S
N1080 C1077 1.384 . S
N1081 C1073 1.427 . S
N1081 C1079 1.384 . S
H1082 C1088 0.930 . S
H1083 C1092 0.930 . S
H1084 C1097 0.929 . S
H1085 C1095 0.929 . S
H1086 C1090 0.929 . S
H1087 C1096 0.929 . S
C1088 H1082 0.930 . S
C1088 C1089 1.367 . S
C1088 C1096 1.378 . S
C1089 C1088 1.367 . S
C1089 C1097 1.433 . S
C1090 H1086 0.929 . S
C1090 C1092 1.378 . S
C1090 C1094 1.350 . S
C1091 C1094 1.463 . S
C1091 C1096 1.350 . S
C1091 N1099 1.427 . S
C1092 H1083 0.930 . S
C1092 C1090 1.378 . S
C1092 C1093 1.367 . S
C1093 C1092 1.367 . S
C1093 C1095 1.433 . S
C1094 C1090 1.350 . S
C1094 C1091 1.463 . S
C1094 N1098 1.427 . S
C1095 H1085 0.929 . S
C1095 C1093 1.433 . S
C1095 N1098 1.384 . S
C1096 H1087 0.929 . S
C1096 C1088 1.378 . S
C1096 C1091 1.350 . S
C1097 H1084 0.929 . S
C1097 C1089 1.433 . S
C1097 N1099 1.384 . S
N1098 C1094 1.427 . S
N1098 C1095 1.384 . S
N1099 C1091 1.427 . S
N1099 C1097 1.384 . S
H1100 C1106 0.930 . S
H1101 C1110 0.930 . S
H1102 C1115 0.929 . S
H1103 C1113 0.929 . S
H1104 C1108 0.929 . S
H1105 C1114 0.929 . S
C1106 H1100 0.930 . S
C1106 C1107 1.367 . S
C1106 C1114 1.378 . S
C1107 C1106 1.367 . S
C1107 C1115 1.433 . S
C1108 H1104 0.929 . S
C1108 C1110 1.378 . S
C1108 C1112 1.350 . S
C1109 C1112 1.463 . S
C1109 C1114 1.350 . S
C1109 N1117 1.427 . S
C1110 H1101 0.930 . S
C1110 C1108 1.378 . S
C1110 C1111 1.367 . S
C1111 C1110 1.367 . S
C1111 C1113 1.433 . S
C1112 C1108 1.350 . S
C1112 C1109 1.463 . S
C1112 N1116 1.427 . S
C1113 H1103 0.929 . S
C1113 C1111 1.433 . S
C1113 N1116 1.384 . S
C1114 H1105 0.929 . S
C1114 C1106 1.378 . S
C1114 C1109 1.350 . S
C1115 H1102 0.929 . S
C1115 C1107 1.433 . S
C1115 N1117 1.384 . S
N1116 C1112 1.427 . S
N1116 C1113 1.384 . S
N1117 C1109 1.427 . S
N1117 C1115 1.384 . S
H1118 C1124 0.930 . S
H1119 C1128 0.930 . S
H1120 C1133 0.929 . S
H1121 C1131 0.929 . S
H1122 C1126 0.929 . S
H1123 C1132 0.929 . S
C1124 H1118 0.930 . S
C1124 C1125 1.367 . S
C1124 C1132 1.378 . S
C1125 C1124 1.367 . S
C1125 C1133 1.433 . S
C1126 H1122 0.929 . S
C1126 C1128 1.378 . S
C1126 C1130 1.350 . S
C1127 C1130 1.463 . S
C1127 C1132 1.350 . S
C1127 N1135 1.427 . S
C1128 H1119 0.930 . S
C1128 C1126 1.378 . S
C1128 C1129 1.367 . S
C1129 C1128 1.367 . S
C1129 C1131 1.433 . S
C1130 C1126 1.350 . S
C1130 C1127 1.463 . S
C1130 N1134 1.427 . S
C1131 H1121 0.929 . S
C1131 C1129 1.433 . S
C1131 N1134 1.384 . S
C1132 H1123 0.929 . S
C1132 C1124 1.378 . S
C1132 C1127 1.350 . S
C1133 H1120 0.929 . S
C1133 C1125 1.433 . S
C1133 N1135 1.384 . S
N1134 C1130 1.427 . S
N1134 C1131 1.384 . S
N1135 C1127 1.427 . S
N1135 C1133 1.384 . S
H1136 C1142 0.930 . S
H1137 C1146 0.930 . S
H1138 C1151 0.929 . S
H1139 C1149 0.929 . S
H1140 C1144 0.929 . S
H1141 C1150 0.929 . S
C1142 H1136 0.930 . S
C1142 C1143 1.367 . S
C1142 C1150 1.378 . S
C1143 C1142 1.367 . S
C1143 C1151 1.433 . S
C1144 H1140 0.929 . S
C1144 C1146 1.378 . S
C1144 C1148 1.350 . S
C1145 C1148 1.463 . S
C1145 C1150 1.350 . S
C1145 N1153 1.427 . S
C1146 H1137 0.930 . S
C1146 C1144 1.378 . S
C1146 C1147 1.367 . S
C1147 C1146 1.367 . S
C1147 C1149 1.433 . S
C1148 C1144 1.350 . S
C1148 C1145 1.463 . S
C1148 N1152 1.427 . S
C1149 H1139 0.929 . S
C1149 C1147 1.433 . S
C1149 N1152 1.384 . S
C1150 H1141 0.929 . S
C1150 C1142 1.378 . S
C1150 C1145 1.350 . S
C1151 H1138 0.929 . S
C1151 C1143 1.433 . S
C1151 N1153 1.384 . S
N1152 C1148 1.427 . S
N1152 C1149 1.384 . S
N1153 C1145 1.427 . S
N1153 C1151 1.384 . S
H1154 C1160 0.930 . S
H1155 C1164 0.930 . S
H1156 C1169 0.929 . S
H1157 C1167 0.929 . S
H1158 C1162 0.929 . S
H1159 C1168 0.929 . S
C1160 H1154 0.930 . S
C1160 C1161 1.367 . S
C1160 C1168 1.378 . S
C1161 C1160 1.367 . S
C1161 C1169 1.433 . S
C1162 H1158 0.929 . S
C1162 C1164 1.378 . S
C1162 C1166 1.350 . S
C1163 C1166 1.463 . S
C1163 C1168 1.350 . S
C1163 N1171 1.427 . S
C1164 H1155 0.930 . S
C1164 C1162 1.378 . S
C1164 C1165 1.367 . S
C1165 C1164 1.367 . S
C1165 C1167 1.433 . S
C1166 C1162 1.350 . S
C1166 C1163 1.463 . S
C1166 N1170 1.427 . S
C1167 H1157 0.929 . S
C1167 C1165 1.433 . S
C1167 N1170 1.384 . S
C1168 H1159 0.929 . S
C1168 C1160 1.378 . S
C1168 C1163 1.350 . S
C1169 H1156 0.929 . S
C1169 C1161 1.433 . S
C1169 N1171 1.384 . S
N1170 C1166 1.427 . S
N1170 C1167 1.384 . S
N1171 C1163 1.427 . S
N1171 C1169 1.384 . S
H1172 C1178 0.930 . S
H1173 C1182 0.930 . S
H1174 C1187 0.929 . S
H1175 C1185 0.929 . S
H1176 C1180 0.929 . S
H1177 C1186 0.929 . S
C1178 H1172 0.930 . S
C1178 C1179 1.367 . S
C1178 C1186 1.378 . S
C1179 C1178 1.367 . S
C1179 C1187 1.433 . S
C1180 H1176 0.929 . S
C1180 C1182 1.378 . S
C1180 C1184 1.350 . S
C1181 C1184 1.463 . S
C1181 C1186 1.350 . S
C1181 N1189 1.427 . S
C1182 H1173 0.930 . S
C1182 C1180 1.378 . S
C1182 C1183 1.367 . S
C1183 C1182 1.367 . S
C1183 C1185 1.433 . S
C1184 C1180 1.350 . S
C1184 C1181 1.463 . S
C1184 N1188 1.427 . S
C1185 H1175 0.929 . S
C1185 C1183 1.433 . S
C1185 N1188 1.384 . S
C1186 H1177 0.929 . S
C1186 C1178 1.378 . S
C1186 C1181 1.350 . S
C1187 H1174 0.929 . S
C1187 C1179 1.433 . S
C1187 N1189 1.384 . S
N1188 C1184 1.427 . S
N1188 C1185 1.384 . S
N1189 C1181 1.427 . S
N1189 C1187 1.384 . S
H1190 C1196 0.930 . S
H1191 C1200 0.930 . S
H1192 C1205 0.929 . S
H1193 C1203 0.929 . S
H1194 C1198 0.929 . S
H1195 C1204 0.929 . S
C1196 H1190 0.930 . S
C1196 C1197 1.367 . S
C1196 C1204 1.378 . S
C1197 C1196 1.367 . S
C1197 C1205 1.433 . S
C1198 H1194 0.929 . S
C1198 C1200 1.378 . S
C1198 C1202 1.350 . S
C1199 C1202 1.463 . S
C1199 C1204 1.350 . S
C1199 N1207 1.427 . S
C1200 H1191 0.930 . S
C1200 C1198 1.378 . S
C1200 C1201 1.367 . S
C1201 C1200 1.367 . S
C1201 C1203 1.433 . S
C1202 C1198 1.350 . S
C1202 C1199 1.463 . S
C1202 N1206 1.427 . S
C1203 H1193 0.929 . S
C1203 C1201 1.433 . S
C1203 N1206 1.384 . S
C1204 H1195 0.929 . S
C1204 C1196 1.378 . S
C1204 C1199 1.350 . S
C1205 H1192 0.929 . S
C1205 C1197 1.433 . S
C1205 N1207 1.384 . S
N1206 C1202 1.427 . S
N1206 C1203 1.384 . S
N1207 C1199 1.427 . S
N1207 C1205 1.384 . S
H1208 C1214 0.930 . S
H1209 C1218 0.930 . S
H1210 C1223 0.929 . S
H1211 C1221 0.929 . S
H1212 C1216 0.929 . S
H1213 C1222 0.929 . S
C1214 H1208 0.930 . S
C1214 C1215 1.367 . S
C1214 C1222 1.378 . S
C1215 C1214 1.367 . S
C1215 C1223 1.433 . S
C1216 H1212 0.929 . S
C1216 C1218 1.378 . S
C1216 C1220 1.350 . S
C1217 C1220 1.463 . S
C1217 C1222 1.350 . S
C1217 N1225 1.427 . S
C1218 H1209 0.930 . S
C1218 C1216 1.378 . S
C1218 C1219 1.367 . S
C1219 C1218 1.367 . S
C1219 C1221 1.433 . S
C1220 C1216 1.350 . S
C1220 C1217 1.463 . S
C1220 N1224 1.427 . S
C1221 H1211 0.929 . S
C1221 C1219 1.433 . S
C1221 N1224 1.384 . S
C1222 H1213 0.929 . S
C1222 C1214 1.378 . S
C1222 C1217 1.350 . S
C1223 H1210 0.929 . S
C1223 C1215 1.433 . S
C1223 N1225 1.384 . S
N1224 C1220 1.427 . S
N1224 C1221 1.384 . S
N1225 C1217 1.427 . S
N1225 C1223 1.384 . S
H1226 C1232 0.930 . S
H1227 C1236 0.930 . S
H1228 C1241 0.929 . S
H1229 C1239 0.929 . S
H1230 C1234 0.929 . S
H1231 C1240 0.929 . S
C1232 H1226 0.930 . S
C1232 C1233 1.367 . S
C1232 C1240 1.378 . S
C1233 C1232 1.367 . S
C1233 C1241 1.433 . S
C1234 H1230 0.929 . S
C1234 C1236 1.378 . S
C1234 C1238 1.350 . S
C1235 C1238 1.463 . S
C1235 C1240 1.350 . S
C1235 N1243 1.427 . S
C1236 H1227 0.930 . S
C1236 C1234 1.378 . S
C1236 C1237 1.367 . S
C1237 C1236 1.367 . S
C1237 C1239 1.433 . S
C1238 C1234 1.350 . S
C1238 C1235 1.463 . S
C1238 N1242 1.427 . S
C1239 H1229 0.929 . S
C1239 C1237 1.433 . S
C1239 N1242 1.384 . S
C1240 H1231 0.929 . S
C1240 C1232 1.378 . S
C1240 C1235 1.350 . S
C1241 H1228 0.929 . S
C1241 C1233 1.433 . S
C1241 N1243 1.384 . S
N1242 C1238 1.427 . S
N1242 C1239 1.384 . S
N1243 C1235 1.427 . S
N1243 C1241 1.384 . S
H1244 C1250 0.930 . S
H1245 C1254 0.930 . S
H1246 C1259 0.929 . S
H1247 C1257 0.929 . S
H1248 C1252 0.929 . S
H1249 C1258 0.929 . S
C1250 H1244 0.930 . S
C1250 C1251 1.367 . S
C1250 C1258 1.378 . S
C1251 C1250 1.367 . S
C1251 C1259 1.433 . S
C1252 H1248 0.929 . S
C1252 C1254 1.378 . S
C1252 C1256 1.350 . S
C1253 C1256 1.463 . S
C1253 C1258 1.350 . S
C1253 N1261 1.427 . S
C1254 H1245 0.930 . S
C1254 C1252 1.378 . S
C1254 C1255 1.367 . S
C1255 C1254 1.367 . S
C1255 C1257 1.433 . S
C1256 C1252 1.350 . S
C1256 C1253 1.463 . S
C1256 N1260 1.427 . S
C1257 H1247 0.929 . S
C1257 C1255 1.433 . S
C1257 N1260 1.384 . S
C1258 H1249 0.929 . S
C1258 C1250 1.378 . S
C1258 C1253 1.350 . S
C1259 H1246 0.929 . S
C1259 C1251 1.433 . S
C1259 N1261 1.384 . S
N1260 C1256 1.427 . S
N1260 C1257 1.384 . S
N1261 C1253 1.427 . S
N1261 C1259 1.384 . S
H1262 C1268 0.930 . S
H1263 C1272 0.930 . S
H1264 C1277 0.929 . S
H1265 C1275 0.929 . S
H1266 C1270 0.929 . S
H1267 C1276 0.929 . S
C1268 H1262 0.930 . S
C1268 C1269 1.367 . S
C1268 C1276 1.378 . S
C1269 C1268 1.367 . S
C1269 C1277 1.433 . S
C1270 H1266 0.929 . S
C1270 C1272 1.378 . S
C1270 C1274 1.350 . S
C1271 C1274 1.463 . S
C1271 C1276 1.350 . S
C1271 N1279 1.427 . S
C1272 H1263 0.930 . S
C1272 C1270 1.378 . S
C1272 C1273 1.367 . S
C1273 C1272 1.367 . S
C1273 C1275 1.433 . S
C1274 C1270 1.350 . S
C1274 C1271 1.463 . S
C1274 N1278 1.427 . S
C1275 H1265 0.929 . S
C1275 C1273 1.433 . S
C1275 N1278 1.384 . S
C1276 H1267 0.929 . S
C1276 C1268 1.378 . S
C1276 C1271 1.350 . S
C1277 H1264 0.929 . S
C1277 C1269 1.433 . S
C1277 N1279 1.384 . S
N1278 C1274 1.427 . S
N1278 C1275 1.384 . S
N1279 C1271 1.427 . S
N1279 C1277 1.384 . S
H1280 C1286 0.930 . S
H1281 C1290 0.930 . S
H1282 C1295 0.929 . S
H1283 C1293 0.929 . S
H1284 C1288 0.929 . S
H1285 C1294 0.929 . S
C1286 H1280 0.930 . S
C1286 C1287 1.367 . S
C1286 C1294 1.378 . S
C1287 C1286 1.367 . S
C1287 C1295 1.433 . S
C1288 H1284 0.929 . S
C1288 C1290 1.378 . S
C1288 C1292 1.350 . S
C1289 C1292 1.463 . S
C1289 C1294 1.350 . S
C1289 N1297 1.427 . S
C1290 H1281 0.930 . S
C1290 C1288 1.378 . S
C1290 C1291 1.367 . S
C1291 C1290 1.367 . S
C1291 C1293 1.433 . S
C1292 C1288 1.350 . S
C1292 C1289 1.463 . S
C1292 N1296 1.427 . S
C1293 H1283 0.929 . S
C1293 C1291 1.433 . S
C1293 N1296 1.384 . S
C1294 H1285 0.929 . S
C1294 C1286 1.378 . S
C1294 C1289 1.350 . S
C1295 H1282 0.929 . S
C1295 C1287 1.433 . S
C1295 N1297 1.384 . S
N1296 C1292 1.427 . S
N1296 C1293 1.384 . S
N1297 C1289 1.427 . S
N1297 C1295 1.384 . S
H1298 C1304 0.930 . S
H1299 C1308 0.930 . S
H1300 C1313 0.929 . S
H1301 C1311 0.929 . S
H1302 C1306 0.929 . S
H1303 C1312 0.929 . S
C1304 H1298 0.930 . S
C1304 C1305 1.367 . S
C1304 C1312 1.378 . S
C1305 C1304 1.367 . S
C1305 C1313 1.433 . S
C1306 H1302 0.929 . S
C1306 C1308 1.378 . S
C1306 C1310 1.350 . S
C1307 C1310 1.463 . S
C1307 C1312 1.350 . S
C1307 N1315 1.427 . S
C1308 H1299 0.930 . S
C1308 C1306 1.378 . S
C1308 C1309 1.367 . S
C1309 C1308 1.367 . S
C1309 C1311 1.433 . S
C1310 C1306 1.350 . S
C1310 C1307 1.463 . S
C1310 N1314 1.427 . S
C1311 H1301 0.929 . S
C1311 C1309 1.433 . S
C1311 N1314 1.384 . S
C1312 H1303 0.929 . S
C1312 C1304 1.378 . S
C1312 C1307 1.350 . S
C1313 H1300 0.929 . S
C1313 C1305 1.433 . S
C1313 N1315 1.384 . S
N1314 C1310 1.427 . S
N1314 C1311 1.384 . S
N1315 C1307 1.427 . S
N1315 C1313 1.384 . S
H1316 C1322 0.930 . S
H1317 C1326 0.930 . S
H1318 C1331 0.929 . S
H1319 C1329 0.929 . S
H1320 C1324 0.929 . S
H1321 C1330 0.929 . S
C1322 H1316 0.930 . S
C1322 C1323 1.367 . S
C1322 C1330 1.378 . S
C1323 C1322 1.367 . S
C1323 C1331 1.433 . S
C1324 H1320 0.929 . S
C1324 C1326 1.378 . S
C1324 C1328 1.350 . S
C1325 C1328 1.463 . S
C1325 C1330 1.350 . S
C1325 N1333 1.427 . S
C1326 H1317 0.930 . S
C1326 C1324 1.378 . S
C1326 C1327 1.367 . S
C1327 C1326 1.367 . S
C1327 C1329 1.433 . S
C1328 C1324 1.350 . S
C1328 C1325 1.463 . S
C1328 N1332 1.427 . S
C1329 H1319 0.929 . S
C1329 C1327 1.433 . S
C1329 N1332 1.384 . S
C1330 H1321 0.929 . S
C1330 C1322 1.378 . S
C1330 C1325 1.350 . S
C1331 H1318 0.929 . S
C1331 C1323 1.433 . S
C1331 N1333 1.384 . S
N1332 C1328 1.427 . S
N1332 C1329 1.384 . S
N1333 C1325 1.427 . S
N1333 C1331 1.384 . S
H1334 C1340 0.930 . S
H1335 C1344 0.930 . S
H1336 C1349 0.929 . S
H1337 C1347 0.929 . S
H1338 C1342 0.929 . S
H1339 C1348 0.929 . S
C1340 H1334 0.930 . S
C1340 C1341 1.367 . S
C1340 C1348 1.378 . S
C1341 C1340 1.367 . S
C1341 C1349 1.433 . S
C1342 H1338 0.929 . S
C1342 C1344 1.378 . S
C1342 C1346 1.350 . S
C1343 C1346 1.463 . S
C1343 C1348 1.350 . S
C1343 N1351 1.427 . S
C1344 H1335 0.930 . S
C1344 C1342 1.378 . S
C1344 C1345 1.367 . S
C1345 C1344 1.367 . S
C1345 C1347 1.433 . S
C1346 C1342 1.350 . S
C1346 C1343 1.463 . S
C1346 N1350 1.427 . S
C1347 H1337 0.929 . S
C1347 C1345 1.433 . S
C1347 N1350 1.384 . S
C1348 H1339 0.929 . S
C1348 C1340 1.378 . S
C1348 C1343 1.350 . S
C1349 H1336 0.929 . S
C1349 C1341 1.433 . S
C1349 N1351 1.384 . S
N1350 C1346 1.427 . S
N1350 C1347 1.384 . S
N1351 C1343 1.427 . S
N1351 C1349 1.384 . S
H1352 C1358 0.930 . S
H1353 C1362 0.930 . S
H1354 C1367 0.929 . S
H1355 C1365 0.929 . S
H1356 C1360 0.929 . S
H1357 C1366 0.929 . S
C1358 H1352 0.930 . S
C1358 C1359 1.367 . S
C1358 C1366 1.378 . S
C1359 C1358 1.367 . S
C1359 C1367 1.433 . S
C1360 H1356 0.929 . S
C1360 C1362 1.378 . S
C1360 C1364 1.350 . S
C1361 C1364 1.463 . S
C1361 C1366 1.350 . S
C1361 N1369 1.427 . S
C1362 H1353 0.930 . S
C1362 C1360 1.378 . S
C1362 C1363 1.367 . S
C1363 C1362 1.367 . S
C1363 C1365 1.433 . S
C1364 C1360 1.350 . S
C1364 C1361 1.463 . S
C1364 N1368 1.427 . S
C1365 H1355 0.929 . S
C1365 C1363 1.433 . S
C1365 N1368 1.384 . S
C1366 H1357 0.929 . S
C1366 C1358 1.378 . S
C1366 C1361 1.350 . S
C1367 H1354 0.929 . S
C1367 C1359 1.433 . S
C1367 N1369 1.384 . S
N1368 C1364 1.427 . S
N1368 C1365 1.384 . S
N1369 C1361 1.427 . S
N1369 C1367 1.384 . S
C517 C331 1.817 . S
C513 C2 1.842 . S
C535 C321 1.408 . S
C531 C48 1.421 . S
C553 C322 1.043 . S
C549 C97 1.053 . S
C567 C149 0.473 . S
C571 C344 0.652 . S
C585 C189 1.427 . S
C589 C347 1.410 . S
C607 C330 1.037 . S
C603 C202 1.049 . S
C621 C248 0.490 . S
C625 C320 0.653 . S
C639 C297 1.846 . S
C643 C338 1.824 . S
C661 C351 2.689 . S
C657 C31 2.771 . S
C675 C52 1.717 . S
C679 C400 1.665 . S
C697 C378 1.445 . S
C693 C88 1.470 . S
C715 C392 1.007 . S
C711 C122 1.008 . S
C729 C162 1.035 . S
C733 C353 1.021 . S
C751 C406 2.675 . S
C747 C231 2.768 . S
C765 C252 1.729 . S
C769 C362 1.702 . S
C783 C288 1.420 . S
C787 C383 1.417 . S
C801 C29 1.427 . S
C805 C409 1.418 . S
C819 C191 1.720 . S
C823 C393 1.675 . S
C841 C352 1.449 . S
C837 C229 1.469 . S
C859 C384 0.992 . S
C855 C257 1.013 . S
C873 C292 2.768 . S
C877 C375 2.691 . S
C891 C92 2.768 . S
C895 C382 2.667 . S
C913 C369 1.702 . S
C909 C151 1.729 . S
C927 C57 1.034 . S
C931 C361 1.022 . S
C945 C282 1.844 . S
C949 C424 1.818 . S
C963 C168 1.425 . S
C967 C414 1.409 . S
C985 C415 1.044 . S
C981 C217 1.053 . S
C1003 C437 0.643 . S
C999 C269 0.463 . S
C1017 C69 1.423 . S
C1021 C440 1.408 . S
C1039 C423 1.031 . S
C1035 C82 1.046 . S
C1053 C128 0.444 . S
C1057 C413 0.615 . S
C1071 C17 1.847 . S
C1075 C431 1.824 . S
C1089 C311 2.769 . S
C1093 C444 2.686 . S
C1111 C493 1.665 . S
C1107 C172 1.716 . S
C1125 C208 1.461 . S
C1129 C471 1.454 . S
C1143 C242 1.009 . S
C1147 C485 0.994 . S
C1165 C446 1.023 . S
C1161 C42 1.041 . S
C1179 C111 2.768 . S
C1183 C499 2.675 . S
C1201 C455 1.694 . S
C1197 C132 1.725 . S
C1219 C476 1.418 . S
C1215 C8 1.420 . S
C1237 C502 1.410 . S
C1233 C309 1.424 . S
C1251 C71 1.720 . S
C1255 C486 1.675 . S
C1269 C109 1.460 . S
C1273 C445 1.444 . S
C1291 C477 1.011 . S
C1287 C137 0.999 . S
C1305 C12 2.769 . S
C1309 C468 2.692 . S
C1323 C212 2.770 . S
C1327 C475 2.675 . S
C1345 C462 1.692 . S
C1341 C271 1.730 . S
C1363 C454 1.020 . S
C1359 C177 1.036 . S
