# Generated by pormake.
# Topology nia, (6,6)-cn, num edge types: 1
# Building blocks:
#     Node 0, Type 0, BuildingBlock: KUMJIN_clean_sbu_0, # of connection points: 6
#     Node 1, Type 0, BuildingBlock: KUMJIN_clean_sbu_0, # of connection points: 6
#     Node 2, Type 1, BuildingBlock: MIDCAF_clean_sbu_0, # of connection points: 6
#     Node 3, Type 1, BuildingBlock: MIDCAF_clean_sbu_0, # of connection points: 6
#     Edge 4, Type (0, 1), BuildingBlock: UVAHIK_clean_linker_0, # of connection points: 2
#     Edge 5, Type (0, 1), BuildingBlock: UVAHIK_clean_linker_0, # of connection points: 2
#     Edge 6, Type (0, 1), BuildingBlock: UVAHIK_clean_linker_0, # of connection points: 2
#     Edge 7, Type (0, 1), BuildingBlock: UVAHIK_clean_linker_0, # of connection points: 2
#     Edge 8, Type (0, 1), BuildingBlock: UVAHIK_clean_linker_0, # of connection points: 2
#     Edge 9, Type (0, 1), BuildingBlock: UVAHIK_clean_linker_0, # of connection points: 2
#     Edge 10, Type (0, 1), BuildingBlock: UVAHIK_clean_linker_0, # of connection points: 2
#     Edge 11, Type (0, 1), BuildingBlock: UVAHIK_clean_linker_0, # of connection points: 2
#     Edge 12, Type (0, 1), BuildingBlock: UVAHIK_clean_linker_0, # of connection points: 2
#     Edge 13, Type (0, 1), BuildingBlock: UVAHIK_clean_linker_0, # of connection points: 2
#     Edge 14, Type (0, 1), BuildingBlock: UVAHIK_clean_linker_0, # of connection points: 2
#     Edge 15, Type (0, 1), BuildingBlock: UVAHIK_clean_linker_0, # of connection points: 2
# Relax obj value: 0.166
# Max RMSD: 0.278
# Mean RMSD: 0.202
data_MOF--net-nia--node1-KUMJIN_clean_sbu_0--node2-MIDCAF_clean_sbu_0--edge1-UVAHIK_clean_linker_0
_symmetry_space_group_name_H-M    P1
_symmetry_Int_Tables_number       1
_symmetry_cell_setting            triclinic
loop_
_symmetry_equiv_pos_as_xyz
'x, y, z'
_cell_length_a     35.408107
_cell_length_b     35.141098
_cell_length_c     41.798615
_cell_angle_alpha  89.821004
_cell_angle_beta   89.900267
_cell_angle_gamma 137.7597
loop_
_atom_site_label
_atom_site_type_symbol
_atom_site_fract_x
_atom_site_fract_y
_atom_site_fract_z
_atom_type_partial_charge
Eu0 Eu 0.02628 0.98543 0.0356 0.0
C1 C 0.02839 0.03026 0.89431 0.0
C2 C 0.12291 0.12318 0.88344 0.0
C3 C 0.07047 0.05173 0.84186 0.0
C4 C 0.07752 0.08384 0.90481 0.0
C5 C 0.02387 0.01411 0.86249 0.0
C6 C 0.11976 0.10629 0.85225 0.0
C7 C 0.92528 0.92828 0.8724 0.0
N8 N 0.98339 0.99587 0.91437 0.0
C9 C 0.93156 0.94664 0.90355 0.0
C10 C 0.97184 0.96178 0.85191 0.0
Eu11 Eu -0.00193 0.02892 0.96703 0.0
N12 N 0.07869 0.09936 0.93484 0.0
C13 C 0.12226 0.15436 0.9443 0.0
C14 C 0.16895 0.17904 0.89355 0.0
C15 C 0.16814 0.19491 0.9239 0.0
H16 H 0.89565 0.92068 0.91951 0.0
H17 H 0.20303 0.23827 0.9317 0.0
H18 H 0.15452 0.13571 0.83565 0.0
H19 H 0.88458 0.88844 0.86421 0.0
H20 H 0.12223 0.16712 0.96773 0.0
H21 H 0.81218 0.78809 0.07429 0.0
H22 H 0.2046 0.21053 0.87783 0.0
H23 H 0.13899 0.08321 0.08204 0.0
H24 H 0.89162 0.8497 0.03699 0.0
H25 H 0.15922 0.11605 0.13802 0.0
H26 H 0.06802 0.03991 0.81742 0.0
H27 H 0.82164 0.82088 0.12892 0.0
H28 H 0.88339 0.89477 0.17112 0.0
H29 H 0.96672 0.94778 0.82767 0.0
H30 H 0.97779 0.98412 0.18853 0.0
N31 N 0.9465 0.91902 0.06942 0.0
C32 C 0.89722 0.86535 0.06058 0.0
C33 C 0.85711 0.84853 0.11258 0.0
C34 C 0.90893 0.90173 0.12235 0.0
C35 C 0.85164 0.82982 0.08179 0.0
C36 C 0.95377 0.9363 0.1001 0.0
H37 H 0.081 0.06626 0.17659 0.0
N38 N 0.05036 0.01772 0.08874 0.0
C39 C 0.11624 0.0801 0.13039 0.0
C40 C 0.00707 0.98707 0.10997 0.0
C41 C 0.1047 0.0615 0.09877 0.0
C42 C 0.07193 0.05194 0.15204 0.0
C43 C 0.01667 0.00398 0.14219 0.0
O44 O 0.0654 0.96371 0.0151 0.0
O45 O 0.05532 0.02932 0.98904 0.0
O46 O 0.99028 0.96134 0.95212 0.0
O47 O 0.96429 0.91407 1.0004 0.0
O48 O 0.11738 0.06665 0.02242 0.0
O49 O 0.03726 0.94165 0.06401 0.0
O50 O 0.92985 0.0141 0.94933 0.0
O51 O 0.97105 0.98989 0.01557 0.0
O52 O 0.05465 0.0645 0.05175 0.0
O53 O 0.04606 0.09677 0.00594 0.0
O54 O 0.9077 0.95186 0.98311 0.0
O55 O 0.00785 0.09792 0.96457 0.0
C56 C 0.10759 0.06966 0.99323 0.0
C57 C 0.1188 0.96723 0.05191 0.0
C58 C 0.16829 0.95434 0.08129 0.0
C59 C 0.11783 0.93389 0.07147 0.0
C60 C 0.21977 0.00904 0.07191 0.0
C61 C 0.17079 0.02156 0.0425 0.0
C62 C 0.22087 0.04237 0.0527 0.0
C63 C 0.96892 0.91682 0.96886 0.0
C64 C 0.06537 0.94493 0.04192 0.0
C65 C 0.97135 0.97134 0.1638 0.0
C66 C 0.9176 0.92039 0.15389 0.0
C67 C 0.91854 0.95148 0.01248 0.0
C68 C 0.95984 0.0922 0.92232 0.0
C69 C 0.92874 0.10308 0.9213 0.0
C70 C 0.93137 0.12868 0.89396 0.0
C71 C 0.96475 0.14238 0.86774 0.0
C72 C 0.99262 0.10632 0.89579 0.0
C73 C -0.00498 0.13112 0.86869 0.0
C74 C 0.0606 0.10156 0.0362 0.0
C75 C 0.9592 0.0673 0.95108 0.0
H76 H 0.07788 0.89167 0.07845 0.0
H77 H 0.25919 0.02599 0.07944 0.0
H78 H 0.173 0.048 0.02722 0.0
H79 H 0.26072 0.08437 0.0455 0.0
H80 H 0.90335 0.09243 0.94173 0.0
H81 H 0.96676 0.16107 0.8462 0.0
H82 H 0.01663 0.09847 0.89598 0.0
H83 H 0.02041 0.1416 0.84835 0.0
Eu84 Eu 0.98209 0.0209 0.54234 0.0
C85 C 0.98621 0.98915 0.39668 0.0
C86 C 0.89081 0.89971 0.38424 0.0
C87 C 0.94796 0.97449 0.34411 0.0
C88 C 0.93543 0.93583 0.4062 0.0
C89 C 0.99367 0.0084 0.36519 0.0
C90 C 0.89668 0.92004 0.35355 0.0
C91 C 0.09307 0.08781 0.37575 0.0
N92 N 0.03015 0.01933 0.41703 0.0
C93 C 0.08367 0.06605 0.40642 0.0
C94 C 0.04767 0.05944 0.35523 0.0
Eu95 Eu 0.01137 0.98277 0.4695 0.0
N96 N 0.93189 0.91707 0.43571 0.0
C97 C 0.88644 0.86133 0.44381 0.0
C98 C 0.84283 0.84342 0.39317 0.0
C99 C 0.84115 0.82389 0.42284 0.0
H100 H 0.11879 0.08765 0.42225 0.0
H101 H 0.80482 0.78006 0.42968 0.0
H102 H 0.86262 0.89317 0.33651 0.0
H103 H 0.1353 0.12614 0.3679 0.0
H104 H 0.8843 0.84544 0.46662 0.0
H105 H 0.18795 0.22829 0.5787 0.0
H106 H 0.8077 0.81434 0.37699 0.0
H107 H 0.87886 0.90899 0.58821 0.0
H108 H 0.10916 0.15908 0.54208 0.0
H109 H 0.86458 0.87502 0.64365 0.0
H110 H 0.95267 0.9888 0.31993 0.0
H111 H 0.18469 0.19945 0.63356 0.0
H112 H 0.13106 0.1239 0.67595 0.0
H113 H 0.05514 0.07581 0.33128 0.0
H114 H 0.04358 0.0274 0.69345 0.0
N115 N 0.06118 0.09059 0.57548 0.0
C116 C 0.10667 0.1455 0.56588 0.0
C117 C 0.14969 0.1687 0.61757 0.0
C118 C 0.1021 0.11305 0.62771 0.0
C119 C 0.15165 0.18513 0.58664 0.0
C120 C 0.05772 0.07456 0.60592 0.0
H121 H 0.94382 0.93458 0.68171 0.0
N122 N 0.96572 0.98533 0.5947 0.0
C123 C 0.90544 0.91571 0.63605 0.0
C124 C 0.0088 0.02007 0.61569 0.0
C125 C 0.91359 0.93494 0.60477 0.0
C126 C 0.95034 0.94938 0.65741 0.0
C127 C 0.00247 0.00279 0.64758 0.0
O128 O 0.91044 0.00249 0.55661 0.0
O129 O 0.95641 0.98487 0.49336 0.0
O130 O 0.03095 0.05821 0.45632 0.0
O131 O 0.03408 0.0929 0.50546 0.0
O132 O 0.89221 0.94392 0.5264 0.0
O133 O 0.99098 0.08921 0.54761 0.0
O134 O 0.07954 0.99568 0.45452 0.0
O135 O 0.03718 0.02024 0.51786 0.0
O136 O 0.97224 0.95146 0.55548 0.0
O137 O 0.95572 0.91025 0.50612 0.0
O138 O 0.10195 0.0563 0.48696 0.0
O139 O -0.00193 0.91145 0.46591 0.0
C140 C 0.90392 0.94514 0.49693 0.0
C141 C 0.93336 0.0735 0.5876 0.0
C142 C 0.91923 0.12396 0.6144 0.0
C143 C 0.924 0.10605 0.58604 0.0
C144 C 0.92374 0.10871 0.64412 0.0
C145 C 0.93699 0.05843 0.61761 0.0
C146 C 0.93241 0.07606 0.64563 0.0
C147 C 0.04309 0.09715 0.47417 0.0
C148 C 0.93969 0.05567 0.55808 0.0
C149 C 0.04744 0.04012 0.66894 0.0
C150 C 0.09718 0.09512 0.65902 0.0
C151 C 0.08971 0.05762 0.5157 0.0
C152 C 0.04944 0.92059 0.42427 0.0
C153 C 0.07883 0.90779 0.42246 0.0
C154 C 0.07928 0.88712 0.3937 0.0
C155 C 0.05099 0.88065 0.36687 0.0
C156 C 0.02123 0.91307 0.39719 0.0
C157 C 0.0222 0.89354 0.36868 0.0
C158 C 0.95518 0.90971 0.53788 0.0
C159 C 0.0479 0.94181 0.45408 0.0
H160 H 0.92077 0.11762 0.56297 0.0
H161 H 0.91924 0.12096 0.6663 0.0
H162 H 0.94297 0.03273 0.61957 0.0
H163 H 0.93516 0.06398 0.66862 0.0
H164 H 0.10049 0.91315 0.44334 0.0
H165 H 0.05162 0.86614 0.34426 0.0
H166 H -0.00169 0.92217 0.39803 0.0
H167 H 0.00055 0.8884 0.34791 0.0
Zn168 Zn 0.36698 0.69243 0.19191 0.0
Zn169 Zn 0.37496 0.69224 0.31247 0.0
Zn170 Zn 0.37226 0.69028 0.25364 0.0
C171 C 0.47249 0.72972 0.2919 0.0
C172 C 0.28566 0.58072 0.29794 0.0
O173 O 0.33707 0.72107 0.24173 0.0
O174 O 0.32225 0.70627 0.18963 0.0
C175 C 0.48002 0.76725 0.20576 0.0
O176 O 0.45815 0.73614 0.26596 0.0
O177 O 0.43973 0.70516 0.31574 0.0
O178 O 0.29913 0.6131 0.3202 0.0
O179 O 0.31259 0.60203 0.27112 0.0
O180 O 0.44926 0.75532 0.18302 0.0
O181 O 0.45829 0.74463 0.23359 0.0
O182 O 0.31451 0.60243 0.23761 0.0
O183 O 0.32402 0.61258 0.18496 0.0
C184 C 0.30316 0.5814 0.20953 0.0
O185 O 0.34973 0.72997 0.27429 0.0
O186 O 0.38528 0.75471 0.32294 0.0
C187 C 0.31717 0.72028 0.21562 0.0
C188 C 0.36156 0.75547 0.30091 0.0
Zn189 Zn 0.60438 0.28738 0.81169 0.0
Zn190 Zn 0.64612 0.34163 0.65862 0.0
Zn191 Zn 0.63444 0.32057 0.75543 0.0
C192 C 0.7044 0.41495 0.71687 0.0
C193 C 0.53971 0.27632 0.69534 0.0
O194 O 0.65027 0.27179 0.77056 0.0
O195 O 0.60514 0.232 0.81664 0.0
C196 C 0.70066 0.40837 0.81077 0.0
O197 O 0.70037 0.41136 0.74725 0.0
O198 O 0.67612 0.369 0.70254 0.0
O199 O 0.56582 0.29493 0.66852 0.0
O200 O 0.56262 0.28526 0.72278 0.0
O201 O 0.66981 0.36551 0.82909 0.0
O202 O 0.69239 0.40161 0.78041 0.0
O203 O 0.54728 0.27587 0.75767 0.0
O204 O 0.53094 0.2581 0.8095 0.0
C205 C 0.51505 0.25649 0.78209 0.0
O206 O 0.666 0.29013 0.73843 0.0
O207 O 0.66483 0.31208 0.68958 0.0
C208 C 0.63417 0.23907 0.79454 0.0
C209 C 0.67647 0.29383 0.70856 0.0
C210 C 0.13441 0.88977 0.12803 0.0
C211 C 0.16774 0.91825 0.10028 0.0
C212 C 0.13589 0.8573 0.14624 0.0
C213 C 0.16837 0.78012 0.14028 0.0
H214 H 0.2173 0.82077 0.22859 0.0
C215 C 0.22923 0.68887 0.20327 0.0
C216 C 0.28395 0.73074 0.21549 0.0
C217 C 0.20019 0.70084 0.19702 0.0
C218 C 0.20301 0.80854 0.20407 0.0
H219 H 0.22733 0.93392 0.06933 0.0
H220 H 0.22925 0.87678 0.10071 0.0
H221 H 0.19295 0.86165 0.20027 0.0
H222 H 0.35037 0.81676 0.23261 0.0
H223 H 0.29987 0.83847 0.22121 0.0
H224 H 0.18064 0.72928 0.14317 0.0
C225 C 0.2023 0.87974 0.10852 0.0
C226 C 0.18872 0.83157 0.18799 0.0
C227 C 0.20156 0.91278 0.09072 0.0
C228 C 0.30804 0.78384 0.2233 0.0
C229 C 0.27896 0.79601 0.21693 0.0
C230 C 0.18195 0.75672 0.15635 0.0
C231 C 0.16978 0.85194 0.13652 0.0
C232 C 0.17342 0.81918 0.15558 0.0
C233 C 0.22571 0.75532 0.20239 0.0
C234 C 0.20134 0.77216 0.18807 0.0
H235 H 0.10816 0.89356 0.13594 0.0
H236 H 0.11048 0.83624 0.16775 0.0
H237 H 0.1563 0.76962 0.11536 0.0
H238 H 0.20987 0.64749 0.19721 0.0
H239 H 0.15892 0.66835 0.18632 0.0
C240 C 0.18397 0.13187 0.5414 0.0
C241 C 0.12761 0.07838 0.5427 0.0
C242 C 0.22 0.15056 0.56686 0.0
C243 C 0.23476 0.09447 0.63477 0.0
H244 H 0.36103 0.25396 0.65437 0.0
C245 C 0.4437 0.19278 0.67614 0.0
C246 C 0.48032 0.24262 0.69404 0.0
C247 C 0.39073 0.1669 0.66802 0.0
C248 C 0.32527 0.20905 0.64989 0.0
H249 H 0.06623 0.00059 0.57015 0.0
H250 H 0.12717 0.0337 0.61499 0.0
H251 H 0.28758 0.22221 0.61898 0.0
H252 H 0.49083 0.30408 0.71844 0.0
H253 H 0.39699 0.25795 0.70495 0.0
H254 H 0.27227 0.08125 0.66567 0.0
C255 C 0.14408 0.06173 0.59465 0.0
C256 C 0.28368 0.19099 0.62906 0.0
C257 C 0.10855 0.043 0.56911 0.0
C258 C 0.4624 0.26481 0.70521 0.0
C259 C 0.40913 0.23881 0.69714 0.0
C260 C 0.27585 0.1124 0.6559 0.0
C261 C 0.20036 0.11571 0.59391 0.0
C262 C 0.2393 0.13383 0.62009 0.0
C263 C 0.37356 0.19075 0.6774 0.0
C264 C 0.32305 0.17022 0.66243 0.0
H265 H 0.19999 0.15927 0.52081 0.0
H266 H 0.2635 0.19176 0.56496 0.0
H267 H 0.20134 0.05008 0.62855 0.0
H268 H 0.45734 0.1757 0.66685 0.0
H269 H 0.3651 0.13062 0.65234 0.0
C270 C 0.05822 0.16835 0.05145 0.0
C271 C 0.08218 0.14996 0.05476 0.0
C272 C 0.07356 0.20919 0.07213 0.0
C273 C 0.14021 0.27548 0.15112 0.0
H274 H 0.16291 0.39446 0.11817 0.0
C275 C 0.27919 0.49466 0.20878 0.0
C276 C 0.26274 0.52039 0.20497 0.0
C277 C 0.24585 0.44054 0.19647 0.0
C278 C 0.15565 0.36087 0.12794 0.0
H279 H 0.14343 0.16222 0.08057 0.0
H280 H 0.17118 0.23418 0.1162 0.0
H281 H 0.1294 0.31994 0.08263 0.0
H282 H 0.19783 0.50968 0.18767 0.0
H283 H 0.13909 0.41486 0.16645 0.0
H284 H 0.16895 0.31827 0.1962 0.0
C285 C 0.139 0.21571 0.09858 0.0
C286 C 0.13652 0.31816 0.10751 0.0
C287 C 0.12335 0.17468 0.0781 0.0
C288 C 0.21093 0.49016 0.1909 0.0
C289 C 0.17764 0.43623 0.17864 0.0
C290 C 0.1598 0.31855 0.17154 0.0
C291 C 0.11356 0.23273 0.09626 0.0
C292 C 0.12956 0.27553 0.11867 0.0
C293 C 0.19607 0.41202 0.17993 0.0
C294 C 0.16852 0.36215 0.16 0.0
H295 H 0.02597 0.14948 0.03378 0.0
H296 H 0.05296 0.22116 0.06977 0.0
H297 H 0.1341 0.24251 0.16065 0.0
H298 H 0.31952 0.51786 0.21919 0.0
H299 H 0.26126 0.42308 0.19766 0.0
C300 C 0.86166 0.13681 0.59609 0.0
C301 C 0.90693 0.15617 0.61387 0.0
C302 C 0.8425 0.15974 0.6012 0.0
C303 C 0.83242 0.21665 0.668 0.0
H304 H 0.78283 0.25623 0.60748 0.0
C305 C 0.75131 0.30055 0.71105 0.0
C306 C 0.70377 0.27992 0.69598 0.0
C307 C 0.77887 0.28953 0.69834 0.0
C308 C 0.796 0.24473 0.62462 0.0
H309 H 0.97137 0.21854 0.64821 0.0
H310 H 0.93794 0.25834 0.65712 0.0
H311 H 0.8287 0.23235 0.58793 0.0
H312 H 0.64918 0.2346 0.65494 0.0
H313 H 0.6966 0.21401 0.63282 0.0
H314 H 0.79854 0.22689 0.70461 0.0
C315 C 0.91661 0.22485 0.63974 0.0
C316 C 0.82244 0.23137 0.61342 0.0
C317 C 0.93571 0.2021 0.63464 0.0
C318 C 0.68524 0.24986 0.66729 0.0
C319 C 0.71269 0.23862 0.65452 0.0
C320 C 0.8057 0.22937 0.67912 0.0
C321 C 0.86836 0.20222 0.62415 0.0
C322 C 0.84129 0.21769 0.63511 0.0
C323 C 0.75954 0.25787 0.67011 0.0
C324 C 0.7875 0.24397 0.65766 0.0
H325 H 0.83864 0.10136 0.57999 0.0
H326 H 0.80517 0.14154 0.58889 0.0
H327 H 0.84523 0.20483 0.68521 0.0
H328 H 0.76845 0.32708 0.73192 0.0
H329 H 0.8159 0.30658 0.71039 0.0
C330 C 0.82129 0.88459 0.03407 0.0
C331 C 0.87914 0.93308 0.03819 0.0
C332 C 0.78318 0.86952 0.05695 0.0
C333 C 0.76706 0.8906 0.14008 0.0
H334 H 0.64294 0.85566 0.10487 0.0
C335 C 0.56329 0.78586 0.20833 0.0
C336 C 0.53938 0.80269 0.19854 0.0
C337 C 0.61303 0.80983 0.19394 0.0
C338 C 0.67765 0.86591 0.11519 0.0
H339 H 0.94273 0.00485 0.06889 0.0
H340 H 0.87603 0.97813 0.10917 0.0
H341 H 0.71103 0.87741 0.06904 0.0
H342 H 0.55137 0.86158 0.16886 0.0
H343 H 0.63855 0.90433 0.14444 0.0
H344 H 0.73278 0.87847 0.18643 0.0
C345 C 0.86023 0.95115 0.08859 0.0
C346 C 0.71624 0.87759 0.09459 0.0
C347 C 0.89834 0.96641 0.06556 0.0
C348 C 0.56872 0.84753 0.17659 0.0
C349 C 0.61841 0.87172 0.16249 0.0
C350 C 0.72782 0.87823 0.16084 0.0
C351 C 0.8022 0.90302 0.08425 0.0
C352 C 0.7613 0.88999 0.10673 0.0
C353 C 0.63938 0.85095 0.16964 0.0
C354 C 0.68288 0.8661 0.14854 0.0
H355 H 0.80554 0.85864 0.01297 0.0
H356 H 0.73867 0.83202 0.05307 0.0
H357 H 0.8014 0.89986 0.15003 0.0
H358 H 0.5411 0.75088 0.22493 0.0
H359 H 0.6282 0.79298 0.19996 0.0
C360 C 0.90487 0.80907 0.53873 0.0
C361 C 0.93392 0.85967 0.55496 0.0
C362 C 0.8828 0.76141 0.55559 0.0
C363 C 0.82578 0.69341 0.6328 0.0
H364 H 0.8623 0.61585 0.61297 0.0
C365 C 0.74795 0.5125 0.71352 0.0
C366 C 0.73405 0.4675 0.69897 0.0
C367 C 0.77473 0.56129 0.69597 0.0
C368 C 0.85075 0.63627 0.61857 0.0
H369 H 0.96622 0.90083 0.60123 0.0
H370 H 0.92526 0.81713 0.6306 0.0
H371 H 0.90311 0.69763 0.5809 0.0
H372 H 0.73751 0.43844 0.65456 0.0
H373 H 0.78081 0.5214 0.62356 0.0
H374 H 0.77183 0.63149 0.66951 0.0
C375 C 0.91919 0.8143 0.60497 0.0
C376 C 0.87446 0.68329 0.60023 0.0
C377 C 0.94213 0.86205 0.58812 0.0
C378 C 0.74726 0.47219 0.66647 0.0
C379 C 0.77302 0.52037 0.64877 0.0
C380 C 0.80117 0.64579 0.65071 0.0
C381 C 0.88886 0.76344 0.58894 0.0
C382 C 0.86246 0.71245 0.60738 0.0
C383 C 0.78714 0.56571 0.66321 0.0
C384 C 0.81355 0.61666 0.64403 0.0
H385 H 0.89832 0.80589 0.51315 0.0
H386 H 0.85964 0.72254 0.54276 0.0
H387 H 0.81557 0.71505 0.63854 0.0
H388 H 0.73699 0.5096 0.73825 0.0
H389 H 0.78556 0.59545 0.70818 0.0
C390 C 0.08434 0.8238 0.37421 0.0
C391 C 0.10954 0.87289 0.39068 0.0
C392 C 0.11522 0.81444 0.36635 0.0
C393 C 0.24133 0.85225 0.38302 0.0
H394 H 0.22873 0.81521 0.29352 0.0
C395 C 0.37094 0.82581 0.32756 0.0
C396 C 0.34072 0.77858 0.30768 0.0
C397 C 0.34759 0.84315 0.33711 0.0
C398 C 0.23246 0.82512 0.31861 0.0
H399 H 0.18579 0.94867 0.41382 0.0
H400 H 0.23993 0.93176 0.40036 0.0
H401 H 0.17674 0.83096 0.31397 0.0
H402 H 0.26202 0.71141 0.28307 0.0
H403 H 0.22152 0.74177 0.29916 0.0
H404 H 0.29607 0.845 0.38781 0.0
C405 C 0.19625 0.90087 0.39338 0.0
C406 C 0.20265 0.83412 0.33032 0.0
C407 C 0.16527 0.91044 0.40115 0.0
C408 C 0.28707 0.74927 0.29735 0.0
C409 C 0.26377 0.76654 0.30679 0.0
C410 C 0.27096 0.84281 0.37133 0.0
C411 C 0.17197 0.85375 0.37493 0.0
C412 C 0.20607 0.84692 0.36272 0.0
C413 C 0.29338 0.81321 0.32715 0.0
C414 C 0.26619 0.82833 0.33906 0.0
H415 H 0.04108 0.79343 0.36645 0.0
H416 H 0.09504 0.77704 0.35281 0.0
H417 H 0.24462 0.86196 0.40811 0.0
H418 H 0.41222 0.84872 0.33613 0.0
H419 H 0.3717 0.87957 0.35255 0.0
C420 C 0.20223 0.14695 0.96764 0.0
C421 C 0.14808 0.09105 0.96759 0.0
C422 C 0.23885 0.16746 0.94194 0.0
C423 C 0.23838 0.12894 0.85772 0.0
H424 H 0.39957 0.25025 0.86956 0.0
C425 C 0.41142 0.18124 0.78425 0.0
C426 C 0.46245 0.23883 0.78055 0.0
C427 C 0.36545 0.16488 0.7988 0.0
C428 C 0.35458 0.21701 0.86576 0.0
H429 H 0.09218 0.01041 0.94341 0.0
H430 H 0.15635 0.04459 0.89983 0.0
H431 H 0.33838 0.21759 0.91473 0.0
H432 H 0.5041 0.3242 0.78562 0.0
H433 H 0.42399 0.29576 0.81118 0.0
H434 H 0.25573 0.12617 0.80901 0.0
C435 C 0.16973 0.0744 0.91801 0.0
C436 C 0.31926 0.1982 0.89172 0.0
C437 C 0.13282 0.05452 0.94316 0.0
C438 C 0.46481 0.27949 0.78783 0.0
C439 C 0.41923 0.26328 0.80273 0.0
C440 C 0.27387 0.147 0.83189 0.0
C441 C 0.22269 0.13165 0.9164 0.0
C442 C 0.26053 0.15348 0.88825 0.0
C443 C 0.37065 0.20613 0.81027 0.0
C444 C 0.33227 0.19103 0.83577 0.0
H445 H 0.21513 0.17543 0.98669 0.0
H446 H 0.27893 0.21186 0.94175 0.0
H447 H 0.19356 0.09527 0.85366 0.0
H448 H 0.4091 0.1493 0.77931 0.0
H449 H 0.32842 0.12053 0.80441 0.0
C450 C 0.04337 0.16645 0.4597 0.0
C451 C 0.06778 0.14843 0.45743 0.0
C452 C 0.06254 0.21045 0.44001 0.0
C453 C 0.18279 0.328 0.38747 0.0
H454 H 0.07495 0.31729 0.35018 0.0
C455 C 0.25399 0.48967 0.29443 0.0
C456 C 0.24425 0.51973 0.30487 0.0
C457 C 0.22416 0.43713 0.3081 0.0
C458 C 0.10534 0.32048 0.36033 0.0
H459 H 0.13377 0.16465 0.43523 0.0
H460 H 0.16577 0.23922 0.40008 0.0
H461 H 0.04249 0.24317 0.38692 0.0
H462 H 0.1922 0.5165 0.33515 0.0
H463 H 0.13933 0.42422 0.35861 0.0
H464 H 0.24546 0.40488 0.36074 0.0
C465 C 0.13207 0.22011 0.41682 0.0
C466 C 0.08696 0.2785 0.38164 0.0
C467 C 0.11317 0.17664 0.43656 0.0
C468 C 0.20054 0.49409 0.32681 0.0
C469 C 0.17018 0.44125 0.34013 0.0
C470 C 0.20093 0.36931 0.3659 0.0
C471 C 0.10652 0.23711 0.41788 0.0
C472 C 0.12558 0.28192 0.3956 0.0
C473 C 0.18375 0.41371 0.33211 0.0
C474 C 0.16252 0.36617 0.35222 0.0
H475 H 0.00826 0.14519 0.47577 0.0
H476 H 0.04263 0.22321 0.44193 0.0
H477 H 0.21397 0.33286 0.39821 0.0
H478 H 0.28795 0.50887 0.27789 0.0
H479 H 0.23504 0.41642 0.30135 0.0
C480 C 0.84068 0.09745 0.89833 0.0
C481 C 0.89862 0.14009 0.89161 0.0
C482 C 0.80816 0.10495 0.89001 0.0
C483 C 0.80834 0.17921 0.82912 0.0
H484 H 0.69332 0.14355 0.87968 0.0
C485 C 0.71306 0.25172 0.79267 0.0
C486 C 0.65646 0.21695 0.79946 0.0
C487 C 0.73799 0.23641 0.80268 0.0
C488 C 0.72459 0.1527 0.86505 0.0
H489 H 0.96883 0.22591 0.87396 0.0
H490 H 0.91224 0.2389 0.85945 0.0
H491 H 0.74702 0.13099 0.90299 0.0
H492 H 0.58106 0.1385 0.822 0.0
H493 H 0.6244 0.11096 0.83926 0.0
H494 H 0.78617 0.20056 0.79114 0.0
C495 C 0.8917 0.19927 0.87044 0.0
C496 C 0.75552 0.14584 0.87851 0.0
C497 C 0.92407 0.19188 0.87879 0.0
C498 C 0.62469 0.1657 0.816 0.0
C499 C 0.64964 0.15027 0.82615 0.0
C500 C 0.77727 0.18561 0.81563 0.0
C501 C 0.83316 0.15513 0.8748 0.0
C502 C 0.79841 0.16006 0.86081 0.0
C503 C 0.70695 0.18607 0.82013 0.0
C504 C 0.73568 0.17342 0.83356 0.0
H505 H 0.82 0.05709 0.90814 0.0
H506 H 0.76311 0.07031 0.89371 0.0
H507 H 0.84025 0.18922 0.81466 0.0
H508 H 0.7392 0.29288 0.78186 0.0
H509 H 0.78251 0.26573 0.7983 0.0
C510 C 0.87903 0.95991 0.44631 0.0
C511 C 0.86376 0.92406 0.47149 0.0
C512 C 0.84054 0.94005 0.42232 0.0
C513 C 0.68782 0.82218 0.40421 0.0
H514 H 0.73861 0.87216 0.31631 0.0
C515 C 0.5269 0.7141 0.30836 0.0
C516 C 0.52667 0.75067 0.2952 0.0
C517 C 0.57537 0.73585 0.32236 0.0
C518 C 0.72411 0.85786 0.34076 0.0
H519 H 0.79612 0.84107 0.4928 0.0
H520 H 0.72954 0.80495 0.45018 0.0
H521 H 0.807 0.90971 0.35849 0.0
H522 H 0.57772 0.83754 0.28263 0.0
H523 H 0.66324 0.87616 0.30773 0.0
H524 H 0.60508 0.77003 0.38651 0.0
C525 C 0.7707 0.84869 0.44893 0.0
C526 C 0.76311 0.87951 0.36498 0.0
C527 C 0.80885 0.86901 0.47323 0.0
C528 C 0.57724 0.80873 0.29266 0.0
C529 C 0.626 0.8307 0.30696 0.0
C530 C 0.64907 0.80007 0.38008 0.0
C531 C 0.7861 0.88385 0.42303 0.0
C532 C 0.74534 0.86176 0.39704 0.0
C533 C 0.62413 0.79456 0.32371 0.0
C534 C 0.66671 0.81746 0.34818 0.0
H535 H 0.92073 0.00329 0.44516 0.0
H536 H 0.85353 0.96886 0.40332 0.0
H537 H 0.6725 0.80871 0.42859 0.0
H538 H 0.48827 0.66908 0.31033 0.0
H539 H 0.57326 0.70719 0.33479 0.0
C540 C 0.91808 0.81664 0.96756 0.0
C541 C 0.94968 0.86824 0.95159 0.0
C542 C 0.89887 0.77039 0.95117 0.0
C543 C 0.91773 0.72633 0.87837 0.0
H544 H 0.76251 0.5836 0.8957 0.0
C545 C 0.77892 0.51494 0.80632 0.0
C546 C 0.7433 0.46545 0.82518 0.0
C547 C 0.81267 0.56793 0.82058 0.0
C548 C 0.80611 0.62304 0.89084 0.0
H549 H 0.98892 0.91274 0.90631 0.0
H550 H 0.95384 0.83125 0.87745 0.0
H551 H 0.80386 0.66854 0.92278 0.0
H552 H 0.7206 0.43355 0.87407 0.0
H553 H 0.77954 0.5253 0.89866 0.0
H554 H 0.91902 0.67989 0.84592 0.0
C555 C 0.944 0.82671 0.90266 0.0
C556 C 0.82983 0.67169 0.90639 0.0
C557 C 0.96335 0.87312 0.91911 0.0
C558 C 0.74623 0.47052 0.85865 0.0
C559 C 0.77997 0.52312 0.87282 0.0
C560 C 0.89372 0.67728 0.86261 0.0
C561 C 0.91076 0.77458 0.91843 0.0
C562 C 0.88607 0.72374 0.90074 0.0
C563 C 0.81155 0.57197 0.85393 0.0
C564 C 0.83789 0.62507 0.86916 0.0
H565 H 0.90752 0.81159 0.99268 0.0
H566 H 0.8743 0.73107 0.96414 0.0
H567 H 0.96124 0.76593 0.87358 0.0
H568 H 0.77952 0.51264 0.78061 0.0
H569 H 0.83727 0.60516 0.80549 0.0
loop_
_geom_bond_atom_site_label_1
_geom_bond_atom_site_label_2
_geom_bond_distance
_geom_bond_site_symmetry_2
_ccdc_geom_bond_type
Eu0 N31 2.657 1_455 S
Eu0 N38 2.609 . S
Eu0 O44 2.558 1_565 S
Eu0 O45 2.612 1_564 S
Eu0 O47 2.339 1_454 S
Eu0 O48 2.563 1_565 S
Eu0 O49 2.419 . S
Eu0 O51 2.380 1_455 S
Eu0 O52 2.432 1_565 S
Eu0 C64 2.848 . S
C1 C4 1.429 . S
C1 C5 1.411 . S
C1 N8 1.377 1_455 S
C2 C4 1.420 . S
C2 C6 1.423 . S
C2 C14 1.392 . S
C3 C5 1.420 . S
C3 C6 1.351 . S
C3 H26 0.931 . S
C4 C1 1.429 . S
C4 C2 1.420 . S
C4 N12 1.362 . S
C5 C1 1.411 . S
C5 C3 1.420 . S
C5 C10 1.395 1_455 S
C6 C2 1.423 . S
C6 C3 1.351 . S
C6 H18 0.930 . S
C7 C9 1.400 . S
C7 C10 1.386 1_565 S
C7 H19 0.930 . S
N8 C1 1.377 1_655 S
N8 C9 1.321 1_545 S
N8 Eu11 2.609 . S
C9 C7 1.400 . S
C9 N8 1.321 1_565 S
C9 H16 0.930 . S
C10 C5 1.395 1_655 S
C10 C7 1.386 1_545 S
C10 H29 0.932 . S
Eu11 N8 2.609 . S
Eu11 N12 2.657 1_655 S
Eu11 O45 2.380 1_655 S
Eu11 O46 2.432 1_545 S
Eu11 O50 2.558 1_545 S
Eu11 O51 2.612 1_546 S
Eu11 O53 2.339 1_656 S
Eu11 O54 2.563 1_545 S
Eu11 O55 2.419 . S
Eu11 C75 2.848 . S
N12 C4 1.362 . S
N12 Eu11 2.657 1_455 S
N12 C13 1.334 . S
C13 N12 1.334 . S
C13 C15 1.413 . S
C13 H20 0.929 . S
C14 C2 1.392 . S
C14 C15 1.367 . S
C14 H22 0.930 . S
C15 C13 1.413 . S
C15 C14 1.367 . S
C15 H17 0.930 . S
H16 C9 0.930 . S
H17 C15 0.930 . S
H18 C6 0.930 . S
H19 C7 0.930 . S
H20 C13 0.929 . S
H21 C35 0.930 . S
H22 C14 0.930 . S
H23 C41 0.930 . S
H24 C32 0.929 . S
H25 C39 0.930 . S
H26 C3 0.931 . S
H27 C33 0.930 . S
H28 C66 0.930 . S
H29 C10 0.932 . S
H30 C65 0.931 . S
N31 Eu0 2.657 1_655 S
N31 C32 1.334 . S
N31 C36 1.362 . S
C32 H24 0.929 . S
C32 N31 1.334 . S
C32 C35 1.413 . S
C33 H27 0.930 . S
C33 C34 1.392 . S
C33 C35 1.367 . S
C34 C33 1.392 . S
C34 C36 1.420 . S
C34 C66 1.423 . S
C35 H21 0.930 . S
C35 C32 1.413 . S
C35 C33 1.367 . S
C36 N31 1.362 . S
C36 C34 1.420 . S
C36 C40 1.429 . S
H37 C42 0.929 1_545 S
N38 Eu0 2.609 . S
N38 C40 1.377 1_455 S
N38 C41 1.321 1_565 S
C39 H25 0.930 . S
C39 C41 1.400 . S
C39 C42 1.384 1_545 S
C40 C36 1.429 . S
C40 N38 1.377 1_655 S
C40 C43 1.411 . S
C41 H23 0.930 . S
C41 N38 1.321 1_545 S
C41 C39 1.400 . S
C42 H37 0.929 1_565 S
C42 C39 1.384 1_565 S
C42 C43 1.397 1_455 S
C43 C40 1.411 . S
C43 C42 1.397 1_655 S
C43 C65 1.420 . S
O44 Eu0 2.558 1_545 S
O44 C64 1.257 1_545 S
O45 Eu0 2.612 1_546 S
O45 Eu11 2.380 1_455 S
O45 C56 1.276 . S
O46 Eu11 2.432 1_565 S
O46 C63 1.264 . S
O47 Eu0 2.339 1_656 S
O47 C63 1.254 . S
O48 Eu0 2.563 1_545 S
O48 C56 1.235 1_554 S
O49 Eu0 2.419 . S
O49 C64 1.249 . S
O50 Eu11 2.558 1_565 S
O50 C75 1.257 1_565 S
O51 Eu0 2.380 1_655 S
O51 Eu11 2.612 1_564 S
O51 C67 1.276 . S
O52 Eu0 2.432 1_545 S
O52 C74 1.264 . S
O53 Eu11 2.339 1_454 S
O53 C74 1.254 . S
O54 Eu11 2.563 1_565 S
O54 C67 1.235 1_556 S
O55 Eu11 2.419 . S
O55 C75 1.249 . S
C56 O45 1.276 . S
C56 O48 1.235 1_556 S
C57 C59 1.393 . S
C57 C61 1.395 . S
C57 C64 1.492 . S
C58 C59 1.392 . S
C58 C60 1.386 . S
C59 C57 1.393 . S
C59 C58 1.392 . S
C59 H76 0.930 . S
C60 C58 1.386 . S
C60 C62 1.395 . S
C60 H77 0.930 . S
C61 C57 1.395 . S
C61 C62 1.379 . S
C61 H78 0.930 . S
C62 C60 1.395 . S
C62 C61 1.379 . S
C62 H79 0.930 . S
C63 O46 1.264 . S
C63 O47 1.254 . S
C64 Eu0 2.848 . S
C64 O44 1.257 1_565 S
C64 O49 1.249 . S
C64 C57 1.492 . S
C65 H30 0.931 . S
C65 C43 1.420 . S
C65 C66 1.351 . S
C66 H28 0.930 . S
C66 C34 1.423 . S
C66 C65 1.351 . S
C67 O51 1.276 . S
C67 O54 1.235 1_554 S
C68 C69 1.393 . S
C68 C72 1.395 . S
C68 C75 1.492 . S
C69 C68 1.393 . S
C69 C70 1.392 . S
C69 H80 0.930 . S
C70 C69 1.392 . S
C70 C71 1.386 . S
C71 C70 1.386 . S
C71 C73 1.395 . S
C71 H81 0.930 . S
C72 C68 1.395 . S
C72 C73 1.379 . S
C72 H82 0.930 . S
C73 C71 1.395 . S
C73 C72 1.379 . S
C73 H83 0.930 . S
C74 O52 1.264 . S
C74 O53 1.254 . S
C75 Eu11 2.848 . S
C75 O50 1.257 1_545 S
C75 O55 1.249 . S
C75 C68 1.492 . S
H76 C59 0.930 . S
H77 C60 0.930 . S
H78 C61 0.930 . S
H79 C62 0.930 . S
H80 C69 0.930 . S
H81 C71 0.930 . S
H82 C72 0.930 . S
H83 C73 0.930 . S
Eu84 N115 2.657 1_655 S
Eu84 N122 2.609 1_655 S
Eu84 O128 2.558 . S
Eu84 O129 2.612 1_545 S
Eu84 O131 2.339 1_655 S
Eu84 O132 2.563 1_545 S
Eu84 O133 2.419 . S
Eu84 O135 2.380 1_655 S
Eu84 O136 2.432 1_545 S
Eu84 C148 2.848 . S
C85 C88 1.429 . S
C85 C89 1.411 . S
C85 N92 1.377 1_665 S
C86 C88 1.420 . S
C86 C90 1.423 . S
C86 C98 1.392 . S
C87 C89 1.420 . S
C87 C90 1.351 . S
C87 H110 0.931 . S
C88 C85 1.429 . S
C88 C86 1.420 . S
C88 N96 1.362 . S
C89 C85 1.411 . S
C89 C87 1.420 . S
C89 C94 1.395 1_665 S
C90 C86 1.423 . S
C90 C87 1.351 . S
C90 H102 0.930 . S
C91 C93 1.400 . S
C91 C94 1.386 . S
C91 H103 0.930 . S
N92 C85 1.377 1_445 S
N92 C93 1.321 . S
N92 Eu95 2.609 1_545 S
C93 C91 1.400 . S
C93 N92 1.321 . S
C93 H100 0.930 . S
C94 C89 1.395 1_445 S
C94 C91 1.386 . S
C94 H113 0.930 . S
Eu95 N92 2.609 1_565 S
Eu95 N96 2.657 1_455 S
Eu95 O129 2.380 1_455 S
Eu95 O130 2.432 1_565 S
Eu95 O134 2.558 1_565 S
Eu95 O135 2.612 1_565 S
Eu95 O137 2.339 1_455 S
Eu95 O138 2.563 1_565 S
Eu95 O139 2.419 . S
Eu95 C159 2.848 . S
N96 C88 1.362 . S
N96 Eu95 2.657 1_655 S
N96 C97 1.334 . S
C97 N96 1.334 . S
C97 C99 1.413 . S
C97 H104 0.929 . S
C98 C86 1.392 . S
C98 C99 1.367 . S
C98 H106 0.930 . S
C99 C97 1.413 . S
C99 C98 1.367 . S
C99 H101 0.930 . S
H100 C93 0.930 . S
H101 C99 0.930 . S
H102 C90 0.930 . S
H103 C91 0.930 . S
H104 C97 0.929 . S
H105 C119 0.930 . S
H106 C98 0.930 . S
H107 C125 0.930 . S
H108 C116 0.929 . S
H109 C123 0.930 . S
H110 C87 0.931 . S
H111 C117 0.930 . S
H112 C150 0.930 . S
H113 C94 0.930 . S
H114 C149 0.931 . S
N115 Eu84 2.657 1_455 S
N115 C116 1.334 . S
N115 C120 1.362 . S
C116 H108 0.929 . S
C116 N115 1.334 . S
C116 C119 1.413 . S
C117 H111 0.930 . S
C117 C118 1.392 . S
C117 C119 1.367 . S
C118 C117 1.392 . S
C118 C120 1.420 . S
C118 C150 1.423 . S
C119 H105 0.930 . S
C119 C116 1.413 . S
C119 C117 1.367 . S
C120 N115 1.362 . S
C120 C118 1.420 . S
C120 C124 1.429 . S
H121 C126 0.930 . S
N122 Eu84 2.609 1_455 S
N122 C124 1.377 . S
N122 C125 1.321 1_445 S
C123 H109 0.930 . S
C123 C125 1.400 . S
C123 C126 1.386 1_665 S
C124 C120 1.429 . S
C124 N122 1.377 . S
C124 C127 1.411 . S
C125 H107 0.930 . S
C125 N122 1.321 1_665 S
C125 C123 1.400 . S
C126 H121 0.930 . S
C126 C123 1.386 1_445 S
C126 C127 1.395 . S
C127 C124 1.411 . S
C127 C126 1.395 . S
C127 C149 1.420 . S
O128 Eu84 2.558 . S
O128 C148 1.257 . S
O129 Eu84 2.612 1_565 S
O129 Eu95 2.380 1_655 S
O129 C140 1.276 . S
O130 Eu95 2.432 1_545 S
O130 C147 1.264 . S
O131 Eu84 2.339 1_455 S
O131 C147 1.254 . S
O132 Eu84 2.563 1_565 S
O132 C140 1.235 . S
O133 Eu84 2.419 . S
O133 C148 1.249 . S
O134 Eu95 2.558 1_545 S
O134 C159 1.257 1_545 S
O135 Eu84 2.380 1_455 S
O135 Eu95 2.612 1_545 S
O135 C151 1.276 . S
O136 Eu84 2.432 1_565 S
O136 C158 1.264 . S
O137 Eu95 2.339 1_655 S
O137 C158 1.254 . S
O138 Eu95 2.563 1_545 S
O138 C151 1.235 . S
O139 Eu95 2.419 . S
O139 C159 1.249 . S
C140 O129 1.276 . S
C140 O132 1.235 . S
C141 C143 1.393 . S
C141 C145 1.395 . S
C141 C148 1.492 . S
C142 C143 1.392 . S
C142 C144 1.386 . S
C143 C141 1.393 . S
C143 C142 1.392 . S
C143 H160 0.930 . S
C144 C142 1.386 . S
C144 C146 1.395 . S
C144 H161 0.930 . S
C145 C141 1.395 . S
C145 C146 1.379 . S
C145 H162 0.930 . S
C146 C144 1.395 . S
C146 C145 1.379 . S
C146 H163 0.930 . S
C147 O130 1.264 . S
C147 O131 1.254 . S
C148 Eu84 2.848 . S
C148 O128 1.257 . S
C148 O133 1.249 . S
C148 C141 1.492 . S
C149 H114 0.931 . S
C149 C127 1.420 . S
C149 C150 1.351 . S
C150 H112 0.930 . S
C150 C118 1.423 . S
C150 C149 1.351 . S
C151 O135 1.276 . S
C151 O138 1.235 . S
C152 C153 1.393 . S
C152 C156 1.395 . S
C152 C159 1.492 . S
C153 C152 1.393 . S
C153 C154 1.392 . S
C153 H164 0.930 . S
C154 C153 1.392 . S
C154 C155 1.386 . S
C155 C154 1.386 . S
C155 C157 1.395 . S
C155 H165 0.930 . S
C156 C152 1.395 . S
C156 C157 1.379 . S
C156 H166 0.930 1_565 S
C157 C155 1.395 . S
C157 C156 1.379 . S
C157 H167 0.930 . S
C158 O136 1.264 . S
C158 O137 1.254 . S
C159 Eu95 2.848 . S
C159 O134 1.257 1_565 S
C159 O139 1.249 . S
C159 C152 1.492 . S
H160 C143 0.930 . S
H161 C144 0.930 . S
H162 C145 0.930 . S
H163 C146 0.930 . S
H164 C153 0.930 . S
H165 C155 0.930 . S
H166 C156 0.930 1_545 S
H167 C157 0.930 . S
Zn168 O174 1.920 . S
Zn168 O180 1.898 . S
Zn168 O183 1.905 . S
Zn169 O177 1.905 . S
Zn169 O178 1.898 . S
Zn169 O186 1.920 . S
Zn170 O173 2.080 . S
Zn170 O176 2.114 . S
Zn170 O179 2.120 . S
Zn170 O181 2.120 . S
Zn170 O182 2.114 . S
Zn170 O185 2.080 . S
C171 O176 1.166 . S
C171 O177 1.182 . S
C172 O178 1.167 . S
C172 O179 1.299 . S
O173 Zn170 2.080 . S
O173 C187 1.305 . S
O174 Zn168 1.920 . S
O174 C187 1.234 . S
C175 O180 1.167 . S
C175 O181 1.299 . S
O176 Zn170 2.114 . S
O176 C171 1.166 . S
O177 Zn169 1.905 . S
O177 C171 1.182 . S
O178 Zn169 1.898 . S
O178 C172 1.167 . S
O179 Zn170 2.120 . S
O179 C172 1.299 . S
O180 Zn168 1.898 . S
O180 C175 1.167 . S
O181 Zn170 2.120 . S
O181 C175 1.299 . S
O182 Zn170 2.114 . S
O182 C184 1.166 . S
O183 Zn168 1.905 . S
O183 C184 1.182 . S
C184 O182 1.166 . S
C184 O183 1.182 . S
O185 Zn170 2.080 . S
O185 C188 1.305 . S
O186 Zn169 1.920 . S
O186 C188 1.234 . S
C187 O173 1.305 . S
C187 O174 1.234 . S
C188 O185 1.305 . S
C188 O186 1.234 . S
Zn189 O195 1.920 . S
Zn189 O201 1.898 . S
Zn189 O204 1.905 . S
Zn190 O198 1.905 . S
Zn190 O199 1.898 . S
Zn190 O207 1.920 . S
Zn191 O194 2.080 . S
Zn191 O197 2.114 . S
Zn191 O200 2.120 . S
Zn191 O202 2.120 . S
Zn191 O203 2.114 . S
Zn191 O206 2.080 . S
C192 O197 1.166 . S
C192 O198 1.182 . S
C193 O199 1.167 . S
C193 O200 1.299 . S
O194 Zn191 2.080 . S
O194 C208 1.305 . S
O195 Zn189 1.920 . S
O195 C208 1.234 . S
C196 O201 1.167 . S
C196 O202 1.299 . S
O197 Zn191 2.114 . S
O197 C192 1.166 . S
O198 Zn190 1.905 . S
O198 C192 1.182 . S
O199 Zn190 1.898 . S
O199 C193 1.167 . S
O200 Zn191 2.120 . S
O200 C193 1.299 . S
O201 Zn189 1.898 . S
O201 C196 1.167 . S
O202 Zn191 2.120 . S
O202 C196 1.299 . S
O203 Zn191 2.114 . S
O203 C205 1.166 . S
O204 Zn189 1.905 . S
O204 C205 1.182 . S
C205 O203 1.166 . S
C205 O204 1.182 . S
O206 Zn191 2.080 . S
O206 C209 1.305 . S
O207 Zn190 1.920 . S
O207 C209 1.234 . S
C208 O194 1.305 . S
C208 O195 1.234 . S
C209 O206 1.305 . S
C209 O207 1.234 . S
C210 C211 1.349 . S
C210 C212 1.327 . S
C210 H235 0.950 . S
C211 C210 1.349 . S
C211 C227 1.349 . S
C212 C210 1.327 . S
C212 C231 1.429 . S
C212 H236 0.950 . S
C213 C230 1.574 . S
C213 C232 1.368 . S
C213 H237 0.949 . S
H214 C218 0.949 . S
C215 C216 1.349 . S
C215 C217 1.327 . S
C215 H238 0.950 . S
C216 C215 1.349 . S
C216 C228 1.349 . S
C217 C215 1.327 . S
C217 C233 1.429 . S
C217 H239 0.950 . S
C218 H214 0.949 . S
C218 C226 1.574 . S
C218 C234 1.368 . S
H219 C227 0.950 . S
H220 C225 0.950 . S
H221 C226 0.949 . S
H222 C228 0.950 . S
H223 C229 0.950 . S
H224 C230 0.949 . S
C225 H220 0.950 . S
C225 C227 1.327 . S
C225 C231 1.429 . S
C226 C218 1.574 . S
C226 H221 0.949 . S
C226 C232 1.368 . S
C227 C211 1.349 . S
C227 H219 0.950 . S
C227 C225 1.327 . S
C228 C216 1.349 . S
C228 H222 0.950 . S
C228 C229 1.327 . S
C229 H223 0.950 . S
C229 C228 1.327 . S
C229 C233 1.429 . S
C230 C213 1.574 . S
C230 H224 0.949 . S
C230 C234 1.368 . S
C231 C212 1.429 . S
C231 C225 1.429 . S
C231 C232 1.523 . S
C232 C213 1.368 . S
C232 C226 1.368 . S
C232 C231 1.523 . S
C233 C217 1.429 . S
C233 C229 1.429 . S
C233 C234 1.523 . S
C234 C218 1.368 . S
C234 C230 1.368 . S
C234 C233 1.523 . S
H235 C210 0.950 . S
H236 C212 0.950 . S
H237 C213 0.949 . S
H238 C215 0.950 . S
H239 C217 0.950 . S
C240 C241 1.349 . S
C240 C242 1.327 . S
C240 H265 0.950 . S
C241 C240 1.349 . S
C241 C257 1.349 . S
C242 C240 1.327 . S
C242 C261 1.429 . S
C242 H266 0.950 . S
C243 C260 1.574 . S
C243 C262 1.368 . S
C243 H267 0.949 . S
H244 C248 0.949 . S
C245 C246 1.349 . S
C245 C247 1.327 . S
C245 H268 0.950 . S
C246 C245 1.349 . S
C246 C258 1.349 . S
C247 C245 1.327 . S
C247 C263 1.429 . S
C247 H269 0.950 . S
C248 H244 0.949 . S
C248 C256 1.574 . S
C248 C264 1.368 . S
H249 C257 0.950 . S
H250 C255 0.950 . S
H251 C256 0.949 . S
H252 C258 0.950 . S
H253 C259 0.950 . S
H254 C260 0.949 . S
C255 H250 0.950 . S
C255 C257 1.327 . S
C255 C261 1.429 . S
C256 C248 1.574 . S
C256 H251 0.949 . S
C256 C262 1.368 . S
C257 C241 1.349 . S
C257 H249 0.950 . S
C257 C255 1.327 . S
C258 C246 1.349 . S
C258 H252 0.950 . S
C258 C259 1.327 . S
C259 H253 0.950 . S
C259 C258 1.327 . S
C259 C263 1.429 . S
C260 C243 1.574 . S
C260 H254 0.949 . S
C260 C264 1.368 . S
C261 C242 1.429 . S
C261 C255 1.429 . S
C261 C262 1.523 . S
C262 C243 1.368 . S
C262 C256 1.368 . S
C262 C261 1.523 . S
C263 C247 1.429 . S
C263 C259 1.429 . S
C263 C264 1.523 . S
C264 C248 1.368 . S
C264 C260 1.368 . S
C264 C263 1.523 . S
H265 C240 0.950 . S
H266 C242 0.950 . S
H267 C243 0.949 . S
H268 C245 0.950 . S
H269 C247 0.950 . S
C270 C271 1.349 . S
C270 C272 1.327 . S
C270 H295 0.950 . S
C271 C270 1.349 . S
C271 C287 1.349 . S
C272 C270 1.327 . S
C272 C291 1.429 . S
C272 H296 0.950 . S
C273 C290 1.574 . S
C273 C292 1.368 . S
C273 H297 0.949 . S
H274 C278 0.949 . S
C275 C276 1.349 . S
C275 C277 1.327 . S
C275 H298 0.950 . S
C276 C275 1.349 . S
C276 C288 1.349 . S
C277 C275 1.327 . S
C277 C293 1.429 . S
C277 H299 0.950 . S
C278 H274 0.949 . S
C278 C286 1.574 . S
C278 C294 1.368 . S
H279 C287 0.950 . S
H280 C285 0.950 . S
H281 C286 0.949 . S
H282 C288 0.950 . S
H283 C289 0.950 . S
H284 C290 0.949 . S
C285 H280 0.950 . S
C285 C287 1.327 . S
C285 C291 1.429 . S
C286 C278 1.574 . S
C286 H281 0.949 . S
C286 C292 1.368 . S
C287 C271 1.349 . S
C287 H279 0.950 . S
C287 C285 1.327 . S
C288 C276 1.349 . S
C288 H282 0.950 . S
C288 C289 1.327 . S
C289 H283 0.950 . S
C289 C288 1.327 . S
C289 C293 1.429 . S
C290 C273 1.574 . S
C290 H284 0.949 . S
C290 C294 1.368 . S
C291 C272 1.429 . S
C291 C285 1.429 . S
C291 C292 1.523 . S
C292 C273 1.368 . S
C292 C286 1.368 . S
C292 C291 1.523 . S
C293 C277 1.429 . S
C293 C289 1.429 . S
C293 C294 1.523 . S
C294 C278 1.368 . S
C294 C290 1.368 . S
C294 C293 1.523 . S
H295 C270 0.950 . S
H296 C272 0.950 . S
H297 C273 0.949 . S
H298 C275 0.950 . S
H299 C277 0.950 . S
C300 C301 1.349 . S
C300 C302 1.327 . S
C300 H325 0.950 . S
C301 C300 1.349 . S
C301 C317 1.349 . S
C302 C300 1.327 . S
C302 C321 1.429 . S
C302 H326 0.950 . S
C303 C320 1.574 . S
C303 C322 1.368 . S
C303 H327 0.949 . S
H304 C308 0.949 . S
C305 C306 1.349 . S
C305 C307 1.327 . S
C305 H328 0.950 . S
C306 C305 1.349 . S
C306 C318 1.349 . S
C307 C305 1.327 . S
C307 C323 1.429 . S
C307 H329 0.950 . S
C308 H304 0.949 . S
C308 C316 1.574 . S
C308 C324 1.368 . S
H309 C317 0.950 . S
H310 C315 0.950 . S
H311 C316 0.949 . S
H312 C318 0.950 . S
H313 C319 0.950 . S
H314 C320 0.949 . S
C315 H310 0.950 . S
C315 C317 1.327 . S
C315 C321 1.429 . S
C316 C308 1.574 . S
C316 H311 0.949 . S
C316 C322 1.368 . S
C317 C301 1.349 . S
C317 H309 0.950 . S
C317 C315 1.327 . S
C318 C306 1.349 . S
C318 H312 0.950 . S
C318 C319 1.327 . S
C319 H313 0.950 . S
C319 C318 1.327 . S
C319 C323 1.429 . S
C320 C303 1.574 . S
C320 H314 0.949 . S
C320 C324 1.368 . S
C321 C302 1.429 . S
C321 C315 1.429 . S
C321 C322 1.523 . S
C322 C303 1.368 . S
C322 C316 1.368 . S
C322 C321 1.523 . S
C323 C307 1.429 . S
C323 C319 1.429 . S
C323 C324 1.523 . S
C324 C308 1.368 . S
C324 C320 1.368 . S
C324 C323 1.523 . S
H325 C300 0.950 . S
H326 C302 0.950 . S
H327 C303 0.949 . S
H328 C305 0.950 . S
H329 C307 0.950 . S
C330 C331 1.349 . S
C330 C332 1.327 . S
C330 H355 0.950 . S
C331 C330 1.349 . S
C331 C347 1.349 . S
C332 C330 1.327 . S
C332 C351 1.429 . S
C332 H356 0.950 . S
C333 C350 1.574 . S
C333 C352 1.368 . S
C333 H357 0.949 . S
H334 C338 0.949 . S
C335 C336 1.349 . S
C335 C337 1.327 . S
C335 H358 0.950 . S
C336 C335 1.349 . S
C336 C348 1.349 . S
C337 C335 1.327 . S
C337 C353 1.429 . S
C337 H359 0.950 . S
C338 H334 0.949 . S
C338 C346 1.574 . S
C338 C354 1.368 . S
H339 C347 0.950 . S
H340 C345 0.950 . S
H341 C346 0.949 . S
H342 C348 0.950 . S
H343 C349 0.950 . S
H344 C350 0.949 . S
C345 H340 0.950 . S
C345 C347 1.327 . S
C345 C351 1.429 . S
C346 C338 1.574 . S
C346 H341 0.949 . S
C346 C352 1.368 . S
C347 C331 1.349 . S
C347 H339 0.950 . S
C347 C345 1.327 . S
C348 C336 1.349 . S
C348 H342 0.950 . S
C348 C349 1.327 . S
C349 H343 0.950 . S
C349 C348 1.327 . S
C349 C353 1.429 . S
C350 C333 1.574 . S
C350 H344 0.949 . S
C350 C354 1.368 . S
C351 C332 1.429 . S
C351 C345 1.429 . S
C351 C352 1.523 . S
C352 C333 1.368 . S
C352 C346 1.368 . S
C352 C351 1.523 . S
C353 C337 1.429 . S
C353 C349 1.429 . S
C353 C354 1.523 . S
C354 C338 1.368 . S
C354 C350 1.368 . S
C354 C353 1.523 . S
H355 C330 0.950 . S
H356 C332 0.950 . S
H357 C333 0.949 . S
H358 C335 0.950 . S
H359 C337 0.950 . S
C360 C361 1.349 . S
C360 C362 1.327 . S
C360 H385 0.950 . S
C361 C360 1.349 . S
C361 C377 1.349 . S
C362 C360 1.327 . S
C362 C381 1.429 . S
C362 H386 0.950 . S
C363 C380 1.574 . S
C363 C382 1.368 . S
C363 H387 0.949 . S
H364 C368 0.949 . S
C365 C366 1.349 . S
C365 C367 1.327 . S
C365 H388 0.950 . S
C366 C365 1.349 . S
C366 C378 1.349 . S
C367 C365 1.327 . S
C367 C383 1.429 . S
C367 H389 0.950 . S
C368 H364 0.949 . S
C368 C376 1.574 . S
C368 C384 1.368 . S
H369 C377 0.950 . S
H370 C375 0.950 . S
H371 C376 0.949 . S
H372 C378 0.950 . S
H373 C379 0.950 . S
H374 C380 0.949 . S
C375 H370 0.950 . S
C375 C377 1.327 . S
C375 C381 1.429 . S
C376 C368 1.574 . S
C376 H371 0.949 . S
C376 C382 1.368 . S
C377 C361 1.349 . S
C377 H369 0.950 . S
C377 C375 1.327 . S
C378 C366 1.349 . S
C378 H372 0.950 . S
C378 C379 1.327 . S
C379 H373 0.950 . S
C379 C378 1.327 . S
C379 C383 1.429 . S
C380 C363 1.574 . S
C380 H374 0.949 . S
C380 C384 1.368 . S
C381 C362 1.429 . S
C381 C375 1.429 . S
C381 C382 1.523 . S
C382 C363 1.368 . S
C382 C376 1.368 . S
C382 C381 1.523 . S
C383 C367 1.429 . S
C383 C379 1.429 . S
C383 C384 1.523 . S
C384 C368 1.368 . S
C384 C380 1.368 . S
C384 C383 1.523 . S
H385 C360 0.950 . S
H386 C362 0.950 . S
H387 C363 0.949 . S
H388 C365 0.950 . S
H389 C367 0.950 . S
C390 C391 1.349 . S
C390 C392 1.327 . S
C390 H415 0.950 . S
C391 C390 1.349 . S
C391 C407 1.349 . S
C392 C390 1.327 . S
C392 C411 1.429 . S
C392 H416 0.950 . S
C393 C410 1.574 . S
C393 C412 1.368 . S
C393 H417 0.949 . S
H394 C398 0.949 . S
C395 C396 1.349 . S
C395 C397 1.327 . S
C395 H418 0.950 . S
C396 C395 1.349 . S
C396 C408 1.349 . S
C397 C395 1.327 . S
C397 C413 1.429 . S
C397 H419 0.950 . S
C398 H394 0.949 . S
C398 C406 1.574 . S
C398 C414 1.368 . S
H399 C407 0.950 . S
H400 C405 0.950 . S
H401 C406 0.949 . S
H402 C408 0.950 . S
H403 C409 0.950 . S
H404 C410 0.949 . S
C405 H400 0.950 . S
C405 C407 1.327 . S
C405 C411 1.429 . S
C406 C398 1.574 . S
C406 H401 0.949 . S
C406 C412 1.368 . S
C407 C391 1.349 . S
C407 H399 0.950 . S
C407 C405 1.327 . S
C408 C396 1.349 . S
C408 H402 0.950 . S
C408 C409 1.327 . S
C409 H403 0.950 . S
C409 C408 1.327 . S
C409 C413 1.429 . S
C410 C393 1.574 . S
C410 H404 0.949 . S
C410 C414 1.368 . S
C411 C392 1.429 . S
C411 C405 1.429 . S
C411 C412 1.523 . S
C412 C393 1.368 . S
C412 C406 1.368 . S
C412 C411 1.523 . S
C413 C397 1.429 . S
C413 C409 1.429 . S
C413 C414 1.523 . S
C414 C398 1.368 . S
C414 C410 1.368 . S
C414 C413 1.523 . S
H415 C390 0.950 . S
H416 C392 0.950 . S
H417 C393 0.949 . S
H418 C395 0.950 . S
H419 C397 0.950 . S
C420 C421 1.349 . S
C420 C422 1.327 . S
C420 H445 0.950 . S
C421 C420 1.349 . S
C421 C437 1.349 . S
C422 C420 1.327 . S
C422 C441 1.429 . S
C422 H446 0.950 . S
C423 C440 1.574 . S
C423 C442 1.368 . S
C423 H447 0.949 . S
H424 C428 0.949 . S
C425 C426 1.349 . S
C425 C427 1.327 . S
C425 H448 0.950 . S
C426 C425 1.349 . S
C426 C438 1.349 . S
C427 C425 1.327 . S
C427 C443 1.429 . S
C427 H449 0.950 . S
C428 H424 0.949 . S
C428 C436 1.574 . S
C428 C444 1.368 . S
H429 C437 0.950 . S
H430 C435 0.950 . S
H431 C436 0.949 . S
H432 C438 0.950 . S
H433 C439 0.950 . S
H434 C440 0.949 . S
C435 H430 0.950 . S
C435 C437 1.327 . S
C435 C441 1.429 . S
C436 C428 1.574 . S
C436 H431 0.949 . S
C436 C442 1.368 . S
C437 C421 1.349 . S
C437 H429 0.950 . S
C437 C435 1.327 . S
C438 C426 1.349 . S
C438 H432 0.950 . S
C438 C439 1.327 . S
C439 H433 0.950 . S
C439 C438 1.327 . S
C439 C443 1.429 . S
C440 C423 1.574 . S
C440 H434 0.949 . S
C440 C444 1.368 . S
C441 C422 1.429 . S
C441 C435 1.429 . S
C441 C442 1.523 . S
C442 C423 1.368 . S
C442 C436 1.368 . S
C442 C441 1.523 . S
C443 C427 1.429 . S
C443 C439 1.429 . S
C443 C444 1.523 . S
C444 C428 1.368 . S
C444 C440 1.368 . S
C444 C443 1.523 . S
H445 C420 0.950 . S
H446 C422 0.950 . S
H447 C423 0.949 . S
H448 C425 0.950 . S
H449 C427 0.950 . S
C450 C451 1.349 . S
C450 C452 1.327 . S
C450 H475 0.950 . S
C451 C450 1.349 . S
C451 C467 1.349 . S
C452 C450 1.327 . S
C452 C471 1.429 . S
C452 H476 0.950 . S
C453 C470 1.574 . S
C453 C472 1.368 . S
C453 H477 0.949 . S
H454 C458 0.949 . S
C455 C456 1.349 . S
C455 C457 1.327 . S
C455 H478 0.950 . S
C456 C455 1.349 . S
C456 C468 1.349 . S
C457 C455 1.327 . S
C457 C473 1.429 . S
C457 H479 0.950 . S
C458 H454 0.949 . S
C458 C466 1.574 . S
C458 C474 1.368 . S
H459 C467 0.950 . S
H460 C465 0.950 . S
H461 C466 0.949 . S
H462 C468 0.950 . S
H463 C469 0.950 . S
H464 C470 0.949 . S
C465 H460 0.950 . S
C465 C467 1.327 . S
C465 C471 1.429 . S
C466 C458 1.574 . S
C466 H461 0.949 . S
C466 C472 1.368 . S
C467 C451 1.349 . S
C467 H459 0.950 . S
C467 C465 1.327 . S
C468 C456 1.349 . S
C468 H462 0.950 . S
C468 C469 1.327 . S
C469 H463 0.950 . S
C469 C468 1.327 . S
C469 C473 1.429 . S
C470 C453 1.574 . S
C470 H464 0.949 . S
C470 C474 1.368 . S
C471 C452 1.429 . S
C471 C465 1.429 . S
C471 C472 1.523 . S
C472 C453 1.368 . S
C472 C466 1.368 . S
C472 C471 1.523 . S
C473 C457 1.429 . S
C473 C469 1.429 . S
C473 C474 1.523 . S
C474 C458 1.368 . S
C474 C470 1.368 . S
C474 C473 1.523 . S
H475 C450 0.950 . S
H476 C452 0.950 . S
H477 C453 0.949 . S
H478 C455 0.950 . S
H479 C457 0.950 . S
C480 C481 1.349 . S
C480 C482 1.327 . S
C480 H505 0.950 . S
C481 C480 1.349 . S
C481 C497 1.349 . S
C482 C480 1.327 . S
C482 C501 1.429 . S
C482 H506 0.950 . S
C483 C500 1.574 . S
C483 C502 1.368 . S
C483 H507 0.949 . S
H484 C488 0.949 . S
C485 C486 1.349 . S
C485 C487 1.327 . S
C485 H508 0.950 . S
C486 C485 1.349 . S
C486 C498 1.349 . S
C487 C485 1.327 . S
C487 C503 1.429 . S
C487 H509 0.950 . S
C488 H484 0.949 . S
C488 C496 1.574 . S
C488 C504 1.368 . S
H489 C497 0.950 . S
H490 C495 0.950 . S
H491 C496 0.949 . S
H492 C498 0.950 . S
H493 C499 0.950 . S
H494 C500 0.949 . S
C495 H490 0.950 . S
C495 C497 1.327 . S
C495 C501 1.429 . S
C496 C488 1.574 . S
C496 H491 0.949 . S
C496 C502 1.368 . S
C497 C481 1.349 . S
C497 H489 0.950 . S
C497 C495 1.327 . S
C498 C486 1.349 . S
C498 H492 0.950 . S
C498 C499 1.327 . S
C499 H493 0.950 . S
C499 C498 1.327 . S
C499 C503 1.429 . S
C500 C483 1.574 . S
C500 H494 0.949 . S
C500 C504 1.368 . S
C501 C482 1.429 . S
C501 C495 1.429 . S
C501 C502 1.523 . S
C502 C483 1.368 . S
C502 C496 1.368 . S
C502 C501 1.523 . S
C503 C487 1.429 . S
C503 C499 1.429 . S
C503 C504 1.523 . S
C504 C488 1.368 . S
C504 C500 1.368 . S
C504 C503 1.523 . S
H505 C480 0.950 . S
H506 C482 0.950 . S
H507 C483 0.949 . S
H508 C485 0.950 . S
H509 C487 0.950 . S
C510 C511 1.349 . S
C510 C512 1.327 . S
C510 H535 0.950 1_565 S
C511 C510 1.349 . S
C511 C527 1.349 . S
C512 C510 1.327 . S
C512 C531 1.429 . S
C512 H536 0.950 . S
C513 C530 1.574 . S
C513 C532 1.368 . S
C513 H537 0.949 . S
H514 C518 0.949 . S
C515 C516 1.349 . S
C515 C517 1.327 . S
C515 H538 0.950 . S
C516 C515 1.349 . S
C516 C528 1.349 . S
C517 C515 1.327 . S
C517 C533 1.429 . S
C517 H539 0.950 . S
C518 H514 0.949 . S
C518 C526 1.574 . S
C518 C534 1.368 . S
H519 C527 0.950 . S
H520 C525 0.950 . S
H521 C526 0.949 . S
H522 C528 0.950 . S
H523 C529 0.950 . S
H524 C530 0.949 . S
C525 H520 0.950 . S
C525 C527 1.327 . S
C525 C531 1.429 . S
C526 C518 1.574 . S
C526 H521 0.949 . S
C526 C532 1.368 . S
C527 C511 1.349 . S
C527 H519 0.950 . S
C527 C525 1.327 . S
C528 C516 1.349 . S
C528 H522 0.950 . S
C528 C529 1.327 . S
C529 H523 0.950 . S
C529 C528 1.327 . S
C529 C533 1.429 . S
C530 C513 1.574 . S
C530 H524 0.949 . S
C530 C534 1.368 . S
C531 C512 1.429 . S
C531 C525 1.429 . S
C531 C532 1.523 . S
C532 C513 1.368 . S
C532 C526 1.368 . S
C532 C531 1.523 . S
C533 C517 1.429 . S
C533 C529 1.429 . S
C533 C534 1.523 . S
C534 C518 1.368 . S
C534 C530 1.368 . S
C534 C533 1.523 . S
H535 C510 0.950 1_545 S
H536 C512 0.950 . S
H537 C513 0.949 . S
H538 C515 0.950 . S
H539 C517 0.950 . S
C540 C541 1.349 . S
C540 C542 1.327 . S
C540 H565 0.950 . S
C541 C540 1.349 . S
C541 C557 1.349 . S
C542 C540 1.327 . S
C542 C561 1.429 . S
C542 H566 0.950 . S
C543 C560 1.574 . S
C543 C562 1.368 . S
C543 H567 0.949 . S
H544 C548 0.949 . S
C545 C546 1.349 . S
C545 C547 1.327 . S
C545 H568 0.950 . S
C546 C545 1.349 . S
C546 C558 1.349 . S
C547 C545 1.327 . S
C547 C563 1.429 . S
C547 H569 0.950 . S
C548 H544 0.949 . S
C548 C556 1.574 . S
C548 C564 1.368 . S
H549 C557 0.950 1_455 S
H550 C555 0.950 . S
H551 C556 0.949 . S
H552 C558 0.950 . S
H553 C559 0.950 . S
H554 C560 0.949 . S
C555 H550 0.950 . S
C555 C557 1.327 . S
C555 C561 1.429 . S
C556 C548 1.574 . S
C556 H551 0.949 . S
C556 C562 1.368 . S
C557 C541 1.349 . S
C557 H549 0.950 1_655 S
C557 C555 1.327 . S
C558 C546 1.349 . S
C558 H552 0.950 . S
C558 C559 1.327 . S
C559 H553 0.950 . S
C559 C558 1.327 . S
C559 C563 1.429 . S
C560 C543 1.574 . S
C560 H554 0.949 . S
C560 C564 1.368 . S
C561 C542 1.429 . S
C561 C555 1.429 . S
C561 C562 1.523 . S
C562 C543 1.368 . S
C562 C556 1.368 . S
C562 C561 1.523 . S
C563 C547 1.429 . S
C563 C559 1.429 . S
C563 C564 1.523 . S
C564 C548 1.368 . S
C564 C560 1.368 . S
C564 C563 1.523 . S
H565 C540 0.950 . S
H566 C542 0.950 . S
H567 C543 0.949 . S
H568 C545 0.950 . S
H569 C547 0.950 . S
C211 C58 1.137 . S
C216 C187 1.244 . S
C241 C151 1.552 . S
C246 C193 1.431 . S
C271 C74 1.532 . S
C276 C184 1.454 . S
C301 C142 1.137 . S
C306 C209 1.244 . S
C331 C67 1.552 . S
C336 C175 1.431 . S
C366 C192 1.454 . S
C361 C158 1.532 . S
C391 C154 1.135 . S
C396 C188 1.254 . S
C426 C205 1.472 . S
C421 C56 1.562 . S
C456 C172 1.397 . S
C451 C147 1.531 . S
C486 C208 1.254 . S
C481 C70 1.135 . S
C516 C171 1.472 . S
C511 C140 1.562 . S
C546 C196 1.397 . S
C541 C63 1.531 . S
