# Generated by pormake.
# Topology myd, (4,6)-cn, num edge types: 1
# Building blocks:
#     Node 0, Type 0, BuildingBlock: NAWXER_clean_sbu_0, # of connection points: 4
#     Node 1, Type 0, BuildingBlock: NAWXER_clean_sbu_0, # of connection points: 4
#     Node 2, Type 0, BuildingBlock: NAWXER_clean_sbu_0, # of connection points: 4
#     Node 3, Type 0, BuildingBlock: NAWXER_clean_sbu_0, # of connection points: 4
#     Node 4, Type 0, BuildingBlock: NAWXER_clean_sbu_0, # of connection points: 4
#     Node 5, Type 0, BuildingBlock: NAWXER_clean_sbu_0, # of connection points: 4
#     Node 6, Type 0, BuildingBlock: NAWXER_clean_sbu_0, # of connection points: 4
#     Node 7, Type 0, BuildingBlock: NAWXER_clean_sbu_0, # of connection points: 4
#     Node 8, Type 0, BuildingBlock: NAWXER_clean_sbu_0, # of connection points: 4
#     Node 9, Type 0, BuildingBlock: NAWXER_clean_sbu_0, # of connection points: 4
#     Node 10, Type 0, BuildingBlock: NAWXER_clean_sbu_0, # of connection points: 4
#     Node 11, Type 0, BuildingBlock: NAWXER_clean_sbu_0, # of connection points: 4
#     Node 12, Type 1, BuildingBlock: FUNLAD_clean_sbu_0, # of connection points: 6
#     Node 13, Type 1, BuildingBlock: FUNLAD_clean_sbu_0, # of connection points: 6
#     Node 14, Type 1, BuildingBlock: FUNLAD_clean_sbu_0, # of connection points: 6
#     Node 15, Type 1, BuildingBlock: FUNLAD_clean_sbu_0, # of connection points: 6
#     Node 16, Type 1, BuildingBlock: FUNLAD_clean_sbu_0, # of connection points: 6
#     Node 17, Type 1, BuildingBlock: FUNLAD_clean_sbu_0, # of connection points: 6
#     Node 18, Type 1, BuildingBlock: FUNLAD_clean_sbu_0, # of connection points: 6
#     Node 19, Type 1, BuildingBlock: FUNLAD_clean_sbu_0, # of connection points: 6
#     Edge 20, Type (0, 1), BuildingBlock: TEMPAE_clean_linker_10, # of connection points: 2
#     Edge 21, Type (0, 1), BuildingBlock: TEMPAE_clean_linker_10, # of connection points: 2
#     Edge 22, Type (0, 1), BuildingBlock: TEMPAE_clean_linker_10, # of connection points: 2
#     Edge 23, Type (0, 1), BuildingBlock: TEMPAE_clean_linker_10, # of connection points: 2
#     Edge 24, Type (0, 1), BuildingBlock: TEMPAE_clean_linker_10, # of connection points: 2
#     Edge 25, Type (0, 1), BuildingBlock: TEMPAE_clean_linker_10, # of connection points: 2
#     Edge 26, Type (0, 1), BuildingBlock: TEMPAE_clean_linker_10, # of connection points: 2
#     Edge 27, Type (0, 1), BuildingBlock: TEMPAE_clean_linker_10, # of connection points: 2
#     Edge 28, Type (0, 1), BuildingBlock: TEMPAE_clean_linker_10, # of connection points: 2
#     Edge 29, Type (0, 1), BuildingBlock: TEMPAE_clean_linker_10, # of connection points: 2
#     Edge 30, Type (0, 1), BuildingBlock: TEMPAE_clean_linker_10, # of connection points: 2
#     Edge 31, Type (0, 1), BuildingBlock: TEMPAE_clean_linker_10, # of connection points: 2
#     Edge 32, Type (0, 1), BuildingBlock: TEMPAE_clean_linker_10, # of connection points: 2
#     Edge 33, Type (0, 1), BuildingBlock: TEMPAE_clean_linker_10, # of connection points: 2
#     Edge 34, Type (0, 1), BuildingBlock: TEMPAE_clean_linker_10, # of connection points: 2
#     Edge 35, Type (0, 1), BuildingBlock: TEMPAE_clean_linker_10, # of connection points: 2
#     Edge 36, Type (0, 1), BuildingBlock: TEMPAE_clean_linker_10, # of connection points: 2
#     Edge 37, Type (0, 1), BuildingBlock: TEMPAE_clean_linker_10, # of connection points: 2
#     Edge 38, Type (0, 1), BuildingBlock: TEMPAE_clean_linker_10, # of connection points: 2
#     Edge 39, Type (0, 1), BuildingBlock: TEMPAE_clean_linker_10, # of connection points: 2
#     Edge 40, Type (0, 1), BuildingBlock: TEMPAE_clean_linker_10, # of connection points: 2
#     Edge 41, Type (0, 1), BuildingBlock: TEMPAE_clean_linker_10, # of connection points: 2
#     Edge 42, Type (0, 1), BuildingBlock: TEMPAE_clean_linker_10, # of connection points: 2
#     Edge 43, Type (0, 1), BuildingBlock: TEMPAE_clean_linker_10, # of connection points: 2
#     Edge 44, Type (0, 1), BuildingBlock: TEMPAE_clean_linker_10, # of connection points: 2
#     Edge 45, Type (0, 1), BuildingBlock: TEMPAE_clean_linker_10, # of connection points: 2
#     Edge 46, Type (0, 1), BuildingBlock: TEMPAE_clean_linker_10, # of connection points: 2
#     Edge 47, Type (0, 1), BuildingBlock: TEMPAE_clean_linker_10, # of connection points: 2
#     Edge 48, Type (0, 1), BuildingBlock: TEMPAE_clean_linker_10, # of connection points: 2
#     Edge 49, Type (0, 1), BuildingBlock: TEMPAE_clean_linker_10, # of connection points: 2
#     Edge 50, Type (0, 1), BuildingBlock: TEMPAE_clean_linker_10, # of connection points: 2
#     Edge 51, Type (0, 1), BuildingBlock: TEMPAE_clean_linker_10, # of connection points: 2
#     Edge 52, Type (0, 1), BuildingBlock: TEMPAE_clean_linker_10, # of connection points: 2
#     Edge 53, Type (0, 1), BuildingBlock: TEMPAE_clean_linker_10, # of connection points: 2
#     Edge 54, Type (0, 1), BuildingBlock: TEMPAE_clean_linker_10, # of connection points: 2
#     Edge 55, Type (0, 1), BuildingBlock: TEMPAE_clean_linker_10, # of connection points: 2
#     Edge 56, Type (0, 1), BuildingBlock: TEMPAE_clean_linker_10, # of connection points: 2
#     Edge 57, Type (0, 1), BuildingBlock: TEMPAE_clean_linker_10, # of connection points: 2
#     Edge 58, Type (0, 1), BuildingBlock: TEMPAE_clean_linker_10, # of connection points: 2
#     Edge 59, Type (0, 1), BuildingBlock: TEMPAE_clean_linker_10, # of connection points: 2
#     Edge 60, Type (0, 1), BuildingBlock: TEMPAE_clean_linker_10, # of connection points: 2
#     Edge 61, Type (0, 1), BuildingBlock: TEMPAE_clean_linker_10, # of connection points: 2
#     Edge 62, Type (0, 1), BuildingBlock: TEMPAE_clean_linker_10, # of connection points: 2
#     Edge 63, Type (0, 1), BuildingBlock: TEMPAE_clean_linker_10, # of connection points: 2
#     Edge 64, Type (0, 1), BuildingBlock: TEMPAE_clean_linker_10, # of connection points: 2
#     Edge 65, Type (0, 1), BuildingBlock: TEMPAE_clean_linker_10, # of connection points: 2
#     Edge 66, Type (0, 1), BuildingBlock: TEMPAE_clean_linker_10, # of connection points: 2
#     Edge 67, Type (0, 1), BuildingBlock: TEMPAE_clean_linker_10, # of connection points: 2
# Relax obj value: 0.292
# Max RMSD: 0.235
# Mean RMSD: 0.147
data_MOF--net-myd--node1-NAWXER_clean_sbu_0--node2-FUNLAD_clean_sbu_0--edge1-TEMPAE_clean_linker_10
_symmetry_space_group_name_H-M    P1
_symmetry_Int_Tables_number       1
_symmetry_cell_setting            triclinic
loop_
_symmetry_equiv_pos_as_xyz
'x, y, z'
_cell_length_a     46.22155
_cell_length_b     46.163471
_cell_length_c     50.845606
_cell_angle_alpha  83.59041
_cell_angle_beta   83.202784
_cell_angle_gamma 88.571422
loop_
_atom_site_label
_atom_site_type_symbol
_atom_site_fract_x
_atom_site_fract_y
_atom_site_fract_z
_atom_type_partial_charge
C0 C 0.0361 0.22056 0.3238 0.0
C1 C 0.03018 0.29531 0.38527 0.0
O2 O 0.05797 0.23289 0.33071 0.0
Zn3 Zn 0.0347 0.25665 0.35499 0.0
O4 O 0.01019 0.22791 0.33259 0.0
Zn5 Zn 0.98788 0.25599 0.35899 0.0
O6 O 0.96714 0.2815 0.33392 0.0
O7 O 0.01493 0.28543 0.32646 0.0
O8 O 1.0051 0.28642 0.38147 0.0
O9 O 0.05304 0.28336 0.37465 0.0
O10 O 0.0155 0.22214 0.38273 0.0
O11 O 0.9677 0.22591 0.38391 0.0
C12 C 0.98961 0.29297 0.32013 0.0
C13 C 0.99011 0.21182 0.39086 0.0
C14 C 0.049 0.77032 0.19512 0.0
C15 C 0.02503 0.70647 0.13143 0.0
O16 O 0.06692 0.75397 0.1825 0.0
Zn17 Zn 0.03768 0.73834 0.1638 0.0
O18 O 0.02174 0.76978 0.19286 0.0
Zn19 Zn 0.99254 0.74902 0.17152 0.0
O20 O 0.96889 0.72669 0.20114 0.0
O21 O 0.01428 0.71066 0.19591 0.0
O22 O 1.00223 0.71845 0.14279 0.0
O23 O 0.04996 0.71273 0.13714 0.0
O24 O 0.02432 0.77832 0.14205 0.0
O25 O 0.977 0.78408 0.15197 0.0
C26 C 0.9885 0.70872 0.20844 0.0
C27 C 1.00111 0.79378 0.13984 0.0
C28 C 0.35231 0.00641 0.19008 0.0
C29 C 0.28012 1.00103 0.27037 0.0
O30 O 0.34388 0.98311 0.20454 0.0
Zn31 Zn 0.31748 1.00164 0.2311 0.0
O32 O 0.34338 0.0311 0.19739 0.0
Zn33 Zn 0.31476 0.04876 0.22786 0.0
O34 O 0.3408 0.06951 0.24688 0.0
O35 O 0.34582 0.02173 0.25349 0.0
O36 O 0.28691 0.02695 0.26014 0.0
O37 O 0.29205 0.97942 0.25957 0.0
O38 O 0.28706 0.02109 0.20606 0.0
O39 O 0.28647 0.06894 0.20605 0.0
C40 C 0.35272 0.04715 0.25833 0.0
C41 C 0.27735 0.04622 0.19764 0.0
C42 C 0.73548 0.51312 0.18953 0.0
C43 C 0.66602 0.52006 0.26914 0.0
O44 O 0.72534 0.48829 0.2 0.0
Zn45 Zn 0.69458 0.47143 0.23311 0.0
O46 O 0.72663 0.53603 0.19992 0.0
Zn47 Zn 0.69977 0.51741 0.22857 0.0
O48 O 0.72853 0.4927 0.25288 0.0
O49 O 0.71814 0.44593 0.25481 0.0
O50 O 0.67883 0.54088 0.25409 0.0
O51 O 0.66988 0.49391 0.2631 0.0
O52 O 0.66552 0.45417 0.21619 0.0
O53 O 0.66644 0.50213 0.20789 0.0
C54 C 0.73314 0.46601 0.26152 0.0
C55 C 0.65568 0.47759 0.20474 0.0
C56 C 0.21771 0.36135 0.98033 0.0
C57 C 0.29206 0.28445 0.96915 0.0
O58 O 0.2289 0.35265 0.95848 0.0
Zn59 Zn 0.25777 0.32527 0.97276 0.0
O60 O 0.22877 0.35255 1.00182 0.0
Zn61 Zn 0.26271 0.32367 0.01411 0.0
O62 O 0.29392 0.34671 0.02403 0.0
O63 O 0.29324 0.35099 0.98056 0.0
O64 O 0.28752 0.29223 0.99271 0.0
O65 O 0.27925 0.29813 0.95053 0.0
O66 O 0.23086 0.29402 0.99929 0.0
O67 O 0.2397 0.2973 0.04072 0.0
C68 C 0.30515 0.35674 1.00087 0.0
C69 C 0.22611 0.28561 0.02431 0.0
C70 C 0.24426 0.74719 0.49716 0.0
C71 C 0.32266 0.67755 0.51937 0.0
O72 O 0.26156 0.74068 0.47698 0.0
Zn73 Zn 0.29854 0.71259 0.46814 0.0
O74 O 0.24795 0.73521 0.52037 0.0
Zn75 Zn 0.28229 0.71185 0.50958 0.0
O76 O 0.31292 0.74494 0.4946 0.0
O77 O 0.32816 0.7407 0.4523 0.0
O78 O 0.30342 0.68836 0.5356 0.0
O79 O 0.32256 0.68442 0.49426 0.0
O80 O 0.28213 0.68637 0.44664 0.0
O81 O 0.26293 0.6814 0.48874 0.0
C82 C 0.32884 0.75375 0.47298 0.0
C83 C 0.26403 0.67407 0.46507 0.0
C84 C 0.72326 0.85359 0.48204 0.0
C85 C 0.79538 0.77478 0.47512 0.0
O86 O 0.73479 0.84291 0.46127 0.0
Zn87 Zn 0.76034 0.81501 0.47816 0.0
O88 O 0.73183 0.84446 0.5047 0.0
Zn89 Zn 0.76256 0.81233 0.51969 0.0
O90 O 0.79202 0.83409 0.53322 0.0
O91 O 0.79421 0.84071 0.48942 0.0
O92 O 0.78935 0.78151 0.49895 0.0
O93 O 0.78312 0.78877 0.45639 0.0
O94 O 0.72976 0.78552 0.50244 0.0
O95 O 0.73767 0.78586 0.54439 0.0
C96 C 0.8043 0.84558 0.51094 0.0
C97 C 0.7236 0.7763 0.52719 0.0
C98 C 0.47974 0.80418 0.82164 0.0
C99 C 0.49356 0.71934 0.88548 0.0
O100 O 0.45975 0.7891 0.83583 0.0
Zn101 Zn 0.48517 0.76487 0.85706 0.0
O102 O 0.50645 0.79947 0.82545 0.0
Zn103 Zn 0.53137 0.76994 0.84997 0.0
O104 O 0.55479 0.75066 0.82258 0.0
O105 O 0.50741 0.74262 0.82587 0.0
O106 O 0.51743 0.73211 0.87595 0.0
O107 O 0.46945 0.73175 0.88112 0.0
O108 O 0.502 0.79488 0.88044 0.0
O109 O 0.54976 0.79538 0.87044 0.0
C110 C 0.53328 0.73871 0.8147 0.0
C111 C 0.52696 0.80482 0.88339 0.0
C112 C 0.48474 0.19501 0.71056 0.0
C113 C 0.49964 0.28108 0.64408 0.0
O114 O 0.46524 0.21269 0.70249 0.0
Zn115 Zn 0.49003 0.23502 0.67415 0.0
O116 O 0.51086 0.19686 0.69869 0.0
Zn117 Zn 0.53513 0.22485 0.66688 0.0
O118 O 0.56402 0.23945 0.68627 0.0
O119 O 0.51838 0.25283 0.69844 0.0
O120 O 0.52273 0.26552 0.64634 0.0
O121 O 0.47537 0.271 0.65537 0.0
O122 O 0.50025 0.20446 0.64545 0.0
O123 O 0.54806 0.19971 0.64019 0.0
C124 C 0.54556 0.25302 0.70115 0.0
C125 C 0.52339 0.1928 0.63437 0.0
C126 C 0.78556 0.53727 0.69086 0.0
C127 C 0.86012 0.54483 0.75137 0.0
O128 O 0.79301 0.56071 0.6992 0.0
Zn129 Zn 0.82292 0.54299 0.72047 0.0
O130 O 0.79731 0.51301 0.69898 0.0
Zn131 Zn 0.82933 0.49627 0.72373 0.0
O132 O 0.80513 0.47234 0.75245 0.0
O133 O 0.79701 0.51954 0.75285 0.0
O134 O 0.85606 0.51875 0.74627 0.0
O135 O 0.84611 0.56587 0.74014 0.0
O136 O 0.85302 0.52758 0.68963 0.0
O137 O 0.85709 0.47977 0.69672 0.0
C138 C 0.79196 0.49337 0.76327 0.0
C139 C 0.86375 0.50353 0.68219 0.0
C140 C 0.24894 0.02033 0.68514 0.0
C141 C 0.18731 0.03317 0.76816 0.0
O142 O 0.23529 0.99707 0.69527 0.0
Zn143 Zn 0.2051 0.98329 0.72983 0.0
O144 O 0.24561 0.04321 0.69702 0.0
Zn145 Zn 0.21801 0.02773 0.72641 0.0
O146 O 0.24378 0.99717 0.7487 0.0
O147 O 0.2259 0.95305 0.74959 0.0
O148 O 0.20266 0.05253 0.75344 0.0
O149 O 0.18665 0.00743 0.76115 0.0
O150 O 0.17106 0.97281 0.71524 0.0
O151 O 0.18068 0.01984 0.70729 0.0
C152 C 0.24448 0.96977 0.75636 0.0
C153 C 0.16484 0.99814 0.70479 0.0
C154 C 0.73769 0.18214 0.01644 0.0
C155 C 0.80752 0.25956 0.01568 0.0
O156 O 0.74224 0.1959 0.03585 0.0
Zn157 Zn 0.77315 0.21986 0.01715 0.0
O158 O 0.7537 0.18691 0.99401 0.0
Zn159 Zn 0.78856 0.21562 0.97645 0.0
O160 O 0.82171 0.19003 0.96828 0.0
O161 O 0.80941 0.19019 0.01157 0.0
O162 O 0.80906 0.24854 0.99354 0.0
O163 O 0.78891 0.24998 0.03492 0.0
O164 O 0.74932 0.24453 0.9885 0.0
O165 O 0.77011 0.2387 0.94801 0.0
C166 C 0.82615 0.1812 0.99209 0.0
C167 C 0.75003 0.2499 0.96319 0.0
C168 C 0.11249 0.04255 0.08741 0.0
N169 N 0.08464 0.05178 0.01136 0.0
C170 C 0.11223 0.06037 1.00189 0.0
C171 C 0.12293 0.05853 0.97535 0.0
C172 C 0.10502 0.048 0.95822 0.0
C173 C 0.07677 0.03882 0.96853 0.0
C174 C 0.06699 0.04081 0.99538 0.0
Zn175 Zn 0.06966 0.05949 0.04938 0.0
C176 C 0.03735 0.00771 0.08103 0.0
N177 N 0.04097 0.07702 0.12842 0.0
C178 C 0.0638 0.08571 0.14019 0.0
C179 C 0.01339 0.07651 0.1413 0.0
C180 C 0.00811 0.08534 0.16699 0.0
C181 C 0.03163 0.09398 0.17936 0.0
C182 C 0.05967 0.09384 0.16574 0.0
Zn183 Zn 0.05227 0.06729 0.09025 0.0
O184 O 0.11127 0.04617 0.06244 0.0
C185 C 0.08655 0.11785 0.05973 0.0
O186 O 0.08987 0.04721 0.10295 0.0
H187 H 0.9955 0.06988 0.13149 0.0
H188 H 0.12578 0.0695 0.01474 0.0
H189 H 0.08545 0.08716 0.12957 0.0
O190 O 0.08589 0.10287 0.04036 0.0
O191 O 0.0745 0.10797 0.08255 0.0
H192 H 0.0451 0.03421 0.0033 0.0
O193 O 0.01388 0.08751 0.07682 0.0
O194 O 0.02831 0.0739 0.03723 0.0
O195 O 0.03157 0.02607 0.09793 0.0
O196 O 0.05324 0.01555 0.0592 0.0
C197 C 0.0092 0.08586 0.05285 0.0
H198 H 0.1447 0.06617 0.96809 0.0
H199 H 0.0624 0.03033 0.95595 0.0
H200 H 0.98608 0.08569 0.17695 0.0
H201 H 0.07817 0.1012 0.17436 0.0
C202 C 0.91476 0.49401 0.06144 0.0
N203 N 0.95151 0.50592 0.98041 0.0
C204 C 0.92296 0.50623 0.97616 0.0
C205 C 0.9146 0.51548 0.95106 0.0
C206 C 0.93576 0.52374 0.92947 0.0
C207 C 0.96507 0.52397 0.93454 0.0
C208 C 0.97247 0.51511 0.96026 0.0
Zn209 Zn 0.96161 0.48686 0.0173 0.0
C210 C 0.99218 0.52593 0.04768 0.0
N211 N 0.97979 0.44337 0.09285 0.0
C212 C 0.95755 0.42598 0.10485 0.0
C213 C 1.00363 0.44714 0.10544 0.0
C214 C 0.00569 0.43289 0.13104 0.0
C215 C 0.98317 0.4144 0.14341 0.0
C216 C 0.95891 0.41112 0.13001 0.0
Zn217 Zn 0.97341 0.46414 0.05598 0.0
O218 O 0.92069 0.50234 0.03672 0.0
C219 C 0.94121 0.42559 0.02664 0.0
O220 O 0.93285 0.4778 0.07318 0.0
H221 H 0.02093 0.46128 0.09572 0.0
H222 H 0.90648 0.49837 0.99203 0.0
H223 H 0.93835 0.42374 0.09505 0.0
O224 O 0.94058 0.44858 0.01048 0.0
O225 O 0.95488 0.42565 0.04683 0.0
H226 H 0.99509 0.51461 0.96382 0.0
O227 O 0.01441 0.45101 0.03883 0.0
O228 O 1.00334 0.47037 0.99958 0.0
O229 O 0.99131 0.50303 0.06421 0.0
O230 O 0.98213 0.52534 0.02542 0.0
C231 C 0.02125 0.45652 0.01386 0.0
H232 H 0.89165 0.51557 0.94861 0.0
H233 H 0.98233 0.52985 0.91866 0.0
H234 H 0.02476 0.43591 0.14087 0.0
H235 H 0.94092 0.39743 0.13908 0.0
C236 C 0.02769 0.99882 0.42369 0.0
N237 N 0.05026 0.92212 0.38564 0.0
C238 C 0.02549 0.92255 0.37356 0.0
C239 C 0.02561 0.91029 0.34956 0.0
C240 C 0.05152 0.89786 0.33808 0.0
C241 C 0.07655 0.89781 0.35107 0.0
C242 C 0.07543 0.91003 0.37483 0.0
Zn243 Zn 0.05364 0.93933 0.42016 0.0
C244 C 0.10928 0.97309 0.41171 0.0
N245 N 0.06909 0.97367 0.49085 0.0
C246 C 0.04583 0.98043 0.50822 0.0
C247 C 0.09678 0.97484 0.49706 0.0
C248 C 0.10188 0.98183 0.52195 0.0
C249 C 0.07824 0.98652 0.54113 0.0
C250 C 0.0499 0.98665 0.53375 0.0
Zn251 Zn 0.06312 0.95746 0.45652 0.0
O252 O 0.0294 0.97887 0.40803 0.0
C253 C 0.00662 0.92301 0.46257 0.0
O254 O 0.0401 0.99496 0.44477 0.0
H255 H 0.11499 0.96917 0.48315 0.0
H256 H 0.00576 0.93233 0.38252 0.0
H257 H 0.02398 0.97976 0.50275 0.0
O258 O 0.01511 0.91938 0.43849 0.0
O259 O 0.02225 0.9378 0.47513 0.0
H260 H 0.09494 0.90978 0.38463 0.0
O261 O 0.08645 0.92017 0.46911 0.0
O262 O 0.07854 0.90059 0.4335 0.0
O263 O 0.10398 0.97661 0.4363 0.0
O264 O 0.09139 0.95915 0.40121 0.0
C265 C 0.09024 0.89914 0.45507 0.0
H266 H 0.00583 0.91064 0.34004 0.0
H267 H 0.09677 0.88787 0.34323 0.0
H268 H 0.12419 0.9825 0.52636 0.0
H269 H 0.03101 0.99015 0.54783 0.0
C270 C 0.92429 0.59923 0.44539 0.0
N271 N 0.01348 0.57516 0.44587 0.0
C272 C 0.02148 0.60226 0.43439 0.0
C273 C 0.04956 0.61223 0.43545 0.0
C274 C 0.0696 0.59408 0.44836 0.0
C275 C 0.06037 0.56668 0.46092 0.0
C276 C 0.03207 0.55763 0.45945 0.0
Zn277 Zn 0.97503 0.55828 0.43882 0.0
C278 C 0.94273 0.52663 0.48756 0.0
N279 N 0.897 0.52163 0.42123 0.0
C280 C 0.8789 0.538 0.40618 0.0
C281 C 0.89243 0.49266 0.42844 0.0
C282 C 0.87006 0.47863 0.41887 0.0
C283 C 0.85207 0.49473 0.40213 0.0
C284 C 0.85606 0.52494 0.39649 0.0
Zn285 Zn 0.93419 0.53965 0.42941 0.0
O286 O 0.95162 0.59775 0.44698 0.0
C287 C 0.96518 0.57375 0.38119 0.0
O288 O 0.91154 0.57747 0.43896 0.0
H289 H 0.90702 0.4801 0.44054 0.0
H290 H 0.00643 0.61576 0.42351 0.0
H291 H 0.88307 0.56094 0.40054 0.0
O292 O 0.98329 0.576 0.39782 0.0
O293 O 0.94241 0.55869 0.38869 0.0
H294 H 0.02529 0.53616 0.46842 0.0
O295 O 0.95719 0.50177 0.41956 0.0
O296 O 0.99762 0.51817 0.43057 0.0
O297 O 0.92589 0.52185 0.47044 0.0
O298 O 0.96572 0.54133 0.47984 0.0
C299 C 0.98393 0.49802 0.42241 0.0
H300 H 0.05585 0.63346 0.4254 0.0
H301 H 0.07499 0.55223 0.47147 0.0
H302 H 0.86754 0.4553 0.42368 0.0
H303 H 0.84287 0.53803 0.38331 0.0
C304 C 0.41848 0.98191 0.5527 0.0
N305 N 0.46016 1.00133 0.47458 0.0
C306 C 0.4332 0.99694 0.46764 0.0
C307 C 0.42492 0.00998 0.44363 0.0
C308 C 0.44434 0.02814 0.42628 0.0
C309 C 0.47209 0.03254 0.43389 0.0
C310 C 0.47959 0.01885 0.45831 0.0
Zn311 Zn 0.46868 0.97883 0.51027 0.0
C312 C 0.49537 0.01391 0.54534 0.0
N313 N 0.48102 0.92857 0.58432 0.0
C314 C 0.45722 0.91375 0.59679 0.0
C315 C 0.50536 0.93037 0.59674 0.0
C316 C 0.50593 0.91766 0.62304 0.0
C317 C 0.48103 0.90359 0.63662 0.0
C318 C 0.45666 0.90133 0.6231 0.0
Zn319 Zn 0.47627 0.9515 0.54804 0.0
O320 O 0.4258 0.99178 0.5285 0.0
C321 C 0.44903 0.91688 0.5125 0.0
O322 O 0.43577 0.96478 0.56441 0.0
H323 H 0.52395 0.94242 0.58657 0.0
H324 H 0.41804 0.98283 0.48061 0.0
H325 H 0.4381 0.91241 0.58666 0.0
O326 O 0.45111 0.9413 0.4983 0.0
O327 O 0.45791 0.91437 0.53537 0.0
H328 H 0.50095 0.02205 0.46414 0.0
O329 O 0.51697 0.9383 0.53155 0.0
O330 O 0.51206 0.96544 0.49375 0.0
O331 O 0.49434 0.9895 0.55987 0.0
O332 O 0.48622 0.01579 0.52259 0.0
C333 C 0.52709 0.94756 0.50786 0.0
H334 H 0.40362 1.00516 0.43846 0.0
H335 H 0.48778 0.04638 0.42118 0.0
H336 H 0.52512 0.91974 0.63298 0.0
H337 H 0.43721 0.89037 0.63293 0.0
C338 C 0.61533 0.52909 0.58861 0.0
N339 N 0.57961 0.53823 0.51575 0.0
C340 C 0.60677 0.54552 0.50384 0.0
C341 C 0.61446 0.54295 0.47685 0.0
C342 C 0.59405 0.53279 0.46179 0.0
C343 C 0.56629 0.52492 0.47465 0.0
C344 C 0.5595 0.5278 0.50182 0.0
Zn345 Zn 0.56923 0.54657 0.5545 0.0
C346 C 0.53819 0.49534 0.58905 0.0
N347 N 0.54788 0.56627 0.63443 0.0
C348 C 0.57207 0.57669 0.64297 0.0
C349 C 0.52117 0.56836 0.64868 0.0
C350 C 0.51801 0.583 0.67164 0.0
C351 C 0.54262 0.59539 0.67954 0.0
C352 C 0.56995 0.59096 0.66563 0.0
Zn353 Zn 0.55489 0.55484 0.59638 0.0
O354 O 0.61144 0.53016 0.56418 0.0
C355 C 0.58774 0.60503 0.56232 0.0
O356 O 0.59481 0.53683 0.60513 0.0
H357 H 0.50215 0.56038 0.6414 0.0
H358 H 0.62238 0.5541 0.51511 0.0
H359 H 0.59304 0.57611 0.63121 0.0
O360 O 0.58816 0.58804 0.54435 0.0
O361 O 0.57463 0.59708 0.58528 0.0
H362 H 0.538 0.52222 0.51166 0.0
O363 O 0.51427 0.57218 0.5874 0.0
O364 O 0.52713 0.56471 0.54562 0.0
O365 O 0.53626 0.51284 0.60692 0.0
O366 O 0.55039 0.50388 0.56569 0.0
C367 C 0.50838 0.5737 0.5635 0.0
H368 H 0.63595 0.5497 0.46771 0.0
H369 H 0.54999 0.5167 0.46384 0.0
H370 H 0.49651 0.58629 0.68198 0.0
H371 H 0.58936 0.60023 0.67122 0.0
C372 C 0.53591 0.5057 0.91365 0.0
N373 N 0.55511 0.43589 0.86622 0.0
C374 C 0.5294 0.42932 0.8578 0.0
C375 C 0.52943 0.41391 0.83556 0.0
C376 C 0.55619 0.40561 0.82215 0.0
C377 C 0.58204 0.41514 0.82976 0.0
C378 C 0.58107 0.42963 0.85219 0.0
Zn379 Zn 0.55868 0.44798 0.90312 0.0
C380 C 0.61662 0.47699 0.89986 0.0
N381 N 0.57604 0.46775 0.97862 0.0
C382 C 0.55425 0.48043 0.99396 0.0
C383 C 0.60202 0.46042 0.98769 0.0
C384 C 0.60665 0.46511 0.01341 0.0
C385 C 0.58442 0.47771 0.02992 0.0
C386 C 0.55803 0.48569 0.01983 0.0
Zn387 Zn 0.56938 0.45722 0.9422 0.0
O388 O 0.53447 0.48787 0.89641 0.0
C389 C 0.51074 0.42786 0.94428 0.0
O390 O 0.55002 0.49845 0.93342 0.0
H391 H 0.61898 0.45027 0.97518 0.0
H392 H 0.50901 0.43411 0.86935 0.0
H393 H 0.53375 0.48603 0.98629 0.0
O394 O 0.51974 0.42584 0.91991 0.0
O395 O 0.52669 0.44046 0.95827 0.0
H396 H 0.60149 0.43346 0.85938 0.0
O397 O 0.5889 0.41632 0.95091 0.0
O398 O 0.58421 0.40835 0.91012 0.0
O399 O 0.61243 0.47338 0.92519 0.0
O400 O 0.59643 0.47059 0.88691 0.0
C401 C 0.59423 0.40047 0.93208 0.0
H402 H 0.50901 0.40671 0.83019 0.0
H403 H 0.60305 0.40933 0.81973 0.0
H404 H 0.62716 0.45814 0.02051 0.0
H405 H 0.54045 0.49572 0.03183 0.0
C406 C 0.4133 0.10142 0.95203 0.0
N407 N 0.50153 0.07832 0.95981 0.0
C408 C 0.50743 0.10723 0.95429 0.0
C409 C 0.53187 0.11876 0.96302 0.0
C410 C 0.5508 0.10029 0.97717 0.0
C411 C 0.54418 0.07049 0.98226 0.0
C412 C 0.51924 0.06005 0.97372 0.0
Zn413 Zn 0.46515 0.06088 0.94851 0.0
C414 C 0.43007 0.02869 0.99615 0.0
N415 N 0.38937 0.02284 0.92745 0.0
C416 C 0.37305 0.03853 0.91024 0.0
C417 C 0.38444 0.994 0.93511 0.0
C418 C 0.3636 0.97938 0.92399 0.0
C419 C 0.34758 0.99473 0.90507 0.0
C420 C 0.35186 0.02486 0.89883 0.0
Zn421 Zn 0.42492 0.04155 0.93822 0.0
O422 O 0.44021 0.09977 0.95533 0.0
C423 C 0.45906 0.07509 0.89076 0.0
O424 O 0.40098 0.07945 0.94551 0.0
H425 H 0.39766 0.98197 0.94887 0.0
H426 H 0.49304 0.12145 0.9433 0.0
H427 H 0.37748 0.06137 0.90429 0.0
O428 O 0.47614 0.07897 0.90794 0.0
O429 O 0.43646 0.05969 0.89796 0.0
H430 H 0.51406 0.03722 0.97832 0.0
O431 O 0.44907 1.00392 0.93035 0.0
O432 O 0.4892 0.02152 0.94093 0.0
O433 O 0.41356 0.02422 0.97873 0.0
O434 O 0.45324 0.04319 0.98892 0.0
C435 C 0.47589 1.0009 0.93311 0.0
H436 H 0.53561 0.14197 0.95894 0.0
H437 H 0.55823 0.05513 0.99253 0.0
H438 H 0.3608 0.95617 0.92939 0.0
H439 H 0.34027 0.03742 0.88402 0.0
C440 C 0.01308 0.16655 0.41105 0.0
C441 C 0.98828 0.18065 0.40199 0.0
C442 C 0.0153 0.13602 0.41474 0.0
C443 C 0.99205 0.11893 0.40946 0.0
C444 C 0.96618 0.13296 0.40196 0.0
C445 C 0.96459 0.16366 0.3983 0.0
C446 C 0.04321 0.12208 0.42303 0.0
C447 C 0.94078 0.11559 0.39642 0.0
C448 C 0.0168 0.04302 0.39278 0.0
C449 C 0.01265 0.02711 0.41802 0.0
C450 C 0.00853 0.07269 0.38927 0.0
C451 C 0.99546 0.08648 0.41143 0.0
C452 C 0.98909 0.0697 0.43639 0.0
C453 C 0.998 0.04037 0.43941 0.0
C454 C 0.01574 0.08979 0.36231 0.0
C455 C 0.97475 0.08322 0.46042 0.0
H456 H 0.03152 0.17943 0.41393 0.0
H457 H 0.94549 0.17426 0.39094 0.0
H458 H 0.03844 0.10647 0.44118 0.0
H459 H 0.05379 0.10957 0.40702 0.0
H460 H 0.05888 0.13839 0.42715 0.0
H461 H 0.92101 0.1294 0.3942 0.0
H462 H 0.94669 0.10539 0.37773 0.0
H463 H 0.9355 0.09773 0.41266 0.0
H464 H 0.02837 0.03292 0.37628 0.0
H465 H 0.99466 0.02804 0.45896 0.0
H466 H 0.03405 0.10468 0.36307 0.0
H467 H 0.99684 0.10347 0.3569 0.0
H468 H 0.02212 0.0754 0.34643 0.0
H469 H 0.99041 0.09774 0.46728 0.0
H470 H 0.96751 0.0665 0.47721 0.0
H471 H 0.95565 0.09677 0.45525 0.0
C472 C 0.00888 0.33063 0.41613 0.0
C473 C 0.03175 0.32274 0.39755 0.0
C474 C 0.00586 0.3593 0.42289 0.0
C475 C 0.02571 0.38081 0.41016 0.0
C476 C 0.0501 0.37246 0.39292 0.0
C477 C 0.05301 0.34338 0.38705 0.0
C478 C 0.98003 0.36704 0.442 0.0
C479 C 0.07156 0.39467 0.37865 0.0
C480 C 0.98892 0.45453 0.39746 0.0
C481 C 0.99801 0.46978 0.41727 0.0
C482 C 0.99907 0.42616 0.39412 0.0
C483 C 0.01818 0.41228 0.41157 0.0
C484 C 0.02817 0.4279 0.43115 0.0
C485 C 0.01822 0.4567 0.43356 0.0
C486 C 0.98843 0.41068 0.37249 0.0
C487 C 0.04804 0.41372 0.45046 0.0
H488 H 0.99247 0.31469 0.42437 0.0
H489 H 0.07059 0.33748 0.37247 0.0
H490 H 0.98669 0.38142 0.45624 0.0
H491 H 0.96356 0.37912 0.4307 0.0
H492 H 0.96957 0.34735 0.45342 0.0
H493 H 0.09169 0.38422 0.36963 0.0
H494 H 0.0613 0.40778 0.3625 0.0
H495 H 0.07764 0.40992 0.3924 0.0
H496 H 0.97341 0.4647 0.38476 0.0
H497 H 0.02503 0.46838 0.44909 0.0
H498 H 0.97415 0.39241 0.38163 0.0
H499 H 0.00711 0.40126 0.36034 0.0
H500 H 0.97593 0.42544 0.35906 0.0
H501 H 0.03584 0.39682 0.46437 0.0
H502 H 0.05658 0.42971 0.46232 0.0
H503 H 0.06668 0.40262 0.43976 0.0
C504 C 0.03154 0.83727 0.12195 0.0
C505 C 1.00387 0.82445 0.12691 0.0
C506 C 0.03497 0.86708 0.11319 0.0
C507 C 0.0102 0.88476 0.10861 0.0
C508 C 0.98227 0.87181 0.1125 0.0
C509 C 0.97938 0.84191 0.12191 0.0
C510 C 0.06512 0.87988 0.1099 0.0
C511 C 0.95536 0.8897 0.10737 0.0
C512 C 0.01914 0.96577 0.11418 0.0
C513 C 0.0275 0.97693 0.08759 0.0
C514 C 0.01258 0.93608 0.12117 0.0
C515 C 0.01376 0.91698 0.10107 0.0
C516 C 0.02087 0.92839 0.07406 0.0
C517 C 0.02798 0.95808 0.06768 0.0
C518 C 0.0058 0.92489 0.15026 0.0
C519 C 0.02186 0.90903 0.05193 0.0
H520 H 0.05066 0.82424 0.126 0.0
H521 H 0.95792 0.83233 0.12572 0.0
H522 H 0.07031 0.89102 0.08946 0.0
H523 H 0.06597 0.89649 0.12397 0.0
H524 H 0.08223 0.86309 0.11363 0.0
H525 H 0.93567 0.87601 0.10894 0.0
H526 H 0.95148 0.90592 0.12197 0.0
H527 H 0.95848 0.90198 0.08721 0.0
H528 H 0.01885 0.98003 0.12976 0.0
H529 H 0.03422 0.96648 0.04707 0.0
H530 H 0.02334 0.90964 0.15634 0.0
H531 H 0.98517 0.91254 0.15359 0.0
H532 H 1.00389 0.94274 0.16333 0.0
H533 H 0.04034 0.89333 0.05325 0.0
H534 H 0.02454 0.92169 0.03191 0.0
H535 H 1.00161 0.89614 0.054 0.0
C536 C 0.9945 0.67221 0.11211 0.0
C537 C 0.02201 0.68364 0.11365 0.0
C538 C 0.99152 0.64807 0.09821 0.0
C539 C 0.01663 0.63522 0.08524 0.0
C540 C 0.04427 0.64769 0.08538 0.0
C541 C 0.04667 0.67166 0.09973 0.0
C542 C 0.96165 0.63532 0.0987 0.0
C543 C 0.07147 0.63491 0.07141 0.0
C544 C 0.0103 0.55423 0.08132 0.0
C545 C 1.00224 0.55358 0.05564 0.0
C546 C 0.01609 0.5806 0.09078 0.0
C547 C 0.01411 0.60706 0.07407 0.0
C548 C 0.00756 0.60649 0.04762 0.0
C549 C 1.00156 0.57973 0.03873 0.0
C550 C 0.02291 0.58023 0.11916 0.0
C551 C 0.00571 0.63422 0.02909 0.0
H552 H 0.97531 0.68132 0.12274 0.0
H553 H 0.06799 0.68051 0.10062 0.0
H554 H 0.95711 0.63258 0.07819 0.0
H555 H 0.96085 0.61338 0.11017 0.0
H556 H 0.94413 0.64912 0.10794 0.0
H557 H 0.09057 0.64931 0.0704 0.0
H558 H 0.07661 0.61354 0.08224 0.0
H559 H 0.06804 0.63099 0.05087 0.0
H560 H 0.01103 0.53416 0.09453 0.0
H561 H 0.99549 0.57944 0.01881 0.0
H562 H 1.00523 0.59162 0.13087 0.0
H563 H 0.04339 0.59205 0.11968 0.0
H564 H 0.02519 0.55772 0.12907 0.0
H565 H 0.98634 0.64715 0.0361 0.0
H566 H 1.00392 0.62983 0.00831 0.0
H567 H 0.02516 0.64781 0.02916 0.0
C568 C 0.37718 0.97965 0.15263 0.0
C569 C 0.36905 0.00588 0.16322 0.0
C570 C 0.3896 0.97963 0.12589 0.0
C571 C 0.39348 0.00639 0.10929 0.0
C572 C 0.38617 0.03287 0.12016 0.0
C573 C 0.37438 0.03229 0.14691 0.0
C574 C 0.39773 0.95097 0.11519 0.0
C575 C 0.38963 0.06193 0.10324 0.0
C576 C 0.44196 0.01811 0.04321 0.0
C577 C 0.42148 0.01898 0.02482 0.0
C578 C 0.4335 0.01193 0.07074 0.0
C579 C 0.40374 0.00715 0.0802 0.0
C580 C 0.38319 0.00679 0.06164 0.0
C581 C 0.39235 0.01242 0.0342 0.0
C582 C 0.45623 0.01191 0.08975 0.0
C583 C 0.35118 1.00227 0.0708 0.0
H584 H 0.37319 0.95914 0.16499 0.0
H585 H 0.36829 0.05276 0.15473 0.0
H586 H 0.38282 0.9467 0.10053 0.0
H587 H 0.42016 0.95185 0.1046 0.0
H588 H 0.39645 0.93245 0.13122 0.0
H589 H 0.38346 0.08059 0.11487 0.0
H590 H 0.41252 0.06472 0.09409 0.0
H591 H 0.37578 0.06271 0.08676 0.0
H592 H 0.46458 0.02285 0.03613 0.0
H593 H 0.37637 0.01306 0.02015 0.0
H594 H 0.45359 0.99272 0.10501 0.0
H595 H 0.45343 0.0317 0.10037 0.0
H596 H 0.47872 0.01167 0.07928 0.0
H597 H 0.34797 0.98246 0.08526 0.0
H598 H 0.33839 1.00012 0.05395 0.0
H599 H 0.34231 0.02107 0.08116 0.0
C600 C 0.62053 0.5022 0.17576 0.0
C601 C 0.63493 0.47664 0.18499 0.0
C602 C 0.60611 0.50339 0.15292 0.0
C603 C 0.60669 0.47859 0.13886 0.0
C604 C 0.61886 0.452 0.14948 0.0
C605 C 0.63266 0.45128 0.17263 0.0
C606 C 0.59252 0.53185 0.14264 0.0
C607 C 0.61994 0.42508 0.13501 0.0
C608 C 0.56642 0.47426 0.07866 0.0
C609 C 0.58867 0.48131 0.05779 0.0
C610 C 0.57142 0.47458 0.10532 0.0
C611 C 0.59942 0.48165 0.11108 0.0
C612 C 0.62154 0.48999 0.09007 0.0
C613 C 0.61578 0.48999 0.0637 0.0
C614 C 0.54716 0.4662 0.12723 0.0
C615 C 0.65173 0.49776 0.09541 0.0
H616 H 0.62181 0.52174 0.18556 0.0
H617 H 0.64363 0.43142 0.17978 0.0
H618 H 0.60728 0.54265 0.12579 0.0
H619 H 0.57152 0.5281 0.1351 0.0
H620 H 0.58869 0.54695 0.1583 0.0
H621 H 0.62668 0.40536 0.14752 0.0
H622 H 0.59839 0.42111 0.12864 0.0
H623 H 0.63579 0.42837 0.11678 0.0
H624 H 0.54544 0.46737 0.07425 0.0
H625 H 0.63281 0.49615 0.04763 0.0
H626 H 0.54596 0.48143 0.14275 0.0
H627 H 0.55157 0.44408 0.13698 0.0
H628 H 0.52566 0.46605 0.11952 0.0
H629 H 0.65047 0.51588 0.10811 0.0
H630 H 0.66623 0.50437 0.07678 0.0
H631 H 0.66186 0.47876 0.10638 0.0
C632 C 0.38138 0.07643 0.28534 0.0
C633 C 0.37204 0.04945 0.27941 0.0
C634 C 0.39708 0.07821 0.30727 0.0
C635 C 0.40285 0.05251 0.32395 0.0
C636 C 0.39435 0.0252 0.31742 0.0
C637 C 0.37942 0.02401 0.29517 0.0
C638 C 0.40654 0.10764 0.31309 0.0
C639 C 0.39962 0.99721 0.33476 0.0
C640 C 0.45501 0.04112 0.37658 0.0
C641 C 0.43557 0.04084 0.40003 0.0
C642 C 0.44521 0.04779 0.35138 0.0
C643 C 0.41523 0.05373 0.34961 0.0
C644 C 0.39608 0.05585 0.37321 0.0
C645 C 0.40656 0.04978 0.39805 0.0
C646 C 0.46655 0.04631 0.3267 0.0
C647 C 0.36392 0.06194 0.37239 0.0
H648 H 0.37595 0.09619 0.27321 0.0
H649 H 0.37243 1.00299 0.29085 0.0
H650 H 0.39202 0.11481 0.33018 0.0
H651 H 0.42906 0.10645 0.31868 0.0
H652 H 0.40558 0.12441 0.29574 0.0
H653 H 0.39234 0.9777 0.3265 0.0
H654 H 0.42313 0.9945 0.33704 0.0
H655 H 0.38775 0.99808 0.35495 0.0
H656 H 0.47749 0.03443 0.37778 0.0
H657 H 0.39156 0.0506 0.41603 0.0
H658 H 0.46232 0.06419 0.3111 0.0
H659 H 0.46397 0.02538 0.31848 0.0
H660 H 0.48945 0.04764 0.33105 0.0
H661 H 0.36041 0.0812 0.35799 0.0
H662 H 0.35256 0.06584 0.39222 0.0
H663 H 0.35371 0.04302 0.36558 0.0
C664 C 0.63351 0.502 0.31011 0.0
C665 C 0.64948 0.52491 0.2951 0.0
C666 C 0.62169 0.50416 0.33652 0.0
C667 C 0.62597 0.52984 0.34828 0.0
C668 C 0.6406 0.5537 0.3328 0.0
C669 C 0.65214 0.55098 0.30633 0.0
C670 C 0.60603 0.4783 0.35226 0.0
C671 C 0.64552 0.58148 0.34465 0.0
C672 C 0.58187 0.54073 0.41463 0.0
C673 C 0.6017 0.53119 0.43273 0.0
C674 C 0.58944 0.54057 0.38704 0.0
C675 C 0.6175 0.53062 0.37736 0.0
C676 C 0.63752 0.52076 0.39554 0.0
C677 C 0.62935 0.52111 0.42296 0.0
C678 C 0.56753 0.5512 0.36825 0.0
C679 C 0.66761 0.5098 0.38604 0.0
H680 H 0.63113 0.48184 0.30154 0.0
H681 H 0.66447 0.56877 0.2949 0.0
H682 H 0.61931 0.46862 0.3679 0.0
H683 H 0.58487 0.48525 0.36246 0.0
H684 H 0.60197 0.46115 0.33949 0.0
H685 H 0.65449 0.59902 0.32932 0.0
H686 H 0.62484 0.58939 0.355 0.0
H687 H 0.66105 0.57714 0.35972 0.0
H688 H 0.56061 0.54891 0.42199 0.0
H689 H 0.64465 0.51334 0.43684 0.0
H690 H 0.56315 0.53373 0.35599 0.0
H691 H 0.57651 0.56993 0.35436 0.0
H692 H 0.54657 0.55808 0.37897 0.0
H693 H 0.66591 0.49075 0.37482 0.0
H694 H 0.68072 0.50325 0.40274 0.0
H695 H 0.67951 0.52698 0.37221 0.0
C696 C 0.18178 0.39704 0.9604 0.0
C697 C 0.18989 0.37829 0.98204 0.0
C698 C 0.15482 0.41219 0.96224 0.0
C699 C 0.13515 0.40769 0.98592 0.0
C700 C 0.14317 0.38841 0.0076 0.0
C701 C 0.1705 0.37436 0.00553 0.0
C702 C 0.14746 0.43316 0.93897 0.0
C703 C 0.12272 0.38228 0.033 0.0
C704 C 0.07517 0.46053 0.00829 0.0
C705 C 0.05028 0.44724 1.00214 0.0
C706 C 0.10316 0.44911 1.00128 0.0
C707 C 0.10627 0.4232 0.98858 0.0
C708 C 0.08112 0.41036 0.98144 0.0
C709 C 0.0534 0.4227 0.98815 0.0
C710 C 0.12927 0.4639 0.00881 0.0
C711 C 0.08326 0.38244 0.96843 0.0
H712 H 0.19665 0.40014 0.94219 0.0
H713 H 0.17635 0.35952 0.02219 0.0
H714 H 0.1273 0.42623 0.9317 0.0
H715 H 0.14312 0.4552 0.94543 0.0
H716 H 0.16525 0.43467 0.92218 0.0
H717 H 0.13168 0.36566 0.0475 0.0
H718 H 0.11828 0.40262 0.04259 0.0
H719 H 0.10155 0.37447 0.02842 0.0
H720 H 0.07264 0.4794 0.01933 0.0
H721 H 0.03404 0.41221 0.98381 0.0
H722 H 0.14683 0.46605 0.99185 0.0
H723 H 0.13807 0.45044 0.0256 0.0
H724 H 0.12369 0.48588 0.01501 0.0
H725 H 0.10035 0.38407 0.95109 0.0
H726 H 0.06229 0.37692 0.96165 0.0
H727 H 0.08965 0.36426 0.98287 0.0
C728 C 0.22471 0.63821 0.48039 0.0
C729 C 0.24109 0.65477 0.45922 0.0
C730 C 0.19853 0.62536 0.47682 0.0
C731 C 0.1885 0.62909 0.45142 0.0
C732 C 0.20611 0.6437 0.42947 0.0
C733 C 0.23232 0.65639 0.43362 0.0
C734 C 0.18058 0.60972 0.50072 0.0
C735 C 0.19628 0.64782 0.40202 0.0
C736 C 0.12337 0.58374 0.44312 0.0
C737 C 0.10018 0.60332 0.44818 0.0
C738 C 0.15237 0.59204 0.44325 0.0
C739 C 0.15826 0.62054 0.44873 0.0
C740 C 0.13497 0.64056 0.4534 0.0
C741 C 0.10622 0.63172 0.453 0.0
C742 C 0.17663 0.57019 0.43799 0.0
C743 C 0.14035 0.67113 0.4595 0.0
H744 H 0.23155 0.6366 0.50018 0.0
H745 H 0.24484 0.66918 0.41718 0.0
H746 H 0.1608 0.62291 0.50611 0.0
H747 H 0.17323 0.58839 0.49603 0.0
H748 H 0.19285 0.60596 0.51833 0.0
H749 H 0.21418 0.65563 0.38649 0.0
H750 H 0.18787 0.62712 0.39687 0.0
H751 H 0.1782 0.66408 0.40169 0.0
H752 H 0.11884 0.5619 0.43891 0.0
H753 H 0.08838 0.64687 0.4571 0.0
H754 H 0.18791 0.56509 0.45607 0.0
H755 H 0.19307 0.57952 0.42178 0.0
H756 H 0.16854 0.54954 0.43237 0.0
H757 H 0.15041 0.67024 0.47834 0.0
H758 H 0.11998 0.68439 0.46154 0.0
H759 H 0.15585 0.68235 0.44349 0.0
C760 C 0.84028 0.88198 0.48724 0.0
C761 C 0.83214 0.86142 0.50914 0.0
C762 C 0.86839 0.89383 0.48286 0.0
C763 C 0.88923 0.88425 0.50036 0.0
C764 C 0.88075 0.86438 0.52314 0.0
C765 C 0.85219 0.85348 0.52744 0.0
C766 C 0.87618 0.91555 0.45873 0.0
C767 C 0.90236 0.85311 0.54201 0.0
C768 C 0.96711 0.88641 0.4664 0.0
C769 C 0.97797 0.9114 0.47495 0.0
C770 C 0.93879 0.87663 0.47557 0.0
C771 C 0.92044 0.89271 0.49317 0.0
C772 C 0.93154 0.91761 0.50241 0.0
C773 C 0.96033 0.92646 0.49344 0.0
C774 C 0.92823 0.84954 0.46573 0.0
C775 C 0.91256 0.93572 0.5207 0.0
H776 H 0.82484 0.88829 0.47309 0.0
H777 H 0.84615 0.83734 0.54425 0.0
H778 H 0.88738 0.93453 0.46436 0.0
H779 H 0.89145 0.90524 0.4439 0.0
H780 H 0.8567 0.92352 0.44908 0.0
H781 H 0.8917 0.84031 0.56022 0.0
H782 H 0.91871 0.8389 0.53175 0.0
H783 H 0.91431 0.87137 0.54801 0.0
H784 H 0.98072 0.87461 0.45222 0.0
H785 H 0.96854 0.94597 0.49989 0.0
H786 H 0.91077 0.85545 0.45282 0.0
H787 H 0.91877 0.83423 0.48278 0.0
H788 H 0.94597 0.83806 0.45413 0.0
H789 H 0.89477 0.94617 0.51002 0.0
H790 H 0.92502 0.95304 0.52774 0.0
H791 H 0.9022 0.92172 0.53827 0.0
C792 C 0.36403 0.66929 0.54682 0.0
C793 C 0.34687 0.65928 0.52885 0.0
C794 C 0.38994 0.6546 0.55267 0.0
C795 C 0.39829 0.62866 0.54105 0.0
C796 C 0.38016 0.61775 0.52389 0.0
C797 C 0.35505 0.63357 0.5175 0.0
C798 C 0.40906 0.66759 0.57032 0.0
C799 C 0.38754 0.58962 0.51191 0.0
C800 C 0.47849 0.60553 0.53363 0.0
C801 C 0.48006 0.58636 0.5568 0.0
C802 C 0.45209 0.61964 0.52837 0.0
C803 C 0.42641 0.6135 0.54618 0.0
C804 C 0.42777 0.59326 0.56911 0.0
C805 C 0.45468 0.58043 0.57442 0.0
C806 C 0.45188 0.64177 0.50417 0.0
C807 C 0.4008 0.58516 0.58805 0.0
H808 H 0.35799 0.6895 0.55516 0.0
H809 H 0.34183 0.62593 0.50348 0.0
H810 H 0.4127 0.65166 0.58764 0.0
H811 H 0.43071 0.67271 0.55904 0.0
H812 H 0.39949 0.68785 0.57781 0.0
H813 H 0.36976 0.58263 0.5012 0.0
H814 H 0.40763 0.59232 0.49766 0.0
H815 H 0.39189 0.57201 0.52772 0.0
H816 H 0.49817 0.61037 0.52014 0.0
H817 H 0.45585 0.56547 0.59231 0.0
H818 H 0.44402 0.66317 0.5104 0.0
H819 H 0.43662 0.63501 0.4908 0.0
H820 H 0.4738 0.64464 0.4927 0.0
H821 H 0.39216 0.60448 0.5977 0.0
H822 H 0.40515 0.56751 0.60386 0.0
H823 H 0.38352 0.57792 0.57693 0.0
C824 C 0.47029 0.67036 0.89873 0.0
C825 C 0.49492 0.68811 0.89623 0.0
C826 C 0.47291 0.63977 0.90301 0.0
C827 C 0.5008 0.6267 0.9046 0.0
C828 C 0.52544 0.64458 0.90351 0.0
C829 C 0.52216 0.67497 0.89956 0.0
C830 C 0.44605 0.62144 0.90462 0.0
C831 C 0.55559 0.63162 0.90524 0.0
C832 C 0.51448 0.54917 0.93396 0.0
C833 C 0.5224 0.53514 0.91101 0.0
C834 C 0.50541 0.57846 0.93219 0.0
C835 C 0.50478 0.59438 0.90682 0.0
C836 C 0.51131 0.57994 0.88356 0.0
C837 C 0.51981 0.55034 0.88595 0.0
C838 C 0.4981 0.59278 0.95748 0.0
C839 C 0.51113 0.59621 0.85612 0.0
H840 H 0.44917 0.68023 0.89606 0.0
H841 H 0.54134 0.68841 0.89776 0.0
H842 H 0.44704 0.60968 0.88666 0.0
H843 H 0.44504 0.60477 0.9222 0.0
H844 H 0.42572 0.63481 0.90595 0.0
H845 H 0.57239 0.64855 0.90468 0.0
H846 H 0.55594 0.61675 0.92391 0.0
H847 H 0.56165 0.61849 0.88837 0.0
H848 H 0.51611 0.53738 0.95342 0.0
H849 H 0.52597 0.53959 0.86819 0.0
H850 H 0.47756 0.60566 0.9568 0.0
H851 H 0.51563 0.60808 0.9595 0.0
H852 H 0.49576 0.57659 0.97547 0.0
H853 H 0.49039 0.60858 0.85467 0.0
H854 H 0.51401 0.58138 0.8402 0.0
H855 H 0.52904 0.61225 0.85242 0.0
C856 C 0.54919 0.85204 0.88921 0.0
C857 C 0.52816 0.83063 0.898 0.0
C858 C 0.54595 0.88004 0.8976 0.0
C859 C 0.52145 0.88645 0.91559 0.0
C860 C 0.50205 0.86389 0.92678 0.0
C861 C 0.50541 0.83633 0.91757 0.0
C862 C 0.56703 0.90346 0.88501 0.0
C863 C 0.47612 0.86956 0.94661 0.0
C864 C 0.5111 0.96007 0.94307 0.0
C865 C 0.49077 0.97341 0.92708 0.0
C866 C 0.52204 0.93189 0.93929 0.0
C867 C 0.51286 0.91729 0.91868 0.0
C868 C 0.49358 0.93155 0.90161 0.0
C869 C 0.48249 0.95921 0.90627 0.0
C870 C 0.54212 0.91723 0.95817 0.0
C871 C 0.48375 0.91716 0.87894 0.0
H872 H 0.56679 0.84777 0.874 0.0
H873 H 0.48928 0.81972 0.92463 0.0
H874 H 0.55676 0.91746 0.86941 0.0
H875 H 0.57244 0.91762 0.89994 0.0
H876 H 0.58754 0.89407 0.87558 0.0
H877 H 0.46636 0.84897 0.95689 0.0
H878 H 0.48242 0.88293 0.9618 0.0
H879 H 0.4592 0.88193 0.9361 0.0
H880 H 0.51728 0.97101 0.95932 0.0
H881 H 0.46692 0.96968 0.89378 0.0
H882 H 0.56095 0.90682 0.94708 0.0
H883 H 0.53016 0.89973 0.97155 0.0
H884 H 0.55036 0.93277 0.97063 0.0
H885 H 0.50287 0.90919 0.8663 0.0
H886 H 0.4708 0.93221 0.86616 0.0
H887 H 0.47016 0.89801 0.88703 0.0
C888 C 0.47807 0.33045 0.62964 0.0
C889 C 0.5025 0.312 0.63183 0.0
C890 C 0.48126 0.36053 0.62123 0.0
C891 C 0.50953 0.37259 0.61526 0.0
C892 C 0.53418 0.35392 0.61677 0.0
C893 C 0.53038 0.32399 0.62478 0.0
C894 C 0.45439 0.37954 0.61945 0.0
C895 C 0.56474 0.36571 0.61093 0.0
C896 C 0.52509 0.44691 0.57554 0.0
C897 C 0.52804 0.46467 0.59575 0.0
C898 C 0.5177 0.41728 0.58161 0.0
C899 C 0.51367 0.40482 0.60854 0.0
C900 C 0.51592 0.42282 0.62905 0.0
C901 C 0.52281 0.45249 0.62242 0.0
C902 C 0.51509 0.39909 0.55913 0.0
C903 C 0.51227 0.41046 0.65801 0.0
H904 H 0.45644 0.32154 0.63506 0.0
H905 H 0.54949 0.31014 0.62649 0.0
H906 H 0.45307 0.39499 0.63478 0.0
H907 H 0.45564 0.39273 0.59972 0.0
H908 H 0.43409 0.3666 0.62247 0.0
H909 H 0.58163 0.34823 0.61227 0.0
H910 H 0.56792 0.37773 0.59068 0.0
H911 H 0.56816 0.38138 0.62528 0.0
H912 H 0.52889 0.45609 0.55488 0.0
H913 H 0.52513 0.46592 0.63821 0.0
H914 H 0.49433 0.38694 0.56275 0.0
H915 H 0.53309 0.38275 0.55817 0.0
H916 H 0.51598 0.41253 0.53953 0.0
H917 H 0.49119 0.39903 0.66304 0.0
H918 H 0.51312 0.42756 0.67163 0.0
H919 H 0.52978 0.39415 0.66171 0.0
C920 C 0.54643 0.15631 0.60512 0.0
C921 C 0.52119 0.16936 0.61706 0.0
C922 C 0.54471 0.13181 0.59133 0.0
C923 C 0.51713 0.12002 0.58958 0.0
C924 C 0.49154 0.13374 0.60071 0.0
C925 C 0.49387 0.1583 0.61423 0.0
C926 C 0.57245 0.11794 0.57946 0.0
C927 C 0.4617 0.12181 0.59924 0.0
C928 C 0.50596 0.06728 0.53962 0.0
C929 C 0.50457 0.0405 0.55576 0.0
C930 C 0.51116 0.09328 0.5501 0.0
C931 C 0.51491 0.09247 0.57739 0.0
C932 C 0.51474 0.06538 0.59351 0.0
C933 C 0.50966 0.0397 0.58248 0.0
C934 C 0.51149 0.12171 0.53223 0.0
C935 C 0.51868 0.06364 0.62272 0.0
H936 H 0.56763 0.16477 0.60711 0.0
H937 H 0.47425 0.16821 0.62337 0.0
H938 H 0.57542 0.096 0.59021 0.0
H939 H 0.57111 0.11498 0.55829 0.0
H940 H 0.59195 0.13113 0.58062 0.0
H941 H 0.44392 0.13584 0.60775 0.0
H942 H 0.45859 0.11968 0.57824 0.0
H943 H 0.45974 0.0997 0.61031 0.0
H944 H 0.5022 0.06809 0.51891 0.0
H945 H 0.50865 0.01912 0.59509 0.0
H946 H 0.53126 0.13423 0.53385 0.0
H947 H 0.49234 0.13525 0.53866 0.0
H948 H 0.51088 0.11835 0.51101 0.0
H949 H 0.53893 0.07482 0.62535 0.0
H950 H 0.51971 0.04078 0.6321 0.0
H951 H 0.50024 0.075 0.63347 0.0
C952 C 0.89094 0.47825 0.6447 0.0
C953 C 0.88057 0.50395 0.65517 0.0
C954 C 0.90364 0.47877 0.61796 0.0
C955 C 0.90561 0.50552 0.60117 0.0
C956 C 0.89595 0.53156 0.6119 0.0
C957 C 0.88385 0.53048 0.63865 0.0
C958 C 0.91417 0.45059 0.60748 0.0
C959 C 0.8973 0.56057 0.59482 0.0
C960 C 0.95434 0.51883 0.53504 0.0
C961 C 0.93434 0.51743 0.51647 0.0
C962 C 0.94575 0.51321 0.56264 0.0
C963 C 0.9163 0.50655 0.57205 0.0
C964 C 0.89629 0.50402 0.55335 0.0
C965 C 0.90559 0.50923 0.52587 0.0
C966 C 0.96795 0.51561 0.58177 0.0
C967 C 0.86461 0.49739 0.56237 0.0
H968 H 0.88854 0.45763 0.65718 0.0
H969 H 0.87598 0.55055 0.64633 0.0
H970 H 0.90011 0.44503 0.59258 0.0
H971 H 0.93668 0.45302 0.59721 0.0
H972 H 0.91386 0.43218 0.62357 0.0
H973 H 0.88957 0.57893 0.60632 0.0
H974 H 0.91996 0.56501 0.58565 0.0
H975 H 0.88365 0.55997 0.57834 0.0
H976 H 0.97666 0.52492 0.52803 0.0
H977 H 0.88991 0.50812 0.51177 0.0
H978 H 0.96669 0.49653 0.59718 0.0
H979 H 0.96322 0.53536 0.5922 0.0
H980 H 0.99052 0.51711 0.57146 0.0
H981 H 0.86261 0.47764 0.577 0.0
H982 H 0.85232 0.49397 0.54549 0.0
H983 H 0.85427 0.51577 0.5725 0.0
C984 C 0.14463 0.02442 0.66579 0.0
C985 C 0.14193 1.00212 0.68696 0.0
C986 C 0.12749 0.02466 0.6449 0.0
C987 C 0.10669 1.00251 0.64575 0.0
C988 C 0.10116 0.9824 0.66882 0.0
C989 C 0.11936 0.982 0.68903 0.0
C990 C 0.13415 0.04643 0.62059 0.0
C991 C 0.07783 0.95969 0.67106 0.0
C992 C 0.06626 0.00786 0.58469 0.0
C993 C 0.08342 0.98928 0.56897 0.0
C994 C 0.07222 0.01106 0.61065 0.0
C995 C 0.0965 0.9962 0.62053 0.0
C996 C 0.11323 0.97672 0.60508 0.0
C997 C 0.10601 0.97301 0.57983 0.0
C998 C 0.05312 0.0311 0.62691 0.0
C999 C 0.13958 0.9606 0.61469 0.0
H1000 H 0.16189 0.04021 0.66431 0.0
H1001 H 0.11678 0.9652 0.7058 0.0
H1002 H 0.14511 0.03506 0.60395 0.0
H1003 H 0.11378 0.05645 0.61409 0.0
H1004 H 0.14861 0.06406 0.62427 0.0
H1005 H 0.07158 0.95072 0.69211 0.0
H1006 H 0.05815 0.96899 0.66251 0.0
H1007 H 0.08602 0.94143 0.65967 0.0
H1008 H 0.04863 0.02043 0.57658 0.0
H1009 H 0.11855 0.95758 0.56838 0.0
H1010 H 0.06232 0.05335 0.62348 0.0
H1011 H 0.05177 0.02374 0.64856 0.0
H1012 H 0.03073 0.03255 0.62092 0.0
H1013 H 0.15556 0.97637 0.61918 0.0
H1014 H 0.15066 0.94693 0.59977 0.0
H1015 H 0.13305 0.94627 0.63332 0.0
C1016 C 0.86876 0.56938 0.79121 0.0
C1017 C 0.87761 0.54901 0.77328 0.0
C1018 C 0.88056 0.56866 0.81559 0.0
C1019 C 0.90214 0.54746 0.8219 0.0
C1020 C 0.91284 0.52852 0.80279 0.0
C1021 C 0.90019 0.52926 0.77892 0.0
C1022 C 0.86816 0.58897 0.83547 0.0
C1023 C 0.93629 0.50606 0.80832 0.0
C1024 C 0.94218 0.5513 0.8831 0.0
C1025 C 0.92718 0.53054 0.90185 0.0
C1026 C 0.93434 0.55718 0.85703 0.0
C1027 C 0.91063 0.54237 0.84956 0.0
C1028 C 0.89523 0.52169 0.86842 0.0
C1029 C 0.90391 0.51578 0.89403 0.0
C1030 C 0.95163 0.579 0.83739 0.0
C1031 C 0.86965 0.50549 0.86147 0.0
H1032 H 0.85107 0.58445 0.78712 0.0
H1033 H 0.90717 0.51351 0.76509 0.0
H1034 H 0.85445 0.57637 0.85203 0.0
H1035 H 0.88584 0.59896 0.84422 0.0
H1036 H 0.85453 0.60661 0.82635 0.0
H1037 H 0.94528 0.49617 0.79009 0.0
H1038 H 0.95438 0.51596 0.81661 0.0
H1039 H 0.92711 0.48842 0.82338 0.0
H1040 H 0.95998 0.56313 0.88879 0.0
H1041 H 0.89257 0.49908 0.90782 0.0
H1042 H 0.93707 0.59678 0.83001 0.0
H1043 H 0.96126 0.56828 0.81986 0.0
H1044 H 0.96944 0.58873 0.84625 0.0
H1045 H 0.85322 0.52117 0.8538 0.0
H1046 H 0.8589 0.49139 0.87884 0.0
H1047 H 0.87703 0.49161 0.84545 0.0
C1048 C 0.17603 0.06473 0.80537 0.0
C1049 C 0.17181 0.0389 0.79428 0.0
C1050 C 0.16384 0.06843 0.83148 0.0
C1051 C 0.14719 0.04574 0.84672 0.0
C1052 C 0.14194 0.02016 0.83522 0.0
C1053 C 0.15421 0.01711 0.80917 0.0
C1054 C 0.16968 0.09611 0.8431 0.0
C1055 C 0.12435 0.99543 0.85082 0.0
C1056 C 0.14382 0.03694 0.92201 0.0
C1057 C 0.1157 0.04743 0.92962 0.0
C1058 C 0.15454 0.03685 0.89506 0.0
C1059 C 0.13675 0.04768 0.87524 0.0
C1060 C 0.10844 0.05859 0.88278 0.0
C1061 C 0.09819 0.05821 0.90993 0.0
C1062 C 0.18472 0.02466 0.88779 0.0
C1063 C 0.08894 0.07043 0.86218 0.0
H1064 H 0.18958 0.08166 0.794 0.0
H1065 H 0.15062 0.99712 0.80074 0.0
H1066 H 0.14898 0.10561 0.85193 0.0
H1067 H 0.18366 0.0911 0.85936 0.0
H1068 H 0.18074 0.11267 0.82795 0.0
H1069 H 0.12089 0.97772 0.83845 0.0
H1070 H 0.13577 0.98606 0.86788 0.0
H1071 H 0.10278 1.00356 0.85912 0.0
H1072 H 0.15732 0.0284 0.93721 0.0
H1073 H 0.0766 0.06674 0.91577 0.0
H1074 H 0.1981 0.0411 0.87439 0.0
H1075 H 0.18331 0.00538 0.8768 0.0
H1076 H 0.19616 0.01803 0.90558 0.0
H1077 H 0.10026 0.08786 0.84821 0.0
H1078 H 0.06808 0.07941 0.87132 0.0
H1079 H 0.08396 0.05288 0.85022 0.0
C1080 C 0.68779 0.88887 0.50264 0.0
C1081 C 0.69792 0.87393 0.48074 0.0
C1082 C 0.66134 0.90459 0.50341 0.0
C1083 C 0.6443 0.90501 0.48196 0.0
C1084 C 0.65525 0.89145 0.45911 0.0
C1085 C 0.68201 0.87624 0.4587 0.0
C1086 C 0.65076 0.91918 0.52798 0.0
C1087 C 0.63772 0.89113 0.43591 0.0
C1088 C 0.56323 0.9073 0.50442 0.0
C1089 C 0.55598 0.93656 0.49741 0.0
C1090 C 0.59154 0.89657 0.49825 0.0
C1091 C 0.61349 0.91576 0.48528 0.0
C1092 C 0.60609 0.94519 0.47728 0.0
C1093 C 0.57722 0.95522 0.48321 0.0
C1094 C 0.59817 0.86489 0.50662 0.0
C1095 C 0.62893 0.9664 0.46375 0.0
H1096 H 0.70006 0.88747 0.51965 0.0
H1097 H 0.68964 0.86478 0.44166 0.0
H1098 H 0.64267 0.94158 0.52235 0.0
H1099 H 0.63231 0.90674 0.5395 0.0
H1100 H 0.66814 0.92037 0.54114 0.0
H1101 H 0.6509 0.88352 0.41822 0.0
H1102 H 0.61898 0.8763 0.44182 0.0
H1103 H 0.62877 0.91315 0.43022 0.0
H1104 H 0.54673 0.89281 0.51528 0.0
H1105 H 0.57167 0.97793 0.47803 0.0
H1106 H 0.61298 0.86325 0.52238 0.0
H1107 H 0.60945 0.85451 0.48951 0.0
H1108 H 0.57818 0.85236 0.51444 0.0
H1109 H 0.64412 0.97073 0.47816 0.0
H1110 H 0.61919 0.98747 0.45612 0.0
H1111 H 0.64201 0.95702 0.44695 0.0
C1112 C 0.68485 0.17472 0.0308 0.0
C1113 C 0.71102 0.16496 0.01761 0.0
C1114 C 0.65805 0.16327 0.02681 0.0
C1115 C 0.65759 0.14103 0.00981 0.0
C1116 C 0.68417 0.12959 0.99811 0.0
C1117 C 0.71057 0.14204 1.00181 0.0
C1118 C 0.63022 0.17658 0.03913 0.0
C1119 C 0.68465 0.10529 0.98049 0.0
C1120 C 0.58783 0.09913 0.00995 0.0
C1121 C 0.57744 0.11174 0.98632 0.0
C1122 C 0.61384 0.1084 0.01789 0.0
C1123 C 0.62945 0.13149 1.00233 0.0
C1124 C 0.61863 0.1451 0.97905 0.0
C1125 C 0.59305 0.1348 0.97112 0.0
C1126 C 0.62492 0.0931 0.04264 0.0
C1127 C 0.63433 0.1703 0.96224 0.0
H1128 H 0.68512 0.19281 0.04265 0.0
H1129 H 0.73082 0.13454 0.99156 0.0
H1130 H 0.61932 0.18945 0.02326 0.0
H1131 H 0.6149 0.15937 0.04872 0.0
H1132 H 0.63427 0.19121 0.05419 0.0
H1133 H 0.707 0.09646 0.97569 0.0
H1134 H 0.67041 0.08725 0.99027 0.0
H1135 H 0.67604 0.11352 0.96155 0.0
H1136 H 0.5757 0.08186 0.02233 0.0
H1137 H 0.58569 0.14452 0.95265 0.0
H1138 H 0.62743 0.10897 0.05703 0.0
H1139 H 0.64677 0.08341 0.03738 0.0
H1140 H 0.61015 0.07553 0.05261 0.0
H1141 H 0.63811 0.1877 0.9748 0.0
H1142 H 0.62197 0.17982 0.94582 0.0
H1143 H 0.65597 0.16286 0.95342 0.0
C1144 C 0.35588 0.36164 0.01265 0.0
C1145 C 0.33402 0.3712 0.99664 0.0
C1146 C 0.38485 0.37115 0.00597 0.0
C1147 C 0.39203 0.39146 0.9832 0.0
C1148 C 0.36962 0.40244 0.96789 0.0
C1149 C 0.34109 0.39177 0.97448 0.0
C1150 C 0.40805 0.35818 0.02244 0.0
C1151 C 0.37596 0.4248 0.94399 0.0
C1152 C 0.4646 0.4316 0.97536 0.0
C1153 C 0.4812 0.4173 0.95563 0.0
C1154 C 0.43562 0.42351 0.98453 0.0
C1155 C 0.42315 0.3999 0.97439 0.0
C1156 C 0.44025 0.38476 0.95514 0.0
C1157 C 0.4688 0.39396 0.94567 0.0
C1158 C 0.41801 0.44087 0.00439 0.0
C1159 C 0.42831 0.35893 0.94433 0.0
H1160 H 0.35071 0.34534 0.02952 0.0
H1161 H 0.32433 0.39921 0.96199 0.0
H1162 H 0.4236 0.3451 0.0101 0.0
H1163 H 0.42065 0.37566 0.02896 0.0
H1164 H 0.39876 0.34391 0.04034 0.0
H1165 H 0.35573 0.43355 0.93604 0.0
H1166 H 0.38829 0.44321 0.9493 0.0
H1167 H 0.38973 0.41483 0.92794 0.0
H1168 H 0.47391 0.44989 0.98291 0.0
H1169 H 0.48152 0.38276 0.93049 0.0
H1170 H 0.4095 0.42632 0.02233 0.0
H1171 H 0.39891 0.45105 0.99549 0.0
H1172 H 0.43095 0.4583 0.01067 0.0
H1173 H 0.41971 0.34266 0.96098 0.0
H1174 H 0.44504 0.34814 0.93106 0.0
H1175 H 0.40991 0.36606 0.9329 0.0
C1176 C 0.85058 0.14228 0.02014 0.0
C1177 C 0.85211 0.16321 0.99783 0.0
C1178 C 0.87576 0.12764 0.02793 0.0
C1179 C 0.90333 0.13496 0.01372 0.0
C1180 C 0.90489 0.15574 0.99085 0.0
C1181 C 0.87919 0.16925 0.98292 0.0
C1182 C 0.87292 0.10493 0.05184 0.0
C1183 C 0.93383 0.16488 0.97559 0.0
C1184 C 0.96858 0.12274 0.0532 0.0
C1185 C 0.98202 0.09813 0.04301 0.0
C1186 C 0.94333 0.13523 0.04346 0.0
C1187 C 0.93057 0.12219 0.02371 0.0
C1188 C 0.94377 0.09696 0.01374 0.0
C1189 C 0.96963 0.08556 0.02316 0.0
C1190 C 0.93053 0.16261 0.0541 0.0
C1191 C 0.93039 0.0818 0.99339 0.0
H1192 H 0.82965 0.1376 0.0317 0.0
H1193 H 0.88049 0.18578 0.96593 0.0
H1194 H 0.88493 0.08472 0.047 0.0
H1195 H 0.88273 0.11306 0.06845 0.0
H1196 H 0.84982 0.09941 0.05882 0.0
H1197 H 0.93129 0.18043 0.95768 0.0
H1198 H 0.94695 0.17538 0.98874 0.0
H1199 H 0.94637 0.14556 0.96924 0.0
H1200 H 0.97824 0.13267 0.06837 0.0
H1201 H 0.97986 0.06641 0.01536 0.0
H1202 H 0.90822 0.15837 0.06426 0.0
H1203 H 0.9287 0.17996 0.03739 0.0
H1204 H 0.94386 0.17085 0.06842 0.0
H1205 H 0.90768 0.07555 1.00115 0.0
H1206 H 0.94284 0.06191 0.98825 0.0
H1207 H 0.92937 0.09681 0.97491 0.0
C1208 C 0.01869 0.1744 0.31163 0.0
C1209 C 0.03918 0.19684 0.30666 0.0
C1210 C 0.01697 0.15425 0.29333 0.0
C1211 C 0.0363 0.15661 0.26954 0.0
C1212 C 0.05827 0.17813 0.26517 0.0
C1213 C 0.05956 0.19805 0.28398 0.0
C1214 C 0.99361 0.13132 0.2989 0.0
C1215 C 0.07923 0.18121 0.23993 0.0
C1216 C 0.04491 0.09567 0.2251 0.0
C1217 C 0.02764 0.10615 0.20513 0.0
C1218 C 0.04711 0.11129 0.24685 0.0
C1219 C 0.03197 0.13816 0.24831 0.0
C1220 C 0.0132 0.14798 0.22895 0.0
C1221 C 0.01113 0.13169 0.2076 0.0
C1222 C 0.0668 0.09986 0.26743 0.0
C1223 C 0.99653 0.17646 0.23002 0.0
H1224 H 1.00323 0.17323 0.32951 0.0
H1225 H 0.07529 0.21549 0.2802 0.0
H1226 H 0.97956 0.13308 0.28254 0.0
H1227 H 1.00384 0.10929 0.2998 0.0
H1228 H 0.97956 0.13327 0.31793 0.0
H1229 H 0.09636 0.19752 0.2405 0.0
H1230 H 0.08988 0.15994 0.23651 0.0
H1231 H 0.06708 0.18808 0.22267 0.0
H1232 H 0.05777 0.07591 0.22298 0.0
H1233 H 0.99815 0.13994 0.19189 0.0
H1234 H 0.05522 0.10003 0.28781 0.0
H1235 H 0.08593 0.11425 0.26592 0.0
H1236 H 0.07474 0.07733 0.2648 0.0
H1237 H 0.98316 0.17676 0.24961 0.0
H1238 H 0.98196 0.18035 0.21407 0.0
H1239 H 0.01205 0.19477 0.22787 0.0
C1240 C 0.96084 0.32566 0.28936 0.0
C1241 C 0.98756 0.31359 0.29585 0.0
C1242 C 0.95929 0.34415 0.26556 0.0
C1243 C 0.98496 0.35023 0.24776 0.0
C1244 C 0.01199 0.33849 0.25449 0.0
C1245 C 0.01297 0.32055 0.27845 0.0
C1246 C 0.93014 0.35668 0.25919 0.0
C1247 C 0.03981 0.34402 0.23593 0.0
C1248 C 0.97934 0.36814 0.1739 0.0
C1249 C 0.98453 0.39819 0.17008 0.0
C1250 C 0.97901 0.35241 0.19915 0.0
C1251 C 0.98358 0.36716 0.22124 0.0
C1252 C 0.98864 0.39759 0.21755 0.0
C1253 C 0.98933 0.41273 0.1919 0.0
C1254 C 0.97421 0.3199 0.20209 0.0
C1255 C 0.99328 0.41409 0.24068 0.0
H1256 H 0.94116 0.32053 0.30274 0.0
H1257 H 0.03377 0.31131 0.28318 0.0
H1258 H 0.93161 0.38065 0.25416 0.0
H1259 H 0.92379 0.34748 0.24149 0.0
H1260 H 0.91271 0.35189 0.27603 0.0
H1261 H 0.05922 0.33416 0.24459 0.0
H1262 H 0.03808 0.3348 0.21694 0.0
H1263 H 0.04332 0.36778 0.23103 0.0
H1264 H 0.97575 0.35689 0.15697 0.0
H1265 H 0.99297 0.43604 0.18897 0.0
H1266 H 0.95514 0.31414 0.21699 0.0
H1267 H 0.99345 0.30828 0.20949 0.0
H1268 H 0.97049 0.31185 0.18299 0.0
H1269 H 0.97476 0.41043 0.25663 0.0
H1270 H 0.99548 0.4379 0.23472 0.0
H1271 H 0.01325 0.40588 0.24933 0.0
C1272 C 0.07395 0.78405 0.23255 0.0
C1273 C 0.05865 0.79214 0.21075 0.0
C1274 C 0.07621 0.80364 0.25142 0.0
C1275 C 0.06299 0.83166 0.24797 0.0
C1276 C 0.04991 0.84063 0.22461 0.0
C1277 C 0.04775 0.82061 0.20631 0.0
C1278 C 0.09053 0.79351 0.27607 0.0
C1279 C 0.03594 0.87041 0.21999 0.0
C1280 C 0.03135 0.86348 0.31069 0.0
C1281 C 0.05273 0.88349 0.31345 0.0
C1282 C 0.03438 0.84666 0.28923 0.0
C1283 C 0.05937 0.85006 0.27017 0.0
C1284 C 0.0805 0.87099 0.27232 0.0
C1285 C 0.07688 0.88754 0.29395 0.0
C1286 C 0.01121 0.82471 0.28735 0.0
C1287 C 0.10722 0.87535 0.25219 0.0
H1288 H 0.08214 0.76189 0.23588 0.0
H1289 H 0.03605 0.82669 0.18919 0.0
H1290 H 0.10537 0.81041 0.28043 0.0
H1291 H 0.07355 0.78984 0.29342 0.0
H1292 H 0.10308 0.77288 0.27405 0.0
H1293 H 0.03041 0.87528 0.19927 0.0
H1294 H 0.01559 0.87149 0.23384 0.0
H1295 H 0.05055 0.88762 0.22413 0.0
H1296 H 0.01286 0.86011 0.32589 0.0
H1297 H 0.09327 0.90331 0.29594 0.0
H1298 H 0.0209 0.80244 0.28829 0.0
H1299 H 1.0023 0.8291 0.26795 0.0
H1300 H 0.99293 0.82513 0.30359 0.0
H1301 H 0.12061 0.85505 0.2526 0.0
H1302 H 0.12091 0.89347 0.25612 0.0
H1303 H 0.1008 0.87999 0.23179 0.0
C1304 C 1.0007 0.66178 0.23499 0.0
C1305 C 0.98262 0.68657 0.23207 0.0
C1306 C 0.99719 0.64175 0.25811 0.0
C1307 C 0.9755 0.64685 0.27927 0.0
C1308 C 0.95681 0.67156 0.27625 0.0
C1309 C 0.96037 0.69092 0.25261 0.0
C1310 C 0.0172 0.61544 0.26011 0.0
C1311 C 0.93373 0.67818 0.29842 0.0
C1312 C 0.95223 0.58549 0.33429 0.0
C1313 C 0.96915 0.59093 0.35437 0.0
C1314 C 0.95439 0.60312 0.30963 0.0
C1315 C 0.97345 0.62723 0.30505 0.0
C1316 C 0.99068 0.63271 0.32521 0.0
C1317 C 0.98853 0.61439 0.34942 0.0
C1318 C 0.93611 0.59606 0.28853 0.0
C1319 C 0.01098 0.65835 0.32146 0.0
H1320 H 0.01784 0.65811 0.21919 0.0
H1321 H 0.94645 0.7101 0.25065 0.0
H1322 H 0.03138 0.61709 0.27601 0.0
H1323 H 1.00427 0.59529 0.26569 0.0
H1324 H 0.03128 0.61327 0.24114 0.0
H1325 H 0.92027 0.69761 0.29267 0.0
H1326 H 0.91918 0.65924 0.30432 0.0
H1327 H 0.94422 0.68213 0.31622 0.0
H1328 H 0.93716 0.56747 0.33789 0.0
H1329 H 1.0015 0.61905 0.36484 0.0
H1330 H 0.95028 0.59329 0.26976 0.0
H1331 H 0.92084 0.61439 0.28411 0.0
H1332 H 0.92329 0.5759 0.2947 0.0
H1333 H 0.02736 0.65661 0.3039 0.0
H1334 H 0.02263 0.65985 0.33915 0.0
H1335 H 0.99848 0.6789 0.31753 0.0
C1336 C 0.23735 0.07124 0.1736 0.0
C1337 C 0.25672 0.04772 0.17732 0.0
C1338 C 0.21611 0.0707 0.15593 0.0
C1339 C 0.21456 0.04622 0.14156 0.0
C1340 C 0.23521 0.02332 0.14413 0.0
C1341 C 0.25588 0.02428 0.16202 0.0
C1342 C 0.19446 0.0956 0.15361 0.0
C1343 C 0.2346 0.99703 0.12897 0.0
C1344 C 0.13974 0.02699 0.12582 0.0
C1345 C 0.14032 0.03829 0.099 0.0
C1346 C 0.16393 0.02905 0.13965 0.0
C1347 C 0.18943 0.04283 0.12637 0.0
C1348 C 0.19071 0.05304 0.0989 0.0
C1349 C 0.16608 0.05058 0.08548 0.0
C1350 C 0.16172 0.01749 0.16881 0.0
C1351 C 0.21755 0.06777 0.08405 0.0
H1352 H 0.23804 0.08946 0.18522 0.0
H1353 H 0.2712 0.00626 0.16433 0.0
H1354 H 0.19309 0.10346 0.13235 0.0
H1355 H 0.17248 0.08792 0.16236 0.0
H1356 H 0.20024 0.11418 0.16403 0.0
H1357 H 0.25408 0.98271 0.13092 0.0
H1358 H 0.21488 0.98407 0.13662 0.0
H1359 H 0.23338 1.00392 0.10752 0.0
H1360 H 0.1198 0.01758 0.13637 0.0
H1361 H 0.16642 0.05986 0.06489 0.0
H1362 H 0.1642 0.03562 0.18094 0.0
H1363 H 0.17956 1.00152 0.17234 0.0
H1364 H 0.14058 0.00673 0.17598 0.0
H1365 H 0.22033 0.089 0.0917 0.0
H1366 H 0.21617 0.07178 0.06228 0.0
H1367 H 0.23729 0.05435 0.08742 0.0
C1368 C 0.77395 0.54014 0.1576 0.0
C1369 C 0.75825 0.51451 0.16623 0.0
C1370 C 0.79767 0.54049 0.13747 0.0
C1371 C 0.80579 0.51465 0.12568 0.0
C1372 C 0.78888 0.48927 0.13319 0.0
C1373 C 0.76541 0.48949 0.15337 0.0
C1374 C 0.81508 0.56801 0.13 0.0
C1375 C 0.79665 0.46126 0.12108 0.0
C1376 C 0.86278 0.5127 0.06498 0.0
C1377 C 0.8873 0.50234 0.07714 0.0
C1378 C 0.83615 0.51784 0.08048 0.0
C1379 C 0.8342 0.51264 0.10867 0.0
C1380 C 0.85927 0.50337 0.12093 0.0
C1381 C 0.88536 0.49832 0.10507 0.0
C1382 C 0.80989 0.52777 0.06672 0.0
C1383 C 0.85833 0.49771 0.15088 0.0
H1384 H 0.76848 0.55964 0.16727 0.0
H1385 H 0.75319 0.46968 0.15962 0.0
H1386 H 0.83631 0.56521 0.13818 0.0
H1387 H 0.81976 0.57251 0.10803 0.0
H1388 H 0.80359 0.58721 0.1379 0.0
H1389 H 0.77942 0.4446 0.12667 0.0
H1390 H 0.80033 0.46542 0.09904 0.0
H1391 H 0.81724 0.45215 0.12799 0.0
H1392 H 0.86414 0.51586 0.04343 0.0
H1393 H 0.90427 0.49067 0.1147 0.0
H1394 H 0.79917 0.54673 0.07564 0.0
H1395 H 0.79373 0.50998 0.06955 0.0
H1396 H 0.81565 0.53386 0.045 0.0
H1397 H 0.84962 0.51713 0.16034 0.0
H1398 H 0.88015 0.4922 0.15729 0.0
H1399 H 0.84349 0.47935 0.1585 0.0
C1400 C 0.24907 0.02143 0.30788 0.0
C1401 C 0.25841 0.99714 0.29456 0.0
C1402 C 0.22721 0.0191 0.32965 0.0
C1403 C 0.21409 0.99183 0.33841 0.0
C1404 C 0.22423 0.96694 0.32583 0.0
C1405 C 0.24631 0.96987 0.3041 0.0
C1406 C 0.2172 0.04618 0.34244 0.0
C1407 C 0.21081 0.93745 0.33456 0.0
C1408 C 0.16357 0.98047 0.40401 0.0
C1409 C 0.13617 0.98314 0.39471 0.0
C1410 C 0.18933 0.98382 0.38604 0.0
C1411 C 0.18745 0.99012 0.3583 0.0
C1412 C 0.15975 0.99434 0.34916 0.0
C1413 C 0.13459 0.99074 0.36741 0.0
C1414 C 0.21845 0.97928 0.39657 0.0
C1415 C 0.15656 1.00147 0.3199 0.0
H1416 H 0.25848 0.04258 0.30098 0.0
H1417 H 0.25346 0.95096 0.29409 0.0
H1418 H 0.19488 0.05231 0.3377 0.0
H1419 H 0.21621 0.04202 0.36443 0.0
H1420 H 0.23175 0.06495 0.33538 0.0
H1421 H 0.22296 0.91981 0.32464 0.0
H1422 H 0.21014 0.93223 0.35646 0.0
H1423 H 0.188 0.93779 0.32974 0.0
H1424 H 0.16489 0.97414 0.42503 0.0
H1425 H 0.11341 0.99282 0.36014 0.0
H1426 H 0.23317 0.99762 0.38857 0.0
H1427 H 0.22893 0.9591 0.3898 0.0
H1428 H 0.21637 0.9773 0.41869 0.0
H1429 H 0.16915 0.02123 0.31163 0.0
H1430 H 0.13348 0.00526 0.31621 0.0
H1431 H 0.16553 0.98327 0.30877 0.0
C1432 C 0.7772 0.47845 0.28086 0.0
C1433 C 0.7537 0.4598 0.28144 0.0
C1434 C 0.79338 0.47753 0.30249 0.0
C1435 C 0.78554 0.45768 0.32539 0.0
C1436 C 0.76319 0.43728 0.32532 0.0
C1437 C 0.74752 0.43849 0.30315 0.0
C1438 C 0.81749 0.49928 0.30151 0.0
C1439 C 0.7543 0.41575 0.34931 0.0
C1440 C 0.842 0.45689 0.37321 0.0
C1441 C 0.83183 0.47999 0.38767 0.0
C1442 C 0.82575 0.44721 0.35435 0.0
C1443 C 0.79878 0.46098 0.35005 0.0
C1444 C 0.7871 0.4822 0.36659 0.0
C1445 C 0.80391 0.49161 0.38512 0.0
C1446 C 0.83879 0.42434 0.33731 0.0
C1447 C 0.75806 0.49694 0.36302 0.0
H1448 H 0.7821 0.49476 0.26393 0.0
H1449 H 0.72918 0.42417 0.30364 0.0
H1450 H 0.81093 0.51541 0.31579 0.0
H1451 H 0.83762 0.48813 0.30749 0.0
H1452 H 0.82262 0.51123 0.28135 0.0
H1453 H 0.74125 0.39775 0.34416 0.0
H1454 H 0.77365 0.40633 0.3583 0.0
H1455 H 0.74087 0.42715 0.36464 0.0
H1456 H 0.86365 0.4479 0.3751 0.0
H1457 H 0.79589 0.50917 0.39661 0.0
H1458 H 0.8481 0.43511 0.31763 0.0
H1459 H 0.82191 0.40901 0.33377 0.0
H1460 H 0.85647 0.41172 0.34656 0.0
H1461 H 0.7602 0.51211 0.34438 0.0
H1462 H 0.75019 0.50959 0.37987 0.0
H1463 H 0.74138 0.48065 0.36118 0.0
C1464 C 0.17959 0.26547 0.04892 0.0
C1465 C 0.20601 0.26124 0.03322 0.0
C1466 C 0.1588 0.24314 0.05446 0.0
C1467 C 0.16503 0.2158 0.04463 0.0
C1468 C 0.19226 0.21126 0.02956 0.0
C1469 C 0.21216 0.23422 0.02364 0.0
C1470 C 0.12979 0.24913 0.06998 0.0
C1471 C 0.20024 0.18228 0.01935 0.0
C1472 C 0.12226 0.1488 0.07635 0.0
C1473 C 0.10447 0.14438 0.05667 0.0
C1474 C 0.1419 0.17204 0.07283 0.0
C1475 C 0.143 0.19205 0.04949 0.0
C1476 C 0.12416 0.18832 0.03005 0.0
C1477 C 0.10558 0.16414 0.0336 0.0
C1478 C 0.16236 0.17439 0.09353 0.0
C1479 C 0.124 0.20959 0.00526 0.0
H1480 H 0.17473 0.28661 0.05589 0.0
H1481 H 0.2326 0.23113 0.01135 0.0
H1482 H 0.11203 0.24678 0.05749 0.0
H1483 H 0.12588 0.23297 0.08784 0.0
H1484 H 0.12845 0.27136 0.07649 0.0
H1485 H 0.22309 0.18164 0.00974 0.0
H1486 H 0.19737 0.16445 0.03596 0.0
H1487 H 0.18555 0.17782 0.00458 0.0
H1488 H 0.12178 0.13321 0.09402 0.0
H1489 H 0.09184 0.16071 0.01838 0.0
H1490 H 0.16014 0.19616 0.10088 0.0
H1491 H 0.18522 0.17211 0.08441 0.0
H1492 H 0.15833 0.15743 0.11081 0.0
H1493 H 0.12161 0.23224 0.01066 0.0
H1494 H 0.1061 0.20531 0.99348 0.0
H1495 H 0.14502 0.20816 0.99245 0.0
C1496 C 0.22366 0.78987 0.47069 0.0
C1497 C 0.22033 0.76857 0.49275 0.0
C1498 C 0.20123 0.80992 0.46527 0.0
C1499 C 0.17438 0.80828 0.48194 0.0
C1500 C 0.17072 0.7866 0.50411 0.0
C1501 C 0.1939 0.76723 0.50948 0.0
C1502 C 0.20646 0.83313 0.44187 0.0
C1503 C 0.14225 0.78376 0.52203 0.0
C1504 C 0.12911 0.87816 0.482 0.0
C1505 C 0.11 0.87463 0.46308 0.0
C1506 C 0.14963 0.85651 0.48871 0.0
C1507 C 0.15083 0.83023 0.47668 0.0
C1508 C 0.1309 0.82602 0.45829 0.0
C1509 C 0.11095 0.84842 0.45145 0.0
C1510 C 0.17084 0.8623 0.50791 0.0
C1511 C 0.13107 0.79808 0.44544 0.0
H1512 H 0.2441 0.79111 0.45775 0.0
H1513 H 0.19109 0.7506 0.52637 0.0
H1514 H 0.19026 0.8313 0.42772 0.0
H1515 H 0.2036 0.85506 0.44886 0.0
H1516 H 0.22865 0.83157 0.43099 0.0
H1517 H 0.14242 0.76498 0.53772 0.0
H1518 H 0.13759 0.80395 0.5318 0.0
H1519 H 0.12415 0.781 0.51004 0.0
H1520 H 0.12874 0.8984 0.49101 0.0
H1521 H 0.0962 0.84546 0.43692 0.0
H1522 H 0.19337 0.86265 0.49754 0.0
H1523 H 0.17 0.84459 0.5246 0.0
H1524 H 0.16634 0.88339 0.51629 0.0
H1525 H 0.15162 0.79621 0.43203 0.0
H1526 H 0.11246 0.79701 0.43363 0.0
H1527 H 0.13022 0.77902 0.46087 0.0
C1528 C 0.82587 0.74446 0.44399 0.0
C1529 C 0.81639 0.7507 0.47001 0.0
C1530 C 0.84534 0.7212 0.43933 0.0
C1531 C 0.85532 0.70366 0.46121 0.0
C1532 C 0.84624 0.7102 0.48746 0.0
C1533 C 0.827 0.73365 0.49153 0.0
C1534 C 0.85472 0.71497 0.41103 0.0
C1535 C 0.85613 0.69187 0.51135 0.0
C1536 C 0.87657 0.62515 0.45274 0.0
C1537 C 0.90712 0.62605 0.45013 0.0
C1538 C 0.85958 0.65028 0.45622 0.0
C1539 C 0.87341 0.67713 0.4569 0.0
C1540 C 0.90424 0.67829 0.45427 0.0
C1541 C 0.92077 0.65265 0.45105 0.0
C1542 C 0.82676 0.64801 0.4593 0.0
C1543 C 0.9197 0.7066 0.45476 0.0
H1544 H 0.81795 0.75764 0.42725 0.0
H1545 H 0.81987 0.73829 0.51173 0.0
H1546 H 0.87884 0.71363 0.40736 0.0
H1547 H 0.84619 0.69355 0.40781 0.0
H1548 H 0.84679 0.7319 0.39619 0.0
H1549 H 0.84833 0.70079 0.53037 0.0
H1550 H 0.84785 0.66937 0.51235 0.0
H1551 H 0.88026 0.69036 0.50942 0.0
H1552 H 0.86581 0.60468 0.45213 0.0
H1553 H 0.94436 0.65354 0.44885 0.0
H1554 H 0.81767 0.66278 0.4435 0.0
H1555 H 0.81746 0.65501 0.47875 0.0
H1556 H 0.81944 0.62549 0.45818 0.0
H1557 H 0.9131 0.72301 0.43884 0.0
H1558 H 0.94378 0.70396 0.45191 0.0
H1559 H 0.9133 0.71544 0.47404 0.0
C1560 C 0.37549 0.78081 0.45896 0.0
C1561 C 0.34755 0.77909 0.47306 0.0
C1562 C 0.39457 0.80301 0.46243 0.0
C1563 C 0.38512 0.82402 0.48002 0.0
C1564 C 0.35637 0.82309 0.49317 0.0
C1565 C 0.33806 0.80053 0.48968 0.0
C1566 C 0.42516 0.80326 0.44826 0.0
C1567 C 0.34518 0.84538 0.51166 0.0
C1568 C 0.43538 0.86426 0.5167 0.0
C1569 C 0.43539 0.89216 0.50265 0.0
C1570 C 0.42063 0.84127 0.50847 0.0
C1571 C 0.40527 0.84643 0.48584 0.0
C1572 C 0.40628 0.8742 0.47092 0.0
C1573 C 0.42142 0.89671 0.47943 0.0
C1574 C 0.4203 0.81182 0.52474 0.0
C1575 C 0.38997 0.88065 0.44684 0.0
H1576 H 0.38287 0.76408 0.44627 0.0
H1577 H 0.31631 0.79934 0.50039 0.0
H1578 H 0.43044 0.82519 0.43777 0.0
H1579 H 0.44089 0.7983 0.46308 0.0
H1580 H 0.42834 0.787 0.4336 0.0
H1581 H 0.3217 0.84258 0.51901 0.0
H1582 H 0.3577 0.84353 0.52911 0.0
H1583 H 0.34834 0.86774 0.50133 0.0
H1584 H 0.44639 0.86051 0.53448 0.0
H1585 H 0.42142 0.91818 0.46836 0.0
H1586 H 0.42553 0.79433 0.51158 0.0
H1587 H 0.39816 0.80759 0.53533 0.0
H1588 H 0.43605 0.8104 0.53975 0.0
H1589 H 0.39453 0.86356 0.43317 0.0
H1590 H 0.39572 0.90219 0.43565 0.0
H1591 H 0.36618 0.88058 0.45333 0.0
C1592 C 0.51389 0.71695 0.77829 0.0
C1593 C 0.53703 0.71948 0.79337 0.0
C1594 C 0.51479 0.69639 0.76005 0.0
C1595 C 0.53935 0.67772 0.75698 0.0
C1596 C 0.5631 0.6805 0.77175 0.0
C1597 C 0.56175 0.70161 0.78975 0.0
C1598 C 0.4893 0.69449 0.74425 0.0
C1599 C 0.5896 0.66082 0.7689 0.0
C1600 C 0.52827 0.60836 0.72587 0.0
C1601 C 0.54017 0.61632 0.69955 0.0
C1602 C 0.52841 0.62797 0.7451 0.0
C1603 C 0.5404 0.65607 0.73749 0.0
C1604 C 0.552 0.66422 0.71079 0.0
C1605 C 0.55175 0.64422 0.69216 0.0
C1606 C 0.51589 0.61867 0.77349 0.0
C1607 C 0.56452 0.69412 0.70184 0.0
H1608 H 0.49481 0.73095 0.78099 0.0
H1609 H 0.57945 0.70339 0.80167 0.0
H1610 H 0.4968 0.69789 0.7226 0.0
H1611 H 0.47969 0.67244 0.74849 0.0
H1612 H 0.47197 0.71086 0.74892 0.0
H1613 H 0.60619 0.66581 0.78181 0.0
H1614 H 0.58305 0.63774 0.77414 0.0
H1615 H 0.59973 0.66301 0.74788 0.0
H1616 H 0.51953 0.58668 0.73146 0.0
H1617 H 0.56074 0.65034 0.67166 0.0
H1618 H 0.49723 0.63309 0.77936 0.0
H1619 H 0.53251 0.62092 0.78718 0.0
H1620 H 0.50832 0.59576 0.77632 0.0
H1621 H 0.54747 0.71107 0.70526 0.0
H1622 H 0.57325 0.6967 0.6804 0.0
H1623 H 0.58233 0.69824 0.71373 0.0
C1624 C 0.4546 0.81538 0.78099 0.0
C1625 C 0.47354 0.82401 0.79814 0.0
C1626 C 0.45402 0.83012 0.75533 0.0
C1627 C 0.47228 0.85447 0.74702 0.0
C1628 C 0.48971 0.86457 0.76512 0.0
C1629 C 0.49049 0.84891 0.79033 0.0
C1630 C 0.43552 0.81833 0.73648 0.0
C1631 C 0.50878 0.89096 0.75738 0.0
C1632 C 0.49932 0.8702 0.67331 0.0
C1633 C 0.47978 0.89199 0.66503 0.0
C1634 C 0.49697 0.85768 0.69995 0.0
C1635 C 0.47501 0.8678 0.71879 0.0
C1636 C 0.45572 0.89041 0.71058 0.0
C1637 C 0.45811 0.90198 0.68369 0.0
C1638 C 0.51763 0.83324 0.70781 0.0
C1639 C 0.43257 0.90232 0.73016 0.0
H1640 H 0.44187 0.79582 0.78686 0.0
H1641 H 0.50519 0.85553 0.80361 0.0
H1642 H 0.42213 0.83601 0.7272 0.0
H1643 H 0.44987 0.80938 0.72017 0.0
H1644 H 0.42083 0.80079 0.74663 0.0
H1645 H 0.51786 0.89824 0.77479 0.0
H1646 H 0.52717 0.8857 0.74253 0.0
H1647 H 0.49627 0.9093 0.74796 0.0
H1648 H 0.5159 0.86239 0.65877 0.0
H1649 H 0.4431 0.91898 0.67719 0.0
H1650 H 0.50511 0.81355 0.71648 0.0
H1651 H 0.53042 0.83957 0.72336 0.0
H1652 H 0.53302 0.82747 0.69065 0.0
H1653 H 0.41712 0.88486 0.73888 0.0
H1654 H 0.42007 0.92073 0.72075 0.0
H1655 H 0.44272 0.90994 0.74684 0.0
C1656 C 0.53689 0.27122 0.74491 0.0
C1657 C 0.55447 0.27092 0.72059 0.0
C1658 C 0.53983 0.29294 0.76136 0.0
C1659 C 0.56064 0.31499 0.75298 0.0
C1660 C 0.57967 0.31382 0.72913 0.0
C1661 C 0.57644 0.2915 0.71316 0.0
C1662 C 0.51955 0.29316 0.78694 0.0
C1663 C 0.6021 0.33705 0.71973 0.0
C1664 C 0.54104 0.38578 0.78208 0.0
C1665 C 0.55793 0.38345 0.80328 0.0
C1666 C 0.54274 0.36416 0.76462 0.0
C1667 C 0.56147 0.33972 0.7689 0.0
C1668 C 0.57886 0.33757 0.79005 0.0
C1669 C 0.57679 0.35943 0.80705 0.0
C1670 C 0.52397 0.36704 0.74207 0.0
C1671 C 0.5988 0.31167 0.79537 0.0
H1672 H 0.51987 0.25516 0.75045 0.0
H1673 H 0.58963 0.29137 0.69405 0.0
H1674 H 0.53215 0.29495 0.80394 0.0
H1675 H 0.50477 0.31245 0.78547 0.0
H1676 H 0.50605 0.27324 0.7914 0.0
H1677 H 0.61707 0.33136 0.70226 0.0
H1678 H 0.59092 0.35797 0.71406 0.0
H1679 H 0.61518 0.34064 0.736 0.0
H1680 H 0.52659 0.40443 0.77919 0.0
H1681 H 0.5895 0.35736 0.8238 0.0
H1682 H 0.50761 0.34944 0.74536 0.0
H1683 H 0.53751 0.36453 0.72291 0.0
H1684 H 0.51232 0.38839 0.74027 0.0
H1685 H 0.58561 0.29178 0.80152 0.0
H1686 H 0.61265 0.31458 0.81129 0.0
H1687 H 0.61315 0.30785 0.77696 0.0
C1688 C 0.45559 0.17957 0.75462 0.0
C1689 C 0.4786 0.17428 0.73509 0.0
C1690 C 0.45208 0.16236 0.77944 0.0
C1691 C 0.47172 0.13891 0.78473 0.0
C1692 C 0.4942 0.1327 0.76462 0.0
C1693 C 0.49754 0.1506 0.74021 0.0
C1694 C 0.42803 0.16998 0.8004 0.0
C1695 C 0.51524 0.10759 0.76914 0.0
C1696 C 0.48255 0.11408 0.85712 0.0
C1697 C 0.46399 0.09005 0.86314 0.0
C1698 C 0.48528 0.13009 0.83172 0.0
C1699 C 0.46947 0.12163 0.81162 0.0
C1700 C 0.45133 0.0969 0.81737 0.0
C1701 C 0.44861 0.0816 0.84307 0.0
C1702 C 0.50458 0.15651 0.82659 0.0
C1703 C 0.43453 0.08676 0.79644 0.0
H1704 H 0.44103 0.19798 0.75096 0.0
H1705 H 0.51533 0.14627 0.72521 0.0
H1706 H 0.41421 0.15073 0.80745 0.0
H1707 H 0.43762 0.17635 0.81789 0.0
H1708 H 0.41396 0.18819 0.7929 0.0
H1709 H 0.53009 0.10429 0.75085 0.0
H1710 H 0.52861 0.11167 0.78505 0.0
H1711 H 0.50313 0.08715 0.77597 0.0
H1712 H 0.49432 0.12095 0.87252 0.0
H1713 H 0.43424 0.06304 0.84749 0.0
H1714 H 0.49147 0.1762 0.82094 0.0
H1715 H 0.52159 0.15395 0.80967 0.0
H1716 H 0.51544 0.16022 0.84427 0.0
H1717 H 0.41876 0.10393 0.79021 0.0
H1718 H 0.42241 0.06639 0.80369 0.0
H1719 H 0.44962 0.08292 0.77847 0.0
C1720 C 0.76347 0.51297 0.6568 0.0
C1721 C 0.76412 0.53707 0.67134 0.0
C1722 C 0.74219 0.51064 0.63969 0.0
C1723 C 0.72073 0.53279 0.63717 0.0
C1724 C 0.72201 0.55786 0.65082 0.0
C1725 C 0.74384 0.55978 0.66767 0.0
C1726 C 0.74189 0.48376 0.62529 0.0
C1727 C 0.69949 0.58197 0.64862 0.0
C1728 C 0.66933 0.53566 0.58341 0.0
C1729 C 0.6441 0.52364 0.59819 0.0
C1730 C 0.69492 0.53805 0.59554 0.0
C1731 C 0.69511 0.5281 0.62295 0.0
C1732 C 0.67022 0.5142 0.63734 0.0
C1733 C 0.64508 0.51219 0.62479 0.0
C1734 C 0.72109 0.55279 0.57949 0.0
C1735 C 0.66951 0.5029 0.66647 0.0
H1736 H 0.77941 0.49552 0.6591 0.0
H1737 H 0.74433 0.57851 0.6787 0.0
H1738 H 0.72286 0.47023 0.6339 0.0
H1739 H 0.7396 0.48991 0.60391 0.0
H1740 H 0.76198 0.47025 0.62684 0.0
H1741 H 0.70492 0.60107 0.65853 0.0
H1742 H 0.6974 0.58927 0.62738 0.0
H1743 H 0.67792 0.5737 0.65796 0.0
H1744 H 0.66846 0.54504 0.563 0.0
H1745 H 0.62551 0.50301 0.63627 0.0
H1746 H 0.74124 0.53997 0.58264 0.0
H1747 H 0.72374 0.57452 0.58622 0.0
H1748 H 0.71887 0.55582 0.55783 0.0
H1749 H 0.68809 0.48771 0.6695 0.0
H1750 H 0.64897 0.49137 0.67438 0.0
H1751 H 0.67175 0.52134 0.67831 0.0
C1752 C 0.29088 0.04107 0.65331 0.0
C1753 C 0.26942 0.01976 0.66043 0.0
C1754 C 0.31285 0.03835 0.63208 0.0
C1755 C 0.31316 0.01389 0.6175 0.0
C1756 C 0.29018 0.99363 0.62325 0.0
C1757 C 0.26872 0.99669 0.64474 0.0
C1758 C 0.33701 0.06038 0.62673 0.0
C1759 C 0.28945 0.96742 0.60804 0.0
C1760 C 0.36952 0.00792 0.55679 0.0
C1761 C 0.39104 0.99056 0.56831 0.0
C1762 C 0.34388 0.01589 0.57244 0.0
C1763 C 0.33998 0.00645 0.60015 0.0
C1764 C 0.36176 0.9891 0.61176 0.0
C1765 C 0.38679 0.98134 0.59576 0.0
C1766 C 0.32096 0.03422 0.5594 0.0
C1767 C 0.35869 0.9786 0.64121 0.0
H1768 H 0.29147 0.05908 0.66521 0.0
H1769 H 0.2519 0.98038 0.6498 0.0
H1770 H 0.35697 0.05055 0.63434 0.0
H1771 H 0.3423 0.06663 0.60502 0.0
H1772 H 0.33126 0.08037 0.63661 0.0
H1773 H 0.26788 0.95667 0.61173 0.0
H1774 H 0.29462 0.97371 0.58632 0.0
H1775 H 0.3062 0.95129 0.61429 0.0
H1776 H 0.37264 0.01515 0.53564 0.0
H1777 H 0.40325 0.96802 0.60503 0.0
H1778 H 0.31689 0.05459 0.56902 0.0
H1779 H 0.3001 0.02226 0.56219 0.0
H1780 H 0.32735 0.04001 0.53773 0.0
H1781 H 0.35561 0.99746 0.65305 0.0
H1782 H 0.37799 0.9658 0.64718 0.0
H1783 H 0.33917 0.96472 0.64655 0.0
C1784 C 0.76558 0.51157 0.80401 0.0
C1785 C 0.77081 0.48883 0.78777 0.0
C1786 C 0.74337 0.5099 0.82547 0.0
C1787 C 0.72551 0.48501 0.83079 0.0
C1788 C 0.73165 0.46126 0.81539 0.0
C1789 C 0.75439 0.46336 0.79415 0.0
C1790 C 0.738 0.53556 0.84149 0.0
C1791 C 0.71314 0.43431 0.82039 0.0
C1792 C 0.67146 0.47423 0.89426 0.0
C1793 C 0.6454 0.48417 0.88455 0.0
C1794 C 0.69794 0.4748 0.87721 0.0
C1795 C 0.69827 0.48556 0.8499 0.0
C1796 C 0.67222 0.49694 0.84047 0.0
C1797 C 0.64626 0.4961 0.85784 0.0
C1798 C 0.72524 0.46265 0.88812 0.0
C1799 C 0.67146 0.50895 0.81167 0.0
H1800 H 0.77849 0.53118 0.79953 0.0
H1801 H 0.75833 0.4457 0.78176 0.0
H1802 H 0.7175 0.5469 0.83674 0.0
H1803 H 0.73532 0.5281 0.86314 0.0
H1804 H 0.75601 0.55151 0.83719 0.0
H1805 H 0.72245 0.41664 0.80869 0.0
H1806 H 0.71074 0.42603 0.84186 0.0
H1807 H 0.69098 0.43983 0.81486 0.0
H1808 H 0.67087 0.46449 0.91473 0.0
H1809 H 0.62618 0.50374 0.85017 0.0
H1810 H 0.74352 0.47804 0.88224 0.0
H1811 H 0.73168 0.44203 0.87958 0.0
H1812 H 0.72215 0.45813 0.91019 0.0
H1813 H 0.68749 0.52671 0.80605 0.0
H1814 H 0.64958 0.51762 0.80766 0.0
H1815 H 0.67765 0.49156 0.79858 0.0
C1816 C 0.28946 0.97478 0.77715 0.0
C1817 C 0.26388 0.95946 0.77646 0.0
C1818 C 0.30358 0.9724 0.80013 0.0
C1819 C 0.29168 0.95426 0.82297 0.0
C1820 C 0.26784 0.93615 0.82133 0.0
C1821 C 0.25413 0.93895 0.79793 0.0
C1822 C 0.32936 0.9917 0.8008 0.0
C1823 C 0.25502 0.91597 0.845 0.0
C1824 C 0.34015 0.95457 0.87754 0.0
C1825 C 0.32916 0.97926 0.88936 0.0
C1826 C 0.32633 0.94391 0.85751 0.0
C1827 C 0.30121 0.95852 0.8491 0.0
C1828 C 0.28836 0.98146 0.86299 0.0
C1829 C 0.30254 0.99155 0.88299 0.0
C1830 C 0.34022 0.91888 0.84371 0.0
C1831 C 0.26119 0.99728 0.85502 0.0
H1832 H 0.29718 0.99037 0.76036 0.0
H1833 H 0.23431 0.92704 0.79742 0.0
H1834 H 0.32279 0.00926 0.81362 0.0
H1835 H 0.3473 0.97903 0.80946 0.0
H1836 H 0.3378 1.002 0.78064 0.0
H1837 H 0.24251 0.89822 0.83871 0.0
H1838 H 0.27223 0.90619 0.8568 0.0
H1839 H 0.23991 0.92853 0.8582 0.0
H1840 H 0.36073 0.94492 0.88243 0.0
H1841 H 0.2937 0.01023 0.89256 0.0
H1842 H 0.35368 0.92759 0.82512 0.0
H1843 H 0.32346 0.90463 0.83816 0.0
H1844 H 0.35458 0.90552 0.85647 0.0
H1845 H 0.2663 0.01019 0.83531 0.0
H1846 H 0.25228 0.01234 0.86964 0.0
H1847 H 0.24407 0.98151 0.85307 0.0
C1848 C 0.67684 0.75351 0.52082 0.0
C1849 C 0.70097 0.7538 0.5351 0.0
C1850 C 0.65631 0.73105 0.5265 0.0
C1851 C 0.66054 0.70772 0.54632 0.0
C1852 C 0.68463 0.7082 0.56114 0.0
C1853 C 0.70431 0.7315 0.55564 0.0
C1854 C 0.63051 0.73191 0.51077 0.0
C1855 C 0.69043 0.68341 0.58193 0.0
C1856 C 0.599 0.65496 0.57343 0.0
C1857 C 0.60493 0.63223 0.55736 0.0
C1858 C 0.61651 0.67997 0.56976 0.0
C1859 C 0.64105 0.68186 0.5501 0.0
C1860 C 0.64714 0.65888 0.53392 0.0
C1861 C 0.62881 0.6346 0.53749 0.0
C1862 C 0.60879 0.70431 0.58694 0.0
C1863 C 0.67344 0.6596 0.51317 0.0
H1864 H 0.67408 0.77086 0.50505 0.0
H1865 H 0.72309 0.73154 0.56655 0.0
H1866 H 0.63264 0.71417 0.49762 0.0
H1867 H 0.61005 0.72823 0.52442 0.0
H1868 H 0.62861 0.75301 0.49822 0.0
H1869 H 0.70933 0.68765 0.59252 0.0
H1870 H 0.67098 0.67952 0.59681 0.0
H1871 H 0.69485 0.66308 0.57229 0.0
H1872 H 0.5806 0.65323 0.58885 0.0
H1873 H 0.6338 0.61693 0.52525 0.0
H1874 H 0.60622 0.72511 0.57417 0.0
H1875 H 0.62668 0.70728 0.59909 0.0
H1876 H 0.58835 0.70004 0.60054 0.0
H1877 H 0.67203 0.67878 0.49814 0.0
H1878 H 0.67556 0.63963 0.50272 0.0
H1879 H 0.69354 0.66189 0.5227 0.0
C1880 C 0.73246 0.29288 0.93443 0.0
C1881 C 0.72642 0.26809 0.95257 0.0
C1882 C 0.71013 0.31302 0.92838 0.0
C1883 C 0.6811 0.30772 0.94028 0.0
C1884 C 0.67475 0.28151 0.95705 0.0
C1885 C 0.69754 0.26229 0.96332 0.0
C1886 C 0.71795 0.34089 0.91077 0.0
C1887 C 0.64413 0.2745 0.96964 0.0
C1888 C 0.63214 0.37247 0.95581 0.0
C1889 C 0.61481 0.37534 0.93477 0.0
C1890 C 0.65388 0.35082 0.95755 0.0
C1891 C 0.65818 0.33099 0.93806 0.0
C1892 C 0.64034 0.33328 0.91706 0.0
C1893 C 0.61906 0.35562 0.9155 0.0
C1894 C 0.67259 0.34948 0.98011 0.0
C1895 C 0.64379 0.31218 0.89624 0.0
H1896 H 0.75485 0.29745 0.92633 0.0
H1897 H 0.69289 0.24297 0.97728 0.0
H1898 H 0.70291 0.34506 0.89528 0.0
H1899 H 0.71559 0.35949 0.92297 0.0
H1900 H 0.74067 0.34038 0.90085 0.0
H1901 H 0.64217 0.2515 0.97877 0.0
H1902 H 0.63769 0.28896 0.98541 0.0
H1903 H 0.62849 0.27847 0.95463 0.0
H1904 H 0.62932 0.38776 0.97065 0.0
H1905 H 0.60585 0.35774 0.89912 0.0
H1906 H 0.69593 0.35125 0.972 0.0
H1907 H 0.66983 0.32818 0.99254 0.0
H1908 H 0.66711 0.36711 0.99312 0.0
H1909 H 0.66609 0.31361 0.88542 0.0
H1910 H 0.6278 0.31647 0.88154 0.0
H1911 H 0.64101 0.28952 0.90595 0.0
C1912 C 0.32065 0.25127 0.93916 0.0
C1913 C 0.31135 0.25887 0.96477 0.0
C1914 C 0.33861 0.22658 0.93561 0.0
C1915 C 0.34706 0.20903 0.9582 0.0
C1916 C 0.33787 0.21677 0.98401 0.0
C1917 C 0.32029 0.24157 0.98696 0.0
C1918 C 0.34827 0.21907 0.90776 0.0
C1919 C 0.34605 0.19848 0.00865 0.0
C1920 C 0.36616 0.1291 0.9547 0.0
C1921 C 0.39659 0.12902 0.95406 0.0
C1922 C 0.34988 0.15508 0.95543 0.0
C1923 C 0.36438 0.18175 0.95524 0.0
C1924 C 0.39514 0.18192 0.95427 0.0
C1925 C 0.41089 0.1555 0.95387 0.0
C1926 C 0.31708 0.1539 0.95692 0.0
C1927 C 0.41135 0.20998 0.95388 0.0
H1928 H 0.31392 0.26457 0.92195 0.0
H1929 H 0.31315 0.2471 0.00688 0.0
H1930 H 0.37236 0.21694 0.90461 0.0
H1931 H 0.33921 0.19771 0.90506 0.0
H1932 H 0.34114 0.23574 0.89227 0.0
H1933 H 0.33764 0.2079 0.02728 0.0
H1934 H 0.33723 0.1762 0.00962 0.0
H1935 H 0.37009 0.1963 0.00777 0.0
H1936 H 0.35494 0.10873 0.9548 0.0
H1937 H 0.43443 0.15565 0.95305 0.0
H1938 H 0.30931 0.1686 0.94036 0.0
H1939 H 0.30701 0.16165 0.97583 0.0
H1940 H 0.30924 0.13154 0.95592 0.0
H1941 H 0.40539 0.22598 0.93739 0.0
H1942 H 0.43536 0.20664 0.95144 0.0
H1943 H 0.40502 0.21973 0.97274 0.0
C1944 C 0.8538 0.28607 1.0009 0.0
C1945 C 0.82793 0.28287 0.01838 0.0
C1946 C 0.8733 0.30843 1.00229 0.0
C1947 C 0.86656 0.32839 0.02134 0.0
C1948 C 0.84061 0.32516 0.03924 0.0
C1949 C 0.82167 0.30221 0.0377 0.0
C1950 C 0.90101 0.31082 0.9832 0.0
C1951 C 0.83259 0.34629 0.05962 0.0
C1952 C 0.92729 0.37353 0.03947 0.0
C1953 C 0.92378 0.4 0.02364 0.0
C1954 C 0.90899 0.34992 0.03874 0.0
C1955 C 0.88642 0.35301 0.02206 0.0
C1956 C 0.88302 0.37954 0.00578 0.0
C1957 C 0.90189 0.40266 0.00662 0.0
C1958 C 0.91362 0.32177 0.056 0.0
C1959 C 0.85906 0.38369 0.98787 0.0
H1960 H 0.85893 0.27096 0.98611 0.0
H1961 H 0.80167 0.29983 0.05118 0.0
H1962 H 0.90107 0.33178 0.9702 0.0
H1963 H 0.92019 0.31071 0.99442 0.0
H1964 H 0.90361 0.29274 0.97037 0.0
H1965 H 0.81182 0.34056 0.07227 0.0
H1966 H 0.85013 0.34678 0.07268 0.0
H1967 H 0.83042 0.36863 0.0494 0.0
H1968 H 0.94418 0.37135 0.05267 0.0
H1969 H 0.89888 0.42314 0.99452 0.0
H1970 H 0.91698 0.30347 0.04351 0.0
H1971 H 0.89395 0.3168 0.07039 0.0
H1972 H 0.93267 0.32267 0.06731 0.0
H1973 H 0.86133 0.36721 0.97344 0.0
H1974 H 0.85925 0.40575 0.97658 0.0
H1975 H 0.83754 0.38038 0.99993 0.0
loop_
_geom_bond_atom_site_label_1
_geom_bond_atom_site_label_2
_geom_bond_distance
_geom_bond_site_symmetry_2
_ccdc_geom_bond_type
C0 O2 1.247 . S
C0 O4 1.258 1_455 S
C1 O8 1.247 . S
C1 O9 1.258 1_655 S
O2 C0 1.247 . S
O2 Zn3 2.028 . S
Zn3 O2 2.028 . S
Zn3 O7 2.035 . S
Zn3 O9 2.035 . S
Zn3 O10 2.028 . S
O4 C0 1.258 1_655 S
O4 Zn5 2.035 . S
Zn5 O4 2.035 . S
Zn5 O6 2.028 . S
Zn5 O8 2.028 . S
Zn5 O11 2.035 . S
O6 Zn5 2.028 . S
O6 C12 1.247 . S
O7 Zn3 2.035 . S
O7 C12 1.258 1_455 S
O8 C1 1.247 . S
O8 Zn5 2.028 . S
O9 C1 1.258 1_455 S
O9 Zn3 2.035 . S
O10 Zn3 2.028 . S
O10 C13 1.247 . S
O11 Zn5 2.035 . S
O11 C13 1.258 1_655 S
C12 O6 1.247 . S
C12 O7 1.258 1_655 S
C13 O10 1.247 . S
C13 O11 1.258 1_455 S
C14 O16 1.247 . S
C14 O18 1.258 1_455 S
C15 O22 1.247 . S
C15 O23 1.258 1_655 S
O16 C14 1.247 . S
O16 Zn17 2.028 . S
Zn17 O16 2.028 . S
Zn17 O21 2.035 . S
Zn17 O23 2.035 . S
Zn17 O24 2.028 . S
O18 C14 1.258 1_655 S
O18 Zn19 2.035 . S
Zn19 O18 2.035 . S
Zn19 O20 2.028 . S
Zn19 O22 2.028 . S
Zn19 O25 2.035 . S
O20 Zn19 2.028 . S
O20 C26 1.247 . S
O21 Zn17 2.035 . S
O21 C26 1.258 1_455 S
O22 C15 1.247 . S
O22 Zn19 2.028 . S
O23 C15 1.258 1_455 S
O23 Zn17 2.035 . S
O24 Zn17 2.028 . S
O24 C27 1.247 . S
O25 Zn19 2.035 . S
O25 C27 1.258 1_655 S
C26 O20 1.247 . S
C26 O21 1.258 1_655 S
C27 O24 1.247 . S
C27 O25 1.258 1_455 S
C28 O30 1.247 1_545 S
C28 O32 1.258 . S
C29 O36 1.247 . S
C29 O37 1.258 1_545 S
O30 C28 1.247 1_565 S
O30 Zn31 2.028 . S
Zn31 O30 2.028 . S
Zn31 O35 2.035 . S
Zn31 O37 2.035 . S
Zn31 O38 2.028 . S
O32 C28 1.258 . S
O32 Zn33 2.035 . S
Zn33 O32 2.035 . S
Zn33 O34 2.028 . S
Zn33 O36 2.028 . S
Zn33 O39 2.035 . S
O34 Zn33 2.028 . S
O34 C40 1.247 . S
O35 Zn31 2.035 . S
O35 C40 1.258 1_565 S
O36 C29 1.247 . S
O36 Zn33 2.028 . S
O37 C29 1.258 1_565 S
O37 Zn31 2.035 . S
O38 Zn31 2.028 . S
O38 C41 1.247 1_565 S
O39 Zn33 2.035 . S
O39 C41 1.258 . S
C40 O34 1.247 . S
C40 O35 1.258 1_545 S
C41 O38 1.247 1_545 S
C41 O39 1.258 . S
C42 O44 1.247 . S
C42 O46 1.258 . S
C43 O50 1.247 . S
C43 O51 1.258 . S
O44 C42 1.247 . S
O44 Zn45 2.028 . S
Zn45 O44 2.028 . S
Zn45 O49 2.035 . S
Zn45 O51 2.035 . S
Zn45 O52 2.028 . S
O46 C42 1.258 . S
O46 Zn47 2.035 . S
Zn47 O46 2.035 . S
Zn47 O48 2.028 . S
Zn47 O50 2.028 . S
Zn47 O53 2.035 . S
O48 Zn47 2.028 . S
O48 C54 1.247 . S
O49 Zn45 2.035 . S
O49 C54 1.258 . S
O50 C43 1.247 . S
O50 Zn47 2.028 . S
O51 C43 1.258 . S
O51 Zn45 2.035 . S
O52 Zn45 2.028 . S
O52 C55 1.247 . S
O53 Zn47 2.035 . S
O53 C55 1.258 . S
C54 O48 1.247 . S
C54 O49 1.258 . S
C55 O52 1.247 . S
C55 O53 1.258 . S
C56 O58 1.247 1_554 S
C56 O60 1.258 . S
C57 O64 1.247 1_556 S
C57 O65 1.258 . S
O58 C56 1.247 1_556 S
O58 Zn59 2.028 . S
Zn59 O58 2.028 . S
Zn59 O63 2.035 . S
Zn59 O65 2.035 . S
Zn59 O66 2.028 . S
O60 C56 1.258 . S
O60 Zn61 2.035 . S
Zn61 O60 2.035 . S
Zn61 O62 2.028 . S
Zn61 O64 2.028 . S
Zn61 O67 2.035 . S
O62 Zn61 2.028 . S
O62 C68 1.247 1_554 S
O63 Zn59 2.035 . S
O63 C68 1.258 . S
O64 C57 1.247 1_554 S
O64 Zn61 2.028 . S
O65 C57 1.258 . S
O65 Zn59 2.035 . S
O66 Zn59 2.028 . S
O66 C69 1.247 1_556 S
O67 Zn61 2.035 . S
O67 C69 1.258 . S
C68 O62 1.247 1_556 S
C68 O63 1.258 . S
C69 O66 1.247 1_554 S
C69 O67 1.258 . S
C70 O72 1.247 . S
C70 O74 1.258 . S
C71 O78 1.247 . S
C71 O79 1.258 . S
O72 C70 1.247 . S
O72 Zn73 2.028 . S
Zn73 O72 2.028 . S
Zn73 O77 2.035 . S
Zn73 O79 2.035 . S
Zn73 O80 2.028 . S
O74 C70 1.258 . S
O74 Zn75 2.035 . S
Zn75 O74 2.035 . S
Zn75 O76 2.028 . S
Zn75 O78 2.028 . S
Zn75 O81 2.035 . S
O76 Zn75 2.028 . S
O76 C82 1.247 . S
O77 Zn73 2.035 . S
O77 C82 1.258 . S
O78 C71 1.247 . S
O78 Zn75 2.028 . S
O79 C71 1.258 . S
O79 Zn73 2.035 . S
O80 Zn73 2.028 . S
O80 C83 1.247 . S
O81 Zn75 2.035 . S
O81 C83 1.258 . S
C82 O76 1.247 . S
C82 O77 1.258 . S
C83 O80 1.247 . S
C83 O81 1.258 . S
C84 O86 1.247 . S
C84 O88 1.258 . S
C85 O92 1.247 . S
C85 O93 1.258 . S
O86 C84 1.247 . S
O86 Zn87 2.028 . S
Zn87 O86 2.028 . S
Zn87 O91 2.035 . S
Zn87 O93 2.035 . S
Zn87 O94 2.028 . S
O88 C84 1.258 . S
O88 Zn89 2.035 . S
Zn89 O88 2.035 . S
Zn89 O90 2.028 . S
Zn89 O92 2.028 . S
Zn89 O95 2.035 . S
O90 Zn89 2.028 . S
O90 C96 1.247 . S
O91 Zn87 2.035 . S
O91 C96 1.258 . S
O92 C85 1.247 . S
O92 Zn89 2.028 . S
O93 C85 1.258 . S
O93 Zn87 2.035 . S
O94 Zn87 2.028 . S
O94 C97 1.247 . S
O95 Zn89 2.035 . S
O95 C97 1.258 . S
C96 O90 1.247 . S
C96 O91 1.258 . S
C97 O94 1.247 . S
C97 O95 1.258 . S
C98 O100 1.247 . S
C98 O102 1.258 . S
C99 O106 1.247 . S
C99 O107 1.258 . S
O100 C98 1.247 . S
O100 Zn101 2.028 . S
Zn101 O100 2.028 . S
Zn101 O105 2.035 . S
Zn101 O107 2.035 . S
Zn101 O108 2.028 . S
O102 C98 1.258 . S
O102 Zn103 2.035 . S
Zn103 O102 2.035 . S
Zn103 O104 2.028 . S
Zn103 O106 2.028 . S
Zn103 O109 2.035 . S
O104 Zn103 2.028 . S
O104 C110 1.247 . S
O105 Zn101 2.035 . S
O105 C110 1.258 . S
O106 C99 1.247 . S
O106 Zn103 2.028 . S
O107 C99 1.258 . S
O107 Zn101 2.035 . S
O108 Zn101 2.028 . S
O108 C111 1.247 . S
O109 Zn103 2.035 . S
O109 C111 1.258 . S
C110 O104 1.247 . S
C110 O105 1.258 . S
C111 O108 1.247 . S
C111 O109 1.258 . S
C112 O114 1.247 . S
C112 O116 1.258 . S
C113 O120 1.247 . S
C113 O121 1.258 . S
O114 C112 1.247 . S
O114 Zn115 2.028 . S
Zn115 O114 2.028 . S
Zn115 O119 2.035 . S
Zn115 O121 2.035 . S
Zn115 O122 2.028 . S
O116 C112 1.258 . S
O116 Zn117 2.035 . S
Zn117 O116 2.035 . S
Zn117 O118 2.028 . S
Zn117 O120 2.028 . S
Zn117 O123 2.035 . S
O118 Zn117 2.028 . S
O118 C124 1.247 . S
O119 Zn115 2.035 . S
O119 C124 1.258 . S
O120 C113 1.247 . S
O120 Zn117 2.028 . S
O121 C113 1.258 . S
O121 Zn115 2.035 . S
O122 Zn115 2.028 . S
O122 C125 1.247 . S
O123 Zn117 2.035 . S
O123 C125 1.258 . S
C124 O118 1.247 . S
C124 O119 1.258 . S
C125 O122 1.247 . S
C125 O123 1.258 . S
C126 O128 1.247 . S
C126 O130 1.258 . S
C127 O134 1.247 . S
C127 O135 1.258 . S
O128 C126 1.247 . S
O128 Zn129 2.028 . S
Zn129 O128 2.028 . S
Zn129 O133 2.035 . S
Zn129 O135 2.035 . S
Zn129 O136 2.028 . S
O130 C126 1.258 . S
O130 Zn131 2.035 . S
Zn131 O130 2.035 . S
Zn131 O132 2.028 . S
Zn131 O134 2.028 . S
Zn131 O137 2.035 . S
O132 Zn131 2.028 . S
O132 C138 1.247 . S
O133 Zn129 2.035 . S
O133 C138 1.258 . S
O134 C127 1.247 . S
O134 Zn131 2.028 . S
O135 C127 1.258 . S
O135 Zn129 2.035 . S
O136 Zn129 2.028 . S
O136 C139 1.247 . S
O137 Zn131 2.035 . S
O137 C139 1.258 . S
C138 O132 1.247 . S
C138 O133 1.258 . S
C139 O136 1.247 . S
C139 O137 1.258 . S
C140 O142 1.247 . S
C140 O144 1.258 1_565 S
C141 O148 1.247 . S
C141 O149 1.258 1_545 S
O142 C140 1.247 . S
O142 Zn143 2.028 . S
Zn143 O142 2.028 . S
Zn143 O147 2.035 . S
Zn143 O149 2.035 . S
Zn143 O150 2.028 . S
O144 C140 1.258 1_545 S
O144 Zn145 2.035 . S
Zn145 O144 2.035 . S
Zn145 O146 2.028 . S
Zn145 O148 2.028 . S
Zn145 O151 2.035 . S
O146 Zn145 2.028 . S
O146 C152 1.247 . S
O147 Zn143 2.035 . S
O147 C152 1.258 1_565 S
O148 C141 1.247 . S
O148 Zn145 2.028 . S
O149 C141 1.258 1_565 S
O149 Zn143 2.035 . S
O150 Zn143 2.028 . S
O150 C153 1.247 . S
O151 Zn145 2.035 . S
O151 C153 1.258 1_545 S
C152 O146 1.247 . S
C152 O147 1.258 1_545 S
C153 O150 1.247 . S
C153 O151 1.258 1_565 S
C154 O156 1.247 . S
C154 O158 1.258 1_554 S
C155 O162 1.247 1_554 S
C155 O163 1.258 . S
O156 C154 1.247 . S
O156 Zn157 2.028 . S
Zn157 O156 2.028 . S
Zn157 O161 2.035 . S
Zn157 O163 2.035 . S
Zn157 O164 2.028 . S
O158 C154 1.258 1_556 S
O158 Zn159 2.035 . S
Zn159 O158 2.035 . S
Zn159 O160 2.028 . S
Zn159 O162 2.028 . S
Zn159 O165 2.035 . S
O160 Zn159 2.028 . S
O160 C166 1.247 1_556 S
O161 Zn157 2.035 . S
O161 C166 1.258 . S
O162 C155 1.247 1_556 S
O162 Zn159 2.028 . S
O163 C155 1.258 . S
O163 Zn157 2.035 . S
O164 Zn157 2.028 . S
O164 C167 1.216 1_554 S
O165 Zn159 2.035 . S
O165 C167 1.282 . S
C166 O160 1.247 1_554 S
C166 O161 1.258 . S
C167 O164 1.216 1_556 S
C167 O165 1.282 . S
C168 O184 1.251 . S
C168 O186 1.254 . S
N169 C170 1.333 . S
N169 C174 1.307 . S
N169 Zn175 2.020 1_556 S
C170 N169 1.333 . S
C170 C171 1.379 . S
C170 H188 0.952 1_556 S
C171 C170 1.379 . S
C171 C172 1.390 . S
C171 H198 0.949 . S
C172 C171 1.390 . S
C172 C173 1.357 . S
C173 C172 1.357 . S
C173 C174 1.370 . S
C173 H199 0.950 1_545 S
C174 N169 1.307 . S
C174 C173 1.370 . S
C174 H192 0.948 . S
Zn175 N169 2.020 1_554 S
Zn175 O184 2.039 . S
Zn175 O190 2.034 . S
Zn175 O194 2.025 . S
Zn175 O196 2.024 . S
C176 O195 1.246 . S
C176 O196 1.249 . S
N177 C178 1.307 . S
N177 C179 1.329 1_455 S
N177 Zn183 2.020 . S
C178 N177 1.307 . S
C178 C182 1.370 . S
C178 H189 0.948 . S
C179 N177 1.329 1_655 S
C179 C180 1.381 . S
C179 H187 0.954 . S
C180 C179 1.381 . S
C180 C181 1.390 1_655 S
C180 H200 0.949 . S
C181 C180 1.390 1_455 S
C181 C182 1.357 . S
C182 C178 1.370 . S
C182 C181 1.357 . S
C182 H201 0.950 . S
Zn183 N177 2.020 . S
Zn183 O186 2.025 . S
Zn183 O191 2.024 . S
Zn183 O193 2.039 . S
Zn183 O195 2.034 . S
O184 C168 1.251 . S
O184 Zn175 2.039 . S
C185 O190 1.246 . S
C185 O191 1.249 . S
O186 C168 1.254 . S
O186 Zn183 2.025 . S
H187 C179 0.954 . S
H188 C170 0.952 1_554 S
H189 C178 0.948 . S
O190 Zn175 2.034 . S
O190 C185 1.246 . S
O191 Zn183 2.024 . S
O191 C185 1.249 . S
H192 C174 0.948 . S
O193 Zn183 2.039 . S
O193 C197 1.251 . S
O194 Zn175 2.025 . S
O194 C197 1.254 . S
O195 C176 1.246 . S
O195 Zn183 2.034 . S
O196 Zn175 2.024 . S
O196 C176 1.249 . S
C197 O193 1.251 . S
C197 O194 1.254 . S
H198 C171 0.949 . S
H199 C173 0.950 1_565 S
H200 C180 0.949 . S
H201 C182 0.950 . S
C202 O218 1.251 . S
C202 O220 1.254 . S
N203 C204 1.333 . S
N203 C208 1.307 . S
N203 Zn209 2.020 1_556 S
C204 N203 1.333 . S
C204 C205 1.379 . S
C204 H222 0.952 . S
C205 C204 1.379 . S
C205 C206 1.390 . S
C205 H232 0.949 . S
C206 C205 1.390 . S
C206 C207 1.357 . S
C207 C206 1.357 . S
C207 C208 1.370 . S
C207 H233 0.950 . S
C208 N203 1.307 . S
C208 C207 1.370 . S
C208 H226 0.948 . S
Zn209 N203 2.020 1_554 S
Zn209 O218 2.039 . S
Zn209 O224 2.034 . S
Zn209 O228 2.025 1_655 S
Zn209 O230 2.024 . S
C210 O229 1.246 . S
C210 O230 1.249 . S
N211 C212 1.307 . S
N211 C213 1.333 1_655 S
N211 Zn217 2.020 . S
C212 N211 1.307 . S
C212 C216 1.370 . S
C212 H223 0.948 . S
C213 N211 1.333 1_455 S
C213 C214 1.379 . S
C213 H221 0.952 . S
C214 C213 1.379 . S
C214 C215 1.390 . S
C214 H234 0.949 . S
C215 C214 1.390 . S
C215 C216 1.357 1_455 S
C216 C212 1.370 . S
C216 C215 1.357 1_655 S
C216 H235 0.950 . S
Zn217 N211 2.020 . S
Zn217 O220 2.025 . S
Zn217 O225 2.024 . S
Zn217 O227 2.039 1_655 S
Zn217 O229 2.034 . S
O218 C202 1.251 . S
O218 Zn209 2.039 . S
C219 O224 1.246 . S
C219 O225 1.249 . S
O220 C202 1.254 . S
O220 Zn217 2.025 . S
H221 C213 0.952 . S
H222 C204 0.952 . S
H223 C212 0.948 . S
O224 Zn209 2.034 . S
O224 C219 1.246 . S
O225 Zn217 2.024 . S
O225 C219 1.249 . S
H226 C208 0.948 . S
O227 Zn217 2.039 1_455 S
O227 C231 1.251 . S
O228 Zn209 2.025 1_455 S
O228 C231 1.254 . S
O229 C210 1.246 . S
O229 Zn217 2.034 . S
O230 Zn209 2.024 . S
O230 C210 1.249 . S
C231 O227 1.251 . S
C231 O228 1.254 . S
H232 C205 0.949 . S
H233 C207 0.950 . S
H234 C214 0.949 . S
H235 C216 0.950 . S
C236 O252 1.251 . S
C236 O254 1.254 . S
N237 C238 1.333 . S
N237 C242 1.307 . S
N237 Zn243 2.020 . S
C238 N237 1.333 . S
C238 C239 1.379 . S
C238 H256 0.952 . S
C239 C238 1.379 . S
C239 C240 1.390 . S
C239 H266 0.949 1_455 S
C240 C239 1.390 . S
C240 C241 1.357 . S
C241 C240 1.357 . S
C241 C242 1.370 . S
C241 H267 0.950 . S
C242 N237 1.307 . S
C242 C241 1.370 . S
C242 H260 0.948 . S
Zn243 N237 2.020 . S
Zn243 O252 2.039 . S
Zn243 O258 2.034 . S
Zn243 O262 2.025 . S
Zn243 O264 2.024 . S
C244 O263 1.246 . S
C244 O264 1.249 . S
N245 C246 1.307 . S
N245 C247 1.333 . S
N245 Zn251 2.020 . S
C246 N245 1.307 . S
C246 C250 1.370 1_565 S
C246 H257 0.948 1_565 S
C247 N245 1.333 . S
C247 C248 1.379 . S
C247 H255 0.952 . S
C248 C247 1.379 . S
C248 C249 1.392 1_565 S
C248 H268 0.949 . S
C249 C248 1.392 1_545 S
C249 C250 1.356 . S
C250 C246 1.370 1_545 S
C250 C249 1.356 . S
C250 H269 0.950 . S
Zn251 N245 2.020 . S
Zn251 O254 2.025 . S
Zn251 O259 2.024 . S
Zn251 O261 2.039 . S
Zn251 O263 2.034 . S
O252 C236 1.251 . S
O252 Zn243 2.039 . S
C253 O258 1.246 . S
C253 O259 1.249 . S
O254 C236 1.254 . S
O254 Zn251 2.025 . S
H255 C247 0.952 . S
H256 C238 0.952 . S
H257 C246 0.948 1_545 S
O258 Zn243 2.034 . S
O258 C253 1.246 . S
O259 Zn251 2.024 . S
O259 C253 1.249 . S
H260 C242 0.948 . S
O261 Zn251 2.039 . S
O261 C265 1.251 . S
O262 Zn243 2.025 . S
O262 C265 1.254 . S
O263 C244 1.246 . S
O263 Zn251 2.034 . S
O264 Zn243 2.024 . S
O264 C244 1.249 . S
C265 O261 1.251 . S
C265 O262 1.254 . S
H266 C239 0.949 1_655 S
H267 C241 0.950 . S
H268 C248 0.949 . S
H269 C250 0.950 . S
C270 O286 1.251 . S
C270 O288 1.254 . S
N271 C272 1.333 . S
N271 C276 1.307 . S
N271 Zn277 2.020 1_455 S
C272 N271 1.333 . S
C272 C273 1.379 . S
C272 H290 0.952 . S
C273 C272 1.379 . S
C273 C274 1.390 . S
C273 H300 0.949 . S
C274 C273 1.390 . S
C274 C275 1.357 . S
C275 C274 1.357 . S
C275 C276 1.370 . S
C275 H301 0.950 . S
C276 N271 1.307 . S
C276 C275 1.370 . S
C276 H294 0.948 . S
Zn277 N271 2.020 1_655 S
Zn277 O286 2.039 . S
Zn277 O292 2.034 . S
Zn277 O296 2.025 . S
Zn277 O298 2.024 . S
C278 O297 1.246 . S
C278 O298 1.249 . S
N279 C280 1.307 . S
N279 C281 1.333 . S
N279 Zn285 2.020 . S
C280 N279 1.307 . S
C280 C284 1.370 . S
C280 H291 0.948 . S
C281 N279 1.333 . S
C281 C282 1.379 . S
C281 H289 0.952 . S
C282 C281 1.379 . S
C282 C283 1.390 . S
C282 H302 0.949 . S
C283 C282 1.390 . S
C283 C284 1.357 . S
C284 C280 1.370 . S
C284 C283 1.357 . S
C284 H303 0.950 . S
Zn285 N279 2.020 . S
Zn285 O288 2.025 . S
Zn285 O293 2.024 . S
Zn285 O295 2.039 . S
Zn285 O297 2.034 . S
O286 C270 1.251 . S
O286 Zn277 2.039 . S
C287 O292 1.246 . S
C287 O293 1.249 . S
O288 C270 1.254 . S
O288 Zn285 2.025 . S
H289 C281 0.952 . S
H290 C272 0.952 . S
H291 C280 0.948 . S
O292 Zn277 2.034 . S
O292 C287 1.246 . S
O293 Zn285 2.024 . S
O293 C287 1.249 . S
H294 C276 0.948 . S
O295 Zn285 2.039 . S
O295 C299 1.251 . S
O296 Zn277 2.025 . S
O296 C299 1.254 . S
O297 C278 1.246 . S
O297 Zn285 2.034 . S
O298 Zn277 2.024 . S
O298 C278 1.249 . S
C299 O295 1.251 . S
C299 O296 1.254 . S
H300 C273 0.949 . S
H301 C275 0.950 . S
H302 C282 0.949 . S
H303 C284 0.950 . S
C304 O320 1.251 . S
C304 O322 1.254 . S
N305 C306 1.333 1_565 S
N305 C310 1.307 1_565 S
N305 Zn311 2.020 . S
C306 N305 1.333 1_545 S
C306 C307 1.379 . S
C306 H324 0.952 1_545 S
C307 C306 1.379 . S
C307 C308 1.390 . S
C307 H334 0.949 . S
C308 C307 1.390 . S
C308 C309 1.357 . S
C309 C308 1.357 . S
C309 C310 1.370 . S
C309 H335 0.950 . S
C310 N305 1.307 1_545 S
C310 C309 1.370 . S
C310 H328 0.948 . S
Zn311 N305 2.020 . S
Zn311 O320 2.039 . S
Zn311 O326 2.034 . S
Zn311 O330 2.025 . S
Zn311 O332 2.024 1_565 S
C312 O331 1.246 1_545 S
C312 O332 1.249 . S
N313 C314 1.307 . S
N313 C315 1.333 . S
N313 Zn319 2.020 . S
C314 N313 1.307 . S
C314 C318 1.370 . S
C314 H325 0.948 . S
C315 N313 1.333 . S
C315 C316 1.379 . S
C315 H323 0.952 . S
C316 C315 1.379 . S
C316 C317 1.390 . S
C316 H336 0.949 . S
C317 C316 1.390 . S
C317 C318 1.357 . S
C318 C314 1.370 . S
C318 C317 1.357 . S
C318 H337 0.950 . S
Zn319 N313 2.020 . S
Zn319 O322 2.025 . S
Zn319 O327 2.024 . S
Zn319 O329 2.039 . S
Zn319 O331 2.034 . S
O320 C304 1.251 . S
O320 Zn311 2.039 . S
C321 O326 1.246 . S
C321 O327 1.249 . S
O322 C304 1.254 . S
O322 Zn319 2.025 . S
H323 C315 0.952 . S
H324 C306 0.952 1_565 S
H325 C314 0.948 . S
O326 Zn311 2.034 . S
O326 C321 1.246 . S
O327 Zn319 2.024 . S
O327 C321 1.249 . S
H328 C310 0.948 . S
O329 Zn319 2.039 . S
O329 C333 1.251 . S
O330 Zn311 2.025 . S
O330 C333 1.254 . S
O331 C312 1.246 1_565 S
O331 Zn319 2.034 . S
O332 Zn311 2.024 1_545 S
O332 C312 1.249 . S
C333 O329 1.251 . S
C333 O330 1.254 . S
H334 C307 0.949 . S
H335 C309 0.950 . S
H336 C316 0.949 . S
H337 C318 0.950 . S
C338 O354 1.251 . S
C338 O356 1.254 . S
N339 C340 1.333 . S
N339 C344 1.307 . S
N339 Zn345 2.020 . S
C340 N339 1.333 . S
C340 C341 1.379 . S
C340 H358 0.952 . S
C341 C340 1.379 . S
C341 C342 1.390 . S
C341 H368 0.949 . S
C342 C341 1.390 . S
C342 C343 1.357 . S
C343 C342 1.357 . S
C343 C344 1.370 . S
C343 H369 0.950 . S
C344 N339 1.307 . S
C344 C343 1.370 . S
C344 H362 0.948 . S
Zn345 N339 2.020 . S
Zn345 O354 2.039 . S
Zn345 O360 2.034 . S
Zn345 O364 2.025 . S
Zn345 O366 2.024 . S
C346 O365 1.246 . S
C346 O366 1.249 . S
N347 C348 1.307 . S
N347 C349 1.333 . S
N347 Zn353 2.020 . S
C348 N347 1.307 . S
C348 C352 1.370 . S
C348 H359 0.948 . S
C349 N347 1.333 . S
C349 C350 1.379 . S
C349 H357 0.952 . S
C350 C349 1.379 . S
C350 C351 1.390 . S
C350 H370 0.949 . S
C351 C350 1.390 . S
C351 C352 1.357 . S
C352 C348 1.370 . S
C352 C351 1.357 . S
C352 H371 0.950 . S
Zn353 N347 2.020 . S
Zn353 O356 2.025 . S
Zn353 O361 2.024 . S
Zn353 O363 2.039 . S
Zn353 O365 2.034 . S
O354 C338 1.251 . S
O354 Zn345 2.039 . S
C355 O360 1.246 . S
C355 O361 1.249 . S
O356 C338 1.254 . S
O356 Zn353 2.025 . S
H357 C349 0.952 . S
H358 C340 0.952 . S
H359 C348 0.948 . S
O360 Zn345 2.034 . S
O360 C355 1.246 . S
O361 Zn353 2.024 . S
O361 C355 1.249 . S
H362 C344 0.948 . S
O363 Zn353 2.039 . S
O363 C367 1.251 . S
O364 Zn345 2.025 . S
O364 C367 1.254 . S
O365 C346 1.246 . S
O365 Zn353 2.034 . S
O366 Zn345 2.024 . S
O366 C346 1.249 . S
C367 O363 1.251 . S
C367 O364 1.254 . S
H368 C341 0.949 . S
H369 C343 0.950 . S
H370 C350 0.949 . S
H371 C352 0.950 . S
C372 O388 1.251 . S
C372 O390 1.254 . S
N373 C374 1.333 . S
N373 C378 1.307 . S
N373 Zn379 2.020 . S
C374 N373 1.333 . S
C374 C375 1.379 . S
C374 H392 0.952 . S
C375 C374 1.379 . S
C375 C376 1.390 . S
C375 H402 0.949 . S
C376 C375 1.390 . S
C376 C377 1.357 . S
C377 C376 1.357 . S
C377 C378 1.370 . S
C377 H403 0.950 . S
C378 N373 1.307 . S
C378 C377 1.370 . S
C378 H396 0.948 . S
Zn379 N373 2.020 . S
Zn379 O388 2.039 . S
Zn379 O394 2.034 . S
Zn379 O398 2.025 . S
Zn379 O400 2.024 . S
C380 O399 1.246 . S
C380 O400 1.249 . S
N381 C382 1.307 1_556 S
N381 C383 1.333 1_556 S
N381 Zn387 2.020 . S
C382 N381 1.307 1_554 S
C382 C386 1.370 . S
C382 H393 0.948 1_554 S
C383 N381 1.333 1_554 S
C383 C384 1.380 . S
C383 H391 0.951 1_554 S
C384 C383 1.380 . S
C384 C385 1.390 . S
C384 H404 0.949 . S
C385 C384 1.390 . S
C385 C386 1.357 . S
C386 C382 1.370 . S
C386 C385 1.357 . S
C386 H405 0.950 . S
Zn387 N381 2.020 . S
Zn387 O390 2.025 . S
Zn387 O395 2.024 . S
Zn387 O397 2.039 . S
Zn387 O399 2.034 . S
O388 C372 1.251 . S
O388 Zn379 2.039 . S
C389 O394 1.246 . S
C389 O395 1.249 . S
O390 C372 1.254 . S
O390 Zn387 2.025 . S
H391 C383 0.951 1_556 S
H392 C374 0.952 . S
H393 C382 0.948 1_556 S
O394 Zn379 2.034 . S
O394 C389 1.246 . S
O395 Zn387 2.024 . S
O395 C389 1.249 . S
H396 C378 0.948 . S
O397 Zn387 2.039 . S
O397 C401 1.251 . S
O398 Zn379 2.025 . S
O398 C401 1.254 . S
O399 C380 1.246 . S
O399 Zn387 2.034 . S
O400 Zn379 2.024 . S
O400 C380 1.249 . S
C401 O397 1.251 . S
C401 O398 1.254 . S
H402 C375 0.949 . S
H403 C377 0.950 . S
H404 C384 0.949 . S
H405 C386 0.950 . S
C406 O422 1.251 . S
C406 O424 1.254 . S
N407 C408 1.333 . S
N407 C412 1.307 . S
N407 Zn413 2.020 . S
C408 N407 1.333 . S
C408 C409 1.379 . S
C408 H426 0.952 . S
C409 C408 1.379 . S
C409 C410 1.390 . S
C409 H436 0.949 . S
C410 C409 1.390 . S
C410 C411 1.357 . S
C411 C410 1.357 . S
C411 C412 1.370 . S
C411 H437 0.950 . S
C412 N407 1.307 . S
C412 C411 1.370 . S
C412 H430 0.948 . S
Zn413 N407 2.020 . S
Zn413 O422 2.039 . S
Zn413 O428 2.034 . S
Zn413 O432 2.025 . S
Zn413 O434 2.024 . S
C414 O433 1.246 . S
C414 O434 1.249 . S
N415 C416 1.307 . S
N415 C417 1.333 1_545 S
N415 Zn421 2.020 . S
C416 N415 1.307 . S
C416 C420 1.370 . S
C416 H427 0.948 . S
C417 N415 1.333 1_565 S
C417 C418 1.379 . S
C417 H425 0.952 . S
C418 C417 1.379 . S
C418 C419 1.390 1_565 S
C418 H438 0.949 . S
C419 C418 1.390 1_545 S
C419 C420 1.357 . S
C420 C416 1.370 . S
C420 C419 1.357 . S
C420 H439 0.950 . S
Zn421 N415 2.020 . S
Zn421 O424 2.025 . S
Zn421 O429 2.024 . S
Zn421 O431 2.039 . S
Zn421 O433 2.034 . S
O422 C406 1.251 . S
O422 Zn413 2.039 . S
C423 O428 1.246 . S
C423 O429 1.249 . S
O424 C406 1.254 . S
O424 Zn421 2.025 . S
H425 C417 0.952 . S
H426 C408 0.952 . S
H427 C416 0.948 . S
O428 Zn413 2.034 . S
O428 C423 1.246 . S
O429 Zn421 2.024 . S
O429 C423 1.249 . S
H430 C412 0.948 . S
O431 Zn421 2.039 . S
O431 C435 1.251 1_545 S
O432 Zn413 2.025 . S
O432 C435 1.254 1_545 S
O433 C414 1.246 . S
O433 Zn421 2.034 . S
O434 Zn413 2.024 . S
O434 C414 1.249 . S
C435 O431 1.251 1_565 S
C435 O432 1.254 1_565 S
H436 C409 0.949 . S
H437 C411 0.950 . S
H438 C418 0.949 . S
H439 C420 0.950 . S
C440 C441 1.391 . S
C440 C442 1.394 . S
C440 H456 0.931 . S
C441 C440 1.391 . S
C441 C445 1.376 1_455 S
C442 C440 1.394 . S
C442 C443 1.369 . S
C442 C446 1.531 . S
C443 C442 1.369 . S
C443 C444 1.410 1_455 S
C443 C451 1.503 . S
C444 C443 1.410 1_655 S
C444 C445 1.392 . S
C444 C447 1.511 . S
C445 C441 1.376 1_655 S
C445 C444 1.392 . S
C445 H457 0.929 . S
C446 C442 1.531 . S
C446 H458 0.960 . S
C446 H459 0.962 . S
C446 H460 0.960 . S
C447 C444 1.511 . S
C447 H461 0.961 . S
C447 H462 0.961 . S
C447 H463 0.961 . S
C448 C449 1.370 . S
C448 C450 1.363 . S
C448 H464 0.931 . S
C449 C448 1.370 . S
C449 C453 1.405 1_455 S
C450 C448 1.363 . S
C450 C451 1.370 . S
C450 C454 1.524 . S
C451 C443 1.503 . S
C451 C450 1.370 . S
C451 C452 1.403 1_455 S
C452 C451 1.403 1_655 S
C452 C453 1.404 . S
C452 C455 1.539 . S
C453 C449 1.405 1_655 S
C453 C452 1.404 . S
C453 H465 0.933 . S
C454 C450 1.524 . S
C454 H466 0.956 . S
C454 H467 0.961 . S
C454 H468 0.961 . S
C455 C452 1.539 . S
C455 H469 0.958 . S
C455 H470 0.961 . S
C455 H471 0.960 . S
H456 C440 0.931 . S
H457 C445 0.929 . S
H458 C446 0.960 . S
H459 C446 0.962 . S
H460 C446 0.960 . S
H461 C447 0.961 . S
H462 C447 0.961 . S
H463 C447 0.961 . S
H464 C448 0.931 . S
H465 C453 0.933 . S
H466 C454 0.956 . S
H467 C454 0.961 . S
H468 C454 0.961 . S
H469 C455 0.958 . S
H470 C455 0.961 . S
H471 C455 0.960 . S
C472 C473 1.391 . S
C472 C474 1.394 . S
C472 H488 0.931 . S
C473 C472 1.391 . S
C473 C477 1.376 1_655 S
C474 C472 1.394 . S
C474 C475 1.369 . S
C474 C478 1.531 . S
C475 C474 1.369 . S
C475 C476 1.410 1_655 S
C475 C483 1.503 . S
C476 C475 1.410 1_455 S
C476 C477 1.392 . S
C476 C479 1.511 . S
C477 C473 1.376 1_455 S
C477 C476 1.392 . S
C477 H489 0.929 . S
C478 C474 1.531 . S
C478 H490 0.960 . S
C478 H491 0.962 . S
C478 H492 0.960 . S
C479 C476 1.511 . S
C479 H493 0.961 . S
C479 H494 0.961 . S
C479 H495 0.961 . S
C480 C481 1.370 . S
C480 C482 1.363 . S
C480 H496 0.931 . S
C481 C480 1.370 . S
C481 C485 1.408 1_655 S
C482 C480 1.363 . S
C482 C483 1.370 . S
C482 C486 1.524 . S
C483 C475 1.503 . S
C483 C482 1.370 . S
C483 C484 1.403 1_655 S
C484 C483 1.403 1_455 S
C484 C485 1.404 . S
C484 C487 1.539 . S
C485 C481 1.408 1_455 S
C485 C484 1.404 . S
C485 H497 0.930 . S
C486 C482 1.524 . S
C486 H498 0.956 . S
C486 H499 0.961 . S
C486 H500 0.961 . S
C487 C484 1.539 . S
C487 H501 0.958 . S
C487 H502 0.961 . S
C487 H503 0.960 . S
H488 C472 0.931 . S
H489 C477 0.929 . S
H490 C478 0.960 . S
H491 C478 0.962 . S
H492 C478 0.960 . S
H493 C479 0.961 . S
H494 C479 0.961 . S
H495 C479 0.961 . S
H496 C480 0.931 . S
H497 C485 0.930 . S
H498 C486 0.956 . S
H499 C486 0.961 . S
H500 C486 0.961 . S
H501 C487 0.958 . S
H502 C487 0.961 . S
H503 C487 0.960 . S
C504 C505 1.391 . S
C504 C506 1.394 . S
C504 H520 0.931 . S
C505 C504 1.391 . S
C505 C509 1.376 1_455 S
C506 C504 1.394 . S
C506 C507 1.369 . S
C506 C510 1.531 . S
C507 C506 1.369 . S
C507 C508 1.410 1_455 S
C507 C515 1.503 . S
C508 C507 1.410 1_655 S
C508 C509 1.392 . S
C508 C511 1.511 . S
C509 C505 1.376 1_655 S
C509 C508 1.392 . S
C509 H521 0.929 . S
C510 C506 1.531 . S
C510 H522 0.960 . S
C510 H523 0.962 . S
C510 H524 0.960 . S
C511 C508 1.511 . S
C511 H525 0.961 . S
C511 H526 0.961 . S
C511 H527 0.961 . S
C512 C513 1.370 . S
C512 C514 1.363 . S
C512 H528 0.931 . S
C513 C512 1.370 . S
C513 C517 1.408 . S
C514 C512 1.363 . S
C514 C515 1.370 . S
C514 C518 1.524 . S
C515 C507 1.503 . S
C515 C514 1.370 . S
C515 C516 1.403 . S
C516 C515 1.403 . S
C516 C517 1.404 . S
C516 C519 1.539 1_455 S
C517 C513 1.408 . S
C517 C516 1.404 . S
C517 H529 0.930 1_455 S
C518 C514 1.524 . S
C518 H530 0.956 . S
C518 H531 0.961 . S
C518 H532 0.961 . S
C519 C516 1.539 1_655 S
C519 H533 0.958 . S
C519 H534 0.961 . S
C519 H535 0.960 . S
H520 C504 0.931 . S
H521 C509 0.929 . S
H522 C510 0.960 . S
H523 C510 0.962 . S
H524 C510 0.960 . S
H525 C511 0.961 . S
H526 C511 0.961 . S
H527 C511 0.961 . S
H528 C512 0.931 . S
H529 C517 0.930 1_655 S
H530 C518 0.956 . S
H531 C518 0.961 . S
H532 C518 0.961 . S
H533 C519 0.958 . S
H534 C519 0.961 . S
H535 C519 0.960 . S
C536 C537 1.391 . S
C536 C538 1.394 . S
C536 H552 0.931 . S
C537 C536 1.391 . S
C537 C541 1.376 1_655 S
C538 C536 1.394 . S
C538 C539 1.369 . S
C538 C542 1.531 . S
C539 C538 1.369 . S
C539 C540 1.410 1_655 S
C539 C547 1.503 . S
C540 C539 1.410 1_455 S
C540 C541 1.392 . S
C540 C543 1.511 . S
C541 C537 1.376 1_455 S
C541 C540 1.392 . S
C541 H553 0.929 . S
C542 C538 1.531 . S
C542 H554 0.960 . S
C542 H555 0.962 . S
C542 H556 0.960 . S
C543 C540 1.511 . S
C543 H557 0.961 . S
C543 H558 0.961 . S
C543 H559 0.961 . S
C544 C545 1.370 1_455 S
C544 C546 1.363 . S
C544 H560 0.931 . S
C545 C544 1.370 1_655 S
C545 C549 1.408 . S
C546 C544 1.363 . S
C546 C547 1.370 1_455 S
C546 C550 1.524 . S
C547 C539 1.503 . S
C547 C546 1.370 1_655 S
C547 C548 1.403 . S
C548 C547 1.403 . S
C548 C549 1.404 . S
C548 C551 1.539 . S
C549 C545 1.408 . S
C549 C548 1.404 . S
C549 H561 0.930 . S
C550 C546 1.524 . S
C550 H562 0.956 1_455 S
C550 H563 0.961 . S
C550 H564 0.961 . S
C551 C548 1.539 . S
C551 H565 0.958 . S
C551 H566 0.961 . S
C551 H567 0.960 . S
H552 C536 0.931 . S
H553 C541 0.929 . S
H554 C542 0.960 . S
H555 C542 0.962 . S
H556 C542 0.960 . S
H557 C543 0.961 . S
H558 C543 0.961 . S
H559 C543 0.961 . S
H560 C544 0.931 . S
H561 C549 0.930 . S
H562 C550 0.956 1_655 S
H563 C550 0.961 . S
H564 C550 0.961 . S
H565 C551 0.958 . S
H566 C551 0.961 . S
H567 C551 0.960 . S
C568 C569 1.391 1_565 S
C568 C570 1.394 . S
C568 H584 0.931 . S
C569 C568 1.391 1_545 S
C569 C573 1.376 . S
C570 C568 1.394 . S
C570 C571 1.369 1_565 S
C570 C574 1.531 . S
C571 C570 1.369 1_545 S
C571 C572 1.410 . S
C571 C579 1.503 . S
C572 C571 1.410 . S
C572 C573 1.392 . S
C572 C575 1.511 . S
C573 C569 1.376 . S
C573 C572 1.392 . S
C573 H585 0.929 . S
C574 C570 1.531 . S
C574 H586 0.960 . S
C574 H587 0.962 . S
C574 H588 0.960 . S
C575 C572 1.511 . S
C575 H589 0.961 . S
C575 H590 0.961 . S
C575 H591 0.961 . S
C576 C577 1.370 . S
C576 C578 1.363 . S
C576 H592 0.931 . S
C577 C576 1.370 . S
C577 C581 1.396 1_545 S
C578 C576 1.363 . S
C578 C579 1.370 . S
C578 C582 1.524 . S
C579 C571 1.503 . S
C579 C578 1.370 . S
C579 C580 1.380 1_545 S
C580 C579 1.380 1_565 S
C580 C581 1.405 . S
C580 C583 1.559 . S
C581 C577 1.396 1_565 S
C581 C580 1.405 . S
C581 H593 0.943 . S
C582 C578 1.524 . S
C582 H594 0.956 . S
C582 H595 0.961 . S
C582 H596 0.961 . S
C583 C580 1.559 . S
C583 H597 0.958 . S
C583 H598 0.961 . S
C583 H599 0.960 . S
H584 C568 0.931 . S
H585 C573 0.929 . S
H586 C574 0.960 . S
H587 C574 0.962 . S
H588 C574 0.960 . S
H589 C575 0.961 . S
H590 C575 0.961 . S
H591 C575 0.961 . S
H592 C576 0.931 . S
H593 C581 0.943 . S
H594 C582 0.956 . S
H595 C582 0.961 . S
H596 C582 0.961 . S
H597 C583 0.958 . S
H598 C583 0.961 . S
H599 C583 0.960 . S
C600 C601 1.391 . S
C600 C602 1.394 . S
C600 H616 0.931 . S
C601 C600 1.391 . S
C601 C605 1.376 . S
C602 C600 1.394 . S
C602 C603 1.369 . S
C602 C606 1.531 . S
C603 C602 1.369 . S
C603 C604 1.410 . S
C603 C611 1.503 . S
C604 C603 1.410 . S
C604 C605 1.392 . S
C604 C607 1.511 . S
C605 C601 1.376 . S
C605 C604 1.392 . S
C605 H617 0.929 . S
C606 C602 1.531 . S
C606 H618 0.960 . S
C606 H619 0.962 . S
C606 H620 0.960 . S
C607 C604 1.511 . S
C607 H621 0.961 . S
C607 H622 0.961 . S
C607 H623 0.961 . S
C608 C609 1.370 . S
C608 C610 1.363 . S
C608 H624 0.931 . S
C609 C608 1.370 . S
C609 C613 1.408 . S
C610 C608 1.363 . S
C610 C611 1.370 . S
C610 C614 1.524 . S
C611 C603 1.503 . S
C611 C610 1.370 . S
C611 C612 1.403 . S
C612 C611 1.403 . S
C612 C613 1.404 . S
C612 C615 1.539 . S
C613 C609 1.408 . S
C613 C612 1.404 . S
C613 H625 0.930 . S
C614 C610 1.524 . S
C614 H626 0.956 . S
C614 H627 0.961 . S
C614 H628 0.961 . S
C615 C612 1.539 . S
C615 H629 0.958 . S
C615 H630 0.961 . S
C615 H631 0.960 . S
H616 C600 0.931 . S
H617 C605 0.929 . S
H618 C606 0.960 . S
H619 C606 0.962 . S
H620 C606 0.960 . S
H621 C607 0.961 . S
H622 C607 0.961 . S
H623 C607 0.961 . S
H624 C608 0.931 . S
H625 C613 0.930 . S
H626 C614 0.956 . S
H627 C614 0.961 . S
H628 C614 0.961 . S
H629 C615 0.958 . S
H630 C615 0.961 . S
H631 C615 0.960 . S
C632 C633 1.391 . S
C632 C634 1.394 . S
C632 H648 0.931 . S
C633 C632 1.391 . S
C633 C637 1.376 1_545 S
C634 C632 1.394 . S
C634 C635 1.369 . S
C634 C638 1.531 . S
C635 C634 1.369 . S
C635 C636 1.410 . S
C635 C643 1.503 . S
C636 C635 1.410 . S
C636 C637 1.392 1_545 S
C636 C639 1.511 1_545 S
C637 C633 1.376 1_565 S
C637 C636 1.392 1_565 S
C637 H649 0.929 . S
C638 C634 1.531 . S
C638 H650 0.960 . S
C638 H651 0.962 . S
C638 H652 0.960 . S
C639 C636 1.511 1_565 S
C639 H653 0.961 . S
C639 H654 0.961 . S
C639 H655 0.961 1_565 S
C640 C641 1.370 . S
C640 C642 1.363 . S
C640 H656 0.931 1_545 S
C641 C640 1.370 . S
C641 C645 1.408 . S
C642 C640 1.363 . S
C642 C643 1.370 . S
C642 C646 1.524 1_545 S
C643 C635 1.503 . S
C643 C642 1.370 . S
C643 C644 1.403 . S
C644 C643 1.403 . S
C644 C645 1.404 . S
C644 C647 1.539 . S
C645 C641 1.408 . S
C645 C644 1.404 . S
C645 H657 0.930 . S
C646 C642 1.524 1_565 S
C646 H658 0.956 . S
C646 H659 0.961 . S
C646 H660 0.961 . S
C647 C644 1.539 . S
C647 H661 0.958 . S
C647 H662 0.961 . S
C647 H663 0.960 . S
H648 C632 0.931 . S
H649 C637 0.929 . S
H650 C638 0.960 . S
H651 C638 0.962 . S
H652 C638 0.960 . S
H653 C639 0.961 . S
H654 C639 0.961 . S
H655 C639 0.961 1_545 S
H656 C640 0.931 1_565 S
H657 C645 0.930 . S
H658 C646 0.956 . S
H659 C646 0.961 . S
H660 C646 0.961 . S
H661 C647 0.958 . S
H662 C647 0.961 . S
H663 C647 0.960 . S
C664 C665 1.391 . S
C664 C666 1.394 . S
C664 H680 0.931 . S
C665 C664 1.391 . S
C665 C669 1.376 . S
C666 C664 1.394 . S
C666 C667 1.369 . S
C666 C670 1.531 . S
C667 C666 1.369 . S
C667 C668 1.410 . S
C667 C675 1.503 . S
C668 C667 1.410 . S
C668 C669 1.392 . S
C668 C671 1.511 . S
C669 C665 1.376 . S
C669 C668 1.392 . S
C669 H681 0.929 . S
C670 C666 1.531 . S
C670 H682 0.960 . S
C670 H683 0.962 . S
C670 H684 0.960 . S
C671 C668 1.511 . S
C671 H685 0.961 . S
C671 H686 0.961 . S
C671 H687 0.961 . S
C672 C673 1.370 . S
C672 C674 1.363 . S
C672 H688 0.931 . S
C673 C672 1.370 . S
C673 C677 1.408 . S
C674 C672 1.363 . S
C674 C675 1.370 . S
C674 C678 1.524 . S
C675 C667 1.503 . S
C675 C674 1.370 . S
C675 C676 1.403 . S
C676 C675 1.403 . S
C676 C677 1.404 . S
C676 C679 1.539 . S
C677 C673 1.408 . S
C677 C676 1.404 . S
C677 H689 0.930 . S
C678 C674 1.524 . S
C678 H690 0.956 . S
C678 H691 0.961 . S
C678 H692 0.961 . S
C679 C676 1.539 . S
C679 H693 0.958 . S
C679 H694 0.961 . S
C679 H695 0.960 . S
H680 C664 0.931 . S
H681 C669 0.929 . S
H682 C670 0.960 . S
H683 C670 0.962 . S
H684 C670 0.960 . S
H685 C671 0.961 . S
H686 C671 0.961 . S
H687 C671 0.961 . S
H688 C672 0.931 . S
H689 C677 0.930 . S
H690 C678 0.956 . S
H691 C678 0.961 . S
H692 C678 0.961 . S
H693 C679 0.958 . S
H694 C679 0.961 . S
H695 C679 0.960 . S
C696 C697 1.391 1_556 S
C696 C698 1.394 . S
C696 H712 0.931 . S
C697 C696 1.391 1_554 S
C697 C701 1.376 . S
C698 C696 1.394 . S
C698 C699 1.369 1_556 S
C698 C702 1.531 . S
C699 C698 1.369 1_554 S
C699 C700 1.410 . S
C699 C707 1.503 . S
C700 C699 1.410 . S
C700 C701 1.392 . S
C700 C703 1.511 . S
C701 C697 1.376 . S
C701 C700 1.392 . S
C701 H713 0.929 . S
C702 C698 1.531 . S
C702 H714 0.960 . S
C702 H715 0.962 . S
C702 H716 0.960 . S
C703 C700 1.511 . S
C703 H717 0.961 . S
C703 H718 0.961 . S
C703 H719 0.961 . S
C704 C705 1.370 . S
C704 C706 1.363 . S
C704 H720 0.931 . S
C705 C704 1.370 . S
C705 C709 1.408 1_554 S
C706 C704 1.363 . S
C706 C707 1.370 . S
C706 C710 1.524 . S
C707 C699 1.503 . S
C707 C706 1.370 . S
C707 C708 1.403 1_554 S
C708 C707 1.403 1_556 S
C708 C709 1.404 . S
C708 C711 1.539 . S
C709 C705 1.408 1_556 S
C709 C708 1.404 . S
C709 H721 0.930 . S
C710 C706 1.524 . S
C710 H722 0.956 . S
C710 H723 0.961 . S
C710 H724 0.961 . S
C711 C708 1.539 . S
C711 H725 0.958 . S
C711 H726 0.961 . S
C711 H727 0.960 . S
H712 C696 0.931 . S
H713 C701 0.929 . S
H714 C702 0.960 . S
H715 C702 0.962 . S
H716 C702 0.960 . S
H717 C703 0.961 . S
H718 C703 0.961 . S
H719 C703 0.961 . S
H720 C704 0.931 . S
H721 C709 0.930 . S
H722 C710 0.956 . S
H723 C710 0.961 . S
H724 C710 0.961 . S
H725 C711 0.958 . S
H726 C711 0.961 . S
H727 C711 0.960 . S
C728 C729 1.391 . S
C728 C730 1.394 . S
C728 H744 0.931 . S
C729 C728 1.391 . S
C729 C733 1.376 . S
C730 C728 1.394 . S
C730 C731 1.369 . S
C730 C734 1.531 . S
C731 C730 1.369 . S
C731 C732 1.410 . S
C731 C739 1.503 . S
C732 C731 1.410 . S
C732 C733 1.392 . S
C732 C735 1.511 . S
C733 C729 1.376 . S
C733 C732 1.392 . S
C733 H745 0.929 . S
C734 C730 1.531 . S
C734 H746 0.960 . S
C734 H747 0.962 . S
C734 H748 0.960 . S
C735 C732 1.511 . S
C735 H749 0.961 . S
C735 H750 0.961 . S
C735 H751 0.961 . S
C736 C737 1.370 . S
C736 C738 1.363 . S
C736 H752 0.931 . S
C737 C736 1.370 . S
C737 C741 1.408 . S
C738 C736 1.363 . S
C738 C739 1.370 . S
C738 C742 1.524 . S
C739 C731 1.503 . S
C739 C738 1.370 . S
C739 C740 1.403 . S
C740 C739 1.403 . S
C740 C741 1.404 . S
C740 C743 1.539 . S
C741 C737 1.408 . S
C741 C740 1.404 . S
C741 H753 0.930 . S
C742 C738 1.524 . S
C742 H754 0.956 . S
C742 H755 0.961 . S
C742 H756 0.961 . S
C743 C740 1.539 . S
C743 H757 0.958 . S
C743 H758 0.961 . S
C743 H759 0.960 . S
H744 C728 0.931 . S
H745 C733 0.929 . S
H746 C734 0.960 . S
H747 C734 0.962 . S
H748 C734 0.960 . S
H749 C735 0.961 . S
H750 C735 0.961 . S
H751 C735 0.961 . S
H752 C736 0.931 . S
H753 C741 0.930 . S
H754 C742 0.956 . S
H755 C742 0.961 . S
H756 C742 0.961 . S
H757 C743 0.958 . S
H758 C743 0.961 . S
H759 C743 0.960 . S
C760 C761 1.391 . S
C760 C762 1.394 . S
C760 H776 0.931 . S
C761 C760 1.391 . S
C761 C765 1.376 . S
C762 C760 1.394 . S
C762 C763 1.369 . S
C762 C766 1.531 . S
C763 C762 1.369 . S
C763 C764 1.410 . S
C763 C771 1.503 . S
C764 C763 1.410 . S
C764 C765 1.392 . S
C764 C767 1.511 . S
C765 C761 1.376 . S
C765 C764 1.392 . S
C765 H777 0.929 . S
C766 C762 1.531 . S
C766 H778 0.960 . S
C766 H779 0.962 . S
C766 H780 0.960 . S
C767 C764 1.511 . S
C767 H781 0.961 . S
C767 H782 0.961 . S
C767 H783 0.961 . S
C768 C769 1.370 . S
C768 C770 1.363 . S
C768 H784 0.931 . S
C769 C768 1.370 . S
C769 C773 1.408 . S
C770 C768 1.363 . S
C770 C771 1.370 . S
C770 C774 1.524 . S
C771 C763 1.503 . S
C771 C770 1.370 . S
C771 C772 1.403 . S
C772 C771 1.403 . S
C772 C773 1.404 . S
C772 C775 1.539 . S
C773 C769 1.408 . S
C773 C772 1.404 . S
C773 H785 0.930 . S
C774 C770 1.524 . S
C774 H786 0.956 . S
C774 H787 0.961 . S
C774 H788 0.961 . S
C775 C772 1.539 . S
C775 H789 0.958 . S
C775 H790 0.961 . S
C775 H791 0.960 . S
H776 C760 0.931 . S
H777 C765 0.929 . S
H778 C766 0.960 . S
H779 C766 0.962 . S
H780 C766 0.960 . S
H781 C767 0.961 . S
H782 C767 0.961 . S
H783 C767 0.961 . S
H784 C768 0.931 . S
H785 C773 0.930 . S
H786 C774 0.956 . S
H787 C774 0.961 . S
H788 C774 0.961 . S
H789 C775 0.958 . S
H790 C775 0.961 . S
H791 C775 0.960 . S
C792 C793 1.391 . S
C792 C794 1.394 . S
C792 H808 0.931 . S
C793 C792 1.391 . S
C793 C797 1.376 . S
C794 C792 1.394 . S
C794 C795 1.369 . S
C794 C798 1.531 . S
C795 C794 1.369 . S
C795 C796 1.410 . S
C795 C803 1.503 . S
C796 C795 1.410 . S
C796 C797 1.392 . S
C796 C799 1.511 . S
C797 C793 1.376 . S
C797 C796 1.392 . S
C797 H809 0.929 . S
C798 C794 1.531 . S
C798 H810 0.960 . S
C798 H811 0.962 . S
C798 H812 0.960 . S
C799 C796 1.511 . S
C799 H813 0.961 . S
C799 H814 0.961 . S
C799 H815 0.961 . S
C800 C801 1.370 . S
C800 C802 1.363 . S
C800 H816 0.931 . S
C801 C800 1.370 . S
C801 C805 1.408 . S
C802 C800 1.363 . S
C802 C803 1.370 . S
C802 C806 1.524 . S
C803 C795 1.503 . S
C803 C802 1.370 . S
C803 C804 1.403 . S
C804 C803 1.403 . S
C804 C805 1.404 . S
C804 C807 1.539 . S
C805 C801 1.408 . S
C805 C804 1.404 . S
C805 H817 0.930 . S
C806 C802 1.524 . S
C806 H818 0.956 . S
C806 H819 0.961 . S
C806 H820 0.961 . S
C807 C804 1.539 . S
C807 H821 0.958 . S
C807 H822 0.961 . S
C807 H823 0.960 . S
H808 C792 0.931 . S
H809 C797 0.929 . S
H810 C798 0.960 . S
H811 C798 0.962 . S
H812 C798 0.960 . S
H813 C799 0.961 . S
H814 C799 0.961 . S
H815 C799 0.961 . S
H816 C800 0.931 . S
H817 C805 0.930 . S
H818 C806 0.956 . S
H819 C806 0.961 . S
H820 C806 0.961 . S
H821 C807 0.958 . S
H822 C807 0.961 . S
H823 C807 0.960 . S
C824 C825 1.391 . S
C824 C826 1.394 . S
C824 H840 0.931 . S
C825 C824 1.391 . S
C825 C829 1.376 . S
C826 C824 1.394 . S
C826 C827 1.369 . S
C826 C830 1.531 . S
C827 C826 1.369 . S
C827 C828 1.410 . S
C827 C835 1.503 . S
C828 C827 1.410 . S
C828 C829 1.392 . S
C828 C831 1.511 . S
C829 C825 1.376 . S
C829 C828 1.392 . S
C829 H841 0.929 . S
C830 C826 1.531 . S
C830 H842 0.960 . S
C830 H843 0.962 . S
C830 H844 0.960 . S
C831 C828 1.511 . S
C831 H845 0.961 . S
C831 H846 0.961 . S
C831 H847 0.961 . S
C832 C833 1.370 . S
C832 C834 1.363 . S
C832 H848 0.931 . S
C833 C832 1.370 . S
C833 C837 1.408 . S
C834 C832 1.363 . S
C834 C835 1.370 . S
C834 C838 1.524 . S
C835 C827 1.503 . S
C835 C834 1.370 . S
C835 C836 1.403 . S
C836 C835 1.403 . S
C836 C837 1.404 . S
C836 C839 1.539 . S
C837 C833 1.408 . S
C837 C836 1.404 . S
C837 H849 0.930 . S
C838 C834 1.524 . S
C838 H850 0.956 . S
C838 H851 0.961 . S
C838 H852 0.961 . S
C839 C836 1.539 . S
C839 H853 0.958 . S
C839 H854 0.961 . S
C839 H855 0.960 . S
H840 C824 0.931 . S
H841 C829 0.929 . S
H842 C830 0.960 . S
H843 C830 0.962 . S
H844 C830 0.960 . S
H845 C831 0.961 . S
H846 C831 0.961 . S
H847 C831 0.961 . S
H848 C832 0.931 . S
H849 C837 0.930 . S
H850 C838 0.956 . S
H851 C838 0.961 . S
H852 C838 0.961 . S
H853 C839 0.958 . S
H854 C839 0.961 . S
H855 C839 0.960 . S
C856 C857 1.391 . S
C856 C858 1.394 . S
C856 H872 0.931 . S
C857 C856 1.391 . S
C857 C861 1.376 . S
C858 C856 1.394 . S
C858 C859 1.369 . S
C858 C862 1.531 . S
C859 C858 1.369 . S
C859 C860 1.410 . S
C859 C867 1.503 . S
C860 C859 1.410 . S
C860 C861 1.392 . S
C860 C863 1.511 . S
C861 C857 1.376 . S
C861 C860 1.392 . S
C861 H873 0.929 . S
C862 C858 1.531 . S
C862 H874 0.960 . S
C862 H875 0.962 . S
C862 H876 0.960 . S
C863 C860 1.511 . S
C863 H877 0.961 . S
C863 H878 0.961 . S
C863 H879 0.961 . S
C864 C865 1.370 . S
C864 C866 1.363 . S
C864 H880 0.931 . S
C865 C864 1.370 . S
C865 C869 1.408 . S
C866 C864 1.363 . S
C866 C867 1.370 . S
C866 C870 1.524 . S
C867 C859 1.503 . S
C867 C866 1.370 . S
C867 C868 1.403 . S
C868 C867 1.403 . S
C868 C869 1.404 . S
C868 C871 1.539 . S
C869 C865 1.408 . S
C869 C868 1.404 . S
C869 H881 0.930 . S
C870 C866 1.524 . S
C870 H882 0.956 . S
C870 H883 0.961 . S
C870 H884 0.961 . S
C871 C868 1.539 . S
C871 H885 0.958 . S
C871 H886 0.961 . S
C871 H887 0.960 . S
H872 C856 0.931 . S
H873 C861 0.929 . S
H874 C862 0.960 . S
H875 C862 0.962 . S
H876 C862 0.960 . S
H877 C863 0.961 . S
H878 C863 0.961 . S
H879 C863 0.961 . S
H880 C864 0.931 . S
H881 C869 0.930 . S
H882 C870 0.956 . S
H883 C870 0.961 . S
H884 C870 0.961 . S
H885 C871 0.958 . S
H886 C871 0.961 . S
H887 C871 0.960 . S
C888 C889 1.391 . S
C888 C890 1.394 . S
C888 H904 0.931 . S
C889 C888 1.391 . S
C889 C893 1.376 . S
C890 C888 1.394 . S
C890 C891 1.369 . S
C890 C894 1.531 . S
C891 C890 1.369 . S
C891 C892 1.410 . S
C891 C899 1.503 . S
C892 C891 1.410 . S
C892 C893 1.392 . S
C892 C895 1.511 . S
C893 C889 1.376 . S
C893 C892 1.392 . S
C893 H905 0.929 . S
C894 C890 1.531 . S
C894 H906 0.960 . S
C894 H907 0.962 . S
C894 H908 0.960 . S
C895 C892 1.511 . S
C895 H909 0.961 . S
C895 H910 0.961 . S
C895 H911 0.961 . S
C896 C897 1.370 . S
C896 C898 1.363 . S
C896 H912 0.931 . S
C897 C896 1.370 . S
C897 C901 1.408 . S
C898 C896 1.363 . S
C898 C899 1.370 . S
C898 C902 1.524 . S
C899 C891 1.503 . S
C899 C898 1.370 . S
C899 C900 1.403 . S
C900 C899 1.403 . S
C900 C901 1.404 . S
C900 C903 1.539 . S
C901 C897 1.408 . S
C901 C900 1.404 . S
C901 H913 0.930 . S
C902 C898 1.524 . S
C902 H914 0.956 . S
C902 H915 0.961 . S
C902 H916 0.961 . S
C903 C900 1.539 . S
C903 H917 0.958 . S
C903 H918 0.961 . S
C903 H919 0.960 . S
H904 C888 0.931 . S
H905 C893 0.929 . S
H906 C894 0.960 . S
H907 C894 0.962 . S
H908 C894 0.960 . S
H909 C895 0.961 . S
H910 C895 0.961 . S
H911 C895 0.961 . S
H912 C896 0.931 . S
H913 C901 0.930 . S
H914 C902 0.956 . S
H915 C902 0.961 . S
H916 C902 0.961 . S
H917 C903 0.958 . S
H918 C903 0.961 . S
H919 C903 0.960 . S
C920 C921 1.391 . S
C920 C922 1.394 . S
C920 H936 0.931 . S
C921 C920 1.391 . S
C921 C925 1.376 . S
C922 C920 1.394 . S
C922 C923 1.369 . S
C922 C926 1.531 . S
C923 C922 1.369 . S
C923 C924 1.410 . S
C923 C931 1.503 . S
C924 C923 1.410 . S
C924 C925 1.392 . S
C924 C927 1.511 . S
C925 C921 1.376 . S
C925 C924 1.392 . S
C925 H937 0.929 . S
C926 C922 1.531 . S
C926 H938 0.960 . S
C926 H939 0.962 . S
C926 H940 0.960 . S
C927 C924 1.511 . S
C927 H941 0.961 . S
C927 H942 0.961 . S
C927 H943 0.961 . S
C928 C929 1.370 . S
C928 C930 1.363 . S
C928 H944 0.931 . S
C929 C928 1.370 . S
C929 C933 1.408 . S
C930 C928 1.363 . S
C930 C931 1.370 . S
C930 C934 1.524 . S
C931 C923 1.503 . S
C931 C930 1.370 . S
C931 C932 1.403 . S
C932 C931 1.403 . S
C932 C933 1.404 . S
C932 C935 1.539 . S
C933 C929 1.408 . S
C933 C932 1.404 . S
C933 H945 0.930 . S
C934 C930 1.524 . S
C934 H946 0.956 . S
C934 H947 0.961 . S
C934 H948 0.961 . S
C935 C932 1.539 . S
C935 H949 0.958 . S
C935 H950 0.961 . S
C935 H951 0.960 . S
H936 C920 0.931 . S
H937 C925 0.929 . S
H938 C926 0.960 . S
H939 C926 0.962 . S
H940 C926 0.960 . S
H941 C927 0.961 . S
H942 C927 0.961 . S
H943 C927 0.961 . S
H944 C928 0.931 . S
H945 C933 0.930 . S
H946 C934 0.956 . S
H947 C934 0.961 . S
H948 C934 0.961 . S
H949 C935 0.958 . S
H950 C935 0.961 . S
H951 C935 0.960 . S
C952 C953 1.391 . S
C952 C954 1.394 . S
C952 H968 0.931 . S
C953 C952 1.391 . S
C953 C957 1.376 . S
C954 C952 1.394 . S
C954 C955 1.369 . S
C954 C958 1.531 . S
C955 C954 1.369 . S
C955 C956 1.410 . S
C955 C963 1.503 . S
C956 C955 1.410 . S
C956 C957 1.392 . S
C956 C959 1.511 . S
C957 C953 1.376 . S
C957 C956 1.392 . S
C957 H969 0.929 . S
C958 C954 1.531 . S
C958 H970 0.960 . S
C958 H971 0.962 . S
C958 H972 0.960 . S
C959 C956 1.511 . S
C959 H973 0.961 . S
C959 H974 0.961 . S
C959 H975 0.961 . S
C960 C961 1.370 . S
C960 C962 1.363 . S
C960 H976 0.931 . S
C961 C960 1.370 . S
C961 C965 1.408 . S
C962 C960 1.363 . S
C962 C963 1.370 . S
C962 C966 1.524 . S
C963 C955 1.503 . S
C963 C962 1.370 . S
C963 C964 1.403 . S
C964 C963 1.403 . S
C964 C965 1.404 . S
C964 C967 1.539 . S
C965 C961 1.408 . S
C965 C964 1.404 . S
C965 H977 0.930 . S
C966 C962 1.524 . S
C966 H978 0.956 . S
C966 H979 0.961 . S
C966 H980 0.961 . S
C967 C964 1.539 . S
C967 H981 0.958 . S
C967 H982 0.961 . S
C967 H983 0.960 . S
H968 C952 0.931 . S
H969 C957 0.929 . S
H970 C958 0.960 . S
H971 C958 0.962 . S
H972 C958 0.960 . S
H973 C959 0.961 . S
H974 C959 0.961 . S
H975 C959 0.961 . S
H976 C960 0.931 . S
H977 C965 0.930 . S
H978 C966 0.956 . S
H979 C966 0.961 . S
H980 C966 0.961 . S
H981 C967 0.958 . S
H982 C967 0.961 . S
H983 C967 0.960 . S
C984 C985 1.391 1_545 S
C984 C986 1.394 . S
C984 H1000 0.931 . S
C985 C984 1.391 1_565 S
C985 C989 1.376 . S
C986 C984 1.394 . S
C986 C987 1.369 1_545 S
C986 C990 1.531 . S
C987 C986 1.369 1_565 S
C987 C988 1.410 . S
C987 C995 1.503 . S
C988 C987 1.410 . S
C988 C989 1.392 . S
C988 C991 1.511 . S
C989 C985 1.376 . S
C989 C988 1.392 . S
C989 H1001 0.929 . S
C990 C986 1.531 . S
C990 H1002 0.960 . S
C990 H1003 0.962 . S
C990 H1004 0.960 . S
C991 C988 1.511 . S
C991 H1005 0.961 . S
C991 H1006 0.961 . S
C991 H1007 0.961 . S
C992 C993 1.370 . S
C992 C994 1.363 . S
C992 H1008 0.931 . S
C993 C992 1.370 . S
C993 C997 1.408 1_545 S
C994 C992 1.363 . S
C994 C995 1.370 1_545 S
C994 C998 1.524 . S
C995 C987 1.503 . S
C995 C994 1.370 1_565 S
C995 C996 1.403 . S
C996 C995 1.403 . S
C996 C997 1.404 . S
C996 C999 1.539 . S
C997 C993 1.408 1_565 S
C997 C996 1.404 . S
C997 H1009 0.930 . S
C998 C994 1.524 . S
C998 H1010 0.956 . S
C998 H1011 0.961 . S
C998 H1012 0.961 . S
C999 C996 1.539 . S
C999 H1013 0.958 . S
C999 H1014 0.961 . S
C999 H1015 0.960 . S
H1000 C984 0.931 . S
H1001 C989 0.929 . S
H1002 C990 0.960 . S
H1003 C990 0.962 . S
H1004 C990 0.960 . S
H1005 C991 0.961 . S
H1006 C991 0.961 . S
H1007 C991 0.961 . S
H1008 C992 0.931 . S
H1009 C997 0.930 . S
H1010 C998 0.956 . S
H1011 C998 0.961 . S
H1012 C998 0.961 . S
H1013 C999 0.958 . S
H1014 C999 0.961 . S
H1015 C999 0.960 . S
C1016 C1017 1.391 . S
C1016 C1018 1.394 . S
C1016 H1032 0.931 . S
C1017 C1016 1.391 . S
C1017 C1021 1.376 . S
C1018 C1016 1.394 . S
C1018 C1019 1.369 . S
C1018 C1022 1.531 . S
C1019 C1018 1.369 . S
C1019 C1020 1.410 . S
C1019 C1027 1.503 . S
C1020 C1019 1.410 . S
C1020 C1021 1.392 . S
C1020 C1023 1.511 . S
C1021 C1017 1.376 . S
C1021 C1020 1.392 . S
C1021 H1033 0.929 . S
C1022 C1018 1.531 . S
C1022 H1034 0.960 . S
C1022 H1035 0.962 . S
C1022 H1036 0.960 . S
C1023 C1020 1.511 . S
C1023 H1037 0.961 . S
C1023 H1038 0.961 . S
C1023 H1039 0.961 . S
C1024 C1025 1.370 . S
C1024 C1026 1.363 . S
C1024 H1040 0.931 . S
C1025 C1024 1.370 . S
C1025 C1029 1.408 . S
C1026 C1024 1.363 . S
C1026 C1027 1.370 . S
C1026 C1030 1.524 . S
C1027 C1019 1.503 . S
C1027 C1026 1.370 . S
C1027 C1028 1.403 . S
C1028 C1027 1.403 . S
C1028 C1029 1.404 . S
C1028 C1031 1.539 . S
C1029 C1025 1.408 . S
C1029 C1028 1.404 . S
C1029 H1041 0.930 . S
C1030 C1026 1.524 . S
C1030 H1042 0.956 . S
C1030 H1043 0.961 . S
C1030 H1044 0.961 . S
C1031 C1028 1.539 . S
C1031 H1045 0.958 . S
C1031 H1046 0.961 . S
C1031 H1047 0.960 . S
H1032 C1016 0.931 . S
H1033 C1021 0.929 . S
H1034 C1022 0.960 . S
H1035 C1022 0.962 . S
H1036 C1022 0.960 . S
H1037 C1023 0.961 . S
H1038 C1023 0.961 . S
H1039 C1023 0.961 . S
H1040 C1024 0.931 . S
H1041 C1029 0.930 . S
H1042 C1030 0.956 . S
H1043 C1030 0.961 . S
H1044 C1030 0.961 . S
H1045 C1031 0.958 . S
H1046 C1031 0.961 . S
H1047 C1031 0.960 . S
C1048 C1049 1.391 . S
C1048 C1050 1.394 . S
C1048 H1064 0.931 . S
C1049 C1048 1.391 . S
C1049 C1053 1.376 1_545 S
C1050 C1048 1.394 . S
C1050 C1051 1.369 . S
C1050 C1054 1.531 . S
C1051 C1050 1.369 . S
C1051 C1052 1.410 1_545 S
C1051 C1059 1.503 . S
C1052 C1051 1.410 1_565 S
C1052 C1053 1.392 . S
C1052 C1055 1.511 . S
C1053 C1049 1.376 1_565 S
C1053 C1052 1.392 . S
C1053 H1065 0.929 . S
C1054 C1050 1.531 . S
C1054 H1066 0.960 . S
C1054 H1067 0.962 . S
C1054 H1068 0.960 . S
C1055 C1052 1.511 . S
C1055 H1069 0.961 . S
C1055 H1070 0.961 . S
C1055 H1071 0.961 . S
C1056 C1057 1.370 . S
C1056 C1058 1.363 . S
C1056 H1072 0.931 . S
C1057 C1056 1.370 . S
C1057 C1061 1.408 1_565 S
C1058 C1056 1.363 . S
C1058 C1059 1.370 1_565 S
C1058 C1062 1.524 . S
C1059 C1051 1.503 . S
C1059 C1058 1.370 1_545 S
C1059 C1060 1.403 . S
C1060 C1059 1.403 . S
C1060 C1061 1.404 . S
C1060 C1063 1.539 . S
C1061 C1057 1.408 1_545 S
C1061 C1060 1.404 . S
C1061 H1073 0.930 . S
C1062 C1058 1.524 . S
C1062 H1074 0.956 . S
C1062 H1075 0.961 . S
C1062 H1076 0.961 . S
C1063 C1060 1.539 . S
C1063 H1077 0.958 . S
C1063 H1078 0.961 . S
C1063 H1079 0.960 . S
H1064 C1048 0.931 . S
H1065 C1053 0.929 . S
H1066 C1054 0.960 . S
H1067 C1054 0.962 . S
H1068 C1054 0.960 . S
H1069 C1055 0.961 . S
H1070 C1055 0.961 . S
H1071 C1055 0.961 . S
H1072 C1056 0.931 . S
H1073 C1061 0.930 . S
H1074 C1062 0.956 . S
H1075 C1062 0.961 . S
H1076 C1062 0.961 . S
H1077 C1063 0.958 . S
H1078 C1063 0.961 . S
H1079 C1063 0.960 . S
C1080 C1081 1.391 . S
C1080 C1082 1.394 . S
C1080 H1096 0.931 . S
C1081 C1080 1.391 . S
C1081 C1085 1.376 . S
C1082 C1080 1.394 . S
C1082 C1083 1.369 . S
C1082 C1086 1.531 . S
C1083 C1082 1.369 . S
C1083 C1084 1.410 . S
C1083 C1091 1.503 . S
C1084 C1083 1.410 . S
C1084 C1085 1.392 . S
C1084 C1087 1.511 . S
C1085 C1081 1.376 . S
C1085 C1084 1.392 . S
C1085 H1097 0.929 . S
C1086 C1082 1.531 . S
C1086 H1098 0.960 . S
C1086 H1099 0.962 . S
C1086 H1100 0.960 . S
C1087 C1084 1.511 . S
C1087 H1101 0.961 . S
C1087 H1102 0.961 . S
C1087 H1103 0.961 . S
C1088 C1089 1.370 . S
C1088 C1090 1.363 . S
C1088 H1104 0.931 . S
C1089 C1088 1.370 . S
C1089 C1093 1.408 . S
C1090 C1088 1.363 . S
C1090 C1091 1.370 . S
C1090 C1094 1.524 . S
C1091 C1083 1.503 . S
C1091 C1090 1.370 . S
C1091 C1092 1.403 . S
C1092 C1091 1.403 . S
C1092 C1093 1.404 . S
C1092 C1095 1.539 . S
C1093 C1089 1.408 . S
C1093 C1092 1.404 . S
C1093 H1105 0.930 . S
C1094 C1090 1.524 . S
C1094 H1106 0.956 . S
C1094 H1107 0.961 . S
C1094 H1108 0.961 . S
C1095 C1092 1.539 . S
C1095 H1109 0.958 . S
C1095 H1110 0.961 . S
C1095 H1111 0.960 . S
H1096 C1080 0.931 . S
H1097 C1085 0.929 . S
H1098 C1086 0.960 . S
H1099 C1086 0.962 . S
H1100 C1086 0.960 . S
H1101 C1087 0.961 . S
H1102 C1087 0.961 . S
H1103 C1087 0.961 . S
H1104 C1088 0.931 . S
H1105 C1093 0.930 . S
H1106 C1094 0.956 . S
H1107 C1094 0.961 . S
H1108 C1094 0.961 . S
H1109 C1095 0.958 . S
H1110 C1095 0.961 . S
H1111 C1095 0.960 . S
C1112 C1113 1.391 1_554 S
C1112 C1114 1.394 . S
C1112 H1128 0.931 . S
C1113 C1112 1.391 1_556 S
C1113 C1117 1.376 . S
C1114 C1112 1.394 . S
C1114 C1115 1.369 1_554 S
C1114 C1118 1.531 . S
C1115 C1114 1.369 1_556 S
C1115 C1116 1.410 . S
C1115 C1123 1.503 . S
C1116 C1115 1.410 . S
C1116 C1117 1.392 . S
C1116 C1119 1.511 . S
C1117 C1113 1.376 . S
C1117 C1116 1.392 . S
C1117 H1129 0.929 . S
C1118 C1114 1.531 . S
C1118 H1130 0.960 . S
C1118 H1131 0.962 . S
C1118 H1132 0.960 . S
C1119 C1116 1.511 . S
C1119 H1133 0.961 . S
C1119 H1134 0.961 . S
C1119 H1135 0.961 . S
C1120 C1121 1.370 1_554 S
C1120 C1122 1.363 . S
C1120 H1136 0.931 . S
C1121 C1120 1.370 1_556 S
C1121 C1125 1.408 . S
C1122 C1120 1.363 . S
C1122 C1123 1.370 1_554 S
C1122 C1126 1.524 . S
C1123 C1115 1.503 . S
C1123 C1122 1.370 1_556 S
C1123 C1124 1.403 . S
C1124 C1123 1.403 . S
C1124 C1125 1.404 . S
C1124 C1127 1.539 . S
C1125 C1121 1.408 . S
C1125 C1124 1.404 . S
C1125 H1137 0.930 . S
C1126 C1122 1.524 . S
C1126 H1138 0.956 . S
C1126 H1139 0.961 . S
C1126 H1140 0.961 . S
C1127 C1124 1.539 . S
C1127 H1141 0.958 . S
C1127 H1142 0.961 . S
C1127 H1143 0.960 . S
H1128 C1112 0.931 . S
H1129 C1117 0.929 . S
H1130 C1118 0.960 . S
H1131 C1118 0.962 . S
H1132 C1118 0.960 . S
H1133 C1119 0.961 . S
H1134 C1119 0.961 . S
H1135 C1119 0.961 . S
H1136 C1120 0.931 . S
H1137 C1125 0.930 . S
H1138 C1126 0.956 . S
H1139 C1126 0.961 . S
H1140 C1126 0.961 . S
H1141 C1127 0.958 . S
H1142 C1127 0.961 . S
H1143 C1127 0.960 . S
C1144 C1145 1.391 . S
C1144 C1146 1.394 . S
C1144 H1160 0.931 . S
C1145 C1144 1.391 . S
C1145 C1149 1.376 . S
C1146 C1144 1.394 . S
C1146 C1147 1.369 . S
C1146 C1150 1.531 . S
C1147 C1146 1.369 . S
C1147 C1148 1.410 . S
C1147 C1155 1.503 . S
C1148 C1147 1.410 . S
C1148 C1149 1.392 . S
C1148 C1151 1.511 . S
C1149 C1145 1.376 . S
C1149 C1148 1.392 . S
C1149 H1161 0.929 . S
C1150 C1146 1.531 . S
C1150 H1162 0.960 . S
C1150 H1163 0.962 . S
C1150 H1164 0.960 . S
C1151 C1148 1.511 . S
C1151 H1165 0.961 . S
C1151 H1166 0.961 . S
C1151 H1167 0.961 . S
C1152 C1153 1.370 . S
C1152 C1154 1.363 . S
C1152 H1168 0.931 1_556 S
C1153 C1152 1.370 . S
C1153 C1157 1.408 . S
C1154 C1152 1.363 . S
C1154 C1155 1.370 . S
C1154 C1158 1.524 1_556 S
C1155 C1147 1.503 . S
C1155 C1154 1.370 . S
C1155 C1156 1.403 . S
C1156 C1155 1.403 . S
C1156 C1157 1.404 . S
C1156 C1159 1.539 . S
C1157 C1153 1.408 . S
C1157 C1156 1.404 . S
C1157 H1169 0.930 . S
C1158 C1154 1.524 1_554 S
C1158 H1170 0.956 . S
C1158 H1171 0.961 . S
C1158 H1172 0.961 . S
C1159 C1156 1.539 . S
C1159 H1173 0.958 . S
C1159 H1174 0.961 . S
C1159 H1175 0.960 . S
H1160 C1144 0.931 . S
H1161 C1149 0.929 . S
H1162 C1150 0.960 . S
H1163 C1150 0.962 . S
H1164 C1150 0.960 . S
H1165 C1151 0.961 . S
H1166 C1151 0.961 . S
H1167 C1151 0.961 . S
H1168 C1152 0.931 1_554 S
H1169 C1157 0.930 . S
H1170 C1158 0.956 . S
H1171 C1158 0.961 . S
H1172 C1158 0.961 . S
H1173 C1159 0.958 . S
H1174 C1159 0.961 . S
H1175 C1159 0.960 . S
C1176 C1177 1.391 . S
C1176 C1178 1.394 . S
C1176 H1192 0.931 . S
C1177 C1176 1.391 . S
C1177 C1181 1.376 . S
C1178 C1176 1.394 . S
C1178 C1179 1.369 . S
C1178 C1182 1.531 . S
C1179 C1178 1.369 . S
C1179 C1180 1.410 . S
C1179 C1187 1.503 . S
C1180 C1179 1.410 . S
C1180 C1181 1.392 . S
C1180 C1183 1.511 . S
C1181 C1177 1.376 . S
C1181 C1180 1.392 . S
C1181 H1193 0.929 . S
C1182 C1178 1.531 . S
C1182 H1194 0.960 . S
C1182 H1195 0.962 . S
C1182 H1196 0.960 . S
C1183 C1180 1.511 . S
C1183 H1197 0.961 . S
C1183 H1198 0.961 . S
C1183 H1199 0.961 1_554 S
C1184 C1185 1.370 . S
C1184 C1186 1.363 . S
C1184 H1200 0.931 . S
C1185 C1184 1.370 . S
C1185 C1189 1.408 . S
C1186 C1184 1.363 . S
C1186 C1187 1.370 . S
C1186 C1190 1.524 . S
C1187 C1179 1.503 . S
C1187 C1186 1.370 . S
C1187 C1188 1.403 . S
C1188 C1187 1.403 . S
C1188 C1189 1.404 . S
C1188 C1191 1.539 1_554 S
C1189 C1185 1.408 . S
C1189 C1188 1.404 . S
C1189 H1201 0.930 1_554 S
C1190 C1186 1.524 . S
C1190 H1202 0.956 . S
C1190 H1203 0.961 . S
C1190 H1204 0.961 . S
C1191 C1188 1.539 1_556 S
C1191 H1205 0.958 . S
C1191 H1206 0.961 . S
C1191 H1207 0.960 . S
H1192 C1176 0.931 . S
H1193 C1181 0.929 . S
H1194 C1182 0.960 . S
H1195 C1182 0.962 . S
H1196 C1182 0.960 . S
H1197 C1183 0.961 . S
H1198 C1183 0.961 . S
H1199 C1183 0.961 1_556 S
H1200 C1184 0.931 . S
H1201 C1189 0.930 1_556 S
H1202 C1190 0.956 . S
H1203 C1190 0.961 . S
H1204 C1190 0.961 . S
H1205 C1191 0.958 . S
H1206 C1191 0.961 . S
H1207 C1191 0.960 . S
C1208 C1209 1.391 1_655 S
C1208 C1210 1.394 . S
C1208 H1224 0.931 . S
C1209 C1208 1.391 1_455 S
C1209 C1213 1.376 . S
C1210 C1208 1.394 . S
C1210 C1211 1.369 1_655 S
C1210 C1214 1.531 . S
C1211 C1210 1.369 1_455 S
C1211 C1212 1.410 . S
C1211 C1219 1.503 . S
C1212 C1211 1.410 . S
C1212 C1213 1.392 . S
C1212 C1215 1.511 . S
C1213 C1209 1.376 . S
C1213 C1212 1.392 . S
C1213 H1225 0.929 . S
C1214 C1210 1.531 . S
C1214 H1226 0.960 . S
C1214 H1227 0.962 . S
C1214 H1228 0.960 . S
C1215 C1212 1.511 . S
C1215 H1229 0.961 . S
C1215 H1230 0.961 . S
C1215 H1231 0.961 . S
C1216 C1217 1.370 1_455 S
C1216 C1218 1.363 . S
C1216 H1232 0.931 . S
C1217 C1216 1.370 1_655 S
C1217 C1221 1.408 . S
C1218 C1216 1.363 . S
C1218 C1219 1.371 . S
C1218 C1222 1.524 . S
C1219 C1211 1.503 . S
C1219 C1218 1.371 . S
C1219 C1220 1.402 1_455 S
C1220 C1219 1.402 1_655 S
C1220 C1221 1.404 . S
C1220 C1223 1.539 . S
C1221 C1217 1.408 . S
C1221 C1220 1.404 . S
C1221 H1233 0.930 . S
C1222 C1218 1.524 . S
C1222 H1234 0.956 . S
C1222 H1235 0.961 . S
C1222 H1236 0.961 . S
C1223 C1220 1.539 . S
C1223 H1237 0.958 . S
C1223 H1238 0.961 . S
C1223 H1239 0.960 . S
H1224 C1208 0.931 . S
H1225 C1213 0.929 . S
H1226 C1214 0.960 . S
H1227 C1214 0.962 . S
H1228 C1214 0.960 . S
H1229 C1215 0.961 . S
H1230 C1215 0.961 . S
H1231 C1215 0.961 . S
H1232 C1216 0.931 . S
H1233 C1221 0.930 . S
H1234 C1222 0.956 . S
H1235 C1222 0.961 . S
H1236 C1222 0.961 . S
H1237 C1223 0.958 . S
H1238 C1223 0.961 . S
H1239 C1223 0.960 . S
C1240 C1241 1.391 . S
C1240 C1242 1.394 . S
C1240 H1256 0.931 . S
C1241 C1240 1.391 . S
C1241 C1245 1.376 1_655 S
C1242 C1240 1.394 . S
C1242 C1243 1.369 1_655 S
C1242 C1246 1.531 . S
C1243 C1242 1.369 1_455 S
C1243 C1244 1.410 . S
C1243 C1251 1.503 . S
C1244 C1243 1.410 . S
C1244 C1245 1.392 . S
C1244 C1247 1.511 . S
C1245 C1241 1.376 1_455 S
C1245 C1244 1.392 . S
C1245 H1257 0.929 . S
C1246 C1242 1.531 . S
C1246 H1258 0.960 . S
C1246 H1259 0.962 . S
C1246 H1260 0.960 . S
C1247 C1244 1.511 . S
C1247 H1261 0.961 . S
C1247 H1262 0.961 . S
C1247 H1263 0.961 . S
C1248 C1249 1.370 1_655 S
C1248 C1250 1.363 . S
C1248 H1264 0.931 . S
C1249 C1248 1.370 1_455 S
C1249 C1253 1.408 . S
C1250 C1248 1.363 . S
C1250 C1251 1.370 1_655 S
C1250 C1254 1.524 . S
C1251 C1243 1.503 . S
C1251 C1250 1.370 1_455 S
C1251 C1252 1.403 . S
C1252 C1251 1.403 . S
C1252 C1253 1.404 . S
C1252 C1255 1.539 . S
C1253 C1249 1.408 . S
C1253 C1252 1.404 . S
C1253 H1265 0.930 . S
C1254 C1250 1.524 . S
C1254 H1266 0.956 . S
C1254 H1267 0.961 . S
C1254 H1268 0.961 . S
C1255 C1252 1.539 . S
C1255 H1269 0.958 . S
C1255 H1270 0.961 . S
C1255 H1271 0.960 . S
H1256 C1240 0.931 . S
H1257 C1245 0.929 . S
H1258 C1246 0.960 . S
H1259 C1246 0.962 . S
H1260 C1246 0.960 . S
H1261 C1247 0.961 . S
H1262 C1247 0.961 . S
H1263 C1247 0.961 . S
H1264 C1248 0.931 . S
H1265 C1253 0.930 . S
H1266 C1254 0.956 . S
H1267 C1254 0.961 . S
H1268 C1254 0.961 . S
H1269 C1255 0.958 . S
H1270 C1255 0.961 . S
H1271 C1255 0.960 . S
C1272 C1273 1.391 . S
C1272 C1274 1.394 . S
C1272 H1288 0.931 1_455 S
C1273 C1272 1.391 . S
C1273 C1277 1.376 . S
C1274 C1272 1.394 . S
C1274 C1275 1.369 . S
C1274 C1278 1.531 1_455 S
C1275 C1274 1.369 . S
C1275 C1276 1.410 . S
C1275 C1283 1.503 . S
C1276 C1275 1.410 . S
C1276 C1277 1.392 . S
C1276 C1279 1.511 . S
C1277 C1273 1.376 . S
C1277 C1276 1.392 . S
C1277 H1289 0.929 . S
C1278 C1274 1.531 1_655 S
C1278 H1290 0.960 1_655 S
C1278 H1291 0.962 . S
C1278 H1292 0.963 . S
C1279 C1276 1.511 . S
C1279 H1293 0.961 . S
C1279 H1294 0.961 . S
C1279 H1295 0.961 . S
C1280 C1281 1.370 1_655 S
C1280 C1282 1.363 . S
C1280 H1296 0.931 . S
C1281 C1280 1.370 1_455 S
C1281 C1285 1.408 . S
C1282 C1280 1.363 . S
C1282 C1283 1.370 1_655 S
C1282 C1286 1.524 . S
C1283 C1275 1.503 . S
C1283 C1282 1.370 1_455 S
C1283 C1284 1.403 . S
C1284 C1283 1.403 . S
C1284 C1285 1.404 . S
C1284 C1287 1.539 . S
C1285 C1281 1.408 . S
C1285 C1284 1.404 . S
C1285 H1297 0.930 . S
C1286 C1282 1.524 . S
C1286 H1298 0.956 . S
C1286 H1299 0.961 . S
C1286 H1300 0.961 . S
C1287 C1284 1.539 . S
C1287 H1301 0.958 . S
C1287 H1302 0.961 . S
C1287 H1303 0.960 . S
H1288 C1272 0.931 1_655 S
H1289 C1277 0.929 . S
H1290 C1278 0.960 1_455 S
H1291 C1278 0.962 . S
H1292 C1278 0.963 . S
H1293 C1279 0.961 . S
H1294 C1279 0.961 . S
H1295 C1279 0.961 . S
H1296 C1280 0.931 . S
H1297 C1285 0.930 . S
H1298 C1286 0.956 . S
H1299 C1286 0.961 . S
H1300 C1286 0.961 . S
H1301 C1287 0.958 . S
H1302 C1287 0.961 . S
H1303 C1287 0.960 . S
C1304 C1305 1.391 1_455 S
C1304 C1306 1.394 . S
C1304 H1320 0.931 . S
C1305 C1304 1.391 1_655 S
C1305 C1309 1.376 . S
C1306 C1304 1.394 . S
C1306 C1307 1.369 1_455 S
C1306 C1310 1.531 . S
C1307 C1306 1.369 1_655 S
C1307 C1308 1.410 . S
C1307 C1315 1.503 . S
C1308 C1307 1.410 . S
C1308 C1309 1.392 . S
C1308 C1311 1.511 . S
C1309 C1305 1.376 . S
C1309 C1308 1.392 . S
C1309 H1321 0.929 . S
C1310 C1306 1.531 . S
C1310 H1322 0.960 . S
C1310 H1323 0.962 . S
C1310 H1324 0.960 . S
C1311 C1308 1.511 . S
C1311 H1325 0.961 . S
C1311 H1326 0.961 . S
C1311 H1327 0.961 . S
C1312 C1313 1.370 . S
C1312 C1314 1.363 . S
C1312 H1328 0.931 1_655 S
C1313 C1312 1.370 . S
C1313 C1317 1.408 . S
C1314 C1312 1.363 . S
C1314 C1315 1.370 . S
C1314 C1318 1.524 1_655 S
C1315 C1307 1.503 . S
C1315 C1314 1.370 . S
C1315 C1316 1.403 . S
C1316 C1315 1.403 . S
C1316 C1317 1.404 . S
C1316 C1319 1.539 . S
C1317 C1313 1.408 . S
C1317 C1316 1.404 . S
C1317 H1329 0.930 . S
C1318 C1314 1.524 1_455 S
C1318 H1330 0.956 . S
C1318 H1331 0.961 1_455 S
C1318 H1332 0.961 . S
C1319 C1316 1.539 . S
C1319 H1333 0.958 . S
C1319 H1334 0.961 . S
C1319 H1335 0.960 . S
H1320 C1304 0.931 . S
H1321 C1309 0.929 . S
H1322 C1310 0.960 . S
H1323 C1310 0.962 . S
H1324 C1310 0.960 . S
H1325 C1311 0.961 . S
H1326 C1311 0.961 . S
H1327 C1311 0.961 . S
H1328 C1312 0.931 1_455 S
H1329 C1317 0.930 . S
H1330 C1318 0.956 . S
H1331 C1318 0.961 1_655 S
H1332 C1318 0.961 . S
H1333 C1319 0.958 . S
H1334 C1319 0.961 . S
H1335 C1319 0.960 . S
C1336 C1337 1.391 . S
C1336 C1338 1.394 . S
C1336 H1352 0.931 . S
C1337 C1336 1.391 . S
C1337 C1341 1.376 1_545 S
C1338 C1336 1.394 . S
C1338 C1339 1.369 . S
C1338 C1342 1.531 . S
C1339 C1338 1.369 . S
C1339 C1340 1.410 1_545 S
C1339 C1347 1.503 . S
C1340 C1339 1.410 1_565 S
C1340 C1341 1.392 . S
C1340 C1343 1.511 . S
C1341 C1337 1.376 1_565 S
C1341 C1340 1.392 . S
C1341 H1353 0.929 . S
C1342 C1338 1.531 . S
C1342 H1354 0.960 . S
C1342 H1355 0.962 . S
C1342 H1356 0.960 . S
C1343 C1340 1.511 . S
C1343 H1357 0.961 . S
C1343 H1358 0.961 . S
C1343 H1359 0.961 . S
C1344 C1345 1.370 . S
C1344 C1346 1.363 . S
C1344 H1360 0.931 . S
C1345 C1344 1.370 . S
C1345 C1349 1.408 . S
C1346 C1344 1.363 . S
C1346 C1347 1.370 . S
C1346 C1350 1.524 . S
C1347 C1339 1.503 . S
C1347 C1346 1.370 . S
C1347 C1348 1.403 . S
C1348 C1347 1.403 . S
C1348 C1349 1.404 . S
C1348 C1351 1.539 1_545 S
C1349 C1345 1.408 . S
C1349 C1348 1.404 . S
C1349 H1361 0.930 . S
C1350 C1346 1.524 . S
C1350 H1362 0.956 . S
C1350 H1363 0.961 . S
C1350 H1364 0.961 . S
C1351 C1348 1.539 1_565 S
C1351 H1365 0.958 1_565 S
C1351 H1366 0.961 . S
C1351 H1367 0.960 . S
H1352 C1336 0.931 . S
H1353 C1341 0.929 . S
H1354 C1342 0.960 . S
H1355 C1342 0.962 . S
H1356 C1342 0.960 . S
H1357 C1343 0.961 . S
H1358 C1343 0.961 . S
H1359 C1343 0.961 . S
H1360 C1344 0.931 . S
H1361 C1349 0.930 . S
H1362 C1350 0.956 . S
H1363 C1350 0.961 . S
H1364 C1350 0.961 . S
H1365 C1351 0.958 1_545 S
H1366 C1351 0.961 . S
H1367 C1351 0.960 . S
C1368 C1369 1.391 . S
C1368 C1370 1.394 . S
C1368 H1384 0.931 . S
C1369 C1368 1.391 . S
C1369 C1373 1.376 . S
C1370 C1368 1.394 . S
C1370 C1371 1.369 . S
C1370 C1374 1.531 . S
C1371 C1370 1.369 . S
C1371 C1372 1.410 . S
C1371 C1379 1.503 . S
C1372 C1371 1.410 . S
C1372 C1373 1.392 . S
C1372 C1375 1.511 . S
C1373 C1369 1.376 . S
C1373 C1372 1.392 . S
C1373 H1385 0.929 . S
C1374 C1370 1.531 . S
C1374 H1386 0.960 . S
C1374 H1387 0.962 . S
C1374 H1388 0.960 . S
C1375 C1372 1.511 . S
C1375 H1389 0.961 . S
C1375 H1390 0.961 . S
C1375 H1391 0.961 . S
C1376 C1377 1.370 . S
C1376 C1378 1.363 . S
C1376 H1392 0.931 . S
C1377 C1376 1.370 . S
C1377 C1381 1.408 . S
C1378 C1376 1.363 . S
C1378 C1379 1.370 . S
C1378 C1382 1.524 . S
C1379 C1371 1.503 . S
C1379 C1378 1.370 . S
C1379 C1380 1.403 . S
C1380 C1379 1.403 . S
C1380 C1381 1.404 . S
C1380 C1383 1.539 . S
C1381 C1377 1.408 . S
C1381 C1380 1.404 . S
C1381 H1393 0.930 . S
C1382 C1378 1.524 . S
C1382 H1394 0.956 . S
C1382 H1395 0.961 . S
C1382 H1396 0.961 . S
C1383 C1380 1.539 . S
C1383 H1397 0.958 . S
C1383 H1398 0.961 . S
C1383 H1399 0.960 . S
H1384 C1368 0.931 . S
H1385 C1373 0.929 . S
H1386 C1374 0.960 . S
H1387 C1374 0.962 . S
H1388 C1374 0.960 . S
H1389 C1375 0.961 . S
H1390 C1375 0.961 . S
H1391 C1375 0.961 . S
H1392 C1376 0.931 . S
H1393 C1381 0.930 . S
H1394 C1382 0.956 . S
H1395 C1382 0.961 . S
H1396 C1382 0.961 . S
H1397 C1383 0.958 . S
H1398 C1383 0.961 . S
H1399 C1383 0.960 . S
C1400 C1401 1.391 . S
C1400 C1402 1.394 . S
C1400 H1416 0.931 1_565 S
C1401 C1400 1.391 . S
C1401 C1405 1.376 . S
C1402 C1400 1.394 . S
C1402 C1403 1.369 . S
C1402 C1406 1.531 . S
C1403 C1402 1.369 . S
C1403 C1404 1.410 . S
C1403 C1411 1.503 . S
C1404 C1403 1.410 . S
C1404 C1405 1.392 . S
C1404 C1407 1.511 . S
C1405 C1401 1.376 . S
C1405 C1404 1.392 . S
C1405 H1417 0.929 . S
C1406 C1402 1.531 . S
C1406 H1418 0.960 . S
C1406 H1419 0.962 1_565 S
C1406 H1420 0.960 . S
C1407 C1404 1.511 . S
C1407 H1421 0.961 . S
C1407 H1422 0.961 . S
C1407 H1423 0.961 . S
C1408 C1409 1.370 1_545 S
C1408 C1410 1.363 . S
C1408 H1424 0.931 . S
C1409 C1408 1.370 1_565 S
C1409 C1413 1.408 . S
C1410 C1408 1.363 . S
C1410 C1411 1.370 1_545 S
C1410 C1414 1.524 . S
C1411 C1403 1.503 . S
C1411 C1410 1.370 1_565 S
C1411 C1412 1.403 . S
C1412 C1411 1.403 . S
C1412 C1413 1.404 . S
C1412 C1415 1.539 . S
C1413 C1409 1.408 . S
C1413 C1412 1.404 . S
C1413 H1425 0.930 . S
C1414 C1410 1.524 . S
C1414 H1426 0.956 . S
C1414 H1427 0.961 . S
C1414 H1428 0.961 . S
C1415 C1412 1.539 . S
C1415 H1429 0.958 . S
C1415 H1430 0.961 . S
C1415 H1431 0.960 . S
H1416 C1400 0.931 1_545 S
H1417 C1405 0.929 . S
H1418 C1406 0.960 . S
H1419 C1406 0.962 1_545 S
H1420 C1406 0.960 . S
H1421 C1407 0.961 . S
H1422 C1407 0.961 . S
H1423 C1407 0.961 . S
H1424 C1408 0.931 . S
H1425 C1413 0.930 . S
H1426 C1414 0.956 . S
H1427 C1414 0.961 . S
H1428 C1414 0.961 . S
H1429 C1415 0.958 . S
H1430 C1415 0.961 . S
H1431 C1415 0.960 . S
C1432 C1433 1.391 . S
C1432 C1434 1.394 . S
C1432 H1448 0.931 . S
C1433 C1432 1.391 . S
C1433 C1437 1.376 . S
C1434 C1432 1.394 . S
C1434 C1435 1.369 . S
C1434 C1438 1.531 . S
C1435 C1434 1.369 . S
C1435 C1436 1.410 . S
C1435 C1443 1.503 . S
C1436 C1435 1.410 . S
C1436 C1437 1.392 . S
C1436 C1439 1.511 . S
C1437 C1433 1.376 . S
C1437 C1436 1.392 . S
C1437 H1449 0.929 . S
C1438 C1434 1.531 . S
C1438 H1450 0.960 . S
C1438 H1451 0.962 . S
C1438 H1452 0.960 . S
C1439 C1436 1.511 . S
C1439 H1453 0.961 . S
C1439 H1454 0.961 . S
C1439 H1455 0.961 . S
C1440 C1441 1.370 . S
C1440 C1442 1.363 . S
C1440 H1456 0.931 . S
C1441 C1440 1.370 . S
C1441 C1445 1.408 . S
C1442 C1440 1.363 . S
C1442 C1443 1.370 . S
C1442 C1446 1.524 . S
C1443 C1435 1.503 . S
C1443 C1442 1.370 . S
C1443 C1444 1.403 . S
C1444 C1443 1.403 . S
C1444 C1445 1.404 . S
C1444 C1447 1.539 . S
C1445 C1441 1.408 . S
C1445 C1444 1.404 . S
C1445 H1457 0.930 . S
C1446 C1442 1.524 . S
C1446 H1458 0.956 . S
C1446 H1459 0.961 . S
C1446 H1460 0.961 . S
C1447 C1444 1.539 . S
C1447 H1461 0.958 . S
C1447 H1462 0.961 . S
C1447 H1463 0.960 . S
H1448 C1432 0.931 . S
H1449 C1437 0.929 . S
H1450 C1438 0.960 . S
H1451 C1438 0.962 . S
H1452 C1438 0.960 . S
H1453 C1439 0.961 . S
H1454 C1439 0.961 . S
H1455 C1439 0.961 . S
H1456 C1440 0.931 . S
H1457 C1445 0.930 . S
H1458 C1446 0.956 . S
H1459 C1446 0.961 . S
H1460 C1446 0.961 . S
H1461 C1447 0.958 . S
H1462 C1447 0.961 . S
H1463 C1447 0.960 . S
C1464 C1465 1.391 . S
C1464 C1466 1.394 . S
C1464 H1480 0.931 . S
C1465 C1464 1.391 . S
C1465 C1469 1.376 1_554 S
C1466 C1464 1.394 . S
C1466 C1467 1.369 . S
C1466 C1470 1.531 . S
C1467 C1466 1.369 . S
C1467 C1468 1.410 1_554 S
C1467 C1475 1.503 . S
C1468 C1467 1.410 1_556 S
C1468 C1469 1.392 . S
C1468 C1471 1.511 . S
C1469 C1465 1.376 1_556 S
C1469 C1468 1.392 . S
C1469 H1481 0.929 . S
C1470 C1466 1.531 . S
C1470 H1482 0.960 . S
C1470 H1483 0.962 . S
C1470 H1484 0.960 . S
C1471 C1468 1.511 . S
C1471 H1485 0.961 . S
C1471 H1486 0.961 . S
C1471 H1487 0.961 . S
C1472 C1473 1.370 . S
C1472 C1474 1.363 . S
C1472 H1488 0.931 . S
C1473 C1472 1.370 . S
C1473 C1477 1.408 . S
C1474 C1472 1.363 . S
C1474 C1475 1.370 . S
C1474 C1478 1.524 . S
C1475 C1467 1.503 . S
C1475 C1474 1.370 . S
C1475 C1476 1.403 . S
C1476 C1475 1.403 . S
C1476 C1477 1.404 . S
C1476 C1479 1.539 1_554 S
C1477 C1473 1.408 . S
C1477 C1476 1.404 . S
C1477 H1489 0.930 . S
C1478 C1474 1.524 . S
C1478 H1490 0.956 . S
C1478 H1491 0.961 . S
C1478 H1492 0.961 . S
C1479 C1476 1.539 1_556 S
C1479 H1493 0.958 . S
C1479 H1494 0.961 . S
C1479 H1495 0.960 . S
H1480 C1464 0.931 . S
H1481 C1469 0.929 . S
H1482 C1470 0.960 . S
H1483 C1470 0.962 . S
H1484 C1470 0.960 . S
H1485 C1471 0.961 . S
H1486 C1471 0.961 . S
H1487 C1471 0.961 . S
H1488 C1472 0.931 . S
H1489 C1477 0.930 . S
H1490 C1478 0.956 . S
H1491 C1478 0.961 . S
H1492 C1478 0.961 . S
H1493 C1479 0.958 . S
H1494 C1479 0.961 . S
H1495 C1479 0.960 . S
C1496 C1497 1.391 . S
C1496 C1498 1.394 . S
C1496 H1512 0.931 . S
C1497 C1496 1.391 . S
C1497 C1501 1.376 . S
C1498 C1496 1.394 . S
C1498 C1499 1.369 . S
C1498 C1502 1.531 . S
C1499 C1498 1.369 . S
C1499 C1500 1.410 . S
C1499 C1507 1.503 . S
C1500 C1499 1.410 . S
C1500 C1501 1.392 . S
C1500 C1503 1.511 . S
C1501 C1497 1.376 . S
C1501 C1500 1.392 . S
C1501 H1513 0.929 . S
C1502 C1498 1.531 . S
C1502 H1514 0.960 . S
C1502 H1515 0.962 . S
C1502 H1516 0.960 . S
C1503 C1500 1.511 . S
C1503 H1517 0.961 . S
C1503 H1518 0.961 . S
C1503 H1519 0.961 . S
C1504 C1505 1.370 . S
C1504 C1506 1.363 . S
C1504 H1520 0.931 . S
C1505 C1504 1.370 . S
C1505 C1509 1.408 . S
C1506 C1504 1.363 . S
C1506 C1507 1.370 . S
C1506 C1510 1.524 . S
C1507 C1499 1.503 . S
C1507 C1506 1.370 . S
C1507 C1508 1.403 . S
C1508 C1507 1.403 . S
C1508 C1509 1.404 . S
C1508 C1511 1.539 . S
C1509 C1505 1.408 . S
C1509 C1508 1.404 . S
C1509 H1521 0.930 . S
C1510 C1506 1.524 . S
C1510 H1522 0.956 . S
C1510 H1523 0.961 . S
C1510 H1524 0.961 . S
C1511 C1508 1.539 . S
C1511 H1525 0.958 . S
C1511 H1526 0.961 . S
C1511 H1527 0.960 . S
H1512 C1496 0.931 . S
H1513 C1501 0.929 . S
H1514 C1502 0.960 . S
H1515 C1502 0.962 . S
H1516 C1502 0.960 . S
H1517 C1503 0.961 . S
H1518 C1503 0.961 . S
H1519 C1503 0.961 . S
H1520 C1504 0.931 . S
H1521 C1509 0.930 . S
H1522 C1510 0.956 . S
H1523 C1510 0.961 . S
H1524 C1510 0.961 . S
H1525 C1511 0.958 . S
H1526 C1511 0.961 . S
H1527 C1511 0.960 . S
C1528 C1529 1.391 . S
C1528 C1530 1.394 . S
C1528 H1544 0.931 . S
C1529 C1528 1.391 . S
C1529 C1533 1.376 . S
C1530 C1528 1.394 . S
C1530 C1531 1.369 . S
C1530 C1534 1.531 . S
C1531 C1530 1.369 . S
C1531 C1532 1.410 . S
C1531 C1539 1.503 . S
C1532 C1531 1.410 . S
C1532 C1533 1.392 . S
C1532 C1535 1.511 . S
C1533 C1529 1.376 . S
C1533 C1532 1.392 . S
C1533 H1545 0.929 . S
C1534 C1530 1.531 . S
C1534 H1546 0.960 . S
C1534 H1547 0.962 . S
C1534 H1548 0.960 . S
C1535 C1532 1.511 . S
C1535 H1549 0.961 . S
C1535 H1550 0.961 . S
C1535 H1551 0.961 . S
C1536 C1537 1.370 . S
C1536 C1538 1.363 . S
C1536 H1552 0.931 . S
C1537 C1536 1.370 . S
C1537 C1541 1.408 . S
C1538 C1536 1.363 . S
C1538 C1539 1.370 . S
C1538 C1542 1.524 . S
C1539 C1531 1.503 . S
C1539 C1538 1.370 . S
C1539 C1540 1.403 . S
C1540 C1539 1.403 . S
C1540 C1541 1.404 . S
C1540 C1543 1.539 . S
C1541 C1537 1.408 . S
C1541 C1540 1.404 . S
C1541 H1553 0.930 . S
C1542 C1538 1.524 . S
C1542 H1554 0.956 . S
C1542 H1555 0.961 . S
C1542 H1556 0.961 . S
C1543 C1540 1.539 . S
C1543 H1557 0.958 . S
C1543 H1558 0.961 . S
C1543 H1559 0.960 . S
H1544 C1528 0.931 . S
H1545 C1533 0.929 . S
H1546 C1534 0.960 . S
H1547 C1534 0.962 . S
H1548 C1534 0.960 . S
H1549 C1535 0.961 . S
H1550 C1535 0.961 . S
H1551 C1535 0.961 . S
H1552 C1536 0.931 . S
H1553 C1541 0.930 . S
H1554 C1542 0.956 . S
H1555 C1542 0.961 . S
H1556 C1542 0.961 . S
H1557 C1543 0.958 . S
H1558 C1543 0.961 . S
H1559 C1543 0.960 . S
C1560 C1561 1.391 . S
C1560 C1562 1.394 . S
C1560 H1576 0.931 . S
C1561 C1560 1.391 . S
C1561 C1565 1.376 . S
C1562 C1560 1.394 . S
C1562 C1563 1.369 . S
C1562 C1566 1.531 . S
C1563 C1562 1.369 . S
C1563 C1564 1.410 . S
C1563 C1571 1.503 . S
C1564 C1563 1.410 . S
C1564 C1565 1.392 . S
C1564 C1567 1.511 . S
C1565 C1561 1.376 . S
C1565 C1564 1.392 . S
C1565 H1577 0.929 . S
C1566 C1562 1.531 . S
C1566 H1578 0.960 . S
C1566 H1579 0.962 . S
C1566 H1580 0.960 . S
C1567 C1564 1.511 . S
C1567 H1581 0.961 . S
C1567 H1582 0.961 . S
C1567 H1583 0.961 . S
C1568 C1569 1.370 . S
C1568 C1570 1.363 . S
C1568 H1584 0.931 . S
C1569 C1568 1.370 . S
C1569 C1573 1.408 . S
C1570 C1568 1.363 . S
C1570 C1571 1.370 . S
C1570 C1574 1.524 . S
C1571 C1563 1.503 . S
C1571 C1570 1.370 . S
C1571 C1572 1.403 . S
C1572 C1571 1.403 . S
C1572 C1573 1.404 . S
C1572 C1575 1.539 . S
C1573 C1569 1.408 . S
C1573 C1572 1.404 . S
C1573 H1585 0.930 . S
C1574 C1570 1.524 . S
C1574 H1586 0.956 . S
C1574 H1587 0.961 . S
C1574 H1588 0.961 . S
C1575 C1572 1.539 . S
C1575 H1589 0.958 . S
C1575 H1590 0.961 . S
C1575 H1591 0.960 . S
H1576 C1560 0.931 . S
H1577 C1565 0.929 . S
H1578 C1566 0.960 . S
H1579 C1566 0.962 . S
H1580 C1566 0.960 . S
H1581 C1567 0.961 . S
H1582 C1567 0.961 . S
H1583 C1567 0.961 . S
H1584 C1568 0.931 . S
H1585 C1573 0.930 . S
H1586 C1574 0.956 . S
H1587 C1574 0.961 . S
H1588 C1574 0.961 . S
H1589 C1575 0.958 . S
H1590 C1575 0.961 . S
H1591 C1575 0.960 . S
C1592 C1593 1.391 . S
C1592 C1594 1.394 . S
C1592 H1608 0.931 . S
C1593 C1592 1.391 . S
C1593 C1597 1.376 . S
C1594 C1592 1.394 . S
C1594 C1595 1.369 . S
C1594 C1598 1.531 . S
C1595 C1594 1.369 . S
C1595 C1596 1.410 . S
C1595 C1603 1.503 . S
C1596 C1595 1.410 . S
C1596 C1597 1.392 . S
C1596 C1599 1.511 . S
C1597 C1593 1.376 . S
C1597 C1596 1.392 . S
C1597 H1609 0.929 . S
C1598 C1594 1.531 . S
C1598 H1610 0.960 . S
C1598 H1611 0.962 . S
C1598 H1612 0.960 . S
C1599 C1596 1.511 . S
C1599 H1613 0.961 . S
C1599 H1614 0.961 . S
C1599 H1615 0.961 . S
C1600 C1601 1.370 . S
C1600 C1602 1.363 . S
C1600 H1616 0.931 . S
C1601 C1600 1.370 . S
C1601 C1605 1.408 . S
C1602 C1600 1.363 . S
C1602 C1603 1.370 . S
C1602 C1606 1.524 . S
C1603 C1595 1.503 . S
C1603 C1602 1.370 . S
C1603 C1604 1.403 . S
C1604 C1603 1.403 . S
C1604 C1605 1.404 . S
C1604 C1607 1.539 . S
C1605 C1601 1.408 . S
C1605 C1604 1.404 . S
C1605 H1617 0.930 . S
C1606 C1602 1.524 . S
C1606 H1618 0.956 . S
C1606 H1619 0.961 . S
C1606 H1620 0.961 . S
C1607 C1604 1.539 . S
C1607 H1621 0.958 . S
C1607 H1622 0.961 . S
C1607 H1623 0.960 . S
H1608 C1592 0.931 . S
H1609 C1597 0.929 . S
H1610 C1598 0.960 . S
H1611 C1598 0.962 . S
H1612 C1598 0.960 . S
H1613 C1599 0.961 . S
H1614 C1599 0.961 . S
H1615 C1599 0.961 . S
H1616 C1600 0.931 . S
H1617 C1605 0.930 . S
H1618 C1606 0.956 . S
H1619 C1606 0.961 . S
H1620 C1606 0.961 . S
H1621 C1607 0.958 . S
H1622 C1607 0.961 . S
H1623 C1607 0.960 . S
C1624 C1625 1.391 . S
C1624 C1626 1.394 . S
C1624 H1640 0.931 . S
C1625 C1624 1.391 . S
C1625 C1629 1.376 . S
C1626 C1624 1.394 . S
C1626 C1627 1.369 . S
C1626 C1630 1.531 . S
C1627 C1626 1.369 . S
C1627 C1628 1.410 . S
C1627 C1635 1.503 . S
C1628 C1627 1.410 . S
C1628 C1629 1.392 . S
C1628 C1631 1.511 . S
C1629 C1625 1.376 . S
C1629 C1628 1.392 . S
C1629 H1641 0.929 . S
C1630 C1626 1.531 . S
C1630 H1642 0.960 . S
C1630 H1643 0.962 . S
C1630 H1644 0.960 . S
C1631 C1628 1.511 . S
C1631 H1645 0.961 . S
C1631 H1646 0.961 . S
C1631 H1647 0.961 . S
C1632 C1633 1.370 . S
C1632 C1634 1.363 . S
C1632 H1648 0.931 . S
C1633 C1632 1.370 . S
C1633 C1637 1.408 . S
C1634 C1632 1.363 . S
C1634 C1635 1.370 . S
C1634 C1638 1.524 . S
C1635 C1627 1.503 . S
C1635 C1634 1.370 . S
C1635 C1636 1.403 . S
C1636 C1635 1.403 . S
C1636 C1637 1.404 . S
C1636 C1639 1.539 . S
C1637 C1633 1.408 . S
C1637 C1636 1.404 . S
C1637 H1649 0.930 . S
C1638 C1634 1.524 . S
C1638 H1650 0.956 . S
C1638 H1651 0.961 . S
C1638 H1652 0.961 . S
C1639 C1636 1.539 . S
C1639 H1653 0.958 . S
C1639 H1654 0.961 . S
C1639 H1655 0.960 . S
H1640 C1624 0.931 . S
H1641 C1629 0.929 . S
H1642 C1630 0.960 . S
H1643 C1630 0.962 . S
H1644 C1630 0.960 . S
H1645 C1631 0.961 . S
H1646 C1631 0.961 . S
H1647 C1631 0.961 . S
H1648 C1632 0.931 . S
H1649 C1637 0.930 . S
H1650 C1638 0.956 . S
H1651 C1638 0.961 . S
H1652 C1638 0.961 . S
H1653 C1639 0.958 . S
H1654 C1639 0.961 . S
H1655 C1639 0.960 . S
C1656 C1657 1.391 . S
C1656 C1658 1.394 . S
C1656 H1672 0.931 . S
C1657 C1656 1.391 . S
C1657 C1661 1.376 . S
C1658 C1656 1.394 . S
C1658 C1659 1.369 . S
C1658 C1662 1.531 . S
C1659 C1658 1.369 . S
C1659 C1660 1.410 . S
C1659 C1667 1.503 . S
C1660 C1659 1.410 . S
C1660 C1661 1.392 . S
C1660 C1663 1.511 . S
C1661 C1657 1.376 . S
C1661 C1660 1.392 . S
C1661 H1673 0.929 . S
C1662 C1658 1.531 . S
C1662 H1674 0.960 . S
C1662 H1675 0.962 . S
C1662 H1676 0.960 . S
C1663 C1660 1.511 . S
C1663 H1677 0.961 . S
C1663 H1678 0.961 . S
C1663 H1679 0.961 . S
C1664 C1665 1.370 . S
C1664 C1666 1.363 . S
C1664 H1680 0.931 . S
C1665 C1664 1.370 . S
C1665 C1669 1.408 . S
C1666 C1664 1.363 . S
C1666 C1667 1.370 . S
C1666 C1670 1.524 . S
C1667 C1659 1.503 . S
C1667 C1666 1.370 . S
C1667 C1668 1.403 . S
C1668 C1667 1.403 . S
C1668 C1669 1.404 . S
C1668 C1671 1.539 . S
C1669 C1665 1.408 . S
C1669 C1668 1.404 . S
C1669 H1681 0.930 . S
C1670 C1666 1.524 . S
C1670 H1682 0.956 . S
C1670 H1683 0.961 . S
C1670 H1684 0.961 . S
C1671 C1668 1.539 . S
C1671 H1685 0.958 . S
C1671 H1686 0.961 . S
C1671 H1687 0.960 . S
H1672 C1656 0.931 . S
H1673 C1661 0.929 . S
H1674 C1662 0.960 . S
H1675 C1662 0.962 . S
H1676 C1662 0.960 . S
H1677 C1663 0.961 . S
H1678 C1663 0.961 . S
H1679 C1663 0.961 . S
H1680 C1664 0.931 . S
H1681 C1669 0.930 . S
H1682 C1670 0.956 . S
H1683 C1670 0.961 . S
H1684 C1670 0.961 . S
H1685 C1671 0.958 . S
H1686 C1671 0.961 . S
H1687 C1671 0.960 . S
C1688 C1689 1.391 . S
C1688 C1690 1.394 . S
C1688 H1704 0.931 . S
C1689 C1688 1.391 . S
C1689 C1693 1.376 . S
C1690 C1688 1.394 . S
C1690 C1691 1.369 . S
C1690 C1694 1.531 . S
C1691 C1690 1.369 . S
C1691 C1692 1.410 . S
C1691 C1699 1.503 . S
C1692 C1691 1.410 . S
C1692 C1693 1.392 . S
C1692 C1695 1.511 . S
C1693 C1689 1.376 . S
C1693 C1692 1.392 . S
C1693 H1705 0.929 . S
C1694 C1690 1.531 . S
C1694 H1706 0.960 . S
C1694 H1707 0.962 . S
C1694 H1708 0.960 . S
C1695 C1692 1.511 . S
C1695 H1709 0.961 . S
C1695 H1710 0.961 . S
C1695 H1711 0.961 . S
C1696 C1697 1.370 . S
C1696 C1698 1.363 . S
C1696 H1712 0.931 . S
C1697 C1696 1.370 . S
C1697 C1701 1.408 . S
C1698 C1696 1.363 . S
C1698 C1699 1.370 . S
C1698 C1702 1.524 . S
C1699 C1691 1.503 . S
C1699 C1698 1.370 . S
C1699 C1700 1.403 . S
C1700 C1699 1.403 . S
C1700 C1701 1.404 . S
C1700 C1703 1.539 . S
C1701 C1697 1.408 . S
C1701 C1700 1.404 . S
C1701 H1713 0.930 . S
C1702 C1698 1.524 . S
C1702 H1714 0.956 . S
C1702 H1715 0.961 . S
C1702 H1716 0.961 . S
C1703 C1700 1.539 . S
C1703 H1717 0.958 . S
C1703 H1718 0.961 . S
C1703 H1719 0.960 . S
H1704 C1688 0.931 . S
H1705 C1693 0.929 . S
H1706 C1694 0.960 . S
H1707 C1694 0.962 . S
H1708 C1694 0.960 . S
H1709 C1695 0.961 . S
H1710 C1695 0.961 . S
H1711 C1695 0.961 . S
H1712 C1696 0.931 . S
H1713 C1701 0.930 . S
H1714 C1702 0.956 . S
H1715 C1702 0.961 . S
H1716 C1702 0.961 . S
H1717 C1703 0.958 . S
H1718 C1703 0.961 . S
H1719 C1703 0.960 . S
C1720 C1721 1.391 . S
C1720 C1722 1.394 . S
C1720 H1736 0.931 . S
C1721 C1720 1.391 . S
C1721 C1725 1.376 . S
C1722 C1720 1.394 . S
C1722 C1723 1.369 . S
C1722 C1726 1.531 . S
C1723 C1722 1.369 . S
C1723 C1724 1.410 . S
C1723 C1731 1.503 . S
C1724 C1723 1.410 . S
C1724 C1725 1.392 . S
C1724 C1727 1.511 . S
C1725 C1721 1.376 . S
C1725 C1724 1.392 . S
C1725 H1737 0.929 . S
C1726 C1722 1.531 . S
C1726 H1738 0.960 . S
C1726 H1739 0.962 . S
C1726 H1740 0.960 . S
C1727 C1724 1.511 . S
C1727 H1741 0.961 . S
C1727 H1742 0.961 . S
C1727 H1743 0.961 . S
C1728 C1729 1.370 . S
C1728 C1730 1.363 . S
C1728 H1744 0.931 . S
C1729 C1728 1.370 . S
C1729 C1733 1.408 . S
C1730 C1728 1.363 . S
C1730 C1731 1.370 . S
C1730 C1734 1.524 . S
C1731 C1723 1.503 . S
C1731 C1730 1.370 . S
C1731 C1732 1.403 . S
C1732 C1731 1.403 . S
C1732 C1733 1.404 . S
C1732 C1735 1.539 . S
C1733 C1729 1.408 . S
C1733 C1732 1.404 . S
C1733 H1745 0.930 . S
C1734 C1730 1.524 . S
C1734 H1746 0.956 . S
C1734 H1747 0.961 . S
C1734 H1748 0.961 . S
C1735 C1732 1.539 . S
C1735 H1749 0.958 . S
C1735 H1750 0.961 . S
C1735 H1751 0.960 . S
H1736 C1720 0.931 . S
H1737 C1725 0.929 . S
H1738 C1726 0.960 . S
H1739 C1726 0.962 . S
H1740 C1726 0.960 . S
H1741 C1727 0.961 . S
H1742 C1727 0.961 . S
H1743 C1727 0.961 . S
H1744 C1728 0.931 . S
H1745 C1733 0.930 . S
H1746 C1734 0.956 . S
H1747 C1734 0.961 . S
H1748 C1734 0.961 . S
H1749 C1735 0.958 . S
H1750 C1735 0.961 . S
H1751 C1735 0.960 . S
C1752 C1753 1.391 1_545 S
C1752 C1754 1.394 . S
C1752 H1768 0.931 . S
C1753 C1752 1.391 1_565 S
C1753 C1757 1.376 . S
C1754 C1752 1.394 . S
C1754 C1755 1.369 1_545 S
C1754 C1758 1.531 . S
C1755 C1754 1.369 1_565 S
C1755 C1756 1.410 . S
C1755 C1763 1.503 . S
C1756 C1755 1.410 . S
C1756 C1757 1.392 . S
C1756 C1759 1.511 . S
C1757 C1753 1.376 . S
C1757 C1756 1.392 . S
C1757 H1769 0.929 . S
C1758 C1754 1.531 . S
C1758 H1770 0.960 . S
C1758 H1771 0.962 . S
C1758 H1772 0.960 . S
C1759 C1756 1.511 . S
C1759 H1773 0.961 . S
C1759 H1774 0.961 . S
C1759 H1775 0.961 . S
C1760 C1761 1.370 . S
C1760 C1762 1.363 . S
C1760 H1776 0.931 . S
C1761 C1760 1.370 . S
C1761 C1765 1.408 1_565 S
C1762 C1760 1.363 . S
C1762 C1763 1.370 . S
C1762 C1766 1.524 . S
C1763 C1755 1.503 . S
C1763 C1762 1.370 . S
C1763 C1764 1.403 1_565 S
C1764 C1763 1.403 1_545 S
C1764 C1765 1.404 . S
C1764 C1767 1.539 . S
C1765 C1761 1.408 1_545 S
C1765 C1764 1.404 . S
C1765 H1777 0.930 . S
C1766 C1762 1.524 . S
C1766 H1778 0.956 . S
C1766 H1779 0.961 . S
C1766 H1780 0.961 . S
C1767 C1764 1.539 . S
C1767 H1781 0.958 . S
C1767 H1782 0.961 . S
C1767 H1783 0.960 . S
H1768 C1752 0.931 . S
H1769 C1757 0.929 . S
H1770 C1758 0.960 . S
H1771 C1758 0.962 . S
H1772 C1758 0.960 . S
H1773 C1759 0.961 . S
H1774 C1759 0.961 . S
H1775 C1759 0.961 . S
H1776 C1760 0.931 . S
H1777 C1765 0.930 . S
H1778 C1766 0.956 . S
H1779 C1766 0.961 . S
H1780 C1766 0.961 . S
H1781 C1767 0.958 . S
H1782 C1767 0.961 . S
H1783 C1767 0.960 . S
C1784 C1785 1.391 . S
C1784 C1786 1.394 . S
C1784 H1800 0.931 . S
C1785 C1784 1.391 . S
C1785 C1789 1.376 . S
C1786 C1784 1.394 . S
C1786 C1787 1.369 . S
C1786 C1790 1.531 . S
C1787 C1786 1.369 . S
C1787 C1788 1.410 . S
C1787 C1795 1.503 . S
C1788 C1787 1.410 . S
C1788 C1789 1.392 . S
C1788 C1791 1.511 . S
C1789 C1785 1.376 . S
C1789 C1788 1.392 . S
C1789 H1801 0.929 . S
C1790 C1786 1.531 . S
C1790 H1802 0.960 . S
C1790 H1803 0.962 . S
C1790 H1804 0.960 . S
C1791 C1788 1.511 . S
C1791 H1805 0.961 . S
C1791 H1806 0.961 . S
C1791 H1807 0.961 . S
C1792 C1793 1.370 . S
C1792 C1794 1.363 . S
C1792 H1808 0.931 . S
C1793 C1792 1.370 . S
C1793 C1797 1.408 . S
C1794 C1792 1.363 . S
C1794 C1795 1.370 . S
C1794 C1798 1.524 . S
C1795 C1787 1.503 . S
C1795 C1794 1.370 . S
C1795 C1796 1.403 . S
C1796 C1795 1.403 . S
C1796 C1797 1.404 . S
C1796 C1799 1.539 . S
C1797 C1793 1.408 . S
C1797 C1796 1.404 . S
C1797 H1809 0.930 . S
C1798 C1794 1.524 . S
C1798 H1810 0.956 . S
C1798 H1811 0.961 . S
C1798 H1812 0.961 . S
C1799 C1796 1.539 . S
C1799 H1813 0.958 . S
C1799 H1814 0.961 . S
C1799 H1815 0.960 . S
H1800 C1784 0.931 . S
H1801 C1789 0.929 . S
H1802 C1790 0.960 . S
H1803 C1790 0.962 . S
H1804 C1790 0.960 . S
H1805 C1791 0.961 . S
H1806 C1791 0.961 . S
H1807 C1791 0.961 . S
H1808 C1792 0.931 . S
H1809 C1797 0.930 . S
H1810 C1798 0.956 . S
H1811 C1798 0.961 . S
H1812 C1798 0.961 . S
H1813 C1799 0.958 . S
H1814 C1799 0.961 . S
H1815 C1799 0.960 . S
C1816 C1817 1.391 . S
C1816 C1818 1.394 . S
C1816 H1832 0.931 . S
C1817 C1816 1.391 . S
C1817 C1821 1.376 . S
C1818 C1816 1.394 . S
C1818 C1819 1.369 . S
C1818 C1822 1.531 . S
C1819 C1818 1.369 . S
C1819 C1820 1.410 . S
C1819 C1827 1.503 . S
C1820 C1819 1.410 . S
C1820 C1821 1.392 . S
C1820 C1823 1.517 . S
C1821 C1817 1.376 . S
C1821 C1820 1.392 . S
C1821 H1833 0.929 . S
C1822 C1818 1.531 . S
C1822 H1834 0.960 . S
C1822 H1835 0.962 . S
C1822 H1836 0.960 . S
C1823 C1820 1.517 . S
C1823 H1837 0.939 1_545 S
C1823 H1838 0.946 1_545 S
C1823 H1839 0.993 . S
C1824 C1825 1.360 1_565 S
C1824 C1826 1.363 . S
C1824 H1840 0.931 . S
C1825 C1824 1.360 1_545 S
C1825 C1829 1.420 . S
C1826 C1824 1.363 . S
C1826 C1827 1.370 1_565 S
C1826 C1830 1.524 . S
C1827 C1819 1.503 . S
C1827 C1826 1.370 1_545 S
C1827 C1828 1.403 . S
C1828 C1827 1.403 . S
C1828 C1829 1.404 . S
C1828 C1831 1.539 . S
C1829 C1825 1.420 . S
C1829 C1828 1.404 . S
C1829 H1841 0.930 . S
C1830 C1826 1.524 . S
C1830 H1842 0.956 . S
C1830 H1843 0.961 . S
C1830 H1844 0.961 . S
C1831 C1828 1.539 . S
C1831 H1845 0.958 . S
C1831 H1846 0.961 . S
C1831 H1847 0.960 . S
H1832 C1816 0.931 . S
H1833 C1821 0.929 . S
H1834 C1822 0.960 . S
H1835 C1822 0.962 . S
H1836 C1822 0.960 . S
H1837 C1823 0.939 1_565 S
H1838 C1823 0.946 1_565 S
H1839 C1823 0.993 . S
H1840 C1824 0.931 . S
H1841 C1829 0.930 . S
H1842 C1830 0.956 . S
H1843 C1830 0.961 . S
H1844 C1830 0.961 . S
H1845 C1831 0.958 . S
H1846 C1831 0.961 . S
H1847 C1831 0.960 . S
C1848 C1849 1.391 . S
C1848 C1850 1.394 . S
C1848 H1864 0.931 . S
C1849 C1848 1.391 . S
C1849 C1853 1.376 . S
C1850 C1848 1.394 . S
C1850 C1851 1.369 . S
C1850 C1854 1.531 . S
C1851 C1850 1.369 . S
C1851 C1852 1.410 . S
C1851 C1859 1.503 . S
C1852 C1851 1.410 . S
C1852 C1853 1.392 . S
C1852 C1855 1.511 . S
C1853 C1849 1.376 . S
C1853 C1852 1.392 . S
C1853 H1865 0.929 . S
C1854 C1850 1.531 . S
C1854 H1866 0.960 . S
C1854 H1867 0.962 . S
C1854 H1868 0.960 . S
C1855 C1852 1.511 . S
C1855 H1869 0.961 . S
C1855 H1870 0.961 . S
C1855 H1871 0.961 . S
C1856 C1857 1.370 . S
C1856 C1858 1.363 . S
C1856 H1872 0.931 . S
C1857 C1856 1.370 . S
C1857 C1861 1.408 . S
C1858 C1856 1.363 . S
C1858 C1859 1.370 . S
C1858 C1862 1.524 . S
C1859 C1851 1.503 . S
C1859 C1858 1.370 . S
C1859 C1860 1.403 . S
C1860 C1859 1.403 . S
C1860 C1861 1.404 . S
C1860 C1863 1.539 . S
C1861 C1857 1.408 . S
C1861 C1860 1.404 . S
C1861 H1873 0.930 . S
C1862 C1858 1.524 . S
C1862 H1874 0.956 . S
C1862 H1875 0.961 . S
C1862 H1876 0.961 . S
C1863 C1860 1.539 . S
C1863 H1877 0.958 . S
C1863 H1878 0.961 . S
C1863 H1879 0.960 . S
H1864 C1848 0.931 . S
H1865 C1853 0.929 . S
H1866 C1854 0.960 . S
H1867 C1854 0.962 . S
H1868 C1854 0.960 . S
H1869 C1855 0.961 . S
H1870 C1855 0.961 . S
H1871 C1855 0.961 . S
H1872 C1856 0.931 . S
H1873 C1861 0.930 . S
H1874 C1862 0.956 . S
H1875 C1862 0.961 . S
H1876 C1862 0.961 . S
H1877 C1863 0.958 . S
H1878 C1863 0.961 . S
H1879 C1863 0.960 . S
C1880 C1881 1.391 . S
C1880 C1882 1.394 . S
C1880 H1896 0.931 . S
C1881 C1880 1.391 . S
C1881 C1885 1.376 . S
C1882 C1880 1.394 . S
C1882 C1883 1.369 . S
C1882 C1886 1.531 . S
C1883 C1882 1.369 . S
C1883 C1884 1.410 . S
C1883 C1891 1.503 . S
C1884 C1883 1.410 . S
C1884 C1885 1.392 . S
C1884 C1887 1.511 . S
C1885 C1881 1.376 . S
C1885 C1884 1.392 . S
C1885 H1897 0.929 1_556 S
C1886 C1882 1.531 . S
C1886 H1898 0.960 . S
C1886 H1899 0.962 . S
C1886 H1900 0.960 . S
C1887 C1884 1.511 . S
C1887 H1901 0.961 1_556 S
C1887 H1902 0.967 . S
C1887 H1903 0.961 . S
C1888 C1889 1.370 . S
C1888 C1890 1.363 . S
C1888 H1904 0.931 . S
C1889 C1888 1.370 . S
C1889 C1893 1.408 . S
C1890 C1888 1.363 . S
C1890 C1891 1.370 . S
C1890 C1894 1.524 1_556 S
C1891 C1883 1.503 . S
C1891 C1890 1.370 . S
C1891 C1892 1.403 . S
C1892 C1891 1.403 . S
C1892 C1893 1.404 . S
C1892 C1895 1.539 . S
C1893 C1889 1.408 . S
C1893 C1892 1.404 . S
C1893 H1905 0.930 . S
C1894 C1890 1.524 1_554 S
C1894 H1906 0.956 . S
C1894 H1907 0.961 . S
C1894 H1908 0.961 . S
C1895 C1892 1.539 . S
C1895 H1909 0.958 . S
C1895 H1910 0.961 . S
C1895 H1911 0.960 . S
H1896 C1880 0.931 . S
H1897 C1885 0.929 1_554 S
H1898 C1886 0.960 . S
H1899 C1886 0.962 . S
H1900 C1886 0.960 . S
H1901 C1887 0.961 1_554 S
H1902 C1887 0.967 . S
H1903 C1887 0.961 . S
H1904 C1888 0.931 . S
H1905 C1893 0.930 . S
H1906 C1894 0.956 . S
H1907 C1894 0.961 . S
H1908 C1894 0.961 . S
H1909 C1895 0.958 . S
H1910 C1895 0.961 . S
H1911 C1895 0.960 . S
C1912 C1913 1.391 . S
C1912 C1914 1.394 . S
C1912 H1928 0.931 . S
C1913 C1912 1.391 . S
C1913 C1917 1.387 . S
C1914 C1912 1.394 . S
C1914 C1915 1.369 . S
C1914 C1918 1.531 . S
C1915 C1914 1.369 . S
C1915 C1916 1.410 . S
C1915 C1923 1.503 . S
C1916 C1915 1.410 . S
C1916 C1917 1.396 . S
C1916 C1919 1.511 1_556 S
C1917 C1913 1.387 . S
C1917 C1916 1.396 . S
C1917 H1929 0.914 1_556 S
C1918 C1914 1.531 . S
C1918 H1930 0.960 . S
C1918 H1931 0.962 . S
C1918 H1932 0.960 . S
C1919 C1916 1.511 1_554 S
C1919 H1933 0.961 . S
C1919 H1934 0.961 . S
C1919 H1935 0.961 . S
C1920 C1921 1.370 . S
C1920 C1922 1.363 . S
C1920 H1936 0.931 . S
C1921 C1920 1.370 . S
C1921 C1925 1.408 . S
C1922 C1920 1.363 . S
C1922 C1923 1.370 . S
C1922 C1926 1.524 . S
C1923 C1915 1.503 . S
C1923 C1922 1.370 . S
C1923 C1924 1.403 . S
C1924 C1923 1.403 . S
C1924 C1925 1.404 . S
C1924 C1927 1.539 . S
C1925 C1921 1.408 . S
C1925 C1924 1.404 . S
C1925 H1937 0.930 . S
C1926 C1922 1.524 . S
C1926 H1938 0.956 . S
C1926 H1939 0.961 1_556 S
C1926 H1940 0.961 1_556 S
C1927 C1924 1.539 . S
C1927 H1941 0.958 . S
C1927 H1942 0.961 . S
C1927 H1943 0.960 . S
H1928 C1912 0.931 . S
H1929 C1917 0.914 1_554 S
H1930 C1918 0.960 . S
H1931 C1918 0.962 . S
H1932 C1918 0.960 . S
H1933 C1919 0.961 . S
H1934 C1919 0.961 . S
H1935 C1919 0.961 . S
H1936 C1920 0.931 . S
H1937 C1925 0.930 . S
H1938 C1926 0.956 . S
H1939 C1926 0.961 1_554 S
H1940 C1926 0.961 1_554 S
H1941 C1927 0.958 . S
H1942 C1927 0.961 . S
H1943 C1927 0.960 . S
C1944 C1945 1.391 1_556 S
C1944 C1946 1.394 . S
C1944 H1960 0.931 . S
C1945 C1944 1.391 1_554 S
C1945 C1949 1.376 . S
C1946 C1944 1.394 . S
C1946 C1947 1.369 1_556 S
C1946 C1950 1.531 . S
C1947 C1946 1.369 1_554 S
C1947 C1948 1.410 . S
C1947 C1955 1.503 . S
C1948 C1947 1.410 . S
C1948 C1949 1.392 . S
C1948 C1951 1.511 . S
C1949 C1945 1.376 . S
C1949 C1948 1.392 . S
C1949 H1961 0.929 . S
C1950 C1946 1.531 . S
C1950 H1962 0.960 . S
C1950 H1963 0.962 . S
C1950 H1964 0.960 . S
C1951 C1948 1.511 . S
C1951 H1965 0.961 . S
C1951 H1966 0.961 . S
C1951 H1967 0.961 . S
C1952 C1953 1.370 . S
C1952 C1954 1.363 . S
C1952 H1968 0.931 . S
C1953 C1952 1.370 . S
C1953 C1957 1.408 . S
C1954 C1952 1.363 . S
C1954 C1955 1.370 . S
C1954 C1958 1.524 . S
C1955 C1947 1.503 . S
C1955 C1954 1.370 . S
C1955 C1956 1.403 . S
C1956 C1955 1.403 . S
C1956 C1957 1.404 . S
C1956 C1959 1.539 . S
C1957 C1953 1.408 . S
C1957 C1956 1.404 . S
C1957 H1969 0.930 . S
C1958 C1954 1.524 . S
C1958 H1970 0.956 . S
C1958 H1971 0.961 . S
C1958 H1972 0.961 . S
C1959 C1956 1.539 . S
C1959 H1973 0.958 1_554 S
C1959 H1974 0.961 . S
C1959 H1975 0.960 . S
H1960 C1944 0.931 . S
H1961 C1949 0.929 . S
H1962 C1950 0.960 . S
H1963 C1950 0.962 . S
H1964 C1950 0.960 . S
H1965 C1951 0.961 . S
H1966 C1951 0.961 . S
H1967 C1951 0.961 . S
H1968 C1952 0.931 . S
H1969 C1957 0.930 . S
H1970 C1958 0.956 . S
H1971 C1958 0.961 . S
H1972 C1958 0.961 . S
H1973 C1959 0.958 1_556 S
H1974 C1959 0.961 . S
H1975 C1959 0.960 . S
C441 C13 1.535 . S
C449 C236 1.541 1_545 S
C481 C299 1.755 . S
C473 C1 1.769 . S
C513 C176 1.787 1_565 S
C505 C27 1.783 . S
C537 C15 1.678 . S
C545 C210 1.666 . S
C569 C28 1.726 . S
C577 C414 1.741 1_554 S
C601 C55 1.060 . S
C609 C385 1.072 . S
C641 C308 1.932 . S
C633 C40 1.976 . S
C665 C43 1.319 . S
C673 C342 1.336 . S
C705 C231 1.896 . S
C697 C56 1.898 . S
C737 C274 1.326 . S
C729 C83 1.336 . S
C761 C96 1.888 . S
C769 C253 1.848 1_655 S
C793 C71 1.539 . S
C801 C367 1.515 . S
C833 C372 1.538 . S
C825 C99 1.498 . S
C865 C435 1.752 . S
C857 C111 1.740 . S
C889 C113 1.764 . S
C897 C346 1.781 . S
C929 C312 1.659 . S
C921 C125 1.663 . S
C953 C139 1.728 . S
C961 C278 1.741 . S
C985 C153 1.086 . S
C993 C249 1.060 . S
C1025 C206 1.914 . S
C1017 C127 1.996 . S
C1049 C141 1.361 . S
C1057 C172 1.316 1_565 S
C1089 C333 1.884 . S
C1081 C84 1.920 . S
C1121 C410 1.322 . S
C1113 C154 1.340 1_556 S
C1145 C68 1.887 . S
C1153 C389 1.840 . S
C1177 C166 1.521 . S
C1185 C197 1.528 1_655 S
C1217 C181 1.064 1_655 S
C1209 C0 1.047 . S
C1241 C12 1.044 . S
C1249 C215 1.058 . S
C1281 C240 0.979 . S
C1273 C14 1.015 . S
C1313 C287 1.811 . S
C1305 C26 1.809 . S
C1337 C41 1.497 . S
C1345 C168 1.474 . S
C1369 C42 1.383 . S
C1377 C202 1.389 . S
C1409 C244 1.502 . S
C1401 C29 1.543 1_565 S
C1433 C54 0.953 . S
C1441 C283 0.904 . S
C1465 C69 1.630 . S
C1473 C185 1.598 . S
C1505 C265 1.651 . S
C1497 C70 1.680 . S
C1529 C85 1.555 . S
C1537 C270 1.555 . S
C1561 C82 1.453 . S
C1569 C321 1.445 . S
C1601 C351 1.044 . S
C1593 C110 1.063 . S
C1625 C98 1.065 . S
C1633 C317 1.029 . S
C1657 C124 1.003 . S
C1665 C376 0.976 . S
C1689 C112 1.843 . S
C1697 C423 1.826 . S
C1721 C126 1.477 . S
C1729 C338 1.471 . S
C1761 C304 1.382 . S
C1753 C140 1.376 . S
C1785 C138 1.540 . S
C1793 C380 1.516 . S
C1825 C419 0.906 . S
C1817 C152 0.954 . S
C1857 C355 1.580 . S
C1849 C97 1.613 . S
C1889 C401 1.653 . S
C1881 C167 1.692 . S
C1921 C406 1.560 . S
C1913 C57 1.567 . S
C1945 C155 1.452 . S
C1953 C219 1.438 . S
