# Generated by pormake.
# Topology pth, (4,4)-cn, num edge types: 1
# Building blocks:
#     Node 0, Type 0, BuildingBlock: KUFVIS_clean_sbu_0, # of connection points: 4
#     Node 1, Type 0, BuildingBlock: KUFVIS_clean_sbu_0, # of connection points: 4
#     Node 2, Type 0, BuildingBlock: KUFVIS_clean_sbu_0, # of connection points: 4
#     Node 3, Type 1, BuildingBlock: NAWXER_clean_sbu_0, # of connection points: 4
#     Node 4, Type 1, BuildingBlock: NAWXER_clean_sbu_0, # of connection points: 4
#     Node 5, Type 1, BuildingBlock: NAWXER_clean_sbu_0, # of connection points: 4
#     Edge 6, Type (0, 1), BuildingBlock: UVAHIK_clean_linker_0, # of connection points: 2
#     Edge 7, Type (0, 1), BuildingBlock: UVAHIK_clean_linker_0, # of connection points: 2
#     Edge 8, Type (0, 1), BuildingBlock: UVAHIK_clean_linker_0, # of connection points: 2
#     Edge 9, Type (0, 1), BuildingBlock: UVAHIK_clean_linker_0, # of connection points: 2
#     Edge 10, Type (0, 1), BuildingBlock: UVAHIK_clean_linker_0, # of connection points: 2
#     Edge 11, Type (0, 1), BuildingBlock: UVAHIK_clean_linker_0, # of connection points: 2
#     Edge 12, Type (0, 1), BuildingBlock: UVAHIK_clean_linker_0, # of connection points: 2
#     Edge 13, Type (0, 1), BuildingBlock: UVAHIK_clean_linker_0, # of connection points: 2
#     Edge 14, Type (0, 1), BuildingBlock: UVAHIK_clean_linker_0, # of connection points: 2
#     Edge 15, Type (0, 1), BuildingBlock: UVAHIK_clean_linker_0, # of connection points: 2
#     Edge 16, Type (0, 1), BuildingBlock: UVAHIK_clean_linker_0, # of connection points: 2
#     Edge 17, Type (0, 1), BuildingBlock: UVAHIK_clean_linker_0, # of connection points: 2
# Relax obj value: 0.009
# Max RMSD: 0.080
# Mean RMSD: 0.046
data_MOF--net-pth--node1-KUFVIS_clean_sbu_0--node2-NAWXER_clean_sbu_0--edge1-UVAHIK_clean_linker_0
_symmetry_space_group_name_H-M    P1
_symmetry_Int_Tables_number       1
_symmetry_cell_setting            triclinic
loop_
_symmetry_equiv_pos_as_xyz
'x, y, z'
_cell_length_a     29.345206
_cell_length_b     29.392292
_cell_length_c     74.842875
_cell_angle_alpha  90.469269
_cell_angle_beta   91.745645
_cell_angle_gamma 120.17366
loop_
_atom_site_label
_atom_site_type_symbol
_atom_site_fract_x
_atom_site_fract_y
_atom_site_fract_z
_atom_type_partial_charge
Mn0 Mn 0.06008 0.09828 0.06905 0.0
Mn1 Mn 0.98645 0.13829 0.04625 0.0
C2 C 0.00972 0.04987 0.04434 0.0
C3 C 0.06408 0.04938 0.09287 0.0
C4 C 0.10508 0.18855 0.04291 0.0
O5 O 0.0603 0.15283 0.08583 0.0
O6 O 0.00502 0.17216 0.07067 0.0
C7 C 0.89087 0.08695 0.06758 0.0
N8 N 0.914 0.0941 0.05155 0.0
C9 C 0.83107 0.03322 0.03667 0.0
C10 C 0.80626 0.0255 0.053 0.0
C11 C 0.83632 0.05244 0.06852 0.0
C12 C 0.88547 0.06844 0.03653 0.0
H13 H 0.91394 0.10735 0.07955 0.0
C14 C 0.03494 0.1774 0.08434 0.0
O15 O 0.1071 0.08648 0.0862 0.0
O16 O 0.01995 0.04208 0.08596 0.0
N17 N 0.96565 0.10883 0.02249 0.0
C18 C 0.99609 0.11847 0.00804 0.0
C19 C 0.97234 0.09322 0.99155 0.0
C20 C 0.91757 0.05864 0.99006 0.0
C21 C 0.88699 0.04987 0.00506 0.0
C22 C 0.91279 0.07647 0.02111 0.0
H23 H 0.03823 0.14484 0.00913 0.0
O24 O 0.04844 0.0444 0.05043 0.0
O25 O 1.00081 0.0827 0.05324 0.0
O26 O 0.11224 0.15778 0.05317 0.0
O27 O 0.06011 0.18465 0.03983 0.0
C28 C 0.8321 0.01487 0.00482 0.0
C29 C 0.80416 0.00653 0.02062 0.0
H30 H 0.76426 0.99862 0.0538 0.0
H31 H 0.8175 0.04646 0.08118 0.0
H32 H 0.99622 0.10016 0.98004 0.0
H33 H 0.89949 0.03877 0.97737 0.0
H34 H 0.8111 0.99359 0.99263 0.0
H35 H 0.76209 0.979 0.02032 0.0
Mn36 Mn 0.02941 0.0923 0.40104 0.0
Mn37 Mn 0.08449 0.20902 0.42354 0.0
C38 C 0.08905 0.10988 0.42469 0.0
C39 C 0.03195 0.04104 0.3775 0.0
C40 C 0.97233 0.12036 0.42876 0.0
O41 O 0.01349 0.13756 0.38432 0.0
O42 O 0.05696 0.21509 0.39962 0.0
C43 C 0.17523 0.26982 0.40066 0.0
N44 N 0.15615 0.25153 0.41704 0.0
C45 C 0.2438 0.2934 0.43054 0.0
C46 C 0.26438 0.31298 0.41384 0.0
C47 C 0.22993 0.30105 0.39884 0.0
C48 C 0.18894 0.26265 0.43155 0.0
H49 H 0.14888 0.26051 0.38908 0.0
C50 C 0.02956 0.1867 0.38599 0.0
O51 O 0.98808 0.02831 0.38517 0.0
O52 O 0.07339 0.08442 0.38303 0.0
N53 N 0.11306 0.20906 0.44688 0.0
C54 C 0.08696 0.18576 0.4619 0.0
C55 C 0.11576 0.19314 0.47806 0.0
C56 C 0.17099 0.22468 0.47864 0.0
C57 C 0.19691 0.24889 0.46307 0.0
C58 C 0.16609 0.24055 0.4474 0.0
H59 H 0.04451 0.16148 0.46155 0.0
O60 O 0.05653 0.06174 0.4194 0.0
O61 O 0.08614 0.14623 0.41584 0.0
O62 O 0.97301 0.08672 0.41799 0.0
O63 O 0.01138 0.16705 0.43136 0.0
C64 C 0.25217 0.28032 0.46242 0.0
C65 C 0.27561 0.30246 0.44616 0.0
H66 H 0.30656 0.33688 0.41236 0.0
H67 H 0.24553 0.3158 0.38589 0.0
H68 H 0.09545 0.17437 0.49002 0.0
H69 H 0.19311 0.22984 0.49108 0.0
H70 H 0.27705 0.28718 0.4743 0.0
H71 H 0.31817 0.32603 0.44578 0.0
Mn72 Mn 0.05096 0.08865 0.73418 0.0
Mn73 Mn 0.03209 0.17778 0.75641 0.0
C74 C 0.10806 0.13813 0.75769 0.0
C75 C 0.08851 0.06838 0.71053 0.0
C76 C 0.9661 0.05982 0.7616 0.0
O77 O 0.99997 0.09768 0.71753 0.0
O78 O 0.99602 0.16268 0.73234 0.0
C79 C 0.09309 0.26976 0.73383 0.0
N80 N 0.08431 0.24723 0.75014 0.0
C81 C 0.1544 0.32693 0.76406 0.0
C82 C 0.16399 0.35111 0.74744 0.0
C83 C 0.1333 0.32233 0.73225 0.0
C84 C 0.11384 0.27444 0.76481 0.0
H85 H 0.06961 0.24774 0.72213 0.0
C86 C 0.98422 0.13091 0.71888 0.0
O87 O 0.04773 0.03173 0.71832 0.0
O88 O 0.10588 0.11641 0.71607 0.0
N89 N 0.06523 0.19637 0.77983 0.0
C90 C 0.05232 0.16664 0.79472 0.0
C91 C 0.08013 0.18924 0.811 0.0
C92 C 0.12052 0.24224 0.81184 0.0
C93 C 0.13264 0.27221 0.79639 0.0
C94 C 0.10348 0.24762 0.78056 0.0
H95 H 0.02119 0.12595 0.79418 0.0
O96 O 0.10473 0.09429 0.75254 0.0
O97 O 0.07827 0.15178 0.74882 0.0
O98 O 0.99115 0.04633 0.75114 0.0
O99 O 0.9774 0.10753 0.76407 0.0
C100 C 0.17288 0.32537 0.79604 0.0
C101 C 0.18391 0.35265 0.77987 0.0
H102 H 0.19503 0.39162 0.74616 0.0
H103 H 0.14061 0.34064 0.71937 0.0
H104 H 0.07051 0.16585 0.82286 0.0
H105 H 0.14212 0.25944 0.82439 0.0
H106 H 0.19608 0.34544 0.80808 0.0
H107 H 0.21548 0.39328 0.77972 0.0
C108 C 0.0745 0.67123 0.26211 0.0
C109 C 0.08604 0.55991 0.21526 0.0
O110 O 0.11656 0.67267 0.25741 0.0
Zn111 Zn 0.08341 0.61621 0.23923 0.0
O112 O 0.0302 0.63815 0.2544 0.0
Zn113 Zn 0.9993 0.57851 0.23375 0.0
O114 O 0.95256 0.51477 0.24643 0.0
O115 O 0.03653 0.54955 0.2549 0.0
O116 O 0.03959 0.55237 0.21725 0.0
O117 O 0.12407 0.59285 0.22551 0.0
O118 O 0.05904 0.65257 0.21953 0.0
O119 O 0.97212 0.60881 0.21636 0.0
C120 C 0.9881 0.5142 0.25644 0.0
C121 C 0.01657 0.64692 0.21205 0.0
C122 C 0.59894 0.1179 0.59156 0.0
C123 C 0.48268 0.12804 0.54562 0.0
O124 O 0.56362 0.07266 0.58514 0.0
Zn125 Zn 0.49831 0.04038 0.56591 0.0
O126 O 0.59948 0.15912 0.5862 0.0
Zn127 Zn 0.54057 0.12449 0.56905 0.0
O128 O 0.47536 0.08473 0.58578 0.0
O129 O 0.43699 0.99923 0.58045 0.0
O130 O 0.5199 0.16614 0.55465 0.0
O131 O 0.47174 0.08077 0.5486 0.0
O132 O 0.52086 0.00599 0.54879 0.0
O133 O 0.57052 0.09263 0.54987 0.0
C134 C 0.43893 0.03783 0.58898 0.0
C135 C 0.56034 0.04781 0.54339 0.0
C136 C 0.48797 0.5596 0.92568 0.0
C137 C 0.59271 0.67384 0.87783 0.0
O138 O 0.4835 0.59666 0.91875 0.0
Zn139 Zn 0.5391 0.61796 0.9019 0.0
O140 O 0.5228 0.54937 0.92005 0.0
Zn141 Zn 0.5825 0.57703 0.90051 0.0
O142 O 0.64737 0.60272 0.91513 0.0
O143 O 0.607 0.64804 0.9194 0.0
O144 O 0.60456 0.63879 0.88205 0.0
O145 O 0.55696 0.67665 0.88612 0.0
O146 O 0.50618 0.55121 0.88399 0.0
O147 O 0.55668 0.51539 0.88464 0.0
C148 C 0.64492 0.63963 0.92321 0.0
C149 C 0.51567 0.51542 0.87859 0.0
C150 C 0.08108 0.22905 0.11263 0.0
C151 C 0.04307 0.21643 0.09864 0.0
C152 C 0.09204 0.26904 0.12522 0.0
C153 C 0.07939 0.38736 0.13125 0.0
H154 H 0.10257 0.37292 0.18168 0.0
C155 C 0.05775 0.51085 0.18612 0.0
C156 C 0.09345 0.5295 0.20096 0.0
C157 C 0.05998 0.47768 0.17323 0.0
C158 C 0.09715 0.37791 0.16759 0.0
H159 H 0.98546 0.23503 0.08743 0.0
H160 H 1.00385 0.30389 0.10954 0.0
H161 H 0.08727 0.30269 0.16037 0.0
H162 H 0.16042 0.52904 0.21374 0.0
H163 H 0.16394 0.46977 0.19109 0.0
H164 H 0.08773 0.46181 0.13854 0.0
C165 C 0.02613 0.2837 0.11052 0.0
C166 C 0.08822 0.33763 0.15538 0.0
C167 C 0.01525 0.24383 0.09791 0.0
C168 C 0.13259 0.51539 0.20239 0.0
C169 C 0.13433 0.48128 0.18953 0.0
C170 C 0.08809 0.42741 0.14344 0.0
C171 C 0.06522 0.29737 0.12418 0.0
C172 C 0.07814 0.34141 0.1371 0.0
C173 C 0.09765 0.46176 0.1749 0.0
C174 C 0.09599 0.42268 0.16179 0.0
H175 H 0.10345 0.20894 0.11363 0.0
H176 H 0.12258 0.27871 0.13549 0.0
H177 H 0.07318 0.39225 0.11723 0.0
H178 H 0.02726 0.52121 0.1846 0.0
H179 H 0.03081 0.46292 0.16225 0.0
C180 C 0.92285 0.14251 0.45049 0.0
C181 C 0.92487 0.10485 0.43935 0.0
C182 C 0.88021 0.12841 0.46132 0.0
C183 C 0.74134 0.02994 0.46801 0.0
H184 H 0.77612 0.09415 0.51565 0.0
C185 C 0.58813 0.99853 0.52261 0.0
C186 C 0.59666 0.04612 0.53038 0.0
C187 C 0.62503 0.99829 0.51113 0.0
C188 C 0.76575 0.07585 0.50239 0.0
H189 H 0.88235 0.0227 0.43059 0.0
H190 H 0.80742 0.998 0.44972 0.0
H191 H 0.84654 0.10697 0.49631 0.0
H192 H 0.65001 0.1308 0.53169 0.0
H193 H 0.71361 0.13007 0.51201 0.0
H194 H 0.66013 0.99945 0.47425 0.0
C195 C 0.83919 0.03857 0.44993 0.0
C196 C 0.80607 0.08332 0.49129 0.0
C197 C 0.88218 0.05274 0.43902 0.0
C198 C 0.6421 0.0933 0.5261 0.0
C199 C 0.67885 0.09296 0.51486 0.0
C200 C 0.70071 0.02222 0.47924 0.0
C201 C 0.83825 0.07619 0.46142 0.0
C202 C 0.79452 0.06193 0.47377 0.0
C203 C 0.67123 0.04552 0.50745 0.0
C204 C 0.71274 0.04652 0.49634 0.0
H205 H 0.95455 0.18314 0.45104 0.0
H206 H 0.88017 0.15867 0.46967 0.0
H207 H 0.7312 0.01291 0.45458 0.0
H208 H 0.55346 0.96154 0.52559 0.0
H209 H 0.61823 0.96117 0.50554 0.0
C210 C 0.8923 0.03149 0.78279 0.0
C211 C 0.92254 0.01853 0.77183 0.0
C212 C 0.85275 0.99326 0.79304 0.0
C213 C 0.81432 0.86697 0.81384 0.0
H214 H 0.6789 0.85805 0.8189 0.0
C215 C 0.6516 0.69902 0.85203 0.0
C216 C 0.62256 0.71126 0.86376 0.0
C217 C 0.68426 0.73553 0.8398 0.0
C218 C 0.71672 0.8604 0.81777 0.0
H219 H 0.9338 0.95457 0.76286 0.0
H220 H 0.86481 0.888 0.78075 0.0
H221 H 0.74349 0.92345 0.79933 0.0
H222 H 0.60352 0.77085 0.8714 0.0
H223 H 0.6617 0.83552 0.85016 0.0
H224 H 0.78845 0.8049 0.83244 0.0
C225 C 0.87213 0.92796 0.7815 0.0
C226 C 0.75367 0.89777 0.80653 0.0
C227 C 0.91153 0.96611 0.77117 0.0
C228 C 0.62537 0.76028 0.86251 0.0
C229 C 0.65862 0.79723 0.85032 0.0
C230 C 0.77764 0.82992 0.82511 0.0
C231 C 0.84261 0.9412 0.79267 0.0
C232 C 0.80281 0.90129 0.80439 0.0
C233 C 0.68932 0.78562 0.83908 0.0
C234 C 0.72821 0.82585 0.82715 0.0
H235 H 0.89953 0.0714 0.78366 0.0
H236 H 0.83108 0.00486 0.80163 0.0
H237 H 0.85221 0.86939 0.8128 0.0
H238 H 0.64973 0.66128 0.85244 0.0
H239 H 0.7061 0.72462 0.83104 0.0
C240 C 0.10891 0.0117 0.11191 0.0
C241 C 0.06357 0.01396 0.1069 0.0
C242 C 0.10548 0.97328 0.12369 0.0
C243 C 0.00797 0.84185 0.13924 0.0
H244 H 0.11093 0.87024 0.17769 0.0
C245 C 0.97625 0.68899 0.19304 0.0
C246 C 0.02068 0.68628 0.19897 0.0
C247 C 0.98184 0.7289 0.18162 0.0
C248 C 0.08213 0.86147 0.16687 0.0
H249 H 0.97978 0.9796 0.11105 0.0
H250 H 0.97413 0.91365 0.13154 0.0
H251 H 0.12196 0.94149 0.15846 0.0
H252 H 0.10556 0.72231 0.19706 0.0
H253 H 0.11496 0.7907 0.17702 0.0
H254 H 0.96826 0.7619 0.14751 0.0
C255 C 0.01202 0.9405 0.12613 0.0
C256 C 0.08851 0.90237 0.15587 0.0
C257 C 0.01542 0.97864 0.11446 0.0
C258 C 0.07048 0.72345 0.1929 0.0
C259 C 0.076 0.76303 0.18148 0.0
C260 C 1.00169 0.80097 0.15018 0.0
C261 C 0.05665 0.93654 0.1306 0.0
C262 C 0.0513 0.89308 0.142 0.0
C263 C 0.03193 0.76674 0.17586 0.0
C264 C 0.03857 0.81026 0.16418 0.0
H265 H 0.14649 0.03832 0.10627 0.0
H266 H 0.14059 0.97115 0.12689 0.0
H267 H 0.97906 0.8332 0.12846 0.0
H268 H 0.9374 0.66108 0.19753 0.0
H269 H 0.94707 0.73084 0.17765 0.0
C270 C 0.1853 0.15145 0.4315 0.0
C271 C 0.13343 0.12119 0.43709 0.0
C272 C 0.22779 0.16016 0.44283 0.0
C273 C 0.30322 0.13773 0.46501 0.0
H274 H 0.30693 0.17159 0.51545 0.0
C275 C 0.42216 0.09813 0.51858 0.0
C276 C 0.45081 0.13696 0.53194 0.0
C277 C 0.38903 0.104 0.50625 0.0
C278 C 0.30674 0.1628 0.50135 0.0
H279 H 0.0845 0.07378 0.45824 0.0
H280 H 0.159 0.0897 0.47834 0.0
H281 H 0.23687 0.16685 0.49546 0.0
H282 H 0.4678 0.21282 0.54271 0.0
H283 H 0.40859 0.22262 0.5212 0.0
H284 H 0.37205 0.1321 0.47096 0.0
C285 C 0.1669 0.10763 0.46537 0.0
C286 C 0.26646 0.15961 0.48997 0.0
C287 C 0.12439 0.09831 0.45391 0.0
C288 C 0.44632 0.18236 0.53251 0.0
C289 C 0.41233 0.18784 0.5203 0.0
C290 C 0.34306 0.14029 0.47641 0.0
C291 C 0.21902 0.13859 0.45993 0.0
C292 C 0.26388 0.14624 0.47175 0.0
C293 C 0.38318 0.14851 0.50712 0.0
C294 C 0.34473 0.15201 0.49474 0.0
H295 H 0.19291 0.1681 0.41832 0.0
H296 H 0.26752 0.18403 0.43828 0.0
H297 H 0.30206 0.12713 0.45104 0.0
H298 H 0.42492 0.06277 0.51775 0.0
H299 H 0.36666 0.07282 0.49635 0.0
C300 C 0.18949 0.22447 0.76313 0.0
C301 C 0.15263 0.17519 0.76948 0.0
C302 C 0.23309 0.25956 0.7739 0.0
C303 C 0.31068 0.26935 0.81584 0.0
H304 H 0.35247 0.41682 0.8132 0.0
C305 C 0.48712 0.43589 0.85823 0.0
C306 C 0.4779 0.47462 0.86555 0.0
C307 C 0.45062 0.39813 0.8458 0.0
C308 C 0.34119 0.37576 0.81418 0.0
H309 H 0.13347 0.12202 0.79141 0.0
H310 H 0.20819 0.18428 0.81079 0.0
H311 H 0.28299 0.35327 0.7931 0.0
H312 H 0.42251 0.5032 0.86582 0.0
H313 H 0.35941 0.43769 0.84461 0.0
H314 H 0.36831 0.29242 0.83746 0.0
C315 C 0.2042 0.19591 0.79742 0.0
C316 C 0.30153 0.33916 0.80248 0.0
C317 C 0.16106 0.16042 0.78645 0.0
C318 C 0.43133 0.47438 0.86036 0.0
C319 C 0.39511 0.43688 0.84806 0.0
C320 C 0.35044 0.30613 0.82763 0.0
C321 C 0.24063 0.24621 0.79133 0.0
C322 C 0.2851 0.28529 0.80327 0.0
C323 C 0.4044 0.39857 0.84049 0.0
C324 C 0.3655 0.35966 0.82712 0.0
H325 H 0.18461 0.2358 0.74978 0.0
H326 H 0.26086 0.29718 0.76849 0.0
H327 H 0.29993 0.22841 0.81663 0.0
H328 H 0.52256 0.43495 0.86198 0.0
H329 H 0.45899 0.3692 0.84015 0.0
C330 C 0.94116 0.17554 0.70325 0.0
C331 C 0.94913 0.13225 0.70447 0.0
C332 C 0.90565 0.17568 0.69041 0.0
C333 C 0.78623 0.08595 0.66407 0.0
H334 H 0.81927 0.20785 0.63571 0.0
C335 C 0.64478 0.0769 0.60749 0.0
C336 C 0.63961 0.12132 0.60461 0.0
C337 C 0.68348 0.07951 0.61945 0.0
C338 C 0.80908 0.17373 0.6437 0.0
H339 H 0.92667 0.0556 0.69284 0.0
H340 H 0.86419 0.05572 0.67052 0.0
H341 H 0.88609 0.2102 0.65659 0.0
H342 H 0.67102 0.20339 0.61215 0.0
H343 H 0.73785 0.20764 0.6335 0.0
H344 H 0.70903 0.04975 0.65166 0.0
C345 C 0.88549 0.08946 0.67957 0.0
C346 C 0.8475 0.17502 0.65559 0.0
C347 C 0.92151 0.08956 0.69228 0.0
C348 C 0.67405 0.1685 0.61405 0.0
C349 C 0.71259 0.17098 0.62619 0.0
C350 C 0.74769 0.08482 0.65235 0.0
C351 C 0.87685 0.13231 0.67862 0.0
C352 C 0.83653 0.13102 0.66582 0.0
C353 C 0.71779 0.12645 0.62904 0.0
C354 C 0.75865 0.12855 0.64191 0.0
H355 H 0.96198 0.20923 0.71235 0.0
H356 H 0.89958 0.2091 0.69007 0.0
H357 H 0.77632 0.0518 0.67203 0.0
H358 H 0.61932 0.04004 0.6003 0.0
H359 H 0.6869 0.04473 0.62095 0.0
C360 C 0.91946 0.97945 0.03462 0.0
C361 C 0.97268 0.01162 0.03081 0.0
C362 C 0.88549 0.9383 0.02283 0.0
C363 C 0.87426 0.88379 0.97667 0.0
H364 H 0.76554 0.75591 0.99735 0.0
C365 C 0.73877 0.6912 0.9351 0.0
C366 C 0.68505 0.67397 0.93692 0.0
C367 C 0.77674 0.72983 0.94694 0.0
C368 C 0.79588 0.79135 0.99142 0.0
H369 H 0.03328 0.02472 0.01243 0.0
H370 H 0.9745 0.95215 0.99193 0.0
H371 H 0.82558 0.8303 0.01687 0.0
H372 H 0.62852 0.68122 0.95289 0.0
H373 H 0.6944 0.74706 0.9738 0.0
H374 H 0.84451 0.84392 0.95119 0.0
C375 C 0.9581 0.95983 0.00357 0.0
C376 C 0.82995 0.83424 0.00256 0.0
C377 C 0.99187 1.00127 0.0153 0.0
C378 C 0.66974 0.69393 0.95119 0.0
C379 C 0.70737 0.73145 0.96319 0.0
C380 C 0.84058 0.84051 0.96554 0.0
C381 C 0.90452 0.92743 0.00727 0.0
C382 C 0.86913 0.88135 0.99533 0.0
C383 C 0.76125 0.75062 0.96097 0.0
C384 C 0.80064 0.79419 0.97281 0.0
H385 H 0.90438 0.98542 0.04692 0.0
H386 H 0.8444 0.91477 0.02604 0.0
H387 H 0.90346 0.91954 0.97058 0.0
H388 H 0.7515 0.67666 0.9241 0.0
H389 H 0.81813 0.74397 0.94502 0.0
C390 C 0.99279 0.95596 0.35973 0.0
C391 C 0.03621 0.00576 0.36426 0.0
C392 C 0.99876 0.92069 0.34873 0.0
C393 C 0.08815 0.91176 0.31652 0.0
H394 H 0.017 0.76542 0.32988 0.0
C395 C 0.12172 0.75541 0.28073 0.0
C396 C 0.07527 0.70828 0.27582 0.0
C397 C 0.12005 0.7922 0.29237 0.0
C398 C 0.03696 0.80611 0.32592 0.0
H399 H 0.11961 0.05822 0.36035 0.0
H400 H 0.13002 0.99678 0.34135 0.0
H401 H 0.00608 0.8291 0.3475 0.0
H402 H 0.99111 0.66192 0.27983 0.0
H403 H 0.98836 0.72546 0.29997 0.0
H404 H 0.11888 0.88849 0.29488 0.0
C405 C 0.09124 0.98497 0.34612 0.0
C406 C 0.03046 0.84259 0.33597 0.0
C407 C 0.08527 0.02017 0.35709 0.0
C408 C 0.02766 0.69791 0.28327 0.0
C409 C 0.02608 0.73425 0.29494 0.0
C410 C 0.09473 0.87522 0.30647 0.0
C411 C 0.04829 0.93446 0.34203 0.0
C412 C 0.05555 0.8958 0.3313 0.0
C413 C 0.07203 0.78215 0.29945 0.0
C414 C 0.06875 0.82186 0.31095 0.0
H415 H 0.95447 0.9437 0.36501 0.0
H416 H 0.96461 0.88242 0.34558 0.0
H417 H 0.1077 0.95233 0.31245 0.0
H418 H 0.15896 0.76457 0.27518 0.0
H419 H 0.15623 0.82861 0.29573 0.0
C420 C 0.16455 0.09759 0.69071 0.0
C421 C 0.11715 0.05651 0.69698 0.0
C422 C 0.19518 0.08698 0.67942 0.0
C423 C 0.19584 0.99408 0.64707 0.0
H424 H 0.34476 0.06468 0.66088 0.0
C425 C 0.35394 0.98138 0.60471 0.0
C426 C 0.39966 0.03038 0.60238 0.0
C427 C 0.31661 0.97651 0.61702 0.0
C428 C 0.30333 0.04475 0.65678 0.0
H429 H 0.06358 0.97209 0.69567 0.0
H430 H 0.11726 0.9536 0.67551 0.0
H431 H 0.28345 0.07167 0.68031 0.0
H432 H 0.442 0.11245 0.61133 0.0
H433 H 0.37764 0.10403 0.63241 0.0
H434 H 0.21636 0.96884 0.62314 0.0
C435 C 0.13058 0.99398 0.67955 0.0
C436 C 0.26823 0.04874 0.66793 0.0
C437 C 0.09997 0.00458 0.69108 0.0
C438 C 0.40742 0.07401 0.61274 0.0
C439 C 0.37056 0.06912 0.62499 0.0
C440 C 0.23123 0.99037 0.63577 0.0
C441 C 0.17909 0.03507 0.67396 0.0
C442 C 0.21439 0.02474 0.66298 0.0
C443 C 0.32469 0.02045 0.62733 0.0
C444 C 0.28563 0.01704 0.64028 0.0
H445 H 0.17892 0.13807 0.6949 0.0
H446 H 0.23195 0.11954 0.67507 0.0
H447 H 0.15447 0.97515 0.64296 0.0
H448 H 0.34672 0.94706 0.59689 0.0
H449 H 0.28167 0.93843 0.61856 0.0
C450 C 0.19634 0.22933 0.03071 0.0
C451 C 0.15019 0.23111 0.03369 0.0
C452 C 0.23611 0.26778 0.02045 0.0
C453 C 0.25332 0.36345 0.98571 0.0
H454 H 0.40281 0.42238 0.99646 0.0
C455 C 0.4101 0.53248 0.94499 0.0
C456 C 0.45273 0.52694 0.93983 0.0
C457 C 0.37546 0.49918 0.95764 0.0
C458 C 0.36116 0.40602 0.99323 0.0
H459 H 0.11123 0.27654 0.02919 0.0
H460 H 0.18032 0.34329 0.01179 0.0
H461 H 0.33866 0.3581 0.01641 0.0
H462 H 0.49321 0.48298 0.94433 0.0
H463 H 0.43279 0.42503 0.96618 0.0
H464 H 0.2755 0.41087 0.96254 0.0
C465 C 0.18536 0.31158 0.01682 0.0
C466 C 0.32445 0.36911 0.00464 0.0
C467 C 0.14577 0.27328 0.0269 0.0
C468 C 0.4607 0.48833 0.94794 0.0
C469 C 0.42626 0.45525 0.96059 0.0
C470 C 0.2899 0.4003 0.97437 0.0
C471 C 0.23047 0.30875 0.0131 0.0
C472 C 0.27007 0.34751 1.00102 0.0
C473 C 0.38285 0.45981 0.96544 0.0
C474 C 0.34425 0.42206 0.97797 0.0
H475 H 0.20091 0.19736 0.03575 0.0
H476 H 0.27037 0.26441 0.01779 0.0
H477 H 0.21172 0.3468 0.98229 0.0
H478 H 0.40295 0.56192 0.93905 0.0
H479 H 0.34272 0.50412 0.96126 0.0
C480 C 0.97921 0.18412 0.3576 0.0
C481 C 0.01538 0.21297 0.37178 0.0
C482 C 0.96459 0.20969 0.34485 0.0
C483 C 0.96368 0.33447 0.33868 0.0
H484 H 0.96013 0.30518 0.28789 0.0
C485 C 0.00711 0.48776 0.28584 0.0
C486 C 0.9753 0.47395 0.27009 0.0
C487 C 0.99964 0.44985 0.29827 0.0
C488 C 0.95989 0.31303 0.30204 0.0
H489 H 0.06571 0.29171 0.38321 0.0
H490 H 0.04093 0.33569 0.36108 0.0
H491 H 0.97185 0.24934 0.30952 0.0
H492 H 0.91021 0.40976 0.25503 0.0
H493 H 0.89789 0.34236 0.2768 0.0
H494 H 0.95446 0.39963 0.33125 0.0
C495 C 0.02272 0.29326 0.36 0.0
C496 C 0.96668 0.28115 0.31443 0.0
C497 C 0.03726 0.26792 0.37266 0.0
C498 C 0.93496 0.42141 0.26715 0.0
C499 C 0.92817 0.38295 0.2795 0.0
C500 C 0.95729 0.36637 0.32636 0.0
C501 C 0.98574 0.26454 0.34606 0.0
C502 C 0.97049 0.2927 0.33288 0.0
C503 C 0.96073 0.39694 0.29514 0.0
C504 C 0.95702 0.35703 0.30793 0.0
H505 H 0.96158 0.14176 0.3565 0.0
H506 H 0.93603 0.18645 0.33426 0.0
H507 H 0.965 0.34361 0.35281 0.0
H508 H 0.03846 0.52798 0.28846 0.0
H509 H 0.02569 0.46169 0.31009 0.0
loop_
_geom_bond_atom_site_label_1
_geom_bond_atom_site_label_2
_geom_bond_distance
_geom_bond_site_symmetry_2
_ccdc_geom_bond_type
Mn0 O5 2.095 . S
Mn0 O15 2.162 . S
Mn0 O16 2.297 . S
Mn0 O24 2.385 . S
Mn0 O25 2.203 1_455 S
Mn0 O26 2.094 . S
Mn1 O6 2.121 . S
Mn1 N8 2.257 1_455 S
Mn1 N17 2.282 1_455 S
Mn1 O25 2.216 1_455 S
Mn1 O27 2.117 . S
C2 O24 1.234 1_655 S
C2 O25 1.281 . S
C3 O15 1.281 . S
C3 O16 1.236 . S
C4 O26 1.240 . S
C4 O27 1.264 . S
O5 Mn0 2.095 . S
O5 C14 1.250 . S
O6 Mn1 2.121 . S
O6 C14 1.258 . S
C7 N8 1.326 . S
C7 C11 1.460 . S
C7 H13 0.929 . S
N8 Mn1 2.257 1_655 S
N8 C7 1.326 . S
N8 C12 1.362 . S
C9 C10 1.258 . S
C9 C12 1.431 . S
C9 C29 1.449 . S
C10 C9 1.258 . S
C10 C11 1.477 . S
C10 H30 0.931 . S
C11 C7 1.460 . S
C11 C10 1.477 . S
C11 H31 0.930 . S
C12 N8 1.362 . S
C12 C9 1.431 . S
C12 C22 1.476 . S
H13 C7 0.929 . S
C14 O5 1.250 . S
C14 O6 1.258 . S
O15 Mn0 2.162 . S
O15 C3 1.281 . S
O16 Mn0 2.297 . S
O16 C3 1.236 . S
N17 Mn1 2.282 1_655 S
N17 C18 1.328 1_655 S
N17 C22 1.318 . S
C18 N17 1.328 1_455 S
C18 C19 1.457 1_454 S
C18 H23 0.929 . S
C19 C18 1.457 1_656 S
C19 C20 1.291 . S
C19 H32 0.931 1_655 S
C20 C19 1.291 . S
C20 C21 1.373 . S
C20 H33 0.929 . S
C21 C20 1.373 . S
C21 C22 1.396 1_556 S
C21 C28 1.403 . S
C22 C12 1.476 . S
C22 N17 1.318 . S
C22 C21 1.396 1_554 S
H23 C18 0.929 . S
O24 Mn0 2.385 . S
O24 C2 1.234 1_455 S
O25 Mn0 2.203 1_655 S
O25 Mn1 2.216 1_655 S
O25 C2 1.281 . S
O26 Mn0 2.094 . S
O26 C4 1.240 . S
O27 Mn1 2.117 . S
O27 C4 1.264 . S
C28 C21 1.403 . S
C28 C29 1.399 1_556 S
C28 H34 0.929 . S
C29 C9 1.449 . S
C29 C28 1.399 1_554 S
C29 H35 0.938 . S
H30 C10 0.931 . S
H31 C11 0.930 . S
H32 C19 0.931 1_455 S
H33 C20 0.929 . S
H34 C28 0.929 . S
H35 C29 0.938 . S
Mn36 O41 2.094 1_455 S
Mn36 O51 2.162 1_445 S
Mn36 O52 2.297 . S
Mn36 O60 2.385 . S
Mn36 O61 2.209 . S
Mn36 O62 2.094 1_455 S
Mn37 O42 2.121 . S
Mn37 N44 2.257 . S
Mn37 N53 2.282 . S
Mn37 O61 2.215 . S
Mn37 O63 2.117 1_455 S
C38 O60 1.234 . S
C38 O61 1.283 . S
C39 O51 1.281 1_445 S
C39 O52 1.236 . S
C40 O62 1.240 . S
C40 O63 1.264 . S
O41 Mn36 2.094 1_655 S
O41 C50 1.249 1_655 S
O42 Mn37 2.121 . S
O42 C50 1.258 . S
C43 N44 1.326 . S
C43 C47 1.460 . S
C43 H49 0.929 . S
N44 Mn37 2.257 . S
N44 C43 1.326 . S
N44 C48 1.362 . S
C45 C46 1.258 . S
C45 C48 1.431 . S
C45 C65 1.449 . S
C46 C45 1.258 . S
C46 C47 1.477 . S
C46 H66 0.931 . S
C47 C43 1.460 . S
C47 C46 1.477 . S
C47 H67 0.930 . S
C48 N44 1.362 . S
C48 C45 1.431 . S
C48 C58 1.476 . S
H49 C43 0.929 . S
C50 O41 1.249 1_455 S
C50 O42 1.258 . S
O51 Mn36 2.162 1_665 S
O51 C39 1.281 1_665 S
O52 Mn36 2.297 . S
O52 C39 1.236 . S
N53 Mn37 2.282 . S
N53 C54 1.328 . S
N53 C58 1.318 . S
C54 N53 1.328 . S
C54 C55 1.457 . S
C54 H59 0.929 . S
C55 C54 1.457 . S
C55 C56 1.291 . S
C55 H68 0.931 . S
C56 C55 1.291 . S
C56 C57 1.373 . S
C56 H69 0.929 . S
C57 C56 1.373 . S
C57 C58 1.396 . S
C57 C64 1.403 . S
C58 C48 1.476 . S
C58 N53 1.318 . S
C58 C57 1.396 . S
H59 C54 0.929 . S
O60 Mn36 2.385 . S
O60 C38 1.234 . S
O61 Mn36 2.209 . S
O61 Mn37 2.215 . S
O61 C38 1.283 . S
O62 Mn36 2.094 1_655 S
O62 C40 1.240 . S
O63 Mn37 2.117 1_655 S
O63 C40 1.264 . S
C64 C57 1.403 . S
C64 C65 1.399 . S
C64 H70 0.929 . S
C65 C45 1.449 . S
C65 C64 1.399 . S
C65 H71 0.930 . S
H66 C46 0.931 . S
H67 C47 0.930 . S
H68 C55 0.931 . S
H69 C56 0.929 . S
H70 C64 0.929 . S
H71 C65 0.930 . S
Mn72 O77 2.095 1_455 S
Mn72 O87 2.162 . S
Mn72 O88 2.297 . S
Mn72 O96 2.385 . S
Mn72 O97 2.209 . S
Mn72 O98 2.094 1_455 S
Mn73 O78 2.121 . S
Mn73 N80 2.257 1_655 S
Mn73 N89 2.282 1_655 S
Mn73 O97 2.215 1_655 S
Mn73 O99 2.117 . S
C74 O96 1.234 . S
C74 O97 1.283 . S
C75 O87 1.281 . S
C75 O88 1.236 . S
C76 O98 1.240 . S
C76 O99 1.264 . S
O77 Mn72 2.095 1_655 S
O77 C86 1.250 . S
O78 Mn73 2.121 . S
O78 C86 1.258 . S
C79 N80 1.326 . S
C79 C83 1.460 . S
C79 H85 0.929 1_455 S
N80 Mn73 2.257 1_455 S
N80 C79 1.326 . S
N80 C84 1.362 . S
C81 C82 1.258 . S
C81 C84 1.431 . S
C81 C101 1.449 . S
C82 C81 1.258 . S
C82 C83 1.477 . S
C82 H102 0.931 . S
C83 C79 1.460 . S
C83 C82 1.477 . S
C83 H103 0.930 . S
C84 N80 1.362 . S
C84 C81 1.431 . S
C84 C94 1.476 . S
H85 C79 0.929 1_655 S
C86 O77 1.250 . S
C86 O78 1.258 . S
O87 Mn72 2.162 . S
O87 C75 1.281 . S
O88 Mn72 2.297 . S
O88 C75 1.236 . S
N89 Mn73 2.282 1_455 S
N89 C90 1.328 . S
N89 C94 1.318 . S
C90 N89 1.328 . S
C90 C91 1.457 . S
C90 H95 0.929 . S
C91 C90 1.457 . S
C91 C92 1.291 . S
C91 H104 0.931 . S
C92 C91 1.291 . S
C92 C93 1.373 . S
C92 H105 0.929 . S
C93 C92 1.373 . S
C93 C94 1.396 . S
C93 C100 1.403 . S
C94 C84 1.476 . S
C94 N89 1.318 . S
C94 C93 1.396 . S
H95 C90 0.929 . S
O96 Mn72 2.385 . S
O96 C74 1.234 . S
O97 Mn72 2.209 . S
O97 Mn73 2.215 1_455 S
O97 C74 1.283 . S
O98 Mn72 2.094 1_655 S
O98 C76 1.240 . S
O99 Mn73 2.117 . S
O99 C76 1.264 . S
C100 C93 1.403 . S
C100 C101 1.399 . S
C100 H106 0.929 . S
C101 C81 1.449 . S
C101 C100 1.399 . S
C101 H107 0.930 . S
H102 C82 0.931 . S
H103 C83 0.930 . S
H104 C91 0.931 . S
H105 C92 0.929 . S
H106 C100 0.929 . S
H107 C101 0.930 . S
C108 O110 1.247 . S
C108 O112 1.258 1_455 S
C109 O116 1.240 1_455 S
C109 O117 1.258 . S
O110 C108 1.247 . S
O110 Zn111 2.028 . S
Zn111 O110 2.028 . S
Zn111 O115 2.035 . S
Zn111 O117 2.035 . S
Zn111 O118 2.028 . S
O112 C108 1.258 1_655 S
O112 Zn113 2.035 . S
Zn113 O112 2.035 . S
Zn113 O114 2.028 . S
Zn113 O116 2.032 . S
Zn113 O119 2.034 . S
O114 Zn113 2.028 . S
O114 C120 1.247 1_655 S
O115 Zn111 2.035 . S
O115 C120 1.258 . S
O116 C109 1.240 1_655 S
O116 Zn113 2.032 . S
O117 C109 1.258 . S
O117 Zn111 2.035 . S
O118 Zn111 2.028 . S
O118 C121 1.247 . S
O119 Zn113 2.034 . S
O119 C121 1.254 1_655 S
C120 O114 1.247 1_455 S
C120 O115 1.258 . S
C121 O118 1.247 . S
C121 O119 1.254 1_455 S
C122 O124 1.247 . S
C122 O126 1.258 . S
C123 O130 1.247 . S
C123 O131 1.258 . S
O124 C122 1.247 . S
O124 Zn125 2.028 . S
Zn125 O124 2.028 . S
Zn125 O129 2.035 . S
Zn125 O131 2.035 . S
Zn125 O132 2.028 . S
O126 C122 1.258 . S
O126 Zn127 2.035 . S
Zn127 O126 2.035 . S
Zn127 O128 2.028 . S
Zn127 O130 2.028 . S
Zn127 O133 2.035 . S
O128 Zn127 2.028 . S
O128 C134 1.247 . S
O129 Zn125 2.035 . S
O129 C134 1.258 . S
O130 C123 1.247 . S
O130 Zn127 2.028 . S
O131 C123 1.258 . S
O131 Zn125 2.035 . S
O132 Zn125 2.028 . S
O132 C135 1.247 . S
O133 Zn127 2.035 . S
O133 C135 1.258 . S
C134 O128 1.247 . S
C134 O129 1.258 . S
C135 O132 1.247 . S
C135 O133 1.258 . S
C136 O138 1.247 . S
C136 O140 1.258 . S
C137 O144 1.247 . S
C137 O145 1.258 . S
O138 C136 1.247 . S
O138 Zn139 2.028 . S
Zn139 O138 2.028 . S
Zn139 O143 2.035 . S
Zn139 O145 2.035 . S
Zn139 O146 2.028 . S
O140 C136 1.258 . S
O140 Zn141 2.035 . S
Zn141 O140 2.035 . S
Zn141 O142 2.028 . S
Zn141 O144 2.028 . S
Zn141 O147 2.035 . S
O142 Zn141 2.028 . S
O142 C148 1.247 . S
O143 Zn139 2.035 . S
O143 C148 1.258 . S
O144 C137 1.247 . S
O144 Zn141 2.028 . S
O145 C137 1.258 . S
O145 Zn139 2.035 . S
O146 Zn139 2.028 . S
O146 C149 1.247 . S
O147 Zn141 2.035 . S
O147 C149 1.258 . S
C148 O142 1.247 . S
C148 O143 1.258 . S
C149 O146 1.247 . S
C149 O147 1.258 . S
C150 C151 1.349 . S
C150 C152 1.327 . S
C150 H175 0.950 . S
C151 C150 1.349 . S
C151 C167 1.349 . S
C152 C150 1.327 . S
C152 C171 1.429 . S
C152 H176 0.950 . S
C153 C170 1.574 . S
C153 C172 1.368 . S
C153 H177 0.949 . S
H154 C158 0.949 . S
C155 C156 1.349 . S
C155 C157 1.327 . S
C155 H178 0.950 . S
C156 C155 1.349 . S
C156 C168 1.349 . S
C157 C155 1.327 . S
C157 C173 1.429 . S
C157 H179 0.950 . S
C158 H154 0.949 . S
C158 C166 1.574 . S
C158 C174 1.368 . S
H159 C167 0.950 . S
H160 C165 0.950 . S
H161 C166 0.949 . S
H162 C168 0.950 . S
H163 C169 0.950 . S
H164 C170 0.949 . S
C165 H160 0.950 . S
C165 C167 1.327 . S
C165 C171 1.429 . S
C166 C158 1.574 . S
C166 H161 0.949 . S
C166 C172 1.368 . S
C167 C151 1.349 . S
C167 H159 0.950 . S
C167 C165 1.327 . S
C168 C156 1.349 . S
C168 H162 0.950 . S
C168 C169 1.327 . S
C169 H163 0.950 . S
C169 C168 1.327 . S
C169 C173 1.429 . S
C170 C153 1.574 . S
C170 H164 0.949 . S
C170 C174 1.368 . S
C171 C152 1.429 . S
C171 C165 1.429 . S
C171 C172 1.523 . S
C172 C153 1.368 . S
C172 C166 1.368 . S
C172 C171 1.523 . S
C173 C157 1.429 . S
C173 C169 1.429 . S
C173 C174 1.523 . S
C174 C158 1.368 . S
C174 C170 1.368 . S
C174 C173 1.523 . S
H175 C150 0.950 . S
H176 C152 0.950 . S
H177 C153 0.949 . S
H178 C155 0.950 . S
H179 C157 0.950 . S
C180 C181 1.349 . S
C180 C182 1.327 . S
C180 H205 0.950 . S
C181 C180 1.349 . S
C181 C197 1.349 . S
C182 C180 1.327 . S
C182 C201 1.429 . S
C182 H206 0.950 . S
C183 C200 1.574 . S
C183 C202 1.368 . S
C183 H207 0.949 . S
H184 C188 0.949 . S
C185 C186 1.349 . S
C185 C187 1.327 . S
C185 H208 0.950 . S
C186 C185 1.349 . S
C186 C198 1.349 . S
C187 C185 1.327 . S
C187 C203 1.429 . S
C187 H209 0.950 . S
C188 H184 0.949 . S
C188 C196 1.574 . S
C188 C204 1.368 . S
H189 C197 0.950 . S
H190 C195 0.950 . S
H191 C196 0.949 . S
H192 C198 0.950 . S
H193 C199 0.950 . S
H194 C200 0.949 . S
C195 H190 0.950 . S
C195 C197 1.327 . S
C195 C201 1.429 . S
C196 C188 1.574 . S
C196 H191 0.949 . S
C196 C202 1.368 . S
C197 C181 1.349 . S
C197 H189 0.950 . S
C197 C195 1.327 . S
C198 C186 1.349 . S
C198 H192 0.950 . S
C198 C199 1.327 . S
C199 H193 0.950 . S
C199 C198 1.327 . S
C199 C203 1.429 . S
C200 C183 1.574 . S
C200 H194 0.949 . S
C200 C204 1.368 . S
C201 C182 1.429 . S
C201 C195 1.429 . S
C201 C202 1.523 . S
C202 C183 1.368 . S
C202 C196 1.368 . S
C202 C201 1.523 . S
C203 C187 1.429 . S
C203 C199 1.429 . S
C203 C204 1.523 . S
C204 C188 1.368 . S
C204 C200 1.368 . S
C204 C203 1.523 . S
H205 C180 0.950 . S
H206 C182 0.950 . S
H207 C183 0.949 . S
H208 C185 0.950 . S
H209 C187 0.950 . S
C210 C211 1.349 . S
C210 C212 1.327 . S
C210 H235 0.950 1_565 S
C211 C210 1.349 . S
C211 C227 1.349 . S
C212 C210 1.327 . S
C212 C231 1.429 . S
C212 H236 0.950 . S
C213 C230 1.574 . S
C213 C232 1.368 . S
C213 H237 0.949 . S
H214 C218 0.949 . S
C215 C216 1.349 . S
C215 C217 1.327 . S
C215 H238 0.950 . S
C216 C215 1.349 . S
C216 C228 1.349 . S
C217 C215 1.327 . S
C217 C233 1.429 . S
C217 H239 0.950 . S
C218 H214 0.949 . S
C218 C226 1.574 . S
C218 C234 1.368 . S
H219 C227 0.950 . S
H220 C225 0.950 . S
H221 C226 0.949 . S
H222 C228 0.950 . S
H223 C229 0.950 . S
H224 C230 0.949 . S
C225 H220 0.950 . S
C225 C227 1.327 . S
C225 C231 1.429 . S
C226 C218 1.574 . S
C226 H221 0.949 . S
C226 C232 1.368 . S
C227 C211 1.349 . S
C227 H219 0.950 . S
C227 C225 1.327 . S
C228 C216 1.349 . S
C228 H222 0.950 . S
C228 C229 1.327 . S
C229 H223 0.950 . S
C229 C228 1.327 . S
C229 C233 1.429 . S
C230 C213 1.574 . S
C230 H224 0.949 . S
C230 C234 1.368 . S
C231 C212 1.429 . S
C231 C225 1.429 . S
C231 C232 1.523 . S
C232 C213 1.368 . S
C232 C226 1.368 . S
C232 C231 1.523 . S
C233 C217 1.429 . S
C233 C229 1.429 . S
C233 C234 1.523 . S
C234 C218 1.368 . S
C234 C230 1.368 . S
C234 C233 1.523 . S
H235 C210 0.950 1_545 S
H236 C212 0.950 . S
H237 C213 0.949 . S
H238 C215 0.950 . S
H239 C217 0.950 . S
C240 C241 1.349 . S
C240 C242 1.327 . S
C240 H265 0.950 1_565 S
C241 C240 1.349 . S
C241 C257 1.349 . S
C242 C240 1.327 . S
C242 C261 1.429 . S
C242 H266 0.950 . S
C243 C260 1.574 . S
C243 C262 1.368 . S
C243 H267 0.949 1_455 S
H244 C248 0.949 . S
C245 C246 1.349 . S
C245 C247 1.327 . S
C245 H268 0.950 1_455 S
C246 C245 1.349 . S
C246 C258 1.349 . S
C247 C245 1.327 . S
C247 C263 1.429 . S
C247 H269 0.950 1_455 S
C248 H244 0.949 . S
C248 C256 1.574 . S
C248 C264 1.368 . S
H249 C257 0.950 1_655 S
H250 C255 0.950 1_655 S
H251 C256 0.949 . S
H252 C258 0.950 . S
H253 C259 0.950 . S
H254 C260 0.949 1_655 S
C255 H250 0.950 1_455 S
C255 C257 1.327 . S
C255 C261 1.429 . S
C256 C248 1.574 . S
C256 H251 0.949 . S
C256 C262 1.368 . S
C257 C241 1.349 . S
C257 H249 0.950 1_455 S
C257 C255 1.327 . S
C258 C246 1.349 . S
C258 H252 0.950 . S
C258 C259 1.327 . S
C259 H253 0.950 . S
C259 C258 1.327 . S
C259 C263 1.429 . S
C260 C243 1.574 . S
C260 H254 0.949 1_455 S
C260 C264 1.368 . S
C261 C242 1.429 . S
C261 C255 1.429 . S
C261 C262 1.523 . S
C262 C243 1.368 . S
C262 C256 1.368 . S
C262 C261 1.523 . S
C263 C247 1.429 . S
C263 C259 1.429 . S
C263 C264 1.523 . S
C264 C248 1.368 . S
C264 C260 1.368 . S
C264 C263 1.523 . S
H265 C240 0.950 1_545 S
H266 C242 0.950 . S
H267 C243 0.949 1_655 S
H268 C245 0.950 1_655 S
H269 C247 0.950 1_655 S
C270 C271 1.349 . S
C270 C272 1.327 . S
C270 H295 0.950 . S
C271 C270 1.349 . S
C271 C287 1.349 . S
C272 C270 1.327 . S
C272 C291 1.429 . S
C272 H296 0.950 . S
C273 C290 1.574 . S
C273 C292 1.368 . S
C273 H297 0.949 . S
H274 C278 0.949 . S
C275 C276 1.349 . S
C275 C277 1.327 . S
C275 H298 0.950 . S
C276 C275 1.349 . S
C276 C288 1.349 . S
C277 C275 1.327 . S
C277 C293 1.429 . S
C277 H299 0.950 . S
C278 H274 0.949 . S
C278 C286 1.574 . S
C278 C294 1.368 . S
H279 C287 0.950 . S
H280 C285 0.950 . S
H281 C286 0.949 . S
H282 C288 0.950 . S
H283 C289 0.950 . S
H284 C290 0.949 . S
C285 H280 0.950 . S
C285 C287 1.327 . S
C285 C291 1.429 . S
C286 C278 1.574 . S
C286 H281 0.949 . S
C286 C292 1.368 . S
C287 C271 1.349 . S
C287 H279 0.950 . S
C287 C285 1.327 . S
C288 C276 1.349 . S
C288 H282 0.950 . S
C288 C289 1.327 . S
C289 H283 0.950 . S
C289 C288 1.327 . S
C289 C293 1.429 . S
C290 C273 1.574 . S
C290 H284 0.949 . S
C290 C294 1.368 . S
C291 C272 1.429 . S
C291 C285 1.429 . S
C291 C292 1.523 . S
C292 C273 1.368 . S
C292 C286 1.368 . S
C292 C291 1.523 . S
C293 C277 1.429 . S
C293 C289 1.429 . S
C293 C294 1.523 . S
C294 C278 1.368 . S
C294 C290 1.368 . S
C294 C293 1.523 . S
H295 C270 0.950 . S
H296 C272 0.950 . S
H297 C273 0.949 . S
H298 C275 0.950 . S
H299 C277 0.950 . S
C300 C301 1.349 . S
C300 C302 1.327 . S
C300 H325 0.950 . S
C301 C300 1.349 . S
C301 C317 1.349 . S
C302 C300 1.327 . S
C302 C321 1.429 . S
C302 H326 0.950 . S
C303 C320 1.574 . S
C303 C322 1.368 . S
C303 H327 0.949 . S
H304 C308 0.949 . S
C305 C306 1.349 . S
C305 C307 1.327 . S
C305 H328 0.950 . S
C306 C305 1.349 . S
C306 C318 1.349 . S
C307 C305 1.327 . S
C307 C323 1.429 . S
C307 H329 0.950 . S
C308 H304 0.949 . S
C308 C316 1.574 . S
C308 C324 1.368 . S
H309 C317 0.950 . S
H310 C315 0.950 . S
H311 C316 0.949 . S
H312 C318 0.950 . S
H313 C319 0.950 . S
H314 C320 0.949 . S
C315 H310 0.950 . S
C315 C317 1.327 . S
C315 C321 1.429 . S
C316 C308 1.574 . S
C316 H311 0.949 . S
C316 C322 1.368 . S
C317 C301 1.349 . S
C317 H309 0.950 . S
C317 C315 1.327 . S
C318 C306 1.349 . S
C318 H312 0.950 . S
C318 C319 1.327 . S
C319 H313 0.950 . S
C319 C318 1.327 . S
C319 C323 1.429 . S
C320 C303 1.574 . S
C320 H314 0.949 . S
C320 C324 1.368 . S
C321 C302 1.429 . S
C321 C315 1.429 . S
C321 C322 1.523 . S
C322 C303 1.368 . S
C322 C316 1.368 . S
C322 C321 1.523 . S
C323 C307 1.429 . S
C323 C319 1.429 . S
C323 C324 1.523 . S
C324 C308 1.368 . S
C324 C320 1.368 . S
C324 C323 1.523 . S
H325 C300 0.950 . S
H326 C302 0.950 . S
H327 C303 0.949 . S
H328 C305 0.950 . S
H329 C307 0.950 . S
C330 C331 1.349 . S
C330 C332 1.327 . S
C330 H355 0.950 . S
C331 C330 1.349 . S
C331 C347 1.349 . S
C332 C330 1.327 . S
C332 C351 1.429 . S
C332 H356 0.950 . S
C333 C350 1.574 . S
C333 C352 1.368 . S
C333 H357 0.949 . S
H334 C338 0.949 . S
C335 C336 1.349 . S
C335 C337 1.327 . S
C335 H358 0.950 . S
C336 C335 1.349 . S
C336 C348 1.349 . S
C337 C335 1.327 . S
C337 C353 1.429 . S
C337 H359 0.950 . S
C338 H334 0.949 . S
C338 C346 1.574 . S
C338 C354 1.368 . S
H339 C347 0.950 . S
H340 C345 0.950 . S
H341 C346 0.949 . S
H342 C348 0.950 . S
H343 C349 0.950 . S
H344 C350 0.949 . S
C345 H340 0.950 . S
C345 C347 1.327 . S
C345 C351 1.429 . S
C346 C338 1.574 . S
C346 H341 0.949 . S
C346 C352 1.368 . S
C347 C331 1.349 . S
C347 H339 0.950 . S
C347 C345 1.327 . S
C348 C336 1.349 . S
C348 H342 0.950 . S
C348 C349 1.327 . S
C349 H343 0.950 . S
C349 C348 1.327 . S
C349 C353 1.429 . S
C350 C333 1.574 . S
C350 H344 0.949 . S
C350 C354 1.368 . S
C351 C332 1.429 . S
C351 C345 1.429 . S
C351 C352 1.523 . S
C352 C333 1.368 . S
C352 C346 1.368 . S
C352 C351 1.523 . S
C353 C337 1.429 . S
C353 C349 1.429 . S
C353 C354 1.523 . S
C354 C338 1.368 . S
C354 C350 1.368 . S
C354 C353 1.523 . S
H355 C330 0.950 . S
H356 C332 0.950 . S
H357 C333 0.949 . S
H358 C335 0.950 . S
H359 C337 0.950 . S
C360 C361 1.349 1_565 S
C360 C362 1.327 . S
C360 H385 0.950 . S
C361 C360 1.349 1_545 S
C361 C377 1.349 . S
C362 C360 1.327 . S
C362 C381 1.429 . S
C362 H386 0.950 . S
C363 C380 1.574 . S
C363 C382 1.368 . S
C363 H387 0.949 . S
H364 C368 0.949 . S
C365 C366 1.349 . S
C365 C367 1.327 . S
C365 H388 0.950 . S
C366 C365 1.349 . S
C366 C378 1.349 . S
C367 C365 1.327 . S
C367 C383 1.429 . S
C367 H389 0.950 . S
C368 H364 0.949 . S
C368 C376 1.574 1_556 S
C368 C384 1.368 . S
H369 C377 0.950 . S
H370 C375 0.950 1_556 S
H371 C376 0.949 . S
H372 C378 0.950 . S
H373 C379 0.950 . S
H374 C380 0.949 . S
C375 H370 0.950 1_554 S
C375 C377 1.327 1_565 S
C375 C381 1.429 . S
C376 C368 1.574 1_554 S
C376 H371 0.949 . S
C376 C382 1.368 1_554 S
C377 C361 1.349 . S
C377 H369 0.950 . S
C377 C375 1.327 1_545 S
C378 C366 1.349 . S
C378 H372 0.950 . S
C378 C379 1.327 . S
C379 H373 0.950 . S
C379 C378 1.327 . S
C379 C383 1.429 . S
C380 C363 1.574 . S
C380 H374 0.949 . S
C380 C384 1.368 . S
C381 C362 1.429 . S
C381 C375 1.429 . S
C381 C382 1.523 1_554 S
C382 C363 1.368 . S
C382 C376 1.368 1_556 S
C382 C381 1.523 1_556 S
C383 C367 1.429 . S
C383 C379 1.429 . S
C383 C384 1.523 . S
C384 C368 1.368 . S
C384 C380 1.368 . S
C384 C383 1.523 . S
H385 C360 0.950 . S
H386 C362 0.950 . S
H387 C363 0.949 . S
H388 C365 0.950 . S
H389 C367 0.950 . S
C390 C391 1.349 1_655 S
C390 C392 1.327 . S
C390 H415 0.950 . S
C391 C390 1.349 1_455 S
C391 C407 1.349 . S
C392 C390 1.327 . S
C392 C411 1.429 1_655 S
C392 H416 0.950 . S
C393 C410 1.574 . S
C393 C412 1.368 . S
C393 H417 0.949 . S
H394 C398 0.949 . S
C395 C396 1.349 . S
C395 C397 1.327 . S
C395 H418 0.950 . S
C396 C395 1.349 . S
C396 C408 1.349 . S
C397 C395 1.327 . S
C397 C413 1.429 . S
C397 H419 0.950 . S
C398 H394 0.949 . S
C398 C406 1.574 . S
C398 C414 1.368 1_655 S
H399 C407 0.950 1_545 S
H400 C405 0.950 . S
H401 C406 0.949 . S
H402 C408 0.950 1_655 S
H403 C409 0.950 1_655 S
H404 C410 0.949 . S
C405 H400 0.950 . S
C405 C407 1.327 . S
C405 C411 1.429 . S
C406 C398 1.574 . S
C406 H401 0.949 . S
C406 C412 1.368 1_655 S
C407 C391 1.349 . S
C407 H399 0.950 1_565 S
C407 C405 1.327 . S
C408 C396 1.349 . S
C408 H402 0.950 1_455 S
C408 C409 1.327 . S
C409 H403 0.950 1_455 S
C409 C408 1.327 . S
C409 C413 1.429 . S
C410 C393 1.574 . S
C410 H404 0.949 . S
C410 C414 1.368 . S
C411 C392 1.429 1_455 S
C411 C405 1.429 . S
C411 C412 1.523 . S
C412 C393 1.368 . S
C412 C406 1.368 1_455 S
C412 C411 1.523 . S
C413 C397 1.429 . S
C413 C409 1.429 . S
C413 C414 1.523 . S
C414 C398 1.368 1_455 S
C414 C410 1.368 . S
C414 C413 1.523 . S
H415 C390 0.950 . S
H416 C392 0.950 . S
H417 C393 0.949 . S
H418 C395 0.950 . S
H419 C397 0.950 . S
C420 C421 1.349 . S
C420 C422 1.327 . S
C420 H445 0.950 . S
C421 C420 1.349 . S
C421 C437 1.349 . S
C422 C420 1.327 . S
C422 C441 1.429 . S
C422 H446 0.950 . S
C423 C440 1.574 . S
C423 C442 1.368 . S
C423 H447 0.949 . S
H424 C428 0.949 . S
C425 C426 1.349 . S
C425 C427 1.327 . S
C425 H448 0.950 . S
C426 C425 1.349 . S
C426 C438 1.349 . S
C427 C425 1.327 . S
C427 C443 1.429 . S
C427 H449 0.950 . S
C428 H424 0.949 . S
C428 C436 1.574 . S
C428 C444 1.368 . S
H429 C437 0.950 . S
H430 C435 0.950 . S
H431 C436 0.949 . S
H432 C438 0.950 . S
H433 C439 0.950 . S
H434 C440 0.949 . S
C435 H430 0.950 . S
C435 C437 1.327 . S
C435 C441 1.429 . S
C436 C428 1.574 . S
C436 H431 0.949 . S
C436 C442 1.368 . S
C437 C421 1.349 . S
C437 H429 0.950 . S
C437 C435 1.327 . S
C438 C426 1.349 . S
C438 H432 0.950 . S
C438 C439 1.327 . S
C439 H433 0.950 . S
C439 C438 1.327 . S
C439 C443 1.429 . S
C440 C423 1.574 . S
C440 H434 0.949 . S
C440 C444 1.368 . S
C441 C422 1.429 . S
C441 C435 1.429 . S
C441 C442 1.523 . S
C442 C423 1.368 . S
C442 C436 1.368 . S
C442 C441 1.523 . S
C443 C427 1.429 . S
C443 C439 1.429 . S
C443 C444 1.523 . S
C444 C428 1.368 . S
C444 C440 1.368 . S
C444 C443 1.523 . S
H445 C420 0.950 . S
H446 C422 0.950 . S
H447 C423 0.949 . S
H448 C425 0.950 . S
H449 C427 0.950 . S
C450 C451 1.349 . S
C450 C452 1.327 . S
C450 H475 0.950 . S
C451 C450 1.349 . S
C451 C467 1.349 . S
C452 C450 1.327 . S
C452 C471 1.429 . S
C452 H476 0.950 . S
C453 C470 1.574 . S
C453 C472 1.368 . S
C453 H477 0.949 . S
H454 C458 0.949 . S
C455 C456 1.349 . S
C455 C457 1.327 . S
C455 H478 0.950 . S
C456 C455 1.349 . S
C456 C468 1.349 . S
C457 C455 1.327 . S
C457 C473 1.429 . S
C457 H479 0.950 . S
C458 H454 0.949 . S
C458 C466 1.574 . S
C458 C474 1.368 . S
H459 C467 0.950 . S
H460 C465 0.926 1_556 S
H461 C466 0.949 1_554 S
H462 C468 0.950 . S
H463 C469 0.950 . S
H464 C470 0.949 . S
C465 H460 0.926 1_554 S
C465 C467 1.327 . S
C465 C471 1.429 . S
C466 C458 1.574 . S
C466 H461 0.949 1_556 S
C466 C472 1.368 . S
C467 C451 1.349 . S
C467 H459 0.950 . S
C467 C465 1.327 . S
C468 C456 1.349 . S
C468 H462 0.950 . S
C468 C469 1.327 . S
C469 H463 0.950 . S
C469 C468 1.327 . S
C469 C473 1.429 . S
C470 C453 1.574 . S
C470 H464 0.949 . S
C470 C474 1.368 . S
C471 C452 1.429 . S
C471 C465 1.429 . S
C471 C472 1.523 1_554 S
C472 C453 1.368 . S
C472 C466 1.368 . S
C472 C471 1.523 1_556 S
C473 C457 1.429 . S
C473 C469 1.429 . S
C473 C474 1.523 . S
C474 C458 1.368 . S
C474 C470 1.368 . S
C474 C473 1.523 . S
H475 C450 0.950 . S
H476 C452 0.950 . S
H477 C453 0.949 . S
H478 C455 0.950 . S
H479 C457 0.950 . S
C480 C481 1.349 . S
C480 C482 1.325 1_455 S
C480 H505 0.950 1_455 S
C481 C480 1.349 . S
C481 C497 1.349 . S
C482 C480 1.325 1_655 S
C482 C501 1.428 1_655 S
C482 H506 0.952 . S
C483 C500 1.574 . S
C483 C502 1.368 . S
C483 H507 0.949 . S
H484 C488 0.954 . S
C485 C486 1.349 . S
C485 C487 1.327 . S
C485 H508 0.950 . S
C486 C485 1.349 . S
C486 C498 1.349 . S
C487 C485 1.327 . S
C487 C503 1.429 . S
C487 H509 0.950 . S
C488 H484 0.954 . S
C488 C496 1.580 . S
C488 C504 1.366 1_655 S
H489 C497 0.950 . S
H490 C495 0.950 . S
H491 C496 0.953 . S
H492 C498 0.950 1_655 S
H493 C499 0.950 1_655 S
H494 C500 0.949 . S
C495 H490 0.950 . S
C495 C497 1.327 . S
C495 C501 1.429 . S
C496 C488 1.580 . S
C496 H491 0.953 . S
C496 C502 1.356 1_655 S
C497 C481 1.349 . S
C497 H489 0.950 . S
C497 C495 1.327 . S
C498 C486 1.349 . S
C498 H492 0.950 1_455 S
C498 C499 1.327 . S
C499 H493 0.950 1_455 S
C499 C498 1.327 . S
C499 C503 1.429 . S
C500 C483 1.574 . S
C500 H494 0.949 . S
C500 C504 1.368 . S
C501 C482 1.428 1_455 S
C501 C495 1.429 . S
C501 C502 1.523 . S
C502 C483 1.368 . S
C502 C496 1.356 1_455 S
C502 C501 1.523 . S
C503 C487 1.429 . S
C503 C499 1.429 . S
C503 C504 1.523 . S
C504 C488 1.366 1_455 S
C504 C500 1.368 . S
C504 C503 1.523 . S
H505 C480 0.950 1_655 S
H506 C482 0.952 . S
H507 C483 0.949 . S
H508 C485 0.950 . S
H509 C487 0.950 . S
C156 C109 1.455 . S
C151 C14 1.416 . S
C181 C40 1.448 . S
C186 C135 1.462 . S
C211 C76 1.431 1_565 S
C216 C137 1.444 . S
C241 C3 1.422 1_565 S
C246 C121 1.423 . S
C276 C123 1.468 . S
C271 C38 1.452 . S
C301 C74 1.430 . S
C306 C149 1.446 . S
C336 C122 1.420 . S
C331 C86 1.383 . S
C361 C2 1.431 . S
C366 C148 1.447 . S
C396 C108 1.423 . S
C391 C39 1.422 1_565 S
C426 C134 1.430 . S
C421 C75 1.430 . S
C456 C136 1.446 . S
C451 C4 1.432 . S
C481 C50 1.417 . S
C486 C120 1.455 . S
