# Generated by pormake.
# Topology wbl, (4,4)-cn, num edge types: 1
# Building blocks:
#     Node 0, Type 0, BuildingBlock: MUDLON_clean_sbu_0, # of connection points: 4
#     Node 1, Type 0, BuildingBlock: MUDLON_clean_sbu_0, # of connection points: 4
#     Node 2, Type 0, BuildingBlock: MUDLON_clean_sbu_0, # of connection points: 4
#     Node 3, Type 0, BuildingBlock: MUDLON_clean_sbu_0, # of connection points: 4
#     Node 4, Type 0, BuildingBlock: MUDLON_clean_sbu_0, # of connection points: 4
#     Node 5, Type 0, BuildingBlock: MUDLON_clean_sbu_0, # of connection points: 4
#     Node 6, Type 0, BuildingBlock: MUDLON_clean_sbu_0, # of connection points: 4
#     Node 7, Type 0, BuildingBlock: MUDLON_clean_sbu_0, # of connection points: 4
#     Node 8, Type 1, BuildingBlock: NAHDIM_clean_sbu_0, # of connection points: 4
#     Node 9, Type 1, BuildingBlock: NAHDIM_clean_sbu_0, # of connection points: 4
#     Node 10, Type 1, BuildingBlock: NAHDIM_clean_sbu_0, # of connection points: 4
#     Node 11, Type 1, BuildingBlock: NAHDIM_clean_sbu_0, # of connection points: 4
#     Node 12, Type 1, BuildingBlock: NAHDIM_clean_sbu_0, # of connection points: 4
#     Node 13, Type 1, BuildingBlock: NAHDIM_clean_sbu_0, # of connection points: 4
#     Node 14, Type 1, BuildingBlock: NAHDIM_clean_sbu_0, # of connection points: 4
#     Node 15, Type 1, BuildingBlock: NAHDIM_clean_sbu_0, # of connection points: 4
#     Edge 16, Type (0, 1), BuildingBlock: AJUNOK_clean_linker_0, # of connection points: 2
#     Edge 17, Type (0, 1), BuildingBlock: AJUNOK_clean_linker_0, # of connection points: 2
#     Edge 18, Type (0, 1), BuildingBlock: AJUNOK_clean_linker_0, # of connection points: 2
#     Edge 19, Type (0, 1), BuildingBlock: AJUNOK_clean_linker_0, # of connection points: 2
#     Edge 20, Type (0, 1), BuildingBlock: AJUNOK_clean_linker_0, # of connection points: 2
#     Edge 21, Type (0, 1), BuildingBlock: AJUNOK_clean_linker_0, # of connection points: 2
#     Edge 22, Type (0, 1), BuildingBlock: AJUNOK_clean_linker_0, # of connection points: 2
#     Edge 23, Type (0, 1), BuildingBlock: AJUNOK_clean_linker_0, # of connection points: 2
#     Edge 24, Type (0, 1), BuildingBlock: AJUNOK_clean_linker_0, # of connection points: 2
#     Edge 25, Type (0, 1), BuildingBlock: AJUNOK_clean_linker_0, # of connection points: 2
#     Edge 26, Type (0, 1), BuildingBlock: AJUNOK_clean_linker_0, # of connection points: 2
#     Edge 27, Type (0, 1), BuildingBlock: AJUNOK_clean_linker_0, # of connection points: 2
#     Edge 28, Type (0, 1), BuildingBlock: AJUNOK_clean_linker_0, # of connection points: 2
#     Edge 29, Type (0, 1), BuildingBlock: AJUNOK_clean_linker_0, # of connection points: 2
#     Edge 30, Type (0, 1), BuildingBlock: AJUNOK_clean_linker_0, # of connection points: 2
#     Edge 31, Type (0, 1), BuildingBlock: AJUNOK_clean_linker_0, # of connection points: 2
#     Edge 32, Type (0, 1), BuildingBlock: AJUNOK_clean_linker_0, # of connection points: 2
#     Edge 33, Type (0, 1), BuildingBlock: AJUNOK_clean_linker_0, # of connection points: 2
#     Edge 34, Type (0, 1), BuildingBlock: AJUNOK_clean_linker_0, # of connection points: 2
#     Edge 35, Type (0, 1), BuildingBlock: AJUNOK_clean_linker_0, # of connection points: 2
#     Edge 36, Type (0, 1), BuildingBlock: AJUNOK_clean_linker_0, # of connection points: 2
#     Edge 37, Type (0, 1), BuildingBlock: AJUNOK_clean_linker_0, # of connection points: 2
#     Edge 38, Type (0, 1), BuildingBlock: AJUNOK_clean_linker_0, # of connection points: 2
#     Edge 39, Type (0, 1), BuildingBlock: AJUNOK_clean_linker_0, # of connection points: 2
#     Edge 40, Type (0, 1), BuildingBlock: AJUNOK_clean_linker_0, # of connection points: 2
#     Edge 41, Type (0, 1), BuildingBlock: AJUNOK_clean_linker_0, # of connection points: 2
#     Edge 42, Type (0, 1), BuildingBlock: AJUNOK_clean_linker_0, # of connection points: 2
#     Edge 43, Type (0, 1), BuildingBlock: AJUNOK_clean_linker_0, # of connection points: 2
#     Edge 44, Type (0, 1), BuildingBlock: AJUNOK_clean_linker_0, # of connection points: 2
#     Edge 45, Type (0, 1), BuildingBlock: AJUNOK_clean_linker_0, # of connection points: 2
#     Edge 46, Type (0, 1), BuildingBlock: AJUNOK_clean_linker_0, # of connection points: 2
#     Edge 47, Type (0, 1), BuildingBlock: AJUNOK_clean_linker_0, # of connection points: 2
# Relax obj value: 0.234
# Max RMSD: 0.230
# Mean RMSD: 0.183
data_MOF--net-wbl--node1-MUDLON_clean_sbu_0--node2-NAHDIM_clean_sbu_0--edge1-AJUNOK_clean_linker_0
_symmetry_space_group_name_H-M    P1
_symmetry_Int_Tables_number       1
_symmetry_cell_setting            triclinic
loop_
_symmetry_equiv_pos_as_xyz
'x, y, z'
_cell_length_a     27.209297
_cell_length_b     26.129064
_cell_length_c     56.011114
_cell_angle_alpha  89.959999
_cell_angle_beta   90.075187
_cell_angle_gamma 89.930112
loop_
_atom_site_label
_atom_site_type_symbol
_atom_site_fract_x
_atom_site_fract_y
_atom_site_fract_z
_atom_type_partial_charge
Mg0 Mg 0.00237 0.01988 0.33827 0.0
C1 C 0.02332 0.91705 0.35968 0.0
O2 O 0.06214 0.9206 0.34591 0.0
C3 C 0.91084 0.01537 0.30729 0.0
O4 O 0.91314 0.96669 0.31309 0.0
C5 C 0.07511 0.98462 0.30242 0.0
O6 O 0.035 0.96112 0.2953 0.0
O7 O 0.07239 0.0149 0.32013 0.0
O8 O 0.98814 0.94833 0.35657 0.0
O9 O 0.00021 0.06812 0.36964 0.0
C10 C 0.95835 0.06236 0.37937 0.0
O11 O 0.925 0.03568 0.36782 0.0
O12 O 0.94412 0.04531 0.31477 0.0
Mg13 Mg 0.98145 0.50955 0.58218 0.0
C14 C 0.03853 0.48722 0.62623 0.0
O15 O 0.00189 0.45494 0.62858 0.0
C16 C 0.93995 0.42963 0.54945 0.0
O17 O 0.91197 0.46873 0.54365 0.0
C18 C 0.03182 0.58543 0.55137 0.0
O19 O 0.06892 0.55683 0.55835 0.0
O20 O 0.98875 0.5734 0.55804 0.0
O21 O 0.04275 0.51177 0.60674 0.0
O22 O 0.92179 0.51999 0.60715 0.0
C23 C 0.89602 0.48163 0.61317 0.0
O24 O 0.89733 0.44055 0.5997 0.0
O25 O 0.97431 0.43644 0.5645 0.0
Mg26 Mg 0.48571 0.46788 0.83627 0.0
C27 C 0.44291 0.55954 0.86112 0.0
O28 O 0.40318 0.54273 0.85039 0.0
C29 C 0.56438 0.42059 0.80697 0.0
O30 O 0.54344 0.38007 0.81641 0.0
C31 C 0.40882 0.49174 0.80123 0.0
O32 O 0.44563 0.52132 0.79496 0.0
O33 O 0.41561 0.46017 0.81821 0.0
O34 O 0.48395 0.53882 0.85633 0.0
O35 O 0.50172 0.41423 0.86478 0.0
C36 C 0.53754 0.43148 0.87697 0.0
O37 O 0.55905 0.4738 0.86984 0.0
O38 O 0.54675 0.4645 0.81168 0.0
Mg39 Mg 0.50728 0.99656 0.08458 0.0
C40 C 0.56514 0.03395 0.12386 0.0
O41 O 0.54839 0.07525 0.11321 0.0
C42 C 0.46127 0.92029 0.05206 0.0
O43 O 0.4283 0.95706 0.05182 0.0
C44 C 0.56953 0.0664 0.05511 0.0
O45 O 0.60081 0.02921 0.05947 0.0
O46 O 0.52586 0.06237 0.06293 0.0
O47 O 0.55826 0.99078 0.11401 0.0
O48 O 0.44252 0.00744 0.10619 0.0
C49 C 0.42702 0.96608 0.1154 0.0
O50 O 0.4438 0.92246 0.10709 0.0
O51 O 0.50055 0.92692 0.06396 0.0
Mg52 Mg 0.00974 0.5392 0.9121 0.0
C53 C 0.98068 0.64414 0.89057 0.0
O54 O 0.95489 0.68661 0.88985 0.0
C55 C 0.93009 0.51493 0.94721 0.0
O56 O 0.93286 0.56488 0.94953 0.0
C57 C 0.08135 0.55817 0.95172 0.0
O58 O 0.03974 0.56847 0.96258 0.0
O59 O 0.0801 0.5437 0.93007 0.0
O60 O 0.97717 0.61505 0.90871 0.0
O61 O 0.01285 0.50449 0.87705 0.0
C62 C 0.97204 0.50643 0.86605 0.0
O63 O 0.93487 0.52942 0.87652 0.0
O64 O 0.95942 0.49278 0.93294 0.0
Mg65 Mg 0.51625 0.505 0.16392 0.0
C66 C 0.4676 0.46338 0.12079 0.0
O67 O 0.50626 0.43343 0.12227 0.0
C68 C 0.53106 0.43805 0.2079 0.0
O69 O 0.51232 0.47795 0.21886 0.0
C70 C 0.45553 0.57754 0.19321 0.0
O71 O 0.4221 0.54297 0.18809 0.0
O72 O 0.49903 0.57126 0.18549 0.0
O73 O 0.45773 0.4923 0.13842 0.0
O74 O 0.57469 0.52008 0.1388 0.0
C75 C 0.60479 0.48432 0.13416 0.0
O76 O 0.6083 0.4459 0.14921 0.0
O77 O 0.53514 0.43873 0.1853 0.0
Mg78 Mg 0.48165 0.99465 0.42303 0.0
C79 C 0.53216 0.06064 0.39006 0.0
O80 O 0.56571 0.02911 0.39837 0.0
C81 C 0.41292 0.96963 0.46321 0.0
O82 O 0.45449 0.95357 0.47254 0.0
C83 C 0.55204 0.03638 0.45756 0.0
O84 O 0.51858 0.07244 0.45561 0.0
O85 O 0.54557 0.99487 0.44614 0.0
O86 O 0.48957 0.05973 0.39934 0.0
O87 O 0.47779 0.93494 0.39627 0.0
C88 C 0.44612 0.94876 0.38081 0.0
O89 O 0.42033 0.99042 0.38482 0.0
O90 O 0.4136 0.99129 0.44288 0.0
Mg91 Mg 0.00835 0.9881 0.67228 0.0
C92 C 0.05031 0.02505 0.62705 0.0
O93 O 0.01619 0.05937 0.63138 0.0
C94 C 0.96922 0.06537 0.70775 0.0
O95 O 0.94336 0.02524 0.71418 0.0
C96 C 0.06513 0.90345 0.6971 0.0
O97 O 0.10169 0.92616 0.68608 0.0
O98 O 0.0221 0.92199 0.69492 0.0
O99 O 0.06104 0.99316 0.64346 0.0
O100 O 0.94422 0.97573 0.65012 0.0
C101 C 0.91592 0.0131 0.64544 0.0
O102 O 0.91885 0.05447 0.65865 0.0
O103 O 0.00107 0.06017 0.69133 0.0
C104 C 0.26491 0.60432 0.00074 0.0
O105 O 0.26635 0.60901 0.02408 0.0
O106 O 0.38824 0.58404 0.02844 0.0
Zn107 Zn 0.37149 0.62799 6e-05 0.0
O108 O 0.41343 0.61564 0.97119 0.0
C109 C 0.4217 0.71655 0.01465 0.0
O110 O 0.45803 0.68348 0.01332 0.0
O111 O 0.30349 0.61218 0.98862 0.0
C112 C 0.40041 0.64372 0.95371 0.0
O113 O 0.36696 0.67915 0.95737 0.0
C114 C 0.40435 0.53837 0.02832 0.0
O115 O 0.41226 0.51539 0.00784 0.0
O116 O 0.3785 0.70155 0.00964 0.0
C117 C 0.26461 0.91552 0.26648 0.0
O118 O 0.30315 0.9457 0.26637 0.0
O119 O 0.34974 0.88825 0.21684 0.0
Zn120 Zn 0.33838 0.85326 0.24822 0.0
O121 O 0.3838 0.87844 0.27402 0.0
C122 C 0.39608 0.77011 0.23651 0.0
O123 O 0.42685 0.80882 0.23643 0.0
O124 O 0.26946 0.86989 0.25886 0.0
C125 C 0.39384 0.85045 0.29197 0.0
O126 O 0.37765 0.80313 0.29246 0.0
C127 C 0.36729 0.93235 0.21261 0.0
O128 O 0.38102 0.96149 0.23051 0.0
O129 O 0.35148 0.77858 0.24207 0.0
C130 C 0.22592 0.90442 0.50324 0.0
O131 O 0.21662 0.90432 0.52624 0.0
O132 O 0.10684 0.91438 0.52817 0.0
Zn133 Zn 0.12346 0.87405 0.49872 0.0
O134 O 0.07978 0.88739 0.47025 0.0
C135 C 0.07193 0.78521 0.51019 0.0
O136 O 0.03637 0.81845 0.50671 0.0
O137 O 0.19233 0.89132 0.4887 0.0
C138 C 0.08545 0.85516 0.45344 0.0
O139 O 0.11653 0.81727 0.45666 0.0
C140 C 0.09385 0.96087 0.53015 0.0
O141 O 0.08779 0.98886 0.51088 0.0
O142 O 0.11611 0.80004 0.50764 0.0
C143 C 0.20871 0.5434 0.77347 0.0
O144 O 0.17215 0.51227 0.7783 0.0
O145 O 0.10417 0.56769 0.73123 0.0
Zn146 Zn 0.12995 0.61016 0.75835 0.0
O147 O 0.08723 0.60423 0.78774 0.0
C148 C 0.08795 0.70535 0.74412 0.0
O149 O 0.04785 0.67972 0.74934 0.0
O150 O 0.19932 0.58769 0.76523 0.0
C151 C 0.10594 0.61192 0.80824 0.0
O152 O 0.15313 0.62197 0.80977 0.0
C153 C 0.12797 0.57126 0.71178 0.0
O154 O 0.16733 0.60031 0.71124 0.0
O155 O 0.12932 0.68361 0.74713 0.0
C156 C 0.74422 0.0787 0.49881 0.0
O157 O 0.77709 0.04186 0.49965 0.0
O158 O 0.84088 0.09944 0.54374 0.0
Zn159 Zn 0.8288 0.13384 0.51221 0.0
O160 O 0.86725 0.10489 0.48465 0.0
C161 C 0.8828 0.21989 0.52827 0.0
O162 O 0.90818 0.18269 0.53819 0.0
O163 O 0.75753 0.12403 0.50393 0.0
C164 C 0.9081 0.12093 0.47656 0.0
O165 O 0.9321 0.15672 0.48814 0.0
C166 C 0.85993 0.05603 0.548 0.0
O167 O 0.8759 0.02792 0.53018 0.0
O168 O 0.84526 0.20856 0.51582 0.0
C169 C 0.75376 0.39731 0.76005 0.0
O170 O 0.77961 0.43763 0.75393 0.0
O171 O 0.848 0.38538 0.71601 0.0
Zn172 Zn 0.8448 0.35318 0.74856 0.0
O173 O 0.881 0.39543 0.77291 0.0
C174 C 0.90858 0.27215 0.7334 0.0
O175 O 0.92934 0.31067 0.7222 0.0
O176 O 0.77401 0.35347 0.75895 0.0
C177 C 0.92536 0.39247 0.77991 0.0
O178 O 0.95466 0.3582 0.77036 0.0
C179 C 0.86135 0.4312 0.71206 0.0
O180 O 0.8747 0.46014 0.73009 0.0
O181 O 0.87144 0.28102 0.74654 0.0
C182 C 0.76187 0.41292 0.98999 0.0
O183 O 0.72536 0.44313 0.99606 0.0
O184 O 0.67661 0.38462 0.03441 0.0
Zn185 Zn 0.68761 0.34726 0.00338 0.0
O186 O 0.64032 0.37094 0.97799 0.0
C187 C 0.63277 0.26351 0.01762 0.0
O188 O 0.60173 0.30193 0.01928 0.0
O189 O 0.7558 0.36477 0.99168 0.0
C190 C 0.6236 0.34128 0.96191 0.0
O191 O 0.63573 0.29262 0.96233 0.0
C192 C 0.64924 0.4236 0.03718 0.0
O193 O 0.62542 0.44215 0.01869 0.0
O194 O 0.67608 0.2726 0.01021 0.0
C195 C 0.72875 0.09402 0.26687 0.0
O196 O 0.69123 0.06245 0.26643 0.0
O197 O 0.62865 0.11862 0.22727 0.0
Zn198 Zn 0.64958 0.15712 0.2566 0.0
O199 O 0.61644 0.13743 0.28732 0.0
C200 C 0.60279 0.25738 0.2578 0.0
O201 O 0.57683 0.2371 0.27511 0.0
O202 O 0.72107 0.14103 0.26223 0.0
C203 C 0.57252 0.12796 0.2935 0.0
O204 O 0.53736 0.12898 0.2774 0.0
C205 C 0.60978 0.07509 0.22309 0.0
O206 O 0.59807 0.04486 0.24094 0.0
O207 O 0.63758 0.2315 0.24861 0.0
C208 C 0.12748 0.92539 0.27827 0.0
C209 C 0.12348 0.96985 0.29236 0.0
C210 C 0.17317 0.90802 0.27003 0.0
C211 C 0.21666 0.93473 0.27531 0.0
H212 H 0.0952 0.90303 0.27393 0.0
H213 H 0.17432 0.87338 0.25943 0.0
S214 S 0.22628 0.05419 0.31101 0.0
N215 N 0.16702 0.04079 0.31084 0.0
N216 N 0.25278 0.00847 0.29529 0.0
C217 C 0.21315 0.97977 0.28904 0.0
C218 C 0.16664 0.99724 0.29758 0.0
C219 C 0.08942 0.65212 0.53597 0.0
C220 C 0.04096 0.63409 0.5385 0.0
C221 C 0.09913 0.70036 0.52617 0.0
C222 C 0.0608 0.73259 0.51848 0.0
H223 H 0.12023 0.62952 0.54225 0.0
H224 H 0.137 0.71294 0.52525 0.0
S225 S 0.92765 0.70108 0.51857 0.0
N226 N 0.95438 0.65058 0.53064 0.0
N227 N 0.97257 0.74118 0.51219 0.0
C228 C 0.01227 0.7141 0.51987 0.0
C229 C 0.00237 0.66491 0.52987 0.0
C230 C 0.31801 0.47521 0.80137 0.0
C231 C 0.3586 0.50152 0.79177 0.0
C232 C 0.26974 0.48807 0.79487 0.0
C233 C 0.26009 0.528 0.77866 0.0
H234 H 0.32336 0.44534 0.81454 0.0
H235 H 0.23976 0.46754 0.80322 0.0
S236 S 0.35319 0.6052 0.74634 0.0
N237 N 0.38572 0.5667 0.76359 0.0
N238 N 0.29514 0.59101 0.75164 0.0
C239 C 0.30028 0.55323 0.76817 0.0
C240 C 0.34945 0.53991 0.77463 0.0
C241 C 0.48715 0.83154 0.04104 0.0
C242 C 0.4509 0.87 0.04081 0.0
C243 C 0.47752 0.7825 0.03215 0.0
C244 C 0.43114 0.76967 0.02277 0.0
H245 H 0.52322 0.83901 0.04845 0.0
H246 H 0.50658 0.7542 0.03309 0.0
S247 S 0.32413 0.85712 0.01678 0.0
N248 N 0.36717 0.89242 0.02941 0.0
N249 N 0.3491 0.80017 0.0128 0.0
C250 C 0.39482 0.80803 0.02189 0.0
C251 C 0.4047 0.85817 0.03085 0.0
C252 C 0.12912 0.58512 0.98784 0.0
C253 C 0.12885 0.5666 0.96421 0.0
C254 C 0.17322 0.59632 -0.0003 0.0
C255 C 0.21881 0.58996 0.98832 0.0
H256 H 0.09495 0.59173 0.99725 0.0
H257 H 0.17144 0.61115 0.01773 0.0
S258 S 0.23892 0.53868 0.92722 0.0
N259 N 0.17866 0.53912 0.93048 0.0
N260 N 0.2613 0.56119 0.9525 0.0
C261 C 0.21924 0.57029 0.9649 0.0
C262 C 0.17437 0.55832 0.95293 0.0
C263 C 0.39184 0.63595 0.21055 0.0
C264 C 0.44173 0.62476 0.20633 0.0
C265 C 0.37741 0.6822 0.22114 0.0
C266 C 0.4123 0.71914 0.22791 0.0
H267 H 0.36343 0.60944 0.20505 0.0
H268 H 0.3385 0.68964 0.22331 0.0
S269 S 0.54797 0.70602 0.22347 0.0
N270 N 0.52632 0.65272 0.21171 0.0
N271 N 0.49929 0.73943 0.23158 0.0
C272 C 0.46244 0.70745 0.22481 0.0
C273 C 0.47713 0.66036 0.21404 0.0
C274 C 0.32257 0.95427 0.46041 0.0
C275 C 0.3654 0.95617 0.47448 0.0
C276 C 0.2779 0.93736 0.46991 0.0
C277 C 0.27395 0.92232 0.49397 0.0
H278 H 0.32369 0.96467 0.44169 0.0
H279 H 0.24618 0.93615 0.45821 0.0
S280 S 0.37467 0.92257 0.53873 0.0
N281 N 0.4008 0.94305 0.51392 0.0
N282 N 0.31654 0.91192 0.53189 0.0
C283 C 0.31618 0.92523 0.50843 0.0
C284 C 0.36195 0.94193 0.49865 0.0
C285 C 0.03234 0.82844 0.71995 0.0
C286 C 0.07296 0.8548 0.71044 0.0
C287 C 0.03785 0.78086 0.73119 0.0
C288 C 0.08425 0.75745 0.73352 0.0
H289 H 0.99562 0.84414 0.71834 0.0
H290 H 0.00515 0.76201 0.7378 0.0
S291 S 0.20308 0.81164 0.71298 0.0
N292 N 0.16177 0.85477 0.70508 0.0
N293 N 0.17207 0.76542 0.72622 0.0
C294 C 0.12548 0.78398 0.72473 0.0
C295 C 0.11985 0.83254 0.7132 0.0
C296 C 0.63415 0.36724 0.79192 0.0
C297 C 0.61039 0.4151 0.793 0.0
C298 C 0.67974 0.36154 0.78064 0.0
C299 C 0.70351 0.40345 0.76994 0.0
H300 H 0.61811 0.33396 0.8004 0.0
H301 H 0.69698 0.32415 0.78088 0.0
S302 S 0.65456 0.53601 0.76559 0.0
N303 N 0.61244 0.50447 0.7808 0.0
N304 N 0.69799 0.49384 0.75956 0.0
C305 C 0.67924 0.45114 0.77001 0.0
C306 C 0.63277 0.45695 0.78154 0.0
C307 C 0.55362 0.15659 0.04235 0.0
C308 C 0.58595 0.1146 0.04354 0.0
C309 C 0.56899 0.20398 0.03347 0.0
C310 C 0.61736 0.21158 0.02531 0.0
H311 H 0.51627 0.15336 0.04885 0.0
H312 H 0.54271 0.23515 0.03343 0.0
S313 S 0.71561 0.113 0.02278 0.0
N314 N 0.66805 0.08293 0.03447 0.0
N315 N 0.69689 0.17215 0.01775 0.0
C316 C 0.64971 0.16951 0.02559 0.0
C317 C 0.63403 0.12106 0.03471 0.0
C318 C 0.82755 0.00346 0.2893 0.0
C319 C 0.86718 0.03606 0.29457 0.0
C320 C 0.78376 0.02252 0.27963 0.0
C321 C 0.7776 0.07502 0.27474 0.0
H322 H 0.82968 0.96295 0.29328 0.0
H323 H 0.75407 0.99576 0.27651 0.0
S324 S 0.87178 0.17614 0.28308 0.0
N325 N 0.8987 0.12321 0.29253 0.0
N326 N 0.81624 0.15893 0.27437 0.0
C327 C 0.81766 0.10783 0.27889 0.0
C328 C 0.86242 0.0884 0.28879 0.0
C329 C 0.95286 0.33503 0.55143 0.0
C330 C 0.92711 0.37694 0.54175 0.0
C331 C 0.93862 0.28466 0.54662 0.0
C332 C 0.89801 0.27386 0.53189 0.0
H333 H 0.9837 0.34098 0.56336 0.0
H334 H 0.9593 0.25399 0.55493 0.0
S335 S 0.82043 0.36964 0.50042 0.0
N336 N 0.86064 0.40417 0.51548 0.0
N337 N 0.83387 0.30938 0.50644 0.0
C338 C 0.87287 0.31529 0.52137 0.0
C339 C 0.88743 0.36679 0.52628 0.0
C340 C 0.63691 0.00982 0.46976 0.0
C341 C 0.59896 0.04642 0.47032 0.0
C342 C 0.68321 0.0202 0.47959 0.0
C343 C 0.69364 0.0677 0.4903 0.0
H344 H 0.63133 0.97318 0.46115 0.0
H345 H 0.71141 0.99107 0.47816 0.0
S346 S 0.60573 0.17499 0.49852 0.0
N347 N 0.57398 0.13095 0.48412 0.0
N348 N 0.66106 0.15041 0.50242 0.0
C349 C 0.65554 0.10398 0.49182 0.0
C350 C 0.60823 0.09334 0.4819 0.0
C351 C 0.97914 0.16062 0.70658 0.0
C352 C 0.95658 0.11733 0.71674 0.0
C353 C 0.96429 0.2103 0.71264 0.0
C354 C 0.92621 0.21901 0.72915 0.0
H355 H 0.00766 0.15631 0.69326 0.0
H356 H 0.98216 0.24207 0.70378 0.0
S357 S 0.85832 0.11898 0.76275 0.0
N358 N 0.8965 0.08662 0.74555 0.0
N359 N 0.86861 0.17995 0.75691 0.0
C360 C 0.90472 0.17616 0.74026 0.0
C361 C 0.91989 0.12542 0.73408 0.0
C362 C 0.85611 0.51319 0.97342 0.0
C363 C 0.89046 0.48617 0.95954 0.0
C364 C 0.81567 0.48863 0.98363 0.0
C365 C 0.80778 0.43583 0.98059 0.0
H366 H 0.85964 0.55409 0.97603 0.0
H367 H 0.78994 0.51168 0.99374 0.0
S368 S 0.8885 0.34643 0.94727 0.0
N369 N 0.91526 0.40276 0.94428 0.0
N370 N 0.83906 0.35655 0.96367 0.0
C371 C 0.84275 0.40773 0.96755 0.0
C372 C 0.88407 0.43289 0.95697 0.0
C373 C 0.58505 0.36107 0.21117 0.0
C374 C 0.54991 0.39363 0.2216 0.0
C375 C 0.60337 0.31839 0.22342 0.0
C376 C 0.5868 0.30603 0.24651 0.0
H377 H 0.59863 0.3685 0.19333 0.0
H378 H 0.62976 0.29416 0.21438 0.0
S379 S 0.49592 0.37978 0.28206 0.0
N380 N 0.50013 0.4115 0.25664 0.0
N381 N 0.53406 0.33086 0.27963 0.0
C382 C 0.55222 0.33877 0.25734 0.0
C383 C 0.53394 0.38265 0.24491 0.0
C384 C 0.01113 0.91689 0.4038 0.0
C385 C 0.02921 0.89228 0.38323 0.0
C386 C 0.02763 0.90293 0.42661 0.0
C387 C 0.06232 0.86348 0.42972 0.0
H388 H 0.9869 0.94967 0.40224 0.0
H389 H 0.01478 0.92485 0.44178 0.0
S390 S 0.11413 0.78146 0.38167 0.0
N391 N 0.07879 0.82293 0.36749 0.0
N392 N 0.10909 0.79558 0.41029 0.0
C393 C 0.07721 0.83563 0.40939 0.0
C394 C 0.06083 0.85034 0.38617 0.0
C395 C 0.04991 0.4897 0.67048 0.0
C396 C 0.06683 0.50332 0.64759 0.0
C397 C 0.07074 0.51082 0.69111 0.0
C398 C 0.10969 0.54607 0.68975 0.0
H399 H 0.01883 0.46421 0.67256 0.0
H400 H 0.05532 0.50026 0.70824 0.0
S401 S 0.17048 0.59094 0.63416 0.0
N402 N 0.12702 0.55173 0.62483 0.0
N403 N 0.16648 0.59118 0.66356 0.0
C404 C 0.12858 0.55815 0.66701 0.0
C405 C 0.1071 0.53685 0.64597 0.0
C406 C 0.46905 0.58146 0.90257 0.0
C407 C 0.43771 0.5906 0.88299 0.0
C408 C 0.45803 0.60087 0.92527 0.0
C409 C 0.41583 0.63087 0.92909 0.0
H410 H 0.50051 0.55629 0.90078 0.0
H411 H 0.48171 0.59064 0.94009 0.0
S412 S 0.32557 0.67123 0.88287 0.0
N413 N 0.36544 0.63526 0.86833 0.0
N414 N 0.34508 0.67277 0.91078 0.0
C415 C 0.38629 0.64348 0.90923 0.0
C416 C 0.39714 0.62304 0.88623 0.0
C417 C 0.37395 0.92356 0.14525 0.0
C418 C 0.40275 0.96593 0.13893 0.0
C419 C 0.36047 0.91482 0.16897 0.0
C420 C 0.37587 0.94773 0.18744 0.0
H421 H 0.36371 0.8955 0.13191 0.0
H422 H 0.33966 0.88052 0.1729 0.0
S423 S 0.44837 0.06697 0.17986 0.0
N424 N 0.44318 0.04359 0.15259 0.0
N425 N 0.41831 0.02694 0.19737 0.0
C426 C 0.40215 0.99213 0.18115 0.0
C427 C 0.41546 0.00131 0.15683 0.0
C428 C 0.99268 0.62872 0.8471 0.0
C429 C 0.01243 0.63073 0.87025 0.0
C430 C 0.02292 0.62018 0.82722 0.0
C431 C 0.07421 0.61485 0.82976 0.0
H432 H 0.9536 0.63413 0.84433 0.0
H433 H 0.00608 0.61961 0.80969 0.0
S434 S 0.14358 0.6184 0.88689 0.0
N435 N 0.08571 0.62692 0.89481 0.0
N436 N 0.14301 0.61151 0.8576 0.0
C437 C 0.09416 0.61614 0.85299 0.0
C438 C 0.06315 0.62402 0.8732 0.0
C439 C 0.41078 0.51448 0.095 0.0
C440 C 0.4452 0.47449 0.09711 0.0
C441 C 0.3966 0.53342 0.07266 0.0
C442 C 0.41584 0.51296 0.05138 0.0
H443 H 0.39627 0.53314 0.11076 0.0
H444 H 0.3713 0.56545 0.07214 0.0
S445 S 0.50292 0.40394 0.04675 0.0
N446 N 0.49503 0.41196 0.07573 0.0
N447 N 0.46805 0.44756 0.03373 0.0
C448 C 0.4478 0.47075 0.05308 0.0
C449 C 0.46251 0.4515 0.07592 0.0
C450 C 0.42546 0.95106 0.33779 0.0
C451 C 0.43979 0.92215 0.3578 0.0
C452 C 0.4136 0.92757 0.31617 0.0
C453 C 0.4148 0.87402 0.31376 0.0
H454 H 0.42232 0.99233 0.33894 0.0
H455 H 0.40117 0.95165 0.3016 0.0
S456 S 0.45475 0.78133 0.36022 0.0
N457 N 0.45866 0.83768 0.37345 0.0
N458 N 0.43546 0.79288 0.33276 0.0
C459 C 0.43148 0.8447 0.33331 0.0
C460 C 0.44429 0.86893 0.35534 0.0
C461 C 0.09913 0.97471 0.59745 0.0
C462 C 0.06653 0.01529 0.60212 0.0
C463 C 0.10859 0.95852 0.57409 0.0
C464 C 0.08617 0.98241 0.55434 0.0
H465 H 0.11623 0.95388 0.61199 0.0
H466 H 0.13306 0.92624 0.57156 0.0
S467 S 0.00035 0.09272 0.55647 0.0
N468 N 0.01369 0.08098 0.58471 0.0
N469 N 0.03186 0.05043 0.54082 0.0
C470 C 0.05534 0.02461 0.55856 0.0
C471 C 0.04545 0.04109 0.58243 0.0
C472 C 0.57823 0.43749 0.9165 0.0
C473 C 0.55442 0.40707 0.89932 0.0
C474 C 0.59851 0.41601 0.93711 0.0
C475 C 0.59649 0.36299 0.94129 0.0
H476 H 0.58184 0.47842 0.91389 0.0
H477 H 0.61742 0.44117 0.94944 0.0
S478 S 0.53497 0.2669 0.90265 0.0
N479 N 0.52712 0.32172 0.88843 0.0
N480 N 0.56597 0.28077 0.92718 0.0
C481 C 0.57121 0.3322 0.92467 0.0
C482 C 0.54992 0.35438 0.90371 0.0
C483 C 0.60809 0.08244 0.15552 0.0
C484 C 0.58266 0.03818 0.1487 0.0
C485 C 0.61773 0.09287 0.17952 0.0
C486 C 0.60166 0.05985 0.19783 0.0
H487 H 0.61951 0.11007 0.1422 0.0
H488 H 0.63693 0.12806 0.18368 0.0
S489 S 0.53339 0.93825 0.18916 0.0
N490 N 0.54216 0.96023 0.16185 0.0
N491 N 0.55967 0.98007 0.20722 0.0
C492 C 0.57724 0.01451 0.19119 0.0
C493 C 0.56794 0.00359 0.16656 0.0
C494 C 0.90002 0.07213 0.41316 0.0
C495 C 0.94766 0.07962 0.40405 0.0
C496 C 0.88829 0.08447 0.4367 0.0
C497 C 0.9235 0.1054 0.45225 0.0
H498 H 0.87117 0.05628 0.40207 0.0
H499 H 0.85085 0.07823 0.44257 0.0
S500 S 0.05416 0.13137 0.43771 0.0
N501 N 0.03089 0.10822 0.4127 0.0
N502 N 0.0085 0.13228 0.45711 0.0
C503 C 0.97141 0.1132 0.44352 0.0
C504 C 0.98356 0.10018 0.4194 0.0
C505 C 0.85068 0.4338 0.64464 0.0
C506 C 0.87879 0.47671 0.63817 0.0
C507 C 0.84354 0.42075 0.66861 0.0
C508 C 0.86419 0.4501 0.68714 0.0
H509 H 0.83599 0.40853 0.63107 0.0
H510 H 0.82306 0.38624 0.67256 0.0
S511 S 0.93642 0.56959 0.67993 0.0
N512 N 0.92378 0.55138 0.6524 0.0
N513 N 0.91042 0.52666 0.69744 0.0
C514 C 0.88959 0.49511 0.68102 0.0
C515 C 0.89679 0.50853 0.65654 0.0
C516 C 0.5033 0.0905 0.34996 0.0
C517 C 0.54112 0.08645 0.36702 0.0
C518 C 0.51347 0.10496 0.32632 0.0
C519 C 0.56177 0.1162 0.31895 0.0
H520 H 0.46603 0.07983 0.35454 0.0
H521 H 0.48344 0.10591 0.31362 0.0
S522 S 0.67278 0.11691 0.35787 0.0
N523 N 0.62771 0.09876 0.37563 0.0
N524 N 0.64715 0.12637 0.33152 0.0
C525 C 0.59942 0.11489 0.33631 0.0
C526 C 0.589 0.09994 0.36025 0.0
C527 C 0.91397 0.98924 0.60222 0.0
C528 C 0.89353 0.01688 0.6214 0.0
C529 C 0.90129 0.00053 0.57852 0.0
C530 C 0.86766 0.03981 0.57312 0.0
H531 H 0.94229 0.96083 0.60536 0.0
H532 H 0.91989 0.98003 0.56435 0.0
S533 S 0.79797 0.1177 0.61711 0.0
N534 N 0.83401 0.08102 0.63357 0.0
N535 N 0.80969 0.10208 0.58914 0.0
C536 C 0.8444 0.06519 0.59223 0.0
C537 C 0.85744 0.05374 0.61633 0.0
C538 C 0.91954 0.48785 0.83071 0.0
C539 C 0.96454 0.48101 0.84266 0.0
C540 C 0.9083 0.46047 0.81001 0.0
C541 C 0.94152 0.42483 0.80027 0.0
H542 H 0.89195 0.51374 0.83767 0.0
H543 H 0.87251 0.4665 0.80198 0.0
S544 S 0.06695 0.39693 0.82312 0.0
N545 N 0.04453 0.43925 0.8421 0.0
N546 N 0.02334 0.38742 0.80308 0.0
C547 C 0.98785 0.41952 0.81127 0.0
C548 C -0.00062 0.44769 0.83247 0.0
C549 C 0.65634 0.43783 0.10449 0.0
C550 C 0.62265 0.47728 0.10934 0.0
C551 C 0.66607 0.42228 0.08107 0.0
C552 C 0.64236 0.44536 0.06145 0.0
H553 H 0.67387 0.41717 0.11897 0.0
H554 H 0.69111 0.39051 0.07847 0.0
S555 S 0.5549 0.55445 0.0642 0.0
N556 N 0.56859 0.5423 0.09235 0.0
N557 N 0.58691 0.51298 0.04834 0.0
C558 C 0.61082 0.48701 0.0659 0.0
C559 C 0.60103 0.50306 0.08983 0.0
loop_
_geom_bond_atom_site_label_1
_geom_bond_atom_site_label_2
_geom_bond_distance
_geom_bond_site_symmetry_2
_ccdc_geom_bond_type
Mg0 O7 2.141 1_545 S
Mg0 O8 2.048 1_545 S
Mg0 O9 2.048 1_455 S
Mg0 O12 2.141 1_455 S
C1 O2 1.313 . S
C1 O8 1.195 . S
O2 C1 1.313 . S
C3 O4 1.245 . S
C3 O12 1.289 . S
O4 C3 1.245 . S
C5 O6 1.245 . S
C5 O7 1.289 . S
O6 C5 1.245 . S
O7 Mg0 2.141 1_565 S
O7 C5 1.289 . S
O8 Mg0 2.048 1_565 S
O8 C1 1.195 . S
O9 Mg0 2.048 1_655 S
O9 C10 1.195 . S
C10 O9 1.195 . S
C10 O11 1.313 1_545 S
O11 C10 1.313 1_565 S
O12 Mg0 2.141 1_655 S
O12 C3 1.289 . S
Mg13 O20 2.141 1_655 S
Mg13 O21 2.048 1_655 S
Mg13 O22 2.048 . S
Mg13 O25 2.141 . S
C14 O15 1.313 . S
C14 O21 1.195 . S
O15 C14 1.313 . S
C16 O17 1.245 . S
C16 O25 1.289 . S
O17 C16 1.245 . S
C18 O19 1.245 . S
C18 O20 1.289 . S
O19 C18 1.245 . S
O20 Mg13 2.141 1_455 S
O20 C18 1.289 . S
O21 Mg13 2.048 1_455 S
O21 C14 1.195 . S
O22 Mg13 2.048 . S
O22 C23 1.195 . S
C23 O22 1.195 . S
C23 O24 1.313 1_655 S
O24 C23 1.313 1_455 S
O25 Mg13 2.141 . S
O25 C16 1.289 . S
Mg26 O33 2.141 . S
Mg26 O34 2.048 . S
Mg26 O35 2.048 . S
Mg26 O38 2.141 . S
C27 O28 1.313 . S
C27 O34 1.195 . S
O28 C27 1.313 . S
C29 O30 1.245 . S
C29 O38 1.289 . S
O30 C29 1.245 . S
C31 O32 1.245 . S
C31 O33 1.289 . S
O32 C31 1.245 . S
O33 Mg26 2.141 . S
O33 C31 1.289 . S
O34 Mg26 2.048 . S
O34 C27 1.195 . S
O35 Mg26 2.048 . S
O35 C36 1.195 . S
C36 O35 1.195 . S
C36 O37 1.313 . S
O37 C36 1.313 . S
O38 Mg26 2.141 . S
O38 C29 1.289 . S
Mg39 O46 2.141 . S
Mg39 O47 2.048 . S
Mg39 O48 2.048 1_545 S
Mg39 O51 2.141 1_545 S
C40 O41 1.313 . S
C40 O47 1.195 . S
O41 C40 1.313 . S
C42 O43 1.245 . S
C42 O51 1.289 . S
O43 C42 1.245 . S
C44 O45 1.245 . S
C44 O46 1.289 . S
O45 C44 1.245 . S
O46 Mg39 2.141 . S
O46 C44 1.289 . S
O47 Mg39 2.048 . S
O47 C40 1.195 . S
O48 Mg39 2.048 1_565 S
O48 C49 1.195 . S
C49 O48 1.195 . S
C49 O50 1.313 . S
O50 C49 1.313 . S
O51 Mg39 2.141 1_565 S
O51 C42 1.289 . S
Mg52 O59 2.141 . S
Mg52 O60 2.048 . S
Mg52 O61 2.048 1_455 S
Mg52 O64 2.141 1_455 S
C53 O54 1.313 . S
C53 O60 1.195 . S
O54 C53 1.313 . S
C55 O56 1.245 . S
C55 O64 1.289 . S
O56 C55 1.245 . S
C57 O58 1.245 . S
C57 O59 1.289 . S
O58 C57 1.245 . S
O59 Mg52 2.141 . S
O59 C57 1.289 . S
O60 Mg52 2.048 . S
O60 C53 1.195 . S
O61 Mg52 2.048 1_655 S
O61 C62 1.195 . S
C62 O61 1.195 . S
C62 O63 1.313 . S
O63 C62 1.313 . S
O64 Mg52 2.141 1_655 S
O64 C55 1.289 . S
Mg65 O72 2.141 . S
Mg65 O73 2.048 . S
Mg65 O74 2.048 . S
Mg65 O77 2.141 . S
C66 O67 1.313 . S
C66 O73 1.195 . S
O67 C66 1.313 . S
C68 O69 1.245 . S
C68 O77 1.289 . S
O69 C68 1.245 . S
C70 O71 1.245 . S
C70 O72 1.289 . S
O71 C70 1.245 . S
O72 Mg65 2.141 . S
O72 C70 1.289 . S
O73 Mg65 2.048 . S
O73 C66 1.195 . S
O74 Mg65 2.048 . S
O74 C75 1.195 . S
C75 O74 1.195 . S
C75 O76 1.313 . S
O76 C75 1.313 . S
O77 Mg65 2.141 . S
O77 C68 1.289 . S
Mg78 O85 2.141 1_565 S
Mg78 O86 2.048 1_565 S
Mg78 O87 2.048 . S
Mg78 O90 2.141 . S
C79 O80 1.313 . S
C79 O86 1.195 . S
O80 C79 1.313 . S
C81 O82 1.245 . S
C81 O90 1.289 . S
O82 C81 1.245 . S
C83 O84 1.245 . S
C83 O85 1.289 . S
O84 C83 1.245 . S
O85 Mg78 2.141 1_545 S
O85 C83 1.289 . S
O86 Mg78 2.048 1_545 S
O86 C79 1.195 . S
O87 Mg78 2.048 . S
O87 C88 1.195 . S
C88 O87 1.195 . S
C88 O89 1.313 1_565 S
O89 C88 1.313 1_545 S
O90 Mg78 2.141 . S
O90 C81 1.289 . S
Mg91 O98 2.141 1_655 S
Mg91 O99 2.048 1_655 S
Mg91 O100 2.048 1_565 S
Mg91 O103 2.141 1_565 S
C92 O93 1.313 . S
C92 O99 1.195 . S
O93 C92 1.313 . S
C94 O95 1.245 . S
C94 O103 1.289 . S
O95 C94 1.245 . S
C96 O97 1.245 . S
C96 O98 1.289 . S
O97 C96 1.245 . S
O98 Mg91 2.141 1_455 S
O98 C96 1.289 . S
O99 Mg91 2.048 1_455 S
O99 C92 1.195 . S
O100 Mg91 2.048 1_545 S
O100 C101 1.195 . S
C101 O100 1.195 . S
C101 O102 1.313 1_655 S
O102 C101 1.313 1_455 S
O103 Mg91 2.141 1_545 S
O103 C94 1.289 . S
C104 O105 1.160 1_556 S
C104 O111 1.185 . S
O105 C104 1.160 1_554 S
O106 Zn107 1.899 . S
O106 C114 1.284 . S
Zn107 O106 1.899 . S
Zn107 O108 2.032 1_554 S
Zn107 O111 2.086 1_554 S
Zn107 O116 1.977 . S
O108 Zn107 2.032 1_556 S
O108 C112 1.278 . S
C109 O110 1.203 . S
C109 O116 1.267 . S
O110 C109 1.203 . S
O111 C104 1.185 . S
O111 Zn107 2.086 1_556 S
C112 O108 1.278 . S
C112 O113 1.211 . S
O113 C112 1.211 . S
C114 O106 1.284 . S
C114 O115 1.273 . S
O115 C114 1.273 . S
O116 Zn107 1.977 . S
O116 C109 1.267 . S
C117 O118 1.160 . S
C117 O124 1.185 . S
O118 C117 1.160 . S
O119 Zn120 1.899 . S
O119 C127 1.284 . S
Zn120 O119 1.899 . S
Zn120 O121 2.032 . S
Zn120 O124 2.086 . S
Zn120 O129 1.977 . S
O121 Zn120 2.032 . S
O121 C125 1.278 . S
C122 O123 1.203 . S
C122 O129 1.267 . S
O123 C122 1.203 . S
O124 C117 1.185 . S
O124 Zn120 2.086 . S
C125 O121 1.278 . S
C125 O126 1.211 . S
O126 C125 1.211 . S
C127 O119 1.284 . S
C127 O128 1.273 . S
O128 C127 1.273 . S
O129 Zn120 1.977 . S
O129 C122 1.267 . S
C130 O131 1.160 . S
C130 O137 1.185 . S
O131 C130 1.160 . S
O132 Zn133 1.899 . S
O132 C140 1.284 . S
Zn133 O132 1.899 . S
Zn133 O134 2.032 . S
Zn133 O137 2.086 . S
Zn133 O142 1.977 . S
O134 Zn133 2.032 . S
O134 C138 1.278 . S
C135 O136 1.203 . S
C135 O142 1.267 . S
O136 C135 1.203 . S
O137 C130 1.185 . S
O137 Zn133 2.086 . S
C138 O134 1.278 . S
C138 O139 1.211 . S
O139 C138 1.211 . S
C140 O132 1.284 . S
C140 O141 1.273 . S
O141 C140 1.273 . S
O142 Zn133 1.977 . S
O142 C135 1.267 . S
C143 O144 1.160 . S
C143 O150 1.185 . S
O144 C143 1.160 . S
O145 Zn146 1.899 . S
O145 C153 1.284 . S
Zn146 O145 1.899 . S
Zn146 O147 2.032 . S
Zn146 O150 2.086 . S
Zn146 O155 1.977 . S
O147 Zn146 2.032 . S
O147 C151 1.278 . S
C148 O149 1.203 . S
C148 O155 1.267 . S
O149 C148 1.203 . S
O150 C143 1.185 . S
O150 Zn146 2.086 . S
C151 O147 1.278 . S
C151 O152 1.211 . S
O152 C151 1.211 . S
C153 O145 1.284 . S
C153 O154 1.273 . S
O154 C153 1.273 . S
O155 Zn146 1.977 . S
O155 C148 1.267 . S
C156 O157 1.160 . S
C156 O163 1.185 . S
O157 C156 1.160 . S
O158 Zn159 1.899 . S
O158 C166 1.284 . S
Zn159 O158 1.899 . S
Zn159 O160 2.032 . S
Zn159 O163 2.086 . S
Zn159 O168 1.977 . S
O160 Zn159 2.032 . S
O160 C164 1.278 . S
C161 O162 1.203 . S
C161 O168 1.267 . S
O162 C161 1.203 . S
O163 C156 1.185 . S
O163 Zn159 2.086 . S
C164 O160 1.278 . S
C164 O165 1.211 . S
O165 C164 1.211 . S
C166 O158 1.284 . S
C166 O167 1.273 . S
O167 C166 1.273 . S
O168 Zn159 1.977 . S
O168 C161 1.267 . S
C169 O170 1.160 . S
C169 O176 1.185 . S
O170 C169 1.160 . S
O171 Zn172 1.899 . S
O171 C179 1.284 . S
Zn172 O171 1.899 . S
Zn172 O173 2.032 . S
Zn172 O176 2.086 . S
Zn172 O181 1.977 . S
O173 Zn172 2.032 . S
O173 C177 1.278 . S
C174 O175 1.203 . S
C174 O181 1.267 . S
O175 C174 1.203 . S
O176 C169 1.185 . S
O176 Zn172 2.086 . S
C177 O173 1.278 . S
C177 O178 1.211 . S
O178 C177 1.211 . S
C179 O171 1.284 . S
C179 O180 1.273 . S
O180 C179 1.273 . S
O181 Zn172 1.977 . S
O181 C174 1.267 . S
C182 O183 1.160 1_556 S
C182 O189 1.185 . S
O183 C182 1.160 1_554 S
O184 Zn185 1.899 . S
O184 C192 1.284 . S
Zn185 O184 1.899 . S
Zn185 O186 2.032 1_554 S
Zn185 O189 2.086 1_554 S
Zn185 O194 1.977 . S
O186 Zn185 2.032 1_556 S
O186 C190 1.278 . S
C187 O188 1.203 . S
C187 O194 1.267 . S
O188 C187 1.203 . S
O189 C182 1.185 . S
O189 Zn185 2.086 1_556 S
C190 O186 1.278 . S
C190 O191 1.211 . S
O191 C190 1.211 . S
C192 O184 1.284 . S
C192 O193 1.273 . S
O193 C192 1.273 . S
O194 Zn185 1.977 . S
O194 C187 1.267 . S
C195 O196 1.160 . S
C195 O202 1.185 . S
O196 C195 1.160 . S
O197 Zn198 1.899 . S
O197 C205 1.284 . S
Zn198 O197 1.899 . S
Zn198 O199 2.032 . S
Zn198 O202 2.086 . S
Zn198 O207 1.977 . S
O199 Zn198 2.032 . S
O199 C203 1.278 . S
C200 O201 1.203 . S
C200 O207 1.267 . S
O201 C200 1.203 . S
O202 C195 1.185 . S
O202 Zn198 2.086 . S
C203 O199 1.278 . S
C203 O204 1.211 . S
O204 C203 1.211 . S
C205 O197 1.284 . S
C205 O206 1.273 . S
O206 C205 1.273 . S
O207 Zn198 1.977 . S
O207 C200 1.267 . S
C208 C209 1.369 . S
C208 C210 1.419 . S
C208 H212 0.930 . S
C209 C208 1.369 . S
C209 C218 1.429 . S
C210 C208 1.419 . S
C210 C211 1.363 . S
C210 H213 0.929 . S
C211 C210 1.363 . S
C211 C217 1.428 . S
H212 C208 0.930 . S
H213 C210 0.929 . S
S214 N215 1.613 . S
S214 N216 1.610 . S
N215 S214 1.613 . S
N215 C218 1.350 . S
N216 S214 1.610 . S
N216 C217 1.351 . S
C217 C211 1.428 . S
C217 N216 1.351 . S
C217 C218 1.434 . S
C218 C209 1.429 . S
C218 N215 1.350 . S
C218 C217 1.434 . S
C219 C220 1.369 . S
C219 C221 1.419 . S
C219 H223 0.930 . S
C220 C219 1.369 . S
C220 C229 1.429 . S
C221 C219 1.419 . S
C221 C222 1.363 . S
C221 H224 0.929 . S
C222 C221 1.363 . S
C222 C228 1.428 . S
H223 C219 0.930 . S
H224 C221 0.929 . S
S225 N226 1.613 . S
S225 N227 1.610 . S
N226 S225 1.613 . S
N226 C229 1.350 . S
N227 S225 1.610 . S
N227 C228 1.351 . S
C228 C222 1.428 . S
C228 N227 1.351 . S
C228 C229 1.434 . S
C229 C220 1.429 . S
C229 N226 1.350 . S
C229 C228 1.434 . S
C230 C231 1.369 . S
C230 C232 1.419 . S
C230 H234 0.930 . S
C231 C230 1.369 . S
C231 C240 1.429 . S
C232 C230 1.419 . S
C232 C233 1.363 . S
C232 H235 0.929 . S
C233 C232 1.363 . S
C233 C239 1.428 . S
H234 C230 0.930 . S
H235 C232 0.929 . S
S236 N237 1.613 . S
S236 N238 1.610 . S
N237 S236 1.613 . S
N237 C240 1.350 . S
N238 S236 1.610 . S
N238 C239 1.351 . S
C239 C233 1.428 . S
C239 N238 1.351 . S
C239 C240 1.434 . S
C240 C231 1.429 . S
C240 N237 1.350 . S
C240 C239 1.434 . S
C241 C242 1.369 . S
C241 C243 1.419 . S
C241 H245 0.930 . S
C242 C241 1.369 . S
C242 C251 1.429 . S
C243 C241 1.419 . S
C243 C244 1.363 . S
C243 H246 0.929 . S
C244 C243 1.363 . S
C244 C250 1.428 . S
H245 C241 0.930 . S
H246 C243 0.929 . S
S247 N248 1.613 . S
S247 N249 1.610 . S
N248 S247 1.613 . S
N248 C251 1.350 . S
N249 S247 1.610 . S
N249 C250 1.351 . S
C250 C244 1.428 . S
C250 N249 1.351 . S
C250 C251 1.434 . S
C251 C242 1.429 . S
C251 N248 1.350 . S
C251 C250 1.434 . S
C252 C253 1.369 . S
C252 C254 1.419 . S
C252 H256 0.930 . S
C253 C252 1.369 . S
C253 C262 1.429 . S
C254 C252 1.419 . S
C254 C255 1.363 . S
C254 H257 0.929 1_556 S
C255 C254 1.363 . S
C255 C261 1.428 . S
H256 C252 0.930 . S
H257 C254 0.929 1_554 S
S258 N259 1.613 . S
S258 N260 1.610 . S
N259 S258 1.613 . S
N259 C262 1.350 . S
N260 S258 1.610 . S
N260 C261 1.351 . S
C261 C255 1.428 . S
C261 N260 1.351 . S
C261 C262 1.434 . S
C262 C253 1.429 . S
C262 N259 1.350 . S
C262 C261 1.434 . S
C263 C264 1.369 . S
C263 C265 1.419 . S
C263 H267 0.930 . S
C264 C263 1.369 . S
C264 C273 1.429 . S
C265 C263 1.419 . S
C265 C266 1.363 . S
C265 H268 0.929 . S
C266 C265 1.363 . S
C266 C272 1.428 . S
H267 C263 0.930 . S
H268 C265 0.929 . S
S269 N270 1.613 . S
S269 N271 1.610 . S
N270 S269 1.613 . S
N270 C273 1.350 . S
N271 S269 1.610 . S
N271 C272 1.351 . S
C272 C266 1.428 . S
C272 N271 1.351 . S
C272 C273 1.434 . S
C273 C264 1.429 . S
C273 N270 1.350 . S
C273 C272 1.434 . S
C274 C275 1.369 . S
C274 C276 1.419 . S
C274 H278 0.930 . S
C275 C274 1.369 . S
C275 C284 1.429 . S
C276 C274 1.419 . S
C276 C277 1.363 . S
C276 H279 0.929 . S
C277 C276 1.363 . S
C277 C283 1.428 . S
H278 C274 0.930 . S
H279 C276 0.929 . S
S280 N281 1.612 1_545 S
S280 N282 1.610 1_545 S
N281 S280 1.612 1_565 S
N281 C284 1.361 . S
N282 S280 1.610 1_565 S
N282 C283 1.351 . S
C283 C277 1.428 . S
C283 N282 1.351 . S
C283 C284 1.434 . S
C284 C275 1.429 . S
C284 N281 1.361 . S
C284 C283 1.434 . S
C285 C286 1.369 . S
C285 C287 1.419 . S
C285 H289 0.930 . S
C286 C285 1.369 . S
C286 C295 1.429 . S
C287 C285 1.419 . S
C287 C288 1.363 . S
C287 H290 0.929 . S
C288 C287 1.363 . S
C288 C294 1.428 . S
H289 C285 0.930 . S
H290 C287 0.929 . S
S291 N292 1.613 . S
S291 N293 1.610 . S
N292 S291 1.613 . S
N292 C295 1.350 . S
N293 S291 1.610 . S
N293 C294 1.351 . S
C294 C288 1.428 . S
C294 N293 1.351 . S
C294 C295 1.434 . S
C295 C286 1.429 . S
C295 N292 1.350 . S
C295 C294 1.434 . S
C296 C297 1.369 . S
C296 C298 1.419 . S
C296 H300 0.930 . S
C297 C296 1.369 . S
C297 C306 1.429 . S
C298 C296 1.419 . S
C298 C299 1.363 . S
C298 H301 0.929 . S
C299 C298 1.363 . S
C299 C305 1.428 . S
H300 C296 0.930 . S
H301 C298 0.929 . S
S302 N303 1.613 . S
S302 N304 1.610 . S
N303 S302 1.613 . S
N303 C306 1.350 . S
N304 S302 1.610 . S
N304 C305 1.351 . S
C305 C299 1.428 . S
C305 N304 1.351 . S
C305 C306 1.434 . S
C306 C297 1.429 . S
C306 N303 1.350 . S
C306 C305 1.434 . S
C307 C308 1.369 . S
C307 C309 1.419 . S
C307 H311 0.930 . S
C308 C307 1.369 . S
C308 C317 1.429 . S
C309 C307 1.419 . S
C309 C310 1.363 . S
C309 H312 0.929 . S
C310 C309 1.363 . S
C310 C316 1.428 . S
H311 C307 0.930 . S
H312 C309 0.929 . S
S313 N314 1.613 . S
S313 N315 1.610 . S
N314 S313 1.613 . S
N314 C317 1.350 . S
N315 S313 1.610 . S
N315 C316 1.351 . S
C316 C310 1.428 . S
C316 N315 1.351 . S
C316 C317 1.434 . S
C317 C308 1.429 . S
C317 N314 1.350 . S
C317 C316 1.434 . S
C318 C319 1.369 . S
C318 C320 1.419 . S
C318 H322 0.930 . S
C319 C318 1.369 . S
C319 C328 1.429 . S
C320 C318 1.419 . S
C320 C321 1.363 . S
C320 H323 0.929 . S
C321 C320 1.363 . S
C321 C327 1.428 . S
H322 C318 0.930 . S
H323 C320 0.929 . S
S324 N325 1.613 . S
S324 N326 1.610 . S
N325 S324 1.613 . S
N325 C328 1.350 . S
N326 S324 1.610 . S
N326 C327 1.351 . S
C327 C321 1.428 . S
C327 N326 1.351 . S
C327 C328 1.434 . S
C328 C319 1.429 . S
C328 N325 1.350 . S
C328 C327 1.434 . S
C329 C330 1.369 . S
C329 C331 1.419 . S
C329 H333 0.930 . S
C330 C329 1.369 . S
C330 C339 1.429 . S
C331 C329 1.419 . S
C331 C332 1.363 . S
C331 H334 0.929 . S
C332 C331 1.363 . S
C332 C338 1.428 . S
H333 C329 0.930 . S
H334 C331 0.929 . S
S335 N336 1.613 . S
S335 N337 1.610 . S
N336 S335 1.613 . S
N336 C339 1.350 . S
N337 S335 1.610 . S
N337 C338 1.351 . S
C338 C332 1.428 . S
C338 N337 1.351 . S
C338 C339 1.434 . S
C339 C330 1.429 . S
C339 N336 1.350 . S
C339 C338 1.434 . S
C340 C341 1.369 . S
C340 C342 1.419 . S
C340 H344 0.930 . S
C341 C340 1.369 . S
C341 C350 1.429 . S
C342 C340 1.419 . S
C342 C343 1.363 . S
C342 H345 0.929 . S
C343 C342 1.363 . S
C343 C349 1.428 . S
H344 C340 0.930 . S
H345 C342 0.929 . S
S346 N347 1.613 . S
S346 N348 1.610 . S
N347 S346 1.613 . S
N347 C350 1.350 . S
N348 S346 1.610 . S
N348 C349 1.351 . S
C349 C343 1.428 . S
C349 N348 1.351 . S
C349 C350 1.434 . S
C350 C341 1.429 . S
C350 N347 1.350 . S
C350 C349 1.434 . S
C351 C352 1.369 . S
C351 C353 1.419 . S
C351 H355 0.930 . S
C352 C351 1.369 . S
C352 C361 1.429 . S
C353 C351 1.419 . S
C353 C354 1.363 . S
C353 H356 0.929 . S
C354 C353 1.363 . S
C354 C360 1.428 . S
H355 C351 0.930 . S
H356 C353 0.929 . S
S357 N358 1.613 . S
S357 N359 1.610 . S
N358 S357 1.613 . S
N358 C361 1.350 . S
N359 S357 1.610 . S
N359 C360 1.351 . S
C360 C354 1.428 . S
C360 N359 1.351 . S
C360 C361 1.434 . S
C361 C352 1.429 . S
C361 N358 1.350 . S
C361 C360 1.434 . S
C362 C363 1.369 . S
C362 C364 1.419 . S
C362 H366 0.930 . S
C363 C362 1.369 . S
C363 C372 1.429 . S
C364 C362 1.419 . S
C364 C365 1.363 . S
C364 H367 0.929 . S
C365 C364 1.363 . S
C365 C371 1.428 . S
H366 C362 0.930 . S
H367 C364 0.929 . S
S368 N369 1.613 . S
S368 N370 1.610 . S
N369 S368 1.613 . S
N369 C372 1.350 . S
N370 S368 1.610 . S
N370 C371 1.351 . S
C371 C365 1.428 . S
C371 N370 1.351 . S
C371 C372 1.434 . S
C372 C363 1.429 . S
C372 N369 1.350 . S
C372 C371 1.434 . S
C373 C374 1.369 . S
C373 C375 1.419 . S
C373 H377 0.930 . S
C374 C373 1.369 . S
C374 C383 1.429 . S
C375 C373 1.419 . S
C375 C376 1.363 . S
C375 H378 0.929 . S
C376 C375 1.363 . S
C376 C382 1.428 . S
H377 C373 0.930 . S
H378 C375 0.929 . S
S379 N380 1.613 . S
S379 N381 1.610 . S
N380 S379 1.613 . S
N380 C383 1.350 . S
N381 S379 1.610 . S
N381 C382 1.351 . S
C382 C376 1.428 . S
C382 N381 1.351 . S
C382 C383 1.434 . S
C383 C374 1.429 . S
C383 N380 1.350 . S
C383 C382 1.434 . S
C384 C385 1.369 . S
C384 C386 1.419 . S
C384 H388 0.930 . S
C385 C384 1.369 . S
C385 C394 1.429 . S
C386 C384 1.419 . S
C386 C387 1.363 . S
C386 H389 0.929 . S
C387 C386 1.363 . S
C387 C393 1.428 . S
H388 C384 0.930 . S
H389 C386 0.929 . S
S390 N391 1.613 1_655 S
S390 N392 1.610 1_655 S
N391 S390 1.613 1_455 S
N391 C394 1.350 . S
N392 S390 1.610 1_455 S
N392 C393 1.351 . S
C393 C387 1.428 . S
C393 N392 1.351 . S
C393 C394 1.434 . S
C394 C385 1.429 . S
C394 N391 1.350 . S
C394 C393 1.434 . S
C395 C396 1.369 . S
C395 C397 1.419 . S
C395 H399 0.930 . S
C396 C395 1.369 . S
C396 C405 1.429 . S
C397 C395 1.419 . S
C397 C398 1.363 . S
C397 H400 0.929 . S
C398 C397 1.363 . S
C398 C404 1.428 . S
H399 C395 0.930 . S
H400 C397 0.929 . S
S401 N402 1.613 . S
S401 N403 1.610 . S
N402 S401 1.613 . S
N402 C405 1.350 . S
N403 S401 1.610 . S
N403 C404 1.351 . S
C404 C398 1.428 . S
C404 N403 1.351 . S
C404 C405 1.434 . S
C405 C396 1.429 . S
C405 N402 1.350 . S
C405 C404 1.434 . S
C406 C407 1.369 . S
C406 C408 1.419 . S
C406 H410 0.930 . S
C407 C406 1.369 . S
C407 C416 1.429 . S
C408 C406 1.419 . S
C408 C409 1.363 . S
C408 H411 0.929 . S
C409 C408 1.363 . S
C409 C415 1.428 . S
H410 C406 0.930 . S
H411 C408 0.929 . S
S412 N413 1.613 . S
S412 N414 1.610 . S
N413 S412 1.613 . S
N413 C416 1.350 . S
N414 S412 1.610 . S
N414 C415 1.351 . S
C415 C409 1.428 . S
C415 N414 1.351 . S
C415 C416 1.434 . S
C416 C407 1.429 . S
C416 N413 1.350 . S
C416 C415 1.434 . S
C417 C418 1.369 . S
C417 C419 1.419 . S
C417 H421 0.930 . S
C418 C417 1.369 . S
C418 C427 1.429 . S
C419 C417 1.419 . S
C419 C420 1.363 . S
C419 H422 0.929 . S
C420 C419 1.363 . S
C420 C426 1.428 . S
H421 C417 0.930 . S
H422 C419 0.929 . S
S423 N424 1.613 . S
S423 N425 1.610 . S
N424 S423 1.613 . S
N424 C427 1.350 . S
N425 S423 1.610 . S
N425 C426 1.351 . S
C426 C420 1.428 . S
C426 N425 1.351 . S
C426 C427 1.434 . S
C427 C418 1.429 . S
C427 N424 1.350 . S
C427 C426 1.434 . S
C428 C429 1.369 . S
C428 C430 1.419 . S
C428 H432 0.930 . S
C429 C428 1.369 . S
C429 C438 1.429 . S
C430 C428 1.419 . S
C430 C431 1.363 . S
C430 H433 0.929 . S
C431 C430 1.363 . S
C431 C437 1.428 . S
H432 C428 0.930 . S
H433 C430 0.929 . S
S434 N435 1.613 . S
S434 N436 1.610 . S
N435 S434 1.613 . S
N435 C438 1.350 . S
N436 S434 1.610 . S
N436 C437 1.351 . S
C437 C431 1.428 . S
C437 N436 1.351 . S
C437 C438 1.434 . S
C438 C429 1.429 . S
C438 N435 1.350 . S
C438 C437 1.434 . S
C439 C440 1.369 . S
C439 C441 1.419 . S
C439 H443 0.930 . S
C440 C439 1.369 . S
C440 C449 1.429 . S
C441 C439 1.419 . S
C441 C442 1.363 . S
C441 H444 0.929 . S
C442 C441 1.363 . S
C442 C448 1.428 . S
H443 C439 0.930 . S
H444 C441 0.929 . S
S445 N446 1.613 . S
S445 N447 1.610 . S
N446 S445 1.613 . S
N446 C449 1.350 . S
N447 S445 1.610 . S
N447 C448 1.351 . S
C448 C442 1.428 . S
C448 N447 1.351 . S
C448 C449 1.434 . S
C449 C440 1.429 . S
C449 N446 1.350 . S
C449 C448 1.434 . S
C450 C451 1.369 . S
C450 C452 1.419 . S
C450 H454 0.930 . S
C451 C450 1.369 . S
C451 C460 1.429 . S
C452 C450 1.419 . S
C452 C453 1.363 . S
C452 H455 0.929 . S
C453 C452 1.363 . S
C453 C459 1.428 . S
H454 C450 0.930 . S
H455 C452 0.929 . S
S456 N457 1.613 . S
S456 N458 1.610 . S
N457 S456 1.613 . S
N457 C460 1.350 . S
N458 S456 1.610 . S
N458 C459 1.351 . S
C459 C453 1.428 . S
C459 N458 1.351 . S
C459 C460 1.434 . S
C460 C451 1.429 . S
C460 N457 1.350 . S
C460 C459 1.434 . S
C461 C462 1.369 . S
C461 C463 1.419 . S
C461 H465 0.930 . S
C462 C461 1.369 . S
C462 C471 1.429 . S
C463 C461 1.419 . S
C463 C464 1.363 . S
C463 H466 0.929 . S
C464 C463 1.363 . S
C464 C470 1.428 . S
H465 C461 0.930 . S
H466 C463 0.929 . S
S467 N468 1.613 . S
S467 N469 1.610 1_545 S
N468 S467 1.613 . S
N468 C471 1.350 1_545 S
N469 S467 1.610 1_565 S
N469 C470 1.351 . S
C470 C464 1.428 . S
C470 N469 1.351 . S
C470 C471 1.434 . S
C471 C462 1.429 . S
C471 N468 1.350 1_565 S
C471 C470 1.434 . S
C472 C473 1.369 . S
C472 C474 1.419 . S
C472 H476 0.930 . S
C473 C472 1.369 . S
C473 C482 1.429 . S
C474 C472 1.419 . S
C474 C475 1.363 . S
C474 H477 0.929 . S
C475 C474 1.363 . S
C475 C481 1.428 . S
H476 C472 0.930 . S
H477 C474 0.929 . S
S478 N479 1.613 . S
S478 N480 1.610 . S
N479 S478 1.613 . S
N479 C482 1.350 . S
N480 S478 1.610 . S
N480 C481 1.351 . S
C481 C475 1.428 . S
C481 N480 1.351 . S
C481 C482 1.434 . S
C482 C473 1.429 . S
C482 N479 1.350 . S
C482 C481 1.434 . S
C483 C484 1.369 . S
C483 C485 1.419 . S
C483 H487 0.930 . S
C484 C483 1.369 . S
C484 C493 1.429 . S
C485 C483 1.419 . S
C485 C486 1.363 . S
C485 H488 0.929 . S
C486 C485 1.363 . S
C486 C492 1.428 . S
H487 C483 0.930 . S
H488 C485 0.929 . S
S489 N490 1.613 . S
S489 N491 1.610 . S
N490 S489 1.613 . S
N490 C493 1.350 . S
N491 S489 1.610 . S
N491 C492 1.351 . S
C492 C486 1.428 . S
C492 N491 1.351 . S
C492 C493 1.434 . S
C493 C484 1.429 . S
C493 N490 1.350 . S
C493 C492 1.434 . S
C494 C495 1.369 . S
C494 C496 1.419 . S
C494 H498 0.930 . S
C495 C494 1.369 . S
C495 C504 1.429 . S
C496 C494 1.419 . S
C496 C497 1.363 . S
C496 H499 0.929 . S
C497 C496 1.363 . S
C497 C503 1.428 . S
H498 C494 0.930 . S
H499 C496 0.929 . S
S500 N501 1.613 1_455 S
S500 N502 1.610 1_455 S
N501 S500 1.613 1_655 S
N501 C504 1.350 . S
N502 S500 1.610 1_655 S
N502 C503 1.351 . S
C503 C497 1.428 . S
C503 N502 1.351 . S
C503 C504 1.434 . S
C504 C495 1.429 . S
C504 N501 1.350 . S
C504 C503 1.434 . S
C505 C506 1.369 . S
C505 C507 1.419 . S
C505 H509 0.930 . S
C506 C505 1.369 . S
C506 C515 1.429 . S
C507 C505 1.419 . S
C507 C508 1.363 . S
C507 H510 0.929 . S
C508 C507 1.363 . S
C508 C514 1.428 . S
H509 C505 0.930 . S
H510 C507 0.929 . S
S511 N512 1.613 . S
S511 N513 1.610 . S
N512 S511 1.613 . S
N512 C515 1.350 . S
N513 S511 1.610 . S
N513 C514 1.351 . S
C514 C508 1.428 . S
C514 N513 1.351 . S
C514 C515 1.434 . S
C515 C506 1.429 . S
C515 N512 1.350 . S
C515 C514 1.434 . S
C516 C517 1.369 . S
C516 C518 1.419 . S
C516 H520 0.930 . S
C517 C516 1.369 . S
C517 C526 1.429 . S
C518 C516 1.419 . S
C518 C519 1.363 . S
C518 H521 0.929 . S
C519 C518 1.363 . S
C519 C525 1.428 . S
H520 C516 0.930 . S
H521 C518 0.929 . S
S522 N523 1.613 . S
S522 N524 1.610 . S
N523 S522 1.613 . S
N523 C526 1.350 . S
N524 S522 1.610 . S
N524 C525 1.351 . S
C525 C519 1.428 . S
C525 N524 1.351 . S
C525 C526 1.434 . S
C526 C517 1.429 . S
C526 N523 1.350 . S
C526 C525 1.434 . S
C527 C528 1.369 . S
C527 C529 1.419 . S
C527 H531 0.930 . S
C528 C527 1.369 . S
C528 C537 1.429 . S
C529 C527 1.419 . S
C529 C530 1.363 . S
C529 H532 0.929 . S
C530 C529 1.363 . S
C530 C536 1.428 . S
H531 C527 0.930 . S
H532 C529 0.929 . S
S533 N534 1.613 . S
S533 N535 1.610 . S
N534 S533 1.613 . S
N534 C537 1.350 . S
N535 S533 1.610 . S
N535 C536 1.351 . S
C536 C530 1.428 . S
C536 N535 1.351 . S
C536 C537 1.434 . S
C537 C528 1.429 . S
C537 N534 1.350 . S
C537 C536 1.434 . S
C538 C539 1.369 . S
C538 C540 1.419 . S
C538 H542 0.930 . S
C539 C538 1.369 . S
C539 C548 1.429 . S
C540 C538 1.419 . S
C540 C541 1.363 . S
C540 H543 0.929 . S
C541 C540 1.363 . S
C541 C547 1.428 . S
H542 C538 0.930 . S
H543 C540 0.929 . S
S544 N545 1.613 . S
S544 N546 1.610 1_455 S
N545 S544 1.613 . S
N545 C548 1.350 1_455 S
N546 S544 1.610 1_655 S
N546 C547 1.351 . S
C547 C541 1.428 . S
C547 N546 1.351 . S
C547 C548 1.434 . S
C548 C539 1.429 . S
C548 N545 1.350 1_655 S
C548 C547 1.434 . S
C549 C550 1.369 . S
C549 C551 1.419 . S
C549 H553 0.930 . S
C550 C549 1.369 . S
C550 C559 1.429 . S
C551 C549 1.419 . S
C551 C552 1.363 . S
C551 H554 0.929 . S
C552 C551 1.363 . S
C552 C558 1.428 . S
H553 C549 0.930 . S
H554 C551 0.929 . S
S555 N556 1.613 . S
S555 N557 1.610 . S
N556 S555 1.613 . S
N556 C559 1.350 . S
N557 S555 1.610 . S
N557 C558 1.351 . S
C558 C552 1.428 . S
C558 N557 1.351 . S
C558 C559 1.434 . S
C559 C550 1.429 . S
C559 N556 1.350 . S
C559 C558 1.434 . S
C211 C117 1.339 . S
C209 C5 1.394 . S
C222 C135 1.278 . S
C220 C18 1.381 . S
C233 C143 1.348 . S
C231 C31 1.388 . S
C242 C42 1.387 . S
C244 C109 1.286 . S
C253 C57 1.391 . S
C255 C104 1.341 . S
C264 C70 1.380 . S
C266 C122 1.274 . S
C277 C130 1.339 . S
C275 C81 1.405 . S
C288 C148 1.277 . S
C286 C96 1.377 . S
C297 C29 1.406 . S
C299 C169 1.346 . S
C310 C187 1.282 . S
C308 C44 1.373 . S
C319 C3 1.404 . S
C321 C195 1.350 . S
C332 C161 1.285 . S
C330 C16 1.391 . S
C341 C83 1.391 . S
C343 C156 1.346 . S
C352 C94 1.390 . S
C354 C174 1.283 . S
C365 C182 1.348 . S
C363 C55 1.405 . S
C374 C68 1.387 . S
C376 C200 1.277 . S
C387 C138 1.436 . S
C385 C1 1.378 . S
C398 C153 1.382 . S
C396 C14 1.391 . S
C407 C27 1.381 . S
C409 C112 1.436 . S
C418 C49 1.428 . S
C420 C127 1.388 . S
C429 C53 1.388 . S
C431 C151 1.435 . S
C442 C114 1.384 . S
C440 C66 1.384 . S
C453 C125 1.436 . S
C451 C88 1.424 . S
C464 C140 1.385 . S
C462 C92 1.383 . S
C475 C190 1.436 . S
C473 C36 1.421 . S
C486 C205 1.380 . S
C484 C40 1.390 . S
C495 C10 1.421 . S
C497 C164 1.435 . S
C508 C179 1.383 . S
C506 C23 1.429 . S
C519 C203 1.436 . S
C517 C79 1.381 . S
C528 C101 1.428 . S
C530 C166 1.388 . S
C541 C177 1.436 . S
C539 C62 1.422 . S
C552 C192 1.381 . S
C550 C75 1.429 . S
