# Generated by pormake.
# Topology cml, (3,6)-cn, num edge types: 1
# Building blocks:
#     Node 0, Type 0, BuildingBlock: WUSLED_clean_sbu_0, # of connection points: 3
#     Node 1, Type 0, BuildingBlock: WUSLED_clean_sbu_0, # of connection points: 3
#     Node 2, Type 0, BuildingBlock: WUSLED_clean_sbu_0, # of connection points: 3
#     Node 3, Type 0, BuildingBlock: WUSLED_clean_sbu_0, # of connection points: 3
#     Node 4, Type 0, BuildingBlock: WUSLED_clean_sbu_0, # of connection points: 3
#     Node 5, Type 0, BuildingBlock: WUSLED_clean_sbu_0, # of connection points: 3
#     Node 6, Type 0, BuildingBlock: WUSLED_clean_sbu_0, # of connection points: 3
#     Node 7, Type 0, BuildingBlock: WUSLED_clean_sbu_0, # of connection points: 3
#     Node 8, Type 1, BuildingBlock: IZENUY_clean_sbu_0, # of connection points: 6
#     Node 9, Type 1, BuildingBlock: IZENUY_clean_sbu_0, # of connection points: 6
#     Node 10, Type 1, BuildingBlock: IZENUY_clean_sbu_0, # of connection points: 6
#     Node 11, Type 1, BuildingBlock: IZENUY_clean_sbu_0, # of connection points: 6
#     Edge 12, Type (0, 1), BuildingBlock: UVAHIK_clean_linker_0, # of connection points: 2
#     Edge 13, Type (0, 1), BuildingBlock: UVAHIK_clean_linker_0, # of connection points: 2
#     Edge 14, Type (0, 1), BuildingBlock: UVAHIK_clean_linker_0, # of connection points: 2
#     Edge 15, Type (0, 1), BuildingBlock: UVAHIK_clean_linker_0, # of connection points: 2
#     Edge 16, Type (0, 1), BuildingBlock: UVAHIK_clean_linker_0, # of connection points: 2
#     Edge 17, Type (0, 1), BuildingBlock: UVAHIK_clean_linker_0, # of connection points: 2
#     Edge 18, Type (0, 1), BuildingBlock: UVAHIK_clean_linker_0, # of connection points: 2
#     Edge 19, Type (0, 1), BuildingBlock: UVAHIK_clean_linker_0, # of connection points: 2
#     Edge 20, Type (0, 1), BuildingBlock: UVAHIK_clean_linker_0, # of connection points: 2
#     Edge 21, Type (0, 1), BuildingBlock: UVAHIK_clean_linker_0, # of connection points: 2
#     Edge 22, Type (0, 1), BuildingBlock: UVAHIK_clean_linker_0, # of connection points: 2
#     Edge 23, Type (0, 1), BuildingBlock: UVAHIK_clean_linker_0, # of connection points: 2
#     Edge 24, Type (0, 1), BuildingBlock: UVAHIK_clean_linker_0, # of connection points: 2
#     Edge 25, Type (0, 1), BuildingBlock: UVAHIK_clean_linker_0, # of connection points: 2
#     Edge 26, Type (0, 1), BuildingBlock: UVAHIK_clean_linker_0, # of connection points: 2
#     Edge 27, Type (0, 1), BuildingBlock: UVAHIK_clean_linker_0, # of connection points: 2
#     Edge 28, Type (0, 1), BuildingBlock: UVAHIK_clean_linker_0, # of connection points: 2
#     Edge 29, Type (0, 1), BuildingBlock: UVAHIK_clean_linker_0, # of connection points: 2
#     Edge 30, Type (0, 1), BuildingBlock: UVAHIK_clean_linker_0, # of connection points: 2
#     Edge 31, Type (0, 1), BuildingBlock: UVAHIK_clean_linker_0, # of connection points: 2
#     Edge 32, Type (0, 1), BuildingBlock: UVAHIK_clean_linker_0, # of connection points: 2
#     Edge 33, Type (0, 1), BuildingBlock: UVAHIK_clean_linker_0, # of connection points: 2
#     Edge 34, Type (0, 1), BuildingBlock: UVAHIK_clean_linker_0, # of connection points: 2
#     Edge 35, Type (0, 1), BuildingBlock: UVAHIK_clean_linker_0, # of connection points: 2
# Relax obj value: 0.052
# Max RMSD: 0.067
# Mean RMSD: 0.065
data_MOF--net-cml--node1-WUSLED_clean_sbu_0--node2-IZENUY_clean_sbu_0--edge1-UVAHIK_clean_linker_0
_symmetry_space_group_name_H-M    P1
_symmetry_Int_Tables_number       1
_symmetry_cell_setting            triclinic
loop_
_symmetry_equiv_pos_as_xyz
'x, y, z'
_cell_length_a     55.887697
_cell_length_b     65.076805
_cell_length_c     60.043307
_cell_angle_alpha  90.271601
_cell_angle_beta   90.141183
_cell_angle_gamma 90.011007
loop_
_atom_site_label
_atom_site_type_symbol
_atom_site_fract_x
_atom_site_fract_y
_atom_site_fract_z
_atom_type_partial_charge
C0 C 0.30263 0.4313 0.96487 0.0
C1 C 0.32202 0.43913 0.97713 0.0
C2 C 0.32899 0.46506 0.94873 0.0
C3 C 0.33511 0.45583 0.96912 0.0
C4 C 0.30928 0.45733 0.93669 0.0
C5 C 0.29624 0.44056 0.94469 0.0
U6 U 0.29037 0.39271 0.01038 0.0
O7 O 0.25674 0.37907 0.02225 0.0
O8 O 0.28503 0.35924 0.0088 0.0
C9 C 0.26288 0.36042 0.01601 0.0
C10 C 0.28932 0.41334 0.97294 0.0
C11 C 0.24503 0.34918 1.00265 0.0
C12 C 0.22072 0.34532 0.96924 0.0
C13 C 0.23776 0.35629 0.98167 0.0
C14 C 0.21822 0.32004 0.99863 0.0
C15 C 0.21068 0.32707 0.97761 0.0
C16 C 0.23521 0.331 0.01101 0.0
C17 C 0.32711 0.39904 0.06456 0.0
C18 C 0.33114 0.37385 0.09411 0.0
C19 C 0.34747 0.40806 0.09901 0.0
C20 C 0.33927 0.41341 0.07782 0.0
C21 C 0.34368 0.38817 0.10738 0.0
C22 C 0.32287 0.37926 0.07286 0.0
C23 C 0.31981 0.40498 0.04193 0.0
O24 O 0.30224 0.39669 0.9758 0.0
O25 O 0.2746 0.41698 0.98954 0.0
O26 O 0.29791 0.41205 0.03979 0.0
O27 O 0.32605 0.39234 0.02582 0.0
H28 H 0.32711 0.43223 0.99283 0.0
H29 H 0.34997 0.46158 0.97895 0.0
H30 H 0.30424 0.46398 0.92085 0.0
H31 H 0.28131 0.43469 0.93503 0.0
H32 H 0.21517 0.35129 0.95324 0.0
H33 H 0.2452 0.37033 0.97496 0.0
H34 H 0.21122 0.30589 1.00544 0.0
H35 H 0.24073 0.32524 0.02712 0.0
H36 H 0.3277 0.35847 0.10014 0.0
H37 H 0.35736 0.41939 0.10858 0.0
H38 H 0.34277 0.42874 0.07164 0.0
H39 H 0.31342 0.36797 0.06286 0.0
C40 C 0.71792 0.65297 0.57107 0.0
C41 C 0.70304 0.63653 0.57705 0.0
C42 C 0.69208 0.65422 0.61143 0.0
C43 C 0.69027 0.63712 0.59706 0.0
C44 C 0.70716 0.6706 0.60536 0.0
C45 C 0.71996 0.66995 0.58536 0.0
U46 U 0.72999 0.62787 0.51518 0.0
O47 O 0.73448 0.64111 0.48184 0.0
O48 O 0.76351 0.62299 0.49668 0.0
C49 C 0.75665 0.63458 0.47997 0.0
C50 C 0.73084 0.65269 0.54976 0.0
C51 C 0.77418 0.64982 0.47225 0.0
C52 C 0.79281 0.68354 0.47434 0.0
C53 C 0.77651 0.6691 0.48258 0.0
C54 C 0.8048 0.6594 0.44563 0.0
C55 C 0.80704 0.67891 0.45563 0.0
C56 C 0.78852 0.64504 0.45385 0.0
C57 C 0.69484 0.57841 0.50102 0.0
C58 C 0.67473 0.56482 0.46807 0.0
C59 C 0.69061 0.5415 0.49569 0.0
C60 C 0.69881 0.55822 0.50826 0.0
C61 C 0.67803 0.54459 0.47566 0.0
C62 C 0.68305 0.58155 0.4806 0.0
C63 C 0.70156 0.59577 0.51578 0.0
O64 O 0.746 0.63742 0.54711 0.0
O65 O 0.71749 0.65594 0.53208 0.0
O66 O 0.69453 0.6142 0.50969 0.0
O67 O 0.72343 0.5955 0.5239 0.0
H68 H 0.70113 0.62333 0.56612 0.0
H69 H 0.67861 0.62438 0.60106 0.0
H70 H 0.70918 0.68387 0.61615 0.0
H71 H 0.73137 0.68277 0.581 0.0
H72 H 0.79393 0.69846 0.48234 0.0
H73 H 0.76556 0.67305 0.49684 0.0
H74 H 0.81575 0.65516 0.43147 0.0
H75 H 0.78704 0.63018 0.44574 0.0
H76 H 0.66491 0.5678 0.45286 0.0
H77 H 0.69384 0.52614 0.50187 0.0
H78 H 0.70781 0.55536 0.52395 0.0
H79 H 0.67966 0.59692 0.47453 0.0
C80 C 0.71793 0.43277 0.96725 0.0
C81 C 0.70184 0.44309 0.9813 0.0
C82 C 0.69362 0.46816 0.95222 0.0
C83 C 0.68982 0.46064 0.97387 0.0
C84 C 0.70993 0.45779 0.93829 0.0
C85 C 0.72197 0.44026 0.94576 0.0
U86 U 0.72812 0.39216 0.01133 0.0
O87 O 0.73234 0.35867 1.00864 0.0
O88 O 0.76125 0.37734 0.02308 0.0
C89 C 0.75443 0.35903 0.01624 0.0
C90 C 0.73026 0.41407 0.97479 0.0
C91 C 0.77208 0.34733 1.00314 0.0
C92 C 0.78999 0.33744 0.9678 0.0
C93 C 0.77375 0.34945 0.97994 0.0
C94 C 0.80338 0.32146 1.00199 0.0
C95 C 0.80486 0.32313 0.97866 0.0
C96 C 0.78713 0.33342 0.01407 0.0
C97 C 0.69107 0.39768 0.06524 0.0
C98 C 0.69014 0.37317 0.09569 0.0
C99 C 0.66794 0.40506 0.09845 0.0
C100 C 0.67595 0.41069 0.07735 0.0
C101 C 0.67494 0.38626 0.10795 0.0
C102 C 0.6982 0.37887 0.07449 0.0
C103 C 0.69876 0.40411 0.04294 0.0
O104 O 0.74501 0.41662 0.99166 0.0
O105 O 0.71655 0.39778 0.97684 0.0
O106 O 0.69228 0.39207 0.02636 0.0
O107 O 0.72091 0.41071 0.04132 0.0
H108 H 0.69845 0.43745 0.99795 0.0
H109 H 0.67719 0.46807 0.98493 0.0
H110 H 0.71352 0.4633 0.92164 0.0
H111 H 0.73437 0.43251 0.93472 0.0
H112 H 0.79051 0.33902 0.94986 0.0
H113 H 0.76227 0.36016 0.97121 0.0
H114 H 0.81483 0.31092 0.01096 0.0
H115 H 0.78619 0.33167 0.03198 0.0
H116 H 0.69597 0.35865 0.10257 0.0
H117 H 0.6559 0.41534 0.10718 0.0
H118 H 0.67017 0.42521 0.0704 0.0
H119 H 0.70991 0.36864 0.06531 0.0
C120 C 0.3003 0.65202 0.57272 0.0
C121 C 0.30685 0.63394 0.58384 0.0
C122 C 0.32553 0.65403 0.61358 0.0
C123 C 0.3192 0.63493 0.60411 0.0
C124 C 0.31882 0.6721 0.60235 0.0
C125 C 0.3063 0.67108 0.58217 0.0
U126 U 0.28985 0.62649 0.5164 0.0
O127 O 0.25696 0.62155 0.49692 0.0
O128 O 0.28613 0.64005 0.48305 0.0
C129 C 0.26405 0.63347 0.48059 0.0
C130 C 0.28804 0.65128 0.55095 0.0
C131 C 0.24663 0.64886 0.47292 0.0
C132 C 0.21951 0.67738 0.47994 0.0
C133 C 0.23622 0.66302 0.4877 0.0
C134 C 0.22369 0.66366 0.44257 0.0
C135 C 0.21296 0.67783 0.45726 0.0
C136 C 0.24031 0.64933 0.45035 0.0
C137 C 0.32647 0.57747 0.50284 0.0
C138 C 0.32399 0.54143 0.49171 0.0
C139 C 0.35496 0.5631 0.47636 0.0
C140 C 0.34636 0.57974 0.48876 0.0
C141 C 0.34402 0.54368 0.4778 0.0
C142 C 0.31535 0.55811 0.50413 0.0
C143 C 0.31878 0.59466 0.51752 0.0
O144 O 0.30182 0.65462 0.53365 0.0
O145 O 0.27298 0.63598 0.54787 0.0
O146 O 0.2967 0.59414 0.52505 0.0
O147 O 0.32564 0.61321 0.51173 0.0
H148 H 0.30255 0.61902 0.57681 0.0
H149 H 0.32372 0.6207 0.61238 0.0
H150 H 0.32369 0.68707 0.60889 0.0
H151 H 0.30158 0.68521 0.57375 0.0
H152 H 0.21147 0.68792 0.49175 0.0
H153 H 0.24093 0.66289 0.50521 0.0
H154 H 0.21944 0.66377 0.42497 0.0
H155 H 0.24828 0.63859 0.43868 0.0
H156 H 0.31503 0.52673 0.4931 0.0
H157 H 0.37069 0.56532 0.46614 0.0
H158 H 0.35568 0.59429 0.48766 0.0
H159 H 0.3002 0.55572 0.51503 0.0
C160 C 0.80404 0.93019 0.96263 0.0
C161 C 0.82382 0.93805 0.97431 0.0
C162 C 0.8293 0.96443 0.94607 0.0
C163 C 0.83637 0.95498 0.96609 0.0
C164 C 0.80924 0.95659 0.93461 0.0
C165 C 0.79675 0.93961 0.94282 0.0
U166 U 0.79201 0.89175 1.00855 0.0
O167 O 0.75839 0.87798 0.02023 0.0
O168 O 0.78695 0.85823 1.00712 0.0
C169 C 0.76473 0.85933 0.01413 0.0
C170 C 0.79108 0.91212 0.97093 0.0
C171 C 0.74707 0.84794 1.0007 0.0
C172 C 0.72211 0.84437 0.96766 0.0
C173 C 0.73907 0.85542 0.98009 0.0
C174 C 0.7212 0.81823 0.99624 0.0
C175 C 0.71288 0.82566 0.97564 0.0
C176 C 0.73809 0.82928 1.00863 0.0
C177 C 0.82781 0.89875 0.06319 0.0
C178 C 0.83364 0.87351 0.09246 0.0
C179 C 0.84525 0.90896 0.09863 0.0
C180 C 0.83743 0.91391 0.07721 0.0
C181 C 0.84363 0.88867 0.1065 0.0
C182 C 0.82573 0.87852 0.07099 0.0
C183 C 0.82087 0.90443 0.04037 0.0
O184 O 0.80429 0.89567 0.97408 0.0
O185 O 0.77616 0.91573 0.98737 0.0
O186 O 0.79897 0.9114 0.03784 0.0
O187 O 0.82747 0.89172 0.02445 0.0
H188 H 0.82968 0.93095 0.98967 0.0
H189 H 0.85189 0.9604 0.97521 0.0
H190 H 0.80307 0.96366 0.91935 0.0
H191 H 0.78143 0.9338 0.93367 0.0
H192 H 0.71596 0.85064 0.95198 0.0
H193 H 0.74586 0.86983 0.9737 0.0
H194 H 0.71483 0.80373 1.00273 0.0
H195 H 0.74418 0.82323 0.02444 0.0
H196 H 0.83192 0.85779 0.09809 0.0
H197 H 0.85317 0.92095 0.10881 0.0
H198 H 0.83925 0.92959 0.07144 0.0
H199 H 0.81823 0.8666 0.06042 0.0
C200 C 0.21537 0.15286 0.5705 0.0
C201 C 0.19026 0.15134 0.57077 0.0
C202 C 0.19007 0.15462 0.61118 0.0
C203 C 0.17777 0.15234 0.59087 0.0
C204 C 0.21519 0.15578 0.61095 0.0
C205 C 0.22771 0.15502 0.59077 0.0
U206 U 0.22767 0.12696 0.51496 0.0
O207 O 0.23208 0.13971 0.48133 0.0
O208 O 0.26094 0.12147 0.49634 0.0
C209 C 0.25425 0.13317 0.47962 0.0
C210 C 0.22879 0.15197 0.5493 0.0
C211 C 0.27175 0.1484 0.47152 0.0
C212 C 0.30732 0.16957 0.47638 0.0
C213 C 0.29066 0.15559 0.48491 0.0
C214 C 0.28613 0.16966 0.44116 0.0
C215 C 0.30533 0.17673 0.45434 0.0
C216 C 0.26962 0.15562 0.44964 0.0
C217 C 0.19077 0.07833 0.50224 0.0
C218 C 0.19408 0.05797 0.46835 0.0
C219 C 0.16494 0.04883 0.49644 0.0
C220 C 0.17244 0.06539 0.50957 0.0
C221 C 0.17568 0.04486 0.47569 0.0
C222 C 0.20159 0.07459 0.48155 0.0
C223 C 0.19811 0.09562 0.51649 0.0
O224 O 0.24362 0.13641 0.54708 0.0
O225 O 0.21633 0.15566 0.53114 0.0
O226 O 0.19179 0.11395 0.50953 0.0
O227 O 0.22014 0.09493 0.52415 0.0
H228 H 0.18021 0.14938 0.55546 0.0
H229 H 0.15844 0.15111 0.59055 0.0
H230 H 0.22512 0.15763 0.62635 0.0
H231 H 0.24705 0.15615 0.59099 0.0
H232 H 0.32198 0.17449 0.48695 0.0
H233 H 0.29271 0.1503 0.50189 0.0
H234 H 0.28371 0.17509 0.42429 0.0
H235 H 0.25512 0.15034 0.43904 0.0
H236 H 0.20284 0.05525 0.45254 0.0
H237 H 0.15043 0.03933 0.50243 0.0
H238 H 0.16383 0.06814 0.52545 0.0
H239 H 0.2158 0.08449 0.47567 0.0
C240 C 0.21747 0.93353 0.96578 0.0
C241 C 0.22029 0.95228 0.97725 0.0
C242 C 0.19332 0.96935 0.9512 0.0
C243 C 0.20842 0.96998 0.97 0.0
C244 C 0.19062 0.95056 0.93975 0.0
C245 C 0.20264 0.93292 0.94689 0.0
U246 U 0.22794 0.89227 0.00964 0.0
O247 O 0.23099 0.85862 1.00631 0.0
O248 O 0.26064 0.87651 0.02066 0.0
C249 C 0.25323 0.85846 0.01348 0.0
C250 C 0.22947 0.91447 0.97332 0.0
C251 C 0.2703 0.84637 1.00002 0.0
C252 C 0.30466 0.84379 0.9753 0.0
C253 C 0.28802 0.85577 0.987 0.0
C254 C 0.28569 0.8129 0.98901 0.0
C255 C 0.30386 0.82217 0.97634 0.0
C256 C 0.26918 0.82487 1.00076 0.0
C257 C 0.19223 0.89838 0.06436 0.0
C258 C 0.19089 0.87382 0.09475 0.0
C259 C 0.16962 0.90615 0.09777 0.0
C260 C 0.17761 0.91167 0.07664 0.0
C261 C 0.17615 0.88717 0.10715 0.0
C262 C 0.19892 0.87941 0.0735 0.0
C263 C 0.19973 0.90466 0.04196 0.0
O264 O 0.24509 0.91634 0.98963 0.0
O265 O 0.21548 0.89836 0.97548 0.0
O266 O 0.1925 0.89285 0.02545 0.0
O267 O 0.22204 0.91072 0.03996 0.0
H268 H 0.23162 0.95334 0.99187 0.0
H269 H 0.21126 0.9842 0.97906 0.0
H270 H 0.17889 0.94933 0.92543 0.0
H271 H 0.20013 0.91868 0.93775 0.0
H272 H 0.31849 0.85149 0.96589 0.0
H273 H 0.28921 0.87236 0.98609 0.0
H274 H 0.28415 0.79634 0.98986 0.0
H275 H 0.25558 0.8173 0.0106 0.0
H276 H 0.19636 0.85916 0.10154 0.0
H277 H 0.15792 0.91664 0.10659 0.0
H278 H 0.17216 0.92632 0.06977 0.0
H279 H 0.21024 0.86895 0.06419 0.0
C280 C 0.80214 0.15186 0.57155 0.0
C281 C 0.8091 0.13382 0.58253 0.0
C282 C 0.82764 0.15404 0.61224 0.0
C283 C 0.82158 0.1349 0.60272 0.0
C284 C 0.82055 0.17207 0.60113 0.0
C285 C 0.8079 0.17096 0.58101 0.0
U286 U 0.79014 0.12483 0.51648 0.0
O287 O 0.75688 0.12003 0.49753 0.0
O288 O 0.78652 0.1372 0.48255 0.0
C289 C 0.76413 0.13125 0.48068 0.0
C290 C 0.7897 0.15096 0.54989 0.0
C291 C 0.74717 0.14697 0.47285 0.0
C292 C 0.71968 0.17523 0.4799 0.0
C293 C 0.73617 0.16071 0.48772 0.0
C294 C 0.72537 0.16261 0.44227 0.0
C295 C 0.71397 0.17629 0.45706 0.0
C296 C 0.74176 0.1481 0.45011 0.0
C297 C 0.82433 0.07415 0.50608 0.0
C298 C 0.82864 0.0566 0.47048 0.0
C299 C 0.8433 0.04063 0.50423 0.0
C300 C 0.83543 0.05753 0.51662 0.0
C301 C 0.84023 0.04001 0.48096 0.0
C302 C 0.82072 0.07353 0.48295 0.0
C303 C 0.81764 0.09221 0.51952 0.0
O304 O 0.80354 0.15315 0.5324 0.0
O305 O 0.77387 0.13615 0.54751 0.0
O306 O 0.7955 0.0927 0.52682 0.0
O307 O 0.82516 0.11005 0.51211 0.0
H308 H 0.80498 0.11889 0.57545 0.0
H309 H 0.82639 0.12069 0.6109 0.0
H310 H 0.8252 0.18707 0.60771 0.0
H311 H 0.80288 0.18506 0.57267 0.0
H312 H 0.71111 0.18536 0.4918 0.0
H313 H 0.74017 0.16009 0.50537 0.0
H314 H 0.72178 0.16321 0.42455 0.0
H315 H 0.75019 0.1377 0.43837 0.0
H316 H 0.82576 0.05652 0.45264 0.0
H317 H 0.85245 0.02831 0.51282 0.0
H318 H 0.83845 0.05779 0.53446 0.0
H319 H 0.81208 0.08623 0.47453 0.0
Fe320 Fe 0.01017 0.8311 0.33138 0.0
Fe321 Fe 0.01147 0.85372 0.3765 0.0
O322 O 0.01053 0.85438 0.34699 0.0
Fe323 Fe 0.00984 0.87833 0.33309 0.0
O324 O 0.98152 0.87221 0.31984 0.0
O325 O 0.99166 0.84128 0.30853 0.0
O326 O 0.9826 0.82282 0.34461 0.0
C327 C 0.97972 0.82117 0.36537 0.0
C328 C 0.04079 0.85417 0.30624 0.0
O329 O 0.99388 0.83 0.37887 0.0
C330 C 0.04232 0.88697 0.36591 0.0
O331 O 0.02866 0.81666 0.35138 0.0
O332 O 0.03949 0.83968 0.37632 0.0
O333 O 0.02696 0.86939 0.30895 0.0
O334 O 0.03768 0.83773 0.31694 0.0
C335 C 0.97961 0.88513 0.37035 0.0
O336 O 0.02928 0.87732 0.37956 0.0
O337 O 0.0381 0.88617 0.3453 0.0
C338 C 0.04266 0.8226 0.36676 0.0
O339 O 0.98346 0.86774 0.37883 0.0
O340 O 0.99269 0.89174 0.35476 0.0
C341 C 0.978 0.8568 0.30745 0.0
Fe342 Fe 0.00919 0.16114 0.87692 0.0
Fe343 Fe 0.01229 0.13848 0.83201 0.0
O344 O 0.01022 0.16171 0.8474 0.0
Fe345 Fe 0.00911 0.18555 0.83319 0.0
O346 O 0.0363 0.19439 0.84686 0.0
O347 O 0.02554 0.18545 0.88068 0.0
O348 O 0.03786 0.14809 0.87876 0.0
C349 C 0.04278 0.13136 0.8691 0.0
C350 C 0.97635 0.19138 0.86881 0.0
O351 O 0.03026 0.12494 0.85291 0.0
C352 C 0.97991 0.16244 0.80642 0.0
O353 O 0.99267 0.13676 0.87846 0.0
O354 O 0.98452 0.12892 0.8436 0.0
O355 O 0.99006 0.19848 0.85393 0.0
O356 O 0.98042 0.17406 0.87737 0.0
C357 C 0.04262 0.16237 0.8078 0.0
O358 O 0.99467 0.14775 0.80823 0.0
O359 O 0.98185 0.17826 0.81855 0.0
C360 C 0.98029 0.12709 0.86413 0.0
O361 O 0.04024 0.14635 0.81931 0.0
O362 O 0.02793 0.1771 0.80975 0.0
C363 C 0.0391 0.19542 0.86772 0.0
Fe364 Fe 0.51046 0.32907 0.33229 0.0
Fe365 Fe 0.51007 0.3516 0.37754 0.0
O366 O 0.51031 0.35233 0.34799 0.0
Fe367 Fe 0.51034 0.37635 0.33417 0.0
O368 O 0.48254 0.37042 0.31987 0.0
O369 O 0.49268 0.33932 0.30903 0.0
O370 O 0.48249 0.32067 0.34468 0.0
C371 C 0.4788 0.31904 0.36533 0.0
C372 C 0.54198 0.35216 0.30806 0.0
O373 O 0.49232 0.32795 0.37929 0.0
C374 C 0.54141 0.38485 0.36823 0.0
O375 O 0.52831 0.31461 0.35272 0.0
O376 O 0.53804 0.33746 0.37827 0.0
O377 O 0.52831 0.36748 0.31058 0.0
O378 O 0.53843 0.33569 0.31858 0.0
C379 C 0.47873 0.38321 0.37044 0.0
O380 O 0.52777 0.37511 0.38127 0.0
O381 O 0.53817 0.38409 0.34745 0.0
C382 C 0.54169 0.3205 0.3686 0.0
O383 O 0.48206 0.36578 0.37904 0.0
O384 O 0.4924 0.3897 0.35525 0.0
C385 C 0.47925 0.35495 0.30749 0.0
Fe386 Fe 0.51048 0.66 0.87657 0.0
Fe387 Fe 0.51165 0.63719 0.83172 0.0
O388 O 0.51065 0.66054 0.84703 0.0
Fe389 Fe 0.50976 0.68438 0.83278 0.0
O390 O 0.53731 0.693 0.84603 0.0
O391 O 0.52734 0.68403 0.88001 0.0
O392 O 0.53893 0.6465 0.87763 0.0
C393 C 0.54298 0.62955 0.86807 0.0
C394 C 0.47793 0.69066 0.86914 0.0
O395 O 0.52966 0.62332 0.85235 0.0
C396 C 0.47957 0.66167 0.80645 0.0
O397 O 0.49347 0.63591 0.87853 0.0
O398 O 0.48386 0.62832 0.84395 0.0
O399 O 0.49116 0.69753 0.85374 0.0
O400 O 0.48207 0.67339 0.87776 0.0
C401 C 0.5423 0.66044 0.80698 0.0
O402 O 0.49388 0.64668 0.8082 0.0
O403 O 0.48214 0.67749 0.81847 0.0
C404 C 0.48024 0.62661 0.86459 0.0
O405 O 0.53948 0.64439 0.81839 0.0
O406 O 0.5282 0.67559 0.8092 0.0
C407 C 0.5406 0.69399 0.86682 0.0
C408 C 0.17278 0.30632 0.97547 0.0
C409 C 0.19239 0.31536 0.96463 0.0
C410 C 0.15598 0.29476 0.96353 0.0
C411 C 0.14804 0.26555 0.91097 0.0
H412 H 0.08109 0.26754 0.92763 0.0
C413 C 0.07351 0.2202 0.86385 0.0
C414 C 0.05686 0.20994 0.87739 0.0
C415 C 0.08999 0.23402 0.87319 0.0
C416 C 0.09974 0.26672 0.92286 0.0
H417 H 0.2095 0.3194 0.93256 0.0
H418 H 0.17985 0.29958 0.91163 0.0
H419 H 0.10962 0.29029 0.94605 0.0
H420 H 0.04467 0.20619 0.91144 0.0
H421 H 0.07325 0.2302 0.92758 0.0
H422 H 0.13802 0.24188 0.88778 0.0
C423 C 0.17768 0.30122 0.92946 0.0
C424 C 0.11613 0.27974 0.93345 0.0
C425 C 0.19454 0.3128 0.94143 0.0
C426 C 0.05715 0.21381 0.90046 0.0
C427 C 0.07345 0.22771 0.90973 0.0
C428 C 0.13159 0.25257 0.90029 0.0
C429 C 0.15823 0.29197 0.94038 0.0
C430 C 0.14057 0.27911 0.92792 0.0
C431 C 0.09003 0.23803 0.89623 0.0
C432 C 0.10731 0.25278 0.90637 0.0
H433 H 0.17036 0.30819 0.99325 0.0
H434 H 0.14144 0.28768 0.97258 0.0
H435 H 0.16674 0.26447 0.90643 0.0
H436 H 0.07382 0.21755 0.84602 0.0
H437 H 0.10247 0.24181 0.86233 0.0
C438 C 0.83793 0.70678 0.46057 0.0
C439 C 0.82401 0.69432 0.44639 0.0
C440 C 0.85422 0.72092 0.45178 0.0
C441 C 0.86902 0.74942 0.40024 0.0
H442 H 0.93149 0.75486 0.42785 0.0
C443 C 0.94645 0.79547 0.35996 0.0
C444 C 0.96096 0.8073 0.37427 0.0
C445 C 0.92929 0.78201 0.36862 0.0
C446 C 0.91402 0.75372 0.42007 0.0
H447 H 0.81595 0.68738 0.4118 0.0
H448 H 0.84463 0.71168 0.39653 0.0
H449 H 0.90241 0.73104 0.44337 0.0
H450 H 0.96835 0.81452 0.40897 0.0
H451 H 0.93839 0.79132 0.42392 0.0
H452 H 0.8807 0.77209 0.37691 0.0
C453 C 0.84285 0.71065 0.41445 0.0
C454 C 0.89733 0.74006 0.429 0.0
C455 C 0.8266 0.69652 0.42322 0.0
C456 C 0.95765 0.80554 0.3974 0.0
C457 C 0.94053 0.79213 0.40603 0.0
C458 C 0.88572 0.7631 0.39131 0.0
C459 C 0.85695 0.72298 0.42861 0.0
C460 C 0.87461 0.73773 0.41921 0.0
C461 C 0.92624 0.78008 0.39178 0.0
C462 C 0.90844 0.76544 0.40113 0.0
H463 H 0.83654 0.70539 0.47848 0.0
H464 H 0.86459 0.73033 0.46318 0.0
H465 H 0.85157 0.74822 0.39245 0.0
H466 H 0.9485 0.79642 0.34207 0.0
H467 H 0.91874 0.77283 0.35716 0.0
C468 C 0.82462 0.28898 0.97172 0.0
C469 C 0.82154 0.3097 0.96581 0.0
C470 C 0.84042 0.27634 0.95994 0.0
C471 C 0.89307 0.27809 0.92275 0.0
H472 H 0.87643 0.22117 0.91117 0.0
C473 C 0.95342 0.2246 0.87 0.0
C474 C 0.95701 0.20455 0.87805 0.0
C475 C 0.93607 0.23742 0.87946 0.0
C476 C 0.88145 0.23698 0.91443 0.0
H477 H 0.83278 0.33333 0.94272 0.0
H478 H 0.86005 0.31116 0.92188 0.0
H479 H 0.8478 0.24363 0.92982 0.0
H480 H 0.94468 0.1822 0.90215 0.0
H481 H 0.91457 0.20459 0.91871 0.0
H482 H 0.92677 0.2714 0.90747 0.0
C483 C 0.8504 0.30475 0.93584 0.0
C484 C 0.86503 0.24987 0.92514 0.0
C485 C 0.83456 0.31741 0.94764 0.0
C486 C 0.94244 0.19753 0.8955 0.0
C487 C 0.92506 0.21035 0.90494 0.0
C488 C 0.90948 0.2652 0.91201 0.0
C489 C 0.85356 0.28405 0.94186 0.0
C490 C 0.87069 0.27056 0.92961 0.0
C491 C 0.9218 0.23052 0.89718 0.0
C492 C 0.90395 0.24444 0.90786 0.0
H493 H 0.81467 0.28241 0.9854 0.0
H494 H 0.84258 0.26057 0.96523 0.0
H495 H 0.89819 0.29385 0.92618 0.0
H496 H 0.96421 0.23052 0.8565 0.0
H497 H 0.9338 0.25275 0.87285 0.0
C498 C 0.19489 0.71334 0.45666 0.0
C499 C 0.19506 0.69293 0.44884 0.0
C500 C 0.17845 0.72759 0.44823 0.0
C501 C 0.12083 0.73119 0.41742 0.0
H502 H 0.14174 0.78685 0.40537 0.0
C503 C 0.06279 0.78808 0.36732 0.0
C504 C 0.06121 0.80835 0.37544 0.0
C505 C 0.07936 0.7743 0.37633 0.0
C506 C 0.13555 0.77142 0.40884 0.0
H507 H 0.17755 0.67145 0.42636 0.0
H508 H 0.14941 0.69632 0.41132 0.0
H509 H 0.16979 0.76226 0.4214 0.0
H510 H 0.07633 0.83009 0.39913 0.0
H511 H 0.1052 0.80601 0.41481 0.0
H512 H 0.08665 0.74032 0.40468 0.0
C513 C 0.1618 0.70132 0.42414 0.0
C514 C 0.15163 0.75732 0.41809 0.0
C515 C 0.17819 0.6871 0.43257 0.0
C516 C 0.077 0.81459 0.39247 0.0
C517 C 0.09365 0.80082 0.40141 0.0
C518 C 0.1048 0.74526 0.40811 0.0
C519 C 0.16175 0.72179 0.43178 0.0
C520 C 0.1445 0.73699 0.42243 0.0
C521 C 0.09487 0.78044 0.3936 0.0
C522 C 0.11198 0.76554 0.40363 0.0
H523 H 0.20773 0.71844 0.46903 0.0
H524 H 0.17877 0.74315 0.45471 0.0
H525 H 0.11455 0.7158 0.42091 0.0
H526 H 0.051 0.78273 0.35418 0.0
H527 H 0.08007 0.7588 0.36969 0.0
C528 C 0.69609 0.81206 0.9394 0.0
C529 C 0.69457 0.81392 0.96271 0.0
C530 C 0.67917 0.80051 0.92746 0.0
C531 C 0.61826 0.77794 0.93227 0.0
H532 H 0.6395 0.74157 0.88493 0.0
C533 C 0.5597 0.71186 0.89936 0.0
C534 C 0.5586 0.70846 0.87622 0.0
C535 C 0.57607 0.72579 0.90844 0.0
C536 C 0.63324 0.75185 0.89791 0.0
H537 H 0.67359 0.80549 0.99161 0.0
H538 H 0.64459 0.78504 0.97098 0.0
H539 H 0.66832 0.76418 0.90348 0.0
H540 H 0.57425 0.71692 0.84453 0.0
H541 H 0.60305 0.74126 0.86052 0.0
H542 H 0.58333 0.76532 0.92703 0.0
C543 C 0.65868 0.79265 0.96182 0.0
C544 C 0.64975 0.76483 0.90854 0.0
C545 C 0.67554 0.80418 0.97372 0.0
C546 C 0.57457 0.71919 0.86241 0.0
C547 C 0.59113 0.73307 0.87157 0.0
C548 C 0.60183 0.76492 0.92173 0.0
C549 C 0.66029 0.7906 0.93854 0.0
C550 C 0.64252 0.77782 0.92609 0.0
C551 C 0.59192 0.73663 0.89469 0.0
C552 C 0.60918 0.75149 0.90467 0.0
H553 H 0.71061 0.81922 0.93038 0.0
H554 H 0.68085 0.79943 0.90953 0.0
H555 H 0.61193 0.78806 0.94535 0.0
H556 H 0.54776 0.70386 0.91055 0.0
H557 H 0.57647 0.72791 0.92634 0.0
C558 C 0.33282 0.20729 0.45825 0.0
C559 C 0.32319 0.1914 0.44502 0.0
C560 C 0.34943 0.2211 0.4494 0.0
C561 C 0.37081 0.24262 0.39632 0.0
H562 H 0.42706 0.25745 0.4307 0.0
C563 C 0.44834 0.29098 0.35942 0.0
C564 C 0.45984 0.30509 0.37365 0.0
C565 C 0.43133 0.27721 0.36778 0.0
C566 C 0.41129 0.25373 0.42097 0.0
H567 H 0.32402 0.17743 0.41212 0.0
H568 H 0.35265 0.2017 0.39666 0.0
H569 H 0.39814 0.23343 0.4461 0.0
H570 H 0.4618 0.31625 0.40772 0.0
H571 H 0.43191 0.29274 0.42212 0.0
H572 H 0.38376 0.2631 0.37129 0.0
C573 C 0.34712 0.20359 0.41383 0.0
C574 C 0.39473 0.2399 0.42981 0.0
C575 C 0.33066 0.18969 0.42271 0.0
C576 C 0.45352 0.30544 0.39631 0.0
C577 C 0.43644 0.29182 0.40462 0.0
C578 C 0.38729 0.25657 0.38752 0.0
C579 C 0.35671 0.21945 0.42706 0.0
C580 C 0.37429 0.23418 0.41761 0.0
C581 C 0.42531 0.27735 0.39055 0.0
C582 C 0.40775 0.26235 0.39975 0.0
H583 H 0.32724 0.2093 0.47538 0.0
H584 H 0.35627 0.23331 0.45995 0.0
H585 H 0.35509 0.2387 0.38661 0.0
H586 H 0.45282 0.29026 0.34189 0.0
H587 H 0.42332 0.26616 0.35648 0.0
C588 C 0.3307 0.81467 0.94349 0.0
C589 C 0.32208 0.80928 0.96468 0.0
C590 C 0.34771 0.8024 0.93264 0.0
C591 C 0.39281 0.76146 0.94341 0.0
H592 H 0.3882 0.75214 0.8797 0.0
C593 C 0.44765 0.69856 0.89883 0.0
C594 C 0.45908 0.70405 0.87887 0.0
C595 C 0.43092 0.7117 0.90872 0.0
C596 C 0.38984 0.75474 0.89747 0.0
H597 H 0.32512 0.78685 0.99117 0.0
H598 H 0.35397 0.76523 0.97206 0.0
H599 H 0.35935 0.77467 0.89812 0.0
H600 H 0.46127 0.72748 0.85336 0.0
H601 H 0.43188 0.75032 0.87059 0.0
H602 H 0.42304 0.74126 0.94279 0.0
C603 C 0.3479 0.77908 0.96388 0.0
C604 C 0.37335 0.76771 0.90804 0.0
C605 C 0.33102 0.79137 0.97474 0.0
C606 C 0.45288 0.72279 0.86877 0.0
C607 C 0.43596 0.73585 0.87857 0.0
C608 C 0.40915 0.7484 0.93288 0.0
C609 C 0.35652 0.78441 0.94269 0.0
C610 C 0.37452 0.77115 0.93119 0.0
C611 C 0.42501 0.73057 0.89881 0.0
C612 C 0.40779 0.74478 0.90982 0.0
H613 H 0.3241 0.82824 0.93512 0.0
H614 H 0.3541 0.80713 0.91644 0.0
H615 H 0.39465 0.76406 0.96115 0.0
H616 H 0.45191 0.68425 0.90707 0.0
H617 H 0.42255 0.70705 0.92415 0.0
C618 C 0.67988 0.18589 0.43169 0.0
C619 C 0.6961 0.19143 0.44864 0.0
C620 C 0.66332 0.2001 0.4235 0.0
C621 C 0.65132 0.25604 0.41992 0.0
H622 H 0.58726 0.23792 0.40452 0.0
C623 C 0.57532 0.31237 0.3951 0.0
C624 C 0.56026 0.30633 0.37743 0.0
C625 C 0.59216 0.29869 0.40393 0.0
C626 C 0.60515 0.2432 0.40852 0.0
H627 H 0.70751 0.21643 0.47022 0.0
H628 H 0.67824 0.24106 0.4563 0.0
H629 H 0.6157 0.2135 0.42007 0.0
H630 H 0.5515 0.28119 0.35496 0.0
H631 H 0.58087 0.25746 0.37027 0.0
H632 H 0.64063 0.2858 0.40843 0.0
C633 C 0.67856 0.22576 0.44912 0.0
C634 C 0.62149 0.22918 0.41743 0.0
C635 C 0.69517 0.21155 0.4573 0.0
C636 C 0.5627 0.28638 0.36862 0.0
C637 C 0.57945 0.27269 0.3775 0.0
C638 C 0.63492 0.2701 0.41106 0.0
C639 C 0.66244 0.22024 0.43207 0.0
C640 C 0.64485 0.23537 0.42313 0.0
C641 C 0.59428 0.27862 0.39536 0.0
C642 C 0.61168 0.26381 0.40512 0.0
H643 H 0.67982 0.17048 0.42481 0.0
H644 H 0.6514 0.19533 0.4102 0.0
H645 H 0.66923 0.26131 0.42381 0.0
H646 H 0.57398 0.32762 0.4023 0.0
H647 H 0.60318 0.3037 0.41779 0.0
C648 C 0.36853 0.48196 0.94125 0.0
C649 C 0.34342 0.48242 0.93993 0.0
C650 C 0.3822 0.49821 0.93303 0.0
C651 C 0.3797 0.54276 0.89484 0.0
H652 H 0.43647 0.55951 0.92742 0.0
C653 C 0.4508 0.59792 0.85818 0.0
C654 C 0.46218 0.61177 0.87281 0.0
C655 C 0.43502 0.58304 0.86632 0.0
C656 C 0.42054 0.55522 0.91821 0.0
H657 H 0.31299 0.50046 0.92905 0.0
H658 H 0.33685 0.52896 0.91486 0.0
H659 H 0.41143 0.53218 0.942 0.0
H660 H 0.46504 0.62137 0.90738 0.0
H661 H 0.43729 0.59576 0.92144 0.0
H662 H 0.38863 0.56614 0.87127 0.0
C663 C 0.34599 0.51585 0.92194 0.0
C664 C 0.40633 0.53931 0.92643 0.0
C665 C 0.33231 0.49953 0.9301 0.0
C666 C 0.45682 0.6108 0.89565 0.0
C667 C 0.44098 0.59602 0.90375 0.0
C668 C 0.39391 0.55873 0.88663 0.0
C669 C 0.37113 0.51541 0.92334 0.0
C670 C 0.38582 0.53277 0.91479 0.0
C671 C 0.43016 0.58172 0.88926 0.0
C672 C 0.41457 0.56511 0.89817 0.0
H673 H 0.37767 0.46885 0.94835 0.0
H674 H 0.40151 0.49713 0.93399 0.0
H675 H 0.36415 0.53801 0.88533 0.0
H676 H 0.45451 0.59821 0.84049 0.0
H677 H 0.4272 0.57217 0.85468 0.0
C678 C 0.65617 0.51089 0.47543 0.0
C679 C 0.66708 0.5269 0.46352 0.0
C680 C 0.64454 0.49488 0.46427 0.0
C681 C 0.63806 0.46882 0.40958 0.0
H682 H 0.57744 0.45143 0.43449 0.0
C683 C 0.57114 0.41374 0.36443 0.0
C684 C 0.55914 0.39938 0.37784 0.0
C685 C 0.58602 0.42868 0.37409 0.0
C686 C 0.59448 0.4559 0.42744 0.0
H687 H 0.6749 0.53819 0.43039 0.0
H688 H 0.65408 0.51038 0.41087 0.0
H689 H 0.60005 0.47863 0.4527 0.0
H690 H 0.5545 0.38878 0.41179 0.0
H691 H 0.5805 0.41454 0.42846 0.0
H692 H 0.63219 0.44605 0.38416 0.0
C693 C 0.65475 0.51018 0.42889 0.0
C694 C 0.60747 0.47152 0.4379 0.0
C695 C 0.66646 0.52623 0.44009 0.0
C696 C 0.56318 0.39975 0.40096 0.0
C697 C 0.57801 0.4146 0.41056 0.0
C698 C 0.62498 0.45314 0.39905 0.0
C699 C 0.64336 0.49447 0.44088 0.0
C700 C 0.62952 0.47806 0.42925 0.0
C701 C 0.58919 0.42953 0.39733 0.0
C702 C 0.60313 0.44639 0.40801 0.0
H703 H 0.65601 0.51098 0.49347 0.0
H704 H 0.63629 0.48287 0.47403 0.0
H705 H 0.65506 0.47341 0.40255 0.0
H706 H 0.56847 0.41386 0.34656 0.0
H707 H 0.59433 0.44 0.36344 0.0
C708 C 0.67107 0.48684 0.92222 0.0
C709 C 0.6803 0.48648 0.94402 0.0
C710 C 0.65829 0.50386 0.91453 0.0
C711 C 0.62379 0.54901 0.93401 0.0
H712 H 0.63113 0.56643 0.87273 0.0
C713 C 0.57269 0.61903 0.89758 0.0
C714 C 0.56174 0.61554 0.87677 0.0
C715 C 0.58912 0.60485 0.90621 0.0
C716 C 0.6288 0.56171 0.88986 0.0
H717 H 0.68357 0.50396 0.97472 0.0
H718 H 0.6613 0.53372 0.96126 0.0
H719 H 0.65598 0.5387 0.8871 0.0
H720 H 0.56012 0.59472 0.84846 0.0
H721 H 0.58863 0.57019 0.86344 0.0
H722 H 0.59641 0.57196 0.93664 0.0
C723 C 0.66368 0.52069 0.95021 0.0
C724 C 0.64301 0.54577 0.8981 0.0
C725 C 0.67645 0.50362 0.95793 0.0
C726 C 0.56812 0.59789 0.86457 0.0
C727 C 0.58462 0.58385 0.87309 0.0
C728 C 0.60961 0.56503 0.92577 0.0
C729 C 0.65442 0.52102 0.9284 0.0
C730 C 0.64042 0.53897 0.92016 0.0
C731 C 0.59515 0.58702 0.89411 0.0
C732 C 0.61168 0.57133 0.90349 0.0
H733 H 0.67331 0.47377 0.91119 0.0
H734 H 0.65103 0.50338 0.8978 0.0
H735 H 0.62112 0.54406 0.95101 0.0
H736 H 0.56819 0.63247 0.90741 0.0
H737 H 0.59709 0.60782 0.92237 0.0
C738 C 0.36294 0.52812 0.44372 0.0
C739 C 0.35416 0.52578 0.46548 0.0
C740 C 0.37408 0.51174 0.43273 0.0
C741 C 0.38246 0.45516 0.43331 0.0
H742 H 0.44075 0.46831 0.40155 0.0
C743 C 0.44958 0.39355 0.40049 0.0
C744 C 0.4608 0.39756 0.38002 0.0
C745 C 0.43462 0.4083 0.41035 0.0
C746 C 0.42433 0.46436 0.41006 0.0
H747 H 0.34984 0.50415 0.49256 0.0
H748 H 0.36925 0.47557 0.47335 0.0
H749 H 0.4182 0.49561 0.41953 0.0
H750 H 0.46394 0.41973 0.35328 0.0
H751 H 0.43777 0.44511 0.37023 0.0
H752 H 0.38885 0.42379 0.42389 0.0
C753 C 0.3673 0.49004 0.46471 0.0
C754 C 0.41138 0.48006 0.42039 0.0
C755 C 0.35615 0.50644 0.47572 0.0
C756 C 0.45588 0.41621 0.36921 0.0
C757 C 0.44095 0.43085 0.37899 0.0
C758 C 0.39547 0.4394 0.42293 0.0
C759 C 0.37675 0.49259 0.44321 0.0
C760 C 0.39024 0.4757 0.43209 0.0
C761 C 0.43057 0.42731 0.39992 0.0
C762 C 0.41652 0.44385 0.41109 0.0
H763 H 0.36131 0.54267 0.43517 0.0
H764 H 0.38071 0.51413 0.41601 0.0
H765 H 0.36615 0.4513 0.44205 0.0
H766 H 0.45296 0.37933 0.40925 0.0
H767 H 0.42697 0.4051 0.42652 0.0
C768 C 0.84732 0.98383 0.91405 0.0
C769 C 0.84303 0.98217 0.93705 0.0
C770 C 0.86071 1.00019 0.90562 0.0
C771 C 0.88315 0.05239 0.91981 0.0
H772 H 0.92895 0.04117 0.8729 0.0
C773 C 0.95711 0.10987 0.89454 0.0
C774 C 0.9624 0.11181 0.87175 0.0
C775 C 0.9412 0.0948 0.90192 0.0
C776 C 0.91602 0.04463 0.8858 0.0
H777 H 0.84912 0.99676 0.96913 0.0
H778 H 0.87297 0.02495 0.9545 0.0
H779 H 0.90396 0.01346 0.88695 0.0
H780 H 0.95455 0.09967 0.8388 0.0
H781 H 0.92674 0.07341 0.85173 0.0
H782 H 0.89555 0.08353 0.91885 0.0
C783 C 0.86573 0.01374 0.94293 0.0
C784 C 0.90166 0.02873 0.89386 0.0
C785 C 0.8523 0.9974 0.95136 0.0
C786 C 0.95099 0.09857 0.85648 0.0
C787 C 0.93515 0.08343 0.8639 0.0
C788 C 0.89758 0.06828 0.9118 0.0
C789 C 0.87021 0.01529 0.91995 0.0
C790 C 0.88509 0.03238 0.91103 0.0
C791 C 0.93022 0.08126 0.88672 0.0
C792 C 0.91426 0.06457 0.89475 0.0
H793 H 0.8407 0.97229 0.90254 0.0
H794 H 0.86354 1.00102 0.88781 0.0
H795 H 0.87032 0.05585 0.93279 0.0
H796 H 0.96551 0.11982 0.90677 0.0
H797 H 0.93798 0.09343 0.91963 0.0
C798 C 0.16427 0.02931 0.43865 0.0
C799 C 0.1673 0.02725 0.4618 0.0
C800 C 0.15464 0.01319 0.42597 0.0
C801 C 0.1401 0.95725 0.42782 0.0
H802 H 0.09156 0.97178 0.38442 0.0
C803 C 0.06747 0.90088 0.39712 0.0
C804 C 0.06084 0.90129 0.37452 0.0
C805 C 0.08367 0.91525 0.4057 0.0
C806 C 0.10534 0.96746 0.39622 0.0
H807 H 0.16369 1.00624 0.48952 0.0
H808 H 0.14633 0.97848 0.46764 0.0
H809 H 0.11425 0.99881 0.4031 0.0
H810 H 0.06665 0.91679 0.34306 0.0
H811 H 0.09484 0.94199 0.35816 0.0
H812 H 0.13049 0.92589 0.42146 0.0
C813 C 0.15157 0.99242 0.45916 0.0
C814 C 0.11841 0.98296 0.40691 0.0
C815 C 0.16124 0.00848 0.4718 0.0
C816 C 0.0713 0.91607 0.36057 0.0
C817 C 0.08736 0.93057 0.36921 0.0
C818 C 0.12692 0.94176 0.41723 0.0
C819 C 0.14782 0.99465 0.43613 0.0
C820 C 0.13567 0.97808 0.42315 0.0
C821 C 0.09352 0.93045 0.39192 0.0
C822 C 0.10912 0.94671 0.40158 0.0
H823 H 0.16864 0.04359 0.43042 0.0
H824 H 0.15229 0.01535 0.40822 0.0
H825 H 0.15359 0.9529 0.4399 0.0
H826 H 0.05985 0.88966 0.40832 0.0
H827 H 0.08788 0.91486 0.42331 0.0
C828 C 0.1709 1.00223 0.95914 0.0
C829 C 0.1803 0.98811 0.94364 0.0
C830 C 0.15824 0.01957 0.95201 0.0
C831 C 0.1462 0.05153 0.9017 0.0
H832 H 0.08994 0.06838 0.93474 0.0
C833 C 0.07136 0.10207 0.86475 0.0
C834 C 0.06172 0.11778 0.87814 0.0
C835 C 0.08796 0.08821 0.87347 0.0
C836 C 0.1058 0.06404 0.92551 0.0
H837 H 0.18409 0.9816 0.90834 0.0
H838 H 0.16128 0.01119 0.89599 0.0
H839 H 0.11453 0.04021 0.94855 0.0
H840 H 0.06232 0.13148 0.91113 0.0
H841 H 0.09115 0.10694 0.92651 0.0
H842 H 0.13681 0.07491 0.87822 0.0
C843 C 0.16404 0.00914 0.9137 0.0
C844 C 0.11996 0.04789 0.93343 0.0
C845 C 0.17685 0.99192 0.92082 0.0
C846 C 0.06945 0.11957 0.90038 0.0
C847 C 0.08583 0.10547 0.90921 0.0
C848 C 0.1319 0.0675 0.89367 0.0
C849 C 0.15449 0.0232 0.92918 0.0
C850 C 0.14021 0.04124 0.92149 0.0
C851 C 0.09511 0.08955 0.89587 0.0
C852 C 0.11139 0.07378 0.90535 0.0
H853 H 0.17294 0.99974 0.97686 0.0
H854 H 0.15144 0.03014 0.96445 0.0
H855 H 0.16193 0.0472 0.89229 0.0
H856 H 0.06586 0.10032 0.84753 0.0
H857 H 0.09464 0.07602 0.86283 0.0
C858 C 0.84864 1.00228 0.47587 0.0
C859 C 0.85003 0.0225 0.46777 0.0
C860 C 0.85958 0.98606 0.46442 0.0
C861 C 0.88548 0.97106 0.40985 0.0
H862 H 0.92283 0.93296 0.4452 0.0
C863 C 0.95807 0.91889 0.37161 0.0
C864 C 0.96142 0.89905 0.38026 0.0
C865 C 0.94202 0.93257 0.38154 0.0
C866 C 0.91218 0.94322 0.43507 0.0
H867 H 0.86367 0.04136 0.44097 0.0
H868 H 0.88265 0.01309 0.42097 0.0
H869 H 0.8991 0.95934 0.46369 0.0
H870 H 0.94984 0.87786 0.40585 0.0
H871 H 0.9216 0.90171 0.4231 0.0
H872 H 0.89883 0.95509 0.3812 0.0
C873 C 0.87289 0.00974 0.43608 0.0
C874 C 0.89856 0.95838 0.44569 0.0
C875 C 0.86197 0.02597 0.44755 0.0
C876 C 0.94783 0.89305 0.39882 0.0
C877 C 0.93172 0.90677 0.40878 0.0
C878 C 0.89906 0.95586 0.39923 0.0
C879 C 0.87213 0.98963 0.44454 0.0
C880 C 0.88529 0.97266 0.43321 0.0
C881 C 0.9288 0.92678 0.40039 0.0
C882 C 0.91285 0.94192 0.41169 0.0
H883 H 0.83922 0.99899 0.49119 0.0
H884 H 0.85829 0.97071 0.4712 0.0
H885 H 0.87516 0.98159 0.39975 0.0
H886 H 0.96819 0.92408 0.35733 0.0
H887 H 0.9405 0.94792 0.3748 0.0
C888 C 0.36478 0.36322 0.13261 0.0
C889 C 0.3536 0.38236 0.12953 0.0
C890 C 0.37585 0.35847 0.15288 0.0
C891 C 0.38022 0.37447 0.21238 0.0
H892 H 0.44264 0.34869 0.20899 0.0
C893 C 0.44753 0.37381 0.28593 0.0
C894 C 0.46159 0.35612 0.28901 0.0
C895 C 0.43233 0.37552 0.26747 0.0
C896 C 0.42508 0.35561 0.2103 0.0
H897 H 0.34436 0.41111 0.14578 0.0
H898 H 0.36403 0.40301 0.18089 0.0
H899 H 0.41968 0.35417 0.17506 0.0
H900 H 0.46991 0.326 0.2754 0.0
H901 H 0.44335 0.32894 0.24336 0.0
H902 H 0.38591 0.37624 0.24765 0.0
C903 C 0.36414 0.39159 0.16772 0.0
C904 C 0.41187 0.35874 0.19081 0.0
C905 C 0.35309 0.39634 0.14747 0.0
C906 C 0.45949 0.33991 0.27353 0.0
C907 C 0.44435 0.34164 0.25506 0.0
C908 C 0.39347 0.37137 0.2319 0.0
C909 C 0.37599 0.37272 0.17058 0.0
C910 C 0.38935 0.36836 0.19155 0.0
C911 C 0.43085 0.35958 0.25161 0.0
C912 C 0.41614 0.36203 0.23107 0.0
H913 H 0.36567 0.35214 0.11912 0.0
H914 H 0.38451 0.34367 0.15459 0.0
H915 H 0.36279 0.38165 0.21362 0.0
H916 H 0.44864 0.38659 0.29752 0.0
H917 H 0.42235 0.38962 0.26524 0.0
C918 C 0.66663 0.67346 0.639 0.0
C919 C 0.67796 0.65513 0.63242 0.0
C920 C 0.65296 0.67425 0.65847 0.0
C921 C 0.64284 0.64781 0.71208 0.0
H922 H 0.58216 0.67665 0.71071 0.0
C923 C 0.57336 0.64273 0.78347 0.0
C924 C 0.56015 0.66051 0.78869 0.0
C925 C 0.58875 0.64238 0.76511 0.0
C926 C 0.59921 0.66878 0.71151 0.0
H927 H 0.68411 0.62333 0.64145 0.0
H928 H 0.66 0.62465 0.67528 0.0
H929 H 0.60683 0.67538 0.67738 0.0
H930 H 0.55357 0.69212 0.7791 0.0
H931 H 0.58063 0.69159 0.7474 0.0
H932 H 0.63517 0.64121 0.74624 0.0
C933 C 0.66182 0.63846 0.66544 0.0
C934 C 0.61335 0.66803 0.69236 0.0
C935 C 0.67543 0.63764 0.64591 0.0
C936 C 0.56329 0.67811 0.77549 0.0
C937 C 0.57871 0.67776 0.75719 0.0
C938 C 0.62869 0.64861 0.73128 0.0
C939 C 0.65031 0.65675 0.6719 0.0
C940 C 0.63535 0.65755 0.69238 0.0
C941 C 0.59138 0.6598 0.75155 0.0
C942 C 0.60669 0.65911 0.73125 0.0
H943 H 0.66799 0.68715 0.62891 0.0
H944 H 0.64455 0.68865 0.66306 0.0
H945 H 0.65982 0.63983 0.71275 0.0
H946 H 0.5714 0.62889 0.79324 0.0
H947 H 0.59805 0.62822 0.76117 0.0
C948 C 0.65799 0.36037 0.13483 0.0
C949 C 0.66595 0.38046 0.1304 0.0
C950 C 0.64729 0.35566 0.15529 0.0
C951 C 0.6132 0.38106 0.19945 0.0
H952 H 0.62537 0.33225 0.23449 0.0
C953 C 0.57003 0.37249 0.28481 0.0
C954 C 0.5605 0.35328 0.29054 0.0
C955 C 0.58516 0.37448 0.26652 0.0
C956 C 0.62159 0.34585 0.22478 0.0
H957 H 0.67047 0.41092 0.14463 0.0
H958 H 0.65165 0.40278 0.18003 0.0
H959 H 0.64773 0.33793 0.19996 0.0
H960 H 0.56018 0.32086 0.28218 0.0
H961 H 0.58624 0.32439 0.24964 0.0
H962 H 0.58679 0.3889 0.22359 0.0
C963 C 0.65326 0.39077 0.16757 0.0
C964 C 0.63444 0.3491 0.20504 0.0
C965 C 0.664 0.39543 0.14726 0.0
C966 C 0.56733 0.33586 0.27816 0.0
C967 C 0.58228 0.3379 0.25955 0.0
C968 C 0.6003 0.37775 0.21895 0.0
C969 C 0.64428 0.37097 0.17164 0.0
C970 C 0.63055 0.3669 0.19233 0.0
C971 C 0.59086 0.35737 0.25316 0.0
C972 C 0.6045 0.36027 0.23208 0.0
H973 H 0.65911 0.3485 0.12218 0.0
H974 H 0.64046 0.34029 0.15793 0.0
H975 H 0.60936 0.39467 0.18975 0.0
H976 H 0.56541 0.38614 0.29426 0.0
H977 H 0.59201 0.3896 0.26259 0.0
C978 C 0.33509 0.67066 0.65064 0.0
C979 C 0.33947 0.65508 0.6348 0.0
C980 C 0.34849 0.67176 0.67034 0.0
C981 C 0.3858 0.64044 0.70778 0.0
H982 H 0.41285 0.69253 0.72684 0.0
C983 C 0.46072 0.64469 0.77329 0.0
C984 C 0.46132 0.66124 0.78843 0.0
C985 C 0.44423 0.64429 0.7558 0.0
C986 C 0.40511 0.67791 0.722 0.0
H987 H 0.36179 0.62863 0.62735 0.0
H988 H 0.38471 0.63035 0.66183 0.0
H989 H 0.38701 0.69117 0.69401 0.0
H990 H 0.44462 0.69025 0.79717 0.0
H991 H 0.41545 0.68938 0.76674 0.0
H992 H 0.40372 0.62712 0.73569 0.0
C993 C 0.37074 0.6416 0.65906 0.0
C994 C 0.39035 0.67714 0.70313 0.0
C995 C 0.35752 0.64059 0.63929 0.0
C996 C 0.44473 0.67731 0.78576 0.0
C997 C 0.42809 0.67686 0.76824 0.0
C998 C 0.40038 0.64123 0.72671 0.0
C999 C 0.36643 0.65721 0.67479 0.0
C1000 C 0.38085 0.65834 0.69562 0.0
C1001 C 0.4277 0.66035 0.75298 0.0
C1002 C 0.41059 0.65991 0.73387 0.0
H1003 H 0.32111 0.6819 0.64796 0.0
H1004 H 0.34459 0.68385 0.68225 0.0
H1005 H 0.37839 0.62578 0.70264 0.0
H1006 H 0.47325 0.63207 0.7747 0.0
H1007 H 0.44484 0.63152 0.74418 0.0
C1008 C 0.86667 0.86548 0.13226 0.0
C1009 C 0.85312 0.88343 0.12897 0.0
C1010 C 0.87732 0.8615 0.15292 0.0
C1011 C 0.89886 0.88865 0.20307 0.0
H1012 H 0.90329 0.83399 0.22816 0.0
C1013 C 0.94453 0.87513 0.28784 0.0
C1014 C 0.95999 0.85813 0.28929 0.0
C1015 C 0.92909 0.87732 0.26963 0.0
C1016 C 0.90237 0.84933 0.2213 0.0
H1017 H 0.83907 0.91068 0.14525 0.0
H1018 H 0.85761 0.90374 0.18122 0.0
H1019 H 0.8807 0.83934 0.19379 0.0
H1020 H 0.97067 0.82974 0.27301 0.0
H1021 H 0.94407 0.83375 0.24116 0.0
H1022 H 0.92087 0.89864 0.23018 0.0
C1023 C 0.86042 0.89295 0.1677 0.0
C1024 C 0.8894 0.85239 0.2016 0.0
C1025 C 0.84978 0.89691 0.14707 0.0
C1026 C 0.95901 0.84303 0.27247 0.0
C1027 C 0.94364 0.84527 0.25421 0.0
C1028 C 0.91186 0.88559 0.22269 0.0
C1029 C 0.87466 0.87537 0.17079 0.0
C1030 C 0.88758 0.87208 0.1922 0.0
C1031 C 0.92877 0.86262 0.25236 0.0
C1032 C 0.91391 0.86588 0.23202 0.0
H1033 H 0.86983 0.85488 0.11862 0.0
H1034 H 0.88836 0.84792 0.15465 0.0
H1035 H 0.89821 0.90396 0.19609 0.0
H1036 H 0.94463 0.88696 0.30057 0.0
H1037 H 0.91756 0.89067 0.26899 0.0
C1038 C 0.18339 0.14425 0.651 0.0
C1039 C 0.17655 0.15593 0.63242 0.0
C1040 C 0.16995 0.14495 0.67065 0.0
C1041 C 0.10965 0.16001 0.69151 0.0
H1042 H 0.13993 0.15652 0.74956 0.0
C1043 C 0.05848 0.17735 0.77241 0.0
C1044 C 0.06031 0.16263 0.78941 0.0
C1045 C 0.07368 0.17659 0.75399 0.0
C1046 C 0.13125 0.15738 0.73344 0.0
H1047 H 0.15087 0.1781 0.62013 0.0
H1048 H 0.12788 0.17983 0.65444 0.0
H1049 H 0.16452 0.15527 0.71595 0.0
H1050 H 0.08027 0.13604 0.80074 0.0
H1051 H 0.10713 0.13497 0.76859 0.0
H1052 H 0.07648 0.16258 0.70905 0.0
C1053 C 0.1431 0.16956 0.65373 0.0
C1054 C 0.1453 0.15659 0.71416 0.0
C1055 C 0.15635 0.16866 0.63406 0.0
C1056 C 0.07833 0.14757 0.78791 0.0
C1057 C 0.09376 0.14699 0.76956 0.0
C1058 C 0.0957 0.16106 0.71075 0.0
C1059 C 0.14951 0.15753 0.67224 0.0
C1060 C 0.13469 0.158 0.69291 0.0
C1061 C 0.09128 0.16127 0.75222 0.0
C1062 C 0.10633 0.15985 0.73191 0.0
H1063 H 0.19878 0.13416 0.65014 0.0
H1064 H 0.17531 0.13527 0.68441 0.0
H1065 H 0.10071 0.16061 0.67551 0.0
H1066 H 0.04486 0.18917 0.77299 0.0
H1067 H 0.07155 0.18795 0.741 0.0
C1068 C 0.15859 0.86147 0.13391 0.0
C1069 C 0.16702 0.88145 0.12958 0.0
C1070 C 0.14763 0.8569 0.15428 0.0
C1071 C 0.11326 0.88264 0.19781 0.0
H1072 H 0.1246 0.83408 0.2335 0.0
C1073 C 0.06826 0.87465 0.28252 0.0
C1074 C 0.05906 0.85538 0.28851 0.0
C1075 C 0.08354 0.87659 0.26434 0.0
C1076 C 0.12103 0.8476 0.22359 0.0
H1077 H 0.17212 0.91179 0.14395 0.0
H1078 H 0.15276 0.9039 0.17916 0.0
H1079 H 0.14761 0.83943 0.19929 0.0
H1080 H 0.0594 0.82286 0.28067 0.0
H1081 H 0.08564 0.82629 0.24827 0.0
H1082 H 0.08635 0.8907 0.22138 0.0
C1083 C 0.15425 0.89188 0.16669 0.0
C1084 C 0.13426 0.85067 0.20405 0.0
C1085 C 0.16529 0.89641 0.14648 0.0
C1086 C 0.06626 0.83791 0.27643 0.0
C1087 C 0.08135 0.83989 0.25791 0.0
C1088 C 0.09993 0.8795 0.2171 0.0
C1089 C 0.1448 0.87223 0.17063 0.0
C1090 C 0.13068 0.86838 0.19113 0.0
C1091 C 0.08972 0.85936 0.25133 0.0
C1092 C 0.10381 0.8621 0.23046 0.0
H1093 H 0.15951 0.84962 0.12123 0.0
H1094 H 0.14043 0.84164 0.15685 0.0
H1095 H 0.10969 0.89619 0.18793 0.0
H1096 H 0.06335 0.88835 0.29176 0.0
H1097 H 0.09022 0.89173 0.26028 0.0
C1098 C 0.83696 0.17054 0.6494 0.0
C1099 C 0.84163 0.15516 0.63341 0.0
C1100 C 0.85032 0.17166 0.66912 0.0
C1101 C 0.88816 0.14046 0.70625 0.0
H1102 H 0.91374 0.19279 0.72628 0.0
C1103 C 0.96208 0.14538 0.77279 0.0
C1104 C 0.96197 0.16178 0.78813 0.0
C1105 C 0.9459 0.14484 0.75505 0.0
C1106 C 0.90642 0.1781 0.72117 0.0
H1107 H 0.86447 0.12911 0.62569 0.0
H1108 H 0.88735 0.13085 0.66019 0.0
H1109 H 0.88824 0.19138 0.69323 0.0
H1110 H 0.94433 0.19034 0.79698 0.0
H1111 H 0.9157 0.18922 0.76614 0.0
H1112 H 0.90615 0.12712 0.73412 0.0
C1113 C 0.87317 0.14192 0.65753 0.0
C1114 C 0.89185 0.17729 0.70217 0.0
C1115 C 0.85997 0.1409 0.63775 0.0
C1116 C 0.94499 0.17753 0.78542 0.0
C1117 C 0.92866 0.17693 0.76766 0.0
C1118 C 0.90255 0.14127 0.7253 0.0
C1119 C 0.86853 0.15732 0.67344 0.0
C1120 C 0.88285 0.15842 0.69432 0.0
C1121 C 0.92898 0.1606 0.75219 0.0
C1122 C 0.9122 0.16005 0.73283 0.0
H1123 H 0.82276 0.1816 0.64683 0.0
H1124 H 0.84616 0.18357 0.68116 0.0
H1125 H 0.88114 0.12574 0.70086 0.0
H1126 H 0.97495 0.13301 0.77424 0.0
H1127 H 0.94704 0.13222 0.74329 0.0
loop_
_geom_bond_atom_site_label_1
_geom_bond_atom_site_label_2
_geom_bond_distance
_geom_bond_site_symmetry_2
_ccdc_geom_bond_type
C0 C1 1.264 . S
C0 C5 1.479 . S
C0 C10 1.465 . S
C1 C0 1.264 . S
C1 C3 1.339 . S
C1 H28 0.879 1_556 S
C2 C3 1.395 . S
C2 C4 1.320 . S
C3 C1 1.339 . S
C3 C2 1.395 . S
C3 H29 0.929 . S
C4 C2 1.320 . S
C4 C5 1.405 . S
C4 H30 0.930 . S
C5 C0 1.479 . S
C5 C4 1.405 . S
C5 H31 0.931 . S
U6 O7 2.454 1_554 S
U6 O8 2.458 . S
U6 C9 2.984 1_554 S
U6 C10 2.847 1_554 S
U6 C23 2.882 . S
U6 O24 2.441 1_554 S
U6 O25 2.420 . S
U6 O26 2.455 . S
U6 O27 2.449 . S
O7 U6 2.454 1_556 S
O7 C9 1.353 . S
O8 U6 2.458 . S
O8 C9 1.286 1_554 S
C9 U6 2.984 1_556 S
C9 O7 1.353 . S
C9 O8 1.286 1_556 S
C9 C11 1.363 . S
C10 C0 1.465 . S
C10 U6 2.847 1_556 S
C10 O24 1.249 . S
C10 O25 1.202 1_556 S
C11 C9 1.363 . S
C11 C13 1.408 . S
C11 C16 1.342 . S
C12 C13 1.310 . S
C12 C15 1.461 . S
C12 H32 0.932 . S
C13 C11 1.408 . S
C13 C12 1.310 . S
C13 H33 0.930 . S
C14 C15 1.474 . S
C14 C16 1.285 . S
C14 H34 0.929 . S
C15 C12 1.461 . S
C15 C14 1.474 . S
C16 C11 1.342 . S
C16 C14 1.285 . S
C16 H35 0.930 1_556 S
C17 C20 1.424 . S
C17 C22 1.245 . S
C17 C23 1.428 . S
C18 C21 1.260 . S
C18 C22 1.477 . S
C18 H36 0.932 . S
C19 C20 1.384 . S
C19 C21 1.479 . S
C19 H37 0.929 . S
C20 C17 1.424 . S
C20 C19 1.384 . S
C20 H38 0.928 . S
C21 C18 1.260 . S
C21 C19 1.479 . S
C22 C17 1.245 . S
C22 C18 1.477 . S
C22 H39 0.932 . S
C23 U6 2.882 . S
C23 C17 1.428 . S
C23 O26 1.301 . S
C23 O27 1.282 . S
O24 U6 2.441 1_556 S
O24 C10 1.249 . S
O25 U6 2.420 . S
O25 C10 1.202 1_554 S
O26 U6 2.455 . S
O26 C23 1.301 . S
O27 U6 2.449 . S
O27 C23 1.282 . S
H28 C1 0.879 1_554 S
H29 C3 0.929 . S
H30 C4 0.930 . S
H31 C5 0.931 . S
H32 C12 0.932 . S
H33 C13 0.930 . S
H34 C14 0.929 . S
H35 C16 0.930 1_554 S
H36 C18 0.932 . S
H37 C19 0.929 . S
H38 C20 0.928 . S
H39 C22 0.932 . S
C40 C41 1.264 . S
C40 C45 1.479 . S
C40 C50 1.465 . S
C41 C40 1.264 . S
C41 C43 1.339 . S
C41 H68 0.931 . S
C42 C43 1.395 . S
C42 C44 1.320 . S
C43 C41 1.339 . S
C43 C42 1.395 . S
C43 H69 0.929 . S
C44 C42 1.320 . S
C44 C45 1.405 . S
C44 H70 0.930 . S
C45 C40 1.479 . S
C45 C44 1.405 . S
C45 H71 0.931 . S
U46 O47 2.454 . S
U46 O48 2.458 . S
U46 C49 2.984 . S
U46 C50 2.847 . S
U46 C63 2.882 . S
U46 O64 2.441 . S
U46 O65 2.420 . S
U46 O66 2.455 . S
U46 O67 2.449 . S
O47 U46 2.454 . S
O47 C49 1.353 . S
O48 U46 2.458 . S
O48 C49 1.286 . S
C49 U46 2.984 . S
C49 O47 1.353 . S
C49 O48 1.286 . S
C49 C51 1.363 . S
C50 C40 1.465 . S
C50 U46 2.847 . S
C50 O64 1.249 . S
C50 O65 1.202 . S
C51 C49 1.363 . S
C51 C53 1.408 . S
C51 C56 1.342 . S
C52 C53 1.310 . S
C52 C55 1.461 . S
C52 H72 0.932 . S
C53 C51 1.408 . S
C53 C52 1.310 . S
C53 H73 0.930 . S
C54 C55 1.474 . S
C54 C56 1.285 . S
C54 H74 0.929 . S
C55 C52 1.461 . S
C55 C54 1.474 . S
C56 C51 1.342 . S
C56 C54 1.285 . S
C56 H75 0.930 . S
C57 C60 1.424 . S
C57 C62 1.245 . S
C57 C63 1.428 . S
C58 C61 1.260 . S
C58 C62 1.477 . S
C58 H76 0.932 . S
C59 C60 1.384 . S
C59 C61 1.479 . S
C59 H77 0.929 . S
C60 C57 1.424 . S
C60 C59 1.384 . S
C60 H78 0.928 . S
C61 C58 1.260 . S
C61 C59 1.479 . S
C62 C57 1.245 . S
C62 C58 1.477 . S
C62 H79 0.932 . S
C63 U46 2.882 . S
C63 C57 1.428 . S
C63 O66 1.301 . S
C63 O67 1.282 . S
O64 U46 2.441 . S
O64 C50 1.249 . S
O65 U46 2.420 . S
O65 C50 1.202 . S
O66 U46 2.455 . S
O66 C63 1.301 . S
O67 U46 2.449 . S
O67 C63 1.282 . S
H68 C41 0.931 . S
H69 C43 0.929 . S
H70 C44 0.930 . S
H71 C45 0.931 . S
H72 C52 0.932 . S
H73 C53 0.930 . S
H74 C54 0.929 . S
H75 C56 0.930 . S
H76 C58 0.932 . S
H77 C59 0.929 . S
H78 C60 0.928 . S
H79 C62 0.932 . S
C80 C81 1.264 . S
C80 C85 1.479 . S
C80 C90 1.465 . S
C81 C80 1.264 . S
C81 C83 1.339 . S
C81 H108 0.931 . S
C82 C83 1.395 . S
C82 C84 1.320 . S
C83 C81 1.339 . S
C83 C82 1.395 . S
C83 H109 0.929 . S
C84 C82 1.320 . S
C84 C85 1.405 . S
C84 H110 0.930 . S
C85 C80 1.479 . S
C85 C84 1.405 . S
C85 H111 0.931 . S
U86 O87 2.454 1_554 S
U86 O88 2.458 . S
U86 C89 2.984 1_554 S
U86 C90 2.847 1_554 S
U86 C103 2.882 . S
U86 O104 2.441 1_554 S
U86 O105 2.420 1_554 S
U86 O106 2.455 . S
U86 O107 2.449 . S
O87 U86 2.454 1_556 S
O87 C89 1.353 . S
O88 U86 2.458 . S
O88 C89 1.286 1_554 S
C89 U86 2.984 1_556 S
C89 O87 1.353 . S
C89 O88 1.286 1_556 S
C89 C91 1.363 . S
C90 C80 1.465 . S
C90 U86 2.847 1_556 S
C90 O104 1.249 . S
C90 O105 1.202 . S
C91 C89 1.363 . S
C91 C93 1.408 . S
C91 C96 1.342 . S
C92 C93 1.310 . S
C92 C95 1.461 . S
C92 H112 0.932 . S
C93 C91 1.408 . S
C93 C92 1.310 . S
C93 H113 0.930 . S
C94 C95 1.474 . S
C94 C96 1.285 . S
C94 H114 0.929 . S
C95 C92 1.461 . S
C95 C94 1.474 . S
C96 C91 1.342 . S
C96 C94 1.285 . S
C96 H115 0.930 1_556 S
C97 C100 1.424 . S
C97 C102 1.245 . S
C97 C103 1.428 . S
C98 C101 1.260 . S
C98 C102 1.477 . S
C98 H116 0.932 . S
C99 C100 1.384 . S
C99 C101 1.479 . S
C99 H117 0.929 . S
C100 C97 1.424 . S
C100 C99 1.384 . S
C100 H118 0.928 . S
C101 C98 1.260 . S
C101 C99 1.479 . S
C102 C97 1.245 . S
C102 C98 1.477 . S
C102 H119 0.932 . S
C103 U86 2.882 . S
C103 C97 1.428 . S
C103 O106 1.301 . S
C103 O107 1.282 . S
O104 U86 2.441 1_556 S
O104 C90 1.249 . S
O105 U86 2.420 1_556 S
O105 C90 1.202 . S
O106 U86 2.455 . S
O106 C103 1.301 . S
O107 U86 2.449 . S
O107 C103 1.282 . S
H108 C81 0.931 . S
H109 C83 0.929 . S
H110 C84 0.930 . S
H111 C85 0.931 . S
H112 C92 0.932 . S
H113 C93 0.930 . S
H114 C94 0.929 . S
H115 C96 0.930 1_554 S
H116 C98 0.932 . S
H117 C99 0.929 . S
H118 C100 0.928 . S
H119 C102 0.932 . S
C120 C121 1.264 . S
C120 C125 1.479 . S
C120 C130 1.465 . S
C121 C120 1.264 . S
C121 C123 1.339 . S
C121 H148 0.931 . S
C122 C123 1.395 . S
C122 C124 1.320 . S
C123 C121 1.339 . S
C123 C122 1.395 . S
C123 H149 0.929 . S
C124 C122 1.320 . S
C124 C125 1.405 . S
C124 H150 0.930 . S
C125 C120 1.479 . S
C125 C124 1.405 . S
C125 H151 0.931 . S
U126 O127 2.454 . S
U126 O128 2.458 . S
U126 C129 2.984 . S
U126 C130 2.847 . S
U126 C143 2.882 . S
U126 O144 2.441 . S
U126 O145 2.420 . S
U126 O146 2.455 . S
U126 O147 2.449 . S
O127 U126 2.454 . S
O127 C129 1.353 . S
O128 U126 2.458 . S
O128 C129 1.286 . S
C129 U126 2.984 . S
C129 O127 1.353 . S
C129 O128 1.286 . S
C129 C131 1.363 . S
C130 C120 1.465 . S
C130 U126 2.847 . S
C130 O144 1.249 . S
C130 O145 1.202 . S
C131 C129 1.363 . S
C131 C133 1.408 . S
C131 C136 1.342 . S
C132 C133 1.310 . S
C132 C135 1.461 . S
C132 H152 0.932 . S
C133 C131 1.408 . S
C133 C132 1.310 . S
C133 H153 0.930 . S
C134 C135 1.474 . S
C134 C136 1.285 . S
C134 H154 0.929 . S
C135 C132 1.461 . S
C135 C134 1.474 . S
C136 C131 1.342 . S
C136 C134 1.285 . S
C136 H155 0.930 . S
C137 C140 1.424 . S
C137 C142 1.245 . S
C137 C143 1.428 . S
C138 C141 1.260 . S
C138 C142 1.477 . S
C138 H156 0.932 . S
C139 C140 1.384 . S
C139 C141 1.479 . S
C139 H157 0.929 . S
C140 C137 1.424 . S
C140 C139 1.384 . S
C140 H158 0.928 . S
C141 C138 1.260 . S
C141 C139 1.479 . S
C142 C137 1.245 . S
C142 C138 1.477 . S
C142 H159 0.932 . S
C143 U126 2.882 . S
C143 C137 1.428 . S
C143 O146 1.301 . S
C143 O147 1.282 . S
O144 U126 2.441 . S
O144 C130 1.249 . S
O145 U126 2.420 . S
O145 C130 1.202 . S
O146 U126 2.455 . S
O146 C143 1.301 . S
O147 U126 2.449 . S
O147 C143 1.282 . S
H148 C121 0.931 . S
H149 C123 0.929 . S
H150 C124 0.930 . S
H151 C125 0.931 . S
H152 C132 0.932 . S
H153 C133 0.930 . S
H154 C134 0.929 . S
H155 C136 0.930 . S
H156 C138 0.932 . S
H157 C139 0.929 . S
H158 C140 0.928 . S
H159 C142 0.932 . S
C160 C161 1.264 . S
C160 C165 1.479 . S
C160 C170 1.465 . S
C161 C160 1.264 . S
C161 C163 1.339 . S
C161 H188 0.880 1_556 S
C162 C163 1.395 . S
C162 C164 1.320 . S
C163 C161 1.339 . S
C163 C162 1.395 . S
C163 H189 0.929 . S
C164 C162 1.320 . S
C164 C165 1.405 . S
C164 H190 0.930 . S
C165 C160 1.479 . S
C165 C164 1.405 . S
C165 H191 0.931 . S
U166 O167 2.454 1_554 S
U166 O168 2.458 . S
U166 C169 2.984 1_554 S
U166 C170 2.847 1_554 S
U166 C183 2.882 . S
U166 O184 2.441 1_554 S
U166 O185 2.420 . S
U166 O186 2.455 . S
U166 O187 2.449 . S
O167 U166 2.454 1_556 S
O167 C169 1.353 . S
O168 U166 2.458 . S
O168 C169 1.286 1_554 S
C169 U166 2.984 1_556 S
C169 O167 1.353 . S
C169 O168 1.286 1_556 S
C169 C171 1.363 . S
C170 C160 1.465 . S
C170 U166 2.847 1_556 S
C170 O184 1.249 . S
C170 O185 1.202 1_556 S
C171 C169 1.363 . S
C171 C173 1.408 . S
C171 C176 1.342 . S
C172 C173 1.310 . S
C172 C175 1.461 . S
C172 H192 0.932 . S
C173 C171 1.408 . S
C173 C172 1.310 . S
C173 H193 0.930 . S
C174 C175 1.474 . S
C174 C176 1.285 . S
C174 H194 0.929 . S
C175 C172 1.461 . S
C175 C174 1.474 . S
C176 C171 1.342 . S
C176 C174 1.285 . S
C176 H195 0.930 1_556 S
C177 C180 1.424 . S
C177 C182 1.245 . S
C177 C183 1.428 . S
C178 C181 1.260 . S
C178 C182 1.477 . S
C178 H196 0.932 . S
C179 C180 1.384 . S
C179 C181 1.479 . S
C179 H197 0.929 . S
C180 C177 1.424 . S
C180 C179 1.384 . S
C180 H198 0.928 . S
C181 C178 1.260 . S
C181 C179 1.479 . S
C182 C177 1.245 . S
C182 C178 1.477 . S
C182 H199 0.932 . S
C183 U166 2.882 . S
C183 C177 1.428 . S
C183 O186 1.301 . S
C183 O187 1.282 . S
O184 U166 2.441 1_556 S
O184 C170 1.249 . S
O185 U166 2.420 . S
O185 C170 1.202 1_554 S
O186 U166 2.455 . S
O186 C183 1.301 . S
O187 U166 2.449 . S
O187 C183 1.282 . S
H188 C161 0.880 1_554 S
H189 C163 0.929 . S
H190 C164 0.930 . S
H191 C165 0.931 . S
H192 C172 0.932 . S
H193 C173 0.930 . S
H194 C174 0.929 . S
H195 C176 0.930 1_554 S
H196 C178 0.932 . S
H197 C179 0.929 . S
H198 C180 0.928 . S
H199 C182 0.932 . S
C200 C201 1.264 . S
C200 C205 1.479 . S
C200 C210 1.465 . S
C201 C200 1.264 . S
C201 C203 1.339 . S
C201 H228 0.931 . S
C202 C203 1.395 . S
C202 C204 1.320 . S
C203 C201 1.339 . S
C203 C202 1.395 . S
C203 H229 0.929 . S
C204 C202 1.320 . S
C204 C205 1.405 . S
C204 H230 0.930 . S
C205 C200 1.479 . S
C205 C204 1.405 . S
C205 H231 0.931 . S
U206 O207 2.454 . S
U206 O208 2.458 . S
U206 C209 2.984 . S
U206 C210 2.847 . S
U206 C223 2.882 . S
U206 O224 2.441 . S
U206 O225 2.420 . S
U206 O226 2.455 . S
U206 O227 2.449 . S
O207 U206 2.454 . S
O207 C209 1.353 . S
O208 U206 2.458 . S
O208 C209 1.286 . S
C209 U206 2.984 . S
C209 O207 1.353 . S
C209 O208 1.286 . S
C209 C211 1.363 . S
C210 C200 1.465 . S
C210 U206 2.847 . S
C210 O224 1.249 . S
C210 O225 1.202 . S
C211 C209 1.363 . S
C211 C213 1.408 . S
C211 C216 1.342 . S
C212 C213 1.310 . S
C212 C215 1.461 . S
C212 H232 0.932 . S
C213 C211 1.408 . S
C213 C212 1.310 . S
C213 H233 0.930 . S
C214 C215 1.474 . S
C214 C216 1.285 . S
C214 H234 0.929 . S
C215 C212 1.461 . S
C215 C214 1.474 . S
C216 C211 1.342 . S
C216 C214 1.285 . S
C216 H235 0.930 . S
C217 C220 1.424 . S
C217 C222 1.245 . S
C217 C223 1.428 . S
C218 C221 1.260 . S
C218 C222 1.477 . S
C218 H236 0.932 . S
C219 C220 1.384 . S
C219 C221 1.479 . S
C219 H237 0.929 . S
C220 C217 1.424 . S
C220 C219 1.384 . S
C220 H238 0.928 . S
C221 C218 1.260 . S
C221 C219 1.479 . S
C222 C217 1.245 . S
C222 C218 1.477 . S
C222 H239 0.932 . S
C223 U206 2.882 . S
C223 C217 1.428 . S
C223 O226 1.301 . S
C223 O227 1.282 . S
O224 U206 2.441 . S
O224 C210 1.249 . S
O225 U206 2.420 . S
O225 C210 1.202 . S
O226 U206 2.455 . S
O226 C223 1.301 . S
O227 U206 2.449 . S
O227 C223 1.282 . S
H228 C201 0.931 . S
H229 C203 0.929 . S
H230 C204 0.930 . S
H231 C205 0.931 . S
H232 C212 0.932 . S
H233 C213 0.930 . S
H234 C214 0.929 . S
H235 C216 0.930 . S
H236 C218 0.932 . S
H237 C219 0.929 . S
H238 C220 0.928 . S
H239 C222 0.932 . S
C240 C241 1.264 . S
C240 C245 1.479 . S
C240 C250 1.465 . S
C241 C240 1.264 . S
C241 C243 1.339 . S
C241 H268 0.931 . S
C242 C243 1.395 . S
C242 C244 1.320 . S
C243 C241 1.339 . S
C243 C242 1.395 . S
C243 H269 0.929 . S
C244 C242 1.320 . S
C244 C245 1.405 . S
C244 H270 0.930 . S
C245 C240 1.479 . S
C245 C244 1.405 . S
C245 H271 0.931 . S
U246 O247 2.454 1_554 S
U246 O248 2.458 . S
U246 C249 2.984 1_554 S
U246 C250 2.847 1_554 S
U246 C263 2.882 . S
U246 O264 2.441 1_554 S
U246 O265 2.420 1_554 S
U246 O266 2.455 . S
U246 O267 2.449 . S
O247 U246 2.454 1_556 S
O247 C249 1.353 . S
O248 U246 2.458 . S
O248 C249 1.286 1_554 S
C249 U246 2.984 1_556 S
C249 O247 1.353 . S
C249 O248 1.286 1_556 S
C249 C251 1.363 . S
C250 C240 1.465 . S
C250 U246 2.847 1_556 S
C250 O264 1.249 . S
C250 O265 1.202 . S
C251 C249 1.363 . S
C251 C253 1.408 . S
C251 C256 1.342 . S
C252 C253 1.310 . S
C252 C255 1.461 . S
C252 H272 0.932 . S
C253 C251 1.408 . S
C253 C252 1.310 . S
C253 H273 0.930 . S
C254 C255 1.474 . S
C254 C256 1.285 . S
C254 H274 0.929 . S
C255 C252 1.461 . S
C255 C254 1.474 . S
C256 C251 1.342 . S
C256 C254 1.285 . S
C256 H275 0.930 1_556 S
C257 C260 1.424 . S
C257 C262 1.245 . S
C257 C263 1.428 . S
C258 C261 1.260 . S
C258 C262 1.477 . S
C258 H276 0.932 . S
C259 C260 1.384 . S
C259 C261 1.479 . S
C259 H277 0.929 . S
C260 C257 1.424 . S
C260 C259 1.384 . S
C260 H278 0.928 . S
C261 C258 1.260 . S
C261 C259 1.479 . S
C262 C257 1.245 . S
C262 C258 1.477 . S
C262 H279 0.932 . S
C263 U246 2.882 . S
C263 C257 1.428 . S
C263 O266 1.301 . S
C263 O267 1.282 . S
O264 U246 2.441 1_556 S
O264 C250 1.249 . S
O265 U246 2.420 1_556 S
O265 C250 1.202 . S
O266 U246 2.455 . S
O266 C263 1.301 . S
O267 U246 2.449 . S
O267 C263 1.282 . S
H268 C241 0.931 . S
H269 C243 0.929 . S
H270 C244 0.930 . S
H271 C245 0.931 . S
H272 C252 0.932 . S
H273 C253 0.930 . S
H274 C254 0.929 . S
H275 C256 0.930 1_554 S
H276 C258 0.932 . S
H277 C259 0.929 . S
H278 C260 0.928 . S
H279 C262 0.932 . S
C280 C281 1.264 . S
C280 C285 1.479 . S
C280 C290 1.465 . S
C281 C280 1.264 . S
C281 C283 1.339 . S
C281 H308 0.931 . S
C282 C283 1.395 . S
C282 C284 1.320 . S
C283 C281 1.339 . S
C283 C282 1.395 . S
C283 H309 0.929 . S
C284 C282 1.320 . S
C284 C285 1.405 . S
C284 H310 0.930 . S
C285 C280 1.479 . S
C285 C284 1.405 . S
C285 H311 0.931 . S
U286 O287 2.454 . S
U286 O288 2.458 . S
U286 C289 2.984 . S
U286 C290 2.847 . S
U286 C303 2.882 . S
U286 O304 2.441 . S
U286 O305 2.420 . S
U286 O306 2.455 . S
U286 O307 2.449 . S
O287 U286 2.454 . S
O287 C289 1.353 . S
O288 U286 2.458 . S
O288 C289 1.286 . S
C289 U286 2.984 . S
C289 O287 1.353 . S
C289 O288 1.286 . S
C289 C291 1.363 . S
C290 C280 1.465 . S
C290 U286 2.847 . S
C290 O304 1.249 . S
C290 O305 1.202 . S
C291 C289 1.363 . S
C291 C293 1.408 . S
C291 C296 1.342 . S
C292 C293 1.310 . S
C292 C295 1.461 . S
C292 H312 0.932 . S
C293 C291 1.408 . S
C293 C292 1.310 . S
C293 H313 0.930 . S
C294 C295 1.474 . S
C294 C296 1.285 . S
C294 H314 0.929 . S
C295 C292 1.461 . S
C295 C294 1.474 . S
C296 C291 1.342 . S
C296 C294 1.285 . S
C296 H315 0.930 . S
C297 C300 1.424 . S
C297 C302 1.245 . S
C297 C303 1.428 . S
C298 C301 1.260 . S
C298 C302 1.477 . S
C298 H316 0.932 . S
C299 C300 1.384 . S
C299 C301 1.479 . S
C299 H317 0.929 . S
C300 C297 1.424 . S
C300 C299 1.384 . S
C300 H318 0.928 . S
C301 C298 1.260 . S
C301 C299 1.479 . S
C302 C297 1.245 . S
C302 C298 1.477 . S
C302 H319 0.932 . S
C303 U286 2.882 . S
C303 C297 1.428 . S
C303 O306 1.301 . S
C303 O307 1.282 . S
O304 U286 2.441 . S
O304 C290 1.249 . S
O305 U286 2.420 . S
O305 C290 1.202 . S
O306 U286 2.455 . S
O306 C303 1.301 . S
O307 U286 2.449 . S
O307 C303 1.282 . S
H308 C281 0.931 . S
H309 C283 0.929 . S
H310 C284 0.930 . S
H311 C285 0.931 . S
H312 C292 0.932 . S
H313 C293 0.930 . S
H314 C294 0.929 . S
H315 C296 0.930 . S
H316 C298 0.932 . S
H317 C299 0.929 . S
H318 C300 0.928 . S
H319 C302 0.932 . S
Fe320 O322 1.918 . S
Fe320 O325 1.997 1_455 S
Fe320 O326 2.002 1_455 S
Fe320 O331 1.976 . S
Fe320 O334 1.996 . S
Fe321 O322 1.918 . S
Fe321 O329 1.997 1_455 S
Fe321 O332 1.996 . S
Fe321 O336 1.976 . S
Fe321 O339 2.002 1_455 S
O322 Fe320 1.918 . S
O322 Fe321 1.918 . S
O322 Fe323 1.918 . S
Fe323 O322 1.918 . S
Fe323 O324 2.002 1_455 S
Fe323 O333 1.976 . S
Fe323 O337 1.996 . S
Fe323 O340 1.997 1_455 S
O324 Fe323 2.002 1_655 S
O324 C341 1.295 . S
O325 Fe320 1.997 1_655 S
O325 C341 1.235 . S
O326 Fe320 2.002 1_655 S
O326 C327 1.295 . S
C327 O326 1.295 . S
C327 O329 1.235 . S
C328 O333 1.287 . S
C328 O334 1.255 . S
O329 Fe321 1.997 1_655 S
O329 C327 1.235 . S
C330 O336 1.287 . S
C330 O337 1.255 . S
O331 Fe320 1.976 . S
O331 C338 1.287 . S
O332 Fe321 1.996 . S
O332 C338 1.255 . S
O333 Fe323 1.976 . S
O333 C328 1.287 . S
O334 Fe320 1.996 . S
O334 C328 1.255 . S
C335 O339 1.295 . S
C335 O340 1.235 . S
O336 Fe321 1.976 . S
O336 C330 1.287 . S
O337 Fe323 1.996 . S
O337 C330 1.255 . S
C338 O331 1.287 . S
C338 O332 1.255 . S
O339 Fe321 2.002 1_655 S
O339 C335 1.295 . S
O340 Fe323 1.997 1_655 S
O340 C335 1.235 . S
C341 O324 1.295 . S
C341 O325 1.235 . S
Fe342 O344 1.919 . S
Fe342 O347 1.980 1_655 S
Fe342 O348 1.986 1_655 S
Fe342 O353 1.992 . S
Fe342 O356 2.012 . S
Fe343 O344 1.919 . S
Fe343 O351 1.981 1_655 S
Fe343 O354 2.012 . S
Fe343 O358 1.992 . S
Fe343 O361 1.986 1_655 S
O344 Fe342 1.919 . S
O344 Fe343 1.919 . S
O344 Fe345 1.919 . S
Fe345 O344 1.919 . S
Fe345 O346 1.986 1_655 S
Fe345 O355 1.992 . S
Fe345 O359 2.011 . S
Fe345 O362 1.981 1_655 S
O346 Fe345 1.986 1_455 S
O346 C363 1.295 . S
O347 Fe342 1.980 1_455 S
O347 C363 1.235 . S
O348 Fe342 1.986 1_455 S
O348 C349 1.295 . S
C349 O348 1.295 . S
C349 O351 1.235 . S
C350 O355 1.287 . S
C350 O356 1.255 . S
O351 Fe343 1.981 1_455 S
O351 C349 1.235 . S
C352 O358 1.287 . S
C352 O359 1.255 . S
O353 Fe342 1.992 . S
O353 C360 1.287 . S
O354 Fe343 2.012 . S
O354 C360 1.255 . S
O355 Fe345 1.992 . S
O355 C350 1.287 . S
O356 Fe342 2.012 . S
O356 C350 1.255 . S
C357 O361 1.295 . S
C357 O362 1.235 . S
O358 Fe343 1.992 . S
O358 C352 1.287 . S
O359 Fe345 2.011 . S
O359 C352 1.255 . S
C360 O353 1.287 . S
C360 O354 1.255 . S
O361 Fe343 1.986 1_455 S
O361 C357 1.295 . S
O362 Fe345 1.981 1_455 S
O362 C357 1.235 . S
C363 O346 1.295 . S
C363 O347 1.235 . S
Fe364 O366 1.918 . S
Fe364 O369 1.997 . S
Fe364 O370 2.002 . S
Fe364 O375 1.976 . S
Fe364 O378 1.996 . S
Fe365 O366 1.918 . S
Fe365 O373 1.997 . S
Fe365 O376 1.996 . S
Fe365 O380 1.976 . S
Fe365 O383 2.002 . S
O366 Fe364 1.918 . S
O366 Fe365 1.918 . S
O366 Fe367 1.918 . S
Fe367 O366 1.918 . S
Fe367 O368 2.002 . S
Fe367 O377 1.976 . S
Fe367 O381 1.996 . S
Fe367 O384 1.997 . S
O368 Fe367 2.002 . S
O368 C385 1.295 . S
O369 Fe364 1.997 . S
O369 C385 1.235 . S
O370 Fe364 2.002 . S
O370 C371 1.295 . S
C371 O370 1.295 . S
C371 O373 1.235 . S
C372 O377 1.287 . S
C372 O378 1.255 . S
O373 Fe365 1.997 . S
O373 C371 1.235 . S
C374 O380 1.287 . S
C374 O381 1.255 . S
O375 Fe364 1.976 . S
O375 C382 1.287 . S
O376 Fe365 1.996 . S
O376 C382 1.255 . S
O377 Fe367 1.976 . S
O377 C372 1.287 . S
O378 Fe364 1.996 . S
O378 C372 1.255 . S
C379 O383 1.295 . S
C379 O384 1.235 . S
O380 Fe365 1.976 . S
O380 C374 1.287 . S
O381 Fe367 1.996 . S
O381 C374 1.255 . S
C382 O375 1.287 . S
C382 O376 1.255 . S
O383 Fe365 2.002 . S
O383 C379 1.295 . S
O384 Fe367 1.997 . S
O384 C379 1.235 . S
C385 O368 1.295 . S
C385 O369 1.235 . S
Fe386 O388 1.918 . S
Fe386 O391 1.997 . S
Fe386 O392 2.002 . S
Fe386 O397 1.976 . S
Fe386 O400 1.996 . S
Fe387 O388 1.918 . S
Fe387 O395 1.997 . S
Fe387 O398 1.996 . S
Fe387 O402 1.976 . S
Fe387 O405 2.002 . S
O388 Fe386 1.918 . S
O388 Fe387 1.918 . S
O388 Fe389 1.918 . S
Fe389 O388 1.918 . S
Fe389 O390 2.002 . S
Fe389 O399 1.976 . S
Fe389 O403 1.996 . S
Fe389 O406 1.997 . S
O390 Fe389 2.002 . S
O390 C407 1.295 . S
O391 Fe386 1.997 . S
O391 C407 1.235 . S
O392 Fe386 2.002 . S
O392 C393 1.295 . S
C393 O392 1.295 . S
C393 O395 1.235 . S
C394 O399 1.287 . S
C394 O400 1.255 . S
O395 Fe387 1.997 . S
O395 C393 1.235 . S
C396 O402 1.287 . S
C396 O403 1.255 . S
O397 Fe386 1.976 . S
O397 C404 1.287 . S
O398 Fe387 1.996 . S
O398 C404 1.255 . S
O399 Fe389 1.976 . S
O399 C394 1.287 . S
O400 Fe386 1.996 . S
O400 C394 1.255 . S
C401 O405 1.295 . S
C401 O406 1.235 . S
O402 Fe387 1.976 . S
O402 C396 1.287 . S
O403 Fe389 1.996 . S
O403 C396 1.255 . S
C404 O397 1.287 . S
C404 O398 1.255 . S
O405 Fe387 2.002 . S
O405 C401 1.295 . S
O406 Fe389 1.997 . S
O406 C401 1.235 . S
C407 O390 1.295 . S
C407 O391 1.235 . S
C408 C409 1.349 . S
C408 C410 1.327 . S
C408 H433 0.950 . S
C409 C408 1.349 . S
C409 C425 1.349 . S
C410 C408 1.327 . S
C410 C429 1.429 . S
C410 H434 0.950 . S
C411 C428 1.574 . S
C411 C430 1.368 . S
C411 H435 0.949 . S
H412 C416 0.949 . S
C413 C414 1.349 . S
C413 C415 1.327 . S
C413 H436 0.950 . S
C414 C413 1.349 . S
C414 C426 1.349 . S
C415 C413 1.327 . S
C415 C431 1.429 . S
C415 H437 0.950 . S
C416 H412 0.949 . S
C416 C424 1.574 . S
C416 C432 1.368 . S
H417 C425 0.950 . S
H418 C423 0.950 . S
H419 C424 0.949 . S
H420 C426 0.950 . S
H421 C427 0.950 . S
H422 C428 0.949 . S
C423 H418 0.950 . S
C423 C425 1.327 . S
C423 C429 1.429 . S
C424 C416 1.574 . S
C424 H419 0.949 . S
C424 C430 1.368 . S
C425 C409 1.349 . S
C425 H417 0.950 . S
C425 C423 1.327 . S
C426 C414 1.349 . S
C426 H420 0.950 . S
C426 C427 1.327 . S
C427 H421 0.950 . S
C427 C426 1.327 . S
C427 C431 1.429 . S
C428 C411 1.574 . S
C428 H422 0.949 . S
C428 C432 1.368 . S
C429 C410 1.429 . S
C429 C423 1.429 . S
C429 C430 1.523 . S
C430 C411 1.368 . S
C430 C424 1.368 . S
C430 C429 1.523 . S
C431 C415 1.429 . S
C431 C427 1.429 . S
C431 C432 1.523 . S
C432 C416 1.368 . S
C432 C428 1.368 . S
C432 C431 1.523 . S
H433 C408 0.950 . S
H434 C410 0.950 . S
H435 C411 0.949 . S
H436 C413 0.950 . S
H437 C415 0.950 . S
C438 C439 1.349 . S
C438 C440 1.327 . S
C438 H463 0.950 . S
C439 C438 1.349 . S
C439 C455 1.349 . S
C440 C438 1.327 . S
C440 C459 1.429 . S
C440 H464 0.950 . S
C441 C458 1.574 . S
C441 C460 1.368 . S
C441 H465 0.949 . S
H442 C446 0.949 . S
C443 C444 1.349 . S
C443 C445 1.327 . S
C443 H466 0.950 . S
C444 C443 1.349 . S
C444 C456 1.349 . S
C445 C443 1.327 . S
C445 C461 1.429 . S
C445 H467 0.950 . S
C446 H442 0.949 . S
C446 C454 1.574 . S
C446 C462 1.368 . S
H447 C455 0.950 . S
H448 C453 0.950 . S
H449 C454 0.949 . S
H450 C456 0.950 . S
H451 C457 0.950 . S
H452 C458 0.949 . S
C453 H448 0.950 . S
C453 C455 1.327 . S
C453 C459 1.429 . S
C454 C446 1.574 . S
C454 H449 0.949 . S
C454 C460 1.368 . S
C455 C439 1.349 . S
C455 H447 0.950 . S
C455 C453 1.327 . S
C456 C444 1.349 . S
C456 H450 0.950 . S
C456 C457 1.327 . S
C457 H451 0.950 . S
C457 C456 1.327 . S
C457 C461 1.429 . S
C458 C441 1.574 . S
C458 H452 0.949 . S
C458 C462 1.368 . S
C459 C440 1.429 . S
C459 C453 1.429 . S
C459 C460 1.523 . S
C460 C441 1.368 . S
C460 C454 1.368 . S
C460 C459 1.523 . S
C461 C445 1.429 . S
C461 C457 1.429 . S
C461 C462 1.523 . S
C462 C446 1.368 . S
C462 C458 1.368 . S
C462 C461 1.523 . S
H463 C438 0.950 . S
H464 C440 0.950 . S
H465 C441 0.949 . S
H466 C443 0.950 . S
H467 C445 0.950 . S
C468 C469 1.349 . S
C468 C470 1.327 . S
C468 H493 0.950 . S
C469 C468 1.349 . S
C469 C485 1.349 . S
C470 C468 1.327 . S
C470 C489 1.429 . S
C470 H494 0.950 . S
C471 C488 1.574 . S
C471 C490 1.368 . S
C471 H495 0.949 . S
H472 C476 0.949 . S
C473 C474 1.349 . S
C473 C475 1.327 . S
C473 H496 0.950 . S
C474 C473 1.349 . S
C474 C486 1.349 . S
C475 C473 1.327 . S
C475 C491 1.429 . S
C475 H497 0.950 . S
C476 H472 0.949 . S
C476 C484 1.574 . S
C476 C492 1.368 . S
H477 C485 0.950 . S
H478 C483 0.950 . S
H479 C484 0.949 . S
H480 C486 0.950 . S
H481 C487 0.950 . S
H482 C488 0.949 . S
C483 H478 0.950 . S
C483 C485 1.327 . S
C483 C489 1.429 . S
C484 C476 1.574 . S
C484 H479 0.949 . S
C484 C490 1.368 . S
C485 C469 1.349 . S
C485 H477 0.950 . S
C485 C483 1.327 . S
C486 C474 1.349 . S
C486 H480 0.950 . S
C486 C487 1.327 . S
C487 H481 0.950 . S
C487 C486 1.327 . S
C487 C491 1.429 . S
C488 C471 1.574 . S
C488 H482 0.949 . S
C488 C492 1.368 . S
C489 C470 1.429 . S
C489 C483 1.429 . S
C489 C490 1.523 . S
C490 C471 1.368 . S
C490 C484 1.368 . S
C490 C489 1.523 . S
C491 C475 1.429 . S
C491 C487 1.429 . S
C491 C492 1.523 . S
C492 C476 1.368 . S
C492 C488 1.368 . S
C492 C491 1.523 . S
H493 C468 0.950 . S
H494 C470 0.950 . S
H495 C471 0.949 . S
H496 C473 0.950 . S
H497 C475 0.950 . S
C498 C499 1.349 . S
C498 C500 1.327 . S
C498 H523 0.950 . S
C499 C498 1.349 . S
C499 C515 1.349 . S
C500 C498 1.327 . S
C500 C519 1.429 . S
C500 H524 0.950 . S
C501 C518 1.574 . S
C501 C520 1.368 . S
C501 H525 0.949 . S
H502 C506 0.949 . S
C503 C504 1.349 . S
C503 C505 1.327 . S
C503 H526 0.950 . S
C504 C503 1.349 . S
C504 C516 1.349 . S
C505 C503 1.327 . S
C505 C521 1.429 . S
C505 H527 0.950 . S
C506 H502 0.949 . S
C506 C514 1.574 . S
C506 C522 1.368 . S
H507 C515 0.950 . S
H508 C513 0.950 . S
H509 C514 0.949 . S
H510 C516 0.950 . S
H511 C517 0.950 . S
H512 C518 0.949 . S
C513 H508 0.950 . S
C513 C515 1.327 . S
C513 C519 1.429 . S
C514 C506 1.574 . S
C514 H509 0.949 . S
C514 C520 1.368 . S
C515 C499 1.349 . S
C515 H507 0.950 . S
C515 C513 1.327 . S
C516 C504 1.349 . S
C516 H510 0.950 . S
C516 C517 1.327 . S
C517 H511 0.950 . S
C517 C516 1.327 . S
C517 C521 1.429 . S
C518 C501 1.574 . S
C518 H512 0.949 . S
C518 C522 1.368 . S
C519 C500 1.429 . S
C519 C513 1.429 . S
C519 C520 1.523 . S
C520 C501 1.368 . S
C520 C514 1.368 . S
C520 C519 1.523 . S
C521 C505 1.429 . S
C521 C517 1.429 . S
C521 C522 1.523 . S
C522 C506 1.368 . S
C522 C518 1.368 . S
C522 C521 1.523 . S
H523 C498 0.950 . S
H524 C500 0.950 . S
H525 C501 0.949 . S
H526 C503 0.950 . S
H527 C505 0.950 . S
C528 C529 1.349 . S
C528 C530 1.327 . S
C528 H553 0.950 . S
C529 C528 1.349 . S
C529 C545 1.349 . S
C530 C528 1.327 . S
C530 C549 1.429 . S
C530 H554 0.950 . S
C531 C548 1.574 . S
C531 C550 1.368 . S
C531 H555 0.949 . S
H532 C536 0.949 . S
C533 C534 1.349 . S
C533 C535 1.327 . S
C533 H556 0.950 . S
C534 C533 1.349 . S
C534 C546 1.349 . S
C535 C533 1.327 . S
C535 C551 1.429 . S
C535 H557 0.950 . S
C536 H532 0.949 . S
C536 C544 1.574 . S
C536 C552 1.368 . S
H537 C545 0.950 . S
H538 C543 0.950 . S
H539 C544 0.949 . S
H540 C546 0.950 . S
H541 C547 0.950 . S
H542 C548 0.949 . S
C543 H538 0.950 . S
C543 C545 1.327 . S
C543 C549 1.429 . S
C544 C536 1.574 . S
C544 H539 0.949 . S
C544 C550 1.368 . S
C545 C529 1.349 . S
C545 H537 0.950 . S
C545 C543 1.327 . S
C546 C534 1.349 . S
C546 H540 0.950 . S
C546 C547 1.327 . S
C547 H541 0.950 . S
C547 C546 1.327 . S
C547 C551 1.429 . S
C548 C531 1.574 . S
C548 H542 0.949 . S
C548 C552 1.368 . S
C549 C530 1.429 . S
C549 C543 1.429 . S
C549 C550 1.523 . S
C550 C531 1.368 . S
C550 C544 1.368 . S
C550 C549 1.523 . S
C551 C535 1.429 . S
C551 C547 1.429 . S
C551 C552 1.523 . S
C552 C536 1.368 . S
C552 C548 1.368 . S
C552 C551 1.523 . S
H553 C528 0.950 . S
H554 C530 0.950 . S
H555 C531 0.949 . S
H556 C533 0.950 . S
H557 C535 0.950 . S
C558 C559 1.349 . S
C558 C560 1.327 . S
C558 H583 0.950 . S
C559 C558 1.349 . S
C559 C575 1.349 . S
C560 C558 1.327 . S
C560 C579 1.429 . S
C560 H584 0.950 . S
C561 C578 1.574 . S
C561 C580 1.368 . S
C561 H585 0.949 . S
H562 C566 0.949 . S
C563 C564 1.349 . S
C563 C565 1.327 . S
C563 H586 0.950 . S
C564 C563 1.349 . S
C564 C576 1.349 . S
C565 C563 1.327 . S
C565 C581 1.429 . S
C565 H587 0.950 . S
C566 H562 0.949 . S
C566 C574 1.574 . S
C566 C582 1.368 . S
H567 C575 0.950 . S
H568 C573 0.950 . S
H569 C574 0.949 . S
H570 C576 0.950 . S
H571 C577 0.950 . S
H572 C578 0.949 . S
C573 H568 0.950 . S
C573 C575 1.327 . S
C573 C579 1.429 . S
C574 C566 1.574 . S
C574 H569 0.949 . S
C574 C580 1.368 . S
C575 C559 1.349 . S
C575 H567 0.950 . S
C575 C573 1.327 . S
C576 C564 1.349 . S
C576 H570 0.950 . S
C576 C577 1.327 . S
C577 H571 0.950 . S
C577 C576 1.327 . S
C577 C581 1.429 . S
C578 C561 1.574 . S
C578 H572 0.949 . S
C578 C582 1.368 . S
C579 C560 1.429 . S
C579 C573 1.429 . S
C579 C580 1.523 . S
C580 C561 1.368 . S
C580 C574 1.368 . S
C580 C579 1.523 . S
C581 C565 1.429 . S
C581 C577 1.429 . S
C581 C582 1.523 . S
C582 C566 1.368 . S
C582 C578 1.368 . S
C582 C581 1.523 . S
H583 C558 0.950 . S
H584 C560 0.950 . S
H585 C561 0.949 . S
H586 C563 0.950 . S
H587 C565 0.950 . S
C588 C589 1.349 . S
C588 C590 1.327 . S
C588 H613 0.950 . S
C589 C588 1.349 . S
C589 C605 1.349 . S
C590 C588 1.327 . S
C590 C609 1.429 . S
C590 H614 0.950 . S
C591 C608 1.574 . S
C591 C610 1.368 . S
C591 H615 0.949 . S
H592 C596 0.949 . S
C593 C594 1.349 . S
C593 C595 1.327 . S
C593 H616 0.950 . S
C594 C593 1.349 . S
C594 C606 1.349 . S
C595 C593 1.327 . S
C595 C611 1.429 . S
C595 H617 0.950 . S
C596 H592 0.949 . S
C596 C604 1.574 . S
C596 C612 1.368 . S
H597 C605 0.950 . S
H598 C603 0.950 . S
H599 C604 0.949 . S
H600 C606 0.950 . S
H601 C607 0.950 . S
H602 C608 0.949 . S
C603 H598 0.950 . S
C603 C605 1.327 . S
C603 C609 1.429 . S
C604 C596 1.574 . S
C604 H599 0.949 . S
C604 C610 1.368 . S
C605 C589 1.349 . S
C605 H597 0.950 . S
C605 C603 1.327 . S
C606 C594 1.349 . S
C606 H600 0.950 . S
C606 C607 1.327 . S
C607 H601 0.950 . S
C607 C606 1.327 . S
C607 C611 1.429 . S
C608 C591 1.574 . S
C608 H602 0.949 . S
C608 C612 1.368 . S
C609 C590 1.429 . S
C609 C603 1.429 . S
C609 C610 1.523 . S
C610 C591 1.368 . S
C610 C604 1.368 . S
C610 C609 1.523 . S
C611 C595 1.429 . S
C611 C607 1.429 . S
C611 C612 1.523 . S
C612 C596 1.368 . S
C612 C608 1.368 . S
C612 C611 1.523 . S
H613 C588 0.950 . S
H614 C590 0.950 . S
H615 C591 0.949 . S
H616 C593 0.950 . S
H617 C595 0.950 . S
C618 C619 1.349 . S
C618 C620 1.327 . S
C618 H643 0.950 . S
C619 C618 1.349 . S
C619 C635 1.349 . S
C620 C618 1.327 . S
C620 C639 1.429 . S
C620 H644 0.950 . S
C621 C638 1.574 . S
C621 C640 1.368 . S
C621 H645 0.949 . S
H622 C626 0.949 . S
C623 C624 1.349 . S
C623 C625 1.327 . S
C623 H646 0.950 . S
C624 C623 1.349 . S
C624 C636 1.349 . S
C625 C623 1.327 . S
C625 C641 1.429 . S
C625 H647 0.950 . S
C626 H622 0.949 . S
C626 C634 1.574 . S
C626 C642 1.368 . S
H627 C635 0.950 . S
H628 C633 0.950 . S
H629 C634 0.949 . S
H630 C636 0.950 . S
H631 C637 0.950 . S
H632 C638 0.949 . S
C633 H628 0.950 . S
C633 C635 1.327 . S
C633 C639 1.429 . S
C634 C626 1.574 . S
C634 H629 0.949 . S
C634 C640 1.368 . S
C635 C619 1.349 . S
C635 H627 0.950 . S
C635 C633 1.327 . S
C636 C624 1.349 . S
C636 H630 0.950 . S
C636 C637 1.327 . S
C637 H631 0.950 . S
C637 C636 1.327 . S
C637 C641 1.429 . S
C638 C621 1.574 . S
C638 H632 0.949 . S
C638 C642 1.368 . S
C639 C620 1.429 . S
C639 C633 1.429 . S
C639 C640 1.523 . S
C640 C621 1.368 . S
C640 C634 1.368 . S
C640 C639 1.523 . S
C641 C625 1.429 . S
C641 C637 1.429 . S
C641 C642 1.523 . S
C642 C626 1.368 . S
C642 C638 1.368 . S
C642 C641 1.523 . S
H643 C618 0.950 . S
H644 C620 0.950 . S
H645 C621 0.949 . S
H646 C623 0.950 . S
H647 C625 0.950 . S
C648 C649 1.349 . S
C648 C650 1.327 . S
C648 H673 0.950 . S
C649 C648 1.349 . S
C649 C665 1.349 . S
C650 C648 1.327 . S
C650 C669 1.429 . S
C650 H674 0.950 . S
C651 C668 1.574 . S
C651 C670 1.368 . S
C651 H675 0.949 . S
H652 C656 0.949 . S
C653 C654 1.349 . S
C653 C655 1.327 . S
C653 H676 0.950 . S
C654 C653 1.349 . S
C654 C666 1.349 . S
C655 C653 1.327 . S
C655 C671 1.429 . S
C655 H677 0.950 . S
C656 H652 0.949 . S
C656 C664 1.574 . S
C656 C672 1.368 . S
H657 C665 0.950 . S
H658 C663 0.950 . S
H659 C664 0.949 . S
H660 C666 0.950 . S
H661 C667 0.950 . S
H662 C668 0.949 . S
C663 H658 0.950 . S
C663 C665 1.327 . S
C663 C669 1.429 . S
C664 C656 1.574 . S
C664 H659 0.949 . S
C664 C670 1.368 . S
C665 C649 1.349 . S
C665 H657 0.950 . S
C665 C663 1.327 . S
C666 C654 1.349 . S
C666 H660 0.950 . S
C666 C667 1.327 . S
C667 H661 0.950 . S
C667 C666 1.327 . S
C667 C671 1.429 . S
C668 C651 1.574 . S
C668 H662 0.949 . S
C668 C672 1.368 . S
C669 C650 1.429 . S
C669 C663 1.429 . S
C669 C670 1.523 . S
C670 C651 1.368 . S
C670 C664 1.368 . S
C670 C669 1.523 . S
C671 C655 1.429 . S
C671 C667 1.429 . S
C671 C672 1.523 . S
C672 C656 1.368 . S
C672 C668 1.368 . S
C672 C671 1.523 . S
H673 C648 0.950 . S
H674 C650 0.950 . S
H675 C651 0.949 . S
H676 C653 0.950 . S
H677 C655 0.950 . S
C678 C679 1.349 . S
C678 C680 1.327 . S
C678 H703 0.950 . S
C679 C678 1.349 . S
C679 C695 1.349 . S
C680 C678 1.327 . S
C680 C699 1.429 . S
C680 H704 0.950 . S
C681 C698 1.574 . S
C681 C700 1.368 . S
C681 H705 0.949 . S
H682 C686 0.949 . S
C683 C684 1.349 . S
C683 C685 1.327 . S
C683 H706 0.950 . S
C684 C683 1.349 . S
C684 C696 1.349 . S
C685 C683 1.327 . S
C685 C701 1.429 . S
C685 H707 0.950 . S
C686 H682 0.949 . S
C686 C694 1.574 . S
C686 C702 1.368 . S
H687 C695 0.950 . S
H688 C693 0.950 . S
H689 C694 0.949 . S
H690 C696 0.950 . S
H691 C697 0.950 . S
H692 C698 0.949 . S
C693 H688 0.950 . S
C693 C695 1.327 . S
C693 C699 1.429 . S
C694 C686 1.574 . S
C694 H689 0.949 . S
C694 C700 1.368 . S
C695 C679 1.349 . S
C695 H687 0.950 . S
C695 C693 1.327 . S
C696 C684 1.349 . S
C696 H690 0.950 . S
C696 C697 1.327 . S
C697 H691 0.950 . S
C697 C696 1.327 . S
C697 C701 1.429 . S
C698 C681 1.574 . S
C698 H692 0.949 . S
C698 C702 1.368 . S
C699 C680 1.429 . S
C699 C693 1.429 . S
C699 C700 1.523 . S
C700 C681 1.368 . S
C700 C694 1.368 . S
C700 C699 1.523 . S
C701 C685 1.429 . S
C701 C697 1.429 . S
C701 C702 1.523 . S
C702 C686 1.368 . S
C702 C698 1.368 . S
C702 C701 1.523 . S
H703 C678 0.950 . S
H704 C680 0.950 . S
H705 C681 0.949 . S
H706 C683 0.950 . S
H707 C685 0.950 . S
C708 C709 1.349 . S
C708 C710 1.327 . S
C708 H733 0.950 . S
C709 C708 1.349 . S
C709 C725 1.349 . S
C710 C708 1.327 . S
C710 C729 1.429 . S
C710 H734 0.950 . S
C711 C728 1.574 . S
C711 C730 1.368 . S
C711 H735 0.949 . S
H712 C716 0.949 . S
C713 C714 1.349 . S
C713 C715 1.327 . S
C713 H736 0.950 . S
C714 C713 1.349 . S
C714 C726 1.349 . S
C715 C713 1.327 . S
C715 C731 1.429 . S
C715 H737 0.950 . S
C716 H712 0.949 . S
C716 C724 1.574 . S
C716 C732 1.368 . S
H717 C725 0.950 . S
H718 C723 0.950 . S
H719 C724 0.949 . S
H720 C726 0.950 . S
H721 C727 0.950 . S
H722 C728 0.949 . S
C723 H718 0.950 . S
C723 C725 1.327 . S
C723 C729 1.429 . S
C724 C716 1.574 . S
C724 H719 0.949 . S
C724 C730 1.368 . S
C725 C709 1.349 . S
C725 H717 0.950 . S
C725 C723 1.327 . S
C726 C714 1.349 . S
C726 H720 0.950 . S
C726 C727 1.327 . S
C727 H721 0.950 . S
C727 C726 1.327 . S
C727 C731 1.429 . S
C728 C711 1.574 . S
C728 H722 0.949 . S
C728 C732 1.368 . S
C729 C710 1.429 . S
C729 C723 1.429 . S
C729 C730 1.523 . S
C730 C711 1.368 . S
C730 C724 1.368 . S
C730 C729 1.523 . S
C731 C715 1.429 . S
C731 C727 1.429 . S
C731 C732 1.523 . S
C732 C716 1.368 . S
C732 C728 1.368 . S
C732 C731 1.523 . S
H733 C708 0.950 . S
H734 C710 0.950 . S
H735 C711 0.949 . S
H736 C713 0.950 . S
H737 C715 0.950 . S
C738 C739 1.349 . S
C738 C740 1.327 . S
C738 H763 0.950 . S
C739 C738 1.349 . S
C739 C755 1.349 . S
C740 C738 1.327 . S
C740 C759 1.429 . S
C740 H764 0.950 . S
C741 C758 1.574 . S
C741 C760 1.368 . S
C741 H765 0.949 . S
H742 C746 0.949 . S
C743 C744 1.349 . S
C743 C745 1.327 . S
C743 H766 0.950 . S
C744 C743 1.349 . S
C744 C756 1.349 . S
C745 C743 1.327 . S
C745 C761 1.429 . S
C745 H767 0.950 . S
C746 H742 0.949 . S
C746 C754 1.574 . S
C746 C762 1.368 . S
H747 C755 0.950 . S
H748 C753 0.950 . S
H749 C754 0.949 . S
H750 C756 0.950 . S
H751 C757 0.950 . S
H752 C758 0.949 . S
C753 H748 0.950 . S
C753 C755 1.327 . S
C753 C759 1.429 . S
C754 C746 1.574 . S
C754 H749 0.949 . S
C754 C760 1.368 . S
C755 C739 1.349 . S
C755 H747 0.950 . S
C755 C753 1.327 . S
C756 C744 1.349 . S
C756 H750 0.950 . S
C756 C757 1.327 . S
C757 H751 0.950 . S
C757 C756 1.327 . S
C757 C761 1.429 . S
C758 C741 1.574 . S
C758 H752 0.949 . S
C758 C762 1.368 . S
C759 C740 1.429 . S
C759 C753 1.429 . S
C759 C760 1.523 . S
C760 C741 1.368 . S
C760 C754 1.368 . S
C760 C759 1.523 . S
C761 C745 1.429 . S
C761 C757 1.429 . S
C761 C762 1.523 . S
C762 C746 1.368 . S
C762 C758 1.368 . S
C762 C761 1.523 . S
H763 C738 0.950 . S
H764 C740 0.950 . S
H765 C741 0.949 . S
H766 C743 0.950 . S
H767 C745 0.950 . S
C768 C769 1.349 . S
C768 C770 1.327 1_565 S
C768 H793 0.950 . S
C769 C768 1.349 . S
C769 C785 1.349 1_565 S
C770 C768 1.327 1_545 S
C770 C789 1.429 . S
C770 H794 0.950 1_545 S
C771 C788 1.574 . S
C771 C790 1.368 . S
C771 H795 0.949 . S
H772 C776 0.949 . S
C773 C774 1.349 . S
C773 C775 1.327 . S
C773 H796 0.950 . S
C774 C773 1.349 . S
C774 C786 1.349 . S
C775 C773 1.327 . S
C775 C791 1.429 . S
C775 H797 0.950 . S
C776 H772 0.949 . S
C776 C784 1.574 . S
C776 C792 1.368 . S
H777 C785 0.950 . S
H778 C783 0.950 . S
H779 C784 0.949 . S
H780 C786 0.950 . S
H781 C787 0.950 . S
H782 C788 0.949 . S
C783 H778 0.950 . S
C783 C785 1.327 . S
C783 C789 1.429 . S
C784 C776 1.574 . S
C784 H779 0.949 . S
C784 C790 1.368 . S
C785 C769 1.349 1_545 S
C785 H777 0.950 . S
C785 C783 1.327 . S
C786 C774 1.349 . S
C786 H780 0.950 . S
C786 C787 1.327 . S
C787 H781 0.950 . S
C787 C786 1.327 . S
C787 C791 1.429 . S
C788 C771 1.574 . S
C788 H782 0.949 . S
C788 C792 1.368 . S
C789 C770 1.429 . S
C789 C783 1.429 . S
C789 C790 1.523 . S
C790 C771 1.368 . S
C790 C784 1.368 . S
C790 C789 1.523 . S
C791 C775 1.429 . S
C791 C787 1.429 . S
C791 C792 1.523 . S
C792 C776 1.368 . S
C792 C788 1.368 . S
C792 C791 1.523 . S
H793 C768 0.950 . S
H794 C770 0.950 1_565 S
H795 C771 0.949 . S
H796 C773 0.950 . S
H797 C775 0.950 . S
C798 C799 1.349 . S
C798 C800 1.327 1_545 S
C798 H823 0.950 . S
C799 C798 1.349 . S
C799 C815 1.349 1_545 S
C800 C798 1.327 1_565 S
C800 C819 1.429 . S
C800 H824 0.950 1_565 S
C801 C818 1.574 . S
C801 C820 1.368 . S
C801 H825 0.949 . S
H802 C806 0.949 . S
C803 C804 1.349 . S
C803 C805 1.327 . S
C803 H826 0.950 . S
C804 C803 1.349 . S
C804 C816 1.349 . S
C805 C803 1.327 . S
C805 C821 1.429 . S
C805 H827 0.950 . S
C806 H802 0.949 . S
C806 C814 1.574 . S
C806 C822 1.368 . S
H807 C815 0.950 . S
H808 C813 0.950 . S
H809 C814 0.949 . S
H810 C816 0.950 . S
H811 C817 0.950 . S
H812 C818 0.949 . S
C813 H808 0.950 . S
C813 C815 1.327 . S
C813 C819 1.429 . S
C814 C806 1.574 . S
C814 H809 0.949 . S
C814 C820 1.368 . S
C815 C799 1.349 1_565 S
C815 H807 0.950 . S
C815 C813 1.327 . S
C816 C804 1.349 . S
C816 H810 0.950 . S
C816 C817 1.327 . S
C817 H811 0.950 . S
C817 C816 1.327 . S
C817 C821 1.429 . S
C818 C801 1.574 . S
C818 H812 0.949 . S
C818 C822 1.368 . S
C819 C800 1.429 . S
C819 C813 1.429 . S
C819 C820 1.523 . S
C820 C801 1.368 . S
C820 C814 1.368 . S
C820 C819 1.523 . S
C821 C805 1.429 . S
C821 C817 1.429 . S
C821 C822 1.523 . S
C822 C806 1.368 . S
C822 C818 1.368 . S
C822 C821 1.523 . S
H823 C798 0.950 . S
H824 C800 0.950 1_545 S
H825 C801 0.949 . S
H826 C803 0.950 . S
H827 C805 0.950 . S
C828 C829 1.348 . S
C828 C830 1.327 . S
C828 H853 0.950 1_545 S
C829 C828 1.348 . S
C829 C845 1.346 . S
C830 C828 1.327 . S
C830 C849 1.429 . S
C830 H854 0.950 . S
C831 C848 1.574 . S
C831 C850 1.368 . S
C831 H855 0.949 . S
H832 C836 0.949 . S
C833 C834 1.349 . S
C833 C835 1.327 . S
C833 H856 0.950 . S
C834 C833 1.349 . S
C834 C846 1.349 . S
C835 C833 1.327 . S
C835 C851 1.429 . S
C835 H857 0.950 . S
C836 H832 0.949 . S
C836 C844 1.574 . S
C836 C852 1.368 . S
H837 C845 0.950 . S
H838 C843 0.950 . S
H839 C844 0.949 . S
H840 C846 0.950 . S
H841 C847 0.950 . S
H842 C848 0.949 . S
C843 H838 0.950 . S
C843 C845 1.327 . S
C843 C849 1.429 . S
C844 C836 1.574 . S
C844 H839 0.949 . S
C844 C850 1.368 . S
C845 C829 1.346 . S
C845 H837 0.950 . S
C845 C843 1.327 . S
C846 C834 1.349 . S
C846 H840 0.950 . S
C846 C847 1.327 . S
C847 H841 0.950 . S
C847 C846 1.327 . S
C847 C851 1.429 . S
C848 C831 1.574 . S
C848 H842 0.949 . S
C848 C852 1.368 . S
C849 C830 1.429 . S
C849 C843 1.429 . S
C849 C850 1.523 . S
C850 C831 1.368 . S
C850 C844 1.368 . S
C850 C849 1.523 . S
C851 C835 1.429 . S
C851 C847 1.429 . S
C851 C852 1.523 . S
C852 C836 1.368 . S
C852 C848 1.368 . S
C852 C851 1.523 . S
H853 C828 0.950 1_565 S
H854 C830 0.950 . S
H855 C831 0.949 . S
H856 C833 0.950 . S
H857 C835 0.950 . S
C858 C859 1.349 1_565 S
C858 C860 1.327 . S
C858 H883 0.950 . S
C859 C858 1.349 1_545 S
C859 C875 1.349 . S
C860 C858 1.327 . S
C860 C879 1.429 . S
C860 H884 0.950 . S
C861 C878 1.574 . S
C861 C880 1.368 . S
C861 H885 0.949 . S
H862 C866 0.949 . S
C863 C864 1.349 . S
C863 C865 1.327 . S
C863 H886 0.950 . S
C864 C863 1.349 . S
C864 C876 1.349 . S
C865 C863 1.327 . S
C865 C881 1.429 . S
C865 H887 0.950 . S
C866 H862 0.949 . S
C866 C874 1.574 . S
C866 C882 1.368 . S
H867 C875 0.950 . S
H868 C873 0.950 . S
H869 C874 0.949 . S
H870 C876 0.950 . S
H871 C877 0.950 . S
H872 C878 0.949 . S
C873 H868 0.950 . S
C873 C875 1.327 1_565 S
C873 C879 1.429 . S
C874 C866 1.574 . S
C874 H869 0.949 . S
C874 C880 1.368 . S
C875 C859 1.349 . S
C875 H867 0.950 . S
C875 C873 1.327 1_545 S
C876 C864 1.349 . S
C876 H870 0.950 . S
C876 C877 1.327 . S
C877 H871 0.950 . S
C877 C876 1.327 . S
C877 C881 1.429 . S
C878 C861 1.574 . S
C878 H872 0.949 . S
C878 C882 1.368 . S
C879 C860 1.429 . S
C879 C873 1.429 . S
C879 C880 1.523 . S
C880 C861 1.368 . S
C880 C874 1.368 . S
C880 C879 1.523 . S
C881 C865 1.429 . S
C881 C877 1.429 . S
C881 C882 1.523 . S
C882 C866 1.368 . S
C882 C878 1.368 . S
C882 C881 1.523 . S
H883 C858 0.950 . S
H884 C860 0.950 . S
H885 C861 0.949 . S
H886 C863 0.950 . S
H887 C865 0.950 . S
C888 C889 1.349 . S
C888 C890 1.327 . S
C888 H913 0.950 . S
C889 C888 1.349 . S
C889 C905 1.349 . S
C890 C888 1.327 . S
C890 C909 1.429 . S
C890 H914 0.950 . S
C891 C908 1.574 . S
C891 C910 1.368 . S
C891 H915 0.949 . S
H892 C896 0.949 . S
C893 C894 1.349 . S
C893 C895 1.327 . S
C893 H916 0.950 . S
C894 C893 1.349 . S
C894 C906 1.349 . S
C895 C893 1.327 . S
C895 C911 1.429 . S
C895 H917 0.950 . S
C896 H892 0.949 . S
C896 C904 1.574 . S
C896 C912 1.368 . S
H897 C905 0.950 . S
H898 C903 0.950 . S
H899 C904 0.949 . S
H900 C906 0.950 . S
H901 C907 0.950 . S
H902 C908 0.949 . S
C903 H898 0.950 . S
C903 C905 1.327 . S
C903 C909 1.429 . S
C904 C896 1.574 . S
C904 H899 0.949 . S
C904 C910 1.368 . S
C905 C889 1.349 . S
C905 H897 0.950 . S
C905 C903 1.327 . S
C906 C894 1.349 . S
C906 H900 0.950 . S
C906 C907 1.327 . S
C907 H901 0.950 . S
C907 C906 1.327 . S
C907 C911 1.429 . S
C908 C891 1.574 . S
C908 H902 0.949 . S
C908 C912 1.368 . S
C909 C890 1.429 . S
C909 C903 1.429 . S
C909 C910 1.523 . S
C910 C891 1.368 . S
C910 C904 1.368 . S
C910 C909 1.523 . S
C911 C895 1.429 . S
C911 C907 1.429 . S
C911 C912 1.523 . S
C912 C896 1.368 . S
C912 C908 1.368 . S
C912 C911 1.523 . S
H913 C888 0.950 . S
H914 C890 0.950 . S
H915 C891 0.949 . S
H916 C893 0.950 . S
H917 C895 0.950 . S
C918 C919 1.349 . S
C918 C920 1.327 . S
C918 H943 0.950 . S
C919 C918 1.349 . S
C919 C935 1.349 . S
C920 C918 1.327 . S
C920 C939 1.429 . S
C920 H944 0.950 . S
C921 C938 1.574 . S
C921 C940 1.368 . S
C921 H945 0.949 . S
H922 C926 0.949 . S
C923 C924 1.349 . S
C923 C925 1.327 . S
C923 H946 0.950 . S
C924 C923 1.349 . S
C924 C936 1.349 . S
C925 C923 1.327 . S
C925 C941 1.429 . S
C925 H947 0.950 . S
C926 H922 0.949 . S
C926 C934 1.574 . S
C926 C942 1.368 . S
H927 C935 0.950 . S
H928 C933 0.950 . S
H929 C934 0.949 . S
H930 C936 0.950 . S
H931 C937 0.950 . S
H932 C938 0.949 . S
C933 H928 0.950 . S
C933 C935 1.327 . S
C933 C939 1.429 . S
C934 C926 1.574 . S
C934 H929 0.949 . S
C934 C940 1.368 . S
C935 C919 1.349 . S
C935 H927 0.950 . S
C935 C933 1.327 . S
C936 C924 1.349 . S
C936 H930 0.950 . S
C936 C937 1.327 . S
C937 H931 0.950 . S
C937 C936 1.327 . S
C937 C941 1.429 . S
C938 C921 1.574 . S
C938 H932 0.949 . S
C938 C942 1.368 . S
C939 C920 1.429 . S
C939 C933 1.429 . S
C939 C940 1.523 . S
C940 C921 1.368 . S
C940 C934 1.368 . S
C940 C939 1.523 . S
C941 C925 1.429 . S
C941 C937 1.429 . S
C941 C942 1.523 . S
C942 C926 1.368 . S
C942 C938 1.368 . S
C942 C941 1.523 . S
H943 C918 0.950 . S
H944 C920 0.950 . S
H945 C921 0.949 . S
H946 C923 0.950 . S
H947 C925 0.950 . S
C948 C949 1.349 . S
C948 C950 1.327 . S
C948 H973 0.950 . S
C949 C948 1.349 . S
C949 C965 1.349 . S
C950 C948 1.327 . S
C950 C969 1.429 . S
C950 H974 0.950 . S
C951 C968 1.574 . S
C951 C970 1.368 . S
C951 H975 0.949 . S
H952 C956 0.949 . S
C953 C954 1.349 . S
C953 C955 1.327 . S
C953 H976 0.950 . S
C954 C953 1.349 . S
C954 C966 1.349 . S
C955 C953 1.327 . S
C955 C971 1.429 . S
C955 H977 0.950 . S
C956 H952 0.949 . S
C956 C964 1.574 . S
C956 C972 1.368 . S
H957 C965 0.950 . S
H958 C963 0.950 . S
H959 C964 0.949 . S
H960 C966 0.950 . S
H961 C967 0.950 . S
H962 C968 0.949 . S
C963 H958 0.950 . S
C963 C965 1.327 . S
C963 C969 1.429 . S
C964 C956 1.574 . S
C964 H959 0.949 . S
C964 C970 1.368 . S
C965 C949 1.349 . S
C965 H957 0.950 . S
C965 C963 1.327 . S
C966 C954 1.349 . S
C966 H960 0.950 . S
C966 C967 1.327 . S
C967 H961 0.950 . S
C967 C966 1.327 . S
C967 C971 1.429 . S
C968 C951 1.574 . S
C968 H962 0.949 . S
C968 C972 1.368 . S
C969 C950 1.429 . S
C969 C963 1.429 . S
C969 C970 1.523 . S
C970 C951 1.368 . S
C970 C964 1.368 . S
C970 C969 1.523 . S
C971 C955 1.429 . S
C971 C967 1.429 . S
C971 C972 1.523 . S
C972 C956 1.368 . S
C972 C968 1.368 . S
C972 C971 1.523 . S
H973 C948 0.950 . S
H974 C950 0.950 . S
H975 C951 0.949 . S
H976 C953 0.950 . S
H977 C955 0.950 . S
C978 C979 1.349 . S
C978 C980 1.327 . S
C978 H1003 0.950 . S
C979 C978 1.349 . S
C979 C995 1.349 . S
C980 C978 1.327 . S
C980 C999 1.429 . S
C980 H1004 0.950 . S
C981 C998 1.574 . S
C981 C1000 1.368 . S
C981 H1005 0.949 . S
H982 C986 0.949 . S
C983 C984 1.349 . S
C983 C985 1.327 . S
C983 H1006 0.950 . S
C984 C983 1.349 . S
C984 C996 1.349 . S
C985 C983 1.327 . S
C985 C1001 1.429 . S
C985 H1007 0.950 . S
C986 H982 0.949 . S
C986 C994 1.574 . S
C986 C1002 1.368 . S
H987 C995 0.950 . S
H988 C993 0.950 . S
H989 C994 0.949 . S
H990 C996 0.950 . S
H991 C997 0.950 . S
H992 C998 0.949 . S
C993 H988 0.950 . S
C993 C995 1.327 . S
C993 C999 1.429 . S
C994 C986 1.574 . S
C994 H989 0.949 . S
C994 C1000 1.368 . S
C995 C979 1.349 . S
C995 H987 0.950 . S
C995 C993 1.327 . S
C996 C984 1.349 . S
C996 H990 0.950 . S
C996 C997 1.327 . S
C997 H991 0.950 . S
C997 C996 1.327 . S
C997 C1001 1.429 . S
C998 C981 1.574 . S
C998 H992 0.949 . S
C998 C1002 1.368 . S
C999 C980 1.429 . S
C999 C993 1.429 . S
C999 C1000 1.523 . S
C1000 C981 1.368 . S
C1000 C994 1.368 . S
C1000 C999 1.523 . S
C1001 C985 1.429 . S
C1001 C997 1.429 . S
C1001 C1002 1.523 . S
C1002 C986 1.368 . S
C1002 C998 1.368 . S
C1002 C1001 1.523 . S
H1003 C978 0.950 . S
H1004 C980 0.950 . S
H1005 C981 0.949 . S
H1006 C983 0.950 . S
H1007 C985 0.950 . S
C1008 C1009 1.349 . S
C1008 C1010 1.327 . S
C1008 H1033 0.950 . S
C1009 C1008 1.349 . S
C1009 C1025 1.349 . S
C1010 C1008 1.327 . S
C1010 C1029 1.429 . S
C1010 H1034 0.950 . S
C1011 C1028 1.574 . S
C1011 C1030 1.368 . S
C1011 H1035 0.949 . S
H1012 C1016 0.949 . S
C1013 C1014 1.349 . S
C1013 C1015 1.327 . S
C1013 H1036 0.950 . S
C1014 C1013 1.349 . S
C1014 C1026 1.349 . S
C1015 C1013 1.327 . S
C1015 C1031 1.429 . S
C1015 H1037 0.950 . S
C1016 H1012 0.949 . S
C1016 C1024 1.574 . S
C1016 C1032 1.368 . S
H1017 C1025 0.950 . S
H1018 C1023 0.950 . S
H1019 C1024 0.949 . S
H1020 C1026 0.950 . S
H1021 C1027 0.950 . S
H1022 C1028 0.949 . S
C1023 H1018 0.950 . S
C1023 C1025 1.327 . S
C1023 C1029 1.429 . S
C1024 C1016 1.574 . S
C1024 H1019 0.949 . S
C1024 C1030 1.368 . S
C1025 C1009 1.349 . S
C1025 H1017 0.950 . S
C1025 C1023 1.327 . S
C1026 C1014 1.349 . S
C1026 H1020 0.950 . S
C1026 C1027 1.327 . S
C1027 H1021 0.950 . S
C1027 C1026 1.327 . S
C1027 C1031 1.429 . S
C1028 C1011 1.574 . S
C1028 H1022 0.949 . S
C1028 C1032 1.368 . S
C1029 C1010 1.429 . S
C1029 C1023 1.429 . S
C1029 C1030 1.523 . S
C1030 C1011 1.368 . S
C1030 C1024 1.368 . S
C1030 C1029 1.523 . S
C1031 C1015 1.429 . S
C1031 C1027 1.429 . S
C1031 C1032 1.523 . S
C1032 C1016 1.368 . S
C1032 C1028 1.368 . S
C1032 C1031 1.523 . S
H1033 C1008 0.950 . S
H1034 C1010 0.950 . S
H1035 C1011 0.949 . S
H1036 C1013 0.950 . S
H1037 C1015 0.950 . S
C1038 C1039 1.349 . S
C1038 C1040 1.327 . S
C1038 H1063 0.950 . S
C1039 C1038 1.349 . S
C1039 C1055 1.349 . S
C1040 C1038 1.327 . S
C1040 C1059 1.429 . S
C1040 H1064 0.950 . S
C1041 C1058 1.574 . S
C1041 C1060 1.368 . S
C1041 H1065 0.949 . S
H1042 C1046 0.949 . S
C1043 C1044 1.349 . S
C1043 C1045 1.327 . S
C1043 H1066 0.950 . S
C1044 C1043 1.349 . S
C1044 C1056 1.349 . S
C1045 C1043 1.327 . S
C1045 C1061 1.429 . S
C1045 H1067 0.950 . S
C1046 H1042 0.949 . S
C1046 C1054 1.574 . S
C1046 C1062 1.368 . S
H1047 C1055 0.950 . S
H1048 C1053 0.950 . S
H1049 C1054 0.949 . S
H1050 C1056 0.950 . S
H1051 C1057 0.950 . S
H1052 C1058 0.949 . S
C1053 H1048 0.950 . S
C1053 C1055 1.327 . S
C1053 C1059 1.429 . S
C1054 C1046 1.574 . S
C1054 H1049 0.949 . S
C1054 C1060 1.368 . S
C1055 C1039 1.349 . S
C1055 H1047 0.950 . S
C1055 C1053 1.327 . S
C1056 C1044 1.349 . S
C1056 H1050 0.950 . S
C1056 C1057 1.327 . S
C1057 H1051 0.950 . S
C1057 C1056 1.327 . S
C1057 C1061 1.429 . S
C1058 C1041 1.574 . S
C1058 H1052 0.949 . S
C1058 C1062 1.368 . S
C1059 C1040 1.429 . S
C1059 C1053 1.429 . S
C1059 C1060 1.523 . S
C1060 C1041 1.368 . S
C1060 C1054 1.368 . S
C1060 C1059 1.523 . S
C1061 C1045 1.429 . S
C1061 C1057 1.429 . S
C1061 C1062 1.523 . S
C1062 C1046 1.368 . S
C1062 C1058 1.368 . S
C1062 C1061 1.523 . S
H1063 C1038 0.950 . S
H1064 C1040 0.950 . S
H1065 C1041 0.949 . S
H1066 C1043 0.950 . S
H1067 C1045 0.950 . S
C1068 C1069 1.349 . S
C1068 C1070 1.327 . S
C1068 H1093 0.950 . S
C1069 C1068 1.349 . S
C1069 C1085 1.349 . S
C1070 C1068 1.327 . S
C1070 C1089 1.429 . S
C1070 H1094 0.950 . S
C1071 C1088 1.574 . S
C1071 C1090 1.368 . S
C1071 H1095 0.949 . S
H1072 C1076 0.949 . S
C1073 C1074 1.349 . S
C1073 C1075 1.327 . S
C1073 H1096 0.950 . S
C1074 C1073 1.349 . S
C1074 C1086 1.349 . S
C1075 C1073 1.327 . S
C1075 C1091 1.429 . S
C1075 H1097 0.950 . S
C1076 H1072 0.949 . S
C1076 C1084 1.574 . S
C1076 C1092 1.368 . S
H1077 C1085 0.950 . S
H1078 C1083 0.950 . S
H1079 C1084 0.949 . S
H1080 C1086 0.950 . S
H1081 C1087 0.950 . S
H1082 C1088 0.949 . S
C1083 H1078 0.950 . S
C1083 C1085 1.327 . S
C1083 C1089 1.429 . S
C1084 C1076 1.574 . S
C1084 H1079 0.949 . S
C1084 C1090 1.368 . S
C1085 C1069 1.349 . S
C1085 H1077 0.950 . S
C1085 C1083 1.327 . S
C1086 C1074 1.349 . S
C1086 H1080 0.950 . S
C1086 C1087 1.327 . S
C1087 H1081 0.950 . S
C1087 C1086 1.327 . S
C1087 C1091 1.429 . S
C1088 C1071 1.574 . S
C1088 H1082 0.949 . S
C1088 C1092 1.368 . S
C1089 C1070 1.429 . S
C1089 C1083 1.429 . S
C1089 C1090 1.523 . S
C1090 C1071 1.368 . S
C1090 C1084 1.368 . S
C1090 C1089 1.523 . S
C1091 C1075 1.429 . S
C1091 C1087 1.429 . S
C1091 C1092 1.523 . S
C1092 C1076 1.368 . S
C1092 C1088 1.368 . S
C1092 C1091 1.523 . S
H1093 C1068 0.950 . S
H1094 C1070 0.950 . S
H1095 C1071 0.949 . S
H1096 C1073 0.950 . S
H1097 C1075 0.950 . S
C1098 C1099 1.349 . S
C1098 C1100 1.327 . S
C1098 H1123 0.950 . S
C1099 C1098 1.349 . S
C1099 C1115 1.349 . S
C1100 C1098 1.327 . S
C1100 C1119 1.429 . S
C1100 H1124 0.950 . S
C1101 C1118 1.574 . S
C1101 C1120 1.368 . S
C1101 H1125 0.949 . S
H1102 C1106 0.949 . S
C1103 C1104 1.349 . S
C1103 C1105 1.327 . S
C1103 H1126 0.950 . S
C1104 C1103 1.349 . S
C1104 C1116 1.349 . S
C1105 C1103 1.327 . S
C1105 C1121 1.429 . S
C1105 H1127 0.950 . S
C1106 H1102 0.949 . S
C1106 C1114 1.574 . S
C1106 C1122 1.368 . S
H1107 C1115 0.950 . S
H1108 C1113 0.950 . S
H1109 C1114 0.949 . S
H1110 C1116 0.950 . S
H1111 C1117 0.950 . S
H1112 C1118 0.949 . S
C1113 H1108 0.950 . S
C1113 C1115 1.327 . S
C1113 C1119 1.429 . S
C1114 C1106 1.574 . S
C1114 H1109 0.949 . S
C1114 C1120 1.368 . S
C1115 C1099 1.349 . S
C1115 H1107 0.950 . S
C1115 C1113 1.327 . S
C1116 C1104 1.349 . S
C1116 H1110 0.950 . S
C1116 C1117 1.327 . S
C1117 H1111 0.950 . S
C1117 C1116 1.327 . S
C1117 C1121 1.429 . S
C1118 C1101 1.574 . S
C1118 H1112 0.949 . S
C1118 C1122 1.368 . S
C1119 C1100 1.429 . S
C1119 C1113 1.429 . S
C1119 C1120 1.523 . S
C1120 C1101 1.368 . S
C1120 C1114 1.368 . S
C1120 C1119 1.523 . S
C1121 C1105 1.429 . S
C1121 C1117 1.429 . S
C1121 C1122 1.523 . S
C1122 C1106 1.368 . S
C1122 C1118 1.368 . S
C1122 C1121 1.523 . S
H1123 C1098 0.950 . S
H1124 C1100 0.950 . S
H1125 C1101 0.949 . S
H1126 C1103 0.950 . S
H1127 C1105 0.950 . S
C409 C15 1.535 . S
C414 C363 1.521 . S
C444 C327 1.572 . S
C439 C55 1.583 . S
C474 C350 1.510 . S
C469 C95 1.508 . S
C504 C338 1.562 . S
C499 C135 1.564 . S
C534 C407 1.521 . S
C529 C175 1.535 . S
C564 C371 1.572 . S
C559 C215 1.583 . S
C589 C255 1.508 . S
C594 C394 1.510 . S
C624 C382 1.562 . S
C619 C295 1.564 . S
C649 C2 1.483 . S
C654 C404 1.484 . S
C684 C374 1.561 . S
C679 C61 1.507 . S
C709 C82 1.487 . S
C714 C393 1.519 . S
C739 C141 1.590 . S
C744 C379 1.596 . S
C774 C360 1.483 . S
C769 C162 1.483 . S
C799 C221 1.507 . S
C804 C330 1.561 . S
C834 C349 1.519 . S
C829 C242 1.492 1_545 S
C864 C335 1.596 . S
C859 C301 1.590 . S
C894 C385 1.524 . S
C889 C21 1.524 . S
C924 C401 1.526 . S
C919 C42 1.496 . S
C949 C101 1.433 . S
C954 C372 1.488 . S
C984 C396 1.489 . S
C979 C122 1.490 . S
C1014 C341 1.524 . S
C1009 C181 1.524 . S
C1039 C202 1.496 . S
C1044 C357 1.525 . S
C1069 C261 1.433 . S
C1074 C328 1.488 . S
C1099 C282 1.491 . S
C1104 C352 1.489 . S
