# Generated by pormake.
# Topology csq, (4,8)-cn, num edge types: 1
# Building blocks:
#     Node 0, Type 0, BuildingBlock: KOZSID_clean_sbu_0, # of connection points: 4
#     Node 1, Type 0, BuildingBlock: KOZSID_clean_sbu_0, # of connection points: 4
#     Node 2, Type 0, BuildingBlock: KOZSID_clean_sbu_0, # of connection points: 4
#     Node 3, Type 0, BuildingBlock: KOZSID_clean_sbu_0, # of connection points: 4
#     Node 4, Type 0, BuildingBlock: KOZSID_clean_sbu_0, # of connection points: 4
#     Node 5, Type 0, BuildingBlock: KOZSID_clean_sbu_0, # of connection points: 4
#     Node 6, Type 1, BuildingBlock: TAGTUT_clean_sbu_1, # of connection points: 8
#     Node 7, Type 1, BuildingBlock: TAGTUT_clean_sbu_1, # of connection points: 8
#     Node 8, Type 1, BuildingBlock: TAGTUT_clean_sbu_1, # of connection points: 8
#     Edge 9, Type (0, 1), BuildingBlock: TEMPAE_clean_linker_10, # of connection points: 2
#     Edge 10, Type (0, 1), BuildingBlock: TEMPAE_clean_linker_10, # of connection points: 2
#     Edge 11, Type (0, 1), BuildingBlock: TEMPAE_clean_linker_10, # of connection points: 2
#     Edge 12, Type (0, 1), BuildingBlock: TEMPAE_clean_linker_10, # of connection points: 2
#     Edge 13, Type (0, 1), BuildingBlock: TEMPAE_clean_linker_10, # of connection points: 2
#     Edge 14, Type (0, 1), BuildingBlock: TEMPAE_clean_linker_10, # of connection points: 2
#     Edge 15, Type (0, 1), BuildingBlock: TEMPAE_clean_linker_10, # of connection points: 2
#     Edge 16, Type (0, 1), BuildingBlock: TEMPAE_clean_linker_10, # of connection points: 2
#     Edge 17, Type (0, 1), BuildingBlock: TEMPAE_clean_linker_10, # of connection points: 2
#     Edge 18, Type (0, 1), BuildingBlock: TEMPAE_clean_linker_10, # of connection points: 2
#     Edge 19, Type (0, 1), BuildingBlock: TEMPAE_clean_linker_10, # of connection points: 2
#     Edge 20, Type (0, 1), BuildingBlock: TEMPAE_clean_linker_10, # of connection points: 2
#     Edge 21, Type (0, 1), BuildingBlock: TEMPAE_clean_linker_10, # of connection points: 2
#     Edge 22, Type (0, 1), BuildingBlock: TEMPAE_clean_linker_10, # of connection points: 2
#     Edge 23, Type (0, 1), BuildingBlock: TEMPAE_clean_linker_10, # of connection points: 2
#     Edge 24, Type (0, 1), BuildingBlock: TEMPAE_clean_linker_10, # of connection points: 2
#     Edge 25, Type (0, 1), BuildingBlock: TEMPAE_clean_linker_10, # of connection points: 2
#     Edge 26, Type (0, 1), BuildingBlock: TEMPAE_clean_linker_10, # of connection points: 2
#     Edge 27, Type (0, 1), BuildingBlock: TEMPAE_clean_linker_10, # of connection points: 2
#     Edge 28, Type (0, 1), BuildingBlock: TEMPAE_clean_linker_10, # of connection points: 2
#     Edge 29, Type (0, 1), BuildingBlock: TEMPAE_clean_linker_10, # of connection points: 2
#     Edge 30, Type (0, 1), BuildingBlock: TEMPAE_clean_linker_10, # of connection points: 2
#     Edge 31, Type (0, 1), BuildingBlock: TEMPAE_clean_linker_10, # of connection points: 2
#     Edge 32, Type (0, 1), BuildingBlock: TEMPAE_clean_linker_10, # of connection points: 2
# Relax obj value: 0.035
# Max RMSD: 0.132
# Mean RMSD: 0.041
data_MOF--net-csq--node1-KOZSID_clean_sbu_0--node2-TAGTUT_clean_sbu_1--edge1-TEMPAE_clean_linker_10
_symmetry_space_group_name_H-M    P1
_symmetry_Int_Tables_number       1
_symmetry_cell_setting            triclinic
loop_
_symmetry_equiv_pos_as_xyz
'x, y, z'
_cell_length_a     57.249356
_cell_length_b     56.573726
_cell_length_c     20.993061
_cell_angle_alpha  87.914026
_cell_angle_beta   96.912166
_cell_angle_gamma 119.90195
loop_
_atom_site_label
_atom_site_type_symbol
_atom_site_fract_x
_atom_site_fract_y
_atom_site_fract_z
_atom_type_partial_charge
C0 C 0.29301 0.51217 0.31336 0.0
C1 C 0.31395 0.53686 0.34045 0.0
C2 C 0.31348 0.55691 0.30339 0.0
C3 C 0.2926 0.54347 0.25565 0.0
N4 N 0.27973 0.51598 0.25964 0.0
Co5 Co 0.24886 0.48861 0.19889 0.0
N6 N 0.24779 0.51829 0.14557 0.0
C7 C 0.26341 0.54553 0.15672 0.0
C8 C 0.25802 0.56081 0.11162 0.0
C9 C 0.23783 0.54226 0.06873 0.0
C10 C 0.2322 0.51664 0.09017 0.0
N11 N 0.21828 0.46122 0.13764 0.0
C12 C 0.20607 0.46501 0.08209 0.0
C13 C 0.18681 0.44038 0.05155 0.0
C14 C 0.18677 0.42028 0.08932 0.0
C15 C 0.20602 0.43371 0.14023 0.0
N16 N 0.24962 0.45891 0.25269 0.0
C17 C 0.23311 0.43169 0.24321 0.0
C18 C 0.23732 0.41641 0.29042 0.0
C19 C 0.2577 0.43496 0.33289 0.0
C20 C 0.26488 0.46056 0.30863 0.0
N21 N 0.22243 0.48894 0.25312 0.0
C22 C 0.18693 0.48945 0.33669 0.0
C23 C 0.18241 0.46504 0.30942 0.0
C24 C 0.20013 0.46526 0.26812 0.0
C25 C 0.20934 0.51359 0.31994 0.0
C26 C 0.22655 0.51289 0.27866 0.0
N27 N 0.27531 0.48836 0.14457 0.0
C28 C 0.28984 0.46392 0.08122 0.0
C29 C 0.31026 0.48829 0.05876 0.0
C30 C 0.31322 0.51266 0.08189 0.0
C31 C 0.29588 0.51224 0.12438 0.0
C32 C 0.27282 0.46441 0.12365 0.0
H33 H 0.29941 0.53159 0.1398 0.0
H34 H 0.25754 0.44512 0.13826 0.0
H35 H 0.19548 0.44595 0.24931 0.0
H36 H 0.24316 0.53208 0.26832 0.0
C37 C 0.28408 0.55616 0.20775 0.0
C38 C 0.28668 0.48573 0.34007 0.0
C39 C 0.21195 0.49139 0.05621 0.0
C40 C 0.21347 0.42106 0.19021 0.0
H41 H 0.32817 0.54022 0.38267 0.0
H42 H 0.32668 0.57871 0.31062 0.0
H43 H 0.26793 0.58282 0.10954 0.0
H44 H 0.22854 0.5471 0.02613 0.0
H45 H 0.17425 0.43727 0.00631 0.0
H46 H 0.17447 0.39848 0.08029 0.0
H47 H 0.22665 0.39443 0.29387 0.0
H48 H 0.26631 0.43021 0.37686 0.0
H49 H 0.1655 0.44566 0.32057 0.0
H50 H 0.21357 0.53319 0.33798 0.0
H51 H 0.28651 0.4444 0.06507 0.0
H52 H 0.32905 0.53217 0.06763 0.0
C53 C 0.82871 0.27269 0.08236 0.0
C54 C 0.84984 0.26843 0.07183 0.0
C55 C 0.84311 0.24279 0.09284 0.0
C56 C 0.81827 0.23277 0.1146 0.0
N57 N 0.80906 0.25055 0.10858 0.0
Co58 Co 0.774 0.24414 0.13281 0.0
N59 N 0.77076 0.21445 0.19098 0.0
C60 C 0.78454 0.20092 0.19005 0.0
C61 C 0.77814 0.18134 0.23571 0.0
C62 C 0.7589 0.18237 0.26672 0.0
C63 C 0.75443 0.20248 0.23781 0.0
N64 N 0.73869 0.23748 0.15634 0.0
C65 C 0.72475 0.22333 0.20542 0.0
C66 C 0.70021 0.22301 0.20222 0.0
C67 C 0.69878 0.23729 0.14912 0.0
C68 C 0.72238 0.24549 0.12274 0.0
N69 N 0.77747 0.27397 0.0749 0.0
C70 C 0.75725 0.27854 0.05087 0.0
C71 C 0.76618 0.30178 0.01572 0.0
C72 C 0.79368 0.31235 0.01759 0.0
C73 C 0.80001 0.2947 0.05323 0.0
N74 N 0.75508 0.21783 0.06157 0.0
C75 C 0.72636 0.18169 0.95763 0.0
C76 C 0.74955 0.20659 0.94939 0.0
C77 C 0.76378 0.22427 0.00215 0.0
C78 C 0.71822 0.17486 0.01907 0.0
C79 C 0.73276 0.19326 0.07032 0.0
N80 N 0.79313 0.27074 0.20285 0.0
C81 C 0.80437 0.31387 0.2488 0.0
C82 C 0.82878 0.31662 0.27837 0.0
C83 C 0.83394 0.29509 0.27459 0.0
C84 C 0.81555 0.27202 0.23728 0.0
C85 C 0.78671 0.29062 0.211 0.0
H86 H 0.82038 0.25607 0.23279 0.0
H87 H 0.76881 0.2896 0.18504 0.0
H88 H 0.78155 0.24341 0.9945 0.0
H89 H 0.72556 0.18783 0.11668 0.0
C90 C 0.80572 0.20965 0.15184 0.0
C91 C 0.82708 0.29713 0.06328 0.0
C92 C 0.73272 0.20767 0.25154 0.0
C93 C 0.73177 0.26402 0.07315 0.0
H94 H 0.86818 0.28235 0.05115 0.0
H95 H 0.85543 0.23315 0.09468 0.0
H96 H 0.78689 0.16833 0.24635 0.0
H97 H 0.74896 0.16944 0.30541 0.0
H98 H 0.68475 0.21312 0.23428 0.0
H99 H 0.68277 0.24178 0.13279 0.0
H100 H 0.75443 0.31085 0.99439 0.0
H101 H 0.80735 0.33106 0.99577 0.0
H102 H 0.75641 0.21247 0.90248 0.0
H103 H 0.70009 0.1559 0.02702 0.0
H104 H 0.79978 0.33017 0.25182 0.0
H105 H 0.85253 0.29656 0.29832 0.0
C106 C 0.55848 0.75495 0.1601 0.0
C107 C 0.58322 0.76104 0.19421 0.0
C108 C 0.6027 0.78287 0.1656 0.0
C109 C 0.58881 0.78896 0.11607 0.0
N110 N 0.56154 0.77278 0.11241 0.0
Co111 Co 0.53372 0.77312 0.04483 0.0
N112 N 0.56249 0.80236 0.99676 0.0
C113 C 0.58969 0.81359 0.0109 0.0
C114 C 0.60424 0.83458 0.97189 0.0
C115 C 0.58526 0.8375 0.93181 0.0
C116 C 0.56014 0.81814 0.94899 0.0
N117 N 0.50597 0.77383 0.97749 0.0
C118 C 0.50904 0.79267 0.93223 0.0
C119 C 0.48418 0.78751 0.90039 0.0
C120 C 0.46475 0.76502 0.92723 0.0
C121 C 0.4787 0.75781 0.97406 0.0
N122 N 0.50495 0.7437 0.09274 0.0
C123 C 0.47778 0.7317 0.07669 0.0
C124 C 0.46314 0.7104 0.11474 0.0
C125 C 0.48206 0.70812 0.15654 0.0
C126 C 0.5073 0.72838 0.14181 0.0
N127 N 0.53275 0.80167 0.09355 0.0
C128 C 0.53163 0.84761 0.1333 0.0
C129 C 0.50755 0.82298 0.11967 0.0
C130 C 0.5086 0.80025 0.10044 0.0
C131 C 0.55624 0.84829 0.13233 0.0
C132 C 0.55632 0.82509 0.11336 0.0
N133 N 0.53469 0.74446 0.99611 0.0
C134 C 0.51098 0.69827 0.95352 0.0
C135 C 0.53531 0.69795 0.95822 0.0
C136 C 0.55948 0.7219 0.97636 0.0
C137 C 0.55872 0.74496 0.99379 0.0
C138 C 0.51116 0.72174 0.9722 0.0
H139 H 0.57779 0.76257 0.00737 0.0
H140 H 0.49198 0.72066 0.96911 0.0
H141 H 0.48965 0.7821 0.08916 0.0
H142 H 0.57569 0.82691 0.11285 0.0
C143 C 0.60081 0.8071 0.0673 0.0
C144 C 0.53289 0.73082 0.17168 0.0
C145 C 0.53481 0.81703 0.92243 0.0
C146 C 0.46679 0.73885 0.02131 0.0
H147 H 0.58684 0.75005 0.23386 0.0
H148 H 0.62447 0.79218 0.17725 0.0
H149 H 0.62606 0.84745 0.9751 0.0
H150 H 0.58942 0.85301 0.89622 0.0
H151 H 0.48026 0.79948 0.86391 0.0
H152 H 0.44298 0.75615 0.91683 0.0
H153 H 0.44136 0.6971 0.11027 0.0
H154 H 0.47765 0.69248 0.19179 0.0
H155 H 0.48805 0.82148 0.12185 0.0
H156 H 0.57538 0.86673 0.14566 0.0
H157 H 0.49184 0.68025 0.93764 0.0
H158 H 0.57888 0.72279 0.97757 0.0
C159 C 0.80932 0.5475 0.20747 0.0
C160 C 0.82878 0.57272 0.23495 0.0
C161 C 0.82692 0.59197 0.19723 0.0
C162 C 0.80641 0.57751 0.14936 0.0
N163 N 0.7951 0.55013 0.15385 0.0
Co164 Co 0.76351 0.52156 0.09652 0.0
N165 N 0.76057 0.54999 0.0417 0.0
C166 C 0.77712 0.57734 0.04778 0.0
C167 C 0.77102 0.59166 0.00123 0.0
C168 C 0.74928 0.57235 0.9629 0.0
C169 C 0.74321 0.54725 0.98878 0.0
N170 N 0.73137 0.49301 0.04042 0.0
C171 C 0.71594 0.49566 0.98943 0.0
C172 C 0.6946 0.47044 0.96636 0.0
C173 C 0.6969 0.45121 0.00327 0.0
C174 C 0.7192 0.46565 0.04704 0.0
N175 N 0.76697 0.49313 0.15033 0.0
C176 C 0.75191 0.46576 0.14098 0.0
C177 C 0.75925 0.45142 0.1849 0.0
C178 C 0.78026 0.47075 0.22487 0.0
C179 C 0.78442 0.49588 0.20311 0.0
N180 N 0.73849 0.52207 0.15394 0.0
C181 C 0.70365 0.5227 0.23785 0.0
C182 C 0.70175 0.49824 0.21945 0.0
C183 C 0.71916 0.49839 0.17793 0.0
C184 C 0.72325 0.54685 0.21298 0.0
C185 C 0.74026 0.54607 0.17143 0.0
N186 N 0.7885 0.52099 0.0389 0.0
C187 C 0.80001 0.49628 0.96853 0.0
C188 C 0.8232 0.52022 0.95455 0.0
C189 C 0.82866 0.54457 0.98379 0.0
C190 C 0.81121 0.54451 0.02521 0.0
C191 C 0.78324 0.4971 0.01062 0.0
H192 H 0.81663 0.56376 0.0457 0.0
H193 H 0.76611 0.47806 0.01933 0.0
H194 H 0.71657 0.47904 0.16594 0.0
H195 H 0.75477 0.56516 0.15427 0.0
C196 C 0.79766 0.58902 0.09889 0.0
C197 C 0.80517 0.52172 0.23431 0.0
C198 C 0.72056 0.52149 0.96158 0.0
C199 C 0.72981 0.45411 0.09335 0.0
H200 H 0.84284 0.57679 0.27796 0.0
H201 H 0.83903 0.6139 0.20395 0.0
H202 H 0.78111 0.61355 0.99595 0.0
H203 H 0.739 0.5763 0.92073 0.0
H204 H 0.67893 0.46623 0.92694 0.0
H205 H 0.68392 0.4293 0.99858 0.0
H206 H 0.75009 0.42949 0.18815 0.0
H207 H 0.79112 0.46677 0.26575 0.0
H208 H 0.68661 0.4789 0.23628 0.0
H209 H 0.72578 0.5664 0.22609 0.0
H210 H 0.79459 0.47687 0.94682 0.0
H211 H 0.84662 0.56366 0.9758 0.0
C212 C 0.2764 0.82231 0.19782 0.0
C213 C 0.27222 0.8437 0.21124 0.0
C214 C 0.25063 0.84074 0.16972 0.0
C215 C 0.24257 0.8176 0.13401 0.0
N216 N 0.25768 0.8055 0.15028 0.0
Co217 Co 0.25133 0.77009 0.114 0.0
N218 N 0.21883 0.7652 0.05516 0.0
C219 C 0.20984 0.78322 0.04562 0.0
C220 C 0.18649 0.77369 0.00382 0.0
C221 C 0.17995 0.74788 0.98645 0.0
C222 C 0.19976 0.74316 0.01887 0.0
N223 N 0.2443 0.73415 0.07967 0.0
C224 C 0.22241 0.7148 0.0425 0.0
C225 C 0.22452 0.69177 0.03368 0.0
C226 C 0.24839 0.6965 0.0676 0.0
C227 C 0.25935 0.72199 0.09512 0.0
N228 N 0.28416 0.77524 0.17184 0.0
C229 C 0.29534 0.759 0.17391 0.0
C230 C 0.31894 0.76859 0.21453 0.0
C231 C 0.3232 0.79242 0.24002 0.0
C232 C 0.30162 0.79589 0.21406 0.0
N233 N 0.22766 0.75023 0.18078 0.0
C234 C 0.18542 0.713 0.24835 0.0
C235 C 0.20843 0.71054 0.24626 0.0
C236 C 0.22944 0.72955 0.21281 0.0
C237 C 0.18529 0.73594 0.22214 0.0
C238 C 0.20659 0.7543 0.18926 0.0
N239 N 0.2747 0.78976 0.04532 0.0
C240 C 0.30578 0.79361 0.97143 0.0
C241 C 0.30565 0.81635 0.944 0.0
C242 C 0.28999 0.8257 0.96811 0.0
C243 C 0.27479 0.81221 0.01811 0.0
C244 C 0.29049 0.78088 0.02205 0.0
H245 H 0.2633 0.82046 0.03351 0.0
H246 H 0.29195 0.76401 0.04144 0.0
H247 H 0.24628 0.72644 0.21059 0.0
H248 H 0.20485 0.77084 0.16827 0.0
C249 C 0.22117 0.80688 0.08419 0.0
C250 C 0.29885 0.8193 0.2304 0.0
C251 C 0.19877 0.71694 0.01688 0.0
C252 C 0.28293 0.73453 0.13832 0.0
H253 H 0.28366 0.85992 0.24711 0.0
H254 H 0.24185 0.85389 0.16601 0.0
H255 H 0.17476 0.78369 0.99046 0.0
H256 H 0.16209 0.73376 0.95538 0.0
H257 H 0.20999 0.67322 0.00679 0.0
H258 H 0.25636 0.68266 0.07325 0.0
H259 H 0.33161 0.7594 0.22428 0.0
H260 H 0.34047 0.80575 0.27352 0.0
H261 H 0.20962 0.69336 0.26733 0.0
H262 H 0.16834 0.73922 0.22504 0.0
H263 H 0.31809 0.786 0.95485 0.0
H264 H 0.28932 0.84331 0.94816 0.0
C265 C 0.50491 0.22343 0.29527 0.0
C266 C 0.52994 0.22964 0.32779 0.0
C267 C 0.54898 0.25129 0.29772 0.0
C268 C 0.53447 0.25689 0.24872 0.0
N269 N 0.50729 0.24074 0.24708 0.0
Co270 Co 0.47848 0.23914 0.17989 0.0
N271 N 0.5064 0.26738 0.12849 0.0
C272 C 0.5337 0.28022 0.14288 0.0
C273 C 0.54742 0.30028 0.10112 0.0
C274 C 0.52771 0.30084 0.05861 0.0
C275 C 0.50302 0.2809 0.07688 0.0
N276 N 0.44966 0.23696 0.11213 0.0
C277 C 0.45197 0.25308 0.06139 0.0
C278 C 0.42696 0.2457 0.02704 0.0
C279 C 0.40799 0.22457 0.05854 0.0
C280 C 0.42252 0.22026 0.10995 0.0
N281 N 0.4506 0.21132 0.2319 0.0
C282 C 0.42331 0.19962 0.21986 0.0
C283 C 0.4097 0.17972 0.26221 0.0
C284 C 0.42947 0.17812 0.3024 0.0
C285 C 0.45399 0.1972 0.28203 0.0
N286 N 0.47738 0.26888 0.22505 0.0
C287 C 0.47607 0.31319 0.27866 0.0
C288 C 0.45224 0.29026 0.25292 0.0
C289 C 0.45331 0.26843 0.22724 0.0
C290 C 0.50054 0.31337 0.27839 0.0
C291 C 0.50075 0.29125 0.25136 0.0
N292 N 0.47951 0.20947 0.13466 0.0
C293 C 0.4564 0.16353 0.08951 0.0
C294 C 0.48095 0.16584 0.07796 0.0
C295 C 0.50478 0.1905 0.09457 0.0
C296 C 0.50361 0.21187 0.12272 0.0
C297 C 0.45613 0.18541 0.11731 0.0
H298 H 0.52249 0.23001 0.13503 0.0
H299 H 0.43674 0.18227 0.12474 0.0
H300 H 0.43437 0.25155 0.20888 0.0
H301 H 0.52011 0.29292 0.25157 0.0
C302 C 0.5457 0.27475 0.19917 0.0
C303 C 0.47972 0.19912 0.30651 0.0
C304 C 0.47695 0.27738 0.04853 0.0
C305 C 0.41123 0.20389 0.16185 0.0
H306 H 0.53404 0.21875 0.36696 0.0
H307 H 0.57081 0.26066 0.30783 0.0
H308 H 0.56911 0.31383 0.1033 0.0
H309 H 0.53119 0.31514 0.02037 0.0
H310 H 0.42284 0.25559 0.98558 0.0
H311 H 0.38616 0.21474 0.04762 0.0
H312 H 0.38799 0.16648 0.2609 0.0
H313 H 0.42625 0.16354 0.33998 0.0
H314 H 0.43273 0.28897 0.25328 0.0
H315 H 0.51955 0.33074 0.2979 0.0
H316 H 0.43734 0.14501 0.07633 0.0
H317 H 0.52432 0.19322 0.08667 0.0
C318 C 0.9857 0.44151 0.857 0.0
C319 C 0.0638 0.48546 0.77037 0.0
C320 C 0.04312 0.56759 0.74721 0.0
Mg321 Mg 0.00383 0.4512 0.71996 0.0
O322 O 1.00085 0.48238 0.73031 0.0
Mg323 Mg 0.02139 0.50703 0.80709 0.0
Mg324 Mg 0.01037 0.51023 0.66305 0.0
O325 O 0.01858 0.53804 0.59585 0.0
Mg326 Mg 0.01154 0.56662 0.60861 0.0
Mg327 Mg 0.99739 0.51285 0.51974 0.0
C328 C 0.97511 0.45237 0.58092 0.0
C329 C 0.0497 0.50551 0.56639 0.0
O330 O 0.99829 0.46755 0.86722 0.0
O331 O 0.98531 0.43076 0.80389 0.0
O332 O 0.05722 0.50001 0.8009 0.0
O333 O 0.04649 0.46558 0.73309 0.0
O334 O 0.98163 0.43917 0.62381 0.0
O335 O 0.98169 0.47734 0.58995 0.0
C336 C 0.97183 0.51739 0.75605 0.0
O337 O 0.97612 0.51605 0.69785 0.0
O338 O 0.98625 0.51458 0.80391 0.0
O339 O 0.01754 0.55181 0.46023 0.0
O340 O 0.02958 0.58791 0.52523 0.0
O341 O 0.96026 0.51785 0.52353 0.0
C342 C 0.02925 0.57768 0.47133 0.0
O343 O 0.96819 0.55131 0.59066 0.0
O344 O 0.03392 0.5791 0.70537 0.0
C345 C 0.95213 0.53167 0.55121 0.0
O346 O 0.03915 0.54342 0.73771 0.0
O347 O 0.04523 0.50469 0.62557 0.0
O348 O 0.03429 0.50821 0.5209 0.0
C349 C 0.47247 0.02298 0.79405 0.0
C350 C 0.43906 0.94729 0.68055 0.0
C351 C 0.54079 0.97393 0.66199 0.0
Mg352 Mg 0.45985 0.00706 0.64828 0.0
O353 O 0.4959 0.01455 0.66439 0.0
Mg354 Mg 0.50444 0.99356 0.73287 0.0
Mg355 Mg 0.51206 0.00818 0.59318 0.0
O356 O 0.52847 0.00236 0.52153 0.0
Mg357 Mg 0.56426 0.0091 0.5368 0.0
Mg358 Mg 0.52005 0.02413 0.45426 0.0
C359 C 0.48288 0.04132 0.52408 0.0
C360 C 0.46356 0.96982 0.48284 0.0
O361 O 0.48824 0.01267 0.80143 0.0
O362 O 0.45973 0.02294 0.73941 0.0
O363 O 0.46209 0.95565 0.71401 0.0
O364 O 0.43383 0.96345 0.64584 0.0
O365 O 0.46418 0.03102 0.56168 0.0
O366 O 0.50349 0.0377 0.53211 0.0
C367 C 0.56069 0.0465 0.70226 0.0
O368 O 0.55287 0.04199 0.6419 0.0
O369 O 0.54594 0.03136 0.74456 0.0
O370 O 0.53641 0.00691 0.38482 0.0
O371 O 0.56356 0.99407 0.44402 0.0
O372 O 0.56316 0.0622 0.47018 0.0
C373 C 0.55177 0.99625 0.38995 0.0
O374 O 0.59162 0.05267 0.53268 0.0
O375 O 0.55925 0.98396 0.62345 0.0
C376 C 0.58688 0.06941 0.49885 0.0
O377 O 0.52091 0.97879 0.65554 0.0
O378 O 0.47106 0.97393 0.54346 0.0
O379 O 0.4784 0.98563 0.44143 0.0
C380 C 0.53595 0.5815 0.44994 0.0
C381 C 0.57063 0.52891 0.50209 0.0
C382 C 0.46899 0.4518 0.54188 0.0
Mg383 Mg 0.55611 0.56431 0.57907 0.0
O384 O 0.51978 0.53637 0.57046 0.0
Mg385 Mg 0.50483 0.51426 0.48854 0.0
Mg386 Mg 0.50576 0.50652 0.63388 0.0
O387 O 0.49084 0.47682 0.69717 0.0
Mg388 Mg 0.45347 0.45115 0.68602 0.0
Mg389 Mg 0.50519 0.49928 0.77877 0.0
C390 C 0.54273 0.56063 0.72565 0.0
C391 C 0.55593 0.50304 0.71397 0.0
O392 O 0.51918 0.55606 0.43613 0.0
O393 O 0.55168 0.58942 0.50312 0.0
O394 O 0.54578 0.51648 0.47716 0.0
O395 O 0.57906 0.54712 0.54663 0.0
O396 O 0.55816 0.57327 0.68159 0.0
O397 O 0.52086 0.53752 0.71473 0.0
C398 C 0.4549 0.50938 0.55767 0.0
O399 O 0.46554 0.50602 0.61187 0.0
O400 O 0.46588 0.51285 0.50594 0.0
O401 O 0.48932 0.45784 0.83003 0.0
O402 O 0.45615 0.42556 0.7616 0.0
O403 O 0.46458 0.49804 0.79128 0.0
C404 C 0.47165 0.43279 0.81508 0.0
O405 O 0.43067 0.46849 0.72167 0.0
O406 O 0.45258 0.44037 0.58486 0.0
C407 C 0.43954 0.48607 0.76795 0.0
O408 O 0.49051 0.47535 0.55205 0.0
O409 O 0.54652 0.50683 0.65825 0.0
O410 O 0.5438 0.4997 0.76371 0.0
C411 C 0.17854 0.5089 0.43291 0.0
C412 C 0.16831 0.48993 0.3811 0.0
C413 C 0.16118 0.51088 0.47214 0.0
C414 C 0.13272 0.49345 0.45987 0.0
C415 C 0.12234 0.47346 0.40955 0.0
C416 C 0.14014 0.47199 0.37089 0.0
C417 C 0.17328 0.53247 0.5251 0.0
C418 C 0.09221 0.45437 0.39451 0.0
C419 C 0.08342 0.48823 0.57681 0.0
C420 C 0.07355 0.50466 0.54701 0.0
C421 C 0.10329 0.48488 0.55041 0.0
C422 C 0.11365 0.49844 0.4933 0.0
C423 C 0.10471 0.51615 0.46549 0.0
C424 C 0.0849 0.51893 0.49239 0.0
C425 C 0.11229 0.46592 0.58205 0.0
C426 C 0.11534 0.53154 0.4056 0.0
H427 H 0.20023 0.5225 0.44261 0.0
H428 H 0.13176 0.45737 0.33101 0.0
H429 H 0.16777 0.54843 0.51246 0.0
H430 H 0.16493 0.52353 0.5706 0.0
H431 H 0.19575 0.54235 0.53332 0.0
H432 H 0.08748 0.43813 0.35878 0.0
H433 H 0.08322 0.44466 0.43889 0.0
H434 H 0.08228 0.46611 0.37509 0.0
H435 H 0.07477 0.47707 0.61882 0.0
H436 H 0.07775 0.53202 0.46943 0.0
H437 H 0.13472 0.47561 0.58701 0.0
H438 H 0.10389 0.44722 0.55145 0.0
H439 H 0.10533 0.45989 0.63023 0.0
H440 H 0.13784 0.54345 0.41259 0.0
H441 H 0.10756 0.54575 0.39216 0.0
H442 H 0.10929 0.5169 0.36488 0.0
C443 C 0.71142 0.20086 0.35384 0.0
C444 C 0.71328 0.18993 0.29708 0.0
C445 C 0.69226 0.18431 0.39546 0.0
C446 C 0.67449 0.15625 0.37957 0.0
C447 C 0.67644 0.14526 0.32207 0.0
C448 C 0.69567 0.16225 0.28148 0.0
C449 C 0.6908 0.19687 0.45596 0.0
C450 C 0.65795 0.11554 0.30292 0.0
C451 C 0.637 0.10146 0.49819 0.0
C452 C 0.61015 0.09579 0.48146 0.0
C453 C 0.65857 0.12246 0.4688 0.0
C454 C 0.65326 0.13824 0.42146 0.0
C455 C 0.62663 0.13419 0.40861 0.0
C456 C 0.60548 0.11311 0.43873 0.0
C457 C 0.68666 0.12625 0.48481 0.0
C458 C 0.61998 0.15069 0.35923 0.0
H459 H 0.72486 0.22238 0.36536 0.0
H460 H 0.69686 0.15396 0.23699 0.0
H461 H 0.67059 0.1952 0.45443 0.0
H462 H 0.69316 0.18563 0.49836 0.0
H463 H 0.70664 0.21872 0.46264 0.0
H464 H 0.66248 0.11005 0.2575 0.0
H465 H 0.65995 0.10247 0.3414 0.0
H466 H 0.63651 0.1108 0.29673 0.0
H467 H 0.641 0.08837 0.53115 0.0
H468 H 0.58494 0.10914 0.42558 0.0
H469 H 0.70208 0.14822 0.4907 0.0
H470 H 0.6915 0.11779 0.44471 0.0
H471 H 0.68838 0.11573 0.52939 0.0
H472 H 0.63515 0.17271 0.36587 0.0
H473 H 0.59947 0.14789 0.36149 0.0
H474 H 0.62071 0.14428 0.31051 0.0
C475 C 0.54391 0.69312 0.18778 0.0
C476 C 0.53319 0.70826 0.21052 0.0
C477 C 0.54485 0.67211 0.22406 0.0
C478 C 0.53454 0.6659 0.28431 0.0
C479 C 0.52363 0.6812 0.30726 0.0
C480 C 0.52334 0.70236 0.27039 0.0
C481 C 0.55691 0.65661 0.19786 0.0
C482 C 0.51229 0.67524 0.37091 0.0
C483 C 0.5145 0.59628 0.35677 0.0
C484 C 0.53633 0.6026 0.40452 0.0
C485 C 0.51378 0.61655 0.31686 0.0
C486 C 0.53557 0.6438 0.32405 0.0
C487 C 0.55802 0.65013 0.37084 0.0
C488 C 0.55804 0.62958 0.41069 0.0
C489 C 0.48933 0.60893 0.26809 0.0
C490 C 0.58192 0.67875 0.37941 0.0
H491 H 0.55162 0.6978 0.14151 0.0
H492 H 0.51536 0.71432 0.28825 0.0
H493 H 0.57263 0.65643 0.23405 0.0
H494 H 0.54087 0.6351 0.18724 0.0
H495 H 0.5662 0.66553 0.15323 0.0
H496 H 0.50378 0.6884 0.38101 0.0
H497 H 0.49607 0.65358 0.37156 0.0
H498 H 0.52845 0.67842 0.41022 0.0
H499 H 0.49754 0.5756 0.3517 0.0
H500 H 0.57511 0.63472 0.44701 0.0
H501 H 0.49572 0.61459 0.21941 0.0
H502 H 0.47923 0.62048 0.27894 0.0
H503 H 0.47431 0.58678 0.26744 0.0
H504 H 0.59025 0.68605 0.33305 0.0
H505 H 0.59841 0.68009 0.41561 0.0
H506 H 0.57526 0.69278 0.39481 0.0
C507 C 0.85061 0.52975 0.28201 0.0
C508 C 0.82386 0.52192 0.29016 0.0
C509 C 0.86875 0.53031 0.33391 0.0
C510 C 0.85983 0.52279 0.39543 0.0
C511 C 0.83272 0.51484 0.40381 0.0
C512 C 0.81498 0.51452 0.35084 0.0
C513 C 0.89744 0.53879 0.32274 0.0
C514 C 0.82244 0.50645 0.4684 0.0
C515 C 0.90529 0.50216 0.4976 0.0
C516 C 0.92469 0.5271 0.52819 0.0
C517 C 0.88244 0.49965 0.45873 0.0
C518 C 0.87904 0.52273 0.44991 0.0
C519 C 0.89697 0.54707 0.48621 0.0
C520 C 0.91959 0.54893 0.52533 0.0
C521 C 0.8636 0.47308 0.4222 0.0
C522 C 0.89386 0.57202 0.47885 0.0
H523 H 0.85727 0.53541 0.2348 0.0
H524 H 0.79419 0.50847 0.35666 0.0
H525 H 0.91207 0.55639 0.35494 0.0
H526 H 0.90153 0.52181 0.33436 0.0
H527 H 0.90126 0.54458 0.27233 0.0
H528 H 0.80101 0.50149 0.46725 0.0
H529 H 0.82396 0.48831 0.48447 0.0
H530 H 0.83522 0.52303 0.50473 0.0
H531 H 0.9089 0.48504 0.50052 0.0
H532 H 0.93445 0.56823 0.54904 0.0
H533 H 0.8697 0.47448 0.37337 0.0
H534 H 0.84229 0.46869 0.4169 0.0
H535 H 0.86456 0.45572 0.44628 0.0
H536 H 0.90044 0.58144 0.43228 0.0
H537 H 0.90633 0.58748 0.51788 0.0
H538 H 0.87234 0.56648 0.47848 0.0
C539 C 0.32616 0.83542 0.33906 0.0
C540 C 0.32032 0.84128 0.27561 0.0
C541 C 0.34811 0.85531 0.37985 0.0
C542 C 0.36389 0.88199 0.3574 0.0
C543 C 0.35696 0.88838 0.29457 0.0
C544 C 0.33566 0.86782 0.25405 0.0
C545 C 0.35529 0.84736 0.4456 0.0
C546 C 0.37261 0.91676 0.26933 0.0
C547 C 0.41291 0.94152 0.47235 0.0
C548 C 0.43791 0.94546 0.45851 0.0
C549 C 0.38842 0.92043 0.44116 0.0
C550 C 0.38914 0.90256 0.39667 0.0
C551 C 0.41446 0.90563 0.38587 0.0
C552 C 0.43852 0.92736 0.41596 0.0
C553 C 0.36198 0.91836 0.45289 0.0
C554 C 0.41624 0.88653 0.34076 0.0
H555 H 0.31417 0.81491 0.35585 0.0
H556 H 0.33121 0.87238 0.20498 0.0
H557 H 0.37515 0.8482 0.44745 0.0
H558 H 0.35746 0.86194 0.48289 0.0
H559 H 0.33984 0.82646 0.4577 0.0
H560 H 0.36252 0.91925 0.22303 0.0
H561 H 0.37496 0.93213 0.30472 0.0
H562 H 0.39325 0.92118 0.26187 0.0
H563 H 0.41257 0.95578 0.50486 0.0
H564 H 0.45795 0.93046 0.40557 0.0
H565 H 0.34676 0.89701 0.46202 0.0
H566 H 0.35366 0.92467 0.40933 0.0
H567 H 0.36456 0.93154 0.49415 0.0
H568 H 0.40219 0.86499 0.35178 0.0
H569 H 0.43711 0.88968 0.34362 0.0
H570 H 0.41001 0.88981 0.29064 0.0
C571 C 0.48939 0.3474 0.36758 0.0
C572 C 0.47524 0.33639 0.30712 0.0
C573 C 0.48748 0.36815 0.39705 0.0
C574 C 0.47126 0.37839 0.36497 0.0
C575 C 0.4578 0.36812 0.30274 0.0
C576 C 0.45973 0.34703 0.2748 0.0
C577 C 0.50218 0.37852 0.46346 0.0
C578 C 0.44106 0.37912 0.26616 0.0
C579 C 0.44533 0.40725 0.48054 0.0
C580 C 0.4657 0.43483 0.48532 0.0
C581 C 0.44593 0.38894 0.43837 0.0
C582 C 0.46712 0.39847 0.39896 0.0
C583 C 0.48609 0.42674 0.39867 0.0
C584 C 0.48528 0.44457 0.44218 0.0
C585 C 0.4252 0.35899 0.44014 0.0
C586 C 0.50859 0.43801 0.35623 0.0
H587 H 0.50128 0.33914 0.39284 0.0
H588 H 0.44908 0.33883 0.22761 0.0
H589 H 0.51589 0.40092 0.46336 0.0
H590 H 0.48729 0.37444 0.4976 0.0
H591 H 0.51439 0.36882 0.4813 0.0
H592 H 0.43391 0.37071 0.21615 0.0
H593 H 0.42312 0.37394 0.29099 0.0
H594 H 0.45312 0.4017 0.26477 0.0
H595 H 0.42987 0.39944 0.51294 0.0
H596 H 0.50096 0.46585 0.4447 0.0
H597 H 0.43526 0.34775 0.46235 0.0
H598 H 0.41636 0.35037 0.39084 0.0
H599 H 0.40847 0.35525 0.4682 0.0
H600 H 0.52607 0.4366 0.38111 0.0
H601 H 0.51561 0.4598 0.34613 0.0
H602 H 0.50213 0.4264 0.30994 0.0
C603 C 0.54568 0.8659 0.92205 0.0
C604 C 0.53551 0.84108 0.88848 0.0
C605 C 0.54722 0.88901 0.89072 0.0
C606 C 0.53797 0.88715 0.82431 0.0
C607 C 0.52754 0.86198 0.79043 0.0
C608 C 0.52677 0.83939 0.82271 0.0
C609 C 0.55849 0.91528 0.92898 0.0
C610 C 0.51732 0.85895 0.71984 0.0
C611 C 0.51905 0.93814 0.74438 0.0
C612 C 0.54145 0.9543 0.7109 0.0
C613 C 0.51808 0.91697 0.78366 0.0
C614 C 0.53992 0.91158 0.7894 0.0
C615 C 0.56314 0.92871 0.75844 0.0
C616 C 0.56362 0.94974 0.71971 0.0
C617 C 0.493 0.89954 0.81621 0.0
C618 C 0.5872 0.92425 0.76457 0.0
H619 H 0.55251 0.86722 0.97296 0.0
H620 H 0.51931 0.82033 0.79654 0.0
H621 H 0.57253 0.93297 0.90215 0.0
H622 H 0.54156 0.91852 0.93797 0.0
H623 H 0.56951 0.91491 0.97593 0.0
H624 H 0.50912 0.83786 0.70084 0.0
H625 H 0.50111 0.86444 0.71143 0.0
H626 H 0.53402 0.87317 0.6922 0.0
H627 H 0.50176 0.94131 0.73812 0.0
H628 H 0.58118 0.96215 0.69475 0.0
H629 H 0.48122 0.91004 0.82037 0.0
H630 H 0.49822 0.89399 0.86492 0.0
H631 H 0.47985 0.88035 0.78753 0.0
H632 H 0.59422 0.9237 0.81595 0.0
H633 H 0.60445 0.94042 0.74126 0.0
H634 H 0.58115 0.90424 0.74213 0.0
C635 C 0.68406 0.53233 0.92417 0.0
C636 C 0.70034 0.52169 0.91031 0.0
C637 C 0.66315 0.53054 0.87879 0.0
C638 C 0.65816 0.51735 0.81847 0.0
C639 C 0.67551 0.50783 0.80305 0.0
C640 C 0.69658 0.51025 0.84924 0.0
C641 C 0.6454 0.54134 0.89695 0.0
C642 C 0.67086 0.49365 0.73947 0.0
C643 C 0.58332 0.48329 0.76376 0.0
C644 C 0.58176 0.50296 0.72395 0.0
C645 C 0.60841 0.48648 0.78986 0.0
C646 C 0.63253 0.51021 0.77661 0.0
C647 C 0.6311 0.52884 0.73138 0.0
C648 C 0.60554 0.52492 0.7052 0.0
C649 C 0.60892 0.46575 0.83662 0.0
C650 C 0.6563 0.55421 0.71529 0.0
H651 H 0.68719 0.5413 0.97141 0.0
H652 H 0.70946 0.50228 0.83864 0.0
H653 H 0.643 0.55417 0.85839 0.0
H654 H 0.6249 0.52403 0.90281 0.0
H655 H 0.65379 0.55364 0.94252 0.0
H656 H 0.68859 0.49172 0.73059 0.0
H657 H 0.65292 0.47288 0.73904 0.0
H658 H 0.66653 0.50477 0.69944 0.0
H659 H 0.56481 0.4662 0.77779 0.0
H660 H 0.60427 0.54019 0.67458 0.0
H661 H 0.61445 0.47454 0.88619 0.0
H662 H 0.6244 0.46046 0.82686 0.0
H663 H 0.5889 0.44672 0.83451 0.0
H664 H 0.66298 0.56993 0.75386 0.0
H665 H 0.65248 0.5627 0.66919 0.0
H666 H 0.67315 0.55007 0.71225 0.0
C667 C 0.15423 0.67422 0.02165 0.0
C668 C 0.17439 0.69275 0.98535 0.0
C669 C 0.13117 0.65107 0.99223 0.0
C670 C 0.12844 0.64651 0.92511 0.0
C671 C 0.14913 0.66515 0.88871 0.0
C672 C 0.17187 0.68807 0.91936 0.0
C673 C 0.10967 0.63169 0.0327 0.0
C674 C 0.14707 0.66108 0.81712 0.0
C675 C 0.08123 0.57906 0.83522 0.0
C676 C 0.06126 0.58431 0.80402 0.0
C677 C 0.10236 0.59833 0.87882 0.0
C678 C 0.10341 0.62331 0.89149 0.0
C679 C 0.08194 0.62753 0.86454 0.0
C680 C 0.06118 0.60801 0.82114 0.0
C681 C 0.12464 0.59281 0.90705 0.0
C682 C 0.08197 0.65364 0.87743 0.0
H683 H 0.15652 0.67796 0.07295 0.0
H684 H 0.18773 0.70246 0.89184 0.0
H685 H 0.09009 0.63075 0.01602 0.0
H686 H 0.10645 0.61079 0.02725 0.0
H687 H 0.11515 0.63785 0.08442 0.0
H688 H 0.16529 0.67697 0.79626 0.0
H689 H 0.14442 0.64078 0.80626 0.0
H690 H 0.12899 0.6616 0.79301 0.0
H691 H 0.08144 0.56078 0.82244 0.0
H692 H 0.04557 0.61203 0.79803 0.0
H693 H 0.13158 0.60026 0.9577 0.0
H694 H 0.14229 0.60381 0.87948 0.0
H695 H 0.11795 0.57071 0.90487 0.0
H696 H 0.08654 0.65883 0.92956 0.0
H697 H 0.06223 0.65227 0.85976 0.0
H698 H 0.09808 0.67065 0.85305 0.0
C699 C 0.46519 0.11597 0.06525 0.0
C700 C 0.48143 0.14293 0.04679 0.0
C701 C 0.46391 0.09399 0.03288 0.0
C702 C 0.47884 0.09906 0.98005 0.0
C703 C 0.49598 0.12629 0.96264 0.0
C704 C 0.49716 0.14789 0.99642 0.0
C705 C 0.44579 0.06532 0.0537 0.0
C706 C 0.51208 0.13259 0.90627 0.0
C707 C 0.49027 0.04635 0.90303 0.0
C708 C 0.47118 0.03839 0.84808 0.0
C709 C 0.49213 0.06504 0.94858 0.0
C710 C 0.47458 0.07607 0.93869 0.0
C711 C 0.4542 0.06679 0.88551 0.0
C712 C 0.45268 0.04802 0.84114 0.0
C713 C 0.51382 0.0741 0.00531 0.0
C714 C 0.43499 0.07793 0.87321 0.0
H715 H 0.45319 0.11204 0.10461 0.0
H716 H 0.50955 0.16864 0.98155 0.0
H717 H 0.4278 0.05472 0.01736 0.0
H718 H 0.45661 0.05353 0.05711 0.0
H719 H 0.43864 0.06503 0.10079 0.0
H720 H 0.5258 0.15484 0.90165 0.0
H721 H 0.52442 0.12237 0.91108 0.0
H722 H 0.49799 0.12457 0.86127 0.0
H723 H 0.50463 0.03902 0.90902 0.0
H724 H 0.43762 0.0418 0.79934 0.0
H725 H 0.50533 0.07403 0.05017 0.0
H726 H 0.53003 0.09532 0.99861 0.0
H727 H 0.52314 0.06088 0.01123 0.0
H728 H 0.4249 0.0761 0.91649 0.0
H729 H 0.41912 0.06724 0.83221 0.0
H730 H 0.44658 0.09994 0.8626 0.0
C731 C 0.33615 0.50739 0.9623 0.0
C732 C 0.32828 0.48843 0.01177 0.0
C733 C 0.35341 0.50814 0.91858 0.0
C734 C 0.36331 0.48955 0.92404 0.0
C735 C 0.35524 0.47019 0.9734 0.0
C736 C 0.33788 0.46983 0.01634 0.0
C737 C 0.36122 0.52901 0.86667 0.0
C738 C 0.36532 0.45004 0.98154 0.0
C739 C 0.39182 0.47447 0.78406 0.0
C740 C 0.41998 0.48988 0.80201 0.0
C741 C 0.37318 0.47482 0.82199 0.0
C742 C 0.38277 0.49084 0.87973 0.0
C743 C 0.41116 0.50733 0.89656 0.0
C744 C 0.42928 0.50671 0.85765 0.0
C745 C 0.34318 0.45718 0.8014 0.0
C746 C 0.42248 0.5249 0.95719 0.0
H747 H 0.3286 0.5216 0.95727 0.0
H748 H 0.33231 0.45527 0.05452 0.0
H749 H 0.38353 0.5428 0.87249 0.0
H750 H 0.3556 0.51869 0.81882 0.0
H751 H 0.35126 0.54154 0.86754 0.0
H752 H 0.35672 0.43584 0.02113 0.0
H753 H 0.35993 0.4379 0.9364 0.0
H754 H 0.38777 0.46114 0.99173 0.0
H755 H 0.38423 0.46136 0.74141 0.0
H756 H 0.45089 0.51876 0.87236 0.0
H757 H 0.33281 0.4693 0.80199 0.0
H758 H 0.33421 0.44052 0.8358 0.0
H759 H 0.33895 0.44798 0.75256 0.0
H760 H 0.41382 0.53858 0.9581 0.0
H761 H 0.44496 0.53758 0.962 0.0
H762 H 0.41661 0.51178 0.99959 0.0
C763 C 0.85155 0.32769 0.97553 0.0
C764 C 0.85135 0.32107 0.04048 0.0
C765 C 0.87487 0.34903 0.95275 0.0
C766 C 0.89905 0.3634 0.99539 0.0
C767 C 0.89908 0.35649 0.06099 0.0
C768 C 0.87515 0.33554 0.08281 0.0
C769 C 0.87375 0.35581 0.8826 0.0
C770 C 0.92451 0.37073 0.10775 0.0
C771 C 0.96195 0.39607 0.90794 0.0
C772 C 0.96753 0.42315 0.90348 0.0
C773 C 0.9409 0.37686 0.94166 0.0
C774 C 0.92443 0.38468 0.97003 0.0
C775 C 0.93079 0.41231 0.96826 0.0
C776 C 0.95248 0.43129 0.9357 0.0
C777 C 0.93539 0.34784 0.9439 0.0
C778 C 0.91348 0.42144 0.99661 0.0
H779 H 0.83352 0.31583 0.94219 0.0
H780 H 0.87515 0.32996 0.13276 0.0
H781 H 0.88119 0.37795 0.87743 0.0
H782 H 0.88721 0.35099 0.85877 0.0
H783 H 0.85288 0.34427 0.85704 0.0
H784 H 0.93109 0.39273 0.1118 0.0
H785 H 0.92152 0.36199 0.15632 0.0
H786 H 0.94121 0.36922 0.08997 0.0
H787 H 0.97353 0.38966 0.88321 0.0
H788 H 0.95641 0.45209 0.93166 0.0
H789 H 0.91632 0.33448 0.91279 0.0
H790 H 0.93261 0.34023 0.99344 0.0
H791 H 0.95206 0.34587 0.92724 0.0
H792 H 0.89312 0.41206 0.96834 0.0
H793 H 0.92249 0.44397 0.99657 0.0
H794 H 0.91051 0.41449 0.04657 0.0
C795 C 0.85533 0.54116 0.87033 0.0
C796 C 0.84203 0.51968 0.91186 0.0
C797 C 0.87482 0.54192 0.83409 0.0
C798 C 0.88111 0.52064 0.83913 0.0
C799 C 0.86674 0.49821 0.87824 0.0
C800 C 0.84756 0.49808 0.91431 0.0
C801 C 0.88966 0.56618 0.79298 0.0
C802 C 0.87272 0.47501 0.88487 0.0
C803 C 0.92522 0.51192 0.72995 0.0
C804 C 0.94968 0.52195 0.77057 0.0
C805 C 0.90284 0.51247 0.75001 0.0
C806 C 0.90524 0.52352 0.81168 0.0
C807 C 0.93054 0.53539 0.85057 0.0
C808 C 0.95232 0.53435 0.82967 0.0
C809 C 0.87629 0.49977 0.70684 0.0
C810 C 0.9343 0.54792 0.91604 0.0
H811 H 0.85084 0.55767 0.86686 0.0
H812 H 0.83771 0.48151 0.94655 0.0
H813 H 0.91094 0.57881 0.81517 0.0
H814 H 0.89033 0.55942 0.74463 0.0
H815 H 0.88008 0.57917 0.78757 0.0
H816 H 0.85771 0.45769 0.91099 0.0
H817 H 0.87279 0.46747 0.83688 0.0
H818 H 0.89319 0.48237 0.91149 0.0
H819 H 0.92311 0.50237 0.68415 0.0
H820 H 0.97136 0.54261 0.86079 0.0
H821 H 0.86645 0.51241 0.70676 0.0
H822 H 0.86229 0.47949 0.72513 0.0
H823 H 0.87903 0.49697 0.65668 0.0
H824 H 0.92697 0.5628 0.91289 0.0
H825 H 0.95585 0.55848 0.93761 0.0
H826 H 0.92213 0.53175 0.94886 0.0
C827 C 0.32238 0.81722 0.83835 0.0
C828 C 0.32268 0.83115 0.89265 0.0
C829 C 0.3387 0.8314 0.78981 0.0
C830 C 0.35601 0.85998 0.79678 0.0
C831 C 0.35621 0.87406 0.85151 0.0
C832 C 0.33942 0.85948 0.89849 0.0
C833 C 0.33769 0.81582 0.73173 0.0
C834 C 0.37461 0.90453 0.86129 0.0
C835 C 0.42263 0.90222 0.73179 0.0
C836 C 0.41686 0.91956 0.69193 0.0
C837 C 0.40216 0.88035 0.76122 0.0
C838 C 0.37527 0.87553 0.74956 0.0
C839 C 0.36872 0.89032 0.70185 0.0
C840 C 0.38969 0.91233 0.67355 0.0
C841 C 0.41011 0.86491 0.81107 0.0
C842 C 0.34009 0.88508 0.68613 0.0
H843 H 0.30922 0.79529 0.83367 0.0
H844 H 0.33984 0.8702 0.94078 0.0
H845 H 0.33511 0.8258 0.68704 0.0
H846 H 0.35713 0.81589 0.73254 0.0
H847 H 0.32092 0.79431 0.72996 0.0
H848 H 0.37208 0.91232 0.90628 0.0
H849 H 0.39612 0.90975 0.8631 0.0
H850 H 0.37037 0.91534 0.82036 0.0
H851 H 0.44349 0.90712 0.74461 0.0
H852 H 0.38492 0.92518 0.64145 0.0
H853 H 0.39429 0.84309 0.81075 0.0
H854 H 0.41256 0.87378 0.85936 0.0
H855 H 0.42962 0.8663 0.80347 0.0
H856 H 0.32517 0.86296 0.68633 0.0
H857 H 0.33722 0.89315 0.63856 0.0
H858 H 0.3357 0.8954 0.72308 0.0
C859 C 0.46601 0.31472 0.05001 0.0
C860 C 0.47548 0.30058 0.01761 0.0
C861 C 0.46444 0.33681 0.02179 0.0
C862 C 0.47276 0.34488 0.96004 0.0
C863 C 0.48232 0.33051 0.92723 0.0
C864 C 0.48334 0.3083 0.95633 0.0
C865 C 0.45392 0.35146 0.05794 0.0
C866 C 0.4915 0.33862 0.86147 0.0
C867 C 0.44789 0.38484 0.8521 0.0
C868 C 0.47057 0.41117 0.85843 0.0
C869 C 0.44786 0.36328 0.88723 0.0
C870 C 0.47122 0.36813 0.92899 0.0
C871 C 0.49377 0.39486 0.93756 0.0
C872 C 0.4931 0.41614 0.90246 0.0
C873 C 0.42325 0.33512 0.87774 0.0
C874 C 0.51911 0.40073 0.98133 0.0
H875 H 0.4599 0.30848 0.09752 0.0
H876 H 0.4904 0.29702 0.93147 0.0
H877 H 0.46999 0.37302 0.06765 0.0
H878 H 0.43656 0.3516 0.0284 0.0
H879 H 0.44724 0.34188 0.10434 0.0
H880 H 0.49897 0.32571 0.84324 0.0
H881 H 0.47445 0.33695 0.82689 0.0
H882 H 0.50799 0.36023 0.86296 0.0
H883 H 0.43031 0.38093 0.81858 0.0
H884 H 0.51076 0.43641 0.90737 0.0
H885 H 0.41676 0.32629 0.9248 0.0
H886 H 0.42843 0.32146 0.85378 0.0
H887 H 0.40589 0.33524 0.84801 0.0
H888 H 0.51396 0.39278 0.02977 0.0
H889 H 0.53411 0.42289 0.98609 0.0
H890 H 0.52879 0.39012 0.96213 0.0
C891 C 0.16734 0.48475 0.00941 0.0
C892 C 0.19395 0.49234 0.00098 0.0
C893 C 0.14961 0.48521 0.95828 0.0
C894 C 0.15897 0.49379 0.89751 0.0
C895 C 0.18596 0.50147 0.88874 0.0
C896 C 0.20325 0.50061 0.94101 0.0
C897 C 0.1209 0.47671 0.96964 0.0
C898 C 0.19664 0.51107 0.82492 0.0
C899 C 0.09721 0.4692 0.77799 0.0
C900 C 0.09173 0.49048 0.78412 0.0
C901 C 0.12136 0.47128 0.80834 0.0
C902 C 0.1402 0.49523 0.84474 0.0
C903 C 0.13654 0.5182 0.84239 0.0
C904 C 0.11215 0.51548 0.81231 0.0
C905 C 0.12485 0.44654 0.80853 0.0
C906 C 0.15655 0.54446 0.87879 0.0
H907 H 0.16047 0.47843 0.05626 0.0
H908 H 0.22402 0.5065 0.93532 0.0
H909 H 0.1172 0.4941 0.96114 0.0
H910 H 0.1062 0.45991 0.93555 0.0
H911 H 0.11675 0.46973 0.01928 0.0
H912 H 0.2169 0.51304 0.82403 0.0
H913 H 0.18238 0.49683 0.78551 0.0
H914 H 0.1984 0.53126 0.81502 0.0
H915 H 0.08168 0.45002 0.75488 0.0
H916 H 0.10831 0.53232 0.81515 0.0
H917 H 0.11821 0.43527 0.85323 0.0
H918 H 0.14642 0.45248 0.80755 0.0
H919 H 0.11246 0.43252 0.76697 0.0
H920 H 0.15216 0.54268 0.92938 0.0
H921 H 0.15494 0.56201 0.85801 0.0
H922 H 0.1777 0.54879 0.87893 0.0
C923 C 0.69926 0.13569 0.90472 0.0
C924 C 0.70908 0.1638 0.90211 0.0
C925 C 0.67822 0.11776 0.85953 0.0
C926 C 0.6666 0.12832 0.81159 0.0
C927 C 0.67832 0.15683 0.80488 0.0
C928 C 0.69958 0.17435 0.85043 0.0
C929 C 0.66683 0.08744 0.86665 0.0
C930 C 0.66676 0.16873 0.75348 0.0
C931 C 0.61004 0.07661 0.69291 0.0
C932 C 0.58746 0.06959 0.72495 0.0
C933 C 0.63614 0.09644 0.71915 0.0
C934 C 0.63935 0.10971 0.77808 0.0
C935 C 0.61632 0.10355 0.80884 0.0
C936 C 0.59068 0.08339 0.7821 0.0
C937 C 0.66011 0.10265 0.68443 0.0
C938 C 0.61882 0.11743 0.87152 0.0
H939 H 0.70705 0.12766 0.94413 0.0
H940 H 0.7073 0.19615 0.84837 0.0
H941 H 0.64702 0.07853 0.88605 0.0
H942 H 0.66322 0.07737 0.81925 0.0
H943 H 0.68057 0.08275 0.89967 0.0
H944 H 0.68058 0.19094 0.74853 0.0
H945 H 0.66276 0.15823 0.70652 0.0
H946 H 0.64711 0.16562 0.76577 0.0
H947 H 0.60753 0.06565 0.64923 0.0
H948 H 0.57311 0.07807 0.80653 0.0
H949 H 0.65517 0.08607 0.64946 0.0
H950 H 0.67788 0.10576 0.71847 0.0
H951 H 0.66611 0.12172 0.65765 0.0
H952 H 0.63016 0.11184 0.90992 0.0
H953 H 0.59874 0.11164 0.88664 0.0
H954 H 0.6304 0.13992 0.86727 0.0
C955 C 0.55069 0.66416 0.9839 0.0
C956 C 0.53578 0.67312 0.94232 0.0
C957 C 0.55336 0.64204 0.96636 0.0
C958 C 0.5414 0.62929 0.90528 0.0
C959 C 0.52514 0.63743 0.86468 0.0
C960 C 0.5224 0.65919 0.88402 0.0
C961 C 0.56999 0.63337 0.01196 0.0
C962 C 0.51184 0.6242 0.79916 0.0
C963 C 0.56963 0.6022 0.79598 0.0
C964 C 0.54813 0.57528 0.78721 0.0
C965 C 0.56971 0.61968 0.84148 0.0
C966 C 0.54801 0.60969 0.87936 0.0
C967 C 0.52904 0.58149 0.87852 0.0
C968 C 0.52918 0.56452 0.83184 0.0
C969 C 0.59084 0.64957 0.8424 0.0
C970 C 0.50658 0.56984 0.92107 0.0
H971 H 0.56062 0.67476 0.02966 0.0
H972 H 0.51088 0.66621 0.85211 0.0
H973 H 0.56259 0.61121 0.00683 0.0
H974 H 0.59139 0.64463 0.00156 0.0
H975 H 0.56969 0.63817 0.06258 0.0
H976 H 0.49927 0.6325 0.77457 0.0
H977 H 0.52762 0.62747 0.76839 0.0
H978 H 0.49869 0.60188 0.80345 0.0
H979 H 0.58496 0.61047 0.76319 0.0
H980 H 0.51299 0.5435 0.82701 0.0
H981 H 0.59831 0.65776 0.89237 0.0
H982 H 0.58158 0.66114 0.81773 0.0
H983 H 0.60842 0.65326 0.81767 0.0
H984 H 0.51332 0.58095 0.96813 0.0
H985 H 0.4993 0.54786 0.92934 0.0
H986 H 0.48921 0.57175 0.89741 0.0
C987 C 0.48441 0.17159 0.39714 0.0
C988 C 0.48027 0.17462 0.33119 0.0
C989 C 0.4851 0.14845 0.42094 0.0
C990 C 0.48151 0.12797 0.37746 0.0
C991 C 0.47763 0.13122 0.3105 0.0
C992 C 0.47688 0.15454 0.28815 0.0
C993 C 0.48946 0.14583 0.49266 0.0
C994 C 0.47362 0.10996 0.26236 0.0
C995 C 0.50558 0.0808 0.45268 0.0
C996 C 0.48171 0.06015 0.47473 0.0
C997 C 0.50555 0.10231 0.41718 0.0
C998 C 0.48106 0.10293 0.40305 0.0
C999 C 0.45653 0.08088 0.42018 0.0
C1000 C 0.45717 0.05981 0.45614 0.0
C1001 C 0.53199 0.12527 0.39847 0.0
C1002 C 0.42988 0.08043 0.40419 0.0
H1003 H 0.48705 0.18734 0.42993 0.0
H1004 H 0.47369 0.15714 0.23699 0.0
H1005 H 0.4716 0.12748 0.50844 0.0
H1006 H 0.50736 0.14314 0.5054 0.0
H1007 H 0.49268 0.16393 0.51971 0.0
H1008 H 0.47859 0.11878 0.21442 0.0
H1009 H 0.48628 0.10055 0.27801 0.0
H1010 H 0.45206 0.09352 0.25732 0.0
H1011 H 0.52461 0.08115 0.46665 0.0
H1012 H 0.43856 0.04365 0.47213 0.0
H1013 H 0.53792 0.14403 0.42673 0.0
H1014 H 0.52963 0.12981 0.347 0.0
H1015 H 0.54866 0.12045 0.40713 0.0
H1016 H 0.43007 0.09673 0.43248 0.0
H1017 H 0.41232 0.06056 0.41489 0.0
H1018 H 0.42698 0.0846 0.35266 0.0
C1019 C 0.32236 0.47398 0.37522 0.0
C1020 C 0.30607 0.48427 0.391 0.0
C1021 C 0.34377 0.47618 0.41891 0.0
C1022 C 0.34927 0.4896 0.47912 0.0
C1023 C 0.33149 0.49807 0.4972 0.0
C1024 C 0.3098 0.49509 0.45271 0.0
C1025 C 0.36191 0.46629 0.39822 0.0
C1026 C 0.33663 0.51236 0.56088 0.0
C1027 C 0.40664 0.48603 0.57768 0.0
C1028 C 0.42863 0.50812 0.55296 0.0
C1029 C 0.38017 0.48109 0.55968 0.0
C1030 C 0.37607 0.4988 0.51638 0.0
C1031 C 0.3986 0.52285 0.49757 0.0
C1032 C 0.42469 0.52704 0.51553 0.0
C1033 C 0.35661 0.4555 0.58135 0.0
C1034 C 0.39508 0.54263 0.45266 0.0
H1035 H 0.31914 0.46544 0.32741 0.0
H1036 H 0.2968 0.50272 0.46462 0.0
H1037 H 0.38159 0.48409 0.3887 0.0
H1038 H 0.36617 0.45456 0.43678 0.0
H1039 H 0.35275 0.45318 0.35393 0.0
H1040 H 0.31772 0.51063 0.57477 0.0
H1041 H 0.34526 0.50407 0.59955 0.0
H1042 H 0.3515 0.53434 0.55706 0.0
H1043 H 0.40983 0.47133 0.60619 0.0
H1044 H 0.44193 0.5443 0.49727 0.0
H1045 H 0.3475 0.43994 0.54168 0.0
H1046 H 0.34059 0.45956 0.59356 0.0
H1047 H 0.36306 0.44684 0.62364 0.0
H1048 H 0.38793 0.53345 0.40339 0.0
H1049 H 0.41438 0.56221 0.4511 0.0
H1050 H 0.37959 0.54697 0.46737 0.0
C1051 C 0.87423 0.35769 0.28385 0.0
C1052 C 0.84973 0.34239 0.30994 0.0
C1053 C 0.89599 0.38031 0.31751 0.0
C1054 C 0.89315 0.38705 0.37923 0.0
C1055 C 0.86771 0.37274 0.40357 0.0
C1056 C 0.84611 0.35054 0.36814 0.0
C1057 C 0.92244 0.39547 0.28884 0.0
C1058 C 0.86394 0.37942 0.46923 0.0
C1059 C 0.95145 0.41059 0.51068 0.0
C1060 C 0.95779 0.43753 0.52185 0.0
C1061 C 0.93134 0.39438 0.46182 0.0
C1062 C 0.91745 0.4055 0.4229 0.0
C1063 C 0.9252 0.43327 0.43038 0.0
C1064 C 0.94531 0.44901 0.4801 0.0
C1065 C 0.92386 0.36487 0.45449 0.0
C1066 C 0.91147 0.44594 0.38772 0.0
H1067 H 0.87665 0.35136 0.2381 0.0
H1068 H 0.82693 0.33857 0.38756 0.0
H1069 H 0.93441 0.4171 0.30574 0.0
H1070 H 0.93477 0.38557 0.30299 0.0
H1071 H 0.91882 0.39479 0.23558 0.0
H1072 H 0.8423 0.36829 0.4781 0.0
H1073 H 0.87568 0.37383 0.50651 0.0
H1074 H 0.87177 0.40163 0.47496 0.0
H1075 H 0.96132 0.40169 0.54198 0.0
H1076 H 0.95028 0.46986 0.4879 0.0
H1077 H 0.92476 0.36022 0.40427 0.0
H1078 H 0.90271 0.3514 0.46538 0.0
H1079 H 0.93748 0.35978 0.48683 0.0
H1080 H 0.91252 0.44268 0.33658 0.0
H1081 H 0.92081 0.46818 0.39776 0.0
H1082 H 0.88968 0.43588 0.39455 0.0
C1083 C 0.54838 0.8973 0.12376 0.0
C1084 C 0.53147 0.8724 0.15103 0.0
C1085 C 0.55179 0.92175 0.14751 0.0
C1086 C 0.53832 0.92101 0.20028 0.0
C1087 C 0.5195 0.89569 0.22437 0.0
C1088 C 0.51623 0.87158 0.19913 0.0
C1089 C 0.57135 0.94831 0.11939 0.0
C1090 C 0.5046 0.89412 0.28052 0.0
C1091 C 0.57062 0.97202 0.33687 0.0
C1092 C 0.5533 0.98296 0.33284 0.0
C1093 C 0.56764 0.95355 0.28998 0.0
C1094 C 0.54699 0.94616 0.23776 0.0
C1095 C 0.53177 0.95968 0.22923 0.0
C1096 C 0.53504 0.97798 0.27723 0.0
C1097 C 0.58464 0.93985 0.30009 0.0
C1098 C 0.51028 0.95296 0.1728 0.0
H1099 H 0.55975 0.89773 0.08559 0.0
H1100 H 0.50313 0.85225 0.21997 0.0
H1101 H 0.56416 0.96327 0.11892 0.0
H1102 H 0.59134 0.95727 0.14919 0.0
H1103 H 0.57434 0.94525 0.0697 0.0
H1104 H 0.48892 0.87287 0.28941 0.0
H1105 H 0.51928 0.90242 0.32454 0.0
H1106 H 0.49463 0.90666 0.27214 0.0
H1107 H 0.58529 0.9764 0.37889 0.0
H1108 H 0.52194 0.98681 0.27311 0.0
H1109 H 0.59302 0.93966 0.2553 0.0
H1110 H 0.57173 0.91833 0.31322 0.0
H1111 H 0.60174 0.95011 0.33888 0.0
H1112 H 0.51679 0.9492 0.12837 0.0
H1113 H 0.50538 0.9696 0.16447 0.0
H1114 H 0.49145 0.93411 0.18245 0.0
C1115 C 0.67423 0.54031 0.27131 0.0
C1116 C 0.68512 0.52291 0.28194 0.0
C1117 C 0.65628 0.5403 0.31148 0.0
C1118 C 0.64886 0.52237 0.3636 0.0
C1119 C 0.65994 0.50493 0.37506 0.0
C1120 C 0.67795 0.50544 0.33424 0.0
C1121 C 0.64492 0.55922 0.29749 0.0
C1122 C 0.65259 0.48556 0.43012 0.0
C1123 C 0.61853 0.54031 0.49292 0.0
C1124 C 0.59059 0.52429 0.47323 0.0
C1125 C 0.63775 0.53913 0.45927 0.0
C1126 C 0.62888 0.52145 0.40469 0.0
C1127 C 0.60073 0.50414 0.3868 0.0
C1128 C 0.58197 0.50573 0.42126 0.0
C1129 C 0.66757 0.55781 0.48026 0.0
C1130 C 0.59039 0.48475 0.32942 0.0
H1131 H 0.67929 0.55361 0.23063 0.0
H1132 H 0.68656 0.49222 0.34357 0.0
H1133 H 0.62252 0.54714 0.28649 0.0
H1134 H 0.64943 0.57237 0.34037 0.0
H1135 H 0.65334 0.5725 0.25635 0.0
H1136 H 0.66339 0.47373 0.4334 0.0
H1137 H 0.65753 0.49704 0.47611 0.0
H1138 H 0.63042 0.47105 0.42431 0.0
H1139 H 0.62549 0.55461 0.53318 0.0
H1140 H 0.56049 0.49309 0.40586 0.0
H1141 H 0.67638 0.5736 0.44383 0.0
H1142 H 0.67859 0.54623 0.48383 0.0
H1143 H 0.67117 0.56817 0.52731 0.0
H1144 H 0.59653 0.49649 0.2851 0.0
H1145 H 0.56795 0.47172 0.3236 0.0
H1146 H 0.59952 0.47139 0.33403 0.0
C1147 C 0.16323 0.67977 0.33348 0.0
C1148 C 0.16103 0.69135 0.27461 0.0
C1149 C 0.13997 0.66011 0.35961 0.0
C1150 C 0.11402 0.6519 0.32582 0.0
C1151 C 0.11174 0.66291 0.2654 0.0
C1152 C 0.13531 0.6825 0.24049 0.0
C1153 C 0.14313 0.64861 0.42406 0.0
C1154 C 0.08444 0.65441 0.22774 0.0
C1155 C 0.05641 0.58633 0.38002 0.0
C1156 C 0.04682 0.59629 0.42475 0.0
C1157 C 0.07765 0.60423 0.34538 0.0
C1158 C 0.08929 0.63268 0.35527 0.0
C1159 C 0.07842 0.64283 0.39685 0.0
C1160 C 0.05734 0.62449 0.43129 0.0
C1161 C 0.08876 0.59267 0.30148 0.0
C1162 C 0.09008 0.67309 0.40781 0.0
H1163 H 0.18311 0.6866 0.35983 0.0
H1164 H 0.13362 0.69101 0.19416 0.0
H1165 H 0.13368 0.65425 0.45943 0.0
H1166 H 0.13246 0.62601 0.42047 0.0
H1167 H 0.16474 0.6562 0.44266 0.0
H1168 H 0.08628 0.66381 0.17986 0.0
H1169 H 0.07257 0.6319 0.22093 0.0
H1170 H 0.07269 0.66046 0.25494 0.0
H1171 H 0.04852 0.56456 0.37489 0.0
H1172 H 0.0499 0.63231 0.46543 0.0
H1173 H 0.10914 0.59674 0.32307 0.0
H1174 H 0.09121 0.60268 0.25441 0.0
H1175 H 0.0755 0.57029 0.29332 0.0
H1176 H 0.11107 0.6821 0.43256 0.0
H1177 H 0.07788 0.67761 0.43744 0.0
H1178 H 0.09122 0.68333 0.36127 0.0
loop_
_geom_bond_atom_site_label_1
_geom_bond_atom_site_label_2
_geom_bond_distance
_geom_bond_site_symmetry_2
_ccdc_geom_bond_type
C0 C1 1.443 . S
C0 N4 1.376 . S
C0 C38 1.389 . S
C1 C0 1.443 . S
C1 C2 1.340 . S
C1 H41 0.951 . S
C2 C1 1.340 . S
C2 C3 1.439 . S
C2 H42 0.950 . S
C3 C2 1.439 . S
C3 N4 1.374 . S
C3 C37 1.395 . S
N4 C0 1.376 . S
N4 C3 1.374 . S
N4 Co5 2.008 . S
Co5 N4 2.008 . S
Co5 N6 1.995 . S
Co5 N11 2.008 . S
Co5 N16 1.995 . S
Co5 N21 2.282 . S
Co5 N27 2.282 . S
N6 Co5 1.995 . S
N6 C7 1.376 . S
N6 C10 1.383 . S
C7 N6 1.376 . S
C7 C8 1.446 . S
C7 C37 1.391 . S
C8 C7 1.446 . S
C8 C9 1.339 . S
C8 H43 0.949 . S
C9 C8 1.339 . S
C9 C10 1.439 . S
C9 H44 0.950 . S
C10 N6 1.383 . S
C10 C9 1.439 . S
C10 C39 1.392 . S
N11 Co5 2.008 . S
N11 C12 1.376 . S
N11 C15 1.374 . S
C12 N11 1.376 . S
C12 C13 1.443 . S
C12 C39 1.389 . S
C13 C12 1.443 . S
C13 C14 1.340 . S
C13 H45 0.951 . S
C14 C13 1.340 . S
C14 C15 1.439 . S
C14 H46 0.950 . S
C15 N11 1.374 . S
C15 C14 1.439 . S
C15 C40 1.395 . S
N16 Co5 1.995 . S
N16 C17 1.376 . S
N16 C20 1.383 . S
C17 N16 1.376 . S
C17 C18 1.446 . S
C17 C40 1.391 . S
C18 C17 1.446 . S
C18 C19 1.339 . S
C18 H47 0.949 . S
C19 C18 1.339 . S
C19 C20 1.439 . S
C19 H48 0.950 . S
C20 N16 1.383 . S
C20 C19 1.439 . S
C20 C38 1.392 . S
N21 Co5 2.282 . S
N21 C24 1.332 . S
N21 C26 1.332 . S
C22 C23 1.386 . S
C22 C25 1.388 . S
C23 C22 1.386 . S
C23 C24 1.382 . S
C23 H49 0.950 . S
C24 N21 1.332 . S
C24 C23 1.382 . S
C24 H35 0.952 . S
C25 C22 1.388 . S
C25 C26 1.382 . S
C25 H50 0.950 . S
C26 N21 1.332 . S
C26 C25 1.382 . S
C26 H36 0.948 . S
N27 Co5 2.282 . S
N27 C31 1.332 . S
N27 C32 1.332 . S
C28 C29 1.388 . S
C28 C32 1.382 . S
C28 H51 0.950 . S
C29 C28 1.388 . S
C29 C30 1.386 . S
C30 C29 1.386 . S
C30 C31 1.382 . S
C30 H52 0.950 . S
C31 N27 1.332 . S
C31 C30 1.382 . S
C31 H33 0.952 . S
C32 N27 1.332 . S
C32 C28 1.382 . S
C32 H34 0.948 . S
H33 C31 0.952 . S
H34 C32 0.948 . S
H35 C24 0.952 . S
H36 C26 0.948 . S
C37 C3 1.395 . S
C37 C7 1.391 . S
C38 C0 1.389 . S
C38 C20 1.392 . S
C39 C10 1.392 . S
C39 C12 1.389 . S
C40 C15 1.395 . S
C40 C17 1.391 . S
H41 C1 0.951 . S
H42 C2 0.950 . S
H43 C8 0.949 . S
H44 C9 0.950 . S
H45 C13 0.951 . S
H46 C14 0.950 . S
H47 C18 0.949 . S
H48 C19 0.950 . S
H49 C23 0.950 . S
H50 C25 0.950 . S
H51 C28 0.950 . S
H52 C30 0.950 . S
C53 C54 1.443 . S
C53 N57 1.376 . S
C53 C91 1.389 . S
C54 C53 1.443 . S
C54 C55 1.340 . S
C54 H94 0.951 . S
C55 C54 1.340 . S
C55 C56 1.439 . S
C55 H95 0.950 . S
C56 C55 1.439 . S
C56 N57 1.374 . S
C56 C90 1.395 . S
N57 C53 1.376 . S
N57 C56 1.374 . S
N57 Co58 2.008 . S
Co58 N57 2.008 . S
Co58 N59 1.995 . S
Co58 N64 2.008 . S
Co58 N69 1.995 . S
Co58 N74 2.282 . S
Co58 N80 2.282 . S
N59 Co58 1.995 . S
N59 C60 1.376 . S
N59 C63 1.383 . S
C60 N59 1.376 . S
C60 C61 1.446 . S
C60 C90 1.391 . S
C61 C60 1.446 . S
C61 C62 1.339 . S
C61 H96 0.949 . S
C62 C61 1.339 . S
C62 C63 1.439 . S
C62 H97 0.950 . S
C63 N59 1.383 . S
C63 C62 1.439 . S
C63 C92 1.392 . S
N64 Co58 2.008 . S
N64 C65 1.376 . S
N64 C68 1.374 . S
C65 N64 1.376 . S
C65 C66 1.443 . S
C65 C92 1.389 . S
C66 C65 1.443 . S
C66 C67 1.340 . S
C66 H98 0.951 . S
C67 C66 1.340 . S
C67 C68 1.439 . S
C67 H99 0.950 . S
C68 N64 1.374 . S
C68 C67 1.439 . S
C68 C93 1.395 . S
N69 Co58 1.995 . S
N69 C70 1.376 . S
N69 C73 1.383 . S
C70 N69 1.376 . S
C70 C71 1.446 . S
C70 C93 1.391 . S
C71 C70 1.446 . S
C71 C72 1.339 . S
C71 H100 0.949 . S
C72 C71 1.339 . S
C72 C73 1.439 . S
C72 H101 0.950 . S
C73 N69 1.383 . S
C73 C72 1.439 . S
C73 C91 1.392 . S
N74 Co58 2.282 . S
N74 C77 1.332 . S
N74 C79 1.332 . S
C75 C76 1.386 . S
C75 C78 1.388 . S
C76 C75 1.386 . S
C76 C77 1.382 . S
C76 H102 0.950 1_554 S
C77 N74 1.332 . S
C77 C76 1.382 . S
C77 H88 0.952 . S
C78 C75 1.388 . S
C78 C79 1.382 . S
C78 H103 0.950 . S
C79 N74 1.332 . S
C79 C78 1.382 . S
C79 H89 0.948 . S
N80 Co58 2.282 . S
N80 C84 1.332 . S
N80 C85 1.332 . S
C81 C82 1.388 . S
C81 C85 1.382 . S
C81 H104 0.950 . S
C82 C81 1.388 . S
C82 C83 1.386 . S
C83 C82 1.386 . S
C83 C84 1.382 . S
C83 H105 0.950 . S
C84 N80 1.332 . S
C84 C83 1.382 . S
C84 H86 0.952 . S
C85 N80 1.332 . S
C85 C81 1.382 . S
C85 H87 0.948 . S
H86 C84 0.952 . S
H87 C85 0.948 . S
H88 C77 0.952 . S
H89 C79 0.948 . S
C90 C56 1.395 . S
C90 C60 1.391 . S
C91 C53 1.389 . S
C91 C73 1.392 . S
C92 C63 1.392 . S
C92 C65 1.389 . S
C93 C68 1.395 . S
C93 C70 1.391 . S
H94 C54 0.951 . S
H95 C55 0.950 . S
H96 C61 0.949 . S
H97 C62 0.950 . S
H98 C66 0.951 . S
H99 C67 0.950 . S
H100 C71 0.949 . S
H101 C72 0.950 . S
H102 C76 0.950 1_556 S
H103 C78 0.950 . S
H104 C81 0.950 . S
H105 C83 0.950 . S
C106 C107 1.443 . S
C106 N110 1.376 . S
C106 C144 1.389 . S
C107 C106 1.443 . S
C107 C108 1.340 . S
C107 H147 0.951 . S
C108 C107 1.340 . S
C108 C109 1.439 . S
C108 H148 0.950 . S
C109 C108 1.439 . S
C109 N110 1.374 . S
C109 C143 1.395 . S
N110 C106 1.376 . S
N110 C109 1.374 . S
N110 Co111 2.008 . S
Co111 N110 2.008 . S
Co111 N112 1.995 1_554 S
Co111 N117 2.008 1_554 S
Co111 N122 1.995 . S
Co111 N127 2.282 . S
Co111 N133 2.282 1_554 S
N112 Co111 1.995 1_556 S
N112 C113 1.376 . S
N112 C116 1.383 . S
C113 N112 1.376 . S
C113 C114 1.446 . S
C113 C143 1.391 1_556 S
C114 C113 1.446 . S
C114 C115 1.339 . S
C114 H149 0.949 . S
C115 C114 1.339 . S
C115 C116 1.439 . S
C115 H150 0.950 . S
C116 N112 1.383 . S
C116 C115 1.439 . S
C116 C145 1.392 . S
N117 Co111 2.008 1_556 S
N117 C118 1.376 . S
N117 C121 1.374 . S
C118 N117 1.376 . S
C118 C119 1.443 . S
C118 C145 1.389 . S
C119 C118 1.443 . S
C119 C120 1.340 . S
C119 H151 0.951 . S
C120 C119 1.340 . S
C120 C121 1.439 . S
C120 H152 0.950 . S
C121 N117 1.374 . S
C121 C120 1.439 . S
C121 C146 1.395 1_556 S
N122 Co111 1.995 . S
N122 C123 1.376 . S
N122 C126 1.383 . S
C123 N122 1.376 . S
C123 C124 1.446 . S
C123 C146 1.391 . S
C124 C123 1.446 . S
C124 C125 1.339 . S
C124 H153 0.949 . S
C125 C124 1.339 . S
C125 C126 1.439 . S
C125 H154 0.950 . S
C126 N122 1.383 . S
C126 C125 1.439 . S
C126 C144 1.392 . S
N127 Co111 2.282 . S
N127 C130 1.332 . S
N127 C132 1.332 . S
C128 C129 1.386 . S
C128 C131 1.388 . S
C129 C128 1.386 . S
C129 C130 1.382 . S
C129 H155 0.950 . S
C130 N127 1.332 . S
C130 C129 1.382 . S
C130 H141 0.952 . S
C131 C128 1.388 . S
C131 C132 1.382 . S
C131 H156 0.950 . S
C132 N127 1.332 . S
C132 C131 1.382 . S
C132 H142 0.948 . S
N133 Co111 2.282 1_556 S
N133 C137 1.332 . S
N133 C138 1.332 . S
C134 C135 1.388 . S
C134 C138 1.382 . S
C134 H157 0.950 . S
C135 C134 1.388 . S
C135 C136 1.386 . S
C136 C135 1.386 . S
C136 C137 1.382 . S
C136 H158 0.950 . S
C137 N133 1.332 . S
C137 C136 1.382 . S
C137 H139 0.952 . S
C138 N133 1.332 . S
C138 C134 1.382 . S
C138 H140 0.948 . S
H139 C137 0.952 . S
H140 C138 0.948 . S
H141 C130 0.952 . S
H142 C132 0.948 . S
C143 C109 1.395 . S
C143 C113 1.391 1_554 S
C144 C106 1.389 . S
C144 C126 1.392 . S
C145 C116 1.392 . S
C145 C118 1.389 . S
C146 C121 1.395 1_554 S
C146 C123 1.391 . S
H147 C107 0.951 . S
H148 C108 0.950 . S
H149 C114 0.949 . S
H150 C115 0.950 . S
H151 C119 0.951 . S
H152 C120 0.950 . S
H153 C124 0.949 . S
H154 C125 0.950 . S
H155 C129 0.950 . S
H156 C131 0.950 . S
H157 C134 0.950 . S
H158 C136 0.950 . S
C159 C160 1.443 . S
C159 N163 1.376 . S
C159 C197 1.389 . S
C160 C159 1.443 . S
C160 C161 1.340 . S
C160 H200 0.951 . S
C161 C160 1.340 . S
C161 C162 1.439 . S
C161 H201 0.950 . S
C162 C161 1.439 . S
C162 N163 1.374 . S
C162 C196 1.395 . S
N163 C159 1.376 . S
N163 C162 1.374 . S
N163 Co164 2.008 . S
Co164 N163 2.008 . S
Co164 N165 1.995 . S
Co164 N170 2.008 . S
Co164 N175 1.995 . S
Co164 N180 2.282 . S
Co164 N186 2.282 . S
N165 Co164 1.995 . S
N165 C166 1.376 . S
N165 C169 1.383 1_554 S
C166 N165 1.376 . S
C166 C167 1.446 1_554 S
C166 C196 1.391 . S
C167 C166 1.446 1_556 S
C167 C168 1.339 . S
C167 H202 0.949 . S
C168 C167 1.339 . S
C168 C169 1.439 . S
C168 H203 0.950 . S
C169 N165 1.383 1_556 S
C169 C168 1.439 . S
C169 C198 1.392 . S
N170 Co164 2.008 . S
N170 C171 1.376 1_554 S
N170 C174 1.374 . S
C171 N170 1.376 1_556 S
C171 C172 1.443 . S
C171 C198 1.389 . S
C172 C171 1.443 . S
C172 C173 1.340 1_556 S
C172 H204 0.951 . S
C173 C172 1.340 1_554 S
C173 C174 1.439 . S
C173 H205 0.950 . S
C174 N170 1.374 . S
C174 C173 1.439 . S
C174 C199 1.395 . S
N175 Co164 1.995 . S
N175 C176 1.376 . S
N175 C179 1.383 . S
C176 N175 1.376 . S
C176 C177 1.446 . S
C176 C199 1.391 . S
C177 C176 1.446 . S
C177 C178 1.339 . S
C177 H206 0.949 . S
C178 C177 1.339 . S
C178 C179 1.439 . S
C178 H207 0.950 . S
C179 N175 1.383 . S
C179 C178 1.439 . S
C179 C197 1.392 . S
N180 Co164 2.282 . S
N180 C183 1.332 . S
N180 C185 1.332 . S
C181 C182 1.386 . S
C181 C184 1.388 . S
C182 C181 1.386 . S
C182 C183 1.382 . S
C182 H208 0.950 . S
C183 N180 1.332 . S
C183 C182 1.382 . S
C183 H194 0.952 . S
C184 C181 1.388 . S
C184 C185 1.382 . S
C184 H209 0.950 . S
C185 N180 1.332 . S
C185 C184 1.382 . S
C185 H195 0.948 . S
N186 Co164 2.282 . S
N186 C190 1.332 1_554 S
N186 C191 1.332 . S
C187 C188 1.388 . S
C187 C191 1.382 1_556 S
C187 H210 0.950 . S
C188 C187 1.388 . S
C188 C189 1.386 . S
C189 C188 1.386 . S
C189 C190 1.382 . S
C189 H211 0.950 . S
C190 N186 1.332 1_556 S
C190 C189 1.382 . S
C190 H192 0.952 . S
C191 N186 1.332 . S
C191 C187 1.382 1_554 S
C191 H193 0.948 . S
H192 C190 0.952 . S
H193 C191 0.948 . S
H194 C183 0.952 . S
H195 C185 0.948 . S
C196 C162 1.395 . S
C196 C166 1.391 . S
C197 C159 1.389 . S
C197 C179 1.392 . S
C198 C169 1.392 . S
C198 C171 1.389 . S
C199 C174 1.395 . S
C199 C176 1.391 . S
H200 C160 0.951 . S
H201 C161 0.950 . S
H202 C167 0.949 . S
H203 C168 0.950 . S
H204 C172 0.951 . S
H205 C173 0.950 . S
H206 C177 0.949 . S
H207 C178 0.950 . S
H208 C182 0.950 . S
H209 C184 0.950 . S
H210 C187 0.950 . S
H211 C189 0.950 . S
C212 C213 1.443 . S
C212 N216 1.376 . S
C212 C250 1.389 . S
C213 C212 1.443 . S
C213 C214 1.340 . S
C213 H253 0.951 . S
C214 C213 1.340 . S
C214 C215 1.439 . S
C214 H254 0.950 . S
C215 C214 1.439 . S
C215 N216 1.374 . S
C215 C249 1.395 . S
N216 C212 1.376 . S
N216 C215 1.374 . S
N216 Co217 2.008 . S
Co217 N216 2.008 . S
Co217 N218 1.995 . S
Co217 N223 2.008 . S
Co217 N228 1.995 . S
Co217 N233 2.282 . S
Co217 N239 2.282 . S
N218 Co217 1.995 . S
N218 C219 1.376 . S
N218 C222 1.383 1_554 S
C219 N218 1.376 . S
C219 C220 1.446 1_554 S
C219 C249 1.391 . S
C220 C219 1.446 1_556 S
C220 C221 1.339 . S
C220 H255 0.949 . S
C221 C220 1.339 . S
C221 C222 1.439 . S
C221 H256 0.950 . S
C222 N218 1.383 1_556 S
C222 C221 1.439 . S
C222 C251 1.392 . S
N223 Co217 2.008 . S
N223 C224 1.376 . S
N223 C227 1.374 . S
C224 N223 1.376 . S
C224 C225 1.443 . S
C224 C251 1.389 1_554 S
C225 C224 1.443 . S
C225 C226 1.340 . S
C225 H257 0.951 1_554 S
C226 C225 1.340 . S
C226 C227 1.439 . S
C226 H258 0.950 . S
C227 N223 1.374 . S
C227 C226 1.439 . S
C227 C252 1.395 . S
N228 Co217 1.995 . S
N228 C229 1.376 . S
N228 C232 1.383 . S
C229 N228 1.376 . S
C229 C230 1.446 . S
C229 C252 1.391 . S
C230 C229 1.446 . S
C230 C231 1.339 . S
C230 H259 0.949 . S
C231 C230 1.339 . S
C231 C232 1.439 . S
C231 H260 0.950 . S
C232 N228 1.383 . S
C232 C231 1.439 . S
C232 C250 1.392 . S
N233 Co217 2.282 . S
N233 C236 1.332 . S
N233 C238 1.332 . S
C234 C235 1.386 . S
C234 C237 1.388 . S
C235 C234 1.386 . S
C235 C236 1.382 . S
C235 H261 0.950 . S
C236 N233 1.332 . S
C236 C235 1.382 . S
C236 H247 0.952 . S
C237 C234 1.388 . S
C237 C238 1.382 . S
C237 H262 0.950 . S
C238 N233 1.332 . S
C238 C237 1.382 . S
C238 H248 0.948 . S
N239 Co217 2.282 . S
N239 C243 1.332 1_554 S
N239 C244 1.332 . S
C240 C241 1.388 . S
C240 C244 1.382 1_556 S
C240 H263 0.950 . S
C241 C240 1.388 . S
C241 C242 1.386 . S
C242 C241 1.386 . S
C242 C243 1.382 . S
C242 H264 0.950 . S
C243 N239 1.332 1_556 S
C243 C242 1.382 . S
C243 H245 0.952 . S
C244 N239 1.332 . S
C244 C240 1.382 1_554 S
C244 H246 0.948 . S
H245 C243 0.952 . S
H246 C244 0.948 . S
H247 C236 0.952 . S
H248 C238 0.948 . S
C249 C215 1.395 . S
C249 C219 1.391 . S
C250 C212 1.389 . S
C250 C232 1.392 . S
C251 C222 1.392 . S
C251 C224 1.389 1_556 S
C252 C227 1.395 . S
C252 C229 1.391 . S
H253 C213 0.951 . S
H254 C214 0.950 . S
H255 C220 0.949 . S
H256 C221 0.950 . S
H257 C225 0.951 1_556 S
H258 C226 0.950 . S
H259 C230 0.949 . S
H260 C231 0.950 . S
H261 C235 0.950 . S
H262 C237 0.950 . S
H263 C240 0.950 . S
H264 C242 0.950 . S
C265 C266 1.443 . S
C265 N269 1.376 . S
C265 C303 1.389 . S
C266 C265 1.443 . S
C266 C267 1.340 . S
C266 H306 0.951 . S
C267 C266 1.340 . S
C267 C268 1.439 . S
C267 H307 0.950 . S
C268 C267 1.439 . S
C268 N269 1.374 . S
C268 C302 1.395 . S
N269 C265 1.376 . S
N269 C268 1.374 . S
N269 Co270 2.008 . S
Co270 N269 2.008 . S
Co270 N271 1.995 . S
Co270 N276 2.008 . S
Co270 N281 1.995 . S
Co270 N286 2.282 . S
Co270 N292 2.282 . S
N271 Co270 1.995 . S
N271 C272 1.376 . S
N271 C275 1.383 . S
C272 N271 1.376 . S
C272 C273 1.446 . S
C272 C302 1.391 . S
C273 C272 1.446 . S
C273 C274 1.339 . S
C273 H308 0.949 . S
C274 C273 1.339 . S
C274 C275 1.439 . S
C274 H309 0.950 . S
C275 N271 1.383 . S
C275 C274 1.439 . S
C275 C304 1.392 . S
N276 Co270 2.008 . S
N276 C277 1.376 . S
N276 C280 1.374 . S
C277 N276 1.376 . S
C277 C278 1.443 . S
C277 C304 1.389 . S
C278 C277 1.443 . S
C278 C279 1.340 . S
C278 H310 0.951 . S
C279 C278 1.340 . S
C279 C280 1.439 . S
C279 H311 0.950 . S
C280 N276 1.374 . S
C280 C279 1.439 . S
C280 C305 1.395 . S
N281 Co270 1.995 . S
N281 C282 1.376 . S
N281 C285 1.383 . S
C282 N281 1.376 . S
C282 C283 1.446 . S
C282 C305 1.391 . S
C283 C282 1.446 . S
C283 C284 1.339 . S
C283 H312 0.949 . S
C284 C283 1.339 . S
C284 C285 1.439 . S
C284 H313 0.950 . S
C285 N281 1.383 . S
C285 C284 1.439 . S
C285 C303 1.392 . S
N286 Co270 2.282 . S
N286 C289 1.332 . S
N286 C291 1.332 . S
C287 C288 1.386 . S
C287 C290 1.388 . S
C288 C287 1.386 . S
C288 C289 1.382 . S
C288 H314 0.950 . S
C289 N286 1.332 . S
C289 C288 1.382 . S
C289 H300 0.952 . S
C290 C287 1.388 . S
C290 C291 1.382 . S
C290 H315 0.950 . S
C291 N286 1.332 . S
C291 C290 1.382 . S
C291 H301 0.948 . S
N292 Co270 2.282 . S
N292 C296 1.332 . S
N292 C297 1.332 . S
C293 C294 1.388 . S
C293 C297 1.382 . S
C293 H316 0.950 . S
C294 C293 1.388 . S
C294 C295 1.386 . S
C295 C294 1.386 . S
C295 C296 1.382 . S
C295 H317 0.950 . S
C296 N292 1.332 . S
C296 C295 1.382 . S
C296 H298 0.952 . S
C297 N292 1.332 . S
C297 C293 1.382 . S
C297 H299 0.948 . S
H298 C296 0.952 . S
H299 C297 0.948 . S
H300 C289 0.952 . S
H301 C291 0.948 . S
C302 C268 1.395 . S
C302 C272 1.391 . S
C303 C265 1.389 . S
C303 C285 1.392 . S
C304 C275 1.392 . S
C304 C277 1.389 . S
C305 C280 1.395 . S
C305 C282 1.391 . S
H306 C266 0.951 . S
H307 C267 0.950 . S
H308 C273 0.949 . S
H309 C274 0.950 . S
H310 C278 0.951 . S
H311 C279 0.950 . S
H312 C283 0.949 . S
H313 C284 0.950 . S
H314 C288 0.950 . S
H315 C290 0.950 . S
H316 C293 0.950 . S
H317 C295 0.950 . S
C318 O330 1.241 . S
C318 O331 1.280 . S
C319 O332 1.277 . S
C319 O333 1.245 . S
C320 O344 1.247 . S
C320 O346 1.289 . S
Mg321 O322 1.935 1_655 S
Mg321 O331 1.984 . S
Mg321 O333 1.988 1_655 S
Mg321 O334 2.061 . S
O322 Mg321 1.935 1_455 S
O322 Mg323 1.985 . S
O322 Mg324 1.916 . S
Mg323 O322 1.985 . S
Mg323 O330 2.042 1_455 S
Mg323 O332 2.041 . S
Mg323 O338 2.038 1_455 S
Mg323 O346 2.238 . S
Mg324 O322 1.916 . S
Mg324 O325 1.917 . S
Mg324 O335 2.106 1_455 S
Mg324 O337 2.079 1_455 S
Mg324 O346 2.106 . S
Mg324 O347 2.079 . S
O325 Mg324 1.917 . S
O325 Mg326 1.926 . S
O325 Mg327 1.986 . S
Mg326 O325 1.926 . S
Mg326 O340 1.984 . S
Mg326 O343 1.988 1_455 S
Mg326 O344 2.061 . S
Mg327 O325 1.986 . S
Mg327 O335 2.238 1_455 S
Mg327 O339 2.042 . S
Mg327 O341 2.041 1_455 S
Mg327 O348 2.038 . S
C328 O334 1.247 . S
C328 O335 1.289 . S
C329 O347 1.245 . S
C329 O348 1.274 . S
O330 C318 1.241 . S
O330 Mg323 2.042 1_655 S
O331 C318 1.280 . S
O331 Mg321 1.984 . S
O332 C319 1.277 . S
O332 Mg323 2.041 . S
O333 C319 1.245 . S
O333 Mg321 1.988 1_455 S
O334 Mg321 2.061 . S
O334 C328 1.247 . S
O335 Mg324 2.106 1_655 S
O335 Mg327 2.238 1_655 S
O335 C328 1.289 . S
C336 O337 1.245 . S
C336 O338 1.274 . S
O337 Mg324 2.079 1_655 S
O337 C336 1.245 . S
O338 Mg323 2.038 1_655 S
O338 C336 1.274 . S
O339 Mg327 2.042 . S
O339 C342 1.241 . S
O340 Mg326 1.984 . S
O340 C342 1.280 . S
O341 Mg327 2.041 1_655 S
O341 C345 1.277 . S
C342 O339 1.241 . S
C342 O340 1.280 . S
O343 Mg326 1.988 1_655 S
O343 C345 1.245 . S
O344 C320 1.247 . S
O344 Mg326 2.061 . S
C345 O341 1.277 . S
C345 O343 1.245 . S
O346 C320 1.289 . S
O346 Mg323 2.238 . S
O346 Mg324 2.106 . S
O347 Mg324 2.079 . S
O347 C329 1.245 . S
O348 Mg327 2.038 . S
O348 C329 1.274 . S
C349 O361 1.241 . S
C349 O362 1.280 . S
C350 O363 1.277 . S
C350 O364 1.245 . S
C351 O375 1.247 . S
C351 O377 1.289 . S
Mg352 O353 1.926 . S
Mg352 O362 1.984 . S
Mg352 O364 1.988 1_545 S
Mg352 O365 2.061 . S
O353 Mg352 1.926 . S
O353 Mg354 1.986 . S
O353 Mg355 1.917 . S
Mg354 O353 1.986 . S
Mg354 O361 2.042 . S
Mg354 O363 2.041 1_545 S
Mg354 O369 2.038 . S
Mg354 O377 2.238 1_545 S
Mg355 O353 1.917 . S
Mg355 O356 1.917 1_545 S
Mg355 O366 2.106 . S
Mg355 O368 2.079 . S
Mg355 O377 2.106 1_545 S
Mg355 O378 2.079 1_545 S
O356 Mg355 1.917 1_565 S
O356 Mg357 1.926 . S
O356 Mg358 1.986 1_565 S
Mg357 O356 1.926 . S
Mg357 O371 1.984 . S
Mg357 O374 1.988 1_565 S
Mg357 O375 2.061 . S
Mg358 O356 1.986 1_545 S
Mg358 O366 2.238 . S
Mg358 O370 2.042 1_545 S
Mg358 O372 2.041 . S
Mg358 O379 2.038 1_545 S
C359 O365 1.247 . S
C359 O366 1.289 . S
C360 O378 1.245 . S
C360 O379 1.274 . S
O361 C349 1.241 . S
O361 Mg354 2.042 . S
O362 C349 1.280 . S
O362 Mg352 1.984 . S
O363 C350 1.277 . S
O363 Mg354 2.041 1_565 S
O364 C350 1.245 . S
O364 Mg352 1.988 1_565 S
O365 Mg352 2.061 . S
O365 C359 1.247 . S
O366 Mg355 2.106 . S
O366 Mg358 2.238 . S
O366 C359 1.289 . S
C367 O368 1.245 . S
C367 O369 1.274 . S
O368 Mg355 2.079 . S
O368 C367 1.245 . S
O369 Mg354 2.038 . S
O369 C367 1.274 . S
O370 Mg358 2.042 1_565 S
O370 C373 1.241 . S
O371 Mg357 1.984 . S
O371 C373 1.280 . S
O372 Mg358 2.041 . S
O372 C376 1.277 . S
C373 O370 1.241 . S
C373 O371 1.280 . S
O374 Mg357 1.988 1_545 S
O374 C376 1.245 . S
O375 C351 1.247 . S
O375 Mg357 2.061 . S
C376 O372 1.277 . S
C376 O374 1.245 . S
O377 C351 1.289 . S
O377 Mg354 2.238 1_565 S
O377 Mg355 2.106 1_565 S
O378 Mg355 2.079 1_565 S
O378 C360 1.245 . S
O379 Mg358 2.038 1_565 S
O379 C360 1.274 . S
C380 O392 1.241 . S
C380 O393 1.280 . S
C381 O394 1.277 . S
C381 O395 1.245 . S
C382 O406 1.247 . S
C382 O408 1.289 . S
Mg383 O384 1.926 . S
Mg383 O393 1.984 . S
Mg383 O395 1.988 . S
Mg383 O396 2.061 . S
O384 Mg383 1.926 . S
O384 Mg385 1.986 . S
O384 Mg386 1.917 . S
Mg385 O384 1.986 . S
Mg385 O392 2.042 . S
Mg385 O394 2.041 . S
Mg385 O400 2.038 . S
Mg385 O408 2.238 . S
Mg386 O384 1.917 . S
Mg386 O387 1.917 . S
Mg386 O397 2.106 . S
Mg386 O399 2.079 . S
Mg386 O408 2.106 . S
Mg386 O409 2.079 . S
O387 Mg386 1.917 . S
O387 Mg388 1.926 . S
O387 Mg389 1.986 . S
Mg388 O387 1.926 . S
Mg388 O402 1.984 . S
Mg388 O405 1.988 . S
Mg388 O406 2.061 . S
Mg389 O387 1.986 . S
Mg389 O397 2.238 . S
Mg389 O401 2.042 . S
Mg389 O403 2.041 . S
Mg389 O410 2.038 . S
C390 O396 1.247 . S
C390 O397 1.289 . S
C391 O409 1.245 . S
C391 O410 1.274 . S
O392 C380 1.241 . S
O392 Mg385 2.042 . S
O393 C380 1.280 . S
O393 Mg383 1.984 . S
O394 C381 1.277 . S
O394 Mg385 2.041 . S
O395 C381 1.245 . S
O395 Mg383 1.988 . S
O396 Mg383 2.061 . S
O396 C390 1.247 . S
O397 Mg386 2.106 . S
O397 Mg389 2.238 . S
O397 C390 1.289 . S
C398 O399 1.245 . S
C398 O400 1.274 . S
O399 Mg386 2.079 . S
O399 C398 1.245 . S
O400 Mg385 2.038 . S
O400 C398 1.274 . S
O401 Mg389 2.042 . S
O401 C404 1.241 . S
O402 Mg388 1.984 . S
O402 C404 1.280 . S
O403 Mg389 2.041 . S
O403 C407 1.277 . S
C404 O401 1.241 . S
C404 O402 1.280 . S
O405 Mg388 1.988 . S
O405 C407 1.245 . S
O406 C382 1.247 . S
O406 Mg388 2.061 . S
C407 O403 1.277 . S
C407 O405 1.245 . S
O408 C382 1.289 . S
O408 Mg385 2.238 . S
O408 Mg386 2.106 . S
O409 Mg386 2.079 . S
O409 C391 1.245 . S
O410 Mg389 2.038 . S
O410 C391 1.274 . S
C411 C412 1.391 . S
C411 C413 1.394 . S
C411 H427 0.931 . S
C412 C411 1.391 . S
C412 C416 1.376 . S
C413 C411 1.394 . S
C413 C414 1.369 . S
C413 C417 1.531 . S
C414 C413 1.369 . S
C414 C415 1.410 . S
C414 C422 1.503 . S
C415 C414 1.410 . S
C415 C416 1.392 . S
C415 C418 1.511 . S
C416 C412 1.376 . S
C416 C415 1.392 . S
C416 H428 0.929 . S
C417 C413 1.531 . S
C417 H429 0.960 . S
C417 H430 0.962 . S
C417 H431 0.960 . S
C418 C415 1.511 . S
C418 H432 0.961 . S
C418 H433 0.961 . S
C418 H434 0.961 . S
C419 C420 1.370 . S
C419 C421 1.363 . S
C419 H435 0.931 . S
C420 C419 1.370 . S
C420 C424 1.408 . S
C421 C419 1.363 . S
C421 C422 1.370 . S
C421 C425 1.524 . S
C422 C414 1.503 . S
C422 C421 1.370 . S
C422 C423 1.403 . S
C423 C422 1.403 . S
C423 C424 1.404 . S
C423 C426 1.539 . S
C424 C420 1.408 . S
C424 C423 1.404 . S
C424 H436 0.930 . S
C425 C421 1.524 . S
C425 H437 0.956 . S
C425 H438 0.961 . S
C425 H439 0.961 . S
C426 C423 1.539 . S
C426 H440 0.958 . S
C426 H441 0.961 . S
C426 H442 0.960 . S
H427 C411 0.931 . S
H428 C416 0.929 . S
H429 C417 0.960 . S
H430 C417 0.962 . S
H431 C417 0.960 . S
H432 C418 0.961 . S
H433 C418 0.961 . S
H434 C418 0.961 . S
H435 C419 0.931 . S
H436 C424 0.930 . S
H437 C425 0.956 . S
H438 C425 0.961 . S
H439 C425 0.961 . S
H440 C426 0.958 . S
H441 C426 0.961 . S
H442 C426 0.960 . S
C443 C444 1.391 . S
C443 C445 1.394 . S
C443 H459 0.931 . S
C444 C443 1.391 . S
C444 C448 1.376 . S
C445 C443 1.394 . S
C445 C446 1.369 . S
C445 C449 1.531 . S
C446 C445 1.369 . S
C446 C447 1.410 . S
C446 C454 1.503 . S
C447 C446 1.410 . S
C447 C448 1.392 . S
C447 C450 1.511 . S
C448 C444 1.376 . S
C448 C447 1.392 . S
C448 H460 0.929 . S
C449 C445 1.531 . S
C449 H461 0.960 . S
C449 H462 0.962 . S
C449 H463 0.960 . S
C450 C447 1.511 . S
C450 H464 0.961 . S
C450 H465 0.961 . S
C450 H466 0.961 . S
C451 C452 1.370 . S
C451 C453 1.363 . S
C451 H467 0.931 . S
C452 C451 1.370 . S
C452 C456 1.408 . S
C453 C451 1.363 . S
C453 C454 1.370 . S
C453 C457 1.524 . S
C454 C446 1.503 . S
C454 C453 1.370 . S
C454 C455 1.403 . S
C455 C454 1.403 . S
C455 C456 1.404 . S
C455 C458 1.539 . S
C456 C452 1.408 . S
C456 C455 1.404 . S
C456 H468 0.930 . S
C457 C453 1.524 . S
C457 H469 0.956 . S
C457 H470 0.961 . S
C457 H471 0.961 . S
C458 C455 1.539 . S
C458 H472 0.958 . S
C458 H473 0.961 . S
C458 H474 0.960 . S
H459 C443 0.931 . S
H460 C448 0.929 . S
H461 C449 0.960 . S
H462 C449 0.962 . S
H463 C449 0.960 . S
H464 C450 0.961 . S
H465 C450 0.961 . S
H466 C450 0.961 . S
H467 C451 0.931 . S
H468 C456 0.930 . S
H469 C457 0.956 . S
H470 C457 0.961 . S
H471 C457 0.961 . S
H472 C458 0.958 . S
H473 C458 0.961 . S
H474 C458 0.960 . S
C475 C476 1.391 . S
C475 C477 1.394 . S
C475 H491 0.931 . S
C476 C475 1.391 . S
C476 C480 1.376 . S
C477 C475 1.394 . S
C477 C478 1.369 . S
C477 C481 1.531 . S
C478 C477 1.369 . S
C478 C479 1.410 . S
C478 C486 1.503 . S
C479 C478 1.410 . S
C479 C480 1.392 . S
C479 C482 1.511 . S
C480 C476 1.376 . S
C480 C479 1.392 . S
C480 H492 0.929 . S
C481 C477 1.531 . S
C481 H493 0.960 . S
C481 H494 0.962 . S
C481 H495 0.960 . S
C482 C479 1.511 . S
C482 H496 0.961 . S
C482 H497 0.961 . S
C482 H498 0.961 . S
C483 C484 1.370 . S
C483 C485 1.363 . S
C483 H499 0.931 . S
C484 C483 1.370 . S
C484 C488 1.408 . S
C485 C483 1.363 . S
C485 C486 1.370 . S
C485 C489 1.524 . S
C486 C478 1.503 . S
C486 C485 1.370 . S
C486 C487 1.403 . S
C487 C486 1.403 . S
C487 C488 1.404 . S
C487 C490 1.539 . S
C488 C484 1.408 . S
C488 C487 1.404 . S
C488 H500 0.930 . S
C489 C485 1.524 . S
C489 H501 0.956 . S
C489 H502 0.961 . S
C489 H503 0.961 . S
C490 C487 1.539 . S
C490 H504 0.958 . S
C490 H505 0.961 . S
C490 H506 0.960 . S
H491 C475 0.931 . S
H492 C480 0.929 . S
H493 C481 0.960 . S
H494 C481 0.962 . S
H495 C481 0.960 . S
H496 C482 0.961 . S
H497 C482 0.961 . S
H498 C482 0.961 . S
H499 C483 0.931 . S
H500 C488 0.930 . S
H501 C489 0.956 . S
H502 C489 0.961 . S
H503 C489 0.961 . S
H504 C490 0.958 . S
H505 C490 0.961 . S
H506 C490 0.960 . S
C507 C508 1.391 . S
C507 C509 1.394 . S
C507 H523 0.931 . S
C508 C507 1.391 . S
C508 C512 1.376 . S
C509 C507 1.394 . S
C509 C510 1.369 . S
C509 C513 1.531 . S
C510 C509 1.369 . S
C510 C511 1.410 . S
C510 C518 1.503 . S
C511 C510 1.410 . S
C511 C512 1.392 . S
C511 C514 1.511 . S
C512 C508 1.376 . S
C512 C511 1.392 . S
C512 H524 0.929 . S
C513 C509 1.531 . S
C513 H525 0.960 . S
C513 H526 0.962 . S
C513 H527 0.960 . S
C514 C511 1.511 . S
C514 H528 0.961 . S
C514 H529 0.961 . S
C514 H530 0.961 . S
C515 C516 1.370 . S
C515 C517 1.363 . S
C515 H531 0.931 . S
C516 C515 1.370 . S
C516 C520 1.408 . S
C517 C515 1.363 . S
C517 C518 1.370 . S
C517 C521 1.524 . S
C518 C510 1.503 . S
C518 C517 1.370 . S
C518 C519 1.403 . S
C519 C518 1.403 . S
C519 C520 1.404 . S
C519 C522 1.539 . S
C520 C516 1.408 . S
C520 C519 1.404 . S
C520 H532 0.930 . S
C521 C517 1.524 . S
C521 H533 0.956 . S
C521 H534 0.961 . S
C521 H535 0.961 . S
C522 C519 1.539 . S
C522 H536 0.958 . S
C522 H537 0.961 . S
C522 H538 0.960 . S
H523 C507 0.931 . S
H524 C512 0.929 . S
H525 C513 0.960 . S
H526 C513 0.962 . S
H527 C513 0.960 . S
H528 C514 0.961 . S
H529 C514 0.961 . S
H530 C514 0.961 . S
H531 C515 0.931 . S
H532 C520 0.930 . S
H533 C521 0.956 . S
H534 C521 0.961 . S
H535 C521 0.961 . S
H536 C522 0.958 . S
H537 C522 0.961 . S
H538 C522 0.960 . S
C539 C540 1.391 . S
C539 C541 1.394 . S
C539 H555 0.931 . S
C540 C539 1.391 . S
C540 C544 1.376 . S
C541 C539 1.394 . S
C541 C542 1.369 . S
C541 C545 1.531 . S
C542 C541 1.369 . S
C542 C543 1.410 . S
C542 C550 1.503 . S
C543 C542 1.410 . S
C543 C544 1.392 . S
C543 C546 1.511 . S
C544 C540 1.376 . S
C544 C543 1.392 . S
C544 H556 0.929 . S
C545 C541 1.531 . S
C545 H557 0.960 . S
C545 H558 0.962 . S
C545 H559 0.960 . S
C546 C543 1.511 . S
C546 H560 0.961 . S
C546 H561 0.961 . S
C546 H562 0.961 . S
C547 C548 1.370 . S
C547 C549 1.363 . S
C547 H563 0.931 . S
C548 C547 1.370 . S
C548 C552 1.408 . S
C549 C547 1.363 . S
C549 C550 1.370 . S
C549 C553 1.524 . S
C550 C542 1.503 . S
C550 C549 1.370 . S
C550 C551 1.403 . S
C551 C550 1.403 . S
C551 C552 1.404 . S
C551 C554 1.539 . S
C552 C548 1.408 . S
C552 C551 1.404 . S
C552 H564 0.930 . S
C553 C549 1.524 . S
C553 H565 0.956 . S
C553 H566 0.961 . S
C553 H567 0.961 . S
C554 C551 1.539 . S
C554 H568 0.958 . S
C554 H569 0.961 . S
C554 H570 0.960 . S
H555 C539 0.931 . S
H556 C544 0.929 . S
H557 C545 0.960 . S
H558 C545 0.962 . S
H559 C545 0.960 . S
H560 C546 0.961 . S
H561 C546 0.961 . S
H562 C546 0.961 . S
H563 C547 0.931 . S
H564 C552 0.930 . S
H565 C553 0.956 . S
H566 C553 0.961 . S
H567 C553 0.961 . S
H568 C554 0.958 . S
H569 C554 0.961 . S
H570 C554 0.960 . S
C571 C572 1.391 . S
C571 C573 1.394 . S
C571 H587 0.931 . S
C572 C571 1.391 . S
C572 C576 1.376 . S
C573 C571 1.394 . S
C573 C574 1.369 . S
C573 C577 1.531 . S
C574 C573 1.369 . S
C574 C575 1.410 . S
C574 C582 1.503 . S
C575 C574 1.410 . S
C575 C576 1.392 . S
C575 C578 1.511 . S
C576 C572 1.376 . S
C576 C575 1.392 . S
C576 H588 0.929 . S
C577 C573 1.531 . S
C577 H589 0.960 . S
C577 H590 0.962 . S
C577 H591 0.960 . S
C578 C575 1.511 . S
C578 H592 0.961 . S
C578 H593 0.961 . S
C578 H594 0.961 . S
C579 C580 1.370 . S
C579 C581 1.363 . S
C579 H595 0.931 . S
C580 C579 1.370 . S
C580 C584 1.408 . S
C581 C579 1.363 . S
C581 C582 1.370 . S
C581 C585 1.524 . S
C582 C574 1.503 . S
C582 C581 1.370 . S
C582 C583 1.403 . S
C583 C582 1.403 . S
C583 C584 1.404 . S
C583 C586 1.539 . S
C584 C580 1.408 . S
C584 C583 1.404 . S
C584 H596 0.930 . S
C585 C581 1.524 . S
C585 H597 0.956 . S
C585 H598 0.961 . S
C585 H599 0.961 . S
C586 C583 1.539 . S
C586 H600 0.958 . S
C586 H601 0.961 . S
C586 H602 0.960 . S
H587 C571 0.931 . S
H588 C576 0.929 . S
H589 C577 0.960 . S
H590 C577 0.962 . S
H591 C577 0.960 . S
H592 C578 0.961 . S
H593 C578 0.961 . S
H594 C578 0.961 . S
H595 C579 0.931 . S
H596 C584 0.930 . S
H597 C585 0.956 . S
H598 C585 0.961 . S
H599 C585 0.961 . S
H600 C586 0.958 . S
H601 C586 0.961 . S
H602 C586 0.960 . S
C603 C604 1.391 . S
C603 C605 1.394 . S
C603 H619 0.931 . S
C604 C603 1.391 . S
C604 C608 1.376 . S
C605 C603 1.394 . S
C605 C606 1.369 . S
C605 C609 1.531 . S
C606 C605 1.369 . S
C606 C607 1.410 . S
C606 C614 1.503 . S
C607 C606 1.410 . S
C607 C608 1.392 . S
C607 C610 1.511 . S
C608 C604 1.376 . S
C608 C607 1.392 . S
C608 H620 0.929 . S
C609 C605 1.531 . S
C609 H621 0.960 . S
C609 H622 0.962 . S
C609 H623 0.960 . S
C610 C607 1.511 . S
C610 H624 0.961 . S
C610 H625 0.961 . S
C610 H626 0.961 . S
C611 C612 1.370 . S
C611 C613 1.363 . S
C611 H627 0.931 . S
C612 C611 1.370 . S
C612 C616 1.408 . S
C613 C611 1.363 . S
C613 C614 1.370 . S
C613 C617 1.524 . S
C614 C606 1.503 . S
C614 C613 1.370 . S
C614 C615 1.403 . S
C615 C614 1.403 . S
C615 C616 1.404 . S
C615 C618 1.539 . S
C616 C612 1.408 . S
C616 C615 1.404 . S
C616 H628 0.930 . S
C617 C613 1.524 . S
C617 H629 0.956 . S
C617 H630 0.961 . S
C617 H631 0.961 . S
C618 C615 1.539 . S
C618 H632 0.958 . S
C618 H633 0.961 . S
C618 H634 0.960 . S
H619 C603 0.931 . S
H620 C608 0.929 . S
H621 C609 0.960 . S
H622 C609 0.962 . S
H623 C609 0.960 . S
H624 C610 0.961 . S
H625 C610 0.961 . S
H626 C610 0.961 . S
H627 C611 0.931 . S
H628 C616 0.930 . S
H629 C617 0.956 . S
H630 C617 0.961 . S
H631 C617 0.961 . S
H632 C618 0.958 . S
H633 C618 0.961 . S
H634 C618 0.960 . S
C635 C636 1.391 . S
C635 C637 1.394 . S
C635 H651 0.924 1_556 S
C636 C635 1.391 . S
C636 C640 1.376 . S
C637 C635 1.394 . S
C637 C638 1.369 . S
C637 C641 1.531 . S
C638 C637 1.369 . S
C638 C639 1.410 . S
C638 C646 1.503 . S
C639 C638 1.410 . S
C639 C640 1.392 . S
C639 C642 1.511 . S
C640 C636 1.376 . S
C640 C639 1.392 . S
C640 H652 0.929 . S
C641 C637 1.531 . S
C641 H653 0.960 . S
C641 H654 0.962 . S
C641 H655 0.960 . S
C642 C639 1.511 . S
C642 H656 0.961 . S
C642 H657 0.961 . S
C642 H658 0.961 . S
C643 C644 1.370 . S
C643 C645 1.363 . S
C643 H659 0.931 . S
C644 C643 1.370 . S
C644 C648 1.408 . S
C645 C643 1.363 . S
C645 C646 1.370 . S
C645 C649 1.524 . S
C646 C638 1.503 . S
C646 C645 1.370 . S
C646 C647 1.403 . S
C647 C646 1.403 . S
C647 C648 1.404 . S
C647 C650 1.539 . S
C648 C644 1.408 . S
C648 C647 1.404 . S
C648 H660 0.930 . S
C649 C645 1.524 . S
C649 H661 0.956 . S
C649 H662 0.961 . S
C649 H663 0.961 . S
C650 C647 1.539 . S
C650 H664 0.958 . S
C650 H665 0.961 . S
C650 H666 0.960 . S
H651 C635 0.924 1_554 S
H652 C640 0.929 . S
H653 C641 0.960 . S
H654 C641 0.962 . S
H655 C641 0.960 . S
H656 C642 0.961 . S
H657 C642 0.961 . S
H658 C642 0.961 . S
H659 C643 0.931 . S
H660 C648 0.930 . S
H661 C649 0.956 . S
H662 C649 0.961 . S
H663 C649 0.961 . S
H664 C650 0.958 . S
H665 C650 0.961 . S
H666 C650 0.960 . S
C667 C668 1.391 . S
C667 C669 1.394 . S
C667 H683 0.931 1_556 S
C668 C667 1.391 . S
C668 C672 1.376 . S
C669 C667 1.394 . S
C669 C670 1.369 . S
C669 C673 1.531 . S
C670 C669 1.369 . S
C670 C671 1.410 . S
C670 C678 1.503 . S
C671 C670 1.410 . S
C671 C672 1.392 . S
C671 C674 1.511 . S
C672 C668 1.376 . S
C672 C671 1.392 . S
C672 H684 0.929 . S
C673 C669 1.531 . S
C673 H685 0.960 . S
C673 H686 0.962 . S
C673 H687 0.960 . S
C674 C671 1.511 . S
C674 H688 0.961 . S
C674 H689 0.961 . S
C674 H690 0.961 . S
C675 C676 1.370 . S
C675 C677 1.363 . S
C675 H691 0.931 . S
C676 C675 1.370 . S
C676 C680 1.408 . S
C677 C675 1.363 . S
C677 C678 1.370 . S
C677 C681 1.524 . S
C678 C670 1.503 . S
C678 C677 1.370 . S
C678 C679 1.403 . S
C679 C678 1.403 . S
C679 C680 1.404 . S
C679 C682 1.539 . S
C680 C676 1.408 . S
C680 C679 1.404 . S
C680 H692 0.930 . S
C681 C677 1.524 . S
C681 H693 0.956 . S
C681 H694 0.961 . S
C681 H695 0.961 . S
C682 C679 1.539 . S
C682 H696 0.958 . S
C682 H697 0.961 . S
C682 H698 0.960 . S
H683 C667 0.931 1_554 S
H684 C672 0.929 . S
H685 C673 0.960 . S
H686 C673 0.962 . S
H687 C673 0.960 . S
H688 C674 0.961 . S
H689 C674 0.961 . S
H690 C674 0.961 . S
H691 C675 0.931 . S
H692 C680 0.930 . S
H693 C681 0.956 . S
H694 C681 0.961 . S
H695 C681 0.961 . S
H696 C682 0.958 . S
H697 C682 0.961 . S
H698 C682 0.960 . S
C699 C700 1.391 . S
C699 C701 1.394 1_554 S
C699 H715 0.931 . S
C700 C699 1.391 . S
C700 C704 1.376 1_554 S
C701 C699 1.394 1_556 S
C701 C702 1.369 . S
C701 C705 1.531 . S
C702 C701 1.369 . S
C702 C703 1.410 . S
C702 C710 1.503 . S
C703 C702 1.410 . S
C703 C704 1.392 . S
C703 C706 1.511 . S
C704 C700 1.376 1_556 S
C704 C703 1.392 . S
C704 H716 0.929 . S
C705 C701 1.531 . S
C705 H717 0.960 . S
C705 H718 0.962 . S
C705 H719 0.960 . S
C706 C703 1.511 . S
C706 H720 0.961 . S
C706 H721 0.961 . S
C706 H722 0.961 . S
C707 C708 1.370 . S
C707 C709 1.363 . S
C707 H723 0.931 . S
C708 C707 1.370 . S
C708 C712 1.408 . S
C709 C707 1.363 . S
C709 C710 1.370 . S
C709 C713 1.524 . S
C710 C702 1.503 . S
C710 C709 1.370 . S
C710 C711 1.403 . S
C711 C710 1.403 . S
C711 C712 1.404 . S
C711 C714 1.539 . S
C712 C708 1.408 . S
C712 C711 1.404 . S
C712 H724 0.930 . S
C713 C709 1.524 . S
C713 H725 0.956 1_556 S
C713 H726 0.961 . S
C713 H727 0.961 . S
C714 C711 1.539 . S
C714 H728 0.958 . S
C714 H729 0.961 . S
C714 H730 0.960 . S
H715 C699 0.931 . S
H716 C704 0.929 . S
H717 C705 0.960 . S
H718 C705 0.962 . S
H719 C705 0.960 . S
H720 C706 0.961 . S
H721 C706 0.961 . S
H722 C706 0.961 . S
H723 C707 0.931 . S
H724 C712 0.930 . S
H725 C713 0.956 1_554 S
H726 C713 0.961 . S
H727 C713 0.961 . S
H728 C714 0.958 . S
H729 C714 0.961 . S
H730 C714 0.960 . S
C731 C732 1.391 1_556 S
C731 C733 1.394 . S
C731 H747 0.931 . S
C732 C731 1.391 1_554 S
C732 C736 1.376 . S
C733 C731 1.394 . S
C733 C734 1.369 . S
C733 C737 1.531 . S
C734 C733 1.369 . S
C734 C735 1.410 . S
C734 C742 1.503 . S
C735 C734 1.410 . S
C735 C736 1.392 1_556 S
C735 C738 1.511 1_556 S
C736 C732 1.376 . S
C736 C735 1.392 1_554 S
C736 H748 0.929 . S
C737 C733 1.531 . S
C737 H749 0.960 . S
C737 H750 0.962 . S
C737 H751 0.960 . S
C738 C735 1.511 1_554 S
C738 H752 0.961 . S
C738 H753 0.961 1_554 S
C738 H754 0.961 1_554 S
C739 C740 1.370 . S
C739 C741 1.363 . S
C739 H755 0.931 . S
C740 C739 1.370 . S
C740 C744 1.408 . S
C741 C739 1.363 . S
C741 C742 1.370 . S
C741 C745 1.524 . S
C742 C734 1.503 . S
C742 C741 1.370 . S
C742 C743 1.403 . S
C743 C742 1.403 . S
C743 C744 1.404 . S
C743 C746 1.539 . S
C744 C740 1.408 . S
C744 C743 1.404 . S
C744 H756 0.930 . S
C745 C741 1.524 . S
C745 H757 0.956 . S
C745 H758 0.961 . S
C745 H759 0.961 . S
C746 C743 1.539 . S
C746 H760 0.958 . S
C746 H761 0.961 . S
C746 H762 0.960 . S
H747 C731 0.931 . S
H748 C736 0.929 . S
H749 C737 0.960 . S
H750 C737 0.962 . S
H751 C737 0.960 . S
H752 C738 0.961 . S
H753 C738 0.961 1_556 S
H754 C738 0.961 1_556 S
H755 C739 0.931 . S
H756 C744 0.930 . S
H757 C745 0.956 . S
H758 C745 0.961 . S
H759 C745 0.961 . S
H760 C746 0.958 . S
H761 C746 0.961 . S
H762 C746 0.960 . S
C763 C764 1.391 1_556 S
C763 C765 1.394 . S
C763 H779 0.931 . S
C764 C763 1.391 1_554 S
C764 C768 1.376 . S
C765 C763 1.394 . S
C765 C766 1.369 . S
C765 C769 1.531 . S
C766 C765 1.369 . S
C766 C767 1.410 1_556 S
C766 C774 1.503 . S
C767 C766 1.410 1_554 S
C767 C768 1.392 . S
C767 C770 1.511 . S
C768 C764 1.376 . S
C768 C767 1.392 . S
C768 H780 0.929 . S
C769 C765 1.531 . S
C769 H781 0.960 . S
C769 H782 0.962 . S
C769 H783 0.960 . S
C770 C767 1.511 . S
C770 H784 0.961 . S
C770 H785 0.961 . S
C770 H786 0.961 . S
C771 C772 1.370 . S
C771 C773 1.363 . S
C771 H787 0.931 . S
C772 C771 1.370 . S
C772 C776 1.408 . S
C773 C771 1.363 . S
C773 C774 1.370 . S
C773 C777 1.524 . S
C774 C766 1.503 . S
C774 C773 1.370 . S
C774 C775 1.403 . S
C775 C774 1.403 . S
C775 C776 1.404 . S
C775 C778 1.539 . S
C776 C772 1.408 . S
C776 C775 1.404 . S
C776 H788 0.930 . S
C777 C773 1.524 . S
C777 H789 0.956 . S
C777 H790 0.961 1_556 S
C777 H791 0.961 . S
C778 C775 1.539 . S
C778 H792 0.958 . S
C778 H793 0.961 . S
C778 H794 0.960 . S
H779 C763 0.931 . S
H780 C768 0.929 . S
H781 C769 0.960 . S
H782 C769 0.962 . S
H783 C769 0.960 . S
H784 C770 0.961 . S
H785 C770 0.961 . S
H786 C770 0.961 . S
H787 C771 0.931 . S
H788 C776 0.930 . S
H789 C777 0.956 . S
H790 C777 0.961 1_554 S
H791 C777 0.961 . S
H792 C778 0.958 . S
H793 C778 0.961 . S
H794 C778 0.960 . S
C795 C796 1.391 . S
C795 C797 1.394 . S
C795 H811 0.931 . S
C796 C795 1.391 . S
C796 C800 1.376 . S
C797 C795 1.394 . S
C797 C798 1.369 . S
C797 C801 1.531 . S
C798 C797 1.369 . S
C798 C799 1.410 . S
C798 C806 1.503 . S
C799 C798 1.410 . S
C799 C800 1.392 . S
C799 C802 1.511 . S
C800 C796 1.376 . S
C800 C799 1.392 . S
C800 H812 0.929 . S
C801 C797 1.531 . S
C801 H813 0.960 . S
C801 H814 0.962 . S
C801 H815 0.960 . S
C802 C799 1.511 . S
C802 H816 0.961 . S
C802 H817 0.961 . S
C802 H818 0.961 . S
C803 C804 1.370 . S
C803 C805 1.363 . S
C803 H819 0.931 . S
C804 C803 1.370 . S
C804 C808 1.408 . S
C805 C803 1.363 . S
C805 C806 1.370 . S
C805 C809 1.524 . S
C806 C798 1.503 . S
C806 C805 1.370 . S
C806 C807 1.403 . S
C807 C806 1.403 . S
C807 C808 1.404 . S
C807 C810 1.539 . S
C808 C804 1.408 . S
C808 C807 1.404 . S
C808 H820 0.930 . S
C809 C805 1.524 . S
C809 H821 0.956 . S
C809 H822 0.961 . S
C809 H823 0.961 . S
C810 C807 1.539 . S
C810 H824 0.958 . S
C810 H825 0.961 . S
C810 H826 0.960 . S
H811 C795 0.931 . S
H812 C800 0.929 . S
H813 C801 0.960 . S
H814 C801 0.962 . S
H815 C801 0.960 . S
H816 C802 0.961 . S
H817 C802 0.961 . S
H818 C802 0.961 . S
H819 C803 0.931 . S
H820 C808 0.930 . S
H821 C809 0.956 . S
H822 C809 0.961 . S
H823 C809 0.961 . S
H824 C810 0.958 . S
H825 C810 0.961 . S
H826 C810 0.960 . S
C827 C828 1.391 . S
C827 C829 1.394 . S
C827 H843 0.931 . S
C828 C827 1.391 . S
C828 C832 1.376 . S
C829 C827 1.394 . S
C829 C830 1.369 . S
C829 C833 1.531 . S
C830 C829 1.369 . S
C830 C831 1.410 . S
C830 C838 1.503 . S
C831 C830 1.410 . S
C831 C832 1.392 . S
C831 C834 1.511 . S
C832 C828 1.376 . S
C832 C831 1.392 . S
C832 H844 0.929 . S
C833 C829 1.531 . S
C833 H845 0.960 . S
C833 H846 0.962 . S
C833 H847 0.960 . S
C834 C831 1.511 . S
C834 H848 0.961 . S
C834 H849 0.961 . S
C834 H850 0.961 . S
C835 C836 1.370 . S
C835 C837 1.363 . S
C835 H851 0.931 . S
C836 C835 1.370 . S
C836 C840 1.408 . S
C837 C835 1.363 . S
C837 C838 1.370 . S
C837 C841 1.524 . S
C838 C830 1.503 . S
C838 C837 1.370 . S
C838 C839 1.403 . S
C839 C838 1.403 . S
C839 C840 1.404 . S
C839 C842 1.539 . S
C840 C836 1.408 . S
C840 C839 1.404 . S
C840 H852 0.930 . S
C841 C837 1.524 . S
C841 H853 0.956 . S
C841 H854 0.961 . S
C841 H855 0.961 . S
C842 C839 1.539 . S
C842 H856 0.958 . S
C842 H857 0.961 . S
C842 H858 0.960 . S
H843 C827 0.931 . S
H844 C832 0.929 . S
H845 C833 0.960 . S
H846 C833 0.962 . S
H847 C833 0.960 . S
H848 C834 0.961 . S
H849 C834 0.961 . S
H850 C834 0.961 . S
H851 C835 0.931 . S
H852 C840 0.930 . S
H853 C841 0.956 . S
H854 C841 0.961 . S
H855 C841 0.961 . S
H856 C842 0.958 . S
H857 C842 0.961 . S
H858 C842 0.960 . S
C859 C860 1.391 . S
C859 C861 1.394 . S
C859 H875 0.931 . S
C860 C859 1.391 . S
C860 C864 1.376 . S
C861 C859 1.394 . S
C861 C862 1.369 1_554 S
C861 C865 1.531 1_554 S
C862 C861 1.369 1_556 S
C862 C863 1.410 1_556 S
C862 C870 1.503 . S
C863 C862 1.410 1_554 S
C863 C864 1.392 . S
C863 C866 1.511 1_554 S
C864 C860 1.376 . S
C864 C863 1.392 . S
C864 H876 0.929 . S
C865 C861 1.531 1_556 S
C865 H877 0.960 . S
C865 H878 0.962 . S
C865 H879 0.960 1_556 S
C866 C863 1.511 1_556 S
C866 H880 0.961 . S
C866 H881 0.961 . S
C866 H882 0.961 1_556 S
C867 C868 1.370 . S
C867 C869 1.363 . S
C867 H883 0.931 . S
C868 C867 1.370 . S
C868 C872 1.408 . S
C869 C867 1.363 . S
C869 C870 1.370 . S
C869 C873 1.524 . S
C870 C862 1.503 . S
C870 C869 1.370 . S
C870 C871 1.403 . S
C871 C870 1.403 . S
C871 C872 1.404 . S
C871 C874 1.539 1_556 S
C872 C868 1.408 . S
C872 C871 1.404 . S
C872 H884 0.930 . S
C873 C869 1.524 . S
C873 H885 0.956 . S
C873 H886 0.961 . S
C873 H887 0.961 . S
C874 C871 1.539 1_554 S
C874 H888 0.958 . S
C874 H889 0.961 . S
C874 H890 0.960 . S
H875 C859 0.931 . S
H876 C864 0.929 . S
H877 C865 0.960 . S
H878 C865 0.962 . S
H879 C865 0.960 1_554 S
H880 C866 0.961 . S
H881 C866 0.961 . S
H882 C866 0.961 1_554 S
H883 C867 0.931 . S
H884 C872 0.930 . S
H885 C873 0.956 . S
H886 C873 0.961 . S
H887 C873 0.961 . S
H888 C874 0.958 . S
H889 C874 0.961 . S
H890 C874 0.960 . S
C891 C892 1.391 . S
C891 C893 1.394 . S
C891 H907 0.931 . S
C892 C891 1.391 . S
C892 C896 1.376 1_554 S
C893 C891 1.394 . S
C893 C894 1.369 1_554 S
C893 C897 1.531 . S
C894 C893 1.369 1_556 S
C894 C895 1.410 . S
C894 C902 1.503 . S
C895 C894 1.410 . S
C895 C896 1.392 . S
C895 C898 1.511 . S
C896 C892 1.376 1_556 S
C896 C895 1.392 . S
C896 H908 0.929 . S
C897 C893 1.531 . S
C897 H909 0.960 . S
C897 H910 0.962 . S
C897 H911 0.960 . S
C898 C895 1.511 . S
C898 H912 0.961 . S
C898 H913 0.961 . S
C898 H914 0.961 . S
C899 C900 1.370 . S
C899 C901 1.363 . S
C899 H915 0.931 . S
C900 C899 1.370 . S
C900 C904 1.408 . S
C901 C899 1.363 . S
C901 C902 1.370 . S
C901 C905 1.524 . S
C902 C894 1.503 . S
C902 C901 1.370 . S
C902 C903 1.403 . S
C903 C902 1.403 . S
C903 C904 1.404 . S
C903 C906 1.539 . S
C904 C900 1.408 . S
C904 C903 1.404 . S
C904 H916 0.930 . S
C905 C901 1.524 . S
C905 H917 0.956 . S
C905 H918 0.961 . S
C905 H919 0.961 . S
C906 C903 1.539 . S
C906 H920 0.958 . S
C906 H921 0.961 . S
C906 H922 0.960 . S
H907 C891 0.931 . S
H908 C896 0.929 . S
H909 C897 0.960 . S
H910 C897 0.962 . S
H911 C897 0.960 . S
H912 C898 0.961 . S
H913 C898 0.961 . S
H914 C898 0.961 . S
H915 C899 0.931 . S
H916 C904 0.930 . S
H917 C905 0.956 . S
H918 C905 0.961 . S
H919 C905 0.961 . S
H920 C906 0.958 . S
H921 C906 0.961 . S
H922 C906 0.960 . S
C923 C924 1.391 . S
C923 C925 1.394 . S
C923 H939 0.931 . S
C924 C923 1.391 . S
C924 C928 1.376 . S
C925 C923 1.394 . S
C925 C926 1.369 . S
C925 C929 1.531 . S
C926 C925 1.369 . S
C926 C927 1.410 . S
C926 C934 1.503 . S
C927 C926 1.410 . S
C927 C928 1.392 . S
C927 C930 1.511 . S
C928 C924 1.376 . S
C928 C927 1.392 . S
C928 H940 0.929 . S
C929 C925 1.531 . S
C929 H941 0.960 . S
C929 H942 0.962 . S
C929 H943 0.960 . S
C930 C927 1.511 . S
C930 H944 0.961 . S
C930 H945 0.961 . S
C930 H946 0.961 . S
C931 C932 1.370 . S
C931 C933 1.363 . S
C931 H947 0.931 . S
C932 C931 1.370 . S
C932 C936 1.408 . S
C933 C931 1.363 . S
C933 C934 1.370 . S
C933 C937 1.524 . S
C934 C926 1.503 . S
C934 C933 1.370 . S
C934 C935 1.403 . S
C935 C934 1.403 . S
C935 C936 1.404 . S
C935 C938 1.539 . S
C936 C932 1.408 . S
C936 C935 1.404 . S
C936 H948 0.930 . S
C937 C933 1.524 . S
C937 H949 0.956 . S
C937 H950 0.961 . S
C937 H951 0.961 . S
C938 C935 1.539 . S
C938 H952 0.958 . S
C938 H953 0.961 . S
C938 H954 0.960 . S
H939 C923 0.931 . S
H940 C928 0.929 . S
H941 C929 0.960 . S
H942 C929 0.962 . S
H943 C929 0.960 . S
H944 C930 0.961 . S
H945 C930 0.961 . S
H946 C930 0.961 . S
H947 C931 0.931 . S
H948 C936 0.930 . S
H949 C937 0.956 . S
H950 C937 0.961 . S
H951 C937 0.961 . S
H952 C938 0.958 . S
H953 C938 0.961 . S
H954 C938 0.960 . S
C955 C956 1.391 . S
C955 C957 1.394 . S
C955 H971 0.931 . S
C956 C955 1.391 . S
C956 C960 1.376 . S
C957 C955 1.394 . S
C957 C958 1.369 . S
C957 C961 1.531 . S
C958 C957 1.369 . S
C958 C959 1.410 . S
C958 C966 1.503 . S
C959 C958 1.410 . S
C959 C960 1.392 . S
C959 C962 1.511 . S
C960 C956 1.376 . S
C960 C959 1.392 . S
C960 H972 0.929 . S
C961 C957 1.531 . S
C961 H973 0.960 . S
C961 H974 0.962 . S
C961 H975 0.960 . S
C962 C959 1.511 . S
C962 H976 0.961 . S
C962 H977 0.961 . S
C962 H978 0.961 . S
C963 C964 1.370 . S
C963 C965 1.363 . S
C963 H979 0.931 . S
C964 C963 1.370 . S
C964 C968 1.408 . S
C965 C963 1.363 . S
C965 C966 1.370 . S
C965 C969 1.524 . S
C966 C958 1.503 . S
C966 C965 1.370 . S
C966 C967 1.403 . S
C967 C966 1.403 . S
C967 C968 1.404 . S
C967 C970 1.539 . S
C968 C964 1.408 . S
C968 C967 1.404 . S
C968 H980 0.930 . S
C969 C965 1.524 . S
C969 H981 0.956 . S
C969 H982 0.961 . S
C969 H983 0.961 . S
C970 C967 1.539 . S
C970 H984 0.958 . S
C970 H985 0.961 . S
C970 H986 0.960 . S
H971 C955 0.931 . S
H972 C960 0.929 . S
H973 C961 0.960 . S
H974 C961 0.962 . S
H975 C961 0.960 . S
H976 C962 0.961 . S
H977 C962 0.961 . S
H978 C962 0.961 . S
H979 C963 0.931 . S
H980 C968 0.930 . S
H981 C969 0.956 . S
H982 C969 0.961 . S
H983 C969 0.961 . S
H984 C970 0.958 . S
H985 C970 0.961 . S
H986 C970 0.960 . S
C987 C988 1.391 . S
C987 C989 1.394 . S
C987 H1003 0.931 . S
C988 C987 1.391 . S
C988 C992 1.376 . S
C989 C987 1.394 . S
C989 C990 1.369 . S
C989 C993 1.531 . S
C990 C989 1.369 . S
C990 C991 1.410 . S
C990 C998 1.503 . S
C991 C990 1.410 . S
C991 C992 1.392 . S
C991 C994 1.511 . S
C992 C988 1.376 . S
C992 C991 1.392 . S
C992 H1004 0.929 . S
C993 C989 1.531 . S
C993 H1005 0.960 . S
C993 H1006 0.962 . S
C993 H1007 0.960 . S
C994 C991 1.511 . S
C994 H1008 0.961 . S
C994 H1009 0.961 . S
C994 H1010 0.961 . S
C995 C996 1.370 . S
C995 C997 1.363 . S
C995 H1011 0.931 . S
C996 C995 1.370 . S
C996 C1000 1.408 . S
C997 C995 1.363 . S
C997 C998 1.370 . S
C997 C1001 1.524 . S
C998 C990 1.503 . S
C998 C997 1.370 . S
C998 C999 1.403 . S
C999 C998 1.403 . S
C999 C1000 1.404 . S
C999 C1002 1.539 . S
C1000 C996 1.408 . S
C1000 C999 1.404 . S
C1000 H1012 0.930 . S
C1001 C997 1.524 . S
C1001 H1013 0.956 . S
C1001 H1014 0.961 . S
C1001 H1015 0.961 . S
C1002 C999 1.539 . S
C1002 H1016 0.958 . S
C1002 H1017 0.961 . S
C1002 H1018 0.960 . S
H1003 C987 0.931 . S
H1004 C992 0.929 . S
H1005 C993 0.960 . S
H1006 C993 0.962 . S
H1007 C993 0.960 . S
H1008 C994 0.961 . S
H1009 C994 0.961 . S
H1010 C994 0.961 . S
H1011 C995 0.931 . S
H1012 C1000 0.930 . S
H1013 C1001 0.956 . S
H1014 C1001 0.961 . S
H1015 C1001 0.961 . S
H1016 C1002 0.958 . S
H1017 C1002 0.961 . S
H1018 C1002 0.960 . S
C1019 C1020 1.391 . S
C1019 C1021 1.394 . S
C1019 H1035 0.931 . S
C1020 C1019 1.391 . S
C1020 C1024 1.376 . S
C1021 C1019 1.394 . S
C1021 C1022 1.369 . S
C1021 C1025 1.531 . S
C1022 C1021 1.369 . S
C1022 C1023 1.410 . S
C1022 C1030 1.503 . S
C1023 C1022 1.410 . S
C1023 C1024 1.392 . S
C1023 C1026 1.511 . S
C1024 C1020 1.376 . S
C1024 C1023 1.392 . S
C1024 H1036 0.929 . S
C1025 C1021 1.531 . S
C1025 H1037 0.960 . S
C1025 H1038 0.962 . S
C1025 H1039 0.960 . S
C1026 C1023 1.511 . S
C1026 H1040 0.961 . S
C1026 H1041 0.961 . S
C1026 H1042 0.961 . S
C1027 C1028 1.370 . S
C1027 C1029 1.363 . S
C1027 H1043 0.931 . S
C1028 C1027 1.370 . S
C1028 C1032 1.408 . S
C1029 C1027 1.363 . S
C1029 C1030 1.370 . S
C1029 C1033 1.524 . S
C1030 C1022 1.503 . S
C1030 C1029 1.370 . S
C1030 C1031 1.403 . S
C1031 C1030 1.403 . S
C1031 C1032 1.404 . S
C1031 C1034 1.539 . S
C1032 C1028 1.408 . S
C1032 C1031 1.404 . S
C1032 H1044 0.930 . S
C1033 C1029 1.524 . S
C1033 H1045 0.956 . S
C1033 H1046 0.961 . S
C1033 H1047 0.961 . S
C1034 C1031 1.539 . S
C1034 H1048 0.958 . S
C1034 H1049 0.961 . S
C1034 H1050 0.960 . S
H1035 C1019 0.931 . S
H1036 C1024 0.929 . S
H1037 C1025 0.960 . S
H1038 C1025 0.962 . S
H1039 C1025 0.960 . S
H1040 C1026 0.961 . S
H1041 C1026 0.961 . S
H1042 C1026 0.961 . S
H1043 C1027 0.931 . S
H1044 C1032 0.930 . S
H1045 C1033 0.956 . S
H1046 C1033 0.961 . S
H1047 C1033 0.961 . S
H1048 C1034 0.958 . S
H1049 C1034 0.961 . S
H1050 C1034 0.960 . S
C1051 C1052 1.391 . S
C1051 C1053 1.394 . S
C1051 H1067 0.931 . S
C1052 C1051 1.391 . S
C1052 C1056 1.376 . S
C1053 C1051 1.394 . S
C1053 C1054 1.369 . S
C1053 C1057 1.531 . S
C1054 C1053 1.369 . S
C1054 C1055 1.410 . S
C1054 C1062 1.503 . S
C1055 C1054 1.410 . S
C1055 C1056 1.392 . S
C1055 C1058 1.511 . S
C1056 C1052 1.376 . S
C1056 C1055 1.392 . S
C1056 H1068 0.929 . S
C1057 C1053 1.531 . S
C1057 H1069 0.960 . S
C1057 H1070 0.962 . S
C1057 H1071 0.960 . S
C1058 C1055 1.511 . S
C1058 H1072 0.961 . S
C1058 H1073 0.961 . S
C1058 H1074 0.961 . S
C1059 C1060 1.370 . S
C1059 C1061 1.363 . S
C1059 H1075 0.931 . S
C1060 C1059 1.370 . S
C1060 C1064 1.408 . S
C1061 C1059 1.363 . S
C1061 C1062 1.370 . S
C1061 C1065 1.524 . S
C1062 C1054 1.503 . S
C1062 C1061 1.370 . S
C1062 C1063 1.403 . S
C1063 C1062 1.403 . S
C1063 C1064 1.404 . S
C1063 C1066 1.539 . S
C1064 C1060 1.408 . S
C1064 C1063 1.404 . S
C1064 H1076 0.930 . S
C1065 C1061 1.524 . S
C1065 H1077 0.956 . S
C1065 H1078 0.961 . S
C1065 H1079 0.961 . S
C1066 C1063 1.539 . S
C1066 H1080 0.958 . S
C1066 H1081 0.961 . S
C1066 H1082 0.960 . S
H1067 C1051 0.931 . S
H1068 C1056 0.929 . S
H1069 C1057 0.960 . S
H1070 C1057 0.962 . S
H1071 C1057 0.960 . S
H1072 C1058 0.961 . S
H1073 C1058 0.961 . S
H1074 C1058 0.961 . S
H1075 C1059 0.931 . S
H1076 C1064 0.930 . S
H1077 C1065 0.956 . S
H1078 C1065 0.961 . S
H1079 C1065 0.961 . S
H1080 C1066 0.958 . S
H1081 C1066 0.961 . S
H1082 C1066 0.960 . S
C1083 C1084 1.391 . S
C1083 C1085 1.394 . S
C1083 H1099 0.931 . S
C1084 C1083 1.391 . S
C1084 C1088 1.376 . S
C1085 C1083 1.394 . S
C1085 C1086 1.369 . S
C1085 C1089 1.531 . S
C1086 C1085 1.369 . S
C1086 C1087 1.410 . S
C1086 C1094 1.503 . S
C1087 C1086 1.410 . S
C1087 C1088 1.392 . S
C1087 C1090 1.511 . S
C1088 C1084 1.376 . S
C1088 C1087 1.392 . S
C1088 H1100 0.929 . S
C1089 C1085 1.531 . S
C1089 H1101 0.960 . S
C1089 H1102 0.962 . S
C1089 H1103 0.960 . S
C1090 C1087 1.511 . S
C1090 H1104 0.961 . S
C1090 H1105 0.961 . S
C1090 H1106 0.961 . S
C1091 C1092 1.370 . S
C1091 C1093 1.363 . S
C1091 H1107 0.931 . S
C1092 C1091 1.370 . S
C1092 C1096 1.408 . S
C1093 C1091 1.363 . S
C1093 C1094 1.370 . S
C1093 C1097 1.524 . S
C1094 C1086 1.503 . S
C1094 C1093 1.370 . S
C1094 C1095 1.403 . S
C1095 C1094 1.403 . S
C1095 C1096 1.404 . S
C1095 C1098 1.539 . S
C1096 C1092 1.408 . S
C1096 C1095 1.404 . S
C1096 H1108 0.930 . S
C1097 C1093 1.524 . S
C1097 H1109 0.956 . S
C1097 H1110 0.961 . S
C1097 H1111 0.961 . S
C1098 C1095 1.539 . S
C1098 H1112 0.958 . S
C1098 H1113 0.961 . S
C1098 H1114 0.960 . S
H1099 C1083 0.931 . S
H1100 C1088 0.929 . S
H1101 C1089 0.960 . S
H1102 C1089 0.962 . S
H1103 C1089 0.960 . S
H1104 C1090 0.961 . S
H1105 C1090 0.961 . S
H1106 C1090 0.961 . S
H1107 C1091 0.931 . S
H1108 C1096 0.930 . S
H1109 C1097 0.956 . S
H1110 C1097 0.961 . S
H1111 C1097 0.961 . S
H1112 C1098 0.958 . S
H1113 C1098 0.961 . S
H1114 C1098 0.960 . S
C1115 C1116 1.391 . S
C1115 C1117 1.394 . S
C1115 H1131 0.931 . S
C1116 C1115 1.391 . S
C1116 C1120 1.376 . S
C1117 C1115 1.394 . S
C1117 C1118 1.369 . S
C1117 C1121 1.531 . S
C1118 C1117 1.369 . S
C1118 C1119 1.410 . S
C1118 C1126 1.503 . S
C1119 C1118 1.410 . S
C1119 C1120 1.392 . S
C1119 C1122 1.511 . S
C1120 C1116 1.376 . S
C1120 C1119 1.392 . S
C1120 H1132 0.929 . S
C1121 C1117 1.531 . S
C1121 H1133 0.960 . S
C1121 H1134 0.962 . S
C1121 H1135 0.960 . S
C1122 C1119 1.511 . S
C1122 H1136 0.961 . S
C1122 H1137 0.961 . S
C1122 H1138 0.961 . S
C1123 C1124 1.370 . S
C1123 C1125 1.363 . S
C1123 H1139 0.931 . S
C1124 C1123 1.370 . S
C1124 C1128 1.408 . S
C1125 C1123 1.363 . S
C1125 C1126 1.370 . S
C1125 C1129 1.524 . S
C1126 C1118 1.503 . S
C1126 C1125 1.370 . S
C1126 C1127 1.403 . S
C1127 C1126 1.403 . S
C1127 C1128 1.404 . S
C1127 C1130 1.539 . S
C1128 C1124 1.408 . S
C1128 C1127 1.404 . S
C1128 H1140 0.930 . S
C1129 C1125 1.524 . S
C1129 H1141 0.956 . S
C1129 H1142 0.961 . S
C1129 H1143 0.961 . S
C1130 C1127 1.539 . S
C1130 H1144 0.958 . S
C1130 H1145 0.961 . S
C1130 H1146 0.960 . S
H1131 C1115 0.931 . S
H1132 C1120 0.929 . S
H1133 C1121 0.960 . S
H1134 C1121 0.962 . S
H1135 C1121 0.960 . S
H1136 C1122 0.961 . S
H1137 C1122 0.961 . S
H1138 C1122 0.961 . S
H1139 C1123 0.931 . S
H1140 C1128 0.930 . S
H1141 C1129 0.956 . S
H1142 C1129 0.961 . S
H1143 C1129 0.961 . S
H1144 C1130 0.958 . S
H1145 C1130 0.961 . S
H1146 C1130 0.960 . S
C1147 C1148 1.391 . S
C1147 C1149 1.394 . S
C1147 H1163 0.931 . S
C1148 C1147 1.391 . S
C1148 C1152 1.376 . S
C1149 C1147 1.394 . S
C1149 C1150 1.369 . S
C1149 C1153 1.531 . S
C1150 C1149 1.369 . S
C1150 C1151 1.410 . S
C1150 C1158 1.503 . S
C1151 C1150 1.410 . S
C1151 C1152 1.392 . S
C1151 C1154 1.511 . S
C1152 C1148 1.376 . S
C1152 C1151 1.392 . S
C1152 H1164 0.929 . S
C1153 C1149 1.531 . S
C1153 H1165 0.960 . S
C1153 H1166 0.962 . S
C1153 H1167 0.960 . S
C1154 C1151 1.511 . S
C1154 H1168 0.961 . S
C1154 H1169 0.961 . S
C1154 H1170 0.961 . S
C1155 C1156 1.370 . S
C1155 C1157 1.363 . S
C1155 H1171 0.931 . S
C1156 C1155 1.370 . S
C1156 C1160 1.408 . S
C1157 C1155 1.363 . S
C1157 C1158 1.370 . S
C1157 C1161 1.524 . S
C1158 C1150 1.503 . S
C1158 C1157 1.370 . S
C1158 C1159 1.403 . S
C1159 C1158 1.403 . S
C1159 C1160 1.404 . S
C1159 C1162 1.539 . S
C1160 C1156 1.408 . S
C1160 C1159 1.404 . S
C1160 H1172 0.930 . S
C1161 C1157 1.524 . S
C1161 H1173 0.956 . S
C1161 H1174 0.961 . S
C1161 H1175 0.961 . S
C1162 C1159 1.539 . S
C1162 H1176 0.958 . S
C1162 H1177 0.961 . S
C1162 H1178 0.960 . S
H1163 C1147 0.931 . S
H1164 C1152 0.929 . S
H1165 C1153 0.960 . S
H1166 C1153 0.962 . S
H1167 C1153 0.960 . S
H1168 C1154 0.961 . S
H1169 C1154 0.961 . S
H1170 C1154 0.961 . S
H1171 C1155 0.931 . S
H1172 C1160 0.930 . S
H1173 C1161 0.956 . S
H1174 C1161 0.961 . S
H1175 C1161 0.961 . S
H1176 C1162 0.958 . S
H1177 C1162 0.961 . S
H1178 C1162 0.960 . S
C412 C22 1.864 . S
C420 C329 1.803 . S
C444 C92 1.830 . S
C452 C376 1.813 . S
C484 C380 1.924 . S
C476 C144 2.000 . S
C516 C345 1.646 . S
C508 C197 1.698 . S
C540 C250 1.987 . S
C548 C360 1.933 . S
C580 C382 1.102 . S
C572 C287 1.116 . S
C612 C351 1.566 . S
C604 C145 1.637 . S
C636 C198 1.577 . S
C644 C391 1.511 . S
C676 C320 1.519 . S
C668 C251 1.599 . S
C700 C294 1.471 . S
C708 C349 1.424 . S
C732 C29 1.921 . S
C740 C407 1.889 . S
C772 C318 1.753 . S
C764 C91 1.773 . S
C804 C336 1.623 . S
C796 C188 1.698 . S
C836 C350 1.340 . S
C828 C241 1.387 . S
C868 C404 1.770 . S
C860 C304 1.830 . S
C900 C319 1.494 . S
C892 C39 1.501 . S
C932 C367 1.472 . S
C924 C75 1.560 1_556 S
C956 C135 0.917 . S
C964 C390 0.924 . S
C996 C359 1.366 . S
C988 C303 1.451 . S
C1028 C398 1.337 . S
C1020 C38 1.349 . S
C1060 C328 1.144 . S
C1052 C82 1.163 . S
C1092 C373 1.271 . S
C1084 C128 1.304 . S
C1116 C181 1.744 . S
C1124 C381 1.724 . S
C1148 C234 1.330 . S
C1156 C342 1.287 . S
