# Generated by pormake.
# Topology ibd, (4,6)-cn, num edge types: 1
# Building blocks:
#     Node 0, Type 0, BuildingBlock: TATPOV_clean_sbu_0, # of connection points: 4
#     Node 1, Type 0, BuildingBlock: TATPOV_clean_sbu_0, # of connection points: 4
#     Node 2, Type 0, BuildingBlock: TATPOV_clean_sbu_0, # of connection points: 4
#     Node 3, Type 0, BuildingBlock: TATPOV_clean_sbu_0, # of connection points: 4
#     Node 4, Type 0, BuildingBlock: TATPOV_clean_sbu_0, # of connection points: 4
#     Node 5, Type 0, BuildingBlock: TATPOV_clean_sbu_0, # of connection points: 4
#     Node 6, Type 0, BuildingBlock: TATPOV_clean_sbu_0, # of connection points: 4
#     Node 7, Type 0, BuildingBlock: TATPOV_clean_sbu_0, # of connection points: 4
#     Node 8, Type 0, BuildingBlock: TATPOV_clean_sbu_0, # of connection points: 4
#     Node 9, Type 0, BuildingBlock: TATPOV_clean_sbu_0, # of connection points: 4
#     Node 10, Type 0, BuildingBlock: TATPOV_clean_sbu_0, # of connection points: 4
#     Node 11, Type 0, BuildingBlock: TATPOV_clean_sbu_0, # of connection points: 4
#     Node 12, Type 0, BuildingBlock: TATPOV_clean_sbu_0, # of connection points: 4
#     Node 13, Type 0, BuildingBlock: TATPOV_clean_sbu_0, # of connection points: 4
#     Node 14, Type 0, BuildingBlock: TATPOV_clean_sbu_0, # of connection points: 4
#     Node 15, Type 0, BuildingBlock: TATPOV_clean_sbu_0, # of connection points: 4
#     Node 16, Type 0, BuildingBlock: TATPOV_clean_sbu_0, # of connection points: 4
#     Node 17, Type 0, BuildingBlock: TATPOV_clean_sbu_0, # of connection points: 4
#     Node 18, Type 0, BuildingBlock: TATPOV_clean_sbu_0, # of connection points: 4
#     Node 19, Type 0, BuildingBlock: TATPOV_clean_sbu_0, # of connection points: 4
#     Node 20, Type 0, BuildingBlock: TATPOV_clean_sbu_0, # of connection points: 4
#     Node 21, Type 0, BuildingBlock: TATPOV_clean_sbu_0, # of connection points: 4
#     Node 22, Type 0, BuildingBlock: TATPOV_clean_sbu_0, # of connection points: 4
#     Node 23, Type 0, BuildingBlock: TATPOV_clean_sbu_0, # of connection points: 4
#     Node 24, Type 1, BuildingBlock: CIFDUS_clean_sbu_1, # of connection points: 6
#     Node 25, Type 1, BuildingBlock: CIFDUS_clean_sbu_1, # of connection points: 6
#     Node 26, Type 1, BuildingBlock: CIFDUS_clean_sbu_1, # of connection points: 6
#     Node 27, Type 1, BuildingBlock: CIFDUS_clean_sbu_1, # of connection points: 6
#     Node 28, Type 1, BuildingBlock: CIFDUS_clean_sbu_1, # of connection points: 6
#     Node 29, Type 1, BuildingBlock: CIFDUS_clean_sbu_1, # of connection points: 6
#     Node 30, Type 1, BuildingBlock: CIFDUS_clean_sbu_1, # of connection points: 6
#     Node 31, Type 1, BuildingBlock: CIFDUS_clean_sbu_1, # of connection points: 6
#     Node 32, Type 1, BuildingBlock: CIFDUS_clean_sbu_1, # of connection points: 6
#     Node 33, Type 1, BuildingBlock: CIFDUS_clean_sbu_1, # of connection points: 6
#     Node 34, Type 1, BuildingBlock: CIFDUS_clean_sbu_1, # of connection points: 6
#     Node 35, Type 1, BuildingBlock: CIFDUS_clean_sbu_1, # of connection points: 6
#     Node 36, Type 1, BuildingBlock: CIFDUS_clean_sbu_1, # of connection points: 6
#     Node 37, Type 1, BuildingBlock: CIFDUS_clean_sbu_1, # of connection points: 6
#     Node 38, Type 1, BuildingBlock: CIFDUS_clean_sbu_1, # of connection points: 6
#     Node 39, Type 1, BuildingBlock: CIFDUS_clean_sbu_1, # of connection points: 6
#     Edge 40, Type (0, 1), None
#     Edge 41, Type (0, 1), None
#     Edge 42, Type (0, 1), None
#     Edge 43, Type (0, 1), None
#     Edge 44, Type (0, 1), None
#     Edge 45, Type (0, 1), None
#     Edge 46, Type (0, 1), None
#     Edge 47, Type (0, 1), None
#     Edge 48, Type (0, 1), None
#     Edge 49, Type (0, 1), None
#     Edge 50, Type (0, 1), None
#     Edge 51, Type (0, 1), None
#     Edge 52, Type (0, 1), None
#     Edge 53, Type (0, 1), None
#     Edge 54, Type (0, 1), None
#     Edge 55, Type (0, 1), None
#     Edge 56, Type (0, 1), None
#     Edge 57, Type (0, 1), None
#     Edge 58, Type (0, 1), None
#     Edge 59, Type (0, 1), None
#     Edge 60, Type (0, 1), None
#     Edge 61, Type (0, 1), None
#     Edge 62, Type (0, 1), None
#     Edge 63, Type (0, 1), None
#     Edge 64, Type (0, 1), None
#     Edge 65, Type (0, 1), None
#     Edge 66, Type (0, 1), None
#     Edge 67, Type (0, 1), None
#     Edge 68, Type (0, 1), None
#     Edge 69, Type (0, 1), None
#     Edge 70, Type (0, 1), None
#     Edge 71, Type (0, 1), None
#     Edge 72, Type (0, 1), None
#     Edge 73, Type (0, 1), None
#     Edge 74, Type (0, 1), None
#     Edge 75, Type (0, 1), None
#     Edge 76, Type (0, 1), None
#     Edge 77, Type (0, 1), None
#     Edge 78, Type (0, 1), None
#     Edge 79, Type (0, 1), None
#     Edge 80, Type (0, 1), None
#     Edge 81, Type (0, 1), None
#     Edge 82, Type (0, 1), None
#     Edge 83, Type (0, 1), None
#     Edge 84, Type (0, 1), None
#     Edge 85, Type (0, 1), None
#     Edge 86, Type (0, 1), None
#     Edge 87, Type (0, 1), None
#     Edge 88, Type (0, 1), None
#     Edge 89, Type (0, 1), None
#     Edge 90, Type (0, 1), None
#     Edge 91, Type (0, 1), None
#     Edge 92, Type (0, 1), None
#     Edge 93, Type (0, 1), None
#     Edge 94, Type (0, 1), None
#     Edge 95, Type (0, 1), None
#     Edge 96, Type (0, 1), None
#     Edge 97, Type (0, 1), None
#     Edge 98, Type (0, 1), None
#     Edge 99, Type (0, 1), None
#     Edge 100, Type (0, 1), None
#     Edge 101, Type (0, 1), None
#     Edge 102, Type (0, 1), None
#     Edge 103, Type (0, 1), None
#     Edge 104, Type (0, 1), None
#     Edge 105, Type (0, 1), None
#     Edge 106, Type (0, 1), None
#     Edge 107, Type (0, 1), None
#     Edge 108, Type (0, 1), None
#     Edge 109, Type (0, 1), None
#     Edge 110, Type (0, 1), None
#     Edge 111, Type (0, 1), None
#     Edge 112, Type (0, 1), None
#     Edge 113, Type (0, 1), None
#     Edge 114, Type (0, 1), None
#     Edge 115, Type (0, 1), None
#     Edge 116, Type (0, 1), None
#     Edge 117, Type (0, 1), None
#     Edge 118, Type (0, 1), None
#     Edge 119, Type (0, 1), None
#     Edge 120, Type (0, 1), None
#     Edge 121, Type (0, 1), None
#     Edge 122, Type (0, 1), None
#     Edge 123, Type (0, 1), None
#     Edge 124, Type (0, 1), None
#     Edge 125, Type (0, 1), None
#     Edge 126, Type (0, 1), None
#     Edge 127, Type (0, 1), None
#     Edge 128, Type (0, 1), None
#     Edge 129, Type (0, 1), None
#     Edge 130, Type (0, 1), None
#     Edge 131, Type (0, 1), None
#     Edge 132, Type (0, 1), None
#     Edge 133, Type (0, 1), None
#     Edge 134, Type (0, 1), None
#     Edge 135, Type (0, 1), None
# Relax obj value: 0.362
# Max RMSD: 0.319
# Mean RMSD: 0.283
data_MOF--net-ibd--node1-TATPOV_clean_sbu_0--node2-CIFDUS_clean_sbu_1--edge1-none
_symmetry_space_group_name_H-M    P1
_symmetry_Int_Tables_number       1
_symmetry_cell_setting            triclinic
loop_
_symmetry_equiv_pos_as_xyz
'x, y, z'
_cell_length_a     21.546355
_cell_length_b     22.245498
_cell_length_c     22.287408
_cell_angle_alpha  93.302888
_cell_angle_beta   92.526135
_cell_angle_gamma 94.190102
loop_
_atom_site_label
_atom_site_type_symbol
_atom_site_fract_x
_atom_site_fract_y
_atom_site_fract_z
_atom_type_partial_charge
Zn0 Zn 0.92938 0.43318 0.42666 0.0
Zn1 Zn 0.02066 0.33523 0.3639 0.0
O2 O 0.96962 0.28207 0.41217 0.0
O3 O 0.92903 0.35074 0.47403 0.0
O4 O 0.056 0.29744 0.29256 0.0
O5 O 0.88119 0.43783 0.33875 0.0
O6 O 0.95683 0.3837 0.33612 0.0
C7 C 0.94503 0.29714 0.46165 0.0
C8 C 0.05608 0.4111 0.45615 0.0
O9 O 0.08155 0.36598 0.43434 0.0
O10 O 0.02306 0.43914 0.42041 0.0
C11 C 0.06305 0.24189 0.29412 0.0
O12 O 0.04958 0.21445 0.34304 0.0
C13 C 0.91261 0.40341 0.30685 0.0
Zn14 Zn 0.89823 0.91218 0.62664 0.0
Zn15 Zn 0.00712 0.81469 0.65644 0.0
O16 O 0.05035 0.84206 0.58062 0.0
O17 O 0.97284 0.90161 0.56904 0.0
O18 O 0.05494 0.77129 0.71658 0.0
O19 O 0.90169 0.92672 0.72164 0.0
O20 O 0.98359 0.8866 0.69965 0.0
C21 C 0.02219 0.87989 0.55018 0.0
C22 C 0.91421 0.78032 0.57201 0.0
O23 O 0.93218 0.7646 0.62346 0.0
O24 O 0.90305 0.83493 0.56541 0.0
C25 C 0.05357 0.71428 0.71445 0.0
O26 O 0.02726 0.68295 0.66713 0.0
C27 C 0.94194 0.89173 0.73732 0.0
Zn28 Zn 0.42936 0.93317 0.92666 0.0
Zn29 Zn 0.52061 0.8352 0.8639 0.0
O30 O 0.46956 0.78204 0.91215 0.0
O31 O 0.42902 0.85073 0.97403 0.0
O32 O 0.55596 0.79742 0.79255 0.0
O33 O 0.38118 0.93783 0.83874 0.0
O34 O 0.45682 0.88371 0.83613 0.0
C35 C 0.445 0.79712 0.96163 0.0
C36 C 0.55606 0.91108 0.95616 0.0
O37 O 0.5815 0.86594 0.93435 0.0
O38 O 0.52306 0.93913 0.92042 0.0
C39 C 0.56304 0.74188 0.79413 0.0
O40 O 0.5496 0.71444 0.84305 0.0
C41 C 0.4126 0.90341 0.80684 0.0
Zn42 Zn 0.39813 0.41213 0.12666 0.0
Zn43 Zn 0.50707 0.31471 0.15645 0.0
O44 O 0.55027 0.3421 0.08063 0.0
O45 O 0.47274 0.40163 0.06902 0.0
O46 O 0.55491 0.27133 0.21658 0.0
O47 O 0.40158 0.42667 0.22165 0.0
O48 O 0.48353 0.38662 0.19966 0.0
C49 C 0.52211 0.37992 0.05018 0.0
C50 C 0.41417 0.2803 0.07202 0.0
O51 O 0.43214 0.26459 0.12347 0.0
O52 O 0.40298 0.33491 0.06541 0.0
C53 C 0.55355 0.21432 0.21443 0.0
O54 O 0.52726 0.183 0.1671 0.0
C55 C 0.44187 0.39172 0.23734 0.0
Zn56 Zn 0.85738 0.88885 0.15373 0.0
Zn57 Zn 0.97612 0.79172 0.11235 0.0
O58 O 0.95636 0.74243 0.18915 0.0
O59 O 0.89357 0.81468 0.19337 0.0
O60 O 0.0188 0.74767 0.047 0.0
O61 O 0.84556 0.89057 0.05908 0.0
O62 O 0.89639 0.81409 0.07392 0.0
C63 C 0.91542 0.76976 0.21748 0.0
C64 C 0.00277 0.88059 0.19855 0.0
O65 O 0.02058 0.86859 0.14579 0.0
O66 O 0.94485 0.88538 0.20589 0.0
C67 C 0.07462 0.73817 0.03566 0.0
O68 O 0.12007 0.7609 0.07325 0.0
C69 C 0.88461 0.85569 0.03928 0.0
Zn70 Zn 0.45852 0.84505 0.38765 0.0
Zn71 Zn 0.54361 0.79982 0.39075 0.0
O72 O 0.6071 0.81914 0.33847 0.0
O73 O 0.52641 0.87219 0.31992 0.0
O74 O 0.55244 0.73452 0.4423 0.0
O75 O 0.46435 0.82751 0.47987 0.0
O76 O 0.54594 0.87556 0.45196 0.0
C77 C 0.57468 0.84734 0.3017 0.0
C78 C 0.42222 0.76635 0.30641 0.0
O79 O 0.47986 0.76248 0.31871 0.0
O80 O 0.39077 0.79549 0.34291 0.0
C81 C 0.5927 0.7108 0.47393 0.0
O82 O 0.65256 0.72453 0.46976 0.0
C83 C 0.50933 0.86519 0.4938 0.0
Zn84 Zn 0.35729 0.38879 0.65382 0.0
Zn85 Zn 0.47612 0.29169 0.61236 0.0
O86 O 0.45636 0.24241 0.68916 0.0
O87 O 0.39358 0.31467 0.6934 0.0
O88 O 0.51878 0.24763 0.54702 0.0
O89 O 0.34557 0.39061 0.55918 0.0
O90 O 0.39637 0.31409 0.57395 0.0
C91 C 0.41546 0.26977 0.71752 0.0
C92 C 0.50279 0.38059 0.69856 0.0
O93 O 0.5206 0.36855 0.6458 0.0
O94 O 0.44487 0.38538 0.7059 0.0
C95 C 0.5746 0.23817 0.53563 0.0
O96 O 0.62008 0.26095 0.57317 0.0
C97 C 0.3846 0.35572 0.53935 0.0
Zn98 Zn 0.95854 0.34501 0.88767 0.0
Zn99 Zn 0.04364 0.29981 0.89074 0.0
O100 O 0.10711 0.31914 0.83846 0.0
O101 O 0.02641 0.37218 0.81992 0.0
O102 O 0.05248 0.23451 0.9423 0.0
O103 O 0.96438 0.32746 0.97988 0.0
O104 O 0.04594 0.37555 0.95196 0.0
C105 C 0.07469 0.34734 0.8017 0.0
C106 C 0.92224 0.26632 0.80641 0.0
O107 O 0.97989 0.26246 0.8187 0.0
O108 O 0.89079 0.29546 0.84293 0.0
C109 C 0.09273 0.21079 0.97393 0.0
O110 O 0.1526 0.22452 0.96977 0.0
C111 C 0.00934 0.36517 0.9938 0.0
Zn112 Zn 0.41195 0.90418 0.3066 0.0
Zn113 Zn 0.34679 -0.0004 0.23969 0.0
O114 O 0.37312 0.92771 0.19332 0.0
O115 O 0.45591 0.89241 0.22831 0.0
O116 O 0.27959 0.0334 0.18993 0.0
O117 O 0.31793 0.89146 0.30806 0.0
O118 O 0.29106 0.98408 0.30665 0.0
C119 C 0.43073 0.92099 0.18824 0.0
C120 C 0.46351 0.03428 0.31425 0.0
O121 O 0.42474 0.05046 0.27404 0.0
O122 O 0.45724 0.98307 0.3367 0.0
C123 C 0.28901 0.08108 0.16321 0.0
O124 O 0.34475 0.09259 0.1432 0.0
C125 C 0.2761 0.92883 0.30976 0.0
Zn126 Zn 0.3306 0.11513 0.42484 0.0
Zn127 Zn 0.28153 0.17805 0.5217 0.0
O128 O 0.34006 0.1382 0.57327 0.0
O129 O 0.34631 0.06742 0.50133 0.0
O130 O 0.24528 0.24078 0.57611 0.0
O131 O 0.27566 0.18354 0.3983 0.0
O132 O 0.32514 0.23603 0.47189 0.0
C133 C 0.35366 0.08568 0.55631 0.0
C134 C 0.226 0.05506 0.45832 0.0
O135 O 0.22005 0.10921 0.48035 0.0
O136 O 0.27894 0.03894 0.4444 0.0
C137 C 0.21601 0.28877 0.57537 0.0
O138 O 0.18588 0.30366 0.52657 0.0
C139 C 0.29318 0.23474 0.42345 0.0
Zn140 Zn 0.16325 0.96981 0.82614 0.0
Zn141 Zn 0.11551 0.0194 0.71843 0.0
O142 O 0.1638 0.96123 0.67182 0.0
O143 O 0.21933 0.95164 0.75604 0.0
O144 O 0.07338 0.06803 0.65852 0.0
O145 O 0.0957 0.0292 0.84203 0.0
O146 O 0.04437 0.98415 0.76528 0.0
C147 C 0.21358 0.94845 0.69914 0.0
C148 C 0.2348 0.06844 0.7927 0.0
O149 O 0.1825 0.07528 0.76509 0.0
O150 O 0.24638 0.01746 0.81145 0.0
C151 C 0.05174 0.11962 0.66477 0.0
O152 O 0.05868 0.1517 0.71622 0.0
C153 C 0.0444 0.00614 0.81871 0.0
Zn154 Zn 0.32725 0.89849 0.95188 0.0
Zn155 Zn 0.24453 0.92296 0.00495 0.0
O156 O 0.24609 0.8823 0.07739 0.0
O157 O 0.32552 0.84622 0.03348 0.0
O158 O 0.17662 0.97581 0.0057 0.0
O159 O 0.30406 0.98652 0.92564 0.0
O160 O 0.31722 0.98982 0.0197 0.0
C161 C 0.28747 0.84515 0.0757 0.0
C162 C 0.24964 0.81734 0.90225 0.0
O163 O 0.22258 0.84673 0.94326 0.0
O164 O 0.30334 0.83587 0.88771 0.0
C165 C 0.14118 0.97569 0.04922 0.0
O166 O 0.13762 0.93023 0.08419 0.0
C167 C 0.31711 0.01907 0.97294 0.0
Zn168 Zn 0.32476 0.44899 -0.00176 0.0
Zn169 Zn 0.23928 0.42992 0.05024 0.0
O170 O 0.164 0.46101 0.01934 0.0
O171 O 0.2431 0.4928 0.96517 0.0
O172 O 0.23385 0.37116 0.11579 0.0
O173 O 0.34627 0.36315 0.96939 0.0
O174 O 0.24721 0.3695 0.97593 0.0
C175 C 0.18587 0.49375 0.97873 0.0
C176 C 0.33873 0.53458 0.07041 0.0
O177 O 0.28122 0.51917 0.07138 0.0
O178 O 0.37411 0.49202 0.06875 0.0
C179 C 0.20588 0.32143 0.09438 0.0
O180 O 0.16922 0.32163 0.04598 0.0
C181 C 0.29188 0.34029 0.95774 0.0
Zn182 Zn 0.82689 0.21472 0.91301 0.0
Zn183 Zn 0.7391 0.1523 0.97914 0.0
O184 O 0.67151 0.19728 0.94277 0.0
O185 O 0.74088 0.24955 0.89405 0.0
O186 O 0.69848 0.09277 0.03287 0.0
O187 O 0.86292 0.1367 0.94977 0.0
O188 O 0.77408 0.08842 0.92602 0.0
C189 C 0.68537 0.24083 0.91056 0.0
C190 C 0.82529 0.26899 0.02074 0.0
O191 O 0.79824 0.21667 0.02844 0.0
O192 O 0.83529 0.28662 0.96909 0.0
C193 C 0.69157 0.0985 0.08891 0.0
O194 O 0.70732 0.15098 0.11754 0.0
C195 C 0.83057 0.08677 0.94206 0.0
Zn196 Zn 0.10196 0.4943 0.36987 0.0
Zn197 Zn 0.16814 0.55766 0.3104 0.0
O198 O 0.11589 0.61598 0.36146 0.0
O199 O 0.03269 0.55381 0.35385 0.0
O200 O 0.22501 0.60515 0.26028 0.0
O201 O 0.15271 0.43245 0.32653 0.0
O202 O 0.22883 0.50128 0.34396 0.0
C203 C 0.05655 0.60747 0.36335 0.0
C204 C 0.052 0.50033 0.25285 0.0
O205 O 0.10945 0.5146 0.24679 0.0
O206 O 0.0307 0.49921 0.30513 0.0
C207 C 0.25839 0.58049 0.22125 0.0
O208 O 0.2561 0.52147 0.21298 0.0
C209 C 0.21054 0.44731 0.32822 0.0
Zn210 Zn 0.82476 0.94902 0.49825 0.0
Zn211 Zn 0.73927 0.92994 0.55023 0.0
O212 O 0.664 0.96102 0.51931 0.0
O213 O 0.74311 -0.00718 0.46515 0.0
O214 O 0.73383 0.87117 0.61578 0.0
O215 O 0.84628 0.86317 0.46942 0.0
O216 O 0.74722 0.86953 0.47591 0.0
C217 C 0.68587 -0.00624 0.47871 0.0
C218 C 0.83869 0.03462 0.57041 0.0
O219 O 0.78119 0.01919 0.57139 0.0
O220 O 0.87409 -0.00793 0.56876 0.0
C221 C 0.70586 0.82145 0.59436 0.0
O222 O 0.66922 0.82165 0.54595 0.0
C223 C 0.79189 0.84031 0.45774 0.0
Zn224 Zn 0.80105 0.92951 0.34197 0.0
Zn225 Zn 0.87426 0.01952 0.27586 0.0
O226 O 0.84761 0.06247 0.35072 0.0
O227 O 0.75776 0.01103 0.35435 0.0
O228 O 0.95211 0.05756 0.24442 0.0
O229 O 0.88867 0.92929 0.38575 0.0
O230 O 0.91004 0.94318 0.29553 0.0
C231 C 0.78863 0.06179 0.35365 0.0
C232 C 0.76449 0.95568 0.22856 0.0
O233 O 0.78995 0.00825 0.22257 0.0
O234 O 0.80129 0.91849 0.2481 0.0
C235 C 0.95018 0.10399 0.21539 0.0
O236 O 0.89688 0.12892 0.21048 0.0
C237 C 0.93039 0.93959 0.34875 0.0
Zn238 Zn 0.32693 0.71473 0.413 0.0
Zn239 Zn 0.23911 0.65231 0.47912 0.0
O240 O 0.17153 0.69729 0.44272 0.0
O241 O 0.24094 0.74963 0.39409 0.0
O242 O 0.19847 0.5928 0.53285 0.0
O243 O 0.36294 0.63671 0.4498 0.0
O244 O 0.2741 0.58842 0.42601 0.0
C245 C 0.18542 0.74088 0.41056 0.0
C246 C 0.32527 0.769 0.52073 0.0
O247 O 0.29825 0.71667 0.52843 0.0
O248 O 0.33524 0.78664 0.46908 0.0
C249 C 0.19159 0.59851 0.58889 0.0
O250 O 0.20739 0.65097 0.61755 0.0
C251 C 0.33058 0.58678 0.44207 0.0
Zn252 Zn 0.30107 0.42949 0.84198 0.0
Zn253 Zn 0.37427 0.51954 0.77587 0.0
O254 O 0.34762 0.56245 0.85076 0.0
O255 O 0.25777 0.51101 0.85438 0.0
O256 O 0.45212 0.55759 0.74445 0.0
O257 O 0.38871 0.42926 0.88574 0.0
O258 O 0.41003 0.44318 0.79551 0.0
C259 C 0.28863 0.56177 0.85368 0.0
C260 C 0.26449 0.4557 0.72857 0.0
O261 O 0.28996 0.50827 0.72259 0.0
O262 O 0.30128 0.41851 0.74811 0.0
C263 C 0.45016 0.60399 0.7154 0.0
O264 O 0.39685 0.62888 0.71046 0.0
C265 C 0.4304 0.43958 0.84872 0.0
Zn266 Zn 0.60195 -0.00569 0.86989 0.0
Zn267 Zn 0.66812 0.05766 0.81041 0.0
O268 O 0.61587 0.11597 0.86148 0.0
O269 O 0.53268 0.05381 0.85386 0.0
O270 O 0.72498 0.10515 0.76029 0.0
O271 O 0.6527 0.93245 0.82655 0.0
O272 O 0.72882 0.00128 0.84397 0.0
C273 C 0.55654 0.10746 0.86336 0.0
C274 C 0.55199 0.00032 0.75286 0.0
O275 O 0.60944 0.01459 0.7468 0.0
O276 O 0.53069 -0.00079 0.80514 0.0
C277 C 0.75836 0.08051 0.72125 0.0
O278 O 0.75609 0.02149 0.71298 0.0
C279 C 0.71053 0.94731 0.82824 0.0
Zn280 Zn 0.83062 0.61511 0.92485 0.0
Zn281 Zn 0.78153 0.67804 0.02169 0.0
O282 O 0.84006 0.63819 0.07325 0.0
O283 O 0.84629 0.56739 0.00133 0.0
O284 O 0.74528 0.74077 0.0761 0.0
O285 O 0.7757 0.68353 0.89827 0.0
O286 O 0.82514 0.73603 0.97189 0.0
C287 C 0.85365 0.58566 0.0563 0.0
C288 C 0.72599 0.55506 0.95832 0.0
O289 O 0.72004 0.60921 0.98034 0.0
O290 O 0.77893 0.53893 0.94441 0.0
C291 C 0.71601 0.78876 0.07537 0.0
O292 O 0.68588 0.80365 0.02657 0.0
C293 C 0.79321 0.73473 0.92342 0.0
Zn294 Zn 0.91198 0.40417 0.80661 0.0
Zn295 Zn 0.84679 0.4996 0.73973 0.0
O296 O 0.87314 0.42774 0.6933 0.0
O297 O 0.95594 0.39248 0.72833 0.0
O298 O 0.77959 0.53342 0.69001 0.0
O299 O 0.81796 0.39142 0.80805 0.0
O300 O 0.79107 0.48404 0.80668 0.0
C301 C 0.93076 0.42103 0.68823 0.0
C302 C 0.96352 0.53427 0.81429 0.0
O303 O 0.92474 0.55045 0.77408 0.0
O304 O 0.95726 0.48306 0.83673 0.0
C305 C 0.78901 0.58108 0.66323 0.0
O306 O 0.84474 0.59255 0.6432 0.0
C307 C 0.77613 0.42878 0.80976 0.0
Zn308 Zn 0.82726 0.3985 0.45188 0.0
Zn309 Zn 0.74452 0.42298 0.50493 0.0
O310 O 0.74609 0.38231 0.57737 0.0
O311 O 0.82553 0.34625 0.53348 0.0
O312 O 0.67661 0.47582 0.50569 0.0
O313 O 0.80407 0.48653 0.42563 0.0
O314 O 0.81721 0.48984 0.51969 0.0
C315 C 0.78747 0.34517 0.57569 0.0
C316 C 0.74963 0.31735 0.40223 0.0
O317 O 0.72257 0.34675 0.44324 0.0
O318 O 0.80335 0.33587 0.38771 0.0
C319 C 0.64118 0.4757 0.54922 0.0
O320 O 0.63762 0.43024 0.58419 0.0
C321 C 0.81712 0.51908 0.47293 0.0
Zn322 Zn 0.66326 0.46982 0.32616 0.0
Zn323 Zn 0.6155 0.5194 0.21845 0.0
O324 O 0.66381 0.46125 0.17182 0.0
O325 O 0.71934 0.45165 0.25605 0.0
O326 O 0.57335 0.56803 0.15856 0.0
O327 O 0.5957 0.52918 0.34205 0.0
O328 O 0.54438 0.48411 0.2653 0.0
C329 C 0.71358 0.44846 0.19914 0.0
C330 C 0.73481 0.56845 0.29271 0.0
O331 O 0.6825 0.57529 0.26511 0.0
O332 O 0.74639 0.51747 0.31145 0.0
C333 C 0.55177 0.61966 0.16481 0.0
O334 O 0.55886 0.65177 0.21623 0.0
C335 C 0.5444 0.50611 0.31873 0.0
O336 O 0.18971 0.21462 0.09795 0.0
Mn337 Mn 0.1281 0.15227 0.13395 0.0
O338 O 0.22074 0.27023 0.18189 0.0
Mn339 Mn 0.22262 0.20615 0.23194 0.0
O340 O 0.05369 0.10161 0.17489 0.0
O341 O 0.06689 0.16767 0.06667 0.0
Mn342 Mn 0.01578 0.10024 0.05637 0.0
O343 O 0.15098 0.07932 0.07955 0.0
O344 O 0.96926 0.12077 0.11807 0.0
O345 O 0.10045 0.21929 0.19658 0.0
O346 O 0.15746 0.20404 0.28052 0.0
O347 O 0.02536 0.12553 0.98151 0.0
O348 O 0.05636 0.03081 0.06763 0.0
C349 C 0.2595 0.13204 0.19013 0.0
C350 C 0.2082 0.26548 0.12571 0.0
C351 C -0.00504 0.11323 0.16903 0.0
C352 C 0.06824 0.16242 0.00837 0.0
C353 C 0.11498 0.03126 0.06717 0.0
C354 C 0.10672 0.21652 0.25458 0.0
O355 O 0.19926 0.13495 0.19293 0.0
O356 O 0.29413 0.16915 0.22639 0.0
O357 O 0.03046 0.86679 0.30467 0.0
Mn358 Mn 0.09768 0.90362 0.37063 0.0
O359 O 0.08491 0.8288 0.23347 0.0
Mn360 Mn 0.14087 0.80313 0.28829 0.0
O361 O 0.1646 0.95962 0.42895 0.0
O362 O 0.04177 0.97268 0.36843 0.0
Mn363 Mn 0.04915 0.01537 0.43726 0.0
O364 O 0.04933 0.87517 0.44558 0.0
O365 O 0.12445 0.05107 0.42661 0.0
O366 O 0.1623 0.93083 0.30567 0.0
O367 O 0.21147 0.84719 0.27906 0.0
O368 O 0.97072 0.02641 0.40782 0.0
O369 O 0.05138 0.96368 0.49993 0.0
C370 C 0.13674 0.76825 0.37587 0.0
C371 C 0.04191 0.86028 0.24879 0.0
C372 C 0.16972 0.01892 0.43574 0.0
C373 C 0.98281 0.98206 0.37123 0.0
C374 C 0.04687 0.90621 0.49622 0.0
C375 C 0.21267 0.90331 0.29427 0.0
O376 O 0.14532 0.82614 0.36877 0.0
O377 O 0.12255 0.73537 0.32698 0.0
O378 O 0.45244 0.98251 0.70265 0.0
Mn379 Mn 0.40001 0.92937 0.63726 0.0
O380 O 0.53523 0.00554 0.65131 0.0
Mn381 Mn 0.48882 0.02025 0.58404 0.0
O382 O 0.35093 0.86585 0.57319 0.0
O383 O 0.39585 0.86705 0.69993 0.0
Mn384 Mn 0.32521 0.82104 0.68565 0.0
O385 O 0.31685 0.95589 0.67022 0.0
O386 O 0.35049 0.77899 0.62124 0.0
O387 O 0.47903 0.89719 0.59308 0.0
O388 O 0.50474 0.96544 0.52528 0.0
O389 O 0.33978 0.82388 0.76727 0.0
O390 O 0.26045 0.86701 0.66264 0.0
C391 C 0.40089 0.05796 0.59015 0.0
C392 C 0.51083 -0.00526 0.69996 0.0
C393 C 0.34701 0.80699 0.57335 0.0
C394 C 0.38198 0.86547 0.7562 0.0
C395 C 0.26427 0.92415 0.66821 0.0
C396 C 0.50094 0.91147 0.54146 0.0
O397 O 0.40529 -6e-05 0.58199 0.0
O398 O 0.45287 0.09071 0.59308 0.0
O399 O 0.41845 0.25177 0.96445 0.0
Mn400 Mn 0.38062 0.18951 0.89487 0.0
O401 O 0.43775 0.18704 0.03197 0.0
Mn402 Mn 0.46627 0.1336 0.97563 0.0
O403 O 0.32937 0.12744 0.83077 0.0
O404 O 0.31093 0.24765 0.89626 0.0
Mn405 Mn 0.2698 0.24188 0.82709 0.0
O406 O 0.416 0.23724 0.82135 0.0
O407 O 0.23554 0.16625 0.82497 0.0
O408 O 0.34066 0.12614 0.95596 0.0
O409 O 0.41712 0.06469 0.97537 0.0
O410 O 0.23603 0.30328 0.86875 0.0
O411 O 0.32704 0.25435 0.76921 0.0
C412 C 0.52068 0.14793 0.90025 0.0
C413 C 0.42152 0.23793 0.01956 0.0
C414 C 0.26965 0.12287 0.81786 0.0
C415 C 0.27836 0.29352 0.90921 0.0
C416 C 0.38569 0.25008 0.7724 0.0
C417 C 0.35968 0.07343 0.96915 0.0
O418 O 0.45938 0.14028 0.89488 0.0
O419 O 0.54459 0.15322 0.95449 0.0
O420 O 0.53047 0.36678 0.80468 0.0
Mn421 Mn 0.59767 0.40361 0.87065 0.0
O422 O 0.58494 0.32881 0.7335 0.0
Mn423 Mn 0.64086 0.3031 0.78834 0.0
O424 O 0.66458 0.45962 0.92898 0.0
O425 O 0.54178 0.47268 0.86842 0.0
Mn426 Mn 0.54913 0.51539 0.93724 0.0
O427 O 0.54928 0.37519 0.94558 0.0
O428 O 0.62445 0.55107 0.92661 0.0
O429 O 0.66233 0.43079 0.80571 0.0
O430 O 0.71149 0.34713 0.77916 0.0
O431 O 0.47071 0.52643 0.90775 0.0
O432 O 0.55131 0.46371 -8e-05 0.0
C433 C 0.63669 0.26822 0.87591 0.0
C434 C 0.54194 0.3603 0.7488 0.0
C435 C 0.66971 0.51892 0.93575 0.0
C436 C 0.48282 0.48206 0.87119 0.0
C437 C 0.54679 0.40624 0.99622 0.0
C438 C 0.7127 0.40325 0.79433 0.0
O439 O 0.64529 0.32611 0.86883 0.0
O440 O 0.62246 0.23535 0.82702 0.0
O441 O 0.95245 0.4825 0.20265 0.0
Mn442 Mn 0.90001 0.42936 0.13726 0.0
O443 O 0.03523 0.50554 0.15129 0.0
Mn444 Mn 0.98882 0.52024 0.08402 0.0
O445 O 0.85092 0.36584 0.0732 0.0
O446 O 0.89585 0.36704 0.19994 0.0
Mn447 Mn 0.8252 0.32104 0.18566 0.0
O448 O 0.81685 0.45589 0.17023 0.0
O449 O 0.85047 0.27898 0.12126 0.0
O450 O 0.97903 0.39718 0.09307 0.0
O451 O 0.00473 0.46542 0.02527 0.0
O452 O 0.83977 0.32389 0.26728 0.0
O453 O 0.76045 0.36701 0.16265 0.0
C454 C 0.90089 0.55795 0.09015 0.0
C455 C 0.01084 0.49474 0.19995 0.0
C456 C 0.84701 0.30698 0.07337 0.0
C457 C 0.88198 0.36548 0.2562 0.0
C458 C 0.76427 0.42416 0.16821 0.0
C459 C 0.00094 0.41146 0.04145 0.0
O460 O 0.90529 0.49992 0.08199 0.0
O461 O 0.95286 0.5907 0.09307 0.0
O462 O 0.91848 0.75178 0.46444 0.0
Mn463 Mn 0.88064 0.68952 0.39486 0.0
O464 O 0.93776 0.68705 0.53197 0.0
Mn465 Mn 0.96629 0.63361 0.47562 0.0
O466 O 0.82938 0.62745 0.33077 0.0
O467 O 0.81096 0.74767 0.39627 0.0
Mn468 Mn 0.76981 0.74187 0.32712 0.0
O469 O 0.916 0.73725 0.32133 0.0
O470 O 0.73554 0.66625 0.32501 0.0
O471 O 0.84068 0.62616 0.45596 0.0
O472 O 0.91713 0.5647 0.47536 0.0
O473 O 0.73605 0.8033 0.36875 0.0
O474 O 0.82702 0.75431 0.26921 0.0
C475 C 0.02069 0.64794 0.40024 0.0
C476 C 0.92155 0.73794 0.51955 0.0
C477 C 0.76965 0.62288 0.31787 0.0
C478 C 0.77839 0.79354 0.40921 0.0
C479 C 0.88567 0.75008 0.27239 0.0
C480 C 0.85969 0.57344 0.46915 0.0
O481 O 0.95939 0.64028 0.39487 0.0
O482 O 0.0446 0.65322 0.45449 0.0
O483 O 0.81407 0.83969 0.91232 0.0
Mn484 Mn 0.87285 0.90664 0.87788 0.0
O485 O 0.78625 0.77582 0.83179 0.0
Mn486 Mn 0.79638 0.82916 0.77288 0.0
O487 O 0.94071 0.96911 0.84343 0.0
O488 O 0.92897 0.90181 0.95256 0.0
Mn489 Mn 0.97024 0.97133 0.975 0.0
O490 O 0.83299 0.97982 0.92073 0.0
O491 O 0.02155 0.97672 0.91299 0.0
O492 O 0.91423 0.84032 0.82488 0.0
O493 O 0.86892 0.81565 0.73543 0.0
O494 O 0.97367 0.92319 0.04015 0.0
O495 O 0.91452 0.03189 0.97208 0.0
C496 C 0.75073 0.90757 0.79638 0.0
C497 C 0.7945 0.78737 0.88796 0.0
C498 C -0.00106 0.98302 0.86012 0.0
C499 C 0.93472 0.88664 0.00775 0.0
C500 C 0.86009 0.02899 0.9464 0.0
C501 C 0.91671 0.83846 0.76648 0.0
O502 O 0.81033 0.90563 0.80677 0.0
O503 O 0.72514 0.86662 0.75773 0.0
O504 O 0.9233 0.23809 0.69957 0.0
Mn505 Mn 0.88703 0.19454 0.61772 0.0
O506 O 0.83262 0.24021 0.74818 0.0
Mn507 Mn 0.77507 0.23275 0.68322 0.0
O508 O 0.84535 0.14035 0.54506 0.0
O509 O 0.96086 0.14204 0.60721 0.0
Mn510 Mn 0.96932 0.13332 0.52617 0.0
O511 O 0.92575 0.25863 0.56014 0.0
O512 O 0.90739 0.07508 0.50633 0.0
O513 O 0.84179 0.13073 0.6721 0.0
O514 O 0.74525 0.15617 0.65916 0.0
O515 O 0.04678 0.13033 0.56157 0.0
O516 O 0.95707 0.19981 0.48459 0.0
C517 C 0.7828 0.2973 0.61815 0.0
C518 C 0.89215 0.2445 0.74809 0.0
C519 C 0.85781 0.08487 0.53279 0.0
C520 C 0.0212 0.1422 0.61193 0.0
C521 C 0.94021 0.24975 0.50498 0.0
C522 C 0.78259 0.11867 0.67544 0.0
O523 O 0.81893 0.25335 0.6229 0.0
O524 O 0.73925 0.2984 0.65623 0.0
O525 O 0.69817 0.21899 0.40686 0.0
Mn526 Mn 0.63628 0.14511 0.37913 0.0
O527 O 0.72651 0.25126 0.31773 0.0
Mn528 Mn 0.71696 0.17675 0.27405 0.0
O529 O 0.56579 0.07698 0.34476 0.0
O530 O 0.57885 0.17416 0.44475 0.0
Mn531 Mn 0.54317 0.09962 0.4563 0.0
O532 O 0.67576 0.08902 0.4384 0.0
O533 O 0.48347 0.09727 0.39661 0.0
O534 O 0.59604 0.19611 0.31196 0.0
O535 O 0.64381 0.16683 0.22862 0.0
O536 O 0.55192 0.13631 0.52986 0.0
O537 O 0.59041 0.03272 0.45462 0.0
C538 C 0.75816 0.10877 0.32209 0.0
C539 C 0.72113 0.26012 0.3741 0.0
C540 C 0.50572 0.07862 0.3481 0.0
C541 C 0.5801 0.18003 0.50368 0.0
C542 C 0.64892 0.03961 0.45383 0.0
C543 C 0.59705 0.18667 0.25397 0.0
O544 O 0.69902 0.1166 0.32119 0.0
O545 O 0.788 0.13661 0.28166 0.0
O546 O 0.57247 0.89348 0.06261 0.0
Mn547 Mn 0.60738 0.92432 0.14947 0.0
O548 O 0.53934 0.98167 0.03145 0.0
Mn549 Mn 0.52576 0.0238 0.10331 0.0
O550 O 0.65215 0.96622 0.22771 0.0
O551 O 0.67808 0.86487 0.14684 0.0
Mn552 Mn 0.68874 0.83512 0.22107 0.0
O553 O 0.55697 0.85933 0.19596 0.0
O554 O 0.69439 0.8993 0.2781 0.0
O555 O 0.65605 -0.00302 0.10871 0.0
O556 O 0.59563 0.0738 0.12776 0.0
O557 O 0.74782 0.80364 0.17711 0.0
O558 O 0.61592 0.78999 0.22538 0.0
C559 C 0.47044 0.96727 0.15896 0.0
C560 C 0.55658 0.92856 0.02083 0.0
C561 C 0.70131 0.94865 0.25387 0.0
C562 C 0.71748 0.82497 0.13255 0.0
C563 C 0.57537 0.82612 0.23731 0.0
C564 C 0.64807 0.05441 0.1149 0.0
O565 O 0.53095 0.9716 0.15849 0.0
O566 O 0.44559 0.00887 0.13026 0.0
O567 O 0.4233 0.7381 0.19957 0.0
Mn568 Mn 0.38705 0.69454 0.11773 0.0
O569 O 0.33261 0.74019 0.24817 0.0
Mn570 Mn 0.27506 0.73271 0.1832 0.0
O571 O 0.34539 0.64032 0.04507 0.0
O572 O 0.4609 0.64207 0.10724 0.0
Mn573 Mn 0.46938 0.63334 0.02621 0.0
O574 O 0.42575 0.75863 0.06014 0.0
O575 O 0.40749 0.57506 0.00639 0.0
O576 O 0.34182 0.63071 0.17211 0.0
O577 O 0.24528 0.65613 0.15913 0.0
O578 O 0.54684 0.63042 0.06162 0.0
O579 O 0.45708 0.69981 0.9846 0.0
C580 C 0.28279 0.79726 0.11814 0.0
C581 C 0.39214 0.74451 0.24809 0.0
C582 C 0.35789 0.58485 0.03282 0.0
C583 C 0.52125 0.64226 0.11198 0.0
C584 C 0.4402 0.74974 0.00498 0.0
C585 C 0.28263 0.61864 0.17543 0.0
O586 O 0.31893 0.75332 0.12289 0.0
O587 O 0.23922 0.79835 0.1562 0.0
O588 O 0.19818 0.71898 0.90689 0.0
Mn589 Mn 0.13629 0.6451 0.87916 0.0
O590 O 0.22651 0.75124 0.81775 0.0
Mn591 Mn 0.21697 0.67672 0.77408 0.0
O592 O 0.0658 0.57697 0.8448 0.0
O593 O 0.07886 0.67416 0.94478 0.0
Mn594 Mn 0.04317 0.59962 0.95633 0.0
O595 O 0.17577 0.58901 0.93844 0.0
O596 O 0.98348 0.59727 0.89664 0.0
O597 O 0.09605 0.69609 0.81198 0.0
O598 O 0.14382 0.66679 0.72864 0.0
O599 O 0.05193 0.63632 0.02989 0.0
O600 O 0.09041 0.53271 0.95466 0.0
C601 C 0.25817 0.60875 0.82212 0.0
C602 C 0.22114 0.7601 0.87411 0.0
C603 C 0.00573 0.57861 0.84813 0.0
C604 C 0.08011 0.68003 0.00371 0.0
C605 C 0.14892 0.5396 0.95387 0.0
C606 C 0.09706 0.68664 0.75399 0.0
O607 O 0.19903 0.61658 0.82122 0.0
O608 O 0.28801 0.63658 0.78169 0.0
O609 O 0.07248 0.3935 0.5626 0.0
Mn610 Mn 0.10739 0.42435 0.64946 0.0
O611 O 0.03936 0.4817 0.53143 0.0
Mn612 Mn 0.02578 0.52382 0.60329 0.0
O613 O 0.15215 0.46625 0.72771 0.0
O614 O 0.17808 0.36489 0.64683 0.0
Mn615 Mn 0.18874 0.33514 0.72107 0.0
O616 O 0.05698 0.35935 0.69596 0.0
O617 O 0.19438 0.39932 0.7781 0.0
O618 O 0.15607 0.49699 0.6087 0.0
O619 O 0.09565 0.57382 0.62774 0.0
O620 O 0.24782 0.30366 0.67711 0.0
O621 O 0.11592 0.29 0.72536 0.0
C622 C 0.97045 0.4673 0.65894 0.0
C623 C 0.05659 0.42859 0.52082 0.0
C624 C 0.20131 0.44867 0.75387 0.0
C625 C 0.21748 0.32499 0.63255 0.0
C626 C 0.07537 0.32614 0.7373 0.0
C627 C 0.14809 0.55443 0.61489 0.0
O628 O 0.03097 0.47163 0.65848 0.0
O629 O 0.9456 0.5089 0.63024 0.0
O630 O 0.68969 0.71463 0.59794 0.0
Mn631 Mn 0.62809 0.65229 0.63395 0.0
O632 O 0.72072 0.77025 0.68187 0.0
Mn633 Mn 0.72262 0.70617 0.73192 0.0
O634 O 0.55368 0.60162 0.67489 0.0
O635 O 0.56687 0.66767 0.56667 0.0
Mn636 Mn 0.51577 0.60024 0.55637 0.0
O637 O 0.65097 0.57933 0.57955 0.0
O638 O 0.46926 0.62077 0.61807 0.0
O639 O 0.60044 0.7193 0.69658 0.0
O640 O 0.65746 0.70406 0.78052 0.0
O641 O 0.52535 0.62553 0.48151 0.0
O642 O 0.55636 0.53082 0.56763 0.0
C643 C 0.7595 0.63205 0.69011 0.0
C644 C 0.70818 0.76549 0.62569 0.0
C645 C 0.49496 0.61324 0.66904 0.0
C646 C 0.56822 0.66243 0.50837 0.0
C647 C 0.61497 0.53127 0.56717 0.0
C648 C 0.60672 0.71653 0.75458 0.0
O649 O 0.69926 0.63497 0.69292 0.0
O650 O 0.79412 0.66918 0.72636 0.0
O651 O 0.31405 0.3397 0.41234 0.0
Mn652 Mn 0.37285 0.40664 0.3779 0.0
O653 O 0.2862 0.27583 0.33182 0.0
Mn654 Mn 0.29637 0.32914 0.2729 0.0
O655 O 0.44072 0.46909 0.34344 0.0
O656 O 0.42895 0.40181 0.4526 0.0
Mn657 Mn 0.47023 0.47132 0.47502 0.0
O658 O 0.33299 0.47983 0.42074 0.0
O659 O 0.52155 0.4767 0.41301 0.0
O660 O 0.41422 0.3403 0.32491 0.0
O661 O 0.36892 0.31558 0.23547 0.0
O662 O 0.47366 0.4232 0.54018 0.0
O663 O 0.41453 0.5319 0.47209 0.0
C664 C 0.25074 0.40758 0.29637 0.0
C665 C 0.29447 0.28738 0.38799 0.0
C666 C 0.49894 0.483 0.36014 0.0
C667 C 0.4347 0.38665 0.50779 0.0
C668 C 0.36009 0.52899 0.44641 0.0
C669 C 0.4167 0.33843 0.26652 0.0
O670 O 0.31034 0.40562 0.30678 0.0
O671 O 0.22516 0.36663 0.25771 0.0
loop_
_geom_bond_atom_site_label_1
_geom_bond_atom_site_label_2
_geom_bond_distance
_geom_bond_site_symmetry_2
_ccdc_geom_bond_type
Zn0 O3 2.031 . S
Zn0 O5 2.049 . S
Zn0 O10 2.067 1_655 S
Zn1 O2 1.962 1_455 S
Zn1 O4 1.986 . S
Zn1 O6 1.996 1_455 S
Zn1 O9 1.943 . S
O2 Zn1 1.962 1_655 S
O2 C7 1.254 . S
O3 Zn0 2.031 . S
O3 C7 1.269 . S
O4 Zn1 1.986 . S
O4 C11 1.262 . S
O5 Zn0 2.049 . S
O5 C13 1.260 . S
O6 Zn1 1.996 1_655 S
O6 C13 1.257 . S
C7 O2 1.254 . S
C7 O3 1.269 . S
C8 O9 1.249 . S
C8 O10 1.270 . S
O9 Zn1 1.943 . S
O9 C8 1.249 . S
O10 Zn0 2.067 1_455 S
O10 C8 1.270 . S
C11 O4 1.262 . S
C11 O12 1.232 . S
O12 C11 1.232 . S
C13 O5 1.260 . S
C13 O6 1.257 . S
Zn14 O17 2.031 1_655 S
Zn14 O19 2.049 . S
Zn14 O24 2.067 . S
Zn15 O16 1.962 . S
Zn15 O18 1.986 . S
Zn15 O20 1.996 1_455 S
Zn15 O23 1.943 1_455 S
O16 Zn15 1.962 . S
O16 C21 1.254 . S
O17 Zn14 2.031 1_455 S
O17 C21 1.269 . S
O18 Zn15 1.986 . S
O18 C25 1.262 . S
O19 Zn14 2.049 . S
O19 C27 1.260 . S
O20 Zn15 1.996 1_655 S
O20 C27 1.257 . S
C21 O16 1.254 . S
C21 O17 1.269 . S
C22 O23 1.249 . S
C22 O24 1.270 . S
O23 Zn15 1.943 1_655 S
O23 C22 1.249 . S
O24 Zn14 2.067 . S
O24 C22 1.270 . S
C25 O18 1.262 . S
C25 O26 1.232 . S
O26 C25 1.232 . S
C27 O19 1.260 . S
C27 O20 1.257 . S
Zn28 O31 2.031 . S
Zn28 O33 2.049 . S
Zn28 O38 2.067 . S
Zn29 O30 1.962 . S
Zn29 O32 1.986 . S
Zn29 O34 1.996 . S
Zn29 O37 1.943 . S
O30 Zn29 1.962 . S
O30 C35 1.254 . S
O31 Zn28 2.031 . S
O31 C35 1.269 . S
O32 Zn29 1.986 . S
O32 C39 1.262 . S
O33 Zn28 2.049 . S
O33 C41 1.260 . S
O34 Zn29 1.996 . S
O34 C41 1.257 . S
C35 O30 1.254 . S
C35 O31 1.269 . S
C36 O37 1.249 . S
C36 O38 1.270 . S
O37 Zn29 1.943 . S
O37 C36 1.249 . S
O38 Zn28 2.067 . S
O38 C36 1.270 . S
C39 O32 1.262 . S
C39 O40 1.232 . S
O40 C39 1.232 . S
C41 O33 1.260 . S
C41 O34 1.257 . S
Zn42 O45 2.031 . S
Zn42 O47 2.049 . S
Zn42 O52 2.067 . S
Zn43 O44 1.962 . S
Zn43 O46 1.986 . S
Zn43 O48 1.996 . S
Zn43 O51 1.943 . S
O44 Zn43 1.962 . S
O44 C49 1.254 . S
O45 Zn42 2.031 . S
O45 C49 1.269 . S
O46 Zn43 1.986 . S
O46 C53 1.262 . S
O47 Zn42 2.049 . S
O47 C55 1.260 . S
O48 Zn43 1.996 . S
O48 C55 1.257 . S
C49 O44 1.254 . S
C49 O45 1.269 . S
C50 O51 1.249 . S
C50 O52 1.270 . S
O51 Zn43 1.943 . S
O51 C50 1.249 . S
O52 Zn42 2.067 . S
O52 C50 1.270 . S
C53 O46 1.262 . S
C53 O54 1.232 . S
O54 C53 1.232 . S
C55 O47 1.260 . S
C55 O48 1.257 . S
Zn56 O59 2.031 . S
Zn56 O61 2.049 . S
Zn56 O66 2.067 1_655 S
Zn57 O58 1.962 1_455 S
Zn57 O60 1.986 . S
Zn57 O62 1.996 1_455 S
Zn57 O65 1.943 . S
O58 Zn57 1.962 1_655 S
O58 C63 1.254 . S
O59 Zn56 2.031 . S
O59 C63 1.269 . S
O60 Zn57 1.986 . S
O60 C67 1.262 . S
O61 Zn56 2.049 . S
O61 C69 1.260 . S
O62 Zn57 1.996 1_655 S
O62 C69 1.257 . S
C63 O58 1.254 . S
C63 O59 1.269 . S
C64 O65 1.249 . S
C64 O66 1.270 . S
O65 Zn57 1.943 . S
O65 C64 1.249 . S
O66 Zn56 2.067 1_455 S
O66 C64 1.270 . S
C67 O60 1.262 . S
C67 O68 1.232 . S
O68 C67 1.232 . S
C69 O61 1.260 . S
C69 O62 1.257 . S
Zn70 O73 2.031 . S
Zn70 O75 2.049 . S
Zn70 O80 2.067 . S
Zn71 O72 1.962 . S
Zn71 O74 1.986 . S
Zn71 O76 1.996 . S
Zn71 O79 1.943 . S
O72 Zn71 1.962 . S
O72 C77 1.254 . S
O73 Zn70 2.031 . S
O73 C77 1.269 . S
O74 Zn71 1.986 . S
O74 C81 1.262 . S
O75 Zn70 2.049 . S
O75 C83 1.260 . S
O76 Zn71 1.996 . S
O76 C83 1.257 . S
C77 O72 1.254 . S
C77 O73 1.269 . S
C78 O79 1.249 . S
C78 O80 1.270 . S
O79 Zn71 1.943 . S
O79 C78 1.249 . S
O80 Zn70 2.067 . S
O80 C78 1.270 . S
C81 O74 1.262 . S
C81 O82 1.232 . S
O82 C81 1.232 . S
C83 O75 1.260 . S
C83 O76 1.257 . S
Zn84 O87 2.031 . S
Zn84 O89 2.049 . S
Zn84 O94 2.067 . S
Zn85 O86 1.962 . S
Zn85 O88 1.986 . S
Zn85 O90 1.996 . S
Zn85 O93 1.943 . S
O86 Zn85 1.962 . S
O86 C91 1.254 . S
O87 Zn84 2.031 . S
O87 C91 1.269 . S
O88 Zn85 1.986 . S
O88 C95 1.262 . S
O89 Zn84 2.049 . S
O89 C97 1.260 . S
O90 Zn85 1.996 . S
O90 C97 1.257 . S
C91 O86 1.254 . S
C91 O87 1.269 . S
C92 O93 1.249 . S
C92 O94 1.270 . S
O93 Zn85 1.943 . S
O93 C92 1.249 . S
O94 Zn84 2.067 . S
O94 C92 1.270 . S
C95 O88 1.262 . S
C95 O96 1.232 . S
O96 C95 1.232 . S
C97 O89 1.260 . S
C97 O90 1.257 . S
Zn98 O101 2.031 1_655 S
Zn98 O103 2.049 . S
Zn98 O108 2.067 . S
Zn99 O100 1.962 . S
Zn99 O102 1.986 . S
Zn99 O104 1.996 1_455 S
Zn99 O107 1.943 1_455 S
O100 Zn99 1.962 . S
O100 C105 1.254 . S
O101 Zn98 2.031 1_455 S
O101 C105 1.269 . S
O102 Zn99 1.986 . S
O102 C109 1.262 . S
O103 Zn98 2.049 . S
O103 C111 1.260 . S
O104 Zn99 1.996 1_655 S
O104 C111 1.257 . S
C105 O100 1.254 . S
C105 O101 1.269 . S
C106 O107 1.249 . S
C106 O108 1.270 . S
O107 Zn99 1.943 1_655 S
O107 C106 1.249 . S
O108 Zn98 2.067 . S
O108 C106 1.270 . S
C109 O102 1.262 . S
C109 O110 1.232 . S
O110 C109 1.232 . S
C111 O103 1.260 . S
C111 O104 1.257 . S
Zn112 O115 2.031 . S
Zn112 O117 2.049 . S
Zn112 O122 2.067 . S
Zn113 O114 1.962 1_545 S
Zn113 O116 1.986 . S
Zn113 O118 1.996 1_545 S
Zn113 O121 1.943 . S
O114 Zn113 1.962 1_565 S
O114 C119 1.254 . S
O115 Zn112 2.031 . S
O115 C119 1.269 . S
O116 Zn113 1.986 . S
O116 C123 1.262 . S
O117 Zn112 2.049 . S
O117 C125 1.260 . S
O118 Zn113 1.996 1_565 S
O118 C125 1.257 . S
C119 O114 1.254 . S
C119 O115 1.269 . S
C120 O121 1.249 . S
C120 O122 1.270 1_545 S
O121 Zn113 1.943 . S
O121 C120 1.249 . S
O122 Zn112 2.067 . S
O122 C120 1.270 1_565 S
C123 O116 1.262 . S
C123 O124 1.232 . S
O124 C123 1.232 . S
C125 O117 1.260 . S
C125 O118 1.257 . S
Zn126 O129 2.031 . S
Zn126 O131 2.049 . S
Zn126 O136 2.067 . S
Zn127 O128 1.962 . S
Zn127 O130 1.986 . S
Zn127 O132 1.996 . S
Zn127 O135 1.943 . S
O128 Zn127 1.962 . S
O128 C133 1.254 . S
O129 Zn126 2.031 . S
O129 C133 1.269 . S
O130 Zn127 1.986 . S
O130 C137 1.262 . S
O131 Zn126 2.049 . S
O131 C139 1.260 . S
O132 Zn127 1.996 . S
O132 C139 1.257 . S
C133 O128 1.254 . S
C133 O129 1.269 . S
C134 O135 1.249 . S
C134 O136 1.270 . S
O135 Zn127 1.943 . S
O135 C134 1.249 . S
O136 Zn126 2.067 . S
O136 C134 1.270 . S
C137 O130 1.262 . S
C137 O138 1.232 . S
O138 C137 1.232 . S
C139 O131 1.260 . S
C139 O132 1.257 . S
Zn140 O143 2.031 1_565 S
Zn140 O145 2.049 . S
Zn140 O150 2.067 1_565 S
Zn141 O142 1.962 . S
Zn141 O144 1.986 . S
Zn141 O146 1.996 . S
Zn141 O149 1.943 . S
O142 Zn141 1.962 . S
O142 C147 1.254 . S
O143 Zn140 2.031 1_545 S
O143 C147 1.269 . S
O144 Zn141 1.986 . S
O144 C151 1.262 . S
O145 Zn140 2.049 . S
O145 C153 1.260 1_565 S
O146 Zn141 1.996 . S
O146 C153 1.257 . S
C147 O142 1.254 . S
C147 O143 1.269 . S
C148 O149 1.249 . S
C148 O150 1.270 . S
O149 Zn141 1.943 . S
O149 C148 1.249 . S
O150 Zn140 2.067 1_545 S
O150 C148 1.270 . S
C151 O144 1.262 . S
C151 O152 1.232 . S
O152 C151 1.232 . S
C153 O145 1.260 1_545 S
C153 O146 1.257 . S
Zn154 O157 2.031 1_556 S
Zn154 O159 2.049 . S
Zn154 O164 2.067 . S
Zn155 O156 1.962 . S
Zn155 O158 1.986 1_565 S
Zn155 O160 1.996 1_554 S
Zn155 O163 1.943 1_554 S
O156 Zn155 1.962 . S
O156 C161 1.254 . S
O157 Zn154 2.031 1_554 S
O157 C161 1.269 . S
O158 Zn155 1.986 1_545 S
O158 C165 1.262 1_545 S
O159 Zn154 2.049 . S
O159 C167 1.260 . S
O160 Zn155 1.996 1_556 S
O160 C167 1.257 . S
C161 O156 1.254 . S
C161 O157 1.269 . S
C162 O163 1.249 . S
C162 O164 1.270 . S
O163 Zn155 1.943 1_556 S
O163 C162 1.249 . S
O164 Zn154 2.067 . S
O164 C162 1.270 . S
C165 O158 1.262 1_565 S
C165 O166 1.232 . S
O166 C165 1.232 . S
C167 O159 1.260 . S
C167 O160 1.257 . S
Zn168 O171 2.031 . S
Zn168 O173 2.049 . S
Zn168 O178 2.069 1_556 S
Zn169 O170 1.962 1_554 S
Zn169 O172 1.986 . S
Zn169 O174 1.996 1_554 S
Zn169 O177 1.943 . S
O170 Zn169 1.962 1_556 S
O170 C175 1.254 . S
O171 Zn168 2.031 . S
O171 C175 1.269 . S
O172 Zn169 1.986 . S
O172 C179 1.262 . S
O173 Zn168 2.049 . S
O173 C181 1.260 . S
O174 Zn169 1.996 1_556 S
O174 C181 1.257 . S
C175 O170 1.254 . S
C175 O171 1.269 . S
C176 O177 1.249 . S
C176 O178 1.268 . S
O177 Zn169 1.943 . S
O177 C176 1.249 . S
O178 Zn168 2.069 1_554 S
O178 C176 1.268 . S
C179 O172 1.262 . S
C179 O180 1.232 . S
O180 C179 1.232 . S
C181 O173 1.260 . S
C181 O174 1.257 . S
Zn182 O185 2.031 . S
Zn182 O187 2.049 . S
Zn182 O192 2.067 1_556 S
Zn183 O184 1.962 1_554 S
Zn183 O186 1.986 . S
Zn183 O188 1.996 1_554 S
Zn183 O191 1.943 . S
O184 Zn183 1.962 1_556 S
O184 C189 1.254 . S
O185 Zn182 2.031 . S
O185 C189 1.269 . S
O186 Zn183 1.986 . S
O186 C193 1.262 . S
O187 Zn182 2.049 . S
O187 C195 1.260 . S
O188 Zn183 1.996 1_556 S
O188 C195 1.257 . S
C189 O184 1.254 . S
C189 O185 1.269 . S
C190 O191 1.249 . S
C190 O192 1.270 . S
O191 Zn183 1.943 . S
O191 C190 1.249 . S
O192 Zn182 2.067 1_554 S
O192 C190 1.270 . S
C193 O186 1.262 . S
C193 O194 1.232 . S
O194 C193 1.232 . S
C195 O187 1.260 . S
C195 O188 1.257 . S
Zn196 O199 2.031 . S
Zn196 O201 2.049 . S
Zn196 O206 2.067 . S
Zn197 O198 1.962 . S
Zn197 O200 1.986 . S
Zn197 O202 1.996 . S
Zn197 O205 1.943 . S
O198 Zn197 1.962 . S
O198 C203 1.254 . S
O199 Zn196 2.031 . S
O199 C203 1.269 . S
O200 Zn197 1.986 . S
O200 C207 1.262 . S
O201 Zn196 2.049 . S
O201 C209 1.260 . S
O202 Zn197 1.996 . S
O202 C209 1.257 . S
C203 O198 1.254 . S
C203 O199 1.269 . S
C204 O205 1.249 . S
C204 O206 1.270 . S
O205 Zn197 1.943 . S
O205 C204 1.249 . S
O206 Zn196 2.067 . S
O206 C204 1.270 . S
C207 O200 1.262 . S
C207 O208 1.232 . S
O208 C207 1.232 . S
C209 O201 1.260 . S
C209 O202 1.257 . S
Zn210 O213 2.031 1_565 S
Zn210 O215 2.049 . S
Zn210 O220 2.067 1_565 S
Zn211 O212 1.962 . S
Zn211 O214 1.986 . S
Zn211 O216 1.996 . S
Zn211 O219 1.943 . S
O212 Zn211 1.962 . S
O212 C217 1.254 1_565 S
O213 Zn210 2.031 1_545 S
O213 C217 1.269 . S
O214 Zn211 1.986 . S
O214 C221 1.262 . S
O215 Zn210 2.049 . S
O215 C223 1.260 . S
O216 Zn211 1.996 . S
O216 C223 1.257 . S
C217 O212 1.254 1_545 S
C217 O213 1.269 . S
C218 O219 1.249 1_545 S
C218 O220 1.270 . S
O219 Zn211 1.943 . S
O219 C218 1.249 1_565 S
O220 Zn210 2.067 1_545 S
O220 C218 1.270 . S
C221 O214 1.262 . S
C221 O222 1.232 . S
O222 C221 1.232 . S
C223 O215 1.260 . S
C223 O216 1.257 . S
Zn224 O227 2.031 1_565 S
Zn224 O229 2.049 . S
Zn224 O234 2.067 . S
Zn225 O226 1.962 . S
Zn225 O228 1.986 . S
Zn225 O230 1.996 1_545 S
Zn225 O233 1.943 1_545 S
O226 Zn225 1.962 . S
O226 C231 1.254 . S
O227 Zn224 2.031 1_545 S
O227 C231 1.269 . S
O228 Zn225 1.986 . S
O228 C235 1.262 . S
O229 Zn224 2.049 . S
O229 C237 1.260 . S
O230 Zn225 1.996 1_565 S
O230 C237 1.257 . S
C231 O226 1.254 . S
C231 O227 1.269 . S
C232 O233 1.249 . S
C232 O234 1.270 . S
O233 Zn225 1.943 1_565 S
O233 C232 1.249 . S
O234 Zn224 2.067 . S
O234 C232 1.270 . S
C235 O228 1.262 . S
C235 O236 1.232 . S
O236 C235 1.232 . S
C237 O229 1.260 . S
C237 O230 1.257 . S
Zn238 O241 2.031 . S
Zn238 O243 2.049 . S
Zn238 O248 2.067 . S
Zn239 O240 1.962 . S
Zn239 O242 1.986 . S
Zn239 O244 1.996 . S
Zn239 O247 1.943 . S
O240 Zn239 1.962 . S
O240 C245 1.254 . S
O241 Zn238 2.031 . S
O241 C245 1.269 . S
O242 Zn239 1.986 . S
O242 C249 1.262 . S
O243 Zn238 2.049 . S
O243 C251 1.260 . S
O244 Zn239 1.996 . S
O244 C251 1.257 . S
C245 O240 1.254 . S
C245 O241 1.269 . S
C246 O247 1.249 . S
C246 O248 1.270 . S
O247 Zn239 1.943 . S
O247 C246 1.249 . S
O248 Zn238 2.067 . S
O248 C246 1.270 . S
C249 O242 1.262 . S
C249 O250 1.232 . S
O250 C249 1.232 . S
C251 O243 1.260 . S
C251 O244 1.257 . S
Zn252 O255 2.031 . S
Zn252 O257 2.049 . S
Zn252 O262 2.067 . S
Zn253 O254 1.962 . S
Zn253 O256 1.986 . S
Zn253 O258 1.996 . S
Zn253 O261 1.943 . S
O254 Zn253 1.962 . S
O254 C259 1.254 . S
O255 Zn252 2.031 . S
O255 C259 1.269 . S
O256 Zn253 1.986 . S
O256 C263 1.262 . S
O257 Zn252 2.049 . S
O257 C265 1.260 . S
O258 Zn253 1.996 . S
O258 C265 1.257 . S
C259 O254 1.254 . S
C259 O255 1.269 . S
C260 O261 1.249 . S
C260 O262 1.270 . S
O261 Zn253 1.943 . S
O261 C260 1.249 . S
O262 Zn252 2.067 . S
O262 C260 1.270 . S
C263 O256 1.262 . S
C263 O264 1.232 . S
O264 C263 1.232 . S
C265 O257 1.260 . S
C265 O258 1.257 . S
Zn266 O269 2.031 1_565 S
Zn266 O271 2.049 . S
Zn266 O276 2.067 . S
Zn267 O268 1.962 . S
Zn267 O270 1.986 . S
Zn267 O272 1.996 . S
Zn267 O275 1.943 . S
O268 Zn267 1.962 . S
O268 C273 1.254 . S
O269 Zn266 2.031 1_545 S
O269 C273 1.269 . S
O270 Zn267 1.986 . S
O270 C277 1.262 . S
O271 Zn266 2.049 . S
O271 C279 1.260 . S
O272 Zn267 1.996 . S
O272 C279 1.257 1_545 S
C273 O268 1.254 . S
C273 O269 1.269 . S
C274 O275 1.249 1_565 S
C274 O276 1.270 . S
O275 Zn267 1.943 . S
O275 C274 1.249 1_545 S
O276 Zn266 2.067 . S
O276 C274 1.270 . S
C277 O270 1.262 . S
C277 O278 1.232 . S
O278 C277 1.232 . S
C279 O271 1.260 . S
C279 O272 1.257 1_565 S
Zn280 O283 2.031 1_556 S
Zn280 O285 2.049 . S
Zn280 O290 2.067 . S
Zn281 O282 1.962 . S
Zn281 O284 1.986 . S
Zn281 O286 1.996 1_554 S
Zn281 O289 1.943 1_554 S
O282 Zn281 1.962 . S
O282 C287 1.254 . S
O283 Zn280 2.031 1_554 S
O283 C287 1.269 . S
O284 Zn281 1.986 . S
O284 C291 1.262 . S
O285 Zn280 2.049 . S
O285 C293 1.260 . S
O286 Zn281 1.996 1_556 S
O286 C293 1.257 . S
C287 O282 1.254 . S
C287 O283 1.269 . S
C288 O289 1.249 . S
C288 O290 1.270 . S
O289 Zn281 1.943 1_556 S
O289 C288 1.249 . S
O290 Zn280 2.067 . S
O290 C288 1.270 . S
C291 O284 1.262 . S
C291 O292 1.232 . S
O292 C291 1.232 . S
C293 O285 1.260 . S
C293 O286 1.257 . S
Zn294 O297 2.031 . S
Zn294 O299 2.049 . S
Zn294 O304 2.067 . S
Zn295 O296 1.962 . S
Zn295 O298 1.986 . S
Zn295 O300 1.996 . S
Zn295 O303 1.943 . S
O296 Zn295 1.962 . S
O296 C301 1.254 . S
O297 Zn294 2.031 . S
O297 C301 1.269 . S
O298 Zn295 1.986 . S
O298 C305 1.262 . S
O299 Zn294 2.049 . S
O299 C307 1.260 . S
O300 Zn295 1.996 . S
O300 C307 1.257 . S
C301 O296 1.254 . S
C301 O297 1.269 . S
C302 O303 1.249 . S
C302 O304 1.270 . S
O303 Zn295 1.943 . S
O303 C302 1.249 . S
O304 Zn294 2.067 . S
O304 C302 1.270 . S
C305 O298 1.262 . S
C305 O306 1.232 . S
O306 C305 1.232 . S
C307 O299 1.260 . S
C307 O300 1.257 . S
Zn308 O311 2.031 . S
Zn308 O313 2.049 . S
Zn308 O318 2.067 . S
Zn309 O310 1.962 . S
Zn309 O312 1.986 . S
Zn309 O314 1.996 . S
Zn309 O317 1.943 . S
O310 Zn309 1.962 . S
O310 C315 1.254 . S
O311 Zn308 2.031 . S
O311 C315 1.269 . S
O312 Zn309 1.986 . S
O312 C319 1.262 . S
O313 Zn308 2.049 . S
O313 C321 1.260 . S
O314 Zn309 1.996 . S
O314 C321 1.257 . S
C315 O310 1.254 . S
C315 O311 1.269 . S
C316 O317 1.249 . S
C316 O318 1.270 . S
O317 Zn309 1.943 . S
O317 C316 1.249 . S
O318 Zn308 2.067 . S
O318 C316 1.270 . S
C319 O312 1.262 . S
C319 O320 1.232 . S
O320 C319 1.232 . S
C321 O313 1.260 . S
C321 O314 1.257 . S
Zn322 O325 2.031 . S
Zn322 O327 2.049 . S
Zn322 O332 2.067 . S
Zn323 O324 1.962 . S
Zn323 O326 1.986 . S
Zn323 O328 1.996 . S
Zn323 O331 1.943 . S
O324 Zn323 1.962 . S
O324 C329 1.254 . S
O325 Zn322 2.031 . S
O325 C329 1.269 . S
O326 Zn323 1.986 . S
O326 C333 1.262 . S
O327 Zn322 2.049 . S
O327 C335 1.260 . S
O328 Zn323 1.996 . S
O328 C335 1.257 . S
C329 O324 1.254 . S
C329 O325 1.269 . S
C330 O331 1.249 . S
C330 O332 1.270 . S
O331 Zn323 1.943 . S
O331 C330 1.249 . S
O332 Zn322 2.067 . S
O332 C330 1.270 . S
C333 O326 1.262 . S
C333 O334 1.232 . S
O334 C333 1.232 . S
C335 O327 1.260 . S
C335 O328 1.257 . S
O336 Mn337 2.163 . S
O336 C350 1.244 . S
Mn337 O336 2.163 . S
Mn337 O340 2.160 . S
Mn337 O341 2.221 . S
Mn337 O343 2.163 . S
Mn337 O345 2.160 . S
Mn337 O355 2.221 . S
O338 Mn339 2.087 . S
O338 C350 1.256 . S
Mn339 O338 2.087 . S
Mn339 O346 2.089 . S
Mn339 O355 2.290 . S
Mn339 O356 2.251 . S
O340 Mn337 2.160 . S
O340 C351 1.239 . S
O341 Mn337 2.221 . S
O341 Mn342 2.290 . S
O341 C352 1.278 . S
Mn342 O341 2.290 . S
Mn342 O344 2.089 . S
Mn342 O347 2.251 1_554 S
Mn342 O348 2.087 . S
O343 Mn337 2.163 . S
O343 C353 1.244 . S
O344 Mn342 2.089 . S
O344 C351 1.256 . S
O345 Mn337 2.160 . S
O345 C354 1.239 . S
O346 Mn339 2.089 . S
O346 C354 1.256 . S
O347 Mn342 2.251 1_556 S
O347 C352 1.241 1_556 S
O348 Mn342 2.087 . S
O348 C353 1.256 . S
C349 O355 1.278 . S
C349 O356 1.241 . S
C350 O336 1.244 . S
C350 O338 1.256 . S
C351 O340 1.239 . S
C351 O344 1.256 . S
C352 O341 1.278 . S
C352 O347 1.241 1_554 S
C353 O343 1.244 . S
C353 O348 1.256 . S
C354 O345 1.239 . S
C354 O346 1.256 . S
O355 Mn337 2.221 . S
O355 Mn339 2.290 . S
O355 C349 1.278 . S
O356 Mn339 2.251 . S
O356 C349 1.241 . S
O357 Mn358 2.163 . S
O357 C371 1.244 . S
Mn358 O357 2.163 . S
Mn358 O361 2.160 . S
Mn358 O362 2.221 . S
Mn358 O364 2.163 . S
Mn358 O366 2.160 . S
Mn358 O376 2.221 . S
O359 Mn360 2.087 . S
O359 C371 1.256 . S
Mn360 O359 2.087 . S
Mn360 O367 2.089 . S
Mn360 O376 2.290 . S
Mn360 O377 2.251 . S
O361 Mn358 2.160 . S
O361 C372 1.239 1_565 S
O362 Mn358 2.221 . S
O362 Mn363 2.290 1_565 S
O362 C373 1.278 . S
Mn363 O362 2.290 1_545 S
Mn363 O365 2.089 . S
Mn363 O368 2.251 1_445 S
Mn363 O369 2.087 1_445 S
O364 Mn358 2.163 . S
O364 C374 1.244 . S
O365 Mn363 2.089 . S
O365 C372 1.256 . S
O366 Mn358 2.160 . S
O366 C375 1.239 . S
O367 Mn360 2.089 . S
O367 C375 1.256 . S
O368 Mn363 2.251 1_665 S
O368 C373 1.241 1_655 S
O369 Mn363 2.087 1_665 S
O369 C374 1.256 1_655 S
C370 O376 1.278 . S
C370 O377 1.241 . S
C371 O357 1.244 . S
C371 O359 1.256 . S
C372 O361 1.239 1_545 S
C372 O365 1.256 . S
C373 O362 1.278 . S
C373 O368 1.241 1_455 S
C374 O364 1.244 . S
C374 O369 1.256 1_455 S
C375 O366 1.239 . S
C375 O367 1.256 . S
O376 Mn358 2.221 . S
O376 Mn360 2.290 . S
O376 C370 1.278 . S
O377 Mn360 2.251 . S
O377 C370 1.241 . S
O378 Mn379 2.163 . S
O378 C392 1.244 1_565 S
Mn379 O378 2.163 . S
Mn379 O382 2.160 . S
Mn379 O383 2.221 . S
Mn379 O385 2.163 . S
Mn379 O387 2.160 . S
Mn379 O397 2.221 1_565 S
O380 Mn381 2.087 . S
O380 C392 1.256 . S
Mn381 O380 2.087 . S
Mn381 O388 2.089 1_545 S
Mn381 O397 2.290 . S
Mn381 O398 2.251 . S
O382 Mn379 2.160 . S
O382 C393 1.239 . S
O383 Mn379 2.221 . S
O383 Mn384 2.290 . S
O383 C394 1.278 . S
Mn384 O383 2.290 . S
Mn384 O386 2.089 . S
Mn384 O389 2.251 . S
Mn384 O390 2.087 . S
O385 Mn379 2.163 . S
O385 C395 1.244 . S
O386 Mn384 2.089 . S
O386 C393 1.256 . S
O387 Mn379 2.160 . S
O387 C396 1.239 . S
O388 Mn381 2.089 1_565 S
O388 C396 1.256 . S
O389 Mn384 2.251 . S
O389 C394 1.241 . S
O390 Mn384 2.087 . S
O390 C395 1.256 . S
C391 O397 1.278 . S
C391 O398 1.241 . S
C392 O378 1.244 1_545 S
C392 O380 1.256 . S
C393 O382 1.239 . S
C393 O386 1.256 . S
C394 O383 1.278 . S
C394 O389 1.241 . S
C395 O385 1.244 . S
C395 O390 1.256 . S
C396 O387 1.239 . S
C396 O388 1.256 . S
O397 Mn379 2.221 1_545 S
O397 Mn381 2.290 . S
O397 C391 1.278 . S
O398 Mn381 2.251 . S
O398 C391 1.241 . S
O399 Mn400 2.163 . S
O399 C413 1.244 . S
Mn400 O399 2.163 . S
Mn400 O403 2.160 . S
Mn400 O404 2.221 . S
Mn400 O406 2.163 . S
Mn400 O408 2.160 . S
Mn400 O418 2.221 . S
O401 Mn402 2.087 . S
O401 C413 1.256 . S
Mn402 O401 2.087 . S
Mn402 O409 2.089 1_556 S
Mn402 O418 2.290 . S
Mn402 O419 2.251 . S
O403 Mn400 2.160 . S
O403 C414 1.239 . S
O404 Mn400 2.221 . S
O404 Mn405 2.290 . S
O404 C415 1.278 . S
Mn405 O404 2.290 . S
Mn405 O407 2.089 . S
Mn405 O410 2.251 . S
Mn405 O411 2.087 . S
O406 Mn400 2.163 . S
O406 C416 1.244 . S
O407 Mn405 2.089 . S
O407 C414 1.256 . S
O408 Mn400 2.160 . S
O408 C417 1.239 . S
O409 Mn402 2.089 1_554 S
O409 C417 1.256 1_554 S
O410 Mn405 2.251 . S
O410 C415 1.241 . S
O411 Mn405 2.087 . S
O411 C416 1.256 . S
C412 O418 1.278 . S
C412 O419 1.241 . S
C413 O399 1.244 . S
C413 O401 1.256 . S
C414 O403 1.239 . S
C414 O407 1.256 . S
C415 O404 1.278 . S
C415 O410 1.241 . S
C416 O406 1.244 . S
C416 O411 1.256 . S
C417 O408 1.239 . S
C417 O409 1.256 1_556 S
O418 Mn400 2.221 . S
O418 Mn402 2.290 . S
O418 C412 1.278 . S
O419 Mn402 2.251 . S
O419 C412 1.241 . S
O420 Mn421 2.163 . S
O420 C434 1.244 . S
Mn421 O420 2.163 . S
Mn421 O424 2.160 . S
Mn421 O425 2.221 . S
Mn421 O427 2.163 . S
Mn421 O429 2.160 . S
Mn421 O439 2.221 . S
O422 Mn423 2.087 . S
O422 C434 1.256 . S
Mn423 O422 2.087 . S
Mn423 O430 2.089 . S
Mn423 O439 2.290 . S
Mn423 O440 2.251 . S
O424 Mn421 2.160 . S
O424 C435 1.239 1_556 S
O425 Mn421 2.221 . S
O425 Mn426 2.290 . S
O425 C436 1.278 . S
Mn426 O425 2.290 . S
Mn426 O428 2.089 1_556 S
Mn426 O431 2.251 . S
Mn426 O432 2.087 . S
O427 Mn421 2.163 . S
O427 C437 1.244 . S
O428 Mn426 2.089 1_554 S
O428 C435 1.256 . S
O429 Mn421 2.160 . S
O429 C438 1.239 . S
O430 Mn423 2.089 . S
O430 C438 1.256 . S
O431 Mn426 2.251 . S
O431 C436 1.241 . S
O432 Mn426 2.087 . S
O432 C437 1.256 . S
C433 O439 1.278 . S
C433 O440 1.241 . S
C434 O420 1.244 . S
C434 O422 1.256 . S
C435 O424 1.239 1_554 S
C435 O428 1.256 . S
C436 O425 1.278 . S
C436 O431 1.241 . S
C437 O427 1.244 . S
C437 O432 1.256 . S
C438 O429 1.239 . S
C438 O430 1.256 . S
O439 Mn421 2.221 . S
O439 Mn423 2.290 . S
O439 C433 1.278 . S
O440 Mn423 2.251 . S
O440 C433 1.241 . S
O441 Mn442 2.163 . S
O441 C455 1.244 . S
Mn442 O441 2.163 . S
Mn442 O445 2.160 . S
Mn442 O446 2.221 . S
Mn442 O448 2.163 . S
Mn442 O450 2.160 . S
Mn442 O460 2.221 . S
O443 Mn444 2.087 . S
O443 C455 1.256 . S
Mn444 O443 2.087 . S
Mn444 O451 2.089 1_655 S
Mn444 O460 2.290 . S
Mn444 O461 2.251 . S
O445 Mn442 2.160 . S
O445 C456 1.239 . S
O446 Mn442 2.221 . S
O446 Mn447 2.290 . S
O446 C457 1.278 . S
Mn447 O446 2.290 . S
Mn447 O449 2.089 . S
Mn447 O452 2.251 . S
Mn447 O453 2.087 . S
O448 Mn442 2.163 . S
O448 C458 1.244 . S
O449 Mn447 2.089 . S
O449 C456 1.256 . S
O450 Mn442 2.160 . S
O450 C459 1.239 . S
O451 Mn444 2.089 1_455 S
O451 C459 1.256 1_455 S
O452 Mn447 2.251 . S
O452 C457 1.241 . S
O453 Mn447 2.087 . S
O453 C458 1.256 . S
C454 O460 1.278 . S
C454 O461 1.241 . S
C455 O441 1.244 . S
C455 O443 1.256 . S
C456 O445 1.239 . S
C456 O449 1.256 . S
C457 O446 1.278 . S
C457 O452 1.241 . S
C458 O448 1.244 . S
C458 O453 1.256 . S
C459 O450 1.239 . S
C459 O451 1.256 1_655 S
O460 Mn442 2.221 . S
O460 Mn444 2.290 . S
O460 C454 1.278 . S
O461 Mn444 2.251 . S
O461 C454 1.241 . S
O462 Mn463 2.163 . S
O462 C476 1.244 . S
Mn463 O462 2.163 . S
Mn463 O466 2.160 . S
Mn463 O467 2.221 . S
Mn463 O469 2.163 . S
Mn463 O471 2.160 . S
Mn463 O481 2.221 . S
O464 Mn465 2.087 1_455 S
O464 C476 1.256 1_455 S
Mn465 O464 2.087 1_655 S
Mn465 O472 2.089 . S
Mn465 O481 2.290 . S
Mn465 O482 2.251 1_655 S
O466 Mn463 2.160 . S
O466 C477 1.239 . S
O467 Mn463 2.221 . S
O467 Mn468 2.290 . S
O467 C478 1.278 . S
Mn468 O467 2.290 . S
Mn468 O470 2.089 . S
Mn468 O473 2.251 . S
Mn468 O474 2.087 . S
O469 Mn463 2.163 . S
O469 C479 1.244 . S
O470 Mn468 2.089 . S
O470 C477 1.256 . S
O471 Mn463 2.160 . S
O471 C480 1.239 . S
O472 Mn465 2.089 . S
O472 C480 1.256 . S
O473 Mn468 2.251 . S
O473 C478 1.241 . S
O474 Mn468 2.087 . S
O474 C479 1.256 . S
C475 O481 1.261 1_455 S
C475 O482 1.255 . S
C476 O462 1.244 . S
C476 O464 1.256 1_655 S
C477 O466 1.239 . S
C477 O470 1.256 . S
C478 O467 1.278 . S
C478 O473 1.241 . S
C479 O469 1.244 . S
C479 O474 1.256 . S
C480 O471 1.239 . S
C480 O472 1.256 . S
O481 Mn463 2.221 . S
O481 Mn465 2.290 . S
O481 C475 1.261 1_655 S
O482 Mn465 2.251 1_455 S
O482 C475 1.255 . S
O483 Mn484 2.163 . S
O483 C497 1.244 . S
Mn484 O483 2.163 . S
Mn484 O487 2.160 1_565 S
Mn484 O488 2.221 . S
Mn484 O490 2.163 1_565 S
Mn484 O492 2.160 . S
Mn484 O502 2.221 . S
O485 Mn486 2.087 . S
O485 C497 1.256 . S
Mn486 O485 2.087 . S
Mn486 O493 2.089 . S
Mn486 O502 2.290 . S
Mn486 O503 2.251 . S
O487 Mn484 2.160 1_545 S
O487 C498 1.239 . S
O488 Mn484 2.221 . S
O488 Mn489 2.290 1_565 S
O488 C499 1.278 1_556 S
Mn489 O488 2.290 1_545 S
Mn489 O491 2.089 . S
Mn489 O494 2.251 1_546 S
Mn489 O495 2.087 1_556 S
O490 Mn484 2.163 1_545 S
O490 C500 1.244 . S
O491 Mn489 2.089 . S
O491 C498 1.256 . S
O492 Mn484 2.160 . S
O492 C501 1.239 . S
O493 Mn486 2.089 . S
O493 C501 1.256 . S
O494 Mn489 2.251 1_564 S
O494 C499 1.241 . S
O495 Mn489 2.087 1_554 S
O495 C500 1.256 1_554 S
C496 O502 1.278 . S
C496 O503 1.241 . S
C497 O483 1.244 . S
C497 O485 1.256 . S
C498 O487 1.239 . S
C498 O491 1.256 . S
C499 O488 1.278 1_554 S
C499 O494 1.241 . S
C500 O490 1.244 . S
C500 O495 1.256 1_556 S
C501 O492 1.239 . S
C501 O493 1.256 . S
O502 Mn484 2.221 . S
O502 Mn486 2.290 . S
O502 C496 1.278 . S
O503 Mn486 2.251 . S
O503 C496 1.241 . S
O504 Mn505 2.163 . S
O504 C518 1.244 . S
Mn505 O504 2.163 . S
Mn505 O508 2.160 . S
Mn505 O509 2.221 . S
Mn505 O511 2.163 . S
Mn505 O513 2.160 . S
Mn505 O523 2.221 . S
O506 Mn507 2.087 . S
O506 C518 1.256 . S
Mn507 O506 2.087 . S
Mn507 O514 2.089 . S
Mn507 O523 2.290 . S
Mn507 O524 2.251 . S
O508 Mn505 2.160 . S
O508 C519 1.239 . S
O509 Mn505 2.221 . S
O509 Mn510 2.290 . S
O509 C520 1.278 1_655 S
Mn510 O509 2.290 . S
Mn510 O512 2.089 . S
Mn510 O515 2.251 1_655 S
Mn510 O516 2.087 1_655 S
O511 Mn505 2.163 . S
O511 C521 1.244 . S
O512 Mn510 2.089 . S
O512 C519 1.256 . S
O513 Mn505 2.160 . S
O513 C522 1.239 . S
O514 Mn507 2.089 . S
O514 C522 1.256 . S
O515 Mn510 2.251 1_455 S
O515 C520 1.241 . S
O516 Mn510 2.087 1_455 S
O516 C521 1.256 1_455 S
C517 O523 1.278 . S
C517 O524 1.241 . S
C518 O504 1.244 . S
C518 O506 1.256 . S
C519 O508 1.239 . S
C519 O512 1.256 . S
C520 O509 1.278 1_455 S
C520 O515 1.241 . S
C521 O511 1.244 . S
C521 O516 1.256 1_655 S
C522 O513 1.239 . S
C522 O514 1.256 . S
O523 Mn505 2.221 . S
O523 Mn507 2.290 . S
O523 C517 1.278 . S
O524 Mn507 2.251 . S
O524 C517 1.241 . S
O525 Mn526 2.163 . S
O525 C539 1.244 . S
Mn526 O525 2.163 . S
Mn526 O529 2.160 . S
Mn526 O530 2.221 . S
Mn526 O532 2.163 . S
Mn526 O534 2.160 . S
Mn526 O544 2.221 . S
O527 Mn528 2.087 . S
O527 C539 1.256 . S
Mn528 O527 2.087 . S
Mn528 O535 2.089 . S
Mn528 O544 2.290 . S
Mn528 O545 2.251 . S
O529 Mn526 2.160 . S
O529 C540 1.239 . S
O530 Mn526 2.221 . S
O530 Mn531 2.290 . S
O530 C541 1.278 . S
Mn531 O530 2.290 . S
Mn531 O533 2.089 . S
Mn531 O536 2.251 . S
Mn531 O537 2.087 . S
O532 Mn526 2.163 . S
O532 C542 1.244 . S
O533 Mn531 2.089 . S
O533 C540 1.256 . S
O534 Mn526 2.160 . S
O534 C543 1.239 . S
O535 Mn528 2.089 . S
O535 C543 1.256 . S
O536 Mn531 2.251 . S
O536 C541 1.241 . S
O537 Mn531 2.087 . S
O537 C542 1.256 . S
C538 O544 1.278 . S
C538 O545 1.241 . S
C539 O525 1.244 . S
C539 O527 1.256 . S
C540 O529 1.239 . S
C540 O533 1.256 . S
C541 O530 1.278 . S
C541 O536 1.241 . S
C542 O532 1.244 . S
C542 O537 1.256 . S
C543 O534 1.239 . S
C543 O535 1.256 . S
O544 Mn526 2.221 . S
O544 Mn528 2.290 . S
O544 C538 1.278 . S
O545 Mn528 2.251 . S
O545 C538 1.241 . S
O546 Mn547 2.163 . S
O546 C560 1.244 . S
Mn547 O546 2.163 . S
Mn547 O550 2.160 . S
Mn547 O551 2.221 . S
Mn547 O553 2.163 . S
Mn547 O555 2.160 . S
Mn547 O565 2.221 . S
O548 Mn549 2.087 1_565 S
O548 C560 1.256 . S
Mn549 O548 2.087 1_545 S
Mn549 O556 2.089 . S
Mn549 O565 2.290 1_545 S
Mn549 O566 2.251 . S
O550 Mn547 2.160 . S
O550 C561 1.239 . S
O551 Mn547 2.221 . S
O551 Mn552 2.290 . S
O551 C562 1.278 . S
Mn552 O551 2.290 . S
Mn552 O554 2.089 . S
Mn552 O557 2.251 . S
Mn552 O558 2.087 . S
O553 Mn547 2.163 . S
O553 C563 1.244 . S
O554 Mn552 2.089 . S
O554 C561 1.256 . S
O555 Mn547 2.160 . S
O555 C564 1.239 1_565 S
O556 Mn549 2.089 . S
O556 C564 1.256 . S
O557 Mn552 2.251 . S
O557 C562 1.241 . S
O558 Mn552 2.087 . S
O558 C563 1.256 . S
C559 O565 1.277 1_545 S
C559 O566 1.241 . S
C560 O546 1.244 . S
C560 O548 1.256 . S
C561 O550 1.239 . S
C561 O554 1.256 . S
C562 O551 1.278 . S
C562 O557 1.241 . S
C563 O553 1.244 . S
C563 O558 1.256 . S
C564 O555 1.239 1_545 S
C564 O556 1.256 . S
O565 Mn547 2.221 . S
O565 Mn549 2.290 1_565 S
O565 C559 1.277 1_565 S
O566 Mn549 2.251 . S
O566 C559 1.241 . S
O567 Mn568 2.163 . S
O567 C581 1.244 . S
Mn568 O567 2.163 . S
Mn568 O571 2.160 . S
Mn568 O572 2.221 . S
Mn568 O574 2.163 . S
Mn568 O576 2.160 . S
Mn568 O586 2.221 . S
O569 Mn570 2.087 . S
O569 C581 1.256 . S
Mn570 O569 2.087 . S
Mn570 O577 2.089 . S
Mn570 O586 2.290 . S
Mn570 O587 2.251 . S
O571 Mn568 2.160 . S
O571 C582 1.239 . S
O572 Mn568 2.221 . S
O572 Mn573 2.290 . S
O572 C583 1.278 . S
Mn573 O572 2.290 . S
Mn573 O575 2.089 1_554 S
Mn573 O578 2.251 . S
Mn573 O579 2.087 . S
O574 Mn568 2.163 . S
O574 C584 1.244 . S
O575 Mn573 2.089 1_556 S
O575 C582 1.256 1_556 S
O576 Mn568 2.160 . S
O576 C585 1.239 . S
O577 Mn570 2.089 . S
O577 C585 1.256 . S
O578 Mn573 2.251 . S
O578 C583 1.241 . S
O579 Mn573 2.087 . S
O579 C584 1.256 . S
C580 O586 1.278 . S
C580 O587 1.241 . S
C581 O567 1.244 . S
C581 O569 1.256 . S
C582 O571 1.239 . S
C582 O575 1.256 1_554 S
C583 O572 1.278 . S
C583 O578 1.241 . S
C584 O574 1.244 . S
C584 O579 1.256 . S
C585 O576 1.239 . S
C585 O577 1.256 . S
O586 Mn568 2.221 . S
O586 Mn570 2.290 . S
O586 C580 1.278 . S
O587 Mn570 2.251 . S
O587 C580 1.241 . S
O588 Mn589 2.163 . S
O588 C602 1.244 . S
Mn589 O588 2.163 . S
Mn589 O592 2.160 . S
Mn589 O593 2.221 . S
Mn589 O595 2.163 . S
Mn589 O597 2.160 . S
Mn589 O607 2.221 . S
O590 Mn591 2.087 . S
O590 C602 1.256 . S
Mn591 O590 2.087 . S
Mn591 O598 2.089 . S
Mn591 O607 2.290 . S
Mn591 O608 2.251 . S
O592 Mn589 2.160 . S
O592 C603 1.239 . S
O593 Mn589 2.221 . S
O593 Mn594 2.290 . S
O593 C604 1.287 . S
Mn594 O593 2.290 . S
Mn594 O596 2.089 . S
Mn594 O599 2.251 1_556 S
Mn594 O600 2.087 1_556 S
O595 Mn589 2.163 . S
O595 C605 1.244 . S
O596 Mn594 2.089 . S
O596 C603 1.256 . S
O597 Mn589 2.160 . S
O597 C606 1.239 . S
O598 Mn591 2.089 . S
O598 C606 1.256 . S
O599 Mn594 2.251 1_554 S
O599 C604 1.232 1_554 S
O600 Mn594 2.087 1_554 S
O600 C605 1.256 1_554 S
C601 O607 1.278 . S
C601 O608 1.241 . S
C602 O588 1.244 . S
C602 O590 1.256 . S
C603 O592 1.239 . S
C603 O596 1.256 . S
C604 O593 1.287 . S
C604 O599 1.232 1_556 S
C605 O595 1.244 . S
C605 O600 1.256 1_556 S
C606 O597 1.239 . S
C606 O598 1.256 . S
O607 Mn589 2.221 . S
O607 Mn591 2.290 . S
O607 C601 1.278 . S
O608 Mn591 2.251 . S
O608 C601 1.241 . S
O609 Mn610 2.163 . S
O609 C623 1.244 . S
Mn610 O609 2.163 . S
Mn610 O613 2.160 . S
Mn610 O614 2.221 . S
Mn610 O616 2.163 . S
Mn610 O618 2.160 . S
Mn610 O628 2.221 . S
O611 Mn612 2.087 1_655 S
O611 C623 1.256 1_655 S
Mn612 O611 2.087 1_455 S
Mn612 O619 2.089 . S
Mn612 O628 2.290 . S
Mn612 O629 2.251 1_455 S
O613 Mn610 2.160 . S
O613 C624 1.239 . S
O614 Mn610 2.221 . S
O614 Mn615 2.290 . S
O614 C625 1.278 . S
Mn615 O614 2.290 . S
Mn615 O617 2.089 . S
Mn615 O620 2.251 . S
Mn615 O621 2.087 . S
O616 Mn610 2.163 . S
O616 C626 1.244 . S
O617 Mn615 2.089 . S
O617 C624 1.256 . S
O618 Mn610 2.160 . S
O618 C627 1.239 . S
O619 Mn612 2.089 . S
O619 C627 1.256 . S
O620 Mn615 2.251 . S
O620 C625 1.241 . S
O621 Mn615 2.087 . S
O621 C626 1.256 . S
C622 O628 1.278 . S
C622 O629 1.241 1_455 S
C623 O609 1.244 . S
C623 O611 1.256 1_455 S
C624 O613 1.239 . S
C624 O617 1.256 . S
C625 O614 1.278 . S
C625 O620 1.241 . S
C626 O616 1.244 . S
C626 O621 1.256 . S
C627 O618 1.239 . S
C627 O619 1.256 . S
O628 Mn610 2.221 . S
O628 Mn612 2.290 . S
O628 C622 1.278 . S
O629 Mn612 2.251 1_655 S
O629 C622 1.241 1_655 S
O630 Mn631 2.163 . S
O630 C644 1.244 . S
Mn631 O630 2.163 . S
Mn631 O634 2.160 . S
Mn631 O635 2.221 . S
Mn631 O637 2.163 . S
Mn631 O639 2.160 . S
Mn631 O649 2.221 . S
O632 Mn633 2.087 . S
O632 C644 1.256 . S
Mn633 O632 2.087 . S
Mn633 O640 2.089 . S
Mn633 O649 2.290 . S
Mn633 O650 2.251 . S
O634 Mn631 2.160 . S
O634 C645 1.239 . S
O635 Mn631 2.221 . S
O635 Mn636 2.290 . S
O635 C646 1.278 . S
Mn636 O635 2.290 . S
Mn636 O638 2.089 . S
Mn636 O641 2.251 . S
Mn636 O642 2.087 . S
O637 Mn631 2.163 . S
O637 C647 1.244 . S
O638 Mn636 2.089 . S
O638 C645 1.256 . S
O639 Mn631 2.160 . S
O639 C648 1.239 . S
O640 Mn633 2.089 . S
O640 C648 1.256 . S
O641 Mn636 2.251 . S
O641 C646 1.241 . S
O642 Mn636 2.087 . S
O642 C647 1.256 . S
C643 O649 1.278 . S
C643 O650 1.241 . S
C644 O630 1.244 . S
C644 O632 1.256 . S
C645 O634 1.239 . S
C645 O638 1.256 . S
C646 O635 1.278 . S
C646 O641 1.241 . S
C647 O637 1.244 . S
C647 O642 1.256 . S
C648 O639 1.239 . S
C648 O640 1.256 . S
O649 Mn631 2.221 . S
O649 Mn633 2.290 . S
O649 C643 1.278 . S
O650 Mn633 2.251 . S
O650 C643 1.241 . S
O651 Mn652 2.163 . S
O651 C665 1.244 . S
Mn652 O651 2.163 . S
Mn652 O655 2.160 . S
Mn652 O656 2.221 . S
Mn652 O658 2.163 . S
Mn652 O660 2.160 . S
Mn652 O670 2.221 . S
O653 Mn654 2.087 . S
O653 C665 1.256 . S
Mn654 O653 2.087 . S
Mn654 O661 2.089 . S
Mn654 O670 2.290 . S
Mn654 O671 2.251 . S
O655 Mn652 2.160 . S
O655 C666 1.239 . S
O656 Mn652 2.221 . S
O656 Mn657 2.290 . S
O656 C667 1.278 . S
Mn657 O656 2.290 . S
Mn657 O659 2.089 . S
Mn657 O662 2.251 . S
Mn657 O663 2.087 . S
O658 Mn652 2.163 . S
O658 C668 1.244 . S
O659 Mn657 2.089 . S
O659 C666 1.256 . S
O660 Mn652 2.160 . S
O660 C669 1.239 . S
O661 Mn654 2.089 . S
O661 C669 1.256 . S
O662 Mn657 2.251 . S
O662 C667 1.241 . S
O663 Mn657 2.087 . S
O663 C668 1.256 . S
C664 O670 1.278 . S
C664 O671 1.241 . S
C665 O651 1.244 . S
C665 O653 1.256 . S
C666 O655 1.239 . S
C666 O659 1.256 . S
C667 O656 1.278 . S
C667 O662 1.241 . S
C668 O658 1.244 . S
C668 O663 1.256 . S
C669 O660 1.239 . S
C669 O661 1.256 . S
O670 Mn652 2.221 . S
O670 Mn654 2.290 . S
O670 C664 1.278 . S
O671 Mn654 2.251 . S
O671 C664 1.241 . S
C354 C11 1.623 . S
C21 C374 1.982 . S
C394 C41 2.085 . S
C413 C50 2.388 1_556 S
C371 C64 2.505 . S
C83 C396 2.198 . S
C416 C91 1.957 . S
C109 C352 2.020 1_556 S
C123 C349 2.043 . S
C372 C134 2.538 . S
C395 C147 1.862 1_565 S
C417 C167 2.651 1_545 S
C375 C125 2.392 . S
C391 C133 1.292 . S
C148 C414 2.158 . S
C353 C165 1.840 1_545 S
C179 C350 2.185 . S
C189 C433 1.087 . S
C455 C204 2.249 1_655 S
C478 C223 1.954 . S
C235 C351 1.926 1_655 S
C246 C393 2.460 . S
C475 C203 1.498 . S
C436 C265 2.157 . S
C501 C27 2.281 . S
C521 C7 2.037 . S
C53 C543 1.710 . S
C36 C560 2.300 1_556 S
C106 C518 2.152 . S
C95 C541 1.374 . S
C563 C77 2.282 . S
C69 C499 1.932 . S
C279 C496 1.902 . S
C519 C218 2.288 . S
C538 C231 1.893 . S
C564 C193 2.034 . S
C522 C277 1.705 . S
C542 C217 1.632 . S
C561 C232 1.864 . S
C195 C500 2.433 . S
C497 C293 2.376 . S
C161 C580 1.097 . S
C603 C302 1.884 1_455 S
C137 C625 1.509 . S
C498 C153 2.394 1_655 S
C539 C316 1.951 . S
C622 C301 1.834 1_455 S
C333 C583 1.184 . S
C39 C648 1.623 . S
C49 C437 1.981 1_554 S
C457 C13 2.085 . S
C22 C476 2.386 . S
C92 C434 2.505 . S
C111 C459 2.198 1_556 S
C479 C63 1.957 . S
C646 C81 2.020 . S
C643 C305 2.043 . S
C435 C288 2.538 1_554 S
C458 C329 1.862 . S
C321 C480 2.651 . S
C438 C307 2.391 . S
C287 C454 1.292 . S
C477 C330 2.158 . S
C319 C647 1.840 . S
C644 C221 2.185 . S
C245 C370 1.087 . S
C392 C274 2.249 1_545 S
C181 C415 1.954 . S
C645 C263 1.927 . S
C456 C190 2.460 . S
C412 C273 1.483 . S
C373 C237 2.157 1_455 S
C55 C669 2.281 . S
C35 C584 2.036 1_556 S
C25 C606 1.709 . S
C623 C8 2.300 . S
C581 C78 2.152 . S
C67 C604 1.365 1_554 S
C626 C105 2.282 . S
C97 C667 1.932 . S
C664 C209 1.902 . S
C176 C582 2.288 . S
C259 C601 1.893 . S
C627 C249 2.034 . S
C585 C207 1.705 . S
C175 C605 1.632 . S
C624 C260 1.864 . S
C668 C251 2.433 . S
C665 C139 2.376 . S
C517 C315 1.097 . S
C120 C540 1.884 . S
C291 C562 1.509 . S
C666 C335 2.394 . S
C602 C162 1.951 . S
C559 C119 1.833 1_545 S
C520 C151 1.184 . S
